
#######################################################################
#
#                 Cambridge Crystallographic Data Centre
#                                CCDC 
#
#######################################################################
#
# If this CIF has been generated from an entry in the Cambridge 
# Structural Database, then it will include bibliographic, chemical, 
# crystal, experimental, refinement or atomic coordinate data resulting 
# from the CCDC's data processing and validation procedures.
#
#######################################################################

data_FOJTOO
_chemical_formula_moiety         'C24 H14 S2'
_chemical_name_systematic        
2,6-Diphenylnaphtho(1,8-bc:5,4-b'c')dithiophene
_symmetry_cell_setting           orthorhombic
_symmetry_space_group_name_H-M   'P b c a'
_symmetry_Int_Tables_number      61
_space_group_name_Hall           '-P 2ac 2ab'
loop_
_symmetry_equiv_pos_site_id
_symmetry_equiv_pos_as_xyz
1 x,y,z
2 1/2+x,1/2-y,-z
3 -x,1/2+y,1/2-z
4 1/2-x,-y,1/2+z
5 -x,-y,-z
6 1/2-x,1/2+y,z
7 x,1/2-y,1/2+z
8 1/2+x,y,1/2-z
_cell_length_a                   7.3528(1)
_cell_length_b                   8.1884(1)
_cell_length_c                   28.6857(5)
_cell_angle_alpha                90
_cell_angle_beta                 90
_cell_angle_gamma                90
_cell_volume                     1727.1
_exptl_crystal_colour            red
_exptl_crystal_description       prism
_chemical_melting_point          '264-265 deg.C'
_cell_formula_units_Z            4
_exptl_crystal_recrystallization_method chloroform
loop_
_atom_site_label
_atom_site_type_symbol
_atom_site_fract_x
_atom_site_fract_y
_atom_site_fract_z
S1 S 0.57916(8) -0.35917(7) 0.46291(2)
C1 C 0.5242(3) -0.2214(3) 0.41876(7)
C2 C 0.4918(3) -0.0658(2) 0.43679(7)
C3 C 0.5125(3) -0.0682(2) 0.48625(7)
C4 C 0.5588(3) -0.2172(3) 0.50628(7)
C5 C 0.5775(3) -0.2259(3) 0.55574(8)
C6 C 0.4462(3) 0.0900(3) 0.41664(8)
C7 C 0.5098(3) -0.2835(3) 0.37088(7)
C8 C 0.6089(4) -0.4216(4) 0.35724(9)
C9 C 0.5895(4) -0.4866(4) 0.3128(1)
C10 C 0.4729(5) -0.4154(4) 0.2814(1)
C11 C 0.3740(5) -0.2794(4) 0.29430(9)
C12 C 0.3911(4) -0.2145(3) 0.33877(8)
H1 H 0.594(4) -0.338(4) 0.572(1)
H2 H 0.429(4) 0.089(4) 0.386(1)
H3 H 0.694(4) -0.478(4) 0.378(1)
H4 H 0.650(5) -0.594(4) 0.308(1)
H5 H 0.458(5) -0.458(4) 0.249(1)
H6 H 0.287(5) -0.231(4) 0.2734(10)
H7 H 0.328(5) -0.134(4) 0.343(1)
S1D S 0.42084(8) 0.35917(7) 0.53709(2)
C1D C 0.4758(3) 0.2214(3) 0.58124(7)
C2D C 0.5082(3) 0.0658(2) 0.56321(7)
C3D C 0.4875(3) 0.0682(2) 0.51375(7)
C4D C 0.4412(3) 0.2172(3) 0.49372(7)
C5D C 0.4225(3) 0.2259(3) 0.44426(8)
C6D C 0.5538(3) -0.0900(3) 0.58336(8)
C7D C 0.4902(3) 0.2835(3) 0.62912(7)
C8D C 0.3911(4) 0.4216(4) 0.64276(9)
C9D C 0.4105(4) 0.4866(4) 0.6872(1)
C10D C 0.5271(5) 0.4154(4) 0.7186(1)
C11D C 0.6260(5) 0.2794(4) 0.70570(9)
C12D C 0.6089(4) 0.2145(3) 0.66123(8)
H1D H 0.406(4) 0.338(4) 0.428(1)
H2D H 0.571(4) -0.089(4) 0.614(1)
H3D H 0.306(4) 0.478(4) 0.622(1)
H4D H 0.350(5) 0.594(4) 0.692(1)
H5D H 0.542(5) 0.458(4) 0.751(1)
H6D H 0.713(5) 0.231(4) 0.7266(10)
H7D H 0.672(5) 0.134(4) 0.657(1)
loop_
_geom_bond_atom_site_label_1
_geom_bond_atom_site_label_2
_geom_bond_site_symmetry_1
_geom_bond_site_symmetry_2
S1 C1 1_555 1_555
C1 C2 1_555 1_555
C2 C3 1_555 1_555
C3 C4 1_555 1_555
C4 S1 1_555 1_555
C5 C4 1_555 1_555
C6 C2 1_555 1_555
C7 C1 1_555 1_555
C8 C7 1_555 1_555
C9 C8 1_555 1_555
C10 C9 1_555 1_555
C11 C10 1_555 1_555
C12 C7 1_555 1_555
H1 C5 1_555 1_555
H2 C6 1_555 1_555
H3 C8 1_555 1_555
H4 C9 1_555 1_555
H5 C10 1_555 1_555
H6 C11 1_555 1_555
H7 C12 1_555 1_555
S1D C1D 1_555 1_555
C1D C2D 1_555 1_555
C2D C3D 1_555 1_555
C3D C3 1_555 1_555
C4D S1D 1_555 1_555
C5D C6 1_555 1_555
C6D C5 1_555 1_555
C7D C1D 1_555 1_555
C8D C7D 1_555 1_555
C9D C8D 1_555 1_555
C10D C9D 1_555 1_555
C11D C10D 1_555 1_555
C12D C7D 1_555 1_555
H1D C5D 1_555 1_555
H2D C6D 1_555 1_555
H3D C8D 1_555 1_555
H4D C9D 1_555 1_555
H5D C10D 1_555 1_555
H6D C11D 1_555 1_555
H7D C12D 1_555 1_555
C11 C12 1_555 1_555
C2D C6D 1_555 1_555
C3D C4D 1_555 1_555
C4D C5D 1_555 1_555
C11D C12D 1_555 1_555

#END
