
#######################################################################
#
#                 Cambridge Crystallographic Data Centre
#                                CCDC 
#
#######################################################################
#
# If this CIF has been generated from an entry in the Cambridge 
# Structural Database, then it will include bibliographic, chemical, 
# crystal, experimental, refinement or atomic coordinate data resulting 
# from the CCDC's data processing and validation procedures.
#
#######################################################################

data_FOJZUZ
_chemical_formula_moiety         'C12 H15 N1 O1 S2'
_chemical_name_systematic        'Benzyl-N-morpholinyl dithiocarbamate'
_chemical_properties_biological  'herbicidal activity'
_symmetry_cell_setting           orthorhombic
_symmetry_space_group_name_H-M   'P b c a'
_symmetry_Int_Tables_number      61
_space_group_name_Hall           '-P 2ac 2ab'
loop_
_symmetry_equiv_pos_site_id
_symmetry_equiv_pos_as_xyz
1 x,y,z
2 1/2-x,1/2+y,z
3 x,1/2-y,1/2+z
4 1/2-x,-y,1/2+z
5 -x,-y,-z
6 1/2+x,1/2-y,-z
7 -x,1/2+y,1/2-z
8 1/2+x,y,1/2-z
_cell_length_a                   22.191
_cell_length_b                   12.335
_cell_length_c                   9.404
_cell_angle_alpha                90
_cell_angle_beta                 90
_cell_angle_gamma                90
_cell_volume                     2574.12
_cell_formula_units_Z            8
loop_
_atom_site_label
_atom_site_type_symbol
_atom_site_fract_x
_atom_site_fract_y
_atom_site_fract_z
S1 S 0.1210(1) 0.1242(2) 0.1043(3)
S2 S 0.0267(1) 0.0164(3) 0.2845(3)
N1 N 0.0828(4) -0.0734(7) 0.0646(8)
C1 C 0.1465(4) 0.3185(9) 0.2050(10)
C2 C 0.2044(5) 0.3241(10) 0.2686(11)
C3 C 0.2404(5) 0.4175(11) 0.2291(12)
C4 C 0.2211(6) 0.4962(12) 0.1373(14)
C5 C 0.1653(6) 0.4834(10) 0.0768(12)
C6 C 0.1281(5) 0.3965(8) 0.1116(10)
C7 C 0.1036(5) 0.2277(9) 0.2372(11)
O1 O 0.1163(3) -0.2664(6) -0.0772(7)
C8 C 0.0759(4) 0.0129(9) 0.1457(10)
C9 C 0.0435(5) -0.1689(9) 0.0696(12)
C10 C 0.0800(5) -0.2699(10) 0.0527(11)
C11 C 0.1234(5) -0.0718(8) -0.0681(10)
C12 C 0.1570(5) -0.1770(9) -0.0727(11)
loop_
_geom_bond_atom_site_label_1
_geom_bond_atom_site_label_2
_geom_bond_site_symmetry_1
_geom_bond_site_symmetry_2
S1 C7 1_555 1_555
S2 C8 1_555 1_555
N1 C8 1_555 1_555
C1 C2 1_555 1_555
C2 C3 1_555 1_555
C3 C4 1_555 1_555
C4 C5 1_555 1_555
C5 C6 1_555 1_555
C6 C1 1_555 1_555
C7 C1 1_555 1_555
O1 C10 1_555 1_555
C8 S1 1_555 1_555
C9 N1 1_555 1_555
C10 C9 1_555 1_555
C11 N1 1_555 1_555
C12 O1 1_555 1_555
C11 C12 1_555 1_555

#END
