
#######################################################################
#
#                 Cambridge Crystallographic Data Centre
#                                CCDC 
#
#######################################################################
#
# If this CIF has been generated from an entry in the Cambridge 
# Structural Database, then it will include bibliographic, chemical, 
# crystal, experimental, refinement or atomic coordinate data resulting 
# from the CCDC's data processing and validation procedures.
#
#######################################################################

data_FOKBOX
_chemical_formula_moiety         'C16 H16 Cl1 N1 O2,0.5(H2 O1)'
_chemical_name_systematic        
'2-Phenyl-3-(4-chlorophenyl)-5-(hydroxymethyl)isoxazolidine hemihydrate'
_symmetry_cell_setting           orthorhombic
_symmetry_space_group_name_H-M   'I b a 2'
_symmetry_Int_Tables_number      45
_space_group_name_Hall           'I 2 -2c'
loop_
_symmetry_equiv_pos_site_id
_symmetry_equiv_pos_as_xyz
1 x,y,z
2 -x,-y,z
3 -x,y,1/2+z
4 x,-y,1/2+z
5 1/2+x,1/2+y,1/2+z
6 1/2-x,1/2-y,1/2+z
7 1/2-x,1/2+y,z
8 1/2+x,1/2-y,z
_cell_length_a                   11.5778(2)
_cell_length_b                   34.1598(5)
_cell_length_c                   7.55730(10)
_cell_angle_alpha                90
_cell_angle_beta                 90
_cell_angle_gamma                90
_cell_volume                     2988.88
_cell_formula_units_Z            8
loop_
_atom_site_label
_atom_site_type_symbol
_atom_site_fract_x
_atom_site_fract_y
_atom_site_fract_z
Cl1 Cl 0.01650(3) 0.30256(1) 0.41449(5)
O1 O 0.14052(7) 0.08958(3) 0.22068(13)
O2 O 0.12814(9) 0.03599(3) -0.08101(16)
N1 N 0.19738(8) 0.11440(3) 0.34633(15)
C1 C 0.24426(10) 0.14818(4) 0.24544(18)
C2 C 0.22540(12) 0.13740(4) 0.04897(19)
C3 C 0.20516(11) 0.09359(4) 0.05759(18)
C4 C 0.13303(11) 0.07750(4) -0.0914(2)
C5 C 0.27658(10) 0.09326(4) 0.45315(16)
C6 C 0.35067(12) 0.11427(4) 0.56505(18)
C7 C 0.42386(13) 0.09421(5) 0.6793(2)
C8 C 0.42431(14) 0.05383(5) 0.6846(2)
C9 C 0.34991(14) 0.03322(5) 0.5763(2)
C10 C 0.27592(12) 0.05255(4) 0.46055(18)
C11 C 0.18673(10) 0.18650(4) 0.29507(17)
C12 C 0.08316(11) 0.18802(4) 0.3870(2)
C13 C 0.02997(11) 0.22364(4) 0.4236(3)
C14 C 0.08127(11) 0.25778(4) 0.36600(17)
C15 C 0.18522(11) 0.25723(4) 0.27536(18)
C16 C 0.23761(10) 0.22152(4) 0.24116(17)
O3 O 0.00000 0.00000 0.01690(2)
loop_
_geom_bond_atom_site_label_1
_geom_bond_atom_site_label_2
_geom_bond_site_symmetry_1
_geom_bond_site_symmetry_2
Cl1 C14 1_555 1_555
O1 N1 1_555 1_555
O2 C4 1_555 1_555
N1 C1 1_555 1_555
C1 C2 1_555 1_555
C2 C3 1_555 1_555
C3 O1 1_555 1_555
C4 C3 1_555 1_555
C5 N1 1_555 1_555
C6 C5 1_555 1_555
C7 C6 1_555 1_555
C8 C7 1_555 1_555
C9 C8 1_555 1_555
C10 C5 1_555 1_555
C11 C1 1_555 1_555
C12 C11 1_555 1_555
C13 C12 1_555 1_555
C14 C13 1_555 1_555
C15 C14 1_555 1_555
C16 C11 1_555 1_555
C9 C10 1_555 1_555
C15 C16 1_555 1_555

#END
