
#######################################################################
#
#                 Cambridge Crystallographic Data Centre
#                                CCDC 
#
#######################################################################
#
# If this CIF has been generated from an entry in the Cambridge 
# Structural Database, then it will include bibliographic, chemical, 
# crystal, experimental, refinement or atomic coordinate data resulting 
# from the CCDC's data processing and validation procedures.
#
#######################################################################

data_FOKBUD
_chemical_formula_moiety         'C20 H20 O3'
_chemical_name_systematic        
4-Isopropoxy-5-methoxy-2-methyl-3-phenylinden-1-one
_symmetry_cell_setting           monoclinic
_symmetry_space_group_name_H-M   'P 21'
_symmetry_Int_Tables_number      4
_space_group_name_Hall           'P 2yb'
loop_
_symmetry_equiv_pos_site_id
_symmetry_equiv_pos_as_xyz
1 x,y,z
2 -x,1/2+y,-z
_cell_length_a                   6.3298(11)
_cell_length_b                   18.133(3)
_cell_length_c                   7.7645(13)
_cell_angle_alpha                90
_cell_angle_beta                 110.094(3)
_cell_angle_gamma                90
_cell_volume                     836.949
_exptl_crystal_colour            yellow
_exptl_crystal_description       plate
_cell_formula_units_Z            2
_exptl_crystal_recrystallization_method chloroform
loop_
_atom_site_label
_atom_site_type_symbol
_atom_site_fract_x
_atom_site_fract_y
_atom_site_fract_z
O1 O 0.7978(5) 0.60858(14) 0.8439(4)
O2 O 0.1626(3) 0.36075(12) 0.5794(3)
O3 O -0.1579(4) 0.45449(13) 0.3875(3)
C1 C 0.6990(6) 0.54905(19) 0.8042(5)
C2 C 0.7955(6) 0.47586(19) 0.8678(4)
C3 C 0.6339(5) 0.42428(17) 0.8055(4)
C4 C 0.4210(5) 0.46127(17) 0.6873(4)
C5 C 0.2141(5) 0.43429(17) 0.5826(4)
C6 C 0.0445(6) 0.4857(2) 0.4817(4)
C7 C 0.0894(7) 0.5594(2) 0.4873(5)
H1 H -0.0228 0.5920 0.4214
C8 C 0.3012(6) 0.58662(19) 0.5903(5)
H2 H 0.3326 0.6368 0.5926
C9 C 0.4618(5) 0.53748(18) 0.6882(4)
C10 C 1.0369(5) 0.4682(2) 0.9917(5)
H3 H 1.0613 0.4195 1.0431
H4 H 1.0690 0.5038 1.0887
H5 H 1.1343 0.4763 0.9222
C11 C 0.6570(5) 0.34441(17) 0.8529(4)
C12 C 0.8273(5) 0.30329(19) 0.8262(5)
H6 H 0.9258 0.3254 0.7763
C13 C 0.8514(7) 0.2295(2) 0.8734(5)
H7 H 0.9668 0.2023 0.8558
C14 C 0.7071(7) 0.1963(2) 0.9458(5)
H8 H 0.7249 0.1466 0.9774
C15 C 0.5353(7) 0.2361(2) 0.9720(5)
H9 H 0.4363 0.2135 1.0206
C16 C 0.5115(6) 0.3101(2) 0.9253(4)
H10 H 0.3957 0.3371 0.9429
C17 C 0.1321(6) 0.32026(18) 0.4098(4)
H11 H 0.0221 0.3458 0.3064
C18 C 0.3469(7) 0.3122(3) 0.3754(6)
H12 H 0.4106 0.3601 0.3728
H13 H 0.3197 0.2881 0.2597
H14 H 0.4497 0.2833 0.4714
C19 C 0.0395(10) 0.2472(2) 0.4389(7)
H15 H 0.1468 0.2227 0.5414
H16 H 0.0103 0.2175 0.3308
H17 H -0.0979 0.2546 0.4630
C20 C -0.3380(6) 0.5028(2) 0.2886(5)
H18 H -0.3637 0.5380 0.3717
H19 H -0.4722 0.4745 0.2323
H20 H -0.2985 0.5283 0.1956
loop_
_geom_bond_atom_site_label_1
_geom_bond_atom_site_label_2
_geom_bond_site_symmetry_1
_geom_bond_site_symmetry_2
O1 C1 1_555 1_555
O2 C5 1_555 1_555
O3 C6 1_555 1_555
C1 C2 1_555 1_555
C2 C3 1_555 1_555
C3 C4 1_555 1_555
C4 C5 1_555 1_555
C5 C6 1_555 1_555
C6 C7 1_555 1_555
C7 H1 1_555 1_555
C8 C7 1_555 1_555
H2 C8 1_555 1_555
C9 C1 1_555 1_555
C10 C2 1_555 1_555
H3 C10 1_555 1_555
H4 C10 1_555 1_555
H5 C10 1_555 1_555
C11 C3 1_555 1_555
C12 C11 1_555 1_555
H6 C12 1_555 1_555
C13 C12 1_555 1_555
H7 C13 1_555 1_555
C14 C13 1_555 1_555
H8 C14 1_555 1_555
C15 C14 1_555 1_555
H9 C15 1_555 1_555
C16 C11 1_555 1_555
H10 C16 1_555 1_555
C17 O2 1_555 1_555
H11 C17 1_555 1_555
C18 C17 1_555 1_555
H12 C18 1_555 1_555
H13 C18 1_555 1_555
H14 C18 1_555 1_555
C19 C17 1_555 1_555
H15 C19 1_555 1_555
H16 C19 1_555 1_555
H17 C19 1_555 1_555
C20 O3 1_555 1_555
H18 C20 1_555 1_555
H19 C20 1_555 1_555
H20 C20 1_555 1_555
C4 C9 1_555 1_555
C8 C9 1_555 1_555
C15 C16 1_555 1_555

#END
