
#######################################################################
#
#                 Cambridge Crystallographic Data Centre
#                                CCDC 
#
#######################################################################
#
# If this CIF has been generated from an entry in the Cambridge 
# Structural Database, then it will include bibliographic, chemical, 
# crystal, experimental, refinement or atomic coordinate data resulting 
# from the CCDC's data processing and validation procedures.
#
#######################################################################

data_FOKDOY
_chemical_formula_moiety         'C25 H22 P2 Se1'
_chemical_name_systematic        
(Diphenylseleniophosphinoyl-P)diphenylphosphinemethane
_symmetry_cell_setting           monoclinic
_symmetry_space_group_name_H-M   'P 21/c'
_symmetry_Int_Tables_number      14
_space_group_name_Hall           '-P 2ybc'
loop_
_symmetry_equiv_pos_site_id
_symmetry_equiv_pos_as_xyz
1 x,y,z
2 -x,1/2+y,1/2-z
3 -x,-y,-z
4 x,1/2-y,1/2+z
_cell_length_a                   8.104(1)
_cell_length_b                   17.756(5)
_cell_length_c                   15.350(5)
_cell_angle_alpha                90
_cell_angle_beta                 97.74(2)
_cell_angle_gamma                90
_cell_volume                     2188.66
_exptl_crystal_colour            white
_cell_formula_units_Z            4
loop_
_atom_site_label
_atom_site_type_symbol
_atom_site_fract_x
_atom_site_fract_y
_atom_site_fract_z
Se1 Se 0.1806(1) 0.2850 0.0689
P1 P -0.0552(1) 0.2568(1) 0.0021(1)
P2 P 0.0922(1) 0.1267(1) -0.0907(1)
C1 C -0.0469(1) 0.2113(2) -0.1039(3)
C2 C -0.1765(6) 0.1942(2) 0.0621(3)
C3 C -0.3118(7) 0.1540(3) 0.0208(4)
C4 C -0.4073(8) 0.1114(3) 0.0699(5)
C5 C -0.3658(9) 0.1069(3) 0.1597(5)
C6 C -0.2332(9) 0.1443(4) 0.2004(4)
C7 C -0.1369(7) 0.1882(3) 0.1526(3)
C8 C -0.1857(5) 0.3384(2) -0.0251(3)
C9 C -0.3566(6) 0.3397(3) -0.0170(3)
C10 C -0.4505(7) 0.4018(3) -0.0433(3)
C11 C -0.3794(7) 0.4635(3) -0.0779(3)
C12 C -0.2144(8) 0.4641(3) -0.0851(3)
C13 C -0.1143(7) 0.4027(3) -0.0586(3)
C14 C -0.0276(5) 0.0629(2) -0.1691(3)
C15 C -0.0625(6) 0.0757(3) -0.2598(3)
C16 C -0.1519(6) 0.0233(3) -0.3143(3)
C17 C -0.2068(6) -0.0421(3) -0.2787(4)
C18 C -0.1756(6) -0.0553(3) -0.1907(4)
C19 C -0.0872(6) -0.0039(2) -0.1357(3)
C20 C 0.2603(5) 0.1541(2) -0.1532(3)
C21 C 0.3125(6) 0.2275(3) -0.1610(3)
C22 C 0.4462(7) 0.2438(3) -0.2075(3)
C23 C 0.5277(6) 0.1869(4) -0.2438(3)
C24 C 0.4807(7) 0.1144(4) -0.2331(4)
C25 C 0.3471(6) 0.0983(3) -0.1884(4)
H1 H -0.15847(6) 0.2322(2) -0.1425(3)
H2 H 0.0605(6) 0.23747(2) -0.1255(3)
H3 H -0.3158(7) 0.1664(3) -0.0483(4)
H4 H -0.5039(8) 0.0876(3) 0.0225(5)
H5 H -0.4593(9) 0.0705(3) 0.1810(5)
H6 H -0.1751(9) 0.1497(4) 0.2676(4)
H7 H -0.0278(7) 0.2230(3) 0.1686(3)
H8 H -0.5742(7) 0.3875(3) -0.0301(3)
H9 H -0.4810(7) 0.5027(3) -0.0938(3)
H10 H -0.1303(8) 0.5042(3) -0.1086(3)
H11 H 0.0160(7) 0.3891(3) -0.0567(3)
H12 H -0.0065(6) 0.1297(3) -0.2698(3)
H13 H -0.1602(6) 0.0471(3) -0.3795(3)
H14 H -0.2711(6) -0.0721(3) -0.3344(4)
H15 H -0.2035(6) -0.1006(3) -0.1480(4)
H16 H -0.0468(6) -0.0003(2) -0.0658(3)
H17 H 0.2723(6) 0.2814(3) -0.1391(3)
H18 H 0.4574(7) 0.3044(3) -0.2052(3)
H19 H 0.6223(6) 0.2143(4) -0.2759(3)
H20 H 0.5240(7) 0.0604(4) -0.2759(3)
H21 H 0.3369(6) 0.0377(3) -0.1912(4)
loop_
_geom_bond_atom_site_label_1
_geom_bond_atom_site_label_2
_geom_bond_site_symmetry_1
_geom_bond_site_symmetry_2
Se1 P1 1_555 1_555
P1 C1 1_555 1_555
P2 C1 1_555 1_555
C1 H1 1_555 1_555
C2 P1 1_555 1_555
C3 C2 1_555 1_555
C4 C3 1_555 1_555
C5 C4 1_555 1_555
C6 C5 1_555 1_555
C7 C2 1_555 1_555
C8 P1 1_555 1_555
C9 C8 1_555 1_555
C10 C9 1_555 1_555
C11 C10 1_555 1_555
C12 C11 1_555 1_555
C13 C8 1_555 1_555
C14 P2 1_555 1_555
C15 C14 1_555 1_555
C16 C15 1_555 1_555
C17 C16 1_555 1_555
C18 C17 1_555 1_555
C19 C14 1_555 1_555
C20 P2 1_555 1_555
C21 C20 1_555 1_555
C22 C21 1_555 1_555
C23 C22 1_555 1_555
C24 C23 1_555 1_555
C25 C20 1_555 1_555
H2 C1 1_555 1_555
H3 C3 1_555 1_555
H4 C4 1_555 1_555
H5 C5 1_555 1_555
H6 C6 1_555 1_555
H7 C7 1_555 1_555
H8 C10 1_555 1_555
H9 C11 1_555 1_555
H10 C12 1_555 1_555
H11 C13 1_555 1_555
H12 C15 1_555 1_555
H13 C16 1_555 1_555
H14 C17 1_555 1_555
H15 C18 1_555 1_555
H16 C19 1_555 1_555
H17 C21 1_555 1_555
H18 C22 1_555 1_555
H19 C23 1_555 1_555
H20 C24 1_555 1_555
H21 C25 1_555 1_555
C6 C7 1_555 1_555
C12 C13 1_555 1_555
C18 C19 1_555 1_555
C24 C25 1_555 1_555

#END
