
#######################################################################
#
#                 Cambridge Crystallographic Data Centre
#                                CCDC 
#
#######################################################################
#
# If this CIF has been generated from an entry in the Cambridge 
# Structural Database, then it will include bibliographic, chemical, 
# crystal, experimental, refinement or atomic coordinate data resulting 
# from the CCDC's data processing and validation procedures.
#
#######################################################################

data_FOKMAU
_chemical_formula_moiety         'C22 H30 N2 O3'
_chemical_name_systematic        4-Desacetoxy-6,7-dihydrovindorosine
_symmetry_cell_setting           monoclinic
_symmetry_space_group_name_H-M   'P 21/c'
_symmetry_Int_Tables_number      14
_space_group_name_Hall           '-P 2ybc'
loop_
_symmetry_equiv_pos_site_id
_symmetry_equiv_pos_as_xyz
1 x,y,z
2 -x,1/2+y,1/2-z
3 -x,-y,-z
4 x,1/2-y,1/2+z
_cell_length_a                   8.6242(8)
_cell_length_b                   10.7709(9)
_cell_length_c                   21.3590(19)
_cell_angle_alpha                90
_cell_angle_beta                 97.950(2)
_cell_angle_gamma                90
_cell_volume                     1964.98
_exptl_crystal_colour            colorless
_exptl_crystal_description       parallelepiped
_chemical_melting_point          '185-186 deg.C'
_cell_formula_units_Z            4
_exptl_crystal_recrystallization_method 'ethyl acetate/hexane'
loop_
_atom_site_label
_atom_site_type_symbol
_atom_site_fract_x
_atom_site_fract_y
_atom_site_fract_z
O1 O 0.81514(15) 0.66086(12) 0.70526(6)
H1 H 0.7581 0.6775 0.7318
O2 O 0.48750(17) 0.69817(15) 0.60767(8)
O3 O 0.71551(18) 0.79137(13) 0.60223(8)
N1 N 0.77011(16) 0.47885(14) 0.55438(7)
N2 N 0.94898(17) 0.45893(14) 0.75913(7)
C1 C 1.0528(2) 0.23877(17) 0.60005(9)
H2 H 1.1181 0.2175 0.6368
C2 C 1.0453(3) 0.16459(18) 0.54678(10)
H3 H 1.1064 0.0934 0.5474
C3 C 0.9469(3) 0.1969(2) 0.49295(10)
H4 H 0.9436 0.1469 0.4573
C4 C 0.8527(2) 0.30140(19) 0.49020(9)
H5 H 0.7863 0.3216 0.4535
C5 C 0.8605(2) 0.37508(16) 0.54392(8)
C6 C 0.96217(18) 0.34453(16) 0.59798(8)
C7 C 0.94942(17) 0.43841(15) 0.64922(8)
C8 C 0.84412(18) 0.54032(15) 0.61270(8)
H6 H 0.9118 0.6070 0.6010
C9 C 0.72720(19) 0.59638(16) 0.65382(8)
C10 C 0.6204(2) 0.49763(17) 0.67613(9)
H7 H 0.5387 0.4790 0.6415
H8 H 0.5702 0.5328 0.7100
C11 C 0.6993(2) 0.37339(16) 0.70000(8)
C12 C 0.87883(19) 0.38164(15) 0.70571(8)
H9 H 0.9207 0.2974 0.7125
C13 C 1.10992(19) 0.48961(18) 0.68131(9)
H10 H 1.1955 0.4474 0.6652
H11 H 1.1180 0.5779 0.6734
C14 C 1.1145(2) 0.46490(19) 0.75122(9)
H12 H 1.1672 0.3871 0.7632
H13 H 1.1673 0.5316 0.7762
C15 C 0.9163(3) 0.4125(2) 0.82024(9)
H14 H 0.9678 0.4643 0.8541
H15 H 0.9550 0.3283 0.8268
C16 C 0.7421(3) 0.4155(2) 0.82005(10)
H16 H 0.7058 0.5007 0.8161
H17 H 0.7174 0.3831 0.8599
C17 C 0.6574(2) 0.3390(2) 0.76596(10)
H18 H 0.5455 0.3493 0.7654
H19 H 0.6816 0.2521 0.7740
C18 C 0.7122(2) 0.5558(2) 0.50004(9)
H20 H 0.6755 0.5037 0.4646
H21 H 0.7952 0.6079 0.4896
H22 H 0.6277 0.6067 0.5101
C19 C 0.6437(2) 0.26763(18) 0.65346(10)
H23 H 0.6665 0.2910 0.6118
H24 H 0.7047 0.1939 0.6662
C20 C 0.4709(2) 0.2344(2) 0.64831(13)
H25 H 0.4464 0.1721 0.6163
H26 H 0.4088 0.3071 0.6372
H27 H 0.4486 0.2030 0.6882
C21 C 0.6270(2) 0.69837(17) 0.61846(9)
C22 C 0.6340(3) 0.8952(2) 0.56994(14)
H28 H 0.7087 0.9527 0.5572
H29 H 0.5721 0.9359 0.5978
H30 H 0.5670 0.8659 0.5333
loop_
_geom_bond_atom_site_label_1
_geom_bond_atom_site_label_2
_geom_bond_site_symmetry_1
_geom_bond_site_symmetry_2
O1 H1 1_555 1_555
O2 C21 1_555 1_555
O3 C21 1_555 1_555
N1 C5 1_555 1_555
N2 C12 1_555 1_555
C1 H2 1_555 1_555
C2 C1 1_555 1_555
H3 C2 1_555 1_555
C3 C2 1_555 1_555
H4 C3 1_555 1_555
C4 C3 1_555 1_555
H5 C4 1_555 1_555
C5 C4 1_555 1_555
C6 C1 1_555 1_555
C7 C6 1_555 1_555
C8 N1 1_555 1_555
H6 C8 1_555 1_555
C9 O1 1_555 1_555
C10 C9 1_555 1_555
H7 C10 1_555 1_555
H8 C10 1_555 1_555
C11 C10 1_555 1_555
C12 C7 1_555 1_555
H9 C12 1_555 1_555
C13 C7 1_555 1_555
H10 C13 1_555 1_555
H11 C13 1_555 1_555
C14 N2 1_555 1_555
H12 C14 1_555 1_555
H13 C14 1_555 1_555
C15 N2 1_555 1_555
H14 C15 1_555 1_555
H15 C15 1_555 1_555
C16 C15 1_555 1_555
H16 C16 1_555 1_555
H17 C16 1_555 1_555
C17 C11 1_555 1_555
H18 C17 1_555 1_555
H19 C17 1_555 1_555
C18 N1 1_555 1_555
H20 C18 1_555 1_555
H21 C18 1_555 1_555
H22 C18 1_555 1_555
C19 C11 1_555 1_555
H23 C19 1_555 1_555
H24 C19 1_555 1_555
C20 C19 1_555 1_555
H25 C20 1_555 1_555
H26 C20 1_555 1_555
H27 C20 1_555 1_555
C21 C9 1_555 1_555
C22 O3 1_555 1_555
H28 C22 1_555 1_555
H29 C22 1_555 1_555
H30 C22 1_555 1_555
C5 C6 1_555 1_555
C7 C8 1_555 1_555
C8 C9 1_555 1_555
C11 C12 1_555 1_555
C13 C14 1_555 1_555
C16 C17 1_555 1_555

#END
