
#######################################################################
#
#                 Cambridge Crystallographic Data Centre
#                                CCDC 
#
#######################################################################
#
# If this CIF has been generated from an entry in the Cambridge 
# Structural Database, then it will include bibliographic, chemical, 
# crystal, experimental, refinement or atomic coordinate data resulting 
# from the CCDC's data processing and validation procedures.
#
#######################################################################

data_FOKRUU
_chemical_formula_moiety         'C24 H8 O8 4-,4(C5 H7 N2 1+),8(H2 O1)'
_chemical_name_systematic        
'perylene-3,4,9,10-tetracarboxylate tetrakis(4-aminopyridinium) octahydrate'
_symmetry_cell_setting           monoclinic
_symmetry_space_group_name_H-M   'C 2/c'
_symmetry_Int_Tables_number      15
_space_group_name_Hall           '-C 2yn'
loop_
_symmetry_equiv_pos_site_id
_symmetry_equiv_pos_as_xyz
1 x,y,z
2 -x,y,1/2-z
3 1/2+x,1/2+y,z
4 1/2-x,1/2+y,1/2-z
5 -x,-y,-z
6 x,-y,1/2+z
7 1/2-x,1/2-y,-z
8 1/2+x,1/2-y,1/2+z
_cell_length_a                   17.771(3)
_cell_length_b                   19.703(3)
_cell_length_c                   14.210(3)
_cell_angle_alpha                90
_cell_angle_beta                 114.097(6)
_cell_angle_gamma                90
_cell_volume                     4541.93
_exptl_crystal_colour            red
_exptl_crystal_description       block
_cell_formula_units_Z            4
loop_
_atom_site_label
_atom_site_type_symbol
_atom_site_fract_x
_atom_site_fract_y
_atom_site_fract_z
C1 C 0.9710(2) 0.32278(13) 0.6368(2)
C2 C 0.96368(16) 0.39818(12) 0.6530(2)
C3 C 1.0000 0.43261(17) 0.7500
C4 C 1.0000 0.50553(16) 0.7500
C5 C 0.96691(15) 0.54217(12) 0.65490(19)
C6 C 0.92824(16) 0.50641(12) 0.5652(2)
H1 H 0.9025 0.5297 0.5034
C7 C 0.92681(17) 0.43610(12) 0.5651(2)
H2 H 0.8997 0.4137 0.5027
C8 C 0.97470(15) 0.61650(12) 0.65513(19)
C9 C 1.0000 0.65332(17) 0.7500
C10 C 1.0000 0.72572(17) 0.7500
C11 C 0.97895(16) 0.75952(12) 0.65388(19)
C12 C 0.96146(17) 0.72232(12) 0.5663(2)
H3 H 0.9516 0.7448 0.5048
C13 C 0.95803(17) 0.65224(12) 0.5662(2)
H4 H 0.9441 0.6289 0.5045
C14 C 0.96652(19) 0.83524(13) 0.6386(2)
O1 O 0.90681(12) 0.29259(9) 0.57955(15)
O2 O 1.04202(12) 0.29812(9) 0.67590(14)
O3 O 1.00914(13) 0.86639(9) 0.60088(15)
O4 O 0.91029(13) 0.86101(9) 0.65815(15)
C1A C 1.0290(2) 0.32278(13) 0.8632(2)
C2A C 1.03632(16) 0.39818(12) 0.8470(2)
C5A C 1.03309(15) 0.54217(12) 0.84510(19)
C6A C 1.07176(16) 0.50641(12) 0.9348(2)
H1A H 1.0975 0.5297 0.9966
C7A C 1.07319(17) 0.43610(12) 0.9349(2)
H2A H 1.1003 0.4137 0.9973
C8A C 1.02530(15) 0.61650(12) 0.84487(19)
C11A C 1.02105(16) 0.75952(12) 0.84612(19)
C12A C 1.03854(17) 0.72232(12) 0.9337(2)
H3A H 1.0484 0.7448 0.9952
C13A C 1.04197(17) 0.65224(12) 0.9338(2)
H4A H 1.0559 0.6289 0.9955
C14A C 1.03348(19) 0.83524(13) 0.8614(2)
O1A O 1.09319(12) 0.29259(9) 0.92045(15)
O2A O 0.95798(12) 0.29812(9) 0.82410(14)
O3A O 0.99086(13) 0.86639(9) 0.89912(15)
O4A O 1.08971(13) 0.86101(9) 0.84185(15)
C15 C 0.1790(2) 0.55143(19) 0.7441(3)
H5 H 0.1430 0.5465 0.6753
C16 C 0.19905(19) 0.61441(18) 0.7813(3)
H6 H 0.1781 0.6523 0.7397
C17 C 0.2536(2) 0.62123(17) 0.8870(3)
C18 C 0.2828(2) 0.56314(17) 0.9438(3)
H7 H 0.3188 0.5664 1.0129
C19 C 0.2593(2) 0.5000(2) 0.8992(3)
H8 H 0.2797 0.4612 0.9386
N1 N 0.20815(18) 0.49415(15) 0.8013(3)
H9 H 0.1980 0.4516 0.7763
N2 N 0.27533(19) 0.68099(14) 0.9274(2)
H10 H 0.3087 0.6849 0.9911
H11 H 0.2563 0.7167 0.8904
C20 C 0.0109(2) 0.05439(16) 0.6115(3)
H12 H -0.0345 0.0513 0.5487
C21 C 0.0386(2) 0.11590(15) 0.6509(2)
H13 H 0.0124 0.1547 0.6153
C22 C 0.10709(19) 0.12177(14) 0.7457(2)
C23 C 0.1449(2) 0.06081(14) 0.7944(2)
H14 H 0.1911 0.0622 0.8567
C24 C 0.1139(2) 0.00069(16) 0.7508(3)
H15 H 0.1392 -0.0392 0.7836
N3 N 0.04715(19) -0.00305(13) 0.6604(2)
H16 H 0.0282 -0.0448 0.6370
N4 N 0.13400(16) 0.18156(11) 0.7888(2)
H17 H 0.1094 0.2181 0.7587
H18 H 0.1761 0.1839 0.8470
O5 O 0.79773(13) 0.79637(11) 0.71060(18)
H19 H 0.8121 0.7884 0.7722
H20 H 0.8304 0.8111 0.6882
O6 O 0.74939(13) 0.34649(10) 0.50149(18)
H21 H 0.7164 0.3314 0.5231
H22 H 0.7966 0.3318 0.5224
O7 O 0.86557(14) 0.20037(11) 0.42567(18)
H23 H 0.9034 0.1786 0.4215
H24 H 0.8745 0.2329 0.4648
O8 O 0.16710(13) 0.38081(10) 0.69289(17)
H25 H 0.1287 0.3583 0.6943
H26 H 0.2031 0.3634 0.6788
loop_
_geom_bond_atom_site_label_1
_geom_bond_atom_site_label_2
_geom_bond_site_symmetry_1
_geom_bond_site_symmetry_2
C1 C2 1_555 1_555
C2 C3 1_555 1_555
C3 C4 1_555 1_555
C4 C5 1_555 1_555
C5 C6 1_555 1_555
C6 H1 1_555 1_555
C7 C2 1_555 1_555
H2 C7 1_555 1_555
C8 C5 1_555 1_555
C9 C8 1_555 1_555
C10 C9 1_555 1_555
C11 C10 1_555 1_555
C12 C11 1_555 1_555
H3 C12 1_555 1_555
C13 C8 1_555 1_555
H4 C13 1_555 1_555
C14 C11 1_555 1_555
O1 C1 1_555 1_555
O2 C1 1_555 1_555
O3 C14 1_555 1_555
O4 C14 1_555 1_555
C15 H5 1_555 1_555
C16 C15 1_555 1_555
H6 C16 1_555 1_555
C17 C16 1_555 1_555
C18 C17 1_555 1_555
H7 C18 1_555 1_555
C19 C18 1_555 1_555
H8 C19 1_555 1_555
N1 C15 1_555 1_555
H9 N1 1_555 1_555
N2 C17 1_555 1_555
H10 N2 1_555 1_555
H11 N2 1_555 1_555
C20 H12 1_555 1_555
C21 C20 1_555 1_555
H13 C21 1_555 1_555
C22 C21 1_555 1_555
C23 C22 1_555 1_555
H14 C23 1_555 1_555
C24 C23 1_555 1_555
H15 C24 1_555 1_555
N3 C20 1_555 1_555
H16 N3 1_555 1_555
N4 C22 1_555 1_555
H17 N4 1_555 1_555
H18 N4 1_555 1_555
O5 H19 1_555 1_555
H20 O5 1_555 1_555
O6 H21 1_555 1_555
H22 O6 1_555 1_555
O7 H23 1_555 1_555
H24 O7 1_555 1_555
O8 H25 1_555 1_555
H26 O8 1_555 1_555
C1A C2A 1_555 1_555
C2A C3 1_555 1_555
C5A C4 1_555 1_555
C6A C5A 1_555 1_555
H1A C6A 1_555 1_555
C7A C2A 1_555 1_555
H2A C7A 1_555 1_555
C8A C9 1_555 1_555
C11A C10 1_555 1_555
C12A C11A 1_555 1_555
H3A C12A 1_555 1_555
C13A C8A 1_555 1_555
H4A C13A 1_555 1_555
C14A C11A 1_555 1_555
O1A C1A 1_555 1_555
O2A C1A 1_555 1_555
O3A C14A 1_555 1_555
O4A C14A 1_555 1_555
C6 C7 1_555 1_555
C12 C13 1_555 1_555
C19 N1 1_555 1_555
C24 N3 1_555 1_555
C5A C8A 1_555 1_555
C6A C7A 1_555 1_555
C12A C13A 1_555 1_555

#END
