
#######################################################################
#
#                 Cambridge Crystallographic Data Centre
#                                CCDC 
#
#######################################################################
#
# If this CIF has been generated from an entry in the Cambridge 
# Structural Database, then it will include bibliographic, chemical, 
# crystal, experimental, refinement or atomic coordinate data resulting 
# from the CCDC's data processing and validation procedures.
#
#######################################################################

data_FOLFAP
_chemical_formula_moiety         'C14 H19 N1 O4'
_chemical_name_systematic        
8-Hydroxy-8a-nitro-4a,4b,5,6,7,8,8a,9,10,10a-decahydrophenanthren-2(1H)-one
_symmetry_cell_setting           orthorhombic
_symmetry_space_group_name_H-M   'P 21 21 21'
_symmetry_Int_Tables_number      19
_space_group_name_Hall           'P 2ac 2ab'
loop_
_symmetry_equiv_pos_site_id
_symmetry_equiv_pos_as_xyz
1 x,y,z
2 1/2-x,-y,1/2+z
3 -x,1/2+y,1/2-z
4 1/2+x,1/2-y,-z
_cell_length_a                   7.3853(2)
_cell_length_b                   10.1226(2)
_cell_length_c                   17.8638(3)
_cell_angle_alpha                90
_cell_angle_beta                 90
_cell_angle_gamma                90
_cell_volume                     1335.47
_exptl_crystal_colour            colorless
_exptl_crystal_description       block
_cell_formula_units_Z            4
loop_
_atom_site_label
_atom_site_type_symbol
_atom_site_fract_x
_atom_site_fract_y
_atom_site_fract_z
O1 O 0.93796(15) 0.89228(12) 0.54324(5)
O2 O 0.87850(16) 1.01770(11) 0.10611(6)
H1 H 0.7910 1.0648 0.0923
O3 O 0.77538(17) 0.60830(11) 0.22124(6)
O4 O 0.59656(18) 0.67433(12) 0.13477(7)
N1 N 0.71868(17) 0.69453(12) 0.17992(7)
C1 C 0.93856(19) 0.87701(15) 0.47502(7)
C2 C 0.76651(19) 0.85329(15) 0.43134(8)
H2 H 0.6672 0.9054 0.4540
H3 H 0.7335 0.7587 0.4349
C3 C 0.78516(17) 0.89099(14) 0.34939(7)
H4 H 0.8165 0.9870 0.3475
C4 C 0.61073(17) 0.87230(15) 0.30474(8)
H5 H 0.5129 0.9261 0.3273
H6 H 0.5735 0.7784 0.3067
C5 C 0.63888(19) 0.91384(15) 0.22330(8)
H7 H 0.6675 1.0093 0.2215
H8 H 0.5251 0.8995 0.1951
C6 C 0.79181(18) 0.83644(14) 0.18571(8)
C7 C 0.8271(2) 0.88210(17) 0.10383(8)
H9 H 0.7136 0.8723 0.0738
C8 C 0.9773(2) 0.8025(2) 0.06793(8)
H10 H 0.9990 0.8357 0.0166
H11 H 0.9393 0.7089 0.0642
C9 C 1.1527(2) 0.8109(2) 0.11273(8)
H12 H 1.1982 0.9029 0.1119
H13 H 1.2455 0.7537 0.0893
C10 C 1.1229(2) 0.76774(17) 0.19382(8)
H14 H 1.2360 0.7812 0.2225
H15 H 1.0937 0.6723 0.1949
C11 C 0.96909(18) 0.84532(14) 0.23105(7)
H16 H 1.0065 0.9402 0.2286
C12 C 0.94454(16) 0.81478(13) 0.31512(7)
H17 H 0.9187 0.7182 0.3203
C13 C 1.11117(19) 0.84531(14) 0.35992(7)
H18 H 1.2252 0.8419 0.3354
C14 C 1.10747(19) 0.87706(16) 0.43261(8)
H19 H 1.2171 0.9001 0.4571
loop_
_geom_bond_atom_site_label_1
_geom_bond_atom_site_label_2
_geom_bond_site_symmetry_1
_geom_bond_site_symmetry_2
O1 C1 1_555 1_555
O2 H1 1_555 1_555
O3 N1 1_555 1_555
O4 N1 1_555 1_555
N1 C6 1_555 1_555
C1 C2 1_555 1_555
C2 H2 1_555 1_555
H3 C2 1_555 1_555
C3 C2 1_555 1_555
H4 C3 1_555 1_555
C4 C3 1_555 1_555
H5 C4 1_555 1_555
H6 C4 1_555 1_555
C5 C4 1_555 1_555
H7 C5 1_555 1_555
H8 C5 1_555 1_555
C6 C5 1_555 1_555
C7 O2 1_555 1_555
H9 C7 1_555 1_555
C8 C7 1_555 1_555
H10 C8 1_555 1_555
H11 C8 1_555 1_555
C9 C8 1_555 1_555
H12 C9 1_555 1_555
H13 C9 1_555 1_555
C10 C9 1_555 1_555
H14 C10 1_555 1_555
H15 C10 1_555 1_555
C11 C6 1_555 1_555
H16 C11 1_555 1_555
C12 C3 1_555 1_555
H17 C12 1_555 1_555
C13 C12 1_555 1_555
H18 C13 1_555 1_555
C14 C1 1_555 1_555
H19 C14 1_555 1_555
C6 C7 1_555 1_555
C10 C11 1_555 1_555
C11 C12 1_555 1_555
C13 C14 1_555 1_555

#END
