
#######################################################################
#
#                 Cambridge Crystallographic Data Centre
#                                CCDC 
#
#######################################################################
#
# If this CIF has been generated from an entry in the Cambridge 
# Structural Database, then it will include bibliographic, chemical, 
# crystal, experimental, refinement or atomic coordinate data resulting 
# from the CCDC's data processing and validation procedures.
#
#######################################################################

data_FOLHEV
_chemical_formula_moiety         'C18 H23 N1 O5'
_chemical_name_systematic        14-hydroxy-8-nitroestr-1-ene-3,17-dione
_symmetry_cell_setting           orthorhombic
_symmetry_space_group_name_H-M   'P 21 21 21'
_symmetry_Int_Tables_number      19
_space_group_name_Hall           'P 2ac 2ab'
loop_
_symmetry_equiv_pos_site_id
_symmetry_equiv_pos_as_xyz
1 x,y,z
2 1/2-x,-y,1/2+z
3 -x,1/2+y,1/2-z
4 1/2+x,1/2-y,-z
_cell_length_a                   8.9976(5)
_cell_length_b                   10.8156(6)
_cell_length_c                   16.5526(9)
_cell_angle_alpha                90
_cell_angle_beta                 90
_cell_angle_gamma                90
_cell_volume                     1610.81
_exptl_crystal_colour            colorless
_exptl_crystal_description       block
_cell_formula_units_Z            4
loop_
_atom_site_label
_atom_site_type_symbol
_atom_site_fract_x
_atom_site_fract_y
_atom_site_fract_z
O1 O -0.42201(17) -0.22245(13) 0.40844(8)
O2 O 0.45689(16) 0.21983(15) 0.75866(10)
O3 O 0.04609(13) 0.26567(10) 0.75754(6)
H1 H -0.0064 0.2474 0.7978
O4 O -0.03260(16) 0.27250(12) 0.55113(8)
O5 O -0.19457(16) 0.29773(12) 0.64478(9)
N1 N -0.09409(17) 0.23992(13) 0.61363(9)
C1 C -0.3310(2) -0.16119(16) 0.44664(10)
C2 C -0.1750(2) -0.15765(18) 0.42404(10)
H2 H -0.1412 -0.2082 0.3809
C3 C -0.0781(2) -0.08509(18) 0.46246(10)
H3 H 0.0224 -0.0856 0.4448
C4 C -0.11870(18) -0.00301(16) 0.53178(9)
H4 H -0.1495 0.0783 0.5083
C5 C -0.25326(18) -0.05497(15) 0.57642(9)
H5 H -0.2228 -0.1347 0.6021
C6 C -0.3785(2) -0.08293(18) 0.51696(11)
H6 H -0.4596 -0.1259 0.5461
H7 H -0.4188 -0.0039 0.4962
C7 C 0.00956(17) 0.02362(15) 0.59169(9)
H8 H 0.0241 -0.0552 0.6223
C8 C 0.16081(19) 0.05200(18) 0.55368(11)
H9 H 0.1916 -0.0184 0.5193
H10 H 0.1521 0.1260 0.5188
C9 C 0.27885(19) 0.07484(18) 0.61797(12)
H11 H 0.3742 0.0947 0.5911
H12 H 0.2934 -0.0019 0.6496
C10 C 0.23807(19) 0.18118(16) 0.67632(10)
C11 C 0.3391(2) 0.16846(17) 0.75044(12)
C12 C 0.2669(2) 0.08475(18) 0.81123(12)
H13 H 0.2552 0.1276 0.8637
H14 H 0.3276 0.0095 0.8196
C13 C 0.1154(2) 0.05132(16) 0.77592(11)
H15 H 0.0384 0.0490 0.8186
H16 H 0.1189 -0.0301 0.7486
C14 C 0.08377(18) 0.15595(14) 0.71467(9)
C15 C -0.04303(18) 0.11869(14) 0.65514(9)
C16 C -0.17821(18) 0.06729(16) 0.69993(10)
H17 H -0.1476 -0.0065 0.7312
H18 H -0.2143 0.1302 0.7387
C17 C -0.30534(19) 0.03162(17) 0.64327(11)
H19 H -0.3848 -0.0093 0.6748
H20 H -0.3477 0.1074 0.6188
C18 C 0.2620(2) 0.30614(18) 0.63659(12)
H21 H 0.3687 0.3238 0.6337
H22 H 0.2125 0.3704 0.6685
H23 H 0.2203 0.3049 0.5819
loop_
_geom_bond_atom_site_label_1
_geom_bond_atom_site_label_2
_geom_bond_site_symmetry_1
_geom_bond_site_symmetry_2
O1 C1 1_555 1_555
O2 C11 1_555 1_555
O3 H1 1_555 1_555
O4 N1 1_555 1_555
O5 N1 1_555 1_555
N1 C15 1_555 1_555
C1 C2 1_555 1_555
C2 H2 1_555 1_555
C3 C2 1_555 1_555
H3 C3 1_555 1_555
C4 C3 1_555 1_555
H4 C4 1_555 1_555
C5 C4 1_555 1_555
H5 C5 1_555 1_555
C6 C1 1_555 1_555
H6 C6 1_555 1_555
H7 C6 1_555 1_555
C7 C4 1_555 1_555
H8 C7 1_555 1_555
C8 C7 1_555 1_555
H9 C8 1_555 1_555
H10 C8 1_555 1_555
C9 C8 1_555 1_555
H11 C9 1_555 1_555
H12 C9 1_555 1_555
C10 C9 1_555 1_555
C11 C10 1_555 1_555
C12 C11 1_555 1_555
H13 C12 1_555 1_555
H14 C12 1_555 1_555
C13 C12 1_555 1_555
H15 C13 1_555 1_555
H16 C13 1_555 1_555
C14 O3 1_555 1_555
C15 C7 1_555 1_555
C16 C15 1_555 1_555
H17 C16 1_555 1_555
H18 C16 1_555 1_555
C17 C5 1_555 1_555
H19 C17 1_555 1_555
H20 C17 1_555 1_555
C18 C10 1_555 1_555
H21 C18 1_555 1_555
H22 C18 1_555 1_555
H23 C18 1_555 1_555
C5 C6 1_555 1_555
C10 C14 1_555 1_555
C13 C14 1_555 1_555
C14 C15 1_555 1_555
C16 C17 1_555 1_555

#END
