
#######################################################################
#
#                 Cambridge Crystallographic Data Centre
#                                CCDC 
#
#######################################################################
#
# If this CIF has been generated from an entry in the Cambridge 
# Structural Database, then it will include bibliographic, chemical, 
# crystal, experimental, refinement or atomic coordinate data resulting 
# from the CCDC's data processing and validation procedures.
#
#######################################################################

data_FOLLOJ
_chemical_formula_moiety         'C56 H54 N2 Si2'
_chemical_name_systematic        
1,3-bis(2,6-Di-isopropylphenyl)-2,2,4,4-tetrakis(phenylethynyl)-1,3,2,4-diazadisiletidine
_symmetry_cell_setting           monoclinic
_symmetry_space_group_name_H-M   'C 2/c'
_symmetry_Int_Tables_number      15
_space_group_name_Hall           '-C 2yn'
loop_
_symmetry_equiv_pos_site_id
_symmetry_equiv_pos_as_xyz
1 x,y,z
2 -x,y,1/2-z
3 1/2+x,1/2+y,z
4 1/2-x,1/2+y,1/2-z
5 -x,-y,-z
6 x,-y,1/2+z
7 1/2-x,1/2-y,-z
8 1/2+x,1/2-y,1/2+z
_cell_length_a                   24.046(3)
_cell_length_b                   19.8028(16)
_cell_length_c                   21.458(3)
_cell_angle_alpha                90
_cell_angle_beta                 108.792(14)
_cell_angle_gamma                90
_cell_volume                     9673.16
_exptl_crystal_colour            colorless
_exptl_crystal_description       block
_cell_formula_units_Z            8
loop_
_atom_site_label
_atom_site_type_symbol
_atom_site_fract_x
_atom_site_fract_y
_atom_site_fract_z
Si1 Si 0.0000 -0.83346(4) 0.2500
Si2 Si 0.0000 -0.96026(4) 0.2500
N1 N 0.02922(8) -0.89693(9) 0.30597(9)
C1 C 0.05134(11) -0.77774(12) 0.22947(12)
C2 C 0.08111(11) -0.73827(12) 0.21205(13)
C3 C 0.11525(8) -0.69157(8) 0.18861(9)
C4 C 0.16313(8) -0.71399(8) 0.17142(10)
H1 H 0.1743 -0.7602 0.1769
C5 C 0.19463(8) -0.66883(12) 0.14616(11)
H2 H 0.2274 -0.6842 0.1344
C6 C 0.17826(10) -0.60125(11) 0.13809(11)
H3 H 0.1998 -0.5704 0.1208
C7 C 0.13039(10) -0.57883(7) 0.15528(11)
H4 H 0.1192 -0.5326 0.1498
C8 C 0.09888(8) -0.62399(8) 0.18054(10)
H5 H 0.0662 -0.6087 0.1923
C9 C 0.05084(11) -1.01732(11) 0.22989(12)
C10 C 0.07993(11) -1.05977(12) 0.21516(12)
C11 C 0.11398(7) -1.11061(7) 0.19570(8)
C12 C 0.17371(7) -1.10118(8) 0.20699(9)
H6 H 0.1925 -1.0613 0.2283
C13 C 0.20594(6) -1.15005(10) 0.18711(10)
H7 H 0.2468 -1.1436 0.1948
C14 C 0.17845(8) -1.20834(8) 0.15594(10)
H8 H 0.2005 -1.2417 0.1423
C15 C 0.11872(9) -1.21777(7) 0.14465(9)
H9 H 0.0999 -1.2576 0.1233
C16 C 0.08649(6) -1.16891(8) 0.16453(9)
H10 H 0.0457 -1.1754 0.1568
C17 C 0.06449(11) -0.89766(11) 0.37409(12)
C18 C 0.03742(12) -0.89480(11) 0.42333(12)
C19 C 0.07352(14) -0.89685(12) 0.48897(13)
H11 H 0.0560 -0.8948 0.5228
C20 C 0.13372(14) -0.90168(12) 0.50617(14)
H12 H 0.1572 -0.9035 0.5512
C21 C 0.15958(13) -0.90384(12) 0.45729(14)
H13 H 0.2011 -0.9070 0.4691
C22 C 0.12593(11) -0.90150(12) 0.39120(12)
C23 C -0.02845(12) -0.88973(12) 0.40745(14)
H14 H -0.0463 -0.8847 0.3587
C24 C -0.04553(15) -0.82760(14) 0.43973(16)
H15 H -0.0294 -0.7869 0.4259
H16 H -0.0297 -0.8320 0.4877
H17 H -0.0884 -0.8241 0.4262
C25 C -0.05398(14) -0.95379(14) 0.42810(15)
H18 H -0.0409 -0.9935 0.4094
H19 H -0.0970 -0.9515 0.4119
H20 H -0.0404 -0.9573 0.4762
C26 C 0.15670(11) -0.90282(12) 0.33921(13)
H21 H 0.1256 -0.9050 0.2951
C27 C 0.19548(13) -0.96497(13) 0.34591(16)
H22 H 0.1722 -1.0057 0.3453
H23 H 0.2279 -0.9627 0.3876
H24 H 0.2113 -0.9665 0.3092
C28 C 0.19170(12) -0.83803(13) 0.34136(15)
H25 H 0.1661 -0.7989 0.3386
H26 H 0.2069 -0.8374 0.3041
H27 H 0.2246 -0.8362 0.3827
N1A N -0.02922(8) -0.89693(9) 0.19403(9)
C1A C -0.05134(11) -0.77774(12) 0.27053(12)
C2A C -0.08111(11) -0.73827(12) 0.28795(13)
C3A C -0.11525(8) -0.69157(8) 0.31139(9)
C4A C -0.16313(8) -0.71399(8) 0.32858(10)
H1A H -0.1743 -0.7602 0.3231
C5A C -0.19463(8) -0.66883(12) 0.35384(11)
H2A H -0.2274 -0.6842 0.3656
C6A C -0.17826(10) -0.60125(11) 0.36191(11)
H3A H -0.1998 -0.5704 0.3792
C7A C -0.13039(10) -0.57883(7) 0.34472(11)
H4A H -0.1192 -0.5326 0.3502
C8A C -0.09888(8) -0.62399(8) 0.31946(10)
H5A H -0.0662 -0.6087 0.3077
C9A C -0.05084(11) -1.01732(11) 0.27011(12)
C10A C -0.07993(11) -1.05977(12) 0.28484(12)
C11A C -0.11398(7) -1.11061(7) 0.30430(8)
C12A C -0.17371(7) -1.10118(8) 0.29301(9)
H6A H -0.1925 -1.0613 0.2717
C13A C -0.20594(6) -1.15005(10) 0.31289(10)
H7A H -0.2468 -1.1436 0.3052
C14A C -0.17845(8) -1.20834(8) 0.34406(10)
H8A H -0.2005 -1.2417 0.3577
C15A C -0.11872(9) -1.21777(7) 0.35535(9)
H9A H -0.0999 -1.2576 0.3767
C16A C -0.08649(6) -1.16891(8) 0.33547(9)
H10A H -0.0457 -1.1754 0.3432
C17A C -0.06449(11) -0.89766(11) 0.12591(12)
C18A C -0.03742(12) -0.89480(11) 0.07667(12)
C19A C -0.07352(14) -0.89685(12) 0.01103(13)
H11A H -0.0560 -0.8948 -0.0228
C20A C -0.13372(14) -0.90168(12) -0.00617(14)
H12A H -0.1572 -0.9035 -0.0512
C21A C -0.15958(13) -0.90384(12) 0.04271(14)
H13A H -0.2011 -0.9070 0.0309
C22A C -0.12593(11) -0.90150(12) 0.10880(12)
C23A C 0.02845(12) -0.88973(12) 0.09255(14)
H14A H 0.0463 -0.8847 0.1413
C24A C 0.04553(15) -0.82760(14) 0.06027(16)
H15A H 0.0294 -0.7869 0.0741
H16A H 0.0297 -0.8320 0.0123
H17A H 0.0884 -0.8241 0.0738
C25A C 0.05398(14) -0.95379(14) 0.07190(15)
H18A H 0.0409 -0.9935 0.0906
H19A H 0.0970 -0.9515 0.0881
H20A H 0.0404 -0.9573 0.0238
C26A C -0.15670(11) -0.90282(12) 0.16079(13)
H21A H -0.1256 -0.9050 0.2049
C27A C -0.19548(13) -0.96497(13) 0.15409(16)
H22A H -0.1722 -1.0057 0.1547
H23A H -0.2279 -0.9627 0.1124
H24A H -0.2113 -0.9665 0.1908
C28A C -0.19170(12) -0.83803(13) 0.15864(15)
H25A H -0.1661 -0.7989 0.1614
H26A H -0.2069 -0.8374 0.1959
H27A H -0.2246 -0.8362 0.1173
Si3 Si 0.0000 -0.32886(5) 0.2500
Si4 Si 0.0000 -0.45536(4) 0.2500
N2 N 0.03003(8) -0.39204(9) 0.21609(9)
C29 C 0.05044(12) -0.27336(12) 0.30780(13)
C30 C 0.08046(12) -0.23367(13) 0.34651(14)
C31 C 0.1138(3) -0.1887(4) 0.3975(3)
C32 C 0.1611(3) -0.2120(3) 0.4495(3)
H28 H 0.1721 -0.2582 0.4515
C33 C 0.1923(3) -0.1676(4) 0.4984(3)
H29 H 0.2246 -0.1835 0.5339
C34 C 0.1762(3) -0.1000(3) 0.4955(4)
H30 H 0.1975 -0.0697 0.5290
C35 C 0.1289(4) -0.0767(3) 0.4436(4)
H31 H 0.1178 -0.0305 0.4415
C36 C 0.0976(3) -0.1211(4) 0.3946(4)
H32 H 0.0653 -0.1052 0.3591
C37 C 0.04979(11) -0.51273(12) 0.30636(13)
C38 C 0.07652(11) -0.55865(13) 0.34004(13)
C39 C 0.10704(7) -0.61403(7) 0.37986(8)
C40 C 0.16806(7) -0.61647(8) 0.40110(10)
H33 H 0.1897 -0.5820 0.3885
C41 C 0.19734(6) -0.66940(10) 0.44074(11)
H34 H 0.2390 -0.6711 0.4553
C42 C 0.16560(8) -0.71989(8) 0.45914(9)
H35 H 0.1856 -0.7561 0.4862
C43 C 0.10458(8) -0.71746(8) 0.43789(9)
H36 H 0.0829 -0.7520 0.4505
C44 C 0.07530(6) -0.66452(9) 0.39825(9)
H37 H 0.0336 -0.6629 0.3837
C45 C 0.06518(11) -0.39332(11) 0.17324(12)
C46 C 0.03743(11) -0.39276(11) 0.10458(12)
C47 C 0.07316(13) -0.39510(12) 0.06477(14)
H38 H 0.0555 -0.3951 0.0183
C48 C 0.13324(13) -0.39743(13) 0.09101(15)
H39 H 0.1566 -0.3994 0.0628
C49 C 0.15964(12) -0.39693(12) 0.15828(15)
H40 H 0.2013 -0.3978 0.1759
C50 C 0.12670(11) -0.39518(11) 0.20111(13)
C51 C -0.02854(12) -0.38843(13) 0.07237(13)
H41 H -0.0466 -0.3846 0.1082
C52 C -0.04615(15) -0.32588(16) 0.02897(15)
H42 H -0.0299 -0.2856 0.0549
H43 H -0.0891 -0.3225 0.0122
H44 H -0.0308 -0.3294 -0.0080
C53 C -0.05368(14) -0.45226(15) 0.03219(14)
H45 H -0.0408 -0.4923 0.0599
H46 H -0.0396 -0.4550 -0.0058
H47 H -0.0967 -0.4501 0.0169
C54 C 0.15821(11) -0.39444(13) 0.27498(14)
H48 H 0.1276 -0.3949 0.2974
C55 C 0.19465(14) -0.33005(15) 0.29621(16)
H49 H 0.1690 -0.2905 0.2830
H50 H 0.2252 -0.3283 0.2751
H51 H 0.2131 -0.3301 0.3441
C56 C 0.19675(13) -0.45683(15) 0.29767(16)
H52 H 0.1730 -0.4976 0.2830
H53 H 0.2132 -0.4568 0.3458
H54 H 0.2288 -0.4561 0.2787
N2A N -0.03003(8) -0.39204(9) 0.28391(9)
C29A C -0.05044(12) -0.27336(12) 0.19220(13)
C30A C -0.08046(12) -0.23367(13) 0.15349(14)
C31A C -0.1138(3) -0.1887(4) 0.1025(3)
C32A C -0.1611(3) -0.2120(3) 0.0505(3)
H28A H -0.1721 -0.2582 0.0485
C33A C -0.1923(3) -0.1676(4) 0.0016(3)
H29A H -0.2246 -0.1835 -0.0339
C34A C -0.1762(3) -0.1000(3) 0.0045(4)
H30A H -0.1975 -0.0697 -0.0290
C35A C -0.1289(4) -0.0767(3) 0.0564(4)
H31A H -0.1178 -0.0305 0.0585
C36A C -0.0976(3) -0.1211(4) 0.1054(4)
H32A H -0.0653 -0.1052 0.1409
C37A C -0.04979(11) -0.51273(12) 0.19364(13)
C38A C -0.07652(11) -0.55865(13) 0.15996(13)
C39A C -0.10704(7) -0.61403(7) 0.12014(8)
C40A C -0.16806(7) -0.61647(8) 0.09890(10)
H33A H -0.1897 -0.5820 0.1115
C41A C -0.19734(6) -0.66940(10) 0.05926(11)
H34A H -0.2390 -0.6711 0.0447
C42A C -0.16560(8) -0.71989(8) 0.04086(9)
H35A H -0.1856 -0.7561 0.0138
C43A C -0.10458(8) -0.71746(8) 0.06211(9)
H36A H -0.0829 -0.7520 0.0495
C44A C -0.07530(6) -0.66452(9) 0.10175(9)
H37A H -0.0336 -0.6629 0.1163
C45A C -0.06518(11) -0.39332(11) 0.32676(12)
C46A C -0.03743(11) -0.39276(11) 0.39542(12)
C47A C -0.07316(13) -0.39510(12) 0.43523(14)
H38A H -0.0555 -0.3951 0.4817
C48A C -0.13324(13) -0.39743(13) 0.40899(15)
H39A H -0.1566 -0.3994 0.4372
C49A C -0.15964(12) -0.39693(12) 0.34172(15)
H40A H -0.2013 -0.3978 0.3241
C50A C -0.12670(11) -0.39518(11) 0.29889(13)
C51A C 0.02854(12) -0.38843(13) 0.42763(13)
H41A H 0.0466 -0.3846 0.3918
C52A C 0.04615(15) -0.32588(16) 0.47103(15)
H42A H 0.0299 -0.2856 0.4451
H43A H 0.0891 -0.3225 0.4878
H44A H 0.0308 -0.3294 0.5080
C53A C 0.05368(14) -0.45226(15) 0.46781(14)
H45A H 0.0408 -0.4923 0.4401
H46A H 0.0396 -0.4550 0.5058
H47A H 0.0967 -0.4501 0.4831
C54A C -0.15821(11) -0.39444(13) 0.22502(14)
H48A H -0.1276 -0.3949 0.2026
C55A C -0.19465(14) -0.33005(15) 0.20379(16)
H49A H -0.1690 -0.2905 0.2170
H50A H -0.2252 -0.3283 0.2249
H51A H -0.2131 -0.3301 0.1559
C56A C -0.19675(13) -0.45683(15) 0.20233(16)
H52A H -0.1730 -0.4976 0.2170
H53A H -0.2132 -0.4568 0.1542
H54A H -0.2288 -0.4561 0.2213
C57? C 0.1159(3) -0.1835(4) 0.3911(3)
C58? C 0.1733(3) -0.1969(3) 0.4300(4)
H55? H 0.1910 -0.2389 0.4260
C59? C 0.2048(3) -0.1490(3) 0.4749(4)
H56? H 0.2441 -0.1582 0.5015
C60? C 0.1790(3) -0.0876(3) 0.4808(4)
H57? H 0.2005 -0.0549 0.5115
C61? C 0.1215(4) -0.0742(4) 0.4419(5)
H58? H 0.1038 -0.0322 0.4459
C62? C 0.0900(3) -0.1221(5) 0.3970(5)
H59? H 0.0508 -0.1129 0.3704
loop_
_geom_bond_atom_site_label_1
_geom_bond_atom_site_label_2
_geom_bond_site_symmetry_1
_geom_bond_site_symmetry_2
Si1 N1 1_555 1_555
Si2 N1 1_555 1_555
N1 C17 1_555 1_555
C1 Si1 1_555 1_555
C2 C1 1_555 1_555
C3 C2 1_555 1_555
C4 C3 1_555 1_555
H1 C4 1_555 1_555
C5 C4 1_555 1_555
H2 C5 1_555 1_555
C6 C5 1_555 1_555
H3 C6 1_555 1_555
C7 C6 1_555 1_555
H4 C7 1_555 1_555
C8 C3 1_555 1_555
H5 C8 1_555 1_555
C9 Si2 1_555 1_555
C10 C9 1_555 1_555
C11 C10 1_555 1_555
C12 C11 1_555 1_555
H6 C12 1_555 1_555
C13 C12 1_555 1_555
H7 C13 1_555 1_555
C14 C13 1_555 1_555
H8 C14 1_555 1_555
C15 C14 1_555 1_555
H9 C15 1_555 1_555
C16 C11 1_555 1_555
H10 C16 1_555 1_555
C17 C18 1_555 1_555
C18 C19 1_555 1_555
C19 H11 1_555 1_555
C20 C19 1_555 1_555
H12 C20 1_555 1_555
C21 C20 1_555 1_555
H13 C21 1_555 1_555
C22 C17 1_555 1_555
C23 C18 1_555 1_555
H14 C23 1_555 1_555
C24 C23 1_555 1_555
H15 C24 1_555 1_555
H16 C24 1_555 1_555
H17 C24 1_555 1_555
C25 C23 1_555 1_555
H18 C25 1_555 1_555
H19 C25 1_555 1_555
H20 C25 1_555 1_555
C26 C22 1_555 1_555
H21 C26 1_555 1_555
C27 C26 1_555 1_555
H22 C27 1_555 1_555
H23 C27 1_555 1_555
H24 C27 1_555 1_555
C28 C26 1_555 1_555
H25 C28 1_555 1_555
H26 C28 1_555 1_555
H27 C28 1_555 1_555
Si3 N2 1_555 1_555
Si4 N2 1_555 1_555
N2 C45 1_555 1_555
C29 Si3 1_555 1_555
C30 C29 1_555 1_555
C31 C30 1_555 1_555
C32 C31 1_555 1_555
H28 C32 1_555 1_555
C33 C32 1_555 1_555
H29 C33 1_555 1_555
C34 C33 1_555 1_555
H30 C34 1_555 1_555
C35 C34 1_555 1_555
H31 C35 1_555 1_555
C36 C31 1_555 1_555
H32 C36 1_555 1_555
C37 Si4 1_555 1_555
C38 C37 1_555 1_555
C39 C38 1_555 1_555
C40 C39 1_555 1_555
H33 C40 1_555 1_555
C41 C40 1_555 1_555
H34 C41 1_555 1_555
C42 C41 1_555 1_555
H35 C42 1_555 1_555
C43 C42 1_555 1_555
H36 C43 1_555 1_555
C44 C39 1_555 1_555
H37 C44 1_555 1_555
C45 C46 1_555 1_555
C46 C47 1_555 1_555
C47 H38 1_555 1_555
C48 C47 1_555 1_555
H39 C48 1_555 1_555
C49 C48 1_555 1_555
H40 C49 1_555 1_555
C50 C45 1_555 1_555
C51 C46 1_555 1_555
H41 C51 1_555 1_555
C52 C51 1_555 1_555
H42 C52 1_555 1_555
H43 C52 1_555 1_555
H44 C52 1_555 1_555
C53 C51 1_555 1_555
H45 C53 1_555 1_555
H46 C53 1_555 1_555
H47 C53 1_555 1_555
C54 C50 1_555 1_555
H48 C54 1_555 1_555
C55 C54 1_555 1_555
H49 C55 1_555 1_555
H50 C55 1_555 1_555
H51 C55 1_555 1_555
C56 C54 1_555 1_555
H52 C56 1_555 1_555
H53 C56 1_555 1_555
H54 C56 1_555 1_555
N1A Si1 1_555 1_555
C1A Si1 1_555 1_555
C2A C1A 1_555 1_555
C3A C2A 1_555 1_555
C4A C3A 1_555 1_555
H1A C4A 1_555 1_555
C5A C4A 1_555 1_555
H2A C5A 1_555 1_555
C6A C5A 1_555 1_555
H3A C6A 1_555 1_555
C7A C6A 1_555 1_555
H4A C7A 1_555 1_555
C8A C3A 1_555 1_555
H5A C8A 1_555 1_555
C9A Si2 1_555 1_555
C10A C9A 1_555 1_555
C11A C10A 1_555 1_555
C12A C11A 1_555 1_555
H6A C12A 1_555 1_555
C13A C12A 1_555 1_555
H7A C13A 1_555 1_555
C14A C13A 1_555 1_555
H8A C14A 1_555 1_555
C15A C14A 1_555 1_555
H9A C15A 1_555 1_555
C16A C11A 1_555 1_555
H10A C16A 1_555 1_555
C17A N1A 1_555 1_555
C18A C17A 1_555 1_555
C19A C18A 1_555 1_555
H11A C19A 1_555 1_555
C20A C19A 1_555 1_555
H12A C20A 1_555 1_555
C21A C20A 1_555 1_555
H13A C21A 1_555 1_555
C22A C17A 1_555 1_555
C23A C18A 1_555 1_555
H14A C23A 1_555 1_555
C24A C23A 1_555 1_555
H15A C24A 1_555 1_555
H16A C24A 1_555 1_555
H17A C24A 1_555 1_555
C25A C23A 1_555 1_555
H18A C25A 1_555 1_555
H19A C25A 1_555 1_555
H20A C25A 1_555 1_555
C26A C22A 1_555 1_555
H21A C26A 1_555 1_555
C27A C26A 1_555 1_555
H22A C27A 1_555 1_555
H23A C27A 1_555 1_555
H24A C27A 1_555 1_555
C28A C26A 1_555 1_555
H25A C28A 1_555 1_555
H26A C28A 1_555 1_555
H27A C28A 1_555 1_555
N2A Si3 1_555 1_555
C29A Si3 1_555 1_555
C30A C29A 1_555 1_555
C31A C30A 1_555 1_555
C32A C31A 1_555 1_555
H28A C32A 1_555 1_555
C33A C32A 1_555 1_555
H29A C33A 1_555 1_555
C34A C33A 1_555 1_555
H30A C34A 1_555 1_555
C35A C34A 1_555 1_555
H31A C35A 1_555 1_555
C36A C31A 1_555 1_555
H32A C36A 1_555 1_555
C37A Si4 1_555 1_555
C38A C37A 1_555 1_555
C39A C38A 1_555 1_555
C40A C39A 1_555 1_555
H33A C40A 1_555 1_555
C41A C40A 1_555 1_555
H34A C41A 1_555 1_555
C42A C41A 1_555 1_555
H35A C42A 1_555 1_555
C43A C42A 1_555 1_555
H36A C43A 1_555 1_555
C44A C39A 1_555 1_555
H37A C44A 1_555 1_555
C45A N2A 1_555 1_555
C46A C45A 1_555 1_555
C47A C46A 1_555 1_555
H38A C47A 1_555 1_555
C48A C47A 1_555 1_555
H39A C48A 1_555 1_555
C49A C48A 1_555 1_555
H40A C49A 1_555 1_555
C50A C45A 1_555 1_555
C51A C46A 1_555 1_555
H41A C51A 1_555 1_555
C52A C51A 1_555 1_555
H42A C52A 1_555 1_555
H43A C52A 1_555 1_555
H44A C52A 1_555 1_555
C53A C51A 1_555 1_555
H45A C53A 1_555 1_555
H46A C53A 1_555 1_555
H47A C53A 1_555 1_555
C54A C50A 1_555 1_555
H48A C54A 1_555 1_555
C55A C54A 1_555 1_555
H49A C55A 1_555 1_555
H50A C55A 1_555 1_555
H51A C55A 1_555 1_555
C56A C54A 1_555 1_555
H52A C56A 1_555 1_555
H53A C56A 1_555 1_555
H54A C56A 1_555 1_555
Si2 N1A 1_555 1_555
C7 C8 1_555 1_555
C15 C16 1_555 1_555
C21 C22 1_555 1_555
Si4 N2A 1_555 1_555
C35 C36 1_555 1_555
C43 C44 1_555 1_555
C49 C50 1_555 1_555
C7A C8A 1_555 1_555
C15A C16A 1_555 1_555
C21A C22A 1_555 1_555
C35A C36A 1_555 1_555
C43A C44A 1_555 1_555
C49A C50A 1_555 1_555

#END
