
#######################################################################
#
#                 Cambridge Crystallographic Data Centre
#                                CCDC 
#
#######################################################################
#
# If this CIF has been generated from an entry in the Cambridge 
# Structural Database, then it will include bibliographic, chemical, 
# crystal, experimental, refinement or atomic coordinate data resulting 
# from the CCDC's data processing and validation procedures.
#
#######################################################################

data_FOLMIE
_chemical_formula_moiety         
'C63 H61 Li1 N3 O1 Si2 1-,C16 H32 Li1 O4 1+,C7 H8'
_chemical_name_systematic        
"tetrakis(Tetrahydrofuran)-lithium (tetrahydrofuran)-(N,N',2-trimesityl-1,1,3,3-tetrakis(phenylethynyl)disilazane-1,3-diaminato)-lithium toluene solvate"
_symmetry_cell_setting           monoclinic
_symmetry_space_group_name_H-M   'P 21/n'
_symmetry_Int_Tables_number      14
_space_group_name_Hall           '-P 2yn'
loop_
_symmetry_equiv_pos_site_id
_symmetry_equiv_pos_as_xyz
1 x,y,z
2 1/2-x,1/2+y,1/2-z
3 -x,-y,-z
4 1/2+x,1/2-y,1/2+z
_cell_length_a                   13.170(3)
_cell_length_b                   15.412(3)
_cell_length_c                   38.325(8)
_cell_angle_alpha                90
_cell_angle_beta                 99.51(3)
_cell_angle_gamma                90
_cell_volume                     7672.15
_exptl_crystal_colour            colorless
_exptl_crystal_description       flake
_cell_formula_units_Z            4
loop_
_atom_site_label
_atom_site_type_symbol
_atom_site_fract_x
_atom_site_fract_y
_atom_site_fract_z
Si1 Si 0.00675(7) 0.52893(5) 0.15572(2)
Si2 Si -0.04285(7) 0.71450(5) 0.13097(2)
N1 N -0.07081(19) 0.49466(15) 0.12057(7)
N2 N -0.14453(19) 0.69830(16) 0.10003(6)
N3 N -0.02349(18) 0.63533(15) 0.16394(6)
Li1 Li -0.1664(4) 0.5761(4) 0.09405(16)
O1 O -0.2783(2) 0.54067(19) 0.05788(7)
C1 C -0.2729(6) 0.4619(5) 0.0311(2)
H1 H -0.2092 0.4644 0.0206
H2 H -0.2763 0.4052 0.0430
C2 C -0.3649(10) 0.4763(7) 0.0042(3)
H3 H -0.4127 0.4266 0.0039
H4 H -0.3447 0.4808 -0.0195
C3 C -0.4188(7) 0.5599(5) 0.0125(2)
H5 H -0.4541 0.5897 -0.0090
H6 H -0.4673 0.5506 0.0293
C4 C -0.3281(7) 0.6023(5) 0.0280(3)
H7 H -0.3440 0.6593 0.0378
H8 H -0.2818 0.6114 0.0105
C5 C -0.0740(2) 0.4158(2) 0.10204(8)
C6 C -0.0256(3) 0.4065(2) 0.07217(9)
C7 C -0.1415(3) 0.2706(2) 0.09090(10)
H9 H -0.1814 0.2238 0.0975
C8 C -0.0930(3) 0.2606(2) 0.06190(10)
C9 C -0.0355(3) 0.3297(3) 0.05326(10)
H10 H -0.0012 0.3243 0.0334
C10 C -0.1342(2) 0.3465(2) 0.11085(9)
C11 C 0.0355(3) 0.4807(3) 0.06032(10)
H11 H -0.0092 0.5315 0.0552
H12 H 0.0624 0.4638 0.0389
H13 H 0.0929 0.4950 0.0791
C12 C -0.1010(4) 0.1769(3) 0.04080(12)
H14 H -0.0330 0.1611 0.0356
H15 H -0.1488 0.1849 0.0186
H16 H -0.1265 0.1305 0.0546
C13 C -0.1928(3) 0.3556(2) 0.14132(9)
H17 H -0.2349 0.3037 0.1427
H18 H -0.2374 0.4068 0.1376
H19 H -0.1441 0.3622 0.1634
C14 C -0.1918(2) 0.7680(2) 0.08026(8)
C15 C -0.1642(3) 0.7936(2) 0.04783(9)
C16 C -0.2107(3) 0.8647(2) 0.02974(9)
H20 H -0.1888 0.8818 0.0083
C17 C -0.2873(3) 0.9117(2) 0.04138(10)
C18 C -0.3181(3) 0.8841(2) 0.07246(10)
H21 H -0.3719 0.9145 0.0809
C19 C -0.2732(3) 0.8139(2) 0.09157(9)
C20 C -0.0839(3) 0.7429(2) 0.03254(9)
H22 H -0.0760 0.7676 0.0096
H23 H -0.1056 0.6822 0.0294
H24 H -0.0180 0.7461 0.0487
C21 C -0.3375(4) 0.9903(3) 0.02141(12)
H25 H -0.3348 0.9840 -0.0039
H26 H -0.3006 1.0430 0.0304
H27 H -0.4095 0.9944 0.0248
C22 C -0.3117(3) 0.7851(2) 0.12446(9)
H28 H -0.3630 0.8265 0.1301
H29 H -0.2539 0.7825 0.1442
H30 H -0.3431 0.7275 0.1206
C23 C -0.0382(2) 0.66258(18) 0.19885(8)
C24 C -0.1315(2) 0.6493(2) 0.21012(8)
C25 C -0.1462(3) 0.6841(2) 0.24231(9)
H31 H -0.2099 0.6745 0.2502
C26 C -0.0710(3) 0.7326(2) 0.26344(9)
C27 C 0.0222(3) 0.7420(2) 0.25197(8)
H32 H 0.0757 0.7732 0.2663
C28 C 0.0408(2) 0.70753(19) 0.22027(8)
C29 C -0.2166(2) 0.5984(2) 0.18807(9)
H33 H -0.2266 0.6195 0.1636
H34 H -0.2805 0.6058 0.1977
H35 H -0.1980 0.5368 0.1886
C30 C -0.0939(3) 0.7750(3) 0.29696(10)
H36 H -0.1411 0.7381 0.3076
H37 H -0.1257 0.8318 0.2912
H38 H -0.0296 0.7824 0.3137
C31 C 0.1442(2) 0.7199(2) 0.20879(9)
H39 H 0.1946 0.7392 0.2290
H40 H 0.1382 0.7637 0.1900
H41 H 0.1669 0.6648 0.1999
C32 C 0.1452(3) 0.52255(19) 0.15268(8)
C33 C 0.2342(3) 0.5216(2) 0.14943(9)
C34 C 0.3390(2) 0.52423(19) 0.14306(9)
C35 C 0.3605(3) 0.5595(2) 0.11201(11)
H42 H 0.3056 0.5807 0.0949
C36 C 0.4593(4) 0.5646(3) 0.10550(13)
H43 H 0.4721 0.5886 0.0838
C37 C 0.5397(3) 0.5354(3) 0.12986(13)
H44 H 0.6083 0.5400 0.1253
C38 C 0.5208(3) 0.4996(2) 0.16089(11)
H45 H 0.5760 0.4782 0.1778
C39 C 0.4207(3) 0.4949(2) 0.16755(10)
H46 H 0.4080 0.4710 0.1893
C40 C 0.0028(2) 0.4682(2) 0.19717(9)
C41 C -0.0038(2) 0.4193(2) 0.22112(9)
C42 C -0.0171(3) 0.35971(19) 0.24911(8)
C43 C 0.0607(3) 0.3024(2) 0.26282(9)
H47 H 0.1233 0.3015 0.2535
C44 C 0.0473(4) 0.2470(2) 0.28980(10)
H48 H 0.1008 0.2080 0.2992
C45 C -0.0419(4) 0.2476(3) 0.30313(10)
H49 H -0.0502 0.2091 0.3218
C46 C -0.1199(3) 0.3029(3) 0.29002(10)
H50 H -0.1820 0.3029 0.2995
C47 C -0.1080(3) 0.3591(2) 0.26280(9)
H51 H -0.1624 0.3973 0.2535
C48 C 0.0786(3) 0.7234(2) 0.11368(9)
C49 C 0.1544(3) 0.7363(2) 0.10041(9)
C50 C 0.2424(3) 0.7542(2) 0.08414(10)
C51 C 0.2449(3) 0.7311(3) 0.04951(11)
H52 H 0.1875 0.7026 0.0360
C52 C 0.3311(4) 0.7494(3) 0.03437(14)
H53 H 0.3325 0.7332 0.0105
C53 C 0.4140(4) 0.7905(4) 0.0535(2)
H54 H 0.4730 0.8029 0.0431
C54 C 0.4113(4) 0.8132(4) 0.08732(18)
H55 H 0.4692 0.8417 0.1005
C55 C 0.3271(3) 0.7963(3) 0.10317(12)
H56 H 0.3268 0.8134 0.1270
C56 C -0.0521(2) 0.8192(2) 0.15321(8)
C57 C -0.0702(2) 0.8881(2) 0.16560(8)
C58 C -0.0885(2) 0.9705(2) 0.18135(9)
C59 C -0.0912(3) 0.9764(2) 0.21729(10)
H57 H -0.0841 0.9255 0.2315
C60 C -0.1043(3) 1.0562(3) 0.23244(11)
H58 H -0.1070 1.0597 0.2570
C61 C -0.1132(3) 1.1302(2) 0.21243(12)
H59 H -0.1196 1.1851 0.2232
C62 C -0.1129(3) 1.1245(2) 0.17695(11)
H60 H -0.1209 1.1756 0.1629
C63 C -0.1012(3) 1.0455(2) 0.16121(10)
H61 H -0.1018 1.0425 0.1364
C68 C 0.3675(3) 0.2871(3) 0.06195(12)
C69 C 0.3951(5) 0.2277(3) 0.03872(12)
H70 H 0.3429 0.1986 0.0230
C70 C 0.4942(6) 0.2097(3) 0.03767(15)
H71 H 0.5110 0.1686 0.0211
C71 C 0.5698(5) 0.2492(5) 0.05989(19)
H72 H 0.6399 0.2359 0.0593
C72 C 0.5445(5) 0.3081(4) 0.08313(15)
H73 H 0.5974 0.3365 0.0989
C73 C 0.4449(4) 0.3271(3) 0.08428(12)
H74 H 0.4286 0.3687 0.1008
C74 C 0.2568(4) 0.3100(5) 0.06251(14)
H75 H 0.2536 0.3628 0.0765
H76 H 0.2233 0.2623 0.0731
H77 H 0.2214 0.3199 0.0383
Li2 Li 0.2159(5) 0.5635(4) 0.35581(16)
O2 O 0.06901(19) 0.55798(17) 0.35412(7)
O3 O 0.2984(2) 0.50611(16) 0.39541(6)
O4 O 0.26327(18) 0.68229(14) 0.35996(6)
O5 O 0.2428(2) 0.52105(15) 0.31100(6)
C75 C -0.0018(3) 0.5197(4) 0.32621(13)
H78 H 0.0155 0.4578 0.3236
H79 H 0.0022 0.5497 0.3036
C76 C -0.1054(3) 0.5275(3) 0.33464(14)
H80 H -0.1328 0.4697 0.3394
H81 H -0.1522 0.5543 0.3147
C77 C -0.0970(3) 0.5835(3) 0.36672(12)
H82 H -0.1393 0.5602 0.3837
H83 H -0.1192 0.6436 0.3603
C78 C 0.0152(3) 0.5805(3) 0.38206(12)
H84 H 0.0385 0.6378 0.3920
H85 H 0.0280 0.5368 0.4012
C79 C 0.2845(4) 0.5171(3) 0.43118(11)
H86 H 0.2225 0.4852 0.4355
H87 H 0.2750 0.5793 0.4362
C80 C 0.3734(5) 0.4845(4) 0.45373(16)
H88 H 0.4048 0.5308 0.4699
H89 H 0.3537 0.4360 0.4682
C81 C 0.4445(5) 0.4554(4) 0.43260(17)
H90 H 0.4623 0.3938 0.4378
H91 H 0.5085 0.4902 0.4374
C82 C 0.3949(3) 0.4654(3) 0.39496(13)
H92 H 0.4383 0.5016 0.3820
H93 H 0.3851 0.4080 0.3833
C83 C 0.3718(3) 0.6991(3) 0.36270(13)
H94 H 0.4060 0.6499 0.3527
H95 H 0.4034 0.7062 0.3878
C84 C 0.3844(4) 0.7787(3) 0.34296(15)
H96 H 0.4380 0.7708 0.3279
H97 H 0.4048 0.8276 0.3594
C85 C 0.2819(3) 0.7962(2) 0.32059(11)
H98 H 0.2772 0.7694 0.2969
H99 H 0.2688 0.8593 0.3178
C86 C 0.2082(3) 0.7541(2) 0.34174(10)
H100 H 0.1872 0.7958 0.3589
H101 H 0.1458 0.7335 0.3259
C87 C 0.2862(4) 0.4405(3) 0.30324(11)
H102 H 0.2380 0.3925 0.3058
H103 H 0.3514 0.4300 0.3197
C88 C 0.3059(3) 0.4455(3) 0.26579(10)
H104 H 0.3766 0.4260 0.2643
H105 H 0.2563 0.4090 0.2500
C89 C 0.2923(4) 0.5383(3) 0.25596(11)
H106 H 0.3578 0.5708 0.2617
H107 H 0.2646 0.5454 0.2305
C90 C 0.2169(4) 0.5664(3) 0.27834(11)
H108 H 0.2213 0.6299 0.2823
H109 H 0.1460 0.5519 0.2669
C64? C -0.3078(9) 0.4597(6) 0.0464(3)
H62? H -0.3821 0.4478 0.0454
H63? H -0.2650 0.4126 0.0587
C65? C -0.2749(14) 0.4893(10) 0.0067(4)
H64? H -0.1991 0.4914 0.0084
H65? H -0.3030 0.4474 -0.0120
C66? C -0.3094(12) 0.5558(9) 0.0005(4)
H66? H -0.3704 0.5515 -0.0183
H67? H -0.2584 0.5944 -0.0079
C67? C -0.3481(7) 0.6017(5) 0.0425(2)
H68? H -0.3277 0.6627 0.0477
H69? H -0.4204 0.5906 0.0452
loop_
_geom_bond_atom_site_label_1
_geom_bond_atom_site_label_2
_geom_bond_site_symmetry_1
_geom_bond_site_symmetry_2
Si1 N1 1_555 1_555
Si2 N2 1_555 1_555
N1 Li1 1_555 1_555
N2 Li1 1_555 1_555
N3 Si1 1_555 1_555
Li1 O1 1_555 1_555
O1 C1 1_555 1_555
C1 H1 1_555 1_555
H2 C1 1_555 1_555
C2 C1 1_555 1_555
H3 C2 1_555 1_555
H4 C2 1_555 1_555
C3 C2 1_555 1_555
H5 C3 1_555 1_555
H6 C3 1_555 1_555
C4 O1 1_555 1_555
H7 C4 1_555 1_555
H8 C4 1_555 1_555
C5 N1 1_555 1_555
C6 C5 1_555 1_555
C7 H9 1_555 1_555
C8 C7 1_555 1_555
C9 C6 1_555 1_555
H10 C9 1_555 1_555
C10 C5 1_555 1_555
C11 C6 1_555 1_555
H11 C11 1_555 1_555
H12 C11 1_555 1_555
H13 C11 1_555 1_555
C12 C8 1_555 1_555
H14 C12 1_555 1_555
H15 C12 1_555 1_555
H16 C12 1_555 1_555
C13 C10 1_555 1_555
H17 C13 1_555 1_555
H18 C13 1_555 1_555
H19 C13 1_555 1_555
C14 N2 1_555 1_555
C15 C14 1_555 1_555
C16 C15 1_555 1_555
H20 C16 1_555 1_555
C17 C16 1_555 1_555
C18 C17 1_555 1_555
H21 C18 1_555 1_555
C19 C14 1_555 1_555
C20 C15 1_555 1_555
H22 C20 1_555 1_555
H23 C20 1_555 1_555
H24 C20 1_555 1_555
C21 C17 1_555 1_555
H25 C21 1_555 1_555
H26 C21 1_555 1_555
H27 C21 1_555 1_555
C22 C19 1_555 1_555
H28 C22 1_555 1_555
H29 C22 1_555 1_555
H30 C22 1_555 1_555
C23 N3 1_555 1_555
C24 C23 1_555 1_555
C25 C24 1_555 1_555
H31 C25 1_555 1_555
C26 C25 1_555 1_555
C27 C26 1_555 1_555
H32 C27 1_555 1_555
C28 C23 1_555 1_555
C29 C24 1_555 1_555
H33 C29 1_555 1_555
H34 C29 1_555 1_555
H35 C29 1_555 1_555
C30 C26 1_555 1_555
H36 C30 1_555 1_555
H37 C30 1_555 1_555
H38 C30 1_555 1_555
C31 C28 1_555 1_555
H39 C31 1_555 1_555
H40 C31 1_555 1_555
H41 C31 1_555 1_555
C32 Si1 1_555 1_555
C33 C32 1_555 1_555
C34 C33 1_555 1_555
C35 C34 1_555 1_555
H42 C35 1_555 1_555
C36 C35 1_555 1_555
H43 C36 1_555 1_555
C37 C36 1_555 1_555
H44 C37 1_555 1_555
C38 C37 1_555 1_555
H45 C38 1_555 1_555
C39 C34 1_555 1_555
H46 C39 1_555 1_555
C40 Si1 1_555 1_555
C41 C40 1_555 1_555
C42 C41 1_555 1_555
C43 C42 1_555 1_555
H47 C43 1_555 1_555
C44 C43 1_555 1_555
H48 C44 1_555 1_555
C45 C44 1_555 1_555
H49 C45 1_555 1_555
C46 C45 1_555 1_555
H50 C46 1_555 1_555
C47 C42 1_555 1_555
H51 C47 1_555 1_555
C48 Si2 1_555 1_555
C49 C48 1_555 1_555
C50 C49 1_555 1_555
C51 C50 1_555 1_555
H52 C51 1_555 1_555
C52 C51 1_555 1_555
H53 C52 1_555 1_555
C53 C52 1_555 1_555
H54 C53 1_555 1_555
C54 C53 1_555 1_555
H55 C54 1_555 1_555
C55 C50 1_555 1_555
H56 C55 1_555 1_555
C56 Si2 1_555 1_555
C57 C56 1_555 1_555
C58 C57 1_555 1_555
C59 C58 1_555 1_555
H57 C59 1_555 1_555
C60 C59 1_555 1_555
H58 C60 1_555 1_555
C61 C60 1_555 1_555
H59 C61 1_555 1_555
C62 C61 1_555 1_555
H60 C62 1_555 1_555
C63 C58 1_555 1_555
H61 C63 1_555 1_555
C68 C69 1_555 1_555
C69 H70 1_555 1_555
C70 C69 1_555 1_555
H71 C70 1_555 1_555
C71 C70 1_555 1_555
H72 C71 1_555 1_555
C72 C71 1_555 1_555
H73 C72 1_555 1_555
C73 C68 1_555 1_555
H74 C73 1_555 1_555
C74 C68 1_555 1_555
H75 C74 1_555 1_555
H76 C74 1_555 1_555
H77 C74 1_555 1_555
Li2 O2 1_555 1_555
O2 C75 1_555 1_555
O3 Li2 1_555 1_555
O4 Li2 1_555 1_555
O5 Li2 1_555 1_555
C75 H78 1_555 1_555
H79 C75 1_555 1_555
C76 C75 1_555 1_555
H80 C76 1_555 1_555
H81 C76 1_555 1_555
C77 C76 1_555 1_555
H82 C77 1_555 1_555
H83 C77 1_555 1_555
C78 O2 1_555 1_555
H84 C78 1_555 1_555
H85 C78 1_555 1_555
C79 O3 1_555 1_555
H86 C79 1_555 1_555
H87 C79 1_555 1_555
C80 C79 1_555 1_555
H88 C80 1_555 1_555
H89 C80 1_555 1_555
C81 C80 1_555 1_555
H90 C81 1_555 1_555
H91 C81 1_555 1_555
C82 O3 1_555 1_555
H92 C82 1_555 1_555
H93 C82 1_555 1_555
C83 O4 1_555 1_555
H94 C83 1_555 1_555
H95 C83 1_555 1_555
C84 C83 1_555 1_555
H96 C84 1_555 1_555
H97 C84 1_555 1_555
C85 C84 1_555 1_555
H98 C85 1_555 1_555
H99 C85 1_555 1_555
C86 O4 1_555 1_555
H100 C86 1_555 1_555
H101 C86 1_555 1_555
C87 O5 1_555 1_555
H102 C87 1_555 1_555
H103 C87 1_555 1_555
C88 C87 1_555 1_555
H104 C88 1_555 1_555
H105 C88 1_555 1_555
C89 C88 1_555 1_555
H106 C89 1_555 1_555
H107 C89 1_555 1_555
C90 O5 1_555 1_555
H108 C90 1_555 1_555
H109 C90 1_555 1_555
Si2 N3 1_555 1_555
C3 C4 1_555 1_555
C7 C10 1_555 1_555
C8 C9 1_555 1_555
C18 C19 1_555 1_555
C27 C28 1_555 1_555
C38 C39 1_555 1_555
C46 C47 1_555 1_555
C54 C55 1_555 1_555
C62 C63 1_555 1_555
C72 C73 1_555 1_555
C77 C78 1_555 1_555
C81 C82 1_555 1_555
C85 C86 1_555 1_555
C89 C90 1_555 1_555

#END
