
#######################################################################
#
#                 Cambridge Crystallographic Data Centre
#                                CCDC 
#
#######################################################################
#
# If this CIF has been generated from an entry in the Cambridge 
# Structural Database, then it will include bibliographic, chemical, 
# crystal, experimental, refinement or atomic coordinate data resulting 
# from the CCDC's data processing and validation procedures.
#
#######################################################################

data_FOLPIH
_chemical_formula_moiety         'C22 H16 Br2 O2'
_chemical_name_systematic        
5,8-bis(4-Bromophenyl)-4a,5,8,8a-tetrahydronaphthalene-1,4-dione
_symmetry_cell_setting           monoclinic
_symmetry_space_group_name_H-M   'P 21/c'
_symmetry_Int_Tables_number      14
_space_group_name_Hall           '-P 2ybc'
loop_
_symmetry_equiv_pos_site_id
_symmetry_equiv_pos_as_xyz
1 x,y,z
2 -x,1/2+y,1/2-z
3 -x,-y,-z
4 x,1/2-y,1/2+z
_cell_length_a                   12.845(1)
_cell_length_b                   6.7365(7)
_cell_length_c                   22.240(2)
_cell_angle_alpha                90
_cell_angle_beta                 101.173(2)
_cell_angle_gamma                90
_cell_volume                     1887.96
_exptl_crystal_colour            yellow
_exptl_crystal_description       block
_cell_formula_units_Z            4
loop_
_atom_site_label
_atom_site_type_symbol
_atom_site_fract_x
_atom_site_fract_y
_atom_site_fract_z
Br1 Br 0.45222(3) 0.11095(10) -0.216062(19)
Br2 Br 0.16913(3) -0.41222(6) 0.28779(2)
O1 O 0.0666(2) 0.5862(3) -0.08347(13)
O2 O 0.2242(2) -0.0685(3) 0.02436(11)
C1 C 0.1019(2) 0.4358(4) -0.05719(17)
C2 C 0.0780(3) 0.2413(5) -0.08690(17)
H1 H 0.0394 0.2362 -0.1268
C3 C 0.1102(3) 0.0744(4) -0.05830(16)
H2 H 0.0950 -0.0451 -0.0791
C4 C 0.1694(3) 0.0707(4) 0.00540(15)
C5 C 0.1531(2) 0.2518(4) 0.04218(14)
H3 H 0.0778 0.2524 0.0449
C6 C 0.2151(3) 0.2680(5) 0.10792(15)
H4 H 0.1842 0.3823 0.1254
C7 C 0.3287(3) 0.3259(5) 0.10860(15)
H5 H 0.3796 0.2944 0.1430
C8 C 0.3592(3) 0.4180(5) 0.06343(16)
H6 H 0.4306 0.4518 0.0689
C9 C 0.2902(2) 0.4745(4) 0.00357(16)
H7 H 0.2983 0.6183 -0.0004
C10 C 0.1710(2) 0.4384(4) 0.00542(15)
H8 H 0.1478 0.5518 0.0271
C11 C 0.3297(2) 0.3817(4) -0.05023(15)
C12 C 0.3177(3) 0.4818(5) -0.10549(17)
H9 H 0.2843 0.6049 -0.1094
C13 C 0.3540(3) 0.4035(6) -0.15470(18)
H10 H 0.3451 0.4723 -0.1916
C14 C 0.4031(2) 0.2235(6) -0.14855(15)
C15 C 0.4178(3) 0.1232(5) -0.09504(16)
H11 H 0.4522 0.0010 -0.0916
C16 C 0.3818(3) 0.2017(4) -0.04546(14)
H12 H 0.3928 0.1327 -0.0086
C17 C 0.2020(3) 0.0959(5) 0.14950(14)
C18 C 0.1247(3) 0.1010(5) 0.18540(16)
H13 H 0.0789 0.2092 0.1819
C19 C 0.1135(3) -0.0477(5) 0.22573(16)
H14 H 0.0612 -0.0405 0.2493
C20 C 0.1807(2) -0.2072(5) 0.23061(14)
C21 C 0.2567(3) -0.2205(5) 0.19563(15)
H15 H 0.3007 -0.3312 0.1986
C22 C 0.2678(3) -0.0689(5) 0.15596(15)
H16 H 0.3208 -0.0772 0.1329
loop_
_geom_bond_atom_site_label_1
_geom_bond_atom_site_label_2
_geom_bond_site_symmetry_1
_geom_bond_site_symmetry_2
Br1 C14 1_555 1_555
Br2 C20 1_555 1_555
O1 C1 1_555 1_555
O2 C4 1_555 1_555
C1 C2 1_555 1_555
C2 H1 1_555 1_555
C3 C2 1_555 1_555
H2 C3 1_555 1_555
C4 C3 1_555 1_555
C5 C4 1_555 1_555
H3 C5 1_555 1_555
C6 C5 1_555 1_555
H4 C6 1_555 1_555
C7 C6 1_555 1_555
H5 C7 1_555 1_555
C8 C7 1_555 1_555
H6 C8 1_555 1_555
C9 C8 1_555 1_555
H7 C9 1_555 1_555
C10 C1 1_555 1_555
H8 C10 1_555 1_555
C11 C9 1_555 1_555
C12 C11 1_555 1_555
H9 C12 1_555 1_555
C13 C12 1_555 1_555
H10 C13 1_555 1_555
C14 C13 1_555 1_555
C15 C14 1_555 1_555
H11 C15 1_555 1_555
C16 C11 1_555 1_555
H12 C16 1_555 1_555
C17 C6 1_555 1_555
C18 C17 1_555 1_555
H13 C18 1_555 1_555
C19 C18 1_555 1_555
H14 C19 1_555 1_555
C20 C19 1_555 1_555
C21 C20 1_555 1_555
H15 C21 1_555 1_555
C22 C17 1_555 1_555
H16 C22 1_555 1_555
C5 C10 1_555 1_555
C9 C10 1_555 1_555
C15 C16 1_555 1_555
C21 C22 1_555 1_555

#END
