
#######################################################################
#
#                 Cambridge Crystallographic Data Centre
#                                CCDC 
#
#######################################################################
#
# If this CIF has been generated from an entry in the Cambridge 
# Structural Database, then it will include bibliographic, chemical, 
# crystal, experimental, refinement or atomic coordinate data resulting 
# from the CCDC's data processing and validation procedures.
#
#######################################################################

data_FOLPUT
_chemical_name_common            
1$5!,1$8!,4$5!,4$8!-Tetramethoxy-1,4(1,4)-di(1,4-dihydronaphthalena)-2,3,5,6(1,4)-tetrabenzenacyclohexaphane
_chemical_formula_moiety         'C48 H40 O4,0.5(C6 H14)'
_chemical_name_systematic        
'12,15,28,31-Tetramethoxynonacyclo[24.6.2.2^2,5^.2^6,9^.2^10,17^.2^18,21^.2^22,25^.0^11,16^.0^27,32^]tetratetraconta-2,4,6,8,11,13,15,18,20,22,24,27,29,31,33,35,37,39,41,43-icosaene n-hexane solvate'
_symmetry_cell_setting           monoclinic
_symmetry_space_group_name_H-M   'P 21/n'
_symmetry_Int_Tables_number      14
_space_group_name_Hall           '-P 2yn'
loop_
_symmetry_equiv_pos_site_id
_symmetry_equiv_pos_as_xyz
1 x,y,z
2 1/2-x,1/2+y,1/2-z
3 -x,-y,-z
4 1/2+x,1/2-y,1/2+z
_cell_length_a                   15.9298(11)
_cell_length_b                   30.8837(19)
_cell_length_c                   23.5589(15)
_cell_angle_alpha                90
_cell_angle_beta                 90.976(1)
_cell_angle_gamma                90
_cell_volume                     11588.6
_exptl_crystal_colour            colorless
_exptl_crystal_description       parallelepiped
_cell_formula_units_Z            12
loop_
_atom_site_label
_atom_site_type_symbol
_atom_site_fract_x
_atom_site_fract_y
_atom_site_fract_z
O5 O 0.69468(16) 0.24483(8) 0.44988(12)
O6 O 0.60174(16) 0.34028(9) 0.26040(12)
O7 O 1.37353(16) 0.36869(10) 0.48715(13)
O8 O 1.30337(15) 0.42767(7) 0.27029(11)
C49 C 0.6714(2) 0.26611(13) 0.40068(18)
C50 C 0.6592(2) 0.24666(13) 0.3483(2)
H41 H 0.6666 0.2169 0.3450
C51 C 0.6366(2) 0.27013(16) 0.30149(19)
H42 H 0.6288 0.2562 0.2668
C52 C 0.6255(2) 0.31399(15) 0.30507(17)
C53 C 0.63812(19) 0.33484(11) 0.35738(16)
C54 C 0.66031(19) 0.31113(12) 0.40489(14)
C55 C 0.63097(19) 0.38367(11) 0.36239(14)
H43 H 0.5922 0.3940 0.3327
C56 C 0.5953(2) 0.39513(12) 0.41927(16)
H44 H 0.5591 0.4186 0.4222
C57 C 0.61455(19) 0.37232(11) 0.46465(15)
H45 H 0.5922 0.3801 0.4994
C58 C 0.67212(18) 0.33393(10) 0.46134(13)
H46 H 0.6561 0.3136 0.4912
C59 C 0.76351(18) 0.34753(9) 0.47323(12)
C60 C 0.78417(19) 0.37747(9) 0.51513(12)
H47 H 0.7421 0.3884 0.5380
C61 C 0.8657(2) 0.39138(9) 0.52353(12)
H48 H 0.8773 0.4117 0.5517
C62 C 0.93084(18) 0.37577(8) 0.49098(11)
C63 C 0.90989(19) 0.34493(9) 0.45055(12)
H49 H 0.9521 0.3330 0.4286
C64 C 0.82883(19) 0.33143(9) 0.44190(12)
H50 H 0.8175 0.3108 0.4141
C65 C 1.01786(18) 0.39222(9) 0.49488(11)
C66 C 1.03532(19) 0.43605(9) 0.50010(11)
H51 H 0.9918 0.4553 0.5070
C67 C 1.1162(2) 0.45150(9) 0.49528(11)
H52 H 1.1256 0.4811 0.4987
C68 C 1.18315(19) 0.42465(10) 0.48564(12)
C69 C 1.1673(2) 0.38032(9) 0.48442(12)
H53 H 1.2117 0.3611 0.4805
C70 C 1.0861(2) 0.36445(9) 0.48895(12)
H54 H 1.0771 0.3347 0.4880
C71 C 1.27107(19) 0.44172(10) 0.47432(13)
H55 H 1.3067 0.4360 0.5078
C72 C 1.2727(2) 0.48945(11) 0.46239(17)
H56 H 1.2831 0.5087 0.4921
C73 C 1.2598(2) 0.50457(10) 0.41087(17)
H57 H 1.2615 0.5343 0.4047
C74 C 1.24222(19) 0.47445(9) 0.36139(13)
H58 H 1.2616 0.4887 0.3268
C75 C 1.29189(19) 0.43355(10) 0.36928(17)
C76 C 1.3084(2) 0.41821(11) 0.42349(16)
C77 C 1.3593(2) 0.38104(12) 0.4319(2)
C78 C 1.3908(2) 0.35976(12) 0.3854(2)
H59 H 1.4243 0.3354 0.3904
C79 C 1.3727(2) 0.37468(12) 0.3316(2)
H60 H 1.3936 0.3600 0.3004
C80 C 1.3238(2) 0.41113(11) 0.32299(17)
C81 C 1.14682(19) 0.46574(9) 0.35407(12)
C82 C 1.1177(2) 0.42556(9) 0.33858(13)
H61 H 1.1559 0.4036 0.3309
C83 C 1.0332(2) 0.41718(9) 0.33426(13)
H62 H 1.0155 0.3897 0.3231
C84 C 0.9733(2) 0.44827(8) 0.34594(11)
C85 C 1.0028(2) 0.48873(9) 0.36097(12)
H63 H 0.9647 0.5108 0.3685
C86 C 1.0878(2) 0.49708(9) 0.36504(12)
H64 H 1.1057 0.5247 0.3755
C87 C 0.88260(19) 0.43662(9) 0.34487(12)
C88 C 0.8498(2) 0.40635(9) 0.30645(12)
H65 H 0.8833 0.3963 0.2773
C89 C 0.7690(2) 0.39096(10) 0.31058(13)
H66 H 0.7490 0.3709 0.2841
C90 C 0.7169(2) 0.40479(9) 0.35340(13)
C91 C 0.7470(2) 0.43690(10) 0.38902(13)
H67 H 0.7119 0.4484 0.4164
C92 C 0.8282(2) 0.45251(9) 0.38508(13)
H68 H 0.8466 0.4741 0.4099
C93 C 0.7218(3) 0.20096(12) 0.44510(19)
H69 H 0.6751 0.1831 0.4340
H70 H 0.7440 0.1913 0.4811
H71 H 0.7647 0.1990 0.4170
C94 C 0.6030(3) 0.32206(17) 0.20369(16)
H72 H 0.6586 0.3121 0.1957
H73 H 0.5867 0.3438 0.1766
H74 H 0.5645 0.2982 0.2013
C95 C 1.4115(2) 0.32815(14) 0.49813(19)
H75 H 1.3744 0.3054 0.4857
H76 H 1.4225 0.3252 0.5381
H77 H 1.4633 0.3262 0.4781
C96 C 1.3241(3) 0.40323(14) 0.22118(16)
H78 H 1.3841 0.4018 0.2179
H79 H 1.3004 0.4169 0.1880
H80 H 1.3019 0.3745 0.2245
O9 O 0.41669(16) 0.23394(8) 0.24849(15)
O10 O 0.40405(19) 0.11252(12) 0.42040(14)
O11 O 1.12278(14) 0.13051(7) 0.13058(10)
O12 O 1.13005(15) 0.03362(8) 0.32766(13)
C97 C 0.4137(2) 0.20607(13) 0.2947(2)
C98 C 0.4065(3) 0.21920(18) 0.3502(3)
H81 H 0.4036 0.2485 0.3590
C99 C 0.4036(3) 0.1889(2) 0.3922(2)
H82 H 0.3975 0.1980 0.4295
C100 C 0.4095(2) 0.14544(17) 0.3811(2)
C101 C 0.4179(2) 0.13185(13) 0.32466(18)
C102 C 0.41928(19) 0.16229(12) 0.28150(17)
C103 C 0.42365(18) 0.08447(10) 0.30989(14)
H83 H 0.3945 0.0681 0.3392
C104 C 0.37958(18) 0.07611(11) 0.25430(15)
H84 H 0.3508 0.0502 0.2486
C105 C 0.38136(18) 0.10507(10) 0.21367(15)
H85 H 0.3534 0.0993 0.1795
C106 C 0.42760(18) 0.14772(9) 0.22061(14)
H86 H 0.4006 0.1693 0.1958
C107 C 0.51864(18) 0.14190(8) 0.20217(13)
C108 C 0.5860(2) 0.15419(8) 0.23615(13)
H87 H 0.5762 0.1694 0.2695
C109 C 0.66764(19) 0.14437(9) 0.22175(12)
H88 H 0.7117 0.1534 0.2453
C110 C 0.68479(18) 0.12132(8) 0.17274(12)
C111 C 0.61748(19) 0.11111(8) 0.13713(12)
H89 H 0.6272 0.0972 0.1029
C112 C 0.5365(2) 0.12118(9) 0.15161(13)
H90 H 0.4927 0.1139 0.1268
C113 C 0.77048(18) 0.10679(9) 0.15980(11)
C114 C 0.84152(19) 0.13135(9) 0.17166(12)
H91 H 0.8352 0.1591 0.1863
C115 C 0.92076(19) 0.11582(9) 0.16242(12)
H92 H 0.9667 0.1334 0.1708
C116 C 0.93453(18) 0.07474(9) 0.14101(12)
C117 C 0.8635(2) 0.05025(9) 0.12792(12)
H93 H 0.8699 0.0227 0.1127
C118 C 0.78375(19) 0.06600(9) 0.13697(13)
H94 H 0.7377 0.0488 0.1275
C119 C 1.02305(18) 0.05620(9) 0.13567(14)
H95 H 1.0470 0.0670 0.1004
C120 C 1.02206(19) 0.00788(11) 0.13341(17)
H96 H 1.0204 -0.0060 0.0984
C121 C 1.02353(19) -0.01550(11) 0.18027(18)
H97 H 1.0207 -0.0455 0.1777
C122 C 1.02979(19) 0.00567(10) 0.23843(15)
H98 H 1.0591 -0.0144 0.2642
C123 C 1.08141(19) 0.04640(10) 0.23449(17)
C124 C 1.07878(18) 0.07070(10) 0.18479(15)
C125 C 1.12709(19) 0.10860(11) 0.18175(16)
C126 C 1.1741(2) 0.12173(10) 0.22763(18)
H99 H 1.2051 0.1472 0.2254
C127 C 1.1763(2) 0.09775(12) 0.27759(16)
H100 H 1.2083 0.1071 0.3086
C128 C 1.1311(2) 0.06049(11) 0.28059(17)
C129 C 0.94208(19) 0.01409(9) 0.26196(13)
C130 C 0.9198(2) 0.05215(10) 0.28799(14)
H101 H 0.9608 0.0728 0.2957
C131 C 0.8384(2) 0.06028(10) 0.30277(13)
H102 H 0.8259 0.0866 0.3199
C132 C 0.77485(19) 0.03123(9) 0.29321(12)
C133 C 0.7978(2) -0.00838(9) 0.27028(13)
H103 H 0.7571 -0.0297 0.2651
C134 C 0.8794(2) -0.01688(9) 0.25498(13)
H104 H 0.8927 -0.0438 0.2398
C135 C 0.68493(19) 0.04237(9) 0.30156(12)
C136 C 0.6574(2) 0.06813(10) 0.34567(13)
H105 H 0.6958 0.0771 0.3734
C137 C 0.5750(2) 0.08069(10) 0.34947(14)
H106 H 0.5587 0.0977 0.3799
C138 C 0.51557(19) 0.06843(9) 0.30878(13)
C139 C 0.54258(19) 0.04203(9) 0.26616(13)
H107 H 0.5039 0.0325 0.2389
C140 C 0.6244(2) 0.02921(9) 0.26217(12)
H108 H 0.6399 0.0113 0.2324
C141 C 0.4073(2) 0.27921(11) 0.2598(2)
H109 H 0.3527 0.2845 0.2749
H110 H 0.4133 0.2952 0.2251
H111 H 0.4496 0.2883 0.2868
C142 C 0.3989(4) 0.12360(19) 0.47869(19)
H112 H 0.4532 0.1324 0.4927
H113 H 0.3802 0.0989 0.4998
H114 H 0.3598 0.1470 0.4830
C143 C 1.1609(2) 0.17174(10) 0.12860(15)
H115 H 1.1411 0.1892 0.1594
H116 H 1.1468 0.1855 0.0932
H117 H 1.2207 0.1686 0.1319
C144 C 1.1735(3) 0.04731(14) 0.37592(19)
H118 H 1.2291 0.0560 0.3659
H119 H 1.1766 0.0240 0.4029
H120 H 1.1446 0.0714 0.3924
O1 O 0.2979(2) 0.13163(8) 0.61449(10)
O2 O 0.6197(2) 0.07356(8) 0.65533(13)
O3 O 0.3865(2) 0.27839(9) 1.05798(11)
O4 O 0.72827(17) 0.25394(7) 1.07506(10)
C1 C 0.3761(3) 0.11455(13) 0.62557(14)
C2 C 0.3895(3) 0.07187(13) 0.64027(15)
H1 H 0.3446 0.0528 0.6431
C3 C 0.4707(3) 0.05769(12) 0.65079(16)
H2 H 0.4802 0.0291 0.6617
C4 C 0.5368(3) 0.08532(13) 0.64531(17)
C5 C 0.5249(3) 0.12865(11) 0.63034(14)
C6 C 0.4436(3) 0.14325(11) 0.62116(13)
C7 C 0.5987(2) 0.15852(11) 0.62392(15)
H3 H 0.6462 0.1413 0.6107
C8 C 0.5791(3) 0.19237(12) 0.57938(16)
H4 H 0.6219 0.2031 0.5570
C9 C 0.5024(3) 0.20674(12) 0.57197(15)
H5 H 0.4917 0.2272 0.5438
C10 C 0.4306(2) 0.19092(10) 0.60798(14)
H6 H 0.3780 0.1942 0.5861
C11 C 0.4238(2) 0.21695(10) 0.66309(14)
C12 C 0.3733(2) 0.20303(10) 0.70648(15)
H7 H 0.3394 0.1788 0.7010
C13 C 0.3723(2) 0.22453(10) 0.75802(14)
H8 H 0.3379 0.2143 0.7866
C14 C 0.42096(19) 0.26081(10) 0.76823(14)
C15 C 0.4671(2) 0.27605(9) 0.72362(15)
H9 H 0.4981 0.3013 0.7282
C16 C 0.4684(2) 0.25451(10) 0.67179(15)
H10 H 0.5000 0.2657 0.6425
C17 C 0.42979(18) 0.28007(10) 0.82517(13)
C18 C 0.4305(2) 0.32433(10) 0.83586(15)
H11 H 0.4195 0.3435 0.8062
C19 C 0.4473(2) 0.34040(10) 0.88941(16)
H12 H 0.4469 0.3702 0.8952
C20 C 0.4649(2) 0.31311(10) 0.93480(14)
C21 C 0.4618(2) 0.26923(10) 0.92466(14)
H13 H 0.4720 0.2501 0.9545
C22 C 0.4439(2) 0.25307(9) 0.87112(15)
H14 H 0.4412 0.2233 0.8659
C23 C 0.4892(2) 0.33150(10) 0.99341(15)
H15 H 0.4383 0.3433 1.0104
C24 C 0.5515(3) 0.36787(12) 0.98816(16)
H16 H 0.5322 0.3961 0.9831
C25 C 0.6324(3) 0.36036(11) 0.99063(16)
H17 H 0.6691 0.3836 0.9872
C26 C 0.6687(2) 0.31517(10) 0.99880(15)
H18 H 0.7238 0.3175 1.0177
C27 C 0.6105(3) 0.29003(10) 1.03615(14)
C28 C 0.5245(3) 0.29684(10) 1.03347(15)
C29 C 0.4718(3) 0.27136(12) 1.06587(16)
C30 C 0.5042(3) 0.23994(11) 1.10128(15)
H19 H 0.4682 0.2228 1.1224
C31 C 0.5893(3) 0.23376(11) 1.10550(15)
H20 H 0.6111 0.2128 1.1299
C32 C 0.6420(3) 0.25842(10) 1.07375(15)
C33 C 0.67862(19) 0.29186(10) 0.94164(16)
C34 C 0.6938(2) 0.24762(11) 0.93956(16)
H21 H 0.7046 0.2327 0.9732
C35 C 0.6931(2) 0.22513(11) 0.88869(16)
H22 H 0.7026 0.1954 0.8890
C36 C 0.67857(19) 0.24585(10) 0.83744(16)
C37 C 0.6688(2) 0.29032(11) 0.83980(17)
H23 H 0.6618 0.3056 0.8060
C38 C 0.6691(2) 0.31267(11) 0.88980(17)
H24 H 0.6627 0.3426 0.8891
C39 C 0.66628(19) 0.22228(10) 0.78403(15)
C40 C 0.6157(2) 0.18558(10) 0.78215(16)
H25 H 0.5948 0.1745 0.8158
C41 C 0.5957(2) 0.16508(10) 0.73138(16)
H26 H 0.5613 0.1407 0.7319
C42 C 0.6248(2) 0.17951(10) 0.68053(16)
C43 C 0.6777(2) 0.21488(12) 0.68229(17)
H27 H 0.7005 0.2249 0.6486
C44 C 0.6980(2) 0.23598(11) 0.73244(18)
H28 H 0.7336 0.2598 0.7316
C45 C 0.2273(3) 0.10390(14) 0.61793(18)
H29 H 0.2352 0.0793 0.5938
H30 H 0.1777 0.1193 0.6059
H31 H 0.2211 0.0944 0.6564
C46 C 0.6342(3) 0.03195(13) 0.6801(2)
H32 H 0.6027 0.0294 0.7144
H33 H 0.6929 0.0287 0.6888
H34 H 0.6167 0.0098 0.6539
C47 C 0.3321(3) 0.24381(15) 1.07323(18)
H35 H 0.3499 0.2176 1.0551
H36 H 0.2757 0.2506 1.0612
H37 H 0.3340 0.2400 1.1137
C48 C 0.7621(2) 0.21872(11) 1.10662(16)
H38 H 0.7510 0.2228 1.1462
H39 H 0.8217 0.2173 1.1012
H40 H 0.7366 0.1922 1.0938
loop_
_geom_bond_atom_site_label_1
_geom_bond_atom_site_label_2
_geom_bond_site_symmetry_1
_geom_bond_site_symmetry_2
O1 C1 1_555 1_555
O2 C4 1_555 1_555
O3 C29 1_555 1_555
O4 C32 1_555 1_555
C1 C2 1_555 1_555
C2 H1 1_555 1_555
C3 C2 1_555 1_555
H2 C3 1_555 1_555
C4 C3 1_555 1_555
C5 C4 1_555 1_555
C6 C1 1_555 1_555
C7 C5 1_555 1_555
H3 C7 1_555 1_555
C8 C7 1_555 1_555
H4 C8 1_555 1_555
C9 C8 1_555 1_555
H5 C9 1_555 1_555
C10 C6 1_555 1_555
H6 C10 1_555 1_555
C11 C10 1_555 1_555
C12 C11 1_555 1_555
H7 C12 1_555 1_555
C13 C12 1_555 1_555
H8 C13 1_555 1_555
C14 C13 1_555 1_555
C15 C14 1_555 1_555
H9 C15 1_555 1_555
C16 C11 1_555 1_555
H10 C16 1_555 1_555
C17 C14 1_555 1_555
C18 C17 1_555 1_555
H11 C18 1_555 1_555
C19 C18 1_555 1_555
H12 C19 1_555 1_555
C20 C19 1_555 1_555
C21 C20 1_555 1_555
H13 C21 1_555 1_555
C22 C17 1_555 1_555
H14 C22 1_555 1_555
C23 C20 1_555 1_555
H15 C23 1_555 1_555
C24 C23 1_555 1_555
H16 C24 1_555 1_555
C25 C24 1_555 1_555
H17 C25 1_555 1_555
C26 C25 1_555 1_555
H18 C26 1_555 1_555
C27 C26 1_555 1_555
C28 C23 1_555 1_555
C29 C28 1_555 1_555
C30 C29 1_555 1_555
H19 C30 1_555 1_555
C31 C30 1_555 1_555
H20 C31 1_555 1_555
C32 C27 1_555 1_555
C33 C26 1_555 1_555
C34 C33 1_555 1_555
H21 C34 1_555 1_555
C35 C34 1_555 1_555
H22 C35 1_555 1_555
C36 C35 1_555 1_555
C37 C36 1_555 1_555
H23 C37 1_555 1_555
C38 C33 1_555 1_555
H24 C38 1_555 1_555
C39 C36 1_555 1_555
C40 C39 1_555 1_555
H25 C40 1_555 1_555
C41 C40 1_555 1_555
H26 C41 1_555 1_555
C42 C7 1_555 1_555
C43 C42 1_555 1_555
H27 C43 1_555 1_555
C44 C39 1_555 1_555
H28 C44 1_555 1_555
C45 O1 1_555 1_555
H29 C45 1_555 1_555
H30 C45 1_555 1_555
H31 C45 1_555 1_555
C46 O2 1_555 1_555
H32 C46 1_555 1_555
H33 C46 1_555 1_555
H34 C46 1_555 1_555
C47 O3 1_555 1_555
H35 C47 1_555 1_555
H36 C47 1_555 1_555
H37 C47 1_555 1_555
C48 O4 1_555 1_555
H38 C48 1_555 1_555
H39 C48 1_555 1_555
H40 C48 1_555 1_555
O5 C49 1_555 1_555
O6 C52 1_555 1_555
O7 C77 1_555 1_555
O8 C80 1_555 1_555
C49 C50 1_555 1_555
C50 H41 1_555 1_555
C51 C50 1_555 1_555
H42 C51 1_555 1_555
C52 C51 1_555 1_555
C53 C52 1_555 1_555
C54 C49 1_555 1_555
C55 C53 1_555 1_555
H43 C55 1_555 1_555
C56 C55 1_555 1_555
H44 C56 1_555 1_555
C57 C56 1_555 1_555
H45 C57 1_555 1_555
C58 C54 1_555 1_555
H46 C58 1_555 1_555
C59 C58 1_555 1_555
C60 C59 1_555 1_555
H47 C60 1_555 1_555
C61 C60 1_555 1_555
H48 C61 1_555 1_555
C62 C61 1_555 1_555
C63 C62 1_555 1_555
H49 C63 1_555 1_555
C64 C59 1_555 1_555
H50 C64 1_555 1_555
C65 C62 1_555 1_555
C66 C65 1_555 1_555
H51 C66 1_555 1_555
C67 C66 1_555 1_555
H52 C67 1_555 1_555
C68 C67 1_555 1_555
C69 C68 1_555 1_555
H53 C69 1_555 1_555
C70 C65 1_555 1_555
H54 C70 1_555 1_555
C71 C68 1_555 1_555
H55 C71 1_555 1_555
C72 C71 1_555 1_555
H56 C72 1_555 1_555
C73 C72 1_555 1_555
H57 C73 1_555 1_555
C74 C73 1_555 1_555
H58 C74 1_555 1_555
C75 C74 1_555 1_555
C76 C71 1_555 1_555
C77 C76 1_555 1_555
C78 C77 1_555 1_555
H59 C78 1_555 1_555
C79 C78 1_555 1_555
H60 C79 1_555 1_555
C80 C75 1_555 1_555
C81 C74 1_555 1_555
C82 C81 1_555 1_555
H61 C82 1_555 1_555
C83 C82 1_555 1_555
H62 C83 1_555 1_555
C84 C83 1_555 1_555
C85 C84 1_555 1_555
H63 C85 1_555 1_555
C86 C81 1_555 1_555
H64 C86 1_555 1_555
C87 C84 1_555 1_555
C88 C87 1_555 1_555
H65 C88 1_555 1_555
C89 C88 1_555 1_555
H66 C89 1_555 1_555
C90 C55 1_555 1_555
C91 C90 1_555 1_555
H67 C91 1_555 1_555
C92 C87 1_555 1_555
H68 C92 1_555 1_555
C93 O5 1_555 1_555
H69 C93 1_555 1_555
H70 C93 1_555 1_555
H71 C93 1_555 1_555
C94 O6 1_555 1_555
H72 C94 1_555 1_555
H73 C94 1_555 1_555
H74 C94 1_555 1_555
C95 O7 1_555 1_555
H75 C95 1_555 1_555
H76 C95 1_555 1_555
H77 C95 1_555 1_555
C96 O8 1_555 1_555
H78 C96 1_555 1_555
H79 C96 1_555 1_555
H80 C96 1_555 1_555
O9 C97 1_555 1_555
O10 C100 1_555 1_555
O11 C125 1_555 1_555
O12 C128 1_555 1_555
C97 C98 1_555 1_555
C98 H81 1_555 1_555
C99 C98 1_555 1_555
H82 C99 1_555 1_555
C100 C99 1_555 1_555
C101 C100 1_555 1_555
C102 C97 1_555 1_555
C103 C101 1_555 1_555
H83 C103 1_555 1_555
C104 C103 1_555 1_555
H84 C104 1_555 1_555
C105 C104 1_555 1_555
H85 C105 1_555 1_555
C106 C102 1_555 1_555
H86 C106 1_555 1_555
C107 C106 1_555 1_555
C108 C107 1_555 1_555
H87 C108 1_555 1_555
C109 C108 1_555 1_555
H88 C109 1_555 1_555
C110 C109 1_555 1_555
C111 C110 1_555 1_555
H89 C111 1_555 1_555
C112 C107 1_555 1_555
H90 C112 1_555 1_555
C113 C110 1_555 1_555
C114 C113 1_555 1_555
H91 C114 1_555 1_555
C115 C114 1_555 1_555
H92 C115 1_555 1_555
C116 C115 1_555 1_555
C117 C116 1_555 1_555
H93 C117 1_555 1_555
C118 C113 1_555 1_555
H94 C118 1_555 1_555
C119 C116 1_555 1_555
H95 C119 1_555 1_555
C120 C119 1_555 1_555
H96 C120 1_555 1_555
C121 C120 1_555 1_555
H97 C121 1_555 1_555
C122 C121 1_555 1_555
H98 C122 1_555 1_555
C123 C122 1_555 1_555
C124 C119 1_555 1_555
C125 C124 1_555 1_555
C126 C125 1_555 1_555
H99 C126 1_555 1_555
C127 C126 1_555 1_555
H100 C127 1_555 1_555
C128 C123 1_555 1_555
C129 C122 1_555 1_555
C130 C129 1_555 1_555
H101 C130 1_555 1_555
C131 C130 1_555 1_555
H102 C131 1_555 1_555
C132 C131 1_555 1_555
C133 C132 1_555 1_555
H103 C133 1_555 1_555
C134 C129 1_555 1_555
H104 C134 1_555 1_555
C135 C132 1_555 1_555
C136 C135 1_555 1_555
H105 C136 1_555 1_555
C137 C136 1_555 1_555
H106 C137 1_555 1_555
C138 C103 1_555 1_555
C139 C138 1_555 1_555
H107 C139 1_555 1_555
C140 C135 1_555 1_555
H108 C140 1_555 1_555
C141 O9 1_555 1_555
H109 C141 1_555 1_555
H110 C141 1_555 1_555
H111 C141 1_555 1_555
C142 O10 1_555 1_555
H112 C142 1_555 1_555
H113 C142 1_555 1_555
H114 C142 1_555 1_555
C143 O11 1_555 1_555
H115 C143 1_555 1_555
H116 C143 1_555 1_555
H117 C143 1_555 1_555
C144 O12 1_555 1_555
H118 C144 1_555 1_555
H119 C144 1_555 1_555
H120 C144 1_555 1_555
C5 C6 1_555 1_555
C9 C10 1_555 1_555
C15 C16 1_555 1_555
C21 C22 1_555 1_555
C27 C28 1_555 1_555
C31 C32 1_555 1_555
C37 C38 1_555 1_555
C41 C42 1_555 1_555
C43 C44 1_555 1_555
C53 C54 1_555 1_555
C57 C58 1_555 1_555
C63 C64 1_555 1_555
C69 C70 1_555 1_555
C75 C76 1_555 1_555
C79 C80 1_555 1_555
C85 C86 1_555 1_555
C89 C90 1_555 1_555
C91 C92 1_555 1_555
C101 C102 1_555 1_555
C105 C106 1_555 1_555
C111 C112 1_555 1_555
C117 C118 1_555 1_555
C123 C124 1_555 1_555
C127 C128 1_555 1_555
C133 C134 1_555 1_555
C137 C138 1_555 1_555
C139 C140 1_555 1_555

#END
