
#######################################################################
#
#                 Cambridge Crystallographic Data Centre
#                                CCDC 
#
#######################################################################
#
# If this CIF has been generated from an entry in the Cambridge 
# Structural Database, then it will include bibliographic, chemical, 
# crystal, experimental, refinement or atomic coordinate data resulting 
# from the CCDC's data processing and validation procedures.
#
#######################################################################

data_FOLRIH
_chemical_formula_moiety         'C17 H24 O5'
_chemical_name_systematic        
(3aR*,6R*,6aS*,9aR*,9bS*)-(+-)-Decahydro-9a-methoxycarbonyl-6,8,8-trimethyl-9-oxo-azuleno[4,5-c]furan-1(3H)-one
_symmetry_cell_setting           monoclinic
_symmetry_space_group_name_H-M   'P 21/n'
_symmetry_Int_Tables_number      14
_space_group_name_Hall           '-P 2yn'
loop_
_symmetry_equiv_pos_site_id
_symmetry_equiv_pos_as_xyz
1 x,y,z
2 1/2-x,1/2+y,1/2-z
3 -x,-y,-z
4 1/2+x,1/2-y,1/2+z
_cell_length_a                   9.676(2)
_cell_length_b                   16.569(4)
_cell_length_c                   10.682(2)
_cell_angle_alpha                90
_cell_angle_beta                 109.47(2)
_cell_angle_gamma                90
_cell_volume                     1614.63
_exptl_crystal_colour            colorless
_exptl_crystal_description       plate
_chemical_melting_point          171-172deg.C
_cell_formula_units_Z            4
_exptl_crystal_recrystallization_method acetone/pentane
loop_
_atom_site_label
_atom_site_type_symbol
_atom_site_fract_x
_atom_site_fract_y
_atom_site_fract_z
O1 O 0.08192(19) 0.30937(10) -0.24247(16)
C1 C 0.03117(23) 0.25908(14) -0.32537(21)
O2 O 0.03710(17) 0.26605(11) -0.44942(15)
C2 C -0.04618(26) 0.20203(16) -0.53250(20)
H1 H -0.14372(26) 0.22000(16) -0.58093(20)
H2 H 0.00091(26) 0.18412(16) -0.59370(20)
C3 C -0.17667(28) 0.07529(15) -0.49395(22)
H3 H -0.16274(28) 0.04752(15) -0.56772(22)
H4 H -0.26664(28) 0.10529(15) -0.52400(22)
C4 C -0.18875(28) 0.01264(14) -0.39349(22)
H5 H -0.25267(28) -0.03004(14) -0.43953(22)
H6 H -0.09250(28) -0.00873(14) -0.34955(22)
C5 C -0.24695(23) 0.04631(13) -0.28625(21)
H7 H -0.31339(23) 0.08743(13) -0.33441(21)
C6 C -0.21459(21) 0.15310(13) -0.10838(20)
H8 H -0.26910(21) 0.12730(13) -0.05920(20)
H9 H -0.28007(21) 0.18410(13) -0.17951(20)
C7 C -0.09736(21) 0.20816(12) -0.01703(18)
C8 C 0.03702(21) 0.19159(12) -0.05753(18)
O3 O 0.15994(16) 0.21046(10) 0.00677(15)
C9 C -0.00510(19) 0.13656(11) -0.18380(17)
C10 C -0.05329(21) 0.18344(12) -0.31678(17)
H10 H -0.15042(21) 0.19687(12) -0.31851(17)
C11 C -0.05147(24) 0.13468(14) -0.43811(19)
H11 H 0.03038(24) 0.09831(14) -0.41615(19)
C12 C -0.13592(20) 0.08965(12) -0.16588(19)
H12 H -0.09501(20) 0.04384(12) -0.11104(19)
C13 C 0.12955(21) 0.08448(13) -0.16632(19)
O4 O 0.14648(18) 0.01754(10) -0.12144(18)
O5 O 0.23092(15) 0.12404(9) -0.20116(15)
C14 C 0.36860(24) 0.08297(18) -0.17793(28)
H13 H 0.43487(24) 0.11611(18) -0.20517(28)
H14 H 0.35038(24) 0.03374(18) -0.22819(28)
H15 H 0.41124(24) 0.07072(18) -0.08513(28)
C15 C -0.32242(28) -0.02049(15) -0.23323(28)
H16 H -0.39266(28) -0.04825(15) -0.30566(28)
H17 H -0.37135(28) 0.00324(15) -0.17746(28)
H18 H -0.24984(28) -0.05806(15) -0.18236(28)
C16 C -0.06057(27) 0.18560(16) 0.12912(20)
H19 H -0.14357(27) 0.19585(16) 0.15698(20)
H20 H 0.02134(27) 0.21712(16) 0.18199(20)
H21 H -0.03590(27) 0.12932(16) 0.14018(20)
C17 C -0.13528(28) 0.29772(14) -0.03632(27)
H22 H -0.21957(28) 0.30854(14) -0.01065(27)
H23 H -0.15670(28) 0.31139(14) -0.12818(27)
H24 H -0.05403(28) 0.32948(14) 0.01711(27)
loop_
_geom_bond_atom_site_label_1
_geom_bond_atom_site_label_2
_geom_bond_site_symmetry_1
_geom_bond_site_symmetry_2
O1 C1 1_555 1_555
C1 O2 1_555 1_555
O2 C2 1_555 1_555
C2 H1 1_555 1_555
H2 C2 1_555 1_555
C3 H3 1_555 1_555
H4 C3 1_555 1_555
C4 C3 1_555 1_555
H5 C4 1_555 1_555
H6 C4 1_555 1_555
C5 C4 1_555 1_555
H7 C5 1_555 1_555
C6 H8 1_555 1_555
H9 C6 1_555 1_555
C7 C6 1_555 1_555
C8 C7 1_555 1_555
O3 C8 1_555 1_555
C9 C8 1_555 1_555
C10 C1 1_555 1_555
H10 C10 1_555 1_555
C11 C2 1_555 1_555
H11 C11 1_555 1_555
C12 C5 1_555 1_555
H12 C12 1_555 1_555
C13 C9 1_555 1_555
O4 C13 1_555 1_555
O5 C13 1_555 1_555
C14 O5 1_555 1_555
H13 C14 1_555 1_555
H14 C14 1_555 1_555
H15 C14 1_555 1_555
C15 C5 1_555 1_555
H16 C15 1_555 1_555
H17 C15 1_555 1_555
H18 C15 1_555 1_555
C16 C7 1_555 1_555
H19 C16 1_555 1_555
H20 C16 1_555 1_555
H21 C16 1_555 1_555
C17 C7 1_555 1_555
H22 C17 1_555 1_555
H23 C17 1_555 1_555
H24 C17 1_555 1_555
C3 C11 1_555 1_555
C6 C12 1_555 1_555
C9 C10 1_555 1_555
C9 C12 1_555 1_555
C10 C11 1_555 1_555

#END
