
#######################################################################
#
#                 Cambridge Crystallographic Data Centre
#                                CCDC 
#
#######################################################################
#
# If this CIF has been generated from an entry in the Cambridge 
# Structural Database, then it will include bibliographic, chemical, 
# crystal, experimental, refinement or atomic coordinate data resulting 
# from the CCDC's data processing and validation procedures.
#
#######################################################################

data_FOLRON
_chemical_formula_moiety         'C15 H20 O5'
_chemical_name_systematic        
(3aR*,6S*,6aS*,9aR*,9bS*)-(+-)-Decahydro-9a-methoxycarbonyl-6-methyl-9-oxo-azuleno[4,5-c]furan-1(3H)-one
_symmetry_cell_setting           orthorhombic
_symmetry_space_group_name_H-M   'P 21 21 21'
_symmetry_Int_Tables_number      19
_space_group_name_Hall           'P 2ac 2ab'
loop_
_symmetry_equiv_pos_site_id
_symmetry_equiv_pos_as_xyz
1 x,y,z
2 1/2-x,-y,1/2+z
3 1/2+x,1/2-y,-z
4 -x,1/2+y,1/2-z
_cell_length_a                   8.987(2)
_cell_length_b                   10.370(1)
_cell_length_c                   14.797(1)
_cell_angle_alpha                90
_cell_angle_beta                 90
_cell_angle_gamma                90
_cell_volume                     1379.01
_exptl_crystal_colour            colorless
_exptl_crystal_description       plate
_chemical_melting_point          151-151.5deg.C
_cell_formula_units_Z            4
_exptl_crystal_recrystallization_method acetone/pentane
loop_
_atom_site_label
_atom_site_type_symbol
_atom_site_fract_x
_atom_site_fract_y
_atom_site_fract_z
O1 O 0.45532(18) 0.50263(16) 0.87434(10)
C1 C 0.45573(22) 0.53648(18) 0.79663(14)
O2 O 0.32906(15) 0.55428(16) 0.75020(11)
C2 C 0.36312(23) 0.59625(23) 0.65903(15)
H1 H 0.35753(23) 0.52543(23) 0.61738(15)
H2 H 0.29459(23) 0.66238(23) 0.64089(15)
C3 C 0.59996(25) 0.63863(23) 0.57104(12)
H3 H 0.53594(25) 0.67219(23) 0.52474(12)
H4 H 0.61975(25) 0.54918(23) 0.55941(12)
C4 C 0.74814(25) 0.71045(23) 0.56774(12)
H5 H 0.72668(25) 0.79838(23) 0.58329(12)
H6 H 0.78688(25) 0.70683(23) 0.50733(12)
C5 C 0.87029(22) 0.66394(20) 0.63253(11)
H7 H 0.95824(22) 0.71198(20) 0.61760(11)
C6 C 0.98438(22) 0.68411(18) 0.79015(12)
H8 H 1.07024(22) 0.69499(18) 0.75231(12)
H9 H 0.98551(22) 0.74787(18) 0.83718(12)
C7 C 0.98200(22) 0.54983(19) 0.83226(14)
H10 H 1.01080(22) 0.55249(19) 0.89471(14)
H11 H 1.04804(22) 0.49380(19) 0.79973(14)
C8 C 0.82390(22) 0.50315(17) 0.82336(11)
O3 O 0.78121(17) 0.39515(12) 0.83654(9)
C9 C 0.72568(20) 0.61326(15) 0.78684(10)
C10 C 0.84077(20) 0.69729(16) 0.73322(11)
H12 H 0.80085(20) 0.78273(16) 0.72728(11)
C11 C 0.58820(19) 0.56362(15) 0.73636(11)
H13 H 0.63150(19) 0.48881(15) 0.70863(11)
C12 C 0.52103(21) 0.64778(18) 0.66204(12)
H14 H 0.52913(21) 0.73821(18) 0.67505(12)
C13 C 0.67540(21) 0.70146(17) 0.86483(11)
O4 O 0.57796(18) 0.77923(14) 0.85870(9)
O5 O 0.76002(17) 0.68434(15) 0.93860(8)
C14 C 0.73591(31) 0.77421(24) 1.01192(14)
H15 H 0.80037(31) 0.75274(24) 1.06141(14)
H16 H 0.63422(31) 0.77026(24) 1.03158(14)
H17 H 0.75802(31) 0.85982(24) 0.99119(14)
C15 C 0.91638(27) 0.52453(21) 0.61461(14)
H18 H 0.99277(27) 0.50036(21) 0.65668(14)
H19 H 0.95347(27) 0.51618(21) 0.55405(14)
H20 H 0.83169(27) 0.46921(21) 0.62239(14)
loop_
_geom_bond_atom_site_label_1
_geom_bond_atom_site_label_2
_geom_bond_site_symmetry_1
_geom_bond_site_symmetry_2
O1 C1 1_555 1_555
C1 O2 1_555 1_555
O2 C2 1_555 1_555
C2 H1 1_555 1_555
H2 C2 1_555 1_555
C3 H3 1_555 1_555
H4 C3 1_555 1_555
C4 C3 1_555 1_555
H5 C4 1_555 1_555
H6 C4 1_555 1_555
C5 C4 1_555 1_555
H7 C5 1_555 1_555
C6 H8 1_555 1_555
H9 C6 1_555 1_555
C7 C6 1_555 1_555
H10 C7 1_555 1_555
H11 C7 1_555 1_555
C8 C7 1_555 1_555
O3 C8 1_555 1_555
C9 C8 1_555 1_555
C10 C5 1_555 1_555
H12 C10 1_555 1_555
C11 C1 1_555 1_555
H13 C11 1_555 1_555
C12 C2 1_555 1_555
H14 C12 1_555 1_555
C13 C9 1_555 1_555
O4 C13 1_555 1_555
O5 C13 1_555 1_555
C14 O5 1_555 1_555
H15 C14 1_555 1_555
H16 C14 1_555 1_555
H17 C14 1_555 1_555
C15 C5 1_555 1_555
H18 C15 1_555 1_555
H19 C15 1_555 1_555
H20 C15 1_555 1_555
C3 C12 1_555 1_555
C6 C10 1_555 1_555
C9 C10 1_555 1_555
C9 C11 1_555 1_555
C11 C12 1_555 1_555

#END
