
#######################################################################
#
#                 Cambridge Crystallographic Data Centre
#                                CCDC 
#
#######################################################################
#
# If this CIF has been generated from an entry in the Cambridge 
# Structural Database, then it will include bibliographic, chemical, 
# crystal, experimental, refinement or atomic coordinate data resulting 
# from the CCDC's data processing and validation procedures.
#
#######################################################################

data_FOLSAB
_chemical_formula_moiety         'C30 H49 N1 O4'
_chemical_name_systematic        
(16S,17R,20S,24R)-3-Oxime-20,24-epoxy-16,25-dihydroxycycloartan-3-one
_chemical_properties_biological  
'some activity against human HCT-15, K562, PC-3 and U251 cancer cell lines'
_symmetry_cell_setting           orthorhombic
_symmetry_space_group_name_H-M   'P 21 21 21'
_symmetry_Int_Tables_number      19
_space_group_name_Hall           'P 2ac 2ab'
loop_
_symmetry_equiv_pos_site_id
_symmetry_equiv_pos_as_xyz
1 x,y,z
2 1/2-x,-y,1/2+z
3 -x,1/2+y,1/2-z
4 1/2+x,1/2-y,-z
_cell_length_a                   27.458(2)
_cell_length_b                   7.990(1)
_cell_length_c                   13.003(1)
_cell_angle_alpha                90
_cell_angle_beta                 90
_cell_angle_gamma                90
_cell_volume                     2852.72
_exptl_crystal_colour            colorless
_exptl_crystal_description       irregular
_cell_formula_units_Z            4
loop_
_atom_site_label
_atom_site_type_symbol
_atom_site_fract_x
_atom_site_fract_y
_atom_site_fract_z
N1 N 0.38527(15) 0.3778(7) 0.3932(4)
O1 O 0.83639(15) -0.1133(6) 0.7319(4)
H1 H 0.864(3) -0.120(10) 0.660(6)
O2 O 0.75750(12) 0.1255(6) 0.6945(4)
H2 H 0.765(2) 0.018(9) 0.709(5)
O3 O 0.73837(10) -0.2075(5) 0.7309(2)
O4 O 0.34568(14) 0.2621(6) 0.3960(4)
H3 H 0.316(3) 0.309(9) 0.369(5)
C1 C 0.46305(15) 0.1201(7) 0.5548(4)
H4 H 0.4671 0.0044 0.5727
H5 H 0.4481 0.1770 0.6117
C2 C 0.43028(17) 0.1364(7) 0.4606(4)
H6 H 0.3986 0.0912 0.4743
H7 H 0.4446 0.0716 0.4063
C3 C 0.42517(18) 0.3141(7) 0.4249(4)
C4 C 0.47124(18) 0.4191(7) 0.4162(4)
C5 C 0.50598(17) 0.3860(7) 0.5093(4)
H8 H 0.4893 0.4298 0.5683
C6 C 0.5540(2) 0.4785(7) 0.5063(5)
H9 H 0.5482 0.5967 0.5011
H10 H 0.5721 0.4443 0.4467
C7 C 0.5837(2) 0.4426(6) 0.6022(5)
H11 H 0.5644 0.4676 0.6619
H12 H 0.6119 0.5140 0.6034
C8 C 0.60006(15) 0.2603(6) 0.6076(4)
H13 H 0.6209 0.2448 0.5490
C9 C 0.55696(15) 0.1379(6) 0.5922(4)
C10 C 0.51181(15) 0.1998(6) 0.5339(4)
C11 C 0.54852(15) 0.0072(7) 0.6756(4)
H14 H 0.5310 -0.0846 0.6455
H15 H 0.5275 0.0576 0.7257
C12 C 0.59330(15) -0.0637(6) 0.7332(4)
H16 H 0.5961 -0.1809 0.7181
H17 H 0.5884 -0.0522 0.8060
C13 C 0.64113(14) 0.0236(6) 0.7058(3)
C14 C 0.63147(15) 0.2170(6) 0.7010(4)
C15 C 0.68372(16) 0.2880(6) 0.6963(4)
H18 H 0.6844 0.3977 0.7263
H19 H 0.6949 0.2956 0.6265
C16 C 0.71610(16) 0.1680(6) 0.7572(4)
H20 H 0.7270 0.2225 0.8189
C17 C 0.68301(15) 0.0158(6) 0.7864(4)
H21 H 0.6672 0.0497 0.8489
C18 C 0.65884(15) -0.0463(6) 0.6017(4)
H22 H 0.6885 0.0085 0.5822
H23 H 0.6646 -0.1643 0.6088
H24 H 0.6346 -0.0278 0.5497
C19 C 0.54859(17) 0.0890(7) 0.4804(4)
H25 H 0.5389 -0.0244 0.4671
H26 H 0.5690 0.1380 0.4286
C20 C 0.70895(15) -0.1480(6) 0.8151(3)
C21 C 0.67294(18) -0.2848(7) 0.8453(4)
H27 H 0.6498 -0.3016 0.7909
H28 H 0.6900 -0.3875 0.8582
H29 H 0.6562 -0.2503 0.9065
C22 C 0.74629(16) -0.1248(8) 0.9016(4)
H30 H 0.7307 -0.1279 0.9676
H31 H 0.7634 -0.0208 0.8942
C23 C 0.78162(19) -0.2677(9) 0.8861(4)
H32 H 0.7712 -0.3615 0.9268
H33 H 0.8145 -0.2397 0.9042
C24 C 0.77691(16) -0.3113(7) 0.7710(4)
H34 H 0.7669 -0.4257 0.7633
C25 C 0.8225(2) -0.2840(8) 0.7073(5)
C26 C 0.8126(2) -0.3040(11) 0.5976(5)
H35 H 0.7873 -0.2277 0.5777
H36 H 0.8410 -0.2843 0.5563
H37 H 0.8017 -0.4169 0.5877
C27 C 0.86297(18) -0.3995(10) 0.7414(6)
H38 H 0.8914 -0.3847 0.6994
H39 H 0.8708 -0.3747 0.8117
H40 H 0.8519 -0.5132 0.7362
C28 C 0.60689(18) 0.2817(7) 0.8011(4)
H41 H 0.6008 0.3998 0.7962
H42 H 0.5766 0.2236 0.8107
H43 H 0.6280 0.2601 0.8585
C29 C 0.4586(2) 0.6071(8) 0.4134(6)
H44 H 0.4436 0.6397 0.4769
H45 H 0.4879 0.6709 0.4033
H46 H 0.4366 0.6278 0.3575
C30 C 0.4959(2) 0.3712(11) 0.3138(4)
H47 H 0.4732 0.3940 0.2594
H48 H 0.5244 0.4391 0.3049
H49 H 0.5049 0.2551 0.3121
loop_
_geom_bond_atom_site_label_1
_geom_bond_atom_site_label_2
_geom_bond_site_symmetry_1
_geom_bond_site_symmetry_2
N1 O4 1_555 1_555
O1 H1 1_555 1_555
O2 H2 1_555 1_555
O3 C20 1_555 1_555
O4 H3 1_555 1_555
C1 H4 1_555 1_555
H5 C1 1_555 1_555
C2 C1 1_555 1_555
H6 C2 1_555 1_555
H7 C2 1_555 1_555
C3 N1 1_555 1_555
C4 C3 1_555 1_555
C5 C4 1_555 1_555
H8 C5 1_555 1_555
C6 C5 1_555 1_555
H9 C6 1_555 1_555
H10 C6 1_555 1_555
C7 C6 1_555 1_555
H11 C7 1_555 1_555
H12 C7 1_555 1_555
C8 C7 1_555 1_555
H13 C8 1_555 1_555
C9 C8 1_555 1_555
C10 C1 1_555 1_555
C11 C9 1_555 1_555
H14 C11 1_555 1_555
H15 C11 1_555 1_555
C12 C11 1_555 1_555
H16 C12 1_555 1_555
H17 C12 1_555 1_555
C13 C12 1_555 1_555
C14 C8 1_555 1_555
C15 C14 1_555 1_555
H18 C15 1_555 1_555
H19 C15 1_555 1_555
C16 O2 1_555 1_555
H20 C16 1_555 1_555
C17 C13 1_555 1_555
H21 C17 1_555 1_555
C18 C13 1_555 1_555
H22 C18 1_555 1_555
H23 C18 1_555 1_555
H24 C18 1_555 1_555
C19 C9 1_555 1_555
H25 C19 1_555 1_555
H26 C19 1_555 1_555
C20 C17 1_555 1_555
C21 C20 1_555 1_555
H27 C21 1_555 1_555
H28 C21 1_555 1_555
H29 C21 1_555 1_555
C22 C20 1_555 1_555
H30 C22 1_555 1_555
H31 C22 1_555 1_555
C23 C22 1_555 1_555
H32 C23 1_555 1_555
H33 C23 1_555 1_555
C24 O3 1_555 1_555
H34 C24 1_555 1_555
C25 O1 1_555 1_555
C26 C25 1_555 1_555
H35 C26 1_555 1_555
H36 C26 1_555 1_555
H37 C26 1_555 1_555
C27 C25 1_555 1_555
H38 C27 1_555 1_555
H39 C27 1_555 1_555
H40 C27 1_555 1_555
C28 C14 1_555 1_555
H41 C28 1_555 1_555
H42 C28 1_555 1_555
H43 C28 1_555 1_555
C29 C4 1_555 1_555
H44 C29 1_555 1_555
H45 C29 1_555 1_555
H46 C29 1_555 1_555
C30 C4 1_555 1_555
H47 C30 1_555 1_555
H48 C30 1_555 1_555
H49 C30 1_555 1_555
C2 C3 1_555 1_555
C5 C10 1_555 1_555
C9 C10 1_555 1_555
C10 C19 1_555 1_555
C13 C14 1_555 1_555
C15 C16 1_555 1_555
C16 C17 1_555 1_555
C23 C24 1_555 1_555
C24 C25 1_555 1_555

#END
