
#######################################################################
#
#                 Cambridge Crystallographic Data Centre
#                                CCDC 
#
#######################################################################
#
# If this CIF has been generated from an entry in the Cambridge 
# Structural Database, then it will include bibliographic, chemical, 
# crystal, experimental, refinement or atomic coordinate data resulting 
# from the CCDC's data processing and validation procedures.
#
#######################################################################

data_FOLVUY
_chemical_formula_moiety         'C23 H22 O1 S1'
_chemical_name_systematic        (S)-2,2-Dibenzyl-4-phenyl-1,3-oxathiolane
_symmetry_cell_setting           monoclinic
_symmetry_space_group_name_H-M   'P 21'
_symmetry_Int_Tables_number      4
_space_group_name_Hall           'P 2yb'
loop_
_symmetry_equiv_pos_site_id
_symmetry_equiv_pos_as_xyz
1 x,y,z
2 -x,1/2+y,-z
_cell_length_a                   9.5943(1)
_cell_length_b                   19.5143(1)
_cell_length_c                   9.7674(1)
_cell_angle_alpha                90
_cell_angle_beta                 96.0664(3)
_cell_angle_gamma                90
_cell_volume                     1818.47
_exptl_crystal_colour            colorless
_exptl_crystal_description       plate
_chemical_melting_point          '90.0-93.6 deg.C'
_cell_formula_units_Z            4
_exptl_crystal_recrystallization_method 'diethyl ether/methanol'
loop_
_atom_site_label
_atom_site_type_symbol
_atom_site_fract_x
_atom_site_fract_y
_atom_site_fract_z
S1 S 0.13799(4) 0.20155 0.73448(4)
O1 O 0.0233(1) 0.26165(6) 0.5074(1)
C1 C 0.0447(2) 0.27612(8) 0.6515(2)
C2 C 0.1561(1) 0.16085(9) 0.5694(2)
C3 C 0.0336(2) 0.19032(9) 0.4772(2)
C4 C 0.1314(2) 0.34187(8) 0.6677(2)
C5 C 0.2752(2) 0.33666(8) 0.6185(2)
C6 C 0.3939(2) 0.33633(9) 0.7140(2)
C7 C 0.5269(2) 0.33115(9) 0.6707(2)
C8 C 0.5434(2) 0.32661(9) 0.5322(2)
C9 C 0.4267(2) 0.32757(9) 0.4365(2)
C10 C 0.2932(2) 0.33261(8) 0.4797(2)
C11 C -0.0992(2) 0.28466(9) 0.7075(2)
C12 C -0.0977(1) 0.28703(9) 0.8618(2)
C13 C -0.0923(2) 0.34870(9) 0.9329(2)
C14 C -0.0884(2) 0.35087(9) 1.0748(2)
C15 C -0.0893(2) 0.2905(1) 1.1495(2)
C16 C -0.0966(2) 0.22844(9) 1.0809(2)
C17 C -0.1023(2) 0.22655(9) 0.9384(2)
C18 C 0.1584(2) 0.08398(9) 0.5861(1)
C19 C 0.0366(2) 0.04550(9) 0.5928(2)
C20 C 0.0432(2) -0.02496(9) 0.6052(2)
C21 C 0.1696(2) -0.05837(9) 0.6126(2)
C22 C 0.2918(2) -0.02127(9) 0.6092(2)
C23 C 0.2865(2) 0.04936(9) 0.5959(2)
H1 H 0.241 0.175 0.537
H2 H 0.384 0.340 0.809
H3 H 0.607 0.331 0.737
H4 H 0.634 0.323 0.503
H5 H 0.437 0.325 0.341
H6 H 0.213 0.333 0.413
H7 H -0.091 0.390 0.883
H8 H -0.085 0.394 1.121
H9 H -0.085 0.292 1.247
H10 H -0.098 0.187 1.131
H11 H -0.109 0.184 0.892
H12 H -0.052 0.068 0.589
H13 H -0.041 -0.051 0.609
H14 H 0.173 -0.107 0.620
H15 H 0.380 -0.044 0.616
H16 H 0.371 0.075 0.593
H17 H 0.049 0.184 0.383
H18 H -0.050 0.168 0.494
H19 H 0.081 0.377 0.617
H20 H 0.143 0.354 0.763
H21 H -0.139 0.326 0.671
H22 H -0.157 0.247 0.675
S2 S 0.38975(4) 0.16428(3) 0.23714(4)
O2 O 0.4748(1) 0.08960(6) 0.0360(1)
C24 C 0.4688(2) 0.08369(8) 0.1813(2)
C25 C 0.3740(1) 0.19977(9) 0.0626(2)
C26 C 0.4828(2) 0.15948(9) -0.0065(2)
C27 C 0.3788(2) 0.02065(8) 0.2024(2)
C28 C 0.2246(2) 0.02692(8) 0.1511(2)
C29 C 0.1255(2) 0.02326(9) 0.2447(2)
C30 C -0.0168(2) 0.02928(9) 0.2033(2)
C31 C -0.0625(2) 0.03953(9) 0.0659(2)
C32 C 0.0345(2) 0.04234(9) -0.0293(2)
C33 C 0.1767(2) 0.03571(9) 0.0127(2)
C34 C 0.6190(2) 0.07589(9) 0.2533(2)
C35 C 0.6341(2) 0.07561(8) 0.4088(2)
C36 C 0.6463(2) 0.01379(9) 0.4809(2)
C37 C 0.6613(2) 0.01266(9) 0.6237(2)
C38 C 0.6612(2) 0.0731(1) 0.6972(2)
C39 C 0.6478(2) 0.13454(9) 0.6278(2)
C40 C 0.6370(2) 0.13607(9) 0.4854(2)
C41 C 0.3919(2) 0.27663(8) 0.0658(2)
C42 C 0.5222(2) 0.30854(9) 0.0758(2)
C43 C 0.5330(2) 0.37918(9) 0.0769(2)
C44 C 0.4132(2) 0.41928(9) 0.0695(2)
C45 C 0.2833(2) 0.38821(9) 0.0621(2)
C46 C 0.2725(2) 0.31734(9) 0.0594(2)
H23 H 0.284 0.189 0.018
H24 H 0.156 0.016 0.339
H25 H -0.083 0.026 0.269
H26 H -0.160 0.045 0.037
H27 H 0.003 0.049 -0.124
H28 H 0.242 0.037 -0.054
H29 H 0.644 -0.028 0.431
H30 H 0.672 -0.030 0.671
H31 H 0.670 0.072 0.795
H32 H 0.646 0.176 0.678
H33 H 0.632 0.179 0.439
H34 H 0.420 0.468 0.070
H35 H 0.201 0.415 0.059
H36 H 0.183 0.296 0.053
H37 H 0.574 0.177 0.021
H38 H 0.464 0.163 -0.104
H39 H 0.386 0.011 0.298
H40 H 0.416 -0.017 0.156
H41 H 0.656 0.034 0.224
H42 H 0.673 0.113 0.224
H43 H 0.605 0.281 0.082
H44 H 0.623 0.400 0.083
loop_
_geom_bond_atom_site_label_1
_geom_bond_atom_site_label_2
_geom_bond_site_symmetry_1
_geom_bond_site_symmetry_2
S1 C1 1_555 1_555
O1 C1 1_555 1_555
C1 C4 1_555 1_555
C2 S1 1_555 1_555
C3 O1 1_555 1_555
C4 C5 1_555 1_555
C5 C6 1_555 1_555
C6 C7 1_555 1_555
C7 C8 1_555 1_555
C8 C9 1_555 1_555
C9 C10 1_555 1_555
C10 C5 1_555 1_555
C11 C1 1_555 1_555
C12 C11 1_555 1_555
C13 C12 1_555 1_555
C14 C13 1_555 1_555
C15 C14 1_555 1_555
C16 C15 1_555 1_555
C17 C12 1_555 1_555
C18 C2 1_555 1_555
C19 C18 1_555 1_555
C20 C19 1_555 1_555
C21 C20 1_555 1_555
C22 C21 1_555 1_555
C23 C18 1_555 1_555
S2 C24 1_555 1_555
O2 C24 1_555 1_555
C24 C27 1_555 1_555
C25 S2 1_555 1_555
C26 O2 1_555 1_555
C27 C28 1_555 1_555
C28 C29 1_555 1_555
C29 C30 1_555 1_555
C30 C31 1_555 1_555
C31 C32 1_555 1_555
C32 C33 1_555 1_555
C33 C28 1_555 1_555
C34 C24 1_555 1_555
C35 C34 1_555 1_555
C36 C35 1_555 1_555
C37 C36 1_555 1_555
C38 C37 1_555 1_555
C39 C38 1_555 1_555
C40 C35 1_555 1_555
C41 C25 1_555 1_555
C42 C41 1_555 1_555
C43 C42 1_555 1_555
C44 C43 1_555 1_555
C45 C44 1_555 1_555
C46 C41 1_555 1_555
H1 C2 1_555 1_555
H2 C6 1_555 1_555
H3 C7 1_555 1_555
H4 C8 1_555 1_555
H5 C9 1_555 1_555
H6 C10 1_555 1_555
H7 C13 1_555 1_555
H8 C14 1_555 1_555
H9 C15 1_555 1_555
H10 C16 1_555 1_555
H11 C17 1_555 1_555
H12 C19 1_555 1_555
H13 C20 1_555 1_555
H14 C21 1_555 1_555
H15 C22 1_555 1_555
H16 C23 1_555 1_555
H17 C3 1_555 1_555
H18 C3 1_555 1_555
H19 C4 1_555 1_555
H20 C4 1_555 1_555
H21 C11 1_555 1_555
H22 C11 1_555 1_555
H23 C25 1_555 1_555
H24 C29 1_555 1_555
H25 C30 1_555 1_555
H26 C31 1_555 1_555
H27 C32 1_555 1_555
H28 C33 1_555 1_555
H29 C36 1_555 1_555
H30 C37 1_555 1_555
H31 C38 1_555 1_555
H32 C39 1_555 1_555
H33 C40 1_555 1_555
H34 C44 1_555 1_555
H35 C45 1_555 1_555
H36 C46 1_555 1_555
H37 C26 1_555 1_555
H38 C26 1_555 1_555
H39 C27 1_555 1_555
H40 C27 1_555 1_555
H41 C34 1_555 1_555
H42 C34 1_555 1_555
H43 C42 1_555 1_555
H44 C43 1_555 1_555
C2 C3 1_555 1_555
C16 C17 1_555 1_555
C22 C23 1_555 1_555
C25 C26 1_555 1_555
C39 C40 1_555 1_555
C45 C46 1_555 1_555

#END
