
#######################################################################
#
#                 Cambridge Crystallographic Data Centre
#                                CCDC 
#
#######################################################################
#
# If this CIF has been generated from an entry in the Cambridge 
# Structural Database, then it will include bibliographic, chemical, 
# crystal, experimental, refinement or atomic coordinate data resulting 
# from the CCDC's data processing and validation procedures.
#
#######################################################################

data_FOLVIM
_chemical_formula_moiety         'C18 H20 O1 S1'
_chemical_name_systematic        
(1'E,2S)-1-((1'-Benzyl-2'-phenylvinyl)sulfanyl)propan-2-ol
_symmetry_cell_setting           monoclinic
_symmetry_space_group_name_H-M   'P 21'
_symmetry_Int_Tables_number      4
_space_group_name_Hall           'P 2yb'
loop_
_symmetry_equiv_pos_site_id
_symmetry_equiv_pos_as_xyz
1 x,y,z
2 -x,1/2+y,-z
_cell_length_a                   8.3752(2)
_cell_length_b                   5.3164(1)
_cell_length_c                   17.5394(5)
_cell_angle_alpha                90
_cell_angle_beta                 99.953(1)
_cell_angle_gamma                90
_cell_volume                     769.204
_exptl_crystal_colour            colorless
_exptl_crystal_description       needle
_chemical_melting_point          '67.5-70.8 deg.C'
_cell_formula_units_Z            2
_exptl_crystal_recrystallization_method 'diethyl ether/hexane'
loop_
_atom_site_label
_atom_site_type_symbol
_atom_site_fract_x
_atom_site_fract_y
_atom_site_fract_z
S1 S 0.78688(4) 0.12995 0.83630(2)
O1 O 0.9221(1) -0.1150(2) 0.98965(7)
C1 C 0.6916(2) -0.3845(3) 0.99658(8)
C2 C 0.7849(2) -0.2381(3) 0.94479(8)
C3 C 0.6787(2) -0.0361(3) 0.90122(8)
C4 C 0.6438(2) 0.3430(3) 0.78721(8)
C5 C 0.4930(2) 0.3694(3) 0.80157(8)
C6 C 0.7201(2) 0.4885(3) 0.72853(8)
C7 C 0.7261(2) 0.3412(3) 0.65468(8)
C8 C 0.8468(2) 0.3926(3) 0.61141(9)
C9 C 0.8563(2) 0.2546(4) 0.54529(9)
C10 C 0.7472(2) 0.0665(3) 0.52099(9)
C11 C 0.6248(2) 0.0159(3) 0.56274(9)
C12 C 0.6155(2) 0.1536(3) 0.62900(8)
C13 C 0.3686(2) 0.5555(3) 0.77038(8)
C14 C 0.3461(2) 0.6570(3) 0.69567(8)
C15 C 0.2297(2) 0.8414(3) 0.67397(9)
C16 C 0.1322(2) 0.9247(3) 0.7245(1)
C17 C 0.1492(2) 0.8182(4) 0.7971(1)
C18 C 0.2641(2) 0.6352(4) 0.81930(8)
H1 H 0.980(3) -0.227(4) 1.014(1)
H2 H 0.462 0.251 0.837
H3 H 0.923 0.523 0.627
H4 H 0.940 0.291 0.516
H5 H 0.600 -0.462 0.966
H6 H 0.656 -0.273 1.033
H7 H 0.760 -0.510 1.024
H8 H 0.411 0.600 0.660
H9 H 0.217 0.911 0.623
H10 H 0.054 1.054 0.710
H11 H 0.081 0.871 0.832
H12 H 0.272 0.562 0.869
H13 H 0.821 -0.350 0.909
H14 H 0.585 -0.112 0.872
H15 H 0.647 0.080 0.937
H16 H 0.828 0.532 0.751
H17 H 0.659 0.637 0.715
H18 H 0.756 -0.028 0.476
H19 H 0.548 -0.112 0.546
H20 H 0.531 0.118 0.657
loop_
_geom_bond_atom_site_label_1
_geom_bond_atom_site_label_2
_geom_bond_site_symmetry_1
_geom_bond_site_symmetry_2
S1 C3 1_555 1_555
O1 C2 1_555 1_555
C1 C2 1_555 1_555
C2 C3 1_555 1_555
C3 H14 1_555 1_555
C4 S1 1_555 1_555
C5 C4 1_555 1_555
C6 C4 1_555 1_555
C7 C6 1_555 1_555
C8 C7 1_555 1_555
C9 C8 1_555 1_555
C10 C9 1_555 1_555
C11 C10 1_555 1_555
C12 C7 1_555 1_555
C13 C5 1_555 1_555
C14 C13 1_555 1_555
C15 C14 1_555 1_555
C16 C15 1_555 1_555
C17 C16 1_555 1_555
C18 C13 1_555 1_555
H1 O1 1_555 1_555
H2 C5 1_555 1_555
H3 C8 1_555 1_555
H4 C9 1_555 1_555
H5 C1 1_555 1_555
H6 C1 1_555 1_555
H7 C1 1_555 1_555
H8 C14 1_555 1_555
H9 C15 1_555 1_555
H10 C16 1_555 1_555
H11 C17 1_555 1_555
H12 C18 1_555 1_555
H13 C2 1_555 1_555
H15 C3 1_555 1_555
H16 C6 1_555 1_555
H17 C6 1_555 1_555
H18 C10 1_555 1_555
H19 C11 1_555 1_555
H20 C12 1_555 1_555
C11 C12 1_555 1_555
C17 C18 1_555 1_555

#END
