
#######################################################################
#
#                 Cambridge Crystallographic Data Centre
#                                CCDC 
#
#######################################################################
#
# If this CIF has been generated from an entry in the Cambridge 
# Structural Database, then it will include bibliographic, chemical, 
# crystal, experimental, refinement or atomic coordinate data resulting 
# from the CCDC's data processing and validation procedures.
#
#######################################################################

data_FOLVOS
_chemical_formula_moiety         'C18 H20 O1 S1'
_chemical_name_systematic        (S)-2,2-Dibenzyl-5-methyl-1,3-oxathiolane
_symmetry_cell_setting           monoclinic
_symmetry_space_group_name_H-M   'P 21'
_symmetry_Int_Tables_number      4
_space_group_name_Hall           'P 2yb'
loop_
_symmetry_equiv_pos_site_id
_symmetry_equiv_pos_as_xyz
1 x,y,z
2 -x,1/2+y,-z
_cell_length_a                   15.0307(2)
_cell_length_b                   5.8975(1)
_cell_length_c                   17.1689(2)
_cell_angle_alpha                90
_cell_angle_beta                 91.9977(6)
_cell_angle_gamma                90
_cell_volume                     1520.99
_exptl_crystal_colour            colorless
_exptl_crystal_description       needle
_chemical_melting_point          '66.7-67.9 deg.C'
_cell_formula_units_Z            4
_exptl_crystal_recrystallization_method 'diethyl ether/methanol'
loop_
_atom_site_label
_atom_site_type_symbol
_atom_site_fract_x
_atom_site_fract_y
_atom_site_fract_z
S1 S 0.39213(3) 0.65961 0.88687(2)
O1 O 0.46962(7) 0.2743(2) 0.84961(6)
C1 C 0.3891(1) 0.3446(3) 0.88307(8)
C2 C 0.5382(1) 0.4424(3) 0.85456(8)
C3 C 0.4938(1) 0.6663(3) 0.83446(9)
C4 C 0.3118(1) 0.2605(3) 0.82978(9)
C5 C 0.3222(1) 0.3243(3) 0.74520(9)
C6 C 0.2866(1) 0.5235(3) 0.7148(1)
C7 C 0.3019(1) 0.5861(3) 0.6381(1)
C8 C 0.3520(1) 0.4509(4) 0.59145(9)
C9 C 0.3863(1) 0.2518(3) 0.62099(9)
C10 C 0.3717(1) 0.1888(3) 0.69698(9)
C11 C 0.3873(1) 0.2467(3) 0.96560(8)
C12 C 0.3043(1) 0.2873(3) 1.01093(8)
C13 C 0.2386(1) 0.1205(3) 1.01323(9)
C14 C 0.1629(1) 0.1535(4) 1.0556(1)
C15 C 0.1512(1) 0.3502(4) 1.0967(1)
C16 C 0.2156(1) 0.5152(3) 1.09617(9)
C17 C 0.2920(1) 0.4851(3) 1.05321(9)
C18 C 0.6094(1) 0.3734(3) 0.8000(1)
H1 H 0.563 0.448 0.906
H2 H 0.252 0.618 0.746
H3 H 0.278 0.724 0.618
H4 H 0.363 0.495 0.539
H5 H 0.420 0.156 0.589
H6 H 0.396 0.050 0.716
H7 H 0.246 -0.017 0.985
H8 H 0.119 0.039 1.056
H9 H 0.099 0.372 1.125
H10 H 0.208 0.651 1.125
H11 H 0.336 0.601 1.053
H12 H 0.482 0.678 0.780
H13 H 0.530 0.790 0.851
H14 H 0.309 0.100 0.833
H15 H 0.258 0.325 0.847
H16 H 0.395 0.087 0.962
H17 H 0.436 0.310 0.995
H18 H 0.627 0.222 0.811
H19 H 0.587 0.384 0.748
H20 H 0.659 0.471 0.807
S2 S 0.08543(3) 0.43756(9) 0.36831(2)
O2 O 0.10268(7) 0.0379(2) 0.43712(5)
C19 C 0.0856(1) 0.1239(2) 0.36033(8)
C20 C 0.1004(1) 0.2055(3) 0.49802(8)
C21 C 0.1370(1) 0.4216(3) 0.46458(9)
C22 C 0.1605(1) 0.0414(3) 0.30930(8)
C23 C 0.2529(1) 0.1010(3) 0.33921(8)
C24 C 0.2947(1) 0.2995(3) 0.31737(9)
C25 C 0.3795(1) 0.3543(3) 0.3459(1)
C26 C 0.4240(1) 0.2068(3) 0.3964(1)
C27 C 0.3838(1) 0.0094(3) 0.41847(9)
C28 C 0.2986(1) -0.0440(3) 0.39082(8)
C29 C -0.0057(1) 0.0368(3) 0.33232(8)
C30 C -0.0347(1) 0.0885(3) 0.24872(9)
C31 C -0.0251(1) -0.0751(3) 0.19119(9)
C32 C -0.0545(1) -0.0356(3) 0.11483(9)
C33 C -0.0941(1) 0.1700(4) 0.09511(9)
C34 C -0.1036(1) 0.3340(3) 0.1513(1)
C35 C -0.0743(1) 0.2934(3) 0.22766(9)
C36 C 0.1529(1) 0.1108(3) 0.56675(9)
H21 H 0.040 0.229 0.512
H22 H 0.265 0.400 0.282
H23 H 0.407 0.492 0.331
H24 H 0.482 0.242 0.416
H25 H 0.415 -0.092 0.453
H26 H 0.271 -0.180 0.407
H27 H 0.002 -0.216 0.204
H28 H -0.047 -0.149 0.076
H29 H -0.115 0.197 0.043
H30 H -0.130 0.475 0.138
H31 H -0.081 0.407 0.266
H32 H 0.200 0.414 0.462
H33 H 0.121 0.549 0.495
H34 H 0.157 -0.119 0.305
H35 H 0.152 0.107 0.259
H36 H -0.005 -0.123 0.338
H37 H -0.049 0.101 0.365
H38 H 0.127 -0.028 0.582
H39 H 0.152 0.216 0.609
H40 H 0.213 0.085 0.553
loop_
_geom_bond_atom_site_label_1
_geom_bond_atom_site_label_2
_geom_bond_site_symmetry_1
_geom_bond_site_symmetry_2
S1 C1 1_555 1_555
O1 C1 1_555 1_555
C1 C4 1_555 1_555
C2 O1 1_555 1_555
C3 S1 1_555 1_555
C4 C5 1_555 1_555
C5 C6 1_555 1_555
C6 C7 1_555 1_555
C7 C8 1_555 1_555
C8 C9 1_555 1_555
C9 C10 1_555 1_555
C10 C5 1_555 1_555
C11 C1 1_555 1_555
C12 C11 1_555 1_555
C13 C12 1_555 1_555
C14 C13 1_555 1_555
C15 C14 1_555 1_555
C16 C15 1_555 1_555
C17 C12 1_555 1_555
C18 C2 1_555 1_555
S2 C19 1_555 1_555
O2 C19 1_555 1_555
C19 C22 1_555 1_555
C20 O2 1_555 1_555
C21 S2 1_555 1_555
C22 C23 1_555 1_555
C23 C24 1_555 1_555
C24 C25 1_555 1_555
C25 C26 1_555 1_555
C26 C27 1_555 1_555
C27 C28 1_555 1_555
C28 C23 1_555 1_555
C29 C19 1_555 1_555
C30 C29 1_555 1_555
C31 C30 1_555 1_555
C32 C31 1_555 1_555
C33 C32 1_555 1_555
C34 C33 1_555 1_555
C35 C30 1_555 1_555
C36 C20 1_555 1_555
H1 C2 1_555 1_555
H2 C6 1_555 1_555
H3 C7 1_555 1_555
H4 C8 1_555 1_555
H5 C9 1_555 1_555
H6 C10 1_555 1_555
H7 C13 1_555 1_555
H8 C14 1_555 1_555
H9 C15 1_555 1_555
H10 C16 1_555 1_555
H11 C17 1_555 1_555
H12 C3 1_555 1_555
H13 C3 1_555 1_555
H14 C4 1_555 1_555
H15 C4 1_555 1_555
H16 C11 1_555 1_555
H17 C11 1_555 1_555
H18 C18 1_555 1_555
H19 C18 1_555 1_555
H20 C18 1_555 1_555
H21 C20 1_555 1_555
H22 C24 1_555 1_555
H23 C25 1_555 1_555
H24 C26 1_555 1_555
H25 C27 1_555 1_555
H26 C28 1_555 1_555
H27 C31 1_555 1_555
H28 C32 1_555 1_555
H29 C33 1_555 1_555
H30 C34 1_555 1_555
H31 C35 1_555 1_555
H32 C21 1_555 1_555
H33 C21 1_555 1_555
H34 C22 1_555 1_555
H35 C22 1_555 1_555
H36 C29 1_555 1_555
H37 C29 1_555 1_555
H38 C36 1_555 1_555
H39 C36 1_555 1_555
H40 C36 1_555 1_555
C2 C3 1_555 1_555
C16 C17 1_555 1_555
C20 C21 1_555 1_555
C34 C35 1_555 1_555

#END
