
#######################################################################
#
#                 Cambridge Crystallographic Data Centre
#                                CCDC 
#
#######################################################################
#
# If this CIF has been generated from an entry in the Cambridge 
# Structural Database, then it will include bibliographic, chemical, 
# crystal, experimental, refinement or atomic coordinate data resulting 
# from the CCDC's data processing and validation procedures.
#
#######################################################################

data_FOLWUY
_chemical_compound_source        'roots of Tripterygium regelii'
_chemical_name_common            Regelin
_chemical_formula_moiety         'C31 H48 O4'
_chemical_name_systematic        'Methyl 3-oxo-22\a-hydroxy-urs-12-en-30-oate'
_chemical_properties_biological  'antitumour activity'
_symmetry_cell_setting           orthorhombic
_symmetry_space_group_name_H-M   'P 21 21 21'
_symmetry_Int_Tables_number      19
_space_group_name_Hall           'P 2ac 2ab'
loop_
_symmetry_equiv_pos_site_id
_symmetry_equiv_pos_as_xyz
1 x,y,z
2 1/2+x,1/2-y,-z
3 -x,1/2+y,1/2-z
4 1/2-x,-y,1/2+z
_cell_length_a                   12.198(6)
_cell_length_b                   28.827(15)
_cell_length_c                   7.743(4)
_cell_angle_alpha                90
_cell_angle_beta                 90
_cell_angle_gamma                90
_cell_volume                     2722.68
_chemical_melting_point          221-223deg.C
_cell_formula_units_Z            4
loop_
_atom_site_label
_atom_site_type_symbol
_atom_site_fract_x
_atom_site_fract_y
_atom_site_fract_z
C1 C -0.2680(3) 0.1194(1) -0.1230(5)
C2 C -0.2669(3) 0.0731(1) -0.2203(5)
C3 C -0.1528(3) 0.0551(1) -0.2474(5)
C4 C -0.0774(3) 0.0527(1) -0.0891(5)
C5 C -0.0868(3) 0.0992(1) 0.0132(4)
C6 C -0.0181(3) 0.1008(1) 0.1800(5)
C7 C -0.0009(3) 0.1512(1) 0.2378(5)
C8 C -0.1096(2) 0.1783(1) 0.2641(4)
C9 C -0.1894(2) 0.1692(1) 0.1127(4)
C10 C -0.2049(2) 0.1178(1) 0.0504(4)
C11 C -0.2989(3) 0.1940(1) 0.1439(5)
C12 C -0.2863(2) 0.2405(1) 0.2284(4)
C13 C -0.1936(2) 0.2593(1) 0.2845(4)
C14 C -0.0843(2) 0.2328(1) 0.2679(4)
C15 C -0.0052(3) 0.2447(1) 0.4181(5)
C16 C -0.0051(3) 0.2961(1) 0.4665(5)
C17 C -0.1202(3) 0.3136(1) 0.5158(4)
C18 C -0.1955(2) 0.3090(1) 0.3554(4)
C19 C -0.1744(3) 0.3458(1) 0.2119(4)
C20 C -0.1704(3) 0.3949(1) 0.2895(4)
C21 C -0.0870(3) 0.3984(1) 0.4378(5)
C22 C -0.1170(3) 0.3642(1) 0.5778(5)
C23 C 0.0417(3) 0.0458(1) -0.1515(6)
C24 C -0.1097(4) 0.0090(1) 0.0137(6)
C25 C -0.2719(3) 0.0871(1) 0.1793(5)
C26 C -0.1599(3) 0.1624(1) 0.4390(4)
C27 C -0.0279(3) 0.2491(1) 0.0989(4)
C28 C -0.1701(4) 0.2842(1) 0.6631(5)
C29 C -0.2642(3) 0.3436(1) 0.0735(5)
C30 C -0.1418(3) 0.4311(1) 0.1539(5)
C31 C -0.1532(4) 0.5104(1) 0.0790(6)
O1 O -0.1217(3) 0.0425(1) -0.3895(4)
O2 O -0.0396(2) 0.3670(1) 0.7176(4)
O3 O -0.1769(2) 0.4726(1) 0.1994(4)
O4 O -0.0905(3) 0.4245(1) 0.0220(4)
H1 H -0.233(3) 0.147(1) -0.201(5)
H2 H -0.352(3) 0.130(1) -0.096(5)
H3 H -0.307(3) 0.078(1) -0.345(5)
H4 H -0.315(3) 0.048(1) -0.146(5)
H5 H -0.049(3) 0.126(1) -0.070(4)
H6 H 0.063(3) 0.084(1) 0.160(5)
H7 H -0.060(3) 0.081(1) 0.279(5)
H8 H 0.045(3) 0.152(1) 0.362(5)
H9 H 0.050(3) 0.170(1) 0.140(5)
H10 H -0.153(2) 0.188(1) 0.005(4)
H11 H -0.341(3) 0.199(1) 0.017(5)
H12 H -0.351(3) 0.172(1) 0.223(5)
H13 H -0.358(2) 0.258(1) 0.244(4)
H14 H 0.077(3) 0.234(1) 0.374(5)
H15 H -0.026(3) 0.225(1) 0.530(5)
H16 H 0.026(3) 0.316(1) 0.351(5)
H17 H 0.052(3) 0.302(1) 0.569(5)
H18 H -0.282(2) 0.316(1) 0.395(4)
H19 H -0.096(3) 0.339(1) 0.149(4)
H20 H -0.253(3) 0.403(1) 0.346(5)
H21 H -0.083(3) 0.433(1) 0.489(5)
H22 H -0.004(3) 0.390(1) 0.387(5)
H23 H -0.199(3) 0.373(1) 0.627(5)
H24 H 0.048(3) 0.015(1) -0.233(6)
H25 H 0.069(3) 0.076(1) -0.226(6)
H26 H 0.098(3) 0.041(1) -0.042(6)
H27 H -0.054(4) 0.005(1) 0.124(6)
H28 H -0.190(3) 0.010(1) 0.061(5)
H29 H -0.101(3) -0.022(1) -0.069(6)
H30 H -0.353(6) 0.101(1) 0.202(6)
H31 H -0.284(3) 0.053(1) 0.132(5)
H32 H -0.233(3) 0.084(1) 0.301(5)
H33 H -0.105(3) 0.171(1) 0.546(5)
H34 H -0.239(3) 0.180(1) 0.465(5)
H35 H -0.175(3) 0.126(1) 0.441(5)
H36 H -0.077(3) 0.243(1) -0.014(6)
H37 H -0.009(3) 0.286(1) 0.104(5)
H38 H 0.049(3) 0.231(1) 0.077(5)
H39 H -0.119(3) 0.286(1) 0.775(6)
H40 H -0.251(3) 0.297(1) 0.698(6)
H41 H -0.179(3) 0.248(1) 0.627(5)
H42 H -0.346(3) 0.351(1) 0.134(5)
H43 H -0.251(3) 0.369(1) -0.026(5)
H44 H -0.269(3) 0.310(1) 0.015(5)
H45 H -0.189(3) 0.503(1) -0.042(6)
H46 H -0.185(4) 0.543(2) 0.133(7)
H47 H -0.062(3) 0.514(1) 0.064(6)
H48 H -0.057(4) 0.392(1) 0.806(6)
loop_
_geom_bond_atom_site_label_1
_geom_bond_atom_site_label_2
_geom_bond_site_symmetry_1
_geom_bond_site_symmetry_2
C1 C2 1_555 1_555
C2 C3 1_555 1_555
C3 C4 1_555 1_555
C4 C5 1_555 1_555
C5 C6 1_555 1_555
C6 C7 1_555 1_555
C7 C8 1_555 1_555
C8 C9 1_555 1_555
C9 C10 1_555 1_555
C10 C1 1_555 1_555
C11 C9 1_555 1_555
C12 C11 1_555 1_555
C13 C12 1_555 1_555
C14 C8 1_555 1_555
C15 C14 1_555 1_555
C16 C15 1_555 1_555
C17 C16 1_555 1_555
C18 C13 1_555 1_555
C19 C18 1_555 1_555
C20 C19 1_555 1_555
C21 C20 1_555 1_555
C22 C17 1_555 1_555
C23 C4 1_555 1_555
C24 C4 1_555 1_555
C25 C10 1_555 1_555
C26 C8 1_555 1_555
C27 C14 1_555 1_555
C28 C17 1_555 1_555
C29 C19 1_555 1_555
C30 C20 1_555 1_555
C31 O3 1_555 1_555
O1 C3 1_555 1_555
O2 C22 1_555 1_555
O3 C30 1_555 1_555
O4 C30 1_555 1_555
H1 C1 1_555 1_555
H2 C1 1_555 1_555
H3 C2 1_555 1_555
H4 C2 1_555 1_555
H5 C5 1_555 1_555
H6 C6 1_555 1_555
H7 C6 1_555 1_555
H8 C7 1_555 1_555
H9 C7 1_555 1_555
H10 C9 1_555 1_555
H11 C11 1_555 1_555
H12 C11 1_555 1_555
H13 C12 1_555 1_555
H14 C15 1_555 1_555
H15 C15 1_555 1_555
H16 C16 1_555 1_555
H17 C16 1_555 1_555
H18 C18 1_555 1_555
H19 C19 1_555 1_555
H20 C20 1_555 1_555
H21 C21 1_555 1_555
H22 C21 1_555 1_555
H23 C22 1_555 1_555
H24 C23 1_555 1_555
H25 C23 1_555 1_555
H26 C23 1_555 1_555
H27 C24 1_555 1_555
H28 C24 1_555 1_555
H29 C24 1_555 1_555
H30 C25 1_555 1_555
H31 C25 1_555 1_555
H32 C25 1_555 1_555
H33 C26 1_555 1_555
H34 C26 1_555 1_555
H35 C26 1_555 1_555
H36 C27 1_555 1_555
H37 C27 1_555 1_555
H38 C27 1_555 1_555
H39 C28 1_555 1_555
H40 C28 1_555 1_555
H41 C28 1_555 1_555
H42 C29 1_555 1_555
H43 C29 1_555 1_555
H44 C29 1_555 1_555
H45 C31 1_555 1_555
H46 C31 1_555 1_555
H47 C31 1_555 1_555
H48 O2 1_555 1_555
C5 C10 1_555 1_555
C13 C14 1_555 1_555
C17 C18 1_555 1_555
C21 C22 1_555 1_555

#END
