
#######################################################################
#
#                 Cambridge Crystallographic Data Centre
#                                CCDC 
#
#######################################################################
#
# If this CIF has been generated from an entry in the Cambridge 
# Structural Database, then it will include bibliographic, chemical, 
# crystal, experimental, refinement or atomic coordinate data resulting 
# from the CCDC's data processing and validation procedures.
#
#######################################################################

data_FOLXIN
_chemical_formula_moiety         'C10 H19 N3'
_chemical_name_systematic        
Hexahydro-1H,4H,7H,9bH-3a,6a,9a-triazaphenalene
_symmetry_cell_setting           monoclinic
_symmetry_space_group_name_H-M   'P 21/c'
_symmetry_Int_Tables_number      14
_space_group_name_Hall           '-P 2ybc'
loop_
_symmetry_equiv_pos_site_id
_symmetry_equiv_pos_as_xyz
1 x,y,z
2 -x,1/2+y,1/2-z
3 -x,-y,-z
4 x,1/2-y,1/2+z
_cell_length_a                   7.477(3)
_cell_length_b                   8.978(4)
_cell_length_c                   16.599(11)
_cell_angle_alpha                90
_cell_angle_beta                 111.26(4)
_cell_angle_gamma                90
_cell_volume                     1038.43
_cell_formula_units_Z            4
_chemical_properties_physical    
'Crystals are highly deliquescent and hygroscopic'
loop_
_atom_site_label
_atom_site_type_symbol
_atom_site_fract_x
_atom_site_fract_y
_atom_site_fract_z
C1 C 0.0365(5) 0.1861(5) 0.1206(3)
N1 N 0.1850(4) 0.2219(4) 0.2035(2)
C2 C 0.3709(6) 0.2380(5) 0.1946(3)
C3 C 0.3653(6) 0.3591(6) 0.1315(3)
C4 C 0.2081(6) 0.3256(5) 0.0467(3)
N2 N 0.0249(4) 0.3047(4) 0.0587(2)
C5 C -0.1242(7) 0.2735(5) -0.0254(3)
C6 C -0.3153(6) 0.2526(5) -0.0171(3)
C7 C -0.2975(6) 0.1336(3) 0.0486(3)
N3 N -0.1473(4) 0.1702(4) 0.1310(2)
C8 C -0.1408(6) 0.0525(5) 0.1931(3)
C9 C 0.0118(7) 0.0868(5) 0.2798(3)
C10 C 0.1980(7) 0.1072(5) 0.2673(3)
H1 H 0.0638 0.095 0.100
H2 H 0.404 0.147 0.175
H3 H 0.465 0.262 0.249
H4 H 0.485 0.363 0.124
H5 H 0.341 0.452 0.153
H6 H 0.239 0.237 0.023
H7 H 0.197 0.406 0.008
H8 H -0.092 0.185 -0.049
H9 H -0.132 0.354 -0.063
H10 H -0.407 0.223 -0.071
H11 H -0.354 0.343 0.001
H12 H -0.267 0.042 0.028
H13 H -0.416 0.124 0.057
H14 H -0.112 -0.040 0.172
H15 H -0.262 0.046 0.199
H16 H 0.022 0.007 0.318
H17 H -0.021 0.176 0.303
H18 H 0.234 0.016 0.248
H19 H 0.294 0.135 0.321
loop_
_geom_bond_atom_site_label_1
_geom_bond_atom_site_label_2
_geom_bond_site_symmetry_1
_geom_bond_site_symmetry_2
C1 N1 1_555 1_555
N1 C2 1_555 1_555
C2 C3 1_555 1_555
C3 C4 1_555 1_555
C4 N2 1_555 1_555
N2 C1 1_555 1_555
C5 N2 1_555 1_555
C6 C5 1_555 1_555
C7 C6 1_555 1_555
N3 C1 1_555 1_555
C8 N3 1_555 1_555
C9 C8 1_555 1_555
C10 N1 1_555 1_555
H1 C1 1_555 1_555
H2 C2 1_555 1_555
H3 C2 1_555 1_555
H4 C3 1_555 1_555
H5 C3 1_555 1_555
H6 C4 1_555 1_555
H7 C4 1_555 1_555
H8 C5 1_555 1_555
H9 C5 1_555 1_555
H10 C6 1_555 1_555
H11 C6 1_555 1_555
H12 C7 1_555 1_555
H13 C7 1_555 1_555
H14 C8 1_555 1_555
H15 C8 1_555 1_555
H16 C9 1_555 1_555
H17 C9 1_555 1_555
H18 C10 1_555 1_555
H19 C10 1_555 1_555
C7 N3 1_555 1_555
C9 C10 1_555 1_555

#END
