
#######################################################################
#
#                 Cambridge Crystallographic Data Centre
#                                CCDC 
#
#######################################################################
#
# If this CIF has been generated from an entry in the Cambridge 
# Structural Database, then it will include bibliographic, chemical, 
# crystal, experimental, refinement or atomic coordinate data resulting 
# from the CCDC's data processing and validation procedures.
#
#######################################################################

data_FOLZAJ
_chemical_formula_moiety         'C24 H27 Cl3 N1 P1 Si1'
_chemical_name_systematic        
'N-(2,6-diisopropylphenyl)-P,P-diphenyl-N-(trichlorosilyl)phosphinous amide'
_symmetry_cell_setting           orthorhombic
_symmetry_space_group_name_H-M   'P 21 21 21'
_symmetry_Int_Tables_number      19
_space_group_name_Hall           'P 2ac 2ab'
loop_
_symmetry_equiv_pos_site_id
_symmetry_equiv_pos_as_xyz
1 x,y,z
2 1/2-x,-y,1/2+z
3 -x,1/2+y,1/2-z
4 1/2+x,1/2-y,-z
_cell_length_a                   12.199(2)
_cell_length_b                   13.993(3)
_cell_length_c                   14.587(3)
_cell_angle_alpha                90
_cell_angle_beta                 90
_cell_angle_gamma                90
_cell_volume                     2490.01
_exptl_crystal_colour            colorless
_exptl_crystal_description       rectangular
_cell_formula_units_Z            4
loop_
_atom_site_label
_atom_site_type_symbol
_atom_site_fract_x
_atom_site_fract_y
_atom_site_fract_z
Cl1 Cl 0.23375(4) 0.27708(5) 1.04449(4)
Cl2 Cl 0.40039(5) 0.12983(4) 0.95137(4)
Cl3 Cl 0.47161(5) 0.35171(4) 0.96938(4)
P1 P 0.18429(4) 0.21812(4) 0.80114(4)
Si1 Si 0.34290(4) 0.26550(4) 0.94038(4)
N1 N 0.29261(13) 0.29323(11) 0.83503(11)
C1 C 0.32438(15) 0.38086(14) 0.78810(13)
C2 C 0.27133(17) 0.46723(15) 0.81079(15)
C3 C 0.30056(18) 0.54912(15) 0.76215(16)
H1 H 0.2634 0.6073 0.7746
C4 C 0.38135(17) 0.54810(15) 0.69695(16)
H2 H 0.4002 0.6051 0.6653
C5 C 0.43520(16) 0.46380(15) 0.67752(14)
H3 H 0.4918 0.4637 0.6328
C6 C 0.40838(15) 0.37863(15) 0.72210(13)
C7 C 0.08143(16) 0.29862(16) 0.75262(15)
C8 C 0.09616(18) 0.35782(17) 0.67625(16)
H4 H 0.1655 0.3606 0.6467
C9 C 0.0104(2) 0.4120(2) 0.64391(18)
H5 H 0.0210 0.4518 0.5919
C10 C -0.0909(2) 0.4093(2) 0.6861(2)
H6 H -0.1496 0.4468 0.6630
C11 C -0.1061(2) 0.3521(2) 0.7616(2)
H7 H -0.1755 0.3507 0.7912
C12 C -0.02122(19) 0.29645(19) 0.79470(16)
H8 H -0.0329 0.2565 0.8465
C13 C 0.23340(17) 0.15263(15) 0.69946(15)
C14 C 0.32056(19) 0.08978(15) 0.71215(15)
H9 H 0.3562 0.0875 0.7700
C15 C 0.3565(2) 0.03058(16) 0.64246(17)
H10 H 0.4176 -0.0104 0.6519
C16 C 0.3029(2) 0.03140(18) 0.55889(17)
H11 H 0.3269 -0.0091 0.5107
C17 C 0.2147(2) 0.09105(19) 0.54583(18)
H12 H 0.1772 0.0909 0.4887
C18 C 0.18012(18) 0.15120(18) 0.61533(16)
H13 H 0.1191 0.1921 0.6054
C19 C 0.18983(19) 0.47875(16) 0.88882(16)
H14 H 0.1677 0.4136 0.9100
C20 C 0.2451(2) 0.5301(2) 0.96923(18)
H15 H 0.3115 0.4953 0.9870
H16 H 0.1945 0.5327 1.0213
H17 H 0.2648 0.5953 0.9507
C21 C 0.0865(2) 0.5330(2) 0.8620(2)
H18 H 0.0543 0.5037 0.8072
H19 H 0.1051 0.5998 0.8490
H20 H 0.0336 0.5304 0.9125
C22 C 0.47507(17) 0.29019(14) 0.69872(14)
H21 H 0.4464 0.2357 0.7360
C23 C 0.59564(18) 0.30524(16) 0.72382(17)
H22 H 0.6020 0.3165 0.7899
H23 H 0.6243 0.3606 0.6905
H24 H 0.6378 0.2482 0.7072
C24 C 0.4647(2) 0.26345(18) 0.59681(16)
H25 H 0.3876 0.2512 0.5821
H26 H 0.5080 0.2059 0.5845
H27 H 0.4920 0.3162 0.5590
loop_
_geom_bond_atom_site_label_1
_geom_bond_atom_site_label_2
_geom_bond_site_symmetry_1
_geom_bond_site_symmetry_2
Cl1 Si1 1_555 1_555
Cl2 Si1 1_555 1_555
Cl3 Si1 1_555 1_555
P1 N1 1_555 1_555
Si1 N1 1_555 1_555
N1 C1 1_555 1_555
C1 C2 1_555 1_555
C2 C3 1_555 1_555
C3 H1 1_555 1_555
C4 C3 1_555 1_555
H2 C4 1_555 1_555
C5 C4 1_555 1_555
H3 C5 1_555 1_555
C6 C1 1_555 1_555
C7 P1 1_555 1_555
C8 C7 1_555 1_555
H4 C8 1_555 1_555
C9 C8 1_555 1_555
H5 C9 1_555 1_555
C10 C9 1_555 1_555
H6 C10 1_555 1_555
C11 C10 1_555 1_555
H7 C11 1_555 1_555
C12 C7 1_555 1_555
H8 C12 1_555 1_555
C13 P1 1_555 1_555
C14 C13 1_555 1_555
H9 C14 1_555 1_555
C15 C14 1_555 1_555
H10 C15 1_555 1_555
C16 C15 1_555 1_555
H11 C16 1_555 1_555
C17 C16 1_555 1_555
H12 C17 1_555 1_555
C18 C13 1_555 1_555
H13 C18 1_555 1_555
C19 C2 1_555 1_555
H14 C19 1_555 1_555
C20 C19 1_555 1_555
H15 C20 1_555 1_555
H16 C20 1_555 1_555
H17 C20 1_555 1_555
C21 C19 1_555 1_555
H18 C21 1_555 1_555
H19 C21 1_555 1_555
H20 C21 1_555 1_555
C22 C6 1_555 1_555
H21 C22 1_555 1_555
C23 C22 1_555 1_555
H22 C23 1_555 1_555
H23 C23 1_555 1_555
H24 C23 1_555 1_555
C24 C22 1_555 1_555
H25 C24 1_555 1_555
H26 C24 1_555 1_555
H27 C24 1_555 1_555
C5 C6 1_555 1_555
C11 C12 1_555 1_555
C17 C18 1_555 1_555

#END
