
#######################################################################
#
#                 Cambridge Crystallographic Data Centre
#                                CCDC 
#
#######################################################################
#
# If this CIF has been generated from an entry in the Cambridge 
# Structural Database, then it will include bibliographic, chemical, 
# crystal, experimental, refinement or atomic coordinate data resulting 
# from the CCDC's data processing and validation procedures.
#
#######################################################################

data_FOMDOB
_chemical_formula_moiety         'C16 H14 F2 N2 O2'
_chemical_name_systematic        
2-(2-Acetylaminophenyl)-2,2-difluoro-N-phenylacetamide
_symmetry_cell_setting           triclinic
_symmetry_space_group_name_H-M   'P -1'
_symmetry_Int_Tables_number      2
_space_group_name_Hall           '-P 1'
loop_
_symmetry_equiv_pos_site_id
_symmetry_equiv_pos_as_xyz
1 x,y,z
2 -x,-y,-z
_cell_length_a                   5.0075(3)
_cell_length_b                   11.5863(11)
_cell_length_c                   12.2219(11)
_cell_angle_alpha                87.304(4)
_cell_angle_beta                 89.327(5)
_cell_angle_gamma                78.588(5)
_cell_volume                     694.305
_exptl_crystal_colour            colorless
_exptl_crystal_description       lath
_chemical_melting_point          '441-443 K'
_cell_formula_units_Z            2
_exptl_crystal_recrystallization_method ethanol
loop_
_atom_site_label
_atom_site_type_symbol
_atom_site_fract_x
_atom_site_fract_y
_atom_site_fract_z
C1 C 0.8719(4) 0.2949(2) 0.93715(18)
C2 C 0.9868(4) 0.1773(2) 0.91997(18)
C3 C 1.1706(4) 0.1134(2) 0.99494(19)
H1 H 1.2509 0.0337 0.9824
C4 C 1.2377(4) 0.1651(2) 1.08811(19)
H2 H 1.3649 0.1214 1.1391
C5 C 1.1180(4) 0.2811(2) 1.10632(19)
H3 H 1.1612 0.3166 1.1706
C6 C 0.9364(4) 0.3452(2) 1.03162(19)
H4 H 0.8547 0.4245 1.0450
C7 C 0.6777(4) 0.3652(2) 0.85571(19)
F1 F 0.4237(2) 0.33966(12) 0.87128(10)
F2 F 0.6438(2) 0.48327(12) 0.87449(11)
C8 C 0.7583(4) 0.3548(2) 0.73459(18)
O1 O 0.9882(3) 0.36692(14) 0.70680(12)
N1 N 0.5648(3) 0.33492(16) 0.66723(15)
H5 H 0.407(3) 0.3278(19) 0.6934(17)
C9 C 0.5910(4) 0.3236(2) 0.55235(19)
C10 C 0.4431(4) 0.2515(2) 0.5036(2)
H6 H 0.3319 0.2098 0.5472
C11 C 0.4564(4) 0.2399(2) 0.3916(2)
H7 H 0.3549 0.1899 0.3584
C12 C 0.6159(4) 0.3004(2) 0.3276(2)
H8 H 0.6258 0.2920 0.2506
C13 C 0.7612(4) 0.3734(2) 0.3764(2)
H9 H 0.8704 0.4159 0.3326
C14 C 0.7495(4) 0.3854(2) 0.48812(19)
H10 H 0.8500 0.4360 0.5210
N2 N 0.9183(3) 0.12263(16) 0.82493(15)
H11 H 0.745(3) 0.1188(19) 0.8147(17)
C15 C 1.1074(4) 0.0754(2) 0.74964(19)
O2 O 1.3506(3) 0.07682(14) 0.75924(13)
C16 C 0.9962(4) 0.0241(2) 0.6546(2)
H12 H 1.0268 0.0689 0.5871
H13 H 0.8004 0.0281 0.6650
H14 H 1.0885 -0.0583 0.6491
loop_
_geom_bond_atom_site_label_1
_geom_bond_atom_site_label_2
_geom_bond_site_symmetry_1
_geom_bond_site_symmetry_2
C1 C2 1_555 1_555
C2 C3 1_555 1_555
C3 H1 1_555 1_555
C4 C3 1_555 1_555
H2 C4 1_555 1_555
C5 C4 1_555 1_555
H3 C5 1_555 1_555
C6 C1 1_555 1_555
H4 C6 1_555 1_555
C7 C1 1_555 1_555
F1 C7 1_555 1_555
F2 C7 1_555 1_555
C8 C7 1_555 1_555
O1 C8 1_555 1_555
N1 C8 1_555 1_555
H5 N1 1_555 1_555
C9 N1 1_555 1_555
C10 C9 1_555 1_555
H6 C10 1_555 1_555
C11 C10 1_555 1_555
H7 C11 1_555 1_555
C12 C11 1_555 1_555
H8 C12 1_555 1_555
C13 C12 1_555 1_555
H9 C13 1_555 1_555
C14 C9 1_555 1_555
H10 C14 1_555 1_555
N2 C2 1_555 1_555
H11 N2 1_555 1_555
C15 N2 1_555 1_555
O2 C15 1_555 1_555
C16 C15 1_555 1_555
H12 C16 1_555 1_555
H13 C16 1_555 1_555
H14 C16 1_555 1_555
C5 C6 1_555 1_555
C13 C14 1_555 1_555

#END
