
#######################################################################
#
#                 Cambridge Crystallographic Data Centre
#                                CCDC 
#
#######################################################################
#
# If this CIF has been generated from an entry in the Cambridge 
# Structural Database, then it will include bibliographic, chemical, 
# crystal, experimental, refinement or atomic coordinate data resulting 
# from the CCDC's data processing and validation procedures.
#
#######################################################################

data_FOMDER
_chemical_formula_moiety         'C10 H8 Cl1 F2 N1 O3'
_chemical_name_systematic        
'2-(2-Acetylamino-5-chlorophenyl)-2,2-difluoroethanoic acid'
_symmetry_cell_setting           monoclinic
_symmetry_space_group_name_H-M   'P 21/c'
_symmetry_Int_Tables_number      14
_space_group_name_Hall           '-P 2ybc'
loop_
_symmetry_equiv_pos_site_id
_symmetry_equiv_pos_as_xyz
1 x,y,z
2 -x,1/2+y,1/2-z
3 -x,-y,-z
4 x,1/2-y,1/2+z
_cell_length_a                   11.5493(6)
_cell_length_b                   11.6207(6)
_cell_length_c                   8.5251(4)
_cell_angle_alpha                90
_cell_angle_beta                 107.334(2)
_cell_angle_gamma                90
_cell_volume                     1092.2
_exptl_crystal_colour            colorless
_exptl_crystal_description       plate
_chemical_melting_point          '438-440 K'
_cell_formula_units_Z            4
_exptl_crystal_recrystallization_method dichloromethane
loop_
_atom_site_label
_atom_site_type_symbol
_atom_site_fract_x
_atom_site_fract_y
_atom_site_fract_z
Cl1 Cl 1.05440(11) 0.17531(11) 0.70294(14)
C1 C 0.7870(4) 0.3601(4) 0.4051(5)
C2 C 0.7120(4) 0.2735(4) 0.3117(5)
C3 C 0.7452(4) 0.1612(4) 0.3365(5)
H1 H 0.6949 0.1035 0.2713
C4 C 0.8515(4) 0.1290(4) 0.4556(6)
H2 H 0.8749 0.0505 0.4713
C5 C 0.9213(4) 0.2132(4) 0.5493(5)
C6 C 0.8909(4) 0.3291(4) 0.5251(5)
H3 H 0.9415 0.3862 0.5910
C7 C 0.7621(4) 0.4866(4) 0.3629(5)
F1 F 0.7533(2) 0.50308(19) 0.2005(3)
F2 F 0.8608(2) 0.54914(19) 0.4463(3)
C8 C 0.6517(4) 0.5441(4) 0.3930(6)
O1 O 0.5668(3) 0.5789(2) 0.2840(3)
O2 O 0.6673(3) 0.5516(2) 0.5537(3)
H4 H 0.6090 0.5878 0.5700
N1 N 0.6000(3) 0.3016(3) 0.1902(4)
H5 H 0.592(3) 0.281(3) 0.088(4)
C9 C 0.5021(4) 0.3301(3) 0.2337(5)
O3 O 0.5064(2) 0.3392(2) 0.3814(3)
C10 C 0.3867(4) 0.3528(4) 0.0963(5)
H6 H 0.3188 0.3135 0.1201
H7 H 0.3957 0.3238 -0.0074
H8 H 0.3709 0.4358 0.0871
loop_
_geom_bond_atom_site_label_1
_geom_bond_atom_site_label_2
_geom_bond_site_symmetry_1
_geom_bond_site_symmetry_2
Cl1 C5 1_555 1_555
C1 C2 1_555 1_555
C2 C3 1_555 1_555
C3 H1 1_555 1_555
C4 C3 1_555 1_555
H2 C4 1_555 1_555
C5 C4 1_555 1_555
C6 C1 1_555 1_555
H3 C6 1_555 1_555
C7 C1 1_555 1_555
F1 C7 1_555 1_555
F2 C7 1_555 1_555
C8 C7 1_555 1_555
O1 C8 1_555 1_555
O2 C8 1_555 1_555
H4 O2 1_555 1_555
N1 C2 1_555 1_555
H5 N1 1_555 1_555
C9 N1 1_555 1_555
O3 C9 1_555 1_555
C10 C9 1_555 1_555
H6 C10 1_555 1_555
H7 C10 1_555 1_555
H8 C10 1_555 1_555
C5 C6 1_555 1_555

#END
