
#######################################################################
#
#                 Cambridge Crystallographic Data Centre
#                                CCDC 
#
#######################################################################
#
# If this CIF has been generated from an entry in the Cambridge 
# Structural Database, then it will include bibliographic, chemical, 
# crystal, experimental, refinement or atomic coordinate data resulting 
# from the CCDC's data processing and validation procedures.
#
#######################################################################

data_FOMDUI
_chemical_formula_moiety         'C5 H9 N6 O2 1+,C1 N5 O3 1-'
_chemical_name_systematic        
'amino(2-((4-methyl-5-oxido-1,2,5-oxadiazol-3-yl)methylene)hydrazino)methaniminium 5-nitro-2H-tetrazol-2-olate'
_symmetry_cell_setting           monoclinic
_symmetry_space_group_name_H-M   'P 21/n'
_symmetry_Int_Tables_number      14
_space_group_name_Hall           '-P 2yn'
loop_
_symmetry_equiv_pos_site_id
_symmetry_equiv_pos_as_xyz
1 x,y,z
2 1/2-x,1/2+y,1/2-z
3 -x,-y,-z
4 1/2+x,1/2-y,1/2+z
_cell_length_a                   11.3383(10)
_cell_length_b                   6.2879(5)
_cell_length_c                   18.1702(12)
_cell_angle_alpha                90
_cell_angle_beta                 104.761(3)
_cell_angle_gamma                90
_cell_volume                     1252.68
_cell_formula_units_Z            4
loop_
_atom_site_label
_atom_site_type_symbol
_atom_site_fract_x
_atom_site_fract_y
_atom_site_fract_z
C1 C -0.1696(2) 0.6131(3) 0.18282(12)
N1 N -0.26520(16) 0.5908(3) 0.12328(10)
N2 N -0.31441(17) 0.7837(3) 0.12272(10)
N3 N -0.25390(19) 0.9129(3) 0.17728(11)
N4 N -0.15906(18) 0.7994(3) 0.21656(10)
N5 N -0.08512(18) 0.4433(3) 0.21070(10)
O1 O -0.41083(15) 0.8410(3) 0.07429(9)
O2 O -0.00411(15) 0.4778(3) 0.26880(9)
O3 O -0.09980(16) 0.2755(3) 0.17604(9)
C2 C 0.3284(2) 0.6088(3) 0.40033(13)
C3 C 0.32486(19) 0.5252(3) 0.47195(12)
C4 C 0.2953(2) 0.5206(4) 0.32227(13)
H1 H 0.2085 0.5462 0.2990
H2 H 0.3113 0.3673 0.3243
H3 H 0.3441 0.5900 0.2918
C5 C 0.2709(2) 0.3275(3) 0.48930(12)
H4 H 0.2894 0.2741 0.5399
C6 C 0.0683(2) -0.0629(3) 0.40068(12)
N6 N 0.37727(18) 0.8003(3) 0.41382(11)
N7 N 0.37426(17) 0.6543(3) 0.52783(10)
N8 N 0.19821(16) 0.2272(3) 0.43536(9)
N9 N 0.14876(16) 0.0444(3) 0.45520(10)
H5 H 0.1691 -0.0019 0.5025
N10 N 0.02383(18) -0.2425(3) 0.41980(11)
H6 H -0.0274 -0.3180 0.3851
H7 H 0.0454 -0.2868 0.4673
N11 N 0.03916(17) 0.0105(3) 0.33072(10)
H8 H -0.0118 -0.0608 0.2945
H9 H 0.0706 0.1310 0.3200
O4 O 0.40983(15) 0.8325(2) 0.49586(9)
O5 O 0.39780(17) 0.9474(3) 0.37396(10)
loop_
_geom_bond_atom_site_label_1
_geom_bond_atom_site_label_2
_geom_bond_site_symmetry_1
_geom_bond_site_symmetry_2
C1 N1 1_555 1_555
N1 N2 1_555 1_555
N2 N3 1_555 1_555
N3 N4 1_555 1_555
N4 C1 1_555 1_555
N5 C1 1_555 1_555
O1 N2 1_555 1_555
O2 N5 1_555 1_555
O3 N5 1_555 1_555
C2 C3 1_555 1_555
C3 C5 1_555 1_555
C4 C2 1_555 1_555
H1 C4 1_555 1_555
H2 C4 1_555 1_555
H3 C4 1_555 1_555
C5 H4 1_555 1_555
C6 N9 1_555 1_555
N6 C2 1_555 1_555
N7 C3 1_555 1_555
N8 C5 1_555 1_555
N9 N8 1_555 1_555
H5 N9 1_555 1_555
N10 C6 1_555 1_555
H6 N10 1_555 1_555
H7 N10 1_555 1_555
N11 C6 1_555 1_555
H8 N11 1_555 1_555
H9 N11 1_555 1_555
O4 N6 1_555 1_555
O5 N6 1_555 1_555
N7 O4 1_555 1_555

#END
