
#######################################################################
#
#                 Cambridge Crystallographic Data Centre
#                                CCDC 
#
#######################################################################
#
# If this CIF has been generated from an entry in the Cambridge 
# Structural Database, then it will include bibliographic, chemical, 
# crystal, experimental, refinement or atomic coordinate data resulting 
# from the CCDC's data processing and validation procedures.
#
#######################################################################

data_FOMDUH
_chemical_formula_moiety         'C16 H13 Cl1 F2 N2 O2'
_chemical_name_systematic        
2-(2-Acetylaminophenyl)-N-(4-chlorophenyl)-2,2-difluoroacetamide
_symmetry_cell_setting           monoclinic
_symmetry_space_group_name_H-M   'P 21/c'
_symmetry_Int_Tables_number      14
_space_group_name_Hall           '-P 2ybc'
loop_
_symmetry_equiv_pos_site_id
_symmetry_equiv_pos_as_xyz
1 x,y,z
2 -x,1/2+y,1/2-z
3 -x,-y,-z
4 x,1/2-y,1/2+z
_cell_length_a                   16.5777(10)
_cell_length_b                   9.8176(6)
_cell_length_c                   9.6962(6)
_cell_angle_alpha                90
_cell_angle_beta                 96.0100(10)
_cell_angle_gamma                90
_cell_volume                     1569.41
_exptl_crystal_colour            colorless
_exptl_crystal_description       block
_chemical_melting_point          '445-446 K'
_cell_formula_units_Z            4
_exptl_crystal_recrystallization_method ethanol
loop_
_atom_site_label
_atom_site_type_symbol
_atom_site_fract_x
_atom_site_fract_y
_atom_site_fract_z
Cl1 Cl 0.01170(3) 0.18823(6) 0.43578(7)
F1 F 0.27633(7) 0.90550(12) 0.68363(10)
F2 F 0.16899(7) 1.00342(12) 0.58202(13)
O1 O 0.19474(9) 0.80925(14) 0.35353(12)
O2 O 0.41213(10) 0.78588(16) 0.24977(14)
N1 N 0.38773(9) 0.84251(16) 0.46752(15)
H1 H 0.3883(12) 0.811(2) 0.5468(17)
N2 N 0.19526(9) 0.69866(15) 0.55955(14)
H2 H 0.2098(11) 0.7069(19) 0.6452(16)
C1 C 0.29047(11) 1.02738(18) 0.47829(17)
C2 C 0.36331(11) 0.97876(18) 0.43722(17)
C3 C 0.41103(14) 1.0641(2) 0.3658(2)
H3 H 0.4599 1.0325 0.3391
C4 C 0.38634(17) 1.1956(2) 0.3342(3)
H4 H 0.4185 1.2521 0.2857
C5 C 0.31449(17) 1.2435(2) 0.3740(3)
H5 H 0.2979 1.3320 0.3518
C6 C 0.26699(14) 1.1605(2) 0.4470(2)
H6 H 0.2189 1.1939 0.4753
C7 C 0.23760(11) 0.93618(18) 0.55542(17)
C8 C 0.20835(10) 0.80480(18) 0.47912(17)
C9 C 0.40981(12) 0.7543(2) 0.37116(19)
C10 C 0.43105(18) 0.6149(2) 0.4238(3)
H7 H 0.4185 0.5498 0.3509
H8 H 0.4004 0.5941 0.4999
H9 H 0.4879 0.6109 0.4547
C11 C 0.15436(10) 0.57536(17) 0.52011(16)
C12 C 0.10771(11) 0.5570(2) 0.39396(18)
H10 H 0.1053 0.6252 0.3270
C13 C 0.06489(12) 0.4374(2) 0.36806(19)
H11 H 0.0340 0.4249 0.2833
C14 C 0.06770(11) 0.33733(19) 0.4666(2)
C15 C 0.11439(12) 0.35314(19) 0.5921(2)
H12 H 0.1166 0.2845 0.6585
C16 C 0.15764(12) 0.47168(19) 0.61774(18)
H13 H 0.1896 0.4825 0.7018
loop_
_geom_bond_atom_site_label_1
_geom_bond_atom_site_label_2
_geom_bond_site_symmetry_1
_geom_bond_site_symmetry_2
Cl1 C14 1_555 1_555
F1 C7 1_555 1_555
F2 C7 1_555 1_555
O1 C8 1_555 1_555
O2 C9 1_555 1_555
N1 H1 1_555 1_555
N2 H2 1_555 1_555
C1 C2 1_555 1_555
C2 N1 1_555 1_555
C3 C2 1_555 1_555
H3 C3 1_555 1_555
C4 C3 1_555 1_555
H4 C4 1_555 1_555
C5 C4 1_555 1_555
H5 C5 1_555 1_555
C6 C1 1_555 1_555
H6 C6 1_555 1_555
C7 C1 1_555 1_555
C8 N2 1_555 1_555
C9 N1 1_555 1_555
C10 C9 1_555 1_555
H7 C10 1_555 1_555
H8 C10 1_555 1_555
H9 C10 1_555 1_555
C11 N2 1_555 1_555
C12 C11 1_555 1_555
H10 C12 1_555 1_555
C13 C12 1_555 1_555
H11 C13 1_555 1_555
C14 C13 1_555 1_555
C15 C14 1_555 1_555
H12 C15 1_555 1_555
C16 C11 1_555 1_555
H13 C16 1_555 1_555
C5 C6 1_555 1_555
C7 C8 1_555 1_555
C15 C16 1_555 1_555

#END
