
#######################################################################
#
#                 Cambridge Crystallographic Data Centre
#                                CCDC 
#
#######################################################################
#
# If this CIF has been generated from an entry in the Cambridge 
# Structural Database, then it will include bibliographic, chemical, 
# crystal, experimental, refinement or atomic coordinate data resulting 
# from the CCDC's data processing and validation procedures.
#
#######################################################################

data_FOMDIV
_chemical_formula_moiety         'C11 H11 F2 N1 O3'
_chemical_name_systematic        
'2-(2-Acetylamino-5-methylphenyl)-2,2-difluoroethanoic acid'
_symmetry_cell_setting           monoclinic
_symmetry_space_group_name_H-M   'P 21'
_symmetry_Int_Tables_number      4
_space_group_name_Hall           'P 2yb'
loop_
_symmetry_equiv_pos_site_id
_symmetry_equiv_pos_as_xyz
1 x,y,z
2 -x,1/2+y,-z
_cell_length_a                   4.9174(3)
_cell_length_b                   8.3976(3)
_cell_length_c                   13.5487(7)
_cell_angle_alpha                90
_cell_angle_beta                 91.208(2)
_cell_angle_gamma                90
_cell_volume                     559.361
_exptl_crystal_colour            colorless
_exptl_crystal_description       block
_chemical_melting_point          '437-440 K'
_cell_formula_units_Z            2
_exptl_crystal_recrystallization_method methanol
loop_
_atom_site_label
_atom_site_type_symbol
_atom_site_fract_x
_atom_site_fract_y
_atom_site_fract_z
N1 N 0.2079(4) 0.7209(2) 0.64474(13)
H1 H 0.057(6) 0.785(4) 0.6580(19)
F1 F 0.6191(3) 0.99701(17) 0.85799(10)
F2 F 0.2010(3) 0.96433(18) 0.80550(9)
O1 O 0.7595(3) 0.9417(2) 0.65157(12)
O2 O 0.3876(3) 1.0957(2) 0.64915(12)
H2 H 0.4399 1.1205 0.5926
O3 O 0.4948(3) 0.6412(2) 0.52737(11)
C1 C 0.4956(5) 0.7441(3) 0.79353(16)
C2 C 0.3650(5) 0.6482(3) 0.72304(16)
C3 C 0.3980(5) 0.4854(3) 0.72678(17)
H3 H 0.3064 0.4196 0.6797
C4 C 0.5642(6) 0.4172(3) 0.79890(18)
H4 H 0.5862 0.3049 0.8003
C5 C 0.6997(5) 0.5104(3) 0.86941(17)
C6 C 0.6606(5) 0.6744(3) 0.86602(17)
H5 H 0.7484 0.7399 0.9141
C7 C 0.4635(5) 0.9216(3) 0.78698(16)
C8 C 0.5505(5) 0.9895(3) 0.68712(16)
C9 C 0.2843(5) 0.7131(3) 0.55001(16)
C10 C 0.1112(5) 0.7969(3) 0.47439(17)
H6 H -0.0541 0.8367 0.5052
H7 H 0.0613 0.7226 0.4213
H8 H 0.2127 0.8866 0.4471
C11 C 0.8875(6) 0.4355(4) 0.9455(2)
H9 H 0.9044 0.5058 1.0030
H10 H 1.0670 0.4194 0.9171
H11 H 0.8131 0.3326 0.9659
loop_
_geom_bond_atom_site_label_1
_geom_bond_atom_site_label_2
_geom_bond_site_symmetry_1
_geom_bond_site_symmetry_2
N1 H1 1_555 1_555
F1 C7 1_555 1_555
F2 C7 1_555 1_555
O1 C8 1_555 1_555
O2 H2 1_555 1_555
O3 C9 1_555 1_555
C1 C2 1_555 1_555
C2 N1 1_555 1_555
C3 C2 1_555 1_555
H3 C3 1_555 1_555
C4 C3 1_555 1_555
H4 C4 1_555 1_555
C5 C4 1_555 1_555
C6 C1 1_555 1_555
H5 C6 1_555 1_555
C7 C1 1_555 1_555
C8 O2 1_555 1_555
C9 N1 1_555 1_555
C10 C9 1_555 1_555
H6 C10 1_555 1_555
H7 C10 1_555 1_555
H8 C10 1_555 1_555
C11 C5 1_555 1_555
H9 C11 1_555 1_555
H10 C11 1_555 1_555
H11 C11 1_555 1_555
C5 C6 1_555 1_555
C7 C8 1_555 1_555

#END
