
#######################################################################
#
#                 Cambridge Crystallographic Data Centre
#                                CCDC 
#
#######################################################################
#
# If this CIF has been generated from an entry in the Cambridge 
# Structural Database, then it will include bibliographic, chemical, 
# crystal, experimental, refinement or atomic coordinate data resulting 
# from the CCDC's data processing and validation procedures.
#
#######################################################################

data_FOMFUJ
_chemical_formula_moiety         'C13 H18 N6 O2'
_chemical_name_systematic        
'Ethyl 5-amino-3-(4,6-dimethylpyrimidin-2-ylamino)-1-methyl-1H-pyrazole-4-carboxylate'
_symmetry_cell_setting           orthorhombic
_symmetry_space_group_name_H-M   'P 21 21 21'
_symmetry_Int_Tables_number      19
_space_group_name_Hall           'P 2ac 2ab'
loop_
_symmetry_equiv_pos_site_id
_symmetry_equiv_pos_as_xyz
1 x,y,z
2 1/2-x,-y,1/2+z
3 -x,1/2+y,1/2-z
4 1/2+x,1/2-y,-z
_cell_length_a                   7.5466(15)
_cell_length_b                   9.042(2)
_cell_length_c                   22.412(8)
_cell_angle_alpha                90
_cell_angle_beta                 90
_cell_angle_gamma                90
_cell_volume                     1529.31
_exptl_crystal_colour            yellow
_exptl_crystal_description       prism
_cell_formula_units_Z            4
_exptl_crystal_recrystallization_method ethanol
loop_
_atom_site_label
_atom_site_type_symbol
_atom_site_fract_x
_atom_site_fract_y
_atom_site_fract_z
N1 N 1.1476(3) 0.0360(2) 0.14949(8)
N2 N 0.9392(3) -0.0621(2) 0.07917(9)
N3 N 0.8989(3) 0.1682(2) 0.11810(8)
H1 H 0.801(2) 0.168(3) 0.0981(10)
N4 N 1.0657(2) 0.3276(2) 0.18130(8)
N5 N 1.0323(3) 0.4665(2) 0.20579(8)
N6 N 0.8102(3) 0.6522(3) 0.20842(10)
H2 H 0.840(4) 0.678(3) 0.2439(6)
H3 H 0.7034(19) 0.672(3) 0.1975(11)
O1 O 0.5761(2) 0.30987(19) 0.09362(7)
O2 O 0.5227(2) 0.5323(2) 0.13480(9)
C1 C 1.2426(3) -0.0891(3) 0.14458(11)
C2 C 1.1893(4) -0.2033(3) 0.10863(11)
H4 H 1.2557 -0.2897 0.1059
C3 C 1.0336(4) -0.1864(3) 0.07637(11)
C4 C 1.0024(3) 0.0425(3) 0.11612(9)
C5 C 0.9224(3) 0.2980(2) 0.14997(9)
C6 C 0.7943(3) 0.4123(3) 0.15343(9)
C7 C 0.8723(3) 0.5186(3) 0.19083(9)
C8 C 0.6205(3) 0.4271(3) 0.12755(10)
C9 C 0.4022(3) 0.3112(3) 0.06501(12)
H5 H 0.3898 0.3977 0.0398
H6 H 0.3090 0.3127 0.0948
C10 C 0.3915(4) 0.1735(3) 0.02862(11)
H7 H 0.4766 0.1782 -0.0032
H8 H 0.2746 0.1643 0.0122
H9 H 0.4164 0.0895 0.0534
C11 C 1.4110(4) -0.0949(4) 0.17995(16)
H10 H 1.4533 0.0038 0.1868
H11 H 1.4986 -0.1498 0.1582
H12 H 1.3891 -0.1425 0.2175
C12 C 0.9660(6) -0.3055(4) 0.03575(16)
H13 H 0.8399 -0.3141 0.0401
H14 H 1.0208 -0.3979 0.0460
H15 H 0.9941 -0.2809 -0.0048
C13 C 1.1718(3) 0.5367(3) 0.23903(11)
H16 H 1.1445 0.6396 0.2442
H17 H 1.2815 0.5270 0.2177
H18 H 1.1825 0.4904 0.2774
loop_
_geom_bond_atom_site_label_1
_geom_bond_atom_site_label_2
_geom_bond_site_symmetry_1
_geom_bond_site_symmetry_2
N1 C1 1_555 1_555
N2 C3 1_555 1_555
N3 H1 1_555 1_555
N4 N5 1_555 1_555
N5 C7 1_555 1_555
N6 H2 1_555 1_555
H3 N6 1_555 1_555
O1 C8 1_555 1_555
O2 C8 1_555 1_555
C1 C2 1_555 1_555
C2 H4 1_555 1_555
C3 C2 1_555 1_555
C4 N1 1_555 1_555
C5 N3 1_555 1_555
C6 C5 1_555 1_555
C7 N6 1_555 1_555
C8 C6 1_555 1_555
C9 O1 1_555 1_555
H5 C9 1_555 1_555
H6 C9 1_555 1_555
C10 C9 1_555 1_555
H7 C10 1_555 1_555
H8 C10 1_555 1_555
H9 C10 1_555 1_555
C11 C1 1_555 1_555
H10 C11 1_555 1_555
H11 C11 1_555 1_555
H12 C11 1_555 1_555
C12 C3 1_555 1_555
H13 C12 1_555 1_555
H14 C12 1_555 1_555
H15 C12 1_555 1_555
C13 N5 1_555 1_555
H16 C13 1_555 1_555
H17 C13 1_555 1_555
H18 C13 1_555 1_555
N2 C4 1_555 1_555
N3 C4 1_555 1_555
N4 C5 1_555 1_555
C6 C7 1_555 1_555

#END
