
#######################################################################
#
#                 Cambridge Crystallographic Data Centre
#                                CCDC 
#
#######################################################################
#
# If this CIF has been generated from an entry in the Cambridge 
# Structural Database, then it will include bibliographic, chemical, 
# crystal, experimental, refinement or atomic coordinate data resulting 
# from the CCDC's data processing and validation procedures.
#
#######################################################################

data_FOMFIX
_chemical_formula_moiety         'C6 H7 Br1 N1 1+,C8 H4 N1 O6 1-'
_chemical_name_systematic        '4-Bromoanilinium 2-carboxy-4-nitrobenzoate'
_symmetry_cell_setting           monoclinic
_symmetry_space_group_name_H-M   'C 2/c'
_symmetry_Int_Tables_number      15
_space_group_name_Hall           '-C 2yn'
loop_
_symmetry_equiv_pos_site_id
_symmetry_equiv_pos_as_xyz
1 x,y,z
2 1/2+x,1/2+y,z
3 -x,y,1/2-z
4 1/2-x,1/2+y,1/2-z
5 -x,-y,-z
6 1/2-x,1/2-y,-z
7 x,-y,1/2+z
8 1/2+x,1/2-y,1/2+z
_cell_length_a                   12.8292(6)
_cell_length_b                   7.5750(3)
_cell_length_c                   29.8202(13)
_cell_angle_alpha                90
_cell_angle_beta                 97.0270(11)
_cell_angle_gamma                90
_cell_volume                     2876.19
_exptl_crystal_colour            yellow
_exptl_crystal_description       plate
_cell_formula_units_Z            8
_exptl_crystal_recrystallization_method methanol
loop_
_atom_site_label
_atom_site_type_symbol
_atom_site_fract_x
_atom_site_fract_y
_atom_site_fract_z
Br1 Br 0.61674(3) 0.69202(5) 0.038369(11)
N1 N 0.57854(19) 0.2288(3) 0.20312(8)
C9 C 0.5863(2) 0.3418(4) 0.16380(10)
C10 C 0.5773(2) 0.2643(4) 0.12130(10)
C11 C 0.5858(2) 0.3691(5) 0.08350(10)
C12 C 0.6050(2) 0.5476(4) 0.08977(10)
C13 C 0.6143(2) 0.6252(4) 0.13219(11)
C14 C 0.6047(2) 0.5202(4) 0.16979(10)
H5 H 0.5976 0.2782 0.2280
H6 H 0.6234 0.1480 0.2028
H7 H 0.5196 0.1812 0.2038
H8 H 0.5653 0.1409 0.1180
H9 H 0.5787 0.3190 0.0541
H10 H 0.6271 0.7483 0.1356
H11 H 0.6108 0.5706 0.1992
O1 O 0.60484(17) 1.0181(3) 0.28699(7)
O2 O 0.69556(16) 0.7854(3) 0.26621(7)
O3 O 0.78231(15) 0.4467(3) 0.30440(7)
O4 O 0.60830(16) 0.4242(3) 0.28361(7)
O5 O 0.6037(2) 1.0871(4) 0.45001(8)
O6 O 0.6436(2) 0.8682(4) 0.49603(8)
N2 N 0.6276(2) 0.9318(4) 0.45811(9)
C1 C 0.6477(2) 0.7852(4) 0.33989(9)
C2 C 0.6679(2) 0.6045(4) 0.34655(9)
C3 C 0.6721(2) 0.5335(4) 0.38978(10)
C4 C 0.6579(2) 0.6384(5) 0.42661(10)
C5 C 0.6390(2) 0.8162(4) 0.41918(10)
C6 C 0.6328(2) 0.8919(4) 0.37662(10)
C7 C 0.6458(2) 0.8742(4) 0.29474(9)
C8 C 0.6857(2) 0.4830(4) 0.30779(9)
H1 H 0.6850 0.4108 0.3941
H2 H 0.6610 0.5895 0.4561
H3 H 0.6186 1.0143 0.3726
H4 H 0.6970 0.8379 0.2383
loop_
_geom_bond_atom_site_label_1
_geom_bond_atom_site_label_2
_geom_bond_site_symmetry_1
_geom_bond_site_symmetry_2
Br1 C12 1_555 1_555
O1 C7 1_555 1_555
O2 C7 1_555 1_555
O3 C8 1_555 1_555
O4 C8 1_555 1_555
O5 N2 1_555 1_555
O6 N2 1_555 1_555
N1 C9 1_555 1_555
N2 C5 1_555 1_555
C1 C2 1_555 1_555
C2 C3 1_555 1_555
C3 C4 1_555 1_555
C4 C5 1_555 1_555
C5 C6 1_555 1_555
C6 C1 1_555 1_555
C7 C1 1_555 1_555
C8 C2 1_555 1_555
C9 C10 1_555 1_555
C10 C11 1_555 1_555
C11 C12 1_555 1_555
C12 C13 1_555 1_555
C13 C14 1_555 1_555
C14 C9 1_555 1_555
H1 C3 1_555 1_555
H2 C4 1_555 1_555
H3 C6 1_555 1_555
H4 O2 1_555 1_555
H5 N1 1_555 1_555
H6 N1 1_555 1_555
H7 N1 1_555 1_555
H8 C10 1_555 1_555
H9 C11 1_555 1_555
H10 C13 1_555 1_555
H11 C14 1_555 1_555

#END
