
#######################################################################
#
#                 Cambridge Crystallographic Data Centre
#                                CCDC 
#
#######################################################################
#
# If this CIF has been generated from an entry in the Cambridge 
# Structural Database, then it will include bibliographic, chemical, 
# crystal, experimental, refinement or atomic coordinate data resulting 
# from the CCDC's data processing and validation procedures.
#
#######################################################################

data_FOMFOD
_chemical_formula_moiety         'C6 H7 I1 N1 1+,C8 H4 N1 O6 1-'
_chemical_name_systematic        '4-Iodoanilinium 2-carboxy-4-nitrobenzoate'
_symmetry_cell_setting           monoclinic
_symmetry_space_group_name_H-M   'C 2/c'
_symmetry_Int_Tables_number      15
_space_group_name_Hall           '-C 2yn'
loop_
_symmetry_equiv_pos_site_id
_symmetry_equiv_pos_as_xyz
1 x,y,z
2 1/2+x,1/2+y,z
3 -x,y,1/2-z
4 1/2-x,1/2+y,1/2-z
5 -x,-y,-z
6 1/2-x,1/2-y,-z
7 x,-y,1/2+z
8 1/2+x,1/2-y,1/2+z
_cell_length_a                   12.9459(3)
_cell_length_b                   7.55760(10)
_cell_length_c                   30.1790(6)
_cell_angle_alpha                90
_cell_angle_beta                 96.7840(10)
_cell_angle_gamma                90
_cell_volume                     2932.04
_exptl_crystal_colour            colorless
_exptl_crystal_description       plate
_cell_formula_units_Z            8
_exptl_crystal_recrystallization_method methanol
loop_
_atom_site_label
_atom_site_type_symbol
_atom_site_fract_x
_atom_site_fract_y
_atom_site_fract_z
I1 I 0.61731(3) 0.69745(4) 0.036131(11)
N1 N 0.5789(3) 0.2136(5) 0.20371(14)
C9 C 0.5858(4) 0.3271(6) 0.16485(17)
C10 C 0.5785(4) 0.2488(7) 0.12331(16)
C11 C 0.5873(4) 0.3537(7) 0.08557(17)
C12 C 0.6042(4) 0.5350(7) 0.09227(16)
C13 C 0.6123(4) 0.6108(7) 0.13403(18)
C14 C 0.6031(4) 0.5056(7) 0.17115(16)
H5 H 0.5935 0.2782 0.2291
H6 H 0.6254 0.1233 0.2036
H7 H 0.5134 0.1686 0.2026
H8 H 0.5677 0.1249 0.1203
H9 H 0.5820 0.3034 0.0565
H10 H 0.6241 0.7344 0.1375
H11 H 0.6086 0.5557 0.2002
O1 O 0.6038(3) 1.0038(5) 0.28572(12)
O2 O 0.6966(3) 0.7720(5) 0.26612(12)
O3 O 0.7804(2) 0.4323(4) 0.30370(11)
O4 O 0.6079(3) 0.4100(5) 0.28335(11)
O5 O 0.6043(3) 1.0773(5) 0.44712(13)
O6 O 0.6488(3) 0.8605(6) 0.49281(13)
N2 N 0.6308(3) 0.9228(6) 0.45517(15)
C1 C 0.6475(4) 0.7735(7) 0.33863(16)
C2 C 0.6671(3) 0.5930(6) 0.34531(16)
C3 C 0.6720(4) 0.5214(7) 0.38839(16)
C4 C 0.6593(4) 0.6279(7) 0.42440(17)
C5 C 0.6412(4) 0.8059(7) 0.41702(18)
C6 C 0.6332(4) 0.8812(7) 0.37498(16)
C7 C 0.6463(4) 0.8603(7) 0.29378(16)
C8 C 0.6844(4) 0.4688(6) 0.30713(15)
H1 H 0.6841 0.3983 0.3928
H2 H 0.6630 0.5798 0.4536
H3 H 0.6183 1.0036 0.3709
H4 H 0.6869 0.8194 0.2408
loop_
_geom_bond_atom_site_label_1
_geom_bond_atom_site_label_2
_geom_bond_site_symmetry_1
_geom_bond_site_symmetry_2
I1 C12 1_555 1_555
O1 C7 1_555 1_555
O2 C7 1_555 1_555
O3 C8 1_555 1_555
O4 C8 1_555 1_555
O5 N2 1_555 1_555
O6 N2 1_555 1_555
N1 C9 1_555 1_555
N2 C5 1_555 1_555
C1 C2 1_555 1_555
C2 C3 1_555 1_555
C3 C4 1_555 1_555
C4 C5 1_555 1_555
C5 C6 1_555 1_555
C6 C1 1_555 1_555
C7 C1 1_555 1_555
C8 C2 1_555 1_555
C9 C10 1_555 1_555
C10 C11 1_555 1_555
C11 C12 1_555 1_555
C12 C13 1_555 1_555
C13 C14 1_555 1_555
C14 C9 1_555 1_555
H1 C3 1_555 1_555
H2 C4 1_555 1_555
H3 C6 1_555 1_555
H4 O2 1_555 1_555
H5 N1 1_555 1_555
H6 N1 1_555 1_555
H7 N1 1_555 1_555
H8 C10 1_555 1_555
H9 C11 1_555 1_555
H10 C13 1_555 1_555
H11 C14 1_555 1_555

#END
