
#######################################################################
#
#                 Cambridge Crystallographic Data Centre
#                                CCDC 
#
#######################################################################
#
# If this CIF has been generated from an entry in the Cambridge 
# Structural Database, then it will include bibliographic, chemical, 
# crystal, experimental, refinement or atomic coordinate data resulting 
# from the CCDC's data processing and validation procedures.
#
#######################################################################

data_FOMFET
_chemical_formula_moiety         'C6 H7 Cl1 N1 1+,C8 H4 N1 O6 1-'
_chemical_name_systematic        '4-Chloroanilinium 2-carboxy-4-nitrobenzoate'
_symmetry_cell_setting           monoclinic
_symmetry_space_group_name_H-M   'C 2/c'
_symmetry_Int_Tables_number      15
_space_group_name_Hall           '-C 2yn'
loop_
_symmetry_equiv_pos_site_id
_symmetry_equiv_pos_as_xyz
1 x,y,z
2 1/2+x,1/2+y,z
3 -x,y,1/2-z
4 1/2-x,1/2+y,1/2-z
5 -x,-y,-z
6 1/2-x,1/2-y,-z
7 x,-y,1/2+z
8 1/2+x,1/2-y,1/2+z
_cell_length_a                   12.7725(16)
_cell_length_b                   7.5825(7)
_cell_length_c                   29.595(3)
_cell_angle_alpha                90
_cell_angle_beta                 97.202(5)
_cell_angle_gamma                90
_cell_volume                     2843.59
_exptl_crystal_colour            colorless
_exptl_crystal_description       needle
_cell_formula_units_Z            8
_exptl_crystal_recrystallization_method methanol
loop_
_atom_site_label
_atom_site_type_symbol
_atom_site_fract_x
_atom_site_fract_y
_atom_site_fract_z
Cl1 Cl 0.61546(12) 0.68804(18) 0.04099(4)
N1 N 0.5783(3) 0.2400(5) 0.20265(11)
C9 C 0.5860(4) 0.3518(6) 0.16311(15)
C10 C 0.5761(4) 0.2752(6) 0.12067(15)
C11 C 0.5836(4) 0.3782(6) 0.08268(15)
C12 C 0.6039(4) 0.5563(7) 0.08869(16)
C13 C 0.6148(4) 0.6341(6) 0.13114(15)
C14 C 0.6048(4) 0.5303(6) 0.16881(15)
H5 H 0.5973 0.2894 0.2275
H6 H 0.6231 0.1592 0.2023
H7 H 0.5194 0.1925 0.2033
H8 H 0.5642 0.1519 0.1175
H9 H 0.5749 0.3277 0.0531
H10 H 0.6290 0.7567 0.1345
H11 H 0.6108 0.5814 0.1983
O1 O 0.6049(3) 1.0273(4) 0.28725(11)
O2 O 0.6949(3) 0.7956(4) 0.26645(10)
O3 O 0.7832(2) 0.4576(4) 0.30470(10)
O4 O 0.6085(3) 0.4339(4) 0.28400(10)
O5 O 0.6030(3) 1.0940(5) 0.45151(12)
O6 O 0.6394(3) 0.8740(5) 0.49757(11)
N2 N 0.6257(3) 0.9394(6) 0.45953(13)
C1 C 0.6481(4) 0.7952(6) 0.34041(14)
C2 C 0.6682(4) 0.6139(6) 0.34701(15)
C3 C 0.6721(4) 0.5426(6) 0.39027(15)
C4 C 0.6576(4) 0.6463(6) 0.42737(15)
C5 C 0.6378(4) 0.8240(6) 0.42008(15)
C6 C 0.6334(4) 0.9002(6) 0.37762(15)
C7 C 0.6457(4) 0.8847(6) 0.29513(15)
C8 C 0.6864(4) 0.4924(6) 0.30806(14)
H1 H 0.6849 0.4200 0.3945
H2 H 0.6612 0.5970 0.4570
H3 H 0.6205 1.0230 0.3738
H4 H 0.6963 0.8481 0.2386
loop_
_geom_bond_atom_site_label_1
_geom_bond_atom_site_label_2
_geom_bond_site_symmetry_1
_geom_bond_site_symmetry_2
Cl1 C12 1_555 1_555
O1 C7 1_555 1_555
O2 C7 1_555 1_555
O3 C8 1_555 1_555
O4 C8 1_555 1_555
O5 N2 1_555 1_555
O6 N2 1_555 1_555
N1 C9 1_555 1_555
N2 C5 1_555 1_555
C1 C2 1_555 1_555
C2 C3 1_555 1_555
C3 C4 1_555 1_555
C4 C5 1_555 1_555
C5 C6 1_555 1_555
C6 C1 1_555 1_555
C7 C1 1_555 1_555
C8 C2 1_555 1_555
C9 C10 1_555 1_555
C10 C11 1_555 1_555
C11 C12 1_555 1_555
C12 C13 1_555 1_555
C13 C14 1_555 1_555
C14 C9 1_555 1_555
H1 C3 1_555 1_555
H2 C4 1_555 1_555
H3 C6 1_555 1_555
H4 O2 1_555 1_555
H5 N1 1_555 1_555
H6 N1 1_555 1_555
H7 N1 1_555 1_555
H8 C10 1_555 1_555
H9 C11 1_555 1_555
H10 C13 1_555 1_555
H11 C14 1_555 1_555

#END
