
#######################################################################
#
#                 Cambridge Crystallographic Data Centre
#                                CCDC 
#
#######################################################################
#
# If this CIF has been generated from an entry in the Cambridge 
# Structural Database, then it will include bibliographic, chemical, 
# crystal, experimental, refinement or atomic coordinate data resulting 
# from the CCDC's data processing and validation procedures.
#
#######################################################################

data_FOMGAQ
_chemical_formula_moiety         'C18 H19 N7 O6 S1'
_chemical_name_systematic        
'Ethyl 5-amino-3-(4,6-dimethylpyrimidin-2-ylamino)-1-(2-nitrophenylsulfonyl)-1H-pyrazole-4-carboxylate'
_symmetry_cell_setting           monoclinic
_symmetry_space_group_name_H-M   'P 21/c'
_symmetry_Int_Tables_number      14
_space_group_name_Hall           '-P 2ybc'
loop_
_symmetry_equiv_pos_site_id
_symmetry_equiv_pos_as_xyz
1 x,y,z
2 -x,1/2+y,1/2-z
3 -x,-y,-z
4 x,1/2-y,1/2+z
_cell_length_a                   10.536(2)
_cell_length_b                   13.715(3)
_cell_length_c                   14.443(3)
_cell_angle_alpha                90
_cell_angle_beta                 93.570(8)
_cell_angle_gamma                90
_cell_volume                     2082.98
_exptl_crystal_colour            yellow
_exptl_crystal_description       prism
_cell_formula_units_Z            4
_exptl_crystal_recrystallization_method ethanol
loop_
_atom_site_label
_atom_site_type_symbol
_atom_site_fract_x
_atom_site_fract_y
_atom_site_fract_z
S1 S 0.57284(6) 0.12638(5) 0.22549(5)
N1 N 0.69234(18) 0.05903(14) 0.26817(14)
N2 N 0.78835(19) 0.10974(14) 0.32040(14)
N3 N 0.6384(2) -0.10196(16) 0.21611(17)
H1 H 0.575(2) -0.0796(19) 0.1806(17)
H2 H 0.664(3) -0.1613(10) 0.215(2)
N4 N 0.98180(19) 0.05405(15) 0.39663(16)
H3 H 1.025(2) 0.0004(12) 0.4048(19)
N5 N 0.9867(2) 0.22207(15) 0.40477(14)
N6 N 1.16411(19) 0.12307(16) 0.45559(15)
N7 N 0.6725(3) 0.11561(18) 0.02380(18)
O1 O 0.49884(15) 0.06442(13) 0.16489(13)
O2 O 0.51682(18) 0.17169(15) 0.30025(14)
O3 O 1.00872(17) -0.14395(13) 0.36592(14)
O4 O 0.84198(16) -0.22107(12) 0.29616(12)
O5 O 0.7269(3) 0.04895(16) 0.06355(17)
O6 O 0.6219(3) 0.11078(19) -0.05265(18)
C1 C 0.7172(2) -0.03886(17) 0.26109(16)
C2 C 0.8317(2) -0.05307(17) 0.31064(16)
C3 C 0.8694(2) 0.04090(17) 0.34392(16)
C4 C 1.0454(2) 0.13825(18) 0.41982(17)
C5 C 1.0572(3) 0.30159(19) 0.42412(18)
C6 C 1.1811(3) 0.2942(2) 0.45954(19)
H4 H 1.2296 0.3498 0.4724
C7 C 1.2319(3) 0.2031(2) 0.47556(19)
C8 C 0.9927(3) 0.3963(2) 0.4053(3)
H5 H 0.9428 0.3927 0.3475
H6 H 1.0553 0.4469 0.4019
H7 H 0.9382 0.4107 0.4544
C9 C 1.3653(3) 0.1879(3) 0.5150(3)
H8 H 1.3683 0.1316 0.5544
H9 H 1.3925 0.2442 0.5504
H10 H 1.4205 0.1783 0.4654
C10 C 0.9035(2) -0.14145(17) 0.32715(17)
C11 C 0.9102(3) -0.31255(17) 0.31087(19)
H11 H 0.9441 -0.3175 0.3747
H12 H 0.9801 -0.3166 0.2704
C12 C 0.8169(3) -0.3917(2) 0.2893(2)
H13 H 0.7532 -0.3911 0.3340
H14 H 0.8599 -0.4534 0.2915
H15 H 0.7773 -0.3818 0.2283
C13 C 0.6420(2) 0.21922(17) 0.16187(18)
C14 C 0.6728(2) 0.20987(18) 0.07062(19)
C15 C 0.7072(3) 0.2879(2) 0.0193(2)
H16 H 0.7267 0.2798 -0.0422
C16 C 0.7128(3) 0.3781(2) 0.0594(3)
H17 H 0.7360 0.4319 0.0251
C17 C 0.6846(3) 0.3895(2) 0.1487(3)
H18 H 0.6897 0.4511 0.1755
C18 C 0.6484(3) 0.3110(2) 0.2007(2)
H19 H 0.6283 0.3200 0.2619
loop_
_geom_bond_atom_site_label_1
_geom_bond_atom_site_label_2
_geom_bond_site_symmetry_1
_geom_bond_site_symmetry_2
S1 N1 1_555 1_555
N1 N2 1_555 1_555
N2 C3 1_555 1_555
N3 H1 1_555 1_555
H2 N3 1_555 1_555
N4 H3 1_555 1_555
N5 C4 1_555 1_555
N6 C4 1_555 1_555
N7 O5 1_555 1_555
O1 S1 1_555 1_555
O2 S1 1_555 1_555
O3 C10 1_555 1_555
O4 C10 1_555 1_555
O6 N7 1_555 1_555
C1 N1 1_555 1_555
C2 C1 1_555 1_555
C3 N4 1_555 1_555
C4 N4 1_555 1_555
C5 N5 1_555 1_555
C6 C5 1_555 1_555
H4 C6 1_555 1_555
C7 N6 1_555 1_555
C8 C5 1_555 1_555
H5 C8 1_555 1_555
H6 C8 1_555 1_555
H7 C8 1_555 1_555
C9 C7 1_555 1_555
H8 C9 1_555 1_555
H9 C9 1_555 1_555
H10 C9 1_555 1_555
C10 C2 1_555 1_555
C11 O4 1_555 1_555
H11 C11 1_555 1_555
H12 C11 1_555 1_555
C12 C11 1_555 1_555
H13 C12 1_555 1_555
H14 C12 1_555 1_555
H15 C12 1_555 1_555
C13 S1 1_555 1_555
C14 N7 1_555 1_555
C15 C14 1_555 1_555
H16 C15 1_555 1_555
C16 C15 1_555 1_555
H17 C16 1_555 1_555
C17 C16 1_555 1_555
H18 C17 1_555 1_555
C18 C13 1_555 1_555
H19 C18 1_555 1_555
N3 C1 1_555 1_555
C2 C3 1_555 1_555
C6 C7 1_555 1_555
C13 C14 1_555 1_555
C17 C18 1_555 1_555

#END
