
#######################################################################
#
#                 Cambridge Crystallographic Data Centre
#                                CCDC 
#
#######################################################################
#
# If this CIF has been generated from an entry in the Cambridge 
# Structural Database, then it will include bibliographic, chemical, 
# crystal, experimental, refinement or atomic coordinate data resulting 
# from the CCDC's data processing and validation procedures.
#
#######################################################################

data_FOMJIB
_chemical_formula_moiety         'C21 H28 N2 O4'
_chemical_name_systematic        
5-(3,5-Di-t-butyl-4-hydroxybenzylidene)-1,3-dimethylpyrimidine-2,4,6(1H,3H,5H)-trione
_symmetry_cell_setting           triclinic
_symmetry_space_group_name_H-M   'P -1'
_symmetry_Int_Tables_number      2
_space_group_name_Hall           '-P 1'
loop_
_symmetry_equiv_pos_site_id
_symmetry_equiv_pos_as_xyz
1 x,y,z
2 -x,-y,-z
_cell_length_a                   9.6040(3)
_cell_length_b                   11.6691(4)
_cell_length_c                   17.2905(6)
_cell_angle_alpha                97.4860(16)
_cell_angle_beta                 92.5540(18)
_cell_angle_gamma                90.006(2)
_cell_volume                     1919.29
_exptl_crystal_colour            colorless
_exptl_crystal_description       plate
_chemical_melting_point          467-469K
_cell_formula_units_Z            4
_exptl_crystal_recrystallization_method ethanol
loop_
_atom_site_label
_atom_site_type_symbol
_atom_site_fract_x
_atom_site_fract_y
_atom_site_fract_z
O1 O 0.7077(2) 0.13004(18) -0.17598(11)
O2 O 0.37508(19) 0.23145(17) -0.00358(11)
O3 O 0.77518(19) 0.02010(17) 0.06284(11)
O4 O 0.57647(17) 0.02617(16) 0.41750(10)
N1 N 0.7265(2) 0.06075(18) -0.05909(12)
N2 N 0.5390(2) 0.17927(18) -0.08993(12)
C1 C 0.8516(3) -0.0028(3) -0.08424(17)
C2 C 0.6622(3) 0.1244(2) -0.11189(14)
C3 C 0.4561(3) 0.2335(2) -0.14836(15)
C4 C 0.4862(3) 0.1843(2) -0.01632(15)
C5 C 0.5708(2) 0.1302(2) 0.04306(14)
C6 C 0.6972(3) 0.0675(2) 0.01920(14)
C7 C 0.5461(2) 0.1113(2) 0.19224(14)
C8 C 0.6621(2) 0.05066(19) 0.21618(14)
C9 C 0.6779(2) 0.02111(19) 0.29172(14)
C10 C 0.5707(2) 0.05327(19) 0.34287(13)
C11 C 0.4529(2) 0.1170(2) 0.32182(14)
C12 C 0.4446(2) 0.14450(19) 0.24639(14)
C13 C 0.5158(2) 0.1451(2) 0.11505(14)
C14 C 0.8086(2) -0.0437(2) 0.31671(14)
C15 C 0.9117(3) -0.0630(2) 0.25124(16)
C16 C 0.7702(3) -0.1643(2) 0.33773(16)
C17 C 0.8878(3) 0.0277(2) 0.38685(16)
C18 C 0.3397(2) 0.1549(2) 0.37969(14)
C19 C 0.2212(2) 0.2194(2) 0.34188(15)
C20 C 0.2728(3) 0.0480(2) 0.40766(16)
C21 C 0.4017(3) 0.2356(2) 0.44972(15)
H1 H 0.9339 0.0464 -0.0703
H2 H 0.8445 -0.0249 -0.1409
H3 H 0.8599 -0.0725 -0.0583
H4 H 0.3637 0.1971 -0.1559
H5 H 0.5030 0.2235 -0.1979
H6 H 0.4462 0.3161 -0.1303
H7 H 0.9372 0.0116 0.2354
H8 H 0.8683 -0.1123 0.2064
H9 H 0.9955 -0.1007 0.2700
H10 H 0.7255 -0.2106 0.2920
H11 H 0.7058 -0.1555 0.3805
H12 H 0.8549 -0.2032 0.3540
H13 H 0.9709 -0.0145 0.4017
H14 H 0.8268 0.0404 0.4311
H15 H 0.9157 0.1024 0.3721
H16 H 0.1515 0.2427 0.3805
H17 H 0.1776 0.1686 0.2979
H18 H 0.2589 0.2883 0.3230
H19 H 0.3440 0.0062 0.4350
H20 H 0.2332 -0.0029 0.3625
H21 H 0.1988 0.0730 0.4432
H22 H 0.4437 0.3032 0.4314
H23 H 0.4733 0.1944 0.4772
H24 H 0.3279 0.2609 0.4853
H25 H 0.7322 0.0290 0.1801
H26 H 0.6500 -0.0097 0.4265
H27 H 0.3669 0.1877 0.2306
H28 H 0.4340 0.1907 0.1148
O5 O 0.7640(2) 0.62967(18) -0.17663(11)
O6 O 1.12450(19) 0.73157(17) -0.00405(11)
O7 O 0.73439(19) 0.52023(17) 0.06211(10)
O8 O 0.98200(18) 0.52583(16) 0.41712(10)
N3 N 0.7640(2) 0.56069(18) -0.05950(12)
N4 N 0.9465(2) 0.67948(18) -0.09033(12)
C22 C 0.6347(3) 0.4968(3) -0.08484(17)
C23 C 0.8201(3) 0.6242(2) -0.11278(14)
C24 C 1.0195(3) 0.7336(2) -0.14897(15)
C25 C 1.0108(3) 0.6840(2) -0.01701(14)
C26 C 0.9358(2) 0.6300(2) 0.04244(14)
C27 C 0.8055(3) 0.5676(2) 0.01895(14)
C28 C 0.9846(2) 0.61063(19) 0.19149(14)
C29 C 0.8722(2) 0.55038(19) 0.21561(13)
C30 C 0.8678(2) 0.52121(19) 0.29108(14)
C31 C 0.9822(2) 0.5542(2) 0.34276(13)
C32 C 1.0972(2) 0.61689(19) 0.32165(13)
C33 C 1.0944(2) 0.6437(2) 0.24588(14)
C34 C 1.0025(2) 0.6444(2) 0.11460(14)
C35 C 0.7412(2) 0.4561(2) 0.31593(14)
C36 C 0.6289(3) 0.4348(2) 0.24965(15)
C37 C 0.7836(3) 0.3369(2) 0.33841(16)
C38 C 0.6727(3) 0.5286(2) 0.38463(15)
C39 C 1.2204(2) 0.6555(2) 0.37934(14)
C40 C 1.3332(3) 0.7181(2) 0.34047(15)
C41 C 1.2917(3) 0.5506(2) 0.40860(17)
C42 C 1.1696(3) 0.7406(2) 0.44770(15)
H29 H 0.5544 0.5464 -0.0718
H30 H 0.6298 0.4279 -0.0582
H31 H 0.6335 0.4737 -0.1414
H32 H 1.0324 0.8162 -0.1310
H33 H 0.9642 0.7236 -0.1984
H34 H 1.1106 0.6972 -0.1567
H35 H 0.5488 0.3954 0.2678
H36 H 0.6671 0.3865 0.2050
H37 H 0.5990 0.5089 0.2338
H38 H 0.8552 0.3471 0.3810
H39 H 0.8208 0.2895 0.2931
H40 H 0.7019 0.2984 0.3555
H41 H 0.6358 0.6000 0.3676
H42 H 0.7422 0.5478 0.4276
H43 H 0.5964 0.4842 0.4024
H44 H 1.2921 0.7844 0.3186
H45 H 1.3724 0.6648 0.2986
H46 H 1.4073 0.7452 0.3794
H47 H 1.3717 0.5767 0.4437
H48 H 1.3238 0.4984 0.3640
H49 H 1.2253 0.5098 0.4368
H50 H 1.2476 0.7619 0.4853
H51 H 1.0958 0.7040 0.4734
H52 H 1.1331 0.8102 0.4279
H53 H 0.7965 0.5286 0.1795
H54 H 0.9094 0.4897 0.4249
H55 H 1.1701 0.6863 0.2301
H56 H 1.0846 0.6899 0.1144
loop_
_geom_bond_atom_site_label_1
_geom_bond_atom_site_label_2
_geom_bond_site_symmetry_1
_geom_bond_site_symmetry_2
O1 C2 1_555 1_555
O2 C4 1_555 1_555
O3 C6 1_555 1_555
O4 C10 1_555 1_555
N1 C1 1_555 1_555
N2 C2 1_555 1_555
C1 H1 1_555 1_555
C2 N1 1_555 1_555
C3 N2 1_555 1_555
C4 N2 1_555 1_555
C5 C4 1_555 1_555
C6 N1 1_555 1_555
C7 C8 1_555 1_555
C8 C9 1_555 1_555
C9 C10 1_555 1_555
C10 C11 1_555 1_555
C11 C12 1_555 1_555
C12 C7 1_555 1_555
C13 C5 1_555 1_555
C14 C9 1_555 1_555
C15 C14 1_555 1_555
C16 C14 1_555 1_555
C17 C14 1_555 1_555
C18 C11 1_555 1_555
C19 C18 1_555 1_555
C20 C18 1_555 1_555
C21 C18 1_555 1_555
O5 C23 1_555 1_555
O6 C25 1_555 1_555
O7 C27 1_555 1_555
O8 C31 1_555 1_555
N3 C22 1_555 1_555
N4 C23 1_555 1_555
C22 H29 1_555 1_555
C23 N3 1_555 1_555
C24 N4 1_555 1_555
C25 N4 1_555 1_555
C26 C25 1_555 1_555
C27 N3 1_555 1_555
C28 C29 1_555 1_555
C29 C30 1_555 1_555
C30 C31 1_555 1_555
C31 C32 1_555 1_555
C32 C33 1_555 1_555
C33 C28 1_555 1_555
C34 C26 1_555 1_555
C35 C30 1_555 1_555
C36 C35 1_555 1_555
C37 C35 1_555 1_555
C38 C35 1_555 1_555
C39 C32 1_555 1_555
C40 C39 1_555 1_555
C41 C39 1_555 1_555
C42 C39 1_555 1_555
H2 C1 1_555 1_555
H3 C1 1_555 1_555
H4 C3 1_555 1_555
H5 C3 1_555 1_555
H6 C3 1_555 1_555
H7 C15 1_555 1_555
H8 C15 1_555 1_555
H9 C15 1_555 1_555
H10 C16 1_555 1_555
H11 C16 1_555 1_555
H12 C16 1_555 1_555
H13 C17 1_555 1_555
H14 C17 1_555 1_555
H15 C17 1_555 1_555
H16 C19 1_555 1_555
H17 C19 1_555 1_555
H18 C19 1_555 1_555
H19 C20 1_555 1_555
H20 C20 1_555 1_555
H21 C20 1_555 1_555
H22 C21 1_555 1_555
H23 C21 1_555 1_555
H24 C21 1_555 1_555
H25 C8 1_555 1_555
H26 O4 1_555 1_555
H27 C12 1_555 1_555
H28 C13 1_555 1_555
H30 C22 1_555 1_555
H31 C22 1_555 1_555
H32 C24 1_555 1_555
H33 C24 1_555 1_555
H34 C24 1_555 1_555
H35 C36 1_555 1_555
H36 C36 1_555 1_555
H37 C36 1_555 1_555
H38 C37 1_555 1_555
H39 C37 1_555 1_555
H40 C37 1_555 1_555
H41 C38 1_555 1_555
H42 C38 1_555 1_555
H43 C38 1_555 1_555
H44 C40 1_555 1_555
H45 C40 1_555 1_555
H46 C40 1_555 1_555
H47 C41 1_555 1_555
H48 C41 1_555 1_555
H49 C41 1_555 1_555
H50 C42 1_555 1_555
H51 C42 1_555 1_555
H52 C42 1_555 1_555
H53 C29 1_555 1_555
H54 O8 1_555 1_555
H55 C33 1_555 1_555
H56 C34 1_555 1_555
C5 C6 1_555 1_555
C7 C13 1_555 1_555
C26 C27 1_555 1_555
C28 C34 1_555 1_555

#END
