
#######################################################################
#
#                 Cambridge Crystallographic Data Centre
#                                CCDC 
#
#######################################################################
#
# If this CIF has been generated from an entry in the Cambridge 
# Structural Database, then it will include bibliographic, chemical, 
# crystal, experimental, refinement or atomic coordinate data resulting 
# from the CCDC's data processing and validation procedures.
#
#######################################################################

data_FOMJAT
_chemical_formula_moiety         'C14 H14 N2 O4'
_chemical_name_systematic        
5-(4-Methoxybenzylidene)-1,3-dimethylpyrimidine-2,4,6(1H,3H,5H)-trione
_symmetry_cell_setting           triclinic
_symmetry_space_group_name_H-M   'P -1'
_symmetry_Int_Tables_number      2
_space_group_name_Hall           '-P 1'
loop_
_symmetry_equiv_pos_site_id
_symmetry_equiv_pos_as_xyz
1 x,y,z
2 -x,-y,-z
_cell_length_a                   7.5906(6)
_cell_length_b                   8.2989(7)
_cell_length_c                   10.3010(10)
_cell_angle_alpha                92.544(6)
_cell_angle_beta                 93.074(5)
_cell_angle_gamma                104.456(6)
_cell_volume                     626.328
_exptl_crystal_colour            yellow
_exptl_crystal_description       block
_chemical_melting_point          416-418K
_cell_formula_units_Z            2
_exptl_crystal_recrystallization_method acetonitrile
loop_
_atom_site_label
_atom_site_type_symbol
_atom_site_fract_x
_atom_site_fract_y
_atom_site_fract_z
O1 O 0.80386(15) 0.66484(13) 0.02844(11)
O2 O 0.28789(15) 0.68329(14) 0.22215(11)
O3 O 0.6058(2) 0.27431(18) 0.31566(15)
O4 O 0.06981(15) -0.02267(13) 0.75913(10)
N1 N 0.70274(16) 0.46844(15) 0.17228(12)
N2 N 0.54470(16) 0.67320(15) 0.12473(12)
C1 C 0.8602(2) 0.4008(2) 0.14631(17)
C2 C 0.6911(2) 0.60604(18) 0.10441(14)
C3 C 0.5412(2) 0.82590(19) 0.05854(16)
C4 C 0.4109(2) 0.61423(18) 0.21020(14)
C5 C 0.4288(2) 0.46904(17) 0.28419(14)
C6 C 0.5818(2) 0.3956(2) 0.26236(16)
C7 C 0.2466(2) 0.29635(17) 0.46490(14)
C8 C 0.3482(2) 0.18855(18) 0.51359(14)
C9 C 0.2848(2) 0.08393(19) 0.61038(14)
C10 C 0.1182(2) 0.08340(18) 0.66308(14)
C11 C 0.0146(2) 0.18777(18) 0.61722(14)
C12 C 0.0794(2) 0.29082(19) 0.51902(15)
C13 C 0.2951(2) 0.41808(18) 0.36788(14)
C14 C -0.0955(2) -0.0211(2) 0.82071(16)
H1 H 0.8576 0.3705 0.0531
H2 H 0.8544 0.3017 0.1958
H3 H 0.9734 0.4852 0.1728
H4 H 0.4287 0.8583 0.0759
H5 H 0.5459 0.8054 -0.0355
H6 H 0.6467 0.9158 0.0911
H7 H 0.4617 0.1880 0.4792
H8 H 0.3546 0.0116 0.6416
H9 H -0.0867 0.0908 0.8595
H10 H -0.1135 -0.1013 0.8889
H11 H -0.1991 -0.0519 0.7557
H12 H -0.0983 0.1885 0.6525
H13 H 0.0076 0.3609 0.4868
H14 H 0.2073 0.4817 0.3601
loop_
_geom_bond_atom_site_label_1
_geom_bond_atom_site_label_2
_geom_bond_site_symmetry_1
_geom_bond_site_symmetry_2
O1 C2 1_555 1_555
O2 C4 1_555 1_555
O3 C6 1_555 1_555
O4 C10 1_555 1_555
N1 C1 1_555 1_555
N2 C2 1_555 1_555
C1 H1 1_555 1_555
C2 N1 1_555 1_555
C3 N2 1_555 1_555
C4 N2 1_555 1_555
C5 C4 1_555 1_555
C6 N1 1_555 1_555
C7 C8 1_555 1_555
C8 C9 1_555 1_555
C9 C10 1_555 1_555
C10 C11 1_555 1_555
C11 C12 1_555 1_555
C12 C7 1_555 1_555
C13 C5 1_555 1_555
C14 O4 1_555 1_555
H2 C1 1_555 1_555
H3 C1 1_555 1_555
H4 C3 1_555 1_555
H5 C3 1_555 1_555
H6 C3 1_555 1_555
H7 C8 1_555 1_555
H8 C9 1_555 1_555
H9 C14 1_555 1_555
H10 C14 1_555 1_555
H11 C14 1_555 1_555
H12 C11 1_555 1_555
H13 C12 1_555 1_555
H14 C13 1_555 1_555
C5 C6 1_555 1_555
C7 C13 1_555 1_555

#END
