
#######################################################################
#
#                 Cambridge Crystallographic Data Centre
#                                CCDC 
#
#######################################################################
#
# If this CIF has been generated from an entry in the Cambridge 
# Structural Database, then it will include bibliographic, chemical, 
# crystal, experimental, refinement or atomic coordinate data resulting 
# from the CCDC's data processing and validation procedures.
#
#######################################################################

data_FOMKAU
_chemical_formula_moiety         'C14 H10 I1 N3 O2'
_chemical_name_systematic        
1-(2-Iodophenyl)-4-(4-nitrophenyl)-2,3-diaza-1,3-butadiene
_symmetry_cell_setting           monoclinic
_symmetry_space_group_name_H-M   'C 2/c'
_symmetry_Int_Tables_number      15
_space_group_name_Hall           '-C 2yn'
loop_
_symmetry_equiv_pos_site_id
_symmetry_equiv_pos_as_xyz
1 x,y,z
2 1/2+x,1/2+y,z
3 -x,y,1/2-z
4 1/2-x,1/2+y,1/2-z
5 -x,-y,-z
6 1/2-x,1/2-y,-z
7 x,-y,1/2+z
8 1/2+x,1/2-y,1/2+z
_cell_length_a                   27.9470(11)
_cell_length_b                   8.0563(3)
_cell_length_c                   13.7464(5)
_cell_angle_alpha                90
_cell_angle_beta                 117.4250(10)
_cell_angle_gamma                90
_cell_volume                     2747.16
_exptl_crystal_colour            yellow
_exptl_crystal_description       plate
_chemical_melting_point          490-491K
_cell_formula_units_Z            8
_exptl_crystal_recrystallization_method 1,2-dichloroethane
loop_
_atom_site_label
_atom_site_type_symbol
_atom_site_fract_x
_atom_site_fract_y
_atom_site_fract_z
C1 C 0.42316(7) 0.5067(2) 0.26822(16)
C2 C 0.36835(8) 0.4950(2) 0.19596(18)
C3 C 0.33708(8) 0.6365(3) 0.15928(18)
C4 C 0.36171(8) 0.7876(2) 0.19700(17)
N1 N 0.32811(7) 0.9388(2) 0.16194(15)
O1 O 0.27938(6) 0.9224(2) 0.10983(16)
O2 O 0.35057(7) 1.07302(19) 0.18811(15)
C5 C 0.41577(9) 0.8045(2) 0.26592(19)
C6 C 0.44662(8) 0.6614(3) 0.30137(19)
C7 C 0.45442(7) 0.3531(2) 0.30847(17)
N2 N 0.50375(7) 0.3552(2) 0.38000(15)
N3 N 0.52446(7) 0.1932(2) 0.40763(16)
C8 C 0.60349(7) 0.0332(2) 0.50941(16)
C9 C 0.65958(7) 0.0228(2) 0.56831(16)
I1 I 0.710042(5) 0.231190(19) 0.599270(13)
C10 C 0.68461(8) -0.1293(3) 0.60571(18)
C11 C 0.65457(11) -0.2720(3) 0.5847(2)
C12 C 0.59931(11) -0.2648(2) 0.5265(2)
C13 C 0.57407(8) -0.1140(3) 0.49012(18)
C14 C 0.57486(8) 0.1909(2) 0.46916(18)
H1 H 0.3527 0.3913 0.1722
H2 H 0.3005 0.6299 0.1106
H3 H 0.4313 0.9088 0.2882
H4 H 0.4834 0.6694 0.3479
H5 H 0.4377 0.2517 0.2810
H6 H 0.7220 -0.1347 0.6453
H7 H 0.6716 -0.3736 0.6098
H8 H 0.5790 -0.3615 0.5118
H9 H 0.5366 -0.1102 0.4519
H10 H 0.5939 0.2902 0.4891
loop_
_geom_bond_atom_site_label_1
_geom_bond_atom_site_label_2
_geom_bond_site_symmetry_1
_geom_bond_site_symmetry_2
C1 C2 1_555 1_555
C2 C3 1_555 1_555
C3 C4 1_555 1_555
C4 N1 1_555 1_555
N1 O1 1_555 1_555
O2 N1 1_555 1_555
C5 C4 1_555 1_555
C6 C1 1_555 1_555
C7 C1 1_555 1_555
N2 C7 1_555 1_555
N3 N2 1_555 1_555
C8 C9 1_555 1_555
C9 I1 1_555 1_555
C10 C9 1_555 1_555
C11 C10 1_555 1_555
C12 C11 1_555 1_555
C13 C8 1_555 1_555
C14 N3 1_555 1_555
H1 C2 1_555 1_555
H2 C3 1_555 1_555
H3 C5 1_555 1_555
H4 C6 1_555 1_555
H5 C7 1_555 1_555
H6 C10 1_555 1_555
H7 C11 1_555 1_555
H8 C12 1_555 1_555
H9 C13 1_555 1_555
H10 C14 1_555 1_555
C5 C6 1_555 1_555
C8 C14 1_555 1_555
C12 C13 1_555 1_555

#END
