
#######################################################################
#
#                 Cambridge Crystallographic Data Centre
#                                CCDC 
#
#######################################################################
#
# If this CIF has been generated from an entry in the Cambridge 
# Structural Database, then it will include bibliographic, chemical, 
# crystal, experimental, refinement or atomic coordinate data resulting 
# from the CCDC's data processing and validation procedures.
#
#######################################################################

data_FOMMOL
_chemical_formula_moiety         'C20 H17 N1 Si1'
_chemical_name_systematic        
8,8-dimethyl-8H-[1,4]benzazasilino[3,2,1-jk]carbazole
_symmetry_cell_setting           monoclinic
_symmetry_space_group_name_H-M   'P 21/n'
_symmetry_Int_Tables_number      14
_space_group_name_Hall           '-P 2yn'
loop_
_symmetry_equiv_pos_site_id
_symmetry_equiv_pos_as_xyz
1 x,y,z
2 1/2-x,1/2+y,1/2-z
3 -x,-y,-z
4 1/2+x,1/2-y,1/2+z
_cell_length_a                   9.4672(19)
_cell_length_b                   17.673(4)
_cell_length_c                   10.494(2)
_cell_angle_alpha                90
_cell_angle_beta                 115.360(2)
_cell_angle_gamma                90
_cell_volume                     1586.59
_exptl_crystal_colour            colorless
_exptl_crystal_description       block
_cell_formula_units_Z            4
_exptl_crystal_recrystallization_method 
'Re-crystallisation from solvent: dichloromethane and ethanol solution'
_exptl_crystal_preparation       Luminescent
loop_
_atom_site_label
_atom_site_type_symbol
_atom_site_fract_x
_atom_site_fract_y
_atom_site_fract_z
C1 C 0.2446(2) 0.24146(11) 0.98863(18)
C2 C 0.2519(2) 0.31380(12) 1.04392(19)
H1 H 0.3466 0.3396 1.0773
C3 C 0.1259(3) 0.34906(12) 1.0516(2)
H2 H 0.1367 0.3966 1.0928
C4 C -0.0173(3) 0.31225(12) 0.9969(2)
H3 H -0.1045 0.3360 0.9981
C5 C -0.0309(2) 0.24045(11) 0.94076(19)
H4 H -0.1276 0.2164 0.9033
C6 C 0.0991(2) 0.20378(10) 0.93981(17)
C7 C -0.0402(2) 0.07794(10) 0.85620(17)
C8 C -0.1460(2) 0.07280(11) 0.91629(19)
H5 H -0.1472 0.1089 0.9804
C9 C -0.2488(2) 0.01260(12) 0.8778(2)
H6 H -0.3199 0.0084 0.9170
C10 C -0.2491(2) -0.04179(12) 0.7822(2)
H7 H -0.3218 -0.0809 0.7563
C11 C -0.1418(2) -0.03795(11) 0.7257(2)
H8 H -0.1408 -0.0747 0.6627
C12 C -0.0351(2) 0.02156(10) 0.76399(17)
C13 C 0.0988(2) 0.03712(10) 0.73636(17)
C14 C 0.1676(2) 0.00042(12) 0.65924(19)
H9 H 0.1218 -0.0425 0.6064
C15 C 0.3051(2) 0.02916(13) 0.6630(2)
H10 H 0.3502 0.0061 0.6097
C16 C 0.3770(2) 0.09179(12) 0.7449(2)
H11 H 0.4708 0.1088 0.7465
C17 C 0.3143(2) 0.13039(11) 0.82502(17)
C18 C 0.1712(2) 0.10228(10) 0.81365(17)
C19 C 0.5638(3) 0.15715(15) 1.1234(2)
H12 H 0.5194 0.1135 1.1469
H13 H 0.5979 0.1925 1.2003
H14 H 0.6514 0.1420 1.1061
C20 C 0.5097(3) 0.27795(14) 0.9030(3)
H15 H 0.5768 0.2551 0.8667
H16 H 0.5704 0.3099 0.9815
H17 H 0.4313 0.3077 0.8305
N1 N 0.08200(16) 0.12988(8) 0.88196(14)
Si1 Si 0.41355(6) 0.20274(3) 0.96215(5)
loop_
_geom_bond_atom_site_label_1
_geom_bond_atom_site_label_2
_geom_bond_site_symmetry_1
_geom_bond_site_symmetry_2
C1 C2 1_555 1_555
C2 H1 1_555 1_555
C3 C2 1_555 1_555
H2 C3 1_555 1_555
C4 C3 1_555 1_555
H3 C4 1_555 1_555
C5 C4 1_555 1_555
H4 C5 1_555 1_555
C6 C1 1_555 1_555
C7 C8 1_555 1_555
C8 H5 1_555 1_555
C9 C8 1_555 1_555
H6 C9 1_555 1_555
C10 C9 1_555 1_555
H7 C10 1_555 1_555
C11 C10 1_555 1_555
H8 C11 1_555 1_555
C12 C7 1_555 1_555
C13 C12 1_555 1_555
C14 C13 1_555 1_555
H9 C14 1_555 1_555
C15 C14 1_555 1_555
H10 C15 1_555 1_555
C16 C15 1_555 1_555
H11 C16 1_555 1_555
C17 C16 1_555 1_555
C18 C13 1_555 1_555
C19 H12 1_555 1_555
H13 C19 1_555 1_555
H14 C19 1_555 1_555
C20 H15 1_555 1_555
H16 C20 1_555 1_555
H17 C20 1_555 1_555
N1 C6 1_555 1_555
Si1 C1 1_555 1_555
C5 C6 1_555 1_555
C7 N1 1_555 1_555
C11 C12 1_555 1_555
C17 C18 1_555 1_555
C17 Si1 1_555 1_555
C18 N1 1_555 1_555
C19 Si1 1_555 1_555
C20 Si1 1_555 1_555

#END
