
#######################################################################
#
#                 Cambridge Crystallographic Data Centre
#                                CCDC 
#
#######################################################################
#
# If this CIF has been generated from an entry in the Cambridge 
# Structural Database, then it will include bibliographic, chemical, 
# crystal, experimental, refinement or atomic coordinate data resulting 
# from the CCDC's data processing and validation procedures.
#
#######################################################################

data_FOMNEB03
_chemical_formula_moiety         'C18 H17 N1 O4'
_chemical_name_systematic        
'(E)-(1-(4-methoxyphenyl)-3-phenyl-2-propenylideneamino)oxyacetic acid'
_symmetry_cell_setting           monoclinic
_symmetry_space_group_name_H-M   'P 21/n'
_symmetry_Int_Tables_number      14
_space_group_name_Hall           '-P 2yn'
loop_
_symmetry_equiv_pos_site_id
_symmetry_equiv_pos_as_xyz
1 x,y,z
2 1/2-x,1/2+y,1/2-z
3 -x,-y,-z
4 1/2+x,1/2-y,1/2+z
_cell_length_a                   12.1552(4)
_cell_length_b                   15.8657(4)
_cell_length_c                   16.6708(5)
_cell_angle_alpha                90
_cell_angle_beta                 97.4250(15)
_cell_angle_gamma                90
_cell_volume                     3188.02
_exptl_crystal_colour            colorless
_exptl_crystal_description       lath
_cell_formula_units_Z            8
loop_
_atom_site_label
_atom_site_type_symbol
_atom_site_fract_x
_atom_site_fract_y
_atom_site_fract_z
O1 O 0.60212(10) 0.56379(9) 0.28717(7)
O2 O 0.42927(11) 0.52190(8) 0.29603(7)
O3 O 0.43379(10) 0.58474(7) 0.44360(7)
O4 O -0.11867(10) 0.29543(7) 0.59410(7)
N1 N 0.42907(12) 0.64910(9) 0.50237(8)
C1 C 0.51295(14) 0.55789(11) 0.32369(10)
C2 C 0.52739(15) 0.60170(12) 0.40365(11)
C3 C 0.34766(14) 0.63659(10) 0.54340(9)
C4 C 0.26956(14) 0.56694(10) 0.53505(9)
C5 C 0.19449(14) 0.55516(10) 0.58655(10)
C6 C 0.33781(14) 0.70341(10) 0.60582(9)
C7 C 0.25273(17) 0.76212(12) 0.59476(11)
C8 C 0.24311(18) 0.82324(12) 0.65273(11)
C9 C 0.31780(16) 0.82537(11) 0.72226(11)
C10 C 0.40130(15) 0.76687(12) 0.73392(11)
C11 C 0.41229(14) 0.70639(12) 0.67570(10)
C12 C 0.11332(14) 0.48772(10) 0.58652(9)
C13 C 0.11024(14) 0.41659(10) 0.53648(9)
C14 C 0.03236(14) 0.35489(10) 0.54017(10)
C15 C -0.04624(14) 0.36190(10) 0.59366(9)
C16 C -0.19932(15) 0.29812(13) 0.64951(11)
C17 C -0.04615(14) 0.43180(10) 0.64316(10)
C18 C 0.03363(14) 0.49315(10) 0.63944(10)
H1 H 0.5911 0.5390 0.2423
H2 H 0.5956 0.5814 0.4369
H3 H 0.5346 0.6632 0.3957
H4 H 0.2007 0.7604 0.5471
H5 H 0.1851 0.8636 0.6446
H6 H 0.3115 0.8673 0.7621
H7 H 0.4520 0.7679 0.7823
H8 H 0.4713 0.6668 0.6838
H9 H 0.2716 0.5283 0.4917
H10 H 0.1944 0.5960 0.6282
H11 H 0.1630 0.4111 0.4994
H12 H 0.0319 0.3069 0.5060
H13 H -0.2455 0.3485 0.6390
H14 H -0.1614 0.2999 0.7051
H15 H -0.2462 0.2477 0.6424
H16 H -0.1002 0.4376 0.6792
H17 H 0.0342 0.5407 0.6741
O5 O 0.40174(10) 0.43730(8) 0.15846(7)
O6 O 0.57373(10) 0.48298(8) 0.14661(7)
O7 O 0.56570(9) 0.41308(7) -0.00042(7)
O8 O 1.13190(9) 0.69604(7) -0.09055(7)
N2 N 0.58213(11) 0.33839(8) -0.04476(8)
C19 C 0.48979(14) 0.44498(10) 0.12040(10)
C20 C 0.47239(14) 0.39976(10) 0.04122(10)
C21 C 0.67422(13) 0.34212(10) -0.07630(9)
C22 C 0.75050(13) 0.41265(10) -0.06827(9)
C23 C 0.83773(13) 0.42128(10) -0.10911(9)
C24 C 0.69586(13) 0.26371(10) -0.12096(9)
C25 C 0.78964(14) 0.21562(10) -0.09741(10)
C26 C 0.80524(14) 0.13922(10) -0.13449(10)
C27 C 0.72783(15) 0.11144(11) -0.19686(10)
C28 C 0.63508(15) 0.15915(11) -0.22151(10)
C29 C 0.61770(14) 0.23510(11) -0.18340(10)
C30 C 0.91380(13) 0.49278(10) -0.10393(9)
C31 C 0.89385(13) 0.56883(10) -0.06499(9)
C32 C 0.96769(14) 0.63421(10) -0.06110(9)
C33 C 1.06506(13) 0.62654(10) -0.09646(9)
C34 C 1.22717(15) 0.69469(12) -0.13253(11)
C35 C 1.08826(13) 0.55199(10) -0.13456(9)
C36 C 1.01226(13) 0.48678(10) -0.13817(9)
H18 H 0.4122 0.4637 0.2024
H19 H 0.4628 0.3387 0.0504
H20 H 0.4045 0.4211 0.0083
H21 H 0.8438 0.2353 -0.0554
H22 H 0.8689 0.1060 -0.1171
H23 H 0.7386 0.0593 -0.2228
H24 H 0.5825 0.1401 -0.2649
H25 H 0.5528 0.2673 -0.1999
H26 H 0.7377 0.4560 -0.0313
H27 H 0.8513 0.3768 -0.1447
H28 H 0.8276 0.5749 -0.0409
H29 H 0.9526 0.6849 -0.0343
H30 H 1.2756 0.6479 -0.1124
H31 H 1.2676 0.7480 -0.1234
H32 H 1.2036 0.6873 -0.1906
H33 H 1.1552 0.5459 -0.1577
H34 H 1.0277 0.4361 -0.1649
loop_
_geom_bond_atom_site_label_1
_geom_bond_atom_site_label_2
_geom_bond_site_symmetry_1
_geom_bond_site_symmetry_2
O1 C1 1_555 1_555
O2 C1 1_555 1_555
O3 N1 1_555 1_555
O4 C15 1_555 1_555
N1 C3 1_555 1_555
C1 C2 1_555 1_555
C2 O3 1_555 1_555
C3 C4 1_555 1_555
C4 C5 1_555 1_555
C5 C12 1_555 1_555
C6 C3 1_555 1_555
C7 C6 1_555 1_555
C8 C7 1_555 1_555
C9 C8 1_555 1_555
C10 C9 1_555 1_555
C11 C6 1_555 1_555
C12 C13 1_555 1_555
C13 C14 1_555 1_555
C14 C15 1_555 1_555
C15 C17 1_555 1_555
C16 O4 1_555 1_555
C17 C18 1_555 1_555
C18 C12 1_555 1_555
O5 C19 1_555 1_555
O6 C19 1_555 1_555
O7 N2 1_555 1_555
O8 C33 1_555 1_555
N2 C21 1_555 1_555
C19 C20 1_555 1_555
C20 O7 1_555 1_555
C21 C22 1_555 1_555
C22 C23 1_555 1_555
C23 C30 1_555 1_555
C24 C21 1_555 1_555
C25 C24 1_555 1_555
C26 C25 1_555 1_555
C27 C26 1_555 1_555
C28 C27 1_555 1_555
C29 C24 1_555 1_555
C30 C31 1_555 1_555
C31 C32 1_555 1_555
C32 C33 1_555 1_555
C33 C35 1_555 1_555
C34 O8 1_555 1_555
C35 C36 1_555 1_555
C36 C30 1_555 1_555
H1 O1 1_555 1_555
H2 C2 1_555 1_555
H3 C2 1_555 1_555
H4 C7 1_555 1_555
H5 C8 1_555 1_555
H6 C9 1_555 1_555
H7 C10 1_555 1_555
H8 C11 1_555 1_555
H9 C4 1_555 1_555
H10 C5 1_555 1_555
H11 C13 1_555 1_555
H12 C14 1_555 1_555
H13 C16 1_555 1_555
H14 C16 1_555 1_555
H15 C16 1_555 1_555
H16 C17 1_555 1_555
H17 C18 1_555 1_555
H18 O5 1_555 1_555
H19 C20 1_555 1_555
H20 C20 1_555 1_555
H21 C25 1_555 1_555
H22 C26 1_555 1_555
H23 C27 1_555 1_555
H24 C28 1_555 1_555
H25 C29 1_555 1_555
H26 C22 1_555 1_555
H27 C23 1_555 1_555
H28 C31 1_555 1_555
H29 C32 1_555 1_555
H30 C34 1_555 1_555
H31 C34 1_555 1_555
H32 C34 1_555 1_555
H33 C35 1_555 1_555
H34 C36 1_555 1_555
C10 C11 1_555 1_555
C28 C29 1_555 1_555

#END
