
#######################################################################
#
#                 Cambridge Crystallographic Data Centre
#                                CCDC 
#
#######################################################################
#
# If this CIF has been generated from an entry in the Cambridge 
# Structural Database, then it will include bibliographic, chemical, 
# crystal, experimental, refinement or atomic coordinate data resulting 
# from the CCDC's data processing and validation procedures.
#
#######################################################################

data_FOMNOL
_chemical_formula_moiety         'C20 H24 O6 S1'
_chemical_name_systematic        
(+-)-5,7-dihydro-1,2,3,9,10,11-hexamethoxydibenzo(c,e)thiepine
_symmetry_cell_setting           monoclinic
_symmetry_space_group_name_H-M   'C 2/c'
_symmetry_Int_Tables_number      15
_space_group_name_Hall           '-C 2yn'
loop_
_symmetry_equiv_pos_site_id
_symmetry_equiv_pos_as_xyz
1 x,y,z
2 1/2+x,1/2+y,z
3 -x,y,1/2-z
4 1/2-x,1/2+y,1/2-z
5 -x,-y,-z
6 1/2-x,1/2-y,-z
7 x,-y,1/2+z
8 1/2+x,1/2-y,1/2+z
_cell_length_a                   8.6029(2)
_cell_length_b                   12.2965(3)
_cell_length_c                   17.6032(4)
_cell_angle_alpha                90
_cell_angle_beta                 104.0380
_cell_angle_gamma                90
_cell_volume                     1806.55
_exptl_crystal_colour            colorless
_exptl_crystal_description       needle
_chemical_melting_point          '482-484 K'
_cell_formula_units_Z            4
_exptl_crystal_recrystallization_method 'ethyl acetate'
loop_
_atom_site_label
_atom_site_type_symbol
_atom_site_fract_x
_atom_site_fract_y
_atom_site_fract_z
C1 C 0.55184(14) 0.58168(9) 0.66847(7)
C2 C 0.65913(15) 0.58284(9) 0.62049(7)
C3 C 0.77012(15) 0.49775(10) 0.62572(7)
C4 C 0.77115(15) 0.41306(10) 0.67830(7)
C5 C 0.66397(15) 0.41269(9) 0.72640(7)
C6 C 0.66577(16) 0.32012(10) 0.78250(8)
C7 C 0.55516(14) 0.49830(9) 0.72330(7)
C8 C 0.28299(17) 0.63325(13) 0.62107(10)
C9 C 0.5804(2) 0.65199(13) 0.49157(8)
C10 C 0.98301(18) 0.41644(12) 0.58250(9)
O1 O 0.44194(11) 0.66526(7) 0.66090(5)
O2 O 0.66061(11) 0.66986(7) 0.57123(5)
O3 O 0.87013(11) 0.50350(7) 0.57639(5)
S1 S 0.50000 0.22488(3) 0.75000
H1 H 1.044(2) 0.4347(14) 0.5450(10)
H2 H 0.847(2) 0.3561(14) 0.6814(10)
H3 H 0.928(2) 0.3476(15) 0.5698(10)
H4 H 0.594(2) 0.7161(15) 0.4628(11)
H5 H 0.6576(18) 0.3479(13) 0.8335(9)
H6 H 0.759(2) 0.2756(13) 0.7889(9)
H7 H 1.058(2) 0.4178(14) 0.6363(11)
H8 H 0.280(3) 0.6008(19) 0.5714(14)
H9 H 0.465(3) 0.6393(18) 0.4877(13)
H10 H 0.211(3) 0.6965(17) 0.6134(11)
H11 H 0.629(3) 0.591(2) 0.4700(14)
H12 H 0.241(3) 0.5780(19) 0.6481(14)
C1B C 0.44816(14) 0.58168(9) 0.83153(7)
C2B C 0.34087(15) 0.58284(9) 0.87951(7)
C3B C 0.22988(15) 0.49775(10) 0.87428(7)
C4B C 0.22885(15) 0.41306(10) 0.82170(7)
C5B C 0.33603(15) 0.41269(9) 0.77360(7)
C6B C 0.33423(16) 0.32012(10) 0.71750(8)
C7B C 0.44484(14) 0.49830(9) 0.77670(7)
C8B C 0.71701(17) 0.63325(13) 0.87893(10)
C9B C 0.4196(2) 0.65199(13) 1.00843(8)
C10B C 0.01699(18) 0.41644(12) 0.91750(9)
O1B O 0.55806(11) 0.66526(7) 0.83910(5)
O2B O 0.33939(11) 0.66986(7) 0.92877(5)
O3B O 0.12987(11) 0.50350(7) 0.92361(5)
H1B H -0.044(2) 0.4347(14) 0.9550(10)
H2B H 0.153(2) 0.3561(14) 0.8186(10)
H3B H 0.072(2) 0.3476(15) 0.9302(10)
H4B H 0.406(2) 0.7161(15) 1.0372(11)
H5B H 0.3424(18) 0.3479(13) 0.6665(9)
H6B H 0.241(2) 0.2756(13) 0.7111(9)
H7B H -0.058(2) 0.4178(14) 0.8637(11)
H8B H 0.720(3) 0.6008(19) 0.9286(14)
H9B H 0.535(3) 0.6393(18) 1.0123(13)
H10B H 0.789(3) 0.6965(17) 0.8866(11)
H11B H 0.371(3) 0.591(2) 1.0300(14)
H12B H 0.759(3) 0.5780(19) 0.8519(14)
loop_
_geom_bond_atom_site_label_1
_geom_bond_atom_site_label_2
_geom_bond_site_symmetry_1
_geom_bond_site_symmetry_2
C1 C2 1_555 1_555
C2 C3 1_555 1_555
C3 C4 1_555 1_555
C4 C5 1_555 1_555
C5 C6 1_555 1_555
C6 S1 1_555 1_555
C7 C1 1_555 1_555
C8 O1 1_555 1_555
C9 O2 1_555 1_555
C10 O3 1_555 1_555
O1 C1 1_555 1_555
O2 C2 1_555 1_555
O3 C3 1_555 1_555
S1 C6B 1_555 1_555
H1 C10 1_555 1_555
H2 C4 1_555 1_555
H3 C10 1_555 1_555
H4 C9 1_555 1_555
H5 C6 1_555 1_555
H6 C6 1_555 1_555
H7 C10 1_555 1_555
H8 C8 1_555 1_555
H9 C9 1_555 1_555
H10 C8 1_555 1_555
H11 C9 1_555 1_555
H12 C8 1_555 1_555
C1B C2B 1_555 1_555
C2B C3B 1_555 1_555
C3B C4B 1_555 1_555
C4B C5B 1_555 1_555
C5B C6B 1_555 1_555
C6B H5B 1_555 1_555
C7B C7 1_555 1_555
C8B O1B 1_555 1_555
C9B O2B 1_555 1_555
C10B O3B 1_555 1_555
O1B C1B 1_555 1_555
O2B C2B 1_555 1_555
O3B C3B 1_555 1_555
H1B C10B 1_555 1_555
H2B C4B 1_555 1_555
H3B C10B 1_555 1_555
H4B C9B 1_555 1_555
H6B C6B 1_555 1_555
H7B C10B 1_555 1_555
H8B C8B 1_555 1_555
H9B C9B 1_555 1_555
H10B C8B 1_555 1_555
H11B C9B 1_555 1_555
H12B C8B 1_555 1_555
C5 C7 1_555 1_555
C1B C7B 1_555 1_555
C5B C7B 1_555 1_555

#END
