
#######################################################################
#
#                 Cambridge Crystallographic Data Centre
#                                CCDC 
#
#######################################################################
#
# If this CIF has been generated from an entry in the Cambridge 
# Structural Database, then it will include bibliographic, chemical, 
# crystal, experimental, refinement or atomic coordinate data resulting 
# from the CCDC's data processing and validation procedures.
#
#######################################################################

data_FOMNEB
_chemical_formula_moiety         'C18 H17 N1 O4'
_chemical_name_systematic        
'(E)-(1-(4-methoxyphenyl)-3-phenyl-2-propenylideneamino)oxyacetic acid'
_symmetry_cell_setting           monoclinic
_symmetry_space_group_name_H-M   'P 21/c'
_symmetry_Int_Tables_number      14
_space_group_name_Hall           '-P 2ybc'
loop_
_symmetry_equiv_pos_site_id
_symmetry_equiv_pos_as_xyz
1 x,y,z
2 -x,1/2+y,1/2-z
3 -x,-y,-z
4 x,1/2-y,1/2+z
_cell_length_a                   8.5153(7)
_cell_length_b                   16.0591(13)
_cell_length_c                   12.1476(10)
_cell_angle_alpha                90
_cell_angle_beta                 96.801(2)
_cell_angle_gamma                90
_cell_volume                     1649.47
_exptl_crystal_colour            colorless
_exptl_crystal_description       plate
_chemical_melting_point          '393 K'
_cell_formula_units_Z            4
_exptl_crystal_recrystallization_method ethanol
loop_
_atom_site_label
_atom_site_type_symbol
_atom_site_fract_x
_atom_site_fract_y
_atom_site_fract_z
C1 C 0.2993(4) 0.44487(15) 0.4914(2)
O1 O 0.3503(2) 0.48398(12) 0.57345(16)
O2 O 0.3735(2) 0.43644(12) 0.40495(14)
C2 C -0.2197(2) 0.28337(14) 0.68035(19)
C3 C -0.1911(3) 0.22962(15) 0.7691(2)
C4 C -0.2876(4) 0.16258(18) 0.7787(3)
C5 C -0.4145(4) 0.1500(2) 0.7009(4)
C6 C -0.4436(4) 0.2016(3) 0.6141(3)
C7 C -0.3468(3) 0.2687(2) 0.6026(2)
C8 C 0.1439(4) 0.40161(15) 0.4777(2)
O3 O 0.0657(2) 0.41549(9) 0.57237(13)
N1 N -0.0365(2) 0.34680(10) 0.58148(15)
C9 C -0.1124(2) 0.35421(13) 0.66720(17)
C10 C -0.0998(2) 0.42388(12) 0.74340(16)
C11 C -0.1928(2) 0.43479(13) 0.82325(17)
C12 C -0.1906(2) 0.50399(12) 0.90073(16)
C13 C -0.1080(2) 0.64037(13) 0.96543(17)
C14 C -0.1050(2) 0.57650(12) 0.89120(16)
C15 C -0.1972(2) 0.63359(12) 1.05257(16)
O4 O -0.19435(16) 0.70151(9) 1.12107(12)
C16 C -0.2930(3) 0.70124(16) 1.20787(19)
C17 C -0.2818(2) 0.56231(13) 1.06569(18)
C18 C -0.2783(2) 0.49899(13) 0.98954(18)
H1 H 0.4532 0.4656 0.4119
H2 H -0.1056 0.2390 0.8227
H3 H -0.2668 0.1259 0.8379
H4 H -0.4816 0.1051 0.7081
H5 H -0.5299 0.1919 0.5613
H6 H -0.3676 0.3042 0.5421
H7 H 0.0797 0.4225 0.4122
H8 H 0.1597 0.3424 0.4680
H9 H -0.0220 0.4635 0.7363
H10 H -0.2676 0.3935 0.8302
H11 H -0.0497 0.6885 0.9571
H12 H -0.0441 0.5819 0.8329
H13 H -0.4013 0.6943 1.1769
H14 H -0.2815 0.7531 1.2474
H15 H -0.2629 0.6562 1.2578
H16 H -0.3407 0.5568 1.1251
H17 H -0.3371 0.4511 0.9981
loop_
_geom_bond_atom_site_label_1
_geom_bond_atom_site_label_2
_geom_bond_site_symmetry_1
_geom_bond_site_symmetry_2
C1 O1 1_555 1_555
O2 C1 1_555 1_555
C2 C3 1_555 1_555
C3 C4 1_555 1_555
C4 C5 1_555 1_555
C5 C6 1_555 1_555
C6 C7 1_555 1_555
C7 C2 1_555 1_555
C8 C1 1_555 1_555
O3 C8 1_555 1_555
N1 O3 1_555 1_555
C9 C2 1_555 1_555
C10 C9 1_555 1_555
C11 C10 1_555 1_555
C12 C11 1_555 1_555
C13 C14 1_555 1_555
C14 C12 1_555 1_555
C15 C13 1_555 1_555
O4 C15 1_555 1_555
C16 O4 1_555 1_555
C17 C15 1_555 1_555
C18 C12 1_555 1_555
H1 O2 1_555 1_555
H2 C3 1_555 1_555
H3 C4 1_555 1_555
H4 C5 1_555 1_555
H5 C6 1_555 1_555
H6 C7 1_555 1_555
H7 C8 1_555 1_555
H8 C8 1_555 1_555
H9 C10 1_555 1_555
H10 C11 1_555 1_555
H11 C13 1_555 1_555
H12 C14 1_555 1_555
H13 C16 1_555 1_555
H14 C16 1_555 1_555
H15 C16 1_555 1_555
H16 C17 1_555 1_555
H17 C18 1_555 1_555
N1 C9 1_555 1_555
C17 C18 1_555 1_555

#END
