
#######################################################################
#
#                 Cambridge Crystallographic Data Centre
#                                CCDC 
#
#######################################################################
#
# If this CIF has been generated from an entry in the Cambridge 
# Structural Database, then it will include bibliographic, chemical, 
# crystal, experimental, refinement or atomic coordinate data resulting 
# from the CCDC's data processing and validation procedures.
#
#######################################################################

data_FOMNUR
_chemical_formula_moiety         'C20 H24 O7 S1'
_chemical_name_systematic        
'(+-)-5,7-dihydro-1,2,3,9,10,11-hexamethoxydibenzo(c,e)thiepine 6-dioxide'
_symmetry_cell_setting           monoclinic
_symmetry_space_group_name_H-M   'C 2/c'
_symmetry_Int_Tables_number      15
_space_group_name_Hall           '-C 2yn'
loop_
_symmetry_equiv_pos_site_id
_symmetry_equiv_pos_as_xyz
1 x,y,z
2 1/2+x,1/2+y,z
3 -x,y,1/2-z
4 1/2-x,1/2+y,1/2-z
5 -x,-y,-z
6 1/2-x,1/2-y,-z
7 x,-y,1/2+z
8 1/2+x,1/2-y,1/2+z
_cell_length_a                   8.8113(3)
_cell_length_b                   12.2699(3)
_cell_length_c                   17.5640(6)
_cell_angle_alpha                90
_cell_angle_beta                 103.988(2)
_cell_angle_gamma                90
_cell_volume                     1842.6
_exptl_crystal_colour            colorless
_exptl_crystal_description       prism
_chemical_melting_point          '435 K'
_cell_formula_units_Z            4
_exptl_crystal_recrystallization_method 'ethyl acetate/methanol'
loop_
_atom_site_label
_atom_site_type_symbol
_atom_site_fract_x
_atom_site_fract_y
_atom_site_fract_z
C1 C 0.1307(2) 0.16085(14) 0.33121(10)
C2 C 0.2817(2) 0.16099(14) 0.38027(10)
C3 C 0.3846(2) 0.24607(15) 0.37397(10)
C4 C 0.3340(2) 0.32981(14) 0.32078(10)
C5 C 0.1828(2) 0.32929(14) 0.27266(10)
C6 C 0.1282(2) 0.42173(14) 0.21689(11)
C7 C 0.08030(19) 0.24316(14) 0.27612(10)
C8 C -0.0606(3) 0.1030(2) 0.39317(18)
C9 C 0.3584(3) 0.0963(2) 0.51153(12)
C10 C 0.6423(2) 0.31688(19) 0.40804(14)
O1 O 0.03009(15) 0.07741(10) 0.33878(7)
O2 O 0.32735(16) 0.07378(10) 0.42962(7)
O3 O 0.53039(14) 0.24138(11) 0.42333(7)
O4 O 0.0871(3) 0.5785(2) 0.31160(17)
S1 S 0.00000 0.51860(5) 0.25000
H1 H 0.401(3) 0.3897(18) 0.3150(13)
H2 H 0.216(3) 0.4675(18) 0.2093(12)
H3 H 0.070(3) 0.3939(18) 0.1668(13)
H4 H -0.127(4) 0.039(3) 0.3966(17)
H5 H -0.004(4) 0.111(3) 0.441(2)
H6 H -0.112(4) 0.174(3) 0.382(2)
H7 H 0.265(5) 0.128(3) 0.523(2)
H8 H 0.456(4) 0.149(3) 0.526(2)
H9 H 0.370(3) 0.030(2) 0.5379(15)
H10 H 0.748(3) 0.298(2) 0.4450(15)
H11 H 0.615(3) 0.390(2) 0.4154(16)
H12 H 0.651(3) 0.308(2) 0.3549(16)
C1B C -0.1307(2) 0.16085(14) 0.16879(10)
C2B C -0.2817(2) 0.16099(14) 0.11973(10)
C3B C -0.3846(2) 0.24607(15) 0.12603(10)
C4B C -0.3340(2) 0.32981(14) 0.17922(10)
C5B C -0.1828(2) 0.32929(14) 0.22734(10)
C6B C -0.1282(2) 0.42173(14) 0.28311(11)
C7B C -0.08030(19) 0.24316(14) 0.22388(10)
C8B C 0.0606(3) 0.1030(2) 0.10683(18)
C9B C -0.3584(3) 0.0963(2) -0.01153(12)
C10B C -0.6423(2) 0.31688(19) 0.09196(14)
O1B O -0.03009(15) 0.07741(10) 0.16122(7)
O2B O -0.32735(16) 0.07378(10) 0.07038(7)
O3B O -0.53039(14) 0.24138(11) 0.07667(7)
O4B O -0.0871(3) 0.5785(2) 0.18840(17)
H1B H -0.401(3) 0.3897(18) 0.1850(13)
H2B H -0.216(3) 0.4675(18) 0.2907(12)
H3B H -0.070(3) 0.3939(18) 0.3332(13)
H4B H 0.127(4) 0.039(3) 0.1034(17)
H5B H 0.004(4) 0.111(3) 0.059(2)
H6B H 0.112(4) 0.174(3) 0.118(2)
H7B H -0.265(5) 0.128(3) -0.023(2)
H8B H -0.456(4) 0.149(3) -0.026(2)
H9B H -0.370(3) 0.030(2) -0.0379(15)
H10B H -0.748(3) 0.298(2) 0.0550(15)
H11B H -0.615(3) 0.390(2) 0.0846(16)
H12B H -0.651(3) 0.308(2) 0.1451(16)
loop_
_geom_bond_atom_site_label_1
_geom_bond_atom_site_label_2
_geom_bond_site_symmetry_1
_geom_bond_site_symmetry_2
C1 C2 1_555 1_555
C2 C3 1_555 1_555
C3 C4 1_555 1_555
C4 C5 1_555 1_555
C5 C6 1_555 1_555
C6 S1 1_555 1_555
C7 C1 1_555 1_555
C8 O1 1_555 1_555
C9 O2 1_555 1_555
C10 O3 1_555 1_555
O1 C1 1_555 1_555
O2 C2 1_555 1_555
O3 C3 1_555 1_555
O4 S1 1_555 1_555
S1 C6B 1_555 1_555
H1 C4 1_555 1_555
H2 C6 1_555 1_555
H3 C6 1_555 1_555
H4 C8 1_555 1_555
H5 C8 1_555 1_555
H6 C8 1_555 1_555
H7 C9 1_555 1_555
H8 C9 1_555 1_555
H9 C9 1_555 1_555
H10 C10 1_555 1_555
H11 C10 1_555 1_555
H12 C10 1_555 1_555
C1B C2B 1_555 1_555
C2B C3B 1_555 1_555
C3B C4B 1_555 1_555
C4B C5B 1_555 1_555
C5B C6B 1_555 1_555
C6B H2B 1_555 1_555
C7B C7 1_555 1_555
C8B O1B 1_555 1_555
C9B O2B 1_555 1_555
C10B O3B 1_555 1_555
O1B C1B 1_555 1_555
O2B C2B 1_555 1_555
O3B C3B 1_555 1_555
O4B S1 1_555 1_555
H1B C4B 1_555 1_555
H3B C6B 1_555 1_555
H4B C8B 1_555 1_555
H5B C8B 1_555 1_555
H6B C8B 1_555 1_555
H7B C9B 1_555 1_555
H8B C9B 1_555 1_555
H9B C9B 1_555 1_555
H10B C10B 1_555 1_555
H11B C10B 1_555 1_555
H12B C10B 1_555 1_555
C5 C7 1_555 1_555
C1B C7B 1_555 1_555
C5B C7B 1_555 1_555

#END
