
#######################################################################
#
#                 Cambridge Crystallographic Data Centre
#                                CCDC 
#
#######################################################################
#
# If this CIF has been generated from an entry in the Cambridge 
# Structural Database, then it will include bibliographic, chemical, 
# crystal, experimental, refinement or atomic coordinate data resulting 
# from the CCDC's data processing and validation procedures.
#
#######################################################################

data_FONGEW
_chemical_formula_moiety         'C41 H43 N1 O6 Se3'
_chemical_name_systematic        
2,3,5,6-tetrabutoxy-9-(4-methylphenyl)-8H-1,4,7-triselena-9-azaazuleno[7,8,1,2-fghi]cyclopenta[mno]acephenanthrylene-8,10(9H)-dione
_symmetry_cell_setting           monoclinic
_symmetry_space_group_name_H-M   'C 2/c'
_symmetry_Int_Tables_number      15
_space_group_name_Hall           '-C 2yn'
loop_
_symmetry_equiv_pos_site_id
_symmetry_equiv_pos_as_xyz
1 x,y,z
2 -x,y,1/2-z
3 1/2+x,1/2+y,z
4 1/2-x,1/2+y,1/2-z
5 -x,-y,-z
6 x,-y,1/2+z
7 1/2-x,1/2-y,-z
8 1/2+x,1/2-y,1/2+z
_cell_length_a                   32.7027(9)
_cell_length_b                   7.2007(2)
_cell_length_c                   34.1709(8)
_cell_angle_alpha                90
_cell_angle_beta                 111.206(3)
_cell_angle_gamma                90
_cell_volume                     7501.77
_exptl_crystal_colour            red
_exptl_crystal_description       needle
_chemical_melting_point          '513 K'
_cell_formula_units_Z            8
_chemical_properties_physical    Light-sensitive
_exptl_crystal_recrystallization_method dichloromethane
_exptl_crystal_preparation       Luminescent
loop_
_atom_site_label
_atom_site_type_symbol
_atom_site_fract_x
_atom_site_fract_y
_atom_site_fract_z
N1 N 0.11249(7) 0.4665(3) -0.11012(6)
O1 O 0.20492(6) 0.3454(3) 0.11826(5)
O2 O 0.29176(6) 0.3946(3) 0.14634(6)
O3 O 0.39186(6) 0.6354(3) -0.00080(6)
O4 O 0.34112(6) 0.6661(3) -0.08145(6)
O5 O 0.13755(6) 0.5291(3) -0.16267(5)
O6 O 0.07398(6) 0.3859(3) -0.06912(6)
Se1 Se 0.137497(8) 0.38379(4) 0.018872(8)
Se2 Se 0.349599(8) 0.52230(4) 0.079495(7)
Se3 Se 0.234128(8) 0.58240(4) -0.121870(7)
C1 C 0.19110(8) 0.4668(3) -0.02402(7)
C2 C 0.21870(8) 0.4554(3) 0.01931(7)
C3 C 0.26352(8) 0.4859(3) 0.03338(7)
C4 C 0.28355(8) 0.5301(3) 0.00422(7)
C5 C 0.25775(8) 0.5421(3) -0.03821(8)
C6 C 0.21138(8) 0.5094(3) -0.05397(7)
C7 C 0.19856(8) 0.4126(3) 0.04779(8)
C8 C 0.22454(9) 0.3981(3) 0.09072(8)
C9 C 0.27042(8) 0.4238(3) 0.10447(7)
C10 C 0.29020(8) 0.4717(3) 0.07548(7)
C11 C 0.32856(8) 0.5584(3) 0.01936(7)
C12 C 0.34866(8) 0.6024(3) -0.00977(8)
C13 C 0.32258(8) 0.6158(3) -0.05285(8)
C14 C 0.27720(8) 0.5836(3) -0.06712(7)
C15 C 0.19236(8) 0.5238(3) -0.09676(7)
C16 C 0.14698(8) 0.5074(3) -0.12496(8)
C17 C 0.10987(8) 0.4254(3) -0.07042(8)
C18 C 0.14785(8) 0.4334(3) -0.03144(7)
C19 C 0.06943(8) 0.4615(4) -0.14384(8)
C20 C 0.05010(8) 0.2956(4) -0.16007(8)
H1 H 0.0649 0.1847 -0.1504
C21 C 0.00849(9) 0.2931(4) -0.19099(8)
H2 H -0.0043 0.1801 -0.2019
C22 C -0.01433(9) 0.4569(5) -0.20581(8)
C23 C 0.00629(10) 0.6231(4) -0.18974(9)
H3 H -0.0080 0.7344 -0.2000
C24 C 0.04780(9) 0.6272(4) -0.15862(9)
H4 H 0.0609 0.7399 -0.1478
C25 C -0.06024(9) 0.4547(5) -0.23821(10)
H5 H -0.0693 0.3286 -0.2456
H6 H -0.0607 0.5211 -0.2627
H7 H -0.0799 0.5131 -0.2269
C26 C 0.20472(12) 0.4834(4) 0.14904(9)
H8 H 0.1808 0.5699 0.1365
H9 H 0.2320 0.5528 0.1579
C27 C 0.19963(17) 0.3955(5) 0.18542(12)
H10 H 0.2239 0.3108 0.1980
H11 H 0.1728 0.3228 0.1761
C28 C 0.1979(2) 0.5327(6) 0.21873(14)
H12 H 0.2223 0.6184 0.2245
H13 H 0.1711 0.6043 0.2073
C29 C 0.1996(3) 0.4508(8) 0.25838(16)
H14 H 0.1736 0.3785 0.2538
H15 H 0.2014 0.5478 0.2782
H16 H 0.2250 0.3723 0.2692
C30 C 0.33523(9) 0.4674(4) 0.16606(8)
H17 H 0.3363 0.5959 0.1580
H18 H 0.3559 0.3963 0.1577
C31 C 0.34649(10) 0.4529(4) 0.21311(8)
H19 H 0.3488 0.3231 0.2212
H20 H 0.3231 0.5080 0.2204
C32 C 0.38949(11) 0.5509(5) 0.23719(9)
H21 H 0.3877 0.6794 0.2282
H22 H 0.4132 0.4919 0.2311
C33 C 0.39924(13) 0.5429(6) 0.28462(10)
H23 H 0.3761 0.6034 0.2907
H24 H 0.4265 0.6047 0.2993
H25 H 0.4012 0.4157 0.2935
C34 C 0.42267(9) 0.6078(5) 0.04099(9)
H26 H 0.4219 0.4800 0.0497
H27 H 0.4159 0.6887 0.0605
C35 C 0.46715(12) 0.6537(10) 0.03967(13)
H28 H 0.4879 0.6229 0.0674
H29 H 0.4719 0.5636 0.0207
C36 C 0.36693(10) 0.5208(5) -0.09094(10)
H30 H 0.3480 0.4203 -0.1060
H31 H 0.3882 0.4714 -0.0652
C37 C 0.39007(11) 0.6056(6) -0.11761(10)
H32 H 0.3685 0.6356 -0.1450
H33 H 0.4100 0.5146 -0.1217
C38 C 0.48045(17) 0.8087(9) 0.03023(19)
H34 H 0.4792 0.9006 0.0505
H35 H 0.4599 0.8471 0.0030
C39 C 0.52690(19) 0.8128(14) 0.0285(3)
H36 H 0.5480 0.7817 0.0556
H37 H 0.5329 0.9349 0.0207
H38 H 0.5287 0.7244 0.0082
C40 C 0.4173(5) 0.791(2) -0.0975(5)
H39 H 0.3978 0.8785 -0.0914
H40 H 0.4404 0.7592 -0.0711
C41 C 0.4379(5) 0.885(2) -0.1265(4)
H41 H 0.4541 0.7943 -0.1357
H42 H 0.4574 0.9819 -0.1114
H43 H 0.4152 0.9365 -0.1504
C42? C 0.5015(3) 0.6974(16) 0.0794(3)
H44? H 0.5096 0.5853 0.0962
H45? H 0.4903 0.7857 0.0945
C43? C 0.5429(3) 0.7798(17) 0.0740(4)
H46? H 0.5507 0.7052 0.0545
H47? H 0.5667 0.7809 0.1006
H48? H 0.5368 0.9044 0.0635
C44? C 0.4283(4) 0.7170(18) -0.0924(5)
H49? H 0.4466 0.6440 -0.0686
H50? H 0.4184 0.8256 -0.0816
C45? C 0.4554(4) 0.7785(18) -0.1180(4)
H51? H 0.4637 0.6717 -0.1303
H52? H 0.4813 0.8412 -0.1001
H53? H 0.4384 0.8613 -0.1398
loop_
_geom_bond_atom_site_label_1
_geom_bond_atom_site_label_2
_geom_bond_site_symmetry_1
_geom_bond_site_symmetry_2
N1 C16 1_555 1_555
O1 C8 1_555 1_555
O2 C9 1_555 1_555
O3 C12 1_555 1_555
O4 C13 1_555 1_555
O5 C16 1_555 1_555
O6 C17 1_555 1_555
Se1 C7 1_555 1_555
Se2 C10 1_555 1_555
Se3 C14 1_555 1_555
C1 C2 1_555 1_555
C2 C3 1_555 1_555
C3 C4 1_555 1_555
C4 C5 1_555 1_555
C5 C6 1_555 1_555
C6 C1 1_555 1_555
C7 C2 1_555 1_555
C8 C7 1_555 1_555
C9 C8 1_555 1_555
C10 C3 1_555 1_555
C11 Se2 1_555 1_555
C12 C11 1_555 1_555
C13 C12 1_555 1_555
C14 C5 1_555 1_555
C15 Se3 1_555 1_555
C16 C15 1_555 1_555
C17 N1 1_555 1_555
C18 Se1 1_555 1_555
C19 N1 1_555 1_555
C20 C19 1_555 1_555
H1 C20 1_555 1_555
C21 C20 1_555 1_555
H2 C21 1_555 1_555
C22 C21 1_555 1_555
C23 C22 1_555 1_555
H3 C23 1_555 1_555
C24 C19 1_555 1_555
H4 C24 1_555 1_555
C25 C22 1_555 1_555
H5 C25 1_555 1_555
H6 C25 1_555 1_555
H7 C25 1_555 1_555
C26 O1 1_555 1_555
H8 C26 1_555 1_555
H9 C26 1_555 1_555
C27 C26 1_555 1_555
H10 C27 1_555 1_555
H11 C27 1_555 1_555
C28 C27 1_555 1_555
H12 C28 1_555 1_555
H13 C28 1_555 1_555
C29 C28 1_555 1_555
H14 C29 1_555 1_555
H15 C29 1_555 1_555
H16 C29 1_555 1_555
C30 O2 1_555 1_555
H17 C30 1_555 1_555
H18 C30 1_555 1_555
C31 C30 1_555 1_555
H19 C31 1_555 1_555
H20 C31 1_555 1_555
C32 C31 1_555 1_555
H21 C32 1_555 1_555
H22 C32 1_555 1_555
C33 C32 1_555 1_555
H23 C33 1_555 1_555
H24 C33 1_555 1_555
H25 C33 1_555 1_555
C34 O3 1_555 1_555
H26 C34 1_555 1_555
H27 C34 1_555 1_555
C35 C34 1_555 1_555
H28 C35 1_555 1_555
H29 C35 1_555 1_555
C36 O4 1_555 1_555
H30 C36 1_555 1_555
H31 C36 1_555 1_555
C37 C36 1_555 1_555
H32 C37 1_555 1_555
H33 C37 1_555 1_555
C38 C35 1_555 1_555
H34 C38 1_555 1_555
H35 C38 1_555 1_555
C39 C38 1_555 1_555
H36 C39 1_555 1_555
H37 C39 1_555 1_555
H38 C39 1_555 1_555
C40 C37 1_555 1_555
H39 C40 1_555 1_555
H40 C40 1_555 1_555
C41 C40 1_555 1_555
H41 C41 1_555 1_555
H42 C41 1_555 1_555
H43 C41 1_555 1_555
C1 C18 1_555 1_555
C4 C11 1_555 1_555
C6 C15 1_555 1_555
C9 C10 1_555 1_555
C13 C14 1_555 1_555
C17 C18 1_555 1_555
C23 C24 1_555 1_555

#END
