
#######################################################################
#
#                 Cambridge Crystallographic Data Centre
#                                CCDC 
#
#######################################################################
#
# If this CIF has been generated from an entry in the Cambridge 
# Structural Database, then it will include bibliographic, chemical, 
# crystal, experimental, refinement or atomic coordinate data resulting 
# from the CCDC's data processing and validation procedures.
#
#######################################################################

data_FONGIZ
_chemical_formula_moiety         
'C38 H44 N10 O2 4+,2(Cl1 O4 1-),2(Cl1 1-),2(C1 H4 O1)'
_chemical_name_systematic        
"2,2'-(2,11-bis((3H-1,3-Benzimidazol-1-ium-2-yl)methyl)-5,8-dioxa-2,11-diazadodecane-1,12-diyl)bis(3H-1,3-benzimidazol-1-ium) dichloride diperchlorate methanol solvate"
_symmetry_cell_setting           monoclinic
_symmetry_space_group_name_H-M   'P 21/c'
_symmetry_Int_Tables_number      14
_space_group_name_Hall           '-P 2ybc'
loop_
_symmetry_equiv_pos_site_id
_symmetry_equiv_pos_as_xyz
1 x,y,z
2 -x,1/2+y,1/2-z
3 -x,-y,-z
4 x,1/2-y,1/2+z
_cell_length_a                   14.043(2)
_cell_length_b                   12.4625(17)
_cell_length_c                   15.147(2)
_cell_angle_alpha                90
_cell_angle_beta                 107.328(2)
_cell_angle_gamma                90
_cell_volume                     2530.58
_exptl_crystal_colour            'light yellow'
_exptl_crystal_description       block
_cell_formula_units_Z            2
loop_
_atom_site_label
_atom_site_type_symbol
_atom_site_fract_x
_atom_site_fract_y
_atom_site_fract_z
C1 C 0.8972(3) 0.6853(4) 0.8306(3)
H1 H 0.8629 0.7368 0.7840
H2 H 0.8999 0.6177 0.7997
C2 C 0.9998(3) 0.7233(3) 0.8754(3)
C3 C 1.1453(3) 0.7497(3) 0.9795(3)
C4 C 1.1474(3) 0.8002(3) 0.8980(3)
C5 C 1.2284(4) 0.8603(4) 0.8919(4)
H3 H 1.2285 0.8963 0.8382
C6 C 1.3082(4) 0.8629(5) 0.9706(4)
H4 H 1.3651 0.9002 0.9694
C7 C 1.3076(4) 0.8124(4) 1.0516(4)
H5 H 1.3638 0.8173 1.1029
C8 C 1.2268(4) 0.7552(4) 1.0587(3)
H6 H 1.2264 0.7218 1.1136
C9 C 0.7738(4) 0.5769(4) 0.8716(3)
H7 H 0.8054 0.5207 0.8459
H8 H 0.7124 0.5972 0.8252
C10 C 0.7509(4) 0.5359(3) 0.9563(3)
C11 C 0.7724(4) 0.4937(4) 1.1023(4)
C12 C 0.6826(5) 0.4536(4) 1.0512(4)
C13 C 0.6202(6) 0.3985(5) 1.0922(5)
H9 H 0.5586 0.3710 1.0583
C14 C 0.6569(8) 0.3879(6) 1.1869(6)
H10 H 0.6195 0.3496 1.2176
C15 C 0.7458(7) 0.4312(6) 1.2379(5)
H11 H 0.7641 0.4254 1.3020
C16 C 0.8068(5) 0.4810(4) 1.1994(4)
H12 H 0.8689 0.5063 1.2343
C17 C 0.7848(4) 0.7657(4) 0.9090(4)
H13 H 0.7264 0.7423 0.9254
H14 H 0.7616 0.8037 0.8506
C18 C 0.8418(4) 0.8419(4) 0.9807(4)
H15 H 0.7965 0.8926 0.9957
H16 H 0.8763 0.8030 1.0365
C19 C 0.9698(5) 0.9661(4) 1.0213(5)
H17 H 1.0123 0.9235 1.0712
H18 H 0.9263 1.0100 1.0457
O1 O 0.9116(3) 0.8974(2) 0.9471(3)
N1 N 0.8406(3) 0.6703(3) 0.8956(2)
N2 N 1.0536(2) 0.7034(2) 0.9618(2)
H23 H 1.0335 0.6666 1.0009
N3 N 1.0553(3) 0.7800(3) 0.8356(2)
H24 H 1.0367 0.8013 0.7790
N4 N 0.8130(3) 0.5439(3) 1.0414(3)
H25 H 0.8699 0.5757 1.0561
N5 N 0.6712(3) 0.4846(3) 0.9593(3)
H26 H 0.6199 0.4718 0.9128
C1B C 1.1028(3) 1.3147(4) 1.1694(3)
H1B H 1.1371 1.2632 1.2160
H2B H 1.1001 1.3823 1.2003
C2B C 1.0002(3) 1.2767(3) 1.1246(3)
C3B C 0.8547(3) 1.2503(3) 1.0205(3)
C4B C 0.8526(3) 1.1998(3) 1.1020(3)
C5B C 0.7716(4) 1.1397(4) 1.1081(4)
H3B H 0.7715 1.1037 1.1618
C6B C 0.6918(4) 1.1371(5) 1.0294(4)
H4B H 0.6349 1.0998 1.0306
C7B C 0.6924(4) 1.1876(4) 0.9484(4)
H5B H 0.6362 1.1827 0.8971
C8B C 0.7732(4) 1.2448(4) 0.9413(3)
H6B H 0.7736 1.2782 0.8864
C9B C 1.2262(4) 1.4231(4) 1.1284(3)
H7B H 1.1946 1.4793 1.1541
H8B H 1.2876 1.4028 1.1748
C10B C 1.2491(4) 1.4641(3) 1.0437(3)
C11B C 1.2276(4) 1.5063(4) 0.8977(4)
C12B C 1.3174(5) 1.5464(4) 0.9488(4)
C13B C 1.3798(6) 1.6015(5) 0.9078(5)
H9B H 1.4414 1.6290 0.9417
C14B C 1.3431(8) 1.6121(6) 0.8131(6)
H10B H 1.3805 1.6504 0.7824
C15B C 1.2542(7) 1.5688(6) 0.7621(5)
H11B H 1.2359 1.5746 0.6980
C16B C 1.1932(5) 1.5190(4) 0.8006(4)
H12B H 1.1311 1.4937 0.7657
C17B C 1.2152(4) 1.2343(4) 1.0910(4)
H13B H 1.2736 1.2577 1.0746
H14B H 1.2384 1.1963 1.1494
C18B C 1.1582(4) 1.1581(4) 1.0193(4)
H15B H 1.2035 1.1074 1.0043
H16B H 1.1237 1.1970 0.9635
C19B C 1.0302(5) 1.0339(4) 0.9787(5)
H17B H 0.9877 1.0765 0.9288
H18B H 1.0737 0.9900 0.9543
O1B O 1.0884(3) 1.1026(2) 1.0529(3)
N1B N 1.1594(3) 1.3297(3) 1.1044(2)
N2B N 0.9464(2) 1.2966(2) 1.0382(2)
H23B H 0.9665 1.3334 0.9991
N3B N 0.9447(3) 1.2200(3) 1.1644(2)
H24B H 0.9633 1.1987 1.2210
N4B N 1.1870(3) 1.4561(3) 0.9586(3)
H25B H 1.1301 1.4243 0.9439
N5B N 1.3288(3) 1.5154(3) 1.0407(3)
H26B H 1.3801 1.5282 1.0872
O2 O 0.5379(6) 0.4011(6) 0.8132(3)
H19 H 0.5508 0.3400 0.8332
C20 C 0.5214(13) 0.4015(16) 0.7077(8)
H20 H 0.4621 0.4414 0.6777
H21 H 0.5141 0.3290 0.6851
H22 H 0.5777 0.4342 0.6948
Cl1 Cl 0.03084(9) 0.60939(11) 0.14596(7)
Cl2 Cl 0.63324(10) 0.78763(13) 0.11461(9)
O3 O 0.6010(7) 0.7630(8) 0.1906(5)
O4 O 0.5918(13) 0.8784(8) 0.0729(9)
O5 O 0.6060(8) 0.7305(8) 0.0357(5)
O6 O 0.7225(6) 0.8257(15) 0.1417(5)
loop_
_geom_bond_atom_site_label_1
_geom_bond_atom_site_label_2
_geom_bond_site_symmetry_1
_geom_bond_site_symmetry_2
C1 H1 1_555 1_555
H2 C1 1_555 1_555
C2 C1 1_555 1_555
C3 C4 1_555 1_555
C4 C5 1_555 1_555
C5 H3 1_555 1_555
C6 C5 1_555 1_555
H4 C6 1_555 1_555
C7 C6 1_555 1_555
H5 C7 1_555 1_555
C8 C3 1_555 1_555
H6 C8 1_555 1_555
C9 H7 1_555 1_555
H8 C9 1_555 1_555
C10 C9 1_555 1_555
C11 C12 1_555 1_555
C12 C13 1_555 1_555
C13 H9 1_555 1_555
C14 C13 1_555 1_555
H10 C14 1_555 1_555
C15 C14 1_555 1_555
H11 C15 1_555 1_555
C16 C11 1_555 1_555
H12 C16 1_555 1_555
C17 H13 1_555 1_555
H14 C17 1_555 1_555
C18 C17 1_555 1_555
H15 C18 1_555 1_555
H16 C18 1_555 1_555
C19 H17 1_555 1_555
H18 C19 1_555 1_555
O1 C18 1_555 1_555
O2 H19 1_555 1_555
C20 O2 1_555 1_555
H20 C20 1_555 1_555
H21 C20 1_555 1_555
H22 C20 1_555 1_555
N1 C1 1_555 1_555
N2 C2 1_555 1_555
H23 N2 1_555 1_555
N3 C2 1_555 1_555
H24 N3 1_555 1_555
N4 C10 1_555 1_555
H25 N4 1_555 1_555
N5 C10 1_555 1_555
H26 N5 1_555 1_555
Cl2 O3 1_555 1_555
O4 Cl2 1_555 1_555
O5 Cl2 1_555 1_555
O6 Cl2 1_555 1_555
C1B H1B 1_555 1_555
H2B C1B 1_555 1_555
C2B C1B 1_555 1_555
C3B C4B 1_555 1_555
C4B C5B 1_555 1_555
C5B H3B 1_555 1_555
C6B C5B 1_555 1_555
H4B C6B 1_555 1_555
C7B C6B 1_555 1_555
H5B C7B 1_555 1_555
C8B C3B 1_555 1_555
H6B C8B 1_555 1_555
C9B H7B 1_555 1_555
H8B C9B 1_555 1_555
C10B C9B 1_555 1_555
C11B C12B 1_555 1_555
C12B C13B 1_555 1_555
C13B H9B 1_555 1_555
C14B C13B 1_555 1_555
H10B C14B 1_555 1_555
C15B C14B 1_555 1_555
H11B C15B 1_555 1_555
C16B C11B 1_555 1_555
H12B C16B 1_555 1_555
C17B H13B 1_555 1_555
H14B C17B 1_555 1_555
C18B C17B 1_555 1_555
H15B C18B 1_555 1_555
H16B C18B 1_555 1_555
C19B C19 1_555 1_555
H17B C19B 1_555 1_555
H18B C19B 1_555 1_555
O1B C18B 1_555 1_555
N1B C1B 1_555 1_555
N2B C2B 1_555 1_555
H23B N2B 1_555 1_555
N3B C2B 1_555 1_555
H24B N3B 1_555 1_555
N4B C10B 1_555 1_555
H25B N4B 1_555 1_555
N5B C10B 1_555 1_555
H26B N5B 1_555 1_555
C3 N2 1_555 1_555
C4 N3 1_555 1_555
C7 C8 1_555 1_555
C9 N1 1_555 1_555
C11 N4 1_555 1_555
C12 N5 1_555 1_555
C15 C16 1_555 1_555
C17 N1 1_555 1_555
C19 O1 1_555 1_555
C3B N2B 1_555 1_555
C4B N3B 1_555 1_555
C7B C8B 1_555 1_555
C9B N1B 1_555 1_555
C11B N4B 1_555 1_555
C12B N5B 1_555 1_555
C15B C16B 1_555 1_555
C17B N1B 1_555 1_555
C19B O1B 1_555 1_555

#END
