
#######################################################################
#
#                 Cambridge Crystallographic Data Centre
#                                CCDC 
#
#######################################################################
#
# If this CIF has been generated from an entry in the Cambridge 
# Structural Database, then it will include bibliographic, chemical, 
# crystal, experimental, refinement or atomic coordinate data resulting 
# from the CCDC's data processing and validation procedures.
#
#######################################################################

data_FONHEW
_chemical_formula_moiety         'C9 H6 O6,2(H2 O1)'
_chemical_name_systematic        'Trimesic acid dihydrate'
_symmetry_cell_setting           orthorhombic
_symmetry_space_group_name_H-M   'P n a 21'
_symmetry_Int_Tables_number      33
_space_group_name_Hall           'P 2c -2n'
loop_
_symmetry_equiv_pos_site_id
_symmetry_equiv_pos_as_xyz
1 x,y,z
2 -x,-y,1/2+z
3 1/2+x,1/2-y,z
4 1/2-x,1/2+y,1/2+z
_cell_length_a                   21.000(4)
_cell_length_b                   13.343(2)
_cell_length_c                   3.6863(6)
_cell_angle_alpha                90
_cell_angle_beta                 90
_cell_angle_gamma                90
_cell_volume                     1032.91
_exptl_crystal_colour            colorless
_exptl_crystal_description       prism
_cell_formula_units_Z            4
loop_
_atom_site_label
_atom_site_type_symbol
_atom_site_fract_x
_atom_site_fract_y
_atom_site_fract_z
C1 C 0.4883(3) 0.1629(5) 0.260(2)
H1 H 0.5096 0.1063 0.3439
C2 C 0.4900(3) 0.3336(5) 0.062(2)
H2 H 0.5126 0.3916 0.0067
O1 O 0.62084(18) 0.3316(3) 0.2449(18)
H3 H 0.6534 0.3340 0.1221
C3 C 0.4223(3) 0.1602(4) 0.226(2)
C4 C 0.4242(3) 0.3330(5) 0.035(2)
O2 O 0.32837(19) 0.0603(3) 0.2789(19)
C5 C 0.3854(3) 0.0690(5) 0.315(2)
O3 O 0.62475(19) 0.1683(3) 0.1802(18)
C6 C 0.3896(3) 0.4276(4) -0.0623(19)
O4 O 0.4262(2) 0.5062(3) -0.023(2)
H4 H 0.4112 0.5535 -0.1365
C7 C 0.5227(3) 0.2472(5) 0.1736(19)
O5 O 0.4214(2) -0.0008(3) 0.4503(19)
H5 H 0.4008 -0.0527 0.4702
C8 C 0.3908(3) 0.2454(5) 0.1108(19)
H6 H 0.3468 0.2442 0.0836
O6 O 0.3348(2) 0.4319(3) -0.1540(18)
C9 C 0.5944(2) 0.2473(5) 0.203(2)
O7 O 0.7462(2) 0.2071(5) 0.464(3)
H8 H 0.768(4) 0.155(5) 0.54(4)
H9 H 0.708(3) 0.194(8) 0.43(4)
O8 O 0.7253(3) 0.3919(5) 0.805(2)
H7 H 0.729(5) 0.334(5) 0.69(3)
H10 H 0.760(3) 0.421(7) 0.91(3)
loop_
_geom_bond_atom_site_label_1
_geom_bond_atom_site_label_2
_geom_bond_site_symmetry_1
_geom_bond_site_symmetry_2
C1 H1 1_555 1_555
C2 H2 1_555 1_555
O1 H3 1_555 1_555
C3 C1 1_555 1_555
C4 C2 1_555 1_555
O2 C5 1_555 1_555
C5 C3 1_555 1_555
O3 C9 1_555 1_555
C6 C4 1_555 1_555
O4 C6 1_555 1_555
H4 O4 1_555 1_555
C7 C1 1_555 1_555
O5 C5 1_555 1_555
H5 O5 1_555 1_555
C8 C3 1_555 1_555
H6 C8 1_555 1_555
O6 C6 1_555 1_555
C9 O1 1_555 1_555
O7 H8 1_555 1_555
O8 H7 1_555 1_555
H9 O7 1_555 1_555
H10 O8 1_555 1_555
C2 C7 1_555 1_555
C4 C8 1_555 1_555
C7 C9 1_555 1_555

#END
