
#######################################################################
#
#                 Cambridge Crystallographic Data Centre
#                                CCDC 
#
#######################################################################
#
# If this CIF has been generated from an entry in the Cambridge 
# Structural Database, then it will include bibliographic, chemical, 
# crystal, experimental, refinement or atomic coordinate data resulting 
# from the CCDC's data processing and validation procedures.
#
#######################################################################

data_FONKEZ
_chemical_name_common            Salicylideneacetone
_chemical_formula_moiety         'C10 H10 O2'
_chemical_name_systematic        (E)-4-(2-Hydroxyphenyl)but-3-en-2-one
_symmetry_cell_setting           triclinic
_symmetry_space_group_name_H-M   'P -1'
_symmetry_Int_Tables_number      2
_space_group_name_Hall           '-P 1'
loop_
_symmetry_equiv_pos_site_id
_symmetry_equiv_pos_as_xyz
1 x,y,z
2 -x,-y,-z
_cell_length_a                   7.3500(15)
_cell_length_b                   7.4900(15)
_cell_length_c                   8.8100(18)
_cell_angle_alpha                97.05(3)
_cell_angle_beta                 95.86(3)
_cell_angle_gamma                115.34(3)
_cell_volume                     428.511
_exptl_crystal_colour            'light orange'
_exptl_crystal_description       prism
_cell_formula_units_Z            2
loop_
_atom_site_label
_atom_site_type_symbol
_atom_site_fract_x
_atom_site_fract_y
_atom_site_fract_z
O1 O 0.8202(3) 0.2329(3) -0.44701(17)
O2 O 0.8858(2) 0.2360(3) 0.25542(16)
H1 H 0.8825 0.2404 0.3485
C1 C 1.0725(3) 0.2584(3) 0.2285(2)
C2 C 1.2248(3) 0.2796(3) 0.3462(2)
H2 H 1.2007 0.2793 0.4478
C3 C 1.4111(3) 0.3012(3) 0.3135(3)
H3 H 1.5126 0.3162 0.3933
C4 C 1.4486(3) 0.3008(3) 0.1632(3)
H4 H 1.5747 0.3149 0.1412
C5 C 1.2984(3) 0.2794(3) 0.0466(2)
H5 H 1.3241 0.2782 -0.0546
C6 C 1.1079(3) 0.2592(3) 0.0752(2)
C7 C 0.9467(3) 0.2383(3) -0.0469(2)
H6 H 0.8217 0.2157 -0.0178
C8 C 0.9593(3) 0.2480(3) -0.1951(2)
H7 H 1.0838 0.2719 -0.2258
C9 C 0.7928(3) 0.2242(3) -0.3133(2)
C10 C 0.5897(3) 0.1899(4) -0.2731(2)
H8 H 0.5950 0.3158 -0.2280
H9 H 0.5554 0.1005 -0.2000
H10 H 0.4877 0.1313 -0.3654
loop_
_geom_bond_atom_site_label_1
_geom_bond_atom_site_label_2
_geom_bond_site_symmetry_1
_geom_bond_site_symmetry_2
O1 C9 1_555 1_555
O2 H1 1_555 1_555
C1 O2 1_555 1_555
C2 C1 1_555 1_555
H2 C2 1_555 1_555
C3 C2 1_555 1_555
H3 C3 1_555 1_555
C4 C3 1_555 1_555
H4 C4 1_555 1_555
C5 C4 1_555 1_555
H5 C5 1_555 1_555
C6 C1 1_555 1_555
C7 C6 1_555 1_555
H6 C7 1_555 1_555
C8 C7 1_555 1_555
H7 C8 1_555 1_555
C9 C8 1_555 1_555
C10 C9 1_555 1_555
H8 C10 1_555 1_555
H9 C10 1_555 1_555
H10 C10 1_555 1_555
C5 C6 1_555 1_555

#END
