
#######################################################################
#
#                 Cambridge Crystallographic Data Centre
#                                CCDC 
#
#######################################################################
#
# If this CIF has been generated from an entry in the Cambridge 
# Structural Database, then it will include bibliographic, chemical, 
# crystal, experimental, refinement or atomic coordinate data resulting 
# from the CCDC's data processing and validation procedures.
#
#######################################################################

data_FONKAV
_chemical_formula_moiety         'C10 H8 Br1 N1 S1'
_chemical_name_systematic        4-(4-Bromo-5-methylthiophen-2-yl)pyridine
_symmetry_cell_setting           orthorhombic
_symmetry_space_group_name_H-M   'P b c a'
_symmetry_Int_Tables_number      61
_space_group_name_Hall           '-P 2ac 2ab'
loop_
_symmetry_equiv_pos_site_id
_symmetry_equiv_pos_as_xyz
1 x,y,z
2 1/2-x,-y,1/2+z
3 -x,1/2+y,1/2-z
4 1/2+x,1/2-y,-z
5 -x,-y,-z
6 1/2+x,y,1/2-z
7 x,1/2-y,1/2+z
8 1/2-x,1/2+y,z
_cell_length_a                   12.726(4)
_cell_length_b                   11.629(4)
_cell_length_c                   13.705(5)
_cell_angle_alpha                90
_cell_angle_beta                 90
_cell_angle_gamma                90
_cell_volume                     2028.21
_exptl_crystal_colour            yellow
_exptl_crystal_description       prism
_cell_formula_units_Z            8
_exptl_crystal_recrystallization_method chloroform
loop_
_atom_site_label
_atom_site_type_symbol
_atom_site_fract_x
_atom_site_fract_y
_atom_site_fract_z
Br1 Br 0.58285(6) 0.09948(5) 0.58074(6)
S1 S 0.63015(11) 0.46445(12) 0.63320(12)
N1 N 0.2656(4) 0.6984(4) 0.6460(4)
C1 C 0.4972(4) 0.4335(4) 0.6283(4)
C2 C 0.4827(4) 0.3181(4) 0.6130(4)
H1 H 0.4172 0.2828 0.6088
C3 C 0.5792(4) 0.2595(4) 0.6044(4)
C4 C 0.6657(4) 0.3231(4) 0.6139(4)
C5 C 0.7819(4) 0.2910(5) 0.6119(5)
H2 H 0.8206 0.3497 0.5783
H3 H 0.7906 0.2190 0.5787
H4 H 0.8076 0.2842 0.6775
C6 C 0.4189(4) 0.5242(4) 0.6365(4)
C7 C 0.3132(4) 0.4983(4) 0.6342(4)
H5 H 0.2904 0.4226 0.6292
C8 C 0.2414(5) 0.5886(5) 0.6395(5)
H6 H 0.1704 0.5696 0.6384
C9 C 0.3682(5) 0.7210(5) 0.6495(5)
H7 H 0.3887 0.7974 0.6557
C10 C 0.4462(4) 0.6388(4) 0.6447(4)
H8 H 0.5165 0.6604 0.6469
loop_
_geom_bond_atom_site_label_1
_geom_bond_atom_site_label_2
_geom_bond_site_symmetry_1
_geom_bond_site_symmetry_2
Br1 C3 1_555 1_555
S1 C1 1_555 1_555
N1 C8 1_555 1_555
C1 C2 1_555 1_555
C2 H1 1_555 1_555
C3 C2 1_555 1_555
C4 S1 1_555 1_555
C5 C4 1_555 1_555
H2 C5 1_555 1_555
H3 C5 1_555 1_555
H4 C5 1_555 1_555
C6 C1 1_555 1_555
C7 C6 1_555 1_555
H5 C7 1_555 1_555
C8 C7 1_555 1_555
H6 C8 1_555 1_555
C9 N1 1_555 1_555
H7 C9 1_555 1_555
C10 C6 1_555 1_555
H8 C10 1_555 1_555
C3 C4 1_555 1_555
C9 C10 1_555 1_555

#END
