
#######################################################################
#
#                 Cambridge Crystallographic Data Centre
#                                CCDC 
#
#######################################################################
#
# If this CIF has been generated from an entry in the Cambridge 
# Structural Database, then it will include bibliographic, chemical, 
# crystal, experimental, refinement or atomic coordinate data resulting 
# from the CCDC's data processing and validation procedures.
#
#######################################################################

data_FONMIF
_chemical_formula_moiety         'C48 H44 N6 O2 S1,2(C2 H3 N1)'
_chemical_name_systematic        
"7''-Benzyl-9''-benzylidene-4'-(4-(dimethylamino)phenyl)-1'-methyl-5''-phenyl-2'',3'',6'',7'',8'',9''-hexahydro-1H-indole-3(2H)-spiro-2'-pyrrolidine-3'-spiro-2''-pyrido(4,3-d)thiazolo(3,2-a)pyrimidine-2,2''-dione acetonitrile solvate"
_symmetry_cell_setting           triclinic
_symmetry_space_group_name_H-M   'P -1'
_symmetry_Int_Tables_number      2
_space_group_name_Hall           '-P 1'
loop_
_symmetry_equiv_pos_site_id
_symmetry_equiv_pos_as_xyz
1 x,y,z
2 -x,-y,-z
_cell_length_a                   12.4130(14)
_cell_length_b                   13.1265(15)
_cell_length_c                   15.1590(18)
_cell_angle_alpha                87.559(2)
_cell_angle_beta                 74.392(2)
_cell_angle_gamma                77.313(2)
_cell_volume                     2320.47
_exptl_crystal_colour            colorless
_exptl_crystal_description       block
_chemical_melting_point          201deg.C
_cell_formula_units_Z            2
loop_
_atom_site_label
_atom_site_type_symbol
_atom_site_fract_x
_atom_site_fract_y
_atom_site_fract_z
S1 S 0.38776(6) 0.82850(6) 0.23151(5)
O1 O 0.13443(17) 0.71519(16) 0.20890(13)
O2 O 0.50109(18) 0.86219(16) 0.03387(15)
N1 N -0.0030(2) 0.86532(18) 0.63964(15)
N2 N 0.28405(19) 0.85995(18) 0.40903(15)
N3 N 0.19263(18) 0.78586(17) 0.31729(14)
N4 N 0.3478(2) 0.9972(2) 0.03568(18)
H1 H 0.384(3) 1.044(3) 0.020(2)
N5 N 0.3155(2) 0.75362(19) 0.00839(15)
C1 C -0.1177(3) 0.9007(2) 0.7011(2)
H4 H -0.1666 0.9430 0.6680
H5 H -0.1135 0.9424 0.7500
C8 C -0.1918(6) 0.8253(6) 0.7282(5)
C9 C -0.1547(13) 0.7442(6) 0.7823(2)
H11 H -0.0834 0.7365 0.7937
C10 C -0.2241(18) 0.6746(9) 0.8192(4)
H12 H -0.1992 0.6203 0.8554
C11 C -0.3306(15) 0.6861(12) 0.8021(9)
H13 H -0.3770 0.6396 0.8268
C12 C -0.3677(8) 0.7673(12) 0.7480(13)
H14 H -0.4390 0.7750 0.7365
C13 C -0.2984(4) 0.8369(9) 0.7110(10)
H15 H -0.3232 0.8911 0.6748
C14 C 0.0569(2) 0.9513(2) 0.62858(19)
H16 H 0.0630 0.9699 0.6880
H17 H 0.0116 1.0116 0.6063
C15 C 0.1744(2) 0.9263(2) 0.56401(19)
C16 C 0.2659(3) 0.9553(2) 0.5769(2)
H18 H 0.3339 0.9353 0.5312
C17 C 0.2718(3) 1.0151(3) 0.6551(2)
C18 C 0.3648(4) 0.9837(3) 0.6919(3)
H19 H 0.4218 0.9259 0.6668
C19 C 0.3736(5) 1.0375(4) 0.7657(3)
H20 H 0.4355 1.0142 0.7904
C20 C 0.2935(6) 1.1234(5) 0.8022(3)
H21 H 0.3008 1.1598 0.8509
C21 C 0.2015(4) 1.1563(4) 0.7666(3)
H22 H 0.1456 1.2149 0.7916
C22 C 0.1911(3) 1.1026(3) 0.6934(3)
H23 H 0.1284 1.1261 0.6698
C23 C 0.1830(2) 0.8650(2) 0.48234(18)
C24 C 0.0972(2) 0.8204(2) 0.47770(18)
C25 C -0.0113(2) 0.8299(2) 0.55252(18)
H24 H -0.0721 0.8786 0.5341
H25 H -0.0322 0.7624 0.5607
C26 C 0.1052(2) 0.7558(2) 0.39540(17)
H26 H 0.0311 0.7730 0.3808
C27 C 0.1350(3) 0.6392(2) 0.41054(19)
C28 C 0.2232(3) 0.5971(3) 0.4473(3)
H27 H 0.2635 0.6403 0.4658
C29 C 0.2532(4) 0.4899(4) 0.4574(4)
H28 H 0.3150 0.4618 0.4810
C30 C 0.1938(6) 0.4257(3) 0.4332(4)
H29 H 0.2130 0.3541 0.4416
C31 C 0.1067(6) 0.4673(4) 0.3969(3)
H30 H 0.0662 0.4236 0.3795
C32 C 0.0761(4) 0.5738(3) 0.3849(3)
H31 H 0.0156 0.6010 0.3595
C33 C 0.2807(2) 0.8256(2) 0.33255(18)
C34 C 0.2046(2) 0.7543(2) 0.22955(18)
C35 C 0.3177(2) 0.7670(2) 0.16336(18)
C36 C 0.3019(2) 0.8337(2) 0.07756(18)
C37 C 0.1953(2) 0.9195(2) 0.08594(18)
C38 C 0.0799(3) 0.9173(3) 0.10955(19)
H32 H 0.0562 0.8551 0.1260
C39 C 0.0002(3) 1.0099(3) 0.1083(2)
H33 H -0.0776 1.0102 0.1262
C40 C 0.0359(3) 1.1012(3) 0.0807(2)
H34 H -0.0186 1.1621 0.0796
C41 C 0.1506(3) 1.1043(3) 0.0546(2)
H35 H 0.1745 1.1657 0.0350
C42 C 0.2280(2) 1.0128(2) 0.05867(19)
C43 C 0.3977(3) 0.8980(2) 0.04736(19)
C44 C 0.3255(3) 0.7907(3) -0.0852(2)
H36 H 0.2598 0.8447 -0.0864
H37 H 0.3297 0.7337 -0.1246
H38 H 0.3936 0.8179 -0.1061
C45 C 0.4091(3) 0.6689(2) 0.0188(2)
H39 H 0.4825 0.6880 -0.0054
H40 H 0.4093 0.6058 -0.0123
C46 C 0.3840(2) 0.6538(2) 0.12194(19)
H41 H 0.3273 0.6119 0.1362
C47 C 0.4801(7) 0.5954(12) 0.1621(9)
C48 C 0.5882(8) 0.6182(13) 0.1335(10)
H43 H 0.6025 0.6682 0.0891
C49 C 0.6751(8) 0.5662(16) 0.1713(14)
H44 H 0.7474 0.5815 0.1522
C50 C 0.6538(12) 0.4915(14) 0.2377(15)
C51 C 0.5456(14) 0.4686(11) 0.2663(12)
H45 H 0.5314 0.4186 0.3107
C52 C 0.4588(10) 0.5206(12) 0.2285(11)
H46 H 0.3864 0.5053 0.2476
N6 N 0.7493(14) 0.4540(16) 0.2774(17)
C53 C 0.8560(14) 0.492(2) 0.2421(19)
H47 H 0.8949 0.4622 0.1821
H48 H 0.9045 0.4708 0.2824
H49 H 0.8381 0.5664 0.2388
C54 C 0.765(2) 0.3442(14) 0.3054(19)
H50 H 0.7009 0.3354 0.3545
H51 H 0.8340 0.3251 0.3255
H52 H 0.7718 0.3004 0.2543
N8 N 1.0779(4) 0.3506(4) 0.9666(5)
C63 C 0.9842(5) 0.3741(3) 0.9734(3)
C64 C 0.8635(4) 0.4052(4) 0.9821(4)
H63 H 0.8264 0.4441 1.0384
H64 H 0.8326 0.3443 0.9823
H65 H 0.8508 0.4481 0.9314
N9 N 0.4299(17) 0.2150(15) 0.4534(12)
C65 C 0.4315(15) 0.2384(12) 0.5238(11)
C66 C 0.4488(14) 0.3056(13) 0.5951(11)
H66 H 0.4806 0.3626 0.5658
H67 H 0.5003 0.2643 0.6267
H68 H 0.3765 0.3324 0.6381
H2? H -0.1666 0.9430 0.6680
H3? H -0.1135 0.9424 0.7500
C2? C -0.1689(8) 0.8046(6) 0.7413(3)
C3? C -0.1092(14) 0.7232(6) 0.7828(3)
H6? H -0.0334 0.7210 0.7816
C4? C -0.163(2) 0.6450(8) 0.8260(3)
H7? H -0.1227 0.5905 0.8538
C5? C -0.2759(19) 0.6482(11) 0.8278(6)
H8? H -0.3117 0.5959 0.8567
C6? C -0.3356(12) 0.7296(12) 0.7863(10)
H9? H -0.4114 0.7318 0.7875
C7? C -0.2821(7) 0.8078(9) 0.7430(9)
H10? H -0.3221 0.8622 0.7153
H42? H 0.3296 0.6097 0.1375
C55? C 0.4856(8) 0.6025(11) 0.1575(10)
C56? C 0.5909(8) 0.6311(13) 0.1294(11)
H53? H 0.6007 0.6848 0.0880
C57? C 0.6814(9) 0.5794(15) 0.1633(15)
H54? H 0.7518 0.5985 0.1445
C58? C 0.6666(12) 0.4991(13) 0.2252(16)
C59? C 0.5614(14) 0.4706(10) 0.2532(12)
H55? H 0.5515 0.4169 0.2946
C60? C 0.4708(10) 0.5223(11) 0.2194(10)
H56? H 0.4004 0.5031 0.2381
N7? N 0.7550(18) 0.4267(17) 0.2554(17)
C61? C 0.8485(17) 0.472(2) 0.270(2)
H57? H 0.8160 0.5316 0.3112
H58? H 0.8913 0.4943 0.2125
H59? H 0.8985 0.4210 0.2961
C62? C 0.720(2) 0.3476(17) 0.3231(17)
H60? H 0.6980 0.2951 0.2941
H61? H 0.6572 0.3806 0.3722
H62? H 0.7838 0.3157 0.3472
N10? N 0.5004(11) 0.2690(10) 0.4335(6)
C67? C 0.4772(10) 0.2783(10) 0.5106(6)
C68? C 0.4250(8) 0.2585(8) 0.6089(5)
H69? H 0.3435 0.2678 0.6195
H70? H 0.4411 0.3067 0.6469
H71? H 0.4566 0.1883 0.6233
loop_
_geom_bond_atom_site_label_1
_geom_bond_atom_site_label_2
_geom_bond_site_symmetry_1
_geom_bond_site_symmetry_2
S1 C33 1_555 1_555
O1 C34 1_555 1_555
O2 C43 1_555 1_555
N1 C1 1_555 1_555
N2 C23 1_555 1_555
N3 C26 1_555 1_555
N4 H1 1_555 1_555
N5 C36 1_555 1_555
C1 H4 1_555 1_555
H5 C1 1_555 1_555
C8 C1 1_555 1_555
C9 C8 1_555 1_555
H11 C9 1_555 1_555
C10 C9 1_555 1_555
H12 C10 1_555 1_555
C11 C10 1_555 1_555
H13 C11 1_555 1_555
C12 C11 1_555 1_555
H14 C12 1_555 1_555
C13 C8 1_555 1_555
H15 C13 1_555 1_555
C14 N1 1_555 1_555
H16 C14 1_555 1_555
H17 C14 1_555 1_555
C15 C14 1_555 1_555
C16 C15 1_555 1_555
H18 C16 1_555 1_555
C17 C16 1_555 1_555
C18 C17 1_555 1_555
H19 C18 1_555 1_555
C19 C18 1_555 1_555
H20 C19 1_555 1_555
C20 C19 1_555 1_555
H21 C20 1_555 1_555
C21 C20 1_555 1_555
H22 C21 1_555 1_555
C22 C17 1_555 1_555
H23 C22 1_555 1_555
C23 C15 1_555 1_555
C24 C23 1_555 1_555
C25 N1 1_555 1_555
H24 C25 1_555 1_555
H25 C25 1_555 1_555
C26 C24 1_555 1_555
H26 C26 1_555 1_555
C27 C26 1_555 1_555
C28 C27 1_555 1_555
H27 C28 1_555 1_555
C29 C28 1_555 1_555
H28 C29 1_555 1_555
C30 C29 1_555 1_555
H29 C30 1_555 1_555
C31 C30 1_555 1_555
H30 C31 1_555 1_555
C32 C27 1_555 1_555
H31 C32 1_555 1_555
C33 N2 1_555 1_555
C34 N3 1_555 1_555
C35 S1 1_555 1_555
C36 C35 1_555 1_555
C37 C36 1_555 1_555
C38 C37 1_555 1_555
H32 C38 1_555 1_555
C39 C38 1_555 1_555
H33 C39 1_555 1_555
C40 C39 1_555 1_555
H34 C40 1_555 1_555
C41 C40 1_555 1_555
H35 C41 1_555 1_555
C42 N4 1_555 1_555
C43 N4 1_555 1_555
C44 N5 1_555 1_555
H36 C44 1_555 1_555
H37 C44 1_555 1_555
H38 C44 1_555 1_555
C45 N5 1_555 1_555
H39 C45 1_555 1_555
H40 C45 1_555 1_555
C46 C35 1_555 1_555
H41 C46 1_555 1_555
C47 C46 1_555 1_555
C48 C47 1_555 1_555
H43 C48 1_555 1_555
C49 C48 1_555 1_555
H44 C49 1_555 1_555
C50 C49 1_555 1_555
C51 C50 1_555 1_555
H45 C51 1_555 1_555
C52 C47 1_555 1_555
H46 C52 1_555 1_555
N6 C50 1_555 1_555
C53 N6 1_555 1_555
H47 C53 1_555 1_555
H48 C53 1_555 1_555
H49 C53 1_555 1_555
C54 N6 1_555 1_555
H50 C54 1_555 1_555
H51 C54 1_555 1_555
H52 C54 1_555 1_555
N8 C63 1_555 1_555
C63 C64 1_555 1_555
C64 H63 1_555 1_555
H64 C64 1_555 1_555
H65 C64 1_555 1_555
N9 C65 1_555 1_555
C65 C66 1_555 1_555
C66 H66 1_555 1_555
H67 C66 1_555 1_555
H68 C66 1_555 1_555
N3 C33 1_555 1_555
C12 C13 1_555 1_555
C21 C22 1_555 1_555
C24 C25 1_555 1_555
C31 C32 1_555 1_555
C34 C35 1_555 1_555
C36 C43 1_555 1_555
C37 C42 1_555 1_555
C41 C42 1_555 1_555
C45 C46 1_555 1_555
C51 C52 1_555 1_555

#END
