
#######################################################################
#
#                 Cambridge Crystallographic Data Centre
#                                CCDC 
#
#######################################################################
#
# If this CIF has been generated from an entry in the Cambridge 
# Structural Database, then it will include bibliographic, chemical, 
# crystal, experimental, refinement or atomic coordinate data resulting 
# from the CCDC's data processing and validation procedures.
#
#######################################################################

data_FONNAX
_chemical_formula_moiety         'C24 H34 N4 O4 2+,2(Br1 1-)'
_chemical_name_systematic        
'L-Lysyl-L-phenylalanyl-L-phenylalanine dibromide'
_chemical_properties_biological  'antigelling agent'
_symmetry_cell_setting           monoclinic
_symmetry_space_group_name_H-M   'C 2'
_symmetry_Int_Tables_number      5
_space_group_name_Hall           'C 2y'
loop_
_symmetry_equiv_pos_site_id
_symmetry_equiv_pos_as_xyz
1 x,y,z
2 1/2+x,1/2+y,z
3 -x,y,-z
4 1/2-x,1/2+y,-z
_cell_length_a                   21.309(3)
_cell_length_b                   5.091(1)
_cell_length_c                   26.589(3)
_cell_angle_alpha                90
_cell_angle_beta                 108.78(1)
_cell_angle_gamma                90
_cell_volume                     2730.92
_cell_formula_units_Z            4
loop_
_atom_site_label
_atom_site_type_symbol
_atom_site_fract_x
_atom_site_fract_y
_atom_site_fract_z
Br1 Br 0.27071(4) 0.0000 0.17509(3)
Br2 Br 0.16982(4) 0.0254(4) 0.1217(3)
N1 N 0.3408(3) 0.034(2) 0.07781(19)
C1 C 0.4063(3) 0.0679(18) 0.1204(3)
C2 C 0.4602(4) 0.098(2) 0.0931(4)
C3 C 0.5186(6) 0.057(4) 0.1163(6)
C4 C 0.5691(6) 0.017(5) 0.0850(6)
C5 C 0.6334(6) -0.002(4) 0.1238(4)
N2 N 0.6879(3) 0.019(2) 0.0998(2)
C6 C 0.4007(4) 0.3091(18) 0.1519(3)
O1 O 0.3674(3) 0.4991(17) 0.12995(19)
N3 N 0.4346(3) 0.2937(14) 0.2034(2)
C7 C 0.4345(3) 0.504(2) 0.2418(2)
C8 C 0.4090(4) 0.3850(18) 0.2853(3)
C9 C 0.4089(4) 0.5764(18) 0.3279(3)
C10 C 0.4606(4) 0.584(2) 0.3760(3)
C11 C 0.4601(6) 0.759(3) 0.4147(4)
C12 C 0.4099(6) 0.931(3) 0.4078(4)
C13 C 0.3578(6) 0.928(2) 0.3613(4)
C14 C 0.3580(4) 0.755(2) 0.3213(4)
C15 C 0.5045(4) 0.6201(16) 0.2645(3)
O2 O 0.5139(3) 0.8579(11) 0.2633(2)
N4 N 0.5523(3) 0.4478(12) 0.2854(2)
C16 C 0.6222(3) 0.525(3) 0.3009(2)
C17 C 0.6659(4) 0.3314(19) 0.3418(3)
C18 C 0.6564(4) 0.3586(18) 0.3955(3)
C19 C 0.6899(5) 0.562(3) 0.4291(3)
C20 C 0.6814(6) 0.591(2) 0.4799(4)
C21 C 0.6415(6) 0.426(3) 0.4957(4)
C22 C 0.6090(6) 0.236(3) 0.4626(4)
C23 C 0.6161(5) 0.201(2) 0.4122(4)
C24 C 0.6443(4) 0.540(3) 0.2521(3)
O3 O 0.6114(3) 0.464(2) 0.2088(2)
O4 O 0.7038(3) 0.6373(17) 0.2627(2)
H1 H 0.3424(3) -0.137(2) 0.05418(19)
H2 H 0.3302(3) 0.206(2) 0.05272(19)
H3 H 0.3024(3) 0.009(2) 0.09585(19)
H4 H 0.4202(3) -0.0970(18) 0.1473(3)
H5 H 0.4575(4) 0.298(2) 0.0791(4)
H6 H 0.4465(4) -0.034(2) 0.0595(4)
H7 H 0.5362(6) 0.219(4) 0.1435(6)
H8 H 0.5204(6) -0.122(4) 0.1385(6)
H9 H 0.5670(6) 0.186(5) 0.0600(6)
H10 H 0.5575(6) -0.157(5) 0.0608(6)
H11 H 0.6399(6) 0.154(4) 0.1526(4)
H12 H 0.6373(6) -0.190(4) 0.1435(4)
H13 H 0.7357(3) 0.001(2) 0.1301(2)
H14 H 0.6845(3) 0.207(2) 0.0802(2)
H15 H 0.6819(3) -0.137(2) 0.0711(2)
H16 H 0.4666(3) 0.1516(14) 0.2296(2)
H17 H 0.4023(3) 0.665(2) 0.2231(2)
H18 H 0.4408(4) 0.2220(18) 0.3033(3)
H19 H 0.3590(4) 0.3151(18) 0.2668(3)
H20 H 0.5017(4) 0.450(2) 0.3827(3)
H21 H 0.5009(6) 0.761(3) 0.4514(4)
H22 H 0.4105(6) 1.069(3) 0.4387(4)
H23 H 0.3166(6) 1.061(2) 0.3558(4)
H24 H 0.3176(4) 0.759(2) 0.2843(4)
H25 H 0.5555(3) 0.2396(12) 0.2937(2)
H26 H 0.6278(3) 0.717(3) 0.3192(2)
H27 H 0.7173(4) 0.3669(19) 0.3460(3)
H28 H 0.6526(4) 0.1340(19) 0.3274(3)
H29 H 0.7225(5) 0.692(3) 0.4170(3)
H30 H 0.7067(6) 0.748(2) 0.5058(4)
H31 H 0.6360(6) 0.447(3) 0.5345(4)
H32 H 0.5761(6) 0.107(3) 0.4745(4)
H33 H 0.5895(5) 0.045(2) 0.3866(4)
loop_
_geom_bond_atom_site_label_1
_geom_bond_atom_site_label_2
_geom_bond_site_symmetry_1
_geom_bond_site_symmetry_2
N1 C1 1_555 1_555
C1 C2 1_555 1_555
C2 C3 1_555 1_555
C3 C4 1_555 1_555
C4 C5 1_555 1_555
C5 N2 1_555 1_555
N2 H13 1_555 1_555
C6 C1 1_555 1_555
O1 C6 1_555 1_555
N3 C6 1_555 1_555
C7 N3 1_555 1_555
C8 C7 1_555 1_555
C9 C8 1_555 1_555
C10 C9 1_555 1_555
C11 C10 1_555 1_555
C12 C11 1_555 1_555
C13 C12 1_555 1_555
C14 C9 1_555 1_555
C15 C7 1_555 1_555
O2 C15 1_555 1_555
N4 C15 1_555 1_555
C16 N4 1_555 1_555
C17 C16 1_555 1_555
C18 C17 1_555 1_555
C19 C18 1_555 1_555
C20 C19 1_555 1_555
C21 C20 1_555 1_555
C22 C21 1_555 1_555
C23 C18 1_555 1_555
C24 C16 1_555 1_555
O3 C24 1_555 1_555
O4 C24 1_555 1_555
H1 N1 1_555 1_555
H2 N1 1_555 1_555
H3 N1 1_555 1_555
H4 C1 1_555 1_555
H5 C2 1_555 1_555
H6 C2 1_555 1_555
H7 C3 1_555 1_555
H8 C3 1_555 1_555
H9 C4 1_555 1_555
H10 C4 1_555 1_555
H11 C5 1_555 1_555
H12 C5 1_555 1_555
H14 N2 1_555 1_555
H15 N2 1_555 1_555
H16 N3 1_555 1_555
H17 C7 1_555 1_555
H18 C8 1_555 1_555
H19 C8 1_555 1_555
H20 C10 1_555 1_555
H21 C11 1_555 1_555
H22 C12 1_555 1_555
H23 C13 1_555 1_555
H24 C14 1_555 1_555
H25 N4 1_555 1_555
H26 C16 1_555 1_555
H27 C17 1_555 1_555
H28 C17 1_555 1_555
H29 C19 1_555 1_555
H30 C20 1_555 1_555
H31 C21 1_555 1_555
H32 C22 1_555 1_555
H33 C23 1_555 1_555
C13 C14 1_555 1_555
C22 C23 1_555 1_555

#END
