
#######################################################################
#
#                 Cambridge Crystallographic Data Centre
#                                CCDC 
#
#######################################################################
#
# If this CIF has been generated from an entry in the Cambridge 
# Structural Database, then it will include bibliographic, chemical, 
# crystal, experimental, refinement or atomic coordinate data resulting 
# from the CCDC's data processing and validation procedures.
#
#######################################################################

data_FONXUC
_chemical_name_common            
"[2]-(1,1'-(2,5,8,11,14,20,23,26,29,32-Decaoxatricyclo [31.3.1.1$15,19!]octatriaconta-1(37),15(38),16,18,33,35-hexaene-17,35-diylbis(methylene))bis(3-phenylurea))-(1,1'-dimethyl-4,4'-bipyridinium)-pseudorotaxane bis(hexafluorophosphate) acetone cyclohexane solvate"
_chemical_formula_moiety         
'C44 H56 N4 O12,C12 H14 N2 2+,2(F6 P1 1-),0.5(C6 H12),2(C3 H6 O1)'
_chemical_name_systematic        
"[2]-(bis(5-(phenylureidomethylene)-m-phenylene)-32-crown-10)-(N,N'-dimethyl-4,4'-bipyridinium)-pseudorotaxane bis(hexafluorophosphate) acetone cyclohexane solvate"
_symmetry_cell_setting           triclinic
_symmetry_space_group_name_H-M   'P -1'
_symmetry_Int_Tables_number      2
_space_group_name_Hall           '-P 1'
loop_
_symmetry_equiv_pos_site_id
_symmetry_equiv_pos_as_xyz
1 x,y,z
2 -x,-y,-z
_cell_length_a                   11.224(3)
_cell_length_b                   13.322(3)
_cell_length_c                   24.853(6)
_cell_angle_alpha                92.410(7)
_cell_angle_beta                 94.883(6)
_cell_angle_gamma                90.353(7)
_cell_volume                     3699.23
_exptl_crystal_colour            yellow
_exptl_crystal_description       prismatic
_cell_formula_units_Z            2
_exptl_crystal_recrystallization_method pentane/acetone
loop_
_atom_site_label
_atom_site_type_symbol
_atom_site_fract_x
_atom_site_fract_y
_atom_site_fract_z
P1 P 0.6941(4) 0.2322(3) 0.13348(14)
F1 F 0.5876(7) 0.2757(7) 0.1621(3)
F2 F 0.6154(7) 0.1734(6) 0.0885(3)
F3 F 0.6915(10) 0.3259(6) 0.0997(3)
F4 F 0.8046(6) 0.1991(7) 0.1036(3)
F5 F 0.7810(8) 0.2840(8) 0.1791(3)
F6 F 0.6919(10) 0.1384(7) 0.1683(3)
P2 P 0.9429(3) 0.2979(2) 0.40074(13)
F7 F 1.0450(7) 0.2908(9) 0.3653(3)
F8 F 0.9953(7) 0.4011(6) 0.4221(4)
F9 F 0.8425(8) 0.3116(6) 0.4372(4)
F10 F 1.0355(7) 0.2539(5) 0.4452(3)
F11 F 0.8620(7) 0.3547(7) 0.3608(4)
F12 F 0.8922(8) 0.1971(6) 0.3846(5)
O1 O 0.3786(6) 0.1240(4) 0.5923(2)
O2 O 0.5742(7) -0.0069(4) 0.5849(3)
O3 O 0.8058(8) 0.0245(5) 0.5595(3)
O4 O 0.9285(5) 0.2084(5) 0.5897(2)
O5 O 0.9523(5) 0.3257(4) 0.6848(2)
O6 O 0.8672(6) 0.3501(5) 0.8680(3)
O7 O 0.6822(8) 0.2568(5) 0.9195(3)
O8 O 0.4491(9) 0.3155(7) 0.9296(3)
O9 O 0.3153(6) 0.4113(5) 0.8446(3)
O10 O 0.3032(6) 0.3612(4) 0.7309(2)
O11 O 0.4526(6) 0.4009(4) 0.4691(2)
O12 O 0.7640(7) 0.7367(5) 0.8468(3)
N1 N 0.2574(6) 0.4155(4) 0.4844(3)
H1 H 0.1850 0.4072 0.4705
N2 N 0.3081(6) 0.3403(4) 0.4053(3)
H2 H 0.2319 0.3342 0.3985
N3 N 0.9566(7) 0.7092(5) 0.8307(3)
H3 H 1.0298 0.7152 0.8439
N4 N 0.9143(7) 0.7965(6) 0.9071(3)
H4 H 0.9908 0.7996 0.9134
C1 C 0.2994(7) 0.3811(6) 0.5826(3)
C2 C 0.2903(7) 0.4139(6) 0.6375(3)
H5 H 0.2707 0.4797 0.6470
C3 C 0.3121(7) 0.3433(7) 0.6754(4)
C4 C 0.3389(7) 0.2455(6) 0.6637(3)
H6 H 0.3515 0.1999 0.6909
C5 C 0.3468(7) 0.2165(6) 0.6104(4)
C6 C 0.3266(7) 0.2851(6) 0.5700(3)
H7 H 0.3320 0.2646 0.5341
C7 C 0.4092(9) 0.0489(6) 0.6295(4)
H8 H 0.3385 0.0268 0.6457
H9 H 0.4664 0.0757 0.6580
C8 C 0.4629(11) -0.0381(6) 0.5996(4)
H10 H 0.4723 -0.0950 0.6226
H11 H 0.4111 -0.0582 0.5677
C9 C 0.6328(12) -0.0760(6) 0.5562(4)
H12 H 0.6079 -0.0699 0.5182
H13 H 0.6088 -0.1423 0.5662
C10 C 0.7548(13) -0.0690(9) 0.5631(5)
H14 H 0.7870 -0.1139 0.5363
H15 H 0.7805 -0.0938 0.5983
C11 C 0.9236(13) 0.0316(9) 0.5723(6)
H16 H 0.9617 -0.0200 0.5512
H17 H 0.9390 0.0163 0.6100
C12 C 0.9820(10) 0.1275(8) 0.5643(5)
H18 H 1.0653 0.1244 0.5782
H19 H 0.9799 0.1383 0.5259
C13 C 1.0047(8) 0.2954(7) 0.5965(4)
H20 H 1.0100 0.3253 0.5618
H21 H 1.0845 0.2759 0.6100
C14 C 0.9584(8) 0.3685(6) 0.6341(3)
H22 H 1.0102 0.4274 0.6380
H23 H 0.8794 0.3893 0.6203
C15 C 0.9346(7) 0.3886(7) 0.7291(4)
C16 C 0.9388(7) 0.4935(6) 0.7305(3)
H24 H 0.9500 0.5273 0.6993
C17 C 0.9261(8) 0.5468(7) 0.7786(4)
C18 C 0.9043(8) 0.4966(7) 0.8243(4)
H25 H 0.8966 0.5321 0.8568
C19 C 0.8941(8) 0.3934(8) 0.8211(4)
C20 C 0.9121(7) 0.3373(6) 0.7749(4)
H26 H 0.9095 0.2674 0.7742
C21 C 0.8499(9) 0.2437(7) 0.8676(4)
H27 H 0.9254 0.2099 0.8643
H28 H 0.7947 0.2220 0.8371
C22 C 0.8004(12) 0.2183(8) 0.9195(4)
H29 H 0.7989 0.1460 0.9227
H30 H 0.8504 0.2477 0.9499
C23 C 0.6249(12) 0.2345(10) 0.9648(4)
H31 H 0.5977 0.1651 0.9612
H32 H 0.6821 0.2410 0.9963
C24 C 0.5280(15) 0.2953(10) 0.9733(5)
H33 H 0.4829 0.2644 1.0000
H34 H 0.5587 0.3590 0.9893
C25 C 0.3420(14) 0.3568(11) 0.9325(6)
H35 H 0.3563 0.4204 0.9525
H36 H 0.2997 0.3145 0.9556
C26 C 0.2602(11) 0.3768(11) 0.8894(5)
H37 H 0.2147 0.3162 0.8784
H38 H 0.2048 0.4272 0.9010
C27 C 0.2248(9) 0.4451(8) 0.8052(4)
H39 H 0.1952 0.5096 0.8174
H40 H 0.1584 0.3977 0.8017
C28 C 0.2728(8) 0.4548(7) 0.7516(3)
H41 H 0.2129 0.4847 0.7269
H42 H 0.3427 0.4985 0.7554
C29 C 0.2808(8) 0.4578(5) 0.5388(3)
H43 H 0.2143 0.5004 0.5470
H44 H 0.3516 0.5003 0.5402
C30 C 0.3511(10) 0.3883(6) 0.4549(3)
C31 C 0.3821(9) 0.3015(5) 0.3658(3)
C32 C 0.3205(8) 0.2471(6) 0.3224(4)
H45 H 0.2385 0.2364 0.3219
C33 C 0.3822(12) 0.2097(7) 0.2803(4)
H46 H 0.3413 0.1735 0.2516
C34 C 0.5044(12) 0.2255(7) 0.2804(4)
H47 H 0.5460 0.2014 0.2518
C35 C 0.5637(8) 0.2792(6) 0.3249(4)
H48 H 0.6462 0.2886 0.3267
C36 C 0.5006(8) 0.3173(5) 0.3653(3)
H49 H 0.5406 0.3556 0.3934
C37 C 0.9305(9) 0.6607(6) 0.7787(4)
H50 H 0.9907 0.6807 0.7553
H51 H 0.8540 0.6844 0.7633
C38 C 0.8697(12) 0.7456(7) 0.8595(4)
C39 C 0.8462(13) 0.8437(7) 0.9462(4)
C40 C 0.9066(14) 0.8800(10) 0.9933(6)
H52 H 0.9890 0.8728 0.9988
C41 C 0.841(2) 0.9295(16) 1.0343(7)
H53 H 0.8808 0.9472 1.0678
C42 C 0.730(2) 0.9496(15) 1.0252(10)
H54 H 0.6901 0.9909 1.0489
C43 C 0.6751(15) 0.9095(11) 0.9817(7)
H55 H 0.5926 0.9170 0.9765
C44 C 0.7292(13) 0.8576(8) 0.9434(5)
H56 H 0.6826 0.8303 0.9135
O13 O 0.5664(10) 0.1015(8) 0.7664(5)
C57 C 0.6022(14) 0.0020(11) 0.8382(7)
H71 H 0.6784 0.0027 0.8233
H72 H 0.5689 -0.0647 0.8344
H73 H 0.6123 0.0227 0.8758
C58 C 0.5162(15) 0.0756(11) 0.8074(6)
C59 C 0.4000(16) 0.1094(13) 0.8208(8)
H74 H 0.3391 0.0730 0.7984
H75 H 0.3928 0.1799 0.8149
H76 H 0.3909 0.0977 0.8581
N5 N 0.5925(6) 0.4958(6) 0.8342(3)
N6 N 0.6435(5) 0.2738(5) 0.5771(3)
C45 C 0.5900(7) 0.3518(6) 0.7756(3)
H57 H 0.5821 0.2824 0.7707
C46 C 0.5794(7) 0.3952(7) 0.8249(4)
H58 H 0.5626 0.3552 0.8532
C47 C 0.6120(7) 0.5539(6) 0.7922(4)
H59 H 0.6197 0.6231 0.7981
C48 C 0.6206(7) 0.5120(6) 0.7405(3)
H60 H 0.6316 0.5532 0.7120
C49 C 0.6127(6) 0.4086(5) 0.7316(3)
C50 C 0.6254(6) 0.3620(5) 0.6778(3)
C51 C 0.5940(6) 0.4133(5) 0.6305(3)
H61 H 0.5662 0.4788 0.6328
C52 C 0.6045(7) 0.3670(6) 0.5817(3)
H62 H 0.5837 0.4016 0.5506
C53 C 0.6755(7) 0.2221(6) 0.6211(3)
H63 H 0.7053 0.1574 0.6176
C54 C 0.6638(7) 0.2652(5) 0.6710(3)
H64 H 0.6825 0.2279 0.7013
C55 C 0.5857(9) 0.5423(6) 0.8881(3)
H65 H 0.5035 0.5463 0.8960
H66 H 0.6199 0.6087 0.8894
H67 H 0.6291 0.5026 0.9144
C56 C 0.6505(8) 0.2271(6) 0.5218(3)
H68 H 0.7251 0.2453 0.5085
H69 H 0.5856 0.2505 0.4981
H70 H 0.6453 0.1553 0.5234
C63 C 0.1277(18) 0.5130(18) 0.0093(10)
H77 H 0.2074 0.5004 -0.0016
H78 H 0.1354 0.5490 0.0442
C64 C 0.0676(15) 0.4222(12) 0.0134(6)
H79 H 0.1148 0.3824 0.0390
H80 H 0.0652 0.3864 -0.0215
C65 C 0.061(2) 0.5737(16) -0.0306(9)
H81 H 0.0949 0.6407 -0.0305
H82 H 0.0616 0.5427 -0.0666
C63A C -0.1277(18) 0.4870(18) -0.0093(10)
H77A H -0.2074 0.4996 0.0016
H78A H -0.1354 0.4510 -0.0442
C64A C -0.0676(15) 0.5778(12) -0.0134(6)
H79A H -0.1148 0.6176 -0.0390
H80A H -0.0652 0.6136 0.0215
C65A C -0.061(2) 0.4263(16) 0.0306(9)
H81A H -0.0949 0.3593 0.0305
H82A H -0.0616 0.4573 0.0666
O14? O 0.897(3) 0.032(3) 0.7490(19)
C60? C 1.037(3) 0.064(3) 0.7830(13)
C61? C 0.953(4) -0.025(3) 0.776(2)
C62? C 1.054(4) -0.026(3) 0.7388(18)
loop_
_geom_bond_atom_site_label_1
_geom_bond_atom_site_label_2
_geom_bond_site_symmetry_1
_geom_bond_site_symmetry_2
P1 F1 1_555 1_555
P2 F7 1_555 1_555
F2 P1 1_555 1_555
F3 P1 1_555 1_555
F4 P1 1_555 1_555
F5 P1 1_555 1_555
F6 P1 1_555 1_555
F8 P2 1_555 1_555
F9 P2 1_555 1_555
F10 P2 1_555 1_555
F11 P2 1_555 1_555
F12 P2 1_555 1_555
O1 C5 1_555 1_555
O2 C8 1_555 1_555
O3 C10 1_555 1_555
O4 C12 1_555 1_555
O5 C14 1_555 1_555
O6 C19 1_555 1_555
O7 C22 1_555 1_555
O8 C24 1_555 1_555
O9 C26 1_555 1_555
O10 C3 1_555 1_555
O11 C30 1_555 1_555
O12 C38 1_555 1_555
O13 C58 1_555 1_555
N1 H1 1_555 1_555
N2 H2 1_555 1_555
N3 H3 1_555 1_555
N4 H4 1_555 1_555
N5 C46 1_555 1_555
N6 C52 1_555 1_555
C1 C2 1_555 1_555
C2 H5 1_555 1_555
C3 C2 1_555 1_555
C4 C3 1_555 1_555
H6 C4 1_555 1_555
C5 C4 1_555 1_555
C6 C1 1_555 1_555
H7 C6 1_555 1_555
C7 O1 1_555 1_555
H8 C7 1_555 1_555
H9 C7 1_555 1_555
C8 C7 1_555 1_555
H10 C8 1_555 1_555
H11 C8 1_555 1_555
C9 O2 1_555 1_555
H12 C9 1_555 1_555
H13 C9 1_555 1_555
C10 C9 1_555 1_555
H14 C10 1_555 1_555
H15 C10 1_555 1_555
C11 O3 1_555 1_555
H16 C11 1_555 1_555
H17 C11 1_555 1_555
C12 C11 1_555 1_555
H18 C12 1_555 1_555
H19 C12 1_555 1_555
C13 O4 1_555 1_555
H20 C13 1_555 1_555
H21 C13 1_555 1_555
C14 C13 1_555 1_555
H22 C14 1_555 1_555
H23 C14 1_555 1_555
C15 O5 1_555 1_555
C16 C15 1_555 1_555
H24 C16 1_555 1_555
C17 C16 1_555 1_555
C18 C17 1_555 1_555
H25 C18 1_555 1_555
C19 C18 1_555 1_555
C20 C15 1_555 1_555
H26 C20 1_555 1_555
C21 O6 1_555 1_555
H27 C21 1_555 1_555
H28 C21 1_555 1_555
C22 C21 1_555 1_555
H29 C22 1_555 1_555
H30 C22 1_555 1_555
C23 O7 1_555 1_555
H31 C23 1_555 1_555
H32 C23 1_555 1_555
C24 C23 1_555 1_555
H33 C24 1_555 1_555
H34 C24 1_555 1_555
C25 O8 1_555 1_555
H35 C25 1_555 1_555
H36 C25 1_555 1_555
C26 C25 1_555 1_555
H37 C26 1_555 1_555
H38 C26 1_555 1_555
C27 O9 1_555 1_555
H39 C27 1_555 1_555
H40 C27 1_555 1_555
C28 O10 1_555 1_555
H41 C28 1_555 1_555
H42 C28 1_555 1_555
C29 N1 1_555 1_555
H43 C29 1_555 1_555
H44 C29 1_555 1_555
C30 N1 1_555 1_555
C31 N2 1_555 1_555
C32 C31 1_555 1_555
H45 C32 1_555 1_555
C33 C32 1_555 1_555
H46 C33 1_555 1_555
C34 C33 1_555 1_555
H47 C34 1_555 1_555
C35 C34 1_555 1_555
H48 C35 1_555 1_555
C36 C31 1_555 1_555
H49 C36 1_555 1_555
C37 N3 1_555 1_555
H50 C37 1_555 1_555
H51 C37 1_555 1_555
C38 N3 1_555 1_555
C39 N4 1_555 1_555
C40 C39 1_555 1_555
H52 C40 1_555 1_555
C41 C40 1_555 1_555
H53 C41 1_555 1_555
C42 C41 1_555 1_555
H54 C42 1_555 1_555
C43 C42 1_555 1_555
H55 C43 1_555 1_555
C44 C39 1_555 1_555
H56 C44 1_555 1_555
C45 H57 1_555 1_555
C46 C45 1_555 1_555
H58 C46 1_555 1_555
C47 N5 1_555 1_555
H59 C47 1_555 1_555
C48 C47 1_555 1_555
H60 C48 1_555 1_555
C49 C45 1_555 1_555
C50 C49 1_555 1_555
C51 C50 1_555 1_555
H61 C51 1_555 1_555
C52 C51 1_555 1_555
H62 C52 1_555 1_555
C53 N6 1_555 1_555
H63 C53 1_555 1_555
C54 C50 1_555 1_555
H64 C54 1_555 1_555
C55 N5 1_555 1_555
H65 C55 1_555 1_555
H66 C55 1_555 1_555
H67 C55 1_555 1_555
C56 N6 1_555 1_555
H68 C56 1_555 1_555
H69 C56 1_555 1_555
H70 C56 1_555 1_555
C57 H71 1_555 1_555
H72 C57 1_555 1_555
H73 C57 1_555 1_555
C58 C57 1_555 1_555
C59 C58 1_555 1_555
H74 C59 1_555 1_555
H75 C59 1_555 1_555
H76 C59 1_555 1_555
C63 H77 1_555 1_555
H78 C63 1_555 1_555
C64 C63 1_555 1_555
H79 C64 1_555 1_555
H80 C64 1_555 1_555
C65 C63 1_555 1_555
H81 C65 1_555 1_555
H82 C65 1_555 1_555
C63A H77A 1_555 1_555
H78A C63A 1_555 1_555
C64A C65 1_555 1_555
H79A C64A 1_555 1_555
H80A C64A 1_555 1_555
C65A C64 1_555 1_555
H81A C65A 1_555 1_555
H82A C65A 1_555 1_555
N2 C30 1_555 1_555
N4 C38 1_555 1_555
C1 C29 1_555 1_555
C5 C6 1_555 1_555
C17 C37 1_555 1_555
C19 C20 1_555 1_555
C27 C28 1_555 1_555
C35 C36 1_555 1_555
C43 C44 1_555 1_555
C48 C49 1_555 1_555
C53 C54 1_555 1_555
C63A C64A 1_555 1_555
C63A C65A 1_555 1_555

#END
