
#######################################################################
#
#                 Cambridge Crystallographic Data Centre
#                                CCDC 
#
#######################################################################
#
# If this CIF has been generated from an entry in the Cambridge 
# Structural Database, then it will include bibliographic, chemical, 
# crystal, experimental, refinement or atomic coordinate data resulting 
# from the CCDC's data processing and validation procedures.
#
#######################################################################

data_FONZIT
_chemical_formula_moiety         'C16 H14 N2'
_chemical_name_systematic        3-(Benzylamino)-2-phenylacrylonitrile
_symmetry_cell_setting           monoclinic
_symmetry_space_group_name_H-M   'P 21/c'
_symmetry_Int_Tables_number      14
_space_group_name_Hall           '-P 2ybc'
loop_
_symmetry_equiv_pos_site_id
_symmetry_equiv_pos_as_xyz
1 x,y,z
2 -x,1/2+y,1/2-z
3 -x,-y,-z
4 x,1/2-y,1/2+z
_cell_length_a                   9.9757(3)
_cell_length_b                   5.76438(17)
_cell_length_c                   22.7227(7)
_cell_angle_alpha                90
_cell_angle_beta                 91.835(3)
_cell_angle_gamma                90
_cell_volume                     1305.97
_cell_formula_units_Z            4
loop_
_atom_site_label
_atom_site_type_symbol
_atom_site_fract_x
_atom_site_fract_y
_atom_site_fract_z
N1 N 0.10620(14) 1.1043(3) 0.44928(6)
H1 H 0.0916 1.2210 0.4717
N2 N -0.09983(18) 1.5924(3) 0.44204(8)
C1 C 0.37452(19) 1.1226(3) 0.40525(8)
H2 H 0.3168 1.2473 0.3988
C2 C 0.4982(2) 1.1217(4) 0.37972(10)
H3 H 0.5232 1.2453 0.3562
C3 C 0.5838(2) 0.9394(5) 0.38895(11)
H4 H 0.6670 0.9387 0.3716
C4 C 0.5472(2) 0.7589(4) 0.42349(10)
H5 H 0.6057 0.6352 0.4300
C5 C 0.42410(18) 0.7587(3) 0.44880(8)
H6 H 0.3998 0.6340 0.4722
C6 C 0.33559(16) 0.9411(3) 0.44012(7)
C7 C 0.20225(17) 0.9311(3) 0.46926(8)
H7 H 0.1635 0.7787 0.4625
H8 H 0.2174 0.9487 0.5114
C8 C 0.03937(16) 1.0913(3) 0.39766(7)
H9 H 0.0580 0.9639 0.3742
C9 C -0.05305(16) 1.2440(3) 0.37561(7)
C10 C -0.08090(17) 1.4389(3) 0.41140(8)
C11 C -0.12697(16) 1.2218(3) 0.31859(7)
C12 C -0.1099(2) 1.0334(4) 0.28158(8)
H10 H -0.0487 0.9179 0.2922
C13 C -0.1828(2) 1.0157(4) 0.22914(9)
H11 H -0.1702 0.8880 0.2049
C14 C -0.2733(2) 1.1829(5) 0.21221(9)
H12 H -0.3223 1.1691 0.1769
C15 C -0.2906(2) 1.3707(4) 0.24792(10)
H13 H -0.3516 1.4857 0.2368
C16 C -0.2177(2) 1.3904(3) 0.30049(8)
H14 H -0.2301 1.5198 0.3241
loop_
_geom_bond_atom_site_label_1
_geom_bond_atom_site_label_2
_geom_bond_site_symmetry_1
_geom_bond_site_symmetry_2
N1 H1 1_555 1_555
N2 C10 1_555 1_555
C1 H2 1_555 1_555
C2 C1 1_555 1_555
H3 C2 1_555 1_555
C3 C2 1_555 1_555
H4 C3 1_555 1_555
C4 C3 1_555 1_555
H5 C4 1_555 1_555
C5 C4 1_555 1_555
H6 C5 1_555 1_555
C6 C1 1_555 1_555
C7 N1 1_555 1_555
H7 C7 1_555 1_555
H8 C7 1_555 1_555
C8 N1 1_555 1_555
H9 C8 1_555 1_555
C9 C8 1_555 1_555
C10 C9 1_555 1_555
C11 C9 1_555 1_555
C12 C11 1_555 1_555
H10 C12 1_555 1_555
C13 C12 1_555 1_555
H11 C13 1_555 1_555
C14 C13 1_555 1_555
H12 C14 1_555 1_555
C15 C14 1_555 1_555
H13 C15 1_555 1_555
C16 C11 1_555 1_555
H14 C16 1_555 1_555
C5 C6 1_555 1_555
C6 C7 1_555 1_555
C15 C16 1_555 1_555

#END
