
#######################################################################
#
#                 Cambridge Crystallographic Data Centre
#                                CCDC 
#
#######################################################################
#
# If this CIF has been generated from an entry in the Cambridge 
# Structural Database, then it will include bibliographic, chemical, 
# crystal, experimental, refinement or atomic coordinate data resulting 
# from the CCDC's data processing and validation procedures.
#
#######################################################################

data_FOPCES
_chemical_name_common            1,4,7,10,13-Pentathiacyclopentadecane
_chemical_formula_moiety         'C10 H20 S5'
_chemical_name_systematic        Pentathia-15-crown-5
_symmetry_cell_setting           monoclinic
_symmetry_space_group_name_H-M   'P 21/n'
_symmetry_Int_Tables_number      14
_space_group_name_Hall           '-P 2yn'
loop_
_symmetry_equiv_pos_site_id
_symmetry_equiv_pos_as_xyz
1 x,y,z
2 1/2-x,1/2+y,1/2-z
3 -x,-y,-z
4 1/2+x,1/2-y,1/2+z
_cell_length_a                   16.444(3)
_cell_length_b                   5.432(1)
_cell_length_c                   18.255(3)
_cell_angle_alpha                90
_cell_angle_beta                 115.58(1)
_cell_angle_gamma                90
_cell_volume                     1470.78
_cell_formula_units_Z            4
loop_
_atom_site_label
_atom_site_type_symbol
_atom_site_fract_x
_atom_site_fract_y
_atom_site_fract_z
S1 S 0.5546(1) 1.3982(2) 0.0978(1)
S2 S 0.7175(1) 1.1713(4) 0.3524(1)
S3 S 0.5562(1) 0.7123(3) 0.4416(1)
S4 S 0.3774(1) 0.4699(2) 0.2707(1)
S5 S 0.3135(1) 0.9583(3) 0.0604(1)
C1 C 0.6267(4) 1.2170(12) 0.1859(4)
C2 C 0.6342(5) 1.3203(15) 0.2616(4)
C3 C 0.6454(6) 1.0639(17) 0.4077(4)
C4 C 0.6139(5) 0.8164(15) 0.3804(5)
C5 C 0.4446(4) 0.8461(11) 0.3879(3)
C6 C 0.3717(4) 0.6570(11) 0.3498(3)
C7 C 0.3153(3) 0.6465(10) 0.1791(3)
C8 C 0.3716(3) 0.8407(9) 0.1635(3)
C9 C 0.4120(4) 1.0709(11) 0.0472(3)
C10 C 0.4427(4) 1.3108(11) 0.0889(3)
H1 H 0.6859 1.2087 0.1876
H2 H 0.6022 1.0541 0.1801
H3 H 0.6504 1.4908 0.2632
H4 H 0.5765 1.3072 0.2626
H5 H 0.5954 1.1721 0.3793
H6 H 0.5513 0.8004 0.3436
H7 H 0.6394 0.6559 0.3979
H8 H 0.4449 0.9518 0.3459
H9 H 0.4314 0.9413 0.4257
H10 H 0.3738 0.5486 0.3921
H11 H 0.3150 0.7421 0.3271
H12 H 0.2657 0.7260 0.1839
H13 H 0.2927 0.5354 0.1338
H14 H 0.3824 0.9737 0.2012
H15 H 0.4281 0.7699 0.1709
H16 H 0.3658 1.0908 -0.0096
H17 H 0.4601 0.9532 0.0699
H18 H 0.4002 1.4355 0.0585
H19 H 0.4454 1.2997 0.1423
loop_
_geom_bond_atom_site_label_1
_geom_bond_atom_site_label_2
_geom_bond_site_symmetry_1
_geom_bond_site_symmetry_2
S1 C1 1_555 1_555
S2 C2 1_555 1_555
S3 C4 1_555 1_555
S4 C6 1_555 1_555
S5 C8 1_555 1_555
C1 C2 1_555 1_555
C2 H3 1_555 1_555
C3 S2 1_555 1_555
C4 C3 1_555 1_555
C5 S3 1_555 1_555
C6 C5 1_555 1_555
C7 S4 1_555 1_555
C8 C7 1_555 1_555
C9 S5 1_555 1_555
C10 S1 1_555 1_555
H1 C1 1_555 1_555
H2 C1 1_555 1_555
H4 C2 1_555 1_555
H5 C3 1_555 1_555
H6 C4 1_555 1_555
H7 C4 1_555 1_555
H8 C5 1_555 1_555
H9 C5 1_555 1_555
H10 C6 1_555 1_555
H11 C6 1_555 1_555
H12 C7 1_555 1_555
H13 C7 1_555 1_555
H14 C8 1_555 1_555
H15 C8 1_555 1_555
H16 C9 1_555 1_555
H17 C9 1_555 1_555
H18 C10 1_555 1_555
H19 C10 1_555 1_555
C9 C10 1_555 1_555

#END
