
#######################################################################
#
#                 Cambridge Crystallographic Data Centre
#                                CCDC 
#
#######################################################################
#
# If this CIF has been generated from an entry in the Cambridge 
# Structural Database, then it will include bibliographic, chemical, 
# crystal, experimental, refinement or atomic coordinate data resulting 
# from the CCDC's data processing and validation procedures.
#
#######################################################################

data_FOPCAO
_chemical_name_common            1,4,7,10-Tetrathiacyclododecane
_chemical_formula_moiety         'C8 H16 S4'
_chemical_name_systematic        Tetrathia-12-crown-4
_symmetry_cell_setting           monoclinic
_symmetry_space_group_name_H-M   'C c'
_symmetry_Int_Tables_number      9
_space_group_name_Hall           'C -2yc'
loop_
_symmetry_equiv_pos_site_id
_symmetry_equiv_pos_as_xyz
1 x,y,z
2 1/2+x,1/2+y,z
3 x,-y,1/2+z
4 1/2+x,1/2-y,1/2+z
_cell_length_a                   13.028(7)
_cell_length_b                   12.884(5)
_cell_length_c                   14.493(7)
_cell_angle_alpha                90
_cell_angle_beta                 108.18(4)
_cell_angle_gamma                90
_cell_volume                     2311.25
_chemical_melting_point          215-218deg.C
_cell_formula_units_Z            8
loop_
_atom_site_label
_atom_site_type_symbol
_atom_site_fract_x
_atom_site_fract_y
_atom_site_fract_z
S1 S 0.3714(1) 0.6638(1) 0.3429(1)
S2 S 0.1119(1) 0.8868(1) 0.1899(1)
S3 S 0.1751(1) 1.0779(1) 0.4570(1)
S4 S 0.4370(1) 0.8579(1) 0.6097(1)
C1 C 0.2383(4) 0.7217(4) 0.2886(4)
C2 C 0.2407(5) 0.8210(4) 0.2316(4)
C3 C 0.1012(4) 0.9427(4) 0.3004(4)
C4 C 0.1751(5) 1.0334(4) 0.3383(4)
C5 C 0.2487(4) 0.9729(4) 0.5335(4)
C6 C 0.3674(5) 0.9712(4) 0.5432(4)
C7 C 0.3831(4) 0.7559(4) 0.5213(3)
C8 C 0.4318(4) 0.7542(4) 0.4398(4)
H1 H 0.2083 0.7378 0.3396
H2 H 0.1930 0.6720 0.2453
H3 H 0.2926 0.8675 0.2728
H4 H 0.2624 0.8033 0.1761
H5 H 0.1180 0.8897 0.3495
H6 H 0.0281 0.9656 0.2887
H7 H 0.2474 1.0133 0.3424
H8 H 0.1525 1.0898 0.2932
H9 H 0.2174 0.9082 0.5057
H10 H 0.2414 0.9805 0.5970
H11 H 0.3750 0.9707 0.4794
H12 H 0.4005 1.0326 0.5771
H13 H 0.3066 0.7660 0.4939
H14 H 0.3969 0.6902 0.5541
H15 H 0.4253 0.8226 0.4122
H16 H 0.5069 0.7367 0.4669
S5 S 0.3261(1) 0.5336(1) 1.1182(1)
S6 S 0.5063(1) 0.7396(1) 0.9739(1)
S7 S 0.2276(1) 0.7187(1) 0.7006(1)
S8 S 0.0522(1) 0.5087(1) 0.8448(1)
C9 C 0.3824(4) 0.6467(4) 1.0774(4)
C10 C 0.4627(4) 0.6244(4) 1.0250(4)
C11 C 0.3847(4) 0.7704(4) 0.8744(4)
C12 C 0.3576(4) 0.6933(4) 0.7913(4)
C13 C 0.1348(4) 0.6715(4) 0.7622(4)
C14 C 0.1336(4) 0.5544(4) 0.7720(4)
C15 C 0.1341(4) 0.5492(4) 0.9654(4)
C16 C 0.2361(4) 0.4845(4) 1.0047(4)
H17 H 0.4178 0.6881 1.1334
H18 H 0.3239 0.6855 1.0345
H19 H 0.5252 0.5927 1.0698
H20 H 0.4303 0.5770 0.9730
H21 H 0.3944 0.8374 0.8492
H22 H 0.3250 0.7730 0.8998
H23 H 0.4128 0.6967 0.7603
H24 H 0.3561 0.6249 0.8171
H25 H 0.0633 0.6941 0.7262
H26 H 0.1553 0.7013 0.8261
H27 H 0.1054 0.5250 0.7082
H28 H 0.2065 0.5310 0.8015
H29 H 0.0918 0.5428 1.0088
H30 H 0.1544 0.6205 0.9626
H31 H 0.2157 0.4149 1.0149
H32 H 0.2738 0.4841 0.9574
loop_
_geom_bond_atom_site_label_1
_geom_bond_atom_site_label_2
_geom_bond_site_symmetry_1
_geom_bond_site_symmetry_2
S1 C1 1_555 1_555
S2 C2 1_555 1_555
S3 C4 1_555 1_555
S4 C6 1_555 1_555
C1 C2 1_555 1_555
C2 H3 1_555 1_555
C3 S2 1_555 1_555
C4 C3 1_555 1_555
C5 S3 1_555 1_555
C6 C5 1_555 1_555
C7 S4 1_555 1_555
C8 S1 1_555 1_555
H1 C1 1_555 1_555
H2 C1 1_555 1_555
H4 C2 1_555 1_555
H5 C3 1_555 1_555
H6 C3 1_555 1_555
H7 C4 1_555 1_555
H8 C4 1_555 1_555
H9 C5 1_555 1_555
H10 C5 1_555 1_555
H11 C6 1_555 1_555
H12 C6 1_555 1_555
H13 C7 1_555 1_555
H14 C7 1_555 1_555
H15 C8 1_555 1_555
H16 C8 1_555 1_555
S5 C9 1_555 1_555
S6 C10 1_555 1_555
S7 C12 1_555 1_555
S8 C14 1_555 1_555
C9 C10 1_555 1_555
C10 H19 1_555 1_555
C11 S6 1_555 1_555
C12 C11 1_555 1_555
C13 S7 1_555 1_555
C14 C13 1_555 1_555
C15 S8 1_555 1_555
C16 S5 1_555 1_555
H17 C9 1_555 1_555
H18 C9 1_555 1_555
H20 C10 1_555 1_555
H21 C11 1_555 1_555
H22 C11 1_555 1_555
H23 C12 1_555 1_555
H24 C12 1_555 1_555
H25 C13 1_555 1_555
H26 C13 1_555 1_555
H27 C14 1_555 1_555
H28 C14 1_555 1_555
H29 C15 1_555 1_555
H30 C15 1_555 1_555
H31 C16 1_555 1_555
H32 C16 1_555 1_555
C7 C8 1_555 1_555
C15 C16 1_555 1_555

#END
