
#######################################################################
#
#                 Cambridge Crystallographic Data Centre
#                                CCDC 
#
#######################################################################
#
# If this CIF has been generated from an entry in the Cambridge 
# Structural Database, then it will include bibliographic, chemical, 
# crystal, experimental, refinement or atomic coordinate data resulting 
# from the CCDC's data processing and validation procedures.
#
#######################################################################

data_FOPDUL
_chemical_formula_moiety         'C5 H3 N11 O3,C2 H6 O1'
_chemical_name_systematic        
'4-nitro-N-(5-(1H-tetrazol-5-yl)-2H-1,2,3-triazol-4-yl)-1,2,5-oxadiazol-3-amine ethanol solvate'
_symmetry_cell_setting           monoclinic
_symmetry_space_group_name_H-M   'P 21/c'
_symmetry_Int_Tables_number      14
_space_group_name_Hall           '-P 2ybc'
loop_
_symmetry_equiv_pos_site_id
_symmetry_equiv_pos_as_xyz
1 x,y,z
2 -x,1/2+y,1/2-z
3 -x,-y,-z
4 x,1/2-y,1/2+z
_cell_length_a                   13.833(5)
_cell_length_b                   5.1013(17)
_cell_length_c                   19.112(7)
_cell_angle_alpha                90
_cell_angle_beta                 106.763(4)
_cell_angle_gamma                90
_cell_volume                     1291.35
_exptl_crystal_colour            yellow
_exptl_crystal_description       Prism
_chemical_melting_point          '414 K'
_cell_formula_units_Z            4
loop_
_atom_site_label
_atom_site_type_symbol
_atom_site_fract_x
_atom_site_fract_y
_atom_site_fract_z
O1 O 0.22762(11) 0.6487(3) 0.03336(8)
O2 O 0.39489(13) 0.0836(4) 0.19364(10)
O3 O 0.23217(12) 0.0158(3) 0.15917(9)
N1 N 0.20885(14) 0.4409(4) 0.07166(10)
N2 N 0.33243(13) 0.6948(4) 0.04804(10)
N3 N 0.47622(14) 0.4749(4) 0.12404(10)
N4 N 0.52648(13) 0.8040(4) 0.05327(9)
N5 N 0.61701(13) 0.8686(4) 0.04598(10)
N6 N 0.69494(13) 0.7296(4) 0.08484(9)
N7 N 0.66028(14) 0.1729(4) 0.19720(9)
N8 N 0.73608(14) 0.0232(4) 0.24071(10)
N9 N 0.82334(15) 0.1120(4) 0.24005(10)
N10 N 0.80684(14) 0.3250(4) 0.19580(10)
N11 N 0.30788(15) 0.1358(4) 0.15790(10)
C1 C 0.29702(16) 0.3588(4) 0.10959(11)
C2 C 0.37573(16) 0.5115(4) 0.09561(11)
C3 C 0.54868(15) 0.6074(4) 0.10088(11)
C4 C 0.65282(15) 0.5586(4) 0.12050(11)
C5 C 0.70717(15) 0.3585(4) 0.17024(11)
H1 H 0.621(2) 1.013(6) 0.0163(18)
H2 H 0.497(2) 0.361(6) 0.1577(18)
H3 H 0.868(2) 0.447(6) 0.1917(16)
O4 O 0.96609(14) 0.5783(4) 0.18036(11)
C6 C 0.9715(2) 0.6512(7) 0.10841(16)
H4 H 0.9172 0.5615 0.0708
H5 H 1.0371 0.5946 0.1025
C7 C 0.9607(3) 0.9370(7) 0.0982(2)
H6 H 0.8985 0.9948 0.1082
H7 H 0.9577 0.9814 0.0477
H8 H 1.0187 1.0248 0.1318
H9 H 1.030(2) 0.578(6) 0.2043(18)
loop_
_geom_bond_atom_site_label_1
_geom_bond_atom_site_label_2
_geom_bond_site_symmetry_1
_geom_bond_site_symmetry_2
O1 N1 1_555 1_555
O2 N11 1_555 1_555
O3 N11 1_555 1_555
N1 C1 1_555 1_555
N2 O1 1_555 1_555
N3 C2 1_555 1_555
N4 N5 1_555 1_555
N5 N6 1_555 1_555
N6 C4 1_555 1_555
N7 N8 1_555 1_555
N8 N9 1_555 1_555
N9 N10 1_555 1_555
N10 C5 1_555 1_555
N11 C1 1_555 1_555
C1 C2 1_555 1_555
C2 N2 1_555 1_555
C3 N3 1_555 1_555
C4 C3 1_555 1_555
C5 N7 1_555 1_555
H1 N5 1_555 1_555
H2 N3 1_555 1_555
H3 N10 1_555 1_555
O4 C6 1_555 1_555
C6 H4 1_555 1_555
H5 C6 1_555 1_555
C7 C6 1_555 1_555
H6 C7 1_555 1_555
H7 C7 1_555 1_555
H8 C7 1_555 1_555
H9 O4 1_555 1_555
N4 C3 1_555 1_555
C4 C5 1_555 1_555

#END
