
#######################################################################
#
#                 Cambridge Crystallographic Data Centre
#                                CCDC 
#
#######################################################################
#
# If this CIF has been generated from an entry in the Cambridge 
# Structural Database, then it will include bibliographic, chemical, 
# crystal, experimental, refinement or atomic coordinate data resulting 
# from the CCDC's data processing and validation procedures.
#
#######################################################################

data_FOPFIA
_chemical_formula_moiety         'C32 H24 N6'
_chemical_name_systematic        
2,2'-(2,3-Anthracenediylbis(methylene-1H-pyrazole-1,3-diyl))dipyridine
_symmetry_cell_setting           triclinic
_symmetry_space_group_name_H-M   'P -1'
_symmetry_Int_Tables_number      2
_space_group_name_Hall           '-P 1'
loop_
_symmetry_equiv_pos_site_id
_symmetry_equiv_pos_as_xyz
1 x,y,z
2 -x,-y,-z
_cell_length_a                   9.7446(9)
_cell_length_b                   11.5028(11)
_cell_length_c                   11.7836(11)
_cell_angle_alpha                98.106(6)
_cell_angle_beta                 98.719(6)
_cell_angle_gamma                100.454(6)
_cell_volume                     1264.45
_exptl_crystal_colour            yellow
_exptl_crystal_description       prismatic
_cell_formula_units_Z            2
loop_
_atom_site_label
_atom_site_type_symbol
_atom_site_fract_x
_atom_site_fract_y
_atom_site_fract_z
N1 N 0.45386(13) 0.22504(11) 0.98104(10)
C1 C 0.39431(14) 0.31510(13) 0.94938(11)
C2 C 0.27946(16) 0.34763(14) 0.99394(12)
H1 H 0.2407 0.4123 0.9703
C3 C 0.22293(17) 0.28389(15) 1.07328(12)
H2 H 0.1441 0.3037 1.1044
C4 C 0.28289(17) 0.19093(14) 1.10652(12)
H3 H 0.2460 0.1454 1.1605
C5 C 0.39810(17) 0.16597(14) 1.05915(12)
H4 H 0.4402 0.1032 1.0835
N2 N 0.48282(12) 0.50479(10) 0.74754(9)
N3 N 0.39697(12) 0.46320(10) 0.81945(9)
C6 C 0.45805(14) 0.37995(12) 0.86401(11)
C7 C 0.58239(15) 0.36887(13) 0.82070(12)
H5 H 0.6442 0.3163 0.8387
C8 C 0.59491(15) 0.45046(13) 0.74687(12)
H6 H 0.6686 0.4661 0.7033
C9 C 0.45174(15) 0.60167(12) 0.68748(11)
H7 H 0.5374 0.6369 0.6585
H8 H 0.4307 0.6652 0.7441
C10 C 0.28064(14) 0.44592(12) 0.53319(11)
H9 H 0.3258 0.3866 0.5619
C11 C 0.32771(14) 0.56320(12) 0.58545(11)
C12 C 0.25965(14) 0.65452(12) 0.54346(11)
C13 C 0.14877(14) 0.62216(12) 0.45124(11)
H10 H 0.1045 0.6828 0.4243
C14 C 0.09712(14) 0.50076(12) 0.39396(11)
C15 C 0.16475(14) 0.40966(12) 0.43602(11)
C16 C -0.17687(15) 0.31262(13) 0.14372(11)
H11 H -0.2233 0.3713 0.1151
C17 C -0.21913(15) 0.19559(14) 0.09073(12)
H12 H -0.2943 0.1736 0.0253
C18 C -0.15206(16) 0.10588(14) 0.13225(12)
H13 H -0.1823 0.0247 0.0941
C19 C -0.04437(15) 0.13588(13) 0.22673(12)
H14 H -0.0011 0.0749 0.2541
C20 C 0.00420(14) 0.25712(12) 0.28491(11)
C21 C -0.06277(14) 0.34827(12) 0.24253(11)
C22 C 0.11690(14) 0.29027(12) 0.38100(11)
H15 H 0.1612 0.2302 0.4089
C23 C -0.01502(14) 0.46777(12) 0.29816(11)
H16 H -0.0595 0.5279 0.2705
N4 N 0.88496(12) 1.04853(10) 0.58404(10)
C24 C 0.78321(15) 1.03415(12) 0.64930(11)
C25 C 0.80096(16) 1.09647(13) 0.76314(12)
H17 H 0.7264 1.0858 0.8065
C26 C 0.92948(16) 1.17417(14) 0.81162(13)
H18 H 0.9446 1.2169 0.8891
C27 C 1.03540(16) 1.18851(13) 0.74540(13)
H19 H 1.1245 1.2409 0.7764
C28 C 1.00807(15) 1.12442(13) 0.63266(12)
H20 H 1.0807 1.1349 0.5873
N5 N 0.44781(12) 0.83441(10) 0.57079(9)
N6 N 0.54904(12) 0.91260(10) 0.65160(9)
C29 C 0.65181(14) 0.94729(12) 0.59240(11)
C30 C 0.61623(15) 0.89162(12) 0.47440(11)
H21 H 0.6715 0.9012 0.4152
C31 C 0.48466(15) 0.82088(12) 0.46404(11)
H22 H 0.4293 0.7714 0.3949
C32 C 0.30993(14) 0.78501(12) 0.59908(12)
H23 H 0.2394 0.8313 0.5709
H24 H 0.3183 0.7927 0.6847
loop_
_geom_bond_atom_site_label_1
_geom_bond_atom_site_label_2
_geom_bond_site_symmetry_1
_geom_bond_site_symmetry_2
N1 C1 1_555 1_555
C1 C2 1_555 1_555
C2 H1 1_555 1_555
C3 C2 1_555 1_555
H2 C3 1_555 1_555
C4 C3 1_555 1_555
H3 C4 1_555 1_555
C5 N1 1_555 1_555
H4 C5 1_555 1_555
N2 N3 1_555 1_555
N3 C6 1_555 1_555
C6 C1 1_555 1_555
C7 C6 1_555 1_555
H5 C7 1_555 1_555
C8 N2 1_555 1_555
H6 C8 1_555 1_555
C9 N2 1_555 1_555
H7 C9 1_555 1_555
H8 C9 1_555 1_555
C10 H9 1_555 1_555
C11 C9 1_555 1_555
C12 C11 1_555 1_555
C13 C12 1_555 1_555
H10 C13 1_555 1_555
C14 C13 1_555 1_555
C15 C10 1_555 1_555
C16 H11 1_555 1_555
C17 C16 1_555 1_555
H12 C17 1_555 1_555
C18 C17 1_555 1_555
H13 C18 1_555 1_555
C19 C18 1_555 1_555
H14 C19 1_555 1_555
C20 C19 1_555 1_555
C21 C16 1_555 1_555
C22 C15 1_555 1_555
H15 C22 1_555 1_555
C23 C14 1_555 1_555
H16 C23 1_555 1_555
N4 C24 1_555 1_555
C24 C25 1_555 1_555
C25 H17 1_555 1_555
C26 C25 1_555 1_555
H18 C26 1_555 1_555
C27 C26 1_555 1_555
H19 C27 1_555 1_555
C28 N4 1_555 1_555
H20 C28 1_555 1_555
N5 N6 1_555 1_555
N6 C29 1_555 1_555
C29 C24 1_555 1_555
C30 C29 1_555 1_555
H21 C30 1_555 1_555
C31 N5 1_555 1_555
H22 C31 1_555 1_555
C32 C12 1_555 1_555
H23 C32 1_555 1_555
H24 C32 1_555 1_555
C4 C5 1_555 1_555
C7 C8 1_555 1_555
C10 C11 1_555 1_555
C14 C15 1_555 1_555
C20 C21 1_555 1_555
C20 C22 1_555 1_555
C21 C23 1_555 1_555
C27 C28 1_555 1_555
N5 C32 1_555 1_555
C30 C31 1_555 1_555

#END
