
#######################################################################
#
#                 Cambridge Crystallographic Data Centre
#                                CCDC 
#
#######################################################################
#
# If this CIF has been generated from an entry in the Cambridge 
# Structural Database, then it will include bibliographic, chemical, 
# crystal, experimental, refinement or atomic coordinate data resulting 
# from the CCDC's data processing and validation procedures.
#
#######################################################################

data_FOPHAU
_chemical_name_common            
'6,17(3,1),8(1,3)-tripyrazola-3,11,14-trithia-1(1,5,3),5,9,16(1,3)-tetrabenzenabicyclo(5.5.5)cycloheptadecaphane dichloromethane ethanol solvate hydrate'
_chemical_formula_moiety         
'C40 H34 N6 S3,0.73(H2 O1),0.25(C1 H2 Cl2),0.25(C2 H6 O1)'
_chemical_name_systematic        
'12,20,41-Trithia-2,30,31,44,45,49-hexaazanonacyclo[14.14.12.1^2,5^.1^6,10^.1^14,18^.1^22,26^.1^27,30^.1^31,34^.1^35,39^]nonatetraconta-3,5(49),6(48),7,9,14(47),15,17,22(46),23,25,27(45),28,32,34(44),35(43),36,38-octadecaene dichloromethane ethanol solvate hydrate'
_symmetry_cell_setting           triclinic
_symmetry_space_group_name_H-M   'P -1'
_symmetry_Int_Tables_number      2
_space_group_name_Hall           '-P 1'
loop_
_symmetry_equiv_pos_site_id
_symmetry_equiv_pos_as_xyz
1 x,y,z
2 -x,-y,-z
_cell_length_a                   16.0914(3)
_cell_length_b                   16.2811(4)
_cell_length_c                   16.9439(6)
_cell_angle_alpha                101.5750(10)
_cell_angle_beta                 94.080(2)
_cell_angle_gamma                116.7390(10)
_cell_volume                     3817.07
_exptl_crystal_colour            colorless
_exptl_crystal_description       prism
_cell_formula_units_Z            4
loop_
_atom_site_label
_atom_site_type_symbol
_atom_site_fract_x
_atom_site_fract_y
_atom_site_fract_z
S4 S 0.27563(10) -0.58081(10) 0.68125(8)
S5 S 0.62436(11) -0.40872(10) 0.98283(11)
N7 N 0.4712(2) -0.0543(2) 0.7973(2)
N8 N 0.4375(2) -0.1412(2) 0.8127(2)
N9 N 0.6089(2) 0.0134(2) 0.90154(19)
N10 N 0.6497(2) -0.0428(2) 0.9053(2)
N11 N 0.6254(2) 0.0162(2) 0.76252(19)
N12 N 0.6294(3) -0.0638(2) 0.7263(2)
C41 C 0.5689(3) 0.0182(3) 0.8246(2)
H35 H 0.5694 0.0811 0.8348
C42 C 0.4031(3) -0.0442(3) 0.7537(2)
H36 H 0.4111 0.0101 0.7357
C43 C 0.3213(3) -0.1280(3) 0.7412(2)
H37 H 0.2605 -0.1436 0.7135
C44 C 0.3457(3) -0.1865(3) 0.7779(2)
C45 C 0.2842(3) -0.2843(3) 0.7815(2)
C46 C 0.1893(3) -0.3156(3) 0.7842(3)
H38 H 0.1637 -0.2732 0.7841
C47 C 0.1310(3) -0.4089(3) 0.7870(3)
H39 H 0.0660 -0.4297 0.7891
C48 C 0.1675(3) -0.4716(3) 0.7866(2)
H40 H 0.1276 -0.5353 0.7879
C49 C 0.3204(3) -0.3474(3) 0.7812(2)
H41 H 0.3854 -0.3265 0.7787
C50 C 0.2634(3) -0.4404(3) 0.7843(2)
C51 C 0.3032(3) -0.5088(3) 0.7835(3)
H42 H 0.2751 -0.5494 0.8208
H43 H 0.3727 -0.4728 0.8024
C52 C 0.6054(3) 0.0586(3) 0.9770(2)
H44 H 0.5788 0.1003 0.9888
C53 C 0.6479(3) 0.0319(3) 1.0327(3)
H45 H 0.6578 0.0517 1.0908
C54 C 0.6734(3) -0.0312(3) 0.9849(2)
C55 C 0.7210(3) -0.0824(3) 1.0129(3)
C56 C 0.7874(3) -0.0425(4) 1.0850(3)
H46 H 0.8040 0.0196 1.1169
C57 C 0.8297(4) -0.0927(4) 1.1107(4)
H47 H 0.8750 -0.0646 1.1602
C58 C 0.8073(4) -0.1822(4) 1.0657(4)
H48 H 0.8364 -0.2160 1.0845
C59 C 0.6989(3) -0.1721(3) 0.9676(3)
H49 H 0.6535 -0.1999 0.9182
C60 C 0.7416(4) -0.2241(4) 0.9923(3)
C61 C 0.7158(3) -0.3216(3) 0.9423(4)
H50 H 0.7722 -0.3315 0.9447
H51 H 0.6923 -0.3291 0.8843
C62 C 0.6810(3) 0.0931(3) 0.7354(3)
H52 H 0.6889 0.1559 0.7526
C63 C 0.7226(3) 0.0614(3) 0.6787(3)
H53 H 0.7657 0.0976 0.6481
C64 C 0.6893(3) -0.0359(3) 0.6743(2)
S6 S 0.6132(4) -0.4424(3) 0.5549(3)
C65 C 0.7128(7) -0.1074(5) 0.6290(5)
C66 C 0.7609(6) -0.0891(5) 0.5644(5)
H54 H 0.7752 -0.0325 0.5478
C67 C 0.7880(8) -0.1537(7) 0.5239(6)
H55 H 0.8209 -0.1413 0.4797
C68 C 0.7670(7) -0.2366(6) 0.5481(6)
H56 H 0.7855 -0.2807 0.5205
C69 C 0.7189(5) -0.2548(4) 0.6128(6)
C70 C 0.6918(6) -0.1902(6) 0.6532(5)
H57 H 0.6589 -0.2026 0.6974
C71 C 0.3155(7) -0.6630(7) 0.7048(16)
H58 H 0.2902 -0.6848 0.7526
H59 H 0.2921 -0.7195 0.6574
C72 C 0.6159(11) -0.5105(7) 0.9068(5)
H60 H 0.6814 -0.5003 0.9069
H61 H 0.5826 -0.5670 0.9281
C73 C 0.6950(10) -0.3446(5) 0.6406(6)
H62 H 0.6651 -0.3439 0.6897
H63 H 0.7528 -0.3502 0.6541
C74 C 0.6146(12) -0.5343(9) 0.6000(8)
H64 H 0.5830 -0.5955 0.5571
H65 H 0.6815 -0.5192 0.6152
C75 C 0.5690(7) -0.5495(5) 0.6743(5)
C76 C 0.6186(6) -0.5209(4) 0.7539(6)
H66 H 0.6858 -0.4894 0.7643
C77 C 0.5698(8) -0.5384(5) 0.8182(5)
C78 C 0.4714(8) -0.5844(6) 0.8030(7)
H67 H 0.4380 -0.5963 0.8470
C79 C 0.4218(6) -0.6130(5) 0.7235(8)
C80 C 0.4706(7) -0.5955(5) 0.6591(6)
H68 H 0.4367 -0.6150 0.6047
O1 O 0.4456(5) -0.3951(6) 0.6208(5)
O2 O 1.0532(10) -0.0620(7) 0.6996(7)
C83 C 0.8441(7) -0.1216(11) 0.8145(4)
H76 H 0.7939 -0.1024 0.8114
H77 H 0.8138 -0.1906 0.8110
Cl1 Cl 0.9038(3) -0.0993(3) 0.7336(2)
Cl2 Cl 0.9230(3) -0.0582(3) 0.9063(3)
S1 S 0.82138(9) -0.47798(9) 0.51726(7)
S2 S 0.48781(9) -0.90381(8) 0.52722(7)
S3 S 0.98344(9) -0.77071(10) 0.49399(7)
N1 N 0.8461(3) -0.5596(2) 0.9582(2)
N2 N 0.8357(3) -0.5463(2) 0.8825(2)
N3 N 0.8343(3) -0.7158(3) 0.9343(2)
N4 N 0.8801(3) -0.7028(3) 0.8700(2)
N5 N 0.6976(3) -0.6962(2) 0.9528(2)
N6 N 0.6515(2) -0.7293(2) 0.8741(2)
C1 C 0.7992(3) -0.6522(3) 0.9733(2)
H1 H 0.8152 -0.6424 1.0337
C2 C 0.9054(3) -0.4773(3) 1.0157(3)
H2 H 0.9233 -0.4702 1.0723
C3 C 0.9338(3) -0.4073(3) 0.9761(3)
H3 H 0.9744 -0.3411 0.9993
C4 C 0.8908(3) -0.4533(3) 0.8937(2)
C5 C 0.9056(3) -0.4111(3) 0.8228(2)
C6 C 0.9493(3) -0.3127(3) 0.8353(3)
H4 H 0.9633 -0.2726 0.8889
C7 C 0.9724(4) -0.2729(4) 0.7695(3)
H5 H 1.0023 -0.2057 0.7782
C8 C 0.9518(4) -0.3316(4) 0.6909(3)
H6 H 0.9676 -0.3043 0.6460
C9 C 0.8844(3) -0.4681(3) 0.7438(3)
H7 H 0.8526 -0.5354 0.7346
C10 C 0.9086(3) -0.4291(3) 0.6780(3)
C11 C 0.8942(4) -0.4917(4) 0.5939(3)
H8 H 0.8642 -0.5591 0.5960
H9 H 0.9566 -0.4757 0.5780
C12 C 0.8149(4) -0.5675(3) 0.4294(3)
H10 H 0.7758 -0.5685 0.3810
H11 H 0.8794 -0.5486 0.4175
C13 C 0.8273(3) -0.7930(3) 0.9584(3)
H12 H 0.7985 -0.8154 1.0022
C14 C 0.8695(3) -0.8319(3) 0.9079(3)
H13 H 0.8758 -0.8869 0.9089
C15 C 0.9014(3) -0.7743(3) 0.8543(3)
C16 C 0.9526(3) -0.7838(3) 0.7874(3)
C17 C 0.9967(4) -0.8404(4) 0.7840(3)
H14 H 0.9928 -0.8739 0.8247
C18 C 1.0467(5) -0.8488(5) 0.7217(4)
H15 H 1.0780 -0.8863 0.7209
C19 C 1.0505(4) -0.8029(5) 0.6615(3)
H16 H 1.0836 -0.8098 0.6185
C20 C 0.9577(3) -0.7368(3) 0.7256(3)
H17 H 0.9275 -0.6982 0.7269
C21 C 1.0062(3) -0.7459(3) 0.6627(3)
C22 C 1.0126(4) -0.6952(4) 0.5964(3)
H18 H 1.0777 -0.6422 0.6051
H19 H 0.9692 -0.6673 0.6015
C23 C 0.8575(3) -0.8416(3) 0.4847(3)
H20 H 0.8358 -0.8990 0.4385
H21 H 0.8457 -0.8636 0.5352
C24 C 0.6381(4) -0.7012(3) 1.0067(3)
H22 H 0.6551 -0.6822 1.0648
C25 C 0.5495(3) -0.7385(3) 0.9622(3)
H23 H 0.4924 -0.7510 0.9822
C26 C 0.5611(3) -0.7544(3) 0.8798(3)
C27 C 0.4902(3) -0.7897(3) 0.8044(3)
C28 C 0.3935(3) -0.8326(3) 0.8068(3)
H24 H 0.3724 -0.8389 0.8573
C29 C 0.3285(3) -0.8661(3) 0.7343(3)
H25 H 0.2627 -0.8974 0.7353
C30 C 0.3582(3) -0.8545(3) 0.6612(3)
H26 H 0.3128 -0.8772 0.6123
C31 C 0.5196(3) -0.7785(3) 0.7303(3)
H27 H 0.5854 -0.7491 0.7289
C32 C 0.4552(3) -0.8093(3) 0.6584(3)
C33 C 0.4890(3) -0.7953(3) 0.5798(3)
H28 H 0.5539 -0.7411 0.5910
H29 H 0.4468 -0.7814 0.5456
C34 C 0.5340(3) -0.8721(4) 0.4374(3)
H30 H 0.5158 -0.9315 0.3947
H31 H 0.5031 -0.8383 0.4162
C35 C 0.6394(3) -0.8108(3) 0.4501(2)
C36 C 0.7001(3) -0.8463(3) 0.4689(2)
H32 H 0.6749 -0.9068 0.4804
C37 C 0.7966(3) -0.7953(3) 0.4712(3)
C38 C 0.8331(3) -0.7047(3) 0.4568(3)
H33 H 0.8990 -0.6692 0.4576
C39 C 0.7742(3) -0.6660(3) 0.4413(2)
C40 C 0.6781(3) -0.7189(3) 0.4380(2)
H34 H 0.6375 -0.6928 0.4273
H69? H 0.4101 -0.4311 0.6578
O3? O 0.8997(11) -0.0909(12) 0.8253(8)
H70? H 0.9402 -0.0547 0.8023
C81? C 0.9466(18) -0.0940(14) 0.8999(10)
H71? H 1.0072 -0.0937 0.8922
H72? H 0.9060 -0.1518 0.9170
C82? C 0.9638(16) -0.0050(14) 0.9626(9)
H73? H 1.0056 0.0513 0.9453
H74? H 0.9936 -0.0033 1.0158
H75? H 0.9033 -0.0054 0.9674
C84? C 0.3272(8) -0.6573(7) 0.6942(18)
C85? C 0.6033(11) -0.5266(5) 0.9285(5)
C86? C 0.7152(5) -0.1002(4) 0.6207(4)
C87? C 0.7940(5) -0.0633(3) 0.5839(5)
C88? C 0.8228(5) -0.1239(5) 0.5389(6)
C89? C 0.7730(6) -0.2214(5) 0.5307(5)
C90? C 0.6943(5) -0.2583(3) 0.5675(5)
C91? C 0.6654(4) -0.1977(5) 0.6125(4)
C92? C 0.6464(7) -0.3602(5) 0.5722(5)
C93? C 0.6552(6) -0.5004(3) 0.6452(5)
C94? C 0.5921(6) -0.5307(4) 0.7062(4)
C95? C 0.6251(5) -0.5154(3) 0.7887(5)
C96? C 0.5614(8) -0.5461(4) 0.8409(4)
C97? C 0.4646(7) -0.5922(5) 0.8107(6)
C98? C 0.4315(5) -0.6075(5) 0.7283(7)
C99? C 0.4953(6) -0.5767(5) 0.6760(5)
H78? H 0.2936 -0.6962 0.7310
H79? H 0.3155 -0.7016 0.6402
H80? H 0.6637 -0.5294 0.9319
H81? H 0.5594 -0.5751 0.9536
H82? H 0.8280 0.0033 0.5895
H83? H 0.8767 -0.0987 0.5138
H84? H 0.7928 -0.2628 0.5000
H85? H 0.6116 -0.2229 0.6376
H86? H 0.6437 -0.4025 0.5201
H87? H 0.5807 -0.3789 0.5808
H88? H 0.6172 -0.5335 0.5892
H89? H 0.7045 -0.5204 0.6514
H90? H 0.6913 -0.4839 0.8093
H91? H 0.4210 -0.6132 0.8464
H92? H 0.4727 -0.5872 0.6197
H93? H 0.5831 -0.2043 0.7656
O4? O 0.5595(5) -0.2675(5) 0.7754(5)
S7? S 0.7121(2) -0.37313(18) 0.65667(17)
loop_
_geom_bond_atom_site_label_1
_geom_bond_atom_site_label_2
_geom_bond_site_symmetry_1
_geom_bond_site_symmetry_2
S1 C11 1_555 1_555
S2 C33 1_555 1_555
S3 C22 1_555 1_555
N1 N2 1_555 1_555
N2 C4 1_555 1_555
N3 N4 1_555 1_555
N4 C15 1_555 1_555
N5 N6 1_555 1_555
N6 C26 1_555 1_555
C1 N1 1_555 1_555
H1 C1 1_555 1_555
C2 N1 1_555 1_555
H2 C2 1_555 1_555
C3 C2 1_555 1_555
H3 C3 1_555 1_555
C4 C3 1_555 1_555
C5 C4 1_555 1_555
C6 C5 1_555 1_555
H4 C6 1_555 1_555
C7 C6 1_555 1_555
H5 C7 1_555 1_555
C8 C7 1_555 1_555
H6 C8 1_555 1_555
C9 C5 1_555 1_555
H7 C9 1_555 1_555
C10 C8 1_555 1_555
C11 C10 1_555 1_555
H8 C11 1_555 1_555
H9 C11 1_555 1_555
C12 S1 1_555 1_555
H10 C12 1_555 1_555
H11 C12 1_555 1_555
C13 N3 1_555 1_555
H12 C13 1_555 1_555
C14 C13 1_555 1_555
H13 C14 1_555 1_555
C15 C14 1_555 1_555
C16 C15 1_555 1_555
C17 C16 1_555 1_555
H14 C17 1_555 1_555
C18 C17 1_555 1_555
H15 C18 1_555 1_555
C19 C18 1_555 1_555
H16 C19 1_555 1_555
C20 C16 1_555 1_555
H17 C20 1_555 1_555
C21 C19 1_555 1_555
C22 C21 1_555 1_555
H18 C22 1_555 1_555
H19 C22 1_555 1_555
C23 S3 1_555 1_555
H20 C23 1_555 1_555
H21 C23 1_555 1_555
C24 N5 1_555 1_555
H22 C24 1_555 1_555
C25 C24 1_555 1_555
H23 C25 1_555 1_555
C26 C25 1_555 1_555
C27 C26 1_555 1_555
C28 C27 1_555 1_555
H24 C28 1_555 1_555
C29 C28 1_555 1_555
H25 C29 1_555 1_555
C30 C29 1_555 1_555
H26 C30 1_555 1_555
C31 C27 1_555 1_555
H27 C31 1_555 1_555
C32 C30 1_555 1_555
C33 C32 1_555 1_555
H28 C33 1_555 1_555
H29 C33 1_555 1_555
C34 S2 1_555 1_555
H30 C34 1_555 1_555
H31 C34 1_555 1_555
C35 C34 1_555 1_555
C36 C35 1_555 1_555
H32 C36 1_555 1_555
C37 C23 1_555 1_555
C38 C37 1_555 1_555
H33 C38 1_555 1_555
C39 C12 1_555 1_555
C40 C35 1_555 1_555
H34 C40 1_555 1_555
S4 C51 1_555 1_555
S5 C61 1_555 1_555
N7 N8 1_555 1_555
N8 C44 1_555 1_555
N9 N10 1_555 1_555
N10 C54 1_555 1_555
N11 N12 1_555 1_555
N12 C64 1_555 1_555
C41 N7 1_555 1_555
H35 C41 1_555 1_555
C42 N7 1_555 1_555
H36 C42 1_555 1_555
C43 C42 1_555 1_555
H37 C43 1_555 1_555
C44 C43 1_555 1_555
C45 C44 1_555 1_555
C46 C45 1_555 1_555
H38 C46 1_555 1_555
C47 C46 1_555 1_555
H39 C47 1_555 1_555
C48 C47 1_555 1_555
H40 C48 1_555 1_555
C49 C45 1_555 1_555
H41 C49 1_555 1_555
C50 C48 1_555 1_555
C51 C50 1_555 1_555
H42 C51 1_555 1_555
H43 C51 1_555 1_555
C52 N9 1_555 1_555
H44 C52 1_555 1_555
C53 C52 1_555 1_555
H45 C53 1_555 1_555
C54 C53 1_555 1_555
C55 C54 1_555 1_555
C56 C55 1_555 1_555
H46 C56 1_555 1_555
C57 C56 1_555 1_555
H47 C57 1_555 1_555
C58 C57 1_555 1_555
H48 C58 1_555 1_555
C59 C55 1_555 1_555
H49 C59 1_555 1_555
C60 C58 1_555 1_555
C61 C60 1_555 1_555
H50 C61 1_555 1_555
H51 C61 1_555 1_555
C62 N11 1_555 1_555
H52 C62 1_555 1_555
C63 C62 1_555 1_555
H53 C63 1_555 1_555
C64 C63 1_555 1_555
S6 C73 1_555 1_555
C65 C64 1_555 1_555
C66 C65 1_555 1_555
H54 C66 1_555 1_555
C67 C66 1_555 1_555
H55 C67 1_555 1_555
C68 C67 1_555 1_555
H56 C68 1_555 1_555
C69 C68 1_555 1_555
C70 C65 1_555 1_555
H57 C70 1_555 1_555
C71 S4 1_555 1_555
H58 C71 1_555 1_555
H59 C71 1_555 1_555
C72 S5 1_555 1_555
H60 C72 1_555 1_555
H61 C72 1_555 1_555
C73 C69 1_555 1_555
H62 C73 1_555 1_555
H63 C73 1_555 1_555
C74 S6 1_555 1_555
H64 C74 1_555 1_555
H65 C74 1_555 1_555
C75 C74 1_555 1_555
C76 C75 1_555 1_555
H66 C76 1_555 1_555
C77 C72 1_555 1_555
C78 C77 1_555 1_555
H67 C78 1_555 1_555
C79 C71 1_555 1_555
C80 C75 1_555 1_555
H68 C80 1_555 1_555
C83 H76 1_555 1_555
H77 C83 1_555 1_555
Cl1 C83 1_555 1_555
Cl2 C83 1_555 1_555
N3 C1 1_555 1_555
N5 C1 1_555 1_555
C9 C10 1_555 1_555
C20 C21 1_555 1_555
C31 C32 1_555 1_555
C36 C37 1_555 1_555
C38 C39 1_555 1_555
C39 C40 1_555 1_555
N9 C41 1_555 1_555
N11 C41 1_555 1_555
C49 C50 1_555 1_555
C59 C60 1_555 1_555
C69 C70 1_555 1_555
C76 C77 1_555 1_555
C78 C79 1_555 1_555
C79 C80 1_555 1_555

#END
