
#######################################################################
#
#                 Cambridge Crystallographic Data Centre
#                                CCDC 
#
#######################################################################
#
# If this CIF has been generated from an entry in the Cambridge 
# Structural Database, then it will include bibliographic, chemical, 
# crystal, experimental, refinement or atomic coordinate data resulting 
# from the CCDC's data processing and validation procedures.
#
#######################################################################

data_FOPYTS02
_chemical_formula_moiety         'C7 H8 N4 S1'
_chemical_name_systematic        
2-(Pyridin-4-ylmethylene)hydrazinecarbothioamide
_symmetry_cell_setting           monoclinic
_symmetry_space_group_name_H-M   'P 21/c'
_symmetry_Int_Tables_number      14
_space_group_name_Hall           '-P 2ybc'
loop_
_symmetry_equiv_pos_site_id
_symmetry_equiv_pos_as_xyz
1 x,y,z
2 -x,1/2+y,1/2-z
3 -x,-y,-z
4 x,1/2-y,1/2+z
_cell_length_a                   7.242(5)
_cell_length_b                   13.964(5)
_cell_length_c                   11.012(5)
_cell_angle_alpha                90
_cell_angle_beta                 130.17(3)
_cell_angle_gamma                90
_cell_volume                     850.95
_exptl_crystal_colour            yellow
_exptl_crystal_description       block
_cell_formula_units_Z            4
loop_
_atom_site_label
_atom_site_type_symbol
_atom_site_fract_x
_atom_site_fract_y
_atom_site_fract_z
S1 S -0.08700(11) 1.07239(4) 0.14232(6)
N1 N 0.7837(3) 0.64066(13) 0.9153(2)
N2 N 0.3193(3) 0.89430(12) 0.49429(19)
N3 N 0.1853(3) 0.97344(13) 0.40763(19)
H1 H 0.1614 1.0198 0.4498
N4 N 0.1718(4) 0.91682(14) 0.2081(2)
H2 H 0.2663 0.8713 0.2710
H3 H 0.1230 0.9196 0.1134
C1 C 0.6655(4) 0.64328(16) 0.7583(3)
H4 H 0.6713 0.5893 0.7114
C2 C 0.5374(4) 0.72106(15) 0.6638(2)
H5 H 0.4577 0.7188 0.5557
C3 C 0.5269(4) 0.80316(14) 0.7302(2)
C4 C 0.7727(4) 0.71994(16) 0.9782(3)
H6 H 0.8524 0.7201 1.0864
C5 C 0.6491(4) 0.80216(17) 0.8914(2)
H7 H 0.6487 0.8559 0.9412
C6 C 0.3916(4) 0.88806(16) 0.6339(2)
H8 H 0.3590 0.9370 0.6750
C7 C 0.1016(4) 0.98228(15) 0.2570(2)
loop_
_geom_bond_atom_site_label_1
_geom_bond_atom_site_label_2
_geom_bond_site_symmetry_1
_geom_bond_site_symmetry_2
S1 C7 1_555 1_555
N1 C1 1_555 1_555
N2 N3 1_555 1_555
N3 H1 1_555 1_555
N4 H2 1_555 1_555
H3 N4 1_555 1_555
C1 H4 1_555 1_555
C2 C1 1_555 1_555
H5 C2 1_555 1_555
C3 C2 1_555 1_555
C4 N1 1_555 1_555
H6 C4 1_555 1_555
C5 C3 1_555 1_555
H7 C5 1_555 1_555
C6 N2 1_555 1_555
H8 C6 1_555 1_555
C7 N3 1_555 1_555
N4 C7 1_555 1_555
C3 C6 1_555 1_555
C4 C5 1_555 1_555

#END
