
#######################################################################
#
#                 Cambridge Crystallographic Data Centre
#                                CCDC 
#
#######################################################################
#
# If this CIF has been generated from an entry in the Cambridge 
# Structural Database, then it will include bibliographic, chemical, 
# crystal, experimental, refinement or atomic coordinate data resulting 
# from the CCDC's data processing and validation procedures.
#
#######################################################################

data_FOQKUT
_chemical_formula_moiety         'C30 H48 O3,C1 H4 O1'
_chemical_name_systematic        'Betulinic acid methanol solvate'
_symmetry_cell_setting           orthorhombic
_symmetry_space_group_name_H-M   'P 21 21 21'
_symmetry_Int_Tables_number      19
_space_group_name_Hall           'P 2ac 2ab'
loop_
_symmetry_equiv_pos_site_id
_symmetry_equiv_pos_as_xyz
1 x,y,z
2 1/2-x,-y,1/2+z
3 1/2+x,1/2-y,-z
4 -x,1/2+y,1/2-z
_cell_length_a                   7.0988(2)
_cell_length_b                   12.3864(3)
_cell_length_c                   33.2745(9)
_cell_angle_alpha                90
_cell_angle_beta                 90
_cell_angle_gamma                90
_cell_volume                     2925.78
_exptl_crystal_colour            colorless
_exptl_crystal_description       block
_cell_formula_units_Z            4
loop_
_atom_site_label
_atom_site_type_symbol
_atom_site_fract_x
_atom_site_fract_y
_atom_site_fract_z
C1 C 0.8725(3) 0.2245(2) 0.29320(7)
H1 H 1.0010 0.2303 0.2836
H2 H 0.8028 0.2859 0.2828
C2 C 0.8736(4) 0.2301(2) 0.33899(8)
H3 H 0.9553 0.1741 0.3495
H4 H 0.9236 0.2994 0.3474
C3 C 0.6797(3) 0.21606(19) 0.35581(7)
H5 H 0.6016 0.2751 0.3455
C4 C 0.5845(3) 0.10912(18) 0.34382(7)
C5 C 0.5903(3) 0.10297(16) 0.29712(7)
H6 H 0.5147 0.1648 0.2883
C6 C 0.4890(3) 0.00515(18) 0.27942(7)
H7 H 0.5679 -0.0583 0.2822
H8 H 0.3730 -0.0076 0.2941
C7 C 0.4445(3) 0.02402(17) 0.23522(7)
H9 H 0.3558 0.0833 0.2331
H10 H 0.3836 -0.0399 0.2245
C8 C 0.6183(3) 0.04992(15) 0.20917(7)
C9 C 0.7414(3) 0.13761(16) 0.23044(6)
H11 H 0.6640 0.2031 0.2297
C10 C 0.7845(3) 0.11993(17) 0.27634(7)
C11 C 0.9151(3) 0.1655(2) 0.20478(7)
H12 H 0.9845 0.2234 0.2177
H13 H 0.9971 0.1030 0.2035
C12 C 0.8635(3) 0.2003(2) 0.16204(7)
H14 H 0.8006 0.2698 0.1630
H15 H 0.9779 0.2089 0.1464
C13 C 0.7357(3) 0.11911(17) 0.14128(7)
H16 H 0.8056 0.0509 0.1402
C14 C 0.5543(3) 0.09684(16) 0.16666(7)
C15 C 0.4247(3) 0.01587(18) 0.14456(7)
H17 H 0.4808 -0.0554 0.1464
H18 H 0.3048 0.0133 0.1585
C16 C 0.3869(3) 0.0408(2) 0.10007(8)
H19 H 0.3162 -0.0180 0.0881
H20 H 0.3122 0.1061 0.0979
C17 C 0.5722(3) 0.05540(19) 0.07771(7)
C18 C 0.6821(3) 0.14719(17) 0.09793(7)
H21 H 0.5934 0.2076 0.0999
C19 C 0.8349(3) 0.1842(2) 0.06760(7)
H22 H 0.9505 0.1429 0.0724
C20 C 0.8807(4) 0.3028(2) 0.06820(8)
C21 C 0.7510(4) 0.1508(2) 0.02599(8)
H23 H 0.7358 0.2137 0.0090
H24 H 0.8343 0.1002 0.0126
C22 C 0.5582(4) 0.0977(2) 0.03415(8)
H25 H 0.5354 0.0389 0.0155
H26 H 0.4573 0.1501 0.0316
C23 C 0.3767(3) 0.1168(2) 0.35735(8)
H27 H 0.3143 0.1724 0.3423
H28 H 0.3716 0.1338 0.3855
H29 H 0.3152 0.0490 0.3527
C24 C 0.6753(4) 0.0131(2) 0.36544(8)
H30 H 0.6265 -0.0530 0.3546
H31 H 0.6470 0.0168 0.3936
H32 H 0.8094 0.0154 0.3617
C25 C 0.9274(3) 0.0275(2) 0.28368(8)
H33 H 0.9862 0.0372 0.3094
H34 H 1.0217 0.0286 0.2630
H35 H 0.8628 -0.0405 0.2832
C26 C 0.7285(4) -0.05744(18) 0.20362(8)
H36 H 0.6720 -0.0987 0.1824
H37 H 0.7244 -0.0982 0.2282
H38 H 0.8571 -0.0418 0.1969
C27 C 0.4397(3) 0.20241(17) 0.17149(7)
H39 H 0.3419 0.1917 0.1910
H40 H 0.3845 0.2217 0.1461
H41 H 0.5217 0.2593 0.1803
C28 C 0.6745(4) -0.0533(2) 0.07527(7)
C29 C 1.0572(6) 0.3352(3) 0.07162(10)
H42 H 1.0859 0.4083 0.0703
H43 H 1.1527 0.2848 0.0754
C30 C 0.7208(7) 0.3804(3) 0.06214(16)
H44 H 0.6549 0.3625 0.0378
H45 H 0.7693 0.4526 0.0602
H46 H 0.6358 0.3758 0.0845
O1 O 0.6889(3) 0.22739(17) 0.39892(5)
H47 H 0.5933 0.2576 0.4070
O2 O 0.5943(3) -0.13820(15) 0.07479(8)
O3 O 0.8560(3) -0.04848(17) 0.07166(10)
H48 H 0.8982 -0.1095 0.0683
C31 C 0.9582(9) -0.3072(4) 0.0316(2)
H49 H 0.8962 -0.2769 0.0086
H50 H 0.8714 -0.3521 0.0461
H51 H 1.0637 -0.3498 0.0230
O4 O 1.0176(5) -0.2288(2) 0.05516(11)
H52 H 1.1022 -0.2514 0.0697
loop_
_geom_bond_atom_site_label_1
_geom_bond_atom_site_label_2
_geom_bond_site_symmetry_1
_geom_bond_site_symmetry_2
C1 H1 1_555 1_555
H2 C1 1_555 1_555
C2 C1 1_555 1_555
H3 C2 1_555 1_555
H4 C2 1_555 1_555
C3 C2 1_555 1_555
H5 C3 1_555 1_555
C4 C3 1_555 1_555
C5 C4 1_555 1_555
H6 C5 1_555 1_555
C6 C5 1_555 1_555
H7 C6 1_555 1_555
H8 C6 1_555 1_555
C7 C6 1_555 1_555
H9 C7 1_555 1_555
H10 C7 1_555 1_555
C8 C7 1_555 1_555
C9 C8 1_555 1_555
H11 C9 1_555 1_555
C10 C1 1_555 1_555
C11 C9 1_555 1_555
H12 C11 1_555 1_555
H13 C11 1_555 1_555
C12 C11 1_555 1_555
H14 C12 1_555 1_555
H15 C12 1_555 1_555
C13 C12 1_555 1_555
H16 C13 1_555 1_555
C14 C8 1_555 1_555
C15 C14 1_555 1_555
H17 C15 1_555 1_555
H18 C15 1_555 1_555
C16 C15 1_555 1_555
H19 C16 1_555 1_555
H20 C16 1_555 1_555
C17 C16 1_555 1_555
C18 C13 1_555 1_555
H21 C18 1_555 1_555
C19 C18 1_555 1_555
H22 C19 1_555 1_555
C20 C19 1_555 1_555
C21 C19 1_555 1_555
H23 C21 1_555 1_555
H24 C21 1_555 1_555
C22 C17 1_555 1_555
H25 C22 1_555 1_555
H26 C22 1_555 1_555
C23 C4 1_555 1_555
H27 C23 1_555 1_555
H28 C23 1_555 1_555
H29 C23 1_555 1_555
C24 C4 1_555 1_555
H30 C24 1_555 1_555
H31 C24 1_555 1_555
H32 C24 1_555 1_555
C25 C10 1_555 1_555
H33 C25 1_555 1_555
H34 C25 1_555 1_555
H35 C25 1_555 1_555
C26 C8 1_555 1_555
H36 C26 1_555 1_555
H37 C26 1_555 1_555
H38 C26 1_555 1_555
C27 C14 1_555 1_555
H39 C27 1_555 1_555
H40 C27 1_555 1_555
H41 C27 1_555 1_555
C28 C17 1_555 1_555
C29 C20 1_555 1_555
H42 C29 1_555 1_555
H43 C29 1_555 1_555
C30 C20 1_555 1_555
H44 C30 1_555 1_555
H45 C30 1_555 1_555
H46 C30 1_555 1_555
O1 C3 1_555 1_555
H47 O1 1_555 1_555
O2 C28 1_555 1_555
O3 C28 1_555 1_555
H48 O3 1_555 1_555
C31 H49 1_555 1_555
H50 C31 1_555 1_555
H51 C31 1_555 1_555
O4 C31 1_555 1_555
H52 O4 1_555 1_555
C5 C10 1_555 1_555
C9 C10 1_555 1_555
C13 C14 1_555 1_555
C17 C18 1_555 1_555
C21 C22 1_555 1_555

#END
