
#######################################################################
#
#                 Cambridge Crystallographic Data Centre
#                                CCDC 
#
#######################################################################
#
# If this CIF has been generated from an entry in the Cambridge 
# Structural Database, then it will include bibliographic, chemical, 
# crystal, experimental, refinement or atomic coordinate data resulting 
# from the CCDC's data processing and validation procedures.
#
#######################################################################

data_FOQPOR
_chemical_formula_moiety         'C33 H19 N7,4(H2 O1)'
_chemical_name_systematic        
'2,6-bis(Benzimidazo(1,2-c)quinazolin-6-yl)pyridine tetrahydrate'
_symmetry_cell_setting           monoclinic
_symmetry_space_group_name_H-M   'C 2/c'
_symmetry_Int_Tables_number      15
_space_group_name_Hall           '-C 2yn'
loop_
_symmetry_equiv_pos_site_id
_symmetry_equiv_pos_as_xyz
1 x,y,z
2 -x,y,1/2-z
3 1/2+x,1/2+y,z
4 1/2-x,1/2+y,1/2-z
5 -x,-y,-z
6 x,-y,1/2+z
7 1/2-x,1/2-y,-z
8 1/2+x,1/2-y,1/2+z
_cell_length_a                   22.226(8)
_cell_length_b                   16.730(7)
_cell_length_c                   16.820(5)
_cell_angle_alpha                90
_cell_angle_beta                 115.796(13)
_cell_angle_gamma                90
_cell_volume                     5631.11
_exptl_crystal_colour            yellow
_exptl_crystal_description       prism
_cell_formula_units_Z            8
_exptl_crystal_recrystallization_method THF
loop_
_atom_site_label
_atom_site_type_symbol
_atom_site_fract_x
_atom_site_fract_y
_atom_site_fract_z
N1 N 0.27213(11) 0.71850(12) 0.19611(13)
N2 N 0.34448(10) 1.03830(12) 0.34163(13)
N3 N 0.27344(10) 0.87668(12) 0.28476(13)
N4 N 0.17207(11) 0.77855(13) 0.09927(14)
C1 C 0.32900(12) 0.98215(15) 0.38989(17)
N5 N 0.41014(11) 1.13339(13) 0.32565(14)
N6 N 0.36289(11) 0.97352(13) 0.47356(14)
C2 C 0.40117(13) 1.08670(15) 0.38170(16)
C3 C 0.41925(13) 1.02144(15) 0.51810(16)
C4 C 0.27043(12) 0.92871(14) 0.34405(15)
C5 C 0.31438(13) 1.05952(15) 0.25169(16)
N7 N 0.32720(13) 0.62345(14) 0.15887(16)
C6 C 0.22084(12) 0.82824(15) 0.24609(15)
C7 C 0.49754(14) 1.12346(17) 0.52233(17)
H1 H 0.5110 1.1623 0.4938
C8 C 0.44041(13) 1.07816(15) 0.47465(16)
C9 C 0.35743(14) 1.11670(16) 0.24392(17)
C10 C 0.32803(13) 0.69770(16) 0.27463(17)
C11 C 0.21772(13) 0.93269(16) 0.36584(17)
H2 H 0.2184 0.9689 0.4081
C12 C 0.22173(14) 0.67592(15) 0.04310(17)
C13 C 0.17071(13) 0.73025(15) 0.03050(17)
C14 C 0.22096(13) 0.77287(14) 0.17663(17)
C15 C 0.25554(14) 1.03772(17) 0.17971(17)
H3 H 0.2264 1.0008 0.1854
C16 C 0.27513(14) 0.66977(15) 0.12993(17)
C17 C 0.53394(14) 1.11098(18) 0.61106(18)
H4 H 0.5723 1.1408 0.6427
C18 C 0.16401(14) 0.88254(18) 0.32457(18)
H5 H 0.1277 0.8843 0.3381
C19 C 0.36108(15) 0.63982(17) 0.2487(2)
C20 C 0.16542(13) 0.82981(16) 0.26290(17)
H6 H 0.1296 0.7957 0.2329
C21 C 0.16672(17) 0.64023(19) -0.1096(2)
H7 H 0.1652 0.6104 -0.1572
C22 C 0.34966(16) 0.72037(18) 0.36237(19)
H8 H 0.3269 0.7582 0.3795
C23 C 0.45693(14) 1.00937(17) 0.60814(16)
H9 H 0.4438 0.9711 0.6376
C24 C 0.21875(16) 0.63046(16) -0.02859(19)
H10 H 0.2523 0.5937 -0.0207
C25 C 0.11603(16) 0.69400(18) -0.12225(18)
H11 H 0.0806 0.6997 -0.1780
C26 C 0.41898(18) 0.6046(2) 0.3108(3)
H12 H 0.4424 0.5670 0.2944
C27 C 0.34365(16) 1.15008(17) 0.16190(18)
H13 H 0.3726 1.1868 0.1554
C28 C 0.11754(15) 0.73894(17) -0.05328(18)
H14 H 0.0834 0.7750 -0.0622
C29 C 0.24216(16) 1.07232(18) 0.10073(18)
H15 H 0.2028 1.0593 0.0517
C30 C 0.51338(14) 1.05378(18) 0.65350(17)
H16 H 0.5383 1.0454 0.7138
C31 C 0.28621(17) 1.12706(19) 0.09131(19)
H17 H 0.2762 1.1482 0.0358
C32 C 0.44039(19) 0.6269(2) 0.3968(3)
H18 H 0.4787 0.6034 0.4396
C33 C 0.40675(19) 0.6835(2) 0.4224(2)
H19 H 0.4232 0.6969 0.4818
O1 O 0.40317(14) 0.57633(17) -0.07255(16)
H20 H 0.3781 0.6259 -0.0892
H21 H 0.4258 0.5706 -0.1102
O2 O 0.39639(12) 0.52149(15) 0.07783(17)
H22 H 0.3863 0.5640 0.1093
H23 H 0.3945 0.5447 0.0239
O3 O 0.50114(13) 0.41673(17) 0.16348(17)
H24 H 0.4621 0.4496 0.1310
H25 H 0.4865 0.3615 0.1539
O4 O 0.50955(12) 1.24984(14) 0.33757(15)
H26 H 0.4879 1.2646 0.2757
H27 H 0.4806 1.2116 0.3473
loop_
_geom_bond_atom_site_label_1
_geom_bond_atom_site_label_2
_geom_bond_site_symmetry_1
_geom_bond_site_symmetry_2
N1 C10 1_555 1_555
N2 C1 1_555 1_555
N3 C4 1_555 1_555
N4 C13 1_555 1_555
C1 N6 1_555 1_555
N5 C2 1_555 1_555
N6 C3 1_555 1_555
C2 N2 1_555 1_555
C3 C8 1_555 1_555
C4 C1 1_555 1_555
C5 N2 1_555 1_555
N7 C16 1_555 1_555
C6 N3 1_555 1_555
C7 H1 1_555 1_555
C8 C2 1_555 1_555
C9 N5 1_555 1_555
C10 C19 1_555 1_555
C11 C4 1_555 1_555
H2 C11 1_555 1_555
C12 C13 1_555 1_555
C13 C28 1_555 1_555
C14 N1 1_555 1_555
C15 C5 1_555 1_555
H3 C15 1_555 1_555
C16 N1 1_555 1_555
C17 C7 1_555 1_555
H4 C17 1_555 1_555
C18 C11 1_555 1_555
H5 C18 1_555 1_555
C19 N7 1_555 1_555
C20 C6 1_555 1_555
H6 C20 1_555 1_555
C21 H7 1_555 1_555
C22 C10 1_555 1_555
H8 C22 1_555 1_555
C23 C3 1_555 1_555
H9 C23 1_555 1_555
C24 C12 1_555 1_555
H10 C24 1_555 1_555
C25 C21 1_555 1_555
H11 C25 1_555 1_555
C26 C19 1_555 1_555
H12 C26 1_555 1_555
C27 C9 1_555 1_555
H13 C27 1_555 1_555
C28 C25 1_555 1_555
H14 C28 1_555 1_555
C29 C15 1_555 1_555
H15 C29 1_555 1_555
C30 C17 1_555 1_555
H16 C30 1_555 1_555
C31 C27 1_555 1_555
H17 C31 1_555 1_555
C32 C26 1_555 1_555
H18 C32 1_555 1_555
C33 C22 1_555 1_555
H19 C33 1_555 1_555
O1 H20 1_555 1_555
H21 O1 1_555 1_555
O2 H22 1_555 1_555
H23 O2 1_555 1_555
O3 H24 1_555 1_555
H25 O3 1_555 1_555
O4 H26 1_555 1_555
H27 O4 1_555 1_555
N4 C14 1_555 1_555
C5 C9 1_555 1_555
C6 C14 1_555 1_555
C7 C8 1_555 1_555
C12 C16 1_555 1_555
C18 C20 1_555 1_555
C21 C24 1_555 1_555
C23 C30 1_555 1_555
C29 C31 1_555 1_555
C32 C33 1_555 1_555

#END
