
#######################################################################
#
#                 Cambridge Crystallographic Data Centre
#                                CCDC 
#
#######################################################################
#
# If this CIF has been generated from an entry in the Cambridge 
# Structural Database, then it will include bibliographic, chemical, 
# crystal, experimental, refinement or atomic coordinate data resulting 
# from the CCDC's data processing and validation procedures.
#
#######################################################################

data_FOQQIN
_chemical_formula_moiety         'C47 H52 N4 O12,H2 O1'
_chemical_name_systematic        
'5-methyl-1,3-bis(3-(2-oxo-3-phenoxy-4-(2,3,4-trimethoxyphenyl)azetidin-1-yl)propyl)pyrimidine-2,4(1H,3H)-dione monohydrate'
_symmetry_cell_setting           monoclinic
_symmetry_space_group_name_H-M   'C c'
_symmetry_Int_Tables_number      9
_space_group_name_Hall           'C -2yc'
loop_
_symmetry_equiv_pos_site_id
_symmetry_equiv_pos_as_xyz
1 x,y,z
2 x,-y,1/2+z
3 1/2+x,1/2+y,z
4 1/2+x,1/2-y,1/2+z
_cell_length_a                   8.8852(2)
_cell_length_b                   15.1060(3)
_cell_length_c                   35.1167(11)
_cell_angle_alpha                90
_cell_angle_beta                 96.194(3)
_cell_angle_gamma                90
_cell_volume                     4685.84
_exptl_crystal_colour            colorless
_exptl_crystal_description       block
_cell_formula_units_Z            4
loop_
_atom_site_label
_atom_site_type_symbol
_atom_site_fract_x
_atom_site_fract_y
_atom_site_fract_z
O1 O 0.1142(3) 0.16656(18) 0.68760(10)
O2 O -0.2479(4) 0.3806(2) 0.67938(12)
O3 O -0.5342(4) 0.1665(2) 0.62152(12)
O4 O -0.4937(4) 0.5428(2) 0.56753(10)
O5 O -0.5243(5) 0.5966(2) 0.49171(12)
O6 O -0.5216(5) 0.4794(2) 0.43516(10)
O7 O -0.7176(3) 0.30006(19) 0.57027(9)
O8 O 0.3391(3) 0.5288(2) 0.75684(11)
O9 O 0.9292(3) 0.32636(18) 0.79738(9)
O10 O 1.0520(3) 0.2918(2) 0.87160(10)
O11 O 0.8927(4) 0.3236(3) 0.93081(10)
O12 O 0.6512(3) 0.55856(18) 0.80353(9)
N1 N 0.1903(4) 0.3098(2) 0.69428(10)
N2 N -0.0664(4) 0.2740(2) 0.68132(10)
N3 N -0.3835(4) 0.2787(2) 0.59954(12)
N4 N 0.4712(4) 0.3966(2) 0.77152(11)
C1 C 0.0815(5) 0.2455(3) 0.68762(12)
C2 C 0.1513(5) 0.3983(3) 0.69459(12)
H1 H 0.2286 0.4400 0.6984
C3 C 0.0077(5) 0.4274(3) 0.68971(13)
C4 C -0.1108(5) 0.3632(3) 0.68338(13)
C5 C -0.0318(7) 0.5232(3) 0.69013(17)
H2 H -0.0684 0.5419 0.6647
H3 H 0.0566 0.5569 0.6991
H4 H -0.1089 0.5326 0.7069
C6 C -0.1822(5) 0.2067(3) 0.67098(14)
H5 H -0.2807 0.2303 0.6751
H6 H -0.1627 0.1556 0.6875
C7 C -0.1850(6) 0.1780(3) 0.62989(15)
H7 H -0.2569 0.1299 0.6252
H8 H -0.0858 0.1552 0.6259
C8 C -0.2267(5) 0.2508(4) 0.60073(16)
H9 H -0.1616 0.3015 0.6068
H10 H -0.2083 0.2298 0.5755
C9 C -0.4575(5) 0.3648(3) 0.58890(14)
H11 H -0.4209 0.4121 0.6067
C10 C -0.6049(5) 0.3214(3) 0.60058(14)
H12 H -0.6440 0.3488 0.6228
C11 C -0.5092(5) 0.2395(3) 0.60989(14)
C12 C -0.4606(5) 0.3934(3) 0.54834(13)
C13 C -0.4822(5) 0.4816(3) 0.53878(14)
C14 C -0.5021(5) 0.5080(3) 0.50064(14)
C15 C -0.4972(6) 0.4470(3) 0.47163(14)
C16 C -0.4714(6) 0.3587(3) 0.48087(14)
H13 H -0.4658 0.3170 0.4616
C17 C -0.4542(6) 0.3331(3) 0.51868(14)
H14 H -0.4378 0.2736 0.5246
C18 C -0.3567(7) 0.5903(4) 0.5781(2)
H15 H -0.3353 0.6278 0.5572
H16 H -0.2750 0.5492 0.5837
H17 H -0.3676 0.6258 0.6003
C19 C -0.6808(9) 0.6226(5) 0.4896(2)
H18 H -0.7393 0.5876 0.4705
H19 H -0.6902 0.6840 0.4828
H20 H -0.7174 0.6135 0.5140
C20 C -0.5303(12) 0.4177(5) 0.40488(18)
H21 H -0.5582 0.4477 0.3811
H22 H -0.6051 0.3736 0.4088
H23 H -0.4336 0.3897 0.4042
C21 C -0.8265(5) 0.3614(3) 0.55870(15)
C22 C -0.8398(6) 0.4418(4) 0.57527(19)
H24 H -0.7706 0.4595 0.5956
C23 C -0.9575(8) 0.4973(5) 0.5615(3)
H25 H -0.9690 0.5520 0.5730
C24 C -1.0552(8) 0.4717(5) 0.5316(3)
H26 H -1.1337 0.5093 0.5224
C25 C -1.0414(8) 0.3923(6) 0.5145(2)
H27 H -1.1096 0.3756 0.4937
C26 C -0.9243(6) 0.3359(4) 0.52817(17)
H28 H -0.9129 0.2812 0.5166
C27 C 0.3492(5) 0.2822(3) 0.70273(13)
H29 H 0.4147 0.3314 0.6979
H30 H 0.3699 0.2343 0.6857
C28 C 0.3846(5) 0.2522(3) 0.74364(13)
H31 H 0.4877 0.2301 0.7471
H32 H 0.3181 0.2033 0.7482
C29 C 0.3677(5) 0.3235(3) 0.77316(13)
H33 H 0.2649 0.3461 0.7695
H34 H 0.3833 0.2972 0.7985
C30 C 0.6374(5) 0.3998(3) 0.77999(12)
H35 H 0.6891 0.3690 0.7606
C31 C 0.6213(5) 0.5018(3) 0.77178(13)
H36 H 0.6661 0.5213 0.7489
C32 C 0.4521(5) 0.4844(3) 0.76508(13)
C33 C 0.6983(4) 0.3742(2) 0.81986(12)
C34 C 0.8440(4) 0.3398(2) 0.82723(12)
C35 C 0.9059(5) 0.3247(3) 0.86478(14)
C36 C 0.8219(5) 0.3409(3) 0.89488(13)
C37 C 0.6760(5) 0.3730(3) 0.88801(13)
H37 H 0.6185 0.3834 0.9082
C38 C 0.6168(5) 0.3895(3) 0.85064(13)
H38 H 0.5189 0.4117 0.8460
C39 C 0.9400(7) 0.2351(3) 0.78697(17)
H39 H 1.0029 0.2297 0.7665
H40 H 0.8408 0.2126 0.7787
H41 H 0.9836 0.2018 0.8087
C40 C 1.1643(6) 0.3600(4) 0.8753(2)
H42 H 1.1583 0.3940 0.8521
H43 H 1.2630 0.3338 0.8800
H44 H 1.1470 0.3980 0.8963
C41 C 0.8106(11) 0.3440(7) 0.96208(18)
H45 H 0.7201 0.3089 0.9605
H46 H 0.7842 0.4056 0.9613
H47 H 0.8719 0.3313 0.9857
C42 C 0.8010(5) 0.5783(2) 0.81575(13)
C43 C 0.9224(5) 0.5469(3) 0.79923(15)
H48 H 0.9089 0.5070 0.7790
C44 C 1.0663(6) 0.5756(4) 0.8131(2)
H49 H 1.1499 0.5560 0.8016
C45 C 1.0857(7) 0.6327(4) 0.8435(2)
H50 H 1.1825 0.6514 0.8528
C46 C 0.9646(7) 0.6621(4) 0.8602(2)
H51 H 0.9787 0.7003 0.8811
C47 C 0.8202(6) 0.6355(3) 0.84641(15)
H52 H 0.7369 0.6560 0.8577
O13 O 0.4979(4) 0.4870(2) 0.67450(12)
H53 H 0.579(4) 0.460(4) 0.678(2)
H54 H 0.518(8) 0.5403(14) 0.678(2)
loop_
_geom_bond_atom_site_label_1
_geom_bond_atom_site_label_2
_geom_bond_site_symmetry_1
_geom_bond_site_symmetry_2
O1 C1 1_555 1_555
O2 C4 1_555 1_555
O3 C11 1_555 1_555
O4 C13 1_555 1_555
O5 C14 1_555 1_555
O6 C15 1_555 1_555
O7 C10 1_555 1_555
O8 C32 1_555 1_555
O9 C34 1_555 1_555
O10 C35 1_555 1_555
O11 C36 1_555 1_555
O12 C31 1_555 1_555
N1 C1 1_555 1_555
N2 C1 1_555 1_555
N3 C8 1_555 1_555
N4 C29 1_555 1_555
C2 N1 1_555 1_555
H1 C2 1_555 1_555
C3 C2 1_555 1_555
C4 N2 1_555 1_555
C5 C3 1_555 1_555
H2 C5 1_555 1_555
H3 C5 1_555 1_555
H4 C5 1_555 1_555
C6 N2 1_555 1_555
H5 C6 1_555 1_555
H6 C6 1_555 1_555
C7 C6 1_555 1_555
H7 C7 1_555 1_555
H8 C7 1_555 1_555
C8 C7 1_555 1_555
H9 C8 1_555 1_555
H10 C8 1_555 1_555
C9 N3 1_555 1_555
H11 C9 1_555 1_555
C10 C9 1_555 1_555
H12 C10 1_555 1_555
C11 N3 1_555 1_555
C12 C9 1_555 1_555
C13 C12 1_555 1_555
C14 C13 1_555 1_555
C15 C14 1_555 1_555
C16 C15 1_555 1_555
H13 C16 1_555 1_555
C17 C12 1_555 1_555
H14 C17 1_555 1_555
C18 O4 1_555 1_555
H15 C18 1_555 1_555
H16 C18 1_555 1_555
H17 C18 1_555 1_555
C19 O5 1_555 1_555
H18 C19 1_555 1_555
H19 C19 1_555 1_555
H20 C19 1_555 1_555
C20 O6 1_555 1_555
H21 C20 1_555 1_555
H22 C20 1_555 1_555
H23 C20 1_555 1_555
C21 O7 1_555 1_555
C22 C21 1_555 1_555
H24 C22 1_555 1_555
C23 C22 1_555 1_555
H25 C23 1_555 1_555
C24 C23 1_555 1_555
H26 C24 1_555 1_555
C25 C24 1_555 1_555
H27 C25 1_555 1_555
C26 C21 1_555 1_555
H28 C26 1_555 1_555
C27 N1 1_555 1_555
H29 C27 1_555 1_555
H30 C27 1_555 1_555
C28 C27 1_555 1_555
H31 C28 1_555 1_555
H32 C28 1_555 1_555
C29 C28 1_555 1_555
H33 C29 1_555 1_555
H34 C29 1_555 1_555
C30 N4 1_555 1_555
H35 C30 1_555 1_555
C31 C30 1_555 1_555
H36 C31 1_555 1_555
C32 N4 1_555 1_555
C33 C30 1_555 1_555
C34 C33 1_555 1_555
C35 C34 1_555 1_555
C36 C35 1_555 1_555
C37 C36 1_555 1_555
H37 C37 1_555 1_555
C38 C33 1_555 1_555
H38 C38 1_555 1_555
C39 O9 1_555 1_555
H39 C39 1_555 1_555
H40 C39 1_555 1_555
H41 C39 1_555 1_555
C40 O10 1_555 1_555
H42 C40 1_555 1_555
H43 C40 1_555 1_555
H44 C40 1_555 1_555
C41 O11 1_555 1_555
H45 C41 1_555 1_555
H46 C41 1_555 1_555
H47 C41 1_555 1_555
C42 O12 1_555 1_555
C43 C42 1_555 1_555
H48 C43 1_555 1_555
C44 C43 1_555 1_555
H49 C44 1_555 1_555
C45 C44 1_555 1_555
H50 C45 1_555 1_555
C46 C45 1_555 1_555
H51 C46 1_555 1_555
C47 C42 1_555 1_555
H52 C47 1_555 1_555
O13 H53 1_555 1_555
H54 O13 1_555 1_555
C3 C4 1_555 1_555
C10 C11 1_555 1_555
C16 C17 1_555 1_555
C25 C26 1_555 1_555
C31 C32 1_555 1_555
C37 C38 1_555 1_555
C46 C47 1_555 1_555

#END
