
#######################################################################
#
#                 Cambridge Crystallographic Data Centre
#                                CCDC 
#
#######################################################################
#
# If this CIF has been generated from an entry in the Cambridge 
# Structural Database, then it will include bibliographic, chemical, 
# crystal, experimental, refinement or atomic coordinate data resulting 
# from the CCDC's data processing and validation procedures.
#
#######################################################################

data_FOQRAG
_chemical_formula_moiety         'C27 H20 Cl1 N4 1+,Cl1 O4 1-'
_chemical_name_systematic        
"1-(4-chlorobenzyl)-4-(2,2':6',2''-terpyridin-4'-yl)pyridinium perchlorate"
_symmetry_cell_setting           triclinic
_symmetry_space_group_name_H-M   'P -1'
_symmetry_Int_Tables_number      2
_space_group_name_Hall           '-P 1'
loop_
_symmetry_equiv_pos_site_id
_symmetry_equiv_pos_as_xyz
1 x,y,z
2 -x,-y,-z
_cell_length_a                   10.0965(4)
_cell_length_b                   10.8426(5)
_cell_length_c                   12.8065(7)
_cell_angle_alpha                111.085(5)
_cell_angle_beta                 101.692(4)
_cell_angle_gamma                96.127(4)
_cell_volume                     1255.95
_exptl_crystal_colour            'light yellow'
_exptl_crystal_description       block
_cell_formula_units_Z            2
loop_
_atom_site_label
_atom_site_type_symbol
_atom_site_fract_x
_atom_site_fract_y
_atom_site_fract_z
Cl1 Cl 0.17914(7) 0.32628(8) 0.40862(6)
O1 O 0.0921(7) 0.2199(5) 0.3244(9)
O2 O 0.2289(12) 0.3024(13) 0.5004(8)
O3 O 0.1068(4) 0.4306(4) 0.4428(4)
O4 O 0.2906(7) 0.3666(7) 0.3807(8)
Cl2 Cl 0.53774(11) 1.30106(8) 0.70622(9)
N1 N 0.3452(2) 0.6674(2) 0.6511(2)
N2 N 0.0726(3) 0.7879(3) 1.1699(3)
N3 N 0.1817(2) 0.4699(2) 1.0810(2)
N4 N 0.3379(4) 0.1983(3) 0.9352(3)
C1 C 0.4864(3) 1.1281(3) 0.6639(3)
C2 C 0.5749(3) 1.0605(3) 0.7096(3)
H1 H 0.6600 1.1082 0.7649
C3 C 0.5377(3) 0.9243(3) 0.6738(3)
H2 H 0.5982 0.8769 0.7040
C4 C 0.4130(3) 0.8534(3) 0.5939(2)
C5 C 0.3282(3) 0.9235(4) 0.5501(3)
H3 H 0.2429 0.8763 0.4948
C6 C 0.3642(3) 1.0613(4) 0.5846(3)
H4 H 0.3045 1.1088 0.5535
C7 C 0.3744(4) 0.7032(3) 0.5541(3)
H5 H 0.4508 0.6612 0.5284
H6 H 0.2917 0.6678 0.4875
C8 C 0.4398(3) 0.6228(3) 0.7109(3)
H7 H 0.5252 0.6136 0.6916
C9 C 0.4137(3) 0.5905(3) 0.7997(3)
H8 H 0.4812 0.5589 0.8415
C10 C 0.2897(3) 0.6037(2) 0.8293(2)
C11 C 0.1956(3) 0.6534(3) 0.7672(3)
H9 H 0.1107 0.6668 0.7865
C12 C 0.2253(3) 0.6831(3) 0.6781(3)
H10 H 0.1599 0.7152 0.6349
C13 C 0.2569(3) 0.5614(3) 0.9203(2)
C14 C 0.2864(3) 0.4408(3) 0.9237(2)
H11 H 0.3351 0.3893 0.8731
C15 C 0.2428(3) 0.3965(3) 1.0033(2)
C16 C 0.1587(3) 0.5891(3) 1.0805(2)
C17 C 0.1905(3) 0.6364(3) 0.9995(2)
H12 H 0.1673 0.7186 0.9981
C18 C 0.0949(3) 0.6695(3) 1.1710(3)
C19 C 0.0629(3) 0.6218(4) 1.2523(3)
H13 H 0.0833 0.5381 1.2520
C20 C 0.0014(4) 0.6979(5) 1.3329(3)
H14 H -0.0223 0.6674 1.3889
C21 C -0.0251(4) 0.8187(5) 1.3311(3)
H15 H -0.0695 0.8721 1.3848
C22 C 0.0135(4) 0.8623(4) 1.2497(4)
H16 H -0.0023 0.9475 1.2506
C23 C 0.2597(3) 0.2609(3) 1.0012(3)
C24 C 0.1969(4) 0.2054(4) 1.0653(3)
H17 H 0.1433 0.2538 1.1127
C25 C 0.2138(5) 0.0776(4) 1.0587(4)
H18 H 0.1709 0.0364 1.1006
C26 C 0.2931(6) 0.0127(4) 0.9908(4)
H19 H 0.3073 -0.0744 0.9854
C27 C 0.3530(6) 0.0751(4) 0.9297(5)
H20 H 0.4071 0.0285 0.8819
loop_
_geom_bond_atom_site_label_1
_geom_bond_atom_site_label_2
_geom_bond_site_symmetry_1
_geom_bond_site_symmetry_2
Cl1 O1 1_555 1_555
O2 Cl1 1_555 1_555
O3 Cl1 1_555 1_555
O4 Cl1 1_555 1_555
Cl2 C1 1_555 1_555
N1 C7 1_555 1_555
N2 C18 1_555 1_555
N3 C15 1_555 1_555
N4 C23 1_555 1_555
C1 C2 1_555 1_555
C2 H1 1_555 1_555
C3 C2 1_555 1_555
H2 C3 1_555 1_555
C4 C3 1_555 1_555
C5 C4 1_555 1_555
H3 C5 1_555 1_555
C6 C1 1_555 1_555
H4 C6 1_555 1_555
C7 C4 1_555 1_555
H5 C7 1_555 1_555
H6 C7 1_555 1_555
C8 N1 1_555 1_555
H7 C8 1_555 1_555
C9 C8 1_555 1_555
H8 C9 1_555 1_555
C10 C9 1_555 1_555
C11 C10 1_555 1_555
H9 C11 1_555 1_555
C12 N1 1_555 1_555
H10 C12 1_555 1_555
C13 C10 1_555 1_555
C14 C13 1_555 1_555
H11 C14 1_555 1_555
C15 C14 1_555 1_555
C16 N3 1_555 1_555
C17 C13 1_555 1_555
H12 C17 1_555 1_555
C18 C16 1_555 1_555
C19 C18 1_555 1_555
H13 C19 1_555 1_555
C20 C19 1_555 1_555
H14 C20 1_555 1_555
C21 C20 1_555 1_555
H15 C21 1_555 1_555
C22 N2 1_555 1_555
H16 C22 1_555 1_555
C23 C15 1_555 1_555
C24 C23 1_555 1_555
H17 C24 1_555 1_555
C25 C24 1_555 1_555
H18 C25 1_555 1_555
C26 C25 1_555 1_555
H19 C26 1_555 1_555
C27 N4 1_555 1_555
H20 C27 1_555 1_555
C5 C6 1_555 1_555
C11 C12 1_555 1_555
C16 C17 1_555 1_555
C21 C22 1_555 1_555
C26 C27 1_555 1_555

#END
