
#######################################################################
#
#                 Cambridge Crystallographic Data Centre
#                                CCDC 
#
#######################################################################
#
# If this CIF has been generated from an entry in the Cambridge 
# Structural Database, then it will include bibliographic, chemical, 
# crystal, experimental, refinement or atomic coordinate data resulting 
# from the CCDC's data processing and validation procedures.
#
#######################################################################

data_FORCOF
_chemical_formula_moiety         'C23 H21 N1 S1'
_chemical_name_systematic        
9-Ethyl-3-((E)-4-(methylthio)styryl)-9H-carbazole
_symmetry_cell_setting           orthorhombic
_symmetry_space_group_name_H-M   'P 21 21 21'
_symmetry_Int_Tables_number      19
_space_group_name_Hall           'P 2ac 2ab'
loop_
_symmetry_equiv_pos_site_id
_symmetry_equiv_pos_as_xyz
1 x,y,z
2 1/2-x,-y,1/2+z
3 -x,1/2+y,1/2-z
4 1/2+x,1/2-y,-z
_cell_length_a                   5.3607(13)
_cell_length_b                   13.401(3)
_cell_length_c                   25.829(6)
_cell_angle_alpha                90
_cell_angle_beta                 90
_cell_angle_gamma                90
_cell_volume                     1855.52
_exptl_crystal_colour            'pale green'
_cell_formula_units_Z            4
_exptl_crystal_recrystallization_method dichloromethane/ethanol
_exptl_crystal_preparation       fluorescent
loop_
_atom_site_label
_atom_site_type_symbol
_atom_site_fract_x
_atom_site_fract_y
_atom_site_fract_z
S1 S 1.0147(2) 0.30003(8) 1.08835(4)
N1 N 1.0229(8) 1.0146(3) 0.77581(14)
C1 C 1.0238(9) 0.9421(3) 0.81339(16)
C2 C 1.1909(8) 0.9308(3) 0.85427(16)
H1 H 1.3192 0.9763 0.8598
C3 C 1.1584(8) 0.8497(3) 0.88597(15)
H2 H 1.2683 0.8404 0.9134
C4 C 0.9649(9) 0.7797(3) 0.87862(16)
C5 C 0.8031(7) 0.7938(3) 0.83809(16)
H3 H 0.6732 0.7489 0.8329
C6 C 0.8313(9) 0.8740(3) 0.80493(16)
C7 C 0.7047(9) 0.9070(4) 0.75949(17)
C8 C 0.5015(10) 0.8711(3) 0.73124(18)
H4 H 0.4146 0.8152 0.7426
C9 C 0.4304(11) 0.9190(4) 0.6864(2)
H5 H 0.2979 0.8947 0.6669
C10 C 0.5576(12) 1.0036(5) 0.6706(2)
H6 H 0.5064 1.0356 0.6404
C11 C 0.7563(10) 1.0424(4) 0.69755(19)
H7 H 0.8397 1.0991 0.6862
C12 C 0.8269(9) 0.9932(4) 0.74240(17)
C13 C 1.1638(9) 1.1065(4) 0.77615(16)
H8 H 1.1922 1.1282 0.7408
H9 H 1.3249 1.0949 0.7921
C14 C 1.0289(9) 1.1865(3) 0.80514(16)
H10 H 1.1260 1.2467 0.8046
H11 H 1.0040 1.1657 0.8403
H12 H 0.8702 1.1985 0.7891
C15 C 0.9338(7) 0.6915(3) 0.91244(17)
H13 H 0.7967 0.6512 0.9054
C16 C 1.0723(8) 0.6636(3) 0.95034(18)
H14 H 1.2072 0.7047 0.9579
C17 C 1.0440(9) 0.5741(4) 0.98341(16)
C18 C 1.2071(9) 0.5561(4) 1.02261(17)
H15 H 1.3340 0.6021 1.0285
C19 C 1.1943(8) 0.4741(4) 1.05376(16)
H16 H 1.3106 0.4657 1.0801
C20 C 1.0126(8) 0.4043(3) 1.04660(13)
C21 C 0.8404(8) 0.4193(3) 1.00737(17)
H17 H 0.7135 0.3732 1.0019
C22 C 0.8582(9) 0.5032(4) 0.97635(16)
H18 H 0.7422 0.5123 0.9500
C23 C 0.7692(7) 0.2217(3) 1.06676(14)
H19 H 0.7615 0.1633 1.0882
H20 H 0.7993 0.2024 1.0315
H21 H 0.6139 0.2572 1.0689
loop_
_geom_bond_atom_site_label_1
_geom_bond_atom_site_label_2
_geom_bond_site_symmetry_1
_geom_bond_site_symmetry_2
S1 C20 1_555 1_555
N1 C1 1_555 1_555
C1 C2 1_555 1_555
C2 H1 1_555 1_555
C3 C2 1_555 1_555
H2 C3 1_555 1_555
C4 C3 1_555 1_555
C5 C4 1_555 1_555
H3 C5 1_555 1_555
C6 C1 1_555 1_555
C7 C6 1_555 1_555
C8 C7 1_555 1_555
H4 C8 1_555 1_555
C9 C8 1_555 1_555
H5 C9 1_555 1_555
C10 C9 1_555 1_555
H6 C10 1_555 1_555
C11 C10 1_555 1_555
H7 C11 1_555 1_555
C12 N1 1_555 1_555
C13 N1 1_555 1_555
H8 C13 1_555 1_555
H9 C13 1_555 1_555
C14 C13 1_555 1_555
H10 C14 1_555 1_555
H11 C14 1_555 1_555
H12 C14 1_555 1_555
C15 C4 1_555 1_555
H13 C15 1_555 1_555
C16 C15 1_555 1_555
H14 C16 1_555 1_555
C17 C16 1_555 1_555
C18 C17 1_555 1_555
H15 C18 1_555 1_555
C19 C18 1_555 1_555
H16 C19 1_555 1_555
C20 C19 1_555 1_555
C21 C20 1_555 1_555
H17 C21 1_555 1_555
C22 C17 1_555 1_555
H18 C22 1_555 1_555
C23 S1 1_555 1_555
H19 C23 1_555 1_555
H20 C23 1_555 1_555
H21 C23 1_555 1_555
C5 C6 1_555 1_555
C7 C12 1_555 1_555
C11 C12 1_555 1_555
C21 C22 1_555 1_555

#END
