
#######################################################################
#
#                 Cambridge Crystallographic Data Centre
#                                CCDC 
#
#######################################################################
#
# If this CIF has been generated from an entry in the Cambridge 
# Structural Database, then it will include bibliographic, chemical, 
# crystal, experimental, refinement or atomic coordinate data resulting 
# from the CCDC's data processing and validation procedures.
#
#######################################################################

data_FORDAT
_chemical_formula_moiety         'C68 H76 I4 O8,7(C5 H5 N1)'
_chemical_name_systematic        
'29,33,37,41-tetrahexyl-7,14,21,43-tetrakis(iodoethynyl)-2,5,9,12,16,19,23,26-octaoxanonacyclo[25.15.1.1^28,42^.0^6,40^.0^8,38^.0^13,36^.0^15,34^.0^20,32^.0^22,30^]tetratetraconta-1(43),6(40),7,13(36),14,20(32),21,27,30,34,38,42(44)-dodecaene pyridine solvate'
_symmetry_cell_setting           monoclinic
_symmetry_space_group_name_H-M   'C 2/c'
_symmetry_Int_Tables_number      15
_space_group_name_Hall           '-C 2yn'
loop_
_symmetry_equiv_pos_site_id
_symmetry_equiv_pos_as_xyz
1 x,y,z
2 -x,y,1/2-z
3 1/2+x,1/2+y,z
4 1/2-x,1/2+y,1/2-z
5 -x,-y,-z
6 x,-y,1/2+z
7 1/2-x,1/2-y,-z
8 1/2+x,1/2-y,1/2+z
_cell_length_a                   27.3028(5)
_cell_length_b                   12.2692(2)
_cell_length_c                   29.3240(5)
_cell_angle_alpha                90
_cell_angle_beta                 90.8176(15)
_cell_angle_gamma                90
_cell_volume                     9822.06
_exptl_crystal_colour            colorless
_exptl_crystal_description       brick
_cell_formula_units_Z            4
loop_
_atom_site_label
_atom_site_type_symbol
_atom_site_fract_x
_atom_site_fract_y
_atom_site_fract_z
I1 I 0.74250(2) 0.78761(19) 0.38969(4)
I2 I 0.92869(2) 0.94474(2) 0.08129(2)
O1 O 0.80237(9) 0.5243(2) 0.24876(8)
O2 O 0.85559(9) 0.5811(2) 0.16836(8)
O3 O 1.01284(9) 0.5880(2) 0.09865(8)
O4 O 1.11364(9) 0.5345(2) 0.10620(8)
C1 C 0.78169(14) 0.6705(4) 0.35582(13)
C2 C 0.80914(14) 0.6093(4) 0.33877(12)
C3 C 0.84508(13) 0.5347(3) 0.32107(11)
C4 C 0.88405(12) 0.4989(3) 0.34914(10)
C5 C 0.91842(12) 0.4245(3) 0.33391(10)
C6 C 0.91388(11) 0.3884(3) 0.28881(10)
H1 H 0.9378 0.3393 0.2776
C7 C 0.87597(12) 0.4209(3) 0.25956(10)
C8 C 0.84157(12) 0.4953(3) 0.27603(11)
C9 C 0.80398(14) 0.6333(4) 0.23027(12)
H2 H 0.8005 0.6863 0.2555
H3 H 0.7758 0.6434 0.2090
C10 C 0.85074(14) 0.6573(3) 0.20530(13)
H4 H 0.8499 0.7327 0.1932
H5 H 0.8791 0.6508 0.2265
C11 C 0.87230(11) 0.3787(3) 0.21067(10)
H6 H 0.8398 0.4028 0.1982
C12 C 0.87251(12) 0.2545(3) 0.20917(11)
H7 H 0.9014 0.2269 0.2264
H8 H 0.8754 0.2301 0.1771
C13 C 0.82602(14) 0.2064(3) 0.22942(13)
H9 H 0.8228 0.2331 0.2611
H10 H 0.7974 0.2333 0.2117
C14 C 0.82493(16) 0.0841(4) 0.22981(14)
H11 H 0.8387 0.0570 0.2009
H12 H 0.7904 0.0597 0.2310
C15 C 0.85310(18) 0.0329(4) 0.26928(16)
H13 H 0.8378 0.0545 0.2983
H14 H 0.8871 0.0607 0.2696
C16 C 0.8539(2) -0.0904(5) 0.2659(2)
H15 H 0.8198 -0.1173 0.2633
H16 H 0.8710 -0.1115 0.2376
C17 C 0.8786(3) -0.1447(5) 0.3057(2)
H17 H 0.8821 -0.2228 0.2995
H18 H 0.8589 -0.1345 0.3330
H19 H 0.9111 -0.1124 0.3107
C18 C 0.91113(12) 0.4333(3) 0.18188(10)
C19 C 0.90144(12) 0.5353(3) 0.16318(10)
C20 C 0.93614(12) 0.5906(3) 0.13666(11)
C21 C 0.98062(12) 0.5380(3) 0.12840(10)
C22 C 0.99184(12) 0.4363(3) 0.14621(10)
C23 C 0.95665(11) 0.3857(3) 0.17337(10)
H20 H 0.9640 0.3167 0.1865
C24 C 0.92750(13) 0.6981(3) 0.11899(12)
C25 C 0.92479(15) 0.7888(3) 0.10492(12)
C26 C 1.04670(13) 0.6635(3) 0.11956(12)
H21 H 1.0480 0.6520 0.1530
H22 H 1.0360 0.7393 0.1135
C27 C 1.09660(14) 0.6440(3) 0.09953(12)
H23 H 1.0951 0.6599 0.0664
H24 H 1.1204 0.6951 0.1137
C28 C 1.04045(12) 0.3831(3) 0.13495(10)
H25 H 1.0487 0.4077 0.1035
C29 C 1.03855(12) 0.2578(3) 0.13325(11)
H26 H 1.0386 0.2288 0.1647
H27 H 1.0077 0.2347 0.1180
C30 C 1.08186(15) 0.2102(4) 0.10770(16)
H28 H 1.0832 0.2442 0.0771
H29 H 1.1125 0.2295 0.1243
C31 C 1.07980(19) 0.0893(5) 0.1021(2)
H30 H 1.0467 0.0669 0.0915
H31 H 1.0868 0.0531 0.1317
C32 C 1.1199(2) 0.0548(5) 0.0654(3)
H32 H 1.1135 0.0946 0.0366
H33 H 1.1528 0.0763 0.0768
C33 C 1.1195(3) -0.0657(6) 0.0561(3)
H34 H 1.0865 -0.0863 0.0446
H35 H 1.1251 -0.1048 0.0853
C34 C 1.1569(5) -0.1038(9) 0.0224(4)
H36 H 1.1545 -0.0593 -0.0052
H37 H 1.1507 -0.1804 0.0147
H38 H 1.1897 -0.0966 0.0359
I1A I 1.25750(2) 0.78761(19) 0.11031(4)
I2A I 1.07131(2) 0.94474(2) 0.41871(2)
O1A O 1.19763(9) 0.5243(2) 0.25124(8)
O2A O 1.14441(9) 0.5811(2) 0.33164(8)
O3A O 0.98716(9) 0.5880(2) 0.40135(8)
O4A O 0.88636(9) 0.5345(2) 0.39380(8)
C1A C 1.21831(14) 0.6705(4) 0.14418(13)
C2A C 1.19086(14) 0.6093(4) 0.16123(12)
C3A C 1.15492(13) 0.5347(3) 0.17893(11)
C4A C 1.11595(12) 0.4989(3) 0.15086(10)
C5A C 1.08158(12) 0.4245(3) 0.16609(10)
C6A C 1.08612(11) 0.3884(3) 0.21119(10)
H1A H 1.0622 0.3393 0.2224
C7A C 1.12403(12) 0.4209(3) 0.24044(10)
C8A C 1.15843(12) 0.4953(3) 0.22397(11)
C9A C 1.19602(14) 0.6333(4) 0.26973(12)
H2A H 1.1995 0.6863 0.2445
H3A H 1.2242 0.6434 0.2910
C10A C 1.14926(14) 0.6573(3) 0.29470(13)
H4A H 1.1501 0.7327 0.3068
H5A H 1.1209 0.6508 0.2735
C11A C 1.12770(11) 0.3787(3) 0.28933(10)
H6A H 1.1602 0.4028 0.3018
C12A C 1.12749(12) 0.2545(3) 0.29083(11)
H7A H 1.0986 0.2269 0.2736
H8A H 1.1246 0.2301 0.3229
C13A C 1.17398(14) 0.2064(3) 0.27058(13)
H9A H 1.1772 0.2331 0.2389
H10A H 1.2026 0.2333 0.2883
C14A C 1.17507(16) 0.0841(4) 0.27019(14)
H11A H 1.1613 0.0570 0.2991
H12A H 1.2096 0.0597 0.2690
C15A C 1.14690(18) 0.0329(4) 0.23072(16)
H13A H 1.1622 0.0545 0.2017
H14A H 1.1129 0.0607 0.2304
C16A C 1.1461(2) -0.0904(5) 0.2341(2)
H15A H 1.1802 -0.1173 0.2367
H16A H 1.1290 -0.1115 0.2624
C17A C 1.1214(3) -0.1447(5) 0.1943(2)
H17A H 1.1179 -0.2228 0.2005
H18A H 1.1411 -0.1345 0.1670
H19A H 1.0889 -0.1124 0.1893
C18A C 1.08887(12) 0.4333(3) 0.31812(10)
C19A C 1.09856(12) 0.5353(3) 0.33682(10)
C20A C 1.06386(12) 0.5906(3) 0.36334(11)
C21A C 1.01938(12) 0.5380(3) 0.37160(10)
C22A C 1.00816(12) 0.4363(3) 0.35379(10)
C23A C 1.04335(11) 0.3857(3) 0.32663(10)
H20A H 1.0360 0.3167 0.3135
C24A C 1.07250(13) 0.6981(3) 0.38101(12)
C25A C 1.07521(15) 0.7888(3) 0.39508(12)
C26A C 0.95330(13) 0.6635(3) 0.38044(12)
H21A H 0.9520 0.6520 0.3470
H22A H 0.9640 0.7393 0.3865
C27A C 0.90340(14) 0.6440(3) 0.40047(12)
H23A H 0.9049 0.6599 0.4336
H24A H 0.8796 0.6951 0.3863
C28A C 0.95955(12) 0.3831(3) 0.36505(10)
H25A H 0.9513 0.4077 0.3965
C29A C 0.96145(12) 0.2578(3) 0.36675(11)
H26A H 0.9614 0.2288 0.3353
H27A H 0.9923 0.2347 0.3820
C30A C 0.91814(15) 0.2102(4) 0.39230(16)
H28A H 0.9168 0.2442 0.4229
H29A H 0.8875 0.2295 0.3757
C31A C 0.92020(19) 0.0893(5) 0.3979(2)
H30A H 0.9533 0.0669 0.4085
H31A H 0.9132 0.0531 0.3683
C32A C 0.8801(2) 0.0548(5) 0.4346(3)
H32A H 0.8865 0.0946 0.4634
H33A H 0.8472 0.0763 0.4232
C33A C 0.8805(3) -0.0657(6) 0.4439(3)
H34A H 0.9135 -0.0863 0.4554
H35A H 0.8749 -0.1048 0.4147
C34A C 0.8431(5) -0.1038(9) 0.4776(4)
H36A H 0.8455 -0.0593 0.5052
H37A H 0.8493 -0.1804 0.4853
H38A H 0.8103 -0.0966 0.4641
N1 N 1.2534(2) 0.3632(6) 0.1516(3)
C38 C 1.2263(4) 0.2732(10) 0.1441(4)
H48 H 1.2077 0.2412 0.1678
C39 C 1.2265(4) 0.2339(10) 0.1056(6)
H49 H 1.2061 0.1717 0.1016
C40 C 1.2493(4) 0.2623(9) 0.0703(4)
H50 H 1.2462 0.2228 0.0425
C41 C 1.2779(4) 0.3504(10) 0.0736(4)
H51 H 1.2948 0.3776 0.0479
C42 C 1.2823(4) 0.4019(8) 0.1165(4)
H52 H 1.3043 0.4609 0.1212
N2 N 1.0000 0.0950(7) 0.2500
C43 C 0.9829(2) 0.0366(6) 0.21477(19)
H53 H 0.9708 0.0750 0.1888
C44 C 0.9814(2) -0.0755(6) 0.21357(19)
H54 H 0.9678 -0.1123 0.1879
C45 C 1.0000 -0.1339(9) 0.2500
H55 H 1.0000 -0.2113 0.2500
C43A C 1.0171(2) 0.0366(6) 0.28523(19)
H53A H 1.0292 0.0750 0.3112
C44A C 1.0186(2) -0.0755(6) 0.28643(19)
H54A H 1.0322 -0.1123 0.3121
N3 N 0.94175(14) 1.1557(3) 0.04893(11)
C46 C 0.97696(19) 1.1774(4) 0.01938(14)
H56 H 0.9954 1.1178 0.0081
C47 C 0.9883(2) 1.2787(5) 0.00420(17)
H57 H 1.0140 1.2897 -0.0169
C48 C 0.9616(2) 1.3647(5) 0.0204(2)
H58 H 0.9682 1.4368 0.0104
C49 C 0.9254(2) 1.3456(4) 0.05099(19)
H59 H 0.9068 1.4042 0.0630
C50 C 0.91620(17) 1.2398(4) 0.06417(14)
H60 H 0.8905 1.2267 0.0850
N4 N 0.69912(14) 0.9349(4) 0.44724(12)
C51 C 0.70244(16) 0.9065(4) 0.49073(15)
H61 H 0.7182 0.8396 0.4980
C52 C 0.68464(17) 0.9674(5) 0.52573(15)
H62 H 0.6891 0.9444 0.5564
C53 C 0.66056(19) 1.0610(5) 0.51594(18)
H63 H 0.6467 1.1031 0.5397
C54 C 0.65627(19) 1.0942(4) 0.4722(2)
H64 H 0.6396 1.1600 0.4649
C55 C 0.67654(19) 1.0309(5) 0.43791(17)
H65 H 0.6745 1.0557 0.4072
I3? I 0.7383(4) 0.7433(13) 0.3980(3)
H39? H 1.0654 0.0634 0.1310
H40? H 1.0541 0.0780 0.0785
C35? C 1.1167(5) 0.0072(10) 0.0917(4)
H41? H 1.1046 -0.0676 0.0972
H42? H 1.1474 0.0190 0.1094
C36? C 1.1235(5) 0.0291(15) 0.0416(6)
H43? H 1.1329 0.1063 0.0373
H44? H 1.0920 0.0170 0.0252
C37? C 1.1638(8) -0.046(2) 0.0204(6)
H45? H 1.1718 -0.0197 -0.0102
H46? H 1.1514 -0.1210 0.0183
H47? H 1.1933 -0.0446 0.0398
loop_
_geom_bond_atom_site_label_1
_geom_bond_atom_site_label_2
_geom_bond_site_symmetry_1
_geom_bond_site_symmetry_2
I1 C1 1_555 1_555
I2 C25 1_555 1_555
O1 C8 1_555 1_555
O2 C10 1_555 1_555
O3 C21 1_555 1_555
O4 C27 1_555 1_555
C1 C2 1_555 1_555
C2 C3 1_555 1_555
C3 C4 1_555 1_555
C4 C5 1_555 1_555
C5 C6 1_555 1_555
C6 H1 1_555 1_555
C7 C6 1_555 1_555
C8 C3 1_555 1_555
C9 O1 1_555 1_555
H2 C9 1_555 1_555
H3 C9 1_555 1_555
C10 C9 1_555 1_555
H4 C10 1_555 1_555
H5 C10 1_555 1_555
C11 C7 1_555 1_555
H6 C11 1_555 1_555
C12 C11 1_555 1_555
H7 C12 1_555 1_555
H8 C12 1_555 1_555
C13 C12 1_555 1_555
H9 C13 1_555 1_555
H10 C13 1_555 1_555
C14 C13 1_555 1_555
H11 C14 1_555 1_555
H12 C14 1_555 1_555
C15 C14 1_555 1_555
H13 C15 1_555 1_555
H14 C15 1_555 1_555
C16 C15 1_555 1_555
H15 C16 1_555 1_555
H16 C16 1_555 1_555
C17 C16 1_555 1_555
H17 C17 1_555 1_555
H18 C17 1_555 1_555
H19 C17 1_555 1_555
C18 C11 1_555 1_555
C19 O2 1_555 1_555
C20 C19 1_555 1_555
C21 C20 1_555 1_555
C22 C21 1_555 1_555
C23 C18 1_555 1_555
H20 C23 1_555 1_555
C24 C20 1_555 1_555
C25 C24 1_555 1_555
C26 O3 1_555 1_555
H21 C26 1_555 1_555
H22 C26 1_555 1_555
C27 C26 1_555 1_555
H23 C27 1_555 1_555
H24 C27 1_555 1_555
C28 C22 1_555 1_555
H25 C28 1_555 1_555
C29 C28 1_555 1_555
H26 C29 1_555 1_555
H27 C29 1_555 1_555
C30 C29 1_555 1_555
H28 C30 1_555 1_555
H29 C30 1_555 1_555
C31 C30 1_555 1_555
H30 C31 1_555 1_555
H31 C31 1_555 1_555
C32 C31 1_555 1_555
H32 C32 1_555 1_555
H33 C32 1_555 1_555
C33 C32 1_555 1_555
H34 C33 1_555 1_555
H35 C33 1_555 1_555
C34 C33 1_555 1_555
H36 C34 1_555 1_555
H37 C34 1_555 1_555
H38 C34 1_555 1_555
N1 C38 1_555 1_555
C38 H48 1_555 1_555
C39 C38 1_555 1_555
H49 C39 1_555 1_555
C40 C39 1_555 1_555
H50 C40 1_555 1_555
C41 C40 1_555 1_555
H51 C41 1_555 1_555
C42 N1 1_555 1_555
H52 C42 1_555 1_555
N2 C43 1_555 1_555
C43 H53 1_555 1_555
C44 C43 1_555 1_555
H54 C44 1_555 1_555
C45 C44 1_555 1_555
H55 C45 1_555 1_555
N3 C46 1_555 1_555
C46 H56 1_555 1_555
C47 C46 1_555 1_555
H57 C47 1_555 1_555
C48 C47 1_555 1_555
H58 C48 1_555 1_555
C49 C48 1_555 1_555
H59 C49 1_555 1_555
C50 N3 1_555 1_555
H60 C50 1_555 1_555
N4 C51 1_555 1_555
C51 H61 1_555 1_555
C52 C51 1_555 1_555
H62 C52 1_555 1_555
C53 C52 1_555 1_555
H63 C53 1_555 1_555
C54 C53 1_555 1_555
H64 C54 1_555 1_555
C55 N4 1_555 1_555
H65 C55 1_555 1_555
I1A C1A 1_555 1_555
I2A C25A 1_555 1_555
O1A C8A 1_555 1_555
O2A C10A 1_555 1_555
O3A C21A 1_555 1_555
O4A C4 1_555 1_555
C1A C2A 1_555 1_555
C2A C3A 1_555 1_555
C3A C4A 1_555 1_555
C4A O4 1_555 1_555
C5A C28 1_555 1_555
C6A C5A 1_555 1_555
H1A C6A 1_555 1_555
C7A C6A 1_555 1_555
C8A C3A 1_555 1_555
C9A O1A 1_555 1_555
H2A C9A 1_555 1_555
H3A C9A 1_555 1_555
C10A C9A 1_555 1_555
H4A C10A 1_555 1_555
H5A C10A 1_555 1_555
C11A C7A 1_555 1_555
H6A C11A 1_555 1_555
C12A C11A 1_555 1_555
H7A C12A 1_555 1_555
H8A C12A 1_555 1_555
C13A C12A 1_555 1_555
H9A C13A 1_555 1_555
H10A C13A 1_555 1_555
C14A C13A 1_555 1_555
H11A C14A 1_555 1_555
H12A C14A 1_555 1_555
C15A C14A 1_555 1_555
H13A C15A 1_555 1_555
H14A C15A 1_555 1_555
C16A C15A 1_555 1_555
H15A C16A 1_555 1_555
H16A C16A 1_555 1_555
C17A C16A 1_555 1_555
H17A C17A 1_555 1_555
H18A C17A 1_555 1_555
H19A C17A 1_555 1_555
C18A C11A 1_555 1_555
C19A O2A 1_555 1_555
C20A C19A 1_555 1_555
C21A C20A 1_555 1_555
C22A C21A 1_555 1_555
C23A C18A 1_555 1_555
H20A C23A 1_555 1_555
C24A C20A 1_555 1_555
C25A C24A 1_555 1_555
C26A O3A 1_555 1_555
H21A C26A 1_555 1_555
H22A C26A 1_555 1_555
C27A O4A 1_555 1_555
H23A C27A 1_555 1_555
H24A C27A 1_555 1_555
C28A C5 1_555 1_555
H25A C28A 1_555 1_555
C29A C28A 1_555 1_555
H26A C29A 1_555 1_555
H27A C29A 1_555 1_555
C30A C29A 1_555 1_555
H28A C30A 1_555 1_555
H29A C30A 1_555 1_555
C31A C30A 1_555 1_555
H30A C31A 1_555 1_555
H31A C31A 1_555 1_555
C32A C31A 1_555 1_555
H32A C32A 1_555 1_555
H33A C32A 1_555 1_555
C33A C32A 1_555 1_555
H34A C33A 1_555 1_555
H35A C33A 1_555 1_555
C34A C33A 1_555 1_555
H36A C34A 1_555 1_555
H37A C34A 1_555 1_555
H38A C34A 1_555 1_555
C43A N2 1_555 1_555
H53A C43A 1_555 1_555
C44A C45 1_555 1_555
H54A C44A 1_555 1_555
C7 C8 1_555 1_555
C18 C19 1_555 1_555
C22 C23 1_555 1_555
C41 C42 1_555 1_555
C49 C50 1_555 1_555
C54 C55 1_555 1_555
C4A C5A 1_555 1_555
C7A C8A 1_555 1_555
C18A C19A 1_555 1_555
C22A C23A 1_555 1_555
C22A C28A 1_555 1_555
C26A C27A 1_555 1_555
C43A C44A 1_555 1_555

#END
