
#######################################################################
#
#                 Cambridge Crystallographic Data Centre
#                                CCDC 
#
#######################################################################
#
# If this CIF has been generated from an entry in the Cambridge 
# Structural Database, then it will include bibliographic, chemical, 
# crystal, experimental, refinement or atomic coordinate data resulting 
# from the CCDC's data processing and validation procedures.
#
#######################################################################

data_FORKAA
_chemical_formula_moiety         'C34 H36 F2 N2'
_chemical_name_systematic        
4,4'-(2,2-bis(4-Fluorophenyl)ethene-1,1-diyl)bis(N,N-diethylaniline)
_symmetry_cell_setting           triclinic
_symmetry_space_group_name_H-M   'P -1'
_symmetry_Int_Tables_number      2
_space_group_name_Hall           '-P 1'
loop_
_symmetry_equiv_pos_site_id
_symmetry_equiv_pos_as_xyz
1 x,y,z
2 -x,-y,-z
_cell_length_a                   9.6825(4)
_cell_length_b                   10.7418(5)
_cell_length_c                   14.3568(7)
_cell_angle_alpha                73.476(4)
_cell_angle_beta                 76.694(4)
_cell_angle_gamma                88.074(4)
_cell_volume                     1392.3
_exptl_crystal_colour            yellow
_exptl_crystal_description       bar
_cell_formula_units_Z            2
loop_
_atom_site_label
_atom_site_type_symbol
_atom_site_fract_x
_atom_site_fract_y
_atom_site_fract_z
F1 F 0.97561(10) 0.32837(10) 0.73181(6)
F2 F 0.75631(12) 0.52791(10) 0.10118(6)
N1 N 0.32147(13) -0.13597(12) 0.95135(8)
N2 N 0.06387(12) 0.22061(11) 0.30570(8)
C1 C 0.45586(13) 0.20531(11) 0.55276(8)
C2 C 0.58140(13) 0.27390(11) 0.51172(9)
C3 C 0.42081(13) 0.11801(11) 0.65676(9)
C4 C 0.51951(13) 0.03352(12) 0.69596(9)
H1 H 0.6117 0.0329 0.6550
C5 C 0.48845(13) -0.04920(12) 0.79190(9)
H2 H 0.5592 -0.1049 0.8150
C6 C 0.35363(14) -0.05238(12) 0.85614(9)
C7 C 0.25329(13) 0.03242(12) 0.81668(9)
H3 H 0.1612 0.0339 0.8575
C8 C 0.28622(13) 0.11357(12) 0.71982(9)
H4 H 0.2152 0.1679 0.6955
C9 C 0.18526(17) -0.13382(15) 1.01966(10)
H5 H 0.1539 -0.0431 1.0077
H6 H 0.1977 -0.1639 1.0890
C10 C 0.07015(19) -0.21794(19) 1.00910(14)
H7 H -0.0184 -0.2125 1.0571
H8 H 0.0994 -0.3083 1.0223
H9 H 0.0552 -0.1873 0.9411
C11 C 0.42031(17) -0.23318(14) 0.98848(10)
H10 H 0.4747 -0.2639 0.9323
H11 H 0.3651 -0.3086 1.0386
C12 C 0.52414(19) -0.18360(17) 1.03560(13)
H12 H 0.5843 -0.2544 1.0610
H13 H 0.4714 -0.1519 1.0908
H14 H 0.5837 -0.1125 0.9854
C13 C 0.34598(12) 0.21026(12) 0.49425(8)
C14 C 0.27675(13) 0.09726(12) 0.49594(8)
H15 H 0.2936 0.0169 0.5403
C15 C 0.18388(12) 0.09886(12) 0.43466(9)
H16 H 0.1399 0.0197 0.4375
C16 C 0.15398(12) 0.21539(12) 0.36871(8)
C17 C 0.21768(13) 0.33043(12) 0.37148(9)
H17 H 0.1964 0.4118 0.3306
C18 C 0.31033(13) 0.32684(12) 0.43247(9)
H18 H 0.3510 0.4061 0.4324
C19 C 0.00357(14) 0.10209(14) 0.29830(10)
H19 H -0.0836 0.1239 0.2728
H20 H -0.0247 0.0410 0.3661
C20 C 0.10218(16) 0.03351(14) 0.23129(11)
H21 H 0.0519 -0.0422 0.2279
H22 H 0.1856 0.0051 0.2586
H23 H 0.1326 0.0935 0.1641
C21 C 0.05585(19) 0.33990(15) 0.22761(12)
H24 H 0.0355 0.4121 0.2584
H25 H -0.0249 0.3306 0.1982
C22 C 0.1896(3) 0.37634(19) 0.14385(12)
H26 H 0.1783 0.4608 0.0976
H27 H 0.2051 0.3101 0.1079
H28 H 0.2714 0.3815 0.1723
C23 C 0.68547(13) 0.28775(11) 0.57075(8)
C24 C 0.64143(13) 0.31542(11) 0.66256(9)
H29 H 0.5433 0.3246 0.6883
C25 C 0.73886(15) 0.32953(12) 0.71637(9)
H30 H 0.7084 0.3485 0.7785
C26 C 0.87987(14) 0.31553(13) 0.67832(10)
C27 C 0.92952(14) 0.28971(14) 0.58799(10)
H31 H 1.0280 0.2810 0.5631
C28 C 0.83045(14) 0.27687(13) 0.53444(9)
H32 H 0.8625 0.2603 0.4715
C29 C 0.62774(12) 0.34091(12) 0.40237(9)
C30 C 0.67810(13) 0.47016(12) 0.36835(9)
H33 H 0.6834 0.5152 0.4157
C31 C 0.72050(15) 0.53443(13) 0.26743(10)
H34 H 0.7535 0.6226 0.2452
C32 C 0.71326(15) 0.46646(14) 0.20028(9)
C33 C 0.66782(15) 0.33805(14) 0.22993(10)
H35 H 0.6659 0.2932 0.1819
C34 C 0.62488(14) 0.27551(12) 0.33116(9)
H36 H 0.5931 0.1870 0.3525
loop_
_geom_bond_atom_site_label_1
_geom_bond_atom_site_label_2
_geom_bond_site_symmetry_1
_geom_bond_site_symmetry_2
F1 C26 1_555 1_555
F2 C32 1_555 1_555
N1 C6 1_555 1_555
N2 C16 1_555 1_555
C1 C2 1_555 1_555
C2 C23 1_555 1_555
C3 C1 1_555 1_555
C4 C3 1_555 1_555
H1 C4 1_555 1_555
C5 C4 1_555 1_555
H2 C5 1_555 1_555
C6 C5 1_555 1_555
C7 C6 1_555 1_555
H3 C7 1_555 1_555
C8 C3 1_555 1_555
H4 C8 1_555 1_555
C9 N1 1_555 1_555
H5 C9 1_555 1_555
H6 C9 1_555 1_555
C10 C9 1_555 1_555
H7 C10 1_555 1_555
H8 C10 1_555 1_555
H9 C10 1_555 1_555
C11 N1 1_555 1_555
H10 C11 1_555 1_555
H11 C11 1_555 1_555
C12 C11 1_555 1_555
H12 C12 1_555 1_555
H13 C12 1_555 1_555
H14 C12 1_555 1_555
C13 C1 1_555 1_555
C14 C13 1_555 1_555
H15 C14 1_555 1_555
C15 C14 1_555 1_555
H16 C15 1_555 1_555
C16 C15 1_555 1_555
C17 C16 1_555 1_555
H17 C17 1_555 1_555
C18 C13 1_555 1_555
H18 C18 1_555 1_555
C19 N2 1_555 1_555
H19 C19 1_555 1_555
H20 C19 1_555 1_555
C20 C19 1_555 1_555
H21 C20 1_555 1_555
H22 C20 1_555 1_555
H23 C20 1_555 1_555
C21 N2 1_555 1_555
H24 C21 1_555 1_555
H25 C21 1_555 1_555
C22 C21 1_555 1_555
H26 C22 1_555 1_555
H27 C22 1_555 1_555
H28 C22 1_555 1_555
C23 C24 1_555 1_555
C24 H29 1_555 1_555
C25 C24 1_555 1_555
H30 C25 1_555 1_555
C26 C25 1_555 1_555
C27 C26 1_555 1_555
H31 C27 1_555 1_555
C28 C23 1_555 1_555
H32 C28 1_555 1_555
C29 C2 1_555 1_555
C30 C29 1_555 1_555
H33 C30 1_555 1_555
C31 C30 1_555 1_555
H34 C31 1_555 1_555
C32 C31 1_555 1_555
C33 C32 1_555 1_555
H35 C33 1_555 1_555
C34 C29 1_555 1_555
H36 C34 1_555 1_555
C7 C8 1_555 1_555
C17 C18 1_555 1_555
C27 C28 1_555 1_555
C33 C34 1_555 1_555

#END
