
#######################################################################
#
#                 Cambridge Crystallographic Data Centre
#                                CCDC 
#
#######################################################################
#
# If this CIF has been generated from an entry in the Cambridge 
# Structural Database, then it will include bibliographic, chemical, 
# crystal, experimental, refinement or atomic coordinate data resulting 
# from the CCDC's data processing and validation procedures.
#
#######################################################################

data_FORNEG01
_chemical_formula_moiety         'C25 H29 N3'
_chemical_name_systematic        1,2,3-tris(2,6-dimethylphenyl)guanidine
_symmetry_cell_setting           monoclinic
_symmetry_space_group_name_H-M   'C 2/c'
_symmetry_Int_Tables_number      15
_space_group_name_Hall           '-C 2yn'
loop_
_symmetry_equiv_pos_site_id
_symmetry_equiv_pos_as_xyz
1 x,y,z
2 -x,y,1/2-z
3 1/2+x,1/2+y,z
4 1/2-x,1/2+y,1/2-z
5 -x,-y,-z
6 x,-y,1/2+z
7 1/2-x,1/2-y,-z
8 1/2+x,1/2-y,1/2+z
_cell_length_a                   23.205(4)
_cell_length_b                   13.068(3)
_cell_length_c                   17.099(3)
_cell_angle_alpha                90
_cell_angle_beta                 122.639(4)
_cell_angle_gamma                90
_cell_volume                     4366.34
_exptl_crystal_colour            colorless
_exptl_crystal_description       rectangular
_cell_formula_units_Z            8
loop_
_atom_site_label
_atom_site_type_symbol
_atom_site_fract_x
_atom_site_fract_y
_atom_site_fract_z
C1 C 0.19861(6) 0.53738(9) 0.10976(9)
C2 C 0.09113(6) 0.46735(10) 0.08342(10)
C3 C 0.07191(7) 0.37298(11) 0.03844(12)
C4 C 0.03110(8) 0.30962(14) 0.05450(15)
H1 H 0.0179 0.2459 0.0259
C5 C 0.01016(8) 0.34019(18) 0.11197(15)
H2 H -0.0173 0.2973 0.1217
C6 C 0.02923(8) 0.43267(18) 0.15474(13)
H3 H 0.0146 0.4521 0.1936
C7 C 0.07038(7) 0.49922(14) 0.14168(11)
C8 C 0.09184(10) 0.60076(17) 0.18982(13)
H4 H 0.0727 0.6094 0.2271
H5 H 0.0757 0.6544 0.1444
H6 H 0.1409 0.6035 0.2288
C9 C 0.09395(9) 0.34055(14) -0.02504(15)
H7 H 0.0791 0.3903 -0.0736
H8 H 0.0740 0.2753 -0.0518
H9 H 0.1429 0.3352 0.0093
C10 C 0.18535(6) 0.68261(9) 0.00685(9)
C11 C 0.16500(7) 0.77467(11) 0.02620(11)
C12 C 0.12951(9) 0.84427(13) -0.04576(15)
H10 H 0.1154 0.9059 -0.0342
C13 C 0.11495(8) 0.82450(15) -0.13233(15)
H11 H 0.0913 0.8726 -0.1793
C14 C 0.13480(8) 0.73418(15) -0.15104(12)
H12 H 0.1246 0.7215 -0.2107
C15 C 0.17029(7) 0.66034(12) -0.08151(10)
C16 C 0.18150(11) 0.79897(14) 0.12139(14)
H13 H 0.1565 0.8587 0.1190
H14 H 0.2297 0.8117 0.1616
H15 H 0.1690 0.7422 0.1448
C17 C 0.19108(10) 0.56037(14) -0.10168(13)
H16 H 0.2385 0.5478 -0.0561
H17 H 0.1842 0.5628 -0.1623
H18 H 0.1639 0.5064 -0.0996
C18 C 0.30676(6) 0.47431(10) 0.22090(10)
C19 C 0.34623(7) 0.53563(11) 0.29866(11)
C20 C 0.41707(8) 0.52674(13) 0.34801(13)
H19 H 0.4436 0.5673 0.4003
C21 C 0.44873(9) 0.45926(15) 0.32118(15)
H20 H 0.4962 0.4545 0.3545
C22 C 0.40947(8) 0.39960(14) 0.24515(14)
H21 H 0.4308 0.3538 0.2271
C23 C 0.33878(7) 0.40498(12) 0.19391(12)
C24 C 0.29722(10) 0.33565(17) 0.11217(15)
H22 H 0.3269 0.2873 0.1086
H23 H 0.2739 0.3756 0.0562
H24 H 0.2643 0.2997 0.1193
C25 C 0.31284(9) 0.60793(15) 0.33114(13)
H25 H 0.2965 0.6671 0.2917
H26 H 0.3456 0.6286 0.3939
H27 H 0.2751 0.5742 0.3286
N1 N 0.12903(5) 0.53706(8) 0.06335(8)
H28 H 0.1067 0.5811 0.0197
N2 N 0.22460(5) 0.61118(8) 0.08032(7)
H29 H 0.2684 0.6149 0.1085
N3 N 0.23453(5) 0.47281(8) 0.17443(8)
loop_
_geom_bond_atom_site_label_1
_geom_bond_atom_site_label_2
_geom_bond_site_symmetry_1
_geom_bond_site_symmetry_2
C1 N1 1_555 1_555
C2 C3 1_555 1_555
C3 C4 1_555 1_555
C4 H1 1_555 1_555
C5 C4 1_555 1_555
H2 C5 1_555 1_555
C6 C5 1_555 1_555
H3 C6 1_555 1_555
C7 C2 1_555 1_555
C8 C7 1_555 1_555
H4 C8 1_555 1_555
H5 C8 1_555 1_555
H6 C8 1_555 1_555
C9 C3 1_555 1_555
H7 C9 1_555 1_555
H8 C9 1_555 1_555
H9 C9 1_555 1_555
C10 C11 1_555 1_555
C11 C12 1_555 1_555
C12 H10 1_555 1_555
C13 C12 1_555 1_555
H11 C13 1_555 1_555
C14 C13 1_555 1_555
H12 C14 1_555 1_555
C15 C10 1_555 1_555
C16 C11 1_555 1_555
H13 C16 1_555 1_555
H14 C16 1_555 1_555
H15 C16 1_555 1_555
C17 C15 1_555 1_555
H16 C17 1_555 1_555
H17 C17 1_555 1_555
H18 C17 1_555 1_555
C18 C19 1_555 1_555
C19 C20 1_555 1_555
C20 H19 1_555 1_555
C21 C20 1_555 1_555
H20 C21 1_555 1_555
C22 C21 1_555 1_555
H21 C22 1_555 1_555
C23 C18 1_555 1_555
C24 C23 1_555 1_555
H22 C24 1_555 1_555
H23 C24 1_555 1_555
H24 C24 1_555 1_555
C25 C19 1_555 1_555
H25 C25 1_555 1_555
H26 C25 1_555 1_555
H27 C25 1_555 1_555
N1 C2 1_555 1_555
H28 N1 1_555 1_555
N2 C1 1_555 1_555
H29 N2 1_555 1_555
N3 C1 1_555 1_555
C6 C7 1_555 1_555
C10 N2 1_555 1_555
C14 C15 1_555 1_555
C18 N3 1_555 1_555
C22 C23 1_555 1_555

#END
