
#######################################################################
#
#                 Cambridge Crystallographic Data Centre
#                                CCDC 
#
#######################################################################
#
# If this CIF has been generated from an entry in the Cambridge 
# Structural Database, then it will include bibliographic, chemical, 
# crystal, experimental, refinement or atomic coordinate data resulting 
# from the CCDC's data processing and validation procedures.
#
#######################################################################

data_FORNEG
_chemical_formula_moiety         'C25 H29 N3'
_chemical_name_systematic        N,N',N''-tris(2,6-Dimethylphenyl)guanidine
_symmetry_cell_setting           monoclinic
_symmetry_space_group_name_H-M   'C 2/c'
_symmetry_Int_Tables_number      15
_space_group_name_Hall           '-C 2yn'
loop_
_symmetry_equiv_pos_site_id
_symmetry_equiv_pos_as_xyz
1 x,y,z
2 -x,y,1/2-z
3 1/2+x,1/2+y,z
4 1/2-x,1/2+y,1/2-z
5 -x,-y,-z
6 x,-y,1/2+z
7 1/2-x,1/2-y,-z
8 1/2+x,1/2-y,1/2+z
_cell_length_a                   23.2291(15)
_cell_length_b                   13.0532(9)
_cell_length_c                   17.1124(12)
_cell_angle_alpha                90
_cell_angle_beta                 122.6700(10)
_cell_angle_gamma                90
_cell_volume                     4367.83
_exptl_crystal_colour            yellow
_exptl_crystal_description       block
_cell_formula_units_Z            8
loop_
_atom_site_label
_atom_site_type_symbol
_atom_site_fract_x
_atom_site_fract_y
_atom_site_fract_z
N1 N 0.23447(10) 1.02759(18) 0.17449(15)
N2 N 0.12925(11) 0.96361(19) 0.06368(17)
H1 H 0.1086(11) 0.9226(18) 0.0243(15)
N3 N 0.22447(12) 0.88930(17) 0.08021(15)
H2 H 0.2665(14) 0.888(2) 0.1059(18)
C1 C 0.19905(11) 0.9631(2) 0.11013(17)
C2 C 0.30694(12) 1.0262(2) 0.22101(18)
C3 C 0.33889(14) 1.0952(2) 0.1938(2)
C4 C 0.40971(16) 1.1018(3) 0.2451(3)
H3 H 0.4312 1.1485 0.2270
C5 C 0.44870(16) 1.0415(3) 0.3213(3)
H4 H 0.4966 1.0464 0.3552
C6 C 0.41729(15) 0.9736(3) 0.3481(2)
H5 H 0.4442 0.9324 0.4007
C7 C 0.34634(14) 0.9650(2) 0.2988(2)
C8 C 0.29703(16) 1.1651(3) 0.1119(2)
H6 H 0.3272 1.2108 0.1056
H7 H 0.2661 1.2049 0.1213
H8 H 0.2709 1.1243 0.0559
C9 C 0.31329(16) 0.8921(3) 0.3308(2)
H9 H 0.2751 0.9258 0.3284
H10 H 0.3465 0.8711 0.3941
H11 H 0.2970 0.8324 0.2908
C10 C 0.09097(11) 1.0328(2) 0.08312(18)
C11 C 0.07027(13) 1.0010(3) 0.1416(2)
C12 C 0.02949(16) 1.0665(4) 0.1552(2)
H12 H 0.0152 1.0467 0.1950
C13 C 0.00978(16) 1.1595(4) 0.1119(3)
H13 H -0.0183 1.2026 0.1215
C14 C 0.03073(15) 1.1901(3) 0.0545(3)
H14 H 0.0173 1.2546 0.0256
C15 C 0.07146(13) 1.1272(2) 0.0385(2)
C16 C 0.09142(17) 0.8991(3) 0.1892(2)
H15 H 0.0747 0.8922 0.2301
H16 H 0.1409 0.8941 0.2253
H17 H 0.0723 0.8449 0.1432
C17 C 0.09331(16) 1.1603(3) -0.0256(3)
H18 H 0.0704 1.2237 -0.0560
H19 H 0.0813 1.1077 -0.0721
H20 H 0.1424 1.1708 0.0097
C18 C 0.18549(12) 0.8171(2) 0.00692(18)
C19 C 0.16530(14) 0.7257(2) 0.0258(2)
C20 C 0.12966(16) 0.6562(3) -0.0459(3)
H21 H 0.1153 0.5940 -0.0341
C21 C 0.11489(15) 0.6756(3) -0.1327(3)
H22 H 0.0909 0.6269 -0.1799
C22 C 0.13490(16) 0.7664(3) -0.1518(2)
H23 H 0.1247 0.7793 -0.2120
C23 C 0.17039(13) 0.8396(3) -0.0818(2)
C24 C 0.18175(19) 0.7007(3) 0.1215(2)
H24 H 0.2306 0.6894 0.1627
H25 H 0.1573 0.6392 0.1191
H26 H 0.1680 0.7572 0.1447
C25 C 0.19109(18) 0.9400(3) -0.1021(2)
H27 H 0.1644 0.9948 -0.0983
H28 H 0.1829 0.9383 -0.1640
H29 H 0.2393 0.9520 -0.0570
loop_
_geom_bond_atom_site_label_1
_geom_bond_atom_site_label_2
_geom_bond_site_symmetry_1
_geom_bond_site_symmetry_2
N1 C1 1_555 1_555
N2 H1 1_555 1_555
N3 H2 1_555 1_555
C1 N2 1_555 1_555
C2 N1 1_555 1_555
C3 C2 1_555 1_555
C4 C3 1_555 1_555
H3 C4 1_555 1_555
C5 C4 1_555 1_555
H4 C5 1_555 1_555
C6 C5 1_555 1_555
H5 C6 1_555 1_555
C7 C2 1_555 1_555
C8 C3 1_555 1_555
H6 C8 1_555 1_555
H7 C8 1_555 1_555
H8 C8 1_555 1_555
C9 C7 1_555 1_555
H9 C9 1_555 1_555
H10 C9 1_555 1_555
H11 C9 1_555 1_555
C10 N2 1_555 1_555
C11 C10 1_555 1_555
C12 C11 1_555 1_555
H12 C12 1_555 1_555
C13 C12 1_555 1_555
H13 C13 1_555 1_555
C14 C13 1_555 1_555
H14 C14 1_555 1_555
C15 C10 1_555 1_555
C16 C11 1_555 1_555
H15 C16 1_555 1_555
H16 C16 1_555 1_555
H17 C16 1_555 1_555
C17 C15 1_555 1_555
H18 C17 1_555 1_555
H19 C17 1_555 1_555
H20 C17 1_555 1_555
C18 N3 1_555 1_555
C19 C18 1_555 1_555
C20 C19 1_555 1_555
H21 C20 1_555 1_555
C21 C20 1_555 1_555
H22 C21 1_555 1_555
C22 C21 1_555 1_555
H23 C22 1_555 1_555
C23 C18 1_555 1_555
C24 C19 1_555 1_555
H24 C24 1_555 1_555
H25 C24 1_555 1_555
H26 C24 1_555 1_555
C25 C23 1_555 1_555
H27 C25 1_555 1_555
H28 C25 1_555 1_555
H29 C25 1_555 1_555
N3 C1 1_555 1_555
C6 C7 1_555 1_555
C14 C15 1_555 1_555
C22 C23 1_555 1_555

#END
