
#######################################################################
#
#                 Cambridge Crystallographic Data Centre
#                                CCDC 
#
#######################################################################
#
# If this CIF has been generated from an entry in the Cambridge 
# Structural Database, then it will include bibliographic, chemical, 
# crystal, experimental, refinement or atomic coordinate data resulting 
# from the CCDC's data processing and validation procedures.
#
#######################################################################

data_FORSAI
_chemical_name_common            2,6-dinitro-4-nitro-NNO-azoxytoluene
_chemical_formula_moiety         'C7 H5 N5 O7'
_chemical_name_systematic        
1-hydroxy-1-(4-methyl-3,5-dinitrophenyl)-2-nitro-1\l^5^-diazene
_symmetry_cell_setting           monoclinic
_symmetry_space_group_name_H-M   'P 21/n'
_symmetry_Int_Tables_number      14
_space_group_name_Hall           '-P 2yn'
loop_
_symmetry_equiv_pos_site_id
_symmetry_equiv_pos_as_xyz
1 x,y,z
2 1/2-x,1/2+y,1/2-z
3 -x,-y,-z
4 1/2+x,1/2-y,1/2+z
_cell_length_a                   5.2932(15)
_cell_length_b                   29.236(8)
_cell_length_c                   6.907(2)
_cell_angle_alpha                90
_cell_angle_beta                 98.746(4)
_cell_angle_gamma                90
_cell_volume                     1056.44
_exptl_crystal_colour            yellow
_exptl_crystal_description       Chunk
_chemical_melting_point          '387 K'
_cell_formula_units_Z            4
_exptl_crystal_recrystallization_method 
'Re-crystallisation from solvent: hexane/ethyl acetate'
loop_
_atom_site_label
_atom_site_type_symbol
_atom_site_fract_x
_atom_site_fract_y
_atom_site_fract_z
O1 O 0.6341(2) 0.20138(4) 0.87635(16)
O2 O 0.1788(3) 0.22976(5) 1.0367(2)
O3 O 0.2629(3) 0.28255(5) 0.8325(2)
O4 O -0.0255(2) 0.12616(4) 0.11769(17)
O5 O 0.2935(3) 0.11005(4) -0.03384(16)
O6 O 1.0685(2) 0.04864(4) 0.49207(19)
O7 O 0.9078(3) 0.03894(4) 0.76041(18)
N1 N 0.4508(2) 0.19138(4) 0.74950(17)
N2 N 0.2274(3) 0.20884(5) 0.7279(2)
N3 N 0.2268(3) 0.24351(5) 0.8811(2)
N4 N 0.2010(3) 0.11795(4) 0.11500(18)
N5 N 0.9090(3) 0.05637(4) 0.59936(19)
C1 C 0.4835(3) 0.15552(5) 0.6081(2)
C2 C 0.3267(3) 0.15368(5) 0.4293(2)
H1 H 0.1936 0.1753 0.3942
C3 C 0.3725(3) 0.11888(5) 0.3036(2)
C4 C 0.5583(3) 0.08479(5) 0.3463(2)
C5 C 0.7055(3) 0.08976(5) 0.5317(2)
C6 C 0.6748(3) 0.12394(5) 0.6632(2)
H2 H 0.7810 0.1257 0.7869
C7 C 0.5818(3) 0.04433(5) 0.2151(2)
H3 H 0.6870 0.0527 0.1155
H4 H 0.4115 0.0351 0.1509
H5 H 0.6623 0.0188 0.2935
loop_
_geom_bond_atom_site_label_1
_geom_bond_atom_site_label_2
_geom_bond_site_symmetry_1
_geom_bond_site_symmetry_2
O1 N1 1_555 1_555
O2 N3 1_555 1_555
O3 N3 1_555 1_555
O4 N4 1_555 1_555
O5 N4 1_555 1_555
O6 N5 1_555 1_555
O7 N5 1_555 1_555
N1 N2 1_555 1_555
N2 N3 1_555 1_555
N4 C3 1_555 1_555
N5 C5 1_555 1_555
C1 N1 1_555 1_555
C2 C1 1_555 1_555
H1 C2 1_555 1_555
C3 C2 1_555 1_555
C4 C3 1_555 1_555
C5 C4 1_555 1_555
C6 C1 1_555 1_555
H2 C6 1_555 1_555
C7 C4 1_555 1_555
H3 C7 1_555 1_555
H4 C7 1_555 1_555
H5 C7 1_555 1_555
C5 C6 1_555 1_555

#END
