
#######################################################################
#
#                 Cambridge Crystallographic Data Centre
#                                CCDC 
#
#######################################################################
#
# If this CIF has been generated from an entry in the Cambridge 
# Structural Database, then it will include bibliographic, chemical, 
# crystal, experimental, refinement or atomic coordinate data resulting 
# from the CCDC's data processing and validation procedures.
#
#######################################################################

data_FORVEP
_chemical_formula_moiety         'C39 H26 Cl2 N2 O1'
_chemical_name_systematic        
4,5-dichloro-2-(4-methyl-5,6,7,8-tetraphenyl-1-naphthyl)pyridazin-3(2H)-one
_symmetry_cell_setting           orthorhombic
_symmetry_space_group_name_H-M   'P 21 21 21'
_symmetry_Int_Tables_number      19
_space_group_name_Hall           'P 2ac 2ab'
loop_
_symmetry_equiv_pos_site_id
_symmetry_equiv_pos_as_xyz
1 x,y,z
2 1/2+x,1/2-y,-z
3 -x,1/2+y,1/2-z
4 1/2-x,-y,1/2+z
_cell_length_a                   7.1928(3)
_cell_length_b                   13.3215(6)
_cell_length_c                   32.7007(16)
_cell_angle_alpha                90
_cell_angle_beta                 90
_cell_angle_gamma                90
_cell_volume                     3133.34
_cell_formula_units_Z            4
loop_
_atom_site_label
_atom_site_type_symbol
_atom_site_fract_x
_atom_site_fract_y
_atom_site_fract_z
Cl1 Cl -0.15248(13) 0.35116(6) 0.12769(3)
Cl2 Cl 0.28444(12) 0.37893(5) 0.11223(2)
N1 N 0.0663(2) 0.63808(13) 0.08118(5)
O1 O 0.3625(2) 0.57930(12) 0.07789(5)
C1 C -0.0590(4) 0.46010(18) 0.10855(7)
C2 C 0.1252(3) 0.47089(17) 0.10256(7)
C3 C 0.2002(3) 0.56467(15) 0.08619(6)
C4 C 0.1196(3) 0.73560(15) 0.06475(6)
C5 C 0.2331(3) 0.80482(14) 0.08664(6)
C6 C 0.2914(3) 0.89413(14) 0.06499(6)
C7 C 0.4316(3) 0.95497(15) 0.08338(6)
C8 C 0.4903(3) 0.93796(15) 0.12302(6)
C9 C 0.6491(3) 0.99722(15) 0.14062(6)
C10 C 0.8272(3) 0.98002(18) 0.12608(7)
H1 H 0.8459 0.9328 0.1055
C11 C 0.9773(4) 1.0320(2) 0.14168(9)
H2 H 1.0961 1.0198 0.1316
C12 C 0.9515(4) 1.1018(2) 0.17205(10)
H3 H 1.0527 1.1366 0.1827
N2 N -0.1197(2) 0.62692(16) 0.08610(6)
C13 C -0.1784(3) 0.5401(2) 0.09908(7)
H4 H -0.3057 0.5307 0.1022
C14 C 0.0514(3) 0.75636(18) 0.02699(7)
H5 H -0.0201 0.7090 0.0133
C15 C 0.0887(3) 0.84906(18) 0.00881(7)
H6 H 0.0330 0.8643 -0.0161
C16 C 0.2039(3) 0.91779(16) 0.02630(6)
C17 C 0.2863(3) 0.79332(14) 0.12883(6)
C18 C 0.4047(3) 0.86169(15) 0.14686(6)
C19 C 0.5291(3) 1.03643(15) 0.05975(6)
C20 C 0.6494(3) 1.01242(17) 0.02846(6)
H7 H 0.6713 0.9454 0.0221
C21 C 0.7378(3) 1.0873(2) 0.00652(8)
H8 H 0.8170 1.0702 -0.0148
C22 C 0.7094(4) 1.1869(2) 0.01606(9)
H9 H 0.7687 1.2371 0.0012
C23 C 0.5920(4) 1.21129(19) 0.04788(8)
H10 H 0.5734 1.2783 0.0547
C24 C 0.5021(3) 1.13731(16) 0.06957(7)
H11 H 0.4229 1.1546 0.0909
C25 C 0.7758(5) 1.11999(19) 0.18673(8)
H12 H 0.7582 1.1676 0.2072
C26 C 0.6242(4) 1.06777(18) 0.17128(7)
H13 H 0.5058 1.0801 0.1815
C27 C 0.4405(3) 0.85667(15) 0.19210(6)
C28 C 0.6092(4) 0.8294(2) 0.20800(8)
H14 H 0.7087 0.8169 0.1906
C29 C 0.6328(5) 0.8202(2) 0.25014(9)
H15 H 0.7471 0.8002 0.2607
C30 C 0.4895(6) 0.8403(2) 0.27588(8)
H16 H 0.5054 0.8335 0.3040
C31 C 0.3226(5) 0.8705(2) 0.26059(8)
H17 H 0.2254 0.8856 0.2783
C32 C 0.2972(4) 0.87856(17) 0.21911(7)
H18 H 0.1824 0.8990 0.2090
C33 C 0.2145(3) 0.71057(15) 0.15549(6)
C34 C 0.3387(4) 0.64130(17) 0.17202(8)
H19 H 0.4633 0.6428 0.1644
C35 C 0.2763(6) 0.5698(2) 0.19989(9)
H20 H 0.3594 0.5240 0.2112
C36 C 0.0899(6) 0.5668(2) 0.21077(9)
H21 H 0.0481 0.5190 0.2294
C37 C -0.0310(5) 0.6333(2) 0.19437(9)
H22 H -0.1560 0.6307 0.2015
C38 C 0.0302(4) 0.70538(19) 0.16699(7)
H23 H -0.0543 0.7510 0.1562
C39 C 0.2195(4) 1.01825(18) 0.00495(7)
H24 H 0.3430 1.0261 -0.0057
H25 H 0.1942 1.0711 0.0241
H26 H 0.1313 1.0212 -0.0171
loop_
_geom_bond_atom_site_label_1
_geom_bond_atom_site_label_2
_geom_bond_site_symmetry_1
_geom_bond_site_symmetry_2
Cl1 C1 1_555 1_555
Cl2 C2 1_555 1_555
N1 C3 1_555 1_555
O1 C3 1_555 1_555
C1 C2 1_555 1_555
C2 C3 1_555 1_555
C4 N1 1_555 1_555
C5 C4 1_555 1_555
C6 C5 1_555 1_555
C7 C6 1_555 1_555
C8 C7 1_555 1_555
C9 C8 1_555 1_555
C10 C9 1_555 1_555
H1 C10 1_555 1_555
C11 C10 1_555 1_555
H2 C11 1_555 1_555
C12 C11 1_555 1_555
H3 C12 1_555 1_555
N2 N1 1_555 1_555
C13 C1 1_555 1_555
H4 C13 1_555 1_555
C14 C4 1_555 1_555
H5 C14 1_555 1_555
C15 C14 1_555 1_555
H6 C15 1_555 1_555
C16 C6 1_555 1_555
C17 C5 1_555 1_555
C18 C8 1_555 1_555
C19 C7 1_555 1_555
C20 C19 1_555 1_555
H7 C20 1_555 1_555
C21 C20 1_555 1_555
H8 C21 1_555 1_555
C22 C21 1_555 1_555
H9 C22 1_555 1_555
C23 C22 1_555 1_555
H10 C23 1_555 1_555
C24 C19 1_555 1_555
H11 C24 1_555 1_555
C25 C12 1_555 1_555
H12 C25 1_555 1_555
C26 C9 1_555 1_555
H13 C26 1_555 1_555
C27 C18 1_555 1_555
C28 C27 1_555 1_555
H14 C28 1_555 1_555
C29 C28 1_555 1_555
H15 C29 1_555 1_555
C30 C29 1_555 1_555
H16 C30 1_555 1_555
C31 C30 1_555 1_555
H17 C31 1_555 1_555
C32 C27 1_555 1_555
H18 C32 1_555 1_555
C33 C17 1_555 1_555
C34 C33 1_555 1_555
H19 C34 1_555 1_555
C35 C34 1_555 1_555
H20 C35 1_555 1_555
C36 C35 1_555 1_555
H21 C36 1_555 1_555
C37 C36 1_555 1_555
H22 C37 1_555 1_555
C38 C33 1_555 1_555
H23 C38 1_555 1_555
C39 C16 1_555 1_555
H24 C39 1_555 1_555
H25 C39 1_555 1_555
H26 C39 1_555 1_555
N2 C13 1_555 1_555
C15 C16 1_555 1_555
C17 C18 1_555 1_555
C23 C24 1_555 1_555
C25 C26 1_555 1_555
C31 C32 1_555 1_555
C37 C38 1_555 1_555

#END
