
#######################################################################
#
#                 Cambridge Crystallographic Data Centre
#                                CCDC 
#
#######################################################################
#
# If this CIF has been generated from an entry in the Cambridge 
# Structural Database, then it will include bibliographic, chemical, 
# crystal, experimental, refinement or atomic coordinate data resulting 
# from the CCDC's data processing and validation procedures.
#
#######################################################################

data_FOTBEW
_chemical_formula_moiety         'C126 H172 Cs4 O18,1.5(C4 H8 O1)'
_chemical_name_systematic        
'bis(\m~3~-\h^6^,\h^2^-5,11,17,23,29-Penta-t-butyl-31-hydroxy-32,33,34,35-tetraoxycalix(5)arene)-tetraaqua-tetrakis(tetrahydrofuran)-tetra-cesium tetrahydrofuran solvate'
_symmetry_cell_setting           monoclinic
_symmetry_space_group_name_H-M   'C 2/c'
_symmetry_Int_Tables_number      15
_space_group_name_Hall           '-C 2yn'
loop_
_symmetry_equiv_pos_site_id
_symmetry_equiv_pos_as_xyz
1 x,y,z
2 -x,y,1/2-z
3 1/2+x,1/2+y,z
4 1/2-x,1/2+y,1/2-z
5 -x,-y,-z
6 x,-y,1/2+z
7 1/2-x,1/2-y,-z
8 1/2+x,1/2-y,1/2+z
_cell_length_a                   39.5795(16)
_cell_length_b                   16.0732(6)
_cell_length_c                   21.5063(9)
_cell_angle_alpha                90
_cell_angle_beta                 91.1230(10)
_cell_angle_gamma                90
_cell_volume                     13679
_exptl_crystal_colour            colorless
_exptl_crystal_description       block
_cell_formula_units_Z            4
loop_
_atom_site_label
_atom_site_type_symbol
_atom_site_fract_x
_atom_site_fract_y
_atom_site_fract_z
Cs1 Cs -0.126255(6) -0.015318(18) -0.168117(12)
C1 C -0.10579(9) -0.1959(2) -0.07524(17)
O1 O -0.07982(7) -0.14243(17) -0.08329(12)
C2 C -0.11046(9) -0.2603(2) -0.11713(17)
O2 O -0.07435(7) -0.00180(17) -0.02143(13)
H1 H -0.0663 0.0196 -0.0530
Cs2 Cs -0.014298(6) -0.07353(2) -0.150121(14)
C3 C -0.13757(10) -0.3157(3) -0.1088(2)
H2 H -0.1401 -0.3604 -0.1367
O3 O -0.06098(7) 0.08077(16) -0.12276(13)
C4 C -0.16068(11) -0.3075(3) -0.0615(2)
O4 O -0.04853(7) -0.01387(18) -0.29235(14)
C5 C -0.15478(10) -0.2413(3) -0.0204(2)
H3 H -0.1696 -0.2343 0.0129
O5 O -0.07316(7) -0.12965(17) -0.23620(13)
C6 C -0.12852(9) -0.1858(2) -0.02609(18)
C7 C -0.18954(13) -0.3692(3) -0.0515(3)
C8 C -0.1982(2) -0.4156(6) -0.1122(4)
H4 H -0.2164 -0.4546 -0.1051
H5 H -0.1784 -0.4457 -0.1260
H6 H -0.2051 -0.3760 -0.1439
O6 O 0.0307(2) 0.0546(6) -0.0712(4)
C10 C -0.1784(3) -0.4296(8) -0.0050(6)
H10 H -0.1679 -0.4765 -0.0254
H11 H -0.1977 -0.4488 0.0181
H12 H -0.1622 -0.4037 0.0233
O7 O 0.0140(3) -0.0626(6) -0.0265(5)
C11 C -0.22224(16) -0.3236(6) -0.0417(5)
H13 H -0.2402 -0.3636 -0.0355
H14 H -0.2276 -0.2898 -0.0779
H15 H -0.2200 -0.2882 -0.0053
C12 C -0.12301(11) -0.1181(3) 0.02161(18)
H16 H -0.0992 -0.1187 0.0348
H17 H -0.1365 -0.1313 0.0581
C13 C -0.13197(10) -0.0306(2) 0.00029(18)
C14 C -0.16503(11) -0.0039(3) -0.0030(2)
H18 H -0.1831 -0.0437 0.0075
C15 C -0.17418(11) 0.0775(3) -0.0187(2)
C16 C -0.14749(10) 0.1338(3) -0.02399(19)
H19 H -0.1526 0.1904 -0.0298
C17 C -0.11419(10) 0.1107(3) -0.02117(17)
C18 C -0.10564(10) 0.0254(3) -0.01431(17)
C19 C -0.21137(12) 0.1025(3) -0.0231(3)
C20 C -0.22989(14) 0.0404(4) -0.0683(4)
H20 H -0.2536 0.0553 -0.0719
H21 H -0.2278 -0.0157 -0.0520
H22 H -0.2197 0.0431 -0.1089
C21 C -0.22727(16) 0.0969(4) 0.0413(3)
H23 H -0.2159 0.1354 0.0695
H24 H -0.2249 0.0407 0.0572
H25 H -0.2510 0.1112 0.0380
C22 C -0.21657(14) 0.1904(4) -0.0486(3)
H26 H -0.2052 0.2300 -0.0214
H27 H -0.2405 0.2029 -0.0507
H28 H -0.2073 0.1940 -0.0899
C23 C -0.08603(11) 0.1749(3) -0.01853(19)
H29 H -0.0929 0.2194 0.0097
H30 H -0.0660 0.1484 0.0001
C24 C -0.07586(9) 0.2146(2) -0.07933(19)
C25 C -0.07808(11) 0.3000(3) -0.0877(2)
H31 H -0.0862 0.3328 -0.0550
C26 C -0.06884(13) 0.3386(3) -0.1422(2)
C27 C -0.05779(11) 0.2880(3) -0.1896(2)
H32 H -0.0515 0.3126 -0.2273
C28 C -0.05566(10) 0.2028(3) -0.18366(19)
C29 C -0.06422(9) 0.1651(2) -0.12755(18)
C30 C -0.07232(19) 0.4341(3) -0.1506(3)
C31 C -0.1134(4) 0.4502(11) -0.1611(9)
H33 H -0.1259 0.4151 -0.1328
H35 H -0.1186 0.5081 -0.1530
H38 H -0.1141 0.4118 -0.2002
C34 C -0.0566(4) 0.4684(9) -0.2063(7)
H42 H -0.0323 0.4614 -0.2031
H43 H -0.0620 0.5272 -0.2098
H44 H -0.0652 0.4394 -0.2428
C36 C -0.0794(3) 0.4806(7) -0.0911(6)
H48 H -0.0587 0.4856 -0.0666
H49 H -0.0960 0.4504 -0.0676
H50 H -0.0880 0.5356 -0.1011
C37 C -0.04684(10) 0.1483(3) -0.23908(19)
H51 H -0.0318 0.1033 -0.2251
H52 H -0.0348 0.1817 -0.2696
C38 C -0.07855(9) 0.1111(2) -0.26985(17)
C39 C -0.10909(11) 0.1539(3) -0.27151(18)
H53 H -0.1097 0.2113 -0.2549
C40 C -0.13825(11) 0.1218(3) -0.29949(19)
C41 C -0.13613(11) 0.0423(3) -0.32655(18)
H54 H -0.1557 0.0206 -0.3508
C42 C -0.10580(11) -0.0033(3) -0.32572(18)
C43 C -0.07676(10) 0.0315(2) -0.29633(18)
C44 C -0.17100(12) 0.1725(3) -0.2982(2)
C45 C -0.19873(14) 0.1350(5) -0.3405(3)
H55 H -0.1911 0.1344 -0.3832
H56 H -0.2191 0.1684 -0.3380
H57 H -0.2035 0.0786 -0.3273
C46 C -0.16500(16) 0.2602(4) -0.3219(3)
H58 H -0.1568 0.2578 -0.3640
H59 H -0.1484 0.2876 -0.2952
H60 H -0.1860 0.2911 -0.3215
C47 C -0.18357(15) 0.1745(5) -0.2306(3)
H61 H -0.2043 0.2064 -0.2290
H62 H -0.1665 0.2002 -0.2039
H63 H -0.1877 0.1181 -0.2166
C48 C -0.10366(12) -0.0855(3) -0.35765(19)
H64 H -0.0808 -0.0909 -0.3737
H65 H -0.1192 -0.0839 -0.3937
C49 C -0.11121(10) -0.1639(3) -0.32153(18)
C50 C -0.13226(13) -0.2239(3) -0.3487(2)
H66 H -0.1426 -0.2121 -0.3874
C51 C -0.13872(14) -0.3002(3) -0.3211(2)
C52 C -0.12331(12) -0.3149(3) -0.2636(2)
H67 H -0.1272 -0.3660 -0.2437
C53 C -0.10241(10) -0.2572(3) -0.23424(19)
C54 C -0.09563(10) -0.1829(3) -0.26403(18)
C55 C -0.15985(19) -0.3685(4) -0.3539(3)
C57 C -0.1765(3) -0.3417(8) -0.4124(6)
H71 H -0.1943 -0.3022 -0.4033
H72 H -0.1862 -0.3897 -0.4335
H73 H -0.1600 -0.3156 -0.4389
C59 C -0.1351(3) -0.4459(8) -0.3654(6)
H77 H -0.1160 -0.4277 -0.3897
H78 H -0.1472 -0.4892 -0.3878
H79 H -0.1269 -0.4674 -0.3257
C61 C -0.1871(4) -0.4020(9) -0.3120(6)
H83 H -0.2031 -0.3581 -0.3030
H84 H -0.1768 -0.4219 -0.2734
H85 H -0.1988 -0.4476 -0.3327
C62 C -0.08698(10) -0.2761(2) -0.17049(18)
H86 H -0.0800 -0.3345 -0.1694
H87 H -0.0667 -0.2419 -0.1645
O8 O -0.19568(13) -0.0802(3) -0.2069(3)
C63 C -0.2278(5) -0.0492(13) -0.2377(11)
H88 H -0.2413 -0.0163 -0.2090
H89 H -0.2231 -0.0160 -0.2748
C64 C -0.2445(4) -0.1279(10) -0.2539(8)
H90 H -0.2685 -0.1204 -0.2639
H91 H -0.2334 -0.1563 -0.2884
C65 C -0.2392(7) -0.170(2) -0.1967(15)
H92 H -0.2428 -0.2296 -0.2026
H93 H -0.2554 -0.1497 -0.1663
C66 C -0.1994(3) -0.1530(8) -0.1695(7)
H94 H -0.1983 -0.1414 -0.1248
H95 H -0.1837 -0.1976 -0.1802
O9 O 0.00831(18) -0.2564(5) -0.1401(4)
C71 C 0.0192(5) -0.3149(12) -0.1912(8)
H104 H 0.0317 -0.2869 -0.2241
H105 H 0.0005 -0.3475 -0.2091
C72 C 0.0419(5) -0.3652(12) -0.1473(10)
H106 H 0.0403 -0.4241 -0.1587
H107 H 0.0654 -0.3479 -0.1530
C73 C 0.0346(5) -0.3573(12) -0.0872(9)
H108 H 0.0540 -0.3341 -0.0642
H109 H 0.0294 -0.4119 -0.0696
C74 C 0.0004(4) -0.2924(10) -0.0804(7)
H110 H -0.0213 -0.3216 -0.0800
H111 H 0.0024 -0.2532 -0.0456
Cs1A Cs 0.126255(6) -0.015318(18) -0.331883(12)
C1A C 0.10579(9) -0.1959(2) -0.42476(17)
O1A O 0.07982(7) -0.14243(17) -0.41671(12)
C2A C 0.11046(9) -0.2603(2) -0.38287(17)
O2A O 0.07435(7) -0.00180(17) -0.47857(13)
H1A H 0.0663 0.0196 -0.4470
Cs2A Cs 0.014298(6) -0.07353(2) -0.349879(14)
C3A C 0.13757(10) -0.3157(3) -0.3912(2)
H2A H 0.1401 -0.3604 -0.3633
O3A O 0.06098(7) 0.08077(16) -0.37724(13)
C4A C 0.16068(11) -0.3075(3) -0.4385(2)
O4A O 0.04853(7) -0.01387(18) -0.20765(14)
C5A C 0.15478(10) -0.2413(3) -0.4796(2)
H3A H 0.1696 -0.2343 -0.5129
O5A O 0.07316(7) -0.12965(17) -0.26380(13)
C6A C 0.12852(9) -0.1858(2) -0.47391(18)
C7A C 0.18954(13) -0.3692(3) -0.4485(3)
C8A C 0.1982(2) -0.4156(6) -0.3878(4)
H4A H 0.2164 -0.4546 -0.3949
H5A H 0.1784 -0.4457 -0.3740
H6A H 0.2051 -0.3760 -0.3561
O6A O -0.0307(2) 0.0546(6) -0.4288(4)
C10A C 0.1784(3) -0.4296(8) -0.4950(6)
H10A H 0.1679 -0.4765 -0.4746
H11A H 0.1977 -0.4488 -0.5181
H12A H 0.1622 -0.4037 -0.5233
O7A O -0.0140(3) -0.0626(6) -0.4735(5)
C11A C 0.22224(16) -0.3236(6) -0.4583(5)
H13A H 0.2402 -0.3636 -0.4645
H14A H 0.2276 -0.2898 -0.4221
H15A H 0.2200 -0.2882 -0.4947
C12A C 0.12301(11) -0.1181(3) -0.52161(18)
H16A H 0.0992 -0.1187 -0.5348
H17A H 0.1365 -0.1313 -0.5581
C13A C 0.13197(10) -0.0306(2) -0.50029(18)
C14A C 0.16503(11) -0.0039(3) -0.4970(2)
H18A H 0.1831 -0.0437 -0.5075
C15A C 0.17418(11) 0.0775(3) -0.4813(2)
C16A C 0.14749(10) 0.1338(3) -0.47601(19)
H19A H 0.1526 0.1904 -0.4702
C17A C 0.11419(10) 0.1107(3) -0.47883(17)
C18A C 0.10564(10) 0.0254(3) -0.48569(17)
C19A C 0.21137(12) 0.1025(3) -0.4769(3)
C20A C 0.22989(14) 0.0404(4) -0.4317(4)
H20A H 0.2536 0.0553 -0.4281
H21A H 0.2278 -0.0157 -0.4480
H22A H 0.2197 0.0431 -0.3911
C21A C 0.22727(16) 0.0969(4) -0.5413(3)
H23A H 0.2159 0.1354 -0.5695
H24A H 0.2249 0.0407 -0.5572
H25A H 0.2510 0.1112 -0.5380
C22A C 0.21657(14) 0.1904(4) -0.4514(3)
H26A H 0.2052 0.2300 -0.4786
H27A H 0.2405 0.2029 -0.4493
H28A H 0.2073 0.1940 -0.4101
C23A C 0.08603(11) 0.1749(3) -0.48147(19)
H29A H 0.0929 0.2194 -0.5097
H30A H 0.0660 0.1484 -0.5001
C24A C 0.07586(9) 0.2146(2) -0.42067(19)
C25A C 0.07808(11) 0.3000(3) -0.4123(2)
H31A H 0.0862 0.3328 -0.4450
C26A C 0.06884(13) 0.3386(3) -0.3578(2)
C27A C 0.05779(11) 0.2880(3) -0.3104(2)
H32A H 0.0515 0.3126 -0.2727
C28A C 0.05566(10) 0.2028(3) -0.31634(19)
C29A C 0.06422(9) 0.1651(2) -0.37245(18)
C30A C 0.07232(19) 0.4341(3) -0.3494(3)
C31A C 0.1134(4) 0.4502(11) -0.3389(9)
H33A H 0.1259 0.4151 -0.3672
H35A H 0.1186 0.5081 -0.3470
H38A H 0.1141 0.4118 -0.2998
C34A C 0.0566(4) 0.4684(9) -0.2937(7)
H42A H 0.0323 0.4614 -0.2969
H43A H 0.0620 0.5272 -0.2902
H44A H 0.0652 0.4394 -0.2572
C36A C 0.0794(3) 0.4806(7) -0.4089(6)
H48A H 0.0587 0.4856 -0.4334
H49A H 0.0960 0.4504 -0.4324
H50A H 0.0880 0.5356 -0.3989
C37A C 0.04684(10) 0.1483(3) -0.26092(19)
H51A H 0.0318 0.1033 -0.2749
H52A H 0.0348 0.1817 -0.2304
C38A C 0.07855(9) 0.1111(2) -0.23015(17)
C39A C 0.10909(11) 0.1539(3) -0.22849(18)
H53A H 0.1097 0.2113 -0.2451
C40A C 0.13825(11) 0.1218(3) -0.20051(19)
C41A C 0.13613(11) 0.0423(3) -0.17345(18)
H54A H 0.1557 0.0206 -0.1492
C42A C 0.10580(11) -0.0033(3) -0.17428(18)
C43A C 0.07676(10) 0.0315(2) -0.20367(18)
C44A C 0.17100(12) 0.1725(3) -0.2018(2)
C45A C 0.19873(14) 0.1350(5) -0.1595(3)
H55A H 0.1911 0.1344 -0.1168
H56A H 0.2191 0.1684 -0.1620
H57A H 0.2035 0.0786 -0.1727
C46A C 0.16500(16) 0.2602(4) -0.1781(3)
H58A H 0.1568 0.2578 -0.1360
H59A H 0.1484 0.2876 -0.2048
H60A H 0.1860 0.2911 -0.1785
C47A C 0.18357(15) 0.1745(5) -0.2694(3)
H61A H 0.2043 0.2064 -0.2710
H62A H 0.1665 0.2002 -0.2961
H63A H 0.1877 0.1181 -0.2834
C48A C 0.10366(12) -0.0855(3) -0.14235(19)
H64A H 0.0808 -0.0909 -0.1263
H65A H 0.1192 -0.0839 -0.1063
C49A C 0.11121(10) -0.1639(3) -0.17847(18)
C50A C 0.13226(13) -0.2239(3) -0.1513(2)
H66A H 0.1426 -0.2121 -0.1126
C51A C 0.13872(14) -0.3002(3) -0.1789(2)
C52A C 0.12331(12) -0.3149(3) -0.2364(2)
H67A H 0.1272 -0.3660 -0.2563
C53A C 0.10241(10) -0.2572(3) -0.26576(19)
C54A C 0.09563(10) -0.1829(3) -0.23597(18)
C55A C 0.15985(19) -0.3685(4) -0.1461(3)
C57A C 0.1765(3) -0.3417(8) -0.0876(6)
H71A H 0.1943 -0.3022 -0.0967
H72A H 0.1862 -0.3897 -0.0665
H73A H 0.1600 -0.3156 -0.0611
C59A C 0.1351(3) -0.4459(8) -0.1346(6)
H77A H 0.1160 -0.4277 -0.1103
H78A H 0.1472 -0.4892 -0.1122
H79A H 0.1269 -0.4674 -0.1743
C61A C 0.1871(4) -0.4020(9) -0.1880(6)
H83A H 0.2031 -0.3581 -0.1970
H84A H 0.1768 -0.4219 -0.2266
H85A H 0.1988 -0.4476 -0.1673
C62A C 0.08698(10) -0.2761(2) -0.32951(18)
H86A H 0.0800 -0.3345 -0.3306
H87A H 0.0667 -0.2419 -0.3355
O8A O 0.19568(13) -0.0802(3) -0.2931(3)
C63A C 0.2278(5) -0.0492(13) -0.2623(11)
H88A H 0.2413 -0.0163 -0.2910
H89A H 0.2231 -0.0160 -0.2252
C64A C 0.2445(4) -0.1279(10) -0.2461(8)
H90A H 0.2685 -0.1204 -0.2361
H91A H 0.2334 -0.1563 -0.2116
C65A C 0.2392(7) -0.170(2) -0.3033(15)
H92A H 0.2428 -0.2296 -0.2974
H93A H 0.2554 -0.1497 -0.3337
C66A C 0.1994(3) -0.1530(8) -0.3305(7)
H94A H 0.1983 -0.1414 -0.3752
H95A H 0.1837 -0.1976 -0.3198
O9A O -0.00831(18) -0.2564(5) -0.3599(4)
C71A C -0.0192(5) -0.3149(12) -0.3088(8)
H104A H -0.0317 -0.2869 -0.2759
H105A H -0.0005 -0.3475 -0.2909
C72A C -0.0419(5) -0.3652(12) -0.3527(10)
H106A H -0.0403 -0.4241 -0.3413
H107A H -0.0654 -0.3479 -0.3470
C73A C -0.0346(5) -0.3573(12) -0.4128(9)
H108A H -0.0540 -0.3341 -0.4358
H109A H -0.0294 -0.4119 -0.4304
C74A C -0.0004(4) -0.2924(10) -0.4196(7)
H110A H 0.0213 -0.3216 -0.4200
H111A H -0.0024 -0.2532 -0.4544
C9? C -0.1863(5) -0.3974(13) 0.0254(10)
H7? H -0.2008 -0.4449 0.0328
H8? H -0.1933 -0.3512 0.0512
H9? H -0.1631 -0.4119 0.0356
H34? H -0.1199 0.4366 -0.2036
C32? C -0.0978(5) 0.4567(12) -0.1960(9)
H36? H -0.0874 0.4666 -0.2357
H37? H -0.1093 0.5068 -0.1826
C33? C -0.0381(4) 0.4677(9) -0.1739(7)
H39? H -0.0197 0.4406 -0.1513
H40? H -0.0369 0.5272 -0.1670
H41? H -0.0362 0.4561 -0.2180
C35? C -0.0597(5) 0.4799(10) -0.0948(8)
H45? H -0.0357 0.4698 -0.0890
H46? H -0.0716 0.4608 -0.0585
H47? H -0.0636 0.5391 -0.1005
C56? C -0.1633(5) -0.3579(10) -0.4216(8)
H68? H -0.1811 -0.3182 -0.4309
H69? H -0.1688 -0.4110 -0.4407
H70? H -0.1421 -0.3376 -0.4379
C58? C -0.1646(7) -0.4359(15) -0.3245(11)
H74? H -0.1833 -0.4289 -0.2965
H75? H -0.1444 -0.4501 -0.3008
H76? H -0.1699 -0.4801 -0.3539
C60? C -0.1966(6) -0.344(2) -0.3334(16)
H80? H -0.1997 -0.2845 -0.3372
H81? H -0.1997 -0.3607 -0.2905
H82? H -0.2131 -0.3725 -0.3598
C67? C -0.2096(5) -0.0989(13) -0.2678(9)
H96? H -0.2262 -0.0560 -0.2789
H97? H -0.1914 -0.0957 -0.2979
C68? C -0.2254(5) -0.1784(12) -0.2735(9)
H98? H -0.2495 -0.1729 -0.2837
H99? H -0.2146 -0.2123 -0.3054
C69? C -0.2205(9) -0.210(2) -0.2183(15)
H100? H -0.2165 -0.2699 -0.2176
H101? H -0.2373 -0.1932 -0.1877
C70? C -0.1928(6) -0.1636(15) -0.2181(14)
H102? H -0.1822 -0.1703 -0.2586
H103? H -0.1771 -0.1866 -0.1867
loop_
_geom_bond_atom_site_label_1
_geom_bond_atom_site_label_2
_geom_bond_site_symmetry_1
_geom_bond_site_symmetry_2
Cs1 O1 1_555 1_555
C1 O1 1_555 1_555
O1 Cs2 1_555 1_555
C2 C1 1_555 1_555
O2 H1 1_555 1_555
Cs2 O3 1_555 1_555
C3 C2 1_555 1_555
H2 C3 1_555 1_555
O3 Cs1 1_555 1_555
C4 C3 1_555 1_555
O4 Cs2 1_555 1_555
C5 C4 1_555 1_555
H3 C5 1_555 1_555
O5 Cs1 1_555 1_555
C6 C1 1_555 1_555
C7 C4 1_555 1_555
C8 C7 1_555 1_555
H4 C8 1_555 1_555
H5 C8 1_555 1_555
H6 C8 1_555 1_555
O6 Cs2 1_555 1_555
C10 C7 1_555 1_555
H10 C10 1_555 1_555
H11 C10 1_555 1_555
H12 C10 1_555 1_555
O7 Cs2 1_555 1_555
C11 C7 1_555 1_555
H13 C11 1_555 1_555
H14 C11 1_555 1_555
H15 C11 1_555 1_555
C12 C6 1_555 1_555
H16 C12 1_555 1_555
H17 C12 1_555 1_555
C13 Cs1 1_555 1_555
C14 C13 1_555 1_555
H18 C14 1_555 1_555
C15 C14 1_555 1_555
C16 C15 1_555 1_555
H19 C16 1_555 1_555
C17 C16 1_555 1_555
C18 Cs1 1_555 1_555
C19 C15 1_555 1_555
C20 C19 1_555 1_555
H20 C20 1_555 1_555
H21 C20 1_555 1_555
H22 C20 1_555 1_555
C21 C19 1_555 1_555
H23 C21 1_555 1_555
H24 C21 1_555 1_555
H25 C21 1_555 1_555
C22 C19 1_555 1_555
H26 C22 1_555 1_555
H27 C22 1_555 1_555
H28 C22 1_555 1_555
C23 C17 1_555 1_555
H29 C23 1_555 1_555
H30 C23 1_555 1_555
C24 C23 1_555 1_555
C25 C24 1_555 1_555
H31 C25 1_555 1_555
C26 C25 1_555 1_555
C27 C26 1_555 1_555
H32 C27 1_555 1_555
C28 C27 1_555 1_555
C29 O3 1_555 1_555
C30 C26 1_555 1_555
C31 C30 1_555 1_555
H33 C31 1_555 1_555
H35 C31 1_555 1_555
H38 C31 1_555 1_555
C34 C30 1_555 1_555
H42 C34 1_555 1_555
H43 C34 1_555 1_555
H44 C34 1_555 1_555
C36 C30 1_555 1_555
H48 C36 1_555 1_555
H49 C36 1_555 1_555
H50 C36 1_555 1_555
C37 C28 1_555 1_555
H51 C37 1_555 1_555
H52 C37 1_555 1_555
C38 Cs1 1_555 1_555
C39 Cs1 1_555 1_555
H53 C39 1_555 1_555
C40 Cs1 1_555 1_555
C41 Cs1 1_555 1_555
H54 C41 1_555 1_555
C42 Cs1 1_555 1_555
C43 Cs1 1_555 1_555
C44 C40 1_555 1_555
C45 C44 1_555 1_555
H55 C45 1_555 1_555
H56 C45 1_555 1_555
H57 C45 1_555 1_555
C46 C44 1_555 1_555
H58 C46 1_555 1_555
H59 C46 1_555 1_555
H60 C46 1_555 1_555
C47 C44 1_555 1_555
H61 C47 1_555 1_555
H62 C47 1_555 1_555
H63 C47 1_555 1_555
C48 C42 1_555 1_555
H64 C48 1_555 1_555
H65 C48 1_555 1_555
C49 C48 1_555 1_555
C50 C49 1_555 1_555
H66 C50 1_555 1_555
C51 C50 1_555 1_555
C52 C51 1_555 1_555
H67 C52 1_555 1_555
C53 C52 1_555 1_555
C54 O5 1_555 1_555
C55 C51 1_555 1_555
C57 C55 1_555 1_555
H71 C57 1_555 1_555
H72 C57 1_555 1_555
H73 C57 1_555 1_555
C59 C55 1_555 1_555
H77 C59 1_555 1_555
H78 C59 1_555 1_555
H79 C59 1_555 1_555
C61 C55 1_555 1_555
H83 C61 1_555 1_555
H84 C61 1_555 1_555
H85 C61 1_555 1_555
C62 C2 1_555 1_555
H86 C62 1_555 1_555
H87 C62 1_555 1_555
O8 Cs1 1_555 1_555
C63 O8 1_555 1_555
H88 C63 1_555 1_555
H89 C63 1_555 1_555
C64 C63 1_555 1_555
H90 C64 1_555 1_555
H91 C64 1_555 1_555
C65 C64 1_555 1_555
H92 C65 1_555 1_555
H93 C65 1_555 1_555
C66 O8 1_555 1_555
H94 C66 1_555 1_555
H95 C66 1_555 1_555
O9 Cs2 1_555 1_555
C71 O9 1_555 1_555
H104 C71 1_555 1_555
H105 C71 1_555 1_555
C72 C71 1_555 1_555
H106 C72 1_555 1_555
H107 C72 1_555 1_555
C73 C72 1_555 1_555
H108 C73 1_555 1_555
H109 C73 1_555 1_555
C74 O9 1_555 1_555
H110 C74 1_555 1_555
H111 C74 1_555 1_555
Cs1A O1A 1_555 1_555
C1A O1A 1_555 1_555
O1A Cs2A 1_555 1_555
C2A C1A 1_555 1_555
O2A H1A 1_555 1_555
Cs2A O4 1_555 1_555
C3A C2A 1_555 1_555
H2A C3A 1_555 1_555
O3A Cs1A 1_555 1_555
C4A C3A 1_555 1_555
O4A Cs2 1_555 1_555
C5A C4A 1_555 1_555
H3A C5A 1_555 1_555
O5A Cs1A 1_555 1_555
C6A C1A 1_555 1_555
C7A C4A 1_555 1_555
C8A C7A 1_555 1_555
H4A C8A 1_555 1_555
H5A C8A 1_555 1_555
H6A C8A 1_555 1_555
O6A Cs2A 1_555 1_555
C10A C7A 1_555 1_555
H10A C10A 1_555 1_555
H11A C10A 1_555 1_555
H12A C10A 1_555 1_555
O7A Cs2A 1_555 1_555
C11A C7A 1_555 1_555
H13A C11A 1_555 1_555
H14A C11A 1_555 1_555
H15A C11A 1_555 1_555
C12A C6A 1_555 1_555
H16A C12A 1_555 1_555
H17A C12A 1_555 1_555
C13A Cs1A 1_555 1_555
C14A C13A 1_555 1_555
H18A C14A 1_555 1_555
C15A C14A 1_555 1_555
C16A C15A 1_555 1_555
H19A C16A 1_555 1_555
C17A C16A 1_555 1_555
C18A Cs1A 1_555 1_555
C19A C15A 1_555 1_555
C20A C19A 1_555 1_555
H20A C20A 1_555 1_555
H21A C20A 1_555 1_555
H22A C20A 1_555 1_555
C21A C19A 1_555 1_555
H23A C21A 1_555 1_555
H24A C21A 1_555 1_555
H25A C21A 1_555 1_555
C22A C19A 1_555 1_555
H26A C22A 1_555 1_555
H27A C22A 1_555 1_555
H28A C22A 1_555 1_555
C23A C17A 1_555 1_555
H29A C23A 1_555 1_555
H30A C23A 1_555 1_555
C24A C23A 1_555 1_555
C25A C24A 1_555 1_555
H31A C25A 1_555 1_555
C26A C25A 1_555 1_555
C27A C26A 1_555 1_555
H32A C27A 1_555 1_555
C28A C27A 1_555 1_555
C29A O3A 1_555 1_555
C30A C26A 1_555 1_555
C31A C30A 1_555 1_555
H33A C31A 1_555 1_555
H35A C31A 1_555 1_555
H38A C31A 1_555 1_555
C34A C30A 1_555 1_555
H42A C34A 1_555 1_555
H43A C34A 1_555 1_555
H44A C34A 1_555 1_555
C36A C30A 1_555 1_555
H48A C36A 1_555 1_555
H49A C36A 1_555 1_555
H50A C36A 1_555 1_555
C37A C28A 1_555 1_555
H51A C37A 1_555 1_555
H52A C37A 1_555 1_555
C38A Cs1A 1_555 1_555
C39A Cs1A 1_555 1_555
H53A C39A 1_555 1_555
C40A Cs1A 1_555 1_555
C41A Cs1A 1_555 1_555
H54A C41A 1_555 1_555
C42A Cs1A 1_555 1_555
C43A Cs1A 1_555 1_555
C44A C40A 1_555 1_555
C45A C44A 1_555 1_555
H55A C45A 1_555 1_555
H56A C45A 1_555 1_555
H57A C45A 1_555 1_555
C46A C44A 1_555 1_555
H58A C46A 1_555 1_555
H59A C46A 1_555 1_555
H60A C46A 1_555 1_555
C47A C44A 1_555 1_555
H61A C47A 1_555 1_555
H62A C47A 1_555 1_555
H63A C47A 1_555 1_555
C48A C42A 1_555 1_555
H64A C48A 1_555 1_555
H65A C48A 1_555 1_555
C49A C48A 1_555 1_555
C50A C49A 1_555 1_555
H66A C50A 1_555 1_555
C51A C50A 1_555 1_555
C52A C51A 1_555 1_555
H67A C52A 1_555 1_555
C53A C52A 1_555 1_555
C54A O5A 1_555 1_555
C55A C51A 1_555 1_555
C57A C55A 1_555 1_555
H71A C57A 1_555 1_555
H72A C57A 1_555 1_555
H73A C57A 1_555 1_555
C59A C55A 1_555 1_555
H77A C59A 1_555 1_555
H78A C59A 1_555 1_555
H79A C59A 1_555 1_555
C61A C55A 1_555 1_555
H83A C61A 1_555 1_555
H84A C61A 1_555 1_555
H85A C61A 1_555 1_555
C62A C2A 1_555 1_555
H86A C62A 1_555 1_555
H87A C62A 1_555 1_555
O8A Cs1A 1_555 1_555
C63A O8A 1_555 1_555
H88A C63A 1_555 1_555
H89A C63A 1_555 1_555
C64A C63A 1_555 1_555
H90A C64A 1_555 1_555
H91A C64A 1_555 1_555
C65A C64A 1_555 1_555
H92A C65A 1_555 1_555
H93A C65A 1_555 1_555
C66A O8A 1_555 1_555
H94A C66A 1_555 1_555
H95A C66A 1_555 1_555
O9A Cs2A 1_555 1_555
C71A O9A 1_555 1_555
H104A C71A 1_555 1_555
H105A C71A 1_555 1_555
C72A C71A 1_555 1_555
H106A C72A 1_555 1_555
H107A C72A 1_555 1_555
C73A C72A 1_555 1_555
H108A C73A 1_555 1_555
H109A C73A 1_555 1_555
C74A O9A 1_555 1_555
H110A C74A 1_555 1_555
H111A C74A 1_555 1_555
O2 C18 1_555 1_555
Cs2 O5 1_555 1_555
O4 C43 1_555 1_555
C5 C6 1_555 1_555
C12 C13 1_555 1_555
C13 C18 1_555 1_555
C17 C18 1_555 1_555
C24 C29 1_555 1_555
C28 C29 1_555 1_555
C37 C38 1_555 1_555
C38 C39 1_555 1_555
C38 C43 1_555 1_555
C39 C40 1_555 1_555
C40 C41 1_555 1_555
C41 C42 1_555 1_555
C42 C43 1_555 1_555
C49 C54 1_555 1_555
C53 C54 1_555 1_555
C53 C62 1_555 1_555
C65 C66 1_555 1_555
C73 C74 1_555 1_555
O2A C18A 1_555 1_555
Cs2A O3A 1_555 1_555
Cs2A O4A 1_555 1_555
Cs2A O5A 1_555 1_555
O4A C43A 1_555 1_555
C5A C6A 1_555 1_555
C12A C13A 1_555 1_555
C13A C18A 1_555 1_555
C17A C18A 1_555 1_555
C24A C29A 1_555 1_555
C28A C29A 1_555 1_555
C37A C38A 1_555 1_555
C38A C39A 1_555 1_555
C38A C43A 1_555 1_555
C39A C40A 1_555 1_555
C40A C41A 1_555 1_555
C41A C42A 1_555 1_555
C42A C43A 1_555 1_555
C49A C54A 1_555 1_555
C53A C54A 1_555 1_555
C53A C62A 1_555 1_555
C65A C66A 1_555 1_555
C73A C74A 1_555 1_555

#END
