
#######################################################################
#
#                 Cambridge Crystallographic Data Centre
#                                CCDC 
#
#######################################################################
#
# If this CIF has been generated from an entry in the Cambridge 
# Structural Database, then it will include bibliographic, chemical, 
# crystal, experimental, refinement or atomic coordinate data resulting 
# from the CCDC's data processing and validation procedures.
#
#######################################################################

data_FOTBIA
_chemical_formula_moiety         'C59 H77 Cs1 O6'
_chemical_name_systematic        
(\h^5^,\h^5^-5,11,17,23,29-Penta-t-butyl-31-oxy-32,33,34,35-tetrahydroxycalix(5)arene)-(tetrahydrofuran)-cesium
_symmetry_cell_setting           monoclinic
_symmetry_space_group_name_H-M   'P 21/c'
_symmetry_Int_Tables_number      14
_space_group_name_Hall           '-P 2ybc'
loop_
_symmetry_equiv_pos_site_id
_symmetry_equiv_pos_as_xyz
1 x,y,z
2 -x,1/2+y,1/2-z
3 -x,-y,-z
4 x,1/2-y,1/2+z
_cell_length_a                   16.6321(10)
_cell_length_b                   21.3979(13)
_cell_length_c                   19.1894(11)
_cell_angle_alpha                90
_cell_angle_beta                 108.7050(10)
_cell_angle_gamma                90
_cell_volume                     6468.64
_exptl_crystal_colour            colorless
_exptl_crystal_description       block
_cell_formula_units_Z            4
loop_
_atom_site_label
_atom_site_type_symbol
_atom_site_fract_x
_atom_site_fract_y
_atom_site_fract_z
Cs1 Cs 0.55289(3) 0.888318(16) 0.87331(2)
O1 O 0.6347(3) 0.8546(2) 1.0418(3)
C1 C 0.6831(4) 0.8016(3) 1.0488(3)
O2 O 0.7121(3) 0.96014(19) 1.0014(2)
H2 H 0.6888 0.9922 0.9798
C2 C 0.6400(4) 0.7451(3) 1.0409(3)
C3 C 0.6869(4) 0.6898(3) 1.0449(3)
H3 H 0.6583 0.6513 1.0390
O3 O 0.6202(2) 1.05782(18) 0.9478(2)
H4 H 0.6511 1.0297 0.9721
O4 O 0.4326(2) 0.95362(18) 0.9380(2)
C4 C 0.7740(4) 0.6899(3) 1.0574(4)
O5 O 0.4176(3) 0.82317(19) 1.0350(2)
H5 H 0.4051 0.8608 1.0339
C5 C 0.8151(4) 0.7481(3) 1.0691(4)
H6 H 0.8744 0.7495 1.0802
C6 C 0.7704(4) 0.8041(3) 1.0647(3)
O6 O 0.6643(4) 0.8107(3) 0.8062(3)
C7 C 0.8246(5) 0.6291(4) 1.0636(5)
C8 C 0.9002(6) 0.6381(4) 1.0380(7)
H7 H 0.9380 0.6688 1.0689
H8 H 0.8815 0.6525 0.9874
H9 H 0.9301 0.5987 1.0412
C9 C 0.8554(11) 0.6102(6) 1.1441(7)
H10 H 0.8938 0.6419 1.1725
H11 H 0.8850 0.5705 1.1493
H12 H 0.8073 0.6061 1.1618
C10 C 0.7672(7) 0.5773(5) 1.0163(9)
H13 H 0.8007 0.5399 1.0177
H14 H 0.7436 0.5916 0.9659
H15 H 0.7215 0.5679 1.0358
C11 C 0.8193(4) 0.8653(3) 1.0823(3)
H16 H 0.7883 0.8941 1.1041
H17 H 0.8746 0.8572 1.1194
C12 C 0.8339(4) 0.8970(3) 1.0169(3)
C13 C 0.9029(4) 0.8797(3) 0.9955(4)
H18 H 0.9381 0.8470 1.0205
C14 C 0.9215(4) 0.9098(4) 0.9375(4)
C15 C 0.8675(4) 0.9567(3) 0.9017(3)
H19 H 0.8783 0.9766 0.8619
C16 C 0.7978(4) 0.9765(3) 0.9211(3)
C17 C 0.7807(4) 0.9451(3) 0.9783(3)
C18 C 0.9998(5) 0.8920(4) 0.9145(5)
C19 C 0.9715(9) 0.8750(10) 0.8336(9)
H20 H 0.9468 0.8335 0.8270
H21 H 1.0200 0.8757 0.8160
H22 H 0.9295 0.9050 0.8060
C20 C 1.0515(8) 0.9534(7) 0.9126(10)
H23 H 1.0301 0.9723 0.8641
H24 H 1.1111 0.9432 0.9233
H25 H 1.0451 0.9826 0.9491
C21 C 1.0659(8) 0.8589(11) 0.9777(10)
H26 H 1.0532 0.8146 0.9760
H27 H 1.0647 0.8761 1.0242
H28 H 1.1218 0.8650 0.9732
C22 C 0.7485(4) 1.0339(3) 0.8848(4)
H29 H 0.7537 1.0653 0.9232
H30 H 0.7764 1.0509 0.8511
C23 C 0.6555(4) 1.0264(3) 0.8425(3)
C24 C 0.5946(3) 1.0425(2) 0.8766(3)
C25 C 0.5082(4) 1.0423(2) 0.8331(3)
C26 C 0.4852(4) 1.0236(3) 0.7593(3)
H31 H 0.4249 1.0269 0.7284
C27 C 0.5455(4) 1.0059(3) 0.7259(3)
C28 C 0.6301(4) 1.0077(3) 0.7694(3)
H32 H 0.6741 0.9957 0.7473
C29 C 0.5198(4) 0.9907(3) 0.6442(3)
C30 C 0.4259(8) 0.9922(9) 0.6051(11)
H33 H 0.3982 0.9612 0.6266
H34 H 0.4147 0.9829 0.5534
H35 H 0.4040 1.0333 0.6102
C31 C 0.5583(10) 1.0409(7) 0.6064(10)
H36 H 0.6099 1.0572 0.6415
H37 H 0.5179 1.0745 0.5889
H38 H 0.5715 1.0223 0.5652
C32 C 0.5546(9) 0.9299(6) 0.6297(8)
H39 H 0.5381 0.8972 0.6574
H40 H 0.6160 0.9324 0.6446
H41 H 0.5323 0.9204 0.5776
C33 C 0.4402(3) 1.0649(3) 0.8646(3)
H42 H 0.4244 1.1078 0.8480
H43 H 0.4638 1.0656 0.9184
C34 C 0.3609(3) 1.0243(3) 0.8421(3)
C35 C 0.3601(3) 0.9686(3) 0.8807(3)
C36 C 0.2895(3) 0.9297(2) 0.8601(3)
C37 C 0.2195(4) 0.9472(3) 0.8014(3)
H44 H 0.1721 0.9205 0.7868
C38 C 0.2171(4) 1.0029(3) 0.7634(3)
C39 C 0.2892(4) 1.0403(3) 0.7850(3)
H45 H 0.2891 1.0780 0.7598
C40 C 0.1383(4) 1.0216(3) 0.6980(4)
C41 C 0.1111(13) 1.0866(7) 0.7085(12)
H46 H 0.0946 1.0882 0.7526
H47 H 0.0633 1.0985 0.6663
H48 H 0.1579 1.1153 0.7135
C42 C 0.0651(10) 0.9769(7) 0.6810(10)
H49 H 0.0467 0.9725 0.7239
H50 H 0.0827 0.9365 0.6681
H51 H 0.0186 0.9928 0.6401
C43 C 0.1676(14) 1.0233(10) 0.6292(11)
H52 H 0.2258 1.0379 0.6430
H53 H 0.1314 1.0514 0.5929
H54 H 0.1640 0.9816 0.6085
C44 C 0.2875(4) 0.8690(3) 0.9006(3)
H55 H 0.2328 0.8484 0.8775
H56 H 0.2915 0.8788 0.9515
C45 C 0.3585(3) 0.8238(2) 0.9014(3)
C46 C 0.4188(4) 0.8050(3) 0.9670(3)
C47 C 0.4829(4) 0.7628(3) 0.9651(3)
C48 C 0.4845(4) 0.7396(3) 0.8974(4)
H57 H 0.5221 0.7038 0.8973
C49 C 0.4245(4) 0.7573(3) 0.8312(3)
C50 C 0.3622(4) 0.8000(3) 0.8353(3)
H58 H 0.3149 0.8095 0.7899
C51 C 0.4244(7) 0.7849(4) 0.7032(4)
H59 H 0.4149 0.7688 0.6540
H60 H 0.4794 0.8051 0.7206
H61 H 0.3804 0.8149 0.7025
C52 C 0.4998(6) 0.6891(4) 0.7617(5)
H62 H 0.5000 0.6539 0.7937
H63 H 0.5512 0.7133 0.7823
H64 H 0.4970 0.6739 0.7134
C53 C 0.4219(5) 0.7307(3) 0.7550(4)
C54 C 0.3427(6) 0.6924(5) 0.7230(6)
H65 H 0.3389 0.6612 0.7585
H66 H 0.3447 0.6719 0.6785
H67 H 0.2934 0.7195 0.7114
C55 C 0.5481(4) 0.7419(3) 1.0364(4)
H68 H 0.5408 0.7674 1.0764
H69 H 0.5353 0.6985 1.0457
C56 C 0.7249(7) 0.7817(7) 0.8641(5)
H70 H 0.6985 0.7643 0.8987
H71 H 0.7683 0.8119 0.8904
C57 C 0.6875(8) 0.8042(6) 0.7413(7)
H72 H 0.7196 0.8408 0.7344
H73 H 0.6370 0.7996 0.6980
C58 C 0.7411(9) 0.7468(6) 0.7529(6)
H74 H 0.7096 0.7124 0.7226
H75 H 0.7925 0.7546 0.7397
C59 C 0.7637(10) 0.7310(7) 0.8323(6)
H76 H 0.8254 0.7301 0.8556
H77 H 0.7404 0.6902 0.8389
H1? H 0.6595 0.8844 1.0299
C60? C 0.4490(11) 0.9422(9) 0.6271(13)
C61? C 0.4858(11) 1.0471(7) 0.5983(10)
C62? C 0.5896(10) 0.9632(8) 0.6196(11)
C63? C 0.1364(10) 1.0889(5) 0.6755(8)
C64? C 0.0587(10) 1.0111(8) 0.7218(10)
C65? C 0.1280(13) 0.9798(8) 0.6325(9)
H78? H 0.4527 0.9189 0.6714
H79? H 0.4549 0.9137 0.5897
H80? H 0.3945 0.9630 0.6092
H81? H 0.4260 1.0519 0.5925
H82? H 0.4927 1.0421 0.5503
H83? H 0.5165 1.0839 0.6222
H84? H 0.5938 0.9187 0.6298
H85? H 0.6430 0.9832 0.6459
H86? H 0.5768 0.9699 0.5672
H87? H 0.1193 1.1147 0.7100
H88? H 0.0961 1.0942 0.6265
H89? H 0.1924 1.1015 0.6756
H90? H 0.0718 1.0217 0.7734
H91? H 0.0417 0.9676 0.7144
H92? H 0.0128 1.0374 0.6925
H93? H 0.0960 0.9429 0.6367
H94? H 0.1835 0.9674 0.6310
H95? H 0.0979 1.0022 0.5878
loop_
_geom_bond_atom_site_label_1
_geom_bond_atom_site_label_2
_geom_bond_site_symmetry_1
_geom_bond_site_symmetry_2
Cs1 O1 1_555 1_555
O1 C1 1_555 1_555
C1 C2 1_555 1_555
O2 Cs1 1_555 1_555
H2 O2 1_555 1_555
C2 C3 1_555 1_555
C3 H3 1_555 1_555
O3 H4 1_555 1_555
O4 Cs1 1_555 1_555
C4 C3 1_555 1_555
O5 H5 1_555 1_555
C5 C4 1_555 1_555
H6 C5 1_555 1_555
C6 C1 1_555 1_555
O6 Cs1 1_555 1_555
C7 C4 1_555 1_555
C8 C7 1_555 1_555
H7 C8 1_555 1_555
H8 C8 1_555 1_555
H9 C8 1_555 1_555
C9 C7 1_555 1_555
H10 C9 1_555 1_555
H11 C9 1_555 1_555
H12 C9 1_555 1_555
C10 C7 1_555 1_555
H13 C10 1_555 1_555
H14 C10 1_555 1_555
H15 C10 1_555 1_555
C11 C6 1_555 1_555
H16 C11 1_555 1_555
H17 C11 1_555 1_555
C12 C11 1_555 1_555
C13 C12 1_555 1_555
H18 C13 1_555 1_555
C14 C13 1_555 1_555
C15 C14 1_555 1_555
H19 C15 1_555 1_555
C16 C15 1_555 1_555
C17 O2 1_555 1_555
C18 C14 1_555 1_555
C19 C18 1_555 1_555
H20 C19 1_555 1_555
H21 C19 1_555 1_555
H22 C19 1_555 1_555
C20 C18 1_555 1_555
H23 C20 1_555 1_555
H24 C20 1_555 1_555
H25 C20 1_555 1_555
C21 C18 1_555 1_555
H26 C21 1_555 1_555
H27 C21 1_555 1_555
H28 C21 1_555 1_555
C22 C16 1_555 1_555
H29 C22 1_555 1_555
H30 C22 1_555 1_555
C23 Cs1 1_555 1_555
C24 Cs1 1_555 1_555
C25 Cs1 1_555 1_555
C26 Cs1 1_555 1_555
H31 C26 1_555 1_555
C27 C26 1_555 1_555
C28 Cs1 1_555 1_555
H32 C28 1_555 1_555
C29 C27 1_555 1_555
C30 C29 1_555 1_555
H33 C30 1_555 1_555
H34 C30 1_555 1_555
H35 C30 1_555 1_555
C31 C29 1_555 1_555
H36 C31 1_555 1_555
H37 C31 1_555 1_555
H38 C31 1_555 1_555
C32 C29 1_555 1_555
H39 C32 1_555 1_555
H40 C32 1_555 1_555
H41 C32 1_555 1_555
C33 C25 1_555 1_555
H42 C33 1_555 1_555
H43 C33 1_555 1_555
C34 C33 1_555 1_555
C35 O4 1_555 1_555
C36 C35 1_555 1_555
C37 C36 1_555 1_555
H44 C37 1_555 1_555
C38 C37 1_555 1_555
C39 C34 1_555 1_555
H45 C39 1_555 1_555
C40 C38 1_555 1_555
C41 C40 1_555 1_555
H46 C41 1_555 1_555
H47 C41 1_555 1_555
H48 C41 1_555 1_555
C42 C40 1_555 1_555
H49 C42 1_555 1_555
H50 C42 1_555 1_555
H51 C42 1_555 1_555
C43 C40 1_555 1_555
H52 C43 1_555 1_555
H53 C43 1_555 1_555
H54 C43 1_555 1_555
C44 C36 1_555 1_555
H55 C44 1_555 1_555
H56 C44 1_555 1_555
C45 Cs1 1_555 1_555
C46 O5 1_555 1_555
C47 Cs1 1_555 1_555
C48 Cs1 1_555 1_555
H57 C48 1_555 1_555
C49 Cs1 1_555 1_555
C50 Cs1 1_555 1_555
H58 C50 1_555 1_555
C51 H59 1_555 1_555
H60 C51 1_555 1_555
H61 C51 1_555 1_555
C52 H62 1_555 1_555
H63 C52 1_555 1_555
H64 C52 1_555 1_555
C53 C49 1_555 1_555
C54 C53 1_555 1_555
H65 C54 1_555 1_555
H66 C54 1_555 1_555
H67 C54 1_555 1_555
C55 C2 1_555 1_555
H68 C55 1_555 1_555
H69 C55 1_555 1_555
C56 O6 1_555 1_555
H70 C56 1_555 1_555
H71 C56 1_555 1_555
C57 O6 1_555 1_555
H72 C57 1_555 1_555
H73 C57 1_555 1_555
C58 C57 1_555 1_555
H74 C58 1_555 1_555
H75 C58 1_555 1_555
C59 C56 1_555 1_555
H76 C59 1_555 1_555
H77 C59 1_555 1_555
O3 C24 1_555 1_555
C5 C6 1_555 1_555
C12 C17 1_555 1_555
C16 C17 1_555 1_555
C22 C23 1_555 1_555
C23 C24 1_555 1_555
C23 C28 1_555 1_555
C24 C25 1_555 1_555
C25 C26 1_555 1_555
C27 C28 1_555 1_555
C34 C35 1_555 1_555
C38 C39 1_555 1_555
C44 C45 1_555 1_555
C45 C46 1_555 1_555
C45 C50 1_555 1_555
C46 C47 1_555 1_555
C47 C48 1_555 1_555
C47 C55 1_555 1_555
C48 C49 1_555 1_555
C49 C50 1_555 1_555
C51 C53 1_555 1_555
C52 C53 1_555 1_555
C58 C59 1_555 1_555

#END
