
#######################################################################
#
#                 Cambridge Crystallographic Data Centre
#                                CCDC 
#
#######################################################################
#
# If this CIF has been generated from an entry in the Cambridge 
# Structural Database, then it will include bibliographic, chemical, 
# crystal, experimental, refinement or atomic coordinate data resulting 
# from the CCDC's data processing and validation procedures.
#
#######################################################################

data_FOTBOG
_chemical_formula_moiety         'C126 H184 K4 O18 S8,8(C2 H6 O1 S1)'
_chemical_name_systematic        
'bis(\m~3~-5,11,17,23,29-Penta-t-butyl-31,33-dioxy-32,34,35-trihydroxycalix(5)arene)-tetrakis(\m~2~-dimethylsulfoxide)-tetrakis(dimethylsulfoxide)-tetra-potassium dimethylsulfoxide solvate'
_symmetry_cell_setting           monoclinic
_symmetry_space_group_name_H-M   'P 21/n'
_symmetry_Int_Tables_number      14
_space_group_name_Hall           '-P 2yn'
loop_
_symmetry_equiv_pos_site_id
_symmetry_equiv_pos_as_xyz
1 x,y,z
2 1/2-x,1/2+y,1/2-z
3 -x,-y,-z
4 1/2+x,1/2-y,1/2+z
_cell_length_a                   14.440(4)
_cell_length_b                   17.897(4)
_cell_length_c                   32.661(8)
_cell_angle_alpha                90
_cell_angle_beta                 94.166(5)
_cell_angle_gamma                90
_cell_volume                     8418.37
_exptl_crystal_colour            colorless
_exptl_crystal_description       block
_cell_formula_units_Z            2
loop_
_atom_site_label
_atom_site_type_symbol
_atom_site_fract_x
_atom_site_fract_y
_atom_site_fract_z
K1 K 0.39002(18) 1.45916(14) 0.44476(8)
S1 S 0.2196(2) 1.60290(19) 0.48524(10)
O1 O 0.8275(5) 1.6076(4) 0.4330(2)
H1 H 0.8322 1.6030 0.4082
C1 C 0.8856(7) 1.6612(6) 0.4478(3)
K2 K 0.66855(17) 1.51386(14) 0.42909(8)
S2 S 0.1956(3) 1.4048(2) 0.35390(11)
O2 O 0.8186(5) 1.5741(4) 0.3571(2)
H2 H 0.8220 1.5863 0.3814
C2 C 0.8749(8) 1.6873(7) 0.4884(4)
S3 S 0.5686(3) 1.3361(2) 0.39002(11)
O3 O 0.6410(5) 1.5592(4) 0.3482(2)
C3 C 0.9351(8) 1.7417(7) 0.5055(4)
H3 H 0.9296 1.7558 0.5327
S4 S 0.8252(3) 1.3914(2) 0.36735(12)
O4 O 0.4914(5) 1.5799(4) 0.4337(2)
H4 H 0.5309 1.5961 0.4507
C4 C 1.0029(8) 1.7758(7) 0.4840(4)
O5 O 0.3900(5) 1.3835(4) 0.5146(2)
C5 C 1.0125(7) 1.7478(6) 0.4447(4)
H5 H 1.0590 1.7678 0.4297
C6 C 0.9567(7) 1.6917(6) 0.4264(3)
O6 O 0.2884(5) 1.5415(4) 0.4942(2)
C7 C 1.0666(9) 1.8386(8) 0.5009(4)
O7 O 0.2734(7) 1.4262(6) 0.3835(3)
C8 C 1.0412(10) 1.8634(9) 0.5436(5)
H6 H 1.0821 1.9028 0.5534
H7 H 1.0471 1.8218 0.5621
H8 H 0.9783 1.8811 0.5419
O8 O 0.5422(6) 1.3974(5) 0.4186(3)
C9 C 1.1674(8) 1.8152(8) 0.5019(5)
H9 H 1.1822 1.8007 0.4748
H10 H 1.1778 1.7738 0.5203
H11 H 1.2062 1.8563 0.5111
O9 O 0.7801(6) 1.4025(5) 0.4073(3)
C10 C 1.0490(11) 1.9061(8) 0.4728(5)
H12 H 1.0648 1.8937 0.4455
H13 H 1.0865 1.9473 0.4830
H14 H 0.9846 1.9198 0.4721
C11 C 0.9777(7) 1.6615(7) 0.3854(3)
H15 H 0.9794 1.6074 0.3874
H16 H 1.0396 1.6778 0.3799
C12 C 0.9122(7) 1.6820(6) 0.3480(3)
C13 C 0.9297(7) 1.7440(6) 0.3248(3)
H17 H 0.9752 1.7774 0.3349
C14 C 0.8823(8) 1.7592(7) 0.2868(4)
C15 C 0.8190(7) 1.7042(7) 0.2718(4)
H18 H 0.7887 1.7109 0.2460
C16 C 0.7999(7) 1.6408(6) 0.2937(3)
C17 C 0.8424(7) 1.6322(6) 0.3343(3)
C18 C 0.9015(9) 1.8310(8) 0.2642(4)
C19 C 1.0045(9) 1.8399(9) 0.2562(5)
H19 H 1.0230 1.7996 0.2392
H20 H 1.0414 1.8391 0.2819
H21 H 1.0134 1.8866 0.2426
C20 C 0.8724(11) 1.8974(8) 0.2913(5)
H22 H 0.9079 1.8960 0.3173
H23 H 0.8075 1.8935 0.2955
H24 H 0.8838 1.9437 0.2777
C21 C 0.8437(10) 1.8365(8) 0.2227(4)
H25 H 0.8611 1.7969 0.2050
H26 H 0.8551 1.8838 0.2101
H27 H 0.7789 1.8323 0.2271
C22 C 0.7413(7) 1.5771(6) 0.2747(3)
H28 H 0.7564 1.5719 0.2463
H29 H 0.7610 1.5314 0.2887
C23 C 0.6372(8) 1.5817(6) 0.2749(3)
C24 C 0.5831(8) 1.5912(6) 0.2385(3)
H30 H 0.6125 1.5998 0.2145
C25 C 0.4862(7) 1.5884(6) 0.2362(3)
C26 C 0.4462(8) 1.5751(6) 0.2726(3)
H31 H 0.3819 1.5705 0.2715
C27 C 0.4941(7) 1.5682(6) 0.3105(3)
C28 C 0.5928(7) 1.5705(6) 0.3108(3)
C29 C 0.4269(8) 1.5965(7) 0.1958(4)
C30 C 0.4808(10) 1.6231(10) 0.1606(4)
H32 H 0.5307 1.5889 0.1567
H33 H 0.5058 1.6718 0.1667
H34 H 0.4403 1.6253 0.1360
C31 C 0.3483(9) 1.6536(8) 0.2010(4)
H35 H 0.3748 1.7016 0.2078
H36 H 0.3113 1.6375 0.2226
H37 H 0.3100 1.6572 0.1758
C32 C 0.3796(10) 1.5218(8) 0.1850(4)
H38 H 0.4260 1.4845 0.1812
H39 H 0.3405 1.5272 0.1601
H40 H 0.3427 1.5069 0.2069
C33 C 0.4451(8) 1.5573(6) 0.3489(3)
H41 H 0.4826 1.5253 0.3675
H42 H 0.3867 1.5319 0.3421
C34 C 0.4260(7) 1.6300(6) 0.3707(3)
C35 C 0.3794(7) 1.6885(6) 0.3499(3)
H43 H 0.3632 1.6829 0.3220
C36 C 0.3561(7) 1.7539(6) 0.3685(4)
C37 C 0.3848(7) 1.7616(7) 0.4106(3)
H44 H 0.3727 1.8061 0.4239
C38 C 0.4304(7) 1.7048(6) 0.4327(3)
C39 C 0.4493(7) 1.6379(6) 0.4128(3)
C40 C 0.3037(8) 1.8183(7) 0.3465(4)
C41 C 0.3603(10) 1.8907(7) 0.3499(4)
H45 H 0.4171 1.8842 0.3368
H46 H 0.3743 1.9028 0.3784
H47 H 0.3250 1.9306 0.3368
C42 C 0.2800(9) 1.8019(7) 0.3015(4)
H48 H 0.3361 1.7947 0.2879
H49 H 0.2459 1.8431 0.2891
H50 H 0.2428 1.7574 0.2988
C43 C 0.2121(9) 1.8300(8) 0.3673(4)
H51 H 0.1781 1.8705 0.3541
H52 H 0.2256 1.8414 0.3958
H53 H 0.1755 1.7852 0.3647
C44 C 0.4513(7) 1.7131(6) 0.4784(3)
H54 H 0.4068 1.7478 0.4886
H55 H 0.4414 1.6651 0.4911
C45 C 0.5479(8) 1.7399(6) 0.4925(3)
C46 C 0.5636(8) 1.8124(6) 0.5041(4)
H56 H 0.5141 1.8457 0.5011
C47 C 0.6497(9) 1.8399(7) 0.5202(4)
C48 C 0.7226(8) 1.7873(7) 0.5220(4)
H57 H 0.7816 1.8032 0.5315
C49 C 0.7112(7) 1.7134(6) 0.5104(3)
C50 C 0.3778(8) 1.3122(6) 0.5047(3)
C51 C 0.6656(9) 1.9210(8) 0.5336(4)
C52 C 0.7605(12) 1.9360(13) 0.5555(7)
H58 H 0.7679 1.9060 0.5799
H59 H 0.8082 1.9235 0.5377
H60 H 0.7654 1.9879 0.5628
C53 C 0.6587(16) 1.9689(13) 0.4937(6)
H61 H 0.6093 1.9502 0.4753
H62 H 0.6462 2.0200 0.5005
H63 H 0.7162 1.9661 0.4808
C54 C 0.5889(13) 1.9445(13) 0.5597(6)
H64 H 0.5900 1.9136 0.5838
H65 H 0.5978 1.9958 0.5678
H66 H 0.5301 1.9393 0.5443
C55 C 0.7931(7) 1.6605(6) 0.5118(3)
H67 H 0.8148 1.6524 0.5402
H68 H 0.7722 1.6128 0.5005
C56 C 0.1116(8) 1.5635(9) 0.4942(5)
H69 H 0.0646 1.5843 0.4752
H70 H 0.0970 1.5743 0.5218
H71 H 0.1142 1.5104 0.4904
C57 C 0.2046(9) 1.6086(8) 0.4313(4)
H72 H 0.1680 1.6518 0.4236
H73 H 0.1735 1.5645 0.4207
H74 H 0.2642 1.6125 0.4202
C58 C 0.1650(12) 1.3121(8) 0.3664(5)
H75 H 0.1360 1.3121 0.3920
H76 H 0.2198 1.2817 0.3690
H77 H 0.1225 1.2924 0.3451
C59 C 0.2439(11) 1.3850(11) 0.3069(4)
H78 H 0.2652 1.4305 0.2953
H79 H 0.1975 1.3625 0.2883
H80 H 0.2951 1.3512 0.3117
C60 C 0.4671(11) 1.2834(10) 0.3782(6)
H81 H 0.4835 1.2353 0.3678
H82 H 0.4280 1.3091 0.3578
H83 H 0.4345 1.2769 0.4025
C61 C 0.6258(9) 1.2663(7) 0.4198(4)
H84 H 0.6026 1.2182 0.4111
H85 H 0.6150 1.2738 0.4482
H86 H 0.6913 1.2688 0.4165
C62 C 0.8460(13) 1.2936(9) 0.3633(5)
H87 H 0.7880 1.2681 0.3577
H88 H 0.8756 1.2756 0.3887
H89 H 0.8855 1.2845 0.3414
C63 C 0.9410(9) 1.4213(9) 0.3775(5)
H90 H 0.9424 1.4746 0.3805
H91 H 0.9769 1.4070 0.3552
H92 H 0.9667 1.3984 0.4024
K1B K 0.60998(18) 1.54084(14) 0.55524(8)
S1B S 0.7804(2) 1.39710(19) 0.51476(10)
O1B O 0.1725(5) 1.3924(4) 0.5670(2)
H1B H 0.1678 1.3970 0.5918
C1B C 0.1144(7) 1.3388(6) 0.5522(3)
K2B K 0.33145(17) 1.48614(14) 0.57091(8)
S2B S 0.8044(3) 1.5952(2) 0.64610(11)
O2B O 0.1814(5) 1.4259(4) 0.6429(2)
H2B H 0.1780 1.4137 0.6186
C2B C 0.1251(8) 1.3127(7) 0.5116(4)
S3B S 0.4314(3) 1.6639(2) 0.60998(11)
O3B O 0.3590(5) 1.4408(4) 0.6518(2)
C3B C 0.0649(8) 1.2583(7) 0.4945(4)
H3B H 0.0704 1.2442 0.4673
S4B S 0.1748(3) 1.6086(2) 0.63265(12)
O4B O 0.5086(5) 1.4201(4) 0.5663(2)
H4B H 0.4691 1.4039 0.5493
C4B C -0.0029(8) 1.2242(7) 0.5160(4)
O5B O 0.6100(5) 1.6165(4) 0.4854(2)
C5B C -0.0125(7) 1.2522(6) 0.5553(4)
H5B H -0.0590 1.2322 0.5703
C6B C 0.0433(7) 1.3083(6) 0.5736(3)
O6B O 0.7116(5) 1.4585(4) 0.5058(2)
C7B C -0.0666(9) 1.1614(8) 0.4991(4)
O7B O 0.7266(7) 1.5738(6) 0.6165(3)
C8B C -0.0412(10) 1.1366(9) 0.4564(5)
H6B H -0.0821 1.0972 0.4466
H7B H -0.0471 1.1782 0.4379
H8B H 0.0217 1.1189 0.4581
O8B O 0.4578(6) 1.6026(5) 0.5814(3)
C9B C -0.1674(8) 1.1848(8) 0.4981(5)
H9B H -0.1822 1.1993 0.5252
H10B H -0.1778 1.2262 0.4797
H11B H -0.2062 1.1437 0.4889
O9B O 0.2199(6) 1.5975(5) 0.5927(3)
C10B C -0.0490(11) 1.0939(8) 0.5272(5)
H12B H -0.0648 1.1063 0.5545
H13B H -0.0865 1.0527 0.5170
H14B H 0.0154 1.0802 0.5279
C11B C 0.0223(7) 1.3385(7) 0.6146(3)
H15B H 0.0206 1.3926 0.6126
H16B H -0.0396 1.3222 0.6201
C12B C 0.0878(7) 1.3180(6) 0.6520(3)
C13B C 0.0703(7) 1.2560(6) 0.6752(3)
H17B H 0.0248 1.2226 0.6651
C14B C 0.1177(8) 1.2408(7) 0.7132(4)
C15B C 0.1810(7) 1.2958(7) 0.7282(4)
H18B H 0.2113 1.2891 0.7540
C16B C 0.2001(7) 1.3592(6) 0.7063(3)
C17B C 0.1576(7) 1.3678(6) 0.6657(3)
C18B C 0.0985(9) 1.1690(8) 0.7358(4)
C19B C -0.0045(9) 1.1601(9) 0.7438(5)
H19B H -0.0230 1.2004 0.7608
H20B H -0.0414 1.1609 0.7181
H21B H -0.0134 1.1134 0.7574
C20B C 0.1276(11) 1.1026(8) 0.7087(5)
H22B H 0.0921 1.1040 0.6827
H23B H 0.1925 1.1065 0.7045
H24B H 0.1162 1.0563 0.7223
C21B C 0.1563(10) 1.1635(8) 0.7773(4)
H25B H 0.1389 1.2031 0.7950
H26B H 0.1449 1.1162 0.7899
H27B H 0.2211 1.1677 0.7729
C22B C 0.2587(7) 1.4229(6) 0.7253(3)
H28B H 0.2436 1.4281 0.7537
H29B H 0.2390 1.4686 0.7113
C23B C 0.3628(8) 1.4183(6) 0.7251(3)
C24B C 0.4169(8) 1.4088(6) 0.7615(3)
H30B H 0.3875 1.4002 0.7855
C25B C 0.5138(7) 1.4116(6) 0.7638(3)
C26B C 0.5538(8) 1.4249(6) 0.7274(3)
H31B H 0.6181 1.4295 0.7285
C27B C 0.5059(7) 1.4318(6) 0.6895(3)
C28B C 0.4072(7) 1.4295(6) 0.6892(3)
C29B C 0.5731(8) 1.4035(7) 0.8042(4)
C30B C 0.5192(10) 1.3769(10) 0.8394(4)
H32B H 0.4693 1.4111 0.8433
H33B H 0.4942 1.3282 0.8333
H34B H 0.5597 1.3747 0.8640
C31B C 0.6517(9) 1.3464(8) 0.7990(4)
H35B H 0.6252 1.2984 0.7922
H36B H 0.6887 1.3625 0.7774
H37B H 0.6900 1.3428 0.8242
C32B C 0.6204(10) 1.4782(8) 0.8150(4)
H38B H 0.5740 1.5155 0.8188
H39B H 0.6595 1.4728 0.8399
H40B H 0.6573 1.4931 0.7931
C33B C 0.5549(8) 1.4427(6) 0.6511(3)
H41B H 0.5174 1.4747 0.6325
H42B H 0.6133 1.4681 0.6579
C34B C 0.5740(7) 1.3700(6) 0.6293(3)
C35B C 0.6206(7) 1.3115(6) 0.6501(3)
H43B H 0.6368 1.3171 0.6780
C36B C 0.6439(7) 1.2461(6) 0.6315(4)
C37B C 0.6152(7) 1.2384(7) 0.5894(3)
H44B H 0.6273 1.1939 0.5761
C38B C 0.5696(7) 1.2952(6) 0.5673(3)
C39B C 0.5507(7) 1.3621(6) 0.5872(3)
C40B C 0.6963(8) 1.1817(7) 0.6535(4)
C41B C 0.6397(10) 1.1093(7) 0.6501(4)
H45B H 0.5829 1.1158 0.6632
H46B H 0.6257 1.0972 0.6216
H47B H 0.6750 1.0694 0.6632
C42B C 0.7200(9) 1.1981(7) 0.6985(4)
H48B H 0.6639 1.2053 0.7121
H49B H 0.7541 1.1569 0.7109
H50B H 0.7572 1.2426 0.7012
C43B C 0.7879(9) 1.1700(8) 0.6327(4)
H51B H 0.8219 1.1295 0.6459
H52B H 0.7744 1.1586 0.6042
H53B H 0.8245 1.2148 0.6353
C44B C 0.5487(7) 1.2869(6) 0.5216(3)
H54B H 0.5932 1.2522 0.5114
H55B H 0.5586 1.3349 0.5089
C45B C 0.4521(8) 1.2601(6) 0.5075(3)
C46B C 0.4364(8) 1.1876(6) 0.4959(4)
H56B H 0.4859 1.1543 0.4989
C47B C 0.3503(9) 1.1601(7) 0.4798(4)
C48B C 0.2774(8) 1.2127(7) 0.4780(4)
H57B H 0.2184 1.1968 0.4685
C49B C 0.2888(7) 1.2866(6) 0.4896(3)
C50B C 0.6222(8) 1.6878(6) 0.4953(3)
C51B C 0.3344(9) 1.0790(8) 0.4664(4)
C52B C 0.2395(12) 1.0640(13) 0.4445(7)
H58B H 0.2321 1.0940 0.4201
H59B H 0.1918 1.0765 0.4623
H60B H 0.2346 1.0121 0.4372
C53B C 0.3413(16) 1.0311(13) 0.5063(6)
H61B H 0.3907 1.0498 0.5247
H62B H 0.3538 0.9800 0.4995
H63B H 0.2838 1.0339 0.5192
C54B C 0.4111(13) 1.0555(13) 0.4403(6)
H64B H 0.4100 1.0864 0.4162
H65B H 0.4022 1.0042 0.4322
H66B H 0.4699 1.0607 0.4557
C55B C 0.2069(7) 1.3395(6) 0.4882(3)
H67B H 0.1852 1.3476 0.4598
H68B H 0.2278 1.3872 0.4995
C56B C 0.8884(8) 1.4365(9) 0.5058(5)
H69B H 0.9354 1.4157 0.5248
H70B H 0.9030 1.4257 0.4782
H71B H 0.8858 1.4896 0.5096
C57B C 0.7954(9) 1.3914(8) 0.5687(4)
H72B H 0.8320 1.3482 0.5764
H73B H 0.8265 1.4355 0.5793
H74B H 0.7358 1.3875 0.5798
C58B C 0.8350(12) 1.6879(8) 0.6336(5)
H75B H 0.8640 1.6879 0.6080
H76B H 0.7802 1.7183 0.6310
H77B H 0.8775 1.7076 0.6549
C59B C 0.7561(11) 1.6150(11) 0.6931(4)
H78B H 0.7348 1.5695 0.7047
H79B H 0.8025 1.6375 0.7117
H80B H 0.7049 1.6488 0.6883
C60B C 0.5329(11) 1.7166(10) 0.6218(6)
H81B H 0.5165 1.7647 0.6322
H82B H 0.5720 1.6909 0.6422
H83B H 0.5655 1.7231 0.5975
C61B C 0.3742(9) 1.7337(7) 0.5802(4)
H84B H 0.3974 1.7818 0.5889
H85B H 0.3850 1.7262 0.5518
H86B H 0.3087 1.7312 0.5835
C62B C 0.1540(13) 1.7064(9) 0.6367(5)
H87B H 0.2120 1.7319 0.6423
H88B H 0.1244 1.7244 0.6113
H89B H 0.1145 1.7155 0.6586
C63B C 0.0590(9) 1.5787(9) 0.6225(5)
H90B H 0.0576 1.5254 0.6195
H91B H 0.0231 1.5930 0.6448
H92B H 0.0333 1.6016 0.5976
S5 S 0.6430(4) 1.0815(3) 0.33347(14)
O10 O 0.6355(12) 1.1636(6) 0.3392(4)
C64 C 0.7408(12) 1.0522(11) 0.3611(6)
H93 H 0.7944 1.0705 0.3485
H94 H 0.7421 0.9986 0.3617
H95 H 0.7410 1.0711 0.3886
C65 C 0.5636(13) 1.0409(11) 0.3635(7)
H96 H 0.5018 1.0527 0.3525
H97 H 0.5728 1.0596 0.3910
H98 H 0.5719 0.9877 0.3636
S6 S 0.6634(3) 0.8334(2) 0.39856(13)
O11 O 0.6507(7) 0.8744(5) 0.3582(3)
C66 C 0.6599(10) 0.7368(8) 0.3864(5)
H99 H 0.5973 0.7226 0.3780
H100 H 0.6813 0.7083 0.4102
H101 H 0.6991 0.7271 0.3645
C67 C 0.7841(9) 0.8392(8) 0.4130(5)
H102 H 0.7998 0.8896 0.4208
H103 H 0.8186 0.8247 0.3903
H104 H 0.7992 0.8064 0.4358
S7 S 0.5282(6) 0.8467(4) 0.2482(2)
O12 O 0.4867(8) 0.8383(7) 0.2098(4)
C68 C 0.5603(11) 0.7760(8) 0.2757(6)
H105 H 0.5176 0.7356 0.2701
H106 H 0.5611 0.7892 0.3042
H107 H 0.6214 0.7609 0.2693
C69 C 0.6017(11) 0.9160(8) 0.2583(5)
H108 H 0.5834 0.9584 0.2416
H109 H 0.6630 0.9006 0.2524
H110 H 0.6015 0.9293 0.2867
S8 S 0.3853(7) 1.0749(9) 0.2377(5)
O13 O 0.2954(11) 1.0548(14) 0.2331(7)
C70 C 0.4139(17) 1.1416(15) 0.2650(9)
H111 H 0.4004 1.1310 0.2928
H112 H 0.3799 1.1851 0.2555
H113 H 0.4792 1.1505 0.2640
C71 C 0.447(2) 1.0623(18) 0.2037(10)
H114 H 0.4304 1.0160 0.1902
H115 H 0.5102 1.0602 0.2146
H116 H 0.4392 1.1025 0.1843
C72? C 0.310(3) 1.087(3) 0.4196(7)
C73? C 0.253(2) 1.043(3) 0.4854(14)
C74? C 0.420(2) 1.030(2) 0.4724(13)
H117? H 0.3376 1.1313 0.4098
H118? H 0.2440 1.0889 0.4143
H119? H 0.3339 1.0441 0.4058
H120? H 0.1960 1.0598 0.4714
H121? H 0.2538 1.0565 0.5139
H122? H 0.2573 0.9896 0.4831
H123? H 0.4575 1.0355 0.4495
H124? H 0.4013 0.9783 0.4743
H125? H 0.4555 1.0437 0.4972
loop_
_geom_bond_atom_site_label_1
_geom_bond_atom_site_label_2
_geom_bond_site_symmetry_1
_geom_bond_site_symmetry_2
K1 O4 1_555 1_555
S1 O6 1_555 1_555
O1 H1 1_555 1_555
C1 O1 1_555 1_555
K2 O1 1_555 1_555
S2 O7 1_555 1_555
O2 H2 1_555 1_555
C2 C1 1_555 1_555
S3 O8 1_555 1_555
O3 K2 1_555 1_555
C3 C2 1_555 1_555
H3 C3 1_555 1_555
S4 O9 1_555 1_555
O4 K2 1_555 1_555
H4 O4 1_555 1_555
C4 C3 1_555 1_555
S5 O10 1_555 1_555
O5 K1 1_555 1_555
C5 C4 1_555 1_555
H5 C5 1_555 1_555
S6 O11 1_555 1_555
C6 C1 1_555 1_555
O6 K1 1_555 1_555
C7 C4 1_555 1_555
O7 K1 1_555 1_555
S7 O12 1_555 1_555
C8 C7 1_555 1_555
H6 C8 1_555 1_555
H7 C8 1_555 1_555
H8 C8 1_555 1_555
O8 K1 1_555 1_555
S8 O13 1_555 1_555
C9 C7 1_555 1_555
H9 C9 1_555 1_555
H10 C9 1_555 1_555
H11 C9 1_555 1_555
O9 K2 1_555 1_555
C10 C7 1_555 1_555
H12 C10 1_555 1_555
H13 C10 1_555 1_555
H14 C10 1_555 1_555
C11 C6 1_555 1_555
H15 C11 1_555 1_555
H16 C11 1_555 1_555
C12 C11 1_555 1_555
C13 C12 1_555 1_555
H17 C13 1_555 1_555
C14 C13 1_555 1_555
C15 C14 1_555 1_555
H18 C15 1_555 1_555
C16 C15 1_555 1_555
C17 O2 1_555 1_555
C18 C14 1_555 1_555
C19 C18 1_555 1_555
H19 C19 1_555 1_555
H20 C19 1_555 1_555
H21 C19 1_555 1_555
C20 C18 1_555 1_555
H22 C20 1_555 1_555
H23 C20 1_555 1_555
H24 C20 1_555 1_555
C21 C18 1_555 1_555
H25 C21 1_555 1_555
H26 C21 1_555 1_555
H27 C21 1_555 1_555
C22 C16 1_555 1_555
H28 C22 1_555 1_555
H29 C22 1_555 1_555
C23 C22 1_555 1_555
C24 C23 1_555 1_555
H30 C24 1_555 1_555
C25 C24 1_555 1_555
C26 C25 1_555 1_555
H31 C26 1_555 1_555
C27 C26 1_555 1_555
C28 O3 1_555 1_555
C29 C25 1_555 1_555
C30 C29 1_555 1_555
H32 C30 1_555 1_555
H33 C30 1_555 1_555
H34 C30 1_555 1_555
C31 C29 1_555 1_555
H35 C31 1_555 1_555
H36 C31 1_555 1_555
H37 C31 1_555 1_555
C32 C29 1_555 1_555
H38 C32 1_555 1_555
H39 C32 1_555 1_555
H40 C32 1_555 1_555
C33 C27 1_555 1_555
H41 C33 1_555 1_555
H42 C33 1_555 1_555
C34 C33 1_555 1_555
C35 C34 1_555 1_555
H43 C35 1_555 1_555
C36 C35 1_555 1_555
C37 C36 1_555 1_555
H44 C37 1_555 1_555
C38 C37 1_555 1_555
C39 O4 1_555 1_555
C40 C36 1_555 1_555
C41 C40 1_555 1_555
H45 C41 1_555 1_555
H46 C41 1_555 1_555
H47 C41 1_555 1_555
C42 C40 1_555 1_555
H48 C42 1_555 1_555
H49 C42 1_555 1_555
H50 C42 1_555 1_555
C43 C40 1_555 1_555
H51 C43 1_555 1_555
H52 C43 1_555 1_555
H53 C43 1_555 1_555
C44 C38 1_555 1_555
H54 C44 1_555 1_555
H55 C44 1_555 1_555
C45 C44 1_555 1_555
C46 C45 1_555 1_555
H56 C46 1_555 1_555
C47 C46 1_555 1_555
C48 C47 1_555 1_555
H57 C48 1_555 1_555
C49 C48 1_555 1_555
C50 O5 1_555 1_555
C51 C47 1_555 1_555
C52 C51 1_555 1_555
H58 C52 1_555 1_555
H59 C52 1_555 1_555
H60 C52 1_555 1_555
C53 C51 1_555 1_555
H61 C53 1_555 1_555
H62 C53 1_555 1_555
H63 C53 1_555 1_555
C54 C51 1_555 1_555
H64 C54 1_555 1_555
H65 C54 1_555 1_555
H66 C54 1_555 1_555
C55 C2 1_555 1_555
H67 C55 1_555 1_555
H68 C55 1_555 1_555
C56 S1 1_555 1_555
H69 C56 1_555 1_555
H70 C56 1_555 1_555
H71 C56 1_555 1_555
C57 S1 1_555 1_555
H72 C57 1_555 1_555
H73 C57 1_555 1_555
H74 C57 1_555 1_555
C58 S2 1_555 1_555
H75 C58 1_555 1_555
H76 C58 1_555 1_555
H77 C58 1_555 1_555
C59 S2 1_555 1_555
H78 C59 1_555 1_555
H79 C59 1_555 1_555
H80 C59 1_555 1_555
C60 S3 1_555 1_555
H81 C60 1_555 1_555
H82 C60 1_555 1_555
H83 C60 1_555 1_555
C61 S3 1_555 1_555
H84 C61 1_555 1_555
H85 C61 1_555 1_555
H86 C61 1_555 1_555
C62 S4 1_555 1_555
H87 C62 1_555 1_555
H88 C62 1_555 1_555
H89 C62 1_555 1_555
C63 S4 1_555 1_555
H90 C63 1_555 1_555
H91 C63 1_555 1_555
H92 C63 1_555 1_555
C64 S5 1_555 1_555
H93 C64 1_555 1_555
H94 C64 1_555 1_555
H95 C64 1_555 1_555
C65 S5 1_555 1_555
H96 C65 1_555 1_555
H97 C65 1_555 1_555
H98 C65 1_555 1_555
C66 S6 1_555 1_555
H99 C66 1_555 1_555
H100 C66 1_555 1_555
H101 C66 1_555 1_555
C67 S6 1_555 1_555
H102 C67 1_555 1_555
H103 C67 1_555 1_555
H104 C67 1_555 1_555
C68 S7 1_555 1_555
H105 C68 1_555 1_555
H106 C68 1_555 1_555
H107 C68 1_555 1_555
C69 S7 1_555 1_555
H108 C69 1_555 1_555
H109 C69 1_555 1_555
H110 C69 1_555 1_555
C70 S8 1_555 1_555
H111 C70 1_555 1_555
H112 C70 1_555 1_555
H113 C70 1_555 1_555
C71 S8 1_555 1_555
H114 C71 1_555 1_555
H115 C71 1_555 1_555
H116 C71 1_555 1_555
K1B O4B 1_555 1_555
S1B O6B 1_555 1_555
O1B H1B 1_555 1_555
C1B O1B 1_555 1_555
K2B O5 1_555 1_555
S2B O7B 1_555 1_555
O2B H2B 1_555 1_555
C2B C1B 1_555 1_555
S3B O8B 1_555 1_555
O3B K2B 1_555 1_555
C3B C2B 1_555 1_555
H3B C3B 1_555 1_555
S4B O9B 1_555 1_555
O4B K2B 1_555 1_555
H4B O4B 1_555 1_555
C4B C3B 1_555 1_555
O5B K2 1_555 1_555
C5B C4B 1_555 1_555
H5B C5B 1_555 1_555
C6B C1B 1_555 1_555
O6B K2 1_555 1_555
C7B C4B 1_555 1_555
O7B K1B 1_555 1_555
C8B C7B 1_555 1_555
H6B C8B 1_555 1_555
H7B C8B 1_555 1_555
H8B C8B 1_555 1_555
O8B K1B 1_555 1_555
C9B C7B 1_555 1_555
H9B C9B 1_555 1_555
H10B C9B 1_555 1_555
H11B C9B 1_555 1_555
O9B K2B 1_555 1_555
C10B C7B 1_555 1_555
H12B C10B 1_555 1_555
H13B C10B 1_555 1_555
H14B C10B 1_555 1_555
C11B C6B 1_555 1_555
H15B C11B 1_555 1_555
H16B C11B 1_555 1_555
C12B C11B 1_555 1_555
C13B C12B 1_555 1_555
H17B C13B 1_555 1_555
C14B C13B 1_555 1_555
C15B C14B 1_555 1_555
H18B C15B 1_555 1_555
C16B C15B 1_555 1_555
C17B O2B 1_555 1_555
C18B C14B 1_555 1_555
C19B C18B 1_555 1_555
H19B C19B 1_555 1_555
H20B C19B 1_555 1_555
H21B C19B 1_555 1_555
C20B C18B 1_555 1_555
H22B C20B 1_555 1_555
H23B C20B 1_555 1_555
H24B C20B 1_555 1_555
C21B C18B 1_555 1_555
H25B C21B 1_555 1_555
H26B C21B 1_555 1_555
H27B C21B 1_555 1_555
C22B C16B 1_555 1_555
H28B C22B 1_555 1_555
H29B C22B 1_555 1_555
C23B C22B 1_555 1_555
C24B C23B 1_555 1_555
H30B C24B 1_555 1_555
C25B C24B 1_555 1_555
C26B C25B 1_555 1_555
H31B C26B 1_555 1_555
C27B C26B 1_555 1_555
C28B O3B 1_555 1_555
C29B C25B 1_555 1_555
C30B C29B 1_555 1_555
H32B C30B 1_555 1_555
H33B C30B 1_555 1_555
H34B C30B 1_555 1_555
C31B C29B 1_555 1_555
H35B C31B 1_555 1_555
H36B C31B 1_555 1_555
H37B C31B 1_555 1_555
C32B C29B 1_555 1_555
H38B C32B 1_555 1_555
H39B C32B 1_555 1_555
H40B C32B 1_555 1_555
C33B C27B 1_555 1_555
H41B C33B 1_555 1_555
H42B C33B 1_555 1_555
C34B C33B 1_555 1_555
C35B C34B 1_555 1_555
H43B C35B 1_555 1_555
C36B C35B 1_555 1_555
C37B C36B 1_555 1_555
H44B C37B 1_555 1_555
C38B C37B 1_555 1_555
C39B O4B 1_555 1_555
C40B C36B 1_555 1_555
C41B C40B 1_555 1_555
H45B C41B 1_555 1_555
H46B C41B 1_555 1_555
H47B C41B 1_555 1_555
C42B C40B 1_555 1_555
H48B C42B 1_555 1_555
H49B C42B 1_555 1_555
H50B C42B 1_555 1_555
C43B C40B 1_555 1_555
H51B C43B 1_555 1_555
H52B C43B 1_555 1_555
H53B C43B 1_555 1_555
C44B C38B 1_555 1_555
H54B C44B 1_555 1_555
H55B C44B 1_555 1_555
C45B C50 1_555 1_555
C46B C45B 1_555 1_555
H56B C46B 1_555 1_555
C47B C46B 1_555 1_555
C48B C47B 1_555 1_555
H57B C48B 1_555 1_555
C49B C50 1_555 1_555
C50B C45 1_555 1_555
C51B C47B 1_555 1_555
C52B C51B 1_555 1_555
H58B C52B 1_555 1_555
H59B C52B 1_555 1_555
H60B C52B 1_555 1_555
C53B C51B 1_555 1_555
H61B C53B 1_555 1_555
H62B C53B 1_555 1_555
H63B C53B 1_555 1_555
C54B C51B 1_555 1_555
H64B C54B 1_555 1_555
H65B C54B 1_555 1_555
H66B C54B 1_555 1_555
C55B C2B 1_555 1_555
H67B C55B 1_555 1_555
H68B C55B 1_555 1_555
C56B S1B 1_555 1_555
H69B C56B 1_555 1_555
H70B C56B 1_555 1_555
H71B C56B 1_555 1_555
C57B S1B 1_555 1_555
H72B C57B 1_555 1_555
H73B C57B 1_555 1_555
H74B C57B 1_555 1_555
C58B S2B 1_555 1_555
H75B C58B 1_555 1_555
H76B C58B 1_555 1_555
H77B C58B 1_555 1_555
C59B S2B 1_555 1_555
H78B C59B 1_555 1_555
H79B C59B 1_555 1_555
H80B C59B 1_555 1_555
C60B S3B 1_555 1_555
H81B C60B 1_555 1_555
H82B C60B 1_555 1_555
H83B C60B 1_555 1_555
C61B S3B 1_555 1_555
H84B C61B 1_555 1_555
H85B C61B 1_555 1_555
H86B C61B 1_555 1_555
C62B S4B 1_555 1_555
H87B C62B 1_555 1_555
H88B C62B 1_555 1_555
H89B C62B 1_555 1_555
C63B S4B 1_555 1_555
H90B C63B 1_555 1_555
H91B C63B 1_555 1_555
H92B C63B 1_555 1_555
K2 O8 1_555 1_555
C5 C6 1_555 1_555
O6 K2B 1_555 1_555
C12 C17 1_555 1_555
C16 C17 1_555 1_555
C23 C28 1_555 1_555
C27 C28 1_555 1_555
C34 C39 1_555 1_555
C38 C39 1_555 1_555
C49 C55 1_555 1_555
C49 C50B 1_555 1_555
K1B O5B 1_555 1_555
K1B O6B 1_555 1_555
O1B K2B 1_555 1_555
K2B O8B 1_555 1_555
O5B C50B 1_555 1_555
C5B C6B 1_555 1_555
C12B C17B 1_555 1_555
C16B C17B 1_555 1_555
C23B C28B 1_555 1_555
C27B C28B 1_555 1_555
C34B C39B 1_555 1_555
C38B C39B 1_555 1_555
C44B C45B 1_555 1_555
C48B C49B 1_555 1_555
C49B C55B 1_555 1_555

#END
