
#######################################################################
#
#                 Cambridge Crystallographic Data Centre
#                                CCDC 
#
#######################################################################
#
# If this CIF has been generated from an entry in the Cambridge 
# Structural Database, then it will include bibliographic, chemical, 
# crystal, experimental, refinement or atomic coordinate data resulting 
# from the CCDC's data processing and validation procedures.
#
#######################################################################

data_FOTCOH
_chemical_formula_moiety         'C67 H99 Na3 O10 S4,2(C4 H8 O1)'
_chemical_name_systematic        
'(\m~3~-5,11,17,23,29-Penta-t-butyl-31,32-dihydroxy-33,34,35-trioxycalix(5)arene)-(\m~3~-dimethylsulfoxide)-(\m~2~-dimethylsulfoxide)-bis(dimethylsulfoxide)-(tetrahydrofuran)-tri-sodium tetrahydrofuran solvate'
_symmetry_cell_setting           monoclinic
_symmetry_space_group_name_H-M   'C 2/m'
_symmetry_Int_Tables_number      12
_space_group_name_Hall           '-C 2y'
loop_
_symmetry_equiv_pos_site_id
_symmetry_equiv_pos_as_xyz
1 x,y,z
2 -x,y,-z
3 1/2+x,1/2+y,z
4 1/2-x,1/2+y,-z
5 -x,-y,-z
6 x,-y,z
7 1/2-x,1/2-y,-z
8 1/2+x,1/2-y,z
_cell_length_a                   25.352(8)
_cell_length_b                   18.019(5)
_cell_length_c                   20.226(6)
_cell_angle_alpha                90
_cell_angle_beta                 119.548(4)
_cell_angle_gamma                90
_cell_volume                     8037.92
_exptl_crystal_colour            colorless
_exptl_crystal_description       block
_cell_formula_units_Z            4
loop_
_atom_site_label
_atom_site_type_symbol
_atom_site_fract_x
_atom_site_fract_y
_atom_site_fract_z
S1 S 0.43055(7) 0.24698(8) 0.01479(9)
S2 S 0.48205(10) 0.0000 0.12493(14)
S3 S 0.24101(6) 0.0000 0.03635(7)
Na1 Na 0.23335(9) 0.0000 -0.13683(11)
Na2 Na 0.34865(6) 0.08493(9) -0.00751(8)
O1 O 0.17402(10) 0.09786(13) -0.10535(14)
H1 H 0.2017 0.1173 -0.1099
O2 O 0.26442(11) 0.14639(15) -0.10516(14)
O3 O 0.34557(16) 0.0000 -0.09380(19)
O4 O 0.1718(2) 0.0000 -0.2660(2)
O5 O 0.41751(16) 0.17680(19) 0.0421(2)
O6 O 0.41369(19) 0.0000 0.0913(3)
O7 O 0.27897(15) 0.0000 -0.0022(2)
C1 C 0.12026(15) 0.11999(18) -0.1627(2)
C2 C 0.07011(15) 0.07250(18) -0.19123(19)
C3 C 0.01620(16) 0.0947(2) -0.2528(2)
H3 H -0.0173 0.0625 -0.2711
C4 C 0.00903(17) 0.1621(2) -0.2887(2)
C5 C 0.05806(17) 0.2101(2) -0.2564(2)
H4 H 0.0538 0.2576 -0.2777
C6 C 0.11231(16) 0.19146(19) -0.1948(2)
C7 C -0.0496(2) 0.1841(3) -0.3600(3)
C8 C -0.0802(3) 0.2472(4) -0.3399(6)
H5 H -0.0780 0.2365 -0.2916
H6 H -0.1223 0.2512 -0.3792
H7 H -0.0595 0.2936 -0.3362
C9 C -0.0955(3) 0.1203(4) -0.3930(4)
H8 H -0.0754 0.0761 -0.3968
H9 H -0.1279 0.1340 -0.4431
H10 H -0.1124 0.1105 -0.3600
C10 C -0.0346(3) 0.2074(6) -0.4229(4)
H11 H -0.0096 0.1696 -0.4280
H12 H -0.0129 0.2542 -0.4091
H13 H -0.0719 0.2129 -0.4708
C11 C 0.16400(18) 0.24676(19) -0.1598(2)
H14 H 0.1872 0.2382 -0.1049
H15 H 0.1471 0.2970 -0.1679
C12 C 0.20679(17) 0.24252(19) -0.1920(2)
C13 C 0.19563(19) 0.2865(2) -0.2538(2)
H16 H 0.1619 0.3183 -0.2741
C14 C 0.2322(2) 0.2854(2) -0.2869(3)
C15 C 0.2837(2) 0.2396(2) -0.2518(2)
H17 H 0.3114 0.2405 -0.2700
C16 C 0.29532(17) 0.1931(2) -0.1912(2)
C17 C 0.25527(16) 0.1926(2) -0.1620(2)
C18 C 0.2190(3) 0.3300(3) -0.3573(3)
C19 C 0.1579(5) 0.3641(7) -0.3962(6)
H18 H 0.1569 0.4060 -0.3668
H19 H 0.1280 0.3277 -0.4011
H20 H 0.1487 0.3809 -0.4464
C20 C 0.2200(5) 0.2766(5) -0.4169(4)
H21 H 0.1941 0.2343 -0.4238
H22 H 0.2611 0.2598 -0.3992
H23 H 0.2052 0.3025 -0.4648
C21 C 0.2683(5) 0.3871(5) -0.3362(5)
H24 H 0.2670 0.4226 -0.3010
H25 H 0.2622 0.4128 -0.3816
H26 H 0.3075 0.3627 -0.3124
C22 C 0.34913(16) 0.1419(2) -0.1612(2)
H27 H 0.3641 0.1336 -0.1069
H28 H 0.3815 0.1665 -0.1661
C23 C 0.33623(15) 0.0669(2) -0.2010(2)
C24 C 0.32368(17) 0.0650(2) -0.2759(2)
H29 H 0.3204 0.1104 -0.3006
C25 C 0.3157(3) 0.0000 -0.3164(3)
C26 C 0.3006(3) 0.0000 -0.3988(4)
C27 C 0.3557(8) 0.0000 -0.4067(13)
H30 H 0.3770 0.0467 -0.3880
H31 H 0.3452 0.0000 -0.4598
C28 C 0.2552(6) 0.0578(8) -0.4433(8)
H32 H 0.2467 0.0565 -0.4956
H33 H 0.2711 0.1062 -0.4217
H34 H 0.2182 0.0485 -0.4417
C29 C 0.3393(2) 0.0000 -0.1626(3)
C30 C 0.0743(2) 0.0000 -0.1492(3)
H35 H 0.0418 0.0000 -0.1363
H36 H 0.1129 0.0000 -0.1013
C31 C 0.1542(4) 0.0625(4) -0.3133(3)
H37 H 0.1876 0.0792 -0.3209
H38 H 0.1432 0.1032 -0.2902
C32 C 0.1023(4) 0.0414(5) -0.3854(4)
H39 H 0.1065 0.0607 -0.4279
H40 H 0.0647 0.0607 -0.3895
C33 C 0.3696(3) 0.3053(4) -0.0079(4)
H41 H 0.3832 0.3565 -0.0002
H42 H 0.3524 0.2940 0.0245
H43 H 0.3390 0.2980 -0.0606
C34 C 0.4853(3) 0.2945(4) 0.0973(4)
H44 H 0.4756 0.3470 0.0924
H45 H 0.5252 0.2877 0.1028
H46 H 0.4849 0.2749 0.1417
C35 C 0.5123(4) -0.0717(6) 0.1845(6)
H47 H 0.5551 -0.0624 0.2186
H48 H 0.5077 -0.1165 0.1556
H49 H 0.4917 -0.0778 0.2138
C36 C 0.2704(3) 0.0747(4) 0.1024(4)
H50 H 0.2553 0.0710 0.1380
H51 H 0.2575 0.1215 0.0753
H52 H 0.3143 0.0723 0.1299
S1E S 0.43055(7) -0.24698(8) 0.01479(9)
Na2E Na 0.34865(6) -0.08493(9) -0.00751(8)
O1E O 0.17402(10) -0.09786(13) -0.10535(14)
H1E H 0.2017 -0.1173 -0.1099
O2E O 0.26442(11) -0.14639(15) -0.10516(14)
O5E O 0.41751(16) -0.17680(19) 0.0421(2)
C1E C 0.12026(15) -0.11999(18) -0.1627(2)
C2E C 0.07011(15) -0.07250(18) -0.19123(19)
C3E C 0.01620(16) -0.0947(2) -0.2528(2)
H3E H -0.0173 -0.0625 -0.2711
C4E C 0.00903(17) -0.1621(2) -0.2887(2)
C5E C 0.05806(17) -0.2101(2) -0.2564(2)
H4E H 0.0538 -0.2576 -0.2777
C6E C 0.11231(16) -0.19146(19) -0.1948(2)
C7E C -0.0496(2) -0.1841(3) -0.3600(3)
C8E C -0.0802(3) -0.2472(4) -0.3399(6)
H5E H -0.0780 -0.2365 -0.2916
H6E H -0.1223 -0.2512 -0.3792
H7E H -0.0595 -0.2936 -0.3362
C9E C -0.0955(3) -0.1203(4) -0.3930(4)
H8E H -0.0754 -0.0761 -0.3968
H9E H -0.1279 -0.1340 -0.4431
H10E H -0.1124 -0.1105 -0.3600
C10E C -0.0346(3) -0.2074(6) -0.4229(4)
H11E H -0.0096 -0.1696 -0.4280
H12E H -0.0129 -0.2542 -0.4091
H13E H -0.0719 -0.2129 -0.4708
C11E C 0.16400(18) -0.24676(19) -0.1598(2)
H14E H 0.1872 -0.2382 -0.1049
H15E H 0.1471 -0.2970 -0.1679
C12E C 0.20679(17) -0.24252(19) -0.1920(2)
C13E C 0.19563(19) -0.2865(2) -0.2538(2)
H16E H 0.1619 -0.3183 -0.2741
C14E C 0.2322(2) -0.2854(2) -0.2869(3)
C15E C 0.2837(2) -0.2396(2) -0.2518(2)
H17E H 0.3114 -0.2405 -0.2700
C16E C 0.29532(17) -0.1931(2) -0.1912(2)
C17E C 0.25527(16) -0.1926(2) -0.1620(2)
C18E C 0.2190(3) -0.3300(3) -0.3573(3)
C19E C 0.1579(5) -0.3641(7) -0.3962(6)
H18E H 0.1569 -0.4060 -0.3668
H19E H 0.1280 -0.3277 -0.4011
H20E H 0.1487 -0.3809 -0.4464
C20E C 0.2200(5) -0.2766(5) -0.4169(4)
H21E H 0.1941 -0.2343 -0.4238
H22E H 0.2611 -0.2598 -0.3992
H23E H 0.2052 -0.3025 -0.4648
C21E C 0.2683(5) -0.3871(5) -0.3362(5)
H24E H 0.2670 -0.4226 -0.3010
H25E H 0.2622 -0.4128 -0.3816
H26E H 0.3075 -0.3627 -0.3124
C22E C 0.34913(16) -0.1419(2) -0.1612(2)
H27E H 0.3641 -0.1336 -0.1069
H28E H 0.3815 -0.1665 -0.1661
C23E C 0.33623(15) -0.0669(2) -0.2010(2)
C24E C 0.32368(17) -0.0650(2) -0.2759(2)
H29E H 0.3204 -0.1104 -0.3006
H30E H 0.3770 -0.0467 -0.3880
C28E C 0.2552(6) -0.0578(8) -0.4433(8)
H32E H 0.2467 -0.0565 -0.4956
H33E H 0.2711 -0.1062 -0.4217
H34E H 0.2182 -0.0485 -0.4417
C31E C 0.1542(4) -0.0625(4) -0.3133(3)
H37E H 0.1876 -0.0792 -0.3209
H38E H 0.1432 -0.1032 -0.2902
C32E C 0.1023(4) -0.0414(5) -0.3854(4)
H39E H 0.1065 -0.0607 -0.4279
H40E H 0.0647 -0.0607 -0.3895
C33E C 0.3696(3) -0.3053(4) -0.0079(4)
H41E H 0.3832 -0.3565 -0.0002
H42E H 0.3524 -0.2940 0.0245
H43E H 0.3390 -0.2980 -0.0606
C34E C 0.4853(3) -0.2945(4) 0.0973(4)
H44E H 0.4756 -0.3470 0.0924
H45E H 0.5252 -0.2877 0.1028
H46E H 0.4849 -0.2749 0.1417
C35E C 0.5123(4) 0.0717(6) 0.1845(6)
H47E H 0.5551 0.0624 0.2186
H48E H 0.5077 0.1165 0.1556
H49E H 0.4917 0.0778 0.2138
C36E C 0.2704(3) -0.0747(4) 0.1024(4)
H50E H 0.2553 -0.0710 0.1380
H51E H 0.2575 -0.1215 0.0753
H52E H 0.3143 -0.0723 0.1299
O8 O 0.0803(10) 0.5000 -0.2833(12)
C37 C 0.0473(8) 0.4343(9) -0.3215(9)
H53 H 0.0261 0.4142 -0.2959
H54 H 0.0751 0.3963 -0.3210
C38 C 0.0032(9) 0.4550(9) -0.4003(10)
H55 H -0.0372 0.4357 -0.4147
H56 H 0.0157 0.4357 -0.4358
C37E C 0.0473(8) 0.5657(9) -0.3215(9)
H53E H 0.0261 0.5858 -0.2959
H54E H 0.0751 0.6037 -0.3210
C38E C 0.0032(9) 0.5450(9) -0.4003(10)
H55E H -0.0372 0.5643 -0.4147
H56E H 0.0157 0.5643 -0.4358
O9 O 0.3919(7) 0.5000 -0.1926(9)
C39 C 0.3810(8) 0.5594(10) -0.1473(9)
H57 H 0.3840 0.6095 -0.1641
H58 H 0.3416 0.5534 -0.1499
C40 C 0.4267(8) 0.5447(7) -0.0783(8)
H59 H 0.4192 0.5646 -0.0386
H60 H 0.4651 0.5646 -0.0715
C39E C 0.3810(8) 0.4406(10) -0.1473(9)
H57E H 0.3840 0.3905 -0.1641
H58E H 0.3416 0.4466 -0.1499
C40E C 0.4267(8) 0.4553(7) -0.0783(8)
H59E H 0.4192 0.4354 -0.0386
H60E H 0.4651 0.4354 -0.0715
H2? H 0.3822 0.0000 -0.0616
C41? C 0.2366(9) 0.0000 -0.4535(16)
C42? C 0.3315(9) 0.0626(9) -0.4161(11)
H61? H 0.2173 -0.0416 -0.4435
H62? H 0.2309 0.0000 -0.5044
H63? H 0.3209 0.0603 -0.4692
H64? H 0.3751 0.0580 -0.3843
H65? H 0.3183 0.1097 -0.4061
loop_
_geom_bond_atom_site_label_1
_geom_bond_atom_site_label_2
_geom_bond_site_symmetry_1
_geom_bond_site_symmetry_2
S1 O5 1_555 1_555
S2 O6 1_555 1_555
S3 O7 1_555 1_555
Na1 Na2 1_555 1_555
Na2 O2 1_555 1_555
O1 Na1 1_555 1_555
H1 O1 1_555 1_555
O2 Na1 1_555 1_555
O3 Na1 1_555 1_555
O4 Na1 1_555 1_555
O5 Na2 1_555 1_555
O6 Na2 1_555 1_555
O7 Na1 1_555 1_555
O8 C37 1_555 1_555
O9 C39 1_555 1_555
C1 O1 1_555 1_555
C2 C1 1_555 1_555
C3 C2 1_555 1_555
H3 C3 1_555 1_555
C4 C3 1_555 1_555
C5 C4 1_555 1_555
H4 C5 1_555 1_555
C6 C1 1_555 1_555
C7 C4 1_555 1_555
C8 C7 1_555 1_555
H5 C8 1_555 1_555
H6 C8 1_555 1_555
H7 C8 1_555 1_555
C9 C7 1_555 1_555
H8 C9 1_555 1_555
H9 C9 1_555 1_555
H10 C9 1_555 1_555
C10 C7 1_555 1_555
H11 C10 1_555 1_555
H12 C10 1_555 1_555
H13 C10 1_555 1_555
C11 C6 1_555 1_555
H14 C11 1_555 1_555
H15 C11 1_555 1_555
C12 C11 1_555 1_555
C13 C12 1_555 1_555
H16 C13 1_555 1_555
C14 C13 1_555 1_555
C15 C14 1_555 1_555
H17 C15 1_555 1_555
C16 C15 1_555 1_555
C17 O2 1_555 1_555
C18 C14 1_555 1_555
C19 C18 1_555 1_555
H18 C19 1_555 1_555
H19 C19 1_555 1_555
H20 C19 1_555 1_555
C20 C18 1_555 1_555
H21 C20 1_555 1_555
H22 C20 1_555 1_555
H23 C20 1_555 1_555
C21 C18 1_555 1_555
H24 C21 1_555 1_555
H25 C21 1_555 1_555
H26 C21 1_555 1_555
C22 C16 1_555 1_555
H27 C22 1_555 1_555
H28 C22 1_555 1_555
C23 C22 1_555 1_555
C24 C23 1_555 1_555
H29 C24 1_555 1_555
C25 C24 1_555 1_555
C26 C25 1_555 1_555
C27 C26 1_555 1_555
H30 C27 1_555 1_555
H31 C27 1_555 1_555
C28 C26 1_555 1_555
H32 C28 1_555 1_555
H33 C28 1_555 1_555
H34 C28 1_555 1_555
C29 O3 1_555 1_555
C30 C2 1_555 1_555
H35 C30 1_555 1_555
H36 C30 1_555 1_555
C31 O4 1_555 1_555
H37 C31 1_555 1_555
H38 C31 1_555 1_555
C32 C31 1_555 1_555
H39 C32 1_555 1_555
H40 C32 1_555 1_555
C33 S1 1_555 1_555
H41 C33 1_555 1_555
H42 C33 1_555 1_555
H43 C33 1_555 1_555
C34 S1 1_555 1_555
H44 C34 1_555 1_555
H45 C34 1_555 1_555
H46 C34 1_555 1_555
C35 S2 1_555 1_555
H47 C35 1_555 1_555
H48 C35 1_555 1_555
H49 C35 1_555 1_555
C36 S3 1_555 1_555
H50 C36 1_555 1_555
H51 C36 1_555 1_555
H52 C36 1_555 1_555
C37 H53 1_555 1_555
H54 C37 1_555 1_555
C38 C37 1_555 1_555
H55 C38 1_555 1_555
H56 C38 1_555 1_555
C39 H57 1_555 1_555
H58 C39 1_555 1_555
C40 C39 1_555 1_555
H59 C40 1_555 1_555
H60 C40 1_555 1_555
S1E O5E 1_555 1_555
Na2E Na1 1_555 1_555
O1E Na1 1_555 1_555
H1E O1E 1_555 1_555
O2E Na1 1_555 1_555
O5E Na2E 1_555 1_555
C1E O1E 1_555 1_555
C2E C30 1_555 1_555
C3E C2E 1_555 1_555
H3E C3E 1_555 1_555
C4E C3E 1_555 1_555
C5E C4E 1_555 1_555
H4E C5E 1_555 1_555
C6E C1E 1_555 1_555
C7E C4E 1_555 1_555
C8E C7E 1_555 1_555
H5E C8E 1_555 1_555
H6E C8E 1_555 1_555
H7E C8E 1_555 1_555
C9E C7E 1_555 1_555
H8E C9E 1_555 1_555
H9E C9E 1_555 1_555
H10E C9E 1_555 1_555
C10E C7E 1_555 1_555
H11E C10E 1_555 1_555
H12E C10E 1_555 1_555
H13E C10E 1_555 1_555
C11E C6E 1_555 1_555
H14E C11E 1_555 1_555
H15E C11E 1_555 1_555
C12E C11E 1_555 1_555
C13E C12E 1_555 1_555
H16E C13E 1_555 1_555
C14E C13E 1_555 1_555
C15E C14E 1_555 1_555
H17E C15E 1_555 1_555
C16E C15E 1_555 1_555
C17E O2E 1_555 1_555
C18E C14E 1_555 1_555
C19E C18E 1_555 1_555
H18E C19E 1_555 1_555
H19E C19E 1_555 1_555
H20E C19E 1_555 1_555
C20E C18E 1_555 1_555
H21E C20E 1_555 1_555
H22E C20E 1_555 1_555
H23E C20E 1_555 1_555
C21E C18E 1_555 1_555
H24E C21E 1_555 1_555
H25E C21E 1_555 1_555
H26E C21E 1_555 1_555
C22E C16E 1_555 1_555
H27E C22E 1_555 1_555
H28E C22E 1_555 1_555
C23E C29 1_555 1_555
C24E C25 1_555 1_555
H29E C24E 1_555 1_555
H30E C27 1_555 1_555
C28E C26 1_555 1_555
H32E C28E 1_555 1_555
H33E C28E 1_555 1_555
H34E C28E 1_555 1_555
C31E O4 1_555 1_555
H37E C31E 1_555 1_555
H38E C31E 1_555 1_555
C32E C32 1_555 1_555
H39E C32E 1_555 1_555
H40E C32E 1_555 1_555
C33E S1E 1_555 1_555
H41E C33E 1_555 1_555
H42E C33E 1_555 1_555
H43E C33E 1_555 1_555
C34E S1E 1_555 1_555
H44E C34E 1_555 1_555
H45E C34E 1_555 1_555
H46E C34E 1_555 1_555
C35E S2 1_555 1_555
H47E C35E 1_555 1_555
H48E C35E 1_555 1_555
H49E C35E 1_555 1_555
C36E S3 1_555 1_555
H50E C36E 1_555 1_555
H51E C36E 1_555 1_555
H52E C36E 1_555 1_555
C37E O8 1_555 1_555
H53E C37E 1_555 1_555
H54E C37E 1_555 1_555
C38E C38 1_555 1_555
H55E C38E 1_555 1_555
H56E C38E 1_555 1_555
C39E O9 1_555 1_555
H57E C39E 1_555 1_555
H58E C39E 1_555 1_555
C40E C40 1_555 1_555
H59E C40E 1_555 1_555
H60E C40E 1_555 1_555
Na2 O3 1_555 1_555
Na2 O7 1_555 1_555
Na2 Na2E 1_555 1_555
O3 Na2E 1_555 1_555
O6 Na2E 1_555 1_555
O7 Na2E 1_555 1_555
C5 C6 1_555 1_555
C12 C17 1_555 1_555
C16 C17 1_555 1_555
C23 C29 1_555 1_555
Na2E O2E 1_555 1_555
C1E C2E 1_555 1_555
C5E C6E 1_555 1_555
C12E C17E 1_555 1_555
C16E C17E 1_555 1_555
C22E C23E 1_555 1_555
C23E C24E 1_555 1_555
C31E C32E 1_555 1_555
C37E C38E 1_555 1_555
C39E C40E 1_555 1_555

#END
