
#######################################################################
#
#                 Cambridge Crystallographic Data Centre
#                                CCDC 
#
#######################################################################
#
# If this CIF has been generated from an entry in the Cambridge 
# Structural Database, then it will include bibliographic, chemical, 
# crystal, experimental, refinement or atomic coordinate data resulting 
# from the CCDC's data processing and validation procedures.
#
#######################################################################

data_FOTCUN
_chemical_formula_moiety         'C126 H166 Na6 O14,3.5(C4 H8 O1)'
_chemical_name_systematic        
'bis(\m~5~-5,11,17,23,29-Penta-t-butyl-31,32-dihydroxy-33,34,35-trioxycalix(5)arene)-tetrakis(tetrahydrofuran)-hexa-sodium tetrahydrofuran solvate'
_symmetry_cell_setting           triclinic
_symmetry_space_group_name_H-M   'P -1'
_symmetry_Int_Tables_number      2
_space_group_name_Hall           '-P 1'
loop_
_symmetry_equiv_pos_site_id
_symmetry_equiv_pos_as_xyz
1 x,y,z
2 -x,-y,-z
_cell_length_a                   18.031(6)
_cell_length_b                   18.856(6)
_cell_length_c                   23.754(7)
_cell_angle_alpha                108.640(5)
_cell_angle_beta                 93.571(6)
_cell_angle_gamma                111.761(5)
_cell_volume                     6955.64
_exptl_crystal_colour            colorless
_exptl_crystal_description       block
_cell_formula_units_Z            2
loop_
_atom_site_label
_atom_site_type_symbol
_atom_site_fract_x
_atom_site_fract_y
_atom_site_fract_z
Na4 Na 0.44905(12) 0.32768(15) 0.50386(11)
Na5 Na 0.41174(9) 0.49259(9) 0.49411(6)
Na6 Na 0.54175(9) 0.63677(9) 0.64348(7)
O6 O 0.46263(16) 0.69591(16) 0.61512(12)
H7 H 0.4440 0.6666 0.5787
O7 O 0.65430(15) 0.72239(16) 0.62204(12)
H8 H 0.6664 0.6997 0.5901
O8 O 0.32792(16) 0.36312(17) 0.47329(12)
O9 O 0.50243(15) 0.50767(15) 0.57351(11)
C12 C 0.1699(9) 0.6133(10) 0.2891(6)
H11 H 0.1250 0.5608 0.2813
H12 H 0.2183 0.6047 0.2798
H13 H 0.1558 0.6397 0.2637
O10 O 0.59373(18) 0.38788(18) 0.49578(12)
O11 O 0.5148(2) 0.6431(2) 0.73605(14)
O12 O 0.3816(3) 0.2014(3) 0.5066(2)
C65 C 0.3245(2) 0.7113(3) 0.56519(19)
H89 H 0.3196 0.6689 0.5820
H90 H 0.2806 0.7289 0.5750
C66 C 0.4042(2) 0.7830(3) 0.59628(18)
C67 C 0.4145(3) 0.8619(3) 0.6018(2)
H91 H 0.3720 0.8684 0.5820
C68 C 0.4828(3) 0.9300(3) 0.6345(2)
C69 C 0.5417(3) 0.9186(3) 0.6658(2)
H92 H 0.5879 0.9652 0.6911
C70 C 0.5360(2) 0.8414(2) 0.66174(17)
C71 C 0.4689(2) 0.7734(2) 0.62436(17)
C72 C 0.6014(2) 0.8356(2) 0.70135(18)
H93 H 0.5828 0.7787 0.6990
H94 H 0.6068 0.8700 0.7436
C73 C 0.6845(2) 0.8611(2) 0.68538(17)
C74 C 0.7396(2) 0.9413(3) 0.71014(18)
H95 H 0.7233 0.9798 0.7359
C75 C 0.8185(3) 0.9695(3) 0.69955(19)
C76 C 0.8404(2) 0.9093(3) 0.66397(18)
H96 H 0.8937 0.9253 0.6566
C77 C 0.7882(2) 0.8268(3) 0.63870(17)
C78 C 0.7080(2) 0.8021(2) 0.64753(17)
C79 C 0.8198(2) 0.7644(3) 0.60762(17)
H97 H 0.8785 0.7873 0.6241
H98 H 0.7937 0.7159 0.6181
C80 C 0.8068(2) 0.7361(3) 0.53829(17)
C81 C 0.8672(2) 0.7752(3) 0.51181(18)
H99 H 0.9141 0.8210 0.5370
C82 C 0.8610(2) 0.7493(3) 0.44933(18)
C83 C 0.7940(2) 0.6768(2) 0.41492(17)
H100 H 0.7905 0.6544 0.3729
C84 C 0.7317(2) 0.6360(2) 0.43995(16)
C85 C 0.2641(2) 0.3302(2) 0.49834(17)
C86 C 0.6614(2) 0.5579(2) 0.39933(17)
H101 H 0.6797 0.5314 0.3638
H102 H 0.6443 0.5204 0.4213
C87 C 0.5879(2) 0.5719(2) 0.37788(16)
C88 C 0.5994(2) 0.6188(2) 0.34129(17)
H103 H 0.6512 0.6400 0.3322
C89 C 0.4942(3) 1.0169(3) 0.6405(3)
C90 C 0.4152(7) 1.0281(9) 0.6382(7)
H104 H 0.4073 1.0498 0.6792
H105 H 0.4178 1.0663 0.6182
H106 H 0.3699 0.9756 0.6158
C91 C 0.5206(7) 1.0727(5) 0.7111(5)
H107 H 0.5714 1.0736 0.7281
H108 H 0.5280 1.1283 0.7163
H109 H 0.4784 1.0503 0.7319
C92 C 0.5782(8) 1.0658(9) 0.6313(7)
H110 H 0.6190 1.0548 0.6512
H111 H 0.5782 1.0498 0.5882
H112 H 0.5908 1.1241 0.6485
C93 C 0.8765(3) 1.0602(3) 0.7278(2)
C94 C 0.8431(7) 1.1078(7) 0.7019(5)
H113 H 0.7872 1.0952 0.7069
H114 H 0.8760 1.1662 0.7229
H115 H 0.8444 1.0928 0.6590
C95 C 0.8874(5) 1.0906(6) 0.7952(3)
H116 H 0.8354 1.0856 0.8064
H117 H 0.9080 1.0582 0.8106
H118 H 0.9260 1.1478 0.8124
C96 C 0.9619(5) 1.0763(6) 0.7130(4)
H119 H 0.9793 1.0358 0.7189
H120 H 0.9599 1.0722 0.6712
H121 H 1.0003 1.1309 0.7397
C97 C 0.9235(2) 0.7957(3) 0.41909(18)
C98 C 0.9833(6) 0.8799(6) 0.4633(4)
H122 H 0.9631 0.8940 0.5004
H123 H 1.0360 0.8789 0.4726
H124 H 0.9889 0.9206 0.4453
C99 C 0.8787(6) 0.8122(6) 0.3722(4)
H125 H 0.8572 0.8516 0.3924
H126 H 0.9160 0.8342 0.3482
H127 H 0.8340 0.7613 0.3458
C100 C 0.9671(6) 0.7455(6) 0.3896(5)
H128 H 1.0058 0.7465 0.4204
H129 H 0.9281 0.6893 0.3673
H130 H 0.9960 0.7679 0.3619
C101 C 0.5385(2) 0.6353(3) 0.31796(19)
C102 C 0.4633(2) 0.6022(2) 0.33208(18)
H131 H 0.4206 0.6128 0.3173
C103 C 0.4477(2) 0.5533(2) 0.36759(16)
C104 C 0.4895(2) 0.4625(2) 0.60809(15)
C105 C 0.3608(2) 0.5171(2) 0.37638(17)
H132 H 0.3250 0.4812 0.3366
H133 H 0.3580 0.4829 0.4005
C106 C 0.3290(2) 0.5800(2) 0.40730(18)
C107 C 0.2771(2) 0.5956(3) 0.3727(2)
H134 H 0.2645 0.5679 0.3304
C108 C 0.2425(3) 0.6506(4) 0.3977(2)
C109 C 0.2606(3) 0.6867(3) 0.4602(2)
H135 H 0.2371 0.7228 0.4789
C110 C 0.3114(2) 0.6725(3) 0.49616(19)
C111 C 0.6493(2) 0.3781(3) 0.52965(17)
C112 C 0.5552(3) 0.6863(3) 0.2776(2)
C113 C 0.5775(4) 0.6411(5) 0.2202(3)
H136 H 0.5338 0.5869 0.1995
H137 H 0.6275 0.6359 0.2310
H138 H 0.5854 0.6719 0.1935
C114 C 0.6286(4) 0.7686(4) 0.3104(3)
H139 H 0.6157 0.8003 0.3463
H140 H 0.6412 0.7989 0.2835
H141 H 0.6753 0.7589 0.3222
C115 C 0.4839(4) 0.7048(4) 0.2618(3)
H142 H 0.4375 0.6539 0.2379
H143 H 0.4985 0.7401 0.2385
H144 H 0.4698 0.7324 0.2987
C116 C 0.1876(5) 0.6706(6) 0.3589(3)
C117 C 0.1992(7) 0.7587(7) 0.3868(5)
H145 H 0.1736 0.7657 0.4217
H146 H 0.1744 0.7730 0.3571
H147 H 0.2570 0.7943 0.3996
C118 C 0.0985(6) 0.6283(8) 0.3727(6)
H148 H 0.1044 0.6289 0.4138
H149 H 0.0711 0.5720 0.3442
H150 H 0.0666 0.6586 0.3685
C119 C 0.4742(6) 0.6901(5) 0.7678(3)
H151 H 0.5099 0.7489 0.7820
H152 H 0.4247 0.6796 0.7409
C120 C 0.4531(3) 0.6664(3) 0.8192(2)
H153 H 0.4867 0.7107 0.8575
H154 H 0.3955 0.6538 0.8203
C121 C 0.4696(3) 0.5922(4) 0.8096(3)
H155 H 0.4201 0.5418 0.7886
H156 H 0.4906 0.5913 0.8483
C122 C 0.5317(3) 0.6010(3) 0.7716(2)
H157 H 0.5275 0.5470 0.7456
H158 H 0.5867 0.6326 0.7970
C123 C 0.4054(8) 0.1355(7) 0.4868(6)
H159 H 0.4409 0.1358 0.5199
H160 H 0.4338 0.1376 0.4531
C124 C 0.3252(7) 0.0616(6) 0.4667(5)
H161 H 0.3066 0.0424 0.4227
H162 H 0.3317 0.0171 0.4761
C125 C 0.2656(9) 0.0831(7) 0.4974(6)
H163 H 0.2129 0.0595 0.4695
H164 H 0.2581 0.0642 0.5314
C126 C 0.3004(5) 0.1691(6) 0.5178(4)
H165 H 0.3024 0.1917 0.5615
H166 H 0.2658 0.1868 0.4973
Na4A Na 0.55095(12) 0.67232(15) 0.49614(11)
Na5A Na 0.58826(9) 0.50741(9) 0.50589(6)
Na6A Na 0.45825(9) 0.36323(9) 0.35652(7)
O6A O 0.53737(16) 0.30409(16) 0.38488(12)
H7A H 0.5560 0.3334 0.4213
O7A O 0.34570(15) 0.27761(16) 0.37796(12)
H8A H 0.3336 0.3003 0.4099
O8A O 0.67208(16) 0.63688(17) 0.52671(12)
O9A O 0.49757(15) 0.49233(15) 0.42649(11)
C12A C 0.8301(9) 0.3867(10) 0.7109(6)
H11A H 0.8750 0.4392 0.7187
H12A H 0.7817 0.3953 0.7202
H13A H 0.8442 0.3603 0.7363
O10A O 0.40627(18) 0.61212(18) 0.50422(12)
O11A O 0.4852(2) 0.3569(2) 0.26395(14)
O12A O 0.6184(3) 0.7986(3) 0.4934(2)
C65A C 0.6755(2) 0.2887(3) 0.43481(19)
H89A H 0.6804 0.3311 0.4180
H90A H 0.7194 0.2711 0.4250
C66A C 0.5958(2) 0.2170(3) 0.40372(18)
C67A C 0.5855(3) 0.1381(3) 0.3982(2)
H91A H 0.6280 0.1316 0.4180
C68A C 0.5172(3) 0.0700(3) 0.3655(2)
C69A C 0.4583(3) 0.0814(3) 0.3342(2)
H92A H 0.4121 0.0348 0.3089
C70A C 0.4640(2) 0.1586(2) 0.33826(17)
C71A C 0.5311(2) 0.2266(2) 0.37564(17)
C72A C 0.3986(2) 0.1644(2) 0.29865(18)
H93A H 0.4172 0.2213 0.3010
H94A H 0.3932 0.1300 0.2564
C73A C 0.3155(2) 0.1389(2) 0.31462(17)
C74A C 0.2604(2) 0.0587(3) 0.28986(18)
H95A H 0.2767 0.0202 0.2641
C75A C 0.1815(3) 0.0305(3) 0.30045(19)
C76A C 0.1596(2) 0.0907(3) 0.33603(18)
H96A H 0.1063 0.0747 0.3434
C77A C 0.2118(2) 0.1732(3) 0.36130(17)
C78A C 0.2920(2) 0.1979(2) 0.35247(17)
C79A C 0.1802(2) 0.2356(3) 0.39238(17)
H97A H 0.1215 0.2127 0.3759
H98A H 0.2063 0.2841 0.3819
C80A C 0.1932(2) 0.2639(3) 0.46171(17)
C81A C 0.1328(2) 0.2248(3) 0.48819(18)
H99A H 0.0859 0.1790 0.4630
C82A C 0.1390(2) 0.2507(3) 0.55067(18)
C83A C 0.2060(2) 0.3232(2) 0.58508(17)
H100A H 0.2095 0.3456 0.6271
C84A C 0.2683(2) 0.3640(2) 0.56005(16)
C85A C 0.7359(2) 0.6698(2) 0.50166(17)
C86A C 0.3386(2) 0.4421(2) 0.60067(17)
H101A H 0.3203 0.4686 0.6362
H102A H 0.3557 0.4796 0.5787
C87A C 0.4121(2) 0.4281(2) 0.62212(16)
C88A C 0.4006(2) 0.3812(2) 0.65871(17)
H103A H 0.3488 0.3600 0.6678
C89A C 0.5058(3) -0.0169(3) 0.3595(3)
C90A C 0.5848(7) -0.0281(9) 0.3618(7)
H104A H 0.5927 -0.0498 0.3208
H105A H 0.5822 -0.0663 0.3818
H106A H 0.6301 0.0244 0.3842
C91A C 0.4794(7) -0.0727(5) 0.2889(5)
H107A H 0.4286 -0.0736 0.2719
H108A H 0.4720 -0.1283 0.2837
H109A H 0.5216 -0.0503 0.2681
C92A C 0.4218(8) -0.0658(9) 0.3687(7)
H110A H 0.3810 -0.0548 0.3488
H111A H 0.4218 -0.0498 0.4118
H112A H 0.4092 -0.1241 0.3515
C93A C 0.1235(3) -0.0602(3) 0.2722(2)
C94A C 0.1569(7) -0.1078(7) 0.2981(5)
H113A H 0.2128 -0.0952 0.2931
H114A H 0.1240 -0.1662 0.2771
H115A H 0.1556 -0.0928 0.3410
C95A C 0.1126(5) -0.0906(6) 0.2048(3)
H116A H 0.1646 -0.0856 0.1936
H117A H 0.0920 -0.0582 0.1894
H118A H 0.0740 -0.1478 0.1876
C96A C 0.0381(5) -0.0763(6) 0.2870(4)
H119A H 0.0207 -0.0358 0.2811
H120A H 0.0401 -0.0722 0.3288
H121A H -0.0003 -0.1309 0.2603
C97A C 0.0765(2) 0.2043(3) 0.58091(18)
C98A C 0.0167(6) 0.1201(6) 0.5367(4)
H122A H 0.0369 0.1060 0.4996
H123A H -0.0360 0.1211 0.5274
H124A H 0.0111 0.0794 0.5547
C99A C 0.1213(6) 0.1878(6) 0.6278(4)
H125A H 0.1428 0.1484 0.6076
H126A H 0.0840 0.1658 0.6518
H127A H 0.1660 0.2387 0.6542
C100A C 0.0329(6) 0.2545(6) 0.6104(5)
H128A H -0.0058 0.2535 0.5796
H129A H 0.0719 0.3107 0.6327
H130A H 0.0040 0.2321 0.6381
C101A C 0.4615(2) 0.3647(3) 0.68204(19)
C102A C 0.5367(2) 0.3978(2) 0.66792(18)
H131A H 0.5794 0.3872 0.6827
C103A C 0.5523(2) 0.4467(2) 0.63241(16)
C104A C 0.5105(2) 0.5375(2) 0.39191(15)
C105A C 0.6392(2) 0.4829(2) 0.62362(17)
H132A H 0.6750 0.5188 0.6634
H133A H 0.6420 0.5171 0.5995
C106A C 0.6710(2) 0.4200(2) 0.59270(18)
C107A C 0.7229(2) 0.4044(3) 0.6273(2)
H134A H 0.7355 0.4321 0.6696
C108A C 0.7575(3) 0.3494(4) 0.6023(2)
C109A C 0.7394(3) 0.3133(3) 0.5398(2)
H135A H 0.7629 0.2772 0.5211
C110A C 0.6886(2) 0.3275(3) 0.50384(19)
C111A C 0.3507(2) 0.6219(3) 0.47035(17)
C112A C 0.4448(3) 0.3137(3) 0.7224(2)
C113A C 0.4225(4) 0.3589(5) 0.7798(3)
H136A H 0.4662 0.4131 0.8005
H137A H 0.3725 0.3641 0.7690
H138A H 0.4146 0.3281 0.8065
C114A C 0.3714(4) 0.2314(4) 0.6896(3)
H139A H 0.3843 0.1997 0.6537
H140A H 0.3588 0.2011 0.7165
H141A H 0.3247 0.2411 0.6778
C115A C 0.5161(4) 0.2952(4) 0.7382(3)
H142A H 0.5625 0.3461 0.7621
H143A H 0.5015 0.2599 0.7615
H144A H 0.5302 0.2676 0.7013
C116A C 0.8124(5) 0.3294(6) 0.6411(3)
C117A C 0.8008(7) 0.2413(7) 0.6132(5)
H145A H 0.8264 0.2343 0.5783
H146A H 0.8256 0.2270 0.6429
H147A H 0.7430 0.2057 0.6004
C118A C 0.9015(6) 0.3717(8) 0.6273(6)
H148A H 0.8956 0.3711 0.5862
H149A H 0.9289 0.4280 0.6558
H150A H 0.9334 0.3414 0.6315
C119A C 0.5258(6) 0.3099(5) 0.2322(3)
H151A H 0.4901 0.2511 0.2180
H152A H 0.5753 0.3204 0.2591
C120A C 0.5469(3) 0.3336(3) 0.1808(2)
H153A H 0.5133 0.2893 0.1425
H154A H 0.6045 0.3462 0.1797
C121A C 0.5304(3) 0.4078(4) 0.1904(3)
H155A H 0.5799 0.4582 0.2114
H156A H 0.5094 0.4087 0.1517
C122A C 0.4683(3) 0.3990(3) 0.2284(2)
H157A H 0.4725 0.4530 0.2544
H158A H 0.4133 0.3674 0.2030
C123A C 0.5946(8) 0.8645(7) 0.5132(6)
H159A H 0.5591 0.8642 0.4801
H160A H 0.5662 0.8624 0.5469
C124A C 0.6748(7) 0.9384(6) 0.5333(5)
H161A H 0.6934 0.9576 0.5773
H162A H 0.6683 0.9829 0.5239
C125A C 0.7344(9) 0.9169(7) 0.5026(6)
H163A H 0.7871 0.9405 0.5305
H164A H 0.7419 0.9358 0.4686
C126A C 0.6996(5) 0.8309(6) 0.4822(4)
H165A H 0.6976 0.8083 0.4385
H166A H 0.7342 0.8132 0.5027
Na1 Na 0.49269(8) 0.92207(9) -0.05238(6)
O1 O 0.59372(16) 0.88616(17) -0.03059(12)
C1 C 0.6394(2) 0.8608(2) -0.06790(16)
Na2 Na 0.52274(9) 1.10453(10) -0.09680(7)
O2 O 0.43063(16) 1.15421(18) -0.05766(12)
H1 H 0.4195 1.1418 -0.0277
C2 C 0.6704(2) 0.9003(2) -0.10789(16)
Na3 Na 0.67119(12) 1.02385(12) 0.05865(8)
O3 O 0.41837(16) 0.99131(18) -0.16615(12)
H2 H 0.4058 0.9549 -0.1516
C3 C 0.7230(2) 0.8785(3) -0.14202(17)
H3 H 0.7436 0.9066 -0.1678
O4 O 0.38130(15) 0.88322(16) -0.12232(11)
C4 C 0.7472(2) 0.8175(3) -0.14033(17)
O5 O 0.57006(14) 1.05895(16) -0.03153(11)
C5 C 0.7103(2) 0.7740(3) -0.10428(17)
H4 H 0.7224 0.7298 -0.1037
C6 C 0.6568(2) 0.7933(2) -0.06951(16)
C7 C 0.6140(2) 0.7390(3) -0.03603(17)
H5 H 0.6130 0.6844 -0.0566
H6 H 0.5572 0.7327 -0.0401
C8 C 0.6492(2) 0.7670(2) 0.03077(17)
C9 C 0.7044(2) 0.7405(3) 0.04899(19)
H9 H 0.7232 0.7088 0.0191
C10 C 0.7342(2) 0.7586(3) 0.1104(2)
C11 C 0.7026(2) 0.8042(3) 0.15189(19)
H10 H 0.7198 0.8163 0.1933
C13 C 0.6474(2) 0.8330(2) 0.13601(18)
C14 C 0.3775(2) 1.1834(3) -0.07431(18)
C15 C 0.6126(2) 0.8775(3) 0.18415(18)
H14 H 0.5603 0.8721 0.1645
H15 H 0.6010 0.8490 0.2128
C16 C 0.6635(2) 0.9672(3) 0.22014(18)
C17 C 0.7289(3) 0.9898(3) 0.26638(19)
H16 H 0.7436 0.9487 0.2710
C18 C 0.7734(3) 1.0707(3) 0.3059(2)
C19 C 0.7485(3) 1.1283(3) 0.2990(2)
H17 H 0.7765 1.1830 0.3262
C20 C 0.6836(3) 1.1099(3) 0.25351(18)
C21 C 0.3562(2) 0.9716(3) -0.21233(17)
C22 C 0.8079(3) 0.7949(3) -0.1769(2)
C23 C 0.8573(3) 0.8630(4) -0.1981(3)
H18 H 0.8973 0.8485 -0.2188
H19 H 0.8849 0.9140 -0.1633
H20 H 0.8211 0.8699 -0.2258
C24 C 0.7598(4) 0.7186(4) -0.2341(3)
H21 H 0.7303 0.6725 -0.2226
H22 H 0.7972 0.7058 -0.2590
H23 H 0.7213 0.7292 -0.2570
C25 C 0.8654(3) 0.7783(5) -0.1396(3)
H24 H 0.8347 0.7319 -0.1287
H25 H 0.8944 0.8264 -0.1030
H26 H 0.9042 0.7658 -0.1630
C26 C 0.7948(3) 0.7281(3) 0.1286(2)
C27 C 0.8219(4) 0.7574(5) 0.1969(3)
H27 H 0.8375 0.8161 0.2149
H28 H 0.8682 0.7455 0.2059
H29 H 0.7774 0.7291 0.2135
C28 C 0.8696(4) 0.7551(6) 0.1020(4)
H30 H 0.8997 0.8142 0.1211
H31 H 0.8531 0.7401 0.0587
H32 H 0.9039 0.7284 0.1091
C29 C 0.7549(4) 0.6342(4) 0.1056(4)
H33 H 0.7396 0.6120 0.0617
H34 H 0.7067 0.6165 0.1224
H35 H 0.7933 0.6145 0.1182
C30 C 0.8433(3) 1.0924(4) 0.3572(2)
C31 C 0.8227(10) 1.0295(9) 0.3882(7)
H36 H 0.8039 0.9746 0.3577
H37 H 0.7800 1.0332 0.4104
H38 H 0.8709 1.0409 0.4161
C32 C 0.8675(11) 1.1768(8) 0.4072(7)
H39 H 0.8858 1.2190 0.3900
H40 H 0.9112 1.1865 0.4385
H41 H 0.8207 1.1783 0.4248
C33 C 0.9175(9) 1.0932(11) 0.3307(8)
H42 H 0.9006 1.0496 0.2909
H43 H 0.9538 1.0847 0.3571
H44 H 0.9458 1.1458 0.3268
C34 C 0.6516(3) 1.1733(3) 0.25340(18)
H45 H 0.5927 1.1445 0.2372
H46 H 0.6595 1.2089 0.2957
C35 C 0.6879(2) 1.2280(3) 0.21844(18)
C36 C 0.7387(3) 1.3101(3) 0.2493(2)
H47 H 0.7536 1.3294 0.2919
C37 C 0.7686(3) 1.3650(3) 0.2208(2)
C38 C 0.7431(2) 1.3336(3) 0.15751(19)
H48 H 0.7614 1.3695 0.1366
C39 C 0.6923(2) 1.2522(2) 0.12459(17)
C40 C 0.3339(2) 0.8033(2) -0.15448(17)
C41 C 0.6641(2) 1.2249(2) 0.05701(17)
H49 H 0.6784 1.2738 0.0463
H50 H 0.6045 1.1956 0.0467
C42 C 0.7001(2) 1.1703(2) 0.01950(17)
C43 C 0.7841(2) 1.2013(3) 0.02771(18)
H51 H 0.8148 1.2538 0.0574
C44 C 0.8259(2) 1.1589(3) -0.00561(19)
C45 C 0.7777(2) 1.0834(3) -0.04912(18)
H52 H 0.8035 1.0531 -0.0729
C46 C 0.6928(2) 1.0489(2) -0.06011(16)
C47 C 0.6514(2) 1.0914(2) -0.02423(16)
C48 C 0.6483(2) 0.9679(2) -0.11201(16)
H53 H 0.6597 0.9757 -0.1499
H54 H 0.5895 0.9508 -0.1140
C49 C 0.8233(3) 1.4567(3) 0.2541(2)
C50 C 0.8408(5) 1.4798(4) 0.3222(3)
H55 H 0.8758 1.5380 0.3416
H56 H 0.7900 1.4680 0.3364
H57 H 0.8679 1.4483 0.3322
C51 C 0.7795(5) 1.5085(3) 0.2407(3)
H58 H 0.8104 1.5659 0.2662
H59 H 0.7757 1.5023 0.1983
H60 H 0.7251 1.4895 0.2492
C52 C 0.9030(4) 1.4768(5) 0.2323(4)
H61 H 0.9405 1.5329 0.2567
H62 H 0.9266 1.4396 0.2361
H63 H 0.8930 1.4709 0.1901
C53 C 0.9187(2) 1.1975(3) 0.0041(2)
C54 C 0.9540(3) 1.1367(4) -0.0231(3)
H64 H 0.9351 1.0925 -0.0077
H65 H 0.9367 1.1143 -0.0669
H66 H 1.0131 1.1640 -0.0121
C55 C 0.9562(3) 1.2400(5) 0.0714(3)
H67 H 0.9409 1.1999 0.0908
H68 H 1.0152 1.2654 0.0771
H69 H 0.9366 1.2818 0.0895
C56 C 0.9430(3) 1.2616(4) -0.0256(3)
H70 H 1.0018 1.2851 -0.0216
H71 H 0.9169 1.2356 -0.0682
H72 H 0.9258 1.3047 -0.0056
O13 O 0.7907(2) 1.0245(3) 0.09216(17)
C57 C 0.8392(4) 1.0626(6) 0.1513(3)
H73 H 0.8707 1.1213 0.1605
H74 H 0.8046 1.0566 0.1812
C58 C 0.8925(5) 1.0238(9) 0.1536(4)
H75 H 0.8707 0.9823 0.1717
H76 H 0.9463 1.0643 0.1782
C59 C 0.8990(5) 0.9859(6) 0.0924(5)
H77 H 0.9458 1.0226 0.0818
H78 H 0.9046 0.9343 0.0865
C60 C 0.8227(4) 0.9709(4) 0.0567(4)
H79 H 0.7840 0.9136 0.0456
H80 H 0.8321 0.9812 0.0193
O14 O 0.6235(3) 1.1939(4) -0.1234(3)
C61 C 0.6941(5) 1.1864(8) -0.1420(5)
H81 H 0.6773 1.1371 -0.1789
H82 H 0.7243 1.1788 -0.1103
C62 C 0.7492(18) 1.2868(19) -0.1016(18)
H83 H 0.7356 1.3085 -0.0622
H84 H 0.8082 1.3067 -0.0997
C63 C 0.6879(8) 1.2858(10) -0.1682(8)
H85 H 0.6606 1.2584 -0.2111
H86 H 0.7164 1.3450 -0.1587
C64 C 0.6291(12) 1.2679(12) -0.1279(10)
H87 H 0.6490 1.3122 -0.0878
H88 H 0.5757 1.2624 -0.1454
Na1A Na 0.50731(8) 1.07793(9) 0.05238(6)
O1A O 0.40628(16) 1.11384(17) 0.03059(12)
C1A C 0.3606(2) 1.1392(2) 0.06790(16)
Na2A Na 0.47726(9) 0.89547(10) 0.09680(7)
O2A O 0.56937(16) 0.84579(18) 0.05766(12)
H1A H 0.5805 0.8582 0.0277
C2A C 0.3296(2) 1.0997(2) 0.10789(16)
Na3A Na 0.32881(12) 0.97615(12) -0.05865(8)
O3A O 0.58163(16) 1.00869(18) 0.16615(12)
H2A H 0.5942 1.0451 0.1516
C3A C 0.2770(2) 1.1215(3) 0.14202(17)
H3A H 0.2564 1.0934 0.1678
O4A O 0.61870(15) 1.11678(16) 0.12232(11)
C4A C 0.2528(2) 1.1825(3) 0.14033(17)
O5A O 0.42994(14) 0.94105(16) 0.03153(11)
C5A C 0.2897(2) 1.2260(3) 0.10428(17)
H4A H 0.2776 1.2702 0.1037
C6A C 0.3432(2) 1.2067(2) 0.06951(16)
C7A C 0.3860(2) 1.2610(3) 0.03603(17)
H5A H 0.3870 1.3156 0.0566
H6A H 0.4428 1.2673 0.0401
C8A C 0.3508(2) 1.2330(2) -0.03077(17)
C9A C 0.2956(2) 1.2595(3) -0.04899(19)
H9A H 0.2768 1.2912 -0.0191
C10A C 0.2658(2) 1.2414(3) -0.1104(2)
C11A C 0.2974(2) 1.1958(3) -0.15189(19)
H10A H 0.2802 1.1837 -0.1933
C13A C 0.3526(2) 1.1670(2) -0.13601(18)
C14A C 0.6225(2) 0.8166(3) 0.07431(18)
C15A C 0.3874(2) 1.1225(3) -0.18415(18)
H14A H 0.4397 1.1279 -0.1645
H15A H 0.3990 1.1510 -0.2128
C16A C 0.3365(2) 1.0328(3) -0.22014(18)
C17A C 0.2711(3) 1.0102(3) -0.26638(19)
H16A H 0.2564 1.0513 -0.2710
C18A C 0.2266(3) 0.9293(3) -0.3059(2)
C19A C 0.2515(3) 0.8717(3) -0.2990(2)
H17A H 0.2235 0.8170 -0.3262
C20A C 0.3164(3) 0.8901(3) -0.25351(18)
C21A C 0.6438(2) 1.0284(3) 0.21233(17)
C22A C 0.1921(3) 1.2051(3) 0.1769(2)
C23A C 0.1427(3) 1.1370(4) 0.1981(3)
H18A H 0.1027 1.1515 0.2188
H19A H 0.1151 1.0860 0.1633
H20A H 0.1789 1.1301 0.2258
C24A C 0.2402(4) 1.2814(4) 0.2341(3)
H21A H 0.2697 1.3275 0.2226
H22A H 0.2028 1.2942 0.2590
H23A H 0.2787 1.2708 0.2570
C25A C 0.1346(3) 1.2217(5) 0.1396(3)
H24A H 0.1653 1.2681 0.1287
H25A H 0.1056 1.1736 0.1030
H26A H 0.0958 1.2342 0.1630
C26A C 0.2052(3) 1.2719(3) -0.1286(2)
C27A C 0.1781(4) 1.2426(5) -0.1969(3)
H27A H 0.1625 1.1839 -0.2149
H28A H 0.1318 1.2545 -0.2059
H29A H 0.2226 1.2709 -0.2135
C28A C 0.1304(4) 1.2449(6) -0.1020(4)
H30A H 0.1003 1.1858 -0.1211
H31A H 0.1469 1.2599 -0.0587
H32A H 0.0961 1.2716 -0.1091
C29A C 0.2451(4) 1.3658(4) -0.1056(4)
H33A H 0.2604 1.3880 -0.0617
H34A H 0.2933 1.3835 -0.1224
H35A H 0.2067 1.3855 -0.1182
C30A C 0.1567(3) 0.9076(4) -0.3572(2)
C31A C 0.1773(10) 0.9705(9) -0.3882(7)
H36A H 0.1961 1.0254 -0.3577
H37A H 0.2200 0.9668 -0.4104
H38A H 0.1291 0.9591 -0.4161
C32A C 0.1325(11) 0.8232(8) -0.4072(7)
H39A H 0.1142 0.7810 -0.3900
H40A H 0.0888 0.8135 -0.4385
H41A H 0.1793 0.8217 -0.4248
C33A C 0.0825(9) 0.9068(11) -0.3307(8)
H42A H 0.0994 0.9504 -0.2909
H43A H 0.0462 0.9153 -0.3571
H44A H 0.0542 0.8542 -0.3268
C34A C 0.3484(3) 0.8267(3) -0.25340(18)
H45A H 0.4073 0.8555 -0.2372
H46A H 0.3405 0.7911 -0.2957
C35A C 0.3121(2) 0.7720(3) -0.21844(18)
C36A C 0.2613(3) 0.6899(3) -0.2493(2)
H47A H 0.2464 0.6706 -0.2919
C37A C 0.2314(3) 0.6350(3) -0.2208(2)
C38A C 0.2569(2) 0.6664(3) -0.15751(19)
H48A H 0.2386 0.6305 -0.1366
C39A C 0.3077(2) 0.7478(2) -0.12459(17)
C40A C 0.6661(2) 1.1967(2) 0.15448(17)
C41A C 0.3359(2) 0.7751(2) -0.05701(17)
H49A H 0.3216 0.7262 -0.0463
H50A H 0.3955 0.8044 -0.0467
C42A C 0.2999(2) 0.8297(2) -0.01950(17)
C43A C 0.2159(2) 0.7987(3) -0.02771(18)
H51A H 0.1852 0.7462 -0.0574
C44A C 0.1741(2) 0.8411(3) 0.00561(19)
C45A C 0.2223(2) 0.9166(3) 0.04912(18)
H52A H 0.1965 0.9469 0.0729
C46A C 0.3072(2) 0.9511(2) 0.06011(16)
C47A C 0.3486(2) 0.9086(2) 0.02423(16)
C48A C 0.3517(2) 1.0321(2) 0.11201(16)
H53A H 0.3403 1.0243 0.1499
H54A H 0.4105 1.0492 0.1140
C49A C 0.1767(3) 0.5433(3) -0.2541(2)
C50A C 0.1592(5) 0.5202(4) -0.3222(3)
H55A H 0.1242 0.4620 -0.3416
H56A H 0.2100 0.5320 -0.3364
H57A H 0.1321 0.5517 -0.3322
C51A C 0.2205(5) 0.4915(3) -0.2407(3)
H58A H 0.1896 0.4341 -0.2662
H59A H 0.2243 0.4977 -0.1983
H60A H 0.2749 0.5105 -0.2492
C52A C 0.0970(4) 0.5232(5) -0.2323(4)
H61A H 0.0595 0.4671 -0.2567
H62A H 0.0734 0.5604 -0.2361
H63A H 0.1070 0.5291 -0.1901
C53A C 0.0813(2) 0.8025(3) -0.0041(2)
C54A C 0.0460(3) 0.8633(4) 0.0231(3)
H64A H 0.0649 0.9075 0.0077
H65A H 0.0633 0.8857 0.0669
H66A H -0.0131 0.8360 0.0121
C55A C 0.0438(3) 0.7600(5) -0.0714(3)
H67A H 0.0591 0.8001 -0.0908
H68A H -0.0152 0.7346 -0.0771
H69A H 0.0634 0.7182 -0.0895
C56A C 0.0570(3) 0.7384(4) 0.0256(3)
H70A H -0.0018 0.7149 0.0216
H71A H 0.0831 0.7644 0.0682
H72A H 0.0742 0.6953 0.0056
O13A O 0.2093(2) 0.9755(3) -0.09216(17)
C57A C 0.1608(4) 0.9374(6) -0.1513(3)
H73A H 0.1293 0.8787 -0.1605
H74A H 0.1954 0.9434 -0.1812
C58A C 0.1075(5) 0.9762(9) -0.1536(4)
H75A H 0.1293 1.0177 -0.1717
H76A H 0.0537 0.9357 -0.1782
C59A C 0.1010(5) 1.0141(6) -0.0924(5)
H77A H 0.0542 0.9774 -0.0818
H78A H 0.0954 1.0657 -0.0865
C60A C 0.1773(4) 1.0291(4) -0.0567(4)
H79A H 0.2160 1.0864 -0.0456
H80A H 0.1679 1.0188 -0.0193
O14A O 0.3765(3) 0.8061(4) 0.1234(3)
C61A C 0.3059(5) 0.8136(8) 0.1420(5)
H81A H 0.3227 0.8629 0.1789
H82A H 0.2757 0.8212 0.1103
C62A C 0.2508(18) 0.7132(19) 0.1016(18)
H83A H 0.2644 0.6915 0.0622
H84A H 0.1918 0.6933 0.0997
C63A C 0.3121(8) 0.7142(10) 0.1682(8)
H85A H 0.3394 0.7416 0.2111
H86A H 0.2836 0.6550 0.1587
C64A C 0.3709(12) 0.7321(12) 0.1279(10)
H87A H 0.3510 0.6878 0.0878
H88A H 0.4243 0.7376 0.1454
C127? C 0.2415(10) 0.6973(11) 0.3052(7)
C128? C 0.8589(8) 1.0178(7) 0.3585(6)
C129? C 0.8243(8) 1.1315(8) 0.4185(5)
C130? C 0.9203(8) 1.1531(8) 0.3483(7)
C131? C 0.2560(10) 0.7488(12) 0.1532(11)
C132? C 0.3823(8) 0.7716(9) 0.0975(6)
C133? C 0.4159(11) 1.0161(12) 0.6086(10)
C134? C 0.4569(9) -0.0421(9) 0.4013(7)
C135? C 0.1617(14) -0.1171(15) 0.2387(10)
C136? C 0.0580(16) -0.069(2) 0.2236(11)
C137? C 0.0823(16) -0.0931(17) 0.3167(10)
C138? C -0.0096(8) 0.1740(11) 0.5467(7)
C139? C 0.0925(12) 0.1326(10) 0.5824(9)
C140? C 0.0789(10) 0.2548(9) 0.6468(5)
H167? H 0.2995 0.7234 0.3224
H168? H 0.2255 0.7351 0.2934
H169? H 0.2295 0.6483 0.2698
H170? H 0.8718 0.9923 0.3203
H171? H 0.8104 0.9783 0.3646
H172? H 0.9042 1.0359 0.3915
H173? H 0.7746 1.0925 0.4237
H174? H 0.8170 1.1803 0.4196
H175? H 0.8691 1.1463 0.4509
H176? H 0.9254 1.1332 0.3063
H177? H 0.9673 1.1591 0.3746
H178? H 0.9174 1.2060 0.3582
H179? H 0.2133 0.7093 0.1173
H180? H 0.2305 0.7658 0.1873
H181? H 0.3372 0.7391 0.0621
H182? H 0.4048 0.7381 0.1106
H183? H 0.4028 0.9813 0.5660
H184? H 0.3709 0.9950 0.6276
H185? H 0.4251 1.0716 0.6123
H186? H 0.4030 -0.0444 0.3908
H187? H 0.4827 -0.0029 0.4423
H188? H 0.4522 -0.0960 0.3987
H189? H 0.2113 -0.0853 0.2285
H190? H 0.1235 -0.1586 0.2019
H191? H 0.1745 -0.1435 0.2646
H192? H 0.0785 -0.0706 0.1866
H193? H 0.0441 -0.0217 0.2377
H194? H 0.0098 -0.1187 0.2157
H195? H 0.1194 -0.1045 0.3401
H196? H 0.0340 -0.1433 0.2951
H197? H 0.0666 -0.0527 0.3438
H198? H -0.0156 0.1386 0.5053
H199? H -0.0206 0.2206 0.5467
H200? H -0.0478 0.1434 0.5663
H201? H 0.1036 0.1060 0.5436
H202? H 0.0450 0.0937 0.5900
H203? H 0.1392 0.1514 0.6144
H204? H 0.0712 0.3036 0.6482
H205? H 0.1313 0.2709 0.6719
H206? H 0.0357 0.2218 0.6619
loop_
_geom_bond_atom_site_label_1
_geom_bond_atom_site_label_2
_geom_bond_site_symmetry_1
_geom_bond_site_symmetry_2
Na1 O1 1_555 1_555
O1 C1 1_555 1_555
C1 C2 1_555 1_555
Na2 O2 1_555 1_555
O2 H1 1_555 1_555
C2 C3 1_555 1_555
Na3 O1 1_555 1_555
O3 Na2 1_555 1_555
H2 O3 1_555 1_555
C3 H3 1_555 1_555
Na4 O8 1_555 1_555
O4 Na1 1_555 1_555
C4 C3 1_555 1_555
Na5 O8 1_555 1_555
O5 Na1 1_555 1_555
C5 C4 1_555 1_555
H4 C5 1_555 1_555
Na6 O6 1_555 1_555
C6 C1 1_555 1_555
C7 C6 1_555 1_555
H5 C7 1_555 1_555
H6 C7 1_555 1_555
O6 H7 1_555 1_555
C8 C7 1_555 1_555
O7 Na6 1_555 1_555
H8 O7 1_555 1_555
C9 C8 1_555 1_555
H9 C9 1_555 1_555
O8 C85 1_555 1_555
C10 C9 1_555 1_555
O9 Na5 1_555 1_555
C11 C10 1_555 1_555
H10 C11 1_555 1_555
C12 H11 1_555 1_555
H12 C12 1_555 1_555
H13 C12 1_555 1_555
O10 Na4 1_555 1_555
C13 C11 1_555 1_555
O11 Na6 1_555 1_555
C14 O2 1_555 1_555
O12 Na4 1_555 1_555
C15 C13 1_555 1_555
H14 C15 1_555 1_555
H15 C15 1_555 1_555
C16 C15 1_555 1_555
C17 C16 1_555 1_555
H16 C17 1_555 1_555
C18 C17 1_555 1_555
C19 C18 1_555 1_555
H17 C19 1_555 1_555
C20 C19 1_555 1_555
C21 O3 1_555 1_555
C22 C4 1_555 1_555
C23 C22 1_555 1_555
H18 C23 1_555 1_555
H19 C23 1_555 1_555
H20 C23 1_555 1_555
C24 C22 1_555 1_555
H21 C24 1_555 1_555
H22 C24 1_555 1_555
H23 C24 1_555 1_555
C25 C22 1_555 1_555
H24 C25 1_555 1_555
H25 C25 1_555 1_555
H26 C25 1_555 1_555
C26 C10 1_555 1_555
C27 C26 1_555 1_555
H27 C27 1_555 1_555
H28 C27 1_555 1_555
H29 C27 1_555 1_555
C28 C26 1_555 1_555
H30 C28 1_555 1_555
H31 C28 1_555 1_555
H32 C28 1_555 1_555
C29 C26 1_555 1_555
H33 C29 1_555 1_555
H34 C29 1_555 1_555
H35 C29 1_555 1_555
C30 C18 1_555 1_555
C31 C30 1_555 1_555
H36 C31 1_555 1_555
H37 C31 1_555 1_555
H38 C31 1_555 1_555
C32 C30 1_555 1_555
H39 C32 1_555 1_555
H40 C32 1_555 1_555
H41 C32 1_555 1_555
C33 C30 1_555 1_555
H42 C33 1_555 1_555
H43 C33 1_555 1_555
H44 C33 1_555 1_555
C34 C20 1_555 1_555
H45 C34 1_555 1_555
H46 C34 1_555 1_555
C35 C34 1_555 1_555
C36 C35 1_555 1_555
H47 C36 1_555 1_555
C37 C36 1_555 1_555
C38 C37 1_555 1_555
H48 C38 1_555 1_555
C39 C38 1_555 1_555
C40 O4 1_555 1_555
C41 C39 1_555 1_555
H49 C41 1_555 1_555
H50 C41 1_555 1_555
C42 C41 1_555 1_555
C43 C42 1_555 1_555
H51 C43 1_555 1_555
C44 C43 1_555 1_555
C45 C44 1_555 1_555
H52 C45 1_555 1_555
C46 C45 1_555 1_555
C47 O5 1_555 1_555
C48 C2 1_555 1_555
H53 C48 1_555 1_555
H54 C48 1_555 1_555
C49 C37 1_555 1_555
C50 C49 1_555 1_555
H55 C50 1_555 1_555
H56 C50 1_555 1_555
H57 C50 1_555 1_555
C51 C49 1_555 1_555
H58 C51 1_555 1_555
H59 C51 1_555 1_555
H60 C51 1_555 1_555
C52 C49 1_555 1_555
H61 C52 1_555 1_555
H62 C52 1_555 1_555
H63 C52 1_555 1_555
C53 C44 1_555 1_555
C54 C53 1_555 1_555
H64 C54 1_555 1_555
H65 C54 1_555 1_555
H66 C54 1_555 1_555
C55 C53 1_555 1_555
H67 C55 1_555 1_555
H68 C55 1_555 1_555
H69 C55 1_555 1_555
C56 C53 1_555 1_555
H70 C56 1_555 1_555
H71 C56 1_555 1_555
H72 C56 1_555 1_555
O13 Na3 1_555 1_555
C57 O13 1_555 1_555
H73 C57 1_555 1_555
H74 C57 1_555 1_555
C58 C57 1_555 1_555
H75 C58 1_555 1_555
H76 C58 1_555 1_555
C59 C58 1_555 1_555
H77 C59 1_555 1_555
H78 C59 1_555 1_555
C60 O13 1_555 1_555
H79 C60 1_555 1_555
H80 C60 1_555 1_555
O14 Na2 1_555 1_555
C61 O14 1_555 1_555
H81 C61 1_555 1_555
H82 C61 1_555 1_555
C62 C61 1_555 1_555
H83 C62 1_555 1_555
H84 C62 1_555 1_555
C63 C62 1_555 1_555
H85 C63 1_555 1_555
H86 C63 1_555 1_555
C64 O14 1_555 1_555
H87 C64 1_555 1_555
H88 C64 1_555 1_555
C65 H89 1_555 1_555
H90 C65 1_555 1_555
C66 C65 1_555 1_555
C67 C66 1_555 1_555
H91 C67 1_555 1_555
C68 C67 1_555 1_555
C69 C68 1_555 1_555
H92 C69 1_555 1_555
C70 C69 1_555 1_555
C71 O6 1_555 1_555
C72 C70 1_555 1_555
H93 C72 1_555 1_555
H94 C72 1_555 1_555
C73 C72 1_555 1_555
C74 C73 1_555 1_555
H95 C74 1_555 1_555
C75 C74 1_555 1_555
C76 C75 1_555 1_555
H96 C76 1_555 1_555
C77 C76 1_555 1_555
C78 O7 1_555 1_555
C79 C77 1_555 1_555
H97 C79 1_555 1_555
H98 C79 1_555 1_555
C80 C79 1_555 1_555
C81 C80 1_555 1_555
H99 C81 1_555 1_555
C82 C81 1_555 1_555
C83 C82 1_555 1_555
H100 C83 1_555 1_555
C84 C83 1_555 1_555
C85 C80A 1_555 1_555
C86 C84 1_555 1_555
H101 C86 1_555 1_555
H102 C86 1_555 1_555
C87 C86 1_555 1_555
C88 C87 1_555 1_555
H103 C88 1_555 1_555
C89 C68 1_555 1_555
C90 C89 1_555 1_555
H104 C90 1_555 1_555
H105 C90 1_555 1_555
H106 C90 1_555 1_555
C91 C89 1_555 1_555
H107 C91 1_555 1_555
H108 C91 1_555 1_555
H109 C91 1_555 1_555
C92 C89 1_555 1_555
H110 C92 1_555 1_555
H111 C92 1_555 1_555
H112 C92 1_555 1_555
C93 C75 1_555 1_555
C94 C93 1_555 1_555
H113 C94 1_555 1_555
H114 C94 1_555 1_555
H115 C94 1_555 1_555
C95 C93 1_555 1_555
H116 C95 1_555 1_555
H117 C95 1_555 1_555
H118 C95 1_555 1_555
C96 C93 1_555 1_555
H119 C96 1_555 1_555
H120 C96 1_555 1_555
H121 C96 1_555 1_555
C97 C82 1_555 1_555
C98 C97 1_555 1_555
H122 C98 1_555 1_555
H123 C98 1_555 1_555
H124 C98 1_555 1_555
C99 C97 1_555 1_555
H125 C99 1_555 1_555
H126 C99 1_555 1_555
H127 C99 1_555 1_555
C100 C97 1_555 1_555
H128 C100 1_555 1_555
H129 C100 1_555 1_555
H130 C100 1_555 1_555
C101 C88 1_555 1_555
C102 C101 1_555 1_555
H131 C102 1_555 1_555
C103 C102 1_555 1_555
C104 O9 1_555 1_555
C105 C103 1_555 1_555
H132 C105 1_555 1_555
H133 C105 1_555 1_555
C106 C105 1_555 1_555
C107 C106 1_555 1_555
H134 C107 1_555 1_555
C108 C107 1_555 1_555
C109 C108 1_555 1_555
H135 C109 1_555 1_555
C110 C65 1_555 1_555
C111 O10 1_555 1_555
C112 C101 1_555 1_555
C113 C112 1_555 1_555
H136 C113 1_555 1_555
H137 C113 1_555 1_555
H138 C113 1_555 1_555
C114 C112 1_555 1_555
H139 C114 1_555 1_555
H140 C114 1_555 1_555
H141 C114 1_555 1_555
C115 C112 1_555 1_555
H142 C115 1_555 1_555
H143 C115 1_555 1_555
H144 C115 1_555 1_555
C116 C12 1_555 1_555
C117 C116 1_555 1_555
H145 C117 1_555 1_555
H146 C117 1_555 1_555
H147 C117 1_555 1_555
C118 C116 1_555 1_555
H148 C118 1_555 1_555
H149 C118 1_555 1_555
H150 C118 1_555 1_555
C119 O11 1_555 1_555
H151 C119 1_555 1_555
H152 C119 1_555 1_555
C120 C119 1_555 1_555
H153 C120 1_555 1_555
H154 C120 1_555 1_555
C121 C120 1_555 1_555
H155 C121 1_555 1_555
H156 C121 1_555 1_555
C122 O11 1_555 1_555
H157 C122 1_555 1_555
H158 C122 1_555 1_555
C123 O12 1_555 1_555
H159 C123 1_555 1_555
H160 C123 1_555 1_555
C124 C123 1_555 1_555
H161 C124 1_555 1_555
H162 C124 1_555 1_555
C125 C124 1_555 1_555
H163 C125 1_555 1_555
H164 C125 1_555 1_555
C126 O12 1_555 1_555
H165 C126 1_555 1_555
H166 C126 1_555 1_555
Na1A O5 1_555 1_555
O1A Na1A 1_555 1_555
C1A O1A 1_555 1_555
Na2A O2A 1_555 1_555
O2A H1A 1_555 1_555
C2A C1A 1_555 1_555
Na3A O4 1_555 1_555
O3A Na2A 1_555 1_555
H2A O3A 1_555 1_555
C3A C2A 1_555 1_555
H3A C3A 1_555 1_555
Na4A O8A 1_555 1_555
O4A Na3 1_555 1_555
C4A C3A 1_555 1_555
Na5A O9 1_555 1_555
O5A Na1 1_555 1_555
C5A C4A 1_555 1_555
H4A C5A 1_555 1_555
Na6A O6A 1_555 1_555
C6A C1A 1_555 1_555
C7A C6A 1_555 1_555
H5A C7A 1_555 1_555
H6A C7A 1_555 1_555
O6A H7A 1_555 1_555
C8A C14 1_555 1_555
O7A Na6A 1_555 1_555
H8A O7A 1_555 1_555
C9A C8A 1_555 1_555
H9A C9A 1_555 1_555
O8A Na5A 1_555 1_555
C10A C9A 1_555 1_555
O9A Na5 1_555 1_555
C11A C10A 1_555 1_555
H10A C11A 1_555 1_555
C12A H11A 1_555 1_555
H12A C12A 1_555 1_555
H13A C12A 1_555 1_555
O10A Na5 1_555 1_555
C13A C14 1_555 1_555
O11A Na6A 1_555 1_555
C14A C8 1_555 1_555
O12A Na4A 1_555 1_555
C15A C13A 1_555 1_555
H14A C15A 1_555 1_555
H15A C15A 1_555 1_555
C16A C21 1_555 1_555
C17A C16A 1_555 1_555
H16A C17A 1_555 1_555
C18A C17A 1_555 1_555
C19A C18A 1_555 1_555
H17A C19A 1_555 1_555
C20A C21 1_555 1_555
C21A C16 1_555 1_555
C22A C4A 1_555 1_555
C23A C22A 1_555 1_555
H18A C23A 1_555 1_555
H19A C23A 1_555 1_555
H20A C23A 1_555 1_555
C24A C22A 1_555 1_555
H21A C24A 1_555 1_555
H22A C24A 1_555 1_555
H23A C24A 1_555 1_555
C25A C22A 1_555 1_555
H24A C25A 1_555 1_555
H25A C25A 1_555 1_555
H26A C25A 1_555 1_555
C26A C10A 1_555 1_555
C27A C26A 1_555 1_555
H27A C27A 1_555 1_555
H28A C27A 1_555 1_555
H29A C27A 1_555 1_555
C28A C26A 1_555 1_555
H30A C28A 1_555 1_555
H31A C28A 1_555 1_555
H32A C28A 1_555 1_555
C29A C26A 1_555 1_555
H33A C29A 1_555 1_555
H34A C29A 1_555 1_555
H35A C29A 1_555 1_555
C30A C18A 1_555 1_555
C31A C30A 1_555 1_555
H36A C31A 1_555 1_555
H37A C31A 1_555 1_555
H38A C31A 1_555 1_555
C32A C30A 1_555 1_555
H39A C32A 1_555 1_555
H40A C32A 1_555 1_555
H41A C32A 1_555 1_555
C33A C30A 1_555 1_555
H42A C33A 1_555 1_555
H43A C33A 1_555 1_555
H44A C33A 1_555 1_555
C34A C20A 1_555 1_555
H45A C34A 1_555 1_555
H46A C34A 1_555 1_555
C35A C40 1_555 1_555
C36A C35A 1_555 1_555
H47A C36A 1_555 1_555
C37A C36A 1_555 1_555
C38A C37A 1_555 1_555
H48A C38A 1_555 1_555
C39A C40 1_555 1_555
C40A C35 1_555 1_555
C41A C39A 1_555 1_555
H49A C41A 1_555 1_555
H50A C41A 1_555 1_555
C42A C41A 1_555 1_555
C43A C42A 1_555 1_555
H51A C43A 1_555 1_555
C44A C43A 1_555 1_555
C45A C44A 1_555 1_555
H52A C45A 1_555 1_555
C46A C45A 1_555 1_555
C47A O5A 1_555 1_555
C48A C2A 1_555 1_555
H53A C48A 1_555 1_555
H54A C48A 1_555 1_555
C49A C37A 1_555 1_555
C50A C49A 1_555 1_555
H55A C50A 1_555 1_555
H56A C50A 1_555 1_555
H57A C50A 1_555 1_555
C51A C49A 1_555 1_555
H58A C51A 1_555 1_555
H59A C51A 1_555 1_555
H60A C51A 1_555 1_555
C52A C49A 1_555 1_555
H61A C52A 1_555 1_555
H62A C52A 1_555 1_555
H63A C52A 1_555 1_555
C53A C44A 1_555 1_555
C54A C53A 1_555 1_555
H64A C54A 1_555 1_555
H65A C54A 1_555 1_555
H66A C54A 1_555 1_555
C55A C53A 1_555 1_555
H67A C55A 1_555 1_555
H68A C55A 1_555 1_555
H69A C55A 1_555 1_555
C56A C53A 1_555 1_555
H70A C56A 1_555 1_555
H71A C56A 1_555 1_555
H72A C56A 1_555 1_555
O13A Na3A 1_555 1_555
C57A O13A 1_555 1_555
H73A C57A 1_555 1_555
H74A C57A 1_555 1_555
C58A C57A 1_555 1_555
H75A C58A 1_555 1_555
H76A C58A 1_555 1_555
C59A C58A 1_555 1_555
H77A C59A 1_555 1_555
H78A C59A 1_555 1_555
C60A O13A 1_555 1_555
H79A C60A 1_555 1_555
H80A C60A 1_555 1_555
O14A Na2A 1_555 1_555
C61A O14A 1_555 1_555
H81A C61A 1_555 1_555
H82A C61A 1_555 1_555
C62A C61A 1_555 1_555
H83A C62A 1_555 1_555
H84A C62A 1_555 1_555
C63A C62A 1_555 1_555
H85A C63A 1_555 1_555
H86A C63A 1_555 1_555
C64A O14A 1_555 1_555
H87A C64A 1_555 1_555
H88A C64A 1_555 1_555
C65A H89A 1_555 1_555
H90A C65A 1_555 1_555
C66A C65A 1_555 1_555
C67A C66A 1_555 1_555
H91A C67A 1_555 1_555
C68A C67A 1_555 1_555
C69A C68A 1_555 1_555
H92A C69A 1_555 1_555
C70A C69A 1_555 1_555
C71A O6A 1_555 1_555
C72A C70A 1_555 1_555
H93A C72A 1_555 1_555
H94A C72A 1_555 1_555
C73A C72A 1_555 1_555
C74A C73A 1_555 1_555
H95A C74A 1_555 1_555
C75A C74A 1_555 1_555
C76A C75A 1_555 1_555
H96A C76A 1_555 1_555
C77A C76A 1_555 1_555
C78A O7A 1_555 1_555
C79A C77A 1_555 1_555
H97A C79A 1_555 1_555
H98A C79A 1_555 1_555
C80A C79A 1_555 1_555
C81A C80A 1_555 1_555
H99A C81A 1_555 1_555
C82A C81A 1_555 1_555
C83A C82A 1_555 1_555
H100A C83A 1_555 1_555
C84A C85 1_555 1_555
C85A C80 1_555 1_555
C86A C84A 1_555 1_555
H101A C86A 1_555 1_555
H102A C86A 1_555 1_555
C87A C104 1_555 1_555
C88A C87A 1_555 1_555
H103A C88A 1_555 1_555
C89A C68A 1_555 1_555
C90A C89A 1_555 1_555
H104A C90A 1_555 1_555
H105A C90A 1_555 1_555
H106A C90A 1_555 1_555
C91A C89A 1_555 1_555
H107A C91A 1_555 1_555
H108A C91A 1_555 1_555
H109A C91A 1_555 1_555
C92A C89A 1_555 1_555
H110A C92A 1_555 1_555
H111A C92A 1_555 1_555
H112A C92A 1_555 1_555
C93A C75A 1_555 1_555
C94A C93A 1_555 1_555
H113A C94A 1_555 1_555
H114A C94A 1_555 1_555
H115A C94A 1_555 1_555
C95A C93A 1_555 1_555
H116A C95A 1_555 1_555
H117A C95A 1_555 1_555
H118A C95A 1_555 1_555
C96A C93A 1_555 1_555
H119A C96A 1_555 1_555
H120A C96A 1_555 1_555
H121A C96A 1_555 1_555
C97A C82A 1_555 1_555
C98A C97A 1_555 1_555
H122A C98A 1_555 1_555
H123A C98A 1_555 1_555
H124A C98A 1_555 1_555
C99A C97A 1_555 1_555
H125A C99A 1_555 1_555
H126A C99A 1_555 1_555
H127A C99A 1_555 1_555
C100A C97A 1_555 1_555
H128A C100A 1_555 1_555
H129A C100A 1_555 1_555
H130A C100A 1_555 1_555
C101A C88A 1_555 1_555
C102A C101A 1_555 1_555
H131A C102A 1_555 1_555
C103A C104 1_555 1_555
C104A C87 1_555 1_555
C105A C103A 1_555 1_555
H132A C105A 1_555 1_555
H133A C105A 1_555 1_555
C106A C111 1_555 1_555
C107A C106A 1_555 1_555
H134A C107A 1_555 1_555
C108A C107A 1_555 1_555
C109A C108A 1_555 1_555
H135A C109A 1_555 1_555
C110A C111 1_555 1_555
C111A C106 1_555 1_555
C112A C101A 1_555 1_555
C113A C112A 1_555 1_555
H136A C113A 1_555 1_555
H137A C113A 1_555 1_555
H138A C113A 1_555 1_555
C114A C112A 1_555 1_555
H139A C114A 1_555 1_555
H140A C114A 1_555 1_555
H141A C114A 1_555 1_555
C115A C112A 1_555 1_555
H142A C115A 1_555 1_555
H143A C115A 1_555 1_555
H144A C115A 1_555 1_555
C116A C12A 1_555 1_555
C117A C116A 1_555 1_555
H145A C117A 1_555 1_555
H146A C117A 1_555 1_555
H147A C117A 1_555 1_555
C118A C116A 1_555 1_555
H148A C118A 1_555 1_555
H149A C118A 1_555 1_555
H150A C118A 1_555 1_555
C119A O11A 1_555 1_555
H151A C119A 1_555 1_555
H152A C119A 1_555 1_555
C120A C119A 1_555 1_555
H153A C120A 1_555 1_555
H154A C120A 1_555 1_555
C121A C120A 1_555 1_555
H155A C121A 1_555 1_555
H156A C121A 1_555 1_555
C122A O11A 1_555 1_555
H157A C122A 1_555 1_555
H158A C122A 1_555 1_555
C123A O12A 1_555 1_555
H159A C123A 1_555 1_555
H160A C123A 1_555 1_555
C124A C123A 1_555 1_555
H161A C124A 1_555 1_555
H162A C124A 1_555 1_555
C125A C124A 1_555 1_555
H163A C125A 1_555 1_555
H164A C125A 1_555 1_555
C126A O12A 1_555 1_555
H165A C126A 1_555 1_555
H166A C126A 1_555 1_555
Na2 O5 1_555 1_555
C5 C6 1_555 1_555
Na6 O9 1_555 1_555
O10 Na5A 1_555 1_555
C13 C14A 1_555 1_555
C20 C21A 1_555 1_555
C39 C40A 1_555 1_555
C42 C47 1_555 1_555
C46 C47 1_555 1_555
C46 C48 1_555 1_555
C59 C60 1_555 1_555
C63 C64 1_555 1_555
C66 C71 1_555 1_555
C70 C71 1_555 1_555
C73 C78 1_555 1_555
C77 C78 1_555 1_555
C84 C85A 1_555 1_555
C103 C104A 1_555 1_555
C108 C116 1_555 1_555
C109 C110 1_555 1_555
C110 C111A 1_555 1_555
C121 C122 1_555 1_555
C125 C126 1_555 1_555
Na1A O4A 1_555 1_555
Na1A O5A 1_555 1_555
O1A Na3A 1_555 1_555
Na2A O5A 1_555 1_555
O2A C14A 1_555 1_555
O3A C21A 1_555 1_555
Na4A O10A 1_555 1_555
O4A C40A 1_555 1_555
Na5A O9A 1_555 1_555
C5A C6A 1_555 1_555
Na6A O9A 1_555 1_555
C7A C8A 1_555 1_555
O8A C85A 1_555 1_555
O9A C104A 1_555 1_555
C11A C13A 1_555 1_555
O10A C111A 1_555 1_555
C15A C16A 1_555 1_555
C19A C20A 1_555 1_555
C34A C35A 1_555 1_555
C38A C39A 1_555 1_555
C42A C47A 1_555 1_555
C46A C47A 1_555 1_555
C46A C48A 1_555 1_555
C59A C60A 1_555 1_555
C63A C64A 1_555 1_555
C65A C110A 1_555 1_555
C66A C71A 1_555 1_555
C70A C71A 1_555 1_555
C73A C78A 1_555 1_555
C77A C78A 1_555 1_555
C83A C84A 1_555 1_555
C86A C87A 1_555 1_555
C102A C103A 1_555 1_555
C105A C106A 1_555 1_555
C108A C116A 1_555 1_555
C109A C110A 1_555 1_555
C121A C122A 1_555 1_555
C125A C126A 1_555 1_555

#END
