
#######################################################################
#
#                 Cambridge Crystallographic Data Centre
#                                CCDC 
#
#######################################################################
#
# If this CIF has been generated from an entry in the Cambridge 
# Structural Database, then it will include bibliographic, chemical, 
# crystal, experimental, refinement or atomic coordinate data resulting 
# from the CCDC's data processing and validation procedures.
#
#######################################################################

data_FOTFOK
_chemical_formula_moiety         'C20 H38 P6'
_chemical_name_systematic        
3,6,8,10-Tetra-t-butyl-8H-1,4-methano(1,2,4)triphospholo(1,2-b)pentaphosphinine
_symmetry_cell_setting           monoclinic
_symmetry_space_group_name_H-M   'P 21/n'
_symmetry_Int_Tables_number      14
_space_group_name_Hall           '-P 2yn'
loop_
_symmetry_equiv_pos_site_id
_symmetry_equiv_pos_as_xyz
1 x,y,z
2 1/2-x,1/2+y,1/2-z
3 -x,-y,-z
4 1/2+x,1/2-y,1/2+z
_cell_length_a                   10.8500(10)
_cell_length_b                   20.397(3)
_cell_length_c                   12.3880(10)
_cell_angle_alpha                90
_cell_angle_beta                 106.580(10)
_cell_angle_gamma                90
_cell_volume                     2627.57
_exptl_crystal_colour            orange
_exptl_crystal_description       prism
_cell_formula_units_Z            4
_exptl_crystal_recrystallization_method n-hexane
loop_
_atom_site_label
_atom_site_type_symbol
_atom_site_fract_x
_atom_site_fract_y
_atom_site_fract_z
P1 P 1.10362(8) 0.18016(4) 0.79428(7)
P2 P 0.93216(7) 0.06578(4) 0.68182(6)
P3 P 0.90478(8) 0.19103(4) 0.80249(7)
P4 P 0.94993(7) 0.12151(4) 0.94603(6)
P5 P 0.94708(7) 0.02698(3) 0.85494(6)
P6 P 0.68973(17) 0.04400(8) 0.90591(14)
C1 C 1.0882(3) 0.10769(14) 0.7260(2)
C2 C 0.8242(3) 0.13595(14) 0.6828(2)
H1 H 0.7506 0.1172 0.7030
C3 C 0.7995(3) 0.10655(14) 0.9890(3)
H2 H 0.8333 0.0845 1.0617
C4 C 0.7811(3) 0.00244(15) 0.8406(3)
C5 C 1.2016(3) 0.07534(16) 0.6970(3)
C6 C 1.3293(3) 0.1096(2) 0.7546(4)
H4 H 1.3450 0.1076 0.8348
H5 H 1.3249 0.1546 0.7310
H6 H 1.3979 0.0880 0.7341
C7 C 1.1784(4) 0.0774(2) 0.5688(3)
H7 H 1.1003 0.0545 0.5325
H8 H 1.2491 0.0567 0.5500
H9 H 1.1715 0.1221 0.5438
C8 C 1.2124(4) 0.00372(18) 0.7354(3)
H10 H 1.2237 0.0019 0.8151
H11 H 1.2848 -0.0163 0.7186
H12 H 1.1353 -0.0193 0.6966
C9 C 0.7651(3) 0.17208(16) 0.5684(3)
C10 C 0.7004(4) 0.1224(2) 0.4783(3)
H13 H 0.6642 0.1447 0.4081
H14 H 0.6334 0.1003 0.5003
H15 H 0.7628 0.0911 0.4696
C11 C 0.8655(4) 0.20948(19) 0.5290(3)
H16 H 0.8254 0.2299 0.4579
H17 H 0.9307 0.1797 0.5208
H18 H 0.9040 0.2425 0.5835
C12 C 0.6631(4) 0.2198(2) 0.5835(4)
H19 H 0.6193 0.2390 0.5121
H20 H 0.7034 0.2537 0.6353
H21 H 0.6023 0.1967 0.6125
C13 C 0.7307(3) 0.16748(16) 1.0218(3)
C14 C 0.6438(4) 0.20227(19) 0.9178(4)
H22 H 0.6000 0.2379 0.9415
H23 H 0.5819 0.1717 0.8745
H24 H 0.6953 0.2189 0.8725
C15 C 0.8300(4) 0.2164(2) 1.0880(4)
H25 H 0.7869 0.2525 1.1112
H26 H 0.8806 0.2322 1.0413
H27 H 0.8851 0.1952 1.1533
C16 C 0.6466(4) 0.1448(2) 1.0954(4)
H28 H 0.6046 0.1820 1.1166
H29 H 0.6995 0.1238 1.1619
H30 H 0.5831 0.1144 1.0539
C17 C 0.7233(3) -0.05765(15) 0.7657(3)
C18 C 0.6354(4) -0.03236(18) 0.6535(3)
H31 H 0.5997 -0.0689 0.6059
H32 H 0.6843 -0.0055 0.6170
H33 H 0.5670 -0.0069 0.6673
C19 C 0.8269(3) -0.10105(15) 0.7419(3)
H34 H 0.7871 -0.1371 0.6949
H35 H 0.8819 -0.1175 0.8116
H36 H 0.8768 -0.0758 0.7041
C20 C 0.6431(4) -0.1001(2) 0.8228(4)
H37 H 0.6124 -0.1381 0.7774
H38 H 0.5713 -0.0752 0.8310
H39 H 0.6956 -0.1136 0.8957
P7? P 0.6763(9) 0.0636(5) 0.8761(10)
H3? H 0.8001 -0.0211 0.9124
Cl1? Cl 0.5632(7) 0.0141(4) 0.9582(6)
loop_
_geom_bond_atom_site_label_1
_geom_bond_atom_site_label_2
_geom_bond_site_symmetry_1
_geom_bond_site_symmetry_2
P1 P3 1_555 1_555
P2 P5 1_555 1_555
P3 P4 1_555 1_555
P4 P5 1_555 1_555
P5 C4 1_555 1_555
P6 C3 1_555 1_555
C1 P1 1_555 1_555
C2 P2 1_555 1_555
H1 C2 1_555 1_555
C3 P4 1_555 1_555
H2 C3 1_555 1_555
C4 P6 1_555 1_555
C5 C1 1_555 1_555
C6 C5 1_555 1_555
H4 C6 1_555 1_555
H5 C6 1_555 1_555
H6 C6 1_555 1_555
C7 C5 1_555 1_555
H7 C7 1_555 1_555
H8 C7 1_555 1_555
H9 C7 1_555 1_555
C8 C5 1_555 1_555
H10 C8 1_555 1_555
H11 C8 1_555 1_555
H12 C8 1_555 1_555
C9 C2 1_555 1_555
C10 C9 1_555 1_555
H13 C10 1_555 1_555
H14 C10 1_555 1_555
H15 C10 1_555 1_555
C11 C9 1_555 1_555
H16 C11 1_555 1_555
H17 C11 1_555 1_555
H18 C11 1_555 1_555
C12 C9 1_555 1_555
H19 C12 1_555 1_555
H20 C12 1_555 1_555
H21 C12 1_555 1_555
C13 C3 1_555 1_555
C14 C13 1_555 1_555
H22 C14 1_555 1_555
H23 C14 1_555 1_555
H24 C14 1_555 1_555
C15 C13 1_555 1_555
H25 C15 1_555 1_555
H26 C15 1_555 1_555
H27 C15 1_555 1_555
C16 C13 1_555 1_555
H28 C16 1_555 1_555
H29 C16 1_555 1_555
H30 C16 1_555 1_555
C17 C4 1_555 1_555
C18 C17 1_555 1_555
H31 C18 1_555 1_555
H32 C18 1_555 1_555
H33 C18 1_555 1_555
C19 C17 1_555 1_555
H34 C19 1_555 1_555
H35 C19 1_555 1_555
H36 C19 1_555 1_555
C20 C17 1_555 1_555
H37 C20 1_555 1_555
H38 C20 1_555 1_555
H39 C20 1_555 1_555
P2 C1 1_555 1_555
P3 C2 1_555 1_555

#END
