
#######################################################################
#
#                 Cambridge Crystallographic Data Centre
#                                CCDC 
#
#######################################################################
#
# If this CIF has been generated from an entry in the Cambridge 
# Structural Database, then it will include bibliographic, chemical, 
# crystal, experimental, refinement or atomic coordinate data resulting 
# from the CCDC's data processing and validation procedures.
#
#######################################################################

data_FOTFUQ
_chemical_formula_moiety         'C20 H38 P6'
_chemical_name_systematic        
3,5,7,10-Tetra-t-butyl-1,2,4,6,8,9-hexaphosphapentacyclo[5.3.0.0^2,6^.0^3,9^.0^4,8^]decane
_symmetry_cell_setting           triclinic
_symmetry_space_group_name_H-M   'P -1'
_symmetry_Int_Tables_number      2
_space_group_name_Hall           '-P 1'
loop_
_symmetry_equiv_pos_site_id
_symmetry_equiv_pos_as_xyz
1 x,y,z
2 -x,-y,-z
_cell_length_a                   10.224(1)
_cell_length_b                   10.915(1)
_cell_length_c                   12.453(1)
_cell_angle_alpha                106.960(7)
_cell_angle_beta                 104.482(8)
_cell_angle_gamma                103.193(8)
_cell_volume                     1217.06
_exptl_crystal_colour            red
_exptl_crystal_description       prism
_cell_formula_units_Z            2
loop_
_atom_site_label
_atom_site_type_symbol
_atom_site_fract_x
_atom_site_fract_y
_atom_site_fract_z
P1 P 0.30171(5) 0.38302(4) 0.57793(4)
P2 P 0.34057(4) 0.31411(4) 0.81039(4)
P3 P 0.10883(5) 0.35251(4) 0.63162(4)
P4 P 0.33679(4) 0.52506(4) 0.88778(4)
P5 P 0.30095(5) 0.59336(4) 0.65553(4)
P6 P 0.53124(4) 0.55155(4) 0.83373(4)
C1 C 0.43532(16) 0.37706(15) 0.71579(13)
C2 C 0.15607(17) 0.23091(16) 0.70030(15)
H1 H 0.1682 0.1633 0.6352
C3 C 0.20517(17) 0.53071(16) 0.75200(14)
C4 C 0.49591(17) 0.65705(16) 0.74338(15)
H2 H 0.5399 0.6303 0.6827
C5 C 0.53584(18) 0.29747(17) 0.67644(15)
C6 C 0.6209(2) 0.3689(2) 0.61361(17)
H3 H 0.6824 0.3201 0.5897
H4 H 0.6774 0.4596 0.6674
H5 H 0.5559 0.3716 0.5444
C7 C 0.6416(2) 0.29173(19) 0.78517(17)
H6 H 0.7018 0.2424 0.7594
H7 H 0.5898 0.2471 0.8251
H8 H 0.6993 0.3821 0.8390
C8 C 0.4471(2) 0.15175(18) 0.59201(18)
H9 H 0.5094 0.1036 0.5690
H10 H 0.3816 0.1527 0.5222
H11 H 0.3946 0.1076 0.6319
C9 C 0.04930(19) 0.14288(17) 0.73963(17)
C10 C 0.0923(2) 0.0176(2) 0.7411(2)
H12 H 0.0295 -0.0363 0.7680
H13 H 0.1888 0.0456 0.7942
H14 H 0.0856 -0.0348 0.6620
C11 C -0.1025(2) 0.0968(2) 0.6507(2)
H15 H -0.1671 0.0400 0.6742
H16 H -0.1047 0.0469 0.5724
H17 H -0.1308 0.1746 0.6497
C12 C 0.0513(2) 0.2197(2) 0.86518(18)
H18 H -0.0120 0.1607 0.8879
H19 H 0.0206 0.2965 0.8651
H20 H 0.1465 0.2500 0.9210
C13 C 0.10183(18) 0.60959(18) 0.78759(16)
C14 C 0.1860(2) 0.75553(18) 0.87428(18)
H21 H 0.1208 0.8015 0.8942
H22 H 0.2413 0.8018 0.8373
H23 H 0.2487 0.7547 0.9456
C15 C -0.0007(2) 0.6148(2) 0.67682(18)
H24 H -0.0638 0.6619 0.7002
H25 H -0.0557 0.5243 0.6217
H26 H 0.0532 0.6616 0.6393
C16 C 0.0123(2) 0.5391(2) 0.84797(18)
H27 H -0.0510 0.5875 0.8682
H28 H 0.0745 0.5378 0.9192
H29 H -0.0425 0.4479 0.7943
C17 C 0.57957(19) 0.81157(16) 0.81186(16)
C18 C 0.5757(2) 0.86099(18) 0.93894(17)
H30 H 0.6304 0.9554 0.9788
H31 H 0.6156 0.8104 0.9818
H32 H 0.4786 0.8481 0.9360
C19 C 0.5187(3) 0.8944(2) 0.7443(2)
H33 H 0.5766 0.9880 0.7834
H34 H 0.4227 0.8853 0.7433
H35 H 0.5186 0.8617 0.6639
C20 C 0.7357(2) 0.8333(2) 0.8193(2)
H36 H 0.7909 0.9270 0.8638
H37 H 0.7408 0.8077 0.7403
H38 H 0.7732 0.7787 0.8586
H39? H 0.1449 0.4368 0.7033
P7? P 0.1079(10) 0.2441(10) 0.5599(8)
loop_
_geom_bond_atom_site_label_1
_geom_bond_atom_site_label_2
_geom_bond_site_symmetry_1
_geom_bond_site_symmetry_2
P1 P3 1_555 1_555
P2 P4 1_555 1_555
P3 C2 1_555 1_555
P4 P6 1_555 1_555
P5 P1 1_555 1_555
P6 C1 1_555 1_555
C1 P1 1_555 1_555
C2 P2 1_555 1_555
H1 C2 1_555 1_555
C3 P3 1_555 1_555
C4 P5 1_555 1_555
H2 C4 1_555 1_555
C5 C1 1_555 1_555
C6 C5 1_555 1_555
H3 C6 1_555 1_555
H4 C6 1_555 1_555
H5 C6 1_555 1_555
C7 C5 1_555 1_555
H6 C7 1_555 1_555
H7 C7 1_555 1_555
H8 C7 1_555 1_555
C8 C5 1_555 1_555
H9 C8 1_555 1_555
H10 C8 1_555 1_555
H11 C8 1_555 1_555
C9 C2 1_555 1_555
C10 C9 1_555 1_555
H12 C10 1_555 1_555
H13 C10 1_555 1_555
H14 C10 1_555 1_555
C11 C9 1_555 1_555
H15 C11 1_555 1_555
H16 C11 1_555 1_555
H17 C11 1_555 1_555
C12 C9 1_555 1_555
H18 C12 1_555 1_555
H19 C12 1_555 1_555
H20 C12 1_555 1_555
C13 C3 1_555 1_555
C14 C13 1_555 1_555
H21 C14 1_555 1_555
H22 C14 1_555 1_555
H23 C14 1_555 1_555
C15 C13 1_555 1_555
H24 C15 1_555 1_555
H25 C15 1_555 1_555
H26 C15 1_555 1_555
C16 C13 1_555 1_555
H27 C16 1_555 1_555
H28 C16 1_555 1_555
H29 C16 1_555 1_555
C17 C4 1_555 1_555
C18 C17 1_555 1_555
H30 C18 1_555 1_555
H31 C18 1_555 1_555
H32 C18 1_555 1_555
C19 C17 1_555 1_555
H33 C19 1_555 1_555
H34 C19 1_555 1_555
H35 C19 1_555 1_555
C20 C17 1_555 1_555
H36 C20 1_555 1_555
H37 C20 1_555 1_555
H38 C20 1_555 1_555
P2 C1 1_555 1_555
P4 C3 1_555 1_555
P5 C3 1_555 1_555
P6 C4 1_555 1_555

#END
