
#######################################################################
#
#                 Cambridge Crystallographic Data Centre
#                                CCDC 
#
#######################################################################
#
# If this CIF has been generated from an entry in the Cambridge 
# Structural Database, then it will include bibliographic, chemical, 
# crystal, experimental, refinement or atomic coordinate data resulting 
# from the CCDC's data processing and validation procedures.
#
#######################################################################

data_FOTMOR
_chemical_formula_moiety         'C22 H20 N6 O2'
_chemical_name_systematic        
Pyrazine-2,5-dicarbaldehyde-bis(benzoyl-N-methylhydrazone)
_symmetry_cell_setting           monoclinic
_symmetry_space_group_name_H-M   'C 2/c'
_symmetry_Int_Tables_number      15
_space_group_name_Hall           '-C 2yn'
loop_
_symmetry_equiv_pos_site_id
_symmetry_equiv_pos_as_xyz
1 x,y,z
2 -x,y,1/2-z
3 1/2+x,1/2+y,z
4 1/2-x,1/2+y,1/2-z
5 -x,-y,-z
6 x,-y,1/2+z
7 1/2-x,1/2-y,-z
8 1/2+x,1/2-y,1/2+z
_cell_length_a                   26.4660(11)
_cell_length_b                   6.2910(3)
_cell_length_c                   12.0820(7)
_cell_angle_alpha                90
_cell_angle_beta                 104.7460(17)
_cell_angle_gamma                90
_cell_volume                     1945.37
_exptl_crystal_colour            colorless
_exptl_crystal_description       prism
_chemical_melting_point          282-283deg.C
_cell_formula_units_Z            4
_exptl_crystal_recrystallization_method chloroform/acetonitrile
_exptl_crystal_preparation       'magnetic properties'
loop_
_atom_site_label
_atom_site_type_symbol
_atom_site_fract_x
_atom_site_fract_y
_atom_site_fract_z
O1 O 0.15205(5) 0.9231(2) 0.02302(10)
N1 N -0.02218(5) 0.0916(2) -0.10788(11)
N2 N 0.08003(5) 0.4594(2) -0.00291(11)
N3 N 0.10136(5) 0.6361(2) -0.03782(11)
C1 C 0.16002(6) 0.6438(3) 0.15852(14)
C2 C 0.18021(6) 0.4387(3) 0.17139(14)
H1 H 0.1758 0.3484 0.1066
C3 C 0.19096(6) 0.6971(3) 0.36180(15)
H2 H 0.1937 0.7837 0.4275
C4 C 0.13790(6) 0.7463(3) 0.04436(14)
C5 C 0.21193(6) 0.4947(3) 0.37308(15)
H3 H 0.2301 0.4436 0.4464
C6 C 0.02132(6) 0.1710(3) -0.03612(14)
C7 C 0.16598(6) 0.7726(3) 0.25474(15)
H4 H 0.1527 0.9137 0.2465
C8 C 0.04440(6) 0.3574(3) -0.07507(13)
H5 H 0.0333 0.4027 -0.1525
C9 C 0.20657(6) 0.3664(3) 0.27810(15)
H6 H 0.2211 0.2275 0.2864
C10 C 0.04270(6) 0.0779(3) 0.07025(14)
H7 H 0.0734 0.1387 0.1181
C11 C 0.08339(7) 0.7195(3) -0.15360(15)
H8 H 0.0905 0.6153 -0.2081
H9 H 0.1019 0.8522 -0.1599
H10 H 0.0457 0.7470 -0.1708
O1D O -0.15205(5) -0.9231(2) -0.02302(10)
N1D N 0.02218(5) -0.0916(2) 0.10788(11)
N2D N -0.08003(5) -0.4594(2) 0.00291(11)
N3D N -0.10136(5) -0.6361(2) 0.03782(11)
C1D C -0.16002(6) -0.6438(3) -0.15852(14)
C2D C -0.18021(6) -0.4387(3) -0.17139(14)
H1D H -0.1758 -0.3484 -0.1066
C3D C -0.19096(6) -0.6971(3) -0.36180(15)
H2D H -0.1937 -0.7837 -0.4275
C4D C -0.13790(6) -0.7463(3) -0.04436(14)
C5D C -0.21193(6) -0.4947(3) -0.37308(15)
H3D H -0.2301 -0.4436 -0.4464
C6D C -0.02132(6) -0.1710(3) 0.03612(14)
C7D C -0.16598(6) -0.7726(3) -0.25474(15)
H4D H -0.1527 -0.9137 -0.2465
C8D C -0.04440(6) -0.3574(3) 0.07507(13)
H5D H -0.0333 -0.4027 0.1525
C9D C -0.20657(6) -0.3664(3) -0.27810(15)
H6D H -0.2211 -0.2275 -0.2864
C10D C -0.04270(6) -0.0779(3) -0.07025(14)
H7D H -0.0734 -0.1387 -0.1181
C11D C -0.08339(7) -0.7195(3) 0.15360(15)
H8D H -0.0905 -0.6153 0.2081
H9D H -0.1019 -0.8522 0.1599
H10D H -0.0457 -0.7470 0.1708
loop_
_geom_bond_atom_site_label_1
_geom_bond_atom_site_label_2
_geom_bond_site_symmetry_1
_geom_bond_site_symmetry_2
O1 C4 1_555 1_555
N1 C6 1_555 1_555
N2 N3 1_555 1_555
N3 C4 1_555 1_555
C1 C2 1_555 1_555
C2 H1 1_555 1_555
C3 H2 1_555 1_555
C4 C1 1_555 1_555
C5 C3 1_555 1_555
H3 C5 1_555 1_555
C6 C8 1_555 1_555
C7 C1 1_555 1_555
H4 C7 1_555 1_555
C8 N2 1_555 1_555
H5 C8 1_555 1_555
C9 C2 1_555 1_555
H6 C9 1_555 1_555
C10 C6 1_555 1_555
H7 C10 1_555 1_555
C11 N3 1_555 1_555
H8 C11 1_555 1_555
H9 C11 1_555 1_555
H10 C11 1_555 1_555
O1D C4D 1_555 1_555
N1D C10 1_555 1_555
N2D N3D 1_555 1_555
N3D C4D 1_555 1_555
C1D C2D 1_555 1_555
C2D H1D 1_555 1_555
C3D H2D 1_555 1_555
C4D C1D 1_555 1_555
C5D C3D 1_555 1_555
H3D C5D 1_555 1_555
C6D N1D 1_555 1_555
C7D C1D 1_555 1_555
H4D C7D 1_555 1_555
C8D N2D 1_555 1_555
H5D C8D 1_555 1_555
C9D C2D 1_555 1_555
H6D C9D 1_555 1_555
C10D N1 1_555 1_555
H7D C10D 1_555 1_555
C11D N3D 1_555 1_555
H8D C11D 1_555 1_555
H9D C11D 1_555 1_555
H10D C11D 1_555 1_555
C3 C7 1_555 1_555
C5 C9 1_555 1_555
C3D C7D 1_555 1_555
C5D C9D 1_555 1_555
C6D C8D 1_555 1_555
C6D C10D 1_555 1_555

#END
