
#######################################################################
#
#                 Cambridge Crystallographic Data Centre
#                                CCDC 
#
#######################################################################
#
# If this CIF has been generated from an entry in the Cambridge 
# Structural Database, then it will include bibliographic, chemical, 
# crystal, experimental, refinement or atomic coordinate data resulting 
# from the CCDC's data processing and validation procedures.
#
#######################################################################

data_FOTZIZ
_chemical_formula_moiety         'C15 H12 Br1 N3 O2'
_chemical_name_systematic        
2-(4-Bromophenyl)-3-nitro-4-vinylcyclopentane-1,1-dicarbonitrile
_symmetry_cell_setting           monoclinic
_symmetry_space_group_name_H-M   'P 21'
_symmetry_Int_Tables_number      4
_space_group_name_Hall           'P 2yb'
loop_
_symmetry_equiv_pos_site_id
_symmetry_equiv_pos_as_xyz
1 x,y,z
2 -x,1/2+y,-z
_cell_length_a                   7.7681(10)
_cell_length_b                   6.7282(7)
_cell_length_c                   14.8327(13)
_cell_angle_alpha                90
_cell_angle_beta                 96.338(10)
_cell_angle_gamma                90
_cell_volume                     770.498
_exptl_crystal_colour            colorless
_cell_formula_units_Z            2
loop_
_atom_site_label
_atom_site_type_symbol
_atom_site_fract_x
_atom_site_fract_y
_atom_site_fract_z
Br1 Br 0.35848(6) 0.72839(6) 0.66734(3)
O1 O 0.1113(5) 1.1070(5) 0.1062(2)
C1 C 0.2069(5) 0.8247(5) 0.3571(3)
N1 N 0.2579(5) 1.0793(5) 0.1443(2)
C2 C 0.1482(5) 0.8503(5) 0.2575(3)
H1 H 0.0697 0.9647 0.2513
C3 C 0.2918(5) 0.8877(5) 0.1957(3)
H2 H 0.4052 0.8923 0.2318
C4 C 0.2851(4) 0.7137(7) 0.1275(2)
H3 H 0.3505 0.6035 0.1578
O2 O 0.3774(4) 1.1954(5) 0.1425(2)
C5 C 0.4088(5) 0.7095(8) 0.4811(3)
H4 H 0.5150 0.6530 0.5020
C6 C 0.0971(5) 0.8835(6) 0.4198(3)
H5 H -0.0080 0.9431 0.3995
C7 C 0.3652(5) 0.7577(7) 0.0425(3)
H6 H 0.4828 0.7875 0.0491
C8 C 0.2967(5) 0.7668(6) 0.5410(3)
C9 C 0.1401(6) 0.8557(7) 0.5114(3)
H7 H 0.0652 0.8960 0.5527
N2 N 0.1324(5) 0.3347(5) 0.2999(3)
C10 C 0.0932(5) 0.4788(6) 0.2635(3)
C11 C 0.2884(6) 0.7586(11) -0.0384(3)
H8 H 0.1708 0.7298 -0.0486
H9 H 0.3502 0.7881 -0.0870
C12 C 0.3628(4) 0.7363(8) 0.3890(2)
H10 H 0.4377 0.6945 0.3481
C13 C 0.0449(5) 0.6641(5) 0.2137(3)
N3 N -0.2869(4) 0.7202(9) 0.2170(3)
C14 C 0.0951(5) 0.6523(5) 0.1158(3)
H11 H 0.0810 0.5184 0.0918
H12 H 0.0261 0.7430 0.0758
C15 C -0.1443(5) 0.6927(6) 0.2154(3)
loop_
_geom_bond_atom_site_label_1
_geom_bond_atom_site_label_2
_geom_bond_site_symmetry_1
_geom_bond_site_symmetry_2
Br1 C8 1_555 1_555
O1 N1 1_555 1_555
C1 C2 1_555 1_555
N1 C3 1_555 1_555
C2 H1 1_555 1_555
C3 C2 1_555 1_555
H2 C3 1_555 1_555
C4 C3 1_555 1_555
H3 C4 1_555 1_555
O2 N1 1_555 1_555
C5 H4 1_555 1_555
C6 C1 1_555 1_555
H5 C6 1_555 1_555
C7 C4 1_555 1_555
H6 C7 1_555 1_555
C8 C5 1_555 1_555
C9 C6 1_555 1_555
H7 C9 1_555 1_555
N2 C10 1_555 1_555
C10 C13 1_555 1_555
C11 C7 1_555 1_555
H8 C11 1_555 1_555
H9 C11 1_555 1_555
C12 C1 1_555 1_555
H10 C12 1_555 1_555
C13 C2 1_555 1_555
N3 C15 1_555 1_555
C14 C4 1_555 1_555
H11 C14 1_555 1_555
H12 C14 1_555 1_555
C15 C13 1_555 1_555
C5 C12 1_555 1_555
C8 C9 1_555 1_555
C13 C14 1_555 1_555

#END
