
#######################################################################
#
#                 Cambridge Crystallographic Data Centre
#                                CCDC 
#
#######################################################################
#
# If this CIF has been generated from an entry in the Cambridge 
# Structural Database, then it will include bibliographic, chemical, 
# crystal, experimental, refinement or atomic coordinate data resulting 
# from the CCDC's data processing and validation procedures.
#
#######################################################################

data_FOTZOF
_chemical_formula_moiety         'C15 H12 Br1 N3 O2'
_chemical_name_systematic        
2-(4-Bromophenyl)-3-nitro-4-vinylcyclopentane-1,1-dicarbonitrile
_symmetry_cell_setting           orthorhombic
_symmetry_space_group_name_H-M   'P 21 21 2'
_symmetry_Int_Tables_number      18
_space_group_name_Hall           'P 2 2ab'
loop_
_symmetry_equiv_pos_site_id
_symmetry_equiv_pos_as_xyz
1 x,y,z
2 -x,-y,z
3 1/2+x,1/2-y,-z
4 1/2-x,1/2+y,-z
_cell_length_a                   7.4473(2)
_cell_length_b                   38.3117(13)
_cell_length_c                   11.3271(5)
_cell_angle_alpha                90
_cell_angle_beta                 90
_cell_angle_gamma                90
_cell_volume                     3231.83
_cell_formula_units_Z            8
loop_
_atom_site_label
_atom_site_type_symbol
_atom_site_fract_x
_atom_site_fract_y
_atom_site_fract_z
Br1 Br 0.40420(15) 0.25336(3) 1.28068(12)
N1 N 0.1079(11) 0.0846(2) 1.3816(8)
O1 O 0.1972(11) 0.0760(3) 1.2969(9)
C1 C -0.0764(11) 0.0986(2) 1.3600(7)
H1 H -0.0947 0.1017 1.2750
C2 C -0.1030(11) 0.1334(2) 1.4227(6)
H2 H -0.0798 0.1294 1.5068
C3 C 0.0139(11) 0.1631(2) 1.3853(6)
C4 C 0.0663(12) 0.1677(2) 1.2690(7)
H3 H 0.0235 0.1527 1.2107
O2 O 0.1609(12) 0.0824(3) 1.4821(8)
C5 C 0.0739(15) 0.1869(2) 1.4700(7)
H4 H 0.0374 0.1845 1.5482
C6 C 0.1835(12) 0.1947(2) 1.2395(8)
H5 H 0.2225 0.1972 1.1619
C7 C -0.3851(14) 0.0999(3) 1.4132(11)
H6 H -0.4530 0.0964 1.4853
H7 H -0.4636 0.0955 1.3465
C8 C 0.1867(15) 0.2137(3) 1.4384(9)
H8 H 0.2264 0.2295 1.4953
N2 N -0.3950(14) 0.1651(3) 1.2042(8)
C9 C -0.2250(13) 0.0755(2) 1.4096(9)
H9 H -0.1935 0.0691 1.4908
C10 C 0.2408(11) 0.2174(2) 1.3236(8)
C11 C -0.3109(11) 0.1376(2) 1.4081(7)
C12 C -0.3556(12) 0.1543(3) 1.2937(8)
N3 N -0.4439(14) 0.1773(3) 1.5744(8)
C13 C -0.3877(14) 0.1605(3) 1.5016(8)
C14 C -0.2540(19) 0.0429(3) 1.3408(14)
H10 H -0.2814 0.0467 1.2617
C15 C -0.249(3) 0.0125(4) 1.369(2)
H11 H -0.2221 0.0064 1.4466
H12 H -0.2707 -0.0047 1.3132
Br2 Br 0.21886(19) -0.02499(3) 0.7734(2)
C16 C 0.3593(9) 0.15658(19) 0.8555(7)
H13 H 0.3848 0.1549 0.7708
O3 O 0.0686(10) 0.1659(2) 0.7865(8)
C17 C 0.4627(10) 0.18684(19) 0.9071(7)
H14 H 0.4260 0.1894 0.9897
C18 C 0.4302(11) 0.12487(19) 0.9163(7)
H15 H 0.4011 0.1275 1.0002
N4 N 0.7603(13) 0.1079(2) 0.7035(7)
C19 C 0.3668(11) 0.08912(19) 0.8801(7)
O4 O 0.1027(10) 0.1605(2) 0.9730(7)
C20 C 0.6385(10) 0.1322(2) 0.9035(6)
C21 C 0.6552(10) 0.1726(2) 0.9060(8)
H16 H 0.7195 0.1801 0.9760
H17 H 0.7193 0.1808 0.8369
C22 C 0.3548(16) 0.2473(3) 0.8946(11)
H18 H 0.3103 0.2458 0.9712
H19 H 0.3419 0.2679 0.8520
C23 C 0.7391(13) 0.1139(2) 0.9974(7)
C24 C 0.4339(12) 0.2211(2) 0.8480(9)
H20 H 0.4767 0.2236 0.7713
C25 C 0.2738(14) 0.0218(3) 0.8205(15)
C26 C 0.3020(18) 0.0289(2) 0.9362(14)
H21 H 0.2879 0.0118 0.9939
C27 C 0.3282(12) 0.0801(2) 0.7660(8)
H22 H 0.3339 0.0972 0.7077
C28 C 0.2813(14) 0.0468(3) 0.7351(10)
H23 H 0.2551 0.0413 0.6570
N5 N 0.1606(9) 0.16093(19) 0.8734(7)
C29 C 0.3534(14) 0.0631(3) 0.9653(10)
H24 H 0.3791 0.0686 1.0435
C30 C 0.7094(10) 0.11795(19) 0.7890(8)
N6 N 0.8136(16) 0.0997(2) 1.0709(8)
loop_
_geom_bond_atom_site_label_1
_geom_bond_atom_site_label_2
_geom_bond_site_symmetry_1
_geom_bond_site_symmetry_2
Br1 C10 1_555 1_555
N1 O1 1_555 1_555
C1 N1 1_555 1_555
H1 C1 1_555 1_555
C2 C1 1_555 1_555
H2 C2 1_555 1_555
C3 C2 1_555 1_555
C4 C3 1_555 1_555
H3 C4 1_555 1_555
O2 N1 1_555 1_555
C5 C3 1_555 1_555
H4 C5 1_555 1_555
C6 C4 1_555 1_555
H5 C6 1_555 1_555
C7 H6 1_555 1_555
H7 C7 1_555 1_555
C8 C5 1_555 1_555
H8 C8 1_555 1_555
N2 C12 1_555 1_555
C9 C1 1_555 1_555
H9 C9 1_555 1_555
C10 C6 1_555 1_555
C11 C2 1_555 1_555
C12 C11 1_555 1_555
N3 C13 1_555 1_555
C13 C11 1_555 1_555
C14 C9 1_555 1_555
H10 C14 1_555 1_555
C15 C14 1_555 1_555
H11 C15 1_555 1_555
H12 C15 1_555 1_555
Br2 C25 1_555 1_555
C16 H13 1_555 1_555
O3 N5 1_555 1_555
C17 C16 1_555 1_555
H14 C17 1_555 1_555
C18 C16 1_555 1_555
H15 C18 1_555 1_555
N4 C30 1_555 1_555
C19 C18 1_555 1_555
O4 N5 1_555 1_555
C20 C18 1_555 1_555
C21 C17 1_555 1_555
H16 C21 1_555 1_555
H17 C21 1_555 1_555
C22 H18 1_555 1_555
H19 C22 1_555 1_555
C23 C20 1_555 1_555
C24 C17 1_555 1_555
H20 C24 1_555 1_555
C25 C26 1_555 1_555
C26 H21 1_555 1_555
C27 C19 1_555 1_555
H22 C27 1_555 1_555
C28 C25 1_555 1_555
H23 C28 1_555 1_555
N5 C16 1_555 1_555
C29 C19 1_555 1_555
H24 C29 1_555 1_555
C30 C20 1_555 1_555
N6 C23 1_555 1_555
C7 C9 1_555 1_555
C7 C11 1_555 1_555
C8 C10 1_555 1_555
C20 C21 1_555 1_555
C22 C24 1_555 1_555
C26 C29 1_555 1_555
C27 C28 1_555 1_555

#END
