
#######################################################################
#
#                 Cambridge Crystallographic Data Centre
#                                CCDC 
#
#######################################################################
#
# If this CIF has been generated from an entry in the Cambridge 
# Structural Database, then it will include bibliographic, chemical, 
# crystal, experimental, refinement or atomic coordinate data resulting 
# from the CCDC's data processing and validation procedures.
#
#######################################################################

data_FOVFUT
_chemical_formula_moiety         'C32 H28 N2 O6 S2'
_chemical_name_systematic        
14,15-bis((4-methylphenyl)sulfonyl)-12-phenyl-8-oxa-14,15-diazatricyclo[7.5.1.0^2,7^]pentadeca-2,4,6,12-tetraen-10-one
_symmetry_cell_setting           monoclinic
_symmetry_space_group_name_H-M   'P 21/c'
_symmetry_Int_Tables_number      14
_space_group_name_Hall           '-P 2ybc'
loop_
_symmetry_equiv_pos_site_id
_symmetry_equiv_pos_as_xyz
1 x,y,z
2 -x,1/2+y,1/2-z
3 -x,-y,-z
4 x,1/2-y,1/2+z
_cell_length_a                   17.4958(18)
_cell_length_b                   11.4975(12)
_cell_length_c                   15.7284(17)
_cell_angle_alpha                90
_cell_angle_beta                 115.554(2)
_cell_angle_gamma                90
_cell_volume                     2854.4
_exptl_crystal_colour            colorless
_exptl_crystal_description       prismatic
_cell_formula_units_Z            4
loop_
_atom_site_label
_atom_site_type_symbol
_atom_site_fract_x
_atom_site_fract_y
_atom_site_fract_z
S1 S 0.35191(4) 0.03218(6) 1.05472(5)
S2 S 0.30145(4) 0.34973(6) 0.89349(5)
N1 N 0.26758(12) 0.11449(17) 1.03295(14)
N2 N 0.24300(12) 0.29645(16) 0.94342(14)
O1 O 0.11711(12) 0.19983(15) 1.11599(13)
O2 O 0.14468(11) 0.01827(14) 1.02450(12)
O3 O 0.41951(11) 0.10630(17) 1.06310(15)
O4 O 0.36099(12) -0.04008(16) 1.13232(14)
O5 O 0.34569(13) 0.25328(17) 0.87891(15)
O6 O 0.24966(13) 0.41847(18) 0.81378(12)
C1 C 0.18221(16) 0.2033(2) 1.10751(16)
C2 C 0.23580(15) 0.3124(2) 1.12562(17)
H1 H 0.2432 0.3476 1.1847
H2 H 0.2913 0.2930 1.1298
C3 C 0.19165(14) 0.39696(19) 1.04536(16)
C4 C 0.19305(15) 0.3814(2) 0.96232(17)
H3 H 0.1589 0.4294 0.9129
C5 C 0.22675(15) 0.1711(2) 0.94071(16)
H4 H 0.2516 0.1365 0.9014
C6 C 0.13373(15) 0.14118(19) 0.89463(16)
C7 C 0.08185(16) 0.1835(2) 0.80536(17)
H5 H 0.1028 0.2392 0.7780
C8 C 0.00018(19) 0.1442(3) 0.7569(2)
H6 H -0.0338 0.1735 0.6973
C9 C -0.03167(18) 0.0608(3) 0.7969(2)
H7 H -0.0864 0.0328 0.7631
C10 C 0.01662(17) 0.0194(2) 0.8854(2)
H8 H -0.0051 -0.0358 0.9124
C11 C 0.09934(15) 0.0612(2) 0.93507(17)
C12 C 0.21380(15) 0.0907(2) 1.07907(17)
H9 H 0.2481 0.0486 1.1373
C13 C 0.14288(15) 0.4956(2) 1.05788(17)
C14 C 0.13547(18) 0.5993(2) 1.00935(19)
H10 H 0.1635 0.6074 0.9711
C15 C 0.0874(2) 0.6905(2) 1.0168(2)
H11 H 0.0820 0.7584 0.9825
C16 C 0.04780(18) 0.6807(3) 1.0750(2)
H12 H 0.0150 0.7416 1.0800
C17 C 0.05660(19) 0.5818(3) 1.1253(2)
H13 H 0.0307 0.5762 1.1658
C18 C 0.10352(17) 0.4889(2) 1.11736(19)
H14 H 0.1086 0.4217 1.1523
C19 C 0.32495(16) -0.0529(2) 0.95329(19)
C20 C 0.3734(2) -0.0453(3) 0.9043(2)
H15 H 0.4180 0.0074 0.9223
C21 C 0.3547(2) -0.1174(3) 0.8279(3)
H16 H 0.3878 -0.1133 0.7950
C22 C 0.2884(2) -0.1953(3) 0.7987(2)
C23 C 0.2398(2) -0.1980(3) 0.8474(2)
H17 H 0.1936 -0.2480 0.8276
C24 C 0.25756(18) -0.1286(2) 0.9249(2)
H18 H 0.2244 -0.1327 0.9578
C25 C 0.2715(3) -0.2773(3) 0.7175(3)
H19 H 0.3142 -0.3368 0.7370
H20 H 0.2729 -0.2348 0.6656
H21 H 0.2168 -0.3124 0.6983
C26 C 0.36949(16) 0.4443(2) 0.98088(18)
C27 C 0.3629(2) 0.5600(3) 0.9645(2)
H22 H 0.3258 0.5883 0.9057
C28 C 0.4111(2) 0.6363(3) 1.0349(3)
H23 H 0.4062 0.7156 1.0221
C29 C 0.46541(17) 0.5998(3) 1.1220(2)
C30 C 0.4731(2) 0.4821(3) 1.1361(2)
H24 H 0.5110 0.4538 1.1945
C31 C 0.42647(19) 0.4043(3) 1.0666(2)
H25 H 0.4337 0.3248 1.0779
C32 C 0.5144(2) 0.6861(3) 1.1989(2)
H26 H 0.5148 0.7604 1.1713
H27 H 0.5716 0.6592 1.2334
H28 H 0.4880 0.6934 1.2410
loop_
_geom_bond_atom_site_label_1
_geom_bond_atom_site_label_2
_geom_bond_site_symmetry_1
_geom_bond_site_symmetry_2
S1 N1 1_555 1_555
S2 N2 1_555 1_555
N1 C5 1_555 1_555
N2 C4 1_555 1_555
O1 C1 1_555 1_555
O2 C11 1_555 1_555
O3 S1 1_555 1_555
O4 S1 1_555 1_555
O5 S2 1_555 1_555
O6 S2 1_555 1_555
C1 C2 1_555 1_555
C2 H1 1_555 1_555
H2 C2 1_555 1_555
C3 C2 1_555 1_555
C4 C3 1_555 1_555
H3 C4 1_555 1_555
C5 N2 1_555 1_555
H4 C5 1_555 1_555
C6 C5 1_555 1_555
C7 C6 1_555 1_555
H5 C7 1_555 1_555
C8 C7 1_555 1_555
H6 C8 1_555 1_555
C9 C8 1_555 1_555
H7 C9 1_555 1_555
C10 C9 1_555 1_555
H8 C10 1_555 1_555
C11 C6 1_555 1_555
C12 N1 1_555 1_555
H9 C12 1_555 1_555
C13 C3 1_555 1_555
C14 C13 1_555 1_555
H10 C14 1_555 1_555
C15 C14 1_555 1_555
H11 C15 1_555 1_555
C16 C15 1_555 1_555
H12 C16 1_555 1_555
C17 C16 1_555 1_555
H13 C17 1_555 1_555
C18 C13 1_555 1_555
H14 C18 1_555 1_555
C19 S1 1_555 1_555
C20 C19 1_555 1_555
H15 C20 1_555 1_555
C21 C20 1_555 1_555
H16 C21 1_555 1_555
C22 C21 1_555 1_555
C23 C22 1_555 1_555
H17 C23 1_555 1_555
C24 C19 1_555 1_555
H18 C24 1_555 1_555
C25 C22 1_555 1_555
H19 C25 1_555 1_555
H20 C25 1_555 1_555
H21 C25 1_555 1_555
C26 S2 1_555 1_555
C27 C26 1_555 1_555
H22 C27 1_555 1_555
C28 C27 1_555 1_555
H23 C28 1_555 1_555
C29 C28 1_555 1_555
C30 C29 1_555 1_555
H24 C30 1_555 1_555
C31 C26 1_555 1_555
H25 C31 1_555 1_555
C32 C29 1_555 1_555
H26 C32 1_555 1_555
H27 C32 1_555 1_555
H28 C32 1_555 1_555
O2 C12 1_555 1_555
C1 C12 1_555 1_555
C10 C11 1_555 1_555
C17 C18 1_555 1_555
C23 C24 1_555 1_555
C30 C31 1_555 1_555

#END
