
#######################################################################
#
#                 Cambridge Crystallographic Data Centre
#                                CCDC 
#
#######################################################################
#
# If this CIF has been generated from an entry in the Cambridge 
# Structural Database, then it will include bibliographic, chemical, 
# crystal, experimental, refinement or atomic coordinate data resulting 
# from the CCDC's data processing and validation procedures.
#
#######################################################################

data_FOVNEK
_chemical_formula_moiety         'C16 H13 N3 S2'
_chemical_name_systematic        bis(Benzothiazol-2-ylmethyl)amine
_symmetry_cell_setting           monoclinic
_symmetry_space_group_name_H-M   'P 21'
_symmetry_Int_Tables_number      4
_space_group_name_Hall           'P 2yb'
loop_
_symmetry_equiv_pos_site_id
_symmetry_equiv_pos_as_xyz
1 x,y,z
2 -x,1/2+y,-z
_cell_length_a                   7.8478(5)
_cell_length_b                   5.8042(3)
_cell_length_c                   16.1548(9)
_cell_angle_alpha                90
_cell_angle_beta                 97.9100(10)
_cell_angle_gamma                90
_cell_volume                     728.853
_exptl_crystal_colour            colorless
_exptl_crystal_description       block
_cell_formula_units_Z            2
_exptl_crystal_recrystallization_method dichloromethane
loop_
_atom_site_label
_atom_site_type_symbol
_atom_site_fract_x
_atom_site_fract_y
_atom_site_fract_z
C1 C 0.32522(18) -0.2480(3) 0.92805(8)
H1 H 0.4335 -0.3306 0.9380
H2 H 0.2355 -0.3573 0.9078
C2 C 0.28685(17) -0.1421(3) 1.00759(9)
C3 C 0.27501(17) -0.0905(3) 1.14199(9)
C4 C 0.30208(19) -0.1344(3) 1.22742(9)
H3 H 0.3569 -0.2685 1.2483
C5 C 0.2453(2) 0.0270(3) 1.28049(10)
H4 H 0.2626 0.0001 1.3378
C6 C 0.1634(2) 0.2274(4) 1.25053(10)
H5 H 0.1279 0.3328 1.2880
C7 C 0.13337(18) 0.2734(3) 1.16584(9)
H6 H 0.0775 0.4074 1.1456
C8 C 0.18981(17) 0.1116(3) 1.11172(8)
C9 C 0.3518(2) -0.1629(3) 0.78314(9)
H7 H 0.2734 -0.2916 0.7712
H8 H 0.4680 -0.2194 0.7827
C10 C 0.31251(18) 0.0167(3) 0.71708(9)
C11 C 0.30569(18) 0.1982(3) 0.59715(9)
C12 C 0.3417(2) 0.2449(4) 0.51678(10)
H9 H 0.4135 0.1486 0.4912
C13 C 0.2688(2) 0.4370(4) 0.47583(10)
H10 H 0.2930 0.4705 0.4224
C14 C 0.1602(2) 0.5812(4) 0.51276(11)
H11 H 0.1131 0.7100 0.4840
C15 C 0.1213(2) 0.5352(3) 0.59197(11)
H12 H 0.0482 0.6313 0.6168
C16 C 0.19401(18) 0.3417(3) 0.63367(9)
N1 N 0.33530(16) -0.0701(2) 0.86544(8)
H13 H 0.413(2) 0.023(3) 0.8796(11)
N2 N 0.32946(14) -0.2309(2) 1.08061(7)
N3 N 0.37321(16) 0.0144(3) 0.64678(8)
S1 S 0.17864(5) 0.12218(6) 1.00381(2)
S2 S 0.17133(5) 0.23922(7) 0.73265(2)
loop_
_geom_bond_atom_site_label_1
_geom_bond_atom_site_label_2
_geom_bond_site_symmetry_1
_geom_bond_site_symmetry_2
C1 H1 1_555 1_555
H2 C1 1_555 1_555
C2 C1 1_555 1_555
C3 C4 1_555 1_555
C4 H3 1_555 1_555
C5 C4 1_555 1_555
H4 C5 1_555 1_555
C6 C5 1_555 1_555
H5 C6 1_555 1_555
C7 C6 1_555 1_555
H6 C7 1_555 1_555
C8 C3 1_555 1_555
C9 H7 1_555 1_555
H8 C9 1_555 1_555
C10 C9 1_555 1_555
C11 C12 1_555 1_555
C12 H9 1_555 1_555
C13 C12 1_555 1_555
H10 C13 1_555 1_555
C14 C13 1_555 1_555
H11 C14 1_555 1_555
C15 C14 1_555 1_555
H12 C15 1_555 1_555
C16 C11 1_555 1_555
N1 C1 1_555 1_555
H13 N1 1_555 1_555
N2 C2 1_555 1_555
N3 C10 1_555 1_555
S1 C2 1_555 1_555
S2 C10 1_555 1_555
C3 N2 1_555 1_555
C7 C8 1_555 1_555
C8 S1 1_555 1_555
C9 N1 1_555 1_555
C11 N3 1_555 1_555
C15 C16 1_555 1_555
C16 S2 1_555 1_555

#END
