
#######################################################################
#
#                 Cambridge Crystallographic Data Centre
#                                CCDC 
#
#######################################################################
#
# If this CIF has been generated from an entry in the Cambridge 
# Structural Database, then it will include bibliographic, chemical, 
# crystal, experimental, refinement or atomic coordinate data resulting 
# from the CCDC's data processing and validation procedures.
#
#######################################################################

data_FOVNUA01
_chemical_formula_moiety         'C16 H14 O4'
_chemical_name_systematic        "Dimethyl biphenyl-4,4'-dicarboxylate"
_symmetry_cell_setting           orthorhombic
_symmetry_space_group_name_H-M   'P b c a'
_symmetry_Int_Tables_number      61
_space_group_name_Hall           '-P 2ac 2ab'
loop_
_symmetry_equiv_pos_site_id
_symmetry_equiv_pos_as_xyz
1 x,y,z
2 1/2-x,-y,1/2+z
3 -x,1/2+y,1/2-z
4 1/2+x,1/2-y,-z
5 -x,-y,-z
6 1/2+x,y,1/2-z
7 x,1/2-y,1/2+z
8 1/2-x,1/2+y,z
_cell_length_a                   7.1095(7)
_cell_length_b                   5.9603(6)
_cell_length_c                   29.678(3)
_cell_angle_alpha                90
_cell_angle_beta                 90
_cell_angle_gamma                90
_cell_volume                     1257.6
_exptl_crystal_colour            colorless
_exptl_crystal_description       plate
_cell_formula_units_Z            4
loop_
_atom_site_label
_atom_site_type_symbol
_atom_site_fract_x
_atom_site_fract_y
_atom_site_fract_z
C1 C 1.00044(15) 0.30543(18) 0.34095(3)
C2 C 1.00617(13) 0.21864(17) 0.38803(3)
C3 C 1.08048(14) 0.34346(17) 0.42355(3)
H1 H 1.1330 0.4874 0.4180
C4 C 1.07773(13) 0.25710(17) 0.46713(3)
H2 H 1.1294 0.3434 0.4910
C5 C 1.00072(13) 0.04608(16) 0.47659(3)
C6 C 0.92640(14) -0.07700(17) 0.44035(3)
H3 H 0.8727 -0.2205 0.4457
C7 C 0.93020(14) 0.00788(17) 0.39667(3)
H4 H 0.8806 -0.0787 0.3726
C8 C 1.05034(17) 0.6157(2) 0.29328(4)
H5 H 1.1325 0.5329 0.2726
H6 H 1.0903 0.7729 0.2946
H7 H 0.9202 0.6077 0.2825
O1 O 0.94330(13) 0.19811(15) 0.30921(3)
O2 O 1.06218(12) 0.51715(13) 0.33790(2)
C1D C 0.99956(15) -0.30543(18) 0.65905(3)
C2D C 0.99383(13) -0.21864(17) 0.61197(3)
C3D C 0.91952(14) -0.34346(17) 0.57645(3)
H1D H 0.8670 -0.4874 0.5820
C4D C 0.92227(13) -0.25710(17) 0.53287(3)
H2D H 0.8706 -0.3434 0.5090
C5D C 0.99928(13) -0.04608(16) 0.52341(3)
C6D C 1.07360(14) 0.07700(17) 0.55965(3)
H3D H 1.1273 0.2205 0.5543
C7D C 1.06980(14) -0.00788(17) 0.60333(3)
H4D H 1.1194 0.0787 0.6274
C8D C 0.94966(17) -0.6157(2) 0.70672(4)
H5D H 0.8675 -0.5329 0.7274
H6D H 0.9097 -0.7729 0.7054
H7D H 1.0798 -0.6077 0.7175
O1D O 1.05670(13) -0.19811(15) 0.69079(3)
O2D O 0.93782(12) -0.51715(13) 0.66210(2)
loop_
_geom_bond_atom_site_label_1
_geom_bond_atom_site_label_2
_geom_bond_site_symmetry_1
_geom_bond_site_symmetry_2
C1 C2 1_555 1_555
C2 C3 1_555 1_555
C3 H1 1_555 1_555
C4 C3 1_555 1_555
H2 C4 1_555 1_555
C5 C4 1_555 1_555
C6 C5 1_555 1_555
H3 C6 1_555 1_555
C7 C2 1_555 1_555
H4 C7 1_555 1_555
C8 H5 1_555 1_555
H6 C8 1_555 1_555
H7 C8 1_555 1_555
O1 C1 1_555 1_555
O2 C1 1_555 1_555
C1D C2D 1_555 1_555
C2D C3D 1_555 1_555
C3D H1D 1_555 1_555
C4D C3D 1_555 1_555
H2D C4D 1_555 1_555
C5D C5 1_555 1_555
C6D C5D 1_555 1_555
H3D C6D 1_555 1_555
C7D C2D 1_555 1_555
H4D C7D 1_555 1_555
C8D H5D 1_555 1_555
H6D C8D 1_555 1_555
H7D C8D 1_555 1_555
O1D C1D 1_555 1_555
O2D C1D 1_555 1_555
C6 C7 1_555 1_555
C8 O2 1_555 1_555
C4D C5D 1_555 1_555
C6D C7D 1_555 1_555
C8D O2D 1_555 1_555

#END
