
#######################################################################
#
#                 Cambridge Crystallographic Data Centre
#                                CCDC 
#
#######################################################################
#
# If this CIF has been generated from an entry in the Cambridge 
# Structural Database, then it will include bibliographic, chemical, 
# crystal, experimental, refinement or atomic coordinate data resulting 
# from the CCDC's data processing and validation procedures.
#
#######################################################################

data_FOVRIS
_chemical_name_common            
'25,26,27,28-Tetrabutoxy-5,11,17,23-tetra-t-butylcalix[4]arene chloroform solvate dihydrate'
_chemical_formula_moiety         'C60 H88 O4,4(C1 H1 Cl3),2(H2 O1)'
_chemical_name_systematic        
'25,26,27,28-tetra-n-butoxy-5,11,17,23-tetrakis(2-methyl-2-propanyl)pentacyclo[19.3.1.1^3,7^.1^9,13^.1^15,19^]octacosa-1(25),3(28),4,6,9(27),10,12,15(26),16,18,21,23-dodecaene chloroform solvate dihydrate'
_symmetry_cell_setting           orthorhombic
_symmetry_space_group_name_H-M   'P b c n'
_symmetry_Int_Tables_number      60
_space_group_name_Hall           '-P 2n 2ab'
loop_
_symmetry_equiv_pos_site_id
_symmetry_equiv_pos_as_xyz
1 x,y,z
2 1/2-x,1/2-y,1/2+z
3 1/2+x,1/2-y,-z
4 -x,y,1/2-z
5 -x,-y,-z
6 1/2+x,1/2+y,1/2-z
7 1/2-x,1/2+y,z
8 x,-y,1/2+z
_cell_length_a                   23.697(6)
_cell_length_b                   13.682(6)
_cell_length_c                   25.402(11)
_cell_angle_alpha                90
_cell_angle_beta                 90
_cell_angle_gamma                90
_cell_volume                     8235.9
_exptl_crystal_colour            colorless
_exptl_crystal_description       block
_cell_formula_units_Z            4
_exptl_crystal_recrystallization_method methanol/chloroform
loop_
_atom_site_label
_atom_site_type_symbol
_atom_site_fract_x
_atom_site_fract_y
_atom_site_fract_z
C1 C 0.57787(15) 0.8058(2) 0.67567(14)
C2 C 0.54138(13) 0.8518(2) 0.63953(12)
C3 C 0.54206(12) 0.9534(2) 0.63508(11)
H1 H 0.5179 0.9848 0.6117
C4 C 0.57917(13) 1.0070(2) 0.66598(11)
C5 C 0.61583(11) 0.9617(2) 0.70150(10)
H2 H 0.6406 0.9986 0.7218
C6 C 0.61457(12) 0.8602(2) 0.70603(12)
C7 C 0.57813(12) 1.1231(2) 0.65850(11)
C8 C 0.60471(12) 1.1455(2) 0.60597(11)
H3 H 0.5857 1.1999 0.5901
H4 H 0.6016 1.0894 0.5834
H5 H 0.6438 1.1613 0.6109
C9 C 0.51820(10) 1.1628(2) 0.66195(11)
H6 H 0.5188 1.2325 0.6574
H7 H 0.5025 1.1472 0.6958
H8 H 0.4955 1.1337 0.6348
C10 C 0.61488(11) 1.1702(2) 0.69931(12)
H9 H 0.6530 1.1475 0.6953
H10 H 0.6014 1.1534 0.7338
H11 H 0.6138 1.2399 0.6950
C11 C 0.61946(12) 0.6586(2) 0.64961(11)
H12 H 0.6549 0.6739 0.6668
H13 H 0.6208 0.6851 0.6142
C12 C 0.61228(12) 0.5483(2) 0.64683(12)
H14 H 0.6035 0.5234 0.6816
H15 H 0.5809 0.5328 0.6238
C13 C 0.66489(12) 0.4991(2) 0.62667(11)
H16 H 0.6957 0.5062 0.6516
H17 H 0.6763 0.5266 0.5931
C14 C 0.64812(11) 0.3916(2) 0.62061(11)
H18 H 0.6554 0.3576 0.6529
H19 H 0.6698 0.3626 0.5928
H20 H 0.6087 0.3874 0.6123
C15 C 0.58547(13) 0.7960(3) 0.82537(12)
C16 C 0.63350(12) 0.8410(2) 0.80232(12)
C17 C 0.65826(12) 0.9148(2) 0.82949(10)
H21 H 0.6889 0.9475 0.8148
C18 C 0.63800(12) 0.9434(2) 0.88036(12)
C19 C 0.59227(12) 0.9009(2) 0.90043(12)
H22 H 0.5790 0.9204 0.9332
C20 C 0.56358(12) 0.8264(2) 0.87252(11)
C21 C 0.66801(11) 1.0294(2) 0.90845(10)
C22 C 0.66772(13) 1.1203(2) 0.87343(12)
H23 H 0.6870 1.1726 0.8910
H24 H 0.6295 1.1393 0.8664
H25 H 0.6865 1.1060 0.8409
C23 C 0.73076(11) 1.0099(2) 0.91302(11)
H26 H 0.7512 1.0576 0.8929
H27 H 0.7390 0.9457 0.8998
H28 H 0.7419 1.0139 0.9493
C24 C 0.64602(12) 1.0517(2) 0.96417(11)
H29 H 0.6342 0.9921 0.9807
H30 H 0.6146 1.0957 0.9620
H31 H 0.6755 1.0813 0.9846
C25 C 0.55579(12) 0.6195(2) 0.80020(11)
H32 H 0.5388 0.5939 0.7683
H33 H 0.5295 0.6058 0.8285
C26 C 0.60791(11) 0.5575(2) 0.81072(12)
H34 H 0.6208 0.5684 0.8465
H35 H 0.6379 0.5767 0.7869
C27 C 0.59455(11) 0.44823(19) 0.80301(11)
H36 H 0.5887 0.4335 0.7661
H37 H 0.5609 0.4300 0.8224
C28 C 0.64732(12) 0.3929(2) 0.82466(11)
H38 H 0.6787 0.4027 0.8013
H39 H 0.6391 0.3243 0.8270
H40 H 0.6567 0.4175 0.8590
C29 C 0.64066(10) 0.80479(17) 0.74812(14)
H41 H 0.6808 0.8010 0.7409
H42 H 0.6259 0.7387 0.7467
C30 C 0.50488(16) 0.79714(19) 0.89170(10)
H43 H 0.5013 0.8124 0.9288
H44 H 0.4999 0.7272 0.8874
O1 O 0.57497(8) 0.70222(14) 0.67742(8)
O2 O 0.55697(8) 0.72678(14) 0.79425(8)
C1C C 0.42213(15) 0.8058(2) 0.82433(14)
C2C C 0.45862(13) 0.8518(2) 0.86047(12)
C3C C 0.45794(12) 0.9534(2) 0.86492(11)
H1C H 0.4821 0.9848 0.8883
C4C C 0.42083(13) 1.0070(2) 0.83402(11)
C5C C 0.38417(11) 0.9617(2) 0.79850(10)
H2C H 0.3594 0.9986 0.7782
C6C C 0.38543(12) 0.8602(2) 0.79397(12)
C7C C 0.42187(12) 1.1231(2) 0.84150(11)
C8C C 0.39529(12) 1.1455(2) 0.89403(11)
H3C H 0.4143 1.1999 0.9099
H4C H 0.3984 1.0894 0.9166
H5C H 0.3562 1.1613 0.8891
C9C C 0.48180(10) 1.1628(2) 0.83805(11)
H6C H 0.4812 1.2325 0.8426
H7C H 0.4975 1.1472 0.8042
H8C H 0.5045 1.1337 0.8652
C10C C 0.38512(11) 1.1702(2) 0.80069(12)
H9C H 0.3470 1.1475 0.8047
H10C H 0.3986 1.1534 0.7662
H11C H 0.3862 1.2399 0.8050
C11C C 0.38054(12) 0.6586(2) 0.85039(11)
H12C H 0.3451 0.6739 0.8332
H13C H 0.3792 0.6851 0.8858
C12C C 0.38772(12) 0.5483(2) 0.85317(12)
H14C H 0.3965 0.5234 0.8184
H15C H 0.4191 0.5328 0.8762
C13C C 0.33511(12) 0.4991(2) 0.87333(11)
H16C H 0.3043 0.5062 0.8484
H17C H 0.3237 0.5266 0.9069
C14C C 0.35188(11) 0.3916(2) 0.87939(11)
H18C H 0.3446 0.3576 0.8471
H19C H 0.3302 0.3626 0.9072
H20C H 0.3913 0.3874 0.8877
C15C C 0.41453(13) 0.7960(3) 0.67463(12)
C16C C 0.36650(12) 0.8410(2) 0.69768(12)
C17C C 0.34174(12) 0.9148(2) 0.67051(10)
H21C H 0.3111 0.9475 0.6852
C18C C 0.36200(12) 0.9434(2) 0.61964(12)
C19C C 0.40773(12) 0.9009(2) 0.59957(12)
H22C H 0.4210 0.9204 0.5668
C20C C 0.43642(12) 0.8264(2) 0.62748(11)
C21C C 0.33199(11) 1.0294(2) 0.59155(10)
C22C C 0.33228(13) 1.1203(2) 0.62657(12)
H23C H 0.3130 1.1726 0.6090
H24C H 0.3705 1.1393 0.6336
H25C H 0.3135 1.1060 0.6591
C23C C 0.26924(11) 1.0099(2) 0.58698(11)
H26C H 0.2488 1.0576 0.6071
H27C H 0.2610 0.9457 0.6002
H28C H 0.2581 1.0139 0.5507
C24C C 0.35398(12) 1.0517(2) 0.53583(11)
H29C H 0.3658 0.9921 0.5193
H30C H 0.3854 1.0957 0.5380
H31C H 0.3245 1.0813 0.5154
C25C C 0.44421(12) 0.6195(2) 0.69980(11)
H32C H 0.4612 0.5939 0.7317
H33C H 0.4705 0.6058 0.6715
C26C C 0.39209(11) 0.5575(2) 0.68928(12)
H34C H 0.3792 0.5684 0.6535
H35C H 0.3621 0.5767 0.7131
C27C C 0.40545(11) 0.44823(19) 0.69699(11)
H36C H 0.4113 0.4335 0.7339
H37C H 0.4391 0.4300 0.6776
C28C C 0.35268(12) 0.3929(2) 0.67534(11)
H38C H 0.3213 0.4027 0.6987
H39C H 0.3609 0.3243 0.6730
H40C H 0.3433 0.4175 0.6410
C29C C 0.35934(10) 0.80479(17) 0.75188(14)
H41C H 0.3192 0.8010 0.7591
H42C H 0.3741 0.7387 0.7533
C30C C 0.49512(16) 0.79714(19) 0.60830(10)
H43C H 0.4987 0.8124 0.5712
H44C H 0.5001 0.7272 0.6126
O1C O 0.42503(8) 0.70222(14) 0.82258(8)
O2C O 0.44303(8) 0.72678(14) 0.70575(8)
C31 C 0.49573(17) 0.3828(2) 0.52153(11)
H45 H 0.4798 0.4157 0.4907
Cl1 Cl 0.48281(3) 0.45236(5) 0.57806(3)
Cl2 Cl 0.46515(3) 0.26789(6) 0.52866(3)
Cl3 Cl 0.56833(3) 0.36925(5) 0.51371(3)
C32 C 0.73122(15) 0.2694(3) 0.01260(14)
H46 H 0.7112 0.2278 0.0379
Cl4 Cl 0.68348(3) 0.31971(5) -0.03167(3)
Cl5 Cl 0.78106(3) 0.20027(5) -0.02173(3)
Cl6 Cl 0.76660(3) 0.36324(5) 0.04606(3)
O3 O 0.7506(3) 0.8728(5) 0.6931(3)
H47 H 0.7546 0.8515 0.6619
H48 H 0.7785 0.8548 0.7118
O4 O 0.78185(17) 0.7656(3) 0.7477(3)
H49 H 0.7729 0.7753 0.7796
H50 H 0.7675 0.7121 0.7372
O5 O 0.4793(3) 0.9277(5) 0.9875(3)
H51 H 0.5040 0.9180 1.0112
H52 H 0.4800 0.9873 0.9782
loop_
_geom_bond_atom_site_label_1
_geom_bond_atom_site_label_2
_geom_bond_site_symmetry_1
_geom_bond_site_symmetry_2
C1 C2 1_555 1_555
C2 C3 1_555 1_555
C3 H1 1_555 1_555
C4 C3 1_555 1_555
C5 C4 1_555 1_555
H2 C5 1_555 1_555
C6 C1 1_555 1_555
C7 C4 1_555 1_555
C8 C7 1_555 1_555
H3 C8 1_555 1_555
H4 C8 1_555 1_555
H5 C8 1_555 1_555
C9 C7 1_555 1_555
H6 C9 1_555 1_555
H7 C9 1_555 1_555
H8 C9 1_555 1_555
C10 C7 1_555 1_555
H9 C10 1_555 1_555
H10 C10 1_555 1_555
H11 C10 1_555 1_555
C11 H12 1_555 1_555
H13 C11 1_555 1_555
C12 C11 1_555 1_555
H14 C12 1_555 1_555
H15 C12 1_555 1_555
C13 C12 1_555 1_555
H16 C13 1_555 1_555
H17 C13 1_555 1_555
C14 C13 1_555 1_555
H18 C14 1_555 1_555
H19 C14 1_555 1_555
H20 C14 1_555 1_555
C15 C16 1_555 1_555
C16 C17 1_555 1_555
C17 H21 1_555 1_555
C18 C17 1_555 1_555
C19 C18 1_555 1_555
H22 C19 1_555 1_555
C20 C15 1_555 1_555
C21 C18 1_555 1_555
C22 C21 1_555 1_555
H23 C22 1_555 1_555
H24 C22 1_555 1_555
H25 C22 1_555 1_555
C23 C21 1_555 1_555
H26 C23 1_555 1_555
H27 C23 1_555 1_555
H28 C23 1_555 1_555
C24 C21 1_555 1_555
H29 C24 1_555 1_555
H30 C24 1_555 1_555
H31 C24 1_555 1_555
C25 H32 1_555 1_555
H33 C25 1_555 1_555
C26 C25 1_555 1_555
H34 C26 1_555 1_555
H35 C26 1_555 1_555
C27 C26 1_555 1_555
H36 C27 1_555 1_555
H37 C27 1_555 1_555
C28 C27 1_555 1_555
H38 C28 1_555 1_555
H39 C28 1_555 1_555
H40 C28 1_555 1_555
C29 C6 1_555 1_555
H41 C29 1_555 1_555
H42 C29 1_555 1_555
C30 C20 1_555 1_555
H43 C30 1_555 1_555
H44 C30 1_555 1_555
C31 H45 1_555 1_555
C32 H46 1_555 1_555
Cl1 C31 1_555 1_555
Cl2 C31 1_555 1_555
Cl3 C31 1_555 1_555
Cl4 C32 1_555 1_555
Cl5 C32 1_555 1_555
Cl6 C32 1_555 1_555
O1 C1 1_555 1_555
O2 C15 1_555 1_555
O3 H47 1_555 1_555
H48 O3 1_555 1_555
O4 H49 1_555 1_555
H50 O4 1_555 1_555
O5 H51 1_555 1_555
H52 O5 1_555 1_555
C1C C2C 1_555 1_555
C2C C30 1_555 1_555
C3C C2C 1_555 1_555
H1C C3C 1_555 1_555
C4C C3C 1_555 1_555
C5C C4C 1_555 1_555
H2C C5C 1_555 1_555
C6C C1C 1_555 1_555
C7C C4C 1_555 1_555
C8C C7C 1_555 1_555
H3C C8C 1_555 1_555
H4C C8C 1_555 1_555
H5C C8C 1_555 1_555
C9C C7C 1_555 1_555
H6C C9C 1_555 1_555
H7C C9C 1_555 1_555
H8C C9C 1_555 1_555
C10C C7C 1_555 1_555
H9C C10C 1_555 1_555
H10C C10C 1_555 1_555
H11C C10C 1_555 1_555
C11C H12C 1_555 1_555
H13C C11C 1_555 1_555
C12C C11C 1_555 1_555
H14C C12C 1_555 1_555
H15C C12C 1_555 1_555
C13C C12C 1_555 1_555
H16C C13C 1_555 1_555
H17C C13C 1_555 1_555
C14C C13C 1_555 1_555
H18C C14C 1_555 1_555
H19C C14C 1_555 1_555
H20C C14C 1_555 1_555
C15C C16C 1_555 1_555
C16C C17C 1_555 1_555
C17C H21C 1_555 1_555
C18C C17C 1_555 1_555
C19C C18C 1_555 1_555
H22C C19C 1_555 1_555
C20C C15C 1_555 1_555
C21C C18C 1_555 1_555
C22C C21C 1_555 1_555
H23C C22C 1_555 1_555
H24C C22C 1_555 1_555
H25C C22C 1_555 1_555
C23C C21C 1_555 1_555
H26C C23C 1_555 1_555
H27C C23C 1_555 1_555
H28C C23C 1_555 1_555
C24C C21C 1_555 1_555
H29C C24C 1_555 1_555
H30C C24C 1_555 1_555
H31C C24C 1_555 1_555
C25C H32C 1_555 1_555
H33C C25C 1_555 1_555
C26C C25C 1_555 1_555
H34C C26C 1_555 1_555
H35C C26C 1_555 1_555
C27C C26C 1_555 1_555
H36C C27C 1_555 1_555
H37C C27C 1_555 1_555
C28C C27C 1_555 1_555
H38C C28C 1_555 1_555
H39C C28C 1_555 1_555
H40C C28C 1_555 1_555
C29C C6C 1_555 1_555
H41C C29C 1_555 1_555
H42C C29C 1_555 1_555
C30C C2 1_555 1_555
H43C C30C 1_555 1_555
H44C C30C 1_555 1_555
O1C C1C 1_555 1_555
O2C C15C 1_555 1_555
C5 C6 1_555 1_555
C11 O1 1_555 1_555
C16 C29 1_555 1_555
C19 C20 1_555 1_555
C25 O2 1_555 1_555
C5C C6C 1_555 1_555
C11C O1C 1_555 1_555
C16C C29C 1_555 1_555
C19C C20C 1_555 1_555
C20C C30C 1_555 1_555
C25C O2C 1_555 1_555

#END
