
#######################################################################
#
#                 Cambridge Crystallographic Data Centre
#                                CCDC 
#
#######################################################################
#
# If this CIF has been generated from an entry in the Cambridge 
# Structural Database, then it will include bibliographic, chemical, 
# crystal, experimental, refinement or atomic coordinate data resulting 
# from the CCDC's data processing and validation procedures.
#
#######################################################################

data_FOVRUE
_chemical_formula_moiety         'C18 H12 N2 O1'
_chemical_name_systematic        
(Z)-2-[(2-Hydroxy-1-naphthyl)methyleneamino]benzonitrile
_symmetry_cell_setting           monoclinic
_symmetry_space_group_name_H-M   'P 21/c'
_symmetry_Int_Tables_number      14
_space_group_name_Hall           '-P 2ybc'
loop_
_symmetry_equiv_pos_site_id
_symmetry_equiv_pos_as_xyz
1 x,y,z
2 -x,1/2+y,1/2-z
3 -x,-y,-z
4 x,1/2-y,1/2+z
_cell_length_a                   13.4640(13)
_cell_length_b                   7.4450(6)
_cell_length_c                   15.4090(11)
_cell_angle_alpha                90
_cell_angle_beta                 116.660(6)
_cell_angle_gamma                90
_cell_volume                     1380.38
_exptl_crystal_colour            'pale yellow'
_exptl_crystal_description       block
_cell_formula_units_Z            4
loop_
_atom_site_label
_atom_site_type_symbol
_atom_site_fract_x
_atom_site_fract_y
_atom_site_fract_z
O1 O 0.22890(15) 0.5907(3) -0.07648(12)
H1 H 0.1718 0.6436 -0.0852
N1 N 0.07487(14) 0.7038(2) -0.03712(12)
N2 N 0.0188(2) 0.7966(4) -0.27347(16)
C1 C 0.24373(17) 0.5812(3) 0.08450(16)
C2 C 0.13677(17) 0.6610(3) 0.05282(16)
H2 H 0.1105 0.6831 0.0983
C3 C -0.03185(17) 0.7809(3) -0.07090(15)
C4 C -0.08320(18) 0.8360(3) -0.16755(16)
C5 C 0.30954(17) 0.5267(3) 0.18411(16)
C6 C 0.4729(2) 0.3710(3) 0.3064(2)
H3 H 0.5381 0.3068 0.3228
C7 C 0.41020(19) 0.4302(3) 0.21022(18)
C8 C 0.2793(2) 0.5638(3) 0.25909(17)
H4 H 0.2150 0.6290 0.2451
C9 C 0.2839(2) 0.5440(3) 0.01600(18)
C10 C -0.08801(19) 0.8058(3) -0.01468(16)
H5 H -0.0552 0.7709 0.0502
C11 C -0.1922(2) 0.8823(3) -0.05539(18)
H6 H -0.2292 0.8983 -0.0175
C12 C -0.1883(2) 0.9135(3) -0.20763(18)
H7 H -0.2216 0.9502 -0.2722
C13 C -0.2426(2) 0.9355(3) -0.15123(19)
H8 H -0.3133 0.9862 -0.1776
C14 C 0.4449(2) 0.3949(3) 0.1372(2)
H9 H 0.5105 0.3316 0.1537
C15 C 0.3859(2) 0.4500(4) 0.0453(2)
H10 H 0.4121 0.4264 -0.0001
C16 C -0.0262(2) 0.8130(4) -0.22658(17)
C17 C 0.3432(2) 0.5053(4) 0.35194(19)
H11 H 0.3218 0.5322 0.4001
C18 C 0.4394(2) 0.4064(4) 0.3755(2)
H12 H 0.4808 0.3647 0.4386
loop_
_geom_bond_atom_site_label_1
_geom_bond_atom_site_label_2
_geom_bond_site_symmetry_1
_geom_bond_site_symmetry_2
O1 H1 1_555 1_555
N1 C2 1_555 1_555
N2 C16 1_555 1_555
C1 C2 1_555 1_555
C2 H2 1_555 1_555
C3 N1 1_555 1_555
C4 C3 1_555 1_555
C5 C1 1_555 1_555
C6 H3 1_555 1_555
C7 C5 1_555 1_555
C8 C5 1_555 1_555
H4 C8 1_555 1_555
C9 O1 1_555 1_555
C10 C3 1_555 1_555
H5 C10 1_555 1_555
C11 C10 1_555 1_555
H6 C11 1_555 1_555
C12 C4 1_555 1_555
H7 C12 1_555 1_555
C13 C11 1_555 1_555
H8 C13 1_555 1_555
C14 C7 1_555 1_555
H9 C14 1_555 1_555
C15 C9 1_555 1_555
H10 C15 1_555 1_555
C16 C4 1_555 1_555
C17 C8 1_555 1_555
H11 C17 1_555 1_555
C18 C6 1_555 1_555
H12 C18 1_555 1_555
C1 C9 1_555 1_555
C6 C7 1_555 1_555
C12 C13 1_555 1_555
C14 C15 1_555 1_555
C17 C18 1_555 1_555

#END
