
#######################################################################
#
#                 Cambridge Crystallographic Data Centre
#                                CCDC 
#
#######################################################################
#
# If this CIF has been generated from an entry in the Cambridge 
# Structural Database, then it will include bibliographic, chemical, 
# crystal, experimental, refinement or atomic coordinate data resulting 
# from the CCDC's data processing and validation procedures.
#
#######################################################################

data_FOVVOB02
_chemical_formula_moiety         'C30 H22'
_chemical_name_systematic        1,2,3,4-Tetraphenylbenzene
_symmetry_cell_setting           orthorhombic
_symmetry_space_group_name_H-M   'P b n a'
_symmetry_Int_Tables_number      60
_space_group_name_Hall           '-P 2ac 2b'
loop_
_symmetry_equiv_pos_site_id
_symmetry_equiv_pos_as_xyz
1 x,y,z
2 1/2-x,-y,1/2+z
3 x,1/2-y,-z
4 1/2-x,1/2+y,1/2-z
5 -x,-y,-z
6 1/2+x,y,1/2-z
7 -x,1/2+y,z
8 1/2+x,1/2-y,1/2+z
_cell_length_a                   9.007(2)
_cell_length_b                   9.991(3)
_cell_length_c                   23.493(6)
_cell_angle_alpha                90
_cell_angle_beta                 90
_cell_angle_gamma                90
_cell_volume                     2114.11
_cell_formula_units_Z            4
loop_
_atom_site_label
_atom_site_type_symbol
_atom_site_fract_x
_atom_site_fract_y
_atom_site_fract_z
C1 C 0.69687(13) 0.20136(12) 0.05739(5)
C2 C 0.55310(13) 0.23125(12) 0.02883(5)
C3 C 0.40719(13) 0.17929(13) 0.11933(5)
C4 C 0.41863(13) 0.21612(12) 0.05813(5)
C5 C 0.77587(14) 0.08958(14) 0.04151(6)
H1 H 0.7417 0.0373 0.0115
C6 C 0.47926(16) 0.07027(15) 0.14220(6)
H2 H 0.5447 0.0214 0.1197
C7 C 0.28817(14) 0.23462(13) 0.02834(5)
H3 H 0.1981 0.2260 0.0473
C8 C 0.90407(16) 0.05371(17) 0.06908(7)
H4 H 0.9551 -0.0229 0.0580
C9 C 0.75224(16) 0.27942(15) 0.10091(6)
H5 H 0.7020 0.3565 0.1120
C10 C 0.95653(16) 0.12968(19) 0.11244(7)
H6 H 1.0427 0.1046 0.1315
C11 C 0.31234(16) 0.25047(16) 0.15443(6)
H7 H 0.2632 0.3251 0.1401
C12 C 0.3609(2) 0.10316(19) 0.23154(7)
H8 H 0.3447 0.0768 0.2690
C13 C 0.45605(19) 0.03233(17) 0.19792(6)
H9 H 0.5054 -0.0418 0.2126
C14 C 0.88236(17) 0.24336(18) 0.12812(6)
H10 H 0.9197 0.2967 0.1572
C15 C 0.28936(19) 0.21286(19) 0.21017(6)
H11 H 0.2254 0.2620 0.2332
C1B C 0.69687(13) 0.29864(12) -0.05739(5)
C2B C 0.55310(13) 0.26875(12) -0.02883(5)
C3B C 0.40719(13) 0.32071(13) -0.11933(5)
C4B C 0.41863(13) 0.28388(12) -0.05813(5)
C5B C 0.77587(14) 0.41042(14) -0.04151(6)
H1B H 0.7417 0.4627 -0.0115
C6B C 0.47926(16) 0.42973(15) -0.14220(6)
H2B H 0.5447 0.4786 -0.1197
C7B C 0.28817(14) 0.26538(13) -0.02834(5)
H3B H 0.1981 0.2740 -0.0473
C8B C 0.90407(16) 0.44629(17) -0.06908(7)
H4B H 0.9551 0.5229 -0.0580
C9B C 0.75224(16) 0.22058(15) -0.10091(6)
H5B H 0.7020 0.1435 -0.1120
C10B C 0.95653(16) 0.37032(19) -0.11244(7)
H6B H 1.0427 0.3954 -0.1315
C11B C 0.31234(16) 0.24953(16) -0.15443(6)
H7B H 0.2632 0.1749 -0.1401
C12B C 0.3609(2) 0.39684(19) -0.23154(7)
H8B H 0.3447 0.4232 -0.2690
C13B C 0.45605(19) 0.46767(17) -0.19792(6)
H9B H 0.5054 0.5418 -0.2126
C14B C 0.88236(17) 0.25664(18) -0.12812(6)
H10B H 0.9197 0.2033 -0.1572
C15B C 0.28936(19) 0.28714(19) -0.21017(6)
H11B H 0.2254 0.2380 -0.2332
loop_
_geom_bond_atom_site_label_1
_geom_bond_atom_site_label_2
_geom_bond_site_symmetry_1
_geom_bond_site_symmetry_2
C1 C2 1_555 1_555
C2 C4 1_555 1_555
C3 C4 1_555 1_555
C4 C7 1_555 1_555
C5 C1 1_555 1_555
H1 C5 1_555 1_555
C6 C3 1_555 1_555
H2 C6 1_555 1_555
C7 H3 1_555 1_555
C8 C5 1_555 1_555
H4 C8 1_555 1_555
C9 C1 1_555 1_555
H5 C9 1_555 1_555
C10 C8 1_555 1_555
H6 C10 1_555 1_555
C11 C3 1_555 1_555
H7 C11 1_555 1_555
C12 H8 1_555 1_555
C13 C6 1_555 1_555
H9 C13 1_555 1_555
C14 C9 1_555 1_555
H10 C14 1_555 1_555
C15 C11 1_555 1_555
H11 C15 1_555 1_555
C1B C2B 1_555 1_555
C2B C2 1_555 1_555
C3B C4B 1_555 1_555
C4B C2B 1_555 1_555
C5B C1B 1_555 1_555
H1B C5B 1_555 1_555
C6B C3B 1_555 1_555
H2B C6B 1_555 1_555
C7B C7 1_555 1_555
H3B C7B 1_555 1_555
C8B C5B 1_555 1_555
H4B C8B 1_555 1_555
C9B C1B 1_555 1_555
H5B C9B 1_555 1_555
C10B C8B 1_555 1_555
H6B C10B 1_555 1_555
C11B C3B 1_555 1_555
H7B C11B 1_555 1_555
C12B H8B 1_555 1_555
C13B C6B 1_555 1_555
H9B C13B 1_555 1_555
C14B C9B 1_555 1_555
H10B C14B 1_555 1_555
C15B C11B 1_555 1_555
H11B C15B 1_555 1_555
C10 C14 1_555 1_555
C12 C13 1_555 1_555
C12 C15 1_555 1_555
C4B C7B 1_555 1_555
C10B C14B 1_555 1_555
C12B C13B 1_555 1_555
C12B C15B 1_555 1_555

#END
