
#######################################################################
#
#                 Cambridge Crystallographic Data Centre
#                                CCDC 
#
#######################################################################
#
# If this CIF has been generated from an entry in the Cambridge 
# Structural Database, then it will include bibliographic, chemical, 
# crystal, experimental, refinement or atomic coordinate data resulting 
# from the CCDC's data processing and validation procedures.
#
#######################################################################

data_FOVWIX
_chemical_name_common            'PDB Chemical Component code: ENL'
_chemical_formula_moiety         'C8 H10 O5,C2 H3 N3 S1,H2 O1'
_chemical_name_systematic        
'7-Oxabicyclo[2.2.1]heptane-2,3-dicarboxylic acid 1,3,4-thiadiazol-2-amine monohydrate'
_symmetry_cell_setting           monoclinic
_symmetry_space_group_name_H-M   'P 21/n'
_symmetry_Int_Tables_number      14
_space_group_name_Hall           '-P 2yn'
loop_
_symmetry_equiv_pos_site_id
_symmetry_equiv_pos_as_xyz
1 x,y,z
2 1/2-x,1/2+y,1/2-z
3 -x,-y,-z
4 1/2+x,1/2-y,1/2+z
_cell_length_a                   5.7678(5)
_cell_length_b                   18.4267(15)
_cell_length_c                   12.7546(11)
_cell_angle_alpha                90
_cell_angle_beta                 101.336(6)
_cell_angle_gamma                90
_cell_volume                     1329.13
_exptl_crystal_colour            colorless
_exptl_crystal_description       block
_cell_formula_units_Z            4
loop_
_atom_site_label
_atom_site_type_symbol
_atom_site_fract_x
_atom_site_fract_y
_atom_site_fract_z
C1 C -0.2976(5) 0.05357(14) 0.3265(2)
H1 H -0.3880 0.0947 0.3053
C2 C -0.0094(4) -0.03835(13) 0.37115(19)
S1 S -0.00230(12) 0.04890(3) 0.32282(6)
N1 N 0.1766(3) -0.08184(12) 0.39063(18)
H2 H 0.1631 -0.1250 0.4145
H3 H 0.3110 -0.0670 0.3794
N2 N -0.2197(3) -0.05840(10) 0.38689(17)
N3 N -0.3854(4) -0.00394(11) 0.36078(19)
C3 C -0.7049(4) -0.14263(12) -0.02775(19)
H4 H -0.7478 -0.1570 -0.1031
C4 C -0.4729(4) -0.10527(12) 0.11367(19)
H5 H -0.3228 -0.0881 0.1563
C5 C -0.5597(4) -0.17663(11) 0.15371(18)
H6 H -0.6555 -0.1649 0.2069
C6 C -0.7289(4) -0.20482(11) 0.05131(18)
H7 H -0.8916 -0.2080 0.0630
C7 C -0.8388(4) -0.07593(13) -0.0002(2)
H8 H -0.9932 -0.0888 0.0135
H9 H -0.8573 -0.0399 -0.0566
C8 C -0.6732(4) -0.04919(12) 0.1016(2)
H10 H -0.7506 -0.0499 0.1626
H11 H -0.6158 -0.0006 0.0925
C9 C -0.3734(4) -0.23059(12) 0.20304(18)
C10 C -0.6556(4) -0.27519(12) 0.00717(19)
O1 O -0.4621(3) -0.12182(8) 0.00484(13)
O2 O -0.1540(3) -0.20904(9) 0.21051(15)
H12 H -0.0641 -0.2405 0.2405
O3 O -0.4251(3) -0.28854(9) 0.23715(14)
O4 O -0.4568(3) -0.28772(9) -0.00388(16)
O5 O -0.8343(3) -0.31955(9) -0.02355(17)
H13 H -0.7870 -0.3568 -0.0474
O6 O 0.3491(3) 0.19399(12) 0.19534(16)
H14 H 0.213(4) 0.1986(18) 0.212(2)
H15 H 0.317(5) 0.2024(19) 0.1311(15)
loop_
_geom_bond_atom_site_label_1
_geom_bond_atom_site_label_2
_geom_bond_site_symmetry_1
_geom_bond_site_symmetry_2
C1 H1 1_555 1_555
C2 S1 1_555 1_555
S1 C1 1_555 1_555
N1 C2 1_555 1_555
H2 N1 1_555 1_555
H3 N1 1_555 1_555
N2 C2 1_555 1_555
N3 C1 1_555 1_555
C3 H4 1_555 1_555
C4 H5 1_555 1_555
C5 C4 1_555 1_555
H6 C5 1_555 1_555
C6 C3 1_555 1_555
H7 C6 1_555 1_555
C7 C3 1_555 1_555
H8 C7 1_555 1_555
H9 C7 1_555 1_555
C8 C4 1_555 1_555
H10 C8 1_555 1_555
H11 C8 1_555 1_555
C9 C5 1_555 1_555
C10 C6 1_555 1_555
O1 C3 1_555 1_555
O2 C9 1_555 1_555
H12 O2 1_555 1_555
O3 C9 1_555 1_555
O4 C10 1_555 1_555
O5 C10 1_555 1_555
H13 O5 1_555 1_555
O6 H14 1_555 1_555
H15 O6 1_555 1_555
N2 N3 1_555 1_555
C4 O1 1_555 1_555
C5 C6 1_555 1_555
C7 C8 1_555 1_555

#END
