
#######################################################################
#
#                 Cambridge Crystallographic Data Centre
#                                CCDC 
#
#######################################################################
#
# If this CIF has been generated from an entry in the Cambridge 
# Structural Database, then it will include bibliographic, chemical, 
# crystal, experimental, refinement or atomic coordinate data resulting 
# from the CCDC's data processing and validation procedures.
#
#######################################################################

data_FOVXET
_chemical_formula_moiety         'C9 H12 N6 O4,1.5(H2 O1)'
_chemical_name_systematic        
"5'-Azido-5'-deoxy-1-\b-D-arabinofuranosyl-cytosine sesquihydrate"
_chemical_properties_biological  'antiviral activity'
_symmetry_cell_setting           monoclinic
_symmetry_space_group_name_H-M   'C 2'
_symmetry_Int_Tables_number      5
_space_group_name_Hall           'C 2y'
loop_
_symmetry_equiv_pos_site_id
_symmetry_equiv_pos_as_xyz
1 x,y,z
2 1/2+x,1/2+y,z
3 -x,y,-z
4 1/2-x,1/2+y,-z
_cell_length_a                   15.835(7)
_cell_length_b                   7.286(4)
_cell_length_c                   12.039(6)
_cell_angle_alpha                90
_cell_angle_beta                 108.75(6)
_cell_angle_gamma                90
_cell_volume                     1315.27
_cell_formula_units_Z            4
loop_
_atom_site_label
_atom_site_type_symbol
_atom_site_fract_x
_atom_site_fract_y
_atom_site_fract_z
N1 N 0.4617(3) -0.1612(8) 0.7890(4)
C1 C 0.4129(3) -0.1220(10) 0.8636(4)
N2 N 0.3811(3) -0.2604 0.9143(4)
C2 C 0.4432(4) -0.4804(10) 0.8102(5)
C3 C 0.4754(3) -0.3390(9) 0.7633(4)
C4 C 0.3959(4) -0.4367(11) 0.8886(5)
O1 O 0.3993(3) 0.0418(9) 0.8850(4)
N3 N 0.3638(3) -0.5679(10) 0.9404(5)
O2 O 0.6446(2) -0.1186(8) 0.8798(3)
C5 C 0.6522(4) -0.1519(13) 0.6146(5)
O3 O 0.6048(3) 0.3063(9) 0.7136(3)
O4 O 0.5146(2) -0.0654(9) 0.6395(3)
C6 C 0.5016(4) -0.0094(9) 0.7459(5)
C7 C 0.5949(3) 0.0410(11) 0.8291(4)
C8 C 0.6365(3) 0.1235(11) 0.7401(5)
C9 C 0.5961(4) 0.0074(11) 0.6297(4)
N4 N 0.7292(6) -0.0813(10) 0.4925(9)
N5 N 0.7311(4) -0.0764(17) 0.5885(7)
N6 N 0.7347(7) -0.0737(23) 0.4005(9)
H1 H 0.4538(30) -0.6156(90) 0.7923(40)
H2 H 0.6366(30) -0.1289(90) 0.9643(40)
H3 H 0.4943(30) -0.3612(90) 0.7088(40)
H4 H 0.3627(30) -0.6731(90) 0.9048(40)
H5 H 0.3253(30) -0.5236(90) 0.9882(40)
H6 H 0.6641(30) -0.2178(90) 0.6953(40)
H7 H 0.6220(30) -0.2177(90) 0.5496(40)
H8 H 0.6560(30) 0.3813(90) 0.7696(40)
H9 H 0.4557(30) 0.1189(90) 0.7259(40)
H10 H 0.5876(30) 0.1314(90) 0.9023(40)
H11 H 0.7031(30) 0.1356(90) 0.7670(40)
H12 H 0.5844(30) 0.0681(90) 0.5710(40)
O5 O 0.2155(2) 0.0375(9) 0.8740(3)
O6 O 0.5000 -0.5188(16) 0.5000
loop_
_geom_bond_atom_site_label_1
_geom_bond_atom_site_label_2
_geom_bond_site_symmetry_1
_geom_bond_site_symmetry_2
N1 C1 1_555 1_555
C1 N2 1_555 1_555
N2 C4 1_555 1_555
C2 C3 1_555 1_555
C3 N1 1_555 1_555
C4 C2 1_555 1_555
O1 C1 1_555 1_555
N3 C4 1_555 1_555
O2 C7 1_555 1_555
C5 C9 1_555 1_555
O3 C8 1_555 1_555
O4 C6 1_555 1_555
C6 N1 1_555 1_555
C7 C6 1_555 1_555
C8 C7 1_555 1_555
C9 O4 1_555 1_555
N4 N5 1_555 1_555
N5 C5 1_555 1_555
N6 N4 1_555 1_555
H1 C2 1_555 1_555
H2 O2 1_555 1_555
H3 C3 1_555 1_555
H4 N3 1_555 1_555
H5 N3 1_555 1_555
H6 C5 1_555 1_555
H7 C5 1_555 1_555
H8 O3 1_555 1_555
H9 C6 1_555 1_555
H10 C7 1_555 1_555
H11 C8 1_555 1_555
H12 C9 1_555 1_555
C8 C9 1_555 1_555

#END
