
#######################################################################
#
#                 Cambridge Crystallographic Data Centre
#                                CCDC 
#
#######################################################################
#
# If this CIF has been generated from an entry in the Cambridge 
# Structural Database, then it will include bibliographic, chemical, 
# crystal, experimental, refinement or atomic coordinate data resulting 
# from the CCDC's data processing and validation procedures.
#
#######################################################################

data_FOVXAQ
_chemical_formula_moiety         'C24 H20 F2 N6 O4,C2 H6 O1'
_chemical_name_systematic        
"2-Amino-5,7-bis(4-fluorophenyl)-1',3'-dimethyl-7,8-dihydrospiro[pyrido[2,3-d]pyrimidine-6(5H),5'-pyrimidine]-2',4,4',6'(3H,1'H,3'H,5'H)-tetraone ethanol solvate"
_symmetry_cell_setting           triclinic
_symmetry_space_group_name_H-M   'P -1'
_symmetry_Int_Tables_number      2
_space_group_name_Hall           '-P 1'
loop_
_symmetry_equiv_pos_site_id
_symmetry_equiv_pos_as_xyz
1 x,y,z
2 -x,-y,-z
_cell_length_a                   9.2189(15)
_cell_length_b                   12.5924(17)
_cell_length_c                   14.100(2)
_cell_angle_alpha                64.634(2)
_cell_angle_beta                 81.467(3)
_cell_angle_gamma                69.027(2)
_cell_volume                     1381.02
_exptl_crystal_colour            colorless
_exptl_crystal_description       block
_cell_formula_units_Z            2
loop_
_atom_site_label
_atom_site_type_symbol
_atom_site_fract_x
_atom_site_fract_y
_atom_site_fract_z
F1 F -0.6967(3) 0.6507(3) 0.4242(2)
F2 F 0.5065(3) -0.0663(2) 0.3998(2)
O1 O 0.3825(3) 0.4015(2) 0.05479(17)
O2 O -0.1950(3) 0.3213(2) 0.1939(2)
O3 O -0.0319(4) 0.1522(3) 0.5289(2)
O4 O 0.0495(3) 0.5117(2) 0.31565(17)
N1 N -0.1126(3) 0.6500(2) 0.1209(2)
H2 H -0.1678 0.7246 0.1130
N2 N 0.0779(3) 0.7345(2) 0.0419(2)
N3 N 0.3234(3) 0.6058(3) 0.01820(19)
H3 H 0.4169 0.6010 -0.0035
N4 N 0.2777(3) 0.8125(3) -0.0313(2)
H4 H 0.2176 0.8855 -0.0376
H5 H 0.3725 0.8012 -0.0519
N5 N -0.1246(3) 0.2430(3) 0.3629(3)
N6 N 0.0080(3) 0.3332(3) 0.4216(2)
C1 C 0.0370(4) 0.6286(3) 0.0878(2)
C2 C 0.2236(5) 0.7165(4) 0.0104(3)
C3 C 0.2842(4) 0.4988(3) 0.0593(2)
C4 C 0.1348(4) 0.5102(3) 0.1027(2)
C5 C 0.0803(3) 0.3989(3) 0.1575(2)
H6 H 0.0389 0.3884 0.1031
C6 C -0.0593(3) 0.4266(3) 0.2334(2)
C7 C -0.1839(4) 0.5532(3) 0.1689(3)
H7 H -0.2202 0.5436 0.1121
C8 C -0.1336(4) 0.3270(3) 0.2608(3)
C9 C -0.0484(5) 0.2372(4) 0.4437(3)
C10 C 0.0015(4) 0.4300(3) 0.3251(3)
C11 C -0.1894(5) 0.1422(4) 0.3883(3)
H8 H -0.2645 0.1673 0.3358
H9 H -0.2387 0.1255 0.4557
H10 H -0.1073 0.0683 0.3900
C12 C 0.0864(4) 0.3261(4) 0.5089(3)
H11 H 0.0106 0.3622 0.5507
H12 H 0.1590 0.3710 0.4813
H13 H 0.1408 0.2406 0.5517
C13 C 0.2024(4) 0.2751(3) 0.2181(3)
C14 C 0.2005(5) 0.1674(4) 0.2162(3)
H14 H 0.1292 0.1720 0.1731
C15 C 0.3015(6) 0.0531(4) 0.2763(4)
H15 H 0.2984 -0.0190 0.2744
C16 C 0.4049(6) 0.0471(4) 0.3381(4)
C17 C 0.4125(4) 0.1504(4) 0.3425(3)
H16 H 0.4847 0.1443 0.3858
C18 C 0.3109(4) 0.2647(3) 0.2815(3)
H17 H 0.3160 0.3362 0.2834
C19 C -0.3239(4) 0.5881(3) 0.2339(3)
C20 C -0.4521(4) 0.5589(3) 0.2302(3)
H18 H -0.4539 0.5245 0.1839
C21 C -0.5790(5) 0.5796(4) 0.2940(4)
H19 H -0.6653 0.5586 0.2921
C22 C -0.5731(6) 0.6310(5) 0.3588(4)
C23 C -0.4515(5) 0.6654(4) 0.3646(3)
H20 H -0.4530 0.7024 0.4096
C24 C -0.3249(4) 0.6426(3) 0.3002(3)
H21 H -0.2395 0.6646 0.3021
O5 O 0.8805(3) 0.9228(2) 0.0997(2)
H1 H 0.9547 0.9075 0.0620
C25 C 0.9345(6) 0.8842(4) 0.2021(3)
H22 H 0.9644 0.7943 0.2376
H23 H 0.8507 0.9193 0.2416
C26 C 1.0640(7) 0.9217(5) 0.2010(4)
H24 H 1.1452 0.8910 0.1588
H25 H 1.1015 0.8884 0.2713
H26 H 1.0323 1.0109 0.1720
loop_
_geom_bond_atom_site_label_1
_geom_bond_atom_site_label_2
_geom_bond_site_symmetry_1
_geom_bond_site_symmetry_2
F1 C22 1_555 1_555
F2 C16 1_555 1_555
O1 C3 1_555 1_555
O2 C8 1_555 1_555
O3 C9 1_555 1_555
O4 C10 1_555 1_555
O5 H1 1_555 1_555
N1 H2 1_555 1_555
N2 C1 1_555 1_555
N3 H3 1_555 1_555
N4 H4 1_555 1_555
H5 N4 1_555 1_555
N5 C8 1_555 1_555
N6 C9 1_555 1_555
C1 N1 1_555 1_555
C2 N2 1_555 1_555
C3 N3 1_555 1_555
C4 C1 1_555 1_555
C5 C4 1_555 1_555
H6 C5 1_555 1_555
C6 C5 1_555 1_555
C7 N1 1_555 1_555
H7 C7 1_555 1_555
C8 C6 1_555 1_555
C9 N5 1_555 1_555
C10 N6 1_555 1_555
C11 N5 1_555 1_555
H8 C11 1_555 1_555
H9 C11 1_555 1_555
H10 C11 1_555 1_555
C12 N6 1_555 1_555
H11 C12 1_555 1_555
H12 C12 1_555 1_555
H13 C12 1_555 1_555
C13 C5 1_555 1_555
C14 C13 1_555 1_555
H14 C14 1_555 1_555
C15 C14 1_555 1_555
H15 C15 1_555 1_555
C16 C15 1_555 1_555
C17 C16 1_555 1_555
H16 C17 1_555 1_555
C18 C13 1_555 1_555
H17 C18 1_555 1_555
C19 C7 1_555 1_555
C20 C19 1_555 1_555
H18 C20 1_555 1_555
C21 C20 1_555 1_555
H19 C21 1_555 1_555
C22 C21 1_555 1_555
C23 C22 1_555 1_555
H20 C23 1_555 1_555
C24 C19 1_555 1_555
H21 C24 1_555 1_555
C25 O5 1_555 1_555
H22 C25 1_555 1_555
H23 C25 1_555 1_555
C26 C25 1_555 1_555
H24 C26 1_555 1_555
H25 C26 1_555 1_555
H26 C26 1_555 1_555
N3 C2 1_555 1_555
N4 C2 1_555 1_555
C3 C4 1_555 1_555
C6 C7 1_555 1_555
C6 C10 1_555 1_555
C17 C18 1_555 1_555
C23 C24 1_555 1_555

#END
