
#######################################################################
#
#                 Cambridge Crystallographic Data Centre
#                                CCDC 
#
#######################################################################
#
# If this CIF has been generated from an entry in the Cambridge 
# Structural Database, then it will include bibliographic, chemical, 
# crystal, experimental, refinement or atomic coordinate data resulting 
# from the CCDC's data processing and validation procedures.
#
#######################################################################

data_FOVYAR
_chemical_name_common            
'[mu!2$-bis(5,7-dimethyl-1,8-naphthyridin-2-yl)diazene]-bis[difluorido-boron(iii)]'
_chemical_formula_moiety         'C20 H18 B2 F4 N6'
_chemical_name_systematic        
8,8,17,17-Tetrafluoro-2,4,11,13-tetramethyl-8,17-dihydro-7\l^5^,16\l^5^,8\l^5^,17\l^5^-[1,8]naphthyridino[1'',2'':4',5'][1,2,4,3]triazaborolo[2',1':1,2][1,2,4,3]triazaborolo[4,5-a][1,8]naphthyridine
_symmetry_cell_setting           orthorhombic
_symmetry_space_group_name_H-M   'P b c a'
_symmetry_Int_Tables_number      61
_space_group_name_Hall           '-P 2ac 2ab'
loop_
_symmetry_equiv_pos_site_id
_symmetry_equiv_pos_as_xyz
1 x,y,z
2 1/2-x,-y,1/2+z
3 -x,1/2+y,1/2-z
4 1/2+x,1/2-y,-z
5 -x,-y,-z
6 1/2+x,y,1/2-z
7 x,1/2-y,1/2+z
8 1/2-x,1/2+y,z
_cell_length_a                   8.5379(17)
_cell_length_b                   14.696(3)
_cell_length_c                   15.467(3)
_cell_angle_alpha                90
_cell_angle_beta                 90
_cell_angle_gamma                90
_cell_volume                     1940.69
_exptl_crystal_colour            brown
_exptl_crystal_description       block
_cell_formula_units_Z            4
_exptl_crystal_recrystallization_method chloroform/hexane
loop_
_atom_site_label
_atom_site_type_symbol
_atom_site_fract_x
_atom_site_fract_y
_atom_site_fract_z
F1 F 0.11305(12) 0.18492(6) 1.00731(7)
F2 F -0.00219(12) 0.14892(7) 0.87999(7)
N1 N 0.36490(16) 0.15195(8) 0.86608(9)
N2 N 0.20684(15) 0.04677(8) 0.93336(9)
N3 N 0.03539(17) -0.04321(8) 1.00022(10)
B1 B 0.0693(2) 0.11566(11) 0.95247(13)
C1 C 0.5141(2) 0.26721(11) 0.79215(12)
H1 H 0.4310 0.2784 0.7517
H2 H 0.6132 0.2741 0.7635
H3 H 0.5071 0.3099 0.8390
C2 C 0.50004(19) 0.17214(10) 0.82689(11)
C3 C 0.6203(2) 0.10902(11) 0.81609(12)
H4 H 0.7136 0.1272 0.7903
C4 C 0.60339(19) 0.02021(11) 0.84293(11)
C5 C 0.7318(2) -0.04743(12) 0.82761(13)
H5 H 0.7073 -0.0835 0.7776
H6 H 0.7418 -0.0863 0.8772
H7 H 0.8287 -0.0158 0.8182
C6 C 0.46063(19) -0.00410(10) 0.88339(11)
C7 C 0.4213(2) -0.09362(10) 0.91393(11)
H8 H 0.4938 -0.1404 0.9078
C8 C 0.2814(2) -0.11140(10) 0.95139(11)
H9 H 0.2559 -0.1699 0.9696
C9 C 0.17464(19) -0.03837(10) 0.96207(11)
C10 C 0.34843(19) 0.06558(10) 0.89359(11)
F1D F -0.11305(12) -0.18492(6) 0.99269(7)
F2D F 0.00219(12) -0.14892(7) 1.12001(7)
N1D N -0.36490(16) -0.15195(8) 1.13392(9)
N2D N -0.20684(15) -0.04677(8) 1.06664(9)
N3D N -0.03539(17) 0.04321(8) 0.99978(10)
B1D B -0.0693(2) -0.11566(11) 1.04753(13)
C1D C -0.5141(2) -0.26721(11) 1.20785(12)
H1D H -0.4310 -0.2784 1.2483
H2D H -0.6132 -0.2741 1.2365
H3D H -0.5071 -0.3099 1.1610
C2D C -0.50004(19) -0.17214(10) 1.17311(11)
C3D C -0.6203(2) -0.10902(11) 1.18391(12)
H4D H -0.7136 -0.1272 1.2097
C4D C -0.60339(19) -0.02021(11) 1.15707(11)
C5D C -0.7318(2) 0.04743(12) 1.17239(13)
H5D H -0.7073 0.0835 1.2224
H6D H -0.7418 0.0863 1.1228
H7D H -0.8287 0.0158 1.1818
C6D C -0.46063(19) 0.00410(10) 1.11661(11)
C7D C -0.4213(2) 0.09362(10) 1.08607(11)
H8D H -0.4938 0.1404 1.0922
C8D C -0.2814(2) 0.11140(10) 1.04861(11)
H9D H -0.2559 0.1699 1.0304
C9D C -0.17464(19) 0.03837(10) 1.03793(11)
C10D C -0.34843(19) -0.06558(10) 1.10641(11)
loop_
_geom_bond_atom_site_label_1
_geom_bond_atom_site_label_2
_geom_bond_site_symmetry_1
_geom_bond_site_symmetry_2
F1 B1 1_555 1_555
F2 B1 1_555 1_555
N1 C2 1_555 1_555
N2 B1 1_555 1_555
N3 C9 1_555 1_555
B1 N3D 1_555 1_555
C1 H1 1_555 1_555
H2 C1 1_555 1_555
H3 C1 1_555 1_555
C2 C1 1_555 1_555
C3 C2 1_555 1_555
H4 C3 1_555 1_555
C4 C3 1_555 1_555
C5 C4 1_555 1_555
H5 C5 1_555 1_555
H6 C5 1_555 1_555
H7 C5 1_555 1_555
C6 C4 1_555 1_555
C7 C6 1_555 1_555
H8 C7 1_555 1_555
C8 C7 1_555 1_555
H9 C8 1_555 1_555
C9 N2 1_555 1_555
C10 N1 1_555 1_555
F1D B1D 1_555 1_555
F2D B1D 1_555 1_555
N1D C2D 1_555 1_555
N2D B1D 1_555 1_555
N3D N3 1_555 1_555
B1D N3 1_555 1_555
C1D H1D 1_555 1_555
H2D C1D 1_555 1_555
H3D C1D 1_555 1_555
C2D C1D 1_555 1_555
C3D C2D 1_555 1_555
H4D C3D 1_555 1_555
C4D C3D 1_555 1_555
C5D C4D 1_555 1_555
H5D C5D 1_555 1_555
H6D C5D 1_555 1_555
H7D C5D 1_555 1_555
C6D C4D 1_555 1_555
C7D C6D 1_555 1_555
H8D C7D 1_555 1_555
C8D C7D 1_555 1_555
H9D C8D 1_555 1_555
C9D N2D 1_555 1_555
C10D N1D 1_555 1_555
N2 C10 1_555 1_555
C6 C10 1_555 1_555
C8 C9 1_555 1_555
N2D C10D 1_555 1_555
N3D C9D 1_555 1_555
C6D C10D 1_555 1_555
C8D C9D 1_555 1_555

#END
