
#######################################################################
#
#                 Cambridge Crystallographic Data Centre
#                                CCDC 
#
#######################################################################
#
# If this CIF has been generated from an entry in the Cambridge 
# Structural Database, then it will include bibliographic, chemical, 
# crystal, experimental, refinement or atomic coordinate data resulting 
# from the CCDC's data processing and validation procedures.
#
#######################################################################

data_FOWSIU
_chemical_formula_moiety         'C33 H30 N10 S3'
_chemical_name_systematic        
tris(2-[4-(2-Pyridyl)pyrimidin-2-ylsulfanyl]ethyl)amine
_symmetry_cell_setting           orthorhombic
_symmetry_space_group_name_H-M   'P n a 21'
_symmetry_Int_Tables_number      33
_space_group_name_Hall           'P 2c -2n'
loop_
_symmetry_equiv_pos_site_id
_symmetry_equiv_pos_as_xyz
1 x,y,z
2 -x,-y,1/2+z
3 1/2+x,1/2-y,z
4 1/2-x,1/2+y,1/2+z
_cell_length_a                   16.169(3)
_cell_length_b                   25.670(5)
_cell_length_c                   7.6166(14)
_cell_angle_alpha                90
_cell_angle_beta                 90
_cell_angle_gamma                90
_cell_volume                     3161.33
_exptl_crystal_colour            yellow
_exptl_crystal_description       block
_cell_formula_units_Z            4
loop_
_atom_site_label
_atom_site_type_symbol
_atom_site_fract_x
_atom_site_fract_y
_atom_site_fract_z
S1 S 0.83661(8) 0.33092(6) 0.0846(3)
S2 S 0.41967(9) 0.46398(6) 0.0662(3)
S3 S 0.78712(8) 0.58482(6) 0.0894(3)
C1 C 0.9379(3) 0.3547(2) 0.1233(9)
C2 C 1.0620(3) 0.3334(3) 0.2283(10)
H1 H 1.0985 0.3099 0.2795
C3 C 1.0900(4) 0.3824(2) 0.1879(9)
H2 H 1.1450 0.3915 0.2062
C4 C 1.0356(3) 0.4172(2) 0.1206(7)
C5 C 1.0572(3) 0.4721(2) 0.0830(10)
C6 C 1.1378(3) 0.4874(3) 0.0554(11)
H3 H 1.1787 0.4619 0.0539
C7 C 1.1010(4) 0.5729(3) 0.0369(11)
H4 H 1.1157 0.6078 0.0236
C8 C 1.0201(4) 0.5610(2) 0.0618(11)
H5 H 0.9801 0.5870 0.0600
C9 C 0.9983(3) 0.5105(2) 0.0894(10)
H6 H 0.9435 0.5020 0.1126
C10 C 0.3913(4) 0.4001(2) 0.0151(8)
C11 C 0.2849(4) 0.3452(3) -0.0115(9)
H7 H 0.2288 0.3377 -0.0033
C12 C 0.3360(4) 0.3062(3) -0.0749(9)
H8 H 0.3159 0.2739 -0.1098
C13 C 0.4198(4) 0.3189(2) -0.0827(7)
C14 C 0.4821(4) 0.2805(3) -0.1415(9)
C15 C 0.4630(5) 0.2367(3) -0.2312(10)
H9 H 0.4077 0.2298 -0.2550
C16 C 0.5189(7) 0.2033(4) -0.2863(13)
H10 H 0.5044 0.1741 -0.3516
C17 C 0.5973(8) 0.2132(4) -0.2445(14)
H11 H 0.6364 0.1889 -0.2805
C18 C 0.5641(5) 0.2892(3) -0.1054(10)
H12 H 0.5785 0.3194 -0.0452
C19 C 0.7194(3) 0.6319(2) 0.0044(7)
C20 C 0.7130(4) 0.7117(2) -0.1116(8)
H13 H 0.7384 0.7419 -0.1517
C21 C 0.6267(3) 0.7084(2) -0.1158(8)
H14 H 0.5946 0.7356 -0.1588
C22 C 0.5919(3) 0.6642(2) -0.0549(7)
C23 C 0.5002(3) 0.6563(2) -0.0429(7)
C24 C 0.4472(4) 0.6917(2) -0.1183(9)
H15 H 0.4703 0.7185 -0.1842
C25 C 0.3355(3) 0.6511(3) -0.0095(9)
H16 H 0.2784 0.6494 0.0051
C26 C 0.3812(3) 0.6136(2) 0.0675(9)
H17 H 0.3566 0.5866 0.1302
C27 C 0.4666(3) 0.6166(2) 0.0496(8)
H18 H 0.5004 0.5915 0.1008
C28 C 0.7832(3) 0.3846(2) -0.0206(9)
H19 H 0.8232 0.4102 -0.0603
H20 H 0.7532 0.3719 -0.1222
C29 C 0.7245(3) 0.4093(2) 0.1049(9)
H21 H 0.6929 0.3824 0.1639
H22 H 0.7554 0.4283 0.1932
C30 C 0.5859(3) 0.4472(2) 0.1069(8)
H23 H 0.5698 0.4127 0.1462
H24 H 0.5893 0.4699 0.2085
C31 C 0.5245(3) 0.4676(2) -0.0191(8)
H25 H 0.5278 0.4478 -0.1273
H26 H 0.5376 0.5036 -0.0461
C32 C 0.7063(3) 0.4951(2) -0.0204(7)
H27 H 0.6712 0.5140 -0.1019
H28 H 0.7587 0.4889 -0.0787
C33 C 0.7220(3) 0.5299(2) 0.1391(8)
H29 H 0.7479 0.5094 0.2309
H30 H 0.6695 0.5425 0.1837
N1 N 0.9562(2) 0.40316(17) 0.0839(7)
N2 N 0.9844(3) 0.31788(18) 0.1973(7)
N3 N 1.1603(3) 0.5370(2) 0.0307(9)
N4 N 0.4466(3) 0.36629(19) -0.0387(6)
N5 N 0.3090(3) 0.39190(19) 0.0383(7)
N6 N 0.6259(4) 0.2555(3) -0.1540(10)
N7 N 0.6377(2) 0.62430(16) 0.0073(6)
N8 N 0.7597(3) 0.6734(2) -0.0528(7)
N9 N 0.3649(3) 0.6902(2) -0.1038(8)
N10 N 0.6680(3) 0.44486(18) 0.0158(6)
loop_
_geom_bond_atom_site_label_1
_geom_bond_atom_site_label_2
_geom_bond_site_symmetry_1
_geom_bond_site_symmetry_2
S1 C1 1_555 1_555
S2 C10 1_555 1_555
S3 C19 1_555 1_555
C1 N1 1_555 1_555
C2 H1 1_555 1_555
C3 C2 1_555 1_555
H2 C3 1_555 1_555
C4 C3 1_555 1_555
C5 C4 1_555 1_555
C6 C5 1_555 1_555
H3 C6 1_555 1_555
C7 H4 1_555 1_555
C8 C7 1_555 1_555
H5 C8 1_555 1_555
C9 C5 1_555 1_555
H6 C9 1_555 1_555
C10 N4 1_555 1_555
C11 H7 1_555 1_555
C12 C11 1_555 1_555
H8 C12 1_555 1_555
C13 C12 1_555 1_555
C14 C13 1_555 1_555
C15 C14 1_555 1_555
H9 C15 1_555 1_555
C16 C15 1_555 1_555
H10 C16 1_555 1_555
C17 C16 1_555 1_555
H11 C17 1_555 1_555
C18 C14 1_555 1_555
H12 C18 1_555 1_555
C19 N7 1_555 1_555
C20 H13 1_555 1_555
C21 C20 1_555 1_555
H14 C21 1_555 1_555
C22 C21 1_555 1_555
C23 C22 1_555 1_555
C24 C23 1_555 1_555
H15 C24 1_555 1_555
C25 H16 1_555 1_555
C26 C25 1_555 1_555
H17 C26 1_555 1_555
C27 C23 1_555 1_555
H18 C27 1_555 1_555
C28 S1 1_555 1_555
H19 C28 1_555 1_555
H20 C28 1_555 1_555
C29 C28 1_555 1_555
H21 C29 1_555 1_555
H22 C29 1_555 1_555
C30 H23 1_555 1_555
H24 C30 1_555 1_555
C31 S2 1_555 1_555
H25 C31 1_555 1_555
H26 C31 1_555 1_555
C32 H27 1_555 1_555
H28 C32 1_555 1_555
C33 S3 1_555 1_555
H29 C33 1_555 1_555
H30 C33 1_555 1_555
N1 C4 1_555 1_555
N2 C1 1_555 1_555
N3 C6 1_555 1_555
N4 C13 1_555 1_555
N5 C10 1_555 1_555
N6 C17 1_555 1_555
N7 C22 1_555 1_555
N8 C19 1_555 1_555
N9 C24 1_555 1_555
N10 C29 1_555 1_555
C2 N2 1_555 1_555
C7 N3 1_555 1_555
C8 C9 1_555 1_555
C11 N5 1_555 1_555
C18 N6 1_555 1_555
C20 N8 1_555 1_555
C25 N9 1_555 1_555
C26 C27 1_555 1_555
C30 C31 1_555 1_555
C30 N10 1_555 1_555
C32 C33 1_555 1_555
C32 N10 1_555 1_555

#END
