
#######################################################################
#
#                 Cambridge Crystallographic Data Centre
#                                CCDC 
#
#######################################################################
#
# If this CIF has been generated from an entry in the Cambridge 
# Structural Database, then it will include bibliographic, chemical, 
# crystal, experimental, refinement or atomic coordinate data resulting 
# from the CCDC's data processing and validation procedures.
#
#######################################################################

data_FOWZEX
_chemical_formula_moiety         'C11 H11 Cl1 N2 O4'
_chemical_name_systematic        
(4S,5S)-2-(4-Chlorophenyl)-1,3-dioxolane-4,5-dicarboxamide
_symmetry_cell_setting           monoclinic
_symmetry_space_group_name_H-M   'P 21'
_symmetry_Int_Tables_number      4
_space_group_name_Hall           'P 2yb'
loop_
_symmetry_equiv_pos_site_id
_symmetry_equiv_pos_as_xyz
1 x,y,z
2 -x,1/2+y,-z
_cell_length_a                   9.2780(19)
_cell_length_b                   4.7600(10)
_cell_length_c                   13.245(3)
_cell_angle_alpha                90
_cell_angle_beta                 93.15(3)
_cell_angle_gamma                90
_cell_volume                     584.059
_exptl_crystal_colour            colorless
_exptl_crystal_description       block
_cell_formula_units_Z            2
_exptl_crystal_recrystallization_method methanol
loop_
_atom_site_label
_atom_site_type_symbol
_atom_site_fract_x
_atom_site_fract_y
_atom_site_fract_z
Cl1 Cl 0.35368(14) -0.0236(4) -0.21514(8)
O1 O 0.2854(2) 0.2859(5) 0.26692(18)
O2 O 0.0917(2) 0.0071(5) 0.24181(16)
O3 O 0.3515(3) 0.0218(6) 0.51614(17)
O4 O -0.0323(3) 0.4727(5) 0.3827(2)
N1 N 0.4522(4) -0.0804(9) 0.3700(3)
H1 H 0.516(4) -0.168(8) 0.397(3)
H2 H 0.451(4) -0.069(10) 0.305(3)
N2 N -0.1472(4) 0.0634(7) 0.3925(3)
H3 H -0.230(4) 0.139(7) 0.403(2)
H4 H -0.140(5) -0.105(12) 0.399(3)
C1 C 0.2948(4) 0.0470(10) -0.0955(3)
C2 C 0.3508(5) -0.1037(10) -0.0134(3)
H5 H 0.4179 -0.2455 -0.0224
C3 C 0.3072(4) -0.0438(10) 0.0813(3)
H6 H 0.3440 -0.1476 0.1363
C4 C 0.2085(4) 0.1701(7) 0.0964(3)
C5 C 0.1527(4) 0.3126(9) 0.0133(3)
H7 H 0.0852 0.4541 0.0216
C6 C 0.1949(5) 0.2500(11) -0.0830(3)
H8 H 0.1549 0.3468 -0.1387
C7 C 0.1632(4) 0.2384(7) 0.1998(3)
H9 H 0.1002 0.4038 0.1976
C8 C 0.2436(3) 0.2201(7) 0.3666(2)
H10 H 0.2264 0.3935 0.4039
C9 C 0.1005(3) 0.0548(7) 0.3490(2)
H11 H 0.1064 -0.1248 0.3852
C10 C -0.0327(3) 0.2166(7) 0.3777(3)
C11 C 0.3560(3) 0.0449(8) 0.4236(2)
loop_
_geom_bond_atom_site_label_1
_geom_bond_atom_site_label_2
_geom_bond_site_symmetry_1
_geom_bond_site_symmetry_2
Cl1 C1 1_555 1_555
O1 C7 1_555 1_555
O2 C7 1_555 1_555
O3 C11 1_555 1_555
O4 C10 1_555 1_555
N1 H1 1_555 1_555
H2 N1 1_555 1_555
N2 H3 1_555 1_555
H4 N2 1_555 1_555
C1 C2 1_555 1_555
C2 H5 1_555 1_555
C3 C2 1_555 1_555
H6 C3 1_555 1_555
C4 C3 1_555 1_555
C5 C4 1_555 1_555
H7 C5 1_555 1_555
C6 C1 1_555 1_555
H8 C6 1_555 1_555
C7 C4 1_555 1_555
H9 C7 1_555 1_555
C8 O1 1_555 1_555
H10 C8 1_555 1_555
C9 O2 1_555 1_555
H11 C9 1_555 1_555
C10 N2 1_555 1_555
C11 N1 1_555 1_555
C5 C6 1_555 1_555
C8 C9 1_555 1_555
C8 C11 1_555 1_555
C9 C10 1_555 1_555

#END
