
#######################################################################
#
#                 Cambridge Crystallographic Data Centre
#                                CCDC 
#
#######################################################################
#
# If this CIF has been generated from an entry in the Cambridge 
# Structural Database, then it will include bibliographic, chemical, 
# crystal, experimental, refinement or atomic coordinate data resulting 
# from the CCDC's data processing and validation procedures.
#
#######################################################################

data_FOWZIA
_chemical_formula_moiety         'C57 H60 N8,C1 H1 Cl3,H2 O1'
_chemical_name_systematic        
'6,8,18,20,29,31-(1,4)-Hexabenza-1,4,10,13,16,22,27,33-octa-azabicyclo(11.11.11)pentatriaconta-4,9,16,21,27,32-hexaene chloroform solvate monohydrate'
_symmetry_cell_setting           triclinic
_symmetry_space_group_name_H-M   'P -1'
_symmetry_Int_Tables_number      2
_space_group_name_Hall           '-P 1'
loop_
_symmetry_equiv_pos_site_id
_symmetry_equiv_pos_as_xyz
1 x,y,z
2 -x,-y,-z
_cell_length_a                   19.120(8)
_cell_length_b                   15.550(6)
_cell_length_c                   11.172(5)
_cell_angle_alpha                119.11(6)
_cell_angle_beta                 98.95(5)
_cell_angle_gamma                101.60(5)
_cell_volume                     2715.32
_chemical_melting_point          'above 260deg.C'
_cell_formula_units_Z            2
loop_
_atom_site_label
_atom_site_type_symbol
_atom_site_fract_x
_atom_site_fract_y
_atom_site_fract_z
C1 C 0.1131(3) 0.1511(5) 0.7764(7)
C2 C 0.1701(4) 0.2549(5) 0.8367(8)
N1 N 0.2332(3) 0.2722(4) 0.9441(6)
C3 C 0.2967(4) 0.2949(4) 0.9332(8)
C4 C 0.3660(4) 0.3156(5) 1.0362(8)
C5 C 0.4362(4) 0.3445(5) 1.0292(8)
C6 C 0.4999(4) 0.3692(5) 1.1307(8)
C7 C 0.4950(4) 0.3636(5) 1.2516(8)
C8 C 0.4230(5) 0.3325(5) 1.2557(8)
C9 C 0.3598(4) 0.3111(5) 1.1548(9)
C10 C 0.5617(4) 0.3938(5) 1.3687(7)
C11 C 0.6317(4) 0.3706(5) 1.3339(7)
C12 C 0.6286(4) 0.2803(5) 1.2114(7)
C13 C 0.6945(4) 0.2580(5) 1.1871(7)
C14 C 0.7627(3) 0.3229(5) 1.2788(7)
C15 C 0.7657(4) 0.4148(5) 1.4030(7)
C16 C 0.7016(4) 0.4370(5) 1.4270(7)
C17 C 0.8307(4) 0.2952(5) 1.2558(8)
N2 N 0.8945(3) 0.3460(4) 1.3407(7)
C18 C 0.9568(4) 0.3094(5) 1.3061(8)
C19 C 1.0173(3) 0.3915(5) 1.3107(7)
C20 C 0.1152(3) 0.0418(5) 0.5323(7)
C21 C 0.1719(3) 0.0064(5) 0.4556(7)
N3 N 0.2380(3) 0.0922(4) 0.5049(6)
C22 C 0.2994(4) 0.0909(5) 0.5555(6)
C23 C 0.3704(3) 0.1709(5) 0.6043(6)
C24 C 0.3726(4) 0.2627(5) 0.6049(7)
C25 C 0.4400(3) 0.3333(5) 0.6449(6)
C26 C 0.5081(3) 0.3235(5) 0.6873(6)
C27 C 0.5058(3) 0.2330(5) 0.6926(6)
C28 C 0.4385(3) 0.1613(5) 0.6511(6)
C29 C 0.5802(3) 0.3991(5) 0.7184(7)
C30 C 0.6492(4) 0.4205(4) 0.8286(8)
C31 C 0.7186(4) 0.4327(4) 0.8104(7)
C32 C 0.7814(4) 0.4585(5) 0.9112(9)
C33 C 0.7780(4) 0.4732(4) 1.0435(9)
C34 C 0.7084(4) 0.4593(5) 1.0624(8)
C35 C 0.6450(4) 0.4342(5) 0.9597(8)
C36 C 0.8470(4) 0.5044(5) 1.1548(7)
N4 N 0.9106(3) 0.5380(4) 1.1525(6)
C37 C 0.9745(4) 0.5696(5) 1.2692(7)
C38 C 1.0267(3) 0.5062(5) 1.2169(8)
C39 C 0.1068(4) -0.0282(5) 0.6850(9)
C40 C 0.1593(5) -0.0279(6) 0.7980(9)
N5 N 0.2245(4) -0.0566(5) 0.7581(7)
C41 C 0.2884(5) 0.0067(6) 0.8291(8)
C42 C 0.3559(4) -0.0133(6) 0.7962(8)
C43 C 0.3520(4) -0.1028(5) 0.6643(8)
C44 C 0.4163(4) -0.1233(5) 0.6417(7)
C45 C 0.4861(4) -0.0636(5) 0.7380(8)
C46 C 0.4892(4) 0.0251(5) 0.8655(8)
C47 C 0.4256(5) 0.0489(5) 0.8883(8)
C48 C 0.5545(4) -0.0942(5) 0.7133(7)
C49 C 0.6255(4) -0.0097(5) 0.7599(7)
C50 C 0.6268(4) 0.0699(6) 0.7329(8)
C51 C 0.6929(4) 0.1437(5) 0.7715(7)
C52 C 0.7605(4) 0.1420(5) 0.8312(7)
C53 C 0.7598(4) 0.0622(6) 0.8572(7)
C54 C 0.6933(4) -0.0103(5) 0.8221(6)
C55 C 0.8320(4) 0.2166(5) 0.8644(7)
N6 N 0.8938(4) 0.2093(4) 0.8990(6)
C56 C 0.9601(4) 0.2858(6) 0.9213(8)
C57 C 1.0161(4) 0.3239(5) 1.0605(8)
N7 N 0.1356(2) 0.0647(3) 0.6790(5)
N8 N 0.9969(3) 0.3993(4) 1.1832(6)
H1 H 0.065 0.149 0.723
H2 H 0.106 0.143 0.857
H3 H 0.147 0.311 0.881
H4 H 0.187 0.257 0.758
H5 H 0.301 0.300 0.849
H6 H 0.442 0.348 0.944
H7 H 0.550 0.391 1.119
H8 H 0.416 0.325 1.338
H9 H 0.309 0.292 1.167
H10 H 0.576 0.471 1.436
H11 H 0.546 0.358 1.419
H12 H 0.579 0.231 1.140
H13 H 0.691 0.192 1.099
H14 H 0.815 0.464 1.475
H15 H 0.706 0.504 1.515
H16 H 0.825 0.230 1.164
H17 H 0.978 0.293 1.377
H18 H 0.939 0.245 1.207
H19 H 1.065 0.373 1.314
H20 H 1.025 0.460 1.399
H21 H 0.066 -0.015 0.477
H22 H 0.111 0.106 0.535
H23 H 0.149 -0.027 0.350
H24 H 0.186 -0.046 0.474
H25 H 0.301 0.030 0.563
H26 H 0.325 0.275 0.576
H27 H 0.440 0.397 0.644
H28 H 0.553 0.222 0.726
H29 H 0.438 0.098 0.655
H30 H 0.593 0.374 0.626
H31 H 0.571 0.467 0.750
H32 H 0.723 0.422 0.717
H33 H 0.831 0.467 0.891
H34 H 0.704 0.468 1.155
H35 H 0.596 0.426 0.979
H36 H 0.842 0.498 1.238
H37 H 1.002 0.645 1.314
H38 H 0.957 0.559 1.342
H39 H 1.076 0.542 1.293
H40 H 1.034 0.503 1.128
H41 H 0.058 -0.029 0.706
H42 H 0.100 -0.092 0.590
H43 H 0.132 -0.078 0.819
H44 H 0.177 0.044 0.886
H45 H 0.293 0.076 0.914
H46 H 0.303 -0.149 0.590
H47 H 0.412 -0.186 0.549
H48 H 0.538 0.071 0.940
H49 H 0.430 0.115 0.977
H50 H 0.543 -0.145 0.608
H51 H 0.564 -0.129 0.766
H52 H 0.579 0.073 0.685
H53 H 0.692 0.201 0.756
H54 H 0.808 0.058 0.901
H55 H 0.694 -0.066 0.843
H56 H 0.830 0.278 0.858
H57 H 0.982 0.254 0.841
H58 H 0.947 0.346 0.924
H59 H 1.066 0.358 1.061
H60 H 1.018 0.263 1.070
Cl1 Cl 0.1431(2) 0.2826(2) 0.4791(3)
Cl2 Cl 0.0730(2) 0.0921(3) 0.2140(4)
Cl3 Cl 0.1956(2) 0.2339(3) 0.2378(4)
C58 C 0.1574(4) 0.1859(7) 0.3302(9)
H61 H 0.192 0.157 0.365
O1 O 0.8378(8) 0.2513(11) 0.5351(16)
loop_
_geom_bond_atom_site_label_1
_geom_bond_atom_site_label_2
_geom_bond_site_symmetry_1
_geom_bond_site_symmetry_2
C1 C2 1_555 1_555
C2 N1 1_555 1_555
N1 C3 1_555 1_555
C3 C4 1_555 1_555
C4 C5 1_555 1_555
C5 C6 1_555 1_555
C6 C7 1_555 1_555
C7 C8 1_555 1_555
C8 C9 1_555 1_555
C9 C4 1_555 1_555
C10 C7 1_555 1_555
C11 C10 1_555 1_555
C12 C11 1_555 1_555
C13 C12 1_555 1_555
C14 C13 1_555 1_555
C15 C14 1_555 1_555
C16 C11 1_555 1_555
C17 C14 1_555 1_555
N2 C17 1_555 1_555
C18 N2 1_555 1_555
C19 C18 1_555 1_555
C20 C21 1_555 1_555
C21 N3 1_555 1_555
N3 C22 1_555 1_555
C22 C23 1_555 1_555
C23 C24 1_555 1_555
C24 C25 1_555 1_555
C25 C26 1_555 1_555
C26 C27 1_555 1_555
C27 C28 1_555 1_555
C28 C23 1_555 1_555
C29 C26 1_555 1_555
C30 C29 1_555 1_555
C31 C30 1_555 1_555
C32 C31 1_555 1_555
C33 C32 1_555 1_555
C34 C33 1_555 1_555
C35 C30 1_555 1_555
C36 C33 1_555 1_555
N4 C36 1_555 1_555
C37 N4 1_555 1_555
C38 C37 1_555 1_555
C39 C40 1_555 1_555
C40 N5 1_555 1_555
N5 C41 1_555 1_555
C41 C42 1_555 1_555
C42 C43 1_555 1_555
C43 C44 1_555 1_555
C44 C45 1_555 1_555
C45 C46 1_555 1_555
C46 C47 1_555 1_555
C47 C42 1_555 1_555
C48 C45 1_555 1_555
C49 C48 1_555 1_555
C50 C49 1_555 1_555
C51 C50 1_555 1_555
C52 C51 1_555 1_555
C53 C52 1_555 1_555
C54 C49 1_555 1_555
C55 C52 1_555 1_555
N6 C55 1_555 1_555
C56 N6 1_555 1_555
C57 C56 1_555 1_555
N7 C1 1_555 1_555
N8 C19 1_555 1_555
H1 C1 1_555 1_555
H2 C1 1_555 1_555
H3 C2 1_555 1_555
H4 C2 1_555 1_555
H5 C3 1_555 1_555
H6 C5 1_555 1_555
H7 C6 1_555 1_555
H8 C8 1_555 1_555
H9 C9 1_555 1_555
H10 C10 1_555 1_555
H11 C10 1_555 1_555
H12 C12 1_555 1_555
H13 C13 1_555 1_555
H14 C15 1_555 1_555
H15 C16 1_555 1_555
H16 C17 1_555 1_555
H17 C18 1_555 1_555
H18 C18 1_555 1_555
H19 C19 1_555 1_555
H20 C19 1_555 1_555
H21 C20 1_555 1_555
H22 C20 1_555 1_555
H23 C21 1_555 1_555
H24 C21 1_555 1_555
H25 C22 1_555 1_555
H26 C24 1_555 1_555
H27 C25 1_555 1_555
H28 C27 1_555 1_555
H29 C28 1_555 1_555
H30 C29 1_555 1_555
H31 C29 1_555 1_555
H32 C31 1_555 1_555
H33 C32 1_555 1_555
H34 C34 1_555 1_555
H35 C35 1_555 1_555
H36 C36 1_555 1_555
H37 C37 1_555 1_555
H38 C37 1_555 1_555
H39 C38 1_555 1_555
H40 C38 1_555 1_555
H41 C39 1_555 1_555
H42 C39 1_555 1_555
H43 C40 1_555 1_555
H44 C40 1_555 1_555
H45 C41 1_555 1_555
H46 C43 1_555 1_555
H47 C44 1_555 1_555
H48 C46 1_555 1_555
H49 C47 1_555 1_555
H50 C48 1_555 1_555
H51 C48 1_555 1_555
H52 C50 1_555 1_555
H53 C51 1_555 1_555
H54 C53 1_555 1_555
H55 C54 1_555 1_555
H56 C55 1_555 1_555
H57 C56 1_555 1_555
H58 C56 1_555 1_555
H59 C57 1_555 1_555
H60 C57 1_555 1_555
Cl1 C58 1_555 1_555
Cl2 C58 1_555 1_555
Cl3 C58 1_555 1_555
C58 H61 1_555 1_555
C15 C16 1_555 1_555
C20 N7 1_555 1_555
C34 C35 1_555 1_555
C38 N8 1_555 1_555
C39 N7 1_555 1_555
C53 C54 1_555 1_555
C57 N8 1_555 1_555

#END
