
#######################################################################
#
#                 Cambridge Crystallographic Data Centre
#                                CCDC 
#
#######################################################################
#
# If this CIF has been generated from an entry in the Cambridge 
# Structural Database, then it will include bibliographic, chemical, 
# crystal, experimental, refinement or atomic coordinate data resulting 
# from the CCDC's data processing and validation procedures.
#
#######################################################################

data_FOXBIE
_chemical_formula_moiety         'C21 H18 O6'
_chemical_name_systematic        
'Ethyl 2-hydroxy-5-oxo-4-phenyl-2,3,4,5-tetrahydropyrano[3,2-c]chromene-2-carboxylate'
_symmetry_cell_setting           monoclinic
_symmetry_space_group_name_H-M   'P 21/n'
_symmetry_Int_Tables_number      14
_space_group_name_Hall           '-P 2yn'
loop_
_symmetry_equiv_pos_site_id
_symmetry_equiv_pos_as_xyz
1 x,y,z
2 1/2-x,1/2+y,1/2-z
3 -x,-y,-z
4 1/2+x,1/2-y,1/2+z
_cell_length_a                   5.4988(2)
_cell_length_b                   14.9975(5)
_cell_length_c                   21.3420(10)
_cell_angle_alpha                90
_cell_angle_beta                 98.5487(13)
_cell_angle_gamma                90
_cell_volume                     1740.48
_exptl_crystal_colour            colorless
_exptl_crystal_description       platelet
_cell_formula_units_Z            4
_exptl_crystal_recrystallization_method dichloromethane
loop_
_atom_site_label
_atom_site_type_symbol
_atom_site_fract_x
_atom_site_fract_y
_atom_site_fract_z
O1 O 0.3270(2) 0.47260(6) 0.24846(5)
O2 O 0.3755(2) 0.12605(6) 0.19275(5)
O3 O 0.2981(2) 0.39483(6) 0.15453(5)
O4 O 0.7169(2) 0.14798(8) 0.25944(6)
O5 O 0.2708(2) 0.60253(9) 0.16249(6)
O6 O 0.5597(2) 0.54329(8) 0.11100(6)
C1 C 0.4400(2) 0.46019(10) 0.19571(6)
C2 C 0.7020(2) 0.42864(10) 0.21432(8)
C3 C 0.7153(2) 0.33839(10) 0.24884(6)
C4 C 0.5223(2) 0.27767(10) 0.21402(6)
C5 C 0.5514(3) 0.18281(11) 0.22491(8)
C6 C 0.1792(3) 0.15776(11) 0.15092(6)
C7 C 0.0084(3) 0.09575(12) 0.12389(8)
C8 C -0.1910(3) 0.12559(12) 0.08244(9)
C9 C -0.2214(3) 0.21535(12) 0.06798(8)
C10 C -0.0505(2) 0.27653(11) 0.09506(6)
C11 C 0.1532(2) 0.24823(10) 0.13760(6)
C12 C 0.3355(2) 0.30795(10) 0.17075(6)
C13 C 0.7091(2) 0.34673(10) 0.31968(6)
C14 C 0.9040(3) 0.38961(12) 0.35684(8)
C15 C 0.9097(3) 0.39905(12) 0.42137(9)
C16 C 0.7198(3) 0.36628(13) 0.45022(9)
C17 C 0.5260(3) 0.32322(13) 0.41407(9)
C18 C 0.5209(3) 0.31326(12) 0.34917(8)
C19 C 0.4127(2) 0.54477(11) 0.15467(8)
C20 C 0.5607(4) 0.62325(13) 0.07224(10)
C21 C 0.7368(4) 0.60702(17) 0.02723(11)
H1 H 0.8750 0.3122 0.2443
H2 H 0.0279 0.0354 0.1335
H3 H -0.3073 0.0848 0.0638
H4 H -0.3574 0.2343 0.0400
H5 H -0.0706 0.3367 0.0851
H6 H 0.7910 0.4727 0.2421
H7 H 0.7781 0.4226 0.1763
H8 H 1.0325 0.4123 0.3378
H9 H 1.0420 0.4276 0.4455
H10 H 0.7223 0.3731 0.4936
H11 H 0.3979 0.3007 0.4333
H12 H 0.3898 0.2838 0.3253
H13 H 0.2350 0.5159 0.2417
H14 H 0.6127 0.6743 0.0988
H15 H 0.3976 0.6341 0.0492
H16 H 0.8950 0.5924 0.0504
H17 H 0.7504 0.6597 0.0025
H18 H 0.6791 0.5585 -0.0003
loop_
_geom_bond_atom_site_label_1
_geom_bond_atom_site_label_2
_geom_bond_site_symmetry_1
_geom_bond_site_symmetry_2
O1 C1 1_555 1_555
O2 C5 1_555 1_555
O3 C1 1_555 1_555
O4 C5 1_555 1_555
O5 C19 1_555 1_555
O6 C19 1_555 1_555
C1 C2 1_555 1_555
C2 C3 1_555 1_555
C3 C4 1_555 1_555
C4 C5 1_555 1_555
C6 O2 1_555 1_555
C7 C6 1_555 1_555
C8 C7 1_555 1_555
C9 C8 1_555 1_555
C10 C9 1_555 1_555
C11 C6 1_555 1_555
C12 O3 1_555 1_555
C13 C3 1_555 1_555
C14 C13 1_555 1_555
C15 C14 1_555 1_555
C16 C15 1_555 1_555
C17 C16 1_555 1_555
C18 C13 1_555 1_555
C19 C1 1_555 1_555
C20 O6 1_555 1_555
C21 C20 1_555 1_555
H1 C3 1_555 1_555
H2 C7 1_555 1_555
H3 C8 1_555 1_555
H4 C9 1_555 1_555
H5 C10 1_555 1_555
H6 C2 1_555 1_555
H7 C2 1_555 1_555
H8 C14 1_555 1_555
H9 C15 1_555 1_555
H10 C16 1_555 1_555
H11 C17 1_555 1_555
H12 C18 1_555 1_555
H13 O1 1_555 1_555
H14 C20 1_555 1_555
H15 C20 1_555 1_555
H16 C21 1_555 1_555
H17 C21 1_555 1_555
H18 C21 1_555 1_555
C4 C12 1_555 1_555
C10 C11 1_555 1_555
C11 C12 1_555 1_555
C17 C18 1_555 1_555

#END
