
#######################################################################
#
#                 Cambridge Crystallographic Data Centre
#                                CCDC 
#
#######################################################################
#
# If this CIF has been generated from an entry in the Cambridge 
# Structural Database, then it will include bibliographic, chemical, 
# crystal, experimental, refinement or atomic coordinate data resulting 
# from the CCDC's data processing and validation procedures.
#
#######################################################################

data_FOXCAY01
_chemical_formula_moiety         'C12 H10 N2 O4'
_chemical_name_systematic        'ethyl 2-cyano-3-(3-nitrophenyl)acrylate'
_symmetry_cell_setting           triclinic
_symmetry_space_group_name_H-M   'P -1'
_symmetry_Int_Tables_number      2
_space_group_name_Hall           '-P 1'
loop_
_symmetry_equiv_pos_site_id
_symmetry_equiv_pos_as_xyz
1 x,y,z
2 -x,-y,-z
_cell_length_a                   4.0497(19)
_cell_length_b                   10.774(5)
_cell_length_c                   13.882(6)
_cell_angle_alpha                103.934(8)
_cell_angle_beta                 96.959(9)
_cell_angle_gamma                91.161(9)
_cell_volume                     582.769
_exptl_crystal_colour            yellow
_exptl_crystal_description       Block
_cell_formula_units_Z            2
loop_
_atom_site_label
_atom_site_type_symbol
_atom_site_fract_x
_atom_site_fract_y
_atom_site_fract_z
C1 C -0.1150(16) 0.6768(4) 0.1760(4)
C2 C 0.0743(14) 0.7920(3) 0.5450(3)
C3 C 0.0077(15) 0.7551(3) 0.2684(3)
H1 H 0.1329 0.8302 0.2734
C4 C 0.0863(14) 0.8021(3) 0.4497(3)
C5 C -0.2492(15) 0.6042(4) 0.3432(4)
H2 H -0.2987 0.5792 0.3997
C6 C -0.2939(16) 0.5632(4) 0.1649(4)
H3 H -0.3670 0.5113 0.1017
C7 C 0.2680(15) 0.8861(4) 0.6288(3)
C8 C -0.0612(14) 0.7184(3) 0.3548(3)
C9 C 0.440(2) 0.9336(4) 0.8044(4)
H4 H 0.3195 1.0074 0.8333
H5 H 0.6463 0.9639 0.7869
C10 C -0.3618(18) 0.5284(4) 0.2501(4)
H6 H -0.4855 0.4526 0.2442
C11 C -0.1126(15) 0.6932(4) 0.5719(3)
C12 C 0.513(3) 0.8558(7) 0.8775(5)
H7 H 0.3084 0.8181 0.8888
H8 H 0.6205 0.9092 0.9394
H9 H 0.6562 0.7893 0.8520
H10 H 0.260(17) 0.875(5) 0.442(4)
N1 N -0.2669(17) 0.6172(4) 0.5954(4)
N2 N -0.0417(16) 0.7139(4) 0.0848(3)
O1 O 0.4322(13) 0.9754(3) 0.6198(3)
O2 O 0.2412(12) 0.8563(3) 0.7157(2)
O3 O 0.1240(19) 0.8133(4) 0.0949(3)
O4 O -0.1434(18) 0.6450(4) 0.0039(3)
loop_
_geom_bond_atom_site_label_1
_geom_bond_atom_site_label_2
_geom_bond_site_symmetry_1
_geom_bond_site_symmetry_2
C1 C3 1_555 1_555
C2 C4 1_555 1_555
C3 H1 1_555 1_555
C4 C8 1_555 1_555
C5 H2 1_555 1_555
C6 C1 1_555 1_555
H3 C6 1_555 1_555
C7 C2 1_555 1_555
C8 C3 1_555 1_555
C9 H4 1_555 1_555
H5 C9 1_555 1_555
C10 C5 1_555 1_555
H6 C10 1_555 1_555
C11 C2 1_555 1_555
C12 C9 1_555 1_555
H7 C12 1_555 1_555
H8 C12 1_555 1_555
H9 C12 1_555 1_555
H10 C4 1_555 1_555
N1 C11 1_555 1_555
N2 C1 1_555 1_555
O1 C7 1_555 1_555
O2 C7 1_555 1_555
O3 N2 1_555 1_555
O4 N2 1_555 1_555
C5 C8 1_555 1_555
C6 C10 1_555 1_555
C9 O2 1_555 1_555

#END
