
#######################################################################
#
#                 Cambridge Crystallographic Data Centre
#                                CCDC 
#
#######################################################################
#
# If this CIF has been generated from an entry in the Cambridge 
# Structural Database, then it will include bibliographic, chemical, 
# crystal, experimental, refinement or atomic coordinate data resulting 
# from the CCDC's data processing and validation procedures.
#
#######################################################################

data_FOXHIL
_chemical_formula_moiety         'C17 H15 N1 O4 S1'
_chemical_name_systematic        
10-methylene-12-((4-methylphenyl)sulfonyl)-8,11-dioxa-12-azatricyclo[7.2.1.0^2,7^]dodeca-2,4,6-triene
_symmetry_cell_setting           orthorhombic
_symmetry_space_group_name_H-M   'P n a 21'
_symmetry_Int_Tables_number      33
_space_group_name_Hall           'P 2c -2n'
loop_
_symmetry_equiv_pos_site_id
_symmetry_equiv_pos_as_xyz
1 x,y,z
2 -x,-y,1/2+z
3 1/2+x,1/2-y,z
4 1/2-x,1/2+y,1/2+z
_cell_length_a                   17.324(8)
_cell_length_b                   15.968(8)
_cell_length_c                   5.799(3)
_cell_angle_alpha                90
_cell_angle_beta                 90
_cell_angle_gamma                90
_cell_volume                     1604.18
_exptl_crystal_colour            colorless
_exptl_crystal_description       prismatic
_cell_formula_units_Z            4
loop_
_atom_site_label
_atom_site_type_symbol
_atom_site_fract_x
_atom_site_fract_y
_atom_site_fract_z
S1 S 0.49219(7) 0.27863(8) 0.3195(3)
N1 N 0.4368(2) 0.1999(2) 0.2365(8)
O1 O 0.3590(2) 0.2267(2) -0.0748(7)
O2 O 0.33930(18) 0.1086(2) 0.3616(7)
O3 O 0.55711(19) 0.2742(2) 0.1672(8)
O4 O 0.5014(2) 0.2699(3) 0.5631(7)
C1 C 0.3565(3) 0.1949(3) 0.3217(12)
H1 H 0.3496 0.2283 0.4621
C2 C 0.3122(3) 0.2308(3) 0.1250(12)
C3 C 0.2426(3) 0.2627(3) 0.1184(15)
H2 H 0.2230 0.2833 -0.0197
H3 H 0.2128 0.2647 0.2517
C4 C 0.4248(3) 0.1783(3) -0.0031(10)
H4 H 0.4704 0.1904 -0.0971
C5 C 0.4049(3) 0.0862(3) -0.0053(10)
C6 C 0.3635(3) 0.0576(3) 0.1808(11)
C7 C 0.3441(3) -0.0272(4) 0.2046(13)
H5 H 0.3164 -0.0464 0.3314
C8 C 0.3681(4) -0.0815(4) 0.0301(17)
H6 H 0.3565 -0.1382 0.0415
C9 C 0.4081(4) -0.0533(4) -0.1567(16)
H7 H 0.4228 -0.0907 -0.2716
C10 C 0.4269(3) 0.0304(4) -0.1765(13)
H8 H 0.4543 0.0493 -0.3043
C11 C 0.4429(3) 0.3726(3) 0.2694(9)
C12 C 0.3942(3) 0.4032(4) 0.4399(11)
H9 H 0.3875 0.3736 0.5766
C13 C 0.3557(3) 0.4782(4) 0.4047(12)
H10 H 0.3229 0.4985 0.5185
C14 C 0.3656(3) 0.5241(3) 0.1989(14)
C15 C 0.4126(3) 0.4909(4) 0.0312(12)
H11 H 0.4184 0.5193 -0.1078
C16 C 0.4516(3) 0.4155(3) 0.0652(10)
H12 H 0.4835 0.3943 -0.0499
C17 C 0.3249(4) 0.6075(4) 0.1679(16)
H13 H 0.3560 0.6514 0.2327
H14 H 0.2758 0.6059 0.2449
H15 H 0.3171 0.6179 0.0066
loop_
_geom_bond_atom_site_label_1
_geom_bond_atom_site_label_2
_geom_bond_site_symmetry_1
_geom_bond_site_symmetry_2
S1 N1 1_555 1_555
N1 C1 1_555 1_555
O1 C2 1_555 1_555
O2 C1 1_555 1_555
O3 S1 1_555 1_555
O4 S1 1_555 1_555
C1 H1 1_555 1_555
C2 C1 1_555 1_555
C3 C2 1_555 1_555
H2 C3 1_555 1_555
H3 C3 1_555 1_555
C4 N1 1_555 1_555
H4 C4 1_555 1_555
C5 C4 1_555 1_555
C6 O2 1_555 1_555
C7 C6 1_555 1_555
H5 C7 1_555 1_555
C8 C7 1_555 1_555
H6 C8 1_555 1_555
C9 C8 1_555 1_555
H7 C9 1_555 1_555
C10 C5 1_555 1_555
H8 C10 1_555 1_555
C11 S1 1_555 1_555
C12 C11 1_555 1_555
H9 C12 1_555 1_555
C13 C12 1_555 1_555
H10 C13 1_555 1_555
C14 C13 1_555 1_555
C15 C14 1_555 1_555
H11 C15 1_555 1_555
C16 C11 1_555 1_555
H12 C16 1_555 1_555
C17 C14 1_555 1_555
H13 C17 1_555 1_555
H14 C17 1_555 1_555
H15 C17 1_555 1_555
O1 C4 1_555 1_555
C5 C6 1_555 1_555
C9 C10 1_555 1_555
C15 C16 1_555 1_555

#END
