
#######################################################################
#
#                 Cambridge Crystallographic Data Centre
#                                CCDC 
#
#######################################################################
#
# If this CIF has been generated from an entry in the Cambridge 
# Structural Database, then it will include bibliographic, chemical, 
# crystal, experimental, refinement or atomic coordinate data resulting 
# from the CCDC's data processing and validation procedures.
#
#######################################################################

data_FOXJOT
_chemical_formula_moiety         'C3 H2 N9 O2 1-,C1 H6 N3 1+,0.5(H2 O1)'
_chemical_name_systematic        
'diaminomethaniminium 5-(5-amino-3-nitro-1H-1,2,4-triazol-1-yl)tetrazol-2-ide hemihydrate'
_symmetry_cell_setting           triclinic
_symmetry_space_group_name_H-M   'P -1'
_symmetry_Int_Tables_number      2
_space_group_name_Hall           '-P 1'
loop_
_symmetry_equiv_pos_site_id
_symmetry_equiv_pos_as_xyz
1 x,y,z
2 -x,-y,-z
_cell_length_a                   7.0181(17)
_cell_length_b                   8.833(2)
_cell_length_c                   18.795(6)
_cell_angle_alpha                84.760(9)
_cell_angle_beta                 84.240(8)
_cell_angle_gamma                68.063(9)
_cell_volume                     1073.47
_exptl_crystal_colour            yellow
_exptl_crystal_description       Prism
_cell_formula_units_Z            4
loop_
_atom_site_label
_atom_site_type_symbol
_atom_site_fract_x
_atom_site_fract_y
_atom_site_fract_z
O1 O 0.56137(13) 0.80783(11) 0.31962(4)
O2 O 0.60579(13) 0.70424(10) 0.42898(4)
N1 N 0.26655(13) 1.08861(11) 0.36486(5)
N2 N 0.29966(13) 0.96876(10) 0.47817(5)
N3 N 0.15022(13) 1.12327(10) 0.47782(4)
N4 N 0.00064(16) 1.34304(12) 0.39298(5)
N5 N 0.52095(14) 0.81253(11) 0.38451(5)
N6 N 0.06171(14) 1.10305(11) 0.60350(5)
N7 N -0.08091(15) 1.20679(12) 0.64828(5)
N8 N -0.18197(15) 1.34239(12) 0.61206(5)
N9 N -0.11128(14) 1.33445(11) 0.54234(5)
C1 C 0.13191(16) 1.19389(13) 0.40948(5)
C2 C 0.35868(16) 0.96038(13) 0.40992(5)
C3 C 0.03549(16) 1.18649(12) 0.54095(5)
H1 H -0.009(2) 1.3851(16) 0.3470(7)
H2 H -0.076(2) 1.4033(18) 0.4251(8)
O3 O 0.76348(15) -0.11342(11) 0.18073(5)
O4 O 0.75631(14) -0.16037(10) 0.06969(5)
N10 N 0.75304(14) 0.19406(11) 0.14358(5)
N11 N 0.75818(14) 0.13608(11) 0.02755(5)
N12 N 0.75848(14) 0.29064(11) 0.03150(4)
N13 N 0.74916(16) 0.46579(13) 0.12223(6)
N14 N 0.75839(15) -0.07363(12) 0.11673(5)
N15 N 0.78026(16) 0.34182(12) -0.09578(5)
N16 N 0.76921(17) 0.47720(13) -0.13763(5)
N17 N 0.74207(16) 0.59796(13) -0.09725(5)
N18 N 0.73393(15) 0.54696(12) -0.02754(5)
C4 C 0.75523(16) 0.32387(13) 0.10154(5)
C5 C 0.75574(16) 0.08950(13) 0.09521(5)
C6 C 0.75785(16) 0.39161(13) -0.03044(5)
H3 H 0.755(2) 0.5486(17) 0.0890(7)
H4 H 0.766(2) 0.4733(19) 0.1666(9)
O5 O 0.90860(15) 0.52267(11) 0.25443(5)
H5 H 0.820(3) 0.615(2) 0.2672(9)
H6 H 0.994(3) 0.540(2) 0.2284(9)
N19 N 0.53145(16) 0.30838(13) 0.40125(5)
N20 N 0.70800(16) 0.16537(12) 0.30382(6)
N21 N 0.44897(17) 0.41614(13) 0.28799(6)
C7 C 0.56442(17) 0.29531(13) 0.33069(5)
H7 H 0.435(2) 0.3992(19) 0.4168(8)
H8 H 0.597(2) 0.2320(19) 0.4304(8)
H9 H 0.783(2) 0.0811(19) 0.3333(8)
H10 H 0.728(2) 0.1609(16) 0.2579(8)
H11 H 0.350(2) 0.503(2) 0.3076(8)
H12 H 0.466(2) 0.4158(18) 0.2408(8)
N22 N 0.25136(18) 0.13683(14) 0.20904(5)
N23 N 0.26095(17) 0.05252(14) 0.09688(5)
N24 N 0.23359(18) -0.11325(14) 0.19571(6)
C8 C 0.24844(17) 0.02481(14) 0.16771(6)
H13 H 0.261(2) 0.1164(17) 0.2578(8)
H14 H 0.259(2) 0.225(2) 0.1891(8)
H15 H 0.258(2) -0.0213(18) 0.0701(8)
H16 H 0.266(2) 0.149(2) 0.0787(8)
H17 H 0.231(2) -0.1833(18) 0.1664(8)
H18 H 0.211(2) -0.1260(19) 0.2409(9)
loop_
_geom_bond_atom_site_label_1
_geom_bond_atom_site_label_2
_geom_bond_site_symmetry_1
_geom_bond_site_symmetry_2
O1 N5 1_555 1_555
O2 N5 1_555 1_555
N1 C1 1_555 1_555
N2 N3 1_555 1_555
N3 C1 1_555 1_555
N4 C1 1_555 1_555
N5 C2 1_555 1_555
N6 N7 1_555 1_555
N7 N8 1_555 1_555
N8 N9 1_555 1_555
N9 C3 1_555 1_555
C2 N1 1_555 1_555
C3 N3 1_555 1_555
H1 N4 1_555 1_555
H2 N4 1_555 1_555
O3 N14 1_555 1_555
O4 N14 1_555 1_555
N10 C4 1_555 1_555
N11 N12 1_555 1_555
N12 C4 1_555 1_555
N13 C4 1_555 1_555
N14 C5 1_555 1_555
N15 N16 1_555 1_555
N16 N17 1_555 1_555
N17 N18 1_555 1_555
N18 C6 1_555 1_555
C5 N10 1_555 1_555
C6 N12 1_555 1_555
H3 N13 1_555 1_555
H4 N13 1_555 1_555
O5 H5 1_555 1_555
H6 O5 1_555 1_555
N19 C7 1_555 1_555
N20 C7 1_555 1_555
N21 C7 1_555 1_555
H7 N19 1_555 1_555
H8 N19 1_555 1_555
H9 N20 1_555 1_555
H10 N20 1_555 1_555
H11 N21 1_555 1_555
H12 N21 1_555 1_555
N22 C8 1_555 1_555
N23 C8 1_555 1_555
N24 C8 1_555 1_555
H13 N22 1_555 1_555
H14 N22 1_555 1_555
H15 N23 1_555 1_555
H16 N23 1_555 1_555
H17 N24 1_555 1_555
H18 N24 1_555 1_555
N2 C2 1_555 1_555
N6 C3 1_555 1_555
N11 C5 1_555 1_555
N15 C6 1_555 1_555

#END
