
#######################################################################
#
#                 Cambridge Crystallographic Data Centre
#                                CCDC 
#
#######################################################################
#
# If this CIF has been generated from an entry in the Cambridge 
# Structural Database, then it will include bibliographic, chemical, 
# crystal, experimental, refinement or atomic coordinate data resulting 
# from the CCDC's data processing and validation procedures.
#
#######################################################################

data_FOXJIN
_chemical_formula_moiety         'C3 H3 N9 O2,H2 O1'
_chemical_name_systematic        
'3-nitro-1-(2H-tetrazol-5-yl)-1H-1,2,4-triazol-5-amine monohydrate'
_symmetry_cell_setting           monoclinic
_symmetry_space_group_name_H-M   'P 21/c'
_symmetry_Int_Tables_number      14
_space_group_name_Hall           '-P 2ybc'
loop_
_symmetry_equiv_pos_site_id
_symmetry_equiv_pos_as_xyz
1 x,y,z
2 -x,1/2+y,1/2-z
3 -x,-y,-z
4 x,1/2-y,1/2+z
_cell_length_a                   10.830(4)
_cell_length_b                   5.0641(18)
_cell_length_c                   15.865(6)
_cell_angle_alpha                90
_cell_angle_beta                 106.122(4)
_cell_angle_gamma                90
_cell_volume                     835.884
_exptl_crystal_colour            yellow
_exptl_crystal_description       Prism
_cell_formula_units_Z            4
loop_
_atom_site_label
_atom_site_type_symbol
_atom_site_fract_x
_atom_site_fract_y
_atom_site_fract_z
O1 O 0.44264(11) 0.3517(2) 0.28998(7)
O2 O 0.29507(11) 0.6529(2) 0.26381(7)
N1 N 0.26959(10) 0.4518(2) 0.50264(7)
N2 N 0.25678(10) 0.5696(2) 0.42227(7)
N3 N 0.41016(10) 0.2482(2) 0.44805(7)
N4 N 0.39890(13) 0.1108(3) 0.58860(8)
N5 N 0.36125(11) 0.4853(2) 0.31016(8)
N6 N 0.18900(11) 0.3844(2) 0.62649(7)
N7 N 0.10351(10) 0.5094(2) 0.65783(7)
N8 N 0.06075(10) 0.7096(2) 0.60553(7)
N9 N 0.11294(11) 0.7304(2) 0.53877(8)
C1 C 0.36223(12) 0.2585(3) 0.51728(8)
C2 C 0.34215(12) 0.4367(3) 0.39611(8)
C3 C 0.19121(12) 0.5237(3) 0.55526(8)
H1 H 0.4605(18) -0.017(4) 0.5908(12)
H2 H 0.3654(17) 0.129(4) 0.6291(12)
H3 H -0.0044(19) 0.832(4) 0.6212(13)
O3 O -0.11192(11) 0.9749(2) 0.65608(8)
H4 H -0.105(2) 0.984(4) 0.7098(16)
H5 H -0.146(2) 1.121(5) 0.6313(14)
loop_
_geom_bond_atom_site_label_1
_geom_bond_atom_site_label_2
_geom_bond_site_symmetry_1
_geom_bond_site_symmetry_2
O1 N5 1_555 1_555
O2 N5 1_555 1_555
N1 N2 1_555 1_555
N2 C2 1_555 1_555
N3 C1 1_555 1_555
N4 C1 1_555 1_555
N5 C2 1_555 1_555
N6 N7 1_555 1_555
N7 N8 1_555 1_555
N8 N9 1_555 1_555
N9 C3 1_555 1_555
C1 N1 1_555 1_555
C2 N3 1_555 1_555
C3 N1 1_555 1_555
H1 N4 1_555 1_555
H2 N4 1_555 1_555
H3 N8 1_555 1_555
O3 H4 1_555 1_555
H5 O3 1_555 1_555
N6 C3 1_555 1_555

#END
