
#######################################################################
#
#                 Cambridge Crystallographic Data Centre
#                                CCDC 
#
#######################################################################
#
# If this CIF has been generated from an entry in the Cambridge 
# Structural Database, then it will include bibliographic, chemical, 
# crystal, experimental, refinement or atomic coordinate data resulting 
# from the CCDC's data processing and validation procedures.
#
#######################################################################

data_FOXVOF
_chemical_formula_moiety         'C24 H17 Cl1 N4 O1'
_chemical_name_systematic        
6-(2-chloro-7-methoxyquinolin-3-yl)-5,6-dihydrobenzimidazo[1,2-c]quinazoline
_symmetry_cell_setting           monoclinic
_symmetry_space_group_name_H-M   'P 21/n'
_symmetry_Int_Tables_number      14
_space_group_name_Hall           '-P 2yn'
loop_
_symmetry_equiv_pos_site_id
_symmetry_equiv_pos_as_xyz
1 x,y,z
2 1/2-x,1/2+y,1/2-z
3 -x,-y,-z
4 1/2+x,1/2-y,1/2+z
_cell_length_a                   13.029(2)
_cell_length_b                   22.884(5)
_cell_length_c                   13.417(3)
_cell_angle_alpha                90
_cell_angle_beta                 92.340(6)
_cell_angle_gamma                90
_cell_volume                     3997.02
_exptl_crystal_colour            white
_exptl_crystal_description       Prism
_cell_formula_units_Z            8
loop_
_atom_site_label
_atom_site_type_symbol
_atom_site_fract_x
_atom_site_fract_y
_atom_site_fract_z
C1 C 0.4763(4) 0.0404(2) 0.3507(3)
C2 C 0.3789(4) 0.0632(2) 0.3332(3)
H1 H 0.3696 0.1025 0.3176
C3 C 0.2970(4) 0.0267(3) 0.3396(4)
H2 H 0.2311 0.0413 0.3270
C4 C 0.3096(4) -0.0322(3) 0.3646(4)
H3 H 0.2524 -0.0561 0.3704
C5 C 0.4077(4) -0.0552(2) 0.3807(4)
H4 H 0.4179 -0.0944 0.3968
C6 C 0.4883(4) -0.0178(2) 0.3720(3)
C7 C 0.6436(3) -0.08206(17) 0.4000(3)
H5 H 0.6133 -0.1010 0.4574
C8 C 0.6324(3) -0.12190(17) 0.3098(4)
C9 C 0.6152(3) -0.18237(18) 0.3201(3)
C10 C 0.6291(3) -0.20089(18) 0.1549(4)
C11 C 0.6303(3) -0.24186(19) 0.0761(4)
H6 H 0.6216 -0.2814 0.0890
C12 C 0.6442(3) -0.2233(2) -0.0181(4)
C13 C 0.6421(4) -0.3199(2) -0.0857(4)
H7 H 0.7005 -0.3326 -0.0456
H8 H 0.6412 -0.3395 -0.1489
H9 H 0.5803 -0.3289 -0.0521
C14 C 0.6577(3) -0.1633(2) -0.0393(4)
H10 H 0.6666 -0.1513 -0.1046
C15 C 0.6576(3) -0.1232(2) 0.0353(4)
H11 H 0.6670 -0.0839 0.0210
C16 C 0.6433(3) -0.14100(18) 0.1340(4)
C17 C 0.6465(3) -0.10265(18) 0.2160(4)
H12 H 0.6585 -0.0631 0.2055
C18 C 0.8055(4) -0.0199(2) 0.3975(3)
C19 C 0.9112(4) -0.0180(3) 0.3996(4)
H13 H 0.9492 -0.0517 0.4127
C20 C 0.9595(4) 0.0331(3) 0.3827(4)
H14 H 1.0309 0.0340 0.3850
C21 C 0.9066(5) 0.0834(3) 0.3623(4)
H15 H 0.9422 0.1180 0.3522
C22 C 0.8024(4) 0.0832(2) 0.3567(3)
H16 H 0.7663 0.1174 0.3418
C23 C 0.7499(3) 0.0306(2) 0.3737(3)
C24 C 0.6407(4) 0.0266(2) 0.3672(3)
N1 N 0.5745(3) 0.06842(15) 0.3485(3)
N2 N 0.5960(3) -0.02616(14) 0.3830(3)
N3 N 0.7533(3) -0.07017(17) 0.4234(3)
H17 H 0.7877 -0.0966 0.4558
N4 N 0.6140(2) -0.22118(14) 0.2489(3)
O1 O 0.6483(2) -0.25820(15) -0.1011(3)
Cl1 Cl 0.59199(9) -0.21008(5) 0.43836(9)
C25 C 0.6363(3) 0.2261(2) -0.0391(4)
C26 C 0.6408(3) 0.1870(2) -0.1164(4)
H18 H 0.6330 0.1471 -0.1065
C27 C 0.6575(4) 0.2100(3) -0.2100(4)
H19 H 0.6608 0.1852 -0.2645
C28 C 0.6696(4) 0.2705(3) -0.2233(5)
H20 H 0.6816 0.2853 -0.2863
C29 C 0.6637(4) 0.3082(2) -0.1433(4)
H21 H 0.6712 0.3482 -0.1522
C30 C 0.6467(3) 0.2857(2) -0.0501(4)
C31 C 0.6224(3) 0.27209(19) 0.1068(4)
C32 C 0.6081(3) 0.2763(2) 0.2116(4)
C33 C 0.6153(3) 0.3292(2) 0.2644(4)
H22 H 0.6280 0.3640 0.2313
C34 C 0.6036(4) 0.3289(2) 0.3646(4)
H23 H 0.6066 0.3639 0.4000
C35 C 1.1188(4) -0.0662(2) 0.1469(4)
H24 H 1.0809 -0.0754 0.2048
H25 H 1.1852 -0.0844 0.1525
H26 H 1.0822 -0.0804 0.0883
C36 C 0.5871(3) 0.2771(2) 0.4145(4)
H27 H 0.5813 0.2775 0.4833
C37 C 0.5795(3) 0.2259(2) 0.3647(4)
H28 H 0.5677 0.1915 0.3993
C38 C 0.8824(3) 0.10869(18) 0.1201(3)
C39 C 0.9854(4) 0.1280(2) 0.1293(3)
H29 H 0.9994 0.1678 0.1324
C40 C 0.5889(3) 0.22452(19) 0.2635(4)
C41 C 0.6051(3) 0.16174(17) 0.1086(4)
H30 H 0.5491 0.1416 0.0719
C42 C 1.0641(4) 0.0893(2) 0.1336(4)
H31 H 1.1316 0.1027 0.1382
C43 C 0.7005(3) 0.12403(17) 0.1081(3)
C44 C 0.6914(3) 0.06295(19) 0.1037(3)
C45 C 0.7969(3) 0.14582(17) 0.1172(3)
H32 H 0.8065 0.1860 0.1216
C46 C 0.8645(4) 0.04772(17) 0.1169(3)
C47 C 0.9463(4) 0.0083(2) 0.1235(3)
H33 H 0.9342 -0.0318 0.1227
C48 C 1.0441(4) 0.0292(2) 0.1312(3)
N5 N 0.5740(3) 0.17285(17) 0.2108(3)
H34 H 0.5438 0.1448 0.2407
N6 N 0.6373(2) 0.31480(15) 0.0433(3)
N7 N 0.6208(2) 0.21819(14) 0.0632(3)
N8 N 0.7663(3) 0.02541(14) 0.1085(3)
O2 O 1.1310(3) -0.00413(17) 0.1397(3)
Cl2 Cl 0.56874(9) 0.03234(5) 0.09222(10)
loop_
_geom_bond_atom_site_label_1
_geom_bond_atom_site_label_2
_geom_bond_site_symmetry_1
_geom_bond_site_symmetry_2
C1 C2 1_555 1_555
C2 H1 1_555 1_555
C3 C2 1_555 1_555
H2 C3 1_555 1_555
C4 C3 1_555 1_555
H3 C4 1_555 1_555
C5 C4 1_555 1_555
H4 C5 1_555 1_555
C6 C1 1_555 1_555
C7 H5 1_555 1_555
C8 C7 1_555 1_555
C9 C8 1_555 1_555
C10 C11 1_555 1_555
C11 H6 1_555 1_555
C12 C11 1_555 1_555
C13 H7 1_555 1_555
H8 C13 1_555 1_555
H9 C13 1_555 1_555
C14 C12 1_555 1_555
H10 C14 1_555 1_555
C15 C14 1_555 1_555
H11 C15 1_555 1_555
C16 C10 1_555 1_555
C17 C8 1_555 1_555
H12 C17 1_555 1_555
C18 C19 1_555 1_555
C19 H13 1_555 1_555
C20 C19 1_555 1_555
H14 C20 1_555 1_555
C21 C20 1_555 1_555
H15 C21 1_555 1_555
C22 C21 1_555 1_555
H16 C22 1_555 1_555
C23 C18 1_555 1_555
C24 C23 1_555 1_555
N1 C1 1_555 1_555
N2 C6 1_555 1_555
N3 C7 1_555 1_555
H17 N3 1_555 1_555
N4 C9 1_555 1_555
O1 C12 1_555 1_555
Cl1 C9 1_555 1_555
C25 C26 1_555 1_555
C26 H18 1_555 1_555
C27 C26 1_555 1_555
H19 C27 1_555 1_555
C28 C27 1_555 1_555
H20 C28 1_555 1_555
C29 C28 1_555 1_555
H21 C29 1_555 1_555
C30 C25 1_555 1_555
C31 C32 1_555 1_555
C32 C33 1_555 1_555
C33 H22 1_555 1_555
C34 C33 1_555 1_555
H23 C34 1_555 1_555
C35 H24 1_555 1_555
H25 C35 1_555 1_555
H26 C35 1_555 1_555
C36 C34 1_555 1_555
H27 C36 1_555 1_555
C37 C36 1_555 1_555
H28 C37 1_555 1_555
C38 C39 1_555 1_555
C39 H29 1_555 1_555
C40 C32 1_555 1_555
C41 H30 1_555 1_555
C42 C39 1_555 1_555
H31 C42 1_555 1_555
C43 C41 1_555 1_555
C44 C43 1_555 1_555
C45 C38 1_555 1_555
H32 C45 1_555 1_555
C46 C38 1_555 1_555
C47 C46 1_555 1_555
H33 C47 1_555 1_555
C48 C42 1_555 1_555
N5 C40 1_555 1_555
H34 N5 1_555 1_555
N6 C30 1_555 1_555
N7 C25 1_555 1_555
N8 C44 1_555 1_555
O2 C35 1_555 1_555
Cl2 C44 1_555 1_555
C5 C6 1_555 1_555
C7 N2 1_555 1_555
C10 N4 1_555 1_555
C13 O1 1_555 1_555
C15 C16 1_555 1_555
C16 C17 1_555 1_555
C18 N3 1_555 1_555
C22 C23 1_555 1_555
C24 N1 1_555 1_555
C24 N2 1_555 1_555
C29 C30 1_555 1_555
C31 N6 1_555 1_555
C31 N7 1_555 1_555
C37 C40 1_555 1_555
C41 N5 1_555 1_555
C41 N7 1_555 1_555
C43 C45 1_555 1_555
C46 N8 1_555 1_555
C47 C48 1_555 1_555
C48 O2 1_555 1_555

#END
