
#######################################################################
#
#                 Cambridge Crystallographic Data Centre
#                                CCDC 
#
#######################################################################
#
# If this CIF has been generated from an entry in the Cambridge 
# Structural Database, then it will include bibliographic, chemical, 
# crystal, experimental, refinement or atomic coordinate data resulting 
# from the CCDC's data processing and validation procedures.
#
#######################################################################

data_FOXWAR01
_chemical_formula_moiety         'C10 H16 N4 O2'
_chemical_name_systematic        
2,4-Dimethoxy-6-(piperidin-1-yl)-1,3,5-triazine
_symmetry_cell_setting           triclinic
_symmetry_space_group_name_H-M   'P -1'
_symmetry_Int_Tables_number      2
_space_group_name_Hall           '-P 1'
loop_
_symmetry_equiv_pos_site_id
_symmetry_equiv_pos_as_xyz
1 x,y,z
2 -x,-y,-z
_cell_length_a                   7.3461(6)
_cell_length_b                   8.7159(8)
_cell_length_c                   8.8803(9)
_cell_angle_alpha                91.820(7)
_cell_angle_beta                 102.865(7)
_cell_angle_gamma                100.602(7)
_cell_volume                     543.28
_exptl_crystal_colour            colorless
_exptl_crystal_description       Block
_cell_formula_units_Z            2
loop_
_atom_site_label
_atom_site_type_symbol
_atom_site_fract_x
_atom_site_fract_y
_atom_site_fract_z
C1 C 0.8314(3) 0.6777(3) -0.0012(3)
C2 C 0.7539(3) 0.4293(3) 0.0581(3)
C3 C 0.6292(3) 0.5046(3) -0.1760(3)
C4 C 0.9148(4) 0.3444(3) 0.3062(3)
H1 H 0.9700 0.4576 0.3269
H2 H 1.0186 0.2889 0.2981
C5 C 0.8290(4) 0.2863(3) 0.4398(3)
H3 H 0.7345 0.3493 0.4551
H4 H 0.9305 0.2995 0.5363
C6 C 0.7325(4) 0.1138(3) 0.4065(3)
H5 H 0.8286 0.0493 0.3996
H6 H 0.6716 0.0786 0.4916
C7 C 0.5824(4) 0.0934(3) 0.2537(3)
H7 H 0.5249 -0.0191 0.2291
H8 H 0.4801 0.1495 0.2651
C8 C 0.6666(4) 0.1557(3) 0.1203(3)
H9 H 0.7544 0.0892 0.0975
H10 H 0.5632 0.1510 0.0263
C9 C 1.0549(4) 0.8666(3) 0.1798(3)
H11 H 0.9845 0.8523 0.2616
H12 H 1.1202 0.9761 0.1857
H13 H 1.1491 0.7987 0.1935
C10 C 0.4157(4) 0.3214(3) -0.3691(3)
H14 H 0.5040 0.2489 -0.3624
H15 H 0.3423 0.3178 -0.4762
H16 H 0.3286 0.2909 -0.3013
O1 O 0.9248(3) 0.8266(2) 0.0313(2)
O2 O 0.5211(3) 0.4772(2) -0.3213(2)
N1 N 0.7209(3) 0.6531(2) -0.1446(2)
N2 N 0.6351(3) 0.3877(2) -0.0839(2)
N3 N 0.8576(3) 0.5755(2) 0.1049(2)
N4 N 0.7705(3) 0.3181(2) 0.1595(2)
loop_
_geom_bond_atom_site_label_1
_geom_bond_atom_site_label_2
_geom_bond_site_symmetry_1
_geom_bond_site_symmetry_2
C1 O1 1_555 1_555
C2 N2 1_555 1_555
C3 O2 1_555 1_555
C4 H1 1_555 1_555
H2 C4 1_555 1_555
C5 C4 1_555 1_555
H3 C5 1_555 1_555
H4 C5 1_555 1_555
C6 C5 1_555 1_555
H5 C6 1_555 1_555
H6 C6 1_555 1_555
C7 C6 1_555 1_555
H7 C7 1_555 1_555
H8 C7 1_555 1_555
C8 C7 1_555 1_555
H9 C8 1_555 1_555
H10 C8 1_555 1_555
C9 H11 1_555 1_555
H12 C9 1_555 1_555
H13 C9 1_555 1_555
C10 H14 1_555 1_555
H15 C10 1_555 1_555
H16 C10 1_555 1_555
O1 C9 1_555 1_555
O2 C10 1_555 1_555
N1 C1 1_555 1_555
N2 C3 1_555 1_555
N3 C1 1_555 1_555
N4 C2 1_555 1_555
C2 N3 1_555 1_555
C3 N1 1_555 1_555
C4 N4 1_555 1_555
C8 N4 1_555 1_555

#END
