
#######################################################################
#
#                 Cambridge Crystallographic Data Centre
#                                CCDC 
#
#######################################################################
#
# If this CIF has been generated from an entry in the Cambridge 
# Structural Database, then it will include bibliographic, chemical, 
# crystal, experimental, refinement or atomic coordinate data resulting 
# from the CCDC's data processing and validation procedures.
#
#######################################################################

data_FOXXEX
_chemical_name_common            
'6-methyl-8-(4-methylphenylsulfonamido)quinoline N-oxide'
_chemical_formula_moiety         'C17 H16 N2 O3 S1'
_chemical_name_systematic        
4-methyl-N-(6-methyl-1-oxidoquinolin-8-yl)benzenesulfonamide
_symmetry_cell_setting           monoclinic
_symmetry_space_group_name_H-M   'C 2/c'
_symmetry_Int_Tables_number      15
_space_group_name_Hall           '-C 2yn'
loop_
_symmetry_equiv_pos_site_id
_symmetry_equiv_pos_as_xyz
1 x,y,z
2 -x,y,1/2-z
3 1/2+x,1/2+y,z
4 1/2-x,1/2+y,1/2-z
5 -x,-y,-z
6 x,-y,1/2+z
7 1/2-x,1/2-y,-z
8 1/2+x,1/2-y,1/2+z
_cell_length_a                   26.8782(11)
_cell_length_b                   8.2244(3)
_cell_length_c                   19.4674(8)
_cell_angle_alpha                90
_cell_angle_beta                 132.6436(12)
_cell_angle_gamma                90
_cell_volume                     3165.51
_exptl_crystal_colour            yellow
_exptl_crystal_description       block
_cell_formula_units_Z            8
loop_
_atom_site_label
_atom_site_type_symbol
_atom_site_fract_x
_atom_site_fract_y
_atom_site_fract_z
S1 S 0.204703(14) 0.87105(4) 0.12314(2)
C1 C 0.19333(6) 0.69173(15) 0.06472(8)
C2 C 0.17335(6) 0.41013(16) -0.03043(10)
C3 C 0.19601(7) 0.40164(16) 0.05838(10)
H1 H 0.2050 0.2986 0.0869
C4 C 0.20564(6) 0.54227(16) 0.10601(9)
H2 H 0.2205 0.5354 0.1662
C5 C 0.16100(8) 0.56249(18) -0.07062(10)
H3 H 0.1455 0.5696 -0.1312
C6 C 0.16149(8) 0.25809(18) -0.08325(11)
H4 H 0.1131 0.2322 -0.1287
H5 H 0.1867 0.1675 -0.0393
H6 H 0.1769 0.2758 -0.1160
C7 C 0.17090(8) 0.70386(17) -0.02406(10)
H7 H 0.1626 0.8071 -0.0520
O1 O 0.24304(5) 0.98553(12) 0.11920(7)
O2 O 0.22845(5) 0.82598(14) 0.21224(6)
N1 N 0.12938(5) 0.95283(13) 0.05906(7)
O3 O 0.05316(5) 1.01677(13) -0.11579(6)
N2 N 0.00261(5) 0.93850(14) -0.13303(7)
C8 C 0.01108(6) 0.86243(14) -0.06144(8)
C9 C 0.07378(6) 0.86371(14) 0.03386(8)
C10 C 0.07770(7) 0.78397(16) 0.09982(9)
H8 H 0.1193 0.7852 0.1632
C11 C -0.05709(7) 0.93601(19) -0.22142(9)
H9 H -0.0610 0.9862 -0.2689
C12 C 0.02195(7) 0.70076(16) 0.07626(10)
C13 C -0.11362(7) 0.8613(2) -0.24528(10)
H10 H -0.1557 0.8634 -0.3082
C14 C -0.04553(6) 0.78209(16) -0.08509(9)
C15 C -0.03842(7) 0.70170(17) -0.01474(10)
H11 H -0.0763 0.6471 -0.0309
C16 C -0.10865(7) 0.7855(2) -0.17875(10)
H12 H -0.1472 0.7352 -0.1949
C17 C 0.02864(10) 0.6185(2) 0.15130(13)
H13 H 0.0234 0.6992 0.1830
H14 H 0.0733 0.5677 0.1967
H15 H -0.0064 0.5350 0.1231
H16 H 0.1174(11) 0.994(3) 0.0076(15)
loop_
_geom_bond_atom_site_label_1
_geom_bond_atom_site_label_2
_geom_bond_site_symmetry_1
_geom_bond_site_symmetry_2
S1 C1 1_555 1_555
C1 C4 1_555 1_555
C2 C3 1_555 1_555
C3 H1 1_555 1_555
C4 C3 1_555 1_555
H2 C4 1_555 1_555
C5 C2 1_555 1_555
H3 C5 1_555 1_555
C6 C2 1_555 1_555
H4 C6 1_555 1_555
H5 C6 1_555 1_555
H6 C6 1_555 1_555
C7 C1 1_555 1_555
H7 C7 1_555 1_555
O1 S1 1_555 1_555
O2 S1 1_555 1_555
N1 S1 1_555 1_555
O3 N2 1_555 1_555
N2 C8 1_555 1_555
C8 C9 1_555 1_555
C9 N1 1_555 1_555
C10 C9 1_555 1_555
H8 C10 1_555 1_555
C11 N2 1_555 1_555
H9 C11 1_555 1_555
C12 C10 1_555 1_555
C13 C11 1_555 1_555
H10 C13 1_555 1_555
C14 C8 1_555 1_555
C15 C12 1_555 1_555
H11 C15 1_555 1_555
C16 C13 1_555 1_555
H12 C16 1_555 1_555
C17 C12 1_555 1_555
H13 C17 1_555 1_555
H14 C17 1_555 1_555
H15 C17 1_555 1_555
H16 N1 1_555 1_555
C5 C7 1_555 1_555
C14 C15 1_555 1_555
C14 C16 1_555 1_555

#END
