
#######################################################################
#
#                 Cambridge Crystallographic Data Centre
#                                CCDC 
#
#######################################################################
#
# If this CIF has been generated from an entry in the Cambridge 
# Structural Database, then it will include bibliographic, chemical, 
# crystal, experimental, refinement or atomic coordinate data resulting 
# from the CCDC's data processing and validation procedures.
#
#######################################################################

data_FOXYIC
_chemical_formula_moiety         'C4 H8 O1,C18 H26 N4 S1'
_chemical_name_systematic        
'1-(1,3-di-t-butyl-1,3-dihydro-2H-imidazol-2-ylidene)-3-phenylthiourea tetrahydrofuran solvate'
_symmetry_cell_setting           rhombohedral
_symmetry_space_group_name_H-M   'R -3'
_symmetry_Int_Tables_number      148
_space_group_name_Hall           '-R 3'
loop_
_symmetry_equiv_pos_site_id
_symmetry_equiv_pos_as_xyz
1 x,y,z
2 -y,x-y,z
3 -x+y,-x,z
4 2/3+x,1/3+y,1/3+z
5 2/3-y,1/3+x-y,1/3+z
6 2/3-x+y,1/3-x,1/3+z
7 1/3+x,2/3+y,2/3+z
8 1/3-y,2/3+x-y,2/3+z
9 1/3-x+y,2/3-x,2/3+z
10 -x,-y,-z
11 y,-x+y,-z
12 x-y,x,-z
13 1/3-x,2/3-y,2/3-z
14 1/3+y,2/3-x+y,2/3-z
15 1/3+x-y,2/3+x,2/3-z
16 2/3-x,1/3-y,1/3-z
17 2/3+y,1/3-x+y,1/3-z
18 2/3+x-y,1/3+x,1/3-z
_cell_length_a                   30.9905(15)
_cell_length_b                   30.9905(15)
_cell_length_c                   12.3331(6)
_cell_angle_alpha                90
_cell_angle_beta                 90
_cell_angle_gamma                120
_cell_volume                     10257.9
_exptl_crystal_colour            colorless
_exptl_crystal_description       chunk
_cell_formula_units_Z            18
loop_
_atom_site_label
_atom_site_type_symbol
_atom_site_fract_x
_atom_site_fract_y
_atom_site_fract_z
S1 S 0.42976(2) 0.93842(2) 0.54794(4)
N1 N 0.40163(7) 0.97101(7) 0.72377(15)
N2 N 0.31495(7) 0.91256(7) 0.67296(14)
N3 N 0.34898(7) 0.89153(8) 0.80354(15)
N4 N 0.47944(7) 1.02331(7) 0.65281(15)
H1 H 0.4998 1.0271 0.6016
C1 C 0.35840(8) 0.92696(9) 0.72766(17)
C2 C 0.27894(9) 0.86740(9) 0.7151(2)
H2 H 0.2461 0.8491 0.6916
C3 C 0.29923(10) 0.85450(10) 0.7954(2)
H3 H 0.2830 0.8260 0.8379
C4 C 0.30352(9) 0.93605(9) 0.57897(17)
C5 C 0.34258(10) 0.99081(9) 0.56538(19)
H4 H 0.3480 1.0076 0.6337
H5 H 0.3312 1.0058 0.5131
H6 H 0.3732 0.9935 0.5408
C6 C 0.30009(9) 0.90647(9) 0.47694(18)
H7 H 0.3313 0.9076 0.4655
H8 H 0.2928 0.9208 0.4156
H9 H 0.2741 0.8725 0.4857
C7 C 0.25274(9) 0.93181(10) 0.6014(2)
H10 H 0.2269 0.8976 0.5952
H11 H 0.2470 0.9515 0.5496
H12 H 0.2526 0.9436 0.6732
C8 C 0.38435(9) 0.89310(10) 0.88985(19)
C9 C 0.36021(12) 0.84235(12) 0.9454(2)
H13 H 0.3297 0.8359 0.9793
H14 H 0.3825 0.8422 0.9994
H15 H 0.3533 0.8170 0.8925
C10 C 0.39269(12) 0.93328(12) 0.9713(2)
H16 H 0.4082 0.9651 0.9357
H17 H 0.4139 0.9337 1.0286
H18 H 0.3613 0.9264 1.0010
C11 C 0.43356(11) 0.90332(14) 0.8385(2)
H19 H 0.4268 0.8820 0.7768
H20 H 0.4526 0.8968 0.8907
H21 H 0.4521 0.9375 0.8160
C12 C 0.43513(9) 0.97907(9) 0.64951(17)
C13 C 0.49721(9) 1.06356(9) 0.72553(18)
C14 C 0.46864(10) 1.06951(10) 0.80548(19)
H22 H 0.4353 1.0454 0.8148
C15 C 0.49035(11) 1.11183(10) 0.8712(2)
H23 H 0.4712 1.1156 0.9244
C16 C 0.53947(10) 1.14815(10) 0.8592(2)
H24 H 0.5533 1.1763 0.9031
C17 C 0.56834(10) 1.14217(10) 0.7801(2)
H25 H 0.6017 1.1663 0.7714
C18 C 0.54732(9) 1.10034(9) 0.7149(2)
H26 H 0.5669 1.0965 0.6629
C19 C 0.5345(3) 1.2260(6) 1.2517(7)
H27 H 0.5493 1.2147 1.3058
H28 H 0.5026 1.2208 1.2771
C20 C 0.5728(5) 1.2848(4) 1.2122(8)
H29 H 0.5886 1.3065 1.2738
H30 H 0.5553 1.2976 1.1698
O1 O 0.616(2) 1.2784(14) 1.134(3)
C21 C 0.5311(3) 1.2032(3) 1.1415(7)
H31 H 0.5284 1.1709 1.1505
H32 H 0.5012 1.1982 1.1050
C22 C 0.5714(3) 1.2325(4) 1.0788(8)
H33 H 0.5603 1.2444 1.0181
H34 H 0.5839 1.2118 1.0493
O2? O 0.5779(6) 1.2751(6) 1.1112(12)
loop_
_geom_bond_atom_site_label_1
_geom_bond_atom_site_label_2
_geom_bond_site_symmetry_1
_geom_bond_site_symmetry_2
S1 C12 1_555 1_555
N1 C1 1_555 1_555
N2 C1 1_555 1_555
N3 C1 1_555 1_555
N4 H1 1_555 1_555
C2 N2 1_555 1_555
H2 C2 1_555 1_555
C3 N3 1_555 1_555
H3 C3 1_555 1_555
C4 N2 1_555 1_555
C5 C4 1_555 1_555
H4 C5 1_555 1_555
H5 C5 1_555 1_555
H6 C5 1_555 1_555
C6 C4 1_555 1_555
H7 C6 1_555 1_555
H8 C6 1_555 1_555
H9 C6 1_555 1_555
C7 C4 1_555 1_555
H10 C7 1_555 1_555
H11 C7 1_555 1_555
H12 C7 1_555 1_555
C8 N3 1_555 1_555
C9 C8 1_555 1_555
H13 C9 1_555 1_555
H14 C9 1_555 1_555
H15 C9 1_555 1_555
C10 C8 1_555 1_555
H16 C10 1_555 1_555
H17 C10 1_555 1_555
H18 C10 1_555 1_555
C11 C8 1_555 1_555
H19 C11 1_555 1_555
H20 C11 1_555 1_555
H21 C11 1_555 1_555
C12 N1 1_555 1_555
C13 N4 1_555 1_555
C14 C13 1_555 1_555
H22 C14 1_555 1_555
C15 C14 1_555 1_555
H23 C15 1_555 1_555
C16 C15 1_555 1_555
H24 C16 1_555 1_555
C17 C16 1_555 1_555
H25 C17 1_555 1_555
C18 C13 1_555 1_555
H26 C18 1_555 1_555
C19 H27 1_555 1_555
H28 C19 1_555 1_555
C20 C19 1_555 1_555
H29 C20 1_555 1_555
H30 C20 1_555 1_555
O1 C20 1_555 1_555
C21 C19 1_555 1_555
H31 C21 1_555 1_555
H32 C21 1_555 1_555
C22 O1 1_555 1_555
H33 C22 1_555 1_555
H34 C22 1_555 1_555
N4 C12 1_555 1_555
C2 C3 1_555 1_555
C17 C18 1_555 1_555
C21 C22 1_555 1_555

#END
