
#######################################################################
#
#                 Cambridge Crystallographic Data Centre
#                                CCDC 
#
#######################################################################
#
# If this CIF has been generated from an entry in the Cambridge 
# Structural Database, then it will include bibliographic, chemical, 
# crystal, experimental, refinement or atomic coordinate data resulting 
# from the CCDC's data processing and validation procedures.
#
#######################################################################

data_FOXYAU
_chemical_formula_moiety         'C25 H31 N3 O1'
_chemical_name_systematic        tris(2-(dimethylamino)phenyl)methanol
_symmetry_cell_setting           monoclinic
_symmetry_space_group_name_H-M   'P 21/c'
_symmetry_Int_Tables_number      14
_space_group_name_Hall           '-P 2ybc'
loop_
_symmetry_equiv_pos_site_id
_symmetry_equiv_pos_as_xyz
1 x,y,z
2 -x,1/2+y,1/2-z
3 -x,-y,-z
4 x,1/2-y,1/2+z
_cell_length_a                   8.8799(9)
_cell_length_b                   24.205(2)
_cell_length_c                   11.0329(11)
_cell_angle_alpha                90
_cell_angle_beta                 106.5150(10)
_cell_angle_gamma                90
_cell_volume                     2273.56
_exptl_crystal_colour            colorless
_exptl_crystal_description       block
_cell_formula_units_Z            4
loop_
_atom_site_label
_atom_site_type_symbol
_atom_site_fract_x
_atom_site_fract_y
_atom_site_fract_z
C1 C -0.0465(2) 0.60676(7) 0.08192(15)
C2 C -0.17970(19) 0.62457(7) -0.03710(16)
C3 C -0.2274(2) 0.67923(7) -0.06621(16)
C4 C -0.3522(2) 0.69039(9) -0.17240(18)
H1 H -0.3841 0.7268 -0.1904
C5 C -0.4295(2) 0.64932(10) -0.2511(2)
H2 H -0.5126 0.6577 -0.3217
C6 C -0.3826(2) 0.59570(10) -0.22442(19)
H3 H -0.4334 0.5674 -0.2774
C7 C -0.2596(2) 0.58353(8) -0.11864(18)
H4 H -0.2296 0.5469 -0.1016
C8 C -0.1065(2) 0.60598(7) 0.20026(16)
C9 C -0.0077(2) 0.59222(7) 0.32053(17)
C10 C -0.0727(3) 0.58745(9) 0.42114(19)
H5 H -0.0073 0.5782 0.5005
C11 C -0.2289(3) 0.59583(9) 0.4076(2)
H6 H -0.2683 0.5926 0.4769
C12 C -0.3269(3) 0.60912(9) 0.2907(2)
H7 H -0.4336 0.6147 0.2797
C13 C -0.2648(2) 0.61408(8) 0.18928(19)
H8 H -0.3319 0.6232 0.1105
C14 C 0.10033(19) 0.64258(7) 0.09365(16)
C15 C 0.1944(2) 0.63470(8) 0.01351(18)
C16 C 0.3203(2) 0.67014(9) 0.0197(2)
H9 H 0.3820 0.6648 -0.0346
C17 C 0.3539(3) 0.71263(10) 0.1049(2)
H10 H 0.4374 0.7363 0.1077
C18 C 0.2638(3) 0.72028(9) 0.1865(2)
H11 H 0.2876 0.7486 0.2458
C19 C 0.1392(2) 0.68600(8) 0.18014(17)
H12 H 0.0785 0.6918 0.2352
C20 C -0.0628(3) 0.75939(8) -0.0533(2)
H13 H 0.0038 0.7370 -0.0882
H14 H 0.0003 0.7852 0.0057
H15 H -0.1361 0.7791 -0.1200
C21 C -0.2485(3) 0.75659(9) 0.0685(2)
H16 H -0.3260 0.7757 0.0034
H17 H -0.1857 0.7830 0.1261
H18 H -0.2998 0.7325 0.1135
C22 C 0.2588(3) 0.61208(11) 0.4504(2)
H19 H 0.2237 0.6495 0.4525
H20 H 0.3649 0.6121 0.4452
H21 H 0.2544 0.5932 0.5258
C23 C 0.2026(3) 0.52634(10) 0.3372(2)
H22 H 0.1962 0.5083 0.4130
H23 H 0.3085 0.5243 0.3317
H24 H 0.1333 0.5085 0.2650
C24 C 0.0975(3) 0.60826(12) -0.2072(2)
H25 H 0.0060 0.6305 -0.2136
H26 H 0.0693 0.5769 -0.2622
H27 H 0.1750 0.6298 -0.2314
C25 C 0.2987(3) 0.55305(10) -0.0620(3)
H28 H 0.3779 0.5722 -0.0894
H29 H 0.2673 0.5205 -0.1124
H30 H 0.3403 0.5428 0.0252
N1 N -0.14844(17) 0.72414(6) 0.01171(14)
N2 N 0.15730(19) 0.58387(7) 0.33992(15)
N3 N 0.1622(2) 0.58928(7) -0.07630(16)
O1 O -0.00979(15) 0.54992(4) 0.06870(12)
H31 H 0.0386 0.5471 0.0158
loop_
_geom_bond_atom_site_label_1
_geom_bond_atom_site_label_2
_geom_bond_site_symmetry_1
_geom_bond_site_symmetry_2
C1 C2 1_555 1_555
C2 C3 1_555 1_555
C3 C4 1_555 1_555
C4 H1 1_555 1_555
C5 C4 1_555 1_555
H2 C5 1_555 1_555
C6 C5 1_555 1_555
H3 C6 1_555 1_555
C7 C2 1_555 1_555
H4 C7 1_555 1_555
C8 C1 1_555 1_555
C9 C8 1_555 1_555
C10 C9 1_555 1_555
H5 C10 1_555 1_555
C11 C10 1_555 1_555
H6 C11 1_555 1_555
C12 C11 1_555 1_555
H7 C12 1_555 1_555
C13 C8 1_555 1_555
H8 C13 1_555 1_555
C14 C1 1_555 1_555
C15 C14 1_555 1_555
C16 C15 1_555 1_555
H9 C16 1_555 1_555
C17 C16 1_555 1_555
H10 C17 1_555 1_555
C18 C17 1_555 1_555
H11 C18 1_555 1_555
C19 C14 1_555 1_555
H12 C19 1_555 1_555
C20 H13 1_555 1_555
H14 C20 1_555 1_555
H15 C20 1_555 1_555
C21 H16 1_555 1_555
H17 C21 1_555 1_555
H18 C21 1_555 1_555
C22 H19 1_555 1_555
H20 C22 1_555 1_555
H21 C22 1_555 1_555
C23 H22 1_555 1_555
H23 C23 1_555 1_555
H24 C23 1_555 1_555
C24 H25 1_555 1_555
H26 C24 1_555 1_555
H27 C24 1_555 1_555
C25 H28 1_555 1_555
H29 C25 1_555 1_555
H30 C25 1_555 1_555
N1 C3 1_555 1_555
N2 C9 1_555 1_555
N3 C15 1_555 1_555
O1 C1 1_555 1_555
H31 O1 1_555 1_555
C6 C7 1_555 1_555
C12 C13 1_555 1_555
C18 C19 1_555 1_555
C20 N1 1_555 1_555
C21 N1 1_555 1_555
C22 N2 1_555 1_555
C23 N2 1_555 1_555
C24 N3 1_555 1_555
C25 N3 1_555 1_555

#END
