
#######################################################################
#
#                 Cambridge Crystallographic Data Centre
#                                CCDC 
#
#######################################################################
#
# If this CIF has been generated from an entry in the Cambridge 
# Structural Database, then it will include bibliographic, chemical, 
# crystal, experimental, refinement or atomic coordinate data resulting 
# from the CCDC's data processing and validation procedures.
#
#######################################################################

data_FOYBEC
_chemical_formula_moiety         'C3 H7 N8 1+,Br1 1-'
_chemical_name_systematic        
'6,7-diamino-2,7-dihydro-3H-[1,2,4]triazolo[4,3-b][1,2,4]triazol-3-iminium bromide'
_symmetry_cell_setting           triclinic
_symmetry_space_group_name_H-M   'P -1'
_symmetry_Int_Tables_number      2
_space_group_name_Hall           '-P 1'
loop_
_symmetry_equiv_pos_site_id
_symmetry_equiv_pos_as_xyz
1 x,y,z
2 -x,-y,-z
_cell_length_a                   6.330(4)
_cell_length_b                   6.711(4)
_cell_length_c                   9.034(6)
_cell_angle_alpha                95.533(8)
_cell_angle_beta                 90.022(7)
_cell_angle_gamma                90.076(8)
_cell_volume                     381.982
_exptl_crystal_colour            colorless
_exptl_crystal_description       plate
_cell_formula_units_Z            2
loop_
_atom_site_label
_atom_site_type_symbol
_atom_site_fract_x
_atom_site_fract_y
_atom_site_fract_z
Br1 Br 0.24999(3) 0.12036(3) 1.15344(2)
N1 N 0.2500(2) 0.5928(2) 0.52601(16)
N2 N 0.2499(3) 0.3960(2) 0.56574(16)
C1 C 0.2501(3) 0.4288(2) 0.71325(19)
N3 N 0.2499(2) 0.6302(2) 0.76537(15)
C2 C 0.2500(2) 0.7330(2) 0.64297(18)
N4 N 0.2500(2) 0.9160(2) 0.60677(17)
N5 N 0.2499(2) 0.8826(2) 0.45125(16)
H1 H 0.2498 0.9798 0.3924
C3 C 0.2501(3) 0.6884(3) 0.40093(19)
N6 N 0.2499(3) 0.2866(2) 0.80568(18)
H2 H 0.2496 0.1598 0.7702
H3 H 0.2500 0.3192 0.9024
N7 N 0.2498(3) 0.7053(2) 0.91528(16)
N8 N 0.2500(3) 0.6041(3) 0.26263(18)
H4 H 0.2498 0.6792 0.1880
H5 H 0.2501 0.4728 0.2451
H6 H 0.363(4) 0.780(4) 0.926(3)
H7 H 0.137(4) 0.783(4) 0.926(3)
loop_
_geom_bond_atom_site_label_1
_geom_bond_atom_site_label_2
_geom_bond_site_symmetry_1
_geom_bond_site_symmetry_2
N1 N2 1_555 1_555
N2 C1 1_555 1_555
C1 N3 1_555 1_555
N3 C2 1_555 1_555
C2 N1 1_555 1_555
N4 C2 1_555 1_555
N5 N4 1_555 1_555
H1 N5 1_555 1_555
C3 N1 1_555 1_555
N6 C1 1_555 1_555
H2 N6 1_555 1_555
H3 N6 1_555 1_555
N7 N3 1_555 1_555
N8 C3 1_555 1_555
H4 N8 1_555 1_555
H5 N8 1_555 1_555
H6 N7 1_555 1_555
H7 N7 1_555 1_555
N5 C3 1_555 1_555

#END
