
#######################################################################
#
#                 Cambridge Crystallographic Data Centre
#                                CCDC 
#
#######################################################################
#
# If this CIF has been generated from an entry in the Cambridge 
# Structural Database, then it will include bibliographic, chemical, 
# crystal, experimental, refinement or atomic coordinate data resulting 
# from the CCDC's data processing and validation procedures.
#
#######################################################################

data_FOYGIL
_chemical_formula_moiety         'C3 H6 N8'
_chemical_name_systematic        
7H-[1,2,4]Triazolo[4,3-b][1,2,4]triazole-3,6,7-triamine
_symmetry_cell_setting           triclinic
_symmetry_space_group_name_H-M   'P -1'
_symmetry_Int_Tables_number      2
_space_group_name_Hall           '-P 1'
loop_
_symmetry_equiv_pos_site_id
_symmetry_equiv_pos_as_xyz
1 x,y,z
2 -x,-y,-z
_cell_length_a                   6.2275(11)
_cell_length_b                   7.0170(12)
_cell_length_c                   7.9510(13)
_cell_angle_alpha                75.693(2)
_cell_angle_beta                 69.567(2)
_cell_angle_gamma                64.206(2)
_cell_volume                     291.273
_exptl_crystal_colour            orange
_exptl_crystal_description       prism
_cell_formula_units_Z            2
loop_
_atom_site_label
_atom_site_type_symbol
_atom_site_fract_x
_atom_site_fract_y
_atom_site_fract_z
N1 N 0.11086(18) 0.22030(16) 0.56423(13)
N2 N 0.05024(18) 0.24604(17) 0.40358(13)
C1 C 0.2351(2) 0.29244(19) 0.28229(16)
N3 N 0.39967(19) 0.30314(17) 0.35732(13)
C2 C 0.3197(2) 0.25061(18) 0.53973(16)
N4 N 0.38099(19) 0.21966(17) 0.68805(14)
N5 N 0.18544(19) 0.16781(17) 0.82472(14)
C3 C 0.0269(2) 0.17154(18) 0.74655(15)
N6 N 0.2688(2) 0.33075(18) 0.10361(14)
H1 H 0.401(3) 0.356(3) 0.035(2)
H2 H 0.183(3) 0.297(3) 0.053(2)
N7 N 0.6058(2) 0.35477(18) 0.25704(14)
H3 H 0.578(3) 0.481(3) 0.284(2)
H4 H 0.735(3) 0.266(3) 0.294(2)
N8 N -0.19041(19) 0.14459(18) 0.82962(14)
H5 H -0.268(3) 0.135(3) 0.762(2)
H6 H -0.205(3) 0.073(3) 0.936(2)
loop_
_geom_bond_atom_site_label_1
_geom_bond_atom_site_label_2
_geom_bond_site_symmetry_1
_geom_bond_site_symmetry_2
N1 N2 1_555 1_555
N2 C1 1_555 1_555
C1 N3 1_555 1_555
N3 C2 1_555 1_555
C2 N1 1_555 1_555
N4 C2 1_555 1_555
N5 N4 1_555 1_555
C3 N1 1_555 1_555
N6 C1 1_555 1_555
H1 N6 1_555 1_555
H2 N6 1_555 1_555
N7 N3 1_555 1_555
H3 N7 1_555 1_555
H4 N7 1_555 1_555
N8 C3 1_555 1_555
H5 N8 1_555 1_555
H6 N8 1_555 1_555
N5 C3 1_555 1_555

#END
