
#######################################################################
#
#                 Cambridge Crystallographic Data Centre
#                                CCDC 
#
#######################################################################
#
# If this CIF has been generated from an entry in the Cambridge 
# Structural Database, then it will include bibliographic, chemical, 
# crystal, experimental, refinement or atomic coordinate data resulting 
# from the CCDC's data processing and validation procedures.
#
#######################################################################

data_FOYJAG
_chemical_formula_moiety         'C30 H33 B1 N2 Si1'
_chemical_name_systematic        
6-(2-(Diethylboryl)phenyl)-N-(9H-fluoren-9-yl(dimethyl)silyl)pyridin-2-amine
_symmetry_cell_setting           orthorhombic
_symmetry_space_group_name_H-M   'P b c n'
_symmetry_Int_Tables_number      60
_space_group_name_Hall           '-P 2n 2ab'
loop_
_symmetry_equiv_pos_site_id
_symmetry_equiv_pos_as_xyz
1 x,y,z
2 1/2-x,1/2-y,1/2+z
3 -x,y,1/2-z
4 1/2+x,1/2-y,-z
5 -x,-y,-z
6 1/2+x,1/2+y,1/2-z
7 x,-y,1/2+z
8 1/2-x,1/2+y,z
_cell_length_a                   21.8109(17)
_cell_length_b                   13.5026(11)
_cell_length_c                   17.5034(16)
_cell_angle_alpha                90
_cell_angle_beta                 90
_cell_angle_gamma                90
_cell_volume                     5154.82
_exptl_crystal_colour            colorless
_exptl_crystal_description       needle
_cell_formula_units_Z            8
loop_
_atom_site_label
_atom_site_type_symbol
_atom_site_fract_x
_atom_site_fract_y
_atom_site_fract_z
Si1 Si 0.63766(3) 0.89068(5) 0.19824(4)
N1 N 0.66558(8) 0.66315(13) 0.34270(11)
C1 C 0.67938(10) 0.74560(17) 0.30259(14)
B1 B 0.60242(12) 0.5955(2) 0.33802(17)
N2 N 0.63456(9) 0.78651(13) 0.25758(12)
H1 H 0.5978(10) 0.7605(16) 0.2625(14)
C2 C 0.73820(10) 0.78645(16) 0.30825(14)
H2 H 0.7488 0.8424 0.2781
C3 C 0.78035(10) 0.74641(17) 0.35675(14)
H3 H 0.8198 0.7755 0.3613
C4 C 0.76551(10) 0.66293(17) 0.39956(14)
H4 H 0.7943 0.6351 0.4342
C5 C 0.70833(10) 0.62169(16) 0.39061(13)
C6 C 0.68286(10) 0.53234(16) 0.42574(13)
C7 C 0.62351(10) 0.51417(16) 0.39871(14)
C8 C 0.59233(11) 0.43343(17) 0.42998(14)
H5 H 0.5520 0.4184 0.4130
C9 C 0.61953(11) 0.37496(18) 0.48558(14)
H6 H 0.5973 0.3213 0.5072
C10 C 0.67883(11) 0.39399(18) 0.50996(14)
H7 H 0.6973 0.3526 0.5473
C11 C 0.71114(11) 0.47274(17) 0.48021(14)
H8 H 0.7519 0.4861 0.4965
C12 C 0.66321(10) 1.00371(16) 0.25387(14)
H9 H 0.7079 0.9995 0.2662
C13 C 0.62592(10) 1.01999(16) 0.32569(13)
C14 C 0.62402(10) 0.96409(17) 0.39196(14)
H10 H 0.6473 0.9049 0.3962
C15 C 0.58753(10) 0.99585(19) 0.45220(14)
H11 H 0.5861 0.9582 0.4980
C16 C 0.55316(11) 1.08202(17) 0.44614(15)
H12 H 0.5285 1.1026 0.4879
C17 C 0.55435(10) 1.13835(18) 0.38014(14)
H13 H 0.5303 1.1968 0.3760
C18 C 0.59147(10) 1.10779(17) 0.31988(13)
C19 C 0.60609(10) 1.15510(16) 0.24682(14)
C20 C 0.58643(11) 1.24409(18) 0.21569(15)
H14 H 0.5573 1.2840 0.2418
C21 C 0.61009(12) 1.27368(18) 0.14577(16)
H15 H 0.5963 1.3338 0.1234
C22 C 0.65311(11) 1.21738(18) 0.10826(16)
H16 H 0.6690 1.2394 0.0607
C23 C 0.67360(11) 1.12843(17) 0.13934(14)
H17 H 0.7037 1.0900 0.1136
C24 C 0.64948(10) 1.09664(17) 0.20853(13)
C25 C 0.55831(11) 0.90801(18) 0.16391(14)
H18 H 0.5431 0.8456 0.1425
H19 H 0.5577 0.9593 0.1243
H20 H 0.5321 0.9283 0.2066
C26 C 0.69122(12) 0.86717(18) 0.11824(15)
H21 H 0.7333 0.8651 0.1377
H22 H 0.6875 0.9203 0.0804
H23 H 0.6812 0.8036 0.0943
C27 C 0.59709(10) 0.55252(17) 0.25092(15)
H24 H 0.5662 0.4988 0.2505
H25 H 0.5816 0.6062 0.2175
C28 C 0.65651(11) 0.51236(19) 0.21636(14)
H26 H 0.6867 0.5659 0.2129
H27 H 0.6482 0.4862 0.1652
H28 H 0.6726 0.4593 0.2489
C29 C 0.54259(10) 0.65599(17) 0.36674(14)
H29 H 0.5326 0.7071 0.3282
H30 H 0.5075 0.6096 0.3693
C30 C 0.54945(11) 0.70628(18) 0.44416(15)
H31 H 0.5621 0.6573 0.4823
H32 H 0.5101 0.7355 0.4593
H33 H 0.5806 0.7585 0.4407
loop_
_geom_bond_atom_site_label_1
_geom_bond_atom_site_label_2
_geom_bond_site_symmetry_1
_geom_bond_site_symmetry_2
Si1 N2 1_555 1_555
N1 C1 1_555 1_555
C1 N2 1_555 1_555
B1 C7 1_555 1_555
N2 H1 1_555 1_555
C2 C1 1_555 1_555
H2 C2 1_555 1_555
C3 C2 1_555 1_555
H3 C3 1_555 1_555
C4 C3 1_555 1_555
H4 C4 1_555 1_555
C5 N1 1_555 1_555
C6 C5 1_555 1_555
C7 C6 1_555 1_555
C8 C7 1_555 1_555
H5 C8 1_555 1_555
C9 C8 1_555 1_555
H6 C9 1_555 1_555
C10 C9 1_555 1_555
H7 C10 1_555 1_555
C11 C6 1_555 1_555
H8 C11 1_555 1_555
C12 Si1 1_555 1_555
H9 C12 1_555 1_555
C13 C12 1_555 1_555
C14 C13 1_555 1_555
H10 C14 1_555 1_555
C15 C14 1_555 1_555
H11 C15 1_555 1_555
C16 C15 1_555 1_555
H12 C16 1_555 1_555
C17 C16 1_555 1_555
H13 C17 1_555 1_555
C18 C13 1_555 1_555
C19 C18 1_555 1_555
C20 C19 1_555 1_555
H14 C20 1_555 1_555
C21 C20 1_555 1_555
H15 C21 1_555 1_555
C22 C21 1_555 1_555
H16 C22 1_555 1_555
C23 C22 1_555 1_555
H17 C23 1_555 1_555
C24 C12 1_555 1_555
C25 Si1 1_555 1_555
H18 C25 1_555 1_555
H19 C25 1_555 1_555
H20 C25 1_555 1_555
C26 Si1 1_555 1_555
H21 C26 1_555 1_555
H22 C26 1_555 1_555
H23 C26 1_555 1_555
C27 B1 1_555 1_555
H24 C27 1_555 1_555
H25 C27 1_555 1_555
C28 C27 1_555 1_555
H26 C28 1_555 1_555
H27 C28 1_555 1_555
H28 C28 1_555 1_555
C29 B1 1_555 1_555
H29 C29 1_555 1_555
H30 C29 1_555 1_555
C30 C29 1_555 1_555
H31 C30 1_555 1_555
H32 C30 1_555 1_555
H33 C30 1_555 1_555
C4 C5 1_555 1_555
C10 C11 1_555 1_555
C17 C18 1_555 1_555
C19 C24 1_555 1_555
C23 C24 1_555 1_555

#END
