
#######################################################################
#
#                 Cambridge Crystallographic Data Centre
#                                CCDC 
#
#######################################################################
#
# If this CIF has been generated from an entry in the Cambridge 
# Structural Database, then it will include bibliographic, chemical, 
# crystal, experimental, refinement or atomic coordinate data resulting 
# from the CCDC's data processing and validation procedures.
#
#######################################################################

data_FOYKUZ
_chemical_formula_moiety         '2(C10 H8 S8 1+),C10 H8 S8,2(H1 O4 S1 1-)'
_chemical_name_systematic        
"tris(3,4;3',4'-bis(Ethylenedithio)-2,2',5,5'-tetrathiafulvalenium) bis(hydrogen sulfate)"
_symmetry_cell_setting           triclinic
_symmetry_space_group_name_H-M   'P -1'
_symmetry_Int_Tables_number      2
_space_group_name_Hall           '-P 1'
loop_
_symmetry_equiv_pos_site_id
_symmetry_equiv_pos_as_xyz
1 x,y,z
2 -x,-y,-z
_cell_length_a                   7.633(1)
_cell_length_b                   9.440(1)
_cell_length_c                   16.607(1)
_cell_angle_alpha                92.28(1)
_cell_angle_beta                 94.97(1)
_cell_angle_gamma                83.13(1)
_cell_volume                     1183.04
_exptl_crystal_colour            black
_cell_formula_units_Z            1
loop_
_atom_site_label
_atom_site_type_symbol
_atom_site_fract_x
_atom_site_fract_y
_atom_site_fract_z
S1 S 0.55060(14) 0.30153(10) 0.46229(6)
S2 S 0.74217(13) 0.01360(10) 0.47352(6)
S3 S 0.67437(14) 0.36554(10) 0.65078(6)
S4 S 0.88104(13) 0.08396(10) 0.65764(5)
S5 S 0.41051(15) 0.26880(11) 0.29390(6)
S6 S 0.63221(15) -0.07915(10) 0.30721(6)
S7 S 0.75045(13) 0.44539(10) 0.82198(6)
S8 S 0.99560(14) 0.10863(11) 0.83264(6)
C1 C 0.6845(5) 0.1779(4) 0.5210(2)
C2 C 0.7418(5) 0.2062(4) 0.6006(2)
C3 C 0.5363(5) 0.1907(4) 0.3756(2)
C4 C 0.6242(5) 0.0569(4) 0.3814(2)
C5 C 0.7833(4) 0.3173(4) 0.7447(2)
C6 C 0.8773(5) 0.1868(4) 0.7482(2)
C7 C 0.3921(5) 0.1194(4) 0.2237(2)
C8 C 0.5603(5) 0.0207(4) 0.2171(2)
C9 C 0.8633(7) 0.3614(5) 0.9092(3)
C10 C 0.8711(6) 0.1972(5) 0.9114(3)
H1 H 0.2911 0.0601 0.2403
H2 H 0.3438 0.14632 0.1753
H3 H 0.6813 0.0740 0.2030
H4 H 0.5415 -0.0592 0.1713
H5 H 0.7961 0.3977 0.9596
H6 H 1.0321 0.3695 0.9150
S9 S -0.15158(13) 0.61179(10) 0.39938(5)
S10 S 0.02707(14) 0.32135(10) 0.41327(6)
S11 S -0.26671(14) 0.58504(10) 0.22596(6)
S12 S -0.06140(14) 0.23215(10) 0.24529(6)
C11 C -0.1589(5) 0.5029(4) 0.3112(2)
C12 C -0.0765(5) 0.3678(4) 0.3191(2)
C13 C -0.2909(5) 0.4329(4) 0.1573(2)
C14 C -0.1234(5) 0.3283(4) 0.1530(2)
C15 C -0.0274(5) 0.4857(4) 0.4600(2)
H7 H -0.3331 0.4694 0.0981
H8 H -0.4049 0.3817 0.1640
H9 H -0.1300 0.2430 0.1115
H10 H -0.0093 0.3756 0.1415
C15A C 0.0274(5) 0.5143(4) 0.5400(2)
S9A S 0.15158(13) 0.38821(10) 0.60062(5)
S10A S -0.02707(14) 0.67865(10) 0.58673(6)
C11A C 0.1589(5) 0.4971(4) 0.6888(2)
C12A C 0.0765(5) 0.6322(4) 0.6809(2)
S11A S 0.26671(14) 0.41496(10) 0.77404(6)
S12A S 0.06140(14) 0.76785(10) 0.75471(6)
C13A C 0.2909(5) 0.5671(4) 0.8427(2)
C14A C 0.1234(5) 0.6717(4) 0.8470(2)
H7A H 0.3331 0.5306 0.9019
H8A H 0.4049 0.6183 0.8360
H9A H 0.1300 0.7570 0.8885
H10A H 0.0093 0.6244 0.8585
S13 S 0.61432(14) 0.78779(10) 0.99850(6)
O1 O 0.4420(1) 0.8383(3) 0.9532(2)
O2 O 0.5873(4) 0.7542(3) 1.0795(2)
O3 O 0.7218(4) 0.9172(3) 1.0017(2)
O4 O 0.7122(4) 0.6765(3) 0.9542(2)
loop_
_geom_bond_atom_site_label_1
_geom_bond_atom_site_label_2
_geom_bond_site_symmetry_1
_geom_bond_site_symmetry_2
S1 C1 1_555 1_555
S2 C1 1_555 1_555
S3 C2 1_555 1_555
S4 C2 1_555 1_555
S5 C3 1_555 1_555
S6 C4 1_555 1_555
S7 C5 1_555 1_555
S8 C6 1_555 1_555
C1 C2 1_555 1_555
C3 S1 1_555 1_555
C4 S2 1_555 1_555
C5 S3 1_555 1_555
C6 S4 1_555 1_555
C7 S5 1_555 1_555
C8 S6 1_555 1_555
C9 S7 1_555 1_555
C10 S8 1_555 1_555
H1 C7 1_555 1_555
H2 C7 1_555 1_555
H3 C8 1_555 1_555
H4 C8 1_555 1_555
H5 C9 1_555 1_555
H6 C9 1_555 1_555
S9 C11 1_555 1_555
S10 C12 1_555 1_555
S11 C11 1_555 1_555
S12 C12 1_555 1_555
C11 C12 1_555 1_555
C13 S11 1_555 1_555
C14 S12 1_555 1_555
C15 S9 1_555 1_555
H7 C13 1_555 1_555
H8 C13 1_555 1_555
H9 C14 1_555 1_555
H10 C14 1_555 1_555
S13 O1 1_555 1_555
O2 S13 1_555 1_555
O3 S13 1_555 1_555
O4 S13 1_555 1_555
C15A C15 1_555 1_555
S9A C15A 1_555 1_555
S10A C15A 1_555 1_555
C11A S9A 1_555 1_555
C12A S10A 1_555 1_555
S11A C11A 1_555 1_555
S12A C12A 1_555 1_555
C13A S11A 1_555 1_555
C14A S12A 1_555 1_555
H7A C13A 1_555 1_555
H8A C13A 1_555 1_555
H9A C14A 1_555 1_555
H10A C14A 1_555 1_555
C3 C4 1_555 1_555
C5 C6 1_555 1_555
C7 C8 1_555 1_555
C9 C10 1_555 1_555
S10 C15 1_555 1_555
C13 C14 1_555 1_555
C11A C12A 1_555 1_555
C13A C14A 1_555 1_555

#END
