
#######################################################################
#
#                 Cambridge Crystallographic Data Centre
#                                CCDC 
#
#######################################################################
#
# If this CIF has been generated from an entry in the Cambridge 
# Structural Database, then it will include bibliographic, chemical, 
# crystal, experimental, refinement or atomic coordinate data resulting 
# from the CCDC's data processing and validation procedures.
#
#######################################################################

data_FOYLOU03
_chemical_formula_moiety         'C18 H18 O12'
_chemical_name_systematic        
'hexamethyl benzene-1,2,3,4,5,6-hexacarboxylate'
_symmetry_cell_setting           triclinic
_symmetry_space_group_name_H-M   'P -1'
_symmetry_Int_Tables_number      2
_space_group_name_Hall           '-P 1'
loop_
_symmetry_equiv_pos_site_id
_symmetry_equiv_pos_as_xyz
1 x,y,z
2 -x,-y,-z
_cell_length_a                   10.292(4)
_cell_length_b                   11.043(4)
_cell_length_c                   18.767(6)
_cell_angle_alpha                76.244(12)
_cell_angle_beta                 87.402(12)
_cell_angle_gamma                74.255(12)
_cell_volume                     1993.62
_exptl_crystal_colour            colorless
_exptl_crystal_description       block
_cell_formula_units_Z            4
loop_
_atom_site_label
_atom_site_type_symbol
_atom_site_fract_x
_atom_site_fract_y
_atom_site_fract_z
O1 O 0.26265(13) 0.85521(13) 0.38572(7)
O2 O -0.01139(13) 1.02552(12) 0.34687(7)
O3 O 0.33608(13) 0.61878(14) 0.55822(7)
O4 O -0.21524(13) 0.52895(12) 0.56866(7)
O5 O -0.10747(13) 0.61915(14) 0.68194(7)
O6 O 0.24369(13) 0.90687(13) 0.49552(7)
O7 O -0.28542(13) 0.70166(14) 0.40260(8)
O8 O 0.09808(13) 0.49877(13) 0.66212(7)
O9 O 0.22142(13) 0.70913(14) 0.64546(7)
O10 O -0.01996(15) 0.86608(14) 0.29345(7)
O11 O -0.30070(15) 0.91352(15) 0.36283(8)
O12 O -0.35304(13) 0.73068(13) 0.55489(8)
C1 C -0.00921(17) 0.67083(17) 0.56570(9)
C2 C -0.01320(17) 0.59399(17) 0.64327(10)
C3 C -0.24523(18) 0.65727(18) 0.54947(10)
C4 C -0.12650(17) 0.77730(17) 0.44907(10)
C5 C 0.20975(17) 0.85605(17) 0.44427(9)
C6 C 0.09444(17) 0.79908(17) 0.46988(9)
C7 C -0.24696(18) 0.80762(19) 0.39948(10)
C8 C -0.01787(17) 0.82786(17) 0.42405(9)
C9 C 0.23303(18) 0.67516(17) 0.58215(9)
C10 C -0.12312(17) 0.70160(17) 0.52016(10)
C11 C 0.10099(17) 0.71717(17) 0.53994(9)
C12 C -0.01801(17) 0.90760(18) 0.34674(10)
C13 C 0.3634(2) 0.9526(2) 0.48290(12)
H1 H 0.4397 0.8825 0.4743
H2 H 0.3833 0.9806 0.5260
H3 H 0.3484 1.0256 0.4399
C14 C 0.0039(2) 1.1064(2) 0.27552(11)
H4 H 0.0881 1.0659 0.2538
H5 H 0.0067 1.1917 0.2811
H6 H -0.0726 1.1162 0.2434
C15 C -0.3246(2) 0.4786(2) 0.60295(13)
H7 H -0.3515 0.5112 0.6471
H8 H -0.2945 0.3838 0.6164
H9 H -0.4016 0.5066 0.5685
C16 C 0.3475(2) 0.6770(3) 0.68672(12)
H10 H 0.3778 0.5832 0.7066
H11 H 0.3334 0.7211 0.7271
H12 H 0.4164 0.7051 0.6542
C17 C 0.1038(2) 0.4210(2) 0.73678(11)
H13 H 0.0633 0.4771 0.7698
H14 H 0.1981 0.3773 0.7517
H15 H 0.0537 0.3563 0.7391
C18 C -0.4051(2) 0.7168(2) 0.36029(14)
H16 H -0.4837 0.7691 0.3808
H17 H -0.4182 0.6314 0.3622
H18 H -0.3944 0.7600 0.3092
O13 O 0.22020(13) 0.08132(13) 0.06259(7)
O14 O 0.43477(14) 0.32024(15) -0.18635(7)
O15 O 0.64644(14) 0.20135(14) -0.15190(7)
O16 O 0.33843(14) 0.09842(13) -0.10251(8)
O17 O 0.69662(13) 0.41234(13) 0.07261(8)
O18 O 0.43577(15) 0.32590(14) 0.19726(7)
O19 O 0.72217(14) 0.22535(14) 0.15760(7)
O20 O 0.16789(13) 0.26431(13) -0.08348(8)
O21 O 0.82886(13) 0.23692(14) -0.02184(8)
O22 O 0.15772(14) 0.25079(15) 0.11495(8)
O23 O 0.70173(13) 0.40834(14) -0.10282(8)
O24 O 0.40945(14) 0.12808(13) 0.20549(7)
C19 C 0.52082(19) 0.26404(19) -0.13991(10)
C20 C 0.72142(19) 0.30562(18) -0.04713(10)
C21 C 0.59055(18) 0.28211(17) -0.01685(10)
C22 C 0.66936(18) 0.30068(18) 0.10273(10)
C23 C 0.36054(18) 0.21776(17) 0.04684(10)
C24 C 0.45188(18) 0.24486(17) 0.08942(10)
C25 C 0.23446(18) 0.18684(18) 0.07960(10)
C26 C 0.28252(19) 0.19900(18) -0.07413(10)
C27 C 0.56600(18) 0.27783(17) 0.05719(10)
C28 C 0.43058(18) 0.24011(18) 0.16979(10)
C29 C 0.49883(18) 0.25575(17) -0.05940(10)
C30 C 0.38425(18) 0.22363(17) -0.02779(10)
C31 C 0.3848(2) 0.1174(2) 0.28348(11)
H19 H 0.4669 0.1163 0.3083
H20 H 0.3593 0.0371 0.3045
H21 H 0.3114 0.1915 0.2901
C32 C 0.0928(2) 0.0505(2) 0.08100(12)
H22 H 0.0803 0.0372 0.1341
H23 H 0.0932 -0.0286 0.0659
H24 H 0.0188 0.1221 0.0555
C33 C 0.8099(2) 0.4342(2) 0.10635(15)
H25 H 0.7877 0.4416 0.1568
H26 H 0.8284 0.5144 0.0781
H27 H 0.8898 0.3614 0.1069
C34 C 0.8246(2) 0.4333(3) -0.13672(15)
H28 H 0.8699 0.4675 -0.1043
H29 H 0.8019 0.4968 -0.1838
H30 H 0.8848 0.3526 -0.1450
C35 C 0.6806(3) 0.2064(3) -0.22789(12)
H31 H 0.6362 0.1520 -0.2468
H32 H 0.7787 0.1747 -0.2318
H33 H 0.6500 0.2960 -0.2566
C36 C 0.2504(3) 0.0691(2) -0.15049(14)
H34 H 0.1794 0.0378 -0.1215
H35 H 0.3031 0.0022 -0.1744
H36 H 0.2091 0.1475 -0.1879
loop_
_geom_bond_atom_site_label_1
_geom_bond_atom_site_label_2
_geom_bond_site_symmetry_1
_geom_bond_site_symmetry_2
O1 C5 1_555 1_555
O2 C12 1_555 1_555
O3 C9 1_555 1_555
O4 C3 1_555 1_555
O5 C2 1_555 1_555
O6 C5 1_555 1_555
O7 C7 1_555 1_555
O8 C2 1_555 1_555
O9 C9 1_555 1_555
O10 C12 1_555 1_555
O11 C7 1_555 1_555
O12 C3 1_555 1_555
C1 C2 1_555 1_555
C3 C10 1_555 1_555
C4 C7 1_555 1_555
C5 C6 1_555 1_555
C6 C8 1_555 1_555
C8 C4 1_555 1_555
C9 C11 1_555 1_555
C10 C1 1_555 1_555
C11 C1 1_555 1_555
C12 C8 1_555 1_555
C13 O6 1_555 1_555
H1 C13 1_555 1_555
H2 C13 1_555 1_555
H3 C13 1_555 1_555
C14 O2 1_555 1_555
H4 C14 1_555 1_555
H5 C14 1_555 1_555
H6 C14 1_555 1_555
C15 O4 1_555 1_555
H7 C15 1_555 1_555
H8 C15 1_555 1_555
H9 C15 1_555 1_555
C16 O9 1_555 1_555
H10 C16 1_555 1_555
H11 C16 1_555 1_555
H12 C16 1_555 1_555
C17 O8 1_555 1_555
H13 C17 1_555 1_555
H14 C17 1_555 1_555
H15 C17 1_555 1_555
C18 O7 1_555 1_555
H16 C18 1_555 1_555
H17 C18 1_555 1_555
H18 C18 1_555 1_555
O13 C25 1_555 1_555
O14 C19 1_555 1_555
O15 C19 1_555 1_555
O16 C26 1_555 1_555
O17 C22 1_555 1_555
O18 C28 1_555 1_555
O19 C22 1_555 1_555
O20 C26 1_555 1_555
O21 C20 1_555 1_555
O22 C25 1_555 1_555
O23 C20 1_555 1_555
O24 C28 1_555 1_555
C19 C29 1_555 1_555
C20 C21 1_555 1_555
C21 C27 1_555 1_555
C22 C27 1_555 1_555
C23 C24 1_555 1_555
C24 C27 1_555 1_555
C25 C23 1_555 1_555
C26 C30 1_555 1_555
C28 C24 1_555 1_555
C29 C21 1_555 1_555
C30 C23 1_555 1_555
C31 O24 1_555 1_555
H19 C31 1_555 1_555
H20 C31 1_555 1_555
H21 C31 1_555 1_555
C32 O13 1_555 1_555
H22 C32 1_555 1_555
H23 C32 1_555 1_555
H24 C32 1_555 1_555
C33 O17 1_555 1_555
H25 C33 1_555 1_555
H26 C33 1_555 1_555
H27 C33 1_555 1_555
C34 O23 1_555 1_555
H28 C34 1_555 1_555
H29 C34 1_555 1_555
H30 C34 1_555 1_555
C35 O15 1_555 1_555
H31 C35 1_555 1_555
H32 C35 1_555 1_555
H33 C35 1_555 1_555
C36 O16 1_555 1_555
H34 C36 1_555 1_555
H35 C36 1_555 1_555
H36 C36 1_555 1_555
C4 C10 1_555 1_555
C6 C11 1_555 1_555
C29 C30 1_555 1_555

#END
