
#######################################################################
#
#                 Cambridge Crystallographic Data Centre
#                                CCDC 
#
#######################################################################
#
# If this CIF has been generated from an entry in the Cambridge 
# Structural Database, then it will include bibliographic, chemical, 
# crystal, experimental, refinement or atomic coordinate data resulting 
# from the CCDC's data processing and validation procedures.
#
#######################################################################

data_FOYMEM
_chemical_formula_moiety         'C19 H16 F3 N3'
_chemical_name_systematic        
1-t-Butyl-6-phenyl-4-(trifluoromethyl)-1H-pyrrolo[2,3-b]pyridine-3-carbonitrile
_symmetry_cell_setting           monoclinic
_symmetry_space_group_name_H-M   'P 21/c'
_symmetry_Int_Tables_number      14
_space_group_name_Hall           '-P 2ybc'
loop_
_symmetry_equiv_pos_site_id
_symmetry_equiv_pos_as_xyz
1 x,y,z
2 -x,1/2+y,1/2-z
3 -x,-y,-z
4 x,1/2-y,1/2+z
_cell_length_a                   15.689(3)
_cell_length_b                   5.8992(12)
_cell_length_c                   18.760(4)
_cell_angle_alpha                90
_cell_angle_beta                 108.31(3)
_cell_angle_gamma                90
_cell_volume                     1648.38
_exptl_crystal_colour            colorless
_exptl_crystal_description       block
_chemical_melting_point          '434.2 K'
_cell_formula_units_Z            4
_exptl_crystal_recrystallization_method perdeuterodimethylsulfoxide
loop_
_atom_site_label
_atom_site_type_symbol
_atom_site_fract_x
_atom_site_fract_y
_atom_site_fract_z
F1 F 0.21285(8) 0.6387(2) 0.05896(6)
N1 N 0.22612(10) 1.2497(3) -0.12176(8)
C1 C 0.16676(12) 1.2862(3) -0.08495(10)
F2 F 0.31249(8) 0.8666(2) 0.12673(6)
N2 N 0.35104(10) 1.0183(3) -0.12556(9)
C2 C 0.16729(12) 1.1610(3) -0.02097(10)
H1 H 0.1246 1.1943 0.0039
F3 F 0.17225(9) 0.9327(2) 0.10718(7)
C3 C 0.22910(13) 0.9906(3) 0.00593(10)
N3 N 0.41576(12) 0.4524(3) 0.06375(10)
C4 C 0.29102(12) 0.9458(3) -0.03212(10)
C5 C 0.36340(12) 0.7908(3) -0.02636(10)
C6 C 0.39732(13) 0.8432(3) -0.08338(10)
H2 H 0.4465 0.7676 -0.0923
C7 C 0.28499(12) 1.0839(3) -0.09475(10)
C8 C 0.10055(13) 1.4704(3) -0.11429(10)
C9 C 0.11846(13) 1.6437(3) -0.15836(10)
H3 H 0.1734 1.6430 -0.1696
C10 C 0.05697(13) 1.8169(3) -0.18591(10)
H4 H 0.0701 1.9339 -0.2157
C11 C -0.02382(13) 1.8191(4) -0.16987(10)
H5 H -0.0659 1.9378 -0.1884
C12 C -0.04251(13) 1.6472(4) -0.12673(11)
H6 H -0.0977 1.6483 -0.1159
C13 C 0.01844(13) 1.4738(3) -0.09929(10)
H7 H 0.0046 1.3563 -0.0701
C14 C 0.23141(13) 0.8590(3) 0.07446(11)
C15 C 0.39321(13) 0.6041(4) 0.02408(11)
C16 C 0.36026(13) 1.1006(3) -0.19835(11)
C17 C 0.43964(14) 0.9826(4) -0.21305(12)
H8 H 0.4949 1.0198 -0.1727
H9 H 0.4447 1.0341 -0.2612
H10 H 0.4302 0.8183 -0.2147
C18 C 0.37672(14) 1.3564(3) -0.19317(12)
H11 H 0.4326 1.3887 -0.1529
H12 H 0.3266 1.4323 -0.1824
H13 H 0.3815 1.4122 -0.2410
C19 C 0.27349(14) 1.0444(4) -0.26048(11)
H14 H 0.2643 0.8800 -0.2628
H15 H 0.2776 1.0986 -0.3087
H16 H 0.2229 1.1186 -0.2499
loop_
_geom_bond_atom_site_label_1
_geom_bond_atom_site_label_2
_geom_bond_site_symmetry_1
_geom_bond_site_symmetry_2
F1 C14 1_555 1_555
N1 C1 1_555 1_555
C1 C2 1_555 1_555
F2 C14 1_555 1_555
N2 C6 1_555 1_555
C2 H1 1_555 1_555
F3 C14 1_555 1_555
C3 C2 1_555 1_555
N3 C15 1_555 1_555
C4 C3 1_555 1_555
C5 C4 1_555 1_555
C6 C5 1_555 1_555
H2 C6 1_555 1_555
C7 N1 1_555 1_555
C8 C1 1_555 1_555
C9 C8 1_555 1_555
H3 C9 1_555 1_555
C10 C9 1_555 1_555
H4 C10 1_555 1_555
C11 C10 1_555 1_555
H5 C11 1_555 1_555
C12 C11 1_555 1_555
H6 C12 1_555 1_555
C13 C8 1_555 1_555
H7 C13 1_555 1_555
C14 C3 1_555 1_555
C15 C5 1_555 1_555
C16 N2 1_555 1_555
C17 C16 1_555 1_555
H8 C17 1_555 1_555
H9 C17 1_555 1_555
H10 C17 1_555 1_555
C18 C16 1_555 1_555
H11 C18 1_555 1_555
H12 C18 1_555 1_555
H13 C18 1_555 1_555
C19 C16 1_555 1_555
H14 C19 1_555 1_555
H15 C19 1_555 1_555
H16 C19 1_555 1_555
N2 C7 1_555 1_555
C4 C7 1_555 1_555
C12 C13 1_555 1_555

#END
