
#######################################################################
#
#                 Cambridge Crystallographic Data Centre
#                                CCDC 
#
#######################################################################
#
# If this CIF has been generated from an entry in the Cambridge 
# Structural Database, then it will include bibliographic, chemical, 
# crystal, experimental, refinement or atomic coordinate data resulting 
# from the CCDC's data processing and validation procedures.
#
#######################################################################

data_FOYNOY
_chemical_formula_moiety         'C36 H34 N2 O6'
_chemical_name_systematic        
N,N'-(9,10-dioxo-9,10-dihydroanthracene-1,5-diyl)bis(2-isobutoxybenzamide)
_symmetry_cell_setting           monoclinic
_symmetry_space_group_name_H-M   'P 21/n'
_symmetry_Int_Tables_number      14
_space_group_name_Hall           '-P 2yn'
loop_
_symmetry_equiv_pos_site_id
_symmetry_equiv_pos_as_xyz
1 x,y,z
2 1/2-x,1/2+y,1/2-z
3 -x,-y,-z
4 1/2+x,1/2-y,1/2+z
_cell_length_a                   5.1550(10)
_cell_length_b                   23.851(5)
_cell_length_c                   11.944(2)
_cell_angle_alpha                90
_cell_angle_beta                 93.18(3)
_cell_angle_gamma                90
_cell_volume                     1466.28
_exptl_crystal_colour            yellow
_exptl_crystal_description       needle
_chemical_melting_point          '244-5 deg.C'
_cell_formula_units_Z            2
loop_
_atom_site_label
_atom_site_type_symbol
_atom_site_fract_x
_atom_site_fract_y
_atom_site_fract_z
O1 O 0.1919(3) 0.15593(7) 0.77835(11)
O2 O -0.3558(3) 0.15327(8) 0.51330(13)
O3 O 0.5715(3) -0.06388(7) 0.32016(12)
N1 N 0.0406(3) 0.11890(7) 0.57213(14)
H1 H 0.1556 0.1190 0.6271
C1 C 0.5022(6) 0.12986(14) 1.0676(2)
H2 H 0.5567 0.1679 1.0804
H3 H 0.6465 0.1081 1.0446
H4 H 0.4404 0.1145 1.1354
C2 C 0.1909(7) 0.06867(12) 0.9538(3)
H5 H 0.0541 0.0687 0.8959
H6 H 0.1272 0.0533 1.0213
H7 H 0.3328 0.0462 0.9305
C3 C 0.2840(5) 0.12841(11) 0.97547(18)
H8 H 0.1381 0.1508 0.9997
C4 C 0.3842(4) 0.15455(11) 0.87090(17)
H9 H 0.4410 0.1925 0.8879
H10 H 0.5339 0.1335 0.8487
C5 C 0.0149(4) 0.19819(10) 0.76839(17)
C6 C -0.0002(5) 0.24187(10) 0.84462(19)
H11 H 0.1196 0.2439 0.9056
C7 C -0.1918(5) 0.28252(10) 0.83083(19)
H12 H -0.1983 0.3117 0.8821
C8 C -0.3734(5) 0.27984(10) 0.74128(19)
H13 H -0.5035 0.3067 0.7324
C9 C -0.3579(5) 0.23652(10) 0.66523(18)
H14 H -0.4807 0.2345 0.6053
C10 C -0.1644(4) 0.19579(9) 0.67520(17)
C11 C -0.1675(4) 0.15378(9) 0.58087(17)
C12 C 0.0853(4) 0.08286(9) 0.48232(16)
C13 C -0.0623(4) 0.08648(10) 0.38031(17)
H15 H -0.1970 0.1124 0.3723
C14 C -0.0098(5) 0.05216(10) 0.29217(18)
H16 H -0.1092 0.0554 0.2251
C15 C 0.1863(4) 0.01304(10) 0.30068(17)
H17 H 0.2179 -0.0100 0.2402
C16 C 0.3372(4) 0.00825(9) 0.40055(17)
C17 C 0.2888(4) 0.04269(9) 0.49252(16)
C18 C 0.5449(4) -0.03541(9) 0.40371(17)
O1B O 0.8081(3) -0.15593(7) 0.22165(11)
O2B O 1.3558(3) -0.15327(8) 0.48670(13)
O3B O 0.4285(3) 0.06388(7) 0.67984(12)
N1B N 0.9594(3) -0.11890(7) 0.42787(14)
H1B H 0.8444 -0.1190 0.3729
C1B C 0.4978(6) -0.12986(14) -0.0676(2)
H2B H 0.4433 -0.1679 -0.0804
H3B H 0.3535 -0.1081 -0.0446
H4B H 0.5596 -0.1145 -0.1354
C2B C 0.8091(7) -0.06867(12) 0.0462(3)
H5B H 0.9459 -0.0687 0.1041
H6B H 0.8728 -0.0533 -0.0213
H7B H 0.6672 -0.0462 0.0695
C3B C 0.7160(5) -0.12841(11) 0.02453(18)
H8B H 0.8619 -0.1508 0.0003
C4B C 0.6158(4) -0.15455(11) 0.12910(17)
H9B H 0.5590 -0.1925 0.1121
H10B H 0.4661 -0.1335 0.1513
C5B C 0.9851(4) -0.19819(10) 0.23161(17)
C6B C 1.0002(5) -0.24187(10) 0.15538(19)
H11B H 0.8804 -0.2439 0.0944
C7B C 1.1918(5) -0.28252(10) 0.16917(19)
H12B H 1.1983 -0.3117 0.1179
C8B C 1.3734(5) -0.27984(10) 0.25872(19)
H13B H 1.5035 -0.3067 0.2676
C9B C 1.3579(5) -0.23652(10) 0.33477(18)
H14B H 1.4807 -0.2345 0.3947
C10B C 1.1644(4) -0.19579(9) 0.32480(17)
C11B C 1.1675(4) -0.15378(9) 0.41913(17)
C12B C 0.9147(4) -0.08286(9) 0.51768(16)
C13B C 1.0623(4) -0.08648(10) 0.61969(17)
H15B H 1.1970 -0.1124 0.6277
C14B C 1.0098(5) -0.05216(10) 0.70783(18)
H16B H 1.1092 -0.0554 0.7749
C15B C 0.8137(4) -0.01304(10) 0.69932(17)
H17B H 0.7821 0.0100 0.7598
C16B C 0.6628(4) -0.00825(9) 0.59945(17)
C17B C 0.7112(4) -0.04269(9) 0.50748(16)
C18B C 0.4551(4) 0.03541(9) 0.59629(17)
loop_
_geom_bond_atom_site_label_1
_geom_bond_atom_site_label_2
_geom_bond_site_symmetry_1
_geom_bond_site_symmetry_2
O1 C4 1_555 1_555
O2 C11 1_555 1_555
O3 C18 1_555 1_555
N1 H1 1_555 1_555
C1 H2 1_555 1_555
H3 C1 1_555 1_555
H4 C1 1_555 1_555
C2 H5 1_555 1_555
H6 C2 1_555 1_555
H7 C2 1_555 1_555
C3 C1 1_555 1_555
H8 C3 1_555 1_555
C4 C3 1_555 1_555
H9 C4 1_555 1_555
H10 C4 1_555 1_555
C5 O1 1_555 1_555
C6 C5 1_555 1_555
H11 C6 1_555 1_555
C7 C6 1_555 1_555
H12 C7 1_555 1_555
C8 C7 1_555 1_555
H13 C8 1_555 1_555
C9 C8 1_555 1_555
H14 C9 1_555 1_555
C10 C5 1_555 1_555
C11 N1 1_555 1_555
C12 N1 1_555 1_555
C13 C12 1_555 1_555
H15 C13 1_555 1_555
C14 C13 1_555 1_555
H16 C14 1_555 1_555
C15 C14 1_555 1_555
H17 C15 1_555 1_555
C16 C15 1_555 1_555
C17 C12 1_555 1_555
C18 C16 1_555 1_555
O1B C4B 1_555 1_555
O2B C11B 1_555 1_555
O3B C18B 1_555 1_555
N1B H1B 1_555 1_555
C1B H2B 1_555 1_555
H3B C1B 1_555 1_555
H4B C1B 1_555 1_555
C2B H5B 1_555 1_555
H6B C2B 1_555 1_555
H7B C2B 1_555 1_555
C3B C1B 1_555 1_555
H8B C3B 1_555 1_555
C4B C3B 1_555 1_555
H9B C4B 1_555 1_555
H10B C4B 1_555 1_555
C5B O1B 1_555 1_555
C6B C5B 1_555 1_555
H11B C6B 1_555 1_555
C7B C6B 1_555 1_555
H12B C7B 1_555 1_555
C8B C7B 1_555 1_555
H13B C8B 1_555 1_555
C9B C8B 1_555 1_555
H14B C9B 1_555 1_555
C10B C5B 1_555 1_555
C11B N1B 1_555 1_555
C12B N1B 1_555 1_555
C13B C12B 1_555 1_555
H15B C13B 1_555 1_555
C14B C13B 1_555 1_555
H16B C14B 1_555 1_555
C15B C14B 1_555 1_555
H17B C15B 1_555 1_555
C16B C15B 1_555 1_555
C17B C18 1_555 1_555
C18B C17 1_555 1_555
C2 C3 1_555 1_555
C9 C10 1_555 1_555
C10 C11 1_555 1_555
C16 C17 1_555 1_555
C2B C3B 1_555 1_555
C9B C10B 1_555 1_555
C10B C11B 1_555 1_555
C12B C17B 1_555 1_555
C16B C17B 1_555 1_555
C16B C18B 1_555 1_555

#END
