
#######################################################################
#
#                 Cambridge Crystallographic Data Centre
#                                CCDC 
#
#######################################################################
#
# If this CIF has been generated from an entry in the Cambridge 
# Structural Database, then it will include bibliographic, chemical, 
# crystal, experimental, refinement or atomic coordinate data resulting 
# from the CCDC's data processing and validation procedures.
#
#######################################################################

data_FOYSOC
_chemical_formula_moiety         'C21 H16 Cl2 N2'
_chemical_name_systematic        
3-(3,4-Dichlorophenyl)-1,5-diphenyl-4,5-dihydro-1H-pyrazole
_symmetry_cell_setting           monoclinic
_symmetry_space_group_name_H-M   'P 21/c'
_symmetry_Int_Tables_number      14
_space_group_name_Hall           '-P 2ybc'
loop_
_symmetry_equiv_pos_site_id
_symmetry_equiv_pos_as_xyz
1 x,y,z
2 -x,1/2+y,1/2-z
3 -x,-y,-z
4 x,1/2-y,1/2+z
_cell_length_a                   12.441(3)
_cell_length_b                   11.926(2)
_cell_length_c                   12.299(3)
_cell_angle_alpha                90
_cell_angle_beta                 96.49(3)
_cell_angle_gamma                90
_cell_volume                     1813.13
_exptl_crystal_colour            yellow
_chemical_melting_point          '154-155 deg.C'
_cell_formula_units_Z            4
_exptl_crystal_recrystallization_method 'ethyl acetate'
loop_
_atom_site_label
_atom_site_type_symbol
_atom_site_fract_x
_atom_site_fract_y
_atom_site_fract_z
Cl1 Cl 0.59821(9) 0.21430(11) 0.68490(10)
Cl2 Cl 0.60511(8) 0.08273(10) 0.45983(10)
N1 N 1.0152(2) 0.1234(2) 0.3880(2)
N2 N 1.1183(2) 0.1307(3) 0.3581(2)
C1 C 0.9089(3) 0.2280(3) 0.6350(3)
H1 H 0.9722 0.2567 0.6720
C2 C 0.8126(3) 0.2396(3) 0.6804(3)
H2 H 0.8116 0.2760 0.7471
C3 C 0.7185(3) 0.1973(3) 0.6266(3)
C4 C 0.7210(3) 0.1413(3) 0.5276(3)
C5 C 0.8169(3) 0.1295(3) 0.4827(3)
H3 H 0.8177 0.0914 0.4168
C6 C 0.9127(3) 0.1741(3) 0.5351(3)
C7 C 1.0131(3) 0.1645(3) 0.4842(3)
C8 C 1.1214(3) 0.2049(3) 0.5347(3)
H4 H 1.1436 0.1663 0.6030
H5 H 1.1206 0.2850 0.5481
C9 C 1.1962(3) 0.1753(3) 0.4471(3)
H6 H 1.2459 0.1154 0.4748
C10 C 1.2604(3) 0.2729(3) 0.4112(3)
C11 C 1.3689(3) 0.2820(3) 0.4476(3)
H7 H 1.4020 0.2272 0.4936
C12 C 1.4289(4) 0.3707(5) 0.4170(4)
H8 H 1.5021 0.3751 0.4422
C13 C 1.3829(5) 0.4517(5) 0.3505(4)
H9 H 1.4244 0.5110 0.3295
C14 C 1.2743(5) 0.4462(4) 0.3142(4)
H10 H 1.2418 0.5023 0.2694
C15 C 1.2132(3) 0.3559(3) 0.3449(3)
H11 H 1.1398 0.3520 0.3202
C16 C 1.1460(3) 0.0695(3) 0.2682(3)
C17 C 1.0680(3) 0.0129(3) 0.1995(3)
H12 H 0.9962 0.0144 0.2139
C18 C 1.0960(4) -0.0459(3) 0.1097(3)
H13 H 1.0430 -0.0846 0.0653
C19 C 1.2010(4) -0.0479(4) 0.0853(3)
H14 H 1.2191 -0.0868 0.0244
C20 C 1.2783(3) 0.0084(3) 0.1518(3)
H15 H 1.3496 0.0074 0.1358
C21 C 1.2525(3) 0.0667(3) 0.2425(3)
H16 H 1.3064 0.1043 0.2867
loop_
_geom_bond_atom_site_label_1
_geom_bond_atom_site_label_2
_geom_bond_site_symmetry_1
_geom_bond_site_symmetry_2
Cl1 C3 1_555 1_555
Cl2 C4 1_555 1_555
N1 N2 1_555 1_555
N2 C9 1_555 1_555
C1 H1 1_555 1_555
C2 C1 1_555 1_555
H2 C2 1_555 1_555
C3 C2 1_555 1_555
C4 C3 1_555 1_555
C5 C4 1_555 1_555
H3 C5 1_555 1_555
C6 C1 1_555 1_555
C7 N1 1_555 1_555
C8 C7 1_555 1_555
H4 C8 1_555 1_555
H5 C8 1_555 1_555
C9 C8 1_555 1_555
H6 C9 1_555 1_555
C10 C9 1_555 1_555
C11 C10 1_555 1_555
H7 C11 1_555 1_555
C12 C11 1_555 1_555
H8 C12 1_555 1_555
C13 C12 1_555 1_555
H9 C13 1_555 1_555
C14 C13 1_555 1_555
H10 C14 1_555 1_555
C15 C10 1_555 1_555
H11 C15 1_555 1_555
C16 N2 1_555 1_555
C17 C16 1_555 1_555
H12 C17 1_555 1_555
C18 C17 1_555 1_555
H13 C18 1_555 1_555
C19 C18 1_555 1_555
H14 C19 1_555 1_555
C20 C19 1_555 1_555
H15 C20 1_555 1_555
C21 C16 1_555 1_555
H16 C21 1_555 1_555
C5 C6 1_555 1_555
C6 C7 1_555 1_555
C14 C15 1_555 1_555
C20 C21 1_555 1_555

#END
