
#######################################################################
#
#                 Cambridge Crystallographic Data Centre
#                                CCDC 
#
#######################################################################
#
# If this CIF has been generated from an entry in the Cambridge 
# Structural Database, then it will include bibliographic, chemical, 
# crystal, experimental, refinement or atomic coordinate data resulting 
# from the CCDC's data processing and validation procedures.
#
#######################################################################

data_FOYVAR
_chemical_formula_moiety         'C2 D6 O1 S1,C15 H16 N2 O2 S1'
_chemical_name_systematic        
'1-n-butyl-9-methyl-6H-thiazolo[3,4-c]quinazoline-3,5-dione perdeutero-dimethylsulfoxide solvate'
_symmetry_cell_setting           triclinic
_symmetry_space_group_name_H-M   'P -1'
_symmetry_Int_Tables_number      2
_space_group_name_Hall           '-P 1'
loop_
_symmetry_equiv_pos_site_id
_symmetry_equiv_pos_as_xyz
1 x,y,z
2 -x,-y,-z
_cell_length_a                   12.2374(3)
_cell_length_b                   12.6977(2)
_cell_length_c                   13.3244(3)
_cell_angle_alpha                101.3998(9)
_cell_angle_beta                 109.1986(10)
_cell_angle_gamma                103.0765(8)
_cell_volume                     1819.39
_exptl_crystal_colour            colorless
_exptl_crystal_description       block
_chemical_melting_point          '518 K'
_cell_formula_units_Z            4
loop_
_atom_site_label
_atom_site_type_symbol
_atom_site_fract_x
_atom_site_fract_y
_atom_site_fract_z
C1 C 0.6530(2) 0.42405(18) 0.02875(18)
S1 S 0.70116(6) 0.52246(5) -0.03596(5)
C2 C 0.6832(2) 0.63419(19) 0.05223(19)
O1 O 0.70258(18) 0.72981(14) 0.04605(15)
N1 N 0.64293(16) 0.59145(14) 0.12779(15)
C3 C 0.6336(2) 0.66492(18) 0.21719(18)
O2 O 0.65574(17) 0.76630(13) 0.22983(14)
N2 N 0.59891(18) 0.61439(15) 0.28624(17)
H1 H 0.594(2) 0.656(2) 0.341(2)
C4 C 0.56812(19) 0.49805(17) 0.27413(18)
C5 C 0.52853(19) 0.45792(18) 0.34962(18)
H2 H 0.5245 0.5093 0.4097
C6 C 0.4948(2) 0.34289(19) 0.33769(19)
H3 H 0.4691 0.3160 0.3905
C7 C 0.4982(2) 0.26638(18) 0.24891(19)
C8 C 0.4569(2) 0.14086(19) 0.2323(2)
H4 H 0.3796 0.1053 0.1674
H5 H 0.4455 0.1270 0.2985
H6 H 0.5187 0.1086 0.2201
C9 C 0.53957(19) 0.30813(18) 0.17461(18)
H7 H 0.5421 0.2564 0.1139
C10 C 0.57779(18) 0.42470(17) 0.18662(17)
C11 C 0.62401(19) 0.47267(17) 0.11192(18)
C12 C 0.6525(2) 0.30421(18) -0.01283(19)
H8 H 0.5674 0.2558 -0.0586
H9 H 0.6829 0.2763 0.0520
C13 C 0.7294(3) 0.2907(2) -0.0818(2)
H10 H 0.6965 0.3144 -0.1491
H11 H 0.8140 0.3414 -0.0377
C14 C 0.7311(3) 0.1706(2) -0.1168(2)
H12 H 0.6468 0.1205 -0.1634
H13 H 0.7606 0.1459 -0.0496
C15 C 0.8114(3) 0.1569(3) -0.1816(3)
H14 H 0.7819 0.1798 -0.2490
H15 H 0.8084 0.0775 -0.2022
H16 H 0.8956 0.2044 -0.1352
S2 S 0.63134(6) 0.88375(5) 0.50795(5)
O3 O 0.59979(17) 0.75636(13) 0.47428(14)
C16 C 0.5490(3) 0.9208(2) 0.3896(2)
C17 C 0.7791(3) 0.9372(3) 0.5075(3)
D1 D 0.465(3) 0.894(2) 0.380(2)
D2 D 0.561(2) 0.882(2) 0.325(2)
D3 D 0.578(2) 1.002(2) 0.407(2)
D4 D 0.834(3) 0.922(3) 0.568(3)
D5 D 0.795(3) 1.016(3) 0.519(2)
D6 D 0.775(3) 0.899(3) 0.434(3)
C18 C 0.79247(19) 0.50613(17) 0.58180(18)
S3 S 0.72606(6) 0.41532(5) 0.64372(5)
C19 C 0.7234(2) 0.29359(18) 0.55165(19)
O4 O 0.68379(17) 0.19817(13) 0.55401(15)
N3 N 0.77364(16) 0.32783(14) 0.47858(15)
C20 C 0.7901(2) 0.24826(18) 0.39879(18)
O5 O 0.76436(17) 0.14779(12) 0.39156(14)
N4 N 0.83718(17) 0.29253(15) 0.33279(16)
H17 H 0.844(2) 0.244(2) 0.279(2)
C21 C 0.86751(19) 0.40633(17) 0.33531(17)
C22 C 0.9090(2) 0.43681(18) 0.25654(18)
H18 H 0.9155 0.3808 0.2018
C23 C 0.9408(2) 0.54938(19) 0.25821(19)
H19 H 0.9698 0.5702 0.2047
C24 C 0.9308(2) 0.63198(18) 0.33723(19)
C25 C 0.9669(2) 0.7546(2) 0.3396(2)
H20 H 0.9199 0.7935 0.3714
H21 H 0.9500 0.7591 0.2637
H22 H 1.0541 0.7907 0.3852
C26 C 0.88692(19) 0.59963(17) 0.41405(18)
H23 H 0.8779 0.6556 0.4669
C27 C 0.85560(18) 0.48682(17) 0.41585(17)
C28 C 0.80995(18) 0.44766(17) 0.49522(18)
C29 C 0.8189(2) 0.63145(18) 0.62817(18)
H24 H 0.7556 0.6549 0.5779
H25 H 0.8981 0.6712 0.6275
C30 C 0.8237(2) 0.67059(19) 0.74526(19)
H26 H 0.8904 0.6523 0.7975
H27 H 0.7460 0.6300 0.7480
C31 C 0.8450(2) 0.79757(19) 0.7806(2)
H28 H 0.9145 0.8366 0.7648
H29 H 0.7719 0.8136 0.7355
C32 C 0.8715(3) 0.8452(2) 0.9026(2)
H30 H 0.8015 0.8097 0.9182
H31 H 0.8863 0.9272 0.9207
H32 H 0.9438 0.8297 0.9478
S4 S 0.80217(6) 1.02275(5) 0.11645(5)
O6 O 0.84712(17) 1.15060(13) 0.15554(14)
C33 C 0.8770(3) 0.9777(3) 0.2315(3)
C34 C 0.6552(3) 0.9804(3) 0.1199(3)
D7 D 0.834(3) 0.897(3) 0.213(2)
D8 D 0.957(4) 0.994(3) 0.239(3)
D9 D 0.875(3) 1.027(3) 0.298(3)
D10 D 0.628(3) 0.899(3) 0.105(2)
D11 D 0.661(3) 1.019(2) 0.194(3)
D12 D 0.607(3) 1.006(3) 0.069(3)
loop_
_geom_bond_atom_site_label_1
_geom_bond_atom_site_label_2
_geom_bond_site_symmetry_1
_geom_bond_site_symmetry_2
C1 S1 1_555 1_555
S1 C2 1_555 1_555
C2 O1 1_555 1_555
N1 C2 1_555 1_555
C3 N1 1_555 1_555
O2 C3 1_555 1_555
N2 C3 1_555 1_555
H1 N2 1_555 1_555
C4 N2 1_555 1_555
C5 C4 1_555 1_555
H2 C5 1_555 1_555
C6 C5 1_555 1_555
H3 C6 1_555 1_555
C7 C6 1_555 1_555
C8 C7 1_555 1_555
H4 C8 1_555 1_555
H5 C8 1_555 1_555
H6 C8 1_555 1_555
C9 C7 1_555 1_555
H7 C9 1_555 1_555
C10 C4 1_555 1_555
C11 C1 1_555 1_555
C12 C1 1_555 1_555
H8 C12 1_555 1_555
H9 C12 1_555 1_555
C13 C12 1_555 1_555
H10 C13 1_555 1_555
H11 C13 1_555 1_555
C14 C13 1_555 1_555
H12 C14 1_555 1_555
H13 C14 1_555 1_555
C15 C14 1_555 1_555
H14 C15 1_555 1_555
H15 C15 1_555 1_555
H16 C15 1_555 1_555
S2 O3 1_555 1_555
C16 S2 1_555 1_555
C17 S2 1_555 1_555
D1 C16 1_555 1_555
D2 C16 1_555 1_555
D3 C16 1_555 1_555
D4 C17 1_555 1_555
D5 C17 1_555 1_555
D6 C17 1_555 1_555
C18 S3 1_555 1_555
S3 C19 1_555 1_555
C19 O4 1_555 1_555
N3 C19 1_555 1_555
C20 N3 1_555 1_555
O5 C20 1_555 1_555
N4 C20 1_555 1_555
H17 N4 1_555 1_555
C21 N4 1_555 1_555
C22 C21 1_555 1_555
H18 C22 1_555 1_555
C23 C22 1_555 1_555
H19 C23 1_555 1_555
C24 C23 1_555 1_555
C25 C24 1_555 1_555
H20 C25 1_555 1_555
H21 C25 1_555 1_555
H22 C25 1_555 1_555
C26 C24 1_555 1_555
H23 C26 1_555 1_555
C27 C21 1_555 1_555
C28 C18 1_555 1_555
C29 C18 1_555 1_555
H24 C29 1_555 1_555
H25 C29 1_555 1_555
C30 C29 1_555 1_555
H26 C30 1_555 1_555
H27 C30 1_555 1_555
C31 C30 1_555 1_555
H28 C31 1_555 1_555
H29 C31 1_555 1_555
C32 C31 1_555 1_555
H30 C32 1_555 1_555
H31 C32 1_555 1_555
H32 C32 1_555 1_555
S4 O6 1_555 1_555
C33 S4 1_555 1_555
C34 S4 1_555 1_555
D7 C33 1_555 1_555
D8 C33 1_555 1_555
D9 C33 1_555 1_555
D10 C34 1_555 1_555
D11 C34 1_555 1_555
D12 C34 1_555 1_555
N1 C11 1_555 1_555
C9 C10 1_555 1_555
C10 C11 1_555 1_555
N3 C28 1_555 1_555
C26 C27 1_555 1_555
C27 C28 1_555 1_555

#END
