
#######################################################################
#
#                 Cambridge Crystallographic Data Centre
#                                CCDC 
#
#######################################################################
#
# If this CIF has been generated from an entry in the Cambridge 
# Structural Database, then it will include bibliographic, chemical, 
# crystal, experimental, refinement or atomic coordinate data resulting 
# from the CCDC's data processing and validation procedures.
#
#######################################################################

data_FOZCIG
_chemical_formula_moiety         'C15 H23 N2 O2 P1'
_chemical_name_systematic        
(2S,4S,5R)-3,4-Dimethyl-5-phenyl-2-piperidyl-1,3,2-oxazaphospholidin-2-one
_symmetry_cell_setting           orthorhombic
_symmetry_space_group_name_H-M   'P 21 21 21'
_symmetry_Int_Tables_number      19
_space_group_name_Hall           'P 2ac 2ab'
loop_
_symmetry_equiv_pos_site_id
_symmetry_equiv_pos_as_xyz
1 x,y,z
2 1/2-x,-y,1/2+z
3 -x,1/2+y,1/2-z
4 1/2+x,1/2-y,-z
_cell_length_a                   6.3993(2)
_cell_length_b                   11.1534(3)
_cell_length_c                   22.5456(7)
_cell_angle_alpha                90
_cell_angle_beta                 90
_cell_angle_gamma                90
_cell_volume                     1609.17
_chemical_melting_point          '129-130 deg.C'
_cell_formula_units_Z            4
loop_
_atom_site_label
_atom_site_type_symbol
_atom_site_fract_x
_atom_site_fract_y
_atom_site_fract_z
P1 P 0.13984(14) 0.82894(9) 0.13136(4)
O1 O 0.2409(4) 0.9558(2) 0.14898(12)
O2 O -0.0681(4) 0.8393(3) 0.10456(13)
N1 N 0.3391(5) 0.7879(3) 0.08990(13)
N2 N 0.1317(5) 0.7437(3) 0.18966(15)
C1 C 0.4467(5) 0.9735(3) 0.1235(2)
H1 H 0.5501(5) 0.9450(3) 0.1523(2)
C2 C 0.4881(7) 1.1042(4) 0.1122(2)
C3 C 0.3357(8) 1.1904(4) 0.1181(2)
H2 H 0.2021(8) 1.1685(4) 0.1303(2)
C4 C 0.3805(10) 1.3099(4) 0.1061(3)
H3 H 0.2773(10) 1.3680(4) 0.1103(3)
C5 C 0.5784(10) 1.3418(5) 0.0880(3)
H4 H 0.6085(10) 1.4216(5) 0.0796(3)
C6 C 0.7312(10) 1.2564(5) 0.0822(3)
H5 H 0.8646(10) 1.2782(5) 0.0699(3)
C7 C 0.6866(7) 1.1380(4) 0.0948(2)
H6 H 0.7911(7) 1.0805(4) 0.0915(2)
C8 C 0.4578(6) 0.8920(3) 0.06909(15)
H7 H 0.6034(6) 0.8683(3) 0.06239(15)
C9 C 0.3707(7) 0.9480(4) 0.0124(2)
H8 H 0.3829(7) 0.8918(4) -0.0197(2)
H9 H 0.4481(7) 1.0193(4) 0.0031(2)
H10 H 0.2262(7) 0.9681(4) 0.0182(2)
C10 C 0.3530(7) 0.6755(4) 0.0584(2)
H11 H 0.2664(7) 0.6170(4) 0.0776(2)
H12 H 0.4954(7) 0.6484(4) 0.0584(2)
H13 H 0.3065(7) 0.6865(4) 0.0183(2)
C11 C -0.0528(6) 0.6776(4) 0.2085(2)
H14 H -0.1687(6) 0.6959(4) 0.1823(2)
H15 H -0.0914(6) 0.7017(4) 0.2484(2)
C12 C -0.0091(7) 0.5430(4) 0.2073(2)
H16 H -0.1300(7) 0.4999(4) 0.2221(2)
H17 H 0.0158(7) 0.5176(4) 0.1667(2)
C13 C 0.1793(7) 0.5132(4) 0.2449(2)
H18 H 0.2119(7) 0.4286(4) 0.2409(2)
H19 H 0.1476(7) 0.5289(4) 0.2863(2)
C14 C 0.3672(7) 0.5873(4) 0.2263(2)
H20 H 0.4823(7) 0.5722(4) 0.2533(2)
H21 H 0.4108(7) 0.5636(4) 0.1868(2)
C15 C 0.3157(7) 0.7193(4) 0.2266(2)
H22 H 0.2886(7) 0.7452(4) 0.2669(2)
H23 H 0.4341(7) 0.7644(4) 0.2117(2)
loop_
_geom_bond_atom_site_label_1
_geom_bond_atom_site_label_2
_geom_bond_site_symmetry_1
_geom_bond_site_symmetry_2
P1 O1 1_555 1_555
O1 C1 1_555 1_555
O2 P1 1_555 1_555
N1 P1 1_555 1_555
N2 P1 1_555 1_555
C1 H1 1_555 1_555
C2 C1 1_555 1_555
C3 C2 1_555 1_555
H2 C3 1_555 1_555
C4 C3 1_555 1_555
H3 C4 1_555 1_555
C5 C4 1_555 1_555
H4 C5 1_555 1_555
C6 C5 1_555 1_555
H5 C6 1_555 1_555
C7 C2 1_555 1_555
H6 C7 1_555 1_555
C8 N1 1_555 1_555
H7 C8 1_555 1_555
C9 C8 1_555 1_555
H8 C9 1_555 1_555
H9 C9 1_555 1_555
H10 C9 1_555 1_555
C10 N1 1_555 1_555
H11 C10 1_555 1_555
H12 C10 1_555 1_555
H13 C10 1_555 1_555
C11 N2 1_555 1_555
H14 C11 1_555 1_555
H15 C11 1_555 1_555
C12 C11 1_555 1_555
H16 C12 1_555 1_555
H17 C12 1_555 1_555
C13 C12 1_555 1_555
H18 C13 1_555 1_555
H19 C13 1_555 1_555
C14 C13 1_555 1_555
H20 C14 1_555 1_555
H21 C14 1_555 1_555
C15 N2 1_555 1_555
H22 C15 1_555 1_555
H23 C15 1_555 1_555
C1 C8 1_555 1_555
C6 C7 1_555 1_555
C14 C15 1_555 1_555

#END
