
#######################################################################
#
#                 Cambridge Crystallographic Data Centre
#                                CCDC 
#
#######################################################################
#
# If this CIF has been generated from an entry in the Cambridge 
# Structural Database, then it will include bibliographic, chemical, 
# crystal, experimental, refinement or atomic coordinate data resulting 
# from the CCDC's data processing and validation procedures.
#
#######################################################################

data_FOZCIH
_chemical_formula_moiety         'C23 H22 N2 O2 S1'
_chemical_name_systematic        
4,6-bis(2-(4-Methoxyphenyl)vinyl)-2-(methylsulfanyl)pyrimidine
_symmetry_cell_setting           monoclinic
_symmetry_space_group_name_H-M   'C 2/c'
_symmetry_Int_Tables_number      15
_space_group_name_Hall           '-C 2yn'
loop_
_symmetry_equiv_pos_site_id
_symmetry_equiv_pos_as_xyz
1 x,y,z
2 -x,y,1/2-z
3 1/2+x,1/2+y,z
4 1/2-x,1/2+y,1/2-z
5 -x,-y,-z
6 x,-y,1/2+z
7 1/2-x,1/2-y,-z
8 1/2+x,1/2-y,1/2+z
_cell_length_a                   35.276(5)
_cell_length_b                   5.122(5)
_cell_length_c                   22.591(5)
_cell_angle_alpha                90
_cell_angle_beta                 94.947(5)
_cell_angle_gamma                90
_cell_volume                     4066.62
_exptl_crystal_colour            orange-yellow
_exptl_crystal_description       plate
_chemical_melting_point          '164.3 deg.C'
_cell_formula_units_Z            8
_exptl_crystal_preparation       fluorescent
loop_
_atom_site_label
_atom_site_type_symbol
_atom_site_fract_x
_atom_site_fract_y
_atom_site_fract_z
S1 S 0.87024(4) 0.4453(3) 0.27569(6)
N1 N 0.90919(10) 0.1583(8) 0.35346(16)
O1 O 0.75899(10) 1.1244(8) 0.67986(15)
N2 N 0.86407(10) 0.4482(8) 0.39291(17)
O2 O 1.08440(9) -0.9709(7) 0.38353(16)
C1 C 0.99417(12) -0.4457(9) 0.37626(19)
C2 C 1.05390(12) -0.8054(9) 0.3780(2)
C3 C 0.96276(12) -0.2557(9) 0.3725(2)
H1 H 0.9501 -0.2306 0.3351
C4 C 0.88191(12) 0.3429(9) 0.3493(2)
C5 C 0.81364(13) 0.7829(10) 0.5430(2)
C6 C 0.90374(13) 0.1763(10) 0.4572(2)
H2 H 0.9116 0.1193 0.4954
C7 C 0.99842(13) -0.6094(10) 0.3292(2)
H3 H 0.9808 -0.5997 0.2962
C8 C 1.02782(13) -0.7887(10) 0.3290(2)
H4 H 1.0300 -0.8962 0.2962
C9 C 0.95065(13) -0.1177(10) 0.4160(2)
H5 H 0.9623 -0.1451 0.4540
C10 C 1.02093(13) -0.4662(10) 0.4249(2)
H6 H 1.0189 -0.3579 0.4576
C11 C 0.83234(13) 0.6636(10) 0.4946(2)
H7 H 0.8261 0.7321 0.4569
C12 C 0.77585(13) 1.0189(10) 0.6333(2)
C13 C 0.92019(12) 0.0759(9) 0.4090(2)
C14 C 0.87548(12) 0.3620(9) 0.4484(2)
C15 C 1.05026(13) -0.6428(10) 0.4258(2)
H8 H 1.0678 -0.6528 0.4589
C16 C 0.85697(12) 0.4702(10) 0.4982(2)
H9 H 0.8631 0.3968 0.5354
C17 C 1.09086(16) -1.1287(11) 0.3333(3)
H10 H 1.0701 -1.2488 0.3257
H11 H 1.1142 -1.2242 0.3413
H12 H 1.0926 -1.0191 0.2992
C18 C 0.82198(16) 0.7264(14) 0.6016(2)
H13 H 0.8409 0.6044 0.6122
C19 C 0.7857(2) 0.9611(15) 0.5317(3)
H14 H 0.7789 1.0074 0.4925
C20 C 0.73093(17) 1.3209(13) 0.6688(3)
H15 H 0.7417 1.4665 0.6494
H16 H 0.7221 1.3774 0.7057
H17 H 0.7100 1.2518 0.6437
C21 C 0.83645(15) 0.6999(11) 0.2841(2)
H18 H 0.8155 0.6322 0.3037
H19 H 0.8274 0.7656 0.2457
H20 H 0.8484 0.8386 0.3074
C22 C 0.80345(17) 0.8435(14) 0.6455(3)
H21 H 0.8103 0.7994 0.6849
C23 C 0.7669(2) 1.0780(14) 0.5760(3)
H22 H 0.7478 1.1992 0.5659
loop_
_geom_bond_atom_site_label_1
_geom_bond_atom_site_label_2
_geom_bond_site_symmetry_1
_geom_bond_site_symmetry_2
S1 C4 1_555 1_555
N1 C4 1_555 1_555
O1 C12 1_555 1_555
N2 C4 1_555 1_555
O2 C2 1_555 1_555
C1 C3 1_555 1_555
C2 C8 1_555 1_555
C3 H1 1_555 1_555
C5 C11 1_555 1_555
C6 H2 1_555 1_555
C7 C1 1_555 1_555
H3 C7 1_555 1_555
C8 C7 1_555 1_555
H4 C8 1_555 1_555
C9 C3 1_555 1_555
H5 C9 1_555 1_555
C10 C1 1_555 1_555
H6 C10 1_555 1_555
C11 H7 1_555 1_555
C12 C22 1_555 1_555
C13 N1 1_555 1_555
C14 N2 1_555 1_555
C15 C2 1_555 1_555
H8 C15 1_555 1_555
C16 C11 1_555 1_555
H9 C16 1_555 1_555
C17 O2 1_555 1_555
H10 C17 1_555 1_555
H11 C17 1_555 1_555
H12 C17 1_555 1_555
C18 C5 1_555 1_555
H13 C18 1_555 1_555
C19 C5 1_555 1_555
H14 C19 1_555 1_555
C20 O1 1_555 1_555
H15 C20 1_555 1_555
H16 C20 1_555 1_555
H17 C20 1_555 1_555
C21 S1 1_555 1_555
H18 C21 1_555 1_555
H19 C21 1_555 1_555
H20 C21 1_555 1_555
C22 C18 1_555 1_555
H21 C22 1_555 1_555
C23 C12 1_555 1_555
H22 C23 1_555 1_555
C6 C13 1_555 1_555
C6 C14 1_555 1_555
C9 C13 1_555 1_555
C10 C15 1_555 1_555
C14 C16 1_555 1_555
C19 C23 1_555 1_555

#END
