
#######################################################################
#
#                 Cambridge Crystallographic Data Centre
#                                CCDC 
#
#######################################################################
#
# If this CIF has been generated from an entry in the Cambridge 
# Structural Database, then it will include bibliographic, chemical, 
# crystal, experimental, refinement or atomic coordinate data resulting 
# from the CCDC's data processing and validation procedures.
#
#######################################################################

data_FOZCON
_chemical_formula_moiety         'C21 H16 F2 N2 S1'
_chemical_name_systematic        
4,6-bis(2-(4-Fluorophenyl)vinyl)-2-(methylsulfanyl)pyrimidine
_symmetry_cell_setting           orthorhombic
_symmetry_space_group_name_H-M   'P 21 21 21'
_symmetry_Int_Tables_number      19
_space_group_name_Hall           'P 2ac 2ab'
loop_
_symmetry_equiv_pos_site_id
_symmetry_equiv_pos_as_xyz
1 x,y,z
2 1/2-x,-y,1/2+z
3 1/2+x,1/2-y,-z
4 -x,1/2+y,1/2-z
_cell_length_a                   4.594(5)
_cell_length_b                   13.920(5)
_cell_length_c                   27.988(5)
_cell_angle_alpha                90
_cell_angle_beta                 90
_cell_angle_gamma                90
_cell_volume                     1789.79
_exptl_crystal_colour            'pale yellow'
_exptl_crystal_description       plate
_chemical_melting_point          '148.4 deg.C'
_cell_formula_units_Z            4
_exptl_crystal_preparation       fluorescent
loop_
_atom_site_label
_atom_site_type_symbol
_atom_site_fract_x
_atom_site_fract_y
_atom_site_fract_z
S1 S 0.13891(16) 0.29238(4) 0.19120(2)
N1 N 0.4633(4) 0.45013(13) 0.19962(6)
F1 F -0.2649(4) 0.59029(11) 0.55410(4)
N2 N 0.1538(4) 0.40480(12) 0.26466(6)
F2 F 1.6834(4) 0.81080(11) 0.06460(6)
C1 C 0.2411(5) 0.48246(17) 0.28886(7)
C2 C 0.5525(5) 0.52791(15) 0.22461(7)
C3 C 0.2703(5) 0.39442(15) 0.22117(7)
C4 C 1.1005(5) 0.63985(16) 0.13693(7)
C5 C 0.4396(5) 0.54674(16) 0.26963(7)
H1 H 0.4957 0.6012 0.2865
C6 C 0.8884(5) 0.57764(16) 0.16108(7)
H2 H 0.8340 0.5222 0.1449
C7 C 0.7670(5) 0.59153(16) 0.20294(7)
H3 H 0.8219 0.6459 0.2200
C8 C 0.1117(6) 0.49288(17) 0.33689(7)
H4 H -0.0313 0.4485 0.3450
C9 C 1.2154(5) 0.72227(17) 0.15739(8)
H5 H 1.1577 0.7396 0.1880
C10 C -0.1471(6) 0.49916(17) 0.43573(8)
H6 H -0.2096 0.4486 0.4166
C11 C 0.0504(5) 0.56393(18) 0.41739(7)
C12 C -0.1589(6) 0.58043(19) 0.50898(8)
C13 C 1.4930(6) 0.7538(2) 0.08854(10)
C14 C 1.3866(6) 0.6736(2) 0.06659(9)
H7 H 1.4429 0.6578 0.0357
C15 C 1.4125(6) 0.77897(17) 0.13354(9)
H8 H 1.4893 0.8336 0.1479
C16 C 0.1738(6) 0.55628(17) 0.36888(7)
H9 H 0.3115 0.6022 0.3604
C17 C 0.1408(6) 0.63720(17) 0.44699(8)
H10 H 0.2750 0.6819 0.4358
C18 C 1.1937(6) 0.61666(18) 0.09139(8)
H11 H 1.1239 0.5609 0.0771
C19 C 0.0348(6) 0.6452(2) 0.49311(8)
H12 H 0.0969 0.6949 0.5129
C20 C -0.2541(6) 0.50669(19) 0.48109(8)
H13 H -0.3886 0.4625 0.4927
C21 C 0.3150(6) 0.30359(18) 0.13451(7)
H14 H 0.2542 0.3622 0.1194
H15 H 0.2632 0.2500 0.1147
H16 H 0.5221 0.3046 0.1390
loop_
_geom_bond_atom_site_label_1
_geom_bond_atom_site_label_2
_geom_bond_site_symmetry_1
_geom_bond_site_symmetry_2
S1 C3 1_555 1_555
N1 C2 1_555 1_555
F1 C12 1_555 1_555
N2 C1 1_555 1_555
F2 C13 1_555 1_555
C1 C5 1_555 1_555
C2 C5 1_555 1_555
C3 N1 1_555 1_555
C4 C6 1_555 1_555
C5 H1 1_555 1_555
C6 H2 1_555 1_555
C7 C2 1_555 1_555
H3 C7 1_555 1_555
C8 C1 1_555 1_555
H4 C8 1_555 1_555
C9 C4 1_555 1_555
H5 C9 1_555 1_555
C10 H6 1_555 1_555
C11 C10 1_555 1_555
C12 C19 1_555 1_555
C13 C14 1_555 1_555
C14 H7 1_555 1_555
C15 C9 1_555 1_555
H8 C15 1_555 1_555
C16 C8 1_555 1_555
H9 C16 1_555 1_555
C17 C11 1_555 1_555
H10 C17 1_555 1_555
C18 C4 1_555 1_555
H11 C18 1_555 1_555
C19 C17 1_555 1_555
H12 C19 1_555 1_555
C20 C10 1_555 1_555
H13 C20 1_555 1_555
C21 S1 1_555 1_555
H14 C21 1_555 1_555
H15 C21 1_555 1_555
H16 C21 1_555 1_555
N2 C3 1_555 1_555
C6 C7 1_555 1_555
C11 C16 1_555 1_555
C12 C20 1_555 1_555
C13 C15 1_555 1_555
C14 C18 1_555 1_555

#END
