
#######################################################################
#
#                 Cambridge Crystallographic Data Centre
#                                CCDC 
#
#######################################################################
#
# If this CIF has been generated from an entry in the Cambridge 
# Structural Database, then it will include bibliographic, chemical, 
# crystal, experimental, refinement or atomic coordinate data resulting 
# from the CCDC's data processing and validation procedures.
#
#######################################################################

data_FOZCED
_chemical_formula_moiety         'C23 H22 N2 S1'
_chemical_name_systematic        
4,6-bis(2-(p-Tolyl)vinyl)-2-(methylsulfanyl)pyrimidine
_symmetry_cell_setting           monoclinic
_symmetry_space_group_name_H-M   'P 21'
_symmetry_Int_Tables_number      4
_space_group_name_Hall           'P 2yb'
loop_
_symmetry_equiv_pos_site_id
_symmetry_equiv_pos_as_xyz
1 x,y,z
2 -x,1/2+y,-z
_cell_length_a                   6.1191(2)
_cell_length_b                   8.7477(3)
_cell_length_c                   18.4086(6)
_cell_angle_alpha                90
_cell_angle_beta                 91.006(2)
_cell_angle_gamma                90
_cell_volume                     985.225
_exptl_crystal_colour            'pale yellow'
_exptl_crystal_description       plate
_chemical_melting_point          '170.3 deg.C'
_cell_formula_units_Z            2
_exptl_crystal_preparation       fluorescent
loop_
_atom_site_label
_atom_site_type_symbol
_atom_site_fract_x
_atom_site_fract_y
_atom_site_fract_z
S1 S 0.18858(14) 0.39727(9) 0.35243(4)
N1 N 0.4728(4) 0.5869(2) 0.30497(13)
N2 N 0.1741(3) 0.5351(2) 0.22239(11)
C1 C -0.1782(4) 0.6085(3) 0.02218(14)
C2 C 0.1409(4) 0.6562(3) 0.10566(15)
H1 H 0.2014 0.7214 0.0715
C3 C 0.4583(4) 0.7056(3) 0.18867(15)
H2 H 0.5209 0.7692 0.1543
C4 C 0.7595(5) 0.7646(3) 0.27747(17)
H3 H 0.8418 0.8113 0.2417
C5 C -0.0486(5) 0.5912(3) 0.08948(15)
H4 H -0.1064 0.5273 0.1247
C6 C 1.0115(5) 0.8596(3) 0.37633(16)
C7 C 0.2853(4) 0.5193(3) 0.28527(14)
C8 C 0.8258(4) 0.7744(3) 0.34680(15)
H5 H 0.7436 0.7205 0.3802
C9 C -0.4420(5) 0.6389(3) -0.10376(16)
C10 C -0.2436(5) 0.7148(4) -0.09702(17)
H6 H -0.1958 0.7756 -0.1350
C11 C 0.2620(4) 0.6317(3) 0.17428(14)
C12 C 0.5597(4) 0.6817(3) 0.25637(16)
C13 C 1.3529(5) 1.0311(3) 0.44082(16)
C14 C -0.5037(5) 0.5470(4) -0.04823(16)
H7 H -0.6347 0.4935 -0.0522
C15 C 1.1937(5) 0.9669(3) 0.48197(17)
H8 H 1.1981 0.9808 0.5321
C16 C -0.3755(4) 0.5313(3) 0.01448(15)
H9 H -0.4225 0.4682 0.0517
C17 C 1.1734(5) 0.9234(3) 0.33469(16)
H10 H 1.1694 0.9101 0.2846
C18 C 1.0272(5) 0.8822(3) 0.45116(16)
H11 H 0.9226 0.8389 0.4809
C19 C -0.1162(5) 0.7014(3) -0.03491(17)
H12 H 0.0140 0.7559 -0.0312
C20 C 1.3412(5) 1.0065(3) 0.36657(17)
H13 H 1.4493 1.0472 0.3374
C21 C 1.5346(5) 1.1276(4) 0.47436(18)
H14 H 1.5010 1.2339 0.4678
H15 H 1.6700 1.1044 0.4512
H16 H 1.5477 1.1054 0.5253
C22 C -0.0552(5) 0.3188(4) 0.3126(2)
H17 H -0.1608 0.3987 0.3053
H18 H -0.1137 0.2428 0.3445
H19 H -0.0220 0.2729 0.2668
C23 C -0.5835(6) 0.6590(5) -0.17180(17)
H20 H -0.5438 0.5839 -0.2072
H21 H -0.5615 0.7595 -0.1913
H22 H -0.7345 0.6464 -0.1598
loop_
_geom_bond_atom_site_label_1
_geom_bond_atom_site_label_2
_geom_bond_site_symmetry_1
_geom_bond_site_symmetry_2
S1 C7 1_555 1_555
N1 C7 1_555 1_555
N2 C7 1_555 1_555
C1 C5 1_555 1_555
C2 H1 1_555 1_555
C3 H2 1_555 1_555
C4 H3 1_555 1_555
C5 C2 1_555 1_555
H4 C5 1_555 1_555
C6 C8 1_555 1_555
C8 C4 1_555 1_555
H5 C8 1_555 1_555
C9 C10 1_555 1_555
C10 H6 1_555 1_555
C11 N2 1_555 1_555
C12 N1 1_555 1_555
C13 C15 1_555 1_555
C14 C9 1_555 1_555
H7 C14 1_555 1_555
C15 H8 1_555 1_555
C16 C1 1_555 1_555
H9 C16 1_555 1_555
C17 C6 1_555 1_555
H10 C17 1_555 1_555
C18 C6 1_555 1_555
H11 C18 1_555 1_555
C19 C1 1_555 1_555
H12 C19 1_555 1_555
C20 C13 1_555 1_555
H13 C20 1_555 1_555
C21 C13 1_555 1_555
H14 C21 1_555 1_555
H15 C21 1_555 1_555
H16 C21 1_555 1_555
C22 S1 1_555 1_555
H17 C22 1_555 1_555
H18 C22 1_555 1_555
H19 C22 1_555 1_555
C23 C9 1_555 1_555
H20 C23 1_555 1_555
H21 C23 1_555 1_555
H22 C23 1_555 1_555
C2 C11 1_555 1_555
C3 C11 1_555 1_555
C3 C12 1_555 1_555
C4 C12 1_555 1_555
C10 C19 1_555 1_555
C14 C16 1_555 1_555
C15 C18 1_555 1_555
C17 C20 1_555 1_555

#END
