
#######################################################################
#
#                 Cambridge Crystallographic Data Centre
#                                CCDC 
#
#######################################################################
#
# If this CIF has been generated from an entry in the Cambridge 
# Structural Database, then it will include bibliographic, chemical, 
# crystal, experimental, refinement or atomic coordinate data resulting 
# from the CCDC's data processing and validation procedures.
#
#######################################################################

data_FOZFUV
_chemical_formula_moiety         'C26 H36 N1 O3 P1'
_chemical_name_systematic        
(2S,4S,5R)-2-((1R,2S,5R)-8-Phenylmenthoxy)-3,4-dimethyl-5-phenyl-1,3,2-oxazaphospholidin-2-one
_symmetry_cell_setting           orthorhombic
_symmetry_space_group_name_H-M   'P 21 21 21'
_symmetry_Int_Tables_number      19
_space_group_name_Hall           'P 2ac 2ab'
loop_
_symmetry_equiv_pos_site_id
_symmetry_equiv_pos_as_xyz
1 x,y,z
2 1/2+x,1/2-y,-z
3 -x,1/2+y,1/2-z
4 1/2-x,-y,1/2+z
_cell_length_a                   10.0953(23)
_cell_length_b                   10.675(5)
_cell_length_c                   23.651(5)
_cell_angle_alpha                90
_cell_angle_beta                 90
_cell_angle_gamma                90
_cell_volume                     2548.81
_chemical_melting_point          '158-160 deg.C'
_cell_formula_units_Z            4
loop_
_atom_site_label
_atom_site_type_symbol
_atom_site_fract_x
_atom_site_fract_y
_atom_site_fract_z
P1 P 0.95126(14) 0.44402(11) 0.19648(5)
O1 O 0.9008(4) 0.5369(3) 0.14900(12)
O2 O 0.9475(4) 0.5021(3) 0.25253(13)
O3 O 1.0934(3) 0.4024(3) 0.17396(12)
N1 N 0.8810(4) 0.3087(4) 0.18791(17)
C1 C 0.8785(5) 0.6701(4) 0.15858(18)
C2 C 0.7395(5) 0.6860(5) 0.18244(20)
C3 C 0.7044(5) 0.8226(5) 0.19326(22)
C4 C 0.7193(5) 0.8938(5) 0.13843(22)
C5 C 0.8581(5) 0.8791(5) 0.11403(21)
C6 C 0.8956(5) 0.7403(4) 0.10294(18)
C7 C 1.0363(5) 0.7294(4) 0.07519(19)
C8 C 1.0491(5) 0.8245(4) 0.02681(19)
C9 C 1.1424(6) 0.9183(5) 0.02610(23)
C10 C 1.1532(6) 1.0004(5) -0.0192(3)
C11 C 1.0701(6) 0.9900(6) -0.06429(24)
C12 C 0.9751(6) 0.8997(7) -0.06404(24)
C13 C 0.9654(6) 0.8159(5) -0.01956(21)
C14 C 0.9620(5) 0.2228(4) 0.15588(18)
C15 C 1.1006(5) 0.2643(4) 0.17312(17)
C16 C 1.2156(5) 0.2247(4) 0.13687(17)
C17 C 1.2747(6) 0.1096(5) 0.14852(21)
C18 C 1.3822(6) 0.0708(6) 0.11701(24)
C19 C 1.4286(6) 0.1420(6) 0.0734(3)
C20 C 1.3718(7) 0.2552(6) 0.06153(25)
C21 C 1.2639(6) 0.2947(5) 0.09293(22)
C22 C 0.5656(7) 0.8351(7) 0.2189(3)
C23 C 1.1444(5) 0.7485(6) 0.11968(24)
C24 C 1.0566(7) 0.6005(5) 0.04865(23)
C25 C 0.7434(6) 0.2831(6) 0.2017(3)
C26 C 0.9338(6) 0.2212(5) 0.09362(20)
H1 H 0.941 0.704 0.185
H2 H 0.674 0.652 0.156
H3 H 0.729 0.636 0.217
H4 H 0.768 0.856 0.221
H5 H 0.653 0.859 0.112
H6 H 0.695 0.980 0.144
H7 H 0.922 0.914 0.139
H8 H 0.866 0.925 0.079
H9 H 0.829 0.707 0.077
H10 H 1.204 0.927 0.058
H11 H 1.221 1.065 -0.019
H12 H 1.076 1.046 -0.097
H13 H 0.914 0.892 -0.097
H14 H 0.896 0.751 -0.020
H15 H 0.945 0.138 0.170
H16 H 1.118 0.234 0.211
H17 H 1.239 0.056 0.179
H18 H 1.426 -0.009 0.125
H19 H 1.501 0.115 0.049
H20 H 1.412 0.311 0.034
H21 H 1.217 0.370 0.082
H22 H 0.545 0.922 0.227
H23 H 0.500 0.805 0.194
H24 H 0.557 0.790 0.254
H25 H 1.138 0.829 0.138
H26 H 1.144 0.685 0.149
H27 H 1.233 0.745 0.103
H28 H 0.985 0.585 0.019
H29 H 1.137 0.593 0.028
H30 H 1.047 0.533 0.074
H31 H 0.716 0.196 0.194
H32 H 0.723 0.296 0.242
H33 H 0.680 0.334 0.181
H34 H 0.989 0.161 0.074
H35 H 0.842 0.198 0.085
H36 H 0.949 0.301 0.077
loop_
_geom_bond_atom_site_label_1
_geom_bond_atom_site_label_2
_geom_bond_site_symmetry_1
_geom_bond_site_symmetry_2
P1 O1 1_555 1_555
O1 C1 1_555 1_555
O2 P1 1_555 1_555
O3 P1 1_555 1_555
N1 P1 1_555 1_555
C1 C2 1_555 1_555
C2 C3 1_555 1_555
C3 C4 1_555 1_555
C4 C5 1_555 1_555
C5 C6 1_555 1_555
C6 C1 1_555 1_555
C7 C6 1_555 1_555
C8 C7 1_555 1_555
C9 C8 1_555 1_555
C10 C9 1_555 1_555
C11 C10 1_555 1_555
C12 C11 1_555 1_555
C13 C8 1_555 1_555
C14 N1 1_555 1_555
C15 O3 1_555 1_555
C16 C15 1_555 1_555
C17 C16 1_555 1_555
C18 C17 1_555 1_555
C19 C18 1_555 1_555
C20 C19 1_555 1_555
C21 C16 1_555 1_555
C22 C3 1_555 1_555
C23 C7 1_555 1_555
C24 C7 1_555 1_555
C25 N1 1_555 1_555
C26 C14 1_555 1_555
H1 C1 1_555 1_555
H2 C2 1_555 1_555
H3 C2 1_555 1_555
H4 C3 1_555 1_555
H5 C4 1_555 1_555
H6 C4 1_555 1_555
H7 C5 1_555 1_555
H8 C5 1_555 1_555
H9 C6 1_555 1_555
H10 C9 1_555 1_555
H11 C10 1_555 1_555
H12 C11 1_555 1_555
H13 C12 1_555 1_555
H14 C13 1_555 1_555
H15 C14 1_555 1_555
H16 C15 1_555 1_555
H17 C17 1_555 1_555
H18 C18 1_555 1_555
H19 C19 1_555 1_555
H20 C20 1_555 1_555
H21 C21 1_555 1_555
H22 C22 1_555 1_555
H23 C22 1_555 1_555
H24 C22 1_555 1_555
H25 C23 1_555 1_555
H26 C23 1_555 1_555
H27 C23 1_555 1_555
H28 C24 1_555 1_555
H29 C24 1_555 1_555
H30 C24 1_555 1_555
H31 C25 1_555 1_555
H32 C25 1_555 1_555
H33 C25 1_555 1_555
H34 C26 1_555 1_555
H35 C26 1_555 1_555
H36 C26 1_555 1_555
C12 C13 1_555 1_555
C14 C15 1_555 1_555
C20 C21 1_555 1_555

#END
