
#######################################################################
#
#                 Cambridge Crystallographic Data Centre
#                                CCDC 
#
#######################################################################
#
# If this CIF has been generated from an entry in the Cambridge 
# Structural Database, then it will include bibliographic, chemical, 
# crystal, experimental, refinement or atomic coordinate data resulting 
# from the CCDC's data processing and validation procedures.
#
#######################################################################

data_FOZGOQ
_chemical_formula_moiety         'C26 H40 N4 O4 P2'
_chemical_name_systematic        
(2S,2'S,4S,4'S,5R,5'R)-N,N'-bis(3-Isopropyl-4-methyl-2-oxo-5-phenyl-1,3,2-oxazaphospholan-2-yl)ethane-1,2-diamine
_symmetry_cell_setting           orthorhombic
_symmetry_space_group_name_H-M   'P 21 21 2'
_symmetry_Int_Tables_number      18
_space_group_name_Hall           'P 2 2ab'
loop_
_symmetry_equiv_pos_site_id
_symmetry_equiv_pos_as_xyz
1 x,y,z
2 1/2+x,1/2-y,-z
3 1/2-x,1/2+y,-z
4 -x,-y,z
_cell_length_a                   6.798(3)
_cell_length_b                   29.629(8)
_cell_length_c                   7.2924(15)
_cell_angle_alpha                90
_cell_angle_beta                 90
_cell_angle_gamma                90
_cell_volume                     1468.82
_chemical_melting_point          '247-249 deg.C'
_cell_formula_units_Z            2
loop_
_atom_site_label
_atom_site_type_symbol
_atom_site_fract_x
_atom_site_fract_y
_atom_site_fract_z
P1 P 0.8652(3) 0.92896(6) 0.9883(4)
O1 O 1.0751(7) 0.93734(15) 0.9707(10)
O2 O 0.7712(9) 0.89186(17) 0.8512(8)
N1 N 0.7466(9) 0.97449(19) 0.9426(12)
N2 N 0.7902(12) 0.90319(22) 1.1787(11)
C1 C 0.5310(12) 0.9785(3) 0.9404(21)
C2 C 0.7660(12) 0.84866(24) 0.9433(12)
C3 C 0.7022(14) 0.8587(3) 1.1448(13)
C4 C 0.4855(17) 0.8584(3) 1.1828(16)
C5 C 0.8430(19) 0.9169(4) 1.3694(15)
C6 C 1.0278(21) 0.9005(5) 1.4327(17)
C7 C 0.759(3) 0.9570(5) 1.4252(18)
C8 C 0.6348(14) 0.8174(3) 0.8332(13)
C9 C 0.6769(13) 0.7716(3) 0.8366(13)
C10 C 0.5554(17) 0.7414(3) 0.7439(14)
C11 C 0.3965(18) 0.7562(3) 0.6555(14)
C12 C 0.3514(19) 0.8015(3) 0.6535(18)
C13 C 0.4680(19) 0.8320(3) 0.7467(17)
H1 H 0.821 0.999 0.971
H2 H 0.465 0.953 0.900
H3 H 0.896 0.837 0.931
H4 H 0.758 0.844 1.249
H5 H 0.468 0.826 1.190
H6 H 0.416 0.881 1.127
H7 H 0.473 0.869 1.308
H8 H 0.725 0.910 1.438
H9 H 1.074 0.926 1.364
H10 H 1.049 0.872 1.475
H11 H 1.076 0.915 1.540
H12 H 0.622 0.960 1.416
H13 H 0.854 0.968 1.509
H14 H 0.803 0.759 0.859
H15 H 0.544 0.711 0.700
H16 H 0.301 0.740 0.585
H17 H 0.239 0.811 0.588
H18 H 0.424 0.862 0.733
C1C C 0.4690(12) 1.0215(3) 0.9404(21)
N1C N 0.2534(9) 1.02551(19) 0.9426(12)
P1C P 0.1348(3) 1.07104(6) 0.9883(4)
O1C O -0.0751(7) 1.06266(15) 0.9707(10)
O2C O 0.2288(9) 1.10814(17) 0.8512(8)
C2C C 0.2340(12) 1.15134(24) 0.9433(12)
C3C C 0.2978(14) 1.1413(3) 1.1448(13)
N2C N 0.2098(12) 1.09681(22) 1.1787(11)
C5C C 0.1570(19) 1.0831(4) 1.3694(15)
C6C C -0.0278(21) 1.0995(5) 1.4327(17)
H9C H -0.074 1.074 1.364
H10C H -0.049 1.128 1.475
H11C H -0.076 1.085 1.540
C7C C 0.241(3) 1.0430(5) 1.4252(18)
H12C H 0.378 1.040 1.416
H13C H 0.146 1.032 1.509
H8C H 0.275 1.090 1.438
C4C C 0.5145(17) 1.1416(3) 1.1828(16)
H5C H 0.532 1.174 1.190
H6C H 0.584 1.119 1.127
H7C H 0.527 1.131 1.308
H4C H 0.242 1.156 1.249
C8C C 0.3652(14) 1.1826(3) 0.8332(13)
C9C C 0.3231(13) 1.2284(3) 0.8366(13)
C10C C 0.4446(17) 1.2586(3) 0.7439(14)
C11C C 0.6035(18) 1.2438(3) 0.6555(14)
C12C C 0.6486(19) 1.1985(3) 0.6535(18)
C13C C 0.5320(19) 1.1680(3) 0.7467(17)
H18C H 0.576 1.138 0.733
H17C H 0.761 1.189 0.588
H16C H 0.699 1.260 0.585
H15C H 0.456 1.289 0.700
H14C H 0.197 1.241 0.859
H3C H 0.104 1.163 0.931
H1C H 0.179 1.001 0.971
H2C H 0.535 1.047 0.900
H19? H 0.675 0.979 1.377
loop_
_geom_bond_atom_site_label_1
_geom_bond_atom_site_label_2
_geom_bond_site_symmetry_1
_geom_bond_site_symmetry_2
P1 O1 1_555 1_555
O2 P1 1_555 1_555
N1 P1 1_555 1_555
N2 P1 1_555 1_555
C1 N1 1_555 1_555
C2 O2 1_555 1_555
C3 N2 1_555 1_555
C4 C3 1_555 1_555
C5 N2 1_555 1_555
C6 C5 1_555 1_555
C7 C5 1_555 1_555
C8 C2 1_555 1_555
C9 C8 1_555 1_555
C10 C9 1_555 1_555
C11 C10 1_555 1_555
C12 C11 1_555 1_555
C13 C8 1_555 1_555
H1 N1 1_555 1_555
H2 C1 1_555 1_555
H3 C2 1_555 1_555
H4 C3 1_555 1_555
H5 C4 1_555 1_555
H6 C4 1_555 1_555
H7 C4 1_555 1_555
H8 C5 1_555 1_555
H9 C6 1_555 1_555
H10 C6 1_555 1_555
H11 C6 1_555 1_555
H12 C7 1_555 1_555
H13 C7 1_555 1_555
H14 C9 1_555 1_555
H15 C10 1_555 1_555
H16 C11 1_555 1_555
H17 C12 1_555 1_555
H18 C13 1_555 1_555
C1C C1 1_555 1_555
N1C C1C 1_555 1_555
P1C N1C 1_555 1_555
O1C P1C 1_555 1_555
O2C P1C 1_555 1_555
C2C O2C 1_555 1_555
C3C C2C 1_555 1_555
N2C P1C 1_555 1_555
C5C N2C 1_555 1_555
C6C C5C 1_555 1_555
H9C C6C 1_555 1_555
H10C C6C 1_555 1_555
H11C C6C 1_555 1_555
C7C C5C 1_555 1_555
H12C C7C 1_555 1_555
H13C C7C 1_555 1_555
H8C C5C 1_555 1_555
C4C C3C 1_555 1_555
H5C C4C 1_555 1_555
H6C C4C 1_555 1_555
H7C C4C 1_555 1_555
H4C C3C 1_555 1_555
C8C C2C 1_555 1_555
C9C C8C 1_555 1_555
C10C C9C 1_555 1_555
C11C C10C 1_555 1_555
C12C C11C 1_555 1_555
C13C C8C 1_555 1_555
H18C C13C 1_555 1_555
H17C C12C 1_555 1_555
H16C C11C 1_555 1_555
H15C C10C 1_555 1_555
H14C C9C 1_555 1_555
H3C C2C 1_555 1_555
H1C N1C 1_555 1_555
H2C C1C 1_555 1_555
C2 C3 1_555 1_555
C12 C13 1_555 1_555
C3C N2C 1_555 1_555
C12C C13C 1_555 1_555

#END
