
#######################################################################
#
#                 Cambridge Crystallographic Data Centre
#                                CCDC 
#
#######################################################################
#
# If this CIF has been generated from an entry in the Cambridge 
# Structural Database, then it will include bibliographic, chemical, 
# crystal, experimental, refinement or atomic coordinate data resulting 
# from the CCDC's data processing and validation procedures.
#
#######################################################################

data_FOZNOY
_chemical_formula_moiety         'C44 H38 N4 O8,C1 H2 Cl2'
_chemical_name_systematic        
'1,11-bis(4-Methoxyphenylethynyl)-13b,13c-bis(ethoxycarbonyl)-6H,13H-5,7,12,13b,13c,14-hexahydro-5a,6a,12a,13a-tetra-azabenz(5,6)azuleno-(2,1,8-ija)benz(f)azulene-6,13-dione dichloromethane solvate'
_symmetry_cell_setting           triclinic
_symmetry_space_group_name_H-M   'P -1'
_symmetry_Int_Tables_number      2
_space_group_name_Hall           '-P 1'
loop_
_symmetry_equiv_pos_site_id
_symmetry_equiv_pos_as_xyz
1 x,y,z
2 -x,-y,-z
_cell_length_a                   8.6676(19)
_cell_length_b                   13.173(3)
_cell_length_c                   19.829(4)
_cell_angle_alpha                73.238(5)
_cell_angle_beta                 79.306(5)
_cell_angle_gamma                76.917(5)
_cell_volume                     2093.94
_exptl_crystal_colour            colorless
_exptl_crystal_description       block
_cell_formula_units_Z            2
_exptl_crystal_recrystallization_method dichloromethane/methanol
_exptl_crystal_preparation       fluorescent
loop_
_atom_site_label
_atom_site_type_symbol
_atom_site_fract_x
_atom_site_fract_y
_atom_site_fract_z
C1 C 0.2147(9) 1.2288(9) 0.5515(5)
H1 H 0.2116 1.2040 0.5108
H2 H 0.1128 1.2711 0.5633
H3 H 0.2387 1.1680 0.5909
C2 C 0.4866(9) 1.2556(8) 0.5047(4)
C3 C 0.6003(10) 1.3186(6) 0.4907(4)
H4 H 0.5731 1.3853 0.5013
C4 C 0.5288(9) 1.1590(7) 0.4904(4)
H5 H 0.4540 1.1144 0.5002
C5 C 0.7533(9) 1.2860(5) 0.4615(3)
H6 H 0.8277 1.3310 0.4514
C6 C 0.6785(9) 1.1261(5) 0.4619(4)
H7 H 0.7027 1.0592 0.4518
C7 C 0.7973(8) 1.1848(5) 0.4469(3)
C8 C 0.9562(9) 1.1453(5) 0.4167(4)
C9 C 1.0848(8) 1.1102(4) 0.3919(3)
C10 C 1.2419(7) 1.0679(5) 0.3605(3)
C11 C 1.3616(8) 1.1297(6) 0.3421(4)
H8 H 1.3372 1.1981 0.3500
C12 C 1.5077(9) 1.0959(7) 0.3141(4)
H9 H 1.5849 1.1390 0.3038
C13 C 1.5450(7) 0.9942(7) 0.3001(3)
H10 H 1.6471 0.9696 0.2797
C14 C 1.4305(6) 0.9308(5) 0.3166(3)
C15 C 1.2774(6) 0.9669(5) 0.3456(3)
C16 C 1.1514(6) 0.8965(4) 0.3677(3)
H11 H 1.1871 0.8335 0.4048
H12 H 1.0540 0.9362 0.3877
C17 C 1.4773(6) 0.8203(5) 0.3013(3)
H13 H 1.5880 0.8112 0.2798
H14 H 1.4704 0.7656 0.3460
C18 C 1.0122(6) 0.9244(4) 0.2639(3)
C19 C 1.4109(7) 0.8332(4) 0.1818(3)
C20 C 1.2663(6) 0.8616(4) 0.0814(3)
H15 H 1.2076 0.8169 0.0684
H16 H 1.3712 0.8556 0.0538
C21 C 0.9373(6) 0.9330(4) 0.1480(3)
H17 H 0.8345 0.9723 0.1637
H18 H 0.9177 0.8782 0.1284
C22 C 1.2208(6) 0.7794(4) 0.2797(3)
C23 C 1.2272(7) 0.6710(5) 0.3304(3)
C24 C 1.3679(18) 0.4902(8) 0.3516(6)
H19 H 1.2640 0.4693 0.3667
H20 H 1.4146 0.4841 0.3937
C25 C 1.4742(11) 0.4145(6) 0.3097(5)
H21 H 1.4257 0.4181 0.2691
H22 H 1.4874 0.3421 0.3393
H23 H 1.5766 0.4357 0.2942
O1 O 1.1312(11) 0.6531(8) 0.3860(4)
O2 O 1.3486(15) 0.6012(7) 0.3093(8)
C28 C 1.1558(6) 0.7916(5) 0.2089(3)
C29 C 1.1004(7) 0.6953(5) 0.2022(3)
C30 C 0.9120(13) 0.5759(9) 0.2587(7)
H29 H 0.9903 0.5165 0.2465
H30 H 0.8379 0.6016 0.2237
C31 C 0.8226(18) 0.5368(10) 0.3310(7)
H31 H 0.8964 0.5089 0.3655
H32 H 0.7689 0.4809 0.3304
H33 H 0.7454 0.5956 0.3433
O5 O 1.1414(11) 0.6472(6) 0.1536(4)
O6 O 0.9916(10) 0.6617(7) 0.2570(4)
C34 C 1.0258(6) 1.0097(4) 0.0903(3)
C35 C 1.1819(6) 0.9767(4) 0.0600(3)
C36 C 1.2571(6) 1.0528(4) 0.0067(3)
H39 H 1.3601 1.0312 -0.0141
C37 C 1.1811(7) 1.1605(4) -0.0160(3)
H40 H 1.2331 1.2105 -0.0504
C38 C 1.0309(7) 1.1890(4) 0.0135(3)
H41 H 0.9807 1.2605 -0.0015
C39 C 0.9464(6) 1.1193(4) 0.0646(3)
C40 C 0.7829(7) 1.1537(4) 0.0908(3)
C41 C 0.6471(7) 1.1834(4) 0.1092(3)
C42 C 0.4812(7) 1.2192(4) 0.1337(3)
C43 C 0.4304(7) 1.3237(4) 0.1445(3)
H42 H 0.5049 1.3681 0.1368
C44 C 0.3666(7) 1.1583(4) 0.1488(3)
H43 H 0.3968 1.0884 0.1434
C45 C 0.2137(6) 1.1914(4) 0.1710(3)
H44 H 0.1404 1.1460 0.1792
C46 C 0.2763(7) 1.3603(4) 0.1658(3)
H45 H 0.2458 1.4310 0.1696
C47 C 0.1630(6) 1.2963(5) 0.1821(3)
C48 C -0.1055(6) 1.2728(5) 0.2237(4)
H46 H -0.1256 1.2606 0.1809
H47 H -0.2019 1.3096 0.2454
H48 H -0.0701 1.2049 0.2559
N1 N 1.3810(5) 0.8016(3) 0.2549(3)
N2 N 1.1150(5) 0.8604(3) 0.3105(3)
N3 N 1.2861(5) 0.8179(3) 0.1553(2)
N4 N 1.0228(5) 0.8810(3) 0.2083(3)
O9 O 0.3387(7) 1.2952(5) 0.5351(3)
O10 O 0.9198(4) 1.0063(3) 0.2733(2)
O11 O 1.5298(4) 0.8675(3) 0.14871(19)
O12 O 0.0152(4) 1.3374(3) 0.2070(3)
C49 C 0.7016(12) 0.5665(11) 0.0195(5)
H49 H 0.7395 0.6276 -0.0148
H50 H 0.6828 0.5191 -0.0064
Cl1 Cl 0.8459(6) 0.4981(7) 0.0741(3)
Cl2 Cl 0.5256(6) 0.6111(5) 0.0674(5)
C26? C 1.326(3) 0.4730(15) 0.3342(15)
H24? H 1.4253 0.4465 0.3546
H25? H 1.3322 0.4381 0.2966
C27? C 1.192(7) 0.438(4) 0.391(3)
H26? H 1.2000 0.3615 0.4012
H27? H 1.0910 0.4737 0.3746
H28? H 1.1996 0.4571 0.4333
O3? O 1.1808(17) 0.6375(11) 0.3971(5)
O4? O 1.313(2) 0.5865(12) 0.3031(10)
C32? C 0.896(3) 0.606(2) 0.2242(19)
H34? H 0.9704 0.5401 0.2411
H35? H 0.9000 0.6177 0.1734
C33? C 0.729(3) 0.590(3) 0.259(2)
H36? H 0.7286 0.5144 0.2789
H37? H 0.6562 0.6186 0.2243
H38? H 0.6968 0.6268 0.2962
O7? O 1.2111(16) 0.6306(13) 0.1729(9)
O8? O 0.9467(12) 0.6938(12) 0.2371(8)
C50? C 0.757(4) 0.576(3) 0.044(2)
Cl3? Cl 0.7694(15) 0.4559(6) 0.0230(8)
Cl4? Cl 0.598(3) 0.5950(17) 0.1095(11)
H51? H 0.7438 0.6357 0.0021
H52? H 0.8556 0.5761 0.0609
loop_
_geom_bond_atom_site_label_1
_geom_bond_atom_site_label_2
_geom_bond_site_symmetry_1
_geom_bond_site_symmetry_2
C1 H1 1_555 1_555
H2 C1 1_555 1_555
H3 C1 1_555 1_555
C2 C3 1_555 1_555
C3 H4 1_555 1_555
C4 C2 1_555 1_555
H5 C4 1_555 1_555
C5 C3 1_555 1_555
H6 C5 1_555 1_555
C6 C4 1_555 1_555
H7 C6 1_555 1_555
C7 C5 1_555 1_555
C8 C7 1_555 1_555
C9 C8 1_555 1_555
C10 C9 1_555 1_555
C11 C10 1_555 1_555
H8 C11 1_555 1_555
C12 C11 1_555 1_555
H9 C12 1_555 1_555
C13 C12 1_555 1_555
H10 C13 1_555 1_555
C14 C13 1_555 1_555
C15 C10 1_555 1_555
C16 C15 1_555 1_555
H11 C16 1_555 1_555
H12 C16 1_555 1_555
C17 C14 1_555 1_555
H13 C17 1_555 1_555
H14 C17 1_555 1_555
C18 N2 1_555 1_555
C19 N1 1_555 1_555
C20 H15 1_555 1_555
H16 C20 1_555 1_555
C21 H17 1_555 1_555
H18 C21 1_555 1_555
C22 C23 1_555 1_555
C23 O1 1_555 1_555
C24 H19 1_555 1_555
H20 C24 1_555 1_555
C25 C24 1_555 1_555
H21 C25 1_555 1_555
H22 C25 1_555 1_555
H23 C25 1_555 1_555
O2 C23 1_555 1_555
C28 C22 1_555 1_555
C29 C28 1_555 1_555
C30 H29 1_555 1_555
H30 C30 1_555 1_555
C31 C30 1_555 1_555
H31 C31 1_555 1_555
H32 C31 1_555 1_555
H33 C31 1_555 1_555
O5 C29 1_555 1_555
O6 C29 1_555 1_555
C34 C21 1_555 1_555
C35 C20 1_555 1_555
C36 C35 1_555 1_555
H39 C36 1_555 1_555
C37 C36 1_555 1_555
H40 C37 1_555 1_555
C38 C37 1_555 1_555
H41 C38 1_555 1_555
C39 C34 1_555 1_555
C40 C39 1_555 1_555
C41 C40 1_555 1_555
C42 C41 1_555 1_555
C43 C42 1_555 1_555
H42 C43 1_555 1_555
C44 C42 1_555 1_555
H43 C44 1_555 1_555
C45 C44 1_555 1_555
H44 C45 1_555 1_555
C46 C43 1_555 1_555
H45 C46 1_555 1_555
C47 C45 1_555 1_555
C48 H46 1_555 1_555
H47 C48 1_555 1_555
H48 C48 1_555 1_555
C49 H49 1_555 1_555
H50 C49 1_555 1_555
Cl1 C49 1_555 1_555
Cl2 C49 1_555 1_555
N1 C17 1_555 1_555
N2 C16 1_555 1_555
N3 C19 1_555 1_555
N4 C18 1_555 1_555
O9 C1 1_555 1_555
O10 C18 1_555 1_555
O11 C19 1_555 1_555
O12 C47 1_555 1_555
C2 O9 1_555 1_555
C6 C7 1_555 1_555
C14 C15 1_555 1_555
C20 N3 1_555 1_555
C21 N4 1_555 1_555
C22 N1 1_555 1_555
C22 N2 1_555 1_555
C24 O2 1_555 1_555
C28 N3 1_555 1_555
C28 N4 1_555 1_555
C30 O6 1_555 1_555
C34 C35 1_555 1_555
C38 C39 1_555 1_555
C46 C47 1_555 1_555
C48 O12 1_555 1_555

#END
