
#######################################################################
#
#                 Cambridge Crystallographic Data Centre
#                                CCDC 
#
#######################################################################
#
# If this CIF has been generated from an entry in the Cambridge 
# Structural Database, then it will include bibliographic, chemical, 
# crystal, experimental, refinement or atomic coordinate data resulting 
# from the CCDC's data processing and validation procedures.
#
#######################################################################

data_FOZQER
_chemical_formula_moiety         'C17 H13 Cl1 N2 O1 S1'
_chemical_name_systematic        
5-Benzoyl-4-(4-chlorophenyl)-3,4-dihydropyrimidine-2(1H)-thione
_symmetry_cell_setting           orthorhombic
_symmetry_space_group_name_H-M   'P n a 21'
_symmetry_Int_Tables_number      33
_space_group_name_Hall           'P 2c -2n'
loop_
_symmetry_equiv_pos_site_id
_symmetry_equiv_pos_as_xyz
1 x,y,z
2 -x,-y,1/2+z
3 1/2-x,1/2+y,1/2+z
4 1/2+x,1/2-y,z
_cell_length_a                   21.147(4)
_cell_length_b                   8.3692(17)
_cell_length_c                   18.124(4)
_cell_angle_alpha                90
_cell_angle_beta                 90
_cell_angle_gamma                90
_cell_volume                     3207.65
_exptl_crystal_colour            yellow
_exptl_crystal_description       block
_chemical_melting_point          '269-271 deg.C'
_cell_formula_units_Z            8
loop_
_atom_site_label
_atom_site_type_symbol
_atom_site_fract_x
_atom_site_fract_y
_atom_site_fract_z
C1 C 0.39965(16) 0.9143(4) 0.5795(2)
H1 H 0.4303 0.8513 0.5569
C2 C 0.4174(2) 1.0205(4) 0.6345(2)
H2 H 0.4596 1.0287 0.6487
C3 C 0.3720(2) 1.1134(4) 0.6676(2)
C4 C 0.3107(2) 1.1054(5) 0.6465(2)
H3 H 0.2807 1.1716 0.6683
C5 C 0.29256(18) 0.9969(4) 0.5916(2)
H4 H 0.2503 0.9897 0.5778
C6 C 0.33720(14) 0.9000(3) 0.55750(17)
C7 C 0.31849(14) 0.7775(3) 0.49920(17)
H5 H 0.3569 0.7433 0.4734
C8 C 0.23106(14) 0.5798(4) 0.52472(18)
C9 C 0.21491(13) 0.7863(4) 0.43520(19)
H6 H 0.1881 0.8304 0.4000
C10 C 0.27337(12) 0.8468(3) 0.44293(17)
C11 C 0.29768(13) 0.9694(3) 0.39412(17)
C12 C 0.25186(14) 1.0710(3) 0.35089(17)
C13 C 0.20493(17) 1.1522(4) 0.3873(2)
H7 H 0.1988 1.1375 0.4376
C14 C 0.1665(2) 1.2571(5) 0.3476(3)
H8 H 0.1359 1.3170 0.3720
C15 C 0.1736(2) 1.2719(5) 0.2734(3)
H9 H 0.1468 1.3385 0.2467
C16 C 0.2197(2) 1.1895(6) 0.2383(3)
H10 H 0.2243 1.1999 0.1875
C17 C 0.25994(19) 1.0905(4) 0.2765(2)
H11 H 0.2923 1.0373 0.2520
Cl1 Cl 0.39402(9) 1.24235(15) 0.73873(8)
N1 N 0.28925(11) 0.6356(3) 0.53334(15)
H12 H 0.3098 0.5883 0.5574
N2 N 0.19333(11) 0.6620(3) 0.47731(17)
H13 H 0.1601 0.6325 0.4743
O1 O 0.35491(9) 0.9932(3) 0.38865(14)
S1 S 0.20497(4) 0.41793(10) 0.56990(5)
C18 C 0.35667(15) 0.4030(4) 0.4001(2)
H14 H 0.3276 0.3323 0.4206
C19 C 0.33872(18) 0.4965(4) 0.3408(2)
H15 H 0.2982 0.4881 0.3212
C20 C 0.38155(18) 0.6017(4) 0.3115(2)
C21 C 0.4411(2) 0.6203(4) 0.3407(2)
H16 H 0.4691 0.6953 0.3215
C22 C 0.45849(15) 0.5229(4) 0.40019(19)
H17 H 0.4988 0.5331 0.4203
C23 C 0.41729(12) 0.4124(3) 0.42966(17)
C24 C 0.43637(13) 0.2982(3) 0.49132(17)
H18 H 0.3979 0.2664 0.5176
C25 C 0.52105(13) 0.0917(3) 0.46927(18)
C26 C 0.53891(14) 0.3019(4) 0.55684(18)
H19 H 0.5660 0.3470 0.5915
C27 C 0.48139(13) 0.3677(4) 0.54694(17)
C28 C 0.45722(14) 0.4939(3) 0.59463(16)
C29 C 0.49901(15) 0.5958(3) 0.64111(18)
C30 C 0.55607(17) 0.6563(4) 0.6158(2)
H20 H 0.5714 0.6266 0.5697
C31 C 0.5903(2) 0.7621(5) 0.6598(3)
H21 H 0.6286 0.8028 0.6430
C32 C 0.5677(2) 0.8061(5) 0.7276(3)
H22 H 0.5906 0.8773 0.7567
C33 C 0.5120(2) 0.7463(4) 0.7527(2)
H23 H 0.4972 0.7757 0.7991
C34 C 0.47708(18) 0.6418(4) 0.7098(2)
Cl2 Cl 0.36044(6) 0.71882(13) 0.23557(6)
H24 H 0.4349(17) 0.610(4) 0.728(2)
N3 N 0.55908(11) 0.1722(3) 0.51819(16)
H25 H 0.5988 0.1246 0.5278
N4 N 0.46438(11) 0.1523(3) 0.45792(14)
H26 H 0.4331 0.1018 0.4298
O2 O 0.39947(10) 0.5168(3) 0.59676(13)
S2 S 0.54638(4) -0.07478(10) 0.42683(6)
loop_
_geom_bond_atom_site_label_1
_geom_bond_atom_site_label_2
_geom_bond_site_symmetry_1
_geom_bond_site_symmetry_2
C1 H1 1_555 1_555
C2 C1 1_555 1_555
H2 C2 1_555 1_555
C3 C2 1_555 1_555
C4 C3 1_555 1_555
H3 C4 1_555 1_555
C5 C4 1_555 1_555
H4 C5 1_555 1_555
C6 C1 1_555 1_555
C7 C6 1_555 1_555
H5 C7 1_555 1_555
C8 N1 1_555 1_555
C9 H6 1_555 1_555
C10 C7 1_555 1_555
C11 C10 1_555 1_555
C12 C11 1_555 1_555
C13 C12 1_555 1_555
H7 C13 1_555 1_555
C14 C13 1_555 1_555
H8 C14 1_555 1_555
C15 C14 1_555 1_555
H9 C15 1_555 1_555
C16 C15 1_555 1_555
H10 C16 1_555 1_555
C17 C12 1_555 1_555
H11 C17 1_555 1_555
Cl1 C3 1_555 1_555
N1 C7 1_555 1_555
H12 N1 1_555 1_555
N2 C8 1_555 1_555
H13 N2 1_555 1_555
O1 C11 1_555 1_555
S1 C8 1_555 1_555
C18 H14 1_555 1_555
C19 C18 1_555 1_555
H15 C19 1_555 1_555
C20 C19 1_555 1_555
C21 C20 1_555 1_555
H16 C21 1_555 1_555
C22 C21 1_555 1_555
H17 C22 1_555 1_555
C23 C18 1_555 1_555
C24 C23 1_555 1_555
H18 C24 1_555 1_555
C25 N3 1_555 1_555
C26 H19 1_555 1_555
C27 C24 1_555 1_555
C28 C27 1_555 1_555
C29 C28 1_555 1_555
C30 C29 1_555 1_555
H20 C30 1_555 1_555
C31 C30 1_555 1_555
H21 C31 1_555 1_555
C32 C31 1_555 1_555
H22 C32 1_555 1_555
C33 C32 1_555 1_555
H23 C33 1_555 1_555
C34 C29 1_555 1_555
Cl2 C20 1_555 1_555
H24 C34 1_555 1_555
N3 C26 1_555 1_555
H25 N3 1_555 1_555
N4 C24 1_555 1_555
H26 N4 1_555 1_555
O2 C28 1_555 1_555
S2 C25 1_555 1_555
C5 C6 1_555 1_555
C9 C10 1_555 1_555
C9 N2 1_555 1_555
C16 C17 1_555 1_555
C22 C23 1_555 1_555
C25 N4 1_555 1_555
C26 C27 1_555 1_555
C33 C34 1_555 1_555

#END
