
#######################################################################
#
#                 Cambridge Crystallographic Data Centre
#                                CCDC 
#
#######################################################################
#
# If this CIF has been generated from an entry in the Cambridge 
# Structural Database, then it will include bibliographic, chemical, 
# crystal, experimental, refinement or atomic coordinate data resulting 
# from the CCDC's data processing and validation procedures.
#
#######################################################################

data_FOZZID
_chemical_formula_moiety         'C19 H18 O2 S5'
_chemical_name_systematic        
4,5-bis(p-Methoxybenzylthio)-1,3-dithiole-2-thione
_symmetry_cell_setting           triclinic
_symmetry_space_group_name_H-M   'P -1'
_symmetry_Int_Tables_number      2
_space_group_name_Hall           '-P 1'
loop_
_symmetry_equiv_pos_site_id
_symmetry_equiv_pos_as_xyz
1 x,y,z
2 -x,-y,-z
_cell_length_a                   5.2920(10)
_cell_length_b                   10.537(2)
_cell_length_c                   18.961(4)
_cell_angle_alpha                102.79(3)
_cell_angle_beta                 96.33(3)
_cell_angle_gamma                98.67(3)
_cell_volume                     1007.91
_exptl_crystal_colour            red-brown
_exptl_crystal_description       plate
_chemical_melting_point          392-395K
_cell_formula_units_Z            2
_exptl_crystal_recrystallization_method dichloromethane/hexane
loop_
_atom_site_label
_atom_site_type_symbol
_atom_site_fract_x
_atom_site_fract_y
_atom_site_fract_z
S1 S 1.1796(2) 0.54528(12) 0.15168(7)
S2 S 1.2096(2) 0.22697(15) 0.15495(9)
S3 S 0.7161(2) 0.42828(12) 0.03927(7)
S4 S 0.7379(2) 0.15912(12) 0.03926(7)
S5 S 0.3084(2) 0.21792(13) -0.05627(7)
C1 C 0.9638(7) 0.4043(4) 0.0999(2)
C2 C 0.9718(7) 0.2795(5) 0.1015(2)
C3 C 0.5732(7) 0.2664(4) 0.0048(2)
C4 C 0.9868(9) 0.6107(5) 0.2211(3)
H1 H 1.0544 0.7041 0.2415
H2 H 0.8099 0.6021 0.1981
C5 C 0.9886(8) 0.5410(4) 0.2809(2)
C6 C 0.7804(9) 0.4463(6) 0.2827(3)
H3 H 0.6340 0.4285 0.2476
C7 C 0.7916(11) 0.3775(6) 0.3374(3)
H4 H 0.6535 0.3122 0.3383
C8 C 1.0055(11) 0.4058(6) 0.3901(3)
C9 C 1.2092(11) 0.5005(7) 0.3892(3)
H5 H 1.3531 0.5200 0.4252
C10 C 1.2011(9) 0.5673(6) 0.3345(3)
H6 H 1.3415 0.6315 0.3337
O1 O 1.022(3) 0.3315(10) 0.4514(4)
C11 C 0.839(2) 0.2525(10) 0.4519(5)
H7 H 0.8513 0.1688 0.4211
H8 H 0.6855 0.2809 0.4341
H9 H 0.8315 0.2436 0.5010
C13 C 1.0210(9) 0.1004(5) 0.1855(3)
H13 H 0.8964 0.1374 0.2139
H14 H 0.9272 0.0324 0.1437
C14 C 1.1972(8) 0.0412(5) 0.2315(3)
C15 C 1.2121(13) 0.0689(7) 0.3063(3)
H15 H 1.1112 0.1252 0.3296
C16 C 1.3819(14) 0.0111(7) 0.3480(3)
H16 H 1.3966 0.0313 0.3988
C17 C 1.5199(11) -0.0725(6) 0.3133(4)
C18 C 1.5008(10) -0.1011(6) 0.2413(4)
H17 H 1.5980 -0.1604 0.2187
C19 C 1.3417(10) -0.0463(5) 0.1984(3)
H18 H 1.3324 -0.0683 0.1478
O3 O 1.7144(15) -0.1611(9) 0.3373(5)
C21 C 1.761(3) -0.1191(15) 0.4107(8)
H22 H 1.8078 -0.0243 0.4244
H23 H 1.9007 -0.1569 0.4294
H24 H 1.6089 -0.1461 0.4308
C12? C 1.2058(19) 0.3601(12) 0.4936(5)
H10? H 1.1926 0.3063 0.5283
H11? H 1.2263 0.4516 0.5187
H12? H 1.3526 0.3463 0.4693
O2? O 1.653(2) -0.1175(13) 0.3628(7)
C20? C 1.647(4) -0.082(2) 0.4336(11)
H19? H 1.7399 0.0063 0.4530
H20? H 1.7244 -0.1415 0.4573
H21? H 1.4702 -0.0864 0.4419
loop_
_geom_bond_atom_site_label_1
_geom_bond_atom_site_label_2
_geom_bond_site_symmetry_1
_geom_bond_site_symmetry_2
S1 C1 1_555 1_555
S2 C2 1_555 1_555
S3 C1 1_555 1_555
S4 C2 1_555 1_555
S5 C3 1_555 1_555
C1 C2 1_555 1_555
C3 S3 1_555 1_555
C4 S1 1_555 1_555
H1 C4 1_555 1_555
H2 C4 1_555 1_555
C5 C4 1_555 1_555
C6 C5 1_555 1_555
H3 C6 1_555 1_555
C7 C6 1_555 1_555
H4 C7 1_555 1_555
C8 C7 1_555 1_555
C9 C8 1_555 1_555
H5 C9 1_555 1_555
C10 C5 1_555 1_555
H6 C10 1_555 1_555
O1 C8 1_555 1_555
C11 O1 1_555 1_555
H7 C11 1_555 1_555
H8 C11 1_555 1_555
H9 C11 1_555 1_555
C13 S2 1_555 1_555
H13 C13 1_555 1_555
H14 C13 1_555 1_555
C14 C13 1_555 1_555
C15 C14 1_555 1_555
H15 C15 1_555 1_555
C16 C15 1_555 1_555
H16 C16 1_555 1_555
C17 C16 1_555 1_555
C18 C17 1_555 1_555
H17 C18 1_555 1_555
C19 C14 1_555 1_555
H18 C19 1_555 1_555
O3 C17 1_555 1_555
C21 O3 1_555 1_555
H22 C21 1_555 1_555
H23 C21 1_555 1_555
H24 C21 1_555 1_555
S4 C3 1_555 1_555
C9 C10 1_555 1_555
C18 C19 1_555 1_555

#END
