
#######################################################################
#
#                 Cambridge Crystallographic Data Centre
#                                CCDC 
#
#######################################################################
#
# If this CIF has been generated from an entry in the Cambridge 
# Structural Database, then it will include bibliographic, chemical, 
# crystal, experimental, refinement or atomic coordinate data resulting 
# from the CCDC's data processing and validation procedures.
#
#######################################################################

data_FTHSEC14
_chemical_formula_moiety         'C6 H7 N3 S2'
_chemical_name_systematic        
2-[(thiophen-2-yl)methylidene]hydrazine-1-carbothioamide
_symmetry_cell_setting           monoclinic
_symmetry_space_group_name_H-M   'P 21/n'
_symmetry_Int_Tables_number      14
_space_group_name_Hall           '-P 2yn'
loop_
_symmetry_equiv_pos_site_id
_symmetry_equiv_pos_as_xyz
1 x,y,z
2 1/2-x,1/2+y,1/2-z
3 -x,-y,-z
4 1/2+x,1/2-y,1/2+z
_cell_length_a                   13.5702(19)
_cell_length_b                   5.8215(8)
_cell_length_c                   21.396(3)
_cell_angle_alpha                90
_cell_angle_beta                 96.440(2)
_cell_angle_gamma                90
_cell_volume                     1679.6
_exptl_crystal_colour            yellow
_exptl_crystal_description       block
_cell_formula_units_Z            8
_chemical_properties_physical    Photo-sensitive
_exptl_crystal_recrystallization_method ethanol
loop_
_atom_site_label
_atom_site_type_symbol
_atom_site_fract_x
_atom_site_fract_y
_atom_site_fract_z
S1 S 0.84982(4) 0.40221(10) 0.01387(3)
S2 S 1.18282(5) -0.35306(11) 0.16584(3)
N1 N 0.87355(19) -0.0136(4) 0.06246(11)
H1 H 0.9049(18) -0.108(4) 0.0773(12)
H2 H 0.810(2) -0.047(4) 0.0473(13)
N2 N 1.01345(14) 0.2061(3) 0.06412(9)
H3 H 1.0414(17) 0.318(4) 0.0490(11)
N3 N 1.06691(14) 0.0315(3) 0.09551(8)
C1 C 0.91540(16) 0.1829(4) 0.04843(10)
C2 C 1.16054(18) 0.0658(4) 0.10568(11)
H4 H 1.1910(16) 0.184(4) 0.0925(10)
C3 C 1.22534(16) -0.0960(4) 0.13977(10)
C4 C 1.32439(18) -0.0715(5) 0.15772(12)
H5 H 1.3578(17) 0.054(4) 0.1505(11)
C5 C 1.3650(2) -0.2618(5) 0.19185(13)
H6 H 1.429(2) -0.267(5) 0.2070(13)
C6 C 1.2980(2) -0.4237(5) 0.19980(13)
H7 H 1.3023(19) -0.559(5) 0.2197(12)
S3 S 0.64053(5) 0.82614(12) -0.00925(3)
S4 S 0.55042(5) 0.22479(13) 0.24968(3)
N4 N 0.50339(17) 0.7355(4) 0.06541(12)
H8 H 0.4790(19) 0.650(4) 0.0887(12)
H9 H 0.4723(19) 0.853(5) 0.0486(13)
N5 N 0.63410(16) 0.4927(4) 0.07208(10)
H10 H 0.686(2) 0.445(5) 0.0592(13)
N6 N 0.60069(14) 0.3908(3) 0.12362(9)
C7 C 0.58775(16) 0.6781(4) 0.04599(11)
C8 C 0.64321(19) 0.2041(4) 0.14180(12)
H11 H 0.6886(18) 0.134(4) 0.1225(12)
C9 C 0.62240(16) 0.0947(4) 0.19882(11)
C10 C 0.6583(2) -0.1120(5) 0.22276(14)
H12 H 0.6909(16) -0.192(4) 0.2020(10)
C11 C 0.6267(2) -0.1600(6) 0.28160(15)
H13 H 0.644(2) -0.282(5) 0.3050(15)
C12 C 0.5696(2) 0.0043(6) 0.30197(15)
H14 H 0.539(2) 0.015(5) 0.3380(14)
loop_
_geom_bond_atom_site_label_1
_geom_bond_atom_site_label_2
_geom_bond_site_symmetry_1
_geom_bond_site_symmetry_2
S1 C1 1_555 1_555
S2 C3 1_555 1_555
N1 H1 1_555 1_555
H2 N1 1_555 1_555
N2 H3 1_555 1_555
N3 N2 1_555 1_555
C1 N1 1_555 1_555
C2 N3 1_555 1_555
H4 C2 1_555 1_555
C3 C2 1_555 1_555
C4 C3 1_555 1_555
H5 C4 1_555 1_555
C5 C4 1_555 1_555
H6 C5 1_555 1_555
C6 S2 1_555 1_555
H7 C6 1_555 1_555
S3 C7 1_555 1_555
S4 C9 1_555 1_555
N4 H8 1_555 1_555
H9 N4 1_555 1_555
N5 H10 1_555 1_555
N6 N5 1_555 1_555
C7 N4 1_555 1_555
C8 N6 1_555 1_555
H11 C8 1_555 1_555
C9 C8 1_555 1_555
C10 C9 1_555 1_555
H12 C10 1_555 1_555
C11 C10 1_555 1_555
H13 C11 1_555 1_555
C12 S4 1_555 1_555
H14 C12 1_555 1_555
N2 C1 1_555 1_555
C5 C6 1_555 1_555
N5 C7 1_555 1_555
C11 C12 1_555 1_555

#END
