
#######################################################################
#
#                 Cambridge Crystallographic Data Centre
#                                CCDC 
#
#######################################################################
#
# If this CIF has been generated from an entry in the Cambridge 
# Structural Database, then it will include bibliographic, chemical, 
# crystal, experimental, refinement or atomic coordinate data resulting 
# from the CCDC's data processing and validation procedures.
#
#######################################################################

data_FUAMEB10
_chemical_formula_moiety         'C39 H53 Br1 O7'
_chemical_name_systematic        'Fusidic acid methyl ester p-bromobenzoate'
_chemical_properties_biological  
'derivative of antibacterial agent, steroid antibio'
_symmetry_cell_setting           monoclinic
_symmetry_space_group_name_H-M   'P 21'
_symmetry_Int_Tables_number      4
_space_group_name_Hall           'P 2yb'
loop_
_symmetry_equiv_pos_site_id
_symmetry_equiv_pos_as_xyz
1 x,y,z
2 -x,1/2+y,-z
_cell_length_a                   10.310(11)
_cell_length_b                   7.935(4)
_cell_length_c                   22.066(26)
_cell_angle_alpha                90
_cell_angle_beta                 91.6(1)
_cell_angle_gamma                90
_cell_volume                     1804.51
_cell_formula_units_Z            2
loop_
_atom_site_label
_atom_site_type_symbol
_atom_site_fract_x
_atom_site_fract_y
_atom_site_fract_z
Br1 Br 0.18610 -0.25000 -0.76320
C1 C 0.07820 -0.77440 -0.42040
C2 C 0.18830 -0.81470 -0.37710
C3 C 0.12190 -0.51520 -0.32820
C4 C 0.14420 -0.41160 -0.27050
C5 C 0.28840 -0.36840 -0.25740
C6 C 0.37590 -0.52290 -0.25680
C7 C 0.50630 -0.44620 -0.24430
C8 C 0.48260 -0.29730 -0.20150
C9 C 0.33680 -0.26420 -0.20630
C10 C 0.39630 -1.06580 -0.48930
C11 C 0.14370 -0.96420 -0.33720
C12 C 0.04680 -0.91530 -0.46660
C13 C 0.41740 -0.52310 -0.36840
C14 C 0.34090 -0.63020 -0.20140
C15 C 0.28530 -0.15860 -0.16850
C16 C 0.14250 -0.10580 -0.16850
C17 C 0.06870 -0.18100 -0.11630
C18 C 0.04860 -0.36240 -0.11320
C19 C 0.10010 -0.47230 -0.08110
C20 C 0.07860 -0.66820 -0.08140
C21 C 0.20140 -0.44280 -0.02600
C22 C 0.36480 -0.06180 -0.12570
C23 C 0.16440 -0.97310 -0.49830
C24 C 0.54950 0.09540 -0.10060
C25 C 0.64150 -0.35340 -0.12150
C26 C 0.66430 -0.40340 -0.06100
C27 C 0.20750 -0.87830 -0.59480
C28 C 0.23290 -0.55930 -0.61270
C29 C 0.22300 -0.42610 -0.65170
C30 C 0.20450 -0.45230 -0.70960
C31 C 0.18970 -0.59970 -0.73470
C32 C 0.19780 -0.73720 -0.69720
C33 C 0.21740 -0.71890 -0.63730
C34 C 0.28590 -1.01420 -0.45360
C35 C 0.30380 -0.86820 -0.41160
C36 C 0.42690 -0.89940 -0.37190
C37 C 0.43380 -0.79310 -0.31210
C38 C 0.36260 -0.62230 -0.31980
C39 C 0.21740 -0.67300 -0.32860
H1 H -0.00730 -0.75130 -0.39450
H2 H 0.10280 -0.66190 -0.44510
H3 H 0.02320 -0.56090 -0.32940
H4 H 0.10860 -0.48260 -0.23270
H5 H 0.09040 -0.29530 -0.27510
H6 H 0.31670 -0.29930 -0.29710
H7 H 0.54770 -0.40260 -0.28580
H8 H 0.57070 -0.53690 -0.22280
H9 H 0.53670 -0.18770 -0.21510
H10 H 0.42170 -0.96520 -0.51970
H11 H 0.37090 -1.17690 -0.51540
H12 H 0.47800 -1.09360 -0.45930
H13 H 0.12130 -1.07220 -0.36530
H14 H 0.05880 -0.92880 -0.31250
H15 H 0.22300 -0.99320 -0.30590
H16 H 0.51870 -0.49950 -0.35800
H17 H -0.02290 -0.86820 -0.49990
H18 H 0.00560 -1.02090 -0.44310
H19 H 0.36620 -0.40470 -0.37240
H20 H 0.40840 -0.59020 -0.41090
H21 H 0.24040 -0.66840 -0.20500
H22 H 0.35680 -0.55840 -0.16030
H23 H 0.40300 -0.73980 -0.20100
H24 H 0.09650 -0.14630 -0.21060
H25 H 0.13780 0.02980 -0.16530
H26 H -0.02610 -0.12340 -0.11740
H27 H 0.12040 -0.14510 -0.07510
H28 H -0.02470 -0.40930 -0.14480
H29 H 0.10000 -0.70580 -0.12710
H30 H 0.28100 -0.37500 -0.04540
H31 H 0.24640 -0.53900 0.00210
H32 H 0.14040 -1.08410 -0.52460
H33 H 0.57780 0.00540 -0.06600
H34 H 0.49090 0.19300 -0.08090
H35 H 0.63730 0.15510 -0.11530
H36 H 0.71760 -0.30170 -0.03940
H37 H 0.72520 -0.51390 -0.06280
H38 H 0.58680 -0.43460 -0.03110
H39 H 0.25210 -0.54120 -0.56480
H40 H 0.23040 -0.29890 -0.63450
H41 H 0.17180 -0.61310 -0.78290
H42 H 0.18820 -0.86210 -0.71620
H43 H 0.25910 -1.12120 -0.42640
H44 H 0.32660 -0.76230 -0.44010
H45 H 0.51040 -0.86870 -0.39820
H46 H 0.42990 -1.03120 -0.35980
H47 H 0.53430 -0.76950 -0.29990
H48 H 0.38920 -0.86380 -0.27640
H49 H 0.19700 -0.73530 -0.28640
O1 O 0.13930 -0.41190 -0.37910
O2 O 0.51600 -0.34360 -0.13940
O3 O 0.72230 -0.32080 -0.15270
O4 O 0.33160 -0.04290 -0.07290
O5 O 0.46870 0.00870 -0.14310
O6 O 0.20400 -0.84070 -0.53880
O7 O 0.20650 -1.01060 -0.61850
loop_
_geom_bond_atom_site_label_1
_geom_bond_atom_site_label_2
_geom_bond_site_symmetry_1
_geom_bond_site_symmetry_2
Br1 C30 1_555 1_555
C1 C2 1_555 1_555
C2 C11 1_555 1_555
C3 C4 1_555 1_555
C4 C5 1_555 1_555
C5 C6 1_555 1_555
C6 C7 1_555 1_555
C7 C8 1_555 1_555
C8 C9 1_555 1_555
C9 C5 1_555 1_555
C10 C34 1_555 1_555
C11 H13 1_555 1_555
C12 C1 1_555 1_555
C13 C38 1_555 1_555
C14 C6 1_555 1_555
C15 C9 1_555 1_555
C16 C15 1_555 1_555
C17 C16 1_555 1_555
C18 C17 1_555 1_555
C19 C18 1_555 1_555
C20 C19 1_555 1_555
C21 C19 1_555 1_555
C22 C15 1_555 1_555
C23 C12 1_555 1_555
C24 H33 1_555 1_555
C25 C26 1_555 1_555
C26 H36 1_555 1_555
C27 C33 1_555 1_555
C28 C29 1_555 1_555
C29 C30 1_555 1_555
C30 C31 1_555 1_555
C31 C32 1_555 1_555
C32 C33 1_555 1_555
C33 C28 1_555 1_555
C34 C23 1_555 1_555
C35 C2 1_555 1_555
C36 C35 1_555 1_555
C37 C36 1_555 1_555
C38 C6 1_555 1_555
C39 C2 1_555 1_555
H1 C1 1_555 1_555
H2 C1 1_555 1_555
H3 C3 1_555 1_555
H4 C4 1_555 1_555
H5 C4 1_555 1_555
H6 C5 1_555 1_555
H7 C7 1_555 1_555
H8 C7 1_555 1_555
H9 C8 1_555 1_555
H10 C10 1_555 1_555
H11 C10 1_555 1_555
H12 C10 1_555 1_555
H14 C11 1_555 1_555
H15 C11 1_555 1_555
H16 C13 1_555 1_555
H17 C12 1_555 1_555
H18 C12 1_555 1_555
H19 C13 1_555 1_555
H20 C13 1_555 1_555
H21 C14 1_555 1_555
H22 C14 1_555 1_555
H23 C14 1_555 1_555
H24 C16 1_555 1_555
H25 C16 1_555 1_555
H26 C17 1_555 1_555
H27 C17 1_555 1_555
H28 C18 1_555 1_555
H29 C20 1_555 1_555
H30 C21 1_555 1_555
H31 C21 1_555 1_555
H32 C23 1_555 1_555
H34 C24 1_555 1_555
H35 C24 1_555 1_555
H37 C26 1_555 1_555
H38 C26 1_555 1_555
H39 C28 1_555 1_555
H40 C29 1_555 1_555
H41 C31 1_555 1_555
H42 C32 1_555 1_555
H43 C34 1_555 1_555
H44 C35 1_555 1_555
H45 C36 1_555 1_555
H46 C36 1_555 1_555
H47 C37 1_555 1_555
H48 C37 1_555 1_555
H49 C39 1_555 1_555
O1 C3 1_555 1_555
O2 C8 1_555 1_555
O3 C25 1_555 1_555
O4 C22 1_555 1_555
O5 C22 1_555 1_555
O6 C23 1_555 1_555
O7 C27 1_555 1_555
C3 C39 1_555 1_555
C24 O5 1_555 1_555
C25 O2 1_555 1_555
C27 O6 1_555 1_555
C34 C35 1_555 1_555
C37 C38 1_555 1_555
C38 C39 1_555 1_555

#END
