
#######################################################################
#
#                 Cambridge Crystallographic Data Centre
#                                CCDC 
#
#######################################################################
#
# If this CIF has been generated from an entry in the Cambridge 
# Structural Database, then it will include bibliographic, chemical, 
# crystal, experimental, refinement or atomic coordinate data resulting 
# from the CCDC's data processing and validation procedures.
#
#######################################################################

data_FUBDUC
_chemical_formula_moiety         'C22 H22 N2 O4'
_chemical_name_systematic        
(1R,2R,4R,5S)-(-)-1,4-Dimethyl-8-(4-nitrobenzoyl)-2-phenyl-8-azabicyclo[3.2.1]octan-3-one
_symmetry_cell_setting           monoclinic
_symmetry_space_group_name_H-M   'P 21'
_symmetry_Int_Tables_number      4
_space_group_name_Hall           'P 2yb'
loop_
_symmetry_equiv_pos_site_id
_symmetry_equiv_pos_as_xyz
1 x,y,z
2 -x,1/2+y,-z
_cell_length_a                   10.5774(18)
_cell_length_b                   8.0205(11)
_cell_length_c                   12.068(2)
_cell_angle_alpha                90
_cell_angle_beta                 111.699(4)
_cell_angle_gamma                90
_cell_volume                     951.254
_exptl_crystal_colour            white
_chemical_melting_point          '188-190 deg.C (dec.)'
_cell_formula_units_Z            2
loop_
_atom_site_label
_atom_site_type_symbol
_atom_site_fract_x
_atom_site_fract_y
_atom_site_fract_z
C1 C 0.7148(3) 0.7732(4) 0.3857(3)
C2 C 0.5914(3) 0.8974(4) 0.3437(3)
H1 H 0.5293 0.8604 0.3822
C3 C 0.6464(3) 1.0669(4) 0.3986(3)
C4 C 0.7218(3) 1.0649(4) 0.5325(3)
H2 H 0.6569 1.0313 0.5689
C5 C 0.8331(3) 0.9273(4) 0.5616(3)
H3 H 0.8884 0.9232 0.6470
C6 C 0.9214(3) 0.9460(5) 0.4863(3)
H4 H 1.0111 0.8985 0.5270
H5 H 0.9312 1.0624 0.4691
C7 C 0.8428(3) 0.8484(5) 0.3704(3)
H6 H 0.8994 0.7604 0.3584
H7 H 0.8164 0.9225 0.3021
C8 C 0.6956(3) 0.6861(4) 0.5786(3)
C9 C 0.7647(3) 0.6824(4) 0.7117(3)
C10 C 0.6968(3) 0.7371(4) 0.7838(3)
H8 H 0.6105 0.7835 0.7496
C11 C 0.7573(3) 0.7225(5) 0.9061(3)
H9 H 0.7142 0.7627 0.9553
C12 C 0.8829(4) 0.6474(4) 0.9538(3)
C13 C 0.9520(3) 0.5885(5) 0.8846(3)
H10 H 1.0360 0.5363 0.9192
C14 C 0.8927(3) 0.6095(4) 0.7626(3)
H11 H 0.9386 0.5747 0.7142
C15 C 0.6794(4) 0.6034(4) 0.3271(3)
H12 H 0.7497 0.5252 0.3686
H13 H 0.6717 0.6111 0.2454
H14 H 0.5944 0.5664 0.3301
C16 C 0.5100(3) 0.8948(4) 0.2114(3)
C17 C 0.3880(3) 0.8084(4) 0.1706(3)
H15 H 0.3571 0.7580 0.2253
C18 C 0.3103(3) 0.7957(5) 0.0483(3)
H16 H 0.2290 0.7364 0.0225
C19 C 0.3542(4) 0.8707(5) -0.0332(3)
H17 H 0.3030 0.8620 -0.1144
C20 C 0.4744(4) 0.9589(5) 0.0055(3)
H18 H 0.5040 1.0104 -0.0496
C21 C 0.5522(4) 0.9714(5) 0.1271(3)
H19 H 0.6331 1.0315 0.1523
C22 C 0.7782(4) 1.2340(4) 0.5835(3)
H20 H 0.8394 1.2727 0.5469
H21 H 0.8262 1.2243 0.6681
H22 H 0.7047 1.3118 0.5678
N1 N 0.7640(2) 0.7670(3) 0.5181(2)
N2 N 0.9465(3) 0.6249(4) 1.0836(3)
O1 O 0.5886(2) 0.6093(3) 0.5300(2)
O2 O 0.8937(3) 0.6945(5) 1.1463(2)
O3 O 1.0495(4) 0.5396(4) 1.1238(3)
O4 O 0.6376(2) 1.1927(3) 0.3401(2)
loop_
_geom_bond_atom_site_label_1
_geom_bond_atom_site_label_2
_geom_bond_site_symmetry_1
_geom_bond_site_symmetry_2
C1 C2 1_555 1_555
C2 H1 1_555 1_555
C3 C2 1_555 1_555
C4 C3 1_555 1_555
H2 C4 1_555 1_555
C5 C4 1_555 1_555
H3 C5 1_555 1_555
C6 C5 1_555 1_555
H4 C6 1_555 1_555
H5 C6 1_555 1_555
C7 C1 1_555 1_555
H6 C7 1_555 1_555
H7 C7 1_555 1_555
C8 C9 1_555 1_555
C9 C10 1_555 1_555
C10 H8 1_555 1_555
C11 C10 1_555 1_555
H9 C11 1_555 1_555
C12 C11 1_555 1_555
C13 C12 1_555 1_555
H10 C13 1_555 1_555
C14 C9 1_555 1_555
H11 C14 1_555 1_555
C15 C1 1_555 1_555
H12 C15 1_555 1_555
H13 C15 1_555 1_555
H14 C15 1_555 1_555
C16 C2 1_555 1_555
C17 C16 1_555 1_555
H15 C17 1_555 1_555
C18 C17 1_555 1_555
H16 C18 1_555 1_555
C19 C18 1_555 1_555
H17 C19 1_555 1_555
C20 C19 1_555 1_555
H18 C20 1_555 1_555
C21 C16 1_555 1_555
H19 C21 1_555 1_555
C22 C4 1_555 1_555
H20 C22 1_555 1_555
H21 C22 1_555 1_555
H22 C22 1_555 1_555
N1 C1 1_555 1_555
N2 C12 1_555 1_555
O1 C8 1_555 1_555
O2 N2 1_555 1_555
O3 N2 1_555 1_555
O4 C3 1_555 1_555
C5 N1 1_555 1_555
C6 C7 1_555 1_555
C8 N1 1_555 1_555
C13 C14 1_555 1_555
C20 C21 1_555 1_555

#END
