
#######################################################################
#
#                 Cambridge Crystallographic Data Centre
#                                CCDC 
#
#######################################################################
#
# If this CIF has been generated from an entry in the Cambridge 
# Structural Database, then it will include bibliographic, chemical, 
# crystal, experimental, refinement or atomic coordinate data resulting 
# from the CCDC's data processing and validation procedures.
#
#######################################################################

data_FUBFOY
_chemical_formula_moiety         'C13 H12 N2 O8'
_chemical_name_systematic        
'(2S,3R)-Dimethyl 2-nitro-3-(4-nitrophenyl)cyclopropane-1,1-dicarboxylate'
_symmetry_cell_setting           monoclinic
_symmetry_space_group_name_H-M   'P 21'
_symmetry_Int_Tables_number      4
_space_group_name_Hall           'P 2yb'
loop_
_symmetry_equiv_pos_site_id
_symmetry_equiv_pos_as_xyz
1 x,y,z
2 -x,1/2+y,-z
_cell_length_a                   7.5881(1)
_cell_length_b                   12.1836(1)
_cell_length_c                   8.3715(1)
_cell_angle_alpha                90
_cell_angle_beta                 111.943(1)
_cell_angle_gamma                90
_cell_volume                     717.88
_exptl_crystal_colour            colorless
_exptl_crystal_description       prism
_chemical_melting_point          '134-136 deg.C'
_cell_formula_units_Z            2
_exptl_crystal_recrystallization_method 'ethyl acetate/petroleum ether'
loop_
_atom_site_label
_atom_site_type_symbol
_atom_site_fract_x
_atom_site_fract_y
_atom_site_fract_z
C1 C 0.5656(2) 0.05865(15) 0.48293(19)
H1 H 0.5202 0.1182 0.4094
C2 C 0.79522(19) 0.00054(12) 0.95983(17)
H2 H 0.7025 0.0043 1.0156
C3 C 0.55860(18) -0.04614(14) 0.41874(18)
C4 C 0.70860(18) -0.01671(12) 0.76876(17)
N1 N 0.48799(17) -0.06211(15) 0.23109(16)
C5 C 0.96992(19) 0.07149(12) 1.04449(16)
C6 C 1.07688(19) 0.12151(13) 0.94303(16)
C7 C 0.6206(2) -0.13691(14) 0.52333(18)
H3 H 0.6132 -0.2068 0.4766
C8 C 0.97932(19) -0.05192(12) 1.06760(16)
H4 H 1.0453 -0.0927 1.0057
C9 C 0.6942(2) -0.12106(13) 0.70003(18)
H5 H 0.7342 -0.1812 0.7731
C10 C 0.6423(2) 0.07292(13) 0.66050(19)
H6 H 0.6492 0.1429 0.7070
C11 C 0.9776(2) 0.14445(13) 1.19274(17)
O1 O 0.89285(15) -0.06380(10) 1.30615(13)
O2 O 1.14387(16) -0.15047(11) 1.31230(14)
O3 O 1.11005(16) 0.14698(10) 1.32842(12)
O4 O 1.13610(17) 0.21375(10) 0.96653(14)
N2 N 1.00551(16) -0.09208(11) 1.24127(15)
O5 O 0.44566(18) 0.02046(14) 0.14001(15)
O6 O 0.47755(19) -0.15504(14) 0.17426(15)
O7 O 1.09323(14) 0.05292(9) 0.82617(11)
C12 C 1.1961(3) 0.09576(15) 0.7248(2)
H7 H 1.1378 0.1628 0.6701
H8 H 1.1932 0.0431 0.6387
H9 H 1.3255 0.1098 0.7986
C13 C 0.8124(3) 0.27984(17) 1.2820(3)
H10 H 0.8126 0.2381 1.3794
H11 H 0.6978 0.3223 1.2369
H12 H 0.9202 0.3281 1.3172
O8 O 0.82239(16) 0.20573(11) 1.14992(14)
loop_
_geom_bond_atom_site_label_1
_geom_bond_atom_site_label_2
_geom_bond_site_symmetry_1
_geom_bond_site_symmetry_2
C1 H1 1_555 1_555
C2 H2 1_555 1_555
C3 C1 1_555 1_555
C4 C2 1_555 1_555
N1 C3 1_555 1_555
C5 C2 1_555 1_555
C6 C5 1_555 1_555
C7 C3 1_555 1_555
H3 C7 1_555 1_555
C8 C2 1_555 1_555
H4 C8 1_555 1_555
C9 C4 1_555 1_555
H5 C9 1_555 1_555
C10 C1 1_555 1_555
H6 C10 1_555 1_555
C11 C5 1_555 1_555
O1 N2 1_555 1_555
O2 N2 1_555 1_555
O3 C11 1_555 1_555
O4 C6 1_555 1_555
N2 C8 1_555 1_555
O5 N1 1_555 1_555
O6 N1 1_555 1_555
O7 C6 1_555 1_555
C12 O7 1_555 1_555
H7 C12 1_555 1_555
H8 C12 1_555 1_555
H9 C12 1_555 1_555
C13 H10 1_555 1_555
H11 C13 1_555 1_555
H12 C13 1_555 1_555
O8 C11 1_555 1_555
C4 C10 1_555 1_555
C5 C8 1_555 1_555
C7 C9 1_555 1_555
C13 O8 1_555 1_555

#END
