
#######################################################################
#
#                 Cambridge Crystallographic Data Centre
#                                CCDC 
#
#######################################################################
#
# If this CIF has been generated from an entry in the Cambridge 
# Structural Database, then it will include bibliographic, chemical, 
# crystal, experimental, refinement or atomic coordinate data resulting 
# from the CCDC's data processing and validation procedures.
#
#######################################################################

data_FUBFOZ
_chemical_formula_moiety         'C15 H13 Br1 N2 O3'
_chemical_name_systematic        
N'-(3-Bromo-2-hydroxybenzylidene)-4-methoxybenzohydrazide
_symmetry_cell_setting           monoclinic
_symmetry_space_group_name_H-M   'P 21/c'
_symmetry_Int_Tables_number      14
_space_group_name_Hall           '-P 2ybc'
loop_
_symmetry_equiv_pos_site_id
_symmetry_equiv_pos_as_xyz
1 x,y,z
2 -x,1/2+y,1/2-z
3 -x,-y,-z
4 x,1/2-y,1/2+z
_cell_length_a                   19.4262(13)
_cell_length_b                   8.5923(6)
_cell_length_c                   19.4290(12)
_cell_angle_alpha                90
_cell_angle_beta                 113.804(2)
_cell_angle_gamma                90
_cell_volume                     2967.13
_cell_formula_units_Z            8
loop_
_atom_site_label
_atom_site_type_symbol
_atom_site_fract_x
_atom_site_fract_y
_atom_site_fract_z
Br1 Br 0.06178(4) 0.94023(10) 0.19954(4)
N1 N 0.3467(2) 0.8633(5) 0.4195(2)
N2 N 0.4195(2) 0.8195(5) 0.4633(2)
O1 O 0.2225(2) 0.8609(5) 0.2968(2)
O2 O 0.4289(2) 0.6966(4) 0.36541(19)
O3 O 0.7507(2) 0.5463(5) 0.6219(2)
C1 C 0.2362(3) 0.9994(6) 0.4091(3)
C2 C 0.1950(3) 0.9543(6) 0.3347(3)
C3 C 0.1214(3) 1.0061(7) 0.2991(3)
C4 C 0.0889(4) 1.1050(8) 0.3339(4)
H1 H 0.0398 1.1403 0.3083
C5 C 0.1309(4) 1.1502(8) 0.4074(5)
H2 H 0.1103 1.2173 0.4315
C6 C 0.2029(4) 1.0960(8) 0.4446(4)
H3 H 0.2301 1.1244 0.4945
C7 C 0.3127(3) 0.9467(6) 0.4503(3)
H4 H 0.3378 0.9745 0.5006
C8 C 0.4574(3) 0.7316(6) 0.4319(3)
C9 C 0.5342(3) 0.6826(5) 0.4832(3)
C10 C 0.5714(3) 0.7369(6) 0.5562(3)
H5 H 0.5474 0.8073 0.5755
C11 C 0.6429(3) 0.6887(7) 0.6004(3)
H6 H 0.6665 0.7258 0.6494
C12 C 0.6805(3) 0.5854(6) 0.5730(3)
C13 C 0.6440(3) 0.5299(6) 0.5010(3)
H7 H 0.6682 0.4598 0.4817
C14 C 0.5719(3) 0.5779(6) 0.4572(3)
H8 H 0.5479 0.5384 0.4088
C15 C 0.7970(3) 0.4574(8) 0.5949(4)
H9 H 0.7750 0.3566 0.5791
H10 H 0.8463 0.4458 0.6343
H11 H 0.8008 0.5102 0.5530
H12 H 0.2680(13) 0.839(7) 0.325(3)
H13 H 0.438(3) 0.830(7) 0.5136(7)
Br2 Br 0.05829(4) 0.72028(10) 0.45791(4)
N3 N 0.3399(2) 0.8437(5) 0.6713(2)
N4 N 0.4159(2) 0.8419(5) 0.7170(2)
O4 O 0.2231(2) 0.7516(5) 0.5551(2)
O5 O 0.4471(2) 0.8856(5) 0.61878(19)
O6 O 0.7667(2) 0.7959(5) 0.8933(2)
C16 C 0.2160(3) 0.8953(6) 0.6584(3)
C17 C 0.1825(3) 0.8231(6) 0.5875(3)
C18 C 0.1048(3) 0.8244(7) 0.5510(3)
C19 C 0.0607(3) 0.9003(8) 0.5808(4)
H14 H 0.0087 0.9018 0.5548
C20 C 0.0937(4) 0.9735(8) 0.6490(4)
H15 H 0.0641 1.0267 0.6688
C21 C 0.1704(3) 0.9686(7) 0.6882(3)
H16 H 0.1921 1.0150 0.7354
C22 C 0.2963(3) 0.8929(6) 0.7010(3)
H17 H 0.3165 0.9276 0.7506
C23 C 0.4663(3) 0.8576(6) 0.6857(3)
C24 C 0.5457(3) 0.8427(6) 0.7399(2)
C25 C 0.5669(3) 0.7405(6) 0.7995(3)
H18 H 0.5306 0.6796 0.8063
C26 C 0.6402(3) 0.7270(7) 0.8486(3)
H19 H 0.6535 0.6565 0.8882
C27 C 0.6952(3) 0.8176(6) 0.8401(3)
C28 C 0.6753(3) 0.9213(6) 0.7812(3)
H20 H 0.7116 0.9834 0.7751
C29 C 0.6013(3) 0.9322(6) 0.7315(3)
H21 H 0.5881 1.0013 0.6914
C30 C 0.8264(4) 0.8748(9) 0.8829(4)
H22 H 0.8286 0.8410 0.8367
H23 H 0.8732 0.8516 0.9241
H24 H 0.8176 0.9850 0.8808
H25 H 0.2694(11) 0.772(7) 0.579(3)
H26 H 0.434(3) 0.843(7) 0.7675(7)
loop_
_geom_bond_atom_site_label_1
_geom_bond_atom_site_label_2
_geom_bond_site_symmetry_1
_geom_bond_site_symmetry_2
Br1 C3 1_555 1_555
N1 N2 1_555 1_555
N2 C8 1_555 1_555
O1 C2 1_555 1_555
O2 C8 1_555 1_555
O3 C12 1_555 1_555
C1 C2 1_555 1_555
C2 C3 1_555 1_555
C3 C4 1_555 1_555
C4 H1 1_555 1_555
C5 C4 1_555 1_555
H2 C5 1_555 1_555
C6 C1 1_555 1_555
H3 C6 1_555 1_555
C7 N1 1_555 1_555
H4 C7 1_555 1_555
C8 C9 1_555 1_555
C9 C10 1_555 1_555
C10 H5 1_555 1_555
C11 C10 1_555 1_555
H6 C11 1_555 1_555
C12 C11 1_555 1_555
C13 C12 1_555 1_555
H7 C13 1_555 1_555
C14 C9 1_555 1_555
H8 C14 1_555 1_555
C15 O3 1_555 1_555
H9 C15 1_555 1_555
H10 C15 1_555 1_555
H11 C15 1_555 1_555
H12 O1 1_555 1_555
H13 N2 1_555 1_555
Br2 C18 1_555 1_555
N3 N4 1_555 1_555
N4 C23 1_555 1_555
O4 C17 1_555 1_555
O5 C23 1_555 1_555
O6 C27 1_555 1_555
C16 C17 1_555 1_555
C17 C18 1_555 1_555
C18 C19 1_555 1_555
C19 H14 1_555 1_555
C20 C19 1_555 1_555
H15 C20 1_555 1_555
C21 C16 1_555 1_555
H16 C21 1_555 1_555
C22 N3 1_555 1_555
H17 C22 1_555 1_555
C23 C24 1_555 1_555
C24 C25 1_555 1_555
C25 H18 1_555 1_555
C26 C25 1_555 1_555
H19 C26 1_555 1_555
C27 C26 1_555 1_555
C28 C27 1_555 1_555
H20 C28 1_555 1_555
C29 C24 1_555 1_555
H21 C29 1_555 1_555
C30 O6 1_555 1_555
H22 C30 1_555 1_555
H23 C30 1_555 1_555
H24 C30 1_555 1_555
H25 O4 1_555 1_555
H26 N4 1_555 1_555
C1 C7 1_555 1_555
C5 C6 1_555 1_555
C13 C14 1_555 1_555
C16 C22 1_555 1_555
C20 C21 1_555 1_555
C28 C29 1_555 1_555

#END
