
#######################################################################
#
#                 Cambridge Crystallographic Data Centre
#                                CCDC 
#
#######################################################################
#
# If this CIF has been generated from an entry in the Cambridge 
# Structural Database, then it will include bibliographic, chemical, 
# crystal, experimental, refinement or atomic coordinate data resulting 
# from the CCDC's data processing and validation procedures.
#
#######################################################################

data_FUBFEO
_chemical_formula_moiety         'C23 H18 Br1 Cl1 N2 O4'
_chemical_name_systematic        
N-(4-Bromophenyl)-2-(2-(4-chlorophenyl)-3-nitro-3,4-dihydro-2H-chromen-4-yl)acetamide
_symmetry_cell_setting           monoclinic
_symmetry_space_group_name_H-M   'P 21'
_symmetry_Int_Tables_number      4
_space_group_name_Hall           'P 2yb'
loop_
_symmetry_equiv_pos_site_id
_symmetry_equiv_pos_as_xyz
1 x,y,z
2 -x,1/2+y,-z
_cell_length_a                   8.7885(7)
_cell_length_b                   5.2010(5)
_cell_length_c                   23.5047(19)
_cell_angle_alpha                90
_cell_angle_beta                 98.753(5)
_cell_angle_gamma                90
_cell_volume                     1061.86
_exptl_crystal_colour            colorless
_exptl_crystal_description       needle
_cell_formula_units_Z            2
loop_
_atom_site_label
_atom_site_type_symbol
_atom_site_fract_x
_atom_site_fract_y
_atom_site_fract_z
Br1 Br 0.99389(4) 0.60489(12) 0.626538(14)
Cl1 Cl -0.34721(8) 0.6080(3) 0.00950(3)
N1 N 0.5764(3) 0.2790(5) 0.40923(11)
H1 H 0.553(3) 0.114(7) 0.4046(11)
N2 N 0.1463(2) 0.5950(5) 0.24312(9)
O1 O 0.5223(2) 0.6673(4) 0.36653(8)
O2 O 0.1889(3) 0.8124(5) 0.23910(15)
O3 O 0.0307(3) 0.5349(5) 0.26168(13)
O4 O 0.3266(2) 0.1988(4) 0.14161(8)
C1 C 0.6741(3) 0.3613(6) 0.45949(12)
C2 C 0.6744(4) 0.2250(7) 0.50929(14)
H2 H 0.6094 0.0814 0.5095
C3 C 0.7691(4) 0.2957(8) 0.55942(14)
H3 H 0.7693 0.2008 0.5935
C4 C 0.8616(3) 0.5038(6) 0.55869(13)
C5 C 0.8618(3) 0.6442(7) 0.50941(13)
H4 H 0.9256 0.7895 0.5097
C6 C 0.7681(3) 0.5720(7) 0.45926(12)
H5 H 0.7689 0.6665 0.4252
C7 C 0.5030(3) 0.4342(6) 0.36731(12)
C8 C 0.3915(3) 0.3000(6) 0.32194(12)
H6 H 0.2866 0.3313 0.3297
H7 H 0.4103 0.1144 0.3250
C9 C 0.4018(3) 0.3853(5) 0.26002(11)
H8 H 0.4430 0.5627 0.2612
C10 C 0.2425(3) 0.3850(5) 0.22351(12)
H9 H 0.1922 0.2173 0.2278
C11 C 0.2574(3) 0.4267(6) 0.15991(12)
H10 H 0.3254 0.5756 0.1564
C12 C 0.1063(3) 0.4662(5) 0.12165(12)
C13 C -0.0169(3) 0.2996(6) 0.12278(13)
H11 H -0.0053 0.1568 0.1476
C14 C -0.1551(3) 0.3406(6) 0.08821(14)
H12 H -0.2380 0.2273 0.0892
C15 C -0.1707(3) 0.5497(6) 0.05214(12)
C16 C -0.0524(4) 0.7136(6) 0.04928(13)
H13 H -0.0646 0.8536 0.0237
C17 C 0.0872(3) 0.6727(6) 0.08462(12)
H14 H 0.1694 0.7870 0.0832
C18 C 0.4625(3) 0.1261(6) 0.17507(10)
C19 C 0.5517(3) -0.0482(6) 0.15040(14)
H15 H 0.5195 -0.1071 0.1127
C20 C 0.6874(4) -0.1352(7) 0.18115(15)
H16 H 0.7479 -0.2553 0.1647
C21 C 0.7343(4) -0.0460(8) 0.23593(16)
H17 H 0.8279 -0.1033 0.2568
C22 C 0.6463(3) 0.1248(9) 0.26022(13)
H18 H 0.6808 0.1843 0.2977
C23 C 0.5056(3) 0.2145(5) 0.23097(12)
loop_
_geom_bond_atom_site_label_1
_geom_bond_atom_site_label_2
_geom_bond_site_symmetry_1
_geom_bond_site_symmetry_2
Br1 C4 1_555 1_555
Cl1 C15 1_555 1_555
N1 H1 1_555 1_555
N2 O2 1_555 1_555
O1 C7 1_555 1_555
O3 N2 1_555 1_555
O4 C11 1_555 1_555
C1 N1 1_555 1_555
C2 C1 1_555 1_555
H2 C2 1_555 1_555
C3 C2 1_555 1_555
H3 C3 1_555 1_555
C4 C3 1_555 1_555
C5 C4 1_555 1_555
H4 C5 1_555 1_555
C6 C1 1_555 1_555
H5 C6 1_555 1_555
C7 N1 1_555 1_555
C8 C7 1_555 1_555
H6 C8 1_555 1_555
H7 C8 1_555 1_555
C9 C8 1_555 1_555
H8 C9 1_555 1_555
C10 N2 1_555 1_555
H9 C10 1_555 1_555
C11 C10 1_555 1_555
H10 C11 1_555 1_555
C12 C11 1_555 1_555
C13 C12 1_555 1_555
H11 C13 1_555 1_555
C14 C13 1_555 1_555
H12 C14 1_555 1_555
C15 C14 1_555 1_555
C16 C15 1_555 1_555
H13 C16 1_555 1_555
C17 C12 1_555 1_555
H14 C17 1_555 1_555
C18 O4 1_555 1_555
C19 C18 1_555 1_555
H15 C19 1_555 1_555
C20 C19 1_555 1_555
H16 C20 1_555 1_555
C21 C20 1_555 1_555
H17 C21 1_555 1_555
C22 C21 1_555 1_555
H18 C22 1_555 1_555
C23 C9 1_555 1_555
C5 C6 1_555 1_555
C9 C10 1_555 1_555
C16 C17 1_555 1_555
C18 C23 1_555 1_555
C22 C23 1_555 1_555

#END
