
#######################################################################
#
#                 Cambridge Crystallographic Data Centre
#                                CCDC 
#
#######################################################################
#
# If this CIF has been generated from an entry in the Cambridge 
# Structural Database, then it will include bibliographic, chemical, 
# crystal, experimental, refinement or atomic coordinate data resulting 
# from the CCDC's data processing and validation procedures.
#
#######################################################################

data_FUBPOJ
_chemical_formula_moiety         'C31 H28 Cl1 F2 N3 O2'
_chemical_name_systematic        
5-chloro-1''-ethyl-5''-(4-fluorobenzylidene)-4'-(4-fluorophenyl)-1'-methyl-4''H-dispiro[indole-3,2'-pyrrolidine-3',3''-piperidine]-2,4''(1H)-dione
_symmetry_cell_setting           monoclinic
_symmetry_space_group_name_H-M   'P 21/n'
_symmetry_Int_Tables_number      14
_space_group_name_Hall           '-P 2yn'
loop_
_symmetry_equiv_pos_site_id
_symmetry_equiv_pos_as_xyz
1 x,y,z
2 1/2-x,1/2+y,1/2-z
3 -x,-y,-z
4 1/2+x,1/2-y,1/2+z
_cell_length_a                   11.97300(13)
_cell_length_b                   16.1952(3)
_cell_length_c                   14.09653(16)
_cell_angle_alpha                90
_cell_angle_beta                 93.4721(10)
_cell_angle_gamma                90
_cell_volume                     2728.37
_exptl_crystal_colour            colorless
_exptl_crystal_description       block
_cell_formula_units_Z            4
loop_
_atom_site_label
_atom_site_type_symbol
_atom_site_fract_x
_atom_site_fract_y
_atom_site_fract_z
O1 O 0.61483(8) -0.06591(7) 0.54476(7)
F1 F 0.65024(8) -0.13139(7) -0.21029(7)
O2 O 0.93570(9) -0.19107(8) 0.33413(8)
F2 F 0.69522(11) -0.45475(7) 0.73310(8)
N1 N 0.59674(11) 0.00995(9) 0.40702(9)
H1 H 0.5306(19) 0.0297(13) 0.4172(14)
N2 N 0.85880(10) -0.04675(9) 0.49339(9)
N3 N 0.59328(10) -0.17949(8) 0.32983(9)
C1 C 0.83416(12) -0.18648(10) 0.33195(11)
C2 C 0.76477(12) -0.19598(10) 0.24086(11)
C3 C 0.65900(12) -0.21049(10) 0.41318(10)
H2 H 0.6705 -0.2707 0.4069
H3 H 0.6181 -0.2005 0.4711
C4 C 0.81978(13) -0.18714(10) 0.16111(11)
H4 H 0.8989 -0.1837 0.1703
C5 C 0.77555(13) -0.18197(10) 0.06213(11)
C6 C 0.83534(13) -0.13321(10) 0.00072(11)
H5 H 0.9058 -0.1112 0.0228
C7 C 0.63332(13) 0.07536(11) 0.25089(12)
H6 H 0.5638 0.1037 0.2444
C8 C 0.71278(14) 0.08329(11) 0.18325(12)
H7 H 0.6967 0.1160 0.1282
C9 C 0.65968(12) 0.02455(10) 0.32801(11)
C10 C 0.76060(12) -0.01841(10) 0.33843(11)
C11 C 0.67668(13) -0.21901(11) 0.02559(11)
H8 H 0.6371 -0.2554 0.0645
C12 C 0.86684(13) -0.10925(11) 0.56827(11)
H9 H 0.8088 -0.1007 0.6144
H10 H 0.9415 -0.1083 0.6025
C13 C 0.64887(12) -0.04349(10) 0.46834(11)
C14 C 0.84780(12) -0.19052(10) 0.51387(11)
H11 H 0.9221 -0.2080 0.4920
C15 C 0.84154(12) -0.00699(10) 0.27394(11)
H12 H 0.9127 -0.0328 0.2824
C16 C 0.64037(12) -0.20940(10) 0.24299(11)
H13 H 0.6025 -0.1810 0.1878
H14 H 0.6245 -0.2692 0.2363
C17 C 0.69375(14) -0.15047(11) -0.12159(11)
C18 C 0.81499(13) 0.04370(10) 0.19600(11)
C19 C 0.77282(12) -0.16653(10) 0.42218(10)
C20 C 0.76269(12) -0.06884(10) 0.42925(10)
C21 C 0.47584(12) -0.20717(10) 0.32961(11)
H15 H 0.4746 -0.2670 0.3436
H16 H 0.4399 -0.1990 0.2652
C22 C 0.40804(13) -0.16220(12) 0.40094(12)
H17 H 0.3313 -0.1835 0.3972
H18 H 0.4070 -0.1030 0.3866
H19 H 0.4420 -0.1711 0.4651
C23 C 0.81980(16) -0.40416(12) 0.62368(12)
H20 H 0.8549 -0.4567 0.6215
C24 C 0.71618(14) -0.25093(11) 0.63123(11)
H21 H 0.6804 -0.1987 0.6342
C25 C 0.73154(16) -0.39104(12) 0.67964(12)
C26 C 0.79482(13) -0.11614(11) -0.09108(11)
H22 H 0.8353 -0.0819 -0.1317
C27 C 0.63556(14) -0.20327(12) -0.06706(12)
H23 H 0.5685 -0.2286 -0.0919
C28 C 0.67902(15) -0.31593(12) 0.68515(12)
H24 H 0.6186 -0.3087 0.7250
C29 C 0.80541(13) -0.26092(11) 0.57256(10)
C30 C 0.85859(13) 0.03822(11) 0.52909(12)
H25 H 0.8530 0.0767 0.4754
H26 H 0.9281 0.0487 0.5675
H27 H 0.7945 0.0461 0.5683
C31 C 0.85629(14) -0.33828(11) 0.57034(11)
H28 H 0.9174 -0.3462 0.5314
Cl1 Cl 0.91452(3) 0.05776(3) 0.11171(3)
loop_
_geom_bond_atom_site_label_1
_geom_bond_atom_site_label_2
_geom_bond_site_symmetry_1
_geom_bond_site_symmetry_2
O1 C13 1_555 1_555
F1 C17 1_555 1_555
O2 C1 1_555 1_555
F2 C25 1_555 1_555
N1 H1 1_555 1_555
N2 C12 1_555 1_555
N3 C3 1_555 1_555
C1 C2 1_555 1_555
C2 C4 1_555 1_555
C3 H2 1_555 1_555
H3 C3 1_555 1_555
C4 H4 1_555 1_555
C5 C4 1_555 1_555
C6 C5 1_555 1_555
H5 C6 1_555 1_555
C7 H6 1_555 1_555
C8 C7 1_555 1_555
H7 C8 1_555 1_555
C9 N1 1_555 1_555
C10 C9 1_555 1_555
C11 C5 1_555 1_555
H8 C11 1_555 1_555
C12 H9 1_555 1_555
H10 C12 1_555 1_555
C13 N1 1_555 1_555
C14 C12 1_555 1_555
H11 C14 1_555 1_555
C15 C10 1_555 1_555
H12 C15 1_555 1_555
C16 N3 1_555 1_555
H13 C16 1_555 1_555
H14 C16 1_555 1_555
C17 C26 1_555 1_555
C18 C8 1_555 1_555
C19 C1 1_555 1_555
C20 N2 1_555 1_555
C21 N3 1_555 1_555
H15 C21 1_555 1_555
H16 C21 1_555 1_555
C22 C21 1_555 1_555
H17 C22 1_555 1_555
H18 C22 1_555 1_555
H19 C22 1_555 1_555
C23 H20 1_555 1_555
C24 H21 1_555 1_555
C25 C23 1_555 1_555
C26 C6 1_555 1_555
H22 C26 1_555 1_555
C27 C11 1_555 1_555
H23 C27 1_555 1_555
C28 C24 1_555 1_555
H24 C28 1_555 1_555
C29 C14 1_555 1_555
C30 N2 1_555 1_555
H25 C30 1_555 1_555
H26 C30 1_555 1_555
H27 C30 1_555 1_555
C31 C23 1_555 1_555
H28 C31 1_555 1_555
Cl1 C18 1_555 1_555
C2 C16 1_555 1_555
C3 C19 1_555 1_555
C7 C9 1_555 1_555
C10 C20 1_555 1_555
C13 C20 1_555 1_555
C14 C19 1_555 1_555
C15 C18 1_555 1_555
C17 C27 1_555 1_555
C19 C20 1_555 1_555
C24 C29 1_555 1_555
C25 C28 1_555 1_555
C29 C31 1_555 1_555

#END
