
#######################################################################
#
#                 Cambridge Crystallographic Data Centre
#                                CCDC 
#
#######################################################################
#
# If this CIF has been generated from an entry in the Cambridge 
# Structural Database, then it will include bibliographic, chemical, 
# crystal, experimental, refinement or atomic coordinate data resulting 
# from the CCDC's data processing and validation procedures.
#
#######################################################################

data_FUBQIC
_chemical_formula_moiety         'C6 H10 N4 O2'
_chemical_name_systematic        
5-Amino-1-(2-hydroxyethyl)imidazole-4-carboxamide
_symmetry_cell_setting           monoclinic
_symmetry_space_group_name_H-M   'P 21/c'
_symmetry_Int_Tables_number      14
_space_group_name_Hall           '-P 2ybc'
loop_
_symmetry_equiv_pos_site_id
_symmetry_equiv_pos_as_xyz
1 x,y,z
2 x,1/2-y,1/2+z
3 -x,-y,-z
4 -x,1/2+y,1/2-z
_cell_length_a                   8.420(2)
_cell_length_b                   9.759(2)
_cell_length_c                   10.583(2)
_cell_angle_alpha                90
_cell_angle_beta                 111.80(2)
_cell_angle_gamma                90
_cell_volume                     807.424
_exptl_crystal_colour            yellow
_exptl_crystal_description       plate
_chemical_melting_point          147-149deg.C
_cell_formula_units_Z            4
_exptl_crystal_recrystallization_method 'ethanol/ethyl acetate'
loop_
_atom_site_label
_atom_site_type_symbol
_atom_site_fract_x
_atom_site_fract_y
_atom_site_fract_z
O1 O 0.9339(3) 0.9577(3) 0.3441(2)
O2 O 0.7811(3) 1.5897(3) 0.1575(3)
N1 N 0.6604(4) 1.3304(3) 0.2389(3)
N2 N 0.6054(4) 1.1586(3) 0.0921(3)
N3 N 0.8827(4) 1.2399(3) 0.4368(3)
N4 N 0.7344(4) 0.8893(3) 0.1438(3)
C1 C 0.5668(5) 1.2847(4) 0.1111(3)
C2 C 0.7333(4) 1.1197(3) 0.2146(3)
C3 C 0.7679(4) 1.2265(3) 0.3059(3)
C4 C 0.8081(4) 0.9838(3) 0.2390(3)
C5 C 0.6521(5) 1.4673(4) 0.2923(4)
C6 C 0.7966(6) 1.5591(4) 0.2920(4)
H1 H 0.87520 1.54290 0.15200
H2 H 0.9590(80) 1.1590(60) 0.5230(60)
H3 H 0.880(10) 1.310(10) 0.4990(80)
H4 H 0.77030 0.79190 0.15060
H5 H 0.6380(50) 0.8990(40) 0.0740(20)
H6 H 0.4710(50) 1.3460(40) 0.0390(40)
H7 H 0.6580(50) 1.4550(40) 0.3880(40)
H8 H 0.5820(60) 1.5070(50) 0.2480(50)
H9 H 0.7990(60) 1.6540(50) 0.3260(40)
H10 H 0.9310(50) 1.5230(40) 0.3410(30)
loop_
_geom_bond_atom_site_label_1
_geom_bond_atom_site_label_2
_geom_bond_site_symmetry_1
_geom_bond_site_symmetry_2
O1 C4 1_555 1_555
O2 C6 1_555 1_555
N1 C1 1_555 1_555
N2 C1 1_555 1_555
N3 C3 1_555 1_555
N4 C4 1_555 1_555
C1 H6 1_555 1_555
C2 N2 1_555 1_555
C3 N1 1_555 1_555
C4 C2 1_555 1_555
C5 N1 1_555 1_555
C6 C5 1_555 1_555
H1 O2 1_555 1_555
H2 N3 1_555 1_555
H3 N3 1_555 1_555
H4 N4 1_555 1_555
H5 N4 1_555 1_555
H7 C5 1_555 1_555
H8 C5 1_555 1_555
H9 C6 1_555 1_555
H10 C6 1_555 1_555
C2 C3 1_555 1_555

#END
