
#######################################################################
#
#                 Cambridge Crystallographic Data Centre
#                                CCDC 
#
#######################################################################
#
# If this CIF has been generated from an entry in the Cambridge 
# Structural Database, then it will include bibliographic, chemical, 
# crystal, experimental, refinement or atomic coordinate data resulting 
# from the CCDC's data processing and validation procedures.
#
#######################################################################

data_FUBRIF
_chemical_formula_moiety         'C28 H26 Cl1 N3 O4,C3 H7 N1 O1'
_chemical_name_systematic        
'6-(3-chlorophenyl)-10-hydroxy-4,9-dimethyl-7-nitro-2,8-diphenyl-2,3-diazaspiro[4.5]dec-3-en-1-one N,N-dimethylformamide solvate'
_symmetry_cell_setting           orthorhombic
_symmetry_space_group_name_H-M   'P 21 21 21'
_symmetry_Int_Tables_number      19
_space_group_name_Hall           'P 2ac 2ab'
loop_
_symmetry_equiv_pos_site_id
_symmetry_equiv_pos_as_xyz
1 x,y,z
2 1/2-x,-y,1/2+z
3 1/2+x,1/2-y,-z
4 -x,1/2+y,1/2-z
_cell_length_a                   11.4057(8)
_cell_length_b                   16.5073(13)
_cell_length_c                   16.8054(12)
_cell_angle_alpha                90
_cell_angle_beta                 90
_cell_angle_gamma                90
_cell_volume                     3164.08
_cell_formula_units_Z            4
loop_
_atom_site_label
_atom_site_type_symbol
_atom_site_fract_x
_atom_site_fract_y
_atom_site_fract_z
O1 O 0.7771(15) 0.4916(8) 0.1782(13)
N1 N 0.7535(10) 0.3555(8) 0.2077(10)
C1 C 0.8659(9) 0.3460(9) 0.2452(8)
H1 H 0.9015 0.3982 0.2522
H2 H 0.9153 0.3128 0.2124
H3 H 0.8559 0.3205 0.2961
C2 C 0.7131(11) 0.4282(8) 0.1792(12)
H4 H 0.6368 0.4313 0.1601
C3 C 0.6738(13) 0.2845(9) 0.2123(13)
H5 H 0.5942 0.3021 0.2055
H6 H 0.6822 0.2588 0.2632
H7 H 0.6934 0.2466 0.1711
Cl1 Cl 0.6087(4) 0.0764(3) 0.2763(3)
H8 H 0.3473 -0.0432 0.1047
N2 N 0.4154(9) 0.2491(6) 0.0129(6)
N3 N 0.2540(8) 0.2561(6) 0.3280(5)
N4 N 0.1547(8) 0.2077(6) 0.3134(5)
O2 O 0.5175(8) 0.2499(6) 0.0123(5)
O3 O 0.3545(9) 0.2195(5) -0.0404(5)
O4 O 0.0891(7) 0.3810(4) 0.2300(4)
H9 H 0.1072 0.3568 0.2708
O5 O 0.3776(6) 0.3389(4) 0.2567(4)
C4 C 0.4948(11) 0.0773(8) 0.2127(7)
C5 C 0.4626(13) 0.0073(8) 0.1756(8)
H10 H 0.5034 -0.0403 0.1858
C6 C 0.3715(14) 0.0069(8) 0.1240(8)
C7 C 0.3092(11) 0.0778(7) 0.1072(7)
H11 H 0.2464 0.0762 0.0720
C8 C 0.3402(10) 0.1505(7) 0.1427(6)
C9 C 0.4372(10) 0.1510(8) 0.1964(7)
H12 H 0.4619 0.1989 0.2201
C10 C 0.2764(9) 0.2263(6) 0.1225(5)
H13 H 0.2147 0.2103 0.0851
C11 C 0.3493(9) 0.2903(6) 0.0792(5)
H14 H 0.4067 0.3123 0.1169
C12 C 0.2739(9) 0.3610(6) 0.0481(6)
H15 H 0.2128 0.3388 0.0134
C13 C 0.2152(9) 0.4035(6) 0.1170(6)
H16 H 0.2753 0.4257 0.1526
C14 C 0.1384(9) 0.3412(6) 0.1638(5)
H17 H 0.0754 0.3216 0.1292
C15 C 0.2123(8) 0.2676(6) 0.1935(5)
C16 C 0.3477(11) 0.4207(7) -0.0004(6)
C17 C 0.3094(11) 0.4429(8) -0.0780(7)
H18 H 0.2427 0.4189 -0.0995
C18 C 0.3687(13) 0.4981(8) -0.1206(8)
H19 H 0.3450 0.5091 -0.1724
C19 C 0.4595(13) 0.5375(9) -0.0911(8)
H20 H 0.4945 0.5785 -0.1207
C20 C 0.5033(13) 0.5182(9) -0.0166(9)
H21 H 0.5709 0.5429 0.0026
C21 C 0.4435(11) 0.4606(8) 0.0292(8)
H22 H 0.4692 0.4493 0.0805
C22 C 0.1345(12) 0.4735(8) 0.0874(7)
H23 H 0.1818 0.5163 0.0659
H24 H 0.0891 0.4939 0.1311
H25 H 0.0827 0.4534 0.0469
C23 C 0.2914(9) 0.2939(7) 0.2604(6)
C24 C 0.1324(9) 0.2132(6) 0.2377(6)
C25 C 0.0319(10) 0.1644(7) 0.2040(7)
H26 H 0.0070 0.1250 0.2425
H27 H 0.0571 0.1373 0.1564
H28 H -0.0323 0.1999 0.1917
C26 C 0.2957(10) 0.2612(7) 0.4060(5)
C27 C 0.4019(11) 0.3001(9) 0.4216(6)
H29 H 0.4533 0.3132 0.3806
C28 C 0.4290(13) 0.3189(9) 0.5012(7)
H30 H 0.4769 0.3627 0.5137
C29 C 0.3826(13) 0.2709(10) 0.5597(6)
H31 H 0.4104 0.2751 0.6116
C30 C 0.2944(14) 0.2159(10) 0.5418(6)
H32 H 0.2657 0.1816 0.5811
C31 C 0.2491(12) 0.2121(9) 0.4655(6)
H33 H 0.1878 0.1768 0.4541
loop_
_geom_bond_atom_site_label_1
_geom_bond_atom_site_label_2
_geom_bond_site_symmetry_1
_geom_bond_site_symmetry_2
O1 C2 1_555 1_555
N1 C1 1_555 1_555
C1 H1 1_555 1_555
H2 C1 1_555 1_555
H3 C1 1_555 1_555
C2 N1 1_555 1_555
H4 C2 1_555 1_555
C3 N1 1_555 1_555
H5 C3 1_555 1_555
H6 C3 1_555 1_555
H7 C3 1_555 1_555
Cl1 C4 1_555 1_555
H8 C6 1_555 1_555
N2 O2 1_555 1_555
N3 N4 1_555 1_555
N4 C24 1_555 1_555
O3 N2 1_555 1_555
O4 H9 1_555 1_555
O5 C23 1_555 1_555
C4 C5 1_555 1_555
C5 H10 1_555 1_555
C6 C5 1_555 1_555
C7 C6 1_555 1_555
H11 C7 1_555 1_555
C8 C7 1_555 1_555
C9 C4 1_555 1_555
H12 C9 1_555 1_555
C10 C8 1_555 1_555
H13 C10 1_555 1_555
C11 N2 1_555 1_555
H14 C11 1_555 1_555
C12 C11 1_555 1_555
H15 C12 1_555 1_555
C13 C12 1_555 1_555
H16 C13 1_555 1_555
C14 O4 1_555 1_555
H17 C14 1_555 1_555
C15 C10 1_555 1_555
C16 C12 1_555 1_555
C17 C16 1_555 1_555
H18 C17 1_555 1_555
C18 C17 1_555 1_555
H19 C18 1_555 1_555
C19 C18 1_555 1_555
H20 C19 1_555 1_555
C20 C19 1_555 1_555
H21 C20 1_555 1_555
C21 C16 1_555 1_555
H22 C21 1_555 1_555
C22 C13 1_555 1_555
H23 C22 1_555 1_555
H24 C22 1_555 1_555
H25 C22 1_555 1_555
C23 N3 1_555 1_555
C24 C15 1_555 1_555
C25 C24 1_555 1_555
H26 C25 1_555 1_555
H27 C25 1_555 1_555
H28 C25 1_555 1_555
C26 N3 1_555 1_555
C27 C26 1_555 1_555
H29 C27 1_555 1_555
C28 C27 1_555 1_555
H30 C28 1_555 1_555
C29 C28 1_555 1_555
H31 C29 1_555 1_555
C30 C29 1_555 1_555
H32 C30 1_555 1_555
C31 C26 1_555 1_555
H33 C31 1_555 1_555
C8 C9 1_555 1_555
C10 C11 1_555 1_555
C13 C14 1_555 1_555
C14 C15 1_555 1_555
C15 C23 1_555 1_555
C20 C21 1_555 1_555
C30 C31 1_555 1_555

#END
