
#######################################################################
#
#                 Cambridge Crystallographic Data Centre
#                                CCDC 
#
#######################################################################
#
# If this CIF has been generated from an entry in the Cambridge 
# Structural Database, then it will include bibliographic, chemical, 
# crystal, experimental, refinement or atomic coordinate data resulting 
# from the CCDC's data processing and validation procedures.
#
#######################################################################

data_FUBRUR
_chemical_formula_moiety         'C10 H14 O3'
_chemical_name_systematic        7-methyl-6-oxaspiro[4.5]decane-1,9-dione
_symmetry_cell_setting           orthorhombic
_symmetry_space_group_name_H-M   'P n a 21'
_symmetry_Int_Tables_number      33
_space_group_name_Hall           'P 2c -2n'
loop_
_symmetry_equiv_pos_site_id
_symmetry_equiv_pos_as_xyz
1 x,y,z
2 -x,-y,1/2+z
3 1/2-x,1/2+y,1/2+z
4 1/2+x,1/2-y,z
_cell_length_a                   8.1280(12)
_cell_length_b                   16.8092(19)
_cell_length_c                   7.3594(7)
_cell_angle_alpha                90
_cell_angle_beta                 90
_cell_angle_gamma                90
_cell_volume                     1005.48
_exptl_crystal_colour            colorless
_exptl_crystal_description       block
_cell_formula_units_Z            4
loop_
_atom_site_label
_atom_site_type_symbol
_atom_site_fract_x
_atom_site_fract_y
_atom_site_fract_z
O1 O -0.2037(5) -0.7433(2) -0.3472(6)
O2 O -0.6441(5) -0.5155(2) -0.1303(6)
O3 O -0.3332(4) -0.69415(18) -0.0148(4)
C1 C -0.1779(6) -0.6773(3) -0.2870(6)
C2 C -0.0350(8) -0.6241(3) -0.3308(11)
H1 H -0.0257 -0.6163 -0.4610
H2 H 0.0669 -0.6469 -0.2861
C3 C -0.0719(7) -0.5461(3) -0.2357(9)
H3 H 0.0288 -0.5208 -0.1952
H4 H -0.1298 -0.5100 -0.3163
C4 C -0.1790(7) -0.5685(3) -0.0750(8)
H5 H -0.2449 -0.5236 -0.0355
H6 H -0.1124 -0.5868 0.0262
C5 C -0.2889(6) -0.6360(3) -0.1475(7)
C6 C -0.4439(6) -0.6061(3) -0.2442(7)
H7 H -0.4150 -0.5625 -0.3246
H8 H -0.4898 -0.6486 -0.3175
C7 C -0.5690(7) -0.5785(3) -0.1114(7)
C8 C -0.5965(7) -0.6326(3) 0.0464(8)
H9 H -0.6635 -0.6772 0.0077
H10 H -0.6566 -0.6041 0.1398
C9 C -0.4357(7) -0.6639(3) 0.1264(7)
H11 H -0.3785 -0.6206 0.1894
C10 C -0.4640(8) -0.7316(3) 0.2565(8)
H12 H -0.5161 -0.7748 0.1936
H13 H -0.5335 -0.7140 0.3540
H14 H -0.3605 -0.7491 0.3048
loop_
_geom_bond_atom_site_label_1
_geom_bond_atom_site_label_2
_geom_bond_site_symmetry_1
_geom_bond_site_symmetry_2
O1 C1 1_555 1_555
O2 C7 1_555 1_555
O3 C5 1_555 1_555
C1 C2 1_555 1_555
C2 H1 1_555 1_555
H2 C2 1_555 1_555
C3 C2 1_555 1_555
H3 C3 1_555 1_555
H4 C3 1_555 1_555
C4 C3 1_555 1_555
H5 C4 1_555 1_555
H6 C4 1_555 1_555
C5 C1 1_555 1_555
C6 C5 1_555 1_555
H7 C6 1_555 1_555
H8 C6 1_555 1_555
C7 C6 1_555 1_555
C8 C7 1_555 1_555
H9 C8 1_555 1_555
H10 C8 1_555 1_555
C9 O3 1_555 1_555
H11 C9 1_555 1_555
C10 C9 1_555 1_555
H12 C10 1_555 1_555
H13 C10 1_555 1_555
H14 C10 1_555 1_555
C4 C5 1_555 1_555
C8 C9 1_555 1_555

#END
