
#######################################################################
#
#                 Cambridge Crystallographic Data Centre
#                                CCDC 
#
#######################################################################
#
# If this CIF has been generated from an entry in the Cambridge 
# Structural Database, then it will include bibliographic, chemical, 
# crystal, experimental, refinement or atomic coordinate data resulting 
# from the CCDC's data processing and validation procedures.
#
#######################################################################

data_FUBYEH
_chemical_formula_moiety         'C14 H17 Br1 O4 S1'
_chemical_name_systematic        
'(3S,4S,5S)-Ethyl 5-(4-bromophenyl)-3-hydroxy-4-(hydroxymethyl)-tetrahydro-3-thiophenecarboxylate'
_symmetry_cell_setting           monoclinic
_symmetry_space_group_name_H-M   'P 21'
_symmetry_Int_Tables_number      4
_space_group_name_Hall           'P 2yb'
loop_
_symmetry_equiv_pos_site_id
_symmetry_equiv_pos_as_xyz
1 x,y,z
2 -x,1/2+y,-z
_cell_length_a                   11.5464(16)
_cell_length_b                   6.1106(9)
_cell_length_c                   12.0651(17)
_cell_angle_alpha                90
_cell_angle_beta                 116.363(2)
_cell_angle_gamma                90
_cell_volume                     762.726
_exptl_crystal_colour            colorless
_exptl_crystal_description       prismatic
_cell_formula_units_Z            2
loop_
_atom_site_label
_atom_site_type_symbol
_atom_site_fract_x
_atom_site_fract_y
_atom_site_fract_z
Br1 Br -0.27781(9) 0.4379(2) -0.08621(8)
S1 S 0.03056(18) 1.1566(3) 0.4117(2)
O1 O 0.3472(5) 1.2424(10) 0.4916(6)
O2 O 0.4932(7) 1.0743(16) 0.7176(8)
O3 O 0.3367(6) 0.8440(12) 0.7044(6)
O4 O 0.4185(5) 0.6783(10) 0.5023(6)
C1 C 0.1785(8) 1.1981(17) 0.5513(8)
H1 H 0.1963 1.3534 0.5656
H2 H 0.1700 1.1374 0.6216
C2 C 0.2894(7) 1.0845(14) 0.5367(8)
C3 C 0.2272(6) 0.9024(14) 0.4405(7)
H3 H 0.1922 0.7918 0.4762
C4 C 0.1127(7) 1.0136(13) 0.3312(8)
H4 H 0.1468 1.1226 0.2938
C5 C 0.0190(7) 0.8722(14) 0.2323(7)
C6 C -0.0137(8) 0.6669(17) 0.2540(8)
H5 H 0.0249 0.6119 0.3342
C7 C -0.1029(8) 0.5380(17) 0.1597(8)
H6 H -0.1239 0.3991 0.1765
C8 C -0.1597(8) 0.6198(15) 0.0407(8)
C9 C -0.1292(9) 0.8231(18) 0.0178(8)
H7 H -0.1689 0.8783 -0.0624
C10 C -0.0412(8) 0.9483(19) 0.1104(8)
H8 H -0.0209 1.0867 0.0921
C11 C 0.3860(8) 1.0023(15) 0.6628(8)
C12 C 0.4121(11) 0.766(2) 0.8264(11)
H9 H 0.4124 0.8735 0.8857
H10 H 0.5006 0.7436 0.8399
C13 C 0.3590(12) 0.560(3) 0.8448(12)
H11 H 0.2664 0.5639 0.8003
H12 H 0.3840 0.5400 0.9314
H13 H 0.3917 0.4413 0.8149
C14 C 0.3196(7) 0.7898(15) 0.4002(8)
H14 H 0.2723 0.6860 0.3348
H15 H 0.3583 0.8976 0.3679
H16 H 0.415(8) 1.19(2) 0.492(14)
H17 H 0.401(10) 0.549(7) 0.516(10)
loop_
_geom_bond_atom_site_label_1
_geom_bond_atom_site_label_2
_geom_bond_site_symmetry_1
_geom_bond_site_symmetry_2
Br1 C8 1_555 1_555
S1 C1 1_555 1_555
O1 C2 1_555 1_555
O2 C11 1_555 1_555
O3 C11 1_555 1_555
O4 C14 1_555 1_555
C1 H1 1_555 1_555
H2 C1 1_555 1_555
C2 C1 1_555 1_555
C3 C2 1_555 1_555
H3 C3 1_555 1_555
C4 S1 1_555 1_555
H4 C4 1_555 1_555
C5 C4 1_555 1_555
C6 C5 1_555 1_555
H5 C6 1_555 1_555
C7 C6 1_555 1_555
H6 C7 1_555 1_555
C8 C7 1_555 1_555
C9 C8 1_555 1_555
H7 C9 1_555 1_555
C10 C5 1_555 1_555
H8 C10 1_555 1_555
C11 C2 1_555 1_555
C12 O3 1_555 1_555
H9 C12 1_555 1_555
H10 C12 1_555 1_555
C13 C12 1_555 1_555
H11 C13 1_555 1_555
H12 C13 1_555 1_555
H13 C13 1_555 1_555
C14 C3 1_555 1_555
H14 C14 1_555 1_555
H15 C14 1_555 1_555
H16 O1 1_555 1_555
H17 O4 1_555 1_555
C3 C4 1_555 1_555
C9 C10 1_555 1_555

#END
