
#######################################################################
#
#                 Cambridge Crystallographic Data Centre
#                                CCDC 
#
#######################################################################
#
# If this CIF has been generated from an entry in the Cambridge 
# Structural Database, then it will include bibliographic, chemical, 
# crystal, experimental, refinement or atomic coordinate data resulting 
# from the CCDC's data processing and validation procedures.
#
#######################################################################

data_FUCTIG03
_chemical_formula_moiety         'C10 H10 N2 2+,2(N1 O3 1-)'
_chemical_name_systematic        "4,4'-bipyridinium dinitrate"
_symmetry_cell_setting           triclinic
_symmetry_space_group_name_H-M   'P 1'
_symmetry_Int_Tables_number      1
_space_group_name_Hall           'P 1'
loop_
_symmetry_equiv_pos_site_id
_symmetry_equiv_pos_as_xyz
1 x,y,z
_cell_length_a                   11.799(2)
_cell_length_b                   13.981(3)
_cell_length_c                   3.6668(7)
_cell_angle_alpha                97.45(3)
_cell_angle_beta                 98.84(3)
_cell_angle_gamma                88.80(3)
_cell_volume                     592.651
_exptl_crystal_colour            colorless
_exptl_crystal_description       prismatic
_cell_formula_units_Z            2
loop_
_atom_site_label
_atom_site_type_symbol
_atom_site_fract_x
_atom_site_fract_y
_atom_site_fract_z
O1 O 0.1497(3) -0.3791(2) 1.0801(11)
O2 O 0.0409(3) -0.2576(3) 1.2092(11)
O3 O 0.2227(3) -0.2484(3) 1.4011(11)
N1 N 0.1379(3) -0.2936(3) 1.2308(11)
O4 O 0.7885(3) 0.2421(3) 0.5831(11)
O5 O 0.6799(3) 0.1207(2) 0.3457(11)
O6 O 0.6065(3) 0.2520(3) 0.5931(11)
N2 N 0.6916(3) 0.2059(3) 0.5082(11)
O7 O 0.1059(3) 0.3086(3) 0.6203(12)
O8 O 0.2885(3) 0.3182(3) 0.6223(11)
O9 O 0.1802(3) 0.4391(2) 0.5039(11)
N3 N 0.1912(3) 0.3537(3) 0.5823(11)
O10 O 0.5405(3) -0.1816(3) 0.7471(11)
O11 O 0.7236(3) -0.1916(3) 0.9300(11)
O12 O 0.6498(3) -0.0611(2) 0.7382(11)
N4 N 0.6382(3) -0.1466(3) 0.8062(11)
N5 N 0.3723(3) 0.5721(3) 0.1467(12)
H1 H 0.2997 0.5831 0.1238
N8 N 0.9570(3) 0.4878(3) 0.3952(12)
H4 H 1.0295 0.4767 0.4334
C1 C 0.4413(4) 0.6422(3) 0.1044(13)
H5 H 0.4105 0.7013 0.0490
C2 C 0.5584(4) 0.6280(3) 0.1418(12)
H6 H 0.6073 0.6769 0.1137
C3 C 0.6012(3) 0.5384(3) 0.2228(11)
C4 C 0.5260(4) 0.4670(3) 0.2581(12)
H7 H 0.5537 0.4064 0.3055
C5 C 0.4107(4) 0.4854(4) 0.2234(13)
H8 H 0.3599 0.4380 0.2528
C6 C 0.9184(4) 0.5744(4) 0.5204(14)
H9 H 0.9695 0.6215 0.6476
C7 C 0.8025(4) 0.5936(3) 0.4599(12)
H10 H 0.7747 0.6543 0.5399
C8 C 0.7278(3) 0.5215(3) 0.2785(10)
C9 C 0.7712(4) 0.4318(3) 0.1516(13)
H11 H 0.7224 0.3826 0.0280
C10 C 0.8873(4) 0.4179(3) 0.2133(13)
H12 H 0.9179 0.3589 0.1274
N6 N -0.1280(3) -0.0122(3) 0.8544(12)
H2 H -0.2005 -0.0231 0.8224
N7 N 0.4572(3) 0.0719(3) 1.1896(11)
H3 H 0.5297 0.0827 1.2412
C11 C -0.0892(4) 0.0749(3) 1.0173(14)
H13 H -0.1403 0.1224 1.0917
C12 C 0.0257(4) 0.0934(3) 1.0730(12)
H14 H 0.0536 0.1538 1.1822
C13 C 0.1015(3) 0.0202(3) 0.9636(11)
C14 C 0.0579(4) -0.0678(3) 0.7951(13)
H15 H 0.1068 -0.1168 0.7191
C15 C -0.0585(4) -0.0825(4) 0.7399(13)
H16 H -0.0888 -0.1415 0.6230
C16 C 0.3883(4) 0.1426(4) 1.0761(13)
H17 H 0.4187 0.2018 1.0505
C17 C 0.2709(4) 0.1270(3) 0.9967(13)
H18 H 0.2218 0.1756 0.9172
C18 C 0.2279(3) 0.0389(3) 1.0369(11)
C19 C 0.3033(3) -0.0336(3) 1.1471(12)
H19 H 0.2756 -0.0943 1.1662
C20 C 0.4184(4) -0.0151(3) 1.2267(13)
H20 H 0.4694 -0.0625 1.3061
loop_
_geom_bond_atom_site_label_1
_geom_bond_atom_site_label_2
_geom_bond_site_symmetry_1
_geom_bond_site_symmetry_2
O1 N1 1_555 1_555
O2 N1 1_555 1_555
O3 N1 1_555 1_555
O4 N2 1_555 1_555
O5 N2 1_555 1_555
O6 N2 1_555 1_555
O7 N3 1_555 1_555
O8 N3 1_555 1_555
O9 N3 1_555 1_555
O10 N4 1_555 1_555
O11 N4 1_555 1_555
O12 N4 1_555 1_555
N5 H1 1_555 1_555
N6 H2 1_555 1_555
N7 H3 1_555 1_555
N8 H4 1_555 1_555
C1 N5 1_555 1_555
H5 C1 1_555 1_555
C2 C1 1_555 1_555
H6 C2 1_555 1_555
C3 C2 1_555 1_555
C4 C3 1_555 1_555
H7 C4 1_555 1_555
C5 N5 1_555 1_555
H8 C5 1_555 1_555
C6 N8 1_555 1_555
H9 C6 1_555 1_555
C7 C6 1_555 1_555
H10 C7 1_555 1_555
C8 C3 1_555 1_555
C9 C8 1_555 1_555
H11 C9 1_555 1_555
C10 N8 1_555 1_555
H12 C10 1_555 1_555
C11 N6 1_555 1_555
H13 C11 1_555 1_555
C12 C11 1_555 1_555
H14 C12 1_555 1_555
C13 C12 1_555 1_555
C14 C13 1_555 1_555
H15 C14 1_555 1_555
C15 N6 1_555 1_555
H16 C15 1_555 1_555
C16 N7 1_555 1_555
H17 C16 1_555 1_555
C17 C16 1_555 1_555
H18 C17 1_555 1_555
C18 C13 1_555 1_555
C19 C18 1_555 1_555
H19 C19 1_555 1_555
C20 N7 1_555 1_555
H20 C20 1_555 1_555
C4 C5 1_555 1_555
C7 C8 1_555 1_555
C9 C10 1_555 1_555
C14 C15 1_555 1_555
C17 C18 1_555 1_555
C19 C20 1_555 1_555

#END
