
#######################################################################
#
#                 Cambridge Crystallographic Data Centre
#                                CCDC 
#
#######################################################################
#
# If this CIF has been generated from an entry in the Cambridge 
# Structural Database, then it will include bibliographic, chemical, 
# crystal, experimental, refinement or atomic coordinate data resulting 
# from the CCDC's data processing and validation procedures.
#
#######################################################################

data_FUDDUD
_chemical_compound_source        'Boesenbergia sp. rhizomes'
_chemical_name_common            Boesenboxide
_chemical_formula_moiety         'C23 H20 O8'
_chemical_name_systematic        
'(+)-(1R,2R,4R,5S,6R,7R)-4-Benzoyloxymethyl-3,8-dioxatricyclo(5.1.0.0^2,4^)octane-5,6-diol 5-acetate 6-benzoate'
_symmetry_cell_setting           monoclinic
_symmetry_space_group_name_H-M   'P 21'
_symmetry_Int_Tables_number      4
_space_group_name_Hall           'P 2yb'
loop_
_symmetry_equiv_pos_site_id
_symmetry_equiv_pos_as_xyz
1 x,y,z
2 -x,1/2+y,-z
_cell_length_a                   12.722(2)
_cell_length_b                   5.230(1)
_cell_length_c                   16.139(3)
_cell_angle_alpha                90
_cell_angle_beta                 106.57(1)
_cell_angle_gamma                90
_cell_volume                     1029.23
_exptl_crystal_colour            colorless
_chemical_melting_point          171-172deg.C
_cell_formula_units_Z            2
loop_
_atom_site_label
_atom_site_type_symbol
_atom_site_fract_x
_atom_site_fract_y
_atom_site_fract_z
O1 O 0.0392(2) 0.1935(7) 0.6675(2)
C1 C -0.0314(3) 0.3867(9) 0.6175(2)
C2 C -0.0069(3) 0.3823(9) 0.7120(2)
C3 C 0.0744(3) 0.5757(10) 0.7624(2)
C4 C 0.1679(3) 0.6139(10) 0.7216(2)
C5 C 0.1240(3) 0.6979(11) 0.6286(2)
O2 O 0.1262(2) 0.5109(8) 0.5633(1)
C6 C 0.0232(3) 0.5823(10) 0.5779(2)
C7 C -0.0880(3) 0.2743(11) 0.7545(2)
O3 O -0.1585(2) 0.1106(8) 0.6920(2)
C8 C -0.2245(3) -0.0491(11) 0.7165(2)
O4 O -0.2335(3) -0.0496(11) 0.7873(2)
C9 C -0.2832(3) -0.2217(10) 0.6456(2)
C10 C -0.2661(3) -0.2124(11) 0.5649(3)
C11 C -0.3184(3) -0.3836(12) 0.5003(3)
C12 C -0.3884(4) -0.5624(14) 0.5182(4)
C13 C -0.4074(4) -0.5712(13) 0.5977(4)
C14 C -0.3548(4) -0.4018(12) 0.6613(3)
O5 O 0.1201(2) 0.4782(8) 0.8489(1)
C15 C 0.1049(4) 0.6141(13) 0.9147(2)
C16 C 0.1535(6) 0.4857(22) 0.9984(3)
O6 O 0.0589(4) 0.8136(13) 0.9046(2)
O7 O 0.2379(2) 0.8063(1) 0.7725(1)
C17 C 0.3366(3) 0.8359(10) 0.7567(2)
O8 O 0.3626(2) 0.7113(9) 0.7032(2)
C18 C 0.4034(3) 1.0383(10) 0.8109(2)
C19 C 0.3659(3) 1.1884(11) 0.8667(2)
C20 C 0.4312(4) 1.3775(12) 0.9142(3)
C21 C 0.5351(4) 1.4158(11) 0.9060(3)
C22 C 0.5726(4) 1.2717(13) 0.8512(3)
C23 C 0.5081(4) 1.0799(12) 0.8028(3)
H1 H -0.103(3) 0.324(9) 0.583(2)
H2 H 0.039(3) 0.744(8) 0.766(2)
H3 H 0.207(2) 0.466(7) 0.726(2)
H4 H 0.144(3) 0.863(8) 0.618(2)
H5 H -0.018(2) 0.675(7) 0.535(2)
H6 H -0.130(3) 0.402(8) 0.772(2)
H7 H -0.051(3) 0.174(8) 0.808(2)
H8 H -0.220(3) -0.096(9) 0.552(2)
H9 H -0.307(4) -0.367(11) 0.437(3)
H10 H -0.424(4) -0.685(12) 0.476(3)
H11 H -0.458(4) -0.698(15) 0.605(4)
H12 H -0.364(3) -0.394(11) 0.717(3)
H13 H 0.156(5) 0.288(1) 0.994(4)
H14 H 0.112(5) 0.503(18) 1.036(4)
H15 H 0.222(5) 0.531(20) 1.012(4)
H16 H 0.292(3) 1.177(8) 0.867(2)
H17 H 0.401(3) 1.502(12) 0.950(3)
H18 H 0.585(3) 1.564(12) 0.940(3)
H19 H 0.640(3) 1.302(10) 0.843(2)
H20 H 0.529(3) 0.989(10) 0.766(2)
loop_
_geom_bond_atom_site_label_1
_geom_bond_atom_site_label_2
_geom_bond_site_symmetry_1
_geom_bond_site_symmetry_2
O1 C1 1_555 1_555
C1 C2 1_555 1_555
C2 O1 1_555 1_555
C3 C2 1_555 1_555
C4 C3 1_555 1_555
C5 C4 1_555 1_555
O2 C5 1_555 1_555
C6 C1 1_555 1_555
C7 C2 1_555 1_555
O3 C7 1_555 1_555
C8 O3 1_555 1_555
O4 C8 1_555 1_555
C9 C8 1_555 1_555
C10 C9 1_555 1_555
C11 C10 1_555 1_555
C12 C11 1_555 1_555
C13 C12 1_555 1_555
C14 C9 1_555 1_555
O5 C3 1_555 1_555
C15 O5 1_555 1_555
C16 C15 1_555 1_555
O6 C15 1_555 1_555
O7 C4 1_555 1_555
C17 O7 1_555 1_555
O8 C17 1_555 1_555
C18 C17 1_555 1_555
C19 C18 1_555 1_555
C20 C19 1_555 1_555
C21 C20 1_555 1_555
C22 C21 1_555 1_555
C23 C18 1_555 1_555
H1 C1 1_555 1_555
H2 C3 1_555 1_555
H3 C4 1_555 1_555
H4 C5 1_555 1_555
H5 C6 1_555 1_555
H6 C7 1_555 1_555
H7 C7 1_555 1_555
H8 C10 1_555 1_555
H9 C11 1_555 1_555
H10 C12 1_555 1_555
H11 C13 1_555 1_555
H12 C14 1_555 1_555
H13 C16 1_555 1_555
H14 C16 1_555 1_555
H15 C16 1_555 1_555
H16 C19 1_555 1_555
H17 C20 1_555 1_555
H18 C21 1_555 1_555
H19 C22 1_555 1_555
H20 C23 1_555 1_555
C5 C6 1_555 1_555
O2 C6 1_555 1_555
C13 C14 1_555 1_555
C22 C23 1_555 1_555

#END
