
#######################################################################
#
#                 Cambridge Crystallographic Data Centre
#                                CCDC 
#
#######################################################################
#
# If this CIF has been generated from an entry in the Cambridge 
# Structural Database, then it will include bibliographic, chemical, 
# crystal, experimental, refinement or atomic coordinate data resulting 
# from the CCDC's data processing and validation procedures.
#
#######################################################################

data_FUDDIT
_chemical_formula_moiety         'C12 H20 O4'
_chemical_name_systematic        
4,8-dihydroxy-3-methyl-9-methyleneoxacycloundecan-2-one
_symmetry_cell_setting           trigonal
_symmetry_space_group_name_H-M   'P 32'
_symmetry_Int_Tables_number      145
_space_group_name_Hall           'P 32'
loop_
_symmetry_equiv_pos_site_id
_symmetry_equiv_pos_as_xyz
1 x,y,z
2 -y,x-y,2/3+z
3 -x+y,-x,1/3+z
_cell_length_a                   13.5940(3)
_cell_length_b                   13.5940(3)
_cell_length_c                   5.7493(4)
_cell_angle_alpha                90
_cell_angle_beta                 90
_cell_angle_gamma                120
_cell_volume                     920.111
_exptl_crystal_colour            colorless
_exptl_crystal_description       needle
_cell_formula_units_Z            3
loop_
_atom_site_label
_atom_site_type_symbol
_atom_site_fract_x
_atom_site_fract_y
_atom_site_fract_z
O1 O 0.73540(9) 0.21343(9) 0.82726(18)
O2 O 0.73413(8) 0.13233(8) 0.48346(17)
O3 O 0.38179(8) -0.23892(8) 0.52245(17)
H1 H 0.330(2) -0.282(2) 0.423(5)
O4 O 0.92393(8) 0.00195(9) 0.79632(18)
H2 H 0.9381(19) -0.030(2) 0.696(4)
C1 C 0.76820(12) 0.16347(11) 0.7048(2)
C2 C 0.65234(12) 0.16026(12) 0.3841(3)
H3 H 0.6914 0.2251 0.2755
H4 H 0.6172 0.1824 0.5094
C3 C 0.56142(12) 0.05754(12) 0.2556(3)
H5 H 0.5990 0.0268 0.1556
H6 H 0.5200 0.0827 0.1522
C4 C 0.47547(11) -0.03783(12) 0.4097(2)
C5 C 0.40423(13) -0.02414(13) 0.5436(3)
H7 H 0.3506 -0.0853 0.6367
H8 H 0.4066 0.0469 0.5469
C6 C 0.47541(11) -0.14936(11) 0.3978(2)
H9 H 0.4682 -0.1724 0.2306
C7 C 0.58533(11) -0.13881(11) 0.4920(2)
H10 H 0.6496 -0.0833 0.3958
H11 H 0.5815 -0.2132 0.4763
C8 C 0.60878(12) -0.10134(11) 0.7464(2)
H12 H 0.6064 -0.0302 0.7647
H13 H 0.5478 -0.1601 0.8443
C9 C 0.72344(12) -0.08174(12) 0.8333(2)
H14 H 0.7286 -0.0650 1.0019
H15 H 0.7244 -0.1537 0.8151
C10 C 0.82944(11) 0.01232(11) 0.7170(2)
H16 H 0.8221 0.0016 0.5445
C11 C 0.85760(11) 0.13403(11) 0.7765(2)
H17 H 0.8674 0.1437 0.9489
C12 C 0.96941(12) 0.22184(13) 0.6626(3)
H18 H 0.9632 0.2119 0.4934
H19 H 1.0314 0.2112 0.7197
H20 H 0.9851 0.2985 0.7019
loop_
_geom_bond_atom_site_label_1
_geom_bond_atom_site_label_2
_geom_bond_site_symmetry_1
_geom_bond_site_symmetry_2
O1 C1 1_555 1_555
O2 C1 1_555 1_555
O3 H1 1_555 1_555
O4 H2 1_555 1_555
C1 C11 1_555 1_555
C2 O2 1_555 1_555
H3 C2 1_555 1_555
H4 C2 1_555 1_555
C3 C2 1_555 1_555
H5 C3 1_555 1_555
H6 C3 1_555 1_555
C4 C3 1_555 1_555
C5 C4 1_555 1_555
H7 C5 1_555 1_555
H8 C5 1_555 1_555
C6 O3 1_555 1_555
H9 C6 1_555 1_555
C7 C6 1_555 1_555
H10 C7 1_555 1_555
H11 C7 1_555 1_555
C8 C7 1_555 1_555
H12 C8 1_555 1_555
H13 C8 1_555 1_555
C9 C8 1_555 1_555
H14 C9 1_555 1_555
H15 C9 1_555 1_555
C10 O4 1_555 1_555
H16 C10 1_555 1_555
C11 C10 1_555 1_555
H17 C11 1_555 1_555
C12 C11 1_555 1_555
H18 C12 1_555 1_555
H19 C12 1_555 1_555
H20 C12 1_555 1_555
C4 C6 1_555 1_555
C9 C10 1_555 1_555

#END
