
#######################################################################
#
#                 Cambridge Crystallographic Data Centre
#                                CCDC 
#
#######################################################################
#
# If this CIF has been generated from an entry in the Cambridge 
# Structural Database, then it will include bibliographic, chemical, 
# crystal, experimental, refinement or atomic coordinate data resulting 
# from the CCDC's data processing and validation procedures.
#
#######################################################################

data_FUDPUR
_chemical_formula_moiety         'C26 H21 N1 O3'
_chemical_name_systematic        
"Methyl 1-methyl-2-oxo-4'-phenyl-1,2-dihydro-4'H-spiro[indole-3,1'-naphthalene]-3'-carboxylate"
_symmetry_cell_setting           monoclinic
_symmetry_space_group_name_H-M   'P 21/n'
_symmetry_Int_Tables_number      14
_space_group_name_Hall           '-P 2yn'
loop_
_symmetry_equiv_pos_site_id
_symmetry_equiv_pos_as_xyz
1 x,y,z
2 1/2-x,1/2+y,1/2-z
3 -x,-y,-z
4 1/2+x,1/2-y,1/2+z
_cell_length_a                   8.1600(10)
_cell_length_b                   8.2904(8)
_cell_length_c                   28.866(2)
_cell_angle_alpha                90
_cell_angle_beta                 90.048(7)
_cell_angle_gamma                90
_cell_volume                     1952.77
_cell_formula_units_Z            4
loop_
_atom_site_label
_atom_site_type_symbol
_atom_site_fract_x
_atom_site_fract_y
_atom_site_fract_z
N1 N 0.0636(14) 0.6036(15) 0.7471(4)
O1 O 0.1398(12) 0.3518(12) 0.7762(4)
C1 C -0.0179(17) 0.7426(18) 0.8133(5)
C2 C -0.0485(18) 0.883(2) 0.7390(6)
H1 H -0.0367 0.8878 0.7070
C3 C -0.0022(19) 0.7476(18) 0.7651(6)
C4 C -0.1274(18) 1.004(2) 0.8117(6)
H2 H -0.1682 1.0931 0.8277
C5 C -0.0807(19) 0.8683(18) 0.8363(6)
H3 H -0.0928 0.8644 0.8684
C6 C 0.0883(18) 0.4955(19) 0.7819(6)
C7 C -0.115(2) 1.0113(18) 0.7657(5)
H4 H -0.1519 1.1034 0.7505
C8 C 0.0531(17) 0.5762(19) 0.8290(5)
C9 C -0.0675(19) 0.4354(17) 0.8979(6)
C10 C 0.0804(16) 0.4550(17) 0.9262(5)
H5 H 0.0520 0.5197 0.9535
C11 C 0.4993(18) 0.6456(18) 0.9041(5)
H6 H 0.5953 0.6625 0.9208
C12 C -0.0859(17) 0.486(2) 0.8547(5)
C13 C 0.342(2) 0.6673(18) 0.8348(6)
H7 H 0.3313 0.7032 0.8044
C14 C 0.2132(18) 0.5937(18) 0.8556(6)
C15 C 0.3628(17) 0.5749(18) 0.9247(5)
H8 H 0.3679 0.5510 0.9562
C16 C 0.2201(18) 0.5382(18) 0.9012(5)
C17 C 0.4877(18) 0.690(2) 0.8581(6)
H9 H 0.5774 0.7345 0.8429
C18 C 0.1365(16) 0.2850(17) 0.9431(5)
C19 C 0.1470(19) 0.159(2) 0.9105(5)
H10 H 0.1205 0.1780 0.8797
C20 C 0.1726(19) 0.254(2) 0.9894(5)
H11 H 0.1640 0.3363 1.0112
C21 C 0.230(2) -0.0240(18) 0.9719(5)
H12 H 0.2580 -0.1272 0.9819
C22 C 0.197(2) 0.0057(19) 0.9243(5)
H13 H 0.2083 -0.0765 0.9026
C23 C 0.221(2) 0.101(2) 1.0032(5)
H14 H 0.2486 0.0824 1.0341
C24 C -0.2115(16) 0.3611(17) 0.9229(5)
C25 C -0.4399(18) 0.188(2) 0.9141(6)
H15 H -0.4435 0.2107 0.9466
H16 H -0.4278 0.0734 0.9095
H17 H -0.5398 0.2233 0.8998
O2 O -0.2331(13) 0.3727(13) 0.9634(3)
O3 O -0.3031(13) 0.2703(14) 0.8935(4)
C26 C 0.113(3) 0.572(2) 0.6982(6)
H18 H 0.0183 0.5457 0.6801
H19 H 0.1888 0.4828 0.6975
H20 H 0.1653 0.6659 0.6857
loop_
_geom_bond_atom_site_label_1
_geom_bond_atom_site_label_2
_geom_bond_site_symmetry_1
_geom_bond_site_symmetry_2
N1 C3 1_555 1_555
O1 C6 1_555 1_555
C1 C3 1_555 1_555
C2 H1 1_555 1_555
C3 C2 1_555 1_555
C4 H2 1_555 1_555
C5 C1 1_555 1_555
H3 C5 1_555 1_555
C6 N1 1_555 1_555
C7 C2 1_555 1_555
H4 C7 1_555 1_555
C8 C1 1_555 1_555
C9 C10 1_555 1_555
C10 H5 1_555 1_555
C11 H6 1_555 1_555
C12 C8 1_555 1_555
C13 H7 1_555 1_555
C14 C8 1_555 1_555
C15 C11 1_555 1_555
H8 C15 1_555 1_555
C16 C10 1_555 1_555
C17 C11 1_555 1_555
H9 C17 1_555 1_555
C18 C10 1_555 1_555
C19 C18 1_555 1_555
H10 C19 1_555 1_555
C20 C18 1_555 1_555
H11 C20 1_555 1_555
C21 H12 1_555 1_555
C22 C19 1_555 1_555
H13 C22 1_555 1_555
C23 C20 1_555 1_555
H14 C23 1_555 1_555
C24 C9 1_555 1_555
C25 H15 1_555 1_555
H16 C25 1_555 1_555
H17 C25 1_555 1_555
O2 C24 1_555 1_555
O3 C24 1_555 1_555
C26 N1 1_555 1_555
H18 C26 1_555 1_555
H19 C26 1_555 1_555
H20 C26 1_555 1_555
C4 C5 1_555 1_555
C4 C7 1_555 1_555
C6 C8 1_555 1_555
C9 C12 1_555 1_555
C13 C14 1_555 1_555
C13 C17 1_555 1_555
C14 C16 1_555 1_555
C15 C16 1_555 1_555
C21 C22 1_555 1_555
C21 C23 1_555 1_555
C25 O3 1_555 1_555

#END
