
#######################################################################
#
#                 Cambridge Crystallographic Data Centre
#                                CCDC 
#
#######################################################################
#
# If this CIF has been generated from an entry in the Cambridge 
# Structural Database, then it will include bibliographic, chemical, 
# crystal, experimental, refinement or atomic coordinate data resulting 
# from the CCDC's data processing and validation procedures.
#
#######################################################################

data_FUDWUY
_chemical_formula_moiety         'C6 N8 O11 2-,C1 H7 N4 1+,K1 1+'
_chemical_name_systematic        
'amino(hydrazino)methaniminium potassium (4-((4-(dinitromethanidyl)-1,2,5-oxadiazol-3-yl)oxy)-1,2,5-oxadiazol-3-yl)(dinitro)methanide'
_symmetry_cell_setting           monoclinic
_symmetry_space_group_name_H-M   'P 21/n'
_symmetry_Int_Tables_number      14
_space_group_name_Hall           '-P 2yn'
loop_
_symmetry_equiv_pos_site_id
_symmetry_equiv_pos_as_xyz
1 x,y,z
2 1/2-x,1/2+y,1/2-z
3 -x,-y,-z
4 1/2+x,1/2-y,1/2+z
_cell_length_a                   8.013(3)
_cell_length_b                   12.577(5)
_cell_length_c                   16.998(7)
_cell_angle_alpha                90
_cell_angle_beta                 94.209(6)
_cell_angle_gamma                90
_cell_volume                     1708.43
_cell_formula_units_Z            4
loop_
_atom_site_label
_atom_site_type_symbol
_atom_site_fract_x
_atom_site_fract_y
_atom_site_fract_z
K1 K 0.04680(6) 0.75466(4) 0.14022(3)
N1 N 0.1624(2) 1.08494(14) 0.50131(10)
N2 N 0.3447(2) 0.93536(13) 0.53205(10)
N3 N 0.2772(2) 1.03452(14) 0.33875(10)
N4 N 0.1913(2) 0.87565(14) 0.28430(10)
N5 N 0.0217(2) 0.68289(13) 0.30362(9)
N6 N -0.0912(2) 0.56396(13) 0.38672(10)
N7 N 0.1727(2) 0.64532(13) 0.55086(10)
N8 N -0.1270(2) 0.64699(14) 0.55722(9)
O1 O 0.0639(3) 1.12693(14) 0.45048(11)
O2 O 0.1756(2) 1.11970(14) 0.56976(10)
O3 O 0.3421(2) 0.94500(14) 0.60431(9)
O4 O 0.43191(19) 0.86408(12) 0.50264(9)
O5 O 0.2431(2) 0.97889(12) 0.26919(8)
O6 O 0.16050(18) 0.78671(11) 0.40452(8)
O7 O -0.07902(19) 0.59310(11) 0.30899(8)
O8 O -0.26669(18) 0.65177(15) 0.51903(9)
O9 O -0.11838(18) 0.65003(14) 0.63014(8)
O10 O 0.20210(18) 0.67591(13) 0.61968(9)
O11 O 0.28965(18) 0.62091(13) 0.50952(9)
C1 C 0.2533(2) 0.99884(15) 0.47831(11)
C2 C 0.2465(2) 0.96993(15) 0.39551(11)
C3 C 0.1952(2) 0.87149(15) 0.36017(11)
C4 C 0.0645(2) 0.70585(15) 0.37634(11)
C5 C -0.0045(2) 0.63312(14) 0.42921(11)
C6 C 0.0127(2) 0.63665(15) 0.51495(11)
N9 N 0.48169(19) 0.40842(15) 0.62512(8)
H1 H 0.3951 0.4423 0.5942
H2 H 0.5772 0.4164 0.5987
N10 N 0.44070(19) 0.30030(15) 0.63251(8)
H3 H 0.4203 0.2614 0.5913
N11 N 0.4734(3) 0.32033(18) 0.76519(11)
H4 H 0.4712 0.2950 0.8121
H5 H 0.5014 0.3855 0.7585
N12 N 0.3909(3) 0.15944(19) 0.71280(13)
H6 H 0.3882 0.1330 0.7593
H7 H 0.3654 0.1205 0.6721
C7 C 0.4340(3) 0.2595(2) 0.70389(13)
loop_
_geom_bond_atom_site_label_1
_geom_bond_atom_site_label_2
_geom_bond_site_symmetry_1
_geom_bond_site_symmetry_2
N1 O1 1_555 1_555
N2 O3 1_555 1_555
N3 O5 1_555 1_555
N4 O5 1_555 1_555
N5 O7 1_555 1_555
N6 O7 1_555 1_555
N7 O10 1_555 1_555
N8 O8 1_555 1_555
O2 N1 1_555 1_555
O4 N2 1_555 1_555
O6 C3 1_555 1_555
O9 N8 1_555 1_555
O11 N7 1_555 1_555
C1 N1 1_555 1_555
C2 N3 1_555 1_555
C3 N4 1_555 1_555
C4 N5 1_555 1_555
C5 N6 1_555 1_555
C6 N7 1_555 1_555
N9 H1 1_555 1_555
H2 N9 1_555 1_555
N10 N9 1_555 1_555
H3 N10 1_555 1_555
N11 H4 1_555 1_555
H5 N11 1_555 1_555
N12 H6 1_555 1_555
H7 N12 1_555 1_555
C7 N10 1_555 1_555
N2 C1 1_555 1_555
N8 C6 1_555 1_555
O6 C4 1_555 1_555
C1 C2 1_555 1_555
C2 C3 1_555 1_555
C4 C5 1_555 1_555
C5 C6 1_555 1_555
N11 C7 1_555 1_555
N12 C7 1_555 1_555

#END
