
#######################################################################
#
#                 Cambridge Crystallographic Data Centre
#                                CCDC 
#
#######################################################################
#
# If this CIF has been generated from an entry in the Cambridge 
# Structural Database, then it will include bibliographic, chemical, 
# crystal, experimental, refinement or atomic coordinate data resulting 
# from the CCDC's data processing and validation procedures.
#
#######################################################################

data_FUDXAF
_chemical_formula_moiety         'C6 N8 O11 2-,C1 H8 N5 1+,K1 1+'
_chemical_name_systematic        
'dihydrazinomethaniminium potassium (4-((4-(dinitromethanidyl)-1,2,5-oxadiazol-3-yl)oxy)-1,2,5-oxadiazol-3-yl)(dinitro)methanide'
_symmetry_cell_setting           monoclinic
_symmetry_space_group_name_H-M   'P 21/c'
_symmetry_Int_Tables_number      14
_space_group_name_Hall           '-P 2ybc'
loop_
_symmetry_equiv_pos_site_id
_symmetry_equiv_pos_as_xyz
1 x,y,z
2 -x,1/2+y,1/2-z
3 -x,-y,-z
4 x,1/2-y,1/2+z
_cell_length_a                   8.315(7)
_cell_length_b                   12.777(10)
_cell_length_c                   17.699(12)
_cell_angle_alpha                90
_cell_angle_beta                 112.10(3)
_cell_angle_gamma                90
_cell_volume                     1742.2
_cell_formula_units_Z            4
loop_
_atom_site_label
_atom_site_type_symbol
_atom_site_fract_x
_atom_site_fract_y
_atom_site_fract_z
K1 K 0.56085(7) 0.23577(5) 0.63145(3)
N1 N 0.6017(3) -0.0158(2) 0.61376(14)
H1 H 0.6571 0.0383 0.6395
H2 H 0.5142 -0.0083 0.5686
N2 N 0.6540(3) -0.1163(2) 0.64516(13)
H3 H 0.5993 -0.1708 0.6198
N3 N 0.8629(3) -0.0413(2) 0.75692(15)
H4 H 0.8227 0.0197 0.7389
H5 H 0.9507 -0.0472 0.8021
N4 N 0.8510(3) -0.2216(2) 0.74021(16)
H6 H 0.9440 -0.2295 0.7829
N5 N 0.7626(4) -0.3087(3) 0.69649(18)
H7 H 0.6697 -0.3005 0.6538
H8 H 0.8012 -0.3707 0.7123
C1 C 0.7899(3) -0.1259(3) 0.71524(16)
O1 O 0.8906(4) 0.6302(2) 0.46699(16)
O2 O 0.9449(3) 0.59037(19) 0.59322(13)
O3 O 0.7830(3) 0.4236(2) 0.61648(11)
O4 O 0.5705(2) 0.37032(16) 0.50778(11)
O5 O 0.5205(2) 0.49331(15) 0.27367(10)
O6 O 0.7365(2) 0.29609(14) 0.40598(10)
O7 O 0.8454(3) 0.10175(15) 0.29870(11)
O8 O 0.7063(2) 0.13282(16) 0.50761(11)
O9 O 0.9062(2) 0.16816(17) 0.62542(11)
O10 O 1.2266(2) 0.15772(19) 0.62971(11)
O11 O 1.2518(3) 0.1361(2) 0.51395(13)
N6 N 0.8613(3) 0.57593(18) 0.51905(14)
N7 N 0.6992(3) 0.42913(19) 0.54143(12)
N8 N 0.5666(3) 0.54559(18) 0.34763(13)
N9 N 0.5810(3) 0.38994(18) 0.28482(12)
N10 N 0.7530(3) 0.19383(17) 0.29736(12)
N11 N 0.9384(3) 0.06922(18) 0.37785(13)
N12 N 0.8644(3) 0.14754(16) 0.55219(12)
N13 N 1.1592(3) 0.14506(17) 0.55545(12)
C2 C 0.7376(3) 0.4979(2) 0.49055(14)
C3 C 0.6537(3) 0.47803(19) 0.40327(14)
C4 C 0.6593(3) 0.38197(19) 0.36259(14)
C5 C 0.7917(3) 0.21475(18) 0.37357(14)
C6 C 0.9070(3) 0.13827(18) 0.42502(14)
C7 C 0.9806(3) 0.13850(18) 0.51340(14)
loop_
_geom_bond_atom_site_label_1
_geom_bond_atom_site_label_2
_geom_bond_site_symmetry_1
_geom_bond_site_symmetry_2
N1 H1 1_555 1_555
H2 N1 1_555 1_555
N2 N1 1_555 1_555
H3 N2 1_555 1_555
N3 H4 1_555 1_555
H5 N3 1_555 1_555
N4 H6 1_555 1_555
N5 N4 1_555 1_555
H7 N5 1_555 1_555
H8 N5 1_555 1_555
C1 N2 1_555 1_555
O1 N6 1_555 1_555
O2 N6 1_555 1_555
O3 N7 1_555 1_555
O4 N7 1_555 1_555
O5 N8 1_555 1_555
O6 C4 1_555 1_555
O7 N10 1_555 1_555
O8 N12 1_555 1_555
O9 N12 1_555 1_555
O10 N13 1_555 1_555
O11 N13 1_555 1_555
N6 C2 1_555 1_555
N7 C2 1_555 1_555
N8 C3 1_555 1_555
N9 O5 1_555 1_555
N10 C5 1_555 1_555
N11 O7 1_555 1_555
N12 C7 1_555 1_555
N13 C7 1_555 1_555
C2 C3 1_555 1_555
C3 C4 1_555 1_555
C4 N9 1_555 1_555
C5 O6 1_555 1_555
C6 N11 1_555 1_555
C7 C6 1_555 1_555
N3 C1 1_555 1_555
N4 C1 1_555 1_555
C5 C6 1_555 1_555

#END
