
#######################################################################
#
#                 Cambridge Crystallographic Data Centre
#                                CCDC 
#
#######################################################################
#
# If this CIF has been generated from an entry in the Cambridge 
# Structural Database, then it will include bibliographic, chemical, 
# crystal, experimental, refinement or atomic coordinate data resulting 
# from the CCDC's data processing and validation procedures.
#
#######################################################################

data_FUDXEJ
_chemical_formula_moiety         'C18 H26 O4 Si1'
_chemical_name_systematic        
8a-(1-((t-butyl(dimethyl)silyl)oxy)vinyl)-6-methoxy-3,8a-dihydro-1H-cyclohepta[c]furan-1-one
_symmetry_cell_setting           orthorhombic
_symmetry_space_group_name_H-M   'P b c a'
_symmetry_Int_Tables_number      61
_space_group_name_Hall           '-P 2ac 2ab'
loop_
_symmetry_equiv_pos_site_id
_symmetry_equiv_pos_as_xyz
1 x,y,z
2 1/2-x,-y,1/2+z
3 -x,1/2+y,1/2-z
4 1/2+x,1/2-y,-z
5 -x,-y,-z
6 1/2+x,y,1/2-z
7 x,1/2-y,1/2+z
8 1/2-x,1/2+y,z
_cell_length_a                   16.759(4)
_cell_length_b                   7.4334(18)
_cell_length_c                   30.141(7)
_cell_angle_alpha                90
_cell_angle_beta                 90
_cell_angle_gamma                90
_cell_volume                     3754.86
_exptl_crystal_colour            colorless
_exptl_crystal_description       prism
_cell_formula_units_Z            8
loop_
_atom_site_label
_atom_site_type_symbol
_atom_site_fract_x
_atom_site_fract_y
_atom_site_fract_z
Si1 Si 0.09425(3) 0.02143(6) 0.14755(2)
C1 C 0.18199(11) 0.0503(3) 0.11047(7)
H1 H 0.1711 -0.0056 0.0820
H2 H 0.2283 -0.0059 0.1239
H3 H 0.1923 0.1775 0.1062
C2 C 0.07064(15) -0.2202(2) 0.15349(7)
H4 H 0.0185 -0.2336 0.1671
H5 H 0.1106 -0.2773 0.1720
H6 H 0.0704 -0.2766 0.1245
C3 C 0.11045(9) 0.1351(2) 0.20228(5)
C4 C 0.18936(11) 0.0732(3) 0.22344(7)
H7 H 0.2335 0.1052 0.2041
H8 H 0.1883 -0.0562 0.2275
H9 H 0.1961 0.1317 0.2520
C5 C 0.04213(10) 0.0911(2) 0.23419(6)
H10 H 0.0506 0.1532 0.2621
H11 H 0.0405 -0.0376 0.2394
H12 H -0.0081 0.1297 0.2213
C6 C 0.11380(11) 0.3399(2) 0.19575(7)
H13 H 0.0635 0.3816 0.1835
H14 H 0.1568 0.3696 0.1755
H15 H 0.1232 0.3979 0.2241
O1 O 0.01449(6) 0.12752(15) 0.12695(4)
C7 C -0.03395(9) 0.0778(2) 0.09260(5)
C8 C -0.01145(13) -0.0145(3) 0.05764(7)
H16 H 0.0420(12) -0.052(3) 0.0540(6)
H17 H -0.0500(12) -0.045(3) 0.0345(6)
C9 C -0.11960(9) 0.1374(2) 0.10193(5)
C10 C -0.14602(11) 0.0349(3) 0.14392(7)
O2 O -0.15577(10) -0.1236(2) 0.14758(5)
O3 O -0.15749(8) 0.1480(3) 0.17766(5)
C11 C -0.14262(14) 0.3314(4) 0.16516(8)
H18 H -0.0989(13) 0.377(3) 0.1807(7)
H19 H -0.1887(13) 0.401(3) 0.1726(7)
C12 C -0.12586(9) 0.3313(3) 0.11610(6)
C13 C -0.11914(11) 0.4757(3) 0.08999(8)
H20 H -0.1217(12) 0.583(3) 0.1040(6)
C14 C -0.11166(11) 0.4802(3) 0.04232(8)
H21 H -0.0905(12) 0.591(3) 0.0299(7)
C15 C -0.13935(10) 0.3551(3) 0.01463(6)
C16 C -0.18169(10) 0.1937(3) 0.02720(6)
H22 H -0.2178(11) 0.153(3) 0.0046(6)
C17 C -0.17679(10) 0.0999(3) 0.06453(6)
H23 H -0.2094(11) 0.000(3) 0.0690(6)
O4 O -0.13817(9) 0.3704(2) -0.03100(5)
C18 C -0.11046(15) 0.5354(4) -0.04942(9)
H24 H -0.1155 0.5314 -0.0815
H25 H -0.0549 0.5532 -0.0415
H26 H -0.1421 0.6341 -0.0379
H27? H 0.2234 0.1163 0.1260
H28? H 0.1662 0.1166 0.0842
H29? H 0.2022 -0.0669 0.1019
H30? H 0.1145 -0.2914 0.1420
H31? H 0.0224 -0.2477 0.1370
H32? H 0.0626 -0.2484 0.1846
loop_
_geom_bond_atom_site_label_1
_geom_bond_atom_site_label_2
_geom_bond_site_symmetry_1
_geom_bond_site_symmetry_2
Si1 C1 1_555 1_555
C1 H1 1_555 1_555
H2 C1 1_555 1_555
H3 C1 1_555 1_555
C2 Si1 1_555 1_555
H4 C2 1_555 1_555
H5 C2 1_555 1_555
H6 C2 1_555 1_555
C3 Si1 1_555 1_555
C4 C3 1_555 1_555
H7 C4 1_555 1_555
H8 C4 1_555 1_555
H9 C4 1_555 1_555
C5 C3 1_555 1_555
H10 C5 1_555 1_555
H11 C5 1_555 1_555
H12 C5 1_555 1_555
C6 C3 1_555 1_555
H13 C6 1_555 1_555
H14 C6 1_555 1_555
H15 C6 1_555 1_555
O1 Si1 1_555 1_555
C7 O1 1_555 1_555
C8 C7 1_555 1_555
H16 C8 1_555 1_555
H17 C8 1_555 1_555
C9 C7 1_555 1_555
C10 C9 1_555 1_555
O2 C10 1_555 1_555
O3 C10 1_555 1_555
C11 O3 1_555 1_555
H18 C11 1_555 1_555
H19 C11 1_555 1_555
C12 C9 1_555 1_555
C13 C12 1_555 1_555
H20 C13 1_555 1_555
C14 C13 1_555 1_555
H21 C14 1_555 1_555
C15 C14 1_555 1_555
C16 C15 1_555 1_555
H22 C16 1_555 1_555
C17 C9 1_555 1_555
H23 C17 1_555 1_555
O4 C15 1_555 1_555
C18 O4 1_555 1_555
H24 C18 1_555 1_555
H25 C18 1_555 1_555
H26 C18 1_555 1_555
C11 C12 1_555 1_555
C16 C17 1_555 1_555

#END
