
#######################################################################
#
#                 Cambridge Crystallographic Data Centre
#                                CCDC 
#
#######################################################################
#
# If this CIF has been generated from an entry in the Cambridge 
# Structural Database, then it will include bibliographic, chemical, 
# crystal, experimental, refinement or atomic coordinate data resulting 
# from the CCDC's data processing and validation procedures.
#
#######################################################################

data_FUDZAF
_chemical_formula_moiety         'C20 H17 N1 O2'
_chemical_name_systematic        
2-(1,4-Dimethoxy-2-naphthyl)-2-phenylacetonitrile
_symmetry_cell_setting           triclinic
_symmetry_space_group_name_H-M   'P -1'
_symmetry_Int_Tables_number      2
_space_group_name_Hall           '-P 1'
loop_
_symmetry_equiv_pos_site_id
_symmetry_equiv_pos_as_xyz
1 x,y,z
2 -x,-y,-z
_cell_length_a                   7.885(4)
_cell_length_b                   9.515(5)
_cell_length_c                   11.591(6)
_cell_angle_alpha                84.19(4)
_cell_angle_beta                 69.95(4)
_cell_angle_gamma                99.74(4)
_cell_volume                     793.147
_exptl_crystal_colour            colorless
_cell_formula_units_Z            2
loop_
_atom_site_label
_atom_site_type_symbol
_atom_site_fract_x
_atom_site_fract_y
_atom_site_fract_z
O1 O 0.5724(2) 0.1132(1) 0.1387(1)
O2 O 0.1701(2) 0.5411(1) 0.2111(1)
N1 N 0.6863(2) 0.4302(2) 0.4320(2)
C1 C 0.5052(2) 0.2182(2) 0.3659(2)
C2 C 0.4386(2) 0.2769(2) 0.2658(2)
C3 C 0.4733(2) 0.2211(2) 0.1591(2)
C4 C 0.3989(2) 0.2666(2) 0.0693(2)
C5 C 0.4243(3) 0.2054(2) -0.0394(2)
C6 C 0.3497(3) 0.2507(2) -0.1226(3)
C7 C 0.2490(3) 0.3583(2) -0.1028(2)
C8 C 0.2199(3) 0.4194(2) 0.0017(2)
C9 C 0.2954(2) 0.3746(2) 0.0902(2)
C10 C 0.2678(2) 0.4351(2) 0.2008(2)
C11 C 0.3354(2) 0.3849(2) 0.2865(2)
C12 C 0.3454(2) 0.1220(2) 0.4760(2)
C13 C 0.2652(3) 0.1679(2) 0.5865(2)
C14 C 0.1184(3) 0.0754(3) 0.6824(2)
C15 C 0.0510(3) -0.0613(2) 0.6670(2)
C16 C 0.1290(3) -0.1065(2) 0.5562(2)
C17 C 0.2767(3) -0.0159(2) 0.4609(2)
C18 C 0.7653(3) 0.1672(2) 0.0662(2)
C19 C 0.1448(3) 0.6101(3) 0.3167(2)
C20 C 0.6067(3) 0.3377(2) 0.4041(2)
H1 H 0.6001(2) 0.1506(2) 0.3271(2)
H2 H 0.501(2) 0.128(2) -0.052(2)
H3 H 0.370(3) 0.204(2) -0.199(2)
H4 H 0.192(3) 0.397(2) -0.161(2)
H5 H 0.146(2) 0.500(2) 0.019(2)
H6 H 0.318(2) 0.423(2) 0.360(1)
H7 H 0.311(2) 0.266(2) 0.600(1)
H8 H 0.060(2) 0.111(2) 0.765(2)
H9 H -0.052(3) -0.125(2) 0.735(2)
H10 H 0.0748(3) -0.2134(2) 0.5433(2)
H11 H 0.3390(3) -0.00527(2) 0.3741(2)
H12 H 0.8343(3) 0.0779(2) 0.0538(2)
H13 H 0.8255(3) 0.2406(2) 0.1140(2)
H14 H 0.7814(3) 0.2238(2) -0.0238(2)
H15 H 0.0655(3) 0.6914(3) 0.3131(2)
H16 H 0.2780(3) 0.6607(3) 0.3170(2)
H17 H 0.0716(3) 0.5308(3) 0.4005(2)
loop_
_geom_bond_atom_site_label_1
_geom_bond_atom_site_label_2
_geom_bond_site_symmetry_1
_geom_bond_site_symmetry_2
O1 C3 1_555 1_555
O2 C10 1_555 1_555
N1 C20 1_555 1_555
C1 C2 1_555 1_555
C2 C3 1_555 1_555
C3 C4 1_555 1_555
C4 C5 1_555 1_555
C5 C6 1_555 1_555
C6 C7 1_555 1_555
C7 C8 1_555 1_555
C8 C9 1_555 1_555
C9 C4 1_555 1_555
C10 C9 1_555 1_555
C11 C2 1_555 1_555
C12 C1 1_555 1_555
C13 C12 1_555 1_555
C14 C13 1_555 1_555
C15 C14 1_555 1_555
C16 C15 1_555 1_555
C17 C12 1_555 1_555
C18 O1 1_555 1_555
C19 O2 1_555 1_555
C20 C1 1_555 1_555
H1 C1 1_555 1_555
H2 C5 1_555 1_555
H3 C6 1_555 1_555
H4 C7 1_555 1_555
H5 C8 1_555 1_555
H6 C11 1_555 1_555
H7 C13 1_555 1_555
H8 C14 1_555 1_555
H9 C15 1_555 1_555
H10 C16 1_555 1_555
H11 C17 1_555 1_555
H12 C18 1_555 1_555
H13 C18 1_555 1_555
H14 C18 1_555 1_555
H15 C19 1_555 1_555
H16 C19 1_555 1_555
H17 C19 1_555 1_555
C10 C11 1_555 1_555
C16 C17 1_555 1_555

#END
