
#######################################################################
#
#                 Cambridge Crystallographic Data Centre
#                                CCDC 
#
#######################################################################
#
# If this CIF has been generated from an entry in the Cambridge 
# Structural Database, then it will include bibliographic, chemical, 
# crystal, experimental, refinement or atomic coordinate data resulting 
# from the CCDC's data processing and validation procedures.
#
#######################################################################

data_FUFFUJ
_chemical_formula_moiety         'C19 H13 N3 S1,C2 H6 O1'
_chemical_name_systematic        
'3-Amino-2-phenyl-1-thioxo-2,9-dihydro-1H-indeno[2,1-c]pyridine-4-carbonitrile ethanol solvate'
_symmetry_cell_setting           monoclinic
_symmetry_space_group_name_H-M   'P 21/c'
_symmetry_Int_Tables_number      14
_space_group_name_Hall           '-P 2ybc'
loop_
_symmetry_equiv_pos_site_id
_symmetry_equiv_pos_as_xyz
1 x,y,z
2 -x,1/2+y,1/2-z
3 -x,-y,-z
4 x,1/2-y,1/2+z
_cell_length_a                   15.1376(13)
_cell_length_b                   6.8224(12)
_cell_length_c                   18.6237(19)
_cell_angle_alpha                90
_cell_angle_beta                 103.629(2)
_cell_angle_gamma                90
_cell_volume                     1869.2
_exptl_crystal_colour            colorless
_exptl_crystal_description       block
_cell_formula_units_Z            4
loop_
_atom_site_label
_atom_site_type_symbol
_atom_site_fract_x
_atom_site_fract_y
_atom_site_fract_z
N1 N 0.2583(3) 0.6377(8) 0.2934(2)
N2 N 0.3228(3) 0.6071(8) 0.4199(3)
H1 H 0.2691 0.6072 0.4278
H2 H 0.3695 0.5972 0.4564
N3 N 0.5584(3) 0.6108(10) 0.4470(3)
S1 S 0.16656(11) 0.6706(3) 0.15174(9)
C1 C 0.2629(4) 0.6468(9) 0.2182(3)
C2 C 0.3501(4) 0.6393(9) 0.2054(3)
C3 C 0.4266(4) 0.6291(9) 0.2629(3)
C4 C 0.4205(4) 0.6241(10) 0.3359(3)
C5 C 0.3338(4) 0.6222(9) 0.3506(3)
C6 C 0.4980(4) 0.6193(10) 0.3971(3)
C7 C 0.3737(4) 0.6385(11) 0.1310(3)
H3 H 0.3489 0.5244 0.1021
H4 H 0.3522 0.7562 0.1031
C8 C 0.4761(4) 0.6316(10) 0.1531(3)
C9 C 0.5075(4) 0.6281(9) 0.2306(3)
C10 C 0.5996(4) 0.6242(9) 0.2633(3)
H5 H 0.6199 0.6212 0.3145
C11 C 0.6606(4) 0.6248(10) 0.2190(4)
H6 H 0.7226 0.6238 0.2403
C12 C 0.6302(4) 0.6268(10) 0.1426(4)
H7 H 0.6723 0.6268 0.1134
C13 C 0.5380(4) 0.6289(10) 0.1089(3)
H8 H 0.5182 0.6284 0.0577
C14 C 0.1692(4) 0.6431(12) 0.3105(3)
C15 C 0.1209(4) 0.4732(13) 0.3058(3)
H9 H 0.1441 0.3575 0.2912
C16 C 0.0367(5) 0.4755(15) 0.3231(4)
H10 H 0.0016 0.3623 0.3197
C17 C 0.0066(5) 0.6497(17) 0.3454(5)
H11 H -0.0507 0.6539 0.3554
C18 C 0.0566(5) 0.8147(15) 0.3534(4)
H12 H 0.0351 0.9284 0.3709
C19 C 0.1403(4) 0.8144(13) 0.3353(4)
H13 H 0.1757 0.9273 0.3398
O1 O 0.1981(4) 0.5589(10) 0.5117(3)
H14 H 0.1924 0.6410 0.5425
C20 C 0.1796(9) 0.3698(19) 0.5364(6)
H15 H 0.1173 0.3681 0.5415
H16 H 0.2187 0.3489 0.5851
C21 C 0.192(2) 0.203(3) 0.4883(10)
H17 H 0.1523 0.2183 0.4403
H18 H 0.1781 0.0821 0.5099
H19 H 0.2540 0.1994 0.4839
H20? H 0.1644 0.3918 0.5835
H21? H 0.2372 0.3007 0.5473
C22? C 0.111(4) 0.226(6) 0.4935(16)
H22? H 0.0662 0.1980 0.5208
H23? H 0.1415 0.1074 0.4857
H24? H 0.0821 0.2824 0.4466
loop_
_geom_bond_atom_site_label_1
_geom_bond_atom_site_label_2
_geom_bond_site_symmetry_1
_geom_bond_site_symmetry_2
N1 C1 1_555 1_555
N2 H1 1_555 1_555
H2 N2 1_555 1_555
N3 C6 1_555 1_555
S1 C1 1_555 1_555
C1 C2 1_555 1_555
C2 C3 1_555 1_555
C3 C4 1_555 1_555
C4 C5 1_555 1_555
C5 N1 1_555 1_555
C6 C4 1_555 1_555
C7 C2 1_555 1_555
H3 C7 1_555 1_555
H4 C7 1_555 1_555
C8 C7 1_555 1_555
C9 C3 1_555 1_555
C10 C9 1_555 1_555
H5 C10 1_555 1_555
C11 C10 1_555 1_555
H6 C11 1_555 1_555
C12 C11 1_555 1_555
H7 C12 1_555 1_555
C13 C8 1_555 1_555
H8 C13 1_555 1_555
C14 N1 1_555 1_555
C15 C14 1_555 1_555
H9 C15 1_555 1_555
C16 C15 1_555 1_555
H10 C16 1_555 1_555
C17 C16 1_555 1_555
H11 C17 1_555 1_555
C18 C17 1_555 1_555
H12 C18 1_555 1_555
C19 C14 1_555 1_555
H13 C19 1_555 1_555
O1 H14 1_555 1_555
C20 O1 1_555 1_555
H15 C20 1_555 1_555
H16 C20 1_555 1_555
C21 C20 1_555 1_555
H17 C21 1_555 1_555
H18 C21 1_555 1_555
H19 C21 1_555 1_555
N2 C5 1_555 1_555
C8 C9 1_555 1_555
C12 C13 1_555 1_555
C18 C19 1_555 1_555

#END
