
#######################################################################
#
#                 Cambridge Crystallographic Data Centre
#                                CCDC 
#
#######################################################################
#
# If this CIF has been generated from an entry in the Cambridge 
# Structural Database, then it will include bibliographic, chemical, 
# crystal, experimental, refinement or atomic coordinate data resulting 
# from the CCDC's data processing and validation procedures.
#
#######################################################################

data_FUFGAQ
_chemical_formula_moiety         'C20 H23 N3 O1'
_chemical_name_systematic        
3-Amino-2-(4-t-butylphenyl)-1-oxo-1,2,4a,5,6,7-hexahydroisoquinoline-4-carbonitrile
_symmetry_cell_setting           triclinic
_symmetry_space_group_name_H-M   'P -1'
_symmetry_Int_Tables_number      2
_space_group_name_Hall           '-P 1'
loop_
_symmetry_equiv_pos_site_id
_symmetry_equiv_pos_as_xyz
1 x,y,z
2 -x,-y,-z
_cell_length_a                   7.9118(6)
_cell_length_b                   9.9589(8)
_cell_length_c                   12.63900(10)
_cell_angle_alpha                69.83(4)
_cell_angle_beta                 86.015(2)
_cell_angle_gamma                69.4100(10)
_cell_volume                     873.557
_exptl_crystal_colour            colorless
_exptl_crystal_description       block
_cell_formula_units_Z            2
loop_
_atom_site_label
_atom_site_type_symbol
_atom_site_fract_x
_atom_site_fract_y
_atom_site_fract_z
N1 N 0.5073(6) 0.6540(5) 0.7189(4)
N2 N 0.6590(7) 0.5086(6) 0.6075(5)
H1 H 0.7375 0.4878 0.5595
H2 H 0.5914 0.4545 0.6332
N3 N 0.9761(8) 0.6768(6) 0.4600(5)
O1 O 0.345(18) 0.795(14) 0.822(15)
C1 C 0.4490(9) 0.7866(7) 0.7472(6)
C2 C 0.5532(8) 0.8890(7) 0.7046(5)
C3 C 0.4852(11) 1.0302(8) 0.7057(7)
H3 H 0.3690 1.0615 0.7304
C4 C 0.5780(11) 1.1421(8) 0.6713(7)
H4 H 0.5128 1.2264 0.6052
H5 H 0.5743 1.1826 0.7315
C5 C 0.7640(13) 1.0797(9) 0.6458(9)
H6 H 0.8393 1.0372 0.7151
H7 H 0.7990 1.1625 0.5949
C6 C 0.8035(11) 0.9577(8) 0.5931(7)
H8 H 0.9327 0.9164 0.5855
H9 H 0.7439 1.0026 0.5182
C7 C 0.7387(10) 0.8294(8) 0.6642(6)
H10 H 0.8217 0.7714 0.7315
C8 C 0.7425(7) 0.7176(7) 0.6067(5)
C9 C 0.6419(7) 0.6276(6) 0.6428(5)
C10 C 0.4144(7) 0.5460(6) 0.7693(5)
C11 C 0.2696(8) 0.5511(7) 0.7097(6)
H11 H 0.2337 0.6207 0.6369
C12 C 0.1798(8) 0.4502(7) 0.7611(6)
H12 H 0.0845 0.4521 0.7209
C13 C 0.2268(7) 0.3467(7) 0.8702(5)
C14 C 0.3730(8) 0.3433(7) 0.9261(6)
H13 H 0.4094 0.2739 0.9989
C15 C 0.4667(8) 0.4419(7) 0.8755(5)
H14 H 0.5657 0.4369 0.9143
C16 C 0.1180(8) 0.2436(7) 0.9280(6)
C17 C 0.0009(13) 0.3066(12) 1.0122(8)
H15 H -0.0802 0.2516 1.0412
H16 H -0.0677 0.4128 0.9755
H17 H 0.0764 0.2951 1.0733
C18 C 0.2422(12) 0.0808(9) 0.9865(8)
H18 H 0.3087 0.0401 0.9313
H19 H 0.1715 0.0198 1.0260
H20 H 0.3250 0.0793 1.0393
C19 C -0.0114(12) 0.2397(10) 0.8448(7)
H21 H 0.0573 0.1956 0.7918
H22 H -0.0905 0.3418 0.8050
H23 H -0.0819 0.1793 0.8857
C20 C 0.8674(8) 0.6951(6) 0.5252(6)
O2? O 0.29(2) 0.835(18) 0.778(19)
loop_
_geom_bond_atom_site_label_1
_geom_bond_atom_site_label_2
_geom_bond_site_symmetry_1
_geom_bond_site_symmetry_2
N1 C1 1_555 1_555
N2 H1 1_555 1_555
H2 N2 1_555 1_555
N3 C20 1_555 1_555
O1 C1 1_555 1_555
C1 C2 1_555 1_555
C2 C3 1_555 1_555
C3 H3 1_555 1_555
C4 C3 1_555 1_555
H4 C4 1_555 1_555
H5 C4 1_555 1_555
C5 C4 1_555 1_555
H6 C5 1_555 1_555
H7 C5 1_555 1_555
C6 C5 1_555 1_555
H8 C6 1_555 1_555
H9 C6 1_555 1_555
C7 C2 1_555 1_555
H10 C7 1_555 1_555
C8 C7 1_555 1_555
C9 N1 1_555 1_555
C10 N1 1_555 1_555
C11 C10 1_555 1_555
H11 C11 1_555 1_555
C12 C11 1_555 1_555
H12 C12 1_555 1_555
C13 C12 1_555 1_555
C14 C13 1_555 1_555
H13 C14 1_555 1_555
C15 C10 1_555 1_555
H14 C15 1_555 1_555
C16 C13 1_555 1_555
C17 C16 1_555 1_555
H15 C17 1_555 1_555
H16 C17 1_555 1_555
H17 C17 1_555 1_555
C18 C16 1_555 1_555
H18 C18 1_555 1_555
H19 C18 1_555 1_555
H20 C18 1_555 1_555
C19 C16 1_555 1_555
H21 C19 1_555 1_555
H22 C19 1_555 1_555
H23 C19 1_555 1_555
C20 C8 1_555 1_555
N2 C9 1_555 1_555
C6 C7 1_555 1_555
C8 C9 1_555 1_555
C14 C15 1_555 1_555

#END
