
#######################################################################
#
#                 Cambridge Crystallographic Data Centre
#                                CCDC 
#
#######################################################################
#
# If this CIF has been generated from an entry in the Cambridge 
# Structural Database, then it will include bibliographic, chemical, 
# crystal, experimental, refinement or atomic coordinate data resulting 
# from the CCDC's data processing and validation procedures.
#
#######################################################################

data_FUFGEU
_chemical_formula_moiety         'C19 H12 Br1 N3 O1,H2 O1'
_chemical_name_systematic        
'3-Amino-2-(4-bromophenyl)-1-oxo-2,9-dihydro-1H-indeno[2,1-c]pyridine-4-carbonitrile hydrate'
_symmetry_cell_setting           monoclinic
_symmetry_space_group_name_H-M   'P 21/c'
_symmetry_Int_Tables_number      14
_space_group_name_Hall           '-P 2ybc'
loop_
_symmetry_equiv_pos_site_id
_symmetry_equiv_pos_as_xyz
1 x,y,z
2 -x,1/2+y,1/2-z
3 -x,-y,-z
4 x,1/2-y,1/2+z
_cell_length_a                   13.3184(13)
_cell_length_b                   7.1606(5)
_cell_length_c                   17.5832(18)
_cell_angle_alpha                90
_cell_angle_beta                 94.3100(10)
_cell_angle_gamma                90
_cell_volume                     1672.13
_exptl_crystal_colour            colorless
_exptl_crystal_description       block
_cell_formula_units_Z            4
loop_
_atom_site_label
_atom_site_type_symbol
_atom_site_fract_x
_atom_site_fract_y
_atom_site_fract_z
Br1 Br 0.68762(5) 1.40163(15) 0.59390(5)
N1 N 0.2625(3) 1.4015(7) 0.6978(3)
N2 N 0.2005(3) 1.4073(8) 0.5705(3)
H1 H 0.2616 1.4020 0.5579
H2 H 0.1516 1.4116 0.5358
N3 N -0.0653(4) 1.4237(9) 0.5673(3)
O1 O 0.3298(3) 1.3921(7) 0.8216(2)
C1 C 0.2516(4) 1.4018(9) 0.7787(4)
C2 C 0.1528(4) 1.4063(9) 0.7994(3)
C3 C 0.0714(4) 1.4130(9) 0.7462(3)
C4 C 0.0843(4) 1.4136(8) 0.6675(3)
C5 C 0.1819(4) 1.4087(9) 0.6431(4)
C6 C 0.1193(4) 1.4046(10) 0.8789(3)
H3 H 0.1425 1.5149 0.9069
H4 H 0.1435 1.2942 0.9065
C7 C 0.0064(4) 1.4030(9) 0.8655(3)
C8 C -0.0206(4) 1.4125(9) 0.7862(3)
C9 C -0.1208(4) 1.4173(9) 0.7594(4)
H5 H -0.1393 1.4260 0.7075
C10 C -0.1918(4) 1.4090(10) 0.8113(4)
H6 H -0.2595 1.4097 0.7939
C11 C -0.1666(5) 1.3995(10) 0.8888(5)
H7 H -0.2171 1.3947 0.9225
C12 C -0.0662(5) 1.3971(10) 0.9168(4)
H8 H -0.0487 1.3917 0.9689
C13 C 0.3641(4) 1.4049(12) 0.6738(4)
C14 C 0.4233(5) 1.2498(12) 0.6839(4)
H9 H 0.3986 1.1431 0.7062
C15 C 0.5202(5) 1.2525(15) 0.6606(5)
H10 H 0.5613 1.1480 0.6680
C16 C 0.5552(4) 1.4065(15) 0.6274(4)
C17 C 0.4990(5) 1.5617(13) 0.6192(5)
H11 H 0.5252 1.6691 0.5985
C18 C 0.4027(5) 1.5606(11) 0.6417(4)
H12 H 0.3630 1.6670 0.6349
C19 C 0.0027(4) 1.4194(9) 0.6109(3)
O2 O 0.3889(11) 1.419(2) 0.9958(5)
H13 H 0.3935 1.3377 0.9611
H14 H 0.3630 1.4954 0.9627
loop_
_geom_bond_atom_site_label_1
_geom_bond_atom_site_label_2
_geom_bond_site_symmetry_1
_geom_bond_site_symmetry_2
Br1 C16 1_555 1_555
N1 C1 1_555 1_555
N2 H1 1_555 1_555
H2 N2 1_555 1_555
N3 C19 1_555 1_555
O1 C1 1_555 1_555
C1 C2 1_555 1_555
C2 C3 1_555 1_555
C3 C4 1_555 1_555
C4 C5 1_555 1_555
C5 N1 1_555 1_555
C6 C2 1_555 1_555
H3 C6 1_555 1_555
H4 C6 1_555 1_555
C7 C6 1_555 1_555
C8 C3 1_555 1_555
C9 C8 1_555 1_555
H5 C9 1_555 1_555
C10 C9 1_555 1_555
H6 C10 1_555 1_555
C11 C10 1_555 1_555
H7 C11 1_555 1_555
C12 C7 1_555 1_555
H8 C12 1_555 1_555
C13 N1 1_555 1_555
C14 C13 1_555 1_555
H9 C14 1_555 1_555
C15 C14 1_555 1_555
H10 C15 1_555 1_555
C16 C15 1_555 1_555
C17 C16 1_555 1_555
H11 C17 1_555 1_555
C18 C13 1_555 1_555
H12 C18 1_555 1_555
C19 C4 1_555 1_555
O2 H13 1_555 1_555
H14 O2 1_555 1_555
N2 C5 1_555 1_555
C7 C8 1_555 1_555
C11 C12 1_555 1_555
C17 C18 1_555 1_555

#END
