
#######################################################################
#
#                 Cambridge Crystallographic Data Centre
#                                CCDC 
#
#######################################################################
#
# If this CIF has been generated from an entry in the Cambridge 
# Structural Database, then it will include bibliographic, chemical, 
# crystal, experimental, refinement or atomic coordinate data resulting 
# from the CCDC's data processing and validation procedures.
#
#######################################################################

data_FUFGUI
_chemical_formula_moiety         'C17 H20 As1 1+,Br1 1-,H2 O1'
_chemical_name_systematic        '1,1-Diphenyl-arsenanium bromide monohydrate'
_symmetry_cell_setting           orthorhombic
_symmetry_space_group_name_H-M   'P 21 21 21'
_symmetry_Int_Tables_number      19
_space_group_name_Hall           'P 2ac 2ab'
loop_
_symmetry_equiv_pos_site_id
_symmetry_equiv_pos_as_xyz
1 x,y,z
2 1/2+x,1/2-y,-z
3 -x,1/2+y,1/2-z
4 1/2-x,-y,1/2+z
_cell_length_a                   8.637(2)
_cell_length_b                   12.168(4)
_cell_length_c                   16.066(7)
_cell_angle_alpha                90
_cell_angle_beta                 90
_cell_angle_gamma                90
_cell_volume                     1688.46
_exptl_crystal_colour            colorless
_cell_formula_units_Z            4
loop_
_atom_site_label
_atom_site_type_symbol
_atom_site_fract_x
_atom_site_fract_y
_atom_site_fract_z
Br1 Br 0.5131(2) 0.8376(1) 0.5845(1)
As1 As 0.9053(1) 0.8928(1) 0.7519(1)
C1 C 0.9415(13) 0.8322(11) 0.6439(6)
C2 C 1.0010(14) 0.9264(10) 0.5866(7)
C3 C 0.8933(17) 1.0249(10) 0.5800(7)
C4 C 0.8679(17) 1.0862(10) 0.6611(8)
C5 C 0.7849(16) 1.0217(6) 0.7294(7)
C6 C 1.0974(12) 0.9339(9) 0.8006(6)
C7 C 1.1017(14) 1.0156(10) 0.8628(7)
C8 C 1.2417(16) 1.0447(12) 0.8970(7)
C9 C 1.3742(16) 0.9934(12) 0.8700(8)
C10 C 1.3727(14) 0.9113(10) 0.8113(8)
C11 C 1.2322(14) 0.8818(12) 0.7762(7)
C12 C 0.7989(13) 0.7916(9) 0.8233(6)
C13 C 0.7016(14) 0.7144(11) 0.7900(7)
C14 C 0.6310(15) 0.6397(9) 0.8392(8)
C15 C 0.6588(16) 0.6407(10) 0.9255(9)
C16 C 0.7529(20) 0.7193(12) 0.9584(8)
C17 C 0.8246(16) 0.7942(11) 0.9082(7)
H1 H 0.8469 0.8026 0.6219
H2 H 1.0179 0.7750 0.6472
H3 H 1.0154 0.8969 0.5317
H4 H 1.0985 0.9514 0.6080
H5 H 0.7946 0.9995 0.5604
H6 H 0.9365 1.0754 0.5404
H7 H 0.9674 1.1079 0.6821
H8 H 0.8074 1.1505 0.6492
H9 H 0.7767 1.0657 0.7788
H10 H 0.6833 1.0011 0.7109
H11 H 1.0080 1.0506 0.8810
H12 H 1.2467 1.1000 0.9395
H13 H 1.4717 1.0162 0.8929
H14 H 1.4667 0.8749 0.7952
H15 H 1.2283 0.8252 0.7346
H16 H 0.6834 0.7134 0.7311
H17 H 0.5623 0.5862 0.8154
H18 H 0.6116 0.5866 0.9609
H19 H 0.7693 0.7220 1.0174
H20 H 0.8924 0.8483 0.9318
O1 O 0.7369(12) 0.8488(9) 0.4118(7)
H21 H 0.8139 0.7908 0.4103
H22 H 0.6702 0.8061 0.4473
loop_
_geom_bond_atom_site_label_1
_geom_bond_atom_site_label_2
_geom_bond_site_symmetry_1
_geom_bond_site_symmetry_2
As1 C1 1_555 1_555
C1 C2 1_555 1_555
C2 C3 1_555 1_555
C3 C4 1_555 1_555
C4 C5 1_555 1_555
C5 As1 1_555 1_555
C6 As1 1_555 1_555
C7 C6 1_555 1_555
C8 C7 1_555 1_555
C9 C8 1_555 1_555
C10 C9 1_555 1_555
C11 C6 1_555 1_555
C12 As1 1_555 1_555
C13 C12 1_555 1_555
C14 C13 1_555 1_555
C15 C14 1_555 1_555
C16 C15 1_555 1_555
C17 C12 1_555 1_555
H1 C1 1_555 1_555
H2 C1 1_555 1_555
H3 C2 1_555 1_555
H4 C2 1_555 1_555
H5 C3 1_555 1_555
H6 C3 1_555 1_555
H7 C4 1_555 1_555
H8 C4 1_555 1_555
H9 C5 1_555 1_555
H10 C5 1_555 1_555
H11 C7 1_555 1_555
H12 C8 1_555 1_555
H13 C9 1_555 1_555
H14 C10 1_555 1_555
H15 C11 1_555 1_555
H16 C13 1_555 1_555
H17 C14 1_555 1_555
H18 C15 1_555 1_555
H19 C16 1_555 1_555
H20 C17 1_555 1_555
O1 H21 1_555 1_555
H22 O1 1_555 1_555
C10 C11 1_555 1_555
C16 C17 1_555 1_555

#END
