
#######################################################################
#
#                 Cambridge Crystallographic Data Centre
#                                CCDC 
#
#######################################################################
#
# If this CIF has been generated from an entry in the Cambridge 
# Structural Database, then it will include bibliographic, chemical, 
# crystal, experimental, refinement or atomic coordinate data resulting 
# from the CCDC's data processing and validation procedures.
#
#######################################################################

data_FUFYIP01
_chemical_formula_moiety         'C22 H15 N3'
_chemical_name_systematic        (4-(Diphenylamino)benzylidene)malononitrile
_symmetry_cell_setting           monoclinic
_symmetry_space_group_name_H-M   'P 21/c'
_symmetry_Int_Tables_number      14
_space_group_name_Hall           '-P 2ybc'
loop_
_symmetry_equiv_pos_site_id
_symmetry_equiv_pos_as_xyz
1 x,y,z
2 -x,1/2+y,1/2-z
3 -x,-y,-z
4 x,1/2-y,1/2+z
_cell_length_a                   7.009(9)
_cell_length_b                   15.89(2)
_cell_length_c                   16.09(2)
_cell_angle_alpha                90
_cell_angle_beta                 95.066(18)
_cell_angle_gamma                90
_cell_volume                     1784.99
_cell_formula_units_Z            4
loop_
_atom_site_label
_atom_site_type_symbol
_atom_site_fract_x
_atom_site_fract_y
_atom_site_fract_z
C1 C 0.2656(3) 0.45907(14) 0.47099(14)
C2 C 0.2339(3) 0.59505(15) 0.55089(15)
C3 C 0.2515(3) 0.51062(15) 0.54305(14)
H1 H 0.2550 0.4811 0.5931
N1 N 0.2832(3) 0.29585(11) 0.26678(12)
C4 C 0.2628(3) 0.37172(14) 0.48061(14)
H2 H 0.2566 0.3494 0.5338
C5 C 0.2689(3) 0.31808(14) 0.41487(14)
H3 H 0.2653 0.2603 0.4239
C6 C 0.2806(3) 0.34876(14) 0.33413(14)
C7 C 0.2900(3) 0.43596(14) 0.32427(15)
H4 H 0.3024 0.4582 0.2715
C8 C 0.2215(3) 0.63161(15) 0.63143(18)
C9 C 0.2235(4) 0.65399(17) 0.48394(18)
C10 C 0.2815(3) 0.48906(15) 0.39028(15)
H5 H 0.2864 0.5468 0.3814
C11 C 0.2961(4) 0.20654(15) 0.27679(14)
C12 C 0.2671(4) 0.32838(15) 0.18303(16)
N2 N 0.2123(3) 0.66154(14) 0.69541(15)
C13 C 0.1420(4) 0.15749(18) 0.25253(17)
H6 H 0.0290 0.1818 0.2293
C14 C 0.4213(4) 0.32524(16) 0.13654(18)
H7 H 0.5353 0.3010 0.1588
C15 C 0.4625(4) 0.16966(16) 0.31074(17)
H8 H 0.5690 0.2027 0.3266
C16 C 0.3186(6) 0.03468(18) 0.29712(18)
H9 H 0.3257 -0.0234 0.3040
N3 N 0.2120(4) 0.70135(15) 0.43059(17)
C17 C 0.0990(4) 0.36314(17) 0.14958(17)
H10 H -0.0069 0.3646 0.1805
C18 C 0.4084(5) 0.35775(19) 0.05711(19)
H11 H 0.5136 0.3554 0.0257
C19 C 0.4711(5) 0.08343(19) 0.32122(18)
H12 H 0.5831 0.0587 0.3451
C20 C 0.1546(5) 0.0709(2) 0.26274(19)
H13 H 0.0497 0.0372 0.2459
C21 C 0.0867(5) 0.39617(18) 0.0698(2)
H14 H -0.0272 0.4203 0.0472
C22 C 0.2416(6) 0.39337(18) 0.02435(19)
H15 H 0.2334 0.4158 -0.0292
loop_
_geom_bond_atom_site_label_1
_geom_bond_atom_site_label_2
_geom_bond_site_symmetry_1
_geom_bond_site_symmetry_2
C1 C3 1_555 1_555
C2 C3 1_555 1_555
C3 H1 1_555 1_555
N1 C6 1_555 1_555
C4 C1 1_555 1_555
H2 C4 1_555 1_555
C5 C4 1_555 1_555
H3 C5 1_555 1_555
C6 C5 1_555 1_555
C7 C6 1_555 1_555
H4 C7 1_555 1_555
C8 C2 1_555 1_555
C9 C2 1_555 1_555
C10 C1 1_555 1_555
H5 C10 1_555 1_555
C11 N1 1_555 1_555
C12 N1 1_555 1_555
N2 C8 1_555 1_555
C13 C11 1_555 1_555
H6 C13 1_555 1_555
C14 C12 1_555 1_555
H7 C14 1_555 1_555
C15 C11 1_555 1_555
H8 C15 1_555 1_555
C16 H9 1_555 1_555
N3 C9 1_555 1_555
C17 C12 1_555 1_555
H10 C17 1_555 1_555
C18 C14 1_555 1_555
H11 C18 1_555 1_555
C19 C15 1_555 1_555
H12 C19 1_555 1_555
C20 C13 1_555 1_555
H13 C20 1_555 1_555
C21 C17 1_555 1_555
H14 C21 1_555 1_555
C22 C18 1_555 1_555
H15 C22 1_555 1_555
C7 C10 1_555 1_555
C16 C19 1_555 1_555
C16 C20 1_555 1_555
C21 C22 1_555 1_555

#END
