
#######################################################################
#
#                 Cambridge Crystallographic Data Centre
#                                CCDC 
#
#######################################################################
#
# If this CIF has been generated from an entry in the Cambridge 
# Structural Database, then it will include bibliographic, chemical, 
# crystal, experimental, refinement or atomic coordinate data resulting 
# from the CCDC's data processing and validation procedures.
#
#######################################################################

data_FUFYIP02
_chemical_formula_moiety         'C22 H15 N3'
_chemical_name_systematic        (4-(diphenylamino)benzylidene)malononitrile
_symmetry_cell_setting           monoclinic
_symmetry_space_group_name_H-M   'P 21/c'
_symmetry_Int_Tables_number      14
_space_group_name_Hall           '-P 2ybc'
loop_
_symmetry_equiv_pos_site_id
_symmetry_equiv_pos_as_xyz
1 x,y,z
2 -x,1/2+y,1/2-z
3 -x,-y,-z
4 x,1/2-y,1/2+z
_cell_length_a                   7.036(5)
_cell_length_b                   15.938(11)
_cell_length_c                   16.115(11)
_cell_angle_alpha                90
_cell_angle_beta                 95.219(8)
_cell_angle_gamma                90
_cell_volume                     1799.64
_cell_formula_units_Z            4
loop_
_atom_site_label
_atom_site_type_symbol
_atom_site_fract_x
_atom_site_fract_y
_atom_site_fract_z
N1 N 0.28382(19) 0.29577(8) 0.26678(7)
C1 C 0.26572(18) 0.45916(9) 0.47121(8)
C2 C 0.2903(2) 0.43599(9) 0.32434(9)
H1 H 0.3025 0.4581 0.2717
C3 C 0.25155(19) 0.51094(10) 0.54342(9)
H2 H 0.2555 0.4816 0.5934
C4 C 0.23345(19) 0.59521(9) 0.55124(9)
C5 C 0.2628(2) 0.37195(9) 0.48113(9)
H3 H 0.2564 0.3500 0.5343
C6 C 0.28116(19) 0.34880(8) 0.33407(8)
C7 C 0.2819(2) 0.48934(9) 0.39023(9)
H4 H 0.2870 0.5469 0.3813
C8 C 0.2690(2) 0.31762(9) 0.41532(9)
H5 H 0.2651 0.2600 0.4243
C9 C 0.2217(2) 0.63211(10) 0.63167(10)
C10 C 0.2683(2) 0.32846(9) 0.18285(9)
N2 N 0.2126(2) 0.66166(10) 0.69563(10)
C11 C 0.2223(2) 0.65410(10) 0.48400(11)
C12 C 0.2962(2) 0.20625(10) 0.27690(9)
C13 C 0.1417(3) 0.15671(11) 0.25197(12)
H6 H 0.0290 0.1808 0.2284
C14 C 0.0993(3) 0.36357(12) 0.14969(11)
H7 H -0.0058 0.3653 0.1807
N3 N 0.2121(3) 0.70182(10) 0.43080(11)
C15 C 0.4225(3) 0.32480(11) 0.13652(10)
H8 H 0.5359 0.3003 0.1587
C16 C 0.3193(3) 0.03437(11) 0.29745(11)
H9 H 0.3258 -0.0235 0.3049
C17 C 0.4088(3) 0.35744(13) 0.05706(11)
H10 H 0.5131 0.3549 0.0256
C18 C 0.4627(3) 0.16950(11) 0.31117(11)
H11 H 0.5684 0.2026 0.3273
C19 C 0.4726(3) 0.08312(11) 0.32161(12)
H12 H 0.5846 0.0586 0.3452
C20 C 0.0875(3) 0.39620(13) 0.06992(12)
H13 H -0.0262 0.4201 0.0473
C21 C 0.1554(3) 0.07053(12) 0.26221(13)
H14 H 0.0514 0.0368 0.2448
C22 C 0.2413(4) 0.39371(12) 0.02408(11)
H15 H 0.2328 0.4165 -0.0293
loop_
_geom_bond_atom_site_label_1
_geom_bond_atom_site_label_2
_geom_bond_site_symmetry_1
_geom_bond_site_symmetry_2
N1 C6 1_555 1_555
C1 C3 1_555 1_555
C2 H1 1_555 1_555
C3 H2 1_555 1_555
C4 C3 1_555 1_555
C5 C1 1_555 1_555
H3 C5 1_555 1_555
C6 C2 1_555 1_555
C7 C1 1_555 1_555
H4 C7 1_555 1_555
C8 C5 1_555 1_555
H5 C8 1_555 1_555
C9 C4 1_555 1_555
C10 N1 1_555 1_555
N2 C9 1_555 1_555
C11 C4 1_555 1_555
C12 N1 1_555 1_555
C13 C12 1_555 1_555
H6 C13 1_555 1_555
C14 C10 1_555 1_555
H7 C14 1_555 1_555
N3 C11 1_555 1_555
C15 C10 1_555 1_555
H8 C15 1_555 1_555
C16 H9 1_555 1_555
C17 C15 1_555 1_555
H10 C17 1_555 1_555
C18 C12 1_555 1_555
H11 C18 1_555 1_555
C19 C16 1_555 1_555
H12 C19 1_555 1_555
C20 C14 1_555 1_555
H13 C20 1_555 1_555
C21 C13 1_555 1_555
H14 C21 1_555 1_555
C22 C17 1_555 1_555
H15 C22 1_555 1_555
C2 C7 1_555 1_555
C6 C8 1_555 1_555
C16 C21 1_555 1_555
C18 C19 1_555 1_555
C20 C22 1_555 1_555

#END
