
#######################################################################
#
#                 Cambridge Crystallographic Data Centre
#                                CCDC 
#
#######################################################################
#
# If this CIF has been generated from an entry in the Cambridge 
# Structural Database, then it will include bibliographic, chemical, 
# crystal, experimental, refinement or atomic coordinate data resulting 
# from the CCDC's data processing and validation procedures.
#
#######################################################################

data_FUGQUT
_chemical_formula_moiety         'C12 H8 N2 O4 S2'
_chemical_name_systematic        'bis-(3-nitrophenyl) disulfide'
_symmetry_cell_setting           monoclinic
_symmetry_space_group_name_H-M   'C 2/c'
_symmetry_Int_Tables_number      15
_space_group_name_Hall           '-C 2yn'
loop_
_symmetry_equiv_pos_site_id
_symmetry_equiv_pos_as_xyz
1 x,y,z
2 x,-y,1/2+z
3 1/2+x,1/2+y,z
4 1/2+x,1/2-y,1/2+z
5 -x,-y,-z
6 -x,y,1/2-z
7 1/2-x,1/2-y,-z
8 1/2-x,1/2+y,1/2-z
_cell_length_a                   13.6731(9)
_cell_length_b                   8.9078(6)
_cell_length_c                   12.4539(8)
_cell_angle_alpha                90
_cell_angle_beta                 120.0700(10)
_cell_angle_gamma                90
_cell_volume                     1312.7
_exptl_crystal_colour            yellow
_exptl_crystal_description       block
_cell_formula_units_Z            4
_exptl_crystal_recrystallization_method ethanol
loop_
_atom_site_label
_atom_site_type_symbol
_atom_site_fract_x
_atom_site_fract_y
_atom_site_fract_z
S1 S 0.02628(4) 0.33466(6) 0.18704(4)
C1 C -0.06472(13) 0.2079(2) 0.06750(14)
C2 C -0.14224(13) 0.11524(19) 0.07274(14)
C3 C -0.20767(13) 0.02443(19) -0.02873(14)
N1 N -0.29339(12) -0.07141(17) -0.02498(14)
O1 O -0.34811(13) -0.15644(17) -0.11204(14)
O2 O -0.30734(12) -0.06137(18) 0.06422(12)
C4 C -0.19806(14) 0.0228(2) -0.13356(15)
C5 C -0.12072(17) 0.1180(2) -0.13717(16)
C6 C -0.05410(15) 0.2104(2) -0.03857(16)
H1 H -0.1507 0.1134 0.1423
H2 H -0.2424 -0.0406 -0.1997
H3 H -0.1133 0.1201 -0.2074
H4 H -0.0022 0.2743 -0.0424
S1E S -0.02628(4) 0.33466(6) 0.31296(4)
C1E C 0.06472(13) 0.2079(2) 0.43250(14)
C2E C 0.14224(13) 0.11524(19) 0.42726(14)
C3E C 0.20767(13) 0.02443(19) 0.52873(14)
N1E N 0.29339(12) -0.07141(17) 0.52498(14)
O1E O 0.34811(13) -0.15644(17) 0.61204(14)
O2E O 0.30734(12) -0.06137(18) 0.43578(12)
C4E C 0.19806(14) 0.0228(2) 0.63356(15)
C5E C 0.12072(17) 0.1180(2) 0.63717(16)
C6E C 0.05410(15) 0.2104(2) 0.53857(16)
H4E H 0.0022 0.2743 0.5424
H3E H 0.1133 0.1201 0.7074
H2E H 0.2424 -0.0406 0.6997
H1E H 0.1507 0.1134 0.3577
loop_
_geom_bond_atom_site_label_1
_geom_bond_atom_site_label_2
_geom_bond_site_symmetry_1
_geom_bond_site_symmetry_2
S1 C1 1_555 1_555
C1 C2 1_555 1_555
C2 C3 1_555 1_555
C3 N1 1_555 1_555
N1 O1 1_555 1_555
O2 N1 1_555 1_555
C4 C3 1_555 1_555
C5 C4 1_555 1_555
C6 C1 1_555 1_555
H1 C2 1_555 1_555
H2 C4 1_555 1_555
H3 C5 1_555 1_555
H4 C6 1_555 1_555
S1E S1 1_555 1_555
C1E S1E 1_555 1_555
C2E C1E 1_555 1_555
C3E C2E 1_555 1_555
N1E C3E 1_555 1_555
O1E N1E 1_555 1_555
O2E N1E 1_555 1_555
C4E C3E 1_555 1_555
C5E C4E 1_555 1_555
C6E C1E 1_555 1_555
H4E C6E 1_555 1_555
H3E C5E 1_555 1_555
H2E C4E 1_555 1_555
H1E C2E 1_555 1_555
C5 C6 1_555 1_555
C5E C6E 1_555 1_555

#END
