
#######################################################################
#
#                 Cambridge Crystallographic Data Centre
#                                CCDC 
#
#######################################################################
#
# If this CIF has been generated from an entry in the Cambridge 
# Structural Database, then it will include bibliographic, chemical, 
# crystal, experimental, refinement or atomic coordinate data resulting 
# from the CCDC's data processing and validation procedures.
#
#######################################################################

data_FUGROQ
_chemical_formula_moiety         'C15 H16 O3'
_chemical_name_systematic        8-phenyl-6-oxaspiro[4.5]decane-1,9-dione
_symmetry_cell_setting           triclinic
_symmetry_space_group_name_H-M   'P -1'
_symmetry_Int_Tables_number      2
_space_group_name_Hall           '-P 1'
loop_
_symmetry_equiv_pos_site_id
_symmetry_equiv_pos_as_xyz
1 x,y,z
2 -x,-y,-z
_cell_length_a                   6.2739(11)
_cell_length_b                   9.8688(19)
_cell_length_c                   11.243(2)
_cell_angle_alpha                65.909(18)
_cell_angle_beta                 81.222(15)
_cell_angle_gamma                85.448(15)
_cell_volume                     627.931
_exptl_crystal_colour            colorless
_exptl_crystal_description       block
_cell_formula_units_Z            2
loop_
_atom_site_label
_atom_site_type_symbol
_atom_site_fract_x
_atom_site_fract_y
_atom_site_fract_z
O1 O 1.1749(3) 0.2239(2) 0.0007(2)
O2 O 0.7780(3) 0.4134(2) -0.09898(18)
O3 O 0.7471(4) -0.0102(2) 0.1750(2)
C1 C 0.8991(5) 0.3472(4) -0.2793(3)
H1 H 0.7701 0.4018 -0.3121
H2 H 0.9219 0.2643 -0.3054
C2 C 1.0940(5) 0.4479(4) -0.3317(3)
H3 H 1.1540 0.4567 -0.4193
H4 H 1.0549 0.5462 -0.3346
C3 C 1.2529(5) 0.3719(4) -0.2352(3)
H5 H 1.3486 0.3052 -0.2632
H6 H 1.3389 0.4442 -0.2268
C4 C 1.1158(5) 0.2866(3) -0.1067(3)
C5 C 0.8791(4) 0.2935(3) -0.1310(3)
C6 C 0.7594(5) 0.1485(3) -0.0518(3)
H7 H 0.6221 0.1554 -0.0837
H8 H 0.8429 0.0680 -0.0658
C7 C 0.7202(4) 0.1132(3) 0.0923(3)
C8 C 0.6316(4) 0.2437(3) 0.1266(3)
H9 H 0.4832 0.2621 0.1057
C9 C 0.7570(5) 0.3847(3) 0.0373(3)
H10 H 0.6843 0.4689 0.0505
H11 H 0.8999 0.3755 0.0631
C10 C 0.6203(5) 0.2178(3) 0.2683(3)
C11 C 0.4297(5) 0.2427(4) 0.3368(3)
H12 H 0.3072 0.2751 0.2947
C12 C 0.4195(7) 0.2196(5) 0.4676(4)
H13 H 0.2900 0.2366 0.5125
C13 C 0.5969(7) 0.1723(4) 0.5313(4)
H14 H 0.5880 0.1561 0.6194
C14 C 0.7881(6) 0.1489(4) 0.4650(3)
H15 H 0.9101 0.1179 0.5077
C15 C 0.8002(5) 0.1715(3) 0.3334(3)
H16 H 0.9306 0.1553 0.2889
loop_
_geom_bond_atom_site_label_1
_geom_bond_atom_site_label_2
_geom_bond_site_symmetry_1
_geom_bond_site_symmetry_2
O1 C4 1_555 1_555
O2 C5 1_555 1_555
O3 C7 1_555 1_555
C1 H1 1_555 1_555
H2 C1 1_555 1_555
C2 C1 1_555 1_555
H3 C2 1_555 1_555
H4 C2 1_555 1_555
C3 C2 1_555 1_555
H5 C3 1_555 1_555
H6 C3 1_555 1_555
C4 C3 1_555 1_555
C5 C1 1_555 1_555
C6 C5 1_555 1_555
H7 C6 1_555 1_555
H8 C6 1_555 1_555
C7 C6 1_555 1_555
C8 C7 1_555 1_555
H9 C8 1_555 1_555
C9 O2 1_555 1_555
H10 C9 1_555 1_555
H11 C9 1_555 1_555
C10 C8 1_555 1_555
C11 C10 1_555 1_555
H12 C11 1_555 1_555
C12 C11 1_555 1_555
H13 C12 1_555 1_555
C13 C12 1_555 1_555
H14 C13 1_555 1_555
C14 C13 1_555 1_555
H15 C14 1_555 1_555
C15 C10 1_555 1_555
H16 C15 1_555 1_555
C4 C5 1_555 1_555
C8 C9 1_555 1_555
C14 C15 1_555 1_555

#END
