
#######################################################################
#
#                 Cambridge Crystallographic Data Centre
#                                CCDC 
#
#######################################################################
#
# If this CIF has been generated from an entry in the Cambridge 
# Structural Database, then it will include bibliographic, chemical, 
# crystal, experimental, refinement or atomic coordinate data resulting 
# from the CCDC's data processing and validation procedures.
#
#######################################################################

data_FUGVUZ
_chemical_name_common            "Diethyl 2,2'-(dansylimino)diacetate"
_chemical_formula_moiety         'C20 H26 N2 O6 S1'
_chemical_name_systematic        
"Diethyl 2,2'-((5-(dimethylamino)-1-naphthyl)sulfonylimino)diacetate"
_symmetry_cell_setting           monoclinic
_symmetry_space_group_name_H-M   'P 21/c'
_symmetry_Int_Tables_number      14
_space_group_name_Hall           '-P 2ybc'
loop_
_symmetry_equiv_pos_site_id
_symmetry_equiv_pos_as_xyz
1 x,y,z
2 -x,1/2+y,1/2-z
3 -x,-y,-z
4 x,1/2-y,1/2+z
_cell_length_a                   13.1266(9)
_cell_length_b                   8.4592(5)
_cell_length_c                   19.3206(12)
_cell_angle_alpha                90
_cell_angle_beta                 93.5300(10)
_cell_angle_gamma                90
_cell_volume                     2141.3
_exptl_crystal_colour            yellow
_exptl_crystal_description       block
_cell_formula_units_Z            4
_exptl_crystal_recrystallization_method 'ethyl acetate'
loop_
_atom_site_label
_atom_site_type_symbol
_atom_site_fract_x
_atom_site_fract_y
_atom_site_fract_z
C1 C 0.95264(17) 0.5912(3) 0.37909(11)
C2 C 1.02352(18) 0.4871(3) 0.35796(14)
H1 H 1.0911 0.4969 0.3750
C3 C 0.99669(18) 0.3659(3) 0.31122(15)
H2 H 1.0466 0.2959 0.2981
C4 C 0.89929(16) 0.3482(3) 0.28453(13)
H3 H 0.8836 0.2689 0.2523
C5 C 0.82149(15) 0.4499(2) 0.30558(10)
C6 C 0.71621(15) 0.4373(2) 0.28232(10)
C7 C 0.64297(16) 0.5326(2) 0.30780(11)
H4 H 0.5752 0.5227 0.2912
C8 C 0.67007(17) 0.6443(3) 0.35867(12)
H5 H 0.6200 0.7065 0.3771
C9 C 0.76932(17) 0.6628(3) 0.38138(12)
H6 H 0.7861 0.7382 0.4153
C10 C 0.84776(15) 0.5708(2) 0.35492(10)
C11 C 0.9684(3) 0.8725(4) 0.39713(18)
H7 H 1.0269 0.8936 0.3712
H8 H 0.9651 0.9487 0.4337
H9 H 0.9076 0.8794 0.3669
C12 C 1.0732(2) 0.6972(5) 0.46859(16)
H10 H 1.0791 0.5906 0.4854
H11 H 1.0742 0.7688 0.5072
H12 H 1.1293 0.7203 0.4406
C13 C 0.59995(17) 0.1130(3) 0.32052(11)
H13 H 0.5668 0.0108 0.3159
H14 H 0.5478 0.1937 0.3136
C14 C 0.64919(19) 0.1283(3) 0.39272(12)
C15 C 0.6061(8) 0.1733(7) 0.5102(2)
H15 H 0.6740 0.1337 0.5230
H16 H 0.5583 0.1241 0.5399
C16 C 0.6032(10) 0.3472(8) 0.5176(3)
H17 H 0.6565 0.3935 0.4925
H18 H 0.6128 0.3748 0.5658
H19 H 0.5383 0.3861 0.4994
C17 C 0.73411(17) -0.0060(3) 0.24933(12)
H20 H 0.7484 -0.0699 0.2905
H21 H 0.7988 0.0315 0.2339
C18 C 0.68302(16) -0.1075(2) 0.19336(11)
C19 C 0.7087(7) -0.2942(12) 0.1072(5)
H22 H 0.6722 -0.2204 0.0762
H23 H 0.6624 -0.3784 0.1185
C20 C 0.8001(6) -0.3609(15) 0.0734(5)
H24 H 0.8432 -0.2759 0.0600
H25 H 0.7776 -0.4207 0.0331
H26 H 0.8378 -0.4285 0.1057
N1 N 0.97658(16) 0.7153(3) 0.42652(11)
N2 N 0.67264(13) 0.1287(2) 0.26716(9)
O1 O 0.74296(13) 0.2660(2) 0.16995(8)
O2 O 0.56924(12) 0.3303(2) 0.20057(8)
O3 O 0.73809(15) 0.1308(3) 0.40732(10)
O4 O 0.57813(15) 0.1376(3) 0.43757(9)
O5 O 0.59653(12) -0.0973(2) 0.17180(10)
O6 O 0.74949(13) -0.2111(2) 0.17216(11)
S1 S 0.67202(4) 0.28980(6) 0.22222(3)
C21? C 0.626(2) 0.223(5) 0.4978(12)
C22? C 0.539(3) 0.281(6) 0.5403(16)
C23? C 0.7221(11) -0.3420(9) 0.1268(4)
C24? C 0.7438(12) -0.2768(12) 0.0564(4)
H27? H 0.6659 0.3117 0.4825
H28? H 0.6711 0.1531 0.5253
H29? H 0.5088 0.3735 0.5189
H30? H 0.5652 0.3060 0.5864
H31? H 0.4883 0.1993 0.5421
H32? H 0.6507 -0.3697 0.1290
H33? H 0.7638 -0.4342 0.1382
H34? H 0.7039 -0.1831 0.0474
H35? H 0.7263 -0.3544 0.0215
H36? H 0.8150 -0.2515 0.0556
loop_
_geom_bond_atom_site_label_1
_geom_bond_atom_site_label_2
_geom_bond_site_symmetry_1
_geom_bond_site_symmetry_2
C1 C2 1_555 1_555
C2 H1 1_555 1_555
C3 C2 1_555 1_555
H2 C3 1_555 1_555
C4 C3 1_555 1_555
H3 C4 1_555 1_555
C5 C4 1_555 1_555
C6 C5 1_555 1_555
C7 C6 1_555 1_555
H4 C7 1_555 1_555
C8 C7 1_555 1_555
H5 C8 1_555 1_555
C9 C8 1_555 1_555
H6 C9 1_555 1_555
C10 C1 1_555 1_555
C11 H7 1_555 1_555
H8 C11 1_555 1_555
H9 C11 1_555 1_555
C12 H10 1_555 1_555
H11 C12 1_555 1_555
H12 C12 1_555 1_555
C13 H13 1_555 1_555
H14 C13 1_555 1_555
C14 C13 1_555 1_555
C15 H15 1_555 1_555
H16 C15 1_555 1_555
C16 C15 1_555 1_555
H17 C16 1_555 1_555
H18 C16 1_555 1_555
H19 C16 1_555 1_555
C17 H20 1_555 1_555
H21 C17 1_555 1_555
C18 C17 1_555 1_555
C19 H22 1_555 1_555
H23 C19 1_555 1_555
C20 C19 1_555 1_555
H24 C20 1_555 1_555
H25 C20 1_555 1_555
H26 C20 1_555 1_555
N1 C1 1_555 1_555
N2 C13 1_555 1_555
O1 S1 1_555 1_555
O2 S1 1_555 1_555
O3 C14 1_555 1_555
O4 C14 1_555 1_555
O5 C18 1_555 1_555
O6 C18 1_555 1_555
S1 C6 1_555 1_555
C5 C10 1_555 1_555
C9 C10 1_555 1_555
C11 N1 1_555 1_555
C12 N1 1_555 1_555
C15 O4 1_555 1_555
C17 N2 1_555 1_555
C19 O6 1_555 1_555
N2 S1 1_555 1_555

#END
