
#######################################################################
#
#                 Cambridge Crystallographic Data Centre
#                                CCDC 
#
#######################################################################
#
# If this CIF has been generated from an entry in the Cambridge 
# Structural Database, then it will include bibliographic, chemical, 
# crystal, experimental, refinement or atomic coordinate data resulting 
# from the CCDC's data processing and validation procedures.
#
#######################################################################

data_FUGYIQ
_chemical_formula_moiety         'C26 H18 Cl2 N2 O2'
_chemical_name_systematic        
(E,E)-4,4'-Dichloro-2,2'-[azinobis(phenylmethylidyne)]diphenol
_symmetry_cell_setting           orthorhombic
_symmetry_space_group_name_H-M   'P b c n'
_symmetry_Int_Tables_number      60
_space_group_name_Hall           '-P 2n 2ab'
loop_
_symmetry_equiv_pos_site_id
_symmetry_equiv_pos_as_xyz
1 x,y,z
2 1/2-x,1/2-y,1/2+z
3 -x,y,1/2-z
4 1/2+x,1/2-y,-z
5 -x,-y,-z
6 1/2+x,1/2+y,1/2-z
7 x,-y,1/2+z
8 1/2-x,1/2+y,z
_cell_length_a                   13.1622(11)
_cell_length_b                   10.6184(9)
_cell_length_c                   16.0671(13)
_cell_angle_alpha                90
_cell_angle_beta                 90
_cell_angle_gamma                90
_cell_volume                     2245.56
_exptl_crystal_colour            yellow
_exptl_crystal_description       plate
_cell_formula_units_Z            4
_exptl_crystal_recrystallization_method acetone
loop_
_atom_site_label
_atom_site_type_symbol
_atom_site_fract_x
_atom_site_fract_y
_atom_site_fract_z
Cl1 Cl 0.23969(7) 0.00971(8) 0.37894(5)
O1 O 0.0498(2) -0.25287(17) 0.10094(15)
H1 H 0.0336 -0.2049 0.0632
N1 N 0.01697(18) -0.03788(18) 0.03234(13)
C1 C 0.0915(2) -0.1871(2) 0.16297(18)
C2 C 0.09948(19) -0.0543(2) 0.16200(16)
C3 C 0.1464(2) 0.0039(2) 0.22956(15)
H2 H 0.1534 0.0911 0.2300
C4 C 0.1822(2) -0.0646(2) 0.29475(16)
C5 C 0.1737(2) -0.1941(3) 0.29588(19)
H3 H 0.1983 -0.2402 0.3408
C6 C 0.1291(3) -0.2536(3) 0.2306(2)
H4 H 0.1235 -0.3409 0.2312
C7 C 0.06111(19) 0.0215(2) 0.09230(15)
C8 C 0.0749(2) 0.1609(2) 0.09250(16)
C9 C -0.0003(3) 0.2398(3) 0.1189(2)
H5 H -0.0609 0.2068 0.1391
C10 C 0.0135(3) 0.3694(3) 0.1158(3)
H6 H -0.0377 0.4230 0.1342
C11 C 0.1022(3) 0.4180(3) 0.0857(2)
H7 H 0.1108 0.5048 0.0827
C12 C 0.1777(3) 0.3402(3) 0.0602(2)
H8 H 0.2384 0.3737 0.0405
C13 C 0.1644(2) 0.2118(3) 0.06340(19)
H9 H 0.2164 0.1587 0.0457
Cl1D Cl -0.23969(7) -0.00971(8) -0.37894(5)
O1D O -0.0498(2) 0.25287(17) -0.10094(15)
H1D H -0.0336 0.2049 -0.0632
N1D N -0.01697(18) 0.03788(18) -0.03234(13)
C1D C -0.0915(2) 0.1871(2) -0.16297(18)
C2D C -0.09948(19) 0.0543(2) -0.16200(16)
C3D C -0.1464(2) -0.0039(2) -0.22956(15)
H2D H -0.1534 -0.0911 -0.2300
C4D C -0.1822(2) 0.0646(2) -0.29475(16)
C5D C -0.1737(2) 0.1941(3) -0.29588(19)
H3D H -0.1983 0.2402 -0.3408
C6D C -0.1291(3) 0.2536(3) -0.2306(2)
H4D H -0.1235 0.3409 -0.2312
C7D C -0.06111(19) -0.0215(2) -0.09230(15)
C8D C -0.0749(2) -0.1609(2) -0.09250(16)
C9D C 0.0003(3) -0.2398(3) -0.1189(2)
H5D H 0.0609 -0.2068 -0.1391
C10D C -0.0135(3) -0.3694(3) -0.1158(3)
H6D H 0.0377 -0.4230 -0.1342
C11D C -0.1022(3) -0.4180(3) -0.0857(2)
H7D H -0.1108 -0.5048 -0.0827
C12D C -0.1777(3) -0.3402(3) -0.0602(2)
H8D H -0.2384 -0.3737 -0.0405
C13D C -0.1644(2) -0.2118(3) -0.06340(19)
H9D H -0.2164 -0.1587 -0.0457
loop_
_geom_bond_atom_site_label_1
_geom_bond_atom_site_label_2
_geom_bond_site_symmetry_1
_geom_bond_site_symmetry_2
Cl1 C4 1_555 1_555
O1 H1 1_555 1_555
N1 C7 1_555 1_555
C1 O1 1_555 1_555
C2 C1 1_555 1_555
C3 C2 1_555 1_555
H2 C3 1_555 1_555
C4 C3 1_555 1_555
C5 C4 1_555 1_555
H3 C5 1_555 1_555
C6 C1 1_555 1_555
H4 C6 1_555 1_555
C7 C2 1_555 1_555
C8 C7 1_555 1_555
C9 C8 1_555 1_555
H5 C9 1_555 1_555
C10 C9 1_555 1_555
H6 C10 1_555 1_555
C11 C10 1_555 1_555
H7 C11 1_555 1_555
C12 C11 1_555 1_555
H8 C12 1_555 1_555
C13 C8 1_555 1_555
H9 C13 1_555 1_555
Cl1D C4D 1_555 1_555
O1D H1D 1_555 1_555
N1D N1 1_555 1_555
C1D O1D 1_555 1_555
C2D C1D 1_555 1_555
C3D C2D 1_555 1_555
H2D C3D 1_555 1_555
C4D C3D 1_555 1_555
C5D C4D 1_555 1_555
H3D C5D 1_555 1_555
C6D C1D 1_555 1_555
H4D C6D 1_555 1_555
C7D N1D 1_555 1_555
C8D C7D 1_555 1_555
C9D C8D 1_555 1_555
H5D C9D 1_555 1_555
C10D C9D 1_555 1_555
H6D C10D 1_555 1_555
C11D C10D 1_555 1_555
H7D C11D 1_555 1_555
C12D C11D 1_555 1_555
H8D C12D 1_555 1_555
C13D C8D 1_555 1_555
H9D C13D 1_555 1_555
C5 C6 1_555 1_555
C12 C13 1_555 1_555
C2D C7D 1_555 1_555
C5D C6D 1_555 1_555
C12D C13D 1_555 1_555

#END
