
#######################################################################
#
#                 Cambridge Crystallographic Data Centre
#                                CCDC 
#
#######################################################################
#
# If this CIF has been generated from an entry in the Cambridge 
# Structural Database, then it will include bibliographic, chemical, 
# crystal, experimental, refinement or atomic coordinate data resulting 
# from the CCDC's data processing and validation procedures.
#
#######################################################################

data_FUHCAN
_chemical_formula_moiety         'C25 H19 N1 O1'
_chemical_name_systematic        
(E)-N-[(1,3-Dihydronaphtho[2,3-c]furan-4-yl)phenylmethylene]aniline
_symmetry_cell_setting           triclinic
_symmetry_space_group_name_H-M   'P -1'
_symmetry_Int_Tables_number      2
_space_group_name_Hall           '-P 1'
loop_
_symmetry_equiv_pos_site_id
_symmetry_equiv_pos_as_xyz
1 x,y,z
2 -x,-y,-z
_cell_length_a                   9.326(2)
_cell_length_b                   10.198(2)
_cell_length_c                   10.878(2)
_cell_angle_alpha                64.410(10)
_cell_angle_beta                 79.037(11)
_cell_angle_gamma                86.299(12)
_cell_volume                     915.877
_exptl_crystal_colour            yellow
_exptl_crystal_description       block
_cell_formula_units_Z            2
loop_
_atom_site_label
_atom_site_type_symbol
_atom_site_fract_x
_atom_site_fract_y
_atom_site_fract_z
C1 C 0.1356(4) 0.2470(4) 0.7731(4)
C2 C 0.1319(4) 0.1578(4) 0.7038(4)
C3 C 0.1621(4) 0.1824(4) 0.9125(4)
C4 C 0.1846(4) 0.0328(4) 0.9765(4)
H1 H 0.1995 -0.0101 1.0677
C5 C 0.1851(4) -0.0506(4) 0.9077(4)
N1 N -0.0090(4) 0.2261(4) 0.5151(3)
C6 C 0.1585(4) 0.0116(4) 0.7703(4)
C7 C 0.1162(4) 0.3989(4) 0.7104(4)
H2 H 0.0978 0.4427 0.6204
C8 C 0.1141(4) 0.2222(4) 0.5537(4)
C9 C 0.1645(4) 0.2734(4) 0.9793(4)
H3 H 0.1788 0.2320 1.0707
C10 C 0.2449(4) 0.2815(4) 0.4463(4)
C11 C 0.1235(4) 0.4827(4) 0.7779(4)
H4 H 0.1131 0.5828 0.7328
C12 C -0.1432(4) 0.1792(5) 0.6102(4)
C13 C 0.1467(5) 0.4190(5) 0.9153(5)
H5 H 0.1499 0.4762 0.9621
C14 C 0.2363(5) 0.3438(5) 0.3073(4)
H6 H 0.1462 0.3476 0.2813
C15 C 0.3576(5) 0.3999(5) 0.2072(5)
H7 H 0.3490 0.4425 0.1142
C16 C -0.2194(5) 0.2719(5) 0.6612(4)
H8 H -0.1773 0.3600 0.6434
C17 C 0.1712(5) -0.1041(4) 0.7202(4)
H9 H 0.0832 -0.1104 0.6875
H10 H 0.2538 -0.0840 0.6450
C18 C -0.2089(5) 0.0486(5) 0.6375(4)
H11 H -0.1595 -0.0133 0.6021
O1 O 0.1914(4) -0.2359(3) 0.8365(3)
C19 C -0.3594(5) 0.2322(5) 0.7394(5)
H12 H -0.4112 0.2944 0.7732
C20 C 0.2152(5) -0.2078(4) 0.9480(4)
H13 H 0.3153 -0.2286 0.9625
H14 H 0.1500 -0.2676 1.0328
C21 C -0.3477(5) 0.0100(6) 0.7172(5)
H15 H -0.3902 -0.0784 0.7367
C22 C -0.4213(5) 0.1018(6) 0.7669(5)
H16 H -0.5145 0.0758 0.8199
C23 C 0.3807(5) 0.2772(5) 0.4806(5)
H17 H 0.3896 0.2365 0.5734
C24 C 0.5024(5) 0.3318(6) 0.3804(5)
H18 H 0.5928 0.3263 0.4064
C25 C 0.4933(5) 0.3938(5) 0.2436(5)
H19 H 0.5763 0.4313 0.1760
loop_
_geom_bond_atom_site_label_1
_geom_bond_atom_site_label_2
_geom_bond_site_symmetry_1
_geom_bond_site_symmetry_2
C1 C2 1_555 1_555
C2 C6 1_555 1_555
C3 C1 1_555 1_555
C4 C3 1_555 1_555
H1 C4 1_555 1_555
C5 C4 1_555 1_555
N1 C8 1_555 1_555
C6 C5 1_555 1_555
C7 C1 1_555 1_555
H2 C7 1_555 1_555
C8 C2 1_555 1_555
C9 C3 1_555 1_555
H3 C9 1_555 1_555
C10 C8 1_555 1_555
C11 C7 1_555 1_555
H4 C11 1_555 1_555
C12 N1 1_555 1_555
C13 C9 1_555 1_555
H5 C13 1_555 1_555
C14 C10 1_555 1_555
H6 C14 1_555 1_555
C15 C14 1_555 1_555
H7 C15 1_555 1_555
C16 C12 1_555 1_555
H8 C16 1_555 1_555
C17 C6 1_555 1_555
H9 C17 1_555 1_555
H10 C17 1_555 1_555
C18 C12 1_555 1_555
H11 C18 1_555 1_555
O1 C17 1_555 1_555
C19 C16 1_555 1_555
H12 C19 1_555 1_555
C20 C5 1_555 1_555
H13 C20 1_555 1_555
H14 C20 1_555 1_555
C21 C18 1_555 1_555
H15 C21 1_555 1_555
C22 C19 1_555 1_555
H16 C22 1_555 1_555
C23 C10 1_555 1_555
H17 C23 1_555 1_555
C24 C23 1_555 1_555
H18 C24 1_555 1_555
C25 C15 1_555 1_555
H19 C25 1_555 1_555
C11 C13 1_555 1_555
O1 C20 1_555 1_555
C21 C22 1_555 1_555
C24 C25 1_555 1_555

#END
