
#######################################################################
#
#                 Cambridge Crystallographic Data Centre
#                                CCDC 
#
#######################################################################
#
# If this CIF has been generated from an entry in the Cambridge 
# Structural Database, then it will include bibliographic, chemical, 
# crystal, experimental, refinement or atomic coordinate data resulting 
# from the CCDC's data processing and validation procedures.
#
#######################################################################

data_FUHFEV
_chemical_formula_moiety         'C17 H13 F3 N2 O2 S1'
_chemical_name_systematic        
'2-(5-(trifluoromethyl)-1,3-benzothiazol-2-yl)phenyl dimethylcarbamate'
_symmetry_cell_setting           orthorhombic
_symmetry_space_group_name_H-M   'P 21 21 21'
_symmetry_Int_Tables_number      19
_space_group_name_Hall           'P 2ac 2ab'
loop_
_symmetry_equiv_pos_site_id
_symmetry_equiv_pos_as_xyz
1 x,y,z
2 1/2-x,-y,1/2+z
3 -x,1/2+y,1/2-z
4 1/2+x,1/2-y,-z
_cell_length_a                   6.3877(5)
_cell_length_b                   13.5300(10)
_cell_length_c                   19.4862(14)
_cell_angle_alpha                90
_cell_angle_beta                 90
_cell_angle_gamma                90
_cell_volume                     1684.11
_exptl_crystal_colour            colorless
_exptl_crystal_description       block
_cell_formula_units_Z            4
loop_
_atom_site_label
_atom_site_type_symbol
_atom_site_fract_x
_atom_site_fract_y
_atom_site_fract_z
S1 S 0.87117(9) 0.60918(4) 0.17683(3)
C1 C 0.5293(3) 0.48953(15) 0.21977(11)
C2 C 0.4510(4) 0.47870(16) 0.15345(11)
C3 C 0.1615(4) 0.38234(17) 0.19289(12)
H1 H 0.0400 0.3467 0.1840
C4 C 0.2361(4) 0.39137(18) 0.26000(13)
H2 H 0.1634 0.3620 0.2960
C5 C 0.2692(4) 0.42647(18) 0.14035(13)
H3 H 0.2198 0.4213 0.0956
C6 C 0.4172(4) 0.44375(16) 0.27319(11)
H4 H 0.4659 0.4488 0.3180
C7 C 0.9698(3) 0.60450(16) 0.30400(10)
C8 C 1.0395(4) 0.64459(15) 0.24157(10)
C9 C 0.7205(3) 0.54437(15) 0.23740(10)
N1 N 0.7894(3) 0.54806(14) 0.29995(9)
O1 O 0.5690(3) 0.51644(13) 0.09927(8)
O2 O 0.3081(4) 0.62015(17) 0.06794(11)
C10 C 0.4741(4) 0.5816(2) 0.05526(12)
C11 C 0.7920(6) 0.5466(3) -0.01170(15)
H5 H 0.9019 0.5884 0.0053
H6 H 0.8122 0.5354 -0.0599
H7 H 0.7949 0.4846 0.0122
C12 C 0.5177(8) 0.6638(4) -0.0534(2)
H8 H 0.3761 0.6827 -0.0434
H9 H 0.5231 0.6326 -0.0977
H10 H 0.6054 0.7214 -0.0535
N2 N 0.5920(4) 0.5941(2) -0.00073(10)
C13 C 1.0809(4) 0.62332(18) 0.36505(11)
H11 H 1.0344 0.5990 0.4070
C14 C 1.2617(3) 0.67927(16) 0.36046(11)
C15 C 1.3328(4) 0.71751(16) 0.29783(11)
H12 H 1.4554 0.7545 0.2965
C16 C 1.2225(4) 0.70065(17) 0.23812(12)
H13 H 1.2690 0.7261 0.1965
F1 F 1.3419(4) 0.64064(19) 0.47490(9)
F2 F 1.5879(3) 0.70084(17) 0.41448(9)
F3 F 1.3407(4) 0.79126(16) 0.44825(10)
C17 C 1.3823(5) 0.7024(2) 0.42378(12)
loop_
_geom_bond_atom_site_label_1
_geom_bond_atom_site_label_2
_geom_bond_site_symmetry_1
_geom_bond_site_symmetry_2
S1 C8 1_555 1_555
C1 C2 1_555 1_555
C2 C5 1_555 1_555
C3 H1 1_555 1_555
C4 C3 1_555 1_555
H2 C4 1_555 1_555
C5 C3 1_555 1_555
H3 C5 1_555 1_555
C6 C1 1_555 1_555
H4 C6 1_555 1_555
C7 C8 1_555 1_555
C8 C16 1_555 1_555
C9 S1 1_555 1_555
N1 C7 1_555 1_555
O1 C2 1_555 1_555
O2 C10 1_555 1_555
C10 O1 1_555 1_555
C11 H5 1_555 1_555
H6 C11 1_555 1_555
H7 C11 1_555 1_555
C12 H8 1_555 1_555
H9 C12 1_555 1_555
H10 C12 1_555 1_555
N2 C10 1_555 1_555
C13 C7 1_555 1_555
H11 C13 1_555 1_555
C14 C13 1_555 1_555
C15 C14 1_555 1_555
H12 C15 1_555 1_555
C16 C15 1_555 1_555
H13 C16 1_555 1_555
F1 C17 1_555 1_555
F2 C17 1_555 1_555
F3 C17 1_555 1_555
C17 C14 1_555 1_555
C1 C9 1_555 1_555
C4 C6 1_555 1_555
C9 N1 1_555 1_555
C11 N2 1_555 1_555
C12 N2 1_555 1_555

#END
