
#######################################################################
#
#                 Cambridge Crystallographic Data Centre
#                                CCDC 
#
#######################################################################
#
# If this CIF has been generated from an entry in the Cambridge 
# Structural Database, then it will include bibliographic, chemical, 
# crystal, experimental, refinement or atomic coordinate data resulting 
# from the CCDC's data processing and validation procedures.
#
#######################################################################

data_FUHFOF
_chemical_formula_moiety         'C21 H26 N4 O3'
_chemical_name_systematic        
8-((2-methoxyethyl)amino)-6-((2-methoxyphenyl)amino)-3,3-dimethyl-3,4-dihydro-1H-pyrano[3,4-c]pyridine-5-carbonitrile
_symmetry_cell_setting           monoclinic
_symmetry_space_group_name_H-M   'P 21/c'
_symmetry_Int_Tables_number      14
_space_group_name_Hall           '-P 2ybc'
loop_
_symmetry_equiv_pos_site_id
_symmetry_equiv_pos_as_xyz
1 x,y,z
2 -x,1/2+y,1/2-z
3 -x,-y,-z
4 x,1/2-y,1/2+z
_cell_length_a                   13.371(3)
_cell_length_b                   10.882(2)
_cell_length_c                   14.936(3)
_cell_angle_alpha                90
_cell_angle_beta                 110.54(3)
_cell_angle_gamma                90
_cell_volume                     2035.08
_exptl_crystal_colour            'light brown'
_exptl_crystal_description       prism
_cell_formula_units_Z            4
loop_
_atom_site_label
_atom_site_type_symbol
_atom_site_fract_x
_atom_site_fract_y
_atom_site_fract_z
C1 C 0.33814(10) 0.79151(13) 0.51049(11)
H1 H 0.3069(12) 0.7368(15) 0.5481(12)
H2 H 0.3501(12) 0.7412(15) 0.4594(11)
O1 O 0.26390(7) 0.88314(9) 0.46042(7)
C2 C 0.25294(10) 0.98322(13) 0.51981(10)
C3 C 0.35939(10) 1.05186(12) 0.55635(11)
H3 H 0.3590(12) 1.1122(14) 0.6059(11)
H4 H 0.3683(12) 1.0990(15) 0.5026(12)
C4 C 0.45252(9) 0.96685(11) 0.59776(9)
C5 C 0.55206(10) 1.01153(11) 0.65916(9)
C6 C 0.63711(10) 0.92792(12) 0.69585(9)
N1 N 0.62598(8) 0.80764(10) 0.67886(8)
C7 C 0.53046(9) 0.76622(11) 0.62064(9)
C8 C 0.44204(9) 0.84388(11) 0.57593(9)
C9 C 0.21999(12) 0.93622(16) 0.60125(12)
H5 H 0.1586 0.8840 0.5761
H6 H 0.2027 1.0046 0.6338
H7 H 0.2778 0.8905 0.6453
C10 C 0.16648(12) 1.06475(16) 0.45312(12)
H8 H 0.1876 1.0910 0.4010
H9 H 0.1564 1.1353 0.4876
H10 H 0.1008 1.0194 0.4287
C11 C 0.56758(11) 1.13877(13) 0.68226(11)
N2 N 0.58271(13) 1.23996(13) 0.70190(12)
H11 H 0.4628(15) 0.6133(16) 0.5646(13)
N3 N 0.52122(9) 0.64375(10) 0.60565(9)
C12 C 0.60571(12) 0.55706(13) 0.65124(11)
H12 H 0.5729(14) 0.4780(17) 0.6452(13)
H13 H 0.6386(14) 0.5773(16) 0.7188(13)
C13 C 0.69192(13) 0.55356(17) 0.60848(14)
H14 H 0.7277(15) 0.6337(19) 0.6186(14)
H15 H 0.7468(17) 0.4915(19) 0.6446(15)
O2 O 0.64859(11) 0.51823(12) 0.51185(9)
C14 C 0.6912(7) 0.5599(12) 0.4466(5)
H16 H 0.7047 0.6465 0.4554
H17 H 0.6418 0.5449 0.3832
H18 H 0.7569 0.5175 0.4554
H19 H 0.7421(14) 1.0494(18) 0.7496(12)
N4 N 0.73540(9) 0.97300(12) 0.75112(10)
C15 C 0.83194(10) 0.91237(15) 0.79808(10)
C16 C 0.84587(12) 0.78745(17) 0.81243(12)
H20 H 0.7849(15) 0.7322(18) 0.7867(14)
C17 C 0.94689(14) 0.7391(2) 0.86019(15)
H21 H 0.956(2) 0.647(3) 0.8669(19)
C18 C 1.03392(15) 0.8138(2) 0.89398(17)
H22 H 1.1045(19) 0.781(2) 0.9254(17)
C19 C 1.02104(14) 0.9394(3) 0.88273(16)
H23 H 1.0811(18) 0.993(2) 0.9047(16)
C20 C 0.92124(12) 0.98971(18) 0.83530(13)
O3 O 0.89920(10) 1.11221(13) 0.82032(11)
C21 C 0.98406(17) 1.1972(2) 0.85431(19)
H24 H 1.0136 1.1934 0.9228
H25 H 0.9578 1.2787 0.8348
H26 H 1.0384 1.1773 0.8284
C22? C 0.6676(12) 0.6065(11) 0.4548(7)
H27? H 0.6295 0.6801 0.4584
H28? H 0.6439 0.5779 0.3899
H29? H 0.7427 0.6237 0.4760
loop_
_geom_bond_atom_site_label_1
_geom_bond_atom_site_label_2
_geom_bond_site_symmetry_1
_geom_bond_site_symmetry_2
C1 H1 1_555 1_555
H2 C1 1_555 1_555
O1 C1 1_555 1_555
C2 O1 1_555 1_555
C3 C2 1_555 1_555
H3 C3 1_555 1_555
H4 C3 1_555 1_555
C4 C3 1_555 1_555
C5 C4 1_555 1_555
C6 C5 1_555 1_555
N1 C6 1_555 1_555
C7 N1 1_555 1_555
C8 C1 1_555 1_555
C9 C2 1_555 1_555
H5 C9 1_555 1_555
H6 C9 1_555 1_555
H7 C9 1_555 1_555
C10 C2 1_555 1_555
H8 C10 1_555 1_555
H9 C10 1_555 1_555
H10 C10 1_555 1_555
C11 C5 1_555 1_555
N2 C11 1_555 1_555
H11 N3 1_555 1_555
N3 C7 1_555 1_555
C12 N3 1_555 1_555
H12 C12 1_555 1_555
H13 C12 1_555 1_555
C13 C12 1_555 1_555
H14 C13 1_555 1_555
H15 C13 1_555 1_555
O2 C13 1_555 1_555
C14 O2 1_555 1_555
H16 C14 1_555 1_555
H17 C14 1_555 1_555
H18 C14 1_555 1_555
H19 N4 1_555 1_555
N4 C6 1_555 1_555
C15 N4 1_555 1_555
C16 C15 1_555 1_555
H20 C16 1_555 1_555
C17 C16 1_555 1_555
H21 C17 1_555 1_555
C18 C17 1_555 1_555
H22 C18 1_555 1_555
C19 C18 1_555 1_555
H23 C19 1_555 1_555
C20 C15 1_555 1_555
O3 C20 1_555 1_555
C21 O3 1_555 1_555
H24 C21 1_555 1_555
H25 C21 1_555 1_555
H26 C21 1_555 1_555
C4 C8 1_555 1_555
C7 C8 1_555 1_555
C19 C20 1_555 1_555

#END
