
#######################################################################
#
#                 Cambridge Crystallographic Data Centre
#                                CCDC 
#
#######################################################################
#
# If this CIF has been generated from an entry in the Cambridge 
# Structural Database, then it will include bibliographic, chemical, 
# crystal, experimental, refinement or atomic coordinate data resulting 
# from the CCDC's data processing and validation procedures.
#
#######################################################################

data_FUHHUM
_chemical_formula_moiety         'C8 H10 O3'
_chemical_name_systematic        4-(Hydroxymethyl)-2-methoxyphenol
_symmetry_cell_setting           monoclinic
_symmetry_space_group_name_H-M   'P 21/c'
_symmetry_Int_Tables_number      14
_space_group_name_Hall           '-P 2ybc'
loop_
_symmetry_equiv_pos_site_id
_symmetry_equiv_pos_as_xyz
1 x,y,z
2 -x,1/2+y,1/2-z
3 -x,-y,-z
4 x,1/2-y,1/2+z
_cell_length_a                   9.8476(6)
_cell_length_b                   6.1721(4)
_cell_length_c                   15.4915(7)
_cell_angle_alpha                90
_cell_angle_beta                 126.877(2)
_cell_angle_gamma                90
_cell_volume                     753.193
_exptl_crystal_colour            colorless
_exptl_crystal_description       plate
_cell_formula_units_Z            4
_exptl_crystal_recrystallization_method chloroform
loop_
_atom_site_label
_atom_site_type_symbol
_atom_site_fract_x
_atom_site_fract_y
_atom_site_fract_z
O1 O 0.16947(13) 0.60312(18) 0.16129(8)
H1 H 0.1727 0.4901 0.1347
O2 O 0.35690(14) 0.26017(19) 0.27618(8)
O3 O 0.16416(15) 0.1981(2) 0.52945(9)
H2 H 0.0675 0.2067 0.4697
C1 C 0.19570(17) 0.5586(2) 0.25692(11)
C2 C 0.12924(18) 0.6933(2) 0.29368(12)
H3 H 0.0704 0.8173 0.2550
C3 C 0.14955(19) 0.6447(2) 0.38857(12)
H4 H 0.1034 0.7361 0.4125
C4 C 0.23753(17) 0.4625(2) 0.44737(11)
C5 C 0.31075(18) 0.3308(2) 0.41213(11)
H5 H 0.3734 0.2100 0.4524
C6 C 0.29122(17) 0.3781(2) 0.31805(11)
C7 C 0.2509(2) 0.3978(3) 0.54583(12)
H6 H 0.3696 0.3823 0.6065
H7 H 0.2026 0.5111 0.5632
C8 C 0.4600(2) 0.0789(3) 0.33595(13)
H8 H 0.4997 0.0128 0.2987
H9 H 0.3948 -0.0242 0.3435
H10 H 0.5554 0.1256 0.4061
loop_
_geom_bond_atom_site_label_1
_geom_bond_atom_site_label_2
_geom_bond_site_symmetry_1
_geom_bond_site_symmetry_2
O1 H1 1_555 1_555
O2 C6 1_555 1_555
O3 H2 1_555 1_555
C1 O1 1_555 1_555
C2 C1 1_555 1_555
H3 C2 1_555 1_555
C3 C2 1_555 1_555
H4 C3 1_555 1_555
C4 C3 1_555 1_555
C5 C4 1_555 1_555
H5 C5 1_555 1_555
C6 C1 1_555 1_555
C7 O3 1_555 1_555
H6 C7 1_555 1_555
H7 C7 1_555 1_555
C8 O2 1_555 1_555
H8 C8 1_555 1_555
H9 C8 1_555 1_555
H10 C8 1_555 1_555
C4 C7 1_555 1_555
C5 C6 1_555 1_555

#END
