
#######################################################################
#
#                 Cambridge Crystallographic Data Centre
#                                CCDC 
#
#######################################################################
#
# If this CIF has been generated from an entry in the Cambridge 
# Structural Database, then it will include bibliographic, chemical, 
# crystal, experimental, refinement or atomic coordinate data resulting 
# from the CCDC's data processing and validation procedures.
#
#######################################################################

data_FUHSIL
_chemical_name_common            
'2-(2-(2-Nitrophenyl)vinyl)quinolin-8-yl acetate'
_chemical_formula_moiety         'C19 H14 N2 O4'
_chemical_name_systematic        
'(E)-2-[2-(2-Nitrophenyl)ethenyl]-8-quinolyl acetate'
_symmetry_cell_setting           orthorhombic
_symmetry_space_group_name_H-M   'P n a 21'
_symmetry_Int_Tables_number      33
_space_group_name_Hall           'P 2c -2n'
loop_
_symmetry_equiv_pos_site_id
_symmetry_equiv_pos_as_xyz
1 x,y,z
2 -x,-y,1/2+z
3 1/2+x,1/2-y,z
4 1/2-x,1/2+y,1/2+z
_cell_length_a                   25.8466(13)
_cell_length_b                   11.8451(6)
_cell_length_c                   10.5870(5)
_cell_angle_alpha                90
_cell_angle_beta                 90
_cell_angle_gamma                90
_cell_volume                     3241.27
_exptl_crystal_colour            yellow
_exptl_crystal_description       block
_chemical_melting_point          '416-417 K'
_cell_formula_units_Z            8
_exptl_crystal_recrystallization_method dichloromethane
loop_
_atom_site_label
_atom_site_type_symbol
_atom_site_fract_x
_atom_site_fract_y
_atom_site_fract_z
C1 C 0.79027(14) 0.4406(3) 0.2939(4)
H1 H 0.7753 0.5118 0.2748
C2 C 0.83678(14) 0.4416(3) 0.3458(4)
H2 H 0.8522 0.3712 0.3664
C3 C 0.92068(14) 0.7392(3) 0.4307(4)
C4 C 0.87102(14) 0.7393(3) 0.3743(4)
N1 N 0.84409(11) 0.6440(3) 0.3460(3)
C5 C 0.86607(13) 0.5452(3) 0.3734(4)
C6 C 0.91645(16) 0.5376(4) 0.4257(4)
H3 H 0.9315 0.4656 0.4403
C7 C 0.94344(14) 0.6324(4) 0.4549(4)
H4 H 0.9770 0.6273 0.4910
C8 C 0.94489(16) 0.8434(4) 0.4613(4)
H5 H 0.9779 0.8436 0.5007
C9 C 0.92101(17) 0.9425(4) 0.4346(4)
H6 H 0.9372 1.0116 0.4569
C10 C 0.87218(16) 0.9444(3) 0.3739(4)
H7 H 0.8560 1.0143 0.3544
C11 C 0.84871(14) 0.8454(3) 0.3436(4)
O1 O 0.79975(10) 0.8466(2) 0.2896(3)
C12 C 0.75968(15) 0.3408(3) 0.2631(4)
C13 C 0.71059(16) 0.3464(4) 0.2113(5)
C14 C 0.67993(18) 0.2511(5) 0.1900(6)
H8 H 0.6458 0.2589 0.1576
C15 C 0.6995(2) 0.1471(5) 0.2162(5)
H9 H 0.6794 0.0815 0.2005
C16 C 0.74860(19) 0.1373(4) 0.2656(5)
H10 H 0.7623 0.0646 0.2834
C17 C 0.77801(16) 0.2319(3) 0.2896(4)
H11 H 0.8116 0.2231 0.3249
C18 C 0.79586(15) 0.8136(3) 0.1658(4)
O2 O 0.83315(11) 0.7982(2) 0.1009(3)
C19 C 0.74072(15) 0.8026(4) 0.1270(5)
H12 H 0.7385 0.8011 0.0346
H13 H 0.7210 0.8670 0.1594
H14 H 0.7264 0.7324 0.1614
N2 N 0.68857(17) 0.4577(5) 0.1744(6)
O3 O 0.7137(2) 0.5202(4) 0.1073(7)
O4 O 0.64504(18) 0.4750(5) 0.2109(7)
C20 C 0.46521(13) -0.0779(3) 0.1266(4)
H15 H 0.4808 -0.0079 0.1483
C21 C 0.41923(15) -0.0756(3) 0.0705(4)
H16 H 0.4045 -0.1458 0.0459
C22 C 0.33041(14) 0.2153(3) -0.0099(4)
C23 C 0.37963(13) 0.2194(3) 0.0491(4)
N3 N 0.40900(11) 0.1266(3) 0.0752(3)
C24 C 0.38950(14) 0.0269(3) 0.0438(4)
C25 C 0.33986(15) 0.0140(3) -0.0117(4)
H17 H 0.3268 -0.0592 -0.0298
C26 C 0.31110(15) 0.1068(4) -0.0387(4)
H18 H 0.2780 0.0988 -0.0768
C27 C 0.30335(15) 0.3162(3) -0.0367(4)
H19 H 0.2705 0.3132 -0.0767
C28 C 0.32446(16) 0.4174(4) -0.0053(4)
H20 H 0.3063 0.4849 -0.0247
C29 C 0.37324(15) 0.4241(3) 0.0561(4)
H21 H 0.3876 0.4955 0.0772
C30 C 0.39908(14) 0.3276(3) 0.0842(4)
O5 O 0.44801(10) 0.3328(2) 0.1386(3)
C31 C 0.49328(13) -0.1817(3) 0.1570(4)
C32 C 0.54472(14) -0.1848(3) 0.2014(4)
C33 C 0.57112(16) -0.2840(4) 0.2254(5)
H22 H 0.6063 -0.2822 0.2513
C34 C 0.54573(16) -0.3852(4) 0.2111(5)
H23 H 0.5628 -0.4540 0.2311
C35 C 0.49544(15) -0.3867(3) 0.1678(5)
H24 H 0.4782 -0.4568 0.1564
C36 C 0.46994(14) -0.2877(3) 0.1411(4)
H25 H 0.4354 -0.2912 0.1109
C37 C 0.45270(15) 0.2938(3) 0.2601(4)
O6 O 0.41633(11) 0.2756(3) 0.3261(3)
C38 C 0.50824(17) 0.2795(4) 0.2951(5)
H26 H 0.5112 0.2715 0.3870
H27 H 0.5279 0.3458 0.2674
H28 H 0.5221 0.2118 0.2540
N4 N 0.57481(13) -0.0810(3) 0.2185(4)
O7 O 0.55389(14) 0.0009(3) 0.2665(4)
O8 O 0.62029(12) -0.0830(3) 0.1858(4)
loop_
_geom_bond_atom_site_label_1
_geom_bond_atom_site_label_2
_geom_bond_site_symmetry_1
_geom_bond_site_symmetry_2
C1 H1 1_555 1_555
C2 C1 1_555 1_555
H2 C2 1_555 1_555
C3 C4 1_555 1_555
C4 N1 1_555 1_555
N1 C5 1_555 1_555
C5 C2 1_555 1_555
C6 C5 1_555 1_555
H3 C6 1_555 1_555
C7 C3 1_555 1_555
H4 C7 1_555 1_555
C8 C3 1_555 1_555
H5 C8 1_555 1_555
C9 C8 1_555 1_555
H6 C9 1_555 1_555
C10 C9 1_555 1_555
H7 C10 1_555 1_555
C11 C4 1_555 1_555
O1 C11 1_555 1_555
C12 C1 1_555 1_555
C13 C12 1_555 1_555
C14 C13 1_555 1_555
H8 C14 1_555 1_555
C15 C14 1_555 1_555
H9 C15 1_555 1_555
C16 C15 1_555 1_555
H10 C16 1_555 1_555
C17 C12 1_555 1_555
H11 C17 1_555 1_555
C18 O1 1_555 1_555
O2 C18 1_555 1_555
C19 C18 1_555 1_555
H12 C19 1_555 1_555
H13 C19 1_555 1_555
H14 C19 1_555 1_555
N2 C13 1_555 1_555
O3 N2 1_555 1_555
O4 N2 1_555 1_555
C20 H15 1_555 1_555
C21 C20 1_555 1_555
H16 C21 1_555 1_555
C22 C23 1_555 1_555
C23 N3 1_555 1_555
N3 C24 1_555 1_555
C24 C21 1_555 1_555
C25 C24 1_555 1_555
H17 C25 1_555 1_555
C26 C22 1_555 1_555
H18 C26 1_555 1_555
C27 C22 1_555 1_555
H19 C27 1_555 1_555
C28 C27 1_555 1_555
H20 C28 1_555 1_555
C29 C28 1_555 1_555
H21 C29 1_555 1_555
C30 C23 1_555 1_555
O5 C30 1_555 1_555
C31 C20 1_555 1_555
C32 C31 1_555 1_555
C33 C32 1_555 1_555
H22 C33 1_555 1_555
C34 C33 1_555 1_555
H23 C34 1_555 1_555
C35 C34 1_555 1_555
H24 C35 1_555 1_555
C36 C31 1_555 1_555
H25 C36 1_555 1_555
C37 O5 1_555 1_555
O6 C37 1_555 1_555
C38 C37 1_555 1_555
H26 C38 1_555 1_555
H27 C38 1_555 1_555
H28 C38 1_555 1_555
N4 C32 1_555 1_555
O7 N4 1_555 1_555
O8 N4 1_555 1_555
C6 C7 1_555 1_555
C10 C11 1_555 1_555
C16 C17 1_555 1_555
C25 C26 1_555 1_555
C29 C30 1_555 1_555
C35 C36 1_555 1_555

#END
