
#######################################################################
#
#                 Cambridge Crystallographic Data Centre
#                                CCDC 
#
#######################################################################
#
# If this CIF has been generated from an entry in the Cambridge 
# Structural Database, then it will include bibliographic, chemical, 
# crystal, experimental, refinement or atomic coordinate data resulting 
# from the CCDC's data processing and validation procedures.
#
#######################################################################

data_FUJGOI
_chemical_formula_moiety         '2(C7 H5 N6 O2 1-),H12 Mg1 O6 2+,H2 O1'
_chemical_name_systematic        
'hexaaqua-magnesium bis((5-(pyrimidin-2-yl)-2H-tetrazol-2-yl)acetate) monohydrate'
_symmetry_cell_setting           monoclinic
_symmetry_space_group_name_H-M   'C 2/c'
_symmetry_Int_Tables_number      15
_space_group_name_Hall           '-C 2yn'
loop_
_symmetry_equiv_pos_site_id
_symmetry_equiv_pos_as_xyz
1 x,y,z
2 -x,y,1/2-z
3 1/2+x,1/2+y,z
4 1/2-x,1/2+y,1/2-z
5 -x,-y,-z
6 x,-y,1/2+z
7 1/2-x,1/2-y,-z
8 1/2+x,1/2-y,1/2+z
_cell_length_a                   22.230(4)
_cell_length_b                   6.8685(14)
_cell_length_c                   18.949(4)
_cell_angle_alpha                90
_cell_angle_beta                 122.00(3)
_cell_angle_gamma                90
_cell_volume                     2453.62
_cell_formula_units_Z            4
loop_
_atom_site_label
_atom_site_type_symbol
_atom_site_fract_x
_atom_site_fract_y
_atom_site_fract_z
Mg1 Mg 0.0000 1.0000 0.5000
O1 O 0.0863 1.0258 0.4841
H1 H 0.1195 1.1191 0.5230
H2 H 0.0697 1.0684 0.4284
O2 O -0.0464 0.7940 0.4047
H3 H -0.0906 0.7515 0.3970
H4 H -0.0151 0.6845 0.4191
O3 O -0.0553 1.2181 0.4153
H5 H -0.1002 1.2370 0.4104
H6 H -0.0632 1.1822 0.3620
O1D O -0.0863 0.9742 0.5159
H1D H -0.1195 0.8809 0.4770
H2D H -0.0697 0.9316 0.5716
O2D O 0.0464 1.2060 0.5953
H3D H 0.0906 1.2485 0.6030
H4D H 0.0151 1.3155 0.5809
O3D O 0.0553 0.7819 0.5847
H5D H 0.1002 0.7630 0.5896
H6D H 0.0632 0.8178 0.6380
N1 N 0.18872(18) 0.0958(6) 0.2305(2)
N2 N 0.23098(17) 0.0745(6) 0.1115(2)
O4 O 0.39913(17) -0.2052(5) 0.1130(2)
N3 N 0.34370(17) 0.1166(5) 0.2138(2)
C1 C 0.2574(2) 0.0929(6) 0.2577(2)
N4 N 0.31146(18) 0.0928(6) 0.3367(2)
N5 N 0.33544(18) 0.1113(5) 0.1390(2)
C2 C 0.27705(19) 0.0935(6) 0.1945(2)
O5 O 0.48145(19) -0.0164(5) 0.1151(3)
N6 N 0.26950(19) 0.0864(6) 0.0768(2)
C3 C 0.4275(2) -0.0450(7) 0.1183(3)
C4 C 0.2239(3) 0.0851(7) 0.3729(3)
H7 H 0.2123 0.0808 0.4133
C5 C 0.3952(2) 0.1419(7) 0.1270(3)
H8 H 0.4319 0.2151 0.1739
H9 H 0.3788 0.2202 0.0774
C6 C 0.1727(3) 0.0914(8) 0.2899(3)
H10 H 0.1253 0.0928 0.2740
C7 C 0.2928(3) 0.0853(6) 0.3936(3)
H11 H 0.3285 0.0800 0.4496
O6 O 0.5000(3) 0.5256(6) 0.2500(3)
H12 H 0.5347 0.5590 0.2977
H12A H 0.4653 0.5590 0.2023
loop_
_geom_bond_atom_site_label_1
_geom_bond_atom_site_label_2
_geom_bond_site_symmetry_1
_geom_bond_site_symmetry_2
Mg1 O1 1_555 1_555
O1 H1 1_555 1_555
H2 O1 1_555 1_555
O2 Mg1 1_555 1_555
H3 O2 1_555 1_555
H4 O2 1_555 1_555
O3 Mg1 1_555 1_555
H5 O3 1_555 1_555
H6 O3 1_555 1_555
N1 C1 1_555 1_555
N2 C2 1_555 1_555
O4 C3 1_555 1_555
N3 N5 1_555 1_555
C1 N4 1_555 1_555
N4 C7 1_555 1_555
N5 N6 1_555 1_555
C2 N3 1_555 1_555
O5 C3 1_555 1_555
N6 N2 1_555 1_555
C3 C5 1_555 1_555
C4 H7 1_555 1_555
C5 N5 1_555 1_555
H8 C5 1_555 1_555
H9 C5 1_555 1_555
C6 N1 1_555 1_555
H10 C6 1_555 1_555
C7 C4 1_555 1_555
H11 C7 1_555 1_555
O6 H12 1_555 1_555
O1D Mg1 1_555 1_555
H1D O1D 1_555 1_555
H2D O1D 1_555 1_555
O2D Mg1 1_555 1_555
H3D O2D 1_555 1_555
H4D O2D 1_555 1_555
O3D Mg1 1_555 1_555
H5D O3D 1_555 1_555
H6D O3D 1_555 1_555
H12A O6 1_555 1_555
C1 C2 1_555 1_555
C4 C6 1_555 1_555

#END
