
#######################################################################
#
#                 Cambridge Crystallographic Data Centre
#                                CCDC 
#
#######################################################################
#
# If this CIF has been generated from an entry in the Cambridge 
# Structural Database, then it will include bibliographic, chemical, 
# crystal, experimental, refinement or atomic coordinate data resulting 
# from the CCDC's data processing and validation procedures.
#
#######################################################################

data_FUJQUX
_chemical_formula_moiety         'C32 H25 N1 O4 S1,C1 H2 Cl2'
_chemical_name_systematic        
'3,5-Dibenzoyl-6-phenyl-1-p-toluenesulfonyl-1,2-dihydropyridine dichloromethane solvate'
_symmetry_cell_setting           triclinic
_symmetry_space_group_name_H-M   'P -1'
_symmetry_Int_Tables_number      2
_space_group_name_Hall           '-P 1'
loop_
_symmetry_equiv_pos_site_id
_symmetry_equiv_pos_as_xyz
1 x,y,z
2 -x,-y,-z
_cell_length_a                   6.7166(13)
_cell_length_b                   12.567(3)
_cell_length_c                   18.230(4)
_cell_angle_alpha                70.430(3)
_cell_angle_beta                 84.280(4)
_cell_angle_gamma                81.087(4)
_cell_volume                     1430.47
_exptl_crystal_colour            yellow
_exptl_crystal_description       prismatic
_cell_formula_units_Z            2
loop_
_atom_site_label
_atom_site_type_symbol
_atom_site_fract_x
_atom_site_fract_y
_atom_site_fract_z
C33 C 0.2269(18) 0.4096(11) 0.5040(7)
H26 H 0.2387 0.3871 0.4576
H27 H 0.2480 0.3397 0.5477
Cl2 Cl -0.019(3) 0.463(3) 0.513(3)
C33A C -0.2269(18) 0.5904(11) 0.4960(7)
H26A H -0.2387 0.6129 0.5424
H27A H -0.2480 0.6603 0.4523
Cl2A Cl 0.019(3) 0.537(3) 0.487(3)
S1 S 0.69807(13) 0.66218(7) 0.07218(5)
N1 N 0.6418(4) 0.6847(2) 0.15797(17)
O1 O 0.5291(5) 0.3646(3) 0.29895(19)
O2 O 1.1319(5) 0.7124(3) 0.3123(2)
O3 O 0.7971(4) 0.7555(2) 0.02360(15)
O4 O 0.5166(4) 0.6404(2) 0.04989(16)
C1 C 0.5505(5) 0.5935(3) 0.2199(2)
H1 H 0.4915 0.5476 0.1965
H2 H 0.4435 0.6271 0.2482
C2 C 0.7639(5) 0.7451(3) 0.1845(2)
C3 C 0.8502(5) 0.6923(3) 0.2537(2)
C4 C 0.8462(6) 0.5705(3) 0.2919(2)
H3 H 0.9419 0.5286 0.3277
C5 C 0.7049(5) 0.5189(3) 0.2754(2)
C6 C 0.6783(6) 0.3989(3) 0.3119(2)
C7 C 0.8267(6) 0.3182(3) 0.3676(2)
C8 C 1.0333(6) 0.3091(3) 0.3497(2)
H4 H 1.0845 0.3569 0.3031
C9 C 1.1631(7) 0.2288(4) 0.4014(3)
H5 H 1.3011 0.2219 0.3890
C10 C 1.0886(9) 0.1594(5) 0.4707(3)
H6 H 1.1765 0.1063 0.5055
C11 C 0.8841(9) 0.1681(5) 0.4891(3)
H7 H 0.8340 0.1218 0.5366
C12 C 0.7528(7) 0.2464(4) 0.4364(2)
H8 H 0.6143 0.2501 0.4478
C13 C 0.7803(6) 0.8644(3) 0.1370(2)
C14 C 0.9626(6) 0.9082(3) 0.1249(2)
H9 H 1.0796 0.8599 0.1432
C15 C 0.9724(8) 1.0218(4) 0.0863(2)
H10 H 1.0949 1.0507 0.0793
C16 C 0.7965(8) 1.0939(3) 0.0576(2)
H11 H 0.8020 1.1711 0.0318
C17 C 0.6203(8) 1.0520(3) 0.0672(2)
H12 H 0.5051 1.1005 0.0471
C18 C 0.6064(6) 0.9368(3) 0.1067(2)
H13 H 0.4835 0.9086 0.1127
C19 C 0.9610(6) 0.7524(3) 0.2920(2)
C20 C 0.8607(6) 0.8584(3) 0.3054(2)
C21 C 0.9765(7) 0.9395(4) 0.3078(2)
H14 H 1.1163 0.9264 0.3017
C22 C 0.8862(8) 1.0388(4) 0.3190(3)
H15 H 0.9655 1.0929 0.3197
C23 C 0.6806(8) 1.0594(4) 0.3293(3)
H16 H 0.6203 1.1275 0.3360
C24 C 0.5639(8) 0.9778(4) 0.3295(3)
H17 H 0.4248 0.9897 0.3386
C25 C 0.6540(6) 0.8781(4) 0.3163(3)
H18 H 0.5746 0.8245 0.3148
C26 C 0.8699(5) 0.5363(3) 0.0937(2)
C27 C 0.8055(6) 0.4326(3) 0.1039(3)
H19 H 0.6730 0.4295 0.0950
C28 C 0.9382(7) 0.3348(3) 0.1273(3)
H20 H 0.8937 0.2653 0.1346
C29 C 1.1366(6) 0.3368(3) 0.1404(2)
C30 C 1.1966(6) 0.4418(4) 0.1284(3)
H21 H 1.3298 0.4453 0.1362
C31 C 1.0664(6) 0.5414(3) 0.1053(3)
H22 H 1.1109 0.6110 0.0976
C32 C 1.2798(9) 0.2306(4) 0.1681(3)
H23 H 1.4009 0.2373 0.1351
H24 H 1.2188 0.1672 0.1666
H25 H 1.3120 0.2186 0.2206
Cl1? Cl 0.421(2) 0.4761(14) 0.4985(10)
loop_
_geom_bond_atom_site_label_1
_geom_bond_atom_site_label_2
_geom_bond_site_symmetry_1
_geom_bond_site_symmetry_2
S1 N1 1_555 1_555
N1 C1 1_555 1_555
O1 C6 1_555 1_555
O2 C19 1_555 1_555
O3 S1 1_555 1_555
O4 S1 1_555 1_555
C1 H1 1_555 1_555
H2 C1 1_555 1_555
C2 N1 1_555 1_555
C3 C2 1_555 1_555
C4 C3 1_555 1_555
H3 C4 1_555 1_555
C5 C1 1_555 1_555
C6 C5 1_555 1_555
C7 C6 1_555 1_555
C8 C7 1_555 1_555
H4 C8 1_555 1_555
C9 C8 1_555 1_555
H5 C9 1_555 1_555
C10 C9 1_555 1_555
H6 C10 1_555 1_555
C11 C10 1_555 1_555
H7 C11 1_555 1_555
C12 C7 1_555 1_555
H8 C12 1_555 1_555
C13 C2 1_555 1_555
C14 C13 1_555 1_555
H9 C14 1_555 1_555
C15 C14 1_555 1_555
H10 C15 1_555 1_555
C16 C15 1_555 1_555
H11 C16 1_555 1_555
C17 C16 1_555 1_555
H12 C17 1_555 1_555
C18 C13 1_555 1_555
H13 C18 1_555 1_555
C19 C3 1_555 1_555
C20 C19 1_555 1_555
C21 C20 1_555 1_555
H14 C21 1_555 1_555
C22 C21 1_555 1_555
H15 C22 1_555 1_555
C23 C22 1_555 1_555
H16 C23 1_555 1_555
C24 C23 1_555 1_555
H17 C24 1_555 1_555
C25 C20 1_555 1_555
H18 C25 1_555 1_555
C26 S1 1_555 1_555
C27 C26 1_555 1_555
H19 C27 1_555 1_555
C28 C27 1_555 1_555
H20 C28 1_555 1_555
C29 C28 1_555 1_555
C30 C29 1_555 1_555
H21 C30 1_555 1_555
C31 C26 1_555 1_555
H22 C31 1_555 1_555
C32 C29 1_555 1_555
H23 C32 1_555 1_555
H24 C32 1_555 1_555
H25 C32 1_555 1_555
C33 H26 1_555 1_555
H27 C33 1_555 1_555
Cl2 C33 1_555 1_555
C33A Cl2 1_555 1_555
H26A C33A 1_555 1_555
H27A C33A 1_555 1_555
Cl2A C33 1_555 1_555
C4 C5 1_555 1_555
C11 C12 1_555 1_555
C17 C18 1_555 1_555
C24 C25 1_555 1_555
C30 C31 1_555 1_555
Cl2 Cl2A 1_555 1_555
C33A Cl2A 1_555 1_555

#END
