
#######################################################################
#
#                 Cambridge Crystallographic Data Centre
#                                CCDC 
#
#######################################################################
#
# If this CIF has been generated from an entry in the Cambridge 
# Structural Database, then it will include bibliographic, chemical, 
# crystal, experimental, refinement or atomic coordinate data resulting 
# from the CCDC's data processing and validation procedures.
#
#######################################################################

data_FUJTEK
_chemical_formula_moiety         'C15 H6 F4 N4'
_chemical_name_systematic        
(E)-4-Azido-N-(4-ethynylbenzylidene)-2,3,5,6-tetrafluoroaniline
_symmetry_cell_setting           monoclinic
_symmetry_space_group_name_H-M   'P 21/c'
_symmetry_Int_Tables_number      14
_space_group_name_Hall           '-P 2ybc'
loop_
_symmetry_equiv_pos_site_id
_symmetry_equiv_pos_as_xyz
1 x,y,z
2 -x,1/2+y,1/2-z
3 -x,-y,-z
4 x,1/2-y,1/2+z
_cell_length_a                   6.1856(12)
_cell_length_b                   7.2446(14)
_cell_length_c                   29.281(6)
_cell_angle_alpha                90
_cell_angle_beta                 92.57(3)
_cell_angle_gamma                90
_cell_volume                     1310.83
_chemical_melting_point          'decomposes at 80deg.C'
_cell_formula_units_Z            4
loop_
_atom_site_label
_atom_site_type_symbol
_atom_site_fract_x
_atom_site_fract_y
_atom_site_fract_z
F1 F 0.98231(17) 0.54116(16) 0.30217(4)
F2 F 1.10399(17) 0.54625(16) 0.39079(4)
F3 F 0.44329(18) 0.26584(16) 0.42653(3)
F4 F 0.31940(17) 0.26381(15) 0.33829(3)
N1 N 0.8680(3) 0.4072(3) 0.45636(5)
N2 N 0.7488(3) 0.3713(3) 0.48857(6)
N3 N 0.6691(3) 0.3429(3) 0.52161(6)
N4 N 0.6068(3) 0.3880(2) 0.26939(5)
C1 C 0.6473(3) 0.4026(3) 0.31691(6)
C2 C 0.8469(3) 0.4710(3) 0.33265(6)
C3 C 0.9102(3) 0.4738(3) 0.37803(6)
C4 C 0.7785(3) 0.4048(3) 0.41129(6)
C5 C 0.5781(3) 0.3372(3) 0.39620(6)
C6 C 0.5138(3) 0.3378(3) 0.35041(6)
C7 C 0.4214(3) 0.4316(3) 0.25199(6)
H1 H 0.3154 0.4745 0.2709
C8 C 0.3721(3) 0.4155(3) 0.20273(6)
C9 C 0.1676(3) 0.4666(3) 0.18518(7)
H2 H 0.0632 0.5064 0.2049
C10 C 0.1189(3) 0.4582(3) 0.13856(6)
H3 H -0.0177 0.4929 0.1270
C11 C 0.2740(3) 0.3980(3) 0.10903(6)
C12 C 0.4786(3) 0.3443(3) 0.12652(6)
H4 H 0.5824 0.3029 0.1069
C13 C 0.5258(3) 0.3530(3) 0.17302(6)
H5 H 0.6617 0.3168 0.1846
C14 C 0.2293(3) 0.3900(3) 0.06010(7)
C15 C 0.2031(4) 0.3809(3) 0.02020(7)
H6 H 0.1824 0.3736 -0.0114
loop_
_geom_bond_atom_site_label_1
_geom_bond_atom_site_label_2
_geom_bond_site_symmetry_1
_geom_bond_site_symmetry_2
F1 C2 1_555 1_555
F2 C3 1_555 1_555
F3 C5 1_555 1_555
F4 C6 1_555 1_555
N1 N2 1_555 1_555
N2 N3 1_555 1_555
N4 C1 1_555 1_555
C1 C2 1_555 1_555
C2 C3 1_555 1_555
C3 C4 1_555 1_555
C4 N1 1_555 1_555
C5 C4 1_555 1_555
C6 C1 1_555 1_555
C7 N4 1_555 1_555
H1 C7 1_555 1_555
C8 C7 1_555 1_555
C9 C8 1_555 1_555
H2 C9 1_555 1_555
C10 C9 1_555 1_555
H3 C10 1_555 1_555
C11 C10 1_555 1_555
C12 C11 1_555 1_555
H4 C12 1_555 1_555
C13 C8 1_555 1_555
H5 C13 1_555 1_555
C14 C11 1_555 1_555
C15 C14 1_555 1_555
H6 C15 1_555 1_555
C5 C6 1_555 1_555
C12 C13 1_555 1_555

#END
