
#######################################################################
#
#                 Cambridge Crystallographic Data Centre
#                                CCDC 
#
#######################################################################
#
# If this CIF has been generated from an entry in the Cambridge 
# Structural Database, then it will include bibliographic, chemical, 
# crystal, experimental, refinement or atomic coordinate data resulting 
# from the CCDC's data processing and validation procedures.
#
#######################################################################

data_FUJVOW
_chemical_formula_moiety         'C54 H46 N4 O4 2+,2(Cl1 1-)'
_chemical_name_systematic        
'49,51,52,54-Tetramethoxy-15,36-diaza-12,39-diazoniaundecacyclo[39.7.1.1^2,10^.1^12,15^.1^17,25^.1^26,34^.1^36,39^.0^3,8^.0^19,24^.0^27,32^.0^43,48^]tetrapentaconta-1(49),2(54),3,5,7,9,12(53),13,17,19,21,23,25(52),26(51),27,29,31,33,37,39(50),41,43,45,47-tetracosaene dichloride'
_symmetry_cell_setting           monoclinic
_symmetry_space_group_name_H-M   'C 2'
_symmetry_Int_Tables_number      5
_space_group_name_Hall           'C 2y'
loop_
_symmetry_equiv_pos_site_id
_symmetry_equiv_pos_as_xyz
1 x,y,z
2 -x,y,-z
3 1/2+x,1/2+y,z
4 1/2-x,1/2+y,-z
_cell_length_a                   25.2548(18)
_cell_length_b                   16.7371(9)
_cell_length_c                   13.4129(10)
_cell_angle_alpha                90
_cell_angle_beta                 101.541(7)
_cell_angle_gamma                90
_cell_volume                     5554.9
_exptl_crystal_colour            colorless
_exptl_crystal_description       parallelepiped
_cell_formula_units_Z            4
_exptl_crystal_recrystallization_method 'methanol/diethyl ether'
loop_
_atom_site_label
_atom_site_type_symbol
_atom_site_fract_x
_atom_site_fract_y
_atom_site_fract_z
N1 N -0.23128(15) 0.4174(2) 0.8787(3)
N2 N -0.16097(16) 0.4673(2) 0.8363(4)
N3 N -0.41703(17) 0.8003(2) 0.7384(4)
N4 N -0.35055(15) 0.8772(2) 0.7341(3)
O1 O -0.31630(13) 0.53175(18) 0.8146(2)
O2 O -0.16325(15) 0.65658(18) 0.8674(3)
O3 O -0.43368(13) 0.60431(18) 0.8132(3)
O4 O -0.27866(16) 0.7715(2) 0.6522(3)
C1 C -0.34908(18) 0.4636(3) 0.8010(3)
C2 C -0.39741(17) 0.4619(2) 0.7313(3)
C3 C -0.42814(17) 0.3911(2) 0.7213(3)
C4 C -0.47785(18) 0.3824(2) 0.6512(3)
H1 H -0.4914 0.4264 0.6089
C5 C -0.5065(2) 0.3140(3) 0.6425(4)
H2 H -0.5397 0.3104 0.5948
C6 C -0.4871(2) 0.2475(3) 0.7044(3)
H3 H -0.5071 0.1990 0.6964
C7 C -0.44103(19) 0.2520(3) 0.7743(4)
H4 H -0.4296 0.2075 0.8171
C8 C -0.40856(19) 0.3240(2) 0.7853(3)
C9 C -0.35896(18) 0.3291(3) 0.8544(3)
H5 H -0.3458 0.2843 0.8953
C10 C -0.32945(17) 0.3982(3) 0.8632(3)
C11 C -0.27448(18) 0.4022(3) 0.9343(3)
H6 H -0.2748 0.4452 0.9848
H7 H -0.2674 0.3510 0.9716
C12 C -0.1923(2) 0.4722(2) 0.9031(4)
H8 H -0.1881 0.5082 0.9588
C13 C -0.2240(2) 0.3778(3) 0.7946(4)
H9 H -0.2462 0.3360 0.7613
C14 C -0.1793(2) 0.4081(3) 0.7659(4)
H10 H -0.1640 0.3921 0.7099
C15 C -0.1129(2) 0.5186(3) 0.8333(4)
H11 H -0.0827 0.4849 0.8210
H12 H -0.1013 0.5456 0.8998
C16 C -0.12689(17) 0.5831(2) 0.7468(4)
C17 C -0.11607(17) 0.5723(3) 0.6561(4)
H13 H -0.1006 0.5231 0.6414
C18 C -0.12653(17) 0.6306(3) 0.5807(4)
C19 C -0.1160(2) 0.6180(3) 0.4816(5)
H14 H -0.1013 0.5682 0.4667
C20 C -0.1263(2) 0.6750(3) 0.4070(5)
H15 H -0.1177 0.6659 0.3421
C21 C -0.1506(2) 0.7497(3) 0.4295(4)
H16 H -0.1593 0.7897 0.3786
C22 C -0.16122(18) 0.7623(3) 0.5269(3)
H17 H -0.1753 0.8124 0.5423
C23 C -0.15185(17) 0.7042(2) 0.6008(4)
C24 C -0.16427(16) 0.7152(2) 0.7015(3)
C25 C -0.15352(18) 0.6552(3) 0.7706(4)
C26 C -0.2964(2) 0.5582(4) 0.7312(4)
H18 H -0.2751 0.6070 0.7494
H19 H -0.3266 0.5696 0.6747
H20 H -0.2733 0.5168 0.7105
C27 C -0.2065(3) 0.7006(3) 0.8967(4)
H21 H -0.2057 0.6924 0.9693
H22 H -0.2412 0.6819 0.8571
H23 H -0.2022 0.7576 0.8836
C28 C -0.43233(16) 0.6017(3) 0.7082(4)
C29 C -0.41515(16) 0.5335(2) 0.6658(4)
C30 C -0.41094(16) 0.5357(2) 0.5622(4)
C31 C -0.39230(17) 0.4687(2) 0.5120(4)
H24 H -0.3839 0.4201 0.5484
C32 C -0.38650(18) 0.4730(3) 0.4150(4)
H25 H -0.3753 0.4274 0.3825
C33 C -0.39706(19) 0.5458(3) 0.3614(4)
H26 H -0.3915 0.5491 0.2936
C34 C -0.41487(19) 0.6107(3) 0.4047(4)
H27 H -0.4227 0.6586 0.3666
C35 C -0.42170(16) 0.6074(2) 0.5055(3)
C36 C -0.43965(17) 0.6745(2) 0.5519(4)
H28 H -0.4484 0.7222 0.5136
C37 C -0.44478(17) 0.6722(3) 0.6522(4)
C38 C -0.46388(18) 0.7466(3) 0.7024(4)
H29 H -0.4917 0.7752 0.6527
H30 H -0.4801 0.7304 0.7606
C39 C -0.3913(2) 0.8407(3) 0.6781(4)
H31 H -0.4009 0.8426 0.6059
C40 C -0.3911(2) 0.8119(3) 0.8359(4)
H32 H -0.4004 0.7898 0.8953
C41 C -0.3493(2) 0.8611(3) 0.8317(5)
H33 H -0.3236 0.8806 0.8881
C42 C -0.31095(19) 0.9254(3) 0.6915(4)
H34 H -0.3135 0.9820 0.7114
H35 H -0.3199 0.9224 0.6163
C43 C -0.25342(17) 0.8956(2) 0.7293(3)
C44 C -0.21727(18) 0.9438(2) 0.7918(3)
H36 H -0.2290 0.9938 0.8131
C45 C -0.16271(17) 0.9201(2) 0.8253(3)
C46 C -0.1256(2) 0.9668(3) 0.8914(4)
H37 H -0.1376 1.0149 0.9172
C47 C -0.0733(2) 0.9460(3) 0.9198(4)
H38 H -0.0484 0.9791 0.9638
C48 C -0.0562(2) 0.8731(3) 0.8821(4)
H39 H -0.0193 0.8580 0.9001
C49 C -0.09199(17) 0.8243(3) 0.8205(3)
H40 H -0.0797 0.7750 0.7984
C50 C -0.14602(16) 0.8456(2) 0.7898(3)
C51 C -0.18422(17) 0.7949(2) 0.7274(3)
C52 C -0.23696(18) 0.8194(2) 0.6988(3)
C53 C -0.4782(2) 0.5672(4) 0.8404(4)
H41 H -0.4754 0.5713 0.9142
H42 H -0.4791 0.5108 0.8206
H43 H -0.5115 0.5935 0.8055
C54 C -0.2839(3) 0.7243(6) 0.5777(10)
H44 H -0.3206 0.7022 0.5639
H45 H -0.2576 0.6808 0.5937
H46 H -0.2776 0.7533 0.5177
Cl1 Cl -0.09044(5) 0.36134(6) 0.58560(9)
Cl2 Cl -0.32582(6) 0.07588(7) -0.13143(9)
C55? C -0.2869(9) 0.7789(14) 0.5542(13)
H47? H -0.3174 0.7450 0.5229
H48? H -0.2544 0.7625 0.5301
H49? H -0.2952 0.8348 0.5356
loop_
_geom_bond_atom_site_label_1
_geom_bond_atom_site_label_2
_geom_bond_site_symmetry_1
_geom_bond_site_symmetry_2
N1 C11 1_555 1_555
N2 C12 1_555 1_555
N3 C38 1_555 1_555
N4 C39 1_555 1_555
O1 C1 1_555 1_555
O2 C25 1_555 1_555
O3 C28 1_555 1_555
O4 C52 1_555 1_555
C1 C2 1_555 1_555
C2 C3 1_555 1_555
C3 C4 1_555 1_555
C4 H1 1_555 1_555
C5 C4 1_555 1_555
H2 C5 1_555 1_555
C6 C5 1_555 1_555
H3 C6 1_555 1_555
C7 C6 1_555 1_555
H4 C7 1_555 1_555
C8 C3 1_555 1_555
C9 C8 1_555 1_555
H5 C9 1_555 1_555
C10 C1 1_555 1_555
C11 C10 1_555 1_555
H6 C11 1_555 1_555
H7 C11 1_555 1_555
C12 N1 1_555 1_555
H8 C12 1_555 1_555
C13 N1 1_555 1_555
H9 C13 1_555 1_555
C14 N2 1_555 1_555
H10 C14 1_555 1_555
C15 N2 1_555 1_555
H11 C15 1_555 1_555
H12 C15 1_555 1_555
C16 C15 1_555 1_555
C17 C16 1_555 1_555
H13 C17 1_555 1_555
C18 C17 1_555 1_555
C19 C18 1_555 1_555
H14 C19 1_555 1_555
C20 C19 1_555 1_555
H15 C20 1_555 1_555
C21 C20 1_555 1_555
H16 C21 1_555 1_555
C22 C21 1_555 1_555
H17 C22 1_555 1_555
C23 C18 1_555 1_555
C24 C23 1_555 1_555
C25 C16 1_555 1_555
C26 O1 1_555 1_555
H18 C26 1_555 1_555
H19 C26 1_555 1_555
H20 C26 1_555 1_555
C27 O2 1_555 1_555
H21 C27 1_555 1_555
H22 C27 1_555 1_555
H23 C27 1_555 1_555
C28 C29 1_555 1_555
C29 C2 1_555 1_555
C30 C29 1_555 1_555
C31 C30 1_555 1_555
H24 C31 1_555 1_555
C32 C31 1_555 1_555
H25 C32 1_555 1_555
C33 C32 1_555 1_555
H26 C33 1_555 1_555
C34 C33 1_555 1_555
H27 C34 1_555 1_555
C35 C30 1_555 1_555
C36 C35 1_555 1_555
H28 C36 1_555 1_555
C37 C28 1_555 1_555
C38 C37 1_555 1_555
H29 C38 1_555 1_555
H30 C38 1_555 1_555
C39 N3 1_555 1_555
H31 C39 1_555 1_555
C40 N3 1_555 1_555
H32 C40 1_555 1_555
C41 N4 1_555 1_555
H33 C41 1_555 1_555
C42 N4 1_555 1_555
H34 C42 1_555 1_555
H35 C42 1_555 1_555
C43 C42 1_555 1_555
C44 C43 1_555 1_555
H36 C44 1_555 1_555
C45 C44 1_555 1_555
C46 C45 1_555 1_555
H37 C46 1_555 1_555
C47 C46 1_555 1_555
H38 C47 1_555 1_555
C48 C47 1_555 1_555
H39 C48 1_555 1_555
C49 C48 1_555 1_555
H40 C49 1_555 1_555
C50 C45 1_555 1_555
C51 C24 1_555 1_555
C52 C43 1_555 1_555
C53 O3 1_555 1_555
H41 C53 1_555 1_555
H42 C53 1_555 1_555
H43 C53 1_555 1_555
C54 O4 1_555 1_555
H44 C54 1_555 1_555
H45 C54 1_555 1_555
H46 C54 1_555 1_555
C7 C8 1_555 1_555
C9 C10 1_555 1_555
C13 C14 1_555 1_555
C22 C23 1_555 1_555
C24 C25 1_555 1_555
C34 C35 1_555 1_555
C36 C37 1_555 1_555
C40 C41 1_555 1_555
C49 C50 1_555 1_555
C50 C51 1_555 1_555
C51 C52 1_555 1_555

#END
