
#######################################################################
#
#                 Cambridge Crystallographic Data Centre
#                                CCDC 
#
#######################################################################
#
# If this CIF has been generated from an entry in the Cambridge 
# Structural Database, then it will include bibliographic, chemical, 
# crystal, experimental, refinement or atomic coordinate data resulting 
# from the CCDC's data processing and validation procedures.
#
#######################################################################

data_FUJWUD
_chemical_formula_moiety         'C15 H16 N4 O2 S1'
_chemical_name_systematic        
1-(4-Methoxybenzoyl)-3-(4,6-dimethylpyrimidin-2-yl)thiourea
_chemical_properties_biological  
'tested for effect on growth regulation of wheat'
_symmetry_cell_setting           monoclinic
_symmetry_space_group_name_H-M   'P 21/n'
_symmetry_Int_Tables_number      14
_space_group_name_Hall           '-P 2yn'
loop_
_symmetry_equiv_pos_site_id
_symmetry_equiv_pos_as_xyz
1 x,y,z
2 1/2-x,1/2+y,1/2-z
3 -x,-y,-z
4 1/2+x,1/2-y,1/2+z
_cell_length_a                   10.134(4)
_cell_length_b                   13.172(5)
_cell_length_c                   10.988(4)
_cell_angle_alpha                90
_cell_angle_beta                 91.671(8)
_cell_angle_gamma                90
_cell_volume                     1466.11
_cell_formula_units_Z            4
loop_
_atom_site_label
_atom_site_type_symbol
_atom_site_fract_x
_atom_site_fract_y
_atom_site_fract_z
S1 S 0.07298(9) -0.04674(7) 0.14660(9)
N1 N -0.0921(3) -0.0709(2) 0.1900(2)
N2 N -0.0902(3) 0.1000(2) 0.1936(3)
H1 H -0.1208 0.1603 0.2030
N3 N -0.2854(3) 0.0160(2) 0.2465(3)
O1 O 0.6363(3) 0.3810(2) -0.0341(2)
O2 O 0.2529(2) 0.01960(18) 0.0987(2)
N4 N 0.1186(3) 0.1528(2) 0.1341(2)
H2 H 0.1021 0.2167 0.1378
C1 C 0.2342(4) 0.1149(3) 0.1024(3)
C2 C -0.1610(4) 0.0153(3) 0.2122(3)
C3 C -0.3423(4) -0.0749(3) 0.2598(3)
C4 C -0.2761(4) -0.1657(3) 0.2371(3)
H3 H -0.3188 -0.2275 0.2472
C5 C 0.0309(4) 0.0810(3) 0.1595(3)
C6 C 0.4240(4) 0.3520(3) 0.0300(3)
H4 H 0.4117 0.4219 0.0272
C7 C -0.4819(3) -0.0755(3) 0.3006(4)
H5 H -0.5110 -0.0070 0.3128
H6 H -0.4868 -0.1124 0.3757
H7 H -0.5374 -0.1075 0.2396
C8 C -0.1498(4) -0.1638(3) 0.2004(3)
C9 C 0.3221(3) 0.2902(3) 0.0652(3)
H8 H 0.2415 0.3184 0.0858
C10 C 0.5433(4) 0.3120(3) -0.0008(3)
C11 C 0.4625(4) 0.1468(3) 0.0404(3)
H9 H 0.4763 0.0770 0.0445
C12 C 0.3406(4) 0.1849(3) 0.0697(3)
C13 C -0.0700(3) -0.2546(2) 0.1685(3)
H10 H -0.1214 -0.3149 0.1797
H11 H 0.0080 -0.2573 0.2201
H12 H -0.0451 -0.2500 0.0850
C14 C 0.5645(4) 0.2083(3) 0.0052(3)
H13 H 0.6458 0.1807 -0.0140
C15 C 0.7587(4) 0.3432(3) -0.0734(3)
H14 H 0.8149 0.3990 -0.0939
H15 H 0.7441 0.3010 -0.1438
H16 H 0.8002 0.3040 -0.0093
loop_
_geom_bond_atom_site_label_1
_geom_bond_atom_site_label_2
_geom_bond_site_symmetry_1
_geom_bond_site_symmetry_2
S1 C5 1_555 1_555
N1 C2 1_555 1_555
N2 H1 1_555 1_555
N3 C2 1_555 1_555
O1 C10 1_555 1_555
O2 C1 1_555 1_555
N4 H2 1_555 1_555
C1 N4 1_555 1_555
C2 N2 1_555 1_555
C3 N3 1_555 1_555
C4 C3 1_555 1_555
H3 C4 1_555 1_555
C5 N2 1_555 1_555
C6 H4 1_555 1_555
C7 C3 1_555 1_555
H5 C7 1_555 1_555
H6 C7 1_555 1_555
H7 C7 1_555 1_555
C8 N1 1_555 1_555
C9 C6 1_555 1_555
H8 C9 1_555 1_555
C10 C6 1_555 1_555
C11 H9 1_555 1_555
C12 C1 1_555 1_555
C13 C8 1_555 1_555
H10 C13 1_555 1_555
H11 C13 1_555 1_555
H12 C13 1_555 1_555
C14 C10 1_555 1_555
H13 C14 1_555 1_555
C15 O1 1_555 1_555
H14 C15 1_555 1_555
H15 C15 1_555 1_555
H16 C15 1_555 1_555
N4 C5 1_555 1_555
C4 C8 1_555 1_555
C9 C12 1_555 1_555
C11 C12 1_555 1_555
C11 C14 1_555 1_555

#END
