
#######################################################################
#
#                 Cambridge Crystallographic Data Centre
#                                CCDC 
#
#######################################################################
#
# If this CIF has been generated from an entry in the Cambridge 
# Structural Database, then it will include bibliographic, chemical, 
# crystal, experimental, refinement or atomic coordinate data resulting 
# from the CCDC's data processing and validation procedures.
#
#######################################################################

data_FUJWIS
_chemical_formula_moiety         'C26 H32 O9,H2 O1'
_chemical_name_systematic        
'1-hydroxy-5-methoxy-3,7,19-trimethyl-17-(5-oxotetrahydrofuran-3-yl)-11,18,21-trioxahexacyclo[15.3.1.0^2,15^.0^3,8^.0^10,15^.0^14,19^]henicos-5-ene-4,12-dione hydrate'
_symmetry_cell_setting           orthorhombic
_symmetry_space_group_name_H-M   'P 21 21 21'
_symmetry_Int_Tables_number      19
_space_group_name_Hall           'P 2ac 2ab'
loop_
_symmetry_equiv_pos_site_id
_symmetry_equiv_pos_as_xyz
1 x,y,z
2 1/2-x,-y,1/2+z
3 -x,1/2+y,1/2-z
4 1/2+x,1/2-y,-z
_cell_length_a                   9.6770(2)
_cell_length_b                   10.5579(2)
_cell_length_c                   22.9204(5)
_cell_angle_alpha                90
_cell_angle_beta                 90
_cell_angle_gamma                90
_cell_volume                     2341.75
_exptl_crystal_colour            colorless
_exptl_crystal_description       block
_cell_formula_units_Z            4
loop_
_atom_site_label
_atom_site_type_symbol
_atom_site_fract_x
_atom_site_fract_y
_atom_site_fract_z
O1 O -0.12417(19) -0.09613(19) -0.08373(9)
O2 O -0.3239(2) -0.0695(2) -0.29763(11)
O3 O -0.43923(17) -0.19770(16) -0.24195(7)
O4 O -0.12144(16) -0.49471(15) -0.12080(7)
O5 O -0.12661(17) -0.58300(15) -0.21445(7)
O6 O -0.5177(2) -0.7501(2) -0.05921(13)
O7 O -0.4201(2) -0.80247(19) -0.14347(10)
O8 O -0.2356(2) 0.0131(2) 0.00705(8)
O9 O -0.00710(18) -0.31766(18) -0.10017(7)
H1 H -0.0342 -0.2466 -0.0914
C1 C -0.2421(2) -0.1297(2) -0.07168(10)
C2 C -0.3201(3) -0.0564(3) -0.02779(11)
C3 C -0.4582(3) -0.0618(3) -0.02590(11)
H2 H -0.5037 -0.0147 0.0025
C4 C -0.5429(3) -0.1388(2) -0.06675(10)
H3 H -0.5790 -0.2119 -0.0452
C5 C -0.4561(2) -0.1889(2) -0.11828(10)
H4 H -0.4353 -0.1156 -0.1430
C6 C -0.5377(2) -0.2821(2) -0.15631(11)
H5 H -0.5586 -0.3577 -0.1339
H6 H -0.6244 -0.2436 -0.1680
C7 C -0.4552(2) -0.3180(2) -0.21016(10)
H7 H -0.5093 -0.3771 -0.2339
C8 C -0.3165(2) -0.3774(2) -0.19585(9)
C9 C -0.2310(2) -0.2940(2) -0.15275(9)
H8 H -0.2047 -0.2183 -0.1749
C10 C -0.3138(2) -0.2439(2) -0.09811(10)
C11 C -0.0937(2) -0.3687(2) -0.14244(10)
C12 C -0.0144(2) -0.3843(2) -0.19971(11)
H9 H 0.0048 -0.3018 -0.2164
H10 H 0.0729 -0.4265 -0.1924
C13 C -0.1009(2) -0.4625(2) -0.24226(10)
C14 C -0.2398(2) -0.3969(2) -0.25424(9)
H11 H -0.2955 -0.4554 -0.2777
C15 C -0.2264(3) -0.2738(2) -0.28908(10)
H12 H -0.1357 -0.2383 -0.2815
H13 H -0.2305 -0.2946 -0.3303
C16 C -0.3323(3) -0.1731(3) -0.27706(11)
C17 C -0.1984(2) -0.5711(2) -0.16029(10)
C18 C -0.0236(3) -0.4949(3) -0.29806(11)
H14 H 0.0619 -0.5360 -0.2885
H15 H -0.0048 -0.4186 -0.3194
H16 H -0.0791 -0.5505 -0.3215
C19 C -0.3312(3) -0.3416(2) -0.04827(10)
H17 H -0.3486 -0.2979 -0.0123
H18 H -0.2482 -0.3908 -0.0447
H19 H -0.4074 -0.3966 -0.0570
C20 C -0.2008(3) -0.7032(3) -0.13425(12)
H20 H -0.1057 -0.7338 -0.1303
C21 C -0.2836(3) -0.7987(3) -0.16952(13)
H21 H -0.2893 -0.7726 -0.2100
H22 H -0.2406 -0.8816 -0.1678
C22 C -0.2714(3) -0.7088(3) -0.07478(12)
H23 H -0.2244 -0.7678 -0.0491
H24 H -0.2731 -0.6260 -0.0565
C23 C -0.4160(3) -0.7539(2) -0.08837(13)
C24 C -0.6664(3) -0.0607(3) -0.08852(14)
H25 H -0.7099 -0.0195 -0.0560
H26 H -0.7317 -0.1157 -0.1073
H27 H -0.6347 0.0018 -0.1158
C25 C -0.3388(2) -0.5106(2) -0.17112(10)
H28 H -0.3903 -0.5058 -0.1349
H29 H -0.3913 -0.5614 -0.1986
C26 C -0.2959(4) 0.0708(4) 0.05731(13)
H30 H -0.2241 0.1022 0.0823
H31 H -0.3500 0.0092 0.0780
H32 H -0.3542 0.1397 0.0454
O10 O 0.0405(3) 0.1236(3) -0.05283(16)
H33 H 0.0065 0.1628 -0.0238
H34 H 0.0069 0.0496 -0.0565
loop_
_geom_bond_atom_site_label_1
_geom_bond_atom_site_label_2
_geom_bond_site_symmetry_1
_geom_bond_site_symmetry_2
O1 C1 1_555 1_555
O2 C16 1_555 1_555
O3 C7 1_555 1_555
O4 C11 1_555 1_555
O5 C13 1_555 1_555
O6 C23 1_555 1_555
O7 C21 1_555 1_555
O8 C2 1_555 1_555
O9 H1 1_555 1_555
C1 C2 1_555 1_555
C2 C3 1_555 1_555
C3 H2 1_555 1_555
C4 C3 1_555 1_555
H3 C4 1_555 1_555
C5 C4 1_555 1_555
H4 C5 1_555 1_555
C6 C5 1_555 1_555
H5 C6 1_555 1_555
H6 C6 1_555 1_555
C7 C6 1_555 1_555
H7 C7 1_555 1_555
C8 C7 1_555 1_555
C9 C8 1_555 1_555
H8 C9 1_555 1_555
C10 C1 1_555 1_555
C11 O9 1_555 1_555
C12 C11 1_555 1_555
H9 C12 1_555 1_555
H10 C12 1_555 1_555
C13 C12 1_555 1_555
C14 C8 1_555 1_555
H11 C14 1_555 1_555
C15 C14 1_555 1_555
H12 C15 1_555 1_555
H13 C15 1_555 1_555
C16 O3 1_555 1_555
C17 O4 1_555 1_555
C18 C13 1_555 1_555
H14 C18 1_555 1_555
H15 C18 1_555 1_555
H16 C18 1_555 1_555
C19 C10 1_555 1_555
H17 C19 1_555 1_555
H18 C19 1_555 1_555
H19 C19 1_555 1_555
C20 C17 1_555 1_555
H20 C20 1_555 1_555
C21 C20 1_555 1_555
H21 C21 1_555 1_555
H22 C21 1_555 1_555
C22 C20 1_555 1_555
H23 C22 1_555 1_555
H24 C22 1_555 1_555
C23 O7 1_555 1_555
C24 C4 1_555 1_555
H25 C24 1_555 1_555
H26 C24 1_555 1_555
H27 C24 1_555 1_555
C25 C8 1_555 1_555
H28 C25 1_555 1_555
H29 C25 1_555 1_555
C26 O8 1_555 1_555
H30 C26 1_555 1_555
H31 C26 1_555 1_555
H32 C26 1_555 1_555
O10 H33 1_555 1_555
H34 O10 1_555 1_555
O5 C17 1_555 1_555
C5 C10 1_555 1_555
C9 C10 1_555 1_555
C9 C11 1_555 1_555
C13 C14 1_555 1_555
C15 C16 1_555 1_555
C17 C25 1_555 1_555
C22 C23 1_555 1_555

#END
