
#######################################################################
#
#                 Cambridge Crystallographic Data Centre
#                                CCDC 
#
#######################################################################
#
# If this CIF has been generated from an entry in the Cambridge 
# Structural Database, then it will include bibliographic, chemical, 
# crystal, experimental, refinement or atomic coordinate data resulting 
# from the CCDC's data processing and validation procedures.
#
#######################################################################

data_FUJXEO
_chemical_formula_moiety         'C2 H5 N5 O4'
_chemical_name_systematic        1-Hydrazino-2,2-dinitroethenamine
_symmetry_cell_setting           orthorhombic
_symmetry_space_group_name_H-M   'P n m a'
_symmetry_Int_Tables_number      62
_space_group_name_Hall           '-P 2ac 2n'
loop_
_symmetry_equiv_pos_site_id
_symmetry_equiv_pos_as_xyz
1 x,y,z
2 1/2-x,-y,1/2+z
3 -x,1/2+y,-z
4 1/2+x,1/2-y,1/2-z
5 -x,-y,-z
6 1/2+x,y,1/2-z
7 x,1/2-y,z
8 1/2-x,1/2+y,1/2+z
_cell_length_a                   6.283(4)
_cell_length_b                   7.713(5)
_cell_length_c                   12.280(8)
_cell_angle_alpha                90
_cell_angle_beta                 90
_cell_angle_gamma                90
_cell_volume                     595.098
_cell_formula_units_Z            4
loop_
_atom_site_label
_atom_site_type_symbol
_atom_site_fract_x
_atom_site_fract_y
_atom_site_fract_z
N1 N 0.0630(3) 0.4081(3) 0.63611(18)
O1 O 0.1476(3) 0.5390(2) 0.59621(16)
O2 O -0.0816(3) 0.4203(3) 0.70475(18)
C1 C 0.1391(5) 0.2500 0.6000(3)
C2 C 0.3120(5) 0.2500 0.5189(3)
N2 N 0.2575(5) 0.2500 0.4166(2)
H1 H 0.1251 0.2500 0.3988
N3 N 0.4134(5) 0.2500 0.3358(3)
H2 H 0.5458 0.2500 0.3536
H3 H 0.3772 0.2500 0.2683
N4 N 0.5078(5) 0.2500 0.5493(3)
H4 H 0.6076 0.2500 0.5014
H5 H 0.5389 0.2500 0.6175
N1F N 0.0630(3) 0.0919(3) 0.63611(18)
O1F O 0.1476(3) -0.0390(2) 0.59621(16)
O2F O -0.0816(3) 0.0797(3) 0.70475(18)
loop_
_geom_bond_atom_site_label_1
_geom_bond_atom_site_label_2
_geom_bond_site_symmetry_1
_geom_bond_site_symmetry_2
N1 O1 1_555 1_555
O2 N1 1_555 1_555
C1 N1 1_555 1_555
C2 C1 1_555 1_555
N2 C2 1_555 1_555
H1 N2 1_555 1_555
N3 N2 1_555 1_555
H2 N3 1_555 1_555
H3 N3 1_555 1_555
N4 C2 1_555 1_555
H4 N4 1_555 1_555
H5 N4 1_555 1_555
N1F C1 1_555 1_555
O1F N1F 1_555 1_555
O2F N1F 1_555 1_555

#END
