
#######################################################################
#
#                 Cambridge Crystallographic Data Centre
#                                CCDC 
#
#######################################################################
#
# If this CIF has been generated from an entry in the Cambridge 
# Structural Database, then it will include bibliographic, chemical, 
# crystal, experimental, refinement or atomic coordinate data resulting 
# from the CCDC's data processing and validation procedures.
#
#######################################################################

data_FUJYOY
_chemical_name_common            'Lophine peroxide dichloromethane solvate'
_chemical_formula_moiety         'C21 H16 N2 O2,0.5(C1 H2 Cl2)'
_chemical_name_systematic        
'2,4,5-Triphenyl-4H-imidazol-4-yl hydroperoxide dichloromethane solvate'
_symmetry_cell_setting           monoclinic
_symmetry_space_group_name_H-M   'C 2/c'
_symmetry_Int_Tables_number      15
_space_group_name_Hall           '-C 2yn'
loop_
_symmetry_equiv_pos_site_id
_symmetry_equiv_pos_as_xyz
1 x,y,z
2 1/2+x,1/2+y,z
3 -x,y,1/2-z
4 1/2-x,1/2+y,1/2-z
5 -x,-y,-z
6 1/2-x,1/2-y,-z
7 x,-y,1/2+z
8 1/2+x,1/2-y,1/2+z
_cell_length_a                   19.5190(10)
_cell_length_b                   14.2690(10)
_cell_length_c                   26.068(2)
_cell_angle_alpha                90
_cell_angle_beta                 94.456(2)
_cell_angle_gamma                90
_cell_volume                     7238.43
_exptl_crystal_colour            colorless
_exptl_crystal_description       prism
_chemical_melting_point          '388 K'
_cell_formula_units_Z            16
_exptl_crystal_recrystallization_method ethanol
loop_
_atom_site_label
_atom_site_type_symbol
_atom_site_fract_x
_atom_site_fract_y
_atom_site_fract_z
Cl1 Cl 0.40322(4) 0.17763(5) 0.01415(3)
Cl2 Cl 0.51833(5) 0.29661(9) -0.00407(4)
C1 C 0.45810(10) 0.2665(2) 0.03932(10)
H1 H 0.4796 0.2454 0.0695
H2 H 0.4337 0.3267 0.0454
O1 O -0.05768(8) 0.86110(10) 0.32699(5)
O2 O -0.04542(8) 0.88100(10) 0.38227(6)
N1 N -0.17736(10) 0.87650(10) 0.33548(7)
N2 N -0.17650(10) 0.74240(10) 0.38580(7)
C2 C -0.20460(10) 0.8330(2) 0.37215(8)
C3 C -0.12230(10) 0.81560(10) 0.31965(8)
C4 C -0.12730(10) 0.73040(10) 0.35590(8)
C5 C -0.25930(10) 0.8701(2) 0.40186(8)
C6 C -0.29180(10) 0.9548(2) 0.38770(9)
C7 C -0.34220(10) 0.9897(2) 0.41671(9)
C8 C -0.36050(10) 0.9423(2) 0.45990(10)
C9 C -0.32830(10) 0.8582(2) 0.47438(10)
C10 C -0.27800(10) 0.8221(2) 0.44524(9)
C11 C -0.13230(10) 0.7922(2) 0.26245(8)
C12 C -0.09970(10) 0.8456(2) 0.22715(9)
C13 C -0.10890(10) 0.8247(2) 0.17486(9)
C14 C -0.15160(10) 0.7515(2) 0.15802(9)
C15 C -0.18500(10) 0.6991(2) 0.19318(9)
C16 C -0.17510(10) 0.7193(2) 0.24562(9)
C17 C -0.08400(10) 0.6478(2) 0.35662(8)
C18 C -0.03090(10) 0.6397(2) 0.32381(9)
C19 C 0.00840(10) 0.5586(2) 0.32408(10)
C20 C -0.00450(10) 0.4860(2) 0.35720(10)
C21 C -0.05620(10) 0.4941(2) 0.39064(10)
C22 C -0.09600(10) 0.5742(2) 0.39048(9)
H3 H -0.2822 0.9848 0.3558
H4 H -0.3665 1.0452 0.4060
H5 H -0.3999 0.9652 0.4803
H6 H -0.3433 0.8216 0.5056
H7 H -0.2569 0.7626 0.4556
H8 H -0.0695 0.8965 0.2363
H9 H -0.0856 0.8595 0.1519
H10 H -0.1647 0.7395 0.1211
H11 H -0.2155 0.6487 0.1819
H12 H -0.2028 0.6834 0.2668
H13 H -0.0198 0.6893 0.2987
H14 H 0.0436 0.5526 0.2991
H15 H 0.0245 0.4289 0.3582
H16 H -0.0575 0.4477 0.4185
H17 H -0.1363 0.5815 0.4154
H18 H -0.0660 0.9448 0.3852
O3 O -0.10842(8) 1.07360(10) 0.29438(5)
O4 O -0.18213(8) 1.05350(10) 0.29260(6)
N3 N -0.10067(10) 1.05960(10) 0.38635(7)
N4 N -0.16336(10) 1.19590(10) 0.39420(7)
C23 C -0.13980(10) 1.1072(2) 0.41426(8)
C24 C -0.08980(10) 1.11980(10) 0.34156(8)
C25 C -0.13540(10) 1.20450(10) 0.35116(8)
C26 C -0.15970(10) 1.0783(2) 0.46517(8)
C27 C -0.1264(2) 1.0034(2) 0.49082(10)
C28 C -0.1448(2) 0.9783(2) 0.53940(10)
C29 C -0.1960(2) 1.0264(2) 0.56199(10)
C30 C -0.22950(10) 1.1001(2) 0.53637(10)
C31 C -0.21140(10) 1.1264(2) 0.48804(9)
C32 C -0.01350(10) 1.1402(2) 0.34167(8)
C33 C 0.02990(10) 1.0750(2) 0.32130(8)
C34 C 0.10020(10) 1.0908(2) 0.32342(9)
C35 C 0.12770(10) 1.1717(2) 0.34617(9)
C36 C 0.08460(10) 1.2362(2) 0.36662(10)
C37 C 0.01420(10) 1.2218(2) 0.36444(9)
C38 C -0.14540(10) 1.2858(2) 0.31740(8)
C39 C -0.11150(10) 1.2946(2) 0.27269(9)
C40 C -0.1210(2) 1.3742(2) 0.24224(9)
C41 C -0.16510(10) 1.4444(2) 0.25566(9)
C42 C -0.20010(10) 1.4358(2) 0.29952(9)
C43 C -0.19060(10) 1.3574(2) 0.33045(8)
H19 H -0.0843 0.9747 0.4784
H20 H -0.1222 0.9279 0.5565
H21 H -0.2101 1.0080 0.5970
H22 H -0.2655 1.1397 0.5525
H23 H -0.2379 1.1768 0.4673
H24 H 0.0119 1.0182 0.3059
H25 H 0.1298 1.0438 0.3091
H26 H 0.1779 1.1825 0.3447
H27 H 0.1065 1.2905 0.3839
H28 H -0.0195 1.2696 0.3773
H29 H -0.0787 1.2451 0.2626
H30 H -0.0981 1.3766 0.2122
H31 H -0.1709 1.4991 0.2361
H32 H -0.2299 1.4826 0.3111
H33 H -0.2153 1.3544 0.3618
H34 H -0.1840 0.9893 0.3085
loop_
_geom_bond_atom_site_label_1
_geom_bond_atom_site_label_2
_geom_bond_site_symmetry_1
_geom_bond_site_symmetry_2
Cl1 C1 1_555 1_555
Cl2 C1 1_555 1_555
C1 H1 1_555 1_555
H2 C1 1_555 1_555
O1 O2 1_555 1_555
O2 H18 1_555 1_555
N1 C2 1_555 1_555
N2 C2 1_555 1_555
C2 C5 1_555 1_555
C3 O1 1_555 1_555
C4 N2 1_555 1_555
C5 C6 1_555 1_555
C6 C7 1_555 1_555
C7 C8 1_555 1_555
C8 C9 1_555 1_555
C9 C10 1_555 1_555
C10 C5 1_555 1_555
C11 C3 1_555 1_555
C12 C11 1_555 1_555
C13 C12 1_555 1_555
C14 C13 1_555 1_555
C15 C14 1_555 1_555
C16 C11 1_555 1_555
C17 C4 1_555 1_555
C18 C17 1_555 1_555
C19 C18 1_555 1_555
C20 C19 1_555 1_555
C21 C20 1_555 1_555
C22 C17 1_555 1_555
H3 C6 1_555 1_555
H4 C7 1_555 1_555
H5 C8 1_555 1_555
H6 C9 1_555 1_555
H7 C10 1_555 1_555
H8 C12 1_555 1_555
H9 C13 1_555 1_555
H10 C14 1_555 1_555
H11 C15 1_555 1_555
H12 C16 1_555 1_555
H13 C18 1_555 1_555
H14 C19 1_555 1_555
H15 C20 1_555 1_555
H16 C21 1_555 1_555
H17 C22 1_555 1_555
O3 O4 1_555 1_555
O4 H34 1_555 1_555
N3 C23 1_555 1_555
N4 C23 1_555 1_555
C23 C26 1_555 1_555
C24 O3 1_555 1_555
C25 N4 1_555 1_555
C26 C27 1_555 1_555
C27 C28 1_555 1_555
C28 C29 1_555 1_555
C29 C30 1_555 1_555
C30 C31 1_555 1_555
C31 C26 1_555 1_555
C32 C24 1_555 1_555
C33 C32 1_555 1_555
C34 C33 1_555 1_555
C35 C34 1_555 1_555
C36 C35 1_555 1_555
C37 C32 1_555 1_555
C38 C25 1_555 1_555
C39 C38 1_555 1_555
C40 C39 1_555 1_555
C41 C40 1_555 1_555
C42 C41 1_555 1_555
C43 C38 1_555 1_555
H19 C27 1_555 1_555
H20 C28 1_555 1_555
H21 C29 1_555 1_555
H22 C30 1_555 1_555
H23 C31 1_555 1_555
H24 C33 1_555 1_555
H25 C34 1_555 1_555
H26 C35 1_555 1_555
H27 C36 1_555 1_555
H28 C37 1_555 1_555
H29 C39 1_555 1_555
H30 C40 1_555 1_555
H31 C41 1_555 1_555
H32 C42 1_555 1_555
H33 C43 1_555 1_555
N1 C3 1_555 1_555
C3 C4 1_555 1_555
C15 C16 1_555 1_555
C21 C22 1_555 1_555
N3 C24 1_555 1_555
C24 C25 1_555 1_555
C36 C37 1_555 1_555
C42 C43 1_555 1_555

#END
