
#######################################################################
#
#                 Cambridge Crystallographic Data Centre
#                                CCDC 
#
#######################################################################
#
# If this CIF has been generated from an entry in the Cambridge 
# Structural Database, then it will include bibliographic, chemical, 
# crystal, experimental, refinement or atomic coordinate data resulting 
# from the CCDC's data processing and validation procedures.
#
#######################################################################

data_FUJYUF
_chemical_formula_moiety         'C23 H26 Br1 N3 O5'
_chemical_name_systematic        
'Di-isopropyl 1-(3-(4-bromobenzyl)-2-oxo-2,3-dihydro-1H-indol-3-yl)hydrazine-1,2-dicarboxylate'
_symmetry_cell_setting           triclinic
_symmetry_space_group_name_H-M   'P -1'
_symmetry_Int_Tables_number      2
_space_group_name_Hall           '-P 1'
loop_
_symmetry_equiv_pos_site_id
_symmetry_equiv_pos_as_xyz
1 x,y,z
2 -x,-y,-z
_cell_length_a                   9.0411(3)
_cell_length_b                   12.0586(4)
_cell_length_c                   12.8583(4)
_cell_angle_alpha                115.6260(10)
_cell_angle_beta                 92.7780(10)
_cell_angle_gamma                107.0370(10)
_cell_volume                     1183.28
_exptl_crystal_colour            colorless
_exptl_crystal_description       block
_cell_formula_units_Z            2
loop_
_atom_site_label
_atom_site_type_symbol
_atom_site_fract_x
_atom_site_fract_y
_atom_site_fract_z
Br1 Br 0.57585(5) 1.13022(4) 0.17648(4)
O1 O 0.1115(2) 0.88373(17) 0.50466(16)
O2 O -0.2045(2) 0.47629(18) 0.42930(17)
O3 O -0.2406(2) 0.63975(18) 0.40090(17)
O4 O -0.0889(3) 0.34753(19) 0.17278(18)
O5 O 0.0777(2) 0.31406(17) 0.28413(17)
N1 N -0.0261(2) 0.58984(19) 0.35959(18)
N2 N 0.0619(2) 0.51055(19) 0.35162(19)
H1 H 0.1478 0.5388 0.4016
N3 N -0.0599(2) 0.86659(19) 0.35647(18)
H2 H -0.0650 0.9441 0.3906
C1 C 0.2264(3) 0.7982(3) 0.1453(2)
H3 H 0.1390 0.7312 0.0891
C2 C 0.3171(4) 0.8962(3) 0.1219(3)
H4 H 0.2904 0.8955 0.0508
C3 C 0.4468(3) 0.9943(3) 0.2049(3)
C4 C 0.4880(3) 0.9973(3) 0.3101(3)
H5 H 0.5767 1.0636 0.3654
C5 C 0.3956(3) 0.9001(3) 0.3324(3)
H6 H 0.4222 0.9025 0.4043
C6 C 0.2644(3) 0.7988(2) 0.2512(2)
C7 C 0.1798(3) 0.6888(2) 0.2775(2)
H7 H 0.2482 0.6944 0.3414
H8 H 0.1657 0.6063 0.2087
C8 C 0.0175(3) 0.6837(2) 0.3111(2)
C9 C 0.0302(3) 0.8237(2) 0.4057(2)
C10 C -0.1446(3) 0.7703(2) 0.2431(2)
C11 C -0.1054(3) 0.6590(2) 0.2122(2)
C12 C -0.1747(3) 0.5509(3) 0.1038(2)
H9 H -0.1489 0.4757 0.0819
C13 C -0.2834(4) 0.5564(3) 0.0282(3)
H10 H -0.3303 0.4845 -0.0456
C14 C -0.3228(3) 0.6677(3) 0.0611(3)
H11 H -0.3971 0.6691 0.0094
C15 C -0.2540(3) 0.7771(3) 0.1693(3)
H12 H -0.2802 0.8521 0.1916
C16 C 0.0054(3) 0.3846(2) 0.2600(2)
C17 C 0.0425(4) 0.1788(2) 0.1921(3)
H13 H -0.0674 0.1427 0.1500
C18 C 0.1493(6) 0.1784(4) 0.1083(4)
H14 H 0.1303 0.2279 0.0707
H15 H 0.1299 0.0897 0.0499
H16 H 0.2571 0.2174 0.1502
C19 C 0.0634(7) 0.1044(4) 0.2550(4)
H17 H -0.0089 0.1083 0.3077
H18 H 0.1698 0.1424 0.2992
H19 H 0.0428 0.0146 0.1989
C20 C -0.1631(3) 0.5609(2) 0.3989(2)
C21 C -0.4012(3) 0.6066(3) 0.4210(3)
H20 H -0.4080 0.5707 0.4767
C22 C -0.4328(5) 0.7313(5) 0.4734(4)
H21 H -0.5379 0.7150 0.4886
H22 H -0.4229 0.7676 0.4197
H23 H -0.3580 0.7921 0.5460
C23 C -0.5086(5) 0.5089(5) 0.3092(5)
H24 H -0.4830 0.4303 0.2794
H25 H -0.4982 0.5427 0.2536
H26 H -0.6153 0.4894 0.3210
loop_
_geom_bond_atom_site_label_1
_geom_bond_atom_site_label_2
_geom_bond_site_symmetry_1
_geom_bond_site_symmetry_2
Br1 C3 1_555 1_555
O1 C9 1_555 1_555
O2 C20 1_555 1_555
O3 C20 1_555 1_555
O4 C16 1_555 1_555
O5 C16 1_555 1_555
N1 N2 1_555 1_555
N2 H1 1_555 1_555
N3 H2 1_555 1_555
C1 H3 1_555 1_555
C2 C1 1_555 1_555
H4 C2 1_555 1_555
C3 C2 1_555 1_555
C4 C3 1_555 1_555
H5 C4 1_555 1_555
C5 C4 1_555 1_555
H6 C5 1_555 1_555
C6 C1 1_555 1_555
C7 C6 1_555 1_555
H7 C7 1_555 1_555
H8 C7 1_555 1_555
C8 N1 1_555 1_555
C9 N3 1_555 1_555
C10 N3 1_555 1_555
C11 C8 1_555 1_555
C12 C11 1_555 1_555
H9 C12 1_555 1_555
C13 C12 1_555 1_555
H10 C13 1_555 1_555
C14 C13 1_555 1_555
H11 C14 1_555 1_555
C15 C10 1_555 1_555
H12 C15 1_555 1_555
C16 N2 1_555 1_555
C17 O5 1_555 1_555
H13 C17 1_555 1_555
C18 C17 1_555 1_555
H14 C18 1_555 1_555
H15 C18 1_555 1_555
H16 C18 1_555 1_555
C19 C17 1_555 1_555
H17 C19 1_555 1_555
H18 C19 1_555 1_555
H19 C19 1_555 1_555
C20 N1 1_555 1_555
C21 O3 1_555 1_555
H20 C21 1_555 1_555
C22 C21 1_555 1_555
H21 C22 1_555 1_555
H22 C22 1_555 1_555
H23 C22 1_555 1_555
C23 C21 1_555 1_555
H24 C23 1_555 1_555
H25 C23 1_555 1_555
H26 C23 1_555 1_555
C5 C6 1_555 1_555
C7 C8 1_555 1_555
C8 C9 1_555 1_555
C10 C11 1_555 1_555
C14 C15 1_555 1_555

#END
