
#######################################################################
#
#                 Cambridge Crystallographic Data Centre
#                                CCDC 
#
#######################################################################
#
# If this CIF has been generated from an entry in the Cambridge 
# Structural Database, then it will include bibliographic, chemical, 
# crystal, experimental, refinement or atomic coordinate data resulting 
# from the CCDC's data processing and validation procedures.
#
#######################################################################

data_FUJZOB
_chemical_formula_moiety         'C30 H41 N1 O3'
_chemical_name_systematic        
10-hydroxy-N,2,4a,6a,9,12b,14a-heptamethyl-11-oxo-1,2,3,4,4a,5,6,6a,11,12b,13,14,14a,14b-tetradecahydropicene-2-carboxamide
_symmetry_cell_setting           monoclinic
_symmetry_space_group_name_H-M   'P 21'
_symmetry_Int_Tables_number      4
_space_group_name_Hall           'P 2yb'
loop_
_symmetry_equiv_pos_site_id
_symmetry_equiv_pos_as_xyz
1 x,y,z
2 -x,1/2+y,-z
_cell_length_a                   11.6031(6)
_cell_length_b                   8.1736(3)
_cell_length_c                   13.9701(7)
_cell_angle_alpha                90
_cell_angle_beta                 106.253(5)
_cell_angle_gamma                90
_cell_volume                     1271.96
_exptl_crystal_colour            'light orange'
_exptl_crystal_description       plate
_cell_formula_units_Z            2
loop_
_atom_site_label
_atom_site_type_symbol
_atom_site_fract_x
_atom_site_fract_y
_atom_site_fract_z
O1 O 0.3698(2) 0.3913(3) 0.37294(18)
O2 O -0.2517(3) 0.7406(4) 0.4539(3)
C1 C -0.0676(3) 1.0510(4) 0.3216(3)
C2 C -0.1848(3) 1.0060(5) 0.4374(3)
C3 C 0.2172(3) 0.7025(4) 0.1900(2)
O3 O -0.2371(3) 1.0538(3) 0.5080(2)
H1 H -0.2709 0.9755 0.5249
N1 N 0.5385(3) 0.5380(4) 0.4281(3)
H2 H 0.5976 0.5859 0.4139
C4 C -0.1377(3) 0.7771(5) 0.3383(4)
H3 H -0.1434 0.6672 0.3204
C5 C -0.0763(3) 0.8787(4) 0.2945(3)
C6 C 0.0702(4) 0.9286(4) 0.1899(3)
C7 C 0.3021(4) 0.6257(4) 0.1334(3)
H4 H 0.2489 0.6033 0.0667
C8 C 0.0022(4) 1.1475(4) 0.2811(3)
H5 H 0.0038 1.2593 0.2936
C9 C 0.2782(3) 0.7476(4) 0.2994(2)
H6 H 0.2879 0.6509 0.3398
H7 H 0.2293 0.8251 0.3218
H8 H 0.3555 0.7949 0.3047
C10 C 0.2610(5) 0.9829(5) 0.1392(3)
H9 H 0.2273 1.0842 0.1072
H10 H 0.3016 1.0071 0.2084
C11 C 0.4776(3) 0.4476(4) 0.2528(3)
C12 C 0.3574(3) 0.4559(4) 0.1702(3)
H11 H 0.2985 0.3955 0.1935
H12 H 0.3679 0.3976 0.1127
C13 C 0.3998(4) 0.7412(5) 0.1134(3)
C14 C -0.1267(3) 1.1125(4) 0.3933(3)
C15 C -0.1947(3) 0.8321(5) 0.4114(3)
C16 C -0.0230(3) 0.8149(4) 0.2131(3)
C17 C 0.0735(4) 1.0852(5) 0.2201(3)
H13 H 0.1247 1.1570 0.2005
C18 C 0.4567(3) 0.4606(4) 0.3556(3)
C19 C 0.0285(4) 0.6427(4) 0.2432(4)
H14 H 0.0679 0.6428 0.3143
H15 H -0.0379 0.5661 0.2314
C20 C 0.1175(3) 0.5801(4) 0.1894(3)
H16 H 0.0744 0.5549 0.1209
H17 H 0.1533 0.4795 0.2209
C21 C 0.5150(4) 0.7422(5) 0.2017(4)
H18 H 0.5752 0.8090 0.1843
H19 H 0.4972 0.7917 0.2590
C22 C -0.1214(4) 1.2918(5) 0.4200(3)
H20 H -0.0396 1.3225 0.4512
H21 H -0.1688 1.3114 0.4652
H22 H -0.1523 1.3555 0.3606
C23 C 0.1586(4) 0.8619(4) 0.1350(3)
C24 C 0.4317(6) 0.6794(6) 0.0190(4)
H23 H 0.4657 0.5717 0.0311
H24 H 0.4888 0.7523 0.0035
H25 H 0.3603 0.6758 -0.0361
C25 C 0.5299(4) 0.2733(5) 0.2528(4)
H26 H 0.4714 0.1941 0.2591
H27 H 0.6008 0.2625 0.3079
H28 H 0.5499 0.2553 0.1915
C26 C 0.5306(4) 0.5437(5) 0.5297(3)
H29 H 0.6064 0.5774 0.5733
H30 H 0.5105 0.4372 0.5490
H31 H 0.4696 0.6205 0.5341
C27 C 0.0907(5) 0.8320(6) 0.0236(3)
H32 H 0.1478 0.8176 -0.0140
H33 H 0.0405 0.9244 -0.0020
H34 H 0.0421 0.7355 0.0179
C28 C 0.3525(5) 0.9183(5) 0.0886(3)
H35 H 0.4211 0.9914 0.1053
H36 H 0.3170 0.9253 0.0171
C29 C -0.1341(4) 0.8039(8) 0.1186(4)
H37 H -0.1984 0.7477 0.1354
H38 H -0.1121 0.7452 0.0669
H39 H -0.1598 0.9122 0.0957
C30 C 0.5659(4) 0.5714(5) 0.2298(4)
H40 H 0.6349 0.5802 0.2879
H41 H 0.5940 0.5289 0.1756
loop_
_geom_bond_atom_site_label_1
_geom_bond_atom_site_label_2
_geom_bond_site_symmetry_1
_geom_bond_site_symmetry_2
O1 C18 1_555 1_555
O2 C15 1_555 1_555
C1 C5 1_555 1_555
C2 O3 1_555 1_555
C3 C7 1_555 1_555
O3 H1 1_555 1_555
N1 H2 1_555 1_555
C4 H3 1_555 1_555
C5 C4 1_555 1_555
C6 C16 1_555 1_555
C7 H4 1_555 1_555
C8 C1 1_555 1_555
H5 C8 1_555 1_555
C9 C3 1_555 1_555
H6 C9 1_555 1_555
H7 C9 1_555 1_555
H8 C9 1_555 1_555
C10 H9 1_555 1_555
H10 C10 1_555 1_555
C11 C12 1_555 1_555
C12 C7 1_555 1_555
H11 C12 1_555 1_555
H12 C12 1_555 1_555
C13 C7 1_555 1_555
C14 C1 1_555 1_555
C15 C2 1_555 1_555
C16 C5 1_555 1_555
C17 C6 1_555 1_555
H13 C17 1_555 1_555
C18 N1 1_555 1_555
C19 C16 1_555 1_555
H14 C19 1_555 1_555
H15 C19 1_555 1_555
C20 C3 1_555 1_555
H16 C20 1_555 1_555
H17 C20 1_555 1_555
C21 C13 1_555 1_555
H18 C21 1_555 1_555
H19 C21 1_555 1_555
C22 C14 1_555 1_555
H20 C22 1_555 1_555
H21 C22 1_555 1_555
H22 C22 1_555 1_555
C23 C3 1_555 1_555
C24 C13 1_555 1_555
H23 C24 1_555 1_555
H24 C24 1_555 1_555
H25 C24 1_555 1_555
C25 C11 1_555 1_555
H26 C25 1_555 1_555
H27 C25 1_555 1_555
H28 C25 1_555 1_555
C26 N1 1_555 1_555
H29 C26 1_555 1_555
H30 C26 1_555 1_555
H31 C26 1_555 1_555
C27 C23 1_555 1_555
H32 C27 1_555 1_555
H33 C27 1_555 1_555
H34 C27 1_555 1_555
C28 C10 1_555 1_555
H35 C28 1_555 1_555
H36 C28 1_555 1_555
C29 C16 1_555 1_555
H37 C29 1_555 1_555
H38 C29 1_555 1_555
H39 C29 1_555 1_555
C30 C11 1_555 1_555
H40 C30 1_555 1_555
H41 C30 1_555 1_555
C2 C14 1_555 1_555
C4 C15 1_555 1_555
C6 C23 1_555 1_555
C8 C17 1_555 1_555
C10 C23 1_555 1_555
C11 C18 1_555 1_555
C13 C28 1_555 1_555
C19 C20 1_555 1_555
C21 C30 1_555 1_555

#END
