
#######################################################################
#
#                 Cambridge Crystallographic Data Centre
#                                CCDC 
#
#######################################################################
#
# If this CIF has been generated from an entry in the Cambridge 
# Structural Database, then it will include bibliographic, chemical, 
# crystal, experimental, refinement or atomic coordinate data resulting 
# from the CCDC's data processing and validation procedures.
#
#######################################################################

data_FULBIY
_chemical_compound_source        'gorgonian coral Junceella fragilis'
_chemical_name_common            'Fragilide F'
_chemical_formula_moiety         'C28 H36 Cl2 O12'
_chemical_name_systematic        
'13-Chloro-4-(chloromethyl)-4-hydroxy-8,17-dimethyl-12-methylene-16-oxo-15,18-dioxatetracyclo[9.6.1.0^1,14^.0^3,8^]octadecane-2,7,9,10-tetrayl tetraacetate'
_symmetry_cell_setting           monoclinic
_symmetry_space_group_name_H-M   'P 21'
_symmetry_Int_Tables_number      4
_space_group_name_Hall           'P 2yb'
loop_
_symmetry_equiv_pos_site_id
_symmetry_equiv_pos_as_xyz
1 x,y,z
2 -x,1/2+y,-z
_cell_length_a                   9.5873(11)
_cell_length_b                   15.556(2)
_cell_length_c                   10.5372(15)
_cell_angle_alpha                90
_cell_angle_beta                 98.22(3)
_cell_angle_gamma                90
_cell_volume                     1555.37
_exptl_crystal_colour            colorless
_exptl_crystal_description       prism
_chemical_melting_point          '302-303 deg.C'
_cell_formula_units_Z            2
_exptl_crystal_recrystallization_method methanol/acetone
loop_
_atom_site_label
_atom_site_type_symbol
_atom_site_fract_x
_atom_site_fract_y
_atom_site_fract_z
Cl1 Cl 0.77755(14) 0.62205(10) 1.23690(13)
Cl2 Cl 1.38831(10) 0.55828(8) 0.65336(12)
O1 O 0.7574(3) 0.30077(17) 0.7346(3)
O2 O 0.5293(4) 0.3345(3) 0.6767(3)
O3 O 0.6886(2) 0.34781(16) 0.9496(2)
O4 O 0.8652(4) 0.3199(3) 1.1024(4)
O5 O 0.7241(2) 0.55859(15) 0.8119(2)
O6 O 0.7490(3) 0.71072(19) 0.9792(4)
O7 O 1.0337(2) 0.50637(15) 0.9564(2)
O8 O 1.1978(3) 0.6028(2) 1.0358(3)
O9 O 1.0892(3) 0.61896(19) 0.6319(3)
O10 O 0.8171(3) 0.40568(19) 0.5064(2)
O11 O 0.7458(4) 0.2766(3) 0.4268(3)
O12 O 0.6698(3) 0.8039(2) 0.8272(5)
C1 C 0.9427(4) 0.4039(2) 0.7226(3)
C2 C 0.7911(4) 0.3907(2) 0.7571(4)
H1 H 0.7255 0.4250 0.6976
C3 C 0.7680(4) 0.4136(2) 0.8956(3)
H2 H 0.8586 0.4231 0.9499
C4 C 0.6748(3) 0.4944(2) 0.8927(4)
H3 H 0.5802 0.4777 0.8524
C5 C 0.6600(4) 0.5308(2) 1.0223(4)
C6 C 0.7909(4) 0.5741(3) 1.0840(4)
H4 H 0.8630 0.5292 1.0999
C7 C 0.8445(4) 0.6382(3) 0.9941(4)
H5 H 0.9387 0.6579 1.0313
C8 C 0.8490(3) 0.6053(2) 0.8568(4)
C9 C 0.9871(3) 0.5582(2) 0.8425(3)
H6 H 1.0592 0.6023 0.8376
C10 C 0.9793(3) 0.5026(2) 0.7194(3)
H7 H 0.8973 0.5265 0.6645
C11 C 1.1055(4) 0.5279(3) 0.6455(3)
C12 C 1.0885(4) 0.4864(3) 0.5154(4)
H8 H 1.1717 0.4979 0.4755
H9 H 1.0083 0.5118 0.4621
C13 C 1.0667(5) 0.3888(3) 0.5213(4)
H10 H 1.0542 0.3654 0.4352
H11 H 1.1497 0.3624 0.5692
C14 C 0.9388(4) 0.3678(3) 0.5851(4)
H12 H 0.9269 0.3053 0.5870
C15 C 1.0477(4) 0.3471(3) 0.8101(4)
H13 H 1.0202 0.2880 0.7993
H14 H 1.0477 0.3636 0.8979
H15 H 1.1406 0.3545 0.7877
C16 C 0.5408(4) 0.5235(3) 1.0694(5)
H16 H 0.5325 0.5468 1.1492
H17 H 0.4648 0.4950 1.0229
C17 C 0.8308(4) 0.6906(3) 0.7826(5)
H18 H 0.9232 0.7186 0.7897
C18 C 0.7683(5) 0.6873(3) 0.6396(5)
H19 H 0.6848 0.6525 0.6290
H20 H 0.8363 0.6629 0.5913
H21 H 0.7450 0.7444 0.6093
C19 C 0.7400(4) 0.7422(3) 0.8586(6)
C20 C 1.2500(4) 0.5082(3) 0.7242(4)
H22 H 1.2648 0.4465 0.7279
H23 H 1.2517 0.5291 0.8111
C21 C 0.6192(6) 0.2814(3) 0.6946(4)
C22 C 0.6036(6) 0.1862(3) 0.6764(5)
H24 H 0.5063 0.1725 0.6488
H25 H 0.6351 0.1576 0.7561
H26 H 0.6592 0.1675 0.6128
C23 C 0.7483(5) 0.3063(3) 1.0539(4)
C24 C 0.6481(4) 0.2441(3) 1.0996(4)
H27 H 0.6885 0.2213 1.1814
H28 H 0.6301 0.1980 1.0389
H29 H 0.5613 0.2729 1.1079
C25 C 1.1378(4) 0.5367(3) 1.0466(4)
C26 C 1.1639(5) 0.4787(3) 1.1585(4)
H30 H 1.2439 0.4430 1.1510
H31 H 1.0825 0.4433 1.1618
H32 H 1.1822 0.5122 1.2356
C27 C 0.7257(5) 0.3525(4) 0.4337(4)
C28 C 0.6012(6) 0.4005(4) 0.3725(5)
H33 H 0.5949 0.3960 0.2810
H34 H 0.6100 0.4598 0.3972
H35 H 0.5177 0.3768 0.3994
H36 H 1.171(7) 0.632(4) 0.622(7)
loop_
_geom_bond_atom_site_label_1
_geom_bond_atom_site_label_2
_geom_bond_site_symmetry_1
_geom_bond_site_symmetry_2
Cl1 C6 1_555 1_555
Cl2 C20 1_555 1_555
O1 C2 1_555 1_555
O2 C21 1_555 1_555
O3 C3 1_555 1_555
O4 C23 1_555 1_555
O5 C4 1_555 1_555
O6 C7 1_555 1_555
O7 C9 1_555 1_555
O8 C25 1_555 1_555
O9 C11 1_555 1_555
O10 C14 1_555 1_555
O11 C27 1_555 1_555
O12 C19 1_555 1_555
C1 C2 1_555 1_555
C2 H1 1_555 1_555
C3 C2 1_555 1_555
H2 C3 1_555 1_555
C4 C3 1_555 1_555
H3 C4 1_555 1_555
C5 C4 1_555 1_555
C6 C5 1_555 1_555
H4 C6 1_555 1_555
C7 C6 1_555 1_555
H5 C7 1_555 1_555
C8 O5 1_555 1_555
C9 C8 1_555 1_555
H6 C9 1_555 1_555
C10 C1 1_555 1_555
H7 C10 1_555 1_555
C11 C10 1_555 1_555
C12 C11 1_555 1_555
H8 C12 1_555 1_555
H9 C12 1_555 1_555
C13 C12 1_555 1_555
H10 C13 1_555 1_555
H11 C13 1_555 1_555
C14 C1 1_555 1_555
H12 C14 1_555 1_555
C15 C1 1_555 1_555
H13 C15 1_555 1_555
H14 C15 1_555 1_555
H15 C15 1_555 1_555
C16 C5 1_555 1_555
H16 C16 1_555 1_555
H17 C16 1_555 1_555
C17 C8 1_555 1_555
H18 C17 1_555 1_555
C18 C17 1_555 1_555
H19 C18 1_555 1_555
H20 C18 1_555 1_555
H21 C18 1_555 1_555
C19 O6 1_555 1_555
C20 C11 1_555 1_555
H22 C20 1_555 1_555
H23 C20 1_555 1_555
C21 O1 1_555 1_555
C22 C21 1_555 1_555
H24 C22 1_555 1_555
H25 C22 1_555 1_555
H26 C22 1_555 1_555
C23 O3 1_555 1_555
C24 C23 1_555 1_555
H27 C24 1_555 1_555
H28 C24 1_555 1_555
H29 C24 1_555 1_555
C25 O7 1_555 1_555
C26 C25 1_555 1_555
H30 C26 1_555 1_555
H31 C26 1_555 1_555
H32 C26 1_555 1_555
C27 O10 1_555 1_555
C28 C27 1_555 1_555
H33 C28 1_555 1_555
H34 C28 1_555 1_555
H35 C28 1_555 1_555
H36 O9 1_555 1_555
C7 C8 1_555 1_555
C9 C10 1_555 1_555
C13 C14 1_555 1_555
C17 C19 1_555 1_555

#END
