
#######################################################################
#
#                 Cambridge Crystallographic Data Centre
#                                CCDC 
#
#######################################################################
#
# If this CIF has been generated from an entry in the Cambridge 
# Structural Database, then it will include bibliographic, chemical, 
# crystal, experimental, refinement or atomic coordinate data resulting 
# from the CCDC's data processing and validation procedures.
#
#######################################################################

data_FULMAB
_chemical_name_common            
Naphtho[1,2-b]naphtho[2',1':4,5]thieno[2,3-d]thiophene
_chemical_formula_moiety         'C22 H12 S2'
_chemical_name_systematic        
Dinaphtho[1,2-b:1',2'-f]thieno[3,2-b]thiophene
_symmetry_cell_setting           monoclinic
_symmetry_space_group_name_H-M   'P 21/c'
_symmetry_Int_Tables_number      14
_space_group_name_Hall           '-P 2ybc'
loop_
_symmetry_equiv_pos_site_id
_symmetry_equiv_pos_as_xyz
1 x,y,z
2 -x,1/2+y,1/2-z
3 -x,-y,-z
4 x,1/2-y,1/2+z
_cell_length_a                   13.0500(8)
_cell_length_b                   8.8641(3)
_cell_length_c                   13.6026(6)
_cell_angle_alpha                90
_cell_angle_beta                 103.239(2)
_cell_angle_gamma                90
_cell_volume                     1531.68
_exptl_crystal_colour            colorless
_exptl_crystal_description       prism
_chemical_melting_point          'above 300 deg.C'
_cell_formula_units_Z            4
_exptl_crystal_recrystallization_method chloroform
_exptl_crystal_preparation       semiconductor
loop_
_atom_site_label
_atom_site_type_symbol
_atom_site_fract_x
_atom_site_fract_y
_atom_site_fract_z
S1 S 0.01341(5) 0.22236(7) -0.00185(4)
S2 S 0.05063(4) 0.49749(6) -0.23912(4)
C1 C -0.10223(16) 0.3255(2) -0.04090(16)
C2 C -0.09955(17) 0.4233(3) -0.12028(16)
C3 C -0.18710(19) 0.5178(3) -0.15948(19)
H1 H -0.184(2) 0.589(3) -0.208(2)
C4 C -0.27324(19) 0.5109(3) -0.12091(19)
H2 H -0.325(2) 0.564(3) -0.1396(18)
C5 C -0.27857(17) 0.4108(3) -0.04048(17)
C6 C -0.3692(2) 0.4034(3) -0.00133(19)
H3 H -0.416(2) 0.468(3) -0.024(2)
C7 C -0.3737(2) 0.3092(3) 0.0761(2)
H4 H -0.436(2) 0.307(3) 0.103(2)
C8 C -0.2893(2) 0.2170(3) 0.1171(2)
H5 H -0.295(2) 0.155(3) 0.170(2)
C9 C -0.1995(2) 0.2200(3) 0.08133(19)
H6 H -0.143(2) 0.158(3) 0.106(2)
C10 C -0.19213(17) 0.3168(3) 0.00136(16)
C11 C 0.06649(17) 0.3087(2) -0.09218(16)
C12 C -0.00132(16) 0.4106(2) -0.14859(16)
C13 C 0.16746(16) 0.3958(2) -0.19963(16)
C14 C 0.16577(18) 0.2990(2) -0.11943(16)
C15 C 0.2561(2) 0.2132(3) -0.07742(19)
H7 H 0.2544(18) 0.150(3) -0.0264(19)
C16 C 0.34349(19) 0.2256(3) -0.11412(19)
H8 H 0.400(2) 0.174(3) -0.088(2)
C17 C 0.34743(17) 0.3240(3) -0.19563(17)
C18 C 0.43948(19) 0.3402(3) -0.2326(2)
H9 H 0.4984(19) 0.284(3) -0.2055(18)
C19 C 0.4423(2) 0.4378(3) -0.3090(2)
H10 H 0.505(2) 0.452(3) -0.332(2)
C20 C 0.3535(2) 0.5225(3) -0.3528(2)
H11 H 0.357(2) 0.589(3) -0.405(2)
C21 C 0.26318(19) 0.5095(3) -0.31945(18)
H12 H 0.2055(19) 0.562(3) -0.3430(18)
C22 C 0.25764(17) 0.4107(2) -0.23989(16)
loop_
_geom_bond_atom_site_label_1
_geom_bond_atom_site_label_2
_geom_bond_site_symmetry_1
_geom_bond_site_symmetry_2
S1 C1 1_555 1_555
S2 C12 1_555 1_555
C1 C2 1_555 1_555
C2 C3 1_555 1_555
C3 H1 1_555 1_555
C4 C3 1_555 1_555
H2 C4 1_555 1_555
C5 C4 1_555 1_555
C6 C5 1_555 1_555
H3 C6 1_555 1_555
C7 C6 1_555 1_555
H4 C7 1_555 1_555
C8 C7 1_555 1_555
H5 C8 1_555 1_555
C9 C8 1_555 1_555
H6 C9 1_555 1_555
C10 C1 1_555 1_555
C11 S1 1_555 1_555
C12 C2 1_555 1_555
C13 S2 1_555 1_555
C14 C11 1_555 1_555
C15 C14 1_555 1_555
H7 C15 1_555 1_555
C16 C15 1_555 1_555
H8 C16 1_555 1_555
C17 C16 1_555 1_555
C18 C17 1_555 1_555
H9 C18 1_555 1_555
C19 C18 1_555 1_555
H10 C19 1_555 1_555
C20 C19 1_555 1_555
H11 C20 1_555 1_555
C21 C20 1_555 1_555
H12 C21 1_555 1_555
C22 C13 1_555 1_555
C5 C10 1_555 1_555
C9 C10 1_555 1_555
C11 C12 1_555 1_555
C13 C14 1_555 1_555
C17 C22 1_555 1_555
C21 C22 1_555 1_555

#END
