
#######################################################################
#
#                 Cambridge Crystallographic Data Centre
#                                CCDC 
#
#######################################################################
#
# If this CIF has been generated from an entry in the Cambridge 
# Structural Database, then it will include bibliographic, chemical, 
# crystal, experimental, refinement or atomic coordinate data resulting 
# from the CCDC's data processing and validation procedures.
#
#######################################################################

data_FULPEH01
_chemical_formula_moiety         'C20 H24 N2 O6'
_chemical_name_systematic        
'Isobutyl methyl 2,6-dimethyl-4-(3-nitrophenyl)-1,4-dihydropyridine-3,5-dicarboxylate'
_symmetry_cell_setting           triclinic
_symmetry_space_group_name_H-M   'P -1'
_symmetry_Int_Tables_number      2
_space_group_name_Hall           '-P 1'
loop_
_symmetry_equiv_pos_site_id
_symmetry_equiv_pos_as_xyz
1 x,y,z
2 -x,-y,-z
_cell_length_a                   7.4965(2)
_cell_length_b                   11.4692(4)
_cell_length_c                   12.3648(5)
_cell_angle_alpha                68.093(2)
_cell_angle_beta                 88.655(2)
_cell_angle_gamma                81.853(2)
_cell_volume                     975.89
_exptl_crystal_colour            colorless
_exptl_crystal_description       needle
_cell_formula_units_Z            2
loop_
_atom_site_label
_atom_site_type_symbol
_atom_site_fract_x
_atom_site_fract_y
_atom_site_fract_z
C1 C -0.0457(3) 0.6734(3) 0.8995(2)
C2 C -0.0111(3) 0.6476(2) 0.7993(2)
H1 H -0.1048 0.6579 0.7472
C3 C 0.1626(3) 0.6067(2) 0.7777(2)
C4 C 0.2986(3) 0.5934(3) 0.8587(2)
H2 H 0.4172 0.5667 0.8454
C5 C 0.2603(4) 0.6192(3) 0.9580(3)
H3 H 0.3533 0.6098 1.0103
C6 C 0.0869(4) 0.6583(3) 0.9805(2)
H4 H 0.0599 0.6740 1.0480
C7 C 0.2071(3) 0.5765(2) 0.6689(2)
H5 H 0.0949 0.5943 0.6229
C8 C 0.2802(3) 0.4380(2) 0.7008(2)
C9 C 0.4615(3) 0.3994(2) 0.7092(2)
C10 C 0.5167(3) 0.6173(2) 0.6009(2)
C11 C 0.3371(3) 0.6614(2) 0.5942(2)
C12 C 0.5611(3) 0.2668(3) 0.7567(3)
H6 H 0.4763 0.2074 0.7825
H7 H 0.6385 0.2571 0.8212
H8 H 0.6324 0.2511 0.6967
C13 C 0.6667(3) 0.6881(3) 0.5416(2)
H9 H 0.6185 0.7744 0.4955
H10 H 0.7267 0.6484 0.4921
H11 H 0.7512 0.6870 0.5993
C14 C 0.1422(3) 0.3531(2) 0.7265(2)
C15 C 0.0663(3) 0.1453(3) 0.7849(3)
H12 H -0.0125 0.1651 0.7174
H13 H -0.0064 0.1567 0.8472
C16 C 0.1570(4) 0.0101(3) 0.8231(3)
H14 H 0.0611 -0.0435 0.8457
C17 C 0.2527(5) -0.0174(4) 0.7250(3)
H15 H 0.1709 0.0081 0.6591
H16 H 0.2949 -0.1067 0.7499
H17 H 0.3534 0.0290 0.7035
C18 C 0.2795(6) -0.0275(4) 0.9301(3)
H18 H 0.2133 -0.0088 0.9906
H19 H 0.3798 0.0194 0.9106
H20 H 0.3229 -0.1167 0.9570
C19 C 0.2503(3) 0.7885(3) 0.5226(2)
C20 C 0.2766(5) 0.9990(3) 0.3988(3)
H21 H 0.3676 1.0519 0.3651
H22 H 0.2018 1.0343 0.4464
H23 H 0.2039 0.9948 0.3379
N1 N -0.2318(3) 0.7174(3) 0.9199(2)
N2 N 0.5745(3) 0.4921(2) 0.66909(19)
H24 H 0.6873 0.4699 0.6881
O1 O -0.2637(4) 0.7406(4) 1.0068(3)
O2 O -0.3485(3) 0.7291(3) 0.8481(3)
O3 O -0.0190(2) 0.39371(18) 0.72012(18)
O4 O 0.2021(2) 0.22996(16) 0.75587(16)
O5 O 0.3612(3) 0.87340(19) 0.46949(19)
O6 O 0.0880(3) 0.8176(2) 0.5115(2)
loop_
_geom_bond_atom_site_label_1
_geom_bond_atom_site_label_2
_geom_bond_site_symmetry_1
_geom_bond_site_symmetry_2
C1 C2 1_555 1_555
C2 H1 1_555 1_555
C3 C2 1_555 1_555
C4 C3 1_555 1_555
H2 C4 1_555 1_555
C5 C4 1_555 1_555
H3 C5 1_555 1_555
C6 C1 1_555 1_555
H4 C6 1_555 1_555
C7 C3 1_555 1_555
H5 C7 1_555 1_555
C8 C7 1_555 1_555
C9 C8 1_555 1_555
C10 C11 1_555 1_555
C11 C7 1_555 1_555
C12 C9 1_555 1_555
H6 C12 1_555 1_555
H7 C12 1_555 1_555
H8 C12 1_555 1_555
C13 C10 1_555 1_555
H9 C13 1_555 1_555
H10 C13 1_555 1_555
H11 C13 1_555 1_555
C14 C8 1_555 1_555
C15 H12 1_555 1_555
H13 C15 1_555 1_555
C16 C15 1_555 1_555
H14 C16 1_555 1_555
C17 C16 1_555 1_555
H15 C17 1_555 1_555
H16 C17 1_555 1_555
H17 C17 1_555 1_555
C18 C16 1_555 1_555
H18 C18 1_555 1_555
H19 C18 1_555 1_555
H20 C18 1_555 1_555
C19 C11 1_555 1_555
C20 H21 1_555 1_555
H22 C20 1_555 1_555
H23 C20 1_555 1_555
N1 C1 1_555 1_555
N2 C9 1_555 1_555
H24 N2 1_555 1_555
O1 N1 1_555 1_555
O2 N1 1_555 1_555
O3 C14 1_555 1_555
O4 C14 1_555 1_555
O5 C19 1_555 1_555
O6 C19 1_555 1_555
C5 C6 1_555 1_555
C10 N2 1_555 1_555
C15 O4 1_555 1_555
C20 O5 1_555 1_555

#END
