
#######################################################################
#
#                 Cambridge Crystallographic Data Centre
#                                CCDC 
#
#######################################################################
#
# If this CIF has been generated from an entry in the Cambridge 
# Structural Database, then it will include bibliographic, chemical, 
# crystal, experimental, refinement or atomic coordinate data resulting 
# from the CCDC's data processing and validation procedures.
#
#######################################################################

data_FULQIN
_chemical_formula_moiety         'C12 H15 N3 O4'
_chemical_name_systematic        
'(E)-Ethyl 3-((4-nitrophenyl)hydrazono)butanoate'
_symmetry_cell_setting           triclinic
_symmetry_space_group_name_H-M   'P -1'
_symmetry_Int_Tables_number      2
_space_group_name_Hall           '-P 1'
loop_
_symmetry_equiv_pos_site_id
_symmetry_equiv_pos_as_xyz
1 x,y,z
2 -x,-y,-z
_cell_length_a                   7.7027(2)
_cell_length_b                   7.8103(2)
_cell_length_c                   11.1761(3)
_cell_angle_alpha                77.054(2)
_cell_angle_beta                 79.425(2)
_cell_angle_gamma                81.097(2)
_cell_volume                     639.591
_exptl_crystal_colour            yellow
_exptl_crystal_description       slab
_chemical_melting_point          '116-118 deg.C'
_cell_formula_units_Z            2
_exptl_crystal_recrystallization_method ethanol
loop_
_atom_site_label
_atom_site_type_symbol
_atom_site_fract_x
_atom_site_fract_y
_atom_site_fract_z
O1 O 0.59503(13) 0.20212(13) -0.10899(9)
O2 O 0.79642(13) -0.04085(13) -0.09437(9)
O3 O 0.01510(15) 0.54542(14) 0.73575(10)
O4 O 0.08628(15) 0.26297(14) 0.78741(9)
N1 N 0.52173(15) 0.42792(16) 0.24831(10)
H1 H 0.517(2) 0.526(2) 0.1963(16)
N2 N 0.59656(14) 0.27606(15) 0.20679(10)
N3 N 0.09547(15) 0.40441(15) 0.71227(10)
C1 C 0.69476(17) 0.29646(19) 0.09912(12)
C2 C 0.77487(19) 0.12881(19) 0.05644(12)
H2 H 0.7474 0.0272 0.1248
H3 H 0.9058 0.1272 0.0386
C3 C 0.70993(17) 0.10513(17) -0.05785(12)
C4 C 0.41491(16) 0.41557(17) 0.36192(11)
C5 C 0.32496(17) 0.57209(18) 0.39583(12)
H4 H 0.3368 0.6820 0.3395
C6 C 0.21988(17) 0.56816(18) 0.50966(12)
H5 H 0.1584 0.6744 0.5319
C7 C 0.20458(16) 0.40648(17) 0.59203(11)
C8 C 0.29218(17) 0.24929(18) 0.56092(12)
H6 H 0.2802 0.1401 0.6181
C9 C 0.39716(17) 0.25325(17) 0.44577(12)
H7 H 0.4571 0.1465 0.4235
C10 C 0.74019(18) 0.47049(19) 0.01949(12)
H8 H 0.6304 0.5480 0.0039
H9 H 0.8106 0.4508 -0.0597
H10 H 0.8093 0.5262 0.0623
C11 C 0.75952(19) -0.08278(19) -0.20739(13)
H11 H 0.6454 -0.0162 -0.2287
H12 H 0.7492 -0.2107 -0.1938
C12 C 0.9081(2) -0.03414(19) -0.31281(14)
H13 H 0.9137 0.0937 -0.3289
H14 H 0.8857 -0.0671 -0.3877
H15 H 1.0214 -0.0974 -0.2902
loop_
_geom_bond_atom_site_label_1
_geom_bond_atom_site_label_2
_geom_bond_site_symmetry_1
_geom_bond_site_symmetry_2
O1 C3 1_555 1_555
O2 C3 1_555 1_555
O3 N3 1_555 1_555
O4 N3 1_555 1_555
N1 H1 1_555 1_555
N2 N1 1_555 1_555
N3 C7 1_555 1_555
C1 N2 1_555 1_555
C2 C1 1_555 1_555
H2 C2 1_555 1_555
H3 C2 1_555 1_555
C3 C2 1_555 1_555
C4 N1 1_555 1_555
C5 C4 1_555 1_555
H4 C5 1_555 1_555
C6 C5 1_555 1_555
H5 C6 1_555 1_555
C7 C6 1_555 1_555
C8 C7 1_555 1_555
H6 C8 1_555 1_555
C9 C4 1_555 1_555
H7 C9 1_555 1_555
C10 C1 1_555 1_555
H8 C10 1_555 1_555
H9 C10 1_555 1_555
H10 C10 1_555 1_555
C11 O2 1_555 1_555
H11 C11 1_555 1_555
H12 C11 1_555 1_555
C12 C11 1_555 1_555
H13 C12 1_555 1_555
H14 C12 1_555 1_555
H15 C12 1_555 1_555
C8 C9 1_555 1_555

#END
