
#######################################################################
#
#                 Cambridge Crystallographic Data Centre
#                                CCDC 
#
#######################################################################
#
# If this CIF has been generated from an entry in the Cambridge 
# Structural Database, then it will include bibliographic, chemical, 
# crystal, experimental, refinement or atomic coordinate data resulting 
# from the CCDC's data processing and validation procedures.
#
#######################################################################

data_FULQOU
_chemical_formula_moiety         'C15 H9 F3 N4 O2'
_chemical_name_systematic        
5-(4-Nitrophenyl)-1-(3-(trifluoromethyl)phenyl)-1H-1,2,3-triazole
_symmetry_cell_setting           monoclinic
_symmetry_space_group_name_H-M   'C 2/c'
_symmetry_Int_Tables_number      15
_space_group_name_Hall           '-C 2yn'
loop_
_symmetry_equiv_pos_site_id
_symmetry_equiv_pos_as_xyz
1 x,y,z
2 -x,y,1/2-z
3 1/2+x,1/2+y,z
4 1/2-x,1/2+y,1/2-z
5 -x,-y,-z
6 x,-y,1/2+z
7 1/2-x,1/2-y,-z
8 1/2+x,1/2-y,1/2+z
_cell_length_a                   25.7647(19)
_cell_length_b                   7.9823(5)
_cell_length_c                   15.4643(10)
_cell_angle_alpha                90
_cell_angle_beta                 117.091(4)
_cell_angle_gamma                90
_cell_volume                     2831.47
_exptl_crystal_colour            'light brown'
_exptl_crystal_description       plate
_cell_formula_units_Z            8
loop_
_atom_site_label
_atom_site_type_symbol
_atom_site_fract_x
_atom_site_fract_y
_atom_site_fract_z
F1 F -0.06016(8) 1.4388(2) 0.75206(13)
F2 F -0.06949(10) 1.4437(2) 0.88177(17)
F3 F 0.00772(9) 1.53538(18) 0.88072(16)
O1 O 0.19289(10) 0.3732(3) 0.82036(15)
O2 O 0.18238(10) 0.2164(2) 0.92331(15)
N1 N 0.18611(9) 0.3544(2) 0.89210(15)
N2 N 0.12475(7) 1.04652(19) 1.06465(12)
N3 N 0.13723(8) 1.1599(2) 1.13762(14)
N4 N 0.18449(9) 1.1090(3) 1.21243(14)
C1 C 0.16931(8) 0.7782(2) 1.03905(14)
C2 C 0.17985(9) 0.6206(3) 1.08258(15)
H1 H 0.1828 0.6084 1.1458
C3 C 0.18599(9) 0.4824(3) 1.03475(16)
H2 H 0.1931 0.3748 1.0641
C4 C 0.18166(8) 0.5038(2) 0.94344(15)
C5 C 0.17274(9) 0.6577(3) 0.89941(15)
H3 H 0.1710 0.6693 0.8370
C6 C 0.16633(9) 0.7951(3) 0.94769(15)
H4 H 0.1598 0.9024 0.9181
C7 C 0.16511(9) 0.9210(3) 1.09557(15)
C8 C 0.20167(11) 0.9637(3) 1.18933(17)
H5 H 0.2345 0.9000 1.2322
C9 C 0.07077(9) 1.0645(2) 0.97918(15)
C10 C 0.04888(9) 1.2242(3) 0.95067(15)
H6 H 0.0712 1.3193 0.9841
C11 C -0.00553(10) 1.2440(3) 0.87337(16)
C12 C -0.03795(10) 1.1065(3) 0.82342(17)
H7 H -0.0756 1.1211 0.7703
C13 C -0.01516(10) 0.9479(3) 0.85148(18)
H8 H -0.0368 0.8532 0.8162
C14 C 0.03859(9) 0.9257(3) 0.93017(16)
H9 H 0.0535 0.8160 0.9507
C15 C -0.03149(12) 1.4147(3) 0.8472(2)
loop_
_geom_bond_atom_site_label_1
_geom_bond_atom_site_label_2
_geom_bond_site_symmetry_1
_geom_bond_site_symmetry_2
F1 C15 1_555 1_555
F2 C15 1_555 1_555
F3 C15 1_555 1_555
O1 N1 1_555 1_555
O2 N1 1_555 1_555
N1 C4 1_555 1_555
N2 N3 1_555 1_555
N3 N4 1_555 1_555
N4 C8 1_555 1_555
C1 C2 1_555 1_555
C2 H1 1_555 1_555
C3 C2 1_555 1_555
H2 C3 1_555 1_555
C4 C3 1_555 1_555
C5 C4 1_555 1_555
H3 C5 1_555 1_555
C6 C1 1_555 1_555
H4 C6 1_555 1_555
C7 N2 1_555 1_555
C8 C7 1_555 1_555
H5 C8 1_555 1_555
C9 N2 1_555 1_555
C10 C9 1_555 1_555
H6 C10 1_555 1_555
C11 C10 1_555 1_555
C12 C11 1_555 1_555
H7 C12 1_555 1_555
C13 C12 1_555 1_555
H8 C13 1_555 1_555
C14 C9 1_555 1_555
H9 C14 1_555 1_555
C15 C11 1_555 1_555
C1 C7 1_555 1_555
C5 C6 1_555 1_555
C13 C14 1_555 1_555

#END
