
#######################################################################
#
#                 Cambridge Crystallographic Data Centre
#                                CCDC 
#
#######################################################################
#
# If this CIF has been generated from an entry in the Cambridge 
# Structural Database, then it will include bibliographic, chemical, 
# crystal, experimental, refinement or atomic coordinate data resulting 
# from the CCDC's data processing and validation procedures.
#
#######################################################################

data_FULSEM
_chemical_formula_moiety         'C22 H18 F1 N1 O4'
_chemical_name_systematic        
1-Allyl-4'-(4-fluorophenyl)-5-methoxyspiro[indole-3,2'-pyran]-2,6'(1H,3'H)-dione
_symmetry_cell_setting           orthorhombic
_symmetry_space_group_name_H-M   'P 21 21 21'
_symmetry_Int_Tables_number      19
_space_group_name_Hall           'P 2ac 2ab'
loop_
_symmetry_equiv_pos_site_id
_symmetry_equiv_pos_as_xyz
1 x,y,z
2 1/2-x,-y,1/2+z
3 -x,1/2+y,1/2-z
4 1/2+x,1/2-y,-z
_cell_length_a                   9.5333(7)
_cell_length_b                   11.1732(8)
_cell_length_c                   17.3909(12)
_cell_angle_alpha                90
_cell_angle_beta                 90
_cell_angle_gamma                90
_cell_volume                     1852.43
_exptl_crystal_colour            colorless
_exptl_crystal_description       block
_cell_formula_units_Z            4
loop_
_atom_site_label
_atom_site_type_symbol
_atom_site_fract_x
_atom_site_fract_y
_atom_site_fract_z
F1 F 0.3419(2) 0.81623(19) 0.38967(10)
O1 O 0.4068(2) 0.37720(16) 0.78041(10)
N1 N 0.7466(2) 0.4088(2) 0.80537(15)
O2 O 0.2771(2) 0.24115(17) 0.72313(12)
O3 O 0.6658(2) 0.3296(2) 0.69268(13)
O4 O 0.4613(2) 0.6893(2) 1.01355(11)
C1 C 0.3433(3) 0.3315(2) 0.71613(16)
C2 C 0.3503(3) 0.4016(2) 0.64529(16)
H1 H 0.3136 0.3687 0.6005
C3 C 0.4072(3) 0.5111(2) 0.64188(15)
C4 C 0.4796(3) 0.5594(2) 0.71196(15)
H2 H 0.4188 0.6179 0.7363
H3 H 0.5644 0.6005 0.6961
C5 C 0.5178(3) 0.4645(2) 0.77052(15)
C6 C 0.6519(3) 0.3925(3) 0.74875(16)
C7 C 0.6936(3) 0.4809(3) 0.86505(16)
C8 C 0.5561(3) 0.5145(2) 0.84806(14)
C9 C 0.4822(3) 0.5859(2) 0.89733(15)
H4 H 0.3916 0.6104 0.8852
C10 C 0.5446(3) 0.6217(3) 0.96617(16)
C11 C 0.6807(3) 0.5888(3) 0.98264(17)
H5 H 0.7220 0.6146 1.0282
C12 C 0.7569(4) 0.5180(3) 0.93230(17)
H6 H 0.8487 0.4960 0.9436
C13 C 0.3940(3) 0.5895(2) 0.57376(15)
C14 C 0.3093(4) 0.5590(3) 0.51184(18)
H7 H 0.2630 0.4857 0.5121
C15 C 0.2920(4) 0.6344(3) 0.45016(19)
H8 H 0.2349 0.6126 0.4091
C16 C 0.3597(4) 0.7412(3) 0.45006(16)
C17 C 0.4455(4) 0.7749(3) 0.50812(16)
H9 H 0.4927 0.8477 0.5062
C18 C 0.4615(4) 0.6993(3) 0.57014(16)
H10 H 0.5191 0.7226 0.6106
C19 C 0.8809(3) 0.3470(3) 0.8077(2)
H11 H 0.8751 0.2764 0.7754
H12 H 0.8979 0.3204 0.8600
C20 C 1.0005(4) 0.4189(4) 0.7826(2)
H13 H 1.0877 0.3818 0.7842
C21 C 0.9986(5) 0.5245(4) 0.7592(3)
H14 H 0.9141 0.5659 0.7563
H15 H 1.0817 0.5618 0.7445
C22 C 0.5193(5) 0.7310(4) 1.08309(18)
H16 H 0.6011 0.7783 1.0723
H17 H 0.5451 0.6641 1.1147
H18 H 0.4514 0.7791 1.1096
loop_
_geom_bond_atom_site_label_1
_geom_bond_atom_site_label_2
_geom_bond_site_symmetry_1
_geom_bond_site_symmetry_2
F1 C16 1_555 1_555
O1 C1 1_555 1_555
N1 C6 1_555 1_555
O2 C1 1_555 1_555
O3 C6 1_555 1_555
O4 C10 1_555 1_555
C1 C2 1_555 1_555
C2 H1 1_555 1_555
C3 C2 1_555 1_555
C4 C3 1_555 1_555
H2 C4 1_555 1_555
H3 C4 1_555 1_555
C5 O1 1_555 1_555
C6 C5 1_555 1_555
C7 N1 1_555 1_555
C8 C5 1_555 1_555
C9 C8 1_555 1_555
H4 C9 1_555 1_555
C10 C9 1_555 1_555
C11 C10 1_555 1_555
H5 C11 1_555 1_555
C12 C7 1_555 1_555
H6 C12 1_555 1_555
C13 C3 1_555 1_555
C14 C13 1_555 1_555
H7 C14 1_555 1_555
C15 C14 1_555 1_555
H8 C15 1_555 1_555
C16 C15 1_555 1_555
C17 C16 1_555 1_555
H9 C17 1_555 1_555
C18 C13 1_555 1_555
H10 C18 1_555 1_555
C19 N1 1_555 1_555
H11 C19 1_555 1_555
H12 C19 1_555 1_555
C20 C19 1_555 1_555
H13 C20 1_555 1_555
C21 C20 1_555 1_555
H14 C21 1_555 1_555
H15 C21 1_555 1_555
C22 O4 1_555 1_555
H16 C22 1_555 1_555
H17 C22 1_555 1_555
H18 C22 1_555 1_555
C4 C5 1_555 1_555
C7 C8 1_555 1_555
C11 C12 1_555 1_555
C17 C18 1_555 1_555

#END
