
#######################################################################
#
#                 Cambridge Crystallographic Data Centre
#                                CCDC 
#
#######################################################################
#
# If this CIF has been generated from an entry in the Cambridge 
# Structural Database, then it will include bibliographic, chemical, 
# crystal, experimental, refinement or atomic coordinate data resulting 
# from the CCDC's data processing and validation procedures.
#
#######################################################################

data_FULZOB
_chemical_formula_moiety         'C23 H21 Br1 N4 O5'
_chemical_name_systematic        
'Methyl 3a,5-dimethyl-7-(2-(p-bromobenzoyl)-4-(methoxycarbonyl)pyrrolyl)-3,3a-dihydropyrazolo(1,5-c)pyrimidine-2-carboxylate'
_symmetry_cell_setting           triclinic
_symmetry_space_group_name_H-M   'P -1'
_symmetry_Int_Tables_number      2
_space_group_name_Hall           '-P 1'
loop_
_symmetry_equiv_pos_site_id
_symmetry_equiv_pos_as_xyz
1 x,y,z
2 -x,-y,-z
_cell_length_a                   8.021(5)
_cell_length_b                   11.825(5)
_cell_length_c                   12.657(5)
_cell_angle_alpha                83.50(3)
_cell_angle_beta                 104.61(4)
_cell_angle_gamma                100.89(4)
_cell_volume                     1138.04
_exptl_crystal_colour            colorless
_chemical_melting_point          172-174deg.C
_cell_formula_units_Z            2
loop_
_atom_site_label
_atom_site_type_symbol
_atom_site_fract_x
_atom_site_fract_y
_atom_site_fract_z
Br1 Br 0.4433(1) 0.3580(7) 1.0865(7)
O1 O 0.8386(7) -0.3463(4) 0.7684(4)
O2 O 0.7531(7) -0.2043(4) 0.6461(4)
O3 O 0.7144(6) 0.4933(4) 0.4303(4)
O4 O 0.8213(8) 0.3836(5) 0.3383(4)
O5 O 1.0895(6) 0.2388(4) 0.8793(4)
N1 N 1.1878(7) 0.0998(4) 0.6464(4)
N2 N 0.9808(7) 0.0347(4) 0.7492(4)
N3 N 0.8144(7) 0.0312(5) 0.7642(5)
N4 N 0.9810(7) 0.2142(4) 0.6482(4)
C1 C 1.1645(9) -0.0949(6) 0.7288(5)
C2 C 1.2292(9) -0.0129(6) 0.6615(5)
C3 C 1.0580(9) 0.1135(5) 0.6838(5)
C4 C 0.7717(9) -0.0689(6) 0.8080(6)
C5 C 0.9011(9) -0.1506(6) 0.8231(5)
C6 C 1.0651(9) -0.0665(5) 0.8035(5)
C7 C 0.9444(9) 0.2531(6) 0.5399(5)
C8 C 0.8564(8) 0.3449(5) 0.5290(5)
C9 C 0.8345(9) 0.3633(6) 0.6343(6)
C10 C 0.9113(9) 0.2801(6) 0.7059(5)
C11 C 1.3488(10) -0.0301(7) 0.5939(7)
C12 C 1.1879(10) -0.0324(6) 0.9141(6)
C13 C 0.8281(9) -0.2464(6) 0.7448(6)
C14 C 0.6741(12) -0.2893(7) 0.5659(7)
C15 C 0.7938(9) 0.4075(6) 0.4230(6)
C16 C 0.6453(11) 0.5579(6) 0.3282(6)
C17 C 0.9531(9) 0.2717(6) 0.8269(5)
C18 C 0.8275(8) 0.3020(5) 0.8818(5)
C19 C 0.8907(9) 0.3535(6) 0.9817(6)
C20 C 0.7774(9) 0.3708(6) 1.0420(5)
C21 C 0.5993(9) 0.3363(6) 1.0022(6)
C22 C 0.5331(9) 0.2849(6) 0.9042(6)
C23 C 0.6453(9) 0.2692(6) 0.8433(5)
H1 H 1.196 -0.165 0.738
H2 H 0.676 -0.088 0.825
H3 H 0.920 -0.180 0.898
H4 H 0.987 0.217 0.476
H5 H 0.786 0.435 0.660
H6 H 1.465 0.026 0.615
H7 H 1.374 -0.110 0.598
H8 H 1.297 -0.010 0.534
H9 H 1.247 -0.115 0.945
H10 H 1.129 -0.005 0.954
H11 H 1.274 0.033 0.909
H12 H 0.744 -0.360 0.574
H13 H 0.684 -0.251 0.507
H14 H 0.581 -0.313 0.586
H15 H 0.684 0.635 0.340
H16 H 0.626 0.518 0.266
H17 H 1.009 0.389 1.000
H18 H 0.817 0.421 1.098
H19 H 0.421 0.257 0.878
H20 H 0.605 0.220 0.781
loop_
_geom_bond_atom_site_label_1
_geom_bond_atom_site_label_2
_geom_bond_site_symmetry_1
_geom_bond_site_symmetry_2
Br1 C21 1_555 1_555
O1 C13 1_555 1_555
O2 C13 1_555 1_555
O3 C15 1_555 1_555
O4 C15 1_555 1_555
O5 C17 1_555 1_555
N1 C2 1_555 1_555
N2 N3 1_555 1_555
N3 C4 1_555 1_555
N4 C3 1_555 1_555
C1 C2 1_555 1_555
C2 C11 1_555 1_555
C3 N1 1_555 1_555
C4 C5 1_555 1_555
C5 C6 1_555 1_555
C6 N2 1_555 1_555
C7 N4 1_555 1_555
C8 C7 1_555 1_555
C9 C8 1_555 1_555
C10 N4 1_555 1_555
C11 H6 1_555 1_555
C12 C6 1_555 1_555
C13 C5 1_555 1_555
C14 O2 1_555 1_555
C15 C8 1_555 1_555
C16 O3 1_555 1_555
C17 C10 1_555 1_555
C18 C17 1_555 1_555
C19 C18 1_555 1_555
C20 C19 1_555 1_555
C21 C20 1_555 1_555
C22 C21 1_555 1_555
C23 C18 1_555 1_555
H1 C1 1_555 1_555
H2 C4 1_555 1_555
H3 C5 1_555 1_555
H4 C7 1_555 1_555
H5 C9 1_555 1_555
H7 C11 1_555 1_555
H8 C11 1_555 1_555
H9 C12 1_555 1_555
H10 C12 1_555 1_555
H11 C12 1_555 1_555
H12 C14 1_555 1_555
H13 C14 1_555 1_555
H14 C14 1_555 1_555
H15 C16 1_555 1_555
H16 C16 1_555 1_555
H17 C19 1_555 1_555
H18 C20 1_555 1_555
H19 C22 1_555 1_555
H20 C23 1_555 1_555
N2 C3 1_555 1_555
C1 C6 1_555 1_555
C9 C10 1_555 1_555
C22 C23 1_555 1_555

#END
