
#######################################################################
#
#                 Cambridge Crystallographic Data Centre
#                                CCDC 
#
#######################################################################
#
# If this CIF has been generated from an entry in the Cambridge 
# Structural Database, then it will include bibliographic, chemical, 
# crystal, experimental, refinement or atomic coordinate data resulting 
# from the CCDC's data processing and validation procedures.
#
#######################################################################

data_FULZIV
_chemical_formula_moiety         'C13 H10 O2'
_chemical_name_systematic        
6,9-Dihydro-5,9-methano-5H-benzocycloheptene-6,10-carbolactone
_symmetry_cell_setting           orthorhombic
_symmetry_space_group_name_H-M   'P 21 21 21'
_symmetry_Int_Tables_number      19
_space_group_name_Hall           'P 2ac 2ab'
loop_
_symmetry_equiv_pos_site_id
_symmetry_equiv_pos_as_xyz
1 x,y,z
2 1/2+x,1/2-y,-z
3 -x,1/2+y,1/2-z
4 1/2-x,-y,1/2+z
_cell_length_a                   8.982(2)
_cell_length_b                   10.080(2)
_cell_length_c                   10.739(2)
_cell_angle_alpha                90
_cell_angle_beta                 90
_cell_angle_gamma                90
_cell_volume                     972.294
_chemical_melting_point          137-139deg.C
_cell_formula_units_Z            4
loop_
_atom_site_label
_atom_site_type_symbol
_atom_site_fract_x
_atom_site_fract_y
_atom_site_fract_z
C1 C 1.0608(3) 0.0666(2) 0.9607(2)
C2 C 0.9493(2) 0.1129(3) 1.0388(2)
C3 C 0.8171(3) 0.1611(3) 0.9911(2)
C4 C 0.7916(3) 0.1639(2) 0.8620(2)
C5 C 0.9026(2) 0.1173(2) 0.7847(2)
C6 C 0.9053(2) 0.1037(2) 0.6452(2)
C7 C 0.9845(2) 0.2107(2) 0.5662(2)
C8 C 1.1325(3) 0.2512(2) 0.6242(2)
C9 C 1.2090(2) 0.1650(2) 0.6906(2)
C10 C 1.1401(2) 0.0332(2) 0.7252(2)
C11 C 1.0364(2) 0.0683(2) 0.8332(2)
C12 C 1.0221(2) -0.0066(2) 0.6268(2)
O1 O 1.0692(2) 0.0039(2) 0.4983(1)
C13 C 1.0372(3) 0.1291(3) 0.4565(2)
O2 O 1.0588(3) 0.1595(2) 0.3507(2)
H1 H 1.1417(27) 0.0414(23) 0.9927(20)
H2 H 0.9713(43) 0.1005(39) 1.1358(31)
H3 H 0.7434(29) 0.1988(26) 1.0364(26)
H4 H 0.6925(29) 0.1995(24) 0.8181(20)
H5 H 0.8047(34) 0.0877(28) 0.5988(23)
H6 H 0.9220(27) 0.3046(23) 0.5318(22)
H7 H 1.1797(31) 0.3426(27) 0.5921(22)
H8 H 1.3002(26) 0.1823(23) 0.7276(22)
H9 H 1.2104(30) -0.0366(26) 0.7408(23)
H10 H 0.9789(28) -0.0848(25) 0.6329(20)
loop_
_geom_bond_atom_site_label_1
_geom_bond_atom_site_label_2
_geom_bond_site_symmetry_1
_geom_bond_site_symmetry_2
C1 C2 1_555 1_555
C2 C3 1_555 1_555
C3 C4 1_555 1_555
C4 C5 1_555 1_555
C5 C6 1_555 1_555
C6 C7 1_555 1_555
C7 C8 1_555 1_555
C8 C9 1_555 1_555
C9 C10 1_555 1_555
C10 C11 1_555 1_555
C11 C1 1_555 1_555
C12 C6 1_555 1_555
O1 C12 1_555 1_555
C13 C7 1_555 1_555
O2 C13 1_555 1_555
H1 C1 1_555 1_555
H2 C2 1_555 1_555
H3 C3 1_555 1_555
H4 C4 1_555 1_555
H5 C6 1_555 1_555
H6 C7 1_555 1_555
H7 C8 1_555 1_555
H8 C9 1_555 1_555
H9 C10 1_555 1_555
H10 C12 1_555 1_555
C5 C11 1_555 1_555
C10 C12 1_555 1_555
O1 C13 1_555 1_555

#END
