
#######################################################################
#
#                 Cambridge Crystallographic Data Centre
#                                CCDC 
#
#######################################################################
#
# If this CIF has been generated from an entry in the Cambridge 
# Structural Database, then it will include bibliographic, chemical, 
# crystal, experimental, refinement or atomic coordinate data resulting 
# from the CCDC's data processing and validation procedures.
#
#######################################################################

data_FUMFEZ
_chemical_formula_moiety         'C25 H21 F2 N3 O4'
_chemical_name_systematic        
'Methyl 3-(7-(3-(cyclopropylmethoxy)-4-(difluoromethoxy)phenyl)pyrazolo[1,5-a]pyrimidin-2-yl)benzoate'
_symmetry_cell_setting           monoclinic
_symmetry_space_group_name_H-M   'P 21/n'
_symmetry_Int_Tables_number      14
_space_group_name_Hall           '-P 2yn'
loop_
_symmetry_equiv_pos_site_id
_symmetry_equiv_pos_as_xyz
1 x,y,z
2 1/2-x,1/2+y,1/2-z
3 -x,-y,-z
4 1/2+x,1/2-y,1/2+z
_cell_length_a                   10.909(5)
_cell_length_b                   22.754(11)
_cell_length_c                   17.926(7)
_cell_angle_alpha                90
_cell_angle_beta                 90.57(3)
_cell_angle_gamma                90
_cell_volume                     4449.43
_exptl_crystal_colour            yellow
_exptl_crystal_description       plate
_cell_formula_units_Z            8
loop_
_atom_site_label
_atom_site_type_symbol
_atom_site_fract_x
_atom_site_fract_y
_atom_site_fract_z
N1 N 0.9119(5) -0.0186(2) 0.1637(3)
C1 C 0.8384(6) 0.0139(3) 0.2069(4)
C2 C 0.8714(7) 0.0729(3) 0.2055(4)
H1 H 0.8341 0.1037 0.2309
C3 C 0.9693(7) 0.0765(3) 0.1595(4)
N2 N 1.0378(7) 0.1226(2) 0.1367(4)
C4 C 1.1249(8) 0.1104(3) 0.0895(5)
H2 H 1.1719 0.1416 0.0721
C5 C 1.1528(6) 0.0545(3) 0.0633(3)
H3 H 1.2172 0.0497 0.0303
C6 C 1.0869(7) 0.0065(3) 0.0854(4)
N3 N 0.9945(6) 0.0196(2) 0.1337(3)
C7 C 0.7412(7) -0.0160(3) 0.2477(4)
C8 C 0.7218(7) -0.0760(3) 0.2392(4)
H4 H 0.7703 -0.0973 0.2063
C9 C 0.6318(8) -0.1045(4) 0.2787(5)
H5 H 0.6208 -0.1448 0.2725
C10 C 0.5585(7) -0.0744(4) 0.3268(5)
H6 H 0.4977 -0.0939 0.3531
C11 C 0.5760(8) -0.0140(3) 0.3360(4)
C12 C 0.6672(7) 0.0145(3) 0.2967(4)
H7 H 0.6789 0.0547 0.3033
C13 C 0.4946(10) 0.0166(4) 0.3875(5)
O1 O 0.4129(6) -0.0055(3) 0.4233(4)
O2 O 0.5173(5) 0.0740(3) 0.3921(3)
C14 C 0.4418(9) 0.1077(4) 0.4413(5)
H8 H 0.4664 0.1482 0.4398
H9 H 0.4508 0.0931 0.4912
H10 H 0.3576 0.1045 0.4257
C15 C 1.1121(6) -0.0543(3) 0.0608(4)
C16 C 1.0566(6) -0.1033(3) 0.0924(4)
H11 H 1.0012 -0.0988 0.1311
C17 C 1.0842(8) -0.1591(3) 0.0658(4)
C18 C 1.1682(7) -0.1663(3) 0.0092(4)
C19 C 1.2261(7) -0.1185(3) -0.0208(4)
H12 H 1.2843 -0.1235 -0.0578
C20 C 1.1970(7) -0.0620(3) 0.0046(4)
H13 H 1.2350 -0.0295 -0.0163
O3 O 1.0321(6) -0.2090(2) 0.0921(4)
C21 C 0.9265(10) -0.2015(3) 0.1377(6)
H14 H 0.8695 -0.1748 0.1134
H15 H 0.9508 -0.1845 0.1852
C22 C 0.8654(17) -0.2590(5) 0.1505(7)
H16 H 0.8451 -0.2816 0.1056
C23 C 0.9032(12) -0.2928(4) 0.2146(8)
H17 H 0.9083 -0.3351 0.2092
H18 H 0.9634 -0.2756 0.2483
C24 C 0.788(2) -0.2670(6) 0.2104(8)
H19 H 0.7183 -0.2927 0.2033
H20 H 0.7733 -0.2333 0.2423
O4 O 1.1954(6) -0.2229(2) -0.0158(3)
C25 C 1.1280(11) -0.2431(4) -0.0705(6)
H21 H 1.0468 -0.2248 -0.0743
F1 F 1.1255(6) -0.2989(3) -0.0671(5)
F2 F 1.1928(15) -0.2375(4) -0.1296(4)
N4 N 1.1092(5) 0.0004(2) 0.3204(3)
C26 C 1.1817(7) -0.0333(3) 0.2772(4)
C27 C 1.1471(7) -0.0925(3) 0.2803(4)
H22 H 1.1837 -0.1238 0.2557
C28 C 1.0487(8) -0.0951(3) 0.3267(4)
N5 N 0.9802(7) -0.1410(3) 0.3495(4)
C29 C 0.8915(8) -0.1282(4) 0.3963(5)
H23 H 0.8426 -0.1589 0.4128
C30 C 0.8657(6) -0.0720(3) 0.4226(4)
H24 H 0.8024 -0.0666 0.4563
C31 C 0.9338(7) -0.0241(3) 0.3990(4)
N6 N 1.0264(6) -0.0375(2) 0.3509(3)
C32 C 1.2796(7) -0.0067(3) 0.2347(4)
C33 C 1.3049(6) 0.0529(3) 0.2380(4)
H25 H 1.2592 0.0769 0.2692
C34 C 1.3958(8) 0.0771(3) 0.1961(5)
H26 H 1.4111 0.1173 0.1992
C35 C 1.4659(7) 0.0425(3) 0.1486(4)
H27 H 1.5281 0.0590 0.1203
C36 C 1.4407(7) -0.0175(3) 0.1447(4)
C37 C 1.3486(7) -0.0408(3) 0.1869(4)
H28 H 1.3320 -0.0808 0.1833
C38 C 1.5169(8) -0.0536(4) 0.0955(4)
O5 O 1.6004(6) -0.0366(3) 0.0573(3)
O6 O 1.4866(5) -0.1106(2) 0.0966(3)
C39 C 1.5580(9) -0.1504(4) 0.0505(5)
H29 H 1.5270 -0.1896 0.0556
H30 H 1.6424 -0.1493 0.0663
H31 H 1.5518 -0.1384 -0.0007
C40 C 0.9103(7) 0.0366(3) 0.4250(4)
C41 C 0.9695(6) 0.0859(3) 0.3969(4)
H32 H 1.0270 0.0812 0.3594
C42 C 0.9452(9) 0.1413(3) 0.4231(5)
C43 C 0.8583(9) 0.1491(3) 0.4769(5)
C44 C 0.7959(7) 0.1015(4) 0.5053(4)
H33 H 0.7362 0.1067 0.5414
C45 C 0.8236(7) 0.0462(3) 0.4793(4)
H34 H 0.7823 0.0141 0.4991
O7 O 1.0021(8) 0.1908(3) 0.3969(4)
C46 C 1.1051(12) 0.1826(4) 0.3482(9)
H35 H 1.1661 0.1582 0.3728
H36 H 1.0782 0.1626 0.3031
C47 C 1.1585(13) 0.2380(6) 0.3291(7)
H37 H 1.1901 0.2606 0.3717
C48 C 1.2334(12) 0.2418(5) 0.2620(7)
H38 H 1.2370 0.2079 0.2294
H39 H 1.3069 0.2658 0.2638
C49 C 1.1120(11) 0.2715(4) 0.2723(7)
H40 H 1.1119 0.3138 0.2789
H41 H 1.0422 0.2561 0.2446
O8 O 0.8399(7) 0.2067(2) 0.4986(3)
C50 C 0.7964(11) 0.2175(3) 0.5693(6)
H42 H 0.8284 0.1896 0.6063
F3 F 0.6776(7) 0.2177(3) 0.5661(5)
F4 F 0.8301(6) 0.2730(2) 0.5841(3)
loop_
_geom_bond_atom_site_label_1
_geom_bond_atom_site_label_2
_geom_bond_site_symmetry_1
_geom_bond_site_symmetry_2
N1 C1 1_555 1_555
C1 C2 1_555 1_555
C2 H1 1_555 1_555
C3 C2 1_555 1_555
N2 C3 1_555 1_555
C4 N2 1_555 1_555
H2 C4 1_555 1_555
C5 C4 1_555 1_555
H3 C5 1_555 1_555
C6 C5 1_555 1_555
N3 N1 1_555 1_555
C7 C1 1_555 1_555
C8 C7 1_555 1_555
H4 C8 1_555 1_555
C9 C8 1_555 1_555
H5 C9 1_555 1_555
C10 C9 1_555 1_555
H6 C10 1_555 1_555
C11 C10 1_555 1_555
C12 C7 1_555 1_555
H7 C12 1_555 1_555
C13 C11 1_555 1_555
O1 C13 1_555 1_555
O2 C13 1_555 1_555
C14 O2 1_555 1_555
H8 C14 1_555 1_555
H9 C14 1_555 1_555
H10 C14 1_555 1_555
C15 C6 1_555 1_555
C16 C15 1_555 1_555
H11 C16 1_555 1_555
C17 C16 1_555 1_555
C18 C17 1_555 1_555
C19 C18 1_555 1_555
H12 C19 1_555 1_555
C20 C15 1_555 1_555
H13 C20 1_555 1_555
O3 C17 1_555 1_555
C21 O3 1_555 1_555
H14 C21 1_555 1_555
H15 C21 1_555 1_555
C22 C21 1_555 1_555
H16 C22 1_555 1_555
C23 C22 1_555 1_555
H17 C23 1_555 1_555
H18 C23 1_555 1_555
C24 C22 1_555 1_555
H19 C24 1_555 1_555
H20 C24 1_555 1_555
O4 C18 1_555 1_555
C25 O4 1_555 1_555
H21 C25 1_555 1_555
F1 C25 1_555 1_555
F2 C25 1_555 1_555
N4 C26 1_555 1_555
C26 C27 1_555 1_555
C27 H22 1_555 1_555
C28 C27 1_555 1_555
N5 C28 1_555 1_555
C29 N5 1_555 1_555
H23 C29 1_555 1_555
C30 C29 1_555 1_555
H24 C30 1_555 1_555
C31 C30 1_555 1_555
N6 N4 1_555 1_555
C32 C26 1_555 1_555
C33 C32 1_555 1_555
H25 C33 1_555 1_555
C34 C33 1_555 1_555
H26 C34 1_555 1_555
C35 C34 1_555 1_555
H27 C35 1_555 1_555
C36 C35 1_555 1_555
C37 C32 1_555 1_555
H28 C37 1_555 1_555
C38 C36 1_555 1_555
O5 C38 1_555 1_555
O6 C38 1_555 1_555
C39 O6 1_555 1_555
H29 C39 1_555 1_555
H30 C39 1_555 1_555
H31 C39 1_555 1_555
C40 C31 1_555 1_555
C41 C40 1_555 1_555
H32 C41 1_555 1_555
C42 C41 1_555 1_555
C43 C42 1_555 1_555
C44 C43 1_555 1_555
H33 C44 1_555 1_555
C45 C40 1_555 1_555
H34 C45 1_555 1_555
O7 C42 1_555 1_555
C46 O7 1_555 1_555
H35 C46 1_555 1_555
H36 C46 1_555 1_555
C47 C46 1_555 1_555
H37 C47 1_555 1_555
C48 C47 1_555 1_555
H38 C48 1_555 1_555
H39 C48 1_555 1_555
C49 C47 1_555 1_555
H40 C49 1_555 1_555
H41 C49 1_555 1_555
O8 C43 1_555 1_555
C50 O8 1_555 1_555
H42 C50 1_555 1_555
F3 C50 1_555 1_555
F4 C50 1_555 1_555
C3 N3 1_555 1_555
C6 N3 1_555 1_555
C11 C12 1_555 1_555
C19 C20 1_555 1_555
C23 C24 1_555 1_555
C28 N6 1_555 1_555
C31 N6 1_555 1_555
C36 C37 1_555 1_555
C44 C45 1_555 1_555
C48 C49 1_555 1_555

#END
