
#######################################################################
#
#                 Cambridge Crystallographic Data Centre
#                                CCDC 
#
#######################################################################
#
# If this CIF has been generated from an entry in the Cambridge 
# Structural Database, then it will include bibliographic, chemical, 
# crystal, experimental, refinement or atomic coordinate data resulting 
# from the CCDC's data processing and validation procedures.
#
#######################################################################

data_FUMHEB
_chemical_formula_moiety         'C14 H16 N2 O4'
_chemical_name_systematic        
'Ethyl 9-methyl-11-oxo-8-oxa-10,12-diazatricyclo[7.3.1.0^2,7^]trideca-2,4,6-triene-13-carboxylate'
_symmetry_cell_setting           triclinic
_symmetry_space_group_name_H-M   'P -1'
_symmetry_Int_Tables_number      2
_space_group_name_Hall           '-P 1'
loop_
_symmetry_equiv_pos_site_id
_symmetry_equiv_pos_as_xyz
1 x,y,z
2 -x,-y,-z
_cell_length_a                   9.2424(14)
_cell_length_b                   12.766(2)
_cell_length_c                   13.495(2)
_cell_angle_alpha                67.396(2)
_cell_angle_beta                 73.047(2)
_cell_angle_gamma                71.882(2)
_cell_volume                     1369.93
_exptl_crystal_colour            colorless
_exptl_crystal_description       block
_chemical_melting_point          '198-200 deg.C'
_cell_formula_units_Z            4
loop_
_atom_site_label
_atom_site_type_symbol
_atom_site_fract_x
_atom_site_fract_y
_atom_site_fract_z
O1 O 1.00094(18) 0.34152(12) 0.30902(13)
O2 O 0.9630(2) 0.65264(13) 0.39364(13)
N1 N 0.8937(2) 0.65093(15) 0.24628(15)
C1 C 0.8808(3) 0.58101(19) 0.18664(18)
H1 H 0.8316 0.6320 0.1241
C2 C 0.9281(3) 0.59940(18) 0.34701(18)
N2 N 0.9227(2) 0.48504(15) 0.39692(15)
C3 C 0.8686(3) 0.41718(18) 0.35670(18)
C4 C 1.0866(3) 0.39520(19) 0.21032(19)
C5 C 0.7796(3) 0.49594(19) 0.26499(18)
H2 H 0.7727 0.4476 0.2257
C6 C 1.0367(3) 0.5101(2) 0.14715(18)
C7 C 0.7821(3) 0.3342(2) 0.4512(2)
H3 H 0.8463 0.2887 0.5046
H4 H 0.7565 0.2835 0.4249
H5 H 0.6885 0.3777 0.4842
C8 C 1.1324(3) 0.5565(2) 0.0491(2)
H6 H 1.1010 0.6334 0.0064
O3 O 0.5717(2) 0.5952(2) 0.37728(19)
C9 C 1.2272(3) 0.3280(2) 0.1737(2)
H7 H 1.2587 0.2506 0.2152
C10 C 0.6169(3) 0.5601(2) 0.3016(2)
C11 C 1.3200(3) 0.3760(3) 0.0759(3)
H8 H 1.4145 0.3310 0.0517
C12 C 1.2737(3) 0.4903(3) 0.0138(2)
H9 H 1.3372 0.5228 -0.0517
O4 O 0.5299(2) 0.5743(3) 0.2347(2)
C13 C 0.3674(5) 0.6378(6) 0.2529(4)
H10 H 0.3032 0.6318 0.3213
C14 C 0.3246(5) 0.7050(6) 0.1583(5)
H11 H 0.3952 0.7067 0.0928
H12 H 0.2241 0.7504 0.1575
H13 H 0.9566 0.4467 0.4651
H14 H 0.9149 0.7258 0.2103
O5 O 0.9462(2) -0.12120(14) 0.12271(13)
N3 N 0.9563(2) -0.09688(16) 0.27839(15)
O6 O 1.1183(2) -0.06895(14) 0.37032(13)
N4 N 1.0186(3) 0.03853(18) 0.10944(17)
C15 C 0.9734(3) -0.06184(18) 0.16750(19)
C16 C 1.0643(3) 0.1004(2) 0.1628(2)
H15 H 1.0610 0.1813 0.1154
C17 C 1.2429(3) -0.0367(2) 0.2891(2)
C18 C 0.9660(3) -0.03057(19) 0.34071(19)
C19 C 1.2256(3) 0.0436(2) 0.1876(2)
C20 C 0.9482(3) 0.0984(2) 0.2702(2)
H16 H 0.9813 0.1376 0.3068
C21 C 0.7871(4) 0.1661(2) 0.2484(3)
C22 C 0.8580(3) -0.0596(3) 0.4507(2)
H17 H 0.7533 -0.0403 0.4403
H18 H 0.8651 -0.0157 0.4924
H19 H 0.8868 -0.1413 0.4895
C23 C 1.3885(3) -0.0904(3) 0.3159(3)
H20 H 1.3981 -0.1446 0.3847
C24 C 1.3590(4) 0.0692(3) 0.1114(2)
H21 H 1.3501 0.1224 0.0421
O7 O 0.6814(3) 0.1629(3) 0.3319(2)
C25 C 1.5043(4) 0.0167(3) 0.1373(3)
H22 H 1.5926 0.0348 0.0858
C26 C 1.5179(4) -0.0625(3) 0.2397(3)
H23 H 1.6157 -0.0975 0.2573
O8 O 0.7609(4) 0.2228(4) 0.1628(3)
C27 C 0.5227(5) 0.2233(6) 0.3169(5)
H24 H 0.5254 0.2913 0.2518
H25 H 0.4745 0.1721 0.3060
C28 C 0.4351(5) 0.2573(5) 0.4052(5)
H26 H 0.4338 0.1903 0.4700
H27 H 0.3310 0.2940 0.3936
H28 H 0.4793 0.3114 0.4138
H29 H 0.9590 -0.1708 0.3196
H30 H 1.0355 0.0684 0.0315
loop_
_geom_bond_atom_site_label_1
_geom_bond_atom_site_label_2
_geom_bond_site_symmetry_1
_geom_bond_site_symmetry_2
O1 C3 1_555 1_555
O2 C2 1_555 1_555
N1 C1 1_555 1_555
C1 H1 1_555 1_555
C2 N1 1_555 1_555
N2 C2 1_555 1_555
C3 N2 1_555 1_555
C4 O1 1_555 1_555
C5 C1 1_555 1_555
H2 C5 1_555 1_555
C6 C1 1_555 1_555
C7 C3 1_555 1_555
H3 C7 1_555 1_555
H4 C7 1_555 1_555
H5 C7 1_555 1_555
C8 C6 1_555 1_555
H6 C8 1_555 1_555
O3 C10 1_555 1_555
C9 C4 1_555 1_555
H7 C9 1_555 1_555
C10 C5 1_555 1_555
C11 C9 1_555 1_555
H8 C11 1_555 1_555
C12 C8 1_555 1_555
H9 C12 1_555 1_555
O4 C10 1_555 1_555
C13 O4 1_555 1_555
H10 C13 1_555 1_555
C14 C13 1_555 1_555
H11 C14 1_555 1_555
H12 C14 1_555 1_555
H13 N2 1_555 1_555
H14 N1 1_555 1_555
O5 C15 1_555 1_555
N3 C15 1_555 1_555
O6 C17 1_555 1_555
N4 C15 1_555 1_555
C16 N4 1_555 1_555
H15 C16 1_555 1_555
C17 C19 1_555 1_555
C18 N3 1_555 1_555
C19 C16 1_555 1_555
C20 C16 1_555 1_555
H16 C20 1_555 1_555
C21 C20 1_555 1_555
C22 C18 1_555 1_555
H17 C22 1_555 1_555
H18 C22 1_555 1_555
H19 C22 1_555 1_555
C23 C17 1_555 1_555
H20 C23 1_555 1_555
C24 C19 1_555 1_555
H21 C24 1_555 1_555
O7 C21 1_555 1_555
C25 C24 1_555 1_555
H22 C25 1_555 1_555
C26 C23 1_555 1_555
H23 C26 1_555 1_555
O8 C21 1_555 1_555
C27 O7 1_555 1_555
H24 C27 1_555 1_555
H25 C27 1_555 1_555
C28 C27 1_555 1_555
H26 C28 1_555 1_555
H27 C28 1_555 1_555
H28 C28 1_555 1_555
H29 N3 1_555 1_555
H30 N4 1_555 1_555
C3 C5 1_555 1_555
C4 C6 1_555 1_555
C11 C12 1_555 1_555
O6 C18 1_555 1_555
C18 C20 1_555 1_555
C25 C26 1_555 1_555

#END
