
#######################################################################
#
#                 Cambridge Crystallographic Data Centre
#                                CCDC 
#
#######################################################################
#
# If this CIF has been generated from an entry in the Cambridge 
# Structural Database, then it will include bibliographic, chemical, 
# crystal, experimental, refinement or atomic coordinate data resulting 
# from the CCDC's data processing and validation procedures.
#
#######################################################################

data_FUMKEE
_chemical_formula_moiety         'C29 H20 O4'
_chemical_name_systematic        
4-(4-Methoxyphenyl)-2-((4-methoxyphenyl)ethynyl)-9H-xanthen-9-one
_symmetry_cell_setting           orthorhombic
_symmetry_space_group_name_H-M   'P 21 21 21'
_symmetry_Int_Tables_number      19
_space_group_name_Hall           'P 2ac 2ab'
loop_
_symmetry_equiv_pos_site_id
_symmetry_equiv_pos_as_xyz
1 x,y,z
2 1/2-x,-y,1/2+z
3 -x,1/2+y,1/2-z
4 1/2+x,1/2-y,-z
_cell_length_a                   6.3113(6)
_cell_length_b                   8.5733(9)
_cell_length_c                   39.914(4)
_cell_angle_alpha                90
_cell_angle_beta                 90
_cell_angle_gamma                90
_cell_volume                     2159.69
_exptl_crystal_colour            green
_exptl_crystal_description       prismatic
_cell_formula_units_Z            4
loop_
_atom_site_label
_atom_site_type_symbol
_atom_site_fract_x
_atom_site_fract_y
_atom_site_fract_z
O1 O -0.0679(3) 1.2999(2) 0.17202(4)
O2 O -0.2232(2) 1.03306(16) 0.09064(4)
O3 O -0.1735(3) 0.44989(19) -0.00314(4)
O4 O 1.4148(3) 0.66696(19) 0.24127(4)
C1 C -0.1131(4) 1.2224(3) 0.14733(6)
C2 C -0.3025(4) 1.2523(3) 0.12713(5)
C3 C -0.4428(4) 1.3730(3) 0.13466(6)
H1 H -0.4160 1.4373 0.1530
C4 C -0.6199(4) 1.3983(3) 0.11541(7)
H2 H -0.7129 1.4786 0.1208
C5 C -0.6598(4) 1.3038(3) 0.08789(6)
H3 H -0.7791 1.3218 0.0748
C6 C -0.5244(4) 1.1836(3) 0.07987(5)
H4 H -0.5511 1.1204 0.0614
C7 C -0.3478(4) 1.1582(2) 0.09974(5)
C8 C -0.0445(3) 0.9998(3) 0.10900(5)
C9 C 0.0180(4) 1.0908(2) 0.13604(6)
C10 C 0.2047(4) 1.0531(3) 0.15294(6)
H5 H 0.2464 1.1130 0.1712
C11 C 0.3285(4) 0.9291(3) 0.14308(6)
C12 C 0.2590(4) 0.8403(3) 0.11577(6)
H6 H 0.3422 0.7568 0.1088
C13 C 0.0739(3) 0.8700(3) 0.09872(5)
C14 C 0.0024(4) 0.7633(2) 0.07149(5)
C15 C 0.1322(4) 0.7288(3) 0.04457(6)
H7 H 0.2645 0.7758 0.0429
C16 C 0.0675(4) 0.6251(3) 0.02007(6)
H8 H 0.1550 0.6058 0.0018
C17 C -0.1240(4) 0.5506(3) 0.02242(6)
C18 C -0.2545(4) 0.5823(3) 0.04916(6)
H9 H -0.3849 0.5326 0.0511
C19 C -0.1903(4) 0.6889(3) 0.07320(6)
H10 H -0.2802 0.7108 0.0910
C20 C 0.5199(4) 0.8886(3) 0.16063(6)
C21 C 0.6767(4) 0.8527(3) 0.17538(6)
C22 C 0.8650(4) 0.8087(3) 0.19298(5)
C23 C 0.9507(4) 0.8999(3) 0.21805(6)
H11 H 0.8840 0.9930 0.2237
C24 C 1.1316(4) 0.8577(3) 0.23498(6)
H12 H 1.1849 0.9209 0.2519
C25 C 1.2331(4) 0.7208(3) 0.22660(6)
C26 C 1.1500(4) 0.6275(3) 0.20171(6)
H13 H 1.2177 0.5348 0.1961
C27 C 0.9684(4) 0.6700(3) 0.18519(6)
H14 H 0.9138 0.6054 0.1686
C28 C -0.3748(5) 0.3788(3) -0.00287(7)
H15 H -0.3861 0.3115 0.0163
H16 H -0.3929 0.3188 -0.0230
H17 H -0.4824 0.4578 -0.0017
C29 C 1.5089(5) 0.7591(3) 0.26684(6)
H18 H 1.5305 0.8632 0.2587
H19 H 1.6427 0.7145 0.2731
H20 H 1.4170 0.7617 0.2860
loop_
_geom_bond_atom_site_label_1
_geom_bond_atom_site_label_2
_geom_bond_site_symmetry_1
_geom_bond_site_symmetry_2
O1 C1 1_555 1_555
O2 C7 1_555 1_555
O3 C17 1_555 1_555
O4 C25 1_555 1_555
C1 C2 1_555 1_555
C2 C3 1_555 1_555
C3 H1 1_555 1_555
C4 C3 1_555 1_555
H2 C4 1_555 1_555
C5 C4 1_555 1_555
H3 C5 1_555 1_555
C6 C5 1_555 1_555
H4 C6 1_555 1_555
C7 C2 1_555 1_555
C8 O2 1_555 1_555
C9 C1 1_555 1_555
C10 C9 1_555 1_555
H5 C10 1_555 1_555
C11 C10 1_555 1_555
C12 C11 1_555 1_555
H6 C12 1_555 1_555
C13 C8 1_555 1_555
C14 C13 1_555 1_555
C15 C14 1_555 1_555
H7 C15 1_555 1_555
C16 C15 1_555 1_555
H8 C16 1_555 1_555
C17 C16 1_555 1_555
C18 C17 1_555 1_555
H9 C18 1_555 1_555
C19 C14 1_555 1_555
H10 C19 1_555 1_555
C20 C11 1_555 1_555
C21 C20 1_555 1_555
C22 C21 1_555 1_555
C23 C22 1_555 1_555
H11 C23 1_555 1_555
C24 C23 1_555 1_555
H12 C24 1_555 1_555
C25 C24 1_555 1_555
C26 C25 1_555 1_555
H13 C26 1_555 1_555
C27 C22 1_555 1_555
H14 C27 1_555 1_555
C28 O3 1_555 1_555
H15 C28 1_555 1_555
H16 C28 1_555 1_555
H17 C28 1_555 1_555
C29 O4 1_555 1_555
H18 C29 1_555 1_555
H19 C29 1_555 1_555
H20 C29 1_555 1_555
C6 C7 1_555 1_555
C8 C9 1_555 1_555
C12 C13 1_555 1_555
C18 C19 1_555 1_555
C26 C27 1_555 1_555

#END
