
#######################################################################
#
#                 Cambridge Crystallographic Data Centre
#                                CCDC 
#
#######################################################################
#
# If this CIF has been generated from an entry in the Cambridge 
# Structural Database, then it will include bibliographic, chemical, 
# crystal, experimental, refinement or atomic coordinate data resulting 
# from the CCDC's data processing and validation procedures.
#
#######################################################################

data_FUMKII
_chemical_formula_moiety         'C26 H16 O4'
_chemical_name_systematic        
2-(2-Hydroxybenzoyl)-4-phenyl-9H-xanthen-9-one
_symmetry_cell_setting           orthorhombic
_symmetry_space_group_name_H-M   'P b c a'
_symmetry_Int_Tables_number      61
_space_group_name_Hall           '-P 2ac 2ab'
loop_
_symmetry_equiv_pos_site_id
_symmetry_equiv_pos_as_xyz
1 x,y,z
2 1/2-x,-y,1/2+z
3 -x,1/2+y,1/2-z
4 1/2+x,1/2-y,-z
5 -x,-y,-z
6 1/2+x,y,1/2-z
7 x,1/2-y,1/2+z
8 1/2-x,1/2+y,z
_cell_length_a                   14.460(2)
_cell_length_b                   7.7990(12)
_cell_length_c                   33.363(5)
_cell_angle_alpha                90
_cell_angle_beta                 90
_cell_angle_gamma                90
_cell_volume                     3762.46
_exptl_crystal_colour            green
_exptl_crystal_description       prismatic
_cell_formula_units_Z            8
loop_
_atom_site_label
_atom_site_type_symbol
_atom_site_fract_x
_atom_site_fract_y
_atom_site_fract_z
O1 O 0.70123(11) 0.4184(3) 0.53950(5)
O2 O 0.96349(10) 0.2371(2) 0.55656(4)
O3 O 0.79026(11) 0.3920(2) 0.72214(5)
O4 O 0.64246(12) 0.4868(3) 0.75659(6)
H1 H 0.6979 0.4893 0.7515
C1 C 0.78099(16) 0.3682(3) 0.54450(7)
C2 C 0.84776(16) 0.3530(3) 0.51177(7)
C3 C 0.82730(19) 0.4063(4) 0.47292(8)
H2 H 0.7692 0.4513 0.4672
C4 C 0.8915(2) 0.3931(5) 0.44321(8)
H3 H 0.8775 0.4307 0.4175
C5 C 0.9777(2) 0.3236(4) 0.45141(8)
H4 H 1.0209 0.3143 0.4309
C6 C 1.00019(18) 0.2687(4) 0.48889(7)
H5 H 1.0577 0.2201 0.4941
C7 C 0.93529(15) 0.2872(3) 0.51917(7)
C8 C 0.90654(14) 0.2588(3) 0.58869(7)
C9 C 0.81681(14) 0.3212(3) 0.58416(7)
C10 C 0.76181(14) 0.3414(3) 0.61812(6)
H6 H 0.7016 0.3817 0.6155
C11 C 0.79571(13) 0.3025(3) 0.65548(6)
C12 C 0.88691(13) 0.2439(3) 0.65885(7)
H7 H 0.9099 0.2199 0.6843
C13 C 0.94428(14) 0.2202(3) 0.62627(6)
C14 C 1.04168(14) 0.1628(3) 0.63261(7)
C15 C 1.08973(15) 0.2239(3) 0.66548(7)
H8 H 1.0619 0.3040 0.6823
C16 C 1.17822(16) 0.1683(3) 0.67380(9)
H9 H 1.2091 0.2092 0.6963
C17 C 1.22017(17) 0.0541(4) 0.64923(10)
H10 H 1.2801 0.0178 0.6548
C18 C 1.17492(18) -0.0086(4) 0.61611(9)
H11 H 1.2040 -0.0874 0.5994
C19 C 1.08512(16) 0.0466(3) 0.60764(8)
H12 H 1.0545 0.0050 0.5851
C20 C 0.74486(15) 0.3385(3) 0.69324(7)
C21 C 0.64461(14) 0.3178(3) 0.69623(6)
C22 C 0.59303(15) 0.2224(3) 0.66890(7)
H13 H 0.6230 0.1656 0.6481
C23 C 0.49882(17) 0.2110(4) 0.67222(8)
H14 H 0.4651 0.1450 0.6542
C24 C 0.45446(17) 0.2982(4) 0.70259(9)
H15 H 0.3903 0.2941 0.7041
C25 C 0.50236(17) 0.3903(4) 0.73041(8)
H16 H 0.4712 0.4470 0.7509
C26 C 0.59789(16) 0.3986(3) 0.72790(7)
loop_
_geom_bond_atom_site_label_1
_geom_bond_atom_site_label_2
_geom_bond_site_symmetry_1
_geom_bond_site_symmetry_2
O1 C1 1_555 1_555
O2 C7 1_555 1_555
O3 C20 1_555 1_555
O4 H1 1_555 1_555
C1 C2 1_555 1_555
C2 C3 1_555 1_555
C3 H2 1_555 1_555
C4 C3 1_555 1_555
H3 C4 1_555 1_555
C5 C4 1_555 1_555
H4 C5 1_555 1_555
C6 C5 1_555 1_555
H5 C6 1_555 1_555
C7 C2 1_555 1_555
C8 O2 1_555 1_555
C9 C1 1_555 1_555
C10 C9 1_555 1_555
H6 C10 1_555 1_555
C11 C10 1_555 1_555
C12 C11 1_555 1_555
H7 C12 1_555 1_555
C13 C8 1_555 1_555
C14 C13 1_555 1_555
C15 C14 1_555 1_555
H8 C15 1_555 1_555
C16 C15 1_555 1_555
H9 C16 1_555 1_555
C17 C16 1_555 1_555
H10 C17 1_555 1_555
C18 C17 1_555 1_555
H11 C18 1_555 1_555
C19 C14 1_555 1_555
H12 C19 1_555 1_555
C20 C11 1_555 1_555
C21 C20 1_555 1_555
C22 C21 1_555 1_555
H13 C22 1_555 1_555
C23 C22 1_555 1_555
H14 C23 1_555 1_555
C24 C23 1_555 1_555
H15 C24 1_555 1_555
C25 C24 1_555 1_555
H16 C25 1_555 1_555
C26 O4 1_555 1_555
C6 C7 1_555 1_555
C8 C9 1_555 1_555
C12 C13 1_555 1_555
C18 C19 1_555 1_555
C21 C26 1_555 1_555
C25 C26 1_555 1_555

#END
