
#######################################################################
#
#                 Cambridge Crystallographic Data Centre
#                                CCDC 
#
#######################################################################
#
# If this CIF has been generated from an entry in the Cambridge 
# Structural Database, then it will include bibliographic, chemical, 
# crystal, experimental, refinement or atomic coordinate data resulting 
# from the CCDC's data processing and validation procedures.
#
#######################################################################

data_FUMLEG
_chemical_formula_moiety         'C23 H22 Br1 F3 N4 O5'
_chemical_name_systematic        
4-(2-(2-(2-(4-bromophenyl)vinyl)-6-propyl-2-(trifluoromethyl)tetrahydro-4H-pyran-4-ylidene)hydrazino)-N,N-dihydroxy-3-nitroaniline
_symmetry_cell_setting           monoclinic
_symmetry_space_group_name_H-M   'P 21'
_symmetry_Int_Tables_number      4
_space_group_name_Hall           'P 2yb'
loop_
_symmetry_equiv_pos_site_id
_symmetry_equiv_pos_as_xyz
1 x,y,z
2 -x,1/2+y,-z
_cell_length_a                   7.0955(2)
_cell_length_b                   8.1751(2)
_cell_length_c                   21.7486(6)
_cell_angle_alpha                90
_cell_angle_beta                 99.009(2)
_cell_angle_gamma                90
_cell_volume                     1246
_exptl_crystal_colour            colorless
_exptl_crystal_description       PLATE
_cell_formula_units_Z            2
loop_
_atom_site_label
_atom_site_type_symbol
_atom_site_fract_x
_atom_site_fract_y
_atom_site_fract_z
Br1 Br -0.97642(15) 0.7299(2) 0.44589(5)
F1 F 0.0972(7) 0.9189(6) 0.6845(2)
O1 O 0.0666(6) 0.5927(5) 0.72171(19)
N1 N -0.3398(9) 0.3458(8) 0.8576(3)
N2 N -0.2816(8) 0.5053(7) 0.8493(3)
F2 F 0.2474(8) 0.8641(8) 0.7741(3)
F3 F -0.0099(10) 1.0025(6) 0.7653(3)
C1 C -0.2625(8) 0.6725(8) 0.6437(3)
H1 H -0.1658 0.6072 0.6327
C2 C -0.2287(8) 0.7400(8) 0.6994(3)
H2 H -0.3245 0.8030 0.7122
C3 C -0.0427(8) 0.7209(7) 0.7437(2)
C4 C -0.7490(11) 0.7927(10) 0.5626(4)
H3 H -0.8518 0.8563 0.5700
C5 C -0.4343(8) 0.6882(8) 0.5972(3)
O2 O -0.3675(11) 0.0302(8) 0.8412(4)
C6 C -0.1407(9) 0.5243(8) 0.8197(3)
C7 C -0.5898(10) 0.7834(9) 0.6068(3)
H4 H -0.5852 0.8414 0.6438
C8 C -0.7592(10) 0.7093(10) 0.5074(3)
C9 C -0.5473(10) 0.1658(10) 0.9046(3)
O3 O -0.5267(12) -0.1128(8) 0.8987(4)
C10 C 0.3894(10) 0.3969(9) 0.6983(4)
H5 H 0.3428 0.4782 0.6671
H6 H 0.4817 0.4495 0.7297
C11 C -0.6081(14) 0.6161(11) 0.4969(4)
H7 H -0.6141 0.5587 0.4597
N3 N -0.4755(11) 0.0191(9) 0.8801(4)
C12 C -0.4777(9) 0.3204(9) 0.8924(3)
C13 C 0.1332(8) 0.4623(7) 0.7646(3)
H8 H 0.2295 0.5055 0.7979
C14 C -0.0762(10) 0.6940(9) 0.8110(3)
H9 H 0.0412 0.7147 0.8393
H10 H -0.1719 0.7704 0.8207
C15 C -0.4458(12) 0.6062(11) 0.5413(4)
H11 H -0.3431 0.5434 0.5333
C16 C -0.5610(12) 0.4555(10) 0.9191(3)
H12 H -0.5190 0.5607 0.9122
C17 C 0.2238(8) 0.3342(8) 0.7282(3)
H13 H 0.1269 0.2908 0.6959
H14 H 0.2688 0.2448 0.7560
C18 C 0.4865(12) 0.2603(12) 0.6680(4)
H15 H 0.5895 0.3046 0.6494
H16 H 0.3959 0.2088 0.6365
H17 H 0.5357 0.1810 0.6990
C19 C -0.7648(13) 0.2820(15) 0.9654(5)
C20 C -0.6928(13) 0.1482(14) 0.9418(5)
H18 H -0.7381 0.0449 0.9499
C21 C -0.0309(9) 0.3929(8) 0.7927(3)
H19 H -0.1159 0.3343 0.7609
H20 H 0.0179 0.3156 0.8252
C22 C 0.0732(12) 0.8758(9) 0.7412(4)
C23 C -0.7008(12) 0.4348(14) 0.9546(4)
H21 H -0.7531 0.5254 0.9715
N4 N -0.9108(16) 0.2668(15) 1.0069(6)
O4 O -1.049(2) 0.194(3) 0.9796(10)
O5 O -0.916(2) 0.3795(18) 1.0445(6)
H22 H -0.293(10) 0.249(12) 0.843(3)
O6? O -0.921(2) 0.1330(18) 1.0330(7)
O7? O -1.059(3) 0.346(3) 0.9980(14)
loop_
_geom_bond_atom_site_label_1
_geom_bond_atom_site_label_2
_geom_bond_site_symmetry_1
_geom_bond_site_symmetry_2
Br1 C8 1_555 1_555
F1 C22 1_555 1_555
O1 C3 1_555 1_555
N1 N2 1_555 1_555
N2 C6 1_555 1_555
F2 C22 1_555 1_555
F3 C22 1_555 1_555
C1 H1 1_555 1_555
C2 C1 1_555 1_555
H2 C2 1_555 1_555
C3 C2 1_555 1_555
C4 H3 1_555 1_555
C5 C1 1_555 1_555
O2 N3 1_555 1_555
C6 C14 1_555 1_555
C7 C4 1_555 1_555
H4 C7 1_555 1_555
C8 C4 1_555 1_555
C9 N3 1_555 1_555
O3 N3 1_555 1_555
C10 H5 1_555 1_555
H6 C10 1_555 1_555
C11 C8 1_555 1_555
H7 C11 1_555 1_555
C12 N1 1_555 1_555
C13 O1 1_555 1_555
H8 C13 1_555 1_555
C14 C3 1_555 1_555
H9 C14 1_555 1_555
H10 C14 1_555 1_555
C15 C5 1_555 1_555
H11 C15 1_555 1_555
C16 C12 1_555 1_555
H12 C16 1_555 1_555
C17 C10 1_555 1_555
H13 C17 1_555 1_555
H14 C17 1_555 1_555
C18 C10 1_555 1_555
H15 C18 1_555 1_555
H16 C18 1_555 1_555
H17 C18 1_555 1_555
C19 C20 1_555 1_555
C20 C9 1_555 1_555
H18 C20 1_555 1_555
C21 C6 1_555 1_555
H19 C21 1_555 1_555
H20 C21 1_555 1_555
C22 C3 1_555 1_555
C23 C16 1_555 1_555
H21 C23 1_555 1_555
N4 C19 1_555 1_555
O4 N4 1_555 1_555
O5 N4 1_555 1_555
H22 N1 1_555 1_555
C5 C7 1_555 1_555
C9 C12 1_555 1_555
C11 C15 1_555 1_555
C13 C17 1_555 1_555
C13 C21 1_555 1_555
C19 C23 1_555 1_555

#END
