
#######################################################################
#
#                 Cambridge Crystallographic Data Centre
#                                CCDC 
#
#######################################################################
#
# If this CIF has been generated from an entry in the Cambridge 
# Structural Database, then it will include bibliographic, chemical, 
# crystal, experimental, refinement or atomic coordinate data resulting 
# from the CCDC's data processing and validation procedures.
#
#######################################################################

data_FUMMIL
_chemical_formula_moiety         'C46 H30 O4'
_chemical_name_systematic        
2,7,13,18-tetramethoxytetrabenzo[f,h,r,t]rubicene
_symmetry_cell_setting           monoclinic
_symmetry_space_group_name_H-M   'C 2/c'
_symmetry_Int_Tables_number      15
_space_group_name_Hall           '-C 2yn'
loop_
_symmetry_equiv_pos_site_id
_symmetry_equiv_pos_as_xyz
1 x,y,z
2 -x,y,1/2-z
3 1/2+x,1/2+y,z
4 1/2-x,1/2+y,1/2-z
5 -x,-y,-z
6 x,-y,1/2+z
7 1/2-x,1/2-y,-z
8 1/2+x,1/2-y,1/2+z
_cell_length_a                   37.950(8)
_cell_length_b                   3.8000(8)
_cell_length_c                   23.960(5)
_cell_angle_alpha                90
_cell_angle_beta                 122.05(3)
_cell_angle_gamma                90
_cell_volume                     2928.64
_exptl_crystal_colour            'dark violet'
_exptl_crystal_description       plate
_cell_formula_units_Z            4
_exptl_crystal_recrystallization_method Chloroform
loop_
_atom_site_label
_atom_site_type_symbol
_atom_site_fract_x
_atom_site_fract_y
_atom_site_fract_z
O1 O 0.38262(3) 0.6920(3) 0.17640(4)
O2 O 0.27793(3) 0.6393(3) 0.46996(4)
C1 C 0.46708(3) 0.4281(3) 0.50474(5)
C2 C 0.45899(3) 0.5770(3) 0.44519(5)
C3 C 0.41339(3) 0.6157(3) 0.40312(5)
C4 C 0.49345(3) 0.6677(3) 0.44053(5)
C5 C 0.35385(3) 0.6197(3) 0.41760(5)
C6 C 0.39964(3) 0.6549(3) 0.28937(5)
H1 H 0.4268 0.5698 0.3044
C7 C 0.39619(3) 0.5345(3) 0.44040(5)
C8 C 0.38681(3) 0.6981(3) 0.33464(5)
C9 C 0.37319(4) 0.7348(3) 0.22389(5)
C10 C 0.53079(3) 0.9164(3) 0.39277(5)
H2 H 0.5303 1.0464 0.3585
C11 C 0.43034(3) 0.2110(3) 0.55444(5)
H3 H 0.4056 0.1757 0.5546
C12 C 0.49408(3) 0.8586(3) 0.38958(5)
H4 H 0.4688 0.9460 0.3532
C13 C 0.34505(3) 0.7943(3) 0.31113(5)
C14 C 0.42923(3) 0.3855(3) 0.50339(5)
C15 C 0.28873(3) 0.8884(3) 0.33469(6)
H5 H 0.2721 0.9998 0.2931
C16 C 0.33725(3) 0.5746(3) 0.45791(5)
H6 H 0.3538 0.4719 0.5003
C17 C 0.33316(4) 0.8686(3) 0.20128(6)
H7 H 0.3157 0.9428 0.1569
C18 C 0.27301(3) 0.8435(3) 0.37410(6)
H8 H 0.2458 0.9234 0.3597
C19 C 0.31959(3) 0.8904(3) 0.24412(6)
H9 H 0.2922 0.9728 0.2282
C20 C 0.32923(3) 0.7729(3) 0.35433(5)
C21 C 0.29714(3) 0.6791(3) 0.43587(6)
C22 C 0.30159(4) 0.4850(4) 0.53378(6)
H10 H 0.3113 0.2518 0.5304
H11 H 0.2841 0.4618 0.5525
H12 H 0.3255 0.6351 0.5624
C23 C 0.42097(4) 0.5224(4) 0.19629(6)
H13 H 0.4229 0.4810 0.1577
H14 H 0.4223 0.2971 0.2172
H15 H 0.4441 0.6725 0.2277
O1D O 0.61738(3) 0.3080(3) 0.82360(4)
O2D O 0.72207(3) 0.3607(3) 0.53004(4)
C1D C 0.53292(3) 0.5719(3) 0.49526(5)
C2D C 0.54101(3) 0.4230(3) 0.55481(5)
C3D C 0.58661(3) 0.3843(3) 0.59688(5)
C4D C 0.50655(3) 0.3323(3) 0.55947(5)
C5D C 0.64615(3) 0.3803(3) 0.58240(5)
C6D C 0.60036(3) 0.3451(3) 0.71063(5)
H1D H 0.5732 0.4302 0.6956
C7D C 0.60381(3) 0.4655(3) 0.55960(5)
C8D C 0.61319(3) 0.3019(3) 0.66536(5)
C9D C 0.62681(4) 0.2652(3) 0.77611(5)
C10D C 0.46921(3) 0.0836(3) 0.60723(5)
H2D H 0.4697 -0.0464 0.6415
C11D C 0.56966(3) 0.7890(3) 0.44556(5)
H3D H 0.5944 0.8243 0.4454
C12D C 0.50592(3) 0.1414(3) 0.61042(5)
H4D H 0.5312 0.0540 0.6468
C13D C 0.65495(3) 0.2057(3) 0.68887(5)
C14D C 0.57077(3) 0.6145(3) 0.49661(5)
C15D C 0.71127(3) 0.1116(3) 0.66531(6)
H5D H 0.7279 0.0002 0.7069
C16D C 0.66275(3) 0.4254(3) 0.54209(5)
H6D H 0.6462 0.5281 0.4997
C17D C 0.66684(4) 0.1314(3) 0.79872(6)
H7D H 0.6843 0.0572 0.8431
C18D C 0.72699(3) 0.1565(3) 0.62590(6)
H8D H 0.7542 0.0766 0.6403
C19D C 0.68041(3) 0.1096(3) 0.75588(6)
H9D H 0.7078 0.0272 0.7718
C20D C 0.67077(3) 0.2271(3) 0.64567(5)
C21D C 0.70286(3) 0.3209(3) 0.56413(6)
C22D C 0.69841(4) 0.5150(4) 0.46622(6)
H10D H 0.6887 0.7482 0.4696
H11D H 0.7159 0.5382 0.4475
H12D H 0.6745 0.3649 0.4376
C23D C 0.57903(4) 0.4776(4) 0.80371(6)
H13D H 0.5771 0.5190 0.8423
H14D H 0.5777 0.7029 0.7828
H15D H 0.5559 0.3275 0.7723
loop_
_geom_bond_atom_site_label_1
_geom_bond_atom_site_label_2
_geom_bond_site_symmetry_1
_geom_bond_site_symmetry_2
O1 C9 1_555 1_555
O2 C21 1_555 1_555
C1 C2 1_555 1_555
C2 C3 1_555 1_555
C3 C7 1_555 1_555
C4 C2 1_555 1_555
C5 C7 1_555 1_555
C6 H1 1_555 1_555
C7 C14 1_555 1_555
C8 C3 1_555 1_555
C9 C6 1_555 1_555
C10 H2 1_555 1_555
C11 H3 1_555 1_555
C12 C4 1_555 1_555
H4 C12 1_555 1_555
C13 C8 1_555 1_555
C14 C1 1_555 1_555
C15 H5 1_555 1_555
C16 C5 1_555 1_555
H6 C16 1_555 1_555
C17 C9 1_555 1_555
H7 C17 1_555 1_555
C18 C15 1_555 1_555
H8 C18 1_555 1_555
C19 C13 1_555 1_555
H9 C19 1_555 1_555
C20 C5 1_555 1_555
C21 C16 1_555 1_555
C22 O2 1_555 1_555
H10 C22 1_555 1_555
H11 C22 1_555 1_555
H12 C22 1_555 1_555
C23 O1 1_555 1_555
H13 C23 1_555 1_555
H14 C23 1_555 1_555
H15 C23 1_555 1_555
O1D C9D 1_555 1_555
O2D C21D 1_555 1_555
C1D C4 1_555 1_555
C2D C1D 1_555 1_555
C3D C2D 1_555 1_555
C4D C1 1_555 1_555
C5D C7D 1_555 1_555
C6D H1D 1_555 1_555
C7D C3D 1_555 1_555
C8D C3D 1_555 1_555
C9D C6D 1_555 1_555
C10D C11 1_555 1_555
H2D C10D 1_555 1_555
C11D C10 1_555 1_555
H3D C11D 1_555 1_555
C12D C4D 1_555 1_555
H4D C12D 1_555 1_555
C13D C8D 1_555 1_555
C14D C1D 1_555 1_555
C15D H5D 1_555 1_555
C16D C5D 1_555 1_555
H6D C16D 1_555 1_555
C17D C9D 1_555 1_555
H7D C17D 1_555 1_555
C18D C15D 1_555 1_555
H8D C18D 1_555 1_555
C19D C13D 1_555 1_555
H9D C19D 1_555 1_555
C20D C5D 1_555 1_555
C21D C16D 1_555 1_555
C22D O2D 1_555 1_555
H10D C22D 1_555 1_555
H11D C22D 1_555 1_555
H12D C22D 1_555 1_555
C23D O1D 1_555 1_555
H13D C23D 1_555 1_555
H14D C23D 1_555 1_555
H15D C23D 1_555 1_555
C6 C8 1_555 1_555
C10 C12 1_555 1_555
C11 C14 1_555 1_555
C13 C20 1_555 1_555
C15 C20 1_555 1_555
C17 C19 1_555 1_555
C18 C21 1_555 1_555
C2D C4D 1_555 1_555
C6D C8D 1_555 1_555
C7D C14D 1_555 1_555
C10D C12D 1_555 1_555
C11D C14D 1_555 1_555
C13D C20D 1_555 1_555
C15D C20D 1_555 1_555
C17D C19D 1_555 1_555
C18D C21D 1_555 1_555

#END
