
#######################################################################
#
#                 Cambridge Crystallographic Data Centre
#                                CCDC 
#
#######################################################################
#
# If this CIF has been generated from an entry in the Cambridge 
# Structural Database, then it will include bibliographic, chemical, 
# crystal, experimental, refinement or atomic coordinate data resulting 
# from the CCDC's data processing and validation procedures.
#
#######################################################################

data_FUMMEH
_chemical_formula_moiety         'C78 H96 N4 O2 Si4,2(C2 H3 N1)'
_chemical_name_systematic        
"6,10,17,21-tetrakis((triisopropylsilyl)ethynyl)naphtho[2,3-b]naphtho[2',3':6,7]quinoxalino[2,3-i]phenazine-8,19-dione acetonitrile solvate"
_symmetry_cell_setting           triclinic
_symmetry_space_group_name_H-M   'P -1'
_symmetry_Int_Tables_number      2
_space_group_name_Hall           '-P 1'
loop_
_symmetry_equiv_pos_site_id
_symmetry_equiv_pos_as_xyz
1 x,y,z
2 -x,-y,-z
_cell_length_a                   7.9319(8)
_cell_length_b                   14.4277(12)
_cell_length_c                   18.4216(16)
_cell_angle_alpha                110.316(3)
_cell_angle_beta                 97.166(3)
_cell_angle_gamma                101.674(3)
_cell_volume                     1891.97
_exptl_crystal_colour            colorless
_exptl_crystal_description       plate
_cell_formula_units_Z            1
loop_
_atom_site_label
_atom_site_type_symbol
_atom_site_fract_x
_atom_site_fract_y
_atom_site_fract_z
Si1 Si 1.21567(10) 0.97129(5) 0.33964(4)
Si2 Si 0.40480(10) 0.58300(5) -0.31678(4)
C1 C 0.9077(3) 0.44673(19) -0.08572(14)
C2 C 0.9091(3) 0.55524(19) -0.03837(14)
C3 C 1.0002(3) 0.60707(19) 0.04321(14)
C4 C 0.9224(3) 0.75251(18) 0.04668(13)
C5 C 0.9356(3) 0.85697(19) 0.08755(13)
C6 C 0.8544(3) 0.91057(18) 0.04816(13)
C7 C 0.8723(3) 1.01630(19) 0.08476(14)
H1 H 0.9397 1.0524 0.1373
C8 C 0.7947(3) 1.06947(19) 0.04645(14)
C9 C 0.8157(3) 1.17769(19) 0.08254(14)
H2 H 0.8863 1.2152 0.1343
C10 C 0.7365(4) 1.2276(2) 0.04400(14)
H3 H 0.7509 1.2992 0.0693
C11 C 0.6323(3) 1.1734(2) -0.03386(15)
H4 H 0.5782 1.2093 -0.0603
C12 C 0.6090(3) 1.07095(19) -0.07110(14)
H5 H 0.5385 1.0360 -0.1231
C13 C 0.6896(3) 1.01519(19) -0.03271(14)
C14 C 0.6706(3) 0.91079(19) -0.06962(14)
H6 H 0.6013 0.8751 -0.1218
C15 C 0.7510(3) 0.85628(19) -0.03188(13)
C16 C 0.7351(3) 0.74977(18) -0.07119(13)
C17 C 0.8250(3) 0.69910(19) -0.03334(14)
C18 C 1.0317(3) 0.90551(18) 0.16802(14)
C19 C 1.1089(4) 0.94031(19) 0.23619(14)
C20 C 1.4285(4) 0.9332(2) 0.33894(15)
H7 H 1.4753 0.9392 0.3938
C21 C 1.5666(4) 1.0048(2) 0.31847(17)
H8 H 1.6721 0.9794 0.3146
H9 H 1.5974 1.0737 0.3600
H10 H 1.5191 1.0072 0.2676
C22 C 1.4021(4) 0.8211(2) 0.28329(18)
H11 H 1.3551 0.8122 0.2288
H12 H 1.3190 0.7758 0.2995
H13 H 1.5153 0.8037 0.2861
C23 C 1.0586(4) 0.8962(2) 0.38174(15)
H14 H 0.9846 0.9415 0.4071
C24 C 1.1570(4) 0.8717(2) 0.44721(16)
H15 H 1.0716 0.8365 0.4695
H16 H 1.2306 0.9355 0.4891
H17 H 1.2316 0.8274 0.4248
C25 C 0.9315(4) 0.7977(2) 0.31894(16)
H18 H 0.9988 0.7504 0.2934
H19 H 0.8646 0.8146 0.2791
H20 H 0.8500 0.7653 0.3443
C26 C 1.2514(4) 1.11299(19) 0.39496(14)
H21 H 1.3404 1.1487 0.3728
C27 C 1.3271(4) 1.1490(2) 0.48401(15)
H22 H 1.3488 1.2235 0.5090
H23 H 1.4381 1.1302 0.4918
H24 H 1.2428 1.1161 0.5081
C28 C 1.0826(4) 1.1459(2) 0.38040(16)
H25 H 0.9895 1.1090 0.3983
H26 H 1.0453 1.1300 0.3237
H27 H 1.1051 1.2198 0.4099
C29 C 0.6304(3) 0.69380(18) -0.14991(14)
C30 C 0.5397(3) 0.64760(19) -0.21544(14)
C31 C 0.3554(4) 0.69040(19) -0.34413(14)
H28 H 0.4720 0.7403 -0.3336
C32 C 0.2475(4) 0.7496(2) -0.29106(16)
H29 H 0.2445 0.8117 -0.3010
H30 H 0.3018 0.7684 -0.2354
H31 H 0.1271 0.7064 -0.3028
C33 C 0.2733(4) 0.6600(2) -0.43191(15)
H32 H 0.1535 0.6159 -0.4445
H33 H 0.3447 0.6230 -0.4650
H34 H 0.2694 0.7218 -0.4422
C34 C 0.2111(4) 0.48433(19) -0.31563(14)
H35 H 0.2613 0.4329 -0.3018
C35 C 0.1050(4) 0.5238(2) -0.25260(15)
H36 H 0.0404 0.5684 -0.2668
H37 H 0.1855 0.5627 -0.2010
H38 H 0.0214 0.4656 -0.2498
C36 C 0.0892(4) 0.4249(2) -0.39775(15)
H39 H -0.0022 0.3696 -0.3955
H40 H 0.1582 0.3958 -0.4362
H41 H 0.0338 0.4715 -0.4140
C37 C 0.5459(4) 0.5165(2) -0.38066(14)
H42 H 0.4731 0.4789 -0.4357
C38 C 0.7058(4) 0.5943(2) -0.38392(16)
H43 H 0.7767 0.6344 -0.3303
H44 H 0.6651 0.6403 -0.4064
H45 H 0.7775 0.5577 -0.4172
C39 C 0.6053(4) 0.4372(2) -0.35202(16)
H46 H 0.6808 0.4051 -0.3856
H47 H 0.5015 0.3845 -0.3553
H48 H 0.6712 0.4716 -0.2970
N1 N 0.8204(3) 0.59943(15) -0.07496(11)
N2 N 1.0067(3) 0.70261(15) 0.08472(11)
O1 O 0.8373(3) 0.40498(13) -0.15528(10)
Si1A Si 0.78433(10) 0.02871(5) -0.33964(4)
Si2A Si 1.59520(10) 0.41700(5) 0.31678(4)
C1A C 1.0923(3) 0.55327(19) 0.08572(14)
C2A C 1.0909(3) 0.44476(19) 0.03837(14)
C3A C 0.9998(3) 0.39293(19) -0.04321(14)
C4A C 1.0776(3) 0.24749(18) -0.04668(13)
C5A C 1.0644(3) 0.14303(19) -0.08755(13)
C6A C 1.1456(3) 0.08943(18) -0.04816(13)
C7A C 1.1277(3) -0.01630(19) -0.08476(14)
H1A H 1.0603 -0.0524 -0.1373
C8A C 1.2053(3) -0.06947(19) -0.04645(14)
C9A C 1.1843(3) -0.17769(19) -0.08254(14)
H2A H 1.1137 -0.2152 -0.1343
C10A C 1.2635(4) -0.2276(2) -0.04400(14)
H3A H 1.2491 -0.2992 -0.0693
C11A C 1.3677(3) -0.1734(2) 0.03386(15)
H4A H 1.4218 -0.2093 0.0603
C12A C 1.3910(3) -0.07095(19) 0.07110(14)
H5A H 1.4615 -0.0360 0.1231
C13A C 1.3104(3) -0.01519(19) 0.03271(14)
C14A C 1.3294(3) 0.08921(19) 0.06962(14)
H6A H 1.3987 0.1249 0.1218
C15A C 1.2490(3) 0.14372(19) 0.03188(13)
C16A C 1.2649(3) 0.25023(18) 0.07119(13)
C17A C 1.1750(3) 0.30090(19) 0.03334(14)
C18A C 0.9683(3) 0.09449(18) -0.16802(14)
C19A C 0.8911(4) 0.05969(19) -0.23619(14)
C20A C 0.5715(4) 0.0668(2) -0.33894(15)
H7A H 0.5247 0.0608 -0.3938
C21A C 0.4334(4) -0.0048(2) -0.31847(17)
H8A H 0.3279 0.0206 -0.3146
H9A H 0.4026 -0.0737 -0.3600
H10A H 0.4809 -0.0072 -0.2676
C22A C 0.5979(4) 0.1789(2) -0.28329(18)
H11A H 0.6449 0.1878 -0.2288
H12A H 0.6810 0.2242 -0.2995
H13A H 0.4847 0.1963 -0.2861
C23A C 0.9414(4) 0.1038(2) -0.38174(15)
H14A H 1.0154 0.0585 -0.4071
C24A C 0.8430(4) 0.1283(2) -0.44721(16)
H15A H 0.9284 0.1635 -0.4695
H16A H 0.7694 0.0645 -0.4891
H17A H 0.7684 0.1726 -0.4248
C25A C 1.0685(4) 0.2023(2) -0.31894(16)
H18A H 1.0012 0.2496 -0.2934
H19A H 1.1354 0.1854 -0.2791
H20A H 1.1500 0.2347 -0.3443
C26A C 0.7486(4) -0.11299(19) -0.39496(14)
H21A H 0.6596 -0.1487 -0.3728
C27A C 0.6729(4) -0.1490(2) -0.48401(15)
H22A H 0.6512 -0.2235 -0.5090
H23A H 0.5619 -0.1302 -0.4918
H24A H 0.7572 -0.1161 -0.5081
C28A C 0.9174(4) -0.1459(2) -0.38040(16)
H25A H 1.0105 -0.1090 -0.3983
H26A H 0.9547 -0.1300 -0.3237
H27A H 0.8949 -0.2198 -0.4099
C29A C 1.3696(3) 0.30620(18) 0.14991(14)
C30A C 1.4603(3) 0.35240(19) 0.21544(14)
C31A C 1.6446(4) 0.30960(19) 0.34413(14)
H28A H 1.5280 0.2597 0.3336
C32A C 1.7525(4) 0.2504(2) 0.29106(16)
H29A H 1.7555 0.1883 0.3010
H30A H 1.6982 0.2316 0.2354
H31A H 1.8729 0.2936 0.3028
C33A C 1.7267(4) 0.3400(2) 0.43191(15)
H32A H 1.8465 0.3841 0.4445
H33A H 1.6553 0.3770 0.4650
H34A H 1.7306 0.2782 0.4422
C34A C 1.7889(4) 0.51567(19) 0.31563(14)
H35A H 1.7387 0.5671 0.3018
C35A C 1.8950(4) 0.4762(2) 0.25260(15)
H36A H 1.9596 0.4316 0.2668
H37A H 1.8145 0.4373 0.2010
H38A H 1.9786 0.5344 0.2498
C36A C 1.9108(4) 0.5751(2) 0.39775(15)
H39A H 2.0022 0.6304 0.3955
H40A H 1.8418 0.6042 0.4362
H41A H 1.9662 0.5285 0.4140
C37A C 1.4541(4) 0.4835(2) 0.38066(14)
H42A H 1.5269 0.5211 0.4357
C38A C 1.2942(4) 0.4057(2) 0.38392(16)
H43A H 1.2233 0.3656 0.3303
H44A H 1.3349 0.3597 0.4064
H45A H 1.2225 0.4423 0.4172
C39A C 1.3947(4) 0.5628(2) 0.35202(16)
H46A H 1.3192 0.5949 0.3856
H47A H 1.4985 0.6155 0.3553
H48A H 1.3288 0.5284 0.2970
N1A N 1.1796(3) 0.40057(15) 0.07496(11)
N2A N 0.9933(3) 0.29739(15) -0.08472(11)
O1A O 1.1627(3) 0.59502(13) 0.15528(10)
C40 C 0.6150(4) 0.5033(2) 0.08409(17)
C41 C 0.5714(4) 0.5853(2) 0.14517(16)
H49 H 0.5315 0.6310 0.1221
H50 H 0.6760 0.6244 0.1876
H51 H 0.4775 0.5559 0.1669
N3 N 0.6488(4) 0.44002(19) 0.03563(15)
loop_
_geom_bond_atom_site_label_1
_geom_bond_atom_site_label_2
_geom_bond_site_symmetry_1
_geom_bond_site_symmetry_2
Si1 C19 1_555 1_555
Si2 C30 1_555 1_555
C1 C2 1_555 1_555
C2 C3 1_555 1_555
C3 N2 1_555 1_555
C4 C5 1_555 1_555
C5 C6 1_555 1_555
C6 C7 1_555 1_555
C7 H1 1_555 1_555
C8 C7 1_555 1_555
C9 C8 1_555 1_555
H2 C9 1_555 1_555
C10 C9 1_555 1_555
H3 C10 1_555 1_555
C11 C10 1_555 1_555
H4 C11 1_555 1_555
C12 C11 1_555 1_555
H5 C12 1_555 1_555
C13 C8 1_555 1_555
C14 C13 1_555 1_555
H6 C14 1_555 1_555
C15 C6 1_555 1_555
C16 C15 1_555 1_555
C17 C4 1_555 1_555
C18 C5 1_555 1_555
C19 C18 1_555 1_555
C20 Si1 1_555 1_555
H7 C20 1_555 1_555
C21 C20 1_555 1_555
H8 C21 1_555 1_555
H9 C21 1_555 1_555
H10 C21 1_555 1_555
C22 C20 1_555 1_555
H11 C22 1_555 1_555
H12 C22 1_555 1_555
H13 C22 1_555 1_555
C23 Si1 1_555 1_555
H14 C23 1_555 1_555
C24 C23 1_555 1_555
H15 C24 1_555 1_555
H16 C24 1_555 1_555
H17 C24 1_555 1_555
C25 C23 1_555 1_555
H18 C25 1_555 1_555
H19 C25 1_555 1_555
H20 C25 1_555 1_555
C26 Si1 1_555 1_555
H21 C26 1_555 1_555
C27 C26 1_555 1_555
H22 C27 1_555 1_555
H23 C27 1_555 1_555
H24 C27 1_555 1_555
C28 C26 1_555 1_555
H25 C28 1_555 1_555
H26 C28 1_555 1_555
H27 C28 1_555 1_555
C29 C16 1_555 1_555
C30 C29 1_555 1_555
C31 Si2 1_555 1_555
H28 C31 1_555 1_555
C32 C31 1_555 1_555
H29 C32 1_555 1_555
H30 C32 1_555 1_555
H31 C32 1_555 1_555
C33 C31 1_555 1_555
H32 C33 1_555 1_555
H33 C33 1_555 1_555
H34 C33 1_555 1_555
C34 Si2 1_555 1_555
H35 C34 1_555 1_555
C35 C34 1_555 1_555
H36 C35 1_555 1_555
H37 C35 1_555 1_555
H38 C35 1_555 1_555
C36 C34 1_555 1_555
H39 C36 1_555 1_555
H40 C36 1_555 1_555
H41 C36 1_555 1_555
C37 Si2 1_555 1_555
H42 C37 1_555 1_555
C38 C37 1_555 1_555
H43 C38 1_555 1_555
H44 C38 1_555 1_555
H45 C38 1_555 1_555
C39 C37 1_555 1_555
H46 C39 1_555 1_555
H47 C39 1_555 1_555
H48 C39 1_555 1_555
N1 C2 1_555 1_555
N2 C4 1_555 1_555
O1 C1 1_555 1_555
C40 C41 1_555 1_555
C41 H49 1_555 1_555
H50 C41 1_555 1_555
H51 C41 1_555 1_555
N3 C40 1_555 1_555
Si1A C19A 1_555 1_555
Si2A C30A 1_555 1_555
C1A C3 1_555 1_555
C2A C1A 1_555 1_555
C3A C1 1_555 1_555
C4A C5A 1_555 1_555
C5A C6A 1_555 1_555
C6A C7A 1_555 1_555
C7A H1A 1_555 1_555
C8A C7A 1_555 1_555
C9A C8A 1_555 1_555
H2A C9A 1_555 1_555
C10A C9A 1_555 1_555
H3A C10A 1_555 1_555
C11A C10A 1_555 1_555
H4A C11A 1_555 1_555
C12A C11A 1_555 1_555
H5A C12A 1_555 1_555
C13A C8A 1_555 1_555
C14A C13A 1_555 1_555
H6A C14A 1_555 1_555
C15A C6A 1_555 1_555
C16A C15A 1_555 1_555
C17A C4A 1_555 1_555
C18A C5A 1_555 1_555
C19A C18A 1_555 1_555
C20A Si1A 1_555 1_555
H7A C20A 1_555 1_555
C21A C20A 1_555 1_555
H8A C21A 1_555 1_555
H9A C21A 1_555 1_555
H10A C21A 1_555 1_555
C22A C20A 1_555 1_555
H11A C22A 1_555 1_555
H12A C22A 1_555 1_555
H13A C22A 1_555 1_555
C23A Si1A 1_555 1_555
H14A C23A 1_555 1_555
C24A C23A 1_555 1_555
H15A C24A 1_555 1_555
H16A C24A 1_555 1_555
H17A C24A 1_555 1_555
C25A C23A 1_555 1_555
H18A C25A 1_555 1_555
H19A C25A 1_555 1_555
H20A C25A 1_555 1_555
C26A Si1A 1_555 1_555
H21A C26A 1_555 1_555
C27A C26A 1_555 1_555
H22A C27A 1_555 1_555
H23A C27A 1_555 1_555
H24A C27A 1_555 1_555
C28A C26A 1_555 1_555
H25A C28A 1_555 1_555
H26A C28A 1_555 1_555
H27A C28A 1_555 1_555
C29A C16A 1_555 1_555
C30A C29A 1_555 1_555
C31A Si2A 1_555 1_555
H28A C31A 1_555 1_555
C32A C31A 1_555 1_555
H29A C32A 1_555 1_555
H30A C32A 1_555 1_555
H31A C32A 1_555 1_555
C33A C31A 1_555 1_555
H32A C33A 1_555 1_555
H33A C33A 1_555 1_555
H34A C33A 1_555 1_555
C34A Si2A 1_555 1_555
H35A C34A 1_555 1_555
C35A C34A 1_555 1_555
H36A C35A 1_555 1_555
H37A C35A 1_555 1_555
H38A C35A 1_555 1_555
C36A C34A 1_555 1_555
H39A C36A 1_555 1_555
H40A C36A 1_555 1_555
H41A C36A 1_555 1_555
C37A Si2A 1_555 1_555
H42A C37A 1_555 1_555
C38A C37A 1_555 1_555
H43A C38A 1_555 1_555
H44A C38A 1_555 1_555
H45A C38A 1_555 1_555
C39A C37A 1_555 1_555
H46A C39A 1_555 1_555
H47A C39A 1_555 1_555
H48A C39A 1_555 1_555
N1A C2A 1_555 1_555
N2A C3A 1_555 1_555
O1A C1A 1_555 1_555
C12 C13 1_555 1_555
C14 C15 1_555 1_555
C16 C17 1_555 1_555
C17 N1 1_555 1_555
C2A C3A 1_555 1_555
C4A N2A 1_555 1_555
C12A C13A 1_555 1_555
C14A C15A 1_555 1_555
C16A C17A 1_555 1_555
C17A N1A 1_555 1_555

#END
