
#######################################################################
#
#                 Cambridge Crystallographic Data Centre
#                                CCDC 
#
#######################################################################
#
# If this CIF has been generated from an entry in the Cambridge 
# Structural Database, then it will include bibliographic, chemical, 
# crystal, experimental, refinement or atomic coordinate data resulting 
# from the CCDC's data processing and validation procedures.
#
#######################################################################

data_FUMPAG
_chemical_formula_moiety         'C22 H18 Br4'
_chemical_name_systematic        
2,2',2'',5'-tetrakis(bromomethyl)-1,1':4',1''-terphenyl
_symmetry_cell_setting           triclinic
_symmetry_space_group_name_H-M   'P -1'
_symmetry_Int_Tables_number      2
_space_group_name_Hall           '-P 1'
loop_
_symmetry_equiv_pos_site_id
_symmetry_equiv_pos_as_xyz
1 x,y,z
2 -x,-y,-z
_cell_length_a                   8.5670(2)
_cell_length_b                   10.0150(3)
_cell_length_c                   13.3250(2)
_cell_angle_alpha                95.045(3)
_cell_angle_beta                 103.368(3)
_cell_angle_gamma                107.597(3)
_cell_volume                     1044.77
_exptl_crystal_colour            colorless
_exptl_crystal_description       blocks
_cell_formula_units_Z            2
loop_
_atom_site_label
_atom_site_type_symbol
_atom_site_fract_x
_atom_site_fract_y
_atom_site_fract_z
C1 C 0.1694(4) 0.9406(3) 0.3442(2)
C2 C 0.2375(4) 0.8284(3) 0.3485(3)
C3 C 0.3294(4) 0.8102(3) 0.2765(3)
H1 H 0.3780 0.7366 0.2794
C4 C 0.3507(4) 0.8950(4) 0.2029(3)
H2 H 0.4127 0.8794 0.1551
C5 C 0.2820(4) 1.0047(4) 0.1974(3)
H3 H 0.2965 1.0640 0.1460
C6 C 0.1917(4) 1.0259(4) 0.2683(3)
H4 H 0.1444 1.1004 0.2648
C7 C 0.2091(4) 0.7301(4) 0.4231(3)
H5 H 0.1938 0.6332 0.3893
H6 H 0.1034 0.7273 0.4424
Br1 Br 0.40110(4) 0.78783(4) 0.55078(3)
C8 C 0.0799(4) 0.9697(3) 0.4235(2)
C9 C 0.1754(4) 1.0398(3) 0.5239(2)
H7 H 0.2959 1.0674 0.5408
C10 C 0.0982(4) 1.0708(3) 0.6010(3)
C11 C 0.2085(4) 1.1495(4) 0.7062(3)
H8 H 0.3151 1.1264 0.7222
H9 H 0.1491 1.1206 0.7603
Br2 Br 0.26186(4) 1.35658(4) 0.70782(3)
C1A C -0.1694(4) 1.0594(3) 0.6558(2)
C2A C -0.2375(4) 1.1716(3) 0.6515(3)
C3A C -0.3294(4) 1.1898(3) 0.7235(3)
H1A H -0.3780 1.2634 0.7206
C4A C -0.3507(4) 1.1050(4) 0.7971(3)
H2A H -0.4127 1.1206 0.8449
C5A C -0.2820(4) 0.9953(4) 0.8026(3)
H3A H -0.2965 0.9360 0.8540
C6A C -0.1917(4) 0.9741(4) 0.7317(3)
H4A H -0.1444 0.8996 0.7352
C7A C -0.2091(4) 1.2699(4) 0.5769(3)
H5A H -0.1938 1.3668 0.6107
H6A H -0.1034 1.2727 0.5576
Br1A Br -0.40110(4) 1.21217(4) 0.44922(3)
C8A C -0.0799(4) 1.0303(3) 0.5765(2)
C9A C -0.1754(4) 0.9602(3) 0.4761(2)
H7A H -0.2959 0.9326 0.4592
C10A C -0.0982(4) 0.9292(3) 0.3990(3)
C11A C -0.2085(4) 0.8505(4) 0.2938(3)
H8A H -0.3151 0.8736 0.2778
H9A H -0.1491 0.8794 0.2397
Br2A Br -0.26186(4) 0.64342(4) 0.29218(3)
C12 C 0.9067(4) 0.5912(3) 0.8013(2)
C13 C 1.0282(4) 0.6573(3) 0.7497(3)
C14 C 0.9737(5) 0.6838(4) 0.6491(3)
H10 H 1.0555 0.7278 0.6141
C15 C 0.8012(5) 0.6469(4) 0.5988(3)
H11 H 0.7654 0.6632 0.5294
C16 C 0.6833(5) 0.5868(4) 0.6504(3)
H12 H 0.5656 0.5638 0.6170
C17 C 0.7339(4) 0.5592(3) 0.7506(3)
H13 H 0.6506 0.5183 0.7854
C18 C 1.2134(5) 0.7039(4) 0.8025(3)
H14 H 1.2783 0.7137 0.7494
H15 H 1.2389 0.6318 0.8436
Br3 Br 1.28233(5) 0.88801(4) 0.89608(3)
C19 C 0.9562(4) 0.5482(3) 0.9048(3)
C20 C 1.0117(4) 0.4312(3) 0.9098(3)
H16 H 1.0200 0.3836 0.8474
C21 C 1.0552(4) 0.3817(3) 1.0028(3)
C22 C 1.1065(4) 0.2504(4) 1.0016(3)
H17 H 1.0365 0.1815 0.9372
H18 H 1.0848 0.2053 1.0625
Br4 Br 1.34932(5) 0.29670(4) 1.00681(3)
C12A C 1.0933(4) 0.4088(3) 1.1987(2)
C13A C 0.9718(4) 0.3427(3) 1.2503(3)
C14A C 1.0263(5) 0.3162(4) 1.3509(3)
H10A H 0.9445 0.2722 1.3859
C15A C 1.1988(5) 0.3531(4) 1.4012(3)
H11A H 1.2346 0.3368 1.4706
C16A C 1.3167(5) 0.4132(4) 1.3496(3)
H12A H 1.4344 0.4362 1.3830
C17A C 1.2661(4) 0.4408(3) 1.2494(3)
H13A H 1.3494 0.4817 1.2146
C18A C 0.7866(5) 0.2961(4) 1.1975(3)
H14A H 0.7217 0.2863 1.2506
H15A H 0.7611 0.3682 1.1564
Br3A Br 0.71767(5) 0.11199(4) 1.10392(3)
C19A C 1.0438(4) 0.4518(3) 1.0952(3)
C20A C 0.9883(4) 0.5688(3) 1.0902(3)
H16A H 0.9800 0.6164 1.1526
C21A C 0.9448(4) 0.6183(3) 0.9972(3)
C22A C 0.8935(4) 0.7496(4) 0.9984(3)
H17A H 0.9635 0.8185 1.0628
H18A H 0.9152 0.7947 0.9375
Br4A Br 0.65068(5) 0.70330(4) 0.99319(3)
loop_
_geom_bond_atom_site_label_1
_geom_bond_atom_site_label_2
_geom_bond_site_symmetry_1
_geom_bond_site_symmetry_2
C1 C2 1_555 1_555
C2 C3 1_555 1_555
C3 H1 1_555 1_555
C4 C3 1_555 1_555
H2 C4 1_555 1_555
C5 C4 1_555 1_555
H3 C5 1_555 1_555
C6 C1 1_555 1_555
H4 C6 1_555 1_555
C7 C2 1_555 1_555
H5 C7 1_555 1_555
H6 C7 1_555 1_555
Br1 C7 1_555 1_555
C8 C1 1_555 1_555
C9 C8 1_555 1_555
H7 C9 1_555 1_555
C10 C9 1_555 1_555
C11 C10 1_555 1_555
H8 C11 1_555 1_555
H9 C11 1_555 1_555
Br2 C11 1_555 1_555
C12 C13 1_555 1_555
C13 C14 1_555 1_555
C14 H10 1_555 1_555
C15 C14 1_555 1_555
H11 C15 1_555 1_555
C16 C15 1_555 1_555
H12 C16 1_555 1_555
C17 C12 1_555 1_555
H13 C17 1_555 1_555
C18 C13 1_555 1_555
H14 C18 1_555 1_555
H15 C18 1_555 1_555
Br3 C18 1_555 1_555
C19 C12 1_555 1_555
C20 C19 1_555 1_555
H16 C20 1_555 1_555
C21 C20 1_555 1_555
C22 C21 1_555 1_555
H17 C22 1_555 1_555
H18 C22 1_555 1_555
Br4 C22 1_555 1_555
C1A C2A 1_555 1_555
C2A C3A 1_555 1_555
C3A H1A 1_555 1_555
C4A C3A 1_555 1_555
H2A C4A 1_555 1_555
C5A C4A 1_555 1_555
H3A C5A 1_555 1_555
C6A C1A 1_555 1_555
H4A C6A 1_555 1_555
C7A C2A 1_555 1_555
H5A C7A 1_555 1_555
H6A C7A 1_555 1_555
Br1A C7A 1_555 1_555
C8A C10 1_555 1_555
C9A C8A 1_555 1_555
H7A C9A 1_555 1_555
C10A C8 1_555 1_555
C11A C10A 1_555 1_555
H8A C11A 1_555 1_555
H9A C11A 1_555 1_555
Br2A C11A 1_555 1_555
C12A C13A 1_555 1_555
C13A C14A 1_555 1_555
C14A H10A 1_555 1_555
C15A C14A 1_555 1_555
H11A C15A 1_555 1_555
C16A C15A 1_555 1_555
H12A C16A 1_555 1_555
C17A C12A 1_555 1_555
H13A C17A 1_555 1_555
C18A C13A 1_555 1_555
H14A C18A 1_555 1_555
H15A C18A 1_555 1_555
Br3A C18A 1_555 1_555
C19A C21 1_555 1_555
C20A C19A 1_555 1_555
H16A C20A 1_555 1_555
C21A C19 1_555 1_555
C22A C21A 1_555 1_555
H17A C22A 1_555 1_555
H18A C22A 1_555 1_555
Br4A C22A 1_555 1_555
C5 C6 1_555 1_555
C16 C17 1_555 1_555
C1A C8A 1_555 1_555
C5A C6A 1_555 1_555
C9A C10A 1_555 1_555
C12A C19A 1_555 1_555
C16A C17A 1_555 1_555
C20A C21A 1_555 1_555

#END
