
#######################################################################
#
#                 Cambridge Crystallographic Data Centre
#                                CCDC 
#
#######################################################################
#
# If this CIF has been generated from an entry in the Cambridge 
# Structural Database, then it will include bibliographic, chemical, 
# crystal, experimental, refinement or atomic coordinate data resulting 
# from the CCDC's data processing and validation procedures.
#
#######################################################################

data_FUMQIN01
_chemical_name_common            '5-Phenylhydrantoic acid'
_chemical_formula_moiety         'C9 H10 N2 O3'
_chemical_name_systematic        "2-(N'-Phenylurea-N)acetic acid"
_symmetry_cell_setting           orthorhombic
_symmetry_space_group_name_H-M   'P 21 21 21'
_symmetry_Int_Tables_number      19
_space_group_name_Hall           'P 2ac 2ab'
loop_
_symmetry_equiv_pos_site_id
_symmetry_equiv_pos_as_xyz
1 x,y,z
2 1/2-x,-y,1/2+z
3 1/2+x,1/2-y,-z
4 -x,1/2+y,1/2-z
_cell_length_a                   8.615(2)
_cell_length_b                   9.301(2)
_cell_length_c                   11.255(3)
_cell_angle_alpha                90
_cell_angle_beta                 90
_cell_angle_gamma                90
_cell_volume                     901.842
_exptl_crystal_colour            colorless
_exptl_crystal_description       block
_cell_formula_units_Z            4
loop_
_atom_site_label
_atom_site_type_symbol
_atom_site_fract_x
_atom_site_fract_y
_atom_site_fract_z
O1 O 0.02068(11) 0.65612(12) -0.04053(9)
O2 O 0.07149(15) 0.97963(13) -0.19245(10)
O3 O 0.09665(13) 0.90705(14) -0.38130(10)
N1 N 0.23350(14) 0.67879(16) 0.08059(11)
N2 N 0.24722(14) 0.74349(15) -0.11430(11)
C1 C 0.16666(17) 0.63881(16) 0.19045(13)
C2 C 0.04699(19) 0.53876(17) 0.20083(14)
C3 C -0.0134(2) 0.50806(19) 0.31273(15)
C4 C 0.0455(2) 0.5722(2) 0.41397(16)
C5 C 0.1685(2) 0.6678(2) 0.40337(15)
C6 C 0.22840(19) 0.70121(19) 0.29254(15)
C7 C 0.15994(16) 0.69133(17) -0.02573(13)
C8 C 0.19335(18) 0.75203(17) -0.23541(12)
C9 C 0.11417(16) 0.89296(17) -0.26451(13)
H1 H 0.331(2) 0.711(2) 0.0796(15)
H2 H 0.342(2) 0.774(2) -0.0990(15)
H3 H 0.00710 0.49200 0.13230
H4 H 0.045(2) 0.985(3) -0.3961(19)
H5 H -0.09680 0.44170 0.31970
H6 H 0.00250 0.55120 0.48970
H7 H 0.21180 0.71060 0.47250
H8 H 0.31220 0.76710 0.28610
H9 H 0.11970 0.67230 -0.25020
H10 H 0.28290 0.73900 -0.28950
loop_
_geom_bond_atom_site_label_1
_geom_bond_atom_site_label_2
_geom_bond_site_symmetry_1
_geom_bond_site_symmetry_2
O1 C7 1_555 1_555
O2 C9 1_555 1_555
O3 C9 1_555 1_555
N1 C1 1_555 1_555
N2 C7 1_555 1_555
C1 C2 1_555 1_555
C2 C3 1_555 1_555
C3 C4 1_555 1_555
C4 C5 1_555 1_555
C5 C6 1_555 1_555
C6 C1 1_555 1_555
C7 N1 1_555 1_555
C8 N2 1_555 1_555
C9 C8 1_555 1_555
H1 N1 1_555 1_555
H2 N2 1_555 1_555
H3 C2 1_555 1_555
H4 O3 1_555 1_555
H5 C3 1_555 1_555
H6 C4 1_555 1_555
H7 C5 1_555 1_555
H8 C6 1_555 1_555
H9 C8 1_555 1_555
H10 C8 1_555 1_555

#END
