
#######################################################################
#
#                 Cambridge Crystallographic Data Centre
#                                CCDC 
#
#######################################################################
#
# If this CIF has been generated from an entry in the Cambridge 
# Structural Database, then it will include bibliographic, chemical, 
# crystal, experimental, refinement or atomic coordinate data resulting 
# from the CCDC's data processing and validation procedures.
#
#######################################################################

data_FUMSEN
_chemical_formula_moiety         'C17 H16 N2 O3 S1'
_chemical_name_systematic        
3-((4-methylphenyl)sulfonyl)-2-phenyl-5,6-dihydropyrimidin-4(3H)-one
_symmetry_cell_setting           monoclinic
_symmetry_space_group_name_H-M   'P 21/c'
_symmetry_Int_Tables_number      14
_space_group_name_Hall           '-P 2ybc'
loop_
_symmetry_equiv_pos_site_id
_symmetry_equiv_pos_as_xyz
1 x,y,z
2 -x,1/2+y,1/2-z
3 -x,-y,-z
4 x,1/2-y,1/2+z
_cell_length_a                   10.4726(8)
_cell_length_b                   6.8537(6)
_cell_length_c                   21.8810(16)
_cell_angle_alpha                90
_cell_angle_beta                 98.966(3)
_cell_angle_gamma                90
_cell_volume                     1551.34
_exptl_crystal_colour            colorless
_exptl_crystal_description       prism
_cell_formula_units_Z            4
loop_
_atom_site_label
_atom_site_type_symbol
_atom_site_fract_x
_atom_site_fract_y
_atom_site_fract_z
C1 C -0.1652(2) 0.5792(4) 0.13004(11)
C2 C -0.1604(2) 0.3966(4) 0.15739(12)
H1 H -0.0844 0.3537 0.1834
C3 C -0.2687(2) 0.2775(4) 0.14616(13)
H2 H -0.2656 0.1509 0.1640
C4 C -0.3814(2) 0.3396(4) 0.10930(13)
C5 C -0.4989(3) 0.2091(4) 0.09741(15)
H3 H -0.5686 0.2768 0.0705
H4 H -0.5274 0.1770 0.1368
H5 H -0.4769 0.0887 0.0772
C6 C -0.3851(2) 0.5260(4) 0.08397(12)
H6 H -0.4626 0.5716 0.0598
C7 C -0.2769(2) 0.6468(4) 0.09347(12)
H7 H -0.2794 0.7729 0.0753
C8 C 0.0317(3) 0.7292(3) 0.03025(12)
C9 C 0.1421(2) 0.7654(4) -0.00423(13)
H8 H 0.1146 0.8548 -0.0394
H9 H 0.1702 0.6410 -0.0209
C10 C 0.2528(2) 0.8551(4) 0.03953(13)
H10 H 0.3256 0.8837 0.0170
H11 H 0.2244 0.9793 0.0563
C11 C 0.2066(2) 0.6352(4) 0.11412(12)
C12 C 0.2404(2) 0.4831(4) 0.16192(11)
C13 C 0.3445(2) 0.5156(4) 0.20872(12)
H12 H 0.3879 0.6377 0.2113
C14 C 0.3849(2) 0.3718(4) 0.25125(12)
H13 H 0.4555 0.3954 0.2833
C15 C 0.3231(2) 0.1932(4) 0.24746(13)
H14 H 0.3517 0.0936 0.2766
C16 C 0.2195(2) 0.1599(4) 0.20115(12)
H15 H 0.1767 0.0372 0.1985
C17 C 0.1781(2) 0.3043(4) 0.15875(12)
H16 H 0.1064 0.2810 0.1272
N1 N 0.07028(18) 0.6741(3) 0.09295(9)
N2 N 0.2949(2) 0.7186(3) 0.09035(11)
O1 O 0.04202(15) 0.6915(3) 0.20375(8)
O2 O -0.07127(15) 0.9301(2) 0.13009(8)
O3 O -0.08115(17) 0.7443(3) 0.00891(8)
S1 S -0.03042(6) 0.73478(9) 0.14478(3)
loop_
_geom_bond_atom_site_label_1
_geom_bond_atom_site_label_2
_geom_bond_site_symmetry_1
_geom_bond_site_symmetry_2
C1 C2 1_555 1_555
C2 H1 1_555 1_555
C3 C2 1_555 1_555
H2 C3 1_555 1_555
C4 C3 1_555 1_555
C5 C4 1_555 1_555
H3 C5 1_555 1_555
H4 C5 1_555 1_555
H5 C5 1_555 1_555
C6 C4 1_555 1_555
H6 C6 1_555 1_555
C7 C1 1_555 1_555
H7 C7 1_555 1_555
C8 C9 1_555 1_555
C9 H8 1_555 1_555
H9 C9 1_555 1_555
C10 C9 1_555 1_555
H10 C10 1_555 1_555
H11 C10 1_555 1_555
C11 C12 1_555 1_555
C12 C13 1_555 1_555
C13 H12 1_555 1_555
C14 C13 1_555 1_555
H13 C14 1_555 1_555
C15 C14 1_555 1_555
H14 C15 1_555 1_555
C16 C15 1_555 1_555
H15 C16 1_555 1_555
C17 C12 1_555 1_555
H16 C17 1_555 1_555
N1 C8 1_555 1_555
N2 C10 1_555 1_555
O1 S1 1_555 1_555
O2 S1 1_555 1_555
O3 C8 1_555 1_555
S1 C1 1_555 1_555
C6 C7 1_555 1_555
C11 N1 1_555 1_555
C11 N2 1_555 1_555
C16 C17 1_555 1_555
N1 S1 1_555 1_555

#END
