
#######################################################################
#
#                 Cambridge Crystallographic Data Centre
#                                CCDC 
#
#######################################################################
#
# If this CIF has been generated from an entry in the Cambridge 
# Structural Database, then it will include bibliographic, chemical, 
# crystal, experimental, refinement or atomic coordinate data resulting 
# from the CCDC's data processing and validation procedures.
#
#######################################################################

data_FUMSOX
_chemical_formula_moiety         'C14 H14 N2 O4 S1'
_chemical_name_systematic        
3-ethyl-5-(3-hydroxy-1-methyl-2-oxo-2,3-dihydro-1H-indol-3-yl)-1,3-thiazolidine-2,4-dione
_symmetry_cell_setting           monoclinic
_symmetry_space_group_name_H-M   'P 21/n'
_symmetry_Int_Tables_number      14
_space_group_name_Hall           '-P 2yn'
loop_
_symmetry_equiv_pos_site_id
_symmetry_equiv_pos_as_xyz
1 x,y,z
2 1/2-x,1/2+y,1/2-z
3 -x,-y,-z
4 1/2+x,1/2-y,1/2+z
_cell_length_a                   13.3514(9)
_cell_length_b                   7.3471(5)
_cell_length_c                   14.3492(9)
_cell_angle_alpha                90
_cell_angle_beta                 103.439(2)
_cell_angle_gamma                90
_cell_volume                     1369.03
_exptl_crystal_colour            colorless
_exptl_crystal_description       block
_cell_formula_units_Z            4
loop_
_atom_site_label
_atom_site_type_symbol
_atom_site_fract_x
_atom_site_fract_y
_atom_site_fract_z
S1 S 0.90090(2) 0.42973(4) 0.07177(2)
O1 O 0.87003(7) 0.03609(12) -0.11139(6)
O2 O 0.81410(8) 0.64107(13) -0.07443(7)
O3 O 0.68749(7) 0.08330(14) -0.00133(7)
O4 O 0.88464(7) -0.12057(12) 0.08022(6)
H1 H 0.8571 -0.1449 0.0244
N1 N 0.83314(8) 0.33932(14) -0.10769(7)
C1 C 0.61331(10) 0.1455(2) 0.17158(10)
H2 H 0.5671 0.1296 0.1100
H3 H 0.6040 0.2646 0.1957
H4 H 0.5991 0.0552 0.2151
C2 C 0.86900(11) 0.3891(2) -0.26756(9)
H5 H 0.9045 0.5007 -0.2466
H6 H 0.8366 0.3976 -0.3346
H7 H 0.9173 0.2901 -0.2573
C3 C 0.78764(10) 0.35560(17) -0.21110(8)
H8 H 0.7387 0.4553 -0.2221
H9 H 0.7505 0.2447 -0.2338
C4 C 0.87120(9) 0.17639(17) -0.06674(8)
C5 C 0.91598(9) 0.19362(16) 0.04066(8)
H10 H 0.9896 0.1651 0.0540
C6 C 0.86375(9) 0.06320(17) 0.09935(8)
C7 C 0.89537(10) 0.09943(17) 0.20559(8)
C8 C 0.80675(10) 0.13217(17) 0.23921(9)
C9 C 0.81126(11) 0.16714(18) 0.33483(9)
H11 H 0.7519 0.1872 0.3568
C10 C 0.90881(11) 0.17102(19) 0.39688(9)
H12 H 0.9143 0.1935 0.4617
C11 C 0.84218(9) 0.48911(18) -0.04815(9)
C12 C 0.74530(9) 0.09369(17) 0.07774(9)
N2 N 0.71885(8) 0.12580(15) 0.16233(8)
C13 C 0.99794(11) 0.14217(19) 0.36438(10)
H13 H 1.0619 0.1473 0.4072
C14 C 0.99154(10) 0.10543(18) 0.26746(9)
H14 H 1.0507 0.0855 0.2452
loop_
_geom_bond_atom_site_label_1
_geom_bond_atom_site_label_2
_geom_bond_site_symmetry_1
_geom_bond_site_symmetry_2
S1 C5 1_555 1_555
O1 C4 1_555 1_555
O2 C11 1_555 1_555
O3 C12 1_555 1_555
O4 H1 1_555 1_555
N1 C3 1_555 1_555
C1 H2 1_555 1_555
H3 C1 1_555 1_555
H4 C1 1_555 1_555
C2 H5 1_555 1_555
H6 C2 1_555 1_555
H7 C2 1_555 1_555
C3 C2 1_555 1_555
H8 C3 1_555 1_555
H9 C3 1_555 1_555
C4 N1 1_555 1_555
C5 C4 1_555 1_555
H10 C5 1_555 1_555
C6 O4 1_555 1_555
C7 C6 1_555 1_555
C8 C7 1_555 1_555
C9 C8 1_555 1_555
H11 C9 1_555 1_555
C10 C9 1_555 1_555
H12 C10 1_555 1_555
C11 S1 1_555 1_555
C12 C6 1_555 1_555
N2 C1 1_555 1_555
C13 C10 1_555 1_555
H13 C13 1_555 1_555
C14 C7 1_555 1_555
H14 C14 1_555 1_555
N1 C11 1_555 1_555
C5 C6 1_555 1_555
C8 N2 1_555 1_555
C12 N2 1_555 1_555
C13 C14 1_555 1_555

#END
