
#######################################################################
#
#                 Cambridge Crystallographic Data Centre
#                                CCDC 
#
#######################################################################
#
# If this CIF has been generated from an entry in the Cambridge 
# Structural Database, then it will include bibliographic, chemical, 
# crystal, experimental, refinement or atomic coordinate data resulting 
# from the CCDC's data processing and validation procedures.
#
#######################################################################

data_FUMVIU
_chemical_formula_moiety         'C32 H24 O4'
_chemical_name_systematic        
6-benzoyl-11a-hydroxy-5-(2-oxo-2-phenylethyl)-5,6,6a,11a-tetrahydro-11H-benzo[a]fluoren-11-one
_symmetry_cell_setting           monoclinic
_symmetry_space_group_name_H-M   'C 2/c'
_symmetry_Int_Tables_number      15
_space_group_name_Hall           '-C 2yn'
loop_
_symmetry_equiv_pos_site_id
_symmetry_equiv_pos_as_xyz
1 x,y,z
2 -x,y,1/2-z
3 1/2+x,1/2+y,z
4 1/2-x,1/2+y,1/2-z
5 -x,-y,-z
6 x,-y,1/2+z
7 1/2-x,1/2-y,-z
8 1/2+x,1/2-y,1/2+z
_cell_length_a                   33.160(4)
_cell_length_b                   9.2130(13)
_cell_length_c                   15.474(2)
_cell_angle_alpha                90
_cell_angle_beta                 97.427(2)
_cell_angle_gamma                90
_cell_volume                     4687.69
_exptl_crystal_colour            colorless
_exptl_crystal_description       block
_cell_formula_units_Z            8
loop_
_atom_site_label
_atom_site_type_symbol
_atom_site_fract_x
_atom_site_fract_y
_atom_site_fract_z
C1 C 0.13630(5) 0.47529(18) 0.75919(10)
C2 C 0.15519(5) 0.39283(17) 0.83479(10)
C3 C 0.19269(5) 0.32182(18) 0.84552(11)
H1 H 0.2100 0.3246 0.8012
C4 C 0.20380(5) 0.24795(18) 0.92182(12)
H2 H 0.2294 0.2006 0.9312
C5 C 0.17778(5) 0.24149(18) 0.98608(12)
H3 H 0.1858 0.1886 1.0382
C6 C 0.14041(5) 0.31138(18) 0.97467(11)
H4 H 0.1228 0.3061 1.0183
C7 C 0.12922(4) 0.38910(16) 0.89855(10)
C8 C 0.09035(4) 0.47326(16) 0.87150(9)
H5 H 0.0677 0.4015 0.8599
C9 C 0.09656(4) 0.54474(17) 0.78314(9)
C10 C 0.10274(4) 0.70806(17) 0.78719(9)
C11 C 0.10305(4) 0.78156(19) 0.70796(10)
H6 H 0.0988 0.7285 0.6549
C12 C 0.10945(5) 0.9292(2) 0.70546(10)
H7 H 0.1095 0.9774 0.6512
C13 C 0.11586(5) 1.00658(18) 0.78260(10)
H8 H 0.1206 1.1082 0.7815
C14 C 0.11533(4) 0.93600(17) 0.86131(10)
H9 H 0.1193 0.9904 0.9139
C15 C 0.10902(4) 0.78633(16) 0.86508(9)
C16 C 0.10799(4) 0.71286(16) 0.95231(9)
H10 H 0.0957 0.7835 0.9905
C17 C 0.15073(4) 0.67500(16) 0.99848(9)
H11 H 0.1485 0.5905 1.0371
H12 H 0.1682 0.6462 0.9540
C18 C 0.17102(4) 0.79825(16) 1.05191(9)
C19 C 0.21232(4) 0.77193(16) 1.10188(9)
C20 C 0.23536(4) 0.64951(17) 1.08937(10)
H13 H 0.2253 0.5790 1.0472
C21 C 0.27307(5) 0.63020(19) 1.13835(11)
H14 H 0.2890 0.5473 1.1289
C22 C 0.28757(5) 0.73078(19) 1.20071(10)
H15 H 0.3133 0.7164 1.2345
C23 C 0.26480(5) 0.85250(19) 1.21415(10)
H16 H 0.2747 0.9214 1.2574
C24 C 0.22743(4) 0.87345(18) 1.16420(9)
H17 H 0.2120 0.9580 1.1727
C25 C 0.07929(4) 0.57924(16) 0.94087(9)
H18 H 0.0814 0.5266 0.9978
C26 C 0.03543(4) 0.63183(16) 0.91798(9)
C27 C 0.01591(4) 0.71408(17) 0.98456(9)
C28 C 0.03100(5) 0.71298(18) 1.07264(10)
H19 H 0.0547 0.6582 1.0924
C29 C 0.01165(5) 0.7914(2) 1.13179(10)
H20 H 0.0221 0.7901 1.1919
C30 C -0.02280(5) 0.87150(19) 1.10343(11)
H21 H -0.0360 0.9253 1.1440
C31 C -0.03806(5) 0.87323(19) 1.01590(11)
H22 H -0.0617 0.9282 0.9964
C32 C -0.01890(4) 0.79512(18) 0.95677(10)
H23 H -0.0295 0.7966 0.8967
O1 O 0.14835(3) 0.48736(15) 0.68845(7)
O2 O 0.06624(3) 0.50553(12) 0.71369(7)
H24 H 0.0441 0.5450 0.7210
O3 O 0.15440(3) 0.91509(12) 1.05773(7)
O4 O 0.01728(3) 0.61022(13) 0.84555(7)
loop_
_geom_bond_atom_site_label_1
_geom_bond_atom_site_label_2
_geom_bond_site_symmetry_1
_geom_bond_site_symmetry_2
C1 C2 1_555 1_555
C2 C3 1_555 1_555
C3 H1 1_555 1_555
C4 C3 1_555 1_555
H2 C4 1_555 1_555
C5 C4 1_555 1_555
H3 C5 1_555 1_555
C6 C5 1_555 1_555
H4 C6 1_555 1_555
C7 C2 1_555 1_555
C8 C7 1_555 1_555
H5 C8 1_555 1_555
C9 C1 1_555 1_555
C10 C9 1_555 1_555
C11 C10 1_555 1_555
H6 C11 1_555 1_555
C12 C11 1_555 1_555
H7 C12 1_555 1_555
C13 C12 1_555 1_555
H8 C13 1_555 1_555
C14 C13 1_555 1_555
H9 C14 1_555 1_555
C15 C10 1_555 1_555
C16 C15 1_555 1_555
H10 C16 1_555 1_555
C17 C16 1_555 1_555
H11 C17 1_555 1_555
H12 C17 1_555 1_555
C18 C17 1_555 1_555
C19 C18 1_555 1_555
C20 C19 1_555 1_555
H13 C20 1_555 1_555
C21 C20 1_555 1_555
H14 C21 1_555 1_555
C22 C21 1_555 1_555
H15 C22 1_555 1_555
C23 C22 1_555 1_555
H16 C23 1_555 1_555
C24 C19 1_555 1_555
H17 C24 1_555 1_555
C25 C8 1_555 1_555
H18 C25 1_555 1_555
C26 C25 1_555 1_555
C27 C26 1_555 1_555
C28 C27 1_555 1_555
H19 C28 1_555 1_555
C29 C28 1_555 1_555
H20 C29 1_555 1_555
C30 C29 1_555 1_555
H21 C30 1_555 1_555
C31 C30 1_555 1_555
H22 C31 1_555 1_555
C32 C27 1_555 1_555
H23 C32 1_555 1_555
O1 C1 1_555 1_555
O2 C9 1_555 1_555
H24 O2 1_555 1_555
O3 C18 1_555 1_555
O4 C26 1_555 1_555
C6 C7 1_555 1_555
C8 C9 1_555 1_555
C14 C15 1_555 1_555
C16 C25 1_555 1_555
C23 C24 1_555 1_555
C31 C32 1_555 1_555

#END
