
#######################################################################
#
#                 Cambridge Crystallographic Data Centre
#                                CCDC 
#
#######################################################################
#
# If this CIF has been generated from an entry in the Cambridge 
# Structural Database, then it will include bibliographic, chemical, 
# crystal, experimental, refinement or atomic coordinate data resulting 
# from the CCDC's data processing and validation procedures.
#
#######################################################################

data_FUMVEQ
_chemical_formula_moiety         'C32 H22 Br2 O4'
_chemical_name_systematic        
3,3'-bis(2-(4-bromophenyl)-2-oxoethyl)-3H-spiro[2-benzofuran-1,2'-inden]-1'(3'H)-one
_symmetry_cell_setting           triclinic
_symmetry_space_group_name_H-M   'P -1'
_symmetry_Int_Tables_number      2
_space_group_name_Hall           '-P 1'
loop_
_symmetry_equiv_pos_site_id
_symmetry_equiv_pos_as_xyz
1 x,y,z
2 -x,-y,-z
_cell_length_a                   9.4414(8)
_cell_length_b                   11.8060(10)
_cell_length_c                   13.6250(18)
_cell_angle_alpha                111.028(2)
_cell_angle_beta                 109.779(2)
_cell_angle_gamma                96.1380(10)
_cell_volume                     1288.08
_cell_formula_units_Z            2
loop_
_atom_site_label
_atom_site_type_symbol
_atom_site_fract_x
_atom_site_fract_y
_atom_site_fract_z
Br1 Br -0.62842(3) 0.17980(2) 0.62657(2)
Br2 Br 0.88598(3) 1.62061(2) 1.19273(2)
C1 C -0.5086(3) 0.3494(2) 0.6981(2)
C2 C -0.3735(3) 0.3886(2) 0.7965(2)
H1 H -0.3408 0.3317 0.8286
C3 C -0.2867(3) 0.5123(2) 0.84749(19)
H2 H -0.1945 0.5409 0.9159
C4 C -0.3334(2) 0.5955(2) 0.79935(19)
C5 C -0.4704(3) 0.5528(2) 0.6993(2)
H3 H -0.5025 0.6086 0.6656
C6 C -0.5595(3) 0.4297(2) 0.6489(2)
H4 H -0.6537 0.4011 0.5820
C7 C -0.2368(2) 0.7289(2) 0.85760(18)
C8 C -0.2597(2) 0.8059(2) 0.78873(19)
H5 H -0.3516 0.8391 0.7891
H6 H -0.2813 0.7510 0.7080
C9 C -0.1184(2) 0.9148(2) 0.83586(18)
H7 H -0.0996 0.9742 0.9156
C10 C -0.1317(2) 0.98427(19) 0.76122(18)
C11 C -0.2249(2) 1.0639(2) 0.74181(19)
H8 H -0.2949 1.0814 0.7782
C12 C -0.2141(3) 1.1173(2) 0.66854(19)
H9 H -0.2777 1.1716 0.6543
C13 C -0.1113(2) 1.09245(19) 0.61539(19)
H10 H -0.1047 1.1306 0.5659
C14 C -0.0185(2) 1.0124(2) 0.63419(18)
H11 H 0.0511 0.9946 0.5976
C15 C -0.0298(2) 0.95892(19) 0.70766(18)
C16 C 0.0552(2) 0.8700(2) 0.74476(18)
C17 C -0.0005(2) 0.7392(2) 0.64158(19)
C18 C 0.1196(3) 0.7319(2) 0.59497(19)
C19 C 0.1133(3) 0.6419(2) 0.49271(19)
H12 H 0.0245 0.5724 0.4436
C20 C 0.2394(3) 0.6565(2) 0.4648(2)
H13 H 0.2394 0.5954 0.3966
C21 C 0.3664(3) 0.7606(2) 0.5361(2)
H14 H 0.4511 0.7707 0.5145
C22 C 0.3727(3) 0.8502(2) 0.63829(19)
H15 H 0.4597 0.9215 0.6856
C23 C 0.2494(2) 0.8335(2) 0.66967(18)
C24 C 0.2333(2) 0.9053(2) 0.78110(18)
H16 H 0.2784 0.8650 0.8336
C25 C 0.3125(2) 1.0455(2) 0.84835(19)
H17 H 0.2884 1.0862 0.7948
H18 H 0.2691 1.0823 0.9058
C26 C 0.4873(2) 1.0738(2) 0.90954(18)
C27 C 0.5797(2) 1.2076(2) 0.97795(18)
C28 C 0.7421(2) 1.2338(2) 1.01546(19)
H19 H 0.7898 1.1669 0.9967
C29 C 0.8335(3) 1.3556(2) 1.0792(2)
H20 H 0.9434 1.3730 1.1032
C30 C 0.7628(3) 1.4523(2) 1.10788(19)
C31 C 0.6028(3) 1.4288(2) 1.07483(19)
H21 H 0.5563 1.4956 1.0975
C32 C 0.5117(3) 1.3062(2) 1.00825(19)
H22 H 0.4017 1.2894 0.9831
O1 O -0.14404(18) 0.77198(15) 0.95713(13)
O2 O 0.01741(16) 0.86713(14) 0.83663(13)
O3 O -0.12060(18) 0.66116(14) 0.60763(14)
O4 O 0.55390(17) 0.98956(14) 0.90263(13)
loop_
_geom_bond_atom_site_label_1
_geom_bond_atom_site_label_2
_geom_bond_site_symmetry_1
_geom_bond_site_symmetry_2
Br1 C1 1_555 1_555
Br2 C30 1_555 1_555
C1 C2 1_555 1_555
C2 H1 1_555 1_555
C3 C2 1_555 1_555
H2 C3 1_555 1_555
C4 C3 1_555 1_555
C5 C4 1_555 1_555
H3 C5 1_555 1_555
C6 C1 1_555 1_555
H4 C6 1_555 1_555
C7 C4 1_555 1_555
C8 C7 1_555 1_555
H5 C8 1_555 1_555
H6 C8 1_555 1_555
C9 C8 1_555 1_555
H7 C9 1_555 1_555
C10 C9 1_555 1_555
C11 C10 1_555 1_555
H8 C11 1_555 1_555
C12 C11 1_555 1_555
H9 C12 1_555 1_555
C13 C12 1_555 1_555
H10 C13 1_555 1_555
C14 C13 1_555 1_555
H11 C14 1_555 1_555
C15 C10 1_555 1_555
C16 C15 1_555 1_555
C17 C16 1_555 1_555
C18 C17 1_555 1_555
C19 C18 1_555 1_555
H12 C19 1_555 1_555
C20 C19 1_555 1_555
H13 C20 1_555 1_555
C21 C20 1_555 1_555
H14 C21 1_555 1_555
C22 C21 1_555 1_555
H15 C22 1_555 1_555
C23 C18 1_555 1_555
C24 C16 1_555 1_555
H16 C24 1_555 1_555
C25 C24 1_555 1_555
H17 C25 1_555 1_555
H18 C25 1_555 1_555
C26 C25 1_555 1_555
C27 C26 1_555 1_555
C28 C27 1_555 1_555
H19 C28 1_555 1_555
C29 C28 1_555 1_555
H20 C29 1_555 1_555
C30 C29 1_555 1_555
C31 C30 1_555 1_555
H21 C31 1_555 1_555
C32 C27 1_555 1_555
H22 C32 1_555 1_555
O1 C7 1_555 1_555
O2 C9 1_555 1_555
O3 C17 1_555 1_555
O4 C26 1_555 1_555
C5 C6 1_555 1_555
C14 C15 1_555 1_555
C16 O2 1_555 1_555
C22 C23 1_555 1_555
C23 C24 1_555 1_555
C31 C32 1_555 1_555

#END
