
#######################################################################
#
#                 Cambridge Crystallographic Data Centre
#                                CCDC 
#
#######################################################################
#
# If this CIF has been generated from an entry in the Cambridge 
# Structural Database, then it will include bibliographic, chemical, 
# crystal, experimental, refinement or atomic coordinate data resulting 
# from the CCDC's data processing and validation procedures.
#
#######################################################################

data_FUMWOB
_chemical_formula_moiety         'C30 H24 Br1 N3 O3'
_chemical_name_systematic        
1-benzyl-3'-(4-bromophenyl)-4'-nitro-5'-phenylspiro[indole-3,2'-pyrrolidin]-2(1H)-one
_symmetry_cell_setting           orthorhombic
_symmetry_space_group_name_H-M   'P 21 21 21'
_symmetry_Int_Tables_number      19
_space_group_name_Hall           'P 2ac 2ab'
loop_
_symmetry_equiv_pos_site_id
_symmetry_equiv_pos_as_xyz
1 x,y,z
2 1/2-x,-y,1/2+z
3 -x,1/2+y,1/2-z
4 1/2+x,1/2-y,-z
_cell_length_a                   10.8543(2)
_cell_length_b                   13.1630(2)
_cell_length_c                   17.7406(3)
_cell_angle_alpha                90
_cell_angle_beta                 90
_cell_angle_gamma                90
_cell_volume                     2534.69
_exptl_crystal_colour            white
_exptl_crystal_description       block
_cell_formula_units_Z            4
loop_
_atom_site_label
_atom_site_type_symbol
_atom_site_fract_x
_atom_site_fract_y
_atom_site_fract_z
Br1 Br 0.30462(3) 0.78359(2) 0.91165(2)
N1 N -0.12401(19) 1.16403(16) 0.87042(11)
O1 O 0.02022(17) 1.25614(13) 0.93669(10)
N2 N -0.1870(2) 1.23748(15) 1.04921(11)
H1 H -0.2552 1.2685 1.0404
C1 C 0.1959(3) 0.88036(19) 0.95561(15)
C2 C -0.0502(2) 1.09608(18) 1.05714(13)
H2 H -0.1023 1.0569 1.0916
N3 N 0.0569(2) 1.15075(19) 1.17600(13)
C3 C -0.2217(2) 1.09771(18) 0.88801(13)
C4 C -0.2972(3) 1.0452(2) 0.83965(15)
H3 H -0.2892 1.0519 0.7877
C5 C -0.2344(2) 1.08991(19) 0.96529(14)
C6 C 0.0385(2) 1.02204(17) 1.02089(14)
C7 C -0.0686(2) 1.19913(18) 0.93427(13)
C8 C -0.1045(2) 1.26100(18) 1.11297(14)
H4 H -0.0718 1.3297 1.1058
C9 C -0.3865(3) 0.9816(2) 0.87092(19)
H5 H -0.4389 0.9453 0.8394
C10 C 0.0756(3) 1.0469(2) 0.79619(16)
H6 H 0.0879 1.0595 0.8472
O2 O 0.1296(2) 1.2087(2) 1.20554(13)
C11 C 0.0035(2) 1.18358(18) 1.10205(14)
H7 H 0.0684 1.2160 1.0721
C12 C -0.0127(2) 1.10134(19) 0.75714(14)
C13 C -0.3107(3) 1.1850(2) 1.27891(18)
H8 H -0.3731 1.1389 1.2898
C14 C -0.1381(2) 1.15480(17) 1.00279(14)
C15 C -0.1661(2) 1.25635(18) 1.18994(14)
C16 C -0.3218(2) 1.0268(2) 0.99596(16)
H9 H -0.3299 1.0210 1.0480
C17 C -0.0823(3) 1.1873(2) 0.79438(14)
H10 H -0.0295 1.2467 0.7962
H11 H -0.1533 1.2041 0.7636
C18 C 0.1606(2) 1.0456(2) 1.00576(15)
H12 H 0.1905 1.1098 1.0178
C19 C -0.0023(3) 0.92541(19) 1.00196(17)
H13 H -0.0839 0.9082 1.0116
C20 C 0.1275(3) 0.9524(2) 0.68578(18)
H14 H 0.1739 0.9024 0.6620
C21 C 0.1462(3) 0.9737(2) 0.76012(18)
H15 H 0.2067 0.9389 0.7868
C22 C -0.3979(3) 0.9717(2) 0.94788(18)
H16 H -0.4568 0.9279 0.9678
C23 C -0.0302(3) 1.0788(2) 0.68157(16)
H17 H -0.0899 1.1135 0.6542
C24 C -0.2585(3) 1.1884(2) 1.20733(16)
H18 H -0.2865 1.1439 1.1704
C25 C 0.2388(3) 0.9750(2) 0.97308(16)
H19 H 0.3204 0.9920 0.9631
O3 O 0.0233(2) 1.07074(18) 1.20315(12)
C26 C -0.1785(4) 1.3204(3) 1.31677(19)
H20 H -0.1513 1.3656 1.3535
C27 C -0.1274(3) 1.3232(2) 1.24468(17)
H21 H -0.0667 1.3707 1.2335
C28 C 0.0741(3) 0.8540(2) 0.96936(18)
H22 H 0.0447 0.7898 0.9569
C29 C -0.2683(4) 1.2514(3) 1.33361(19)
H23 H -0.3011 1.2490 1.3820
C30 C 0.0403(3) 1.0051(3) 0.64652(18)
H24 H 0.0282 0.9913 0.5956
loop_
_geom_bond_atom_site_label_1
_geom_bond_atom_site_label_2
_geom_bond_site_symmetry_1
_geom_bond_site_symmetry_2
Br1 C1 1_555 1_555
N1 C3 1_555 1_555
O1 C7 1_555 1_555
N2 H1 1_555 1_555
C1 C25 1_555 1_555
C2 H2 1_555 1_555
N3 O2 1_555 1_555
C3 C4 1_555 1_555
C4 H3 1_555 1_555
C5 C3 1_555 1_555
C6 C2 1_555 1_555
C7 N1 1_555 1_555
C8 N2 1_555 1_555
H4 C8 1_555 1_555
C9 C4 1_555 1_555
H5 C9 1_555 1_555
C10 H6 1_555 1_555
C11 C2 1_555 1_555
H7 C11 1_555 1_555
C12 C10 1_555 1_555
C13 H8 1_555 1_555
C14 N2 1_555 1_555
C15 C8 1_555 1_555
C16 C5 1_555 1_555
H9 C16 1_555 1_555
C17 N1 1_555 1_555
H10 C17 1_555 1_555
H11 C17 1_555 1_555
C18 C6 1_555 1_555
H12 C18 1_555 1_555
C19 C6 1_555 1_555
H13 C19 1_555 1_555
C20 H14 1_555 1_555
C21 C10 1_555 1_555
H15 C21 1_555 1_555
C22 C9 1_555 1_555
H16 C22 1_555 1_555
C23 C12 1_555 1_555
H17 C23 1_555 1_555
C24 C13 1_555 1_555
H18 C24 1_555 1_555
C25 C18 1_555 1_555
H19 C25 1_555 1_555
O3 N3 1_555 1_555
C26 H20 1_555 1_555
C27 C15 1_555 1_555
H21 C27 1_555 1_555
C28 C1 1_555 1_555
H22 C28 1_555 1_555
C29 C13 1_555 1_555
H23 C29 1_555 1_555
C30 C20 1_555 1_555
H24 C30 1_555 1_555
C2 C14 1_555 1_555
N3 C11 1_555 1_555
C5 C14 1_555 1_555
C7 C14 1_555 1_555
C8 C11 1_555 1_555
C12 C17 1_555 1_555
C15 C24 1_555 1_555
C16 C22 1_555 1_555
C19 C28 1_555 1_555
C20 C21 1_555 1_555
C23 C30 1_555 1_555
C26 C27 1_555 1_555
C26 C29 1_555 1_555

#END
