
#######################################################################
#
#                 Cambridge Crystallographic Data Centre
#                                CCDC 
#
#######################################################################
#
# If this CIF has been generated from an entry in the Cambridge 
# Structural Database, then it will include bibliographic, chemical, 
# crystal, experimental, refinement or atomic coordinate data resulting 
# from the CCDC's data processing and validation procedures.
#
#######################################################################

data_FUNCUO
_chemical_formula_moiety         'C30 H29 N3 O8 S2'
_chemical_name_systematic        
'diethyl 9-((4-methylphenyl)sulfonyl)-1-(((4-methylphenyl)sulfonyl)amino)-1H-imidazo[1,2-a]indole-2,3-dicarboxylate'
_symmetry_cell_setting           monoclinic
_symmetry_space_group_name_H-M   'P 21/n'
_symmetry_Int_Tables_number      14
_space_group_name_Hall           '-P 2yn'
loop_
_symmetry_equiv_pos_site_id
_symmetry_equiv_pos_as_xyz
1 x,y,z
2 1/2-x,1/2+y,1/2-z
3 -x,-y,-z
4 1/2+x,1/2-y,1/2+z
_cell_length_a                   11.1624(9)
_cell_length_b                   21.9285(18)
_cell_length_c                   12.3607(8)
_cell_angle_alpha                90
_cell_angle_beta                 95.498(2)
_cell_angle_gamma                90
_cell_volume                     3011.67
_exptl_crystal_colour            white
_exptl_crystal_description       block
_cell_formula_units_Z            4
loop_
_atom_site_label
_atom_site_type_symbol
_atom_site_fract_x
_atom_site_fract_y
_atom_site_fract_z
S1 S 0.38369(15) 0.65821(7) 0.87756(13)
S2 S 0.28930(16) 0.58690(8) 0.55051(14)
N1 N 0.5090(4) 0.4955(2) 0.8152(3)
N2 N 0.3367(4) 0.5215(2) 0.7250(3)
N3 N 0.2481(4) 0.5559(2) 0.6669(3)
H1 H 0.2299 0.5868 0.7103
O1 O 0.2613(3) 0.64640(17) 0.8314(3)
O2 O 0.4044(4) 0.67479(17) 0.9906(3)
O3 O 0.2156(4) 0.64046(18) 0.5392(3)
O4 O 0.4184(4) 0.59001(19) 0.5567(3)
O5 O 0.3175(3) 0.38105(18) 0.5801(3)
O6 O 0.1633(4) 0.4253(2) 0.6522(3)
O7 O 0.4688(4) 0.33908(19) 0.7618(3)
O8 O 0.6450(4) 0.38718(19) 0.7604(3)
C1 C 0.4656(5) 0.4443(3) 0.7589(4)
C2 C 0.3612(5) 0.4600(3) 0.7037(4)
C3 C 0.4303(5) 0.5432(3) 0.7955(4)
C4 C 0.4662(5) 0.5930(2) 0.8580(4)
C5 C 0.5733(5) 0.5750(3) 0.9247(4)
C6 C 0.5995(5) 0.5135(3) 0.8976(4)
C7 C 0.6938(5) 0.4814(3) 0.9491(4)
H2 H 0.7079 0.4411 0.9308
C8 C 0.7673(5) 0.5109(3) 1.0293(4)
H3 H 0.8325 0.4904 1.0650
C9 C 0.7443(5) 0.5710(3) 1.0568(4)
H4 H 0.7943 0.5898 1.1114
C10 C 0.6500(5) 0.6032(3) 1.0056(4)
H5 H 0.6372 0.6435 1.0247
C11 C 0.5373(6) 0.3879(3) 0.7592(4)
C12 C 0.5293(7) 0.2808(3) 0.7589(6)
H6 H 0.6072 0.2831 0.8008
H7 H 0.5419 0.2706 0.6845
C13 C 0.4548(10) 0.2332(5) 0.8048(9)
H8 H 0.4258 0.2480 0.8706
H9 H 0.5027 0.1973 0.8204
H10 H 0.3878 0.2234 0.7532
C14 C 0.2696(6) 0.4211(3) 0.6433(5)
C15 C 0.2359(5) 0.3358(3) 0.5273(5)
H11 H 0.1728 0.3558 0.4807
H12 H 0.1987 0.3121 0.5814
C16 C 0.3082(7) 0.2952(3) 0.4616(6)
H13 H 0.3387 0.3184 0.4043
H14 H 0.2582 0.2628 0.4307
H15 H 0.3742 0.2783 0.5074
C17 C 0.4398(5) 0.7184(2) 0.8017(5)
C18 C 0.3819(5) 0.7339(3) 0.7010(5)
H16 H 0.3144 0.7122 0.6727
C19 C 0.4255(6) 0.7820(3) 0.6427(5)
H17 H 0.3862 0.7922 0.5754
C20 C 0.5257(6) 0.8148(3) 0.6825(6)
C21 C 0.5802(6) 0.7988(3) 0.7838(6)
H18 H 0.6467 0.8208 0.8132
C22 C 0.5388(6) 0.7517(3) 0.8416(5)
H19 H 0.5781 0.7420 0.9091
C23 C 0.5716(5) 0.8665(3) 0.6174(5)
H20 H 0.6572 0.8699 0.6330
H21 H 0.5341 0.9039 0.6365
H22 H 0.5525 0.8587 0.5413
C24 C 0.2388(6) 0.5346(3) 0.4507(4)
C25 C 0.1178(6) 0.5348(3) 0.4103(5)
H23 H 0.0645 0.5625 0.4363
C26 C 0.0782(6) 0.4930(3) 0.3306(5)
H24 H -0.0026 0.4925 0.3040
C27 C 0.1568(7) 0.4521(4) 0.2901(5)
C28 C 0.2757(6) 0.4528(3) 0.3329(5)
H25 H 0.3289 0.4249 0.3072
C29 C 0.3178(6) 0.4932(3) 0.4118(5)
H26 H 0.3984 0.4928 0.4390
C30 C 0.1096(7) 0.4080(3) 0.2019(5)
H27 H 0.1547 0.3707 0.2092
H28 H 0.1179 0.4257 0.1320
H29 H 0.0262 0.3996 0.2086
H30? H 0.4730 0.2499 0.7781
H31? H 0.5981 0.2797 0.8131
C31? C 0.564(2) 0.2644(8) 0.6467(18)
H32? H 0.5101 0.2337 0.6151
H33? H 0.6449 0.2491 0.6526
H34? H 0.5587 0.3001 0.6014
loop_
_geom_bond_atom_site_label_1
_geom_bond_atom_site_label_2
_geom_bond_site_symmetry_1
_geom_bond_site_symmetry_2
S1 O1 1_555 1_555
S2 N3 1_555 1_555
N1 C1 1_555 1_555
N2 N3 1_555 1_555
N3 H1 1_555 1_555
O2 S1 1_555 1_555
O3 S2 1_555 1_555
O4 S2 1_555 1_555
O5 C14 1_555 1_555
O6 C14 1_555 1_555
O7 C11 1_555 1_555
O8 C11 1_555 1_555
C1 C2 1_555 1_555
C2 N2 1_555 1_555
C3 N1 1_555 1_555
C4 S1 1_555 1_555
C5 C4 1_555 1_555
C6 N1 1_555 1_555
C7 C6 1_555 1_555
H2 C7 1_555 1_555
C8 C7 1_555 1_555
H3 C8 1_555 1_555
C9 C8 1_555 1_555
H4 C9 1_555 1_555
C10 C5 1_555 1_555
H5 C10 1_555 1_555
C11 C1 1_555 1_555
C12 O7 1_555 1_555
H6 C12 1_555 1_555
H7 C12 1_555 1_555
C13 C12 1_555 1_555
H8 C13 1_555 1_555
H9 C13 1_555 1_555
H10 C13 1_555 1_555
C14 C2 1_555 1_555
C15 O5 1_555 1_555
H11 C15 1_555 1_555
H12 C15 1_555 1_555
C16 C15 1_555 1_555
H13 C16 1_555 1_555
H14 C16 1_555 1_555
H15 C16 1_555 1_555
C17 S1 1_555 1_555
C18 C17 1_555 1_555
H16 C18 1_555 1_555
C19 C18 1_555 1_555
H17 C19 1_555 1_555
C20 C19 1_555 1_555
C21 C20 1_555 1_555
H18 C21 1_555 1_555
C22 C17 1_555 1_555
H19 C22 1_555 1_555
C23 C20 1_555 1_555
H20 C23 1_555 1_555
H21 C23 1_555 1_555
H22 C23 1_555 1_555
C24 S2 1_555 1_555
C25 C24 1_555 1_555
H23 C25 1_555 1_555
C26 C25 1_555 1_555
H24 C26 1_555 1_555
C27 C26 1_555 1_555
C28 C27 1_555 1_555
H25 C28 1_555 1_555
C29 C24 1_555 1_555
H26 C29 1_555 1_555
C30 C27 1_555 1_555
H27 C30 1_555 1_555
H28 C30 1_555 1_555
H29 C30 1_555 1_555
N2 C3 1_555 1_555
C3 C4 1_555 1_555
C5 C6 1_555 1_555
C9 C10 1_555 1_555
C21 C22 1_555 1_555
C28 C29 1_555 1_555

#END
