
#######################################################################
#
#                 Cambridge Crystallographic Data Centre
#                                CCDC 
#
#######################################################################
#
# If this CIF has been generated from an entry in the Cambridge 
# Structural Database, then it will include bibliographic, chemical, 
# crystal, experimental, refinement or atomic coordinate data resulting 
# from the CCDC's data processing and validation procedures.
#
#######################################################################

data_FUNJOP
_chemical_compound_source        'Ainsliaea fragrans Champ'
_chemical_name_common            'Fragransin A1'
_chemical_formula_moiety         'C20 H26 O4'
_chemical_name_systematic        
(R,R)-4-Hydroxy-3-(3-hydroxy-3,7-dimethyloct-6-en-2-yl)-5-methyl-2H-chromen-2-one
_symmetry_cell_setting           triclinic
_symmetry_space_group_name_H-M   'P 1'
_symmetry_Int_Tables_number      1
_space_group_name_Hall           'P 1'
loop_
_symmetry_equiv_pos_site_id
_symmetry_equiv_pos_as_xyz
1 x,y,z
_cell_length_a                   7.2264(2)
_cell_length_b                   7.6852(2)
_cell_length_c                   16.5860(3)
_cell_angle_alpha                100.8970(10)
_cell_angle_beta                 96.9830(10)
_cell_angle_gamma                90.1240(10)
_cell_volume                     897.508
_exptl_crystal_colour            colorless
_exptl_crystal_description       needles
_chemical_melting_point          '464.2 K'
_cell_formula_units_Z            2
_exptl_crystal_recrystallization_method 'methanol /dichloromethane/water'
loop_
_atom_site_label
_atom_site_type_symbol
_atom_site_fract_x
_atom_site_fract_y
_atom_site_fract_z
C1 C 0.4832(6) -0.0375(5) 0.4551(2)
C2 C 0.4578(7) 0.1483(6) 0.4663(3)
C3 C 0.4651(8) 0.2454(6) 0.5439(3)
C4 C 0.5141(6) 0.2529(6) 0.7001(2)
C5 C 0.5309(5) 0.1533(6) 0.7615(3)
H1 H 0.5363 0.2101 0.8165
C6 C 0.5398(6) -0.0278(7) 0.7430(3)
H2 H 0.5532 -0.0912 0.7858
C7 C 0.5294(6) -0.1171(6) 0.6632(3)
H3 H 0.5336 -0.2401 0.6508
C8 C 0.5121(5) -0.0166(5) 0.6011(2)
C9 C 0.5010(5) 0.1636(6) 0.6171(2)
C10 C 0.3836(6) 0.2102(5) 0.3846(2)
H4 H 0.4129 0.1145 0.3403
C11 C 0.4804(7) 0.3727(6) 0.3700(2)
C12 C 0.4457(6) 0.4060(5) 0.2808(2)
H5 H 0.3163 0.4373 0.2699
H6 H 0.5221 0.5075 0.2772
C13 C 0.4851(13) 0.2541(8) 0.2136(3)
H7 H 0.3959 0.1582 0.2111
H8 H 0.6085 0.2110 0.2280
C14 C 0.4754(9) 0.3025(7) 0.1293(3)
H9 H 0.3576 0.3177 0.1024
C15 C 0.6206(8) 0.3253(7) 0.0900(3)
C16 C 0.5939(10) 0.3697(9) 0.0070(4)
H10 H 0.4647 0.3531 -0.0152
H11 H 0.6680 0.2940 -0.0285
H12 H 0.6314 0.4911 0.0106
C17 C 0.8233(10) 0.3088(10) 0.1219(5)
H13 H 0.8323 0.2660 0.1729
H14 H 0.8852 0.4228 0.1311
H15 H 0.8814 0.2272 0.0818
C18 C 0.1763(7) 0.2312(8) 0.3685(4)
H16 H 0.1131 0.1276 0.3771
H17 H 0.1435 0.2460 0.3124
H18 H 0.1401 0.3334 0.4056
C19 C 0.6976(7) 0.3595(11) 0.3977(4)
H19 H 0.7634 0.4554 0.3831
H20 H 0.7412 0.2487 0.3702
H21 H 0.7193 0.3664 0.4565
C20 C 0.5115(13) 0.4470(9) 0.7288(4)
H22 H 0.5072 0.4729 0.7875
H23 H 0.4035 0.4934 0.7012
H24 H 0.6220 0.5006 0.7164
O1 O 0.5012(4) -0.1141(3) 0.52300(16)
O2 O 0.4795(5) -0.1433(4) 0.38981(19)
O3 O 0.4534(8) 0.4228(5) 0.5597(2)
H25 H 0.4379 0.4589 0.5160
O4 O 0.4143(7) 0.5209(4) 0.42343(19)
H26 H 0.4500 0.6129 0.4113
C21 C 0.0554(6) 1.1623(6) 0.8625(2)
C22 C 0.0494(7) 0.9715(6) 0.8515(3)
C23 C 0.0400(8) 0.8735(6) 0.7724(3)
C24 C 0.0143(6) 0.8701(6) 0.6154(2)
C25 C -0.0028(6) 0.9743(6) 0.5562(2)
H27 H -0.0181 0.9188 0.5008
C26 C 0.0016(7) 1.1575(7) 0.5747(3)
H28 H -0.0019 1.2231 0.5328
C27 C 0.0110(7) 1.2400(7) 0.6553(3)
H29 H 0.0050 1.3627 0.6693
C28 C 0.0294(5) 1.1399(5) 0.7149(2)
C29 C 0.0297(5) 0.9589(5) 0.7003(2)
C30 C 0.0096(6) 0.8940(6) 0.9286(2)
H30 H 0.0199 0.9941 0.9754
C31 C 0.1427(8) 0.7625(6) 0.9524(3)
C32 C 0.1245(7) 0.7172(6) 1.0373(3)
H31 H 0.0158 0.6394 1.0314
H32 H 0.2326 0.6504 1.0527
C33 C 0.1076(11) 0.8675(7) 1.1071(3)
H33 H -0.0062 0.9291 1.0945
H34 H 0.2114 0.9503 1.1113
C34 C 0.1046(9) 0.8141(7) 1.1897(3)
H35 H 0.2200 0.7955 1.2179
C35 C -0.0429(8) 0.7905(6) 1.2269(3)
C36 C -0.0208(10) 0.7295(10) 1.3095(3)
H36 H -0.0697 0.6104 1.3019
H37 H -0.0876 0.8064 1.3479
H38 H 0.1090 0.7330 1.3309
C37 C -0.2415(10) 0.8086(10) 1.1912(4)
H39 H -0.2697 0.9320 1.1964
H40 H -0.3233 0.7526 1.2206
H41 H -0.2585 0.7529 1.1338
C38 C -0.1819(8) 0.8102(14) 0.9242(4)
H42 H -0.2007 0.7137 0.8777
H43 H -0.2751 0.8971 0.9181
H44 H -0.1914 0.7665 0.9742
C39 C 0.3503(8) 0.8424(12) 0.9518(5)
H45 H 0.4405 0.7754 0.9797
H46 H 0.3585 0.9641 0.9796
H47 H 0.3748 0.8349 0.8956
C40 C 0.0172(13) 0.6703(8) 0.5889(3)
H48 H 0.0192 0.6402 0.5302
H49 H -0.0921 0.6181 0.6032
H50 H 0.1265 0.6261 0.6166
O5 O 0.0433(4) 1.2379(3) 0.79497(16)
O6 O 0.0689(5) 1.2654(4) 0.92857(19)
O7 O 0.0549(9) 0.7013(5) 0.7570(2)
H51 H 0.0406 0.6620 0.7985
O8 O 0.1443(7) 0.6027(5) 0.8944(2)
H52 H 0.0385 0.5589 0.8835
loop_
_geom_bond_atom_site_label_1
_geom_bond_atom_site_label_2
_geom_bond_site_symmetry_1
_geom_bond_site_symmetry_2
C1 C2 1_555 1_555
C2 C3 1_555 1_555
C3 C9 1_555 1_555
C4 C5 1_555 1_555
C5 H1 1_555 1_555
C6 C5 1_555 1_555
H2 C6 1_555 1_555
C7 C6 1_555 1_555
H3 C7 1_555 1_555
C8 C7 1_555 1_555
C9 C4 1_555 1_555
C10 C2 1_555 1_555
H4 C10 1_555 1_555
C11 C10 1_555 1_555
C12 C11 1_555 1_555
H5 C12 1_555 1_555
H6 C12 1_555 1_555
C13 C12 1_555 1_555
H7 C13 1_555 1_555
H8 C13 1_555 1_555
C14 C13 1_555 1_555
H9 C14 1_555 1_555
C15 C14 1_555 1_555
C16 C15 1_555 1_555
H10 C16 1_555 1_555
H11 C16 1_555 1_555
H12 C16 1_555 1_555
C17 C15 1_555 1_555
H13 C17 1_555 1_555
H14 C17 1_555 1_555
H15 C17 1_555 1_555
C18 C10 1_555 1_555
H16 C18 1_555 1_555
H17 C18 1_555 1_555
H18 C18 1_555 1_555
C19 C11 1_555 1_555
H19 C19 1_555 1_555
H20 C19 1_555 1_555
H21 C19 1_555 1_555
C20 C4 1_555 1_555
H22 C20 1_555 1_555
H23 C20 1_555 1_555
H24 C20 1_555 1_555
O1 C1 1_555 1_555
O2 C1 1_555 1_555
O3 C3 1_555 1_555
H25 O3 1_555 1_555
O4 C11 1_555 1_555
H26 O4 1_555 1_555
C21 C22 1_555 1_555
C22 C23 1_555 1_555
C23 C29 1_555 1_555
C24 C25 1_555 1_555
C25 H27 1_555 1_555
C26 C25 1_555 1_555
H28 C26 1_555 1_555
C27 C26 1_555 1_555
H29 C27 1_555 1_555
C28 C27 1_555 1_555
C29 C24 1_555 1_555
C30 C22 1_555 1_555
H30 C30 1_555 1_555
C31 C30 1_555 1_555
C32 C31 1_555 1_555
H31 C32 1_555 1_555
H32 C32 1_555 1_555
C33 C32 1_555 1_555
H33 C33 1_555 1_555
H34 C33 1_555 1_555
C34 C33 1_555 1_555
H35 C34 1_555 1_555
C35 C34 1_555 1_555
C36 C35 1_555 1_555
H36 C36 1_555 1_555
H37 C36 1_555 1_555
H38 C36 1_555 1_555
C37 C35 1_555 1_555
H39 C37 1_555 1_555
H40 C37 1_555 1_555
H41 C37 1_555 1_555
C38 C30 1_555 1_555
H42 C38 1_555 1_555
H43 C38 1_555 1_555
H44 C38 1_555 1_555
C39 C31 1_555 1_555
H45 C39 1_555 1_555
H46 C39 1_555 1_555
H47 C39 1_555 1_555
C40 C24 1_555 1_555
H48 C40 1_555 1_555
H49 C40 1_555 1_555
H50 C40 1_555 1_555
O5 C21 1_555 1_555
O6 C21 1_555 1_555
O7 C23 1_555 1_555
H51 O7 1_555 1_555
O8 C31 1_555 1_555
H52 O8 1_555 1_555
C8 C9 1_555 1_555
C8 O1 1_555 1_555
C28 C29 1_555 1_555
C28 O5 1_555 1_555

#END
