
#######################################################################
#
#                 Cambridge Crystallographic Data Centre
#                                CCDC 
#
#######################################################################
#
# If this CIF has been generated from an entry in the Cambridge 
# Structural Database, then it will include bibliographic, chemical, 
# crystal, experimental, refinement or atomic coordinate data resulting 
# from the CCDC's data processing and validation procedures.
#
#######################################################################

data_FUNKAC
_chemical_compound_source        'Ainsliaea fragrans'
_chemical_formula_moiety         'C20 H22 O5'
_chemical_name_systematic        
rac-9,10-Dihydroxy-4,6,6,9-tetramethyl-7,8,9,10-tetrahydro-6H,11H-isochromeno[4,3-c]chromen-11-one
_symmetry_cell_setting           monoclinic
_symmetry_space_group_name_H-M   'P 21/c'
_symmetry_Int_Tables_number      14
_space_group_name_Hall           '-P 2ybc'
loop_
_symmetry_equiv_pos_site_id
_symmetry_equiv_pos_as_xyz
1 x,y,z
2 -x,1/2+y,1/2-z
3 -x,-y,-z
4 x,1/2-y,1/2+z
_cell_length_a                   5.65620(10)
_cell_length_b                   13.7286(2)
_cell_length_c                   21.7344(4)
_cell_angle_alpha                90
_cell_angle_beta                 91.2250(10)
_cell_angle_gamma                90
_cell_volume                     1687.33
_exptl_crystal_colour            colorless
_exptl_crystal_description       needles
_chemical_melting_point          '481.1 K'
_cell_formula_units_Z            4
_exptl_crystal_recrystallization_method methanol
loop_
_atom_site_label
_atom_site_type_symbol
_atom_site_fract_x
_atom_site_fract_y
_atom_site_fract_z
C1 C 0.9514(2) 0.34716(8) 0.31579(5)
C2 C 0.78428(19) 0.42128(7) 0.29708(5)
C3 C 0.60677(19) 0.44635(8) 0.33594(5)
C4 C 0.3776(2) 0.41022(10) 0.43377(5)
C5 C 0.3558(3) 0.34685(13) 0.48294(6)
H1 H 0.2344 0.3571 0.5104
C6 C 0.5070(3) 0.26900(13) 0.49293(7)
H2 H 0.4855 0.2279 0.5263
C7 C 0.6884(3) 0.25261(11) 0.45355(6)
H3 H 0.7927 0.2011 0.4601
C8 C 0.7135(2) 0.31431(9) 0.40374(5)
C9 C 0.5612(2) 0.39245(8) 0.39171(5)
C10 C 0.2084(3) 0.49404(13) 0.42798(7)
H4 H 0.0911 0.4888 0.4591
H5 H 0.1327 0.4928 0.3880
H6 H 0.2933 0.5542 0.4331
C11 C 0.79382(19) 0.46828(8) 0.23633(5)
C12 C 0.92481(19) 0.41869(8) 0.18471(5)
H7 H 0.9062 0.3481 0.1890
C13 C 0.8287(2) 0.44906(9) 0.12130(5)
C14 C 0.8141(2) 0.55953(9) 0.11811(5)
H8 H 0.7574 0.5786 0.0774
H9 H 0.9712 0.5866 0.1243
C15 C 0.6506(2) 0.60158(8) 0.16610(5)
H10 H 0.6854 0.6703 0.1714
H11 H 0.4883 0.5960 0.1512
C16 C 0.67389(19) 0.55160(8) 0.22749(5)
C17 C 0.5562(2) 0.59807(8) 0.28224(5)
C18 C 0.7315(2) 0.65713(9) 0.32111(6)
H12 H 0.6522 0.6846 0.3557
H13 H 0.7957 0.7086 0.2966
H14 H 0.8572 0.6155 0.3356
C19 C 0.3400(2) 0.65866(9) 0.26582(6)
H15 H 0.2296 0.6198 0.2423
H16 H 0.3864 0.7140 0.2419
H17 H 0.2671 0.6805 0.3028
C20 C 0.9807(3) 0.40788(11) 0.07062(6)
H18 H 0.9950 0.3386 0.0756
H19 H 1.1348 0.4371 0.0730
H20 H 0.9082 0.4219 0.0313
O1 O 0.90292(16) 0.29435(6) 0.36728(4)
O2 O 1.13434(16) 0.32645(6) 0.29060(4)
O3 O 0.46149(13) 0.52031(6) 0.32191(4)
O4 O 1.17248(14) 0.44174(7) 0.18864(4)
H21 H 1.2304 0.4179 0.2201
O5 O 0.60072(16) 0.40471(7) 0.11188(4)
H22 H 0.5089 0.4259 0.1373
loop_
_geom_bond_atom_site_label_1
_geom_bond_atom_site_label_2
_geom_bond_site_symmetry_1
_geom_bond_site_symmetry_2
C1 C2 1_555 1_555
C2 C3 1_555 1_555
C3 C9 1_555 1_555
C4 C5 1_555 1_555
C5 H1 1_555 1_555
C6 C5 1_555 1_555
H2 C6 1_555 1_555
C7 C6 1_555 1_555
H3 C7 1_555 1_555
C8 C7 1_555 1_555
C9 C4 1_555 1_555
C10 C4 1_555 1_555
H4 C10 1_555 1_555
H5 C10 1_555 1_555
H6 C10 1_555 1_555
C11 C2 1_555 1_555
C12 C11 1_555 1_555
H7 C12 1_555 1_555
C13 C12 1_555 1_555
C14 C13 1_555 1_555
H8 C14 1_555 1_555
H9 C14 1_555 1_555
C15 C14 1_555 1_555
H10 C15 1_555 1_555
H11 C15 1_555 1_555
C16 C11 1_555 1_555
C17 C16 1_555 1_555
C18 C17 1_555 1_555
H12 C18 1_555 1_555
H13 C18 1_555 1_555
H14 C18 1_555 1_555
C19 C17 1_555 1_555
H15 C19 1_555 1_555
H16 C19 1_555 1_555
H17 C19 1_555 1_555
C20 C13 1_555 1_555
H18 C20 1_555 1_555
H19 C20 1_555 1_555
H20 C20 1_555 1_555
O1 C1 1_555 1_555
O2 C1 1_555 1_555
O3 C3 1_555 1_555
O4 C12 1_555 1_555
H21 O4 1_555 1_555
O5 C13 1_555 1_555
H22 O5 1_555 1_555
C8 C9 1_555 1_555
C8 O1 1_555 1_555
C15 C16 1_555 1_555
C17 O3 1_555 1_555

#END
