
#######################################################################
#
#                 Cambridge Crystallographic Data Centre
#                                CCDC 
#
#######################################################################
#
# If this CIF has been generated from an entry in the Cambridge 
# Structural Database, then it will include bibliographic, chemical, 
# crystal, experimental, refinement or atomic coordinate data resulting 
# from the CCDC's data processing and validation procedures.
#
#######################################################################

data_FUNKEG
_chemical_compound_source        'Ainsliaea fragrans'
_chemical_formula_moiety         'C15 H16 O6,H2 O1'
_chemical_name_systematic        
'3-hydroxy-2-(2-hydroxypropan-2-yl)-9-methoxy-2,3-dihydro-7H-furo[3,2-g]chromen-7-one monohydrate'
_symmetry_cell_setting           monoclinic
_symmetry_space_group_name_H-M   'P 21'
_symmetry_Int_Tables_number      4
_space_group_name_Hall           'P 2yb'
loop_
_symmetry_equiv_pos_site_id
_symmetry_equiv_pos_as_xyz
1 x,y,z
2 -x,1/2+y,-z
_cell_length_a                   5.56490(10)
_cell_length_b                   12.7775(3)
_cell_length_c                   10.2937(2)
_cell_angle_alpha                90
_cell_angle_beta                 93.9340(10)
_cell_angle_gamma                90
_cell_volume                     730.214
_exptl_crystal_colour            colorless
_exptl_crystal_description       needles
_chemical_melting_point          '379 K'
_cell_formula_units_Z            2
_exptl_crystal_recrystallization_method methanol
loop_
_atom_site_label
_atom_site_type_symbol
_atom_site_fract_x
_atom_site_fract_y
_atom_site_fract_z
C1 C 1.4646(3) 0.75015(10) 0.41621(13)
C2 C 1.4896(3) 0.63918(12) 0.39440(14)
H1 H 1.6044 0.6157 0.3397
C3 C 1.3514(3) 0.56930(11) 0.45120(14)
H2 H 1.3715 0.4983 0.4351
C4 C 1.0289(3) 0.53313(10) 0.60329(13)
H3 H 1.0402 0.4613 0.5907
C5 C 0.8711(2) 0.57344(10) 0.68774(12)
C6 C 0.8502(3) 0.68104(11) 0.70440(12)
C7 C 0.9848(3) 0.75295(10) 0.63902(12)
C8 C 1.1483(3) 0.71068(10) 0.55605(12)
C9 C 1.1722(2) 0.60242(10) 0.53674(12)
C10 C 1.0936(5) 0.90529(14) 0.7530(2)
H4 H 1.0393 0.8809 0.8342
H5 H 1.0761 0.9800 0.7480
H6 H 1.2599 0.8870 0.7477
C11 C 0.5725(2) 0.61430(11) 0.83392(12)
H7 H 0.4091 0.6126 0.7918
C12 C 0.7133(3) 0.52014(9) 0.78113(13)
H8 H 0.6030 0.4708 0.7349
C13 C 0.5501(2) 0.62153(11) 0.98060(12)
C14 C 0.4116(3) 0.52772(13) 1.02675(18)
H9 H 0.5058 0.4655 1.0183
H10 H 0.2624 0.5211 0.9747
H11 H 0.3788 0.5373 1.1163
C15 C 0.4254(3) 0.72295(13) 1.01377(16)
H12 H 0.4100 0.7263 1.1060
H13 H 0.2683 0.7253 0.9690
H14 H 0.5190 0.7813 0.9873
O1 O 1.29023(19) 0.78128(7) 0.49630(9)
O2 O 1.5837(2) 0.81907(9) 0.37219(11)
O3 O 0.9554(2) 0.85860(7) 0.64966(10)
O4 O 0.8531(2) 0.46869(8) 0.88315(10)
H15 H 0.899(4) 0.4119(14) 0.858(2)
O5 O 0.78477(17) 0.62544(9) 1.04783(9)
H16 H 0.851(4) 0.5709(15) 1.022(2)
O6 O 0.6896(2) 0.70928(7) 0.79032(10)
O7 O 0.0258(2) 0.28722(10) 0.78712(12)
H17 H 0.083(4) 0.241(2) 0.843(2)
H18 H 0.139(4) 0.300(2) 0.740(2)
loop_
_geom_bond_atom_site_label_1
_geom_bond_atom_site_label_2
_geom_bond_site_symmetry_1
_geom_bond_site_symmetry_2
C1 C2 1_555 1_555
C2 H1 1_555 1_555
C3 C2 1_555 1_555
H2 C3 1_555 1_555
C4 H3 1_555 1_555
C5 C4 1_555 1_555
C6 C5 1_555 1_555
C7 C6 1_555 1_555
C8 C7 1_555 1_555
C9 C3 1_555 1_555
C10 H4 1_555 1_555
H5 C10 1_555 1_555
H6 C10 1_555 1_555
C11 H7 1_555 1_555
C12 C5 1_555 1_555
H8 C12 1_555 1_555
C13 C11 1_555 1_555
C14 C13 1_555 1_555
H9 C14 1_555 1_555
H10 C14 1_555 1_555
H11 C14 1_555 1_555
C15 C13 1_555 1_555
H12 C15 1_555 1_555
H13 C15 1_555 1_555
H14 C15 1_555 1_555
O1 C1 1_555 1_555
O2 C1 1_555 1_555
O3 C7 1_555 1_555
O4 C12 1_555 1_555
H15 O4 1_555 1_555
O5 C13 1_555 1_555
H16 O5 1_555 1_555
O6 C6 1_555 1_555
O7 H17 1_555 1_555
H18 O7 1_555 1_555
C4 C9 1_555 1_555
C8 C9 1_555 1_555
C8 O1 1_555 1_555
C10 O3 1_555 1_555
C11 C12 1_555 1_555
C11 O6 1_555 1_555

#END
