
#######################################################################
#
#                 Cambridge Crystallographic Data Centre
#                                CCDC 
#
#######################################################################
#
# If this CIF has been generated from an entry in the Cambridge 
# Structural Database, then it will include bibliographic, chemical, 
# crystal, experimental, refinement or atomic coordinate data resulting 
# from the CCDC's data processing and validation procedures.
#
#######################################################################

data_FUNRIR
_chemical_formula_moiety         'C18 H22 Cl2 N3 O2 1+,2(H2 O1),Cl1 1-'
_chemical_name_systematic        
'1-(3-((1-(3,4-dichlorophenyl)-6-oxo-1,6-dihydropyridazin-3-yl)oxy)propyl)piperidinium chloride dihydrate'
_chemical_properties_biological  'antiallodynic activity'
_symmetry_cell_setting           triclinic
_symmetry_space_group_name_H-M   'P -1'
_symmetry_Int_Tables_number      2
_space_group_name_Hall           '-P 1'
loop_
_symmetry_equiv_pos_site_id
_symmetry_equiv_pos_as_xyz
1 x,y,z
2 -x,-y,-z
_cell_length_a                   8.7813(3)
_cell_length_b                   10.4026(3)
_cell_length_c                   12.2094(4)
_cell_angle_alpha                97.6772(14)
_cell_angle_beta                 91.8626(13)
_cell_angle_gamma                105.0210(12)
_cell_volume                     1064.92
_exptl_crystal_colour            colorless
_exptl_crystal_description       Prism
_cell_formula_units_Z            2
loop_
_atom_site_label
_atom_site_type_symbol
_atom_site_fract_x
_atom_site_fract_y
_atom_site_fract_z
Cl1 Cl 1.03515(6) 1.35486(5) 0.39062(4)
Cl2 Cl 1.08236(6) 1.28345(5) 0.62988(4)
O1 O 0.71420(15) 0.87591(13) 0.70200(9)
O2 O 0.31469(14) 0.60559(11) 0.36068(9)
N1 N 0.62047(15) 0.85564(12) 0.52056(10)
N2 N 0.51739(16) 0.78512(13) 0.43204(10)
N3 N 0.22601(13) 0.35383(12) 0.03737(10)
H1 H 0.2368 0.4152 -0.0179
C1 C 0.61960(19) 0.81373(16) 0.62384(12)
C2 C 0.4977(2) 0.69246(17) 0.63408(13)
H2 H 0.4888 0.6615 0.7022
C3 C 0.3982(2) 0.62418(17) 0.54901(14)
H3 H 0.3211 0.5459 0.5561
C4 C 0.41485(19) 0.67627(15) 0.44655(12)
C5 C 0.3232(2) 0.66367(17) 0.25918(13)
H4 H 0.4316 0.6884 0.2387
H5 H 0.2851 0.7438 0.2688
C6 C 0.22089(19) 0.55876(16) 0.17018(13)
H6 H 0.2156 0.5977 0.1027
H7 H 0.1145 0.5305 0.1938
C7 C 0.28688(19) 0.43773(16) 0.14710(13)
H8 H 0.4012 0.4684 0.1491
H9 H 0.2597 0.3824 0.2052
C8 C 0.05521(18) 0.28032(17) 0.03398(14)
H10 H -0.0068 0.3439 0.0527
H11 H 0.0397 0.2185 0.0880
C9 C 0.0002(2) 0.2027(2) -0.08104(16)
H12 H -0.1096 0.1524 -0.0814
H13 H 0.0067 0.2658 -0.1336
C10 C 0.0986(2) 0.10624(17) -0.11750(16)
H14 H 0.0829 0.0364 -0.0705
H15 H 0.0653 0.0637 -0.1932
C11 C 0.2713(2) 0.18212(18) -0.10994(15)
H16 H 0.3342 0.1192 -0.1283
H17 H 0.2883 0.2447 -0.1634
C12 C 0.3246(2) 0.25854(18) 0.00472(15)
H18 H 0.3158 0.1955 0.0575
H19 H 0.4346 0.3087 0.0064
C13 C 0.72427(17) 0.97721(14) 0.49252(12)
C14 C 0.7018(2) 1.01112(16) 0.38742(12)
H20 H 0.6212 0.9562 0.3378
C15 C 0.7990(2) 1.12588(17) 0.35704(14)
H21 H 0.7846 1.1466 0.2863
C16 C 0.9173(2) 1.21036(15) 0.43012(13)
C17 C 0.93828(18) 1.17799(15) 0.53451(13)
C18 C 0.84406(19) 1.06131(16) 0.56662(13)
H22 H 0.8609 1.0398 0.6367
O3 O 0.32478(19) -0.14684(15) -0.07809(15)
H23 H 0.3153 -0.2310 -0.0853
H24 H 0.4157 -0.1068 -0.0960
O4 O 0.4179(2) -0.03157(17) 0.14282(14)
H25 H 0.3862 -0.0403 0.0750
H26 H 0.3646 0.0118 0.1824
Cl3 Cl -0.27206(5) 0.45904(4) 0.14095(3)
loop_
_geom_bond_atom_site_label_1
_geom_bond_atom_site_label_2
_geom_bond_site_symmetry_1
_geom_bond_site_symmetry_2
Cl1 C16 1_555 1_555
Cl2 C17 1_555 1_555
O1 C1 1_555 1_555
O2 C4 1_555 1_555
N1 N2 1_555 1_555
N2 C4 1_555 1_555
N3 H1 1_555 1_555
C1 N1 1_555 1_555
C2 C1 1_555 1_555
H2 C2 1_555 1_555
C3 C2 1_555 1_555
H3 C3 1_555 1_555
C4 C3 1_555 1_555
C5 O2 1_555 1_555
H4 C5 1_555 1_555
H5 C5 1_555 1_555
C6 C5 1_555 1_555
H6 C6 1_555 1_555
H7 C6 1_555 1_555
C7 N3 1_555 1_555
H8 C7 1_555 1_555
H9 C7 1_555 1_555
C8 N3 1_555 1_555
H10 C8 1_555 1_555
H11 C8 1_555 1_555
C9 C8 1_555 1_555
H12 C9 1_555 1_555
H13 C9 1_555 1_555
C10 C9 1_555 1_555
H14 C10 1_555 1_555
H15 C10 1_555 1_555
C11 C10 1_555 1_555
H16 C11 1_555 1_555
H17 C11 1_555 1_555
C12 N3 1_555 1_555
H18 C12 1_555 1_555
H19 C12 1_555 1_555
C13 N1 1_555 1_555
C14 C13 1_555 1_555
H20 C14 1_555 1_555
C15 C14 1_555 1_555
H21 C15 1_555 1_555
C16 C15 1_555 1_555
C17 C16 1_555 1_555
C18 C13 1_555 1_555
H22 C18 1_555 1_555
O3 H23 1_555 1_555
H24 O3 1_555 1_555
O4 H25 1_555 1_555
H26 O4 1_555 1_555
C6 C7 1_555 1_555
C11 C12 1_555 1_555
C17 C18 1_555 1_555

#END
