
#######################################################################
#
#                 Cambridge Crystallographic Data Centre
#                                CCDC 
#
#######################################################################
#
# If this CIF has been generated from an entry in the Cambridge 
# Structural Database, then it will include bibliographic, chemical, 
# crystal, experimental, refinement or atomic coordinate data resulting 
# from the CCDC's data processing and validation procedures.
#
#######################################################################

data_FUNSUE
_chemical_formula_moiety         'C16 H11 F6 N1 O1'
_chemical_name_systematic        
N-methyl-3-(trifluoromethyl)-N-(3-(trifluoromethyl)phenyl)benzamide
_symmetry_cell_setting           monoclinic
_symmetry_space_group_name_H-M   'P 21/c'
_symmetry_Int_Tables_number      14
_space_group_name_Hall           '-P 2ybc'
loop_
_symmetry_equiv_pos_site_id
_symmetry_equiv_pos_as_xyz
1 x,y,z
2 -x,1/2+y,1/2-z
3 -x,-y,-z
4 x,1/2-y,1/2+z
_cell_length_a                   8.3764(5)
_cell_length_b                   23.2362(17)
_cell_length_c                   7.9755(6)
_cell_angle_alpha                90
_cell_angle_beta                 103.567(2)
_cell_angle_gamma                90
_cell_volume                     1509
_exptl_crystal_colour            colorless
_exptl_crystal_description       block
_cell_formula_units_Z            4
loop_
_atom_site_label
_atom_site_type_symbol
_atom_site_fract_x
_atom_site_fract_y
_atom_site_fract_z
F1 F 0.658(5) 0.4226(6) -0.3768(12)
F2 F 0.8739(16) 0.4678(6) -0.252(2)
F3 F 0.6584(13) 0.5129(3) -0.2961(11)
F4 F 0.0382(2) 0.34018(7) 0.5251(2)
F5 F 0.06336(17) 0.42913(6) 0.47666(17)
F6 F 0.26786(18) 0.38330(7) 0.62243(16)
N1 N 0.65402(19) 0.30140(6) 0.13801(19)
O1 O 0.52302(17) 0.22792(6) 0.23509(18)
C1 C 0.3785(2) 0.31646(7) 0.1819(2)
C2 C 0.3305(2) 0.32955(8) 0.3327(2)
H1 H 0.3913 0.3153 0.4405
C3 C 0.1928(2) 0.36369(8) 0.3243(2)
C4 C 0.1009(2) 0.38336(8) 0.1663(2)
H2 H 0.0069 0.4068 0.1613
C5 C 0.1472(2) 0.36861(8) 0.0167(2)
H3 H 0.0830 0.3811 -0.0917
C6 C 0.2865(2) 0.33574(8) 0.0233(2)
H4 H 0.3190 0.3264 -0.0798
C7 C 0.6687(2) 0.36188(8) 0.1068(2)
C8 C 0.6739(2) 0.38055(8) -0.0567(2)
H5 H 0.6641 0.3538 -0.1487
C9 C 0.6934(2) 0.43876(8) -0.0844(2)
C10 C 0.7059(2) 0.47840(8) 0.0486(3)
H6 H 0.7183 0.5182 0.0281
C11 C 0.7000(2) 0.45915(8) 0.2110(3)
H7 H 0.7082 0.4859 0.3027
C12 C 0.6822(2) 0.40098(8) 0.2407(2)
H8 H 0.6793 0.3879 0.3528
C13 C 0.5249(2) 0.27849(8) 0.1896(2)
C14 C 0.7908(2) 0.26392(9) 0.1230(3)
H9 H 0.8738 0.2639 0.2324
H10 H 0.8398 0.2782 0.0309
H11 H 0.7501 0.2247 0.0958
C15 C 0.7038(3) 0.45853(9) -0.2597(3)
C16 C 0.1418(3) 0.37864(9) 0.4866(3)
F7? F 0.5815(10) 0.4300(5) -0.3865(12)
F8? F 0.8319(19) 0.4467(11) -0.3077(18)
F9? F 0.6399(16) 0.5078(6) -0.3024(15)
loop_
_geom_bond_atom_site_label_1
_geom_bond_atom_site_label_2
_geom_bond_site_symmetry_1
_geom_bond_site_symmetry_2
F1 C15 1_555 1_555
F2 C15 1_555 1_555
F3 C15 1_555 1_555
F4 C16 1_555 1_555
F5 C16 1_555 1_555
F6 C16 1_555 1_555
N1 C7 1_555 1_555
O1 C13 1_555 1_555
C1 C2 1_555 1_555
C2 H1 1_555 1_555
C3 C2 1_555 1_555
C4 C3 1_555 1_555
H2 C4 1_555 1_555
C5 C4 1_555 1_555
H3 C5 1_555 1_555
C6 C1 1_555 1_555
H4 C6 1_555 1_555
C7 C8 1_555 1_555
C8 H5 1_555 1_555
C9 C8 1_555 1_555
C10 C9 1_555 1_555
H6 C10 1_555 1_555
C11 C10 1_555 1_555
H7 C11 1_555 1_555
C12 C7 1_555 1_555
H8 C12 1_555 1_555
C13 N1 1_555 1_555
C14 N1 1_555 1_555
H9 C14 1_555 1_555
H10 C14 1_555 1_555
H11 C14 1_555 1_555
C15 C9 1_555 1_555
C16 C3 1_555 1_555
C1 C13 1_555 1_555
C5 C6 1_555 1_555
C11 C12 1_555 1_555

#END
