
#######################################################################
#
#                 Cambridge Crystallographic Data Centre
#                                CCDC 
#
#######################################################################
#
# If this CIF has been generated from an entry in the Cambridge 
# Structural Database, then it will include bibliographic, chemical, 
# crystal, experimental, refinement or atomic coordinate data resulting 
# from the CCDC's data processing and validation procedures.
#
#######################################################################

data_FUNSIS
_chemical_formula_moiety         'C16 H11 F6 N1 O1'
_chemical_name_systematic        
N-methyl-2-(trifluoromethyl)-N-(2-(trifluoromethyl)phenyl)benzamide
_symmetry_cell_setting           monoclinic
_symmetry_space_group_name_H-M   'P 21/c'
_symmetry_Int_Tables_number      14
_space_group_name_Hall           '-P 2ybc'
loop_
_symmetry_equiv_pos_site_id
_symmetry_equiv_pos_as_xyz
1 x,y,z
2 -x,1/2+y,1/2-z
3 -x,-y,-z
4 x,1/2-y,1/2+z
_cell_length_a                   8.9803(4)
_cell_length_b                   10.8526(4)
_cell_length_c                   14.8181(5)
_cell_angle_alpha                90
_cell_angle_beta                 92.763(3)
_cell_angle_gamma                90
_cell_volume                     1442.49
_exptl_crystal_colour            colorless
_exptl_crystal_description       Block
_cell_formula_units_Z            4
loop_
_atom_site_label
_atom_site_type_symbol
_atom_site_fract_x
_atom_site_fract_y
_atom_site_fract_z
N1 N 0.63306(19) 0.27532(14) 0.87062(10)
C1 C 0.7651(2) 0.21511(17) 0.86913(11)
O1 O 0.77399(13) 0.10270(11) 0.86413(8)
F1 F 0.35668(12) 0.20531(12) 0.63768(7)
F2 F 0.46803(14) 0.35615(10) 0.70457(7)
F3 F 0.58524(12) 0.18851(11) 0.68137(7)
F4 F 0.82214(11) 0.27494(12) 1.04997(7)
F5 F 1.04208(12) 0.32179(12) 1.09870(7)
F6 F 0.99969(14) 0.14534(11) 1.03911(8)
C2 C 0.90192(18) 0.29572(16) 0.86568(11)
C3 C 0.99831(18) 0.31698(15) 0.94087(11)
C4 C 1.12878(18) 0.38352(16) 0.93103(12)
H1 H 1.1955 0.3968 0.9818
C5 C 1.16173(19) 0.43043(16) 0.84760(13)
H2 H 1.2507 0.4764 0.8414
C6 C 1.0662(2) 0.41093(17) 0.77308(13)
H3 H 1.0889 0.4436 0.7159
C7 C 0.9373(2) 0.34355(18) 0.78233(12)
H4 H 0.8719 0.3297 0.7310
C8 C 0.49906(18) 0.20135(16) 0.87252(11)
C9 C 0.45664(19) 0.15285(17) 0.95387(11)
H5 H 0.5191 0.1634 1.0069
C10 C 0.32355(19) 0.08897(16) 0.95835(11)
H6 H 0.2954 0.0549 1.0141
C11 C 0.2319(2) 0.07499(16) 0.88138(12)
H7 H 0.1395 0.0330 0.8847
C12 C 0.27401(18) 0.12191(16) 0.79943(11)
H8 H 0.2108 0.1115 0.7467
C13 C 0.40831(18) 0.18406(15) 0.79419(11)
C14 C 0.6189(2) 0.40499(17) 0.89550(14)
C15 C 0.45410(19) 0.23345(17) 0.70544(11)
C16 C 0.96554(19) 0.26511(17) 1.03126(11)
H9 H 0.710(3) 0.448(2) 0.8880(15)
H10 H 0.595(2) 0.409(2) 0.9553(16)
H11 H 0.540(3) 0.440(2) 0.8605(15)
N2? N 0.720(3) 0.299(2) 0.8857(16)
C17? C 0.675(4) 0.184(3) 0.8620(17)
loop_
_geom_bond_atom_site_label_1
_geom_bond_atom_site_label_2
_geom_bond_site_symmetry_1
_geom_bond_site_symmetry_2
N1 C1 1_555 1_555
C1 O1 1_555 1_555
F1 C15 1_555 1_555
F2 C15 1_555 1_555
F3 C15 1_555 1_555
F4 C16 1_555 1_555
F5 C16 1_555 1_555
F6 C16 1_555 1_555
C2 C1 1_555 1_555
C3 C2 1_555 1_555
C4 C3 1_555 1_555
H1 C4 1_555 1_555
C5 C4 1_555 1_555
H2 C5 1_555 1_555
C6 C5 1_555 1_555
H3 C6 1_555 1_555
C7 C2 1_555 1_555
H4 C7 1_555 1_555
C8 N1 1_555 1_555
C9 C8 1_555 1_555
H5 C9 1_555 1_555
C10 C9 1_555 1_555
H6 C10 1_555 1_555
C11 C10 1_555 1_555
H7 C11 1_555 1_555
C12 C11 1_555 1_555
H8 C12 1_555 1_555
C13 C8 1_555 1_555
C14 N1 1_555 1_555
C15 C13 1_555 1_555
C16 C3 1_555 1_555
H9 C14 1_555 1_555
H10 C14 1_555 1_555
H11 C14 1_555 1_555
C6 C7 1_555 1_555
C12 C13 1_555 1_555

#END
