
#######################################################################
#
#                 Cambridge Crystallographic Data Centre
#                                CCDC 
#
#######################################################################
#
# If this CIF has been generated from an entry in the Cambridge 
# Structural Database, then it will include bibliographic, chemical, 
# crystal, experimental, refinement or atomic coordinate data resulting 
# from the CCDC's data processing and validation procedures.
#
#######################################################################

data_FUNSAK
_chemical_formula_moiety         'C15 H12 F3 N1 O1'
_chemical_name_systematic        
N-methyl-N-phenyl-4-(trifluoromethyl)benzamide
_symmetry_cell_setting           monoclinic
_symmetry_space_group_name_H-M   'P 21/c'
_symmetry_Int_Tables_number      14
_space_group_name_Hall           '-P 2ybc'
loop_
_symmetry_equiv_pos_site_id
_symmetry_equiv_pos_as_xyz
1 x,y,z
2 -x,1/2+y,1/2-z
3 -x,-y,-z
4 x,1/2-y,1/2+z
_cell_length_a                   15.1633(5)
_cell_length_b                   9.9603(3)
_cell_length_c                   17.7768(6)
_cell_angle_alpha                90
_cell_angle_beta                 97.269(2)
_cell_angle_gamma                90
_cell_volume                     2663.27
_exptl_crystal_colour            colorless
_exptl_crystal_description       Block
_cell_formula_units_Z            8
loop_
_atom_site_label
_atom_site_type_symbol
_atom_site_fract_x
_atom_site_fract_y
_atom_site_fract_z
F1 F 0.50289(16) -0.3232(2) 0.26051(18)
F2 F 0.38796(15) -0.4335(3) 0.27530(14)
F3 F 0.4606(3) -0.4839(3) 0.18729(15)
O1 O 0.11411(8) -0.07994(14) 0.02951(7)
N1 N 0.21326(9) 0.07937(14) 0.00601(8)
C1 C 0.26219(10) -0.12096(16) 0.08099(8)
C2 C 0.25701(11) -0.25964(17) 0.07242(10)
H1 H 0.2136 -0.2972 0.0352
C3 C 0.31378(11) -0.34324(18) 0.11702(10)
H2 H 0.3109 -0.4377 0.1097
C4 C 0.37528(11) -0.28792(17) 0.17285(10)
C5 C 0.38114(11) -0.14995(18) 0.18251(9)
H3 H 0.4235 -0.1129 0.2208
C6 C 0.32522(11) -0.06648(17) 0.13630(9)
H4 H 0.3298 0.0281 0.1423
C7 C 0.30292(11) 0.11701(17) -0.00341(9)
C8 C 0.35028(11) 0.04406(17) -0.05148(9)
H5 H 0.3247 -0.0333 -0.0768
C9 C 0.43499(12) 0.08504(19) -0.06211(10)
H6 H 0.4677 0.0354 -0.0948
C10 C 0.47240(12) 0.19756(19) -0.02551(10)
H7 H 0.5307 0.2251 -0.0330
C11 C 0.42471(12) 0.27003(19) 0.02204(11)
H8 H 0.4505 0.3472 0.0474
C12 C 0.33971(12) 0.23094(18) 0.03299(10)
H9 H 0.3068 0.2816 0.0651
C13 C 0.19105(11) -0.03889(17) 0.03602(8)
C14 C 0.14245(12) 0.1639(2) -0.03268(10)
H10 H 0.1408 0.1538 -0.0877
H11 H 0.1540 0.2580 -0.0187
H12 H 0.0852 0.1365 -0.0176
C15 C 0.43270(15) -0.3791(2) 0.22445(13)
F7 F 0.27309(17) -0.0204(2) 0.45070(9)
F8 F 0.39071(11) -0.03066(19) 0.40209(13)
F9 F 0.28910(14) -0.17782(13) 0.37311(10)
O2 O 0.18614(8) 0.37755(11) 0.12014(7)
N2 N 0.04877(9) 0.30915(13) 0.14015(7)
C16 C 0.18041(10) 0.20955(15) 0.21369(8)
C17 C 0.25327(11) 0.25311(16) 0.26260(9)
H13 H 0.2751 0.3418 0.2580
C18 C 0.29440(11) 0.16878(17) 0.31793(10)
H14 H 0.3433 0.1998 0.3522
C19 C 0.26368(11) 0.03844(16) 0.32308(9)
C20 C 0.19315(10) -0.00768(16) 0.27281(9)
H15 H 0.1736 -0.0979 0.2758
C21 C 0.15112(10) 0.07738(15) 0.21824(9)
H16 H 0.1024 0.0459 0.1839
C22 C -0.00961(10) 0.25019(15) 0.18849(9)
C23 C -0.00235(10) 0.28457(16) 0.26458(9)
H17 H 0.0414 0.3474 0.2850
C24 C -0.05901(12) 0.22711(17) 0.31070(10)
H18 H -0.0535 0.2492 0.3631
C25 C -0.12363(12) 0.13773(17) 0.28054(11)
H19 H -0.1623 0.0979 0.3122
C26 C -0.13197(12) 0.10620(17) 0.20437(11)
H20 H -0.1772 0.0458 0.1837
C27 C -0.07505(11) 0.16177(16) 0.15766(10)
H21 H -0.0808 0.1396 0.1053
C28 C 0.13864(11) 0.30594(15) 0.15447(8)
C29 C 0.00687(13) 0.39345(19) 0.07814(10)
H22 H 0.0530 0.4360 0.0523
H23 H -0.0291 0.4629 0.0987
H24 H -0.0313 0.3378 0.0420
C30 C 0.30496(14) -0.0512(2) 0.38445(12)
F4? F 0.5083(8) -0.3758(13) 0.2178(9)
F5? F 0.4284(7) -0.3414(11) 0.3025(6)
F6? F 0.4192(7) -0.4964(12) 0.2273(10)
F10? F 0.2460(10) -0.1124(17) 0.4205(8)
F11? F 0.3449(14) -0.0259(15) 0.4426(9)
F12? F 0.3729(10) -0.1411(15) 0.3564(7)
loop_
_geom_bond_atom_site_label_1
_geom_bond_atom_site_label_2
_geom_bond_site_symmetry_1
_geom_bond_site_symmetry_2
F1 C15 1_555 1_555
F2 C15 1_555 1_555
F3 C15 1_555 1_555
O1 C13 1_555 1_555
N1 C7 1_555 1_555
C1 C2 1_555 1_555
C2 H1 1_555 1_555
C3 C2 1_555 1_555
H2 C3 1_555 1_555
C4 C3 1_555 1_555
C5 C4 1_555 1_555
H3 C5 1_555 1_555
C6 C1 1_555 1_555
H4 C6 1_555 1_555
C7 C8 1_555 1_555
C8 H5 1_555 1_555
C9 C8 1_555 1_555
H6 C9 1_555 1_555
C10 C9 1_555 1_555
H7 C10 1_555 1_555
C11 C10 1_555 1_555
H8 C11 1_555 1_555
C12 C7 1_555 1_555
H9 C12 1_555 1_555
C13 N1 1_555 1_555
C14 N1 1_555 1_555
H10 C14 1_555 1_555
H11 C14 1_555 1_555
H12 C14 1_555 1_555
C15 C4 1_555 1_555
F7 C30 1_555 1_555
F8 C30 1_555 1_555
F9 C30 1_555 1_555
O2 C28 1_555 1_555
N2 C22 1_555 1_555
C16 C17 1_555 1_555
C17 H13 1_555 1_555
C18 C17 1_555 1_555
H14 C18 1_555 1_555
C19 C18 1_555 1_555
C20 C19 1_555 1_555
H15 C20 1_555 1_555
C21 C16 1_555 1_555
H16 C21 1_555 1_555
C22 C23 1_555 1_555
C23 H17 1_555 1_555
C24 C23 1_555 1_555
H18 C24 1_555 1_555
C25 C24 1_555 1_555
H19 C25 1_555 1_555
C26 C25 1_555 1_555
H20 C26 1_555 1_555
C27 C22 1_555 1_555
H21 C27 1_555 1_555
C28 N2 1_555 1_555
C29 N2 1_555 1_555
H22 C29 1_555 1_555
H23 C29 1_555 1_555
H24 C29 1_555 1_555
C30 C19 1_555 1_555
C1 C13 1_555 1_555
C5 C6 1_555 1_555
C11 C12 1_555 1_555
C16 C28 1_555 1_555
C20 C21 1_555 1_555
C26 C27 1_555 1_555

#END
