
#######################################################################
#
#                 Cambridge Crystallographic Data Centre
#                                CCDC 
#
#######################################################################
#
# If this CIF has been generated from an entry in the Cambridge 
# Structural Database, then it will include bibliographic, chemical, 
# crystal, experimental, refinement or atomic coordinate data resulting 
# from the CCDC's data processing and validation procedures.
#
#######################################################################

data_FUNTOZ
_chemical_formula_moiety         'C15 H12 F3 N1 O1'
_chemical_name_systematic        
N-methyl-N-(4-(trifluoromethyl)phenyl)benzamide
_symmetry_cell_setting           monoclinic
_symmetry_space_group_name_H-M   'P 21/c'
_symmetry_Int_Tables_number      14
_space_group_name_Hall           '-P 2ybc'
loop_
_symmetry_equiv_pos_site_id
_symmetry_equiv_pos_as_xyz
1 x,y,z
2 -x,1/2+y,1/2-z
3 -x,-y,-z
4 x,1/2-y,1/2+z
_cell_length_a                   23.731(5)
_cell_length_b                   8.3394(15)
_cell_length_c                   13.706(2)
_cell_angle_alpha                90
_cell_angle_beta                 106.707(12)
_cell_angle_gamma                90
_cell_volume                     2597.95
_exptl_crystal_colour            colorless
_exptl_crystal_description       plate
_cell_formula_units_Z            8
loop_
_atom_site_label
_atom_site_type_symbol
_atom_site_fract_x
_atom_site_fract_y
_atom_site_fract_z
F1 F 0.46007(7) 0.08626(18) 0.91251(14)
F2 F 0.47309(10) 0.2483(2) 1.03947(15)
F3 F 0.53856(7) 0.22672(19) 0.95935(15)
N1 N 0.36247(10) 0.7053(3) 0.66270(18)
O1 O 0.31798(9) 0.7827(2) 0.50055(17)
C1 C 0.32058(11) 0.5031(3) 0.5300(2)
C2 C 0.32733(12) 0.4580(3) 0.4362(2)
H1 H 0.3424 0.5327 0.3977
C3 C 0.31231(13) 0.3058(4) 0.3989(3)
H2 H 0.3172 0.2755 0.3350
C4 C 0.29029(14) 0.1978(4) 0.4542(3)
H3 H 0.2803 0.0925 0.4286
C5 C 0.28256(15) 0.2411(4) 0.5468(3)
H4 H 0.2667 0.1666 0.5843
C6 C 0.29796(11) 0.3931(3) 0.5842(2)
H5 H 0.2930 0.4228 0.6481
C7 C 0.39313(12) 0.5885(3) 0.7348(2)
C8 C 0.43077(11) 0.4802(3) 0.7096(2)
H6 H 0.4372 0.4849 0.6444
C9 C 0.45888(11) 0.3655(3) 0.7787(2)
H7 H 0.4837 0.2890 0.7603
C10 C 0.45107(11) 0.3614(3) 0.8751(2)
C11 C 0.41441(11) 0.4720(3) 0.90105(19)
H8 H 0.4092 0.4696 0.9672
C12 C 0.38521(11) 0.5859(3) 0.83159(19)
H9 H 0.3600 0.6616 0.8497
C13 C 0.33422(11) 0.6723(3) 0.5630(2)
C14 C 0.36649(13) 0.8740(3) 0.6938(2)
H10 H 0.3740 0.9403 0.6398
H11 H 0.3987 0.8873 0.7566
H12 H 0.3294 0.9072 0.7057
C15 C 0.48026(16) 0.2330(3) 0.9471(3)
F4 F 0.02812(10) 0.75183(18) 0.56941(15)
F5 F -0.03698(7) 0.77485(18) 0.42441(15)
F6 F 0.04207(7) 0.91261(18) 0.45539(13)
N2 N 0.13528(10) 0.2856(3) 0.30046(18)
O2 O 0.18184(9) 0.2051(2) 0.18695(16)
C16 C 0.18023(11) 0.4849(3) 0.2132(2)
C17 C 0.20191(11) 0.5939(3) 0.2916(2)
H13 H 0.2069 0.5631 0.3603
C18 C 0.21626(15) 0.7488(3) 0.2689(3)
H14 H 0.2313 0.8238 0.3222
C19 C 0.20867(14) 0.7931(4) 0.1693(3)
H15 H 0.2173 0.8999 0.1542
C20 C 0.18881(13) 0.6852(4) 0.0917(3)
H16 H 0.1846 0.7164 0.0233
C21 C 0.17493(12) 0.5315(3) 0.1131(2)
H17 H 0.1616 0.4564 0.0593
C22 C 0.10629(11) 0.4048(3) 0.3429(2)
C23 C 0.11518(11) 0.4119(3) 0.44697(18)
H18 H 0.1409 0.3372 0.4901
C24 C 0.08698(11) 0.5271(3) 0.4893(2)
H19 H 0.0929 0.5303 0.5609
C25 C 0.05012(11) 0.6371(3) 0.4263(2)
C26 C 0.04068(11) 0.6299(3) 0.32147(19)
H20 H 0.0153 0.7054 0.2785
C27 C 0.06800(11) 0.5136(3) 0.27965(19)
H21 H 0.0608 0.5076 0.2079
C28 C 0.16581(12) 0.3150(3) 0.2312(2)
C29 C 0.12636(13) 0.1167(3) 0.3240(2)
H22 H 0.1045 0.0613 0.2615
H23 H 0.1040 0.1118 0.3739
H24 H 0.1646 0.0648 0.3521
C30 C 0.02137(15) 0.7664(3) 0.4687(3)
loop_
_geom_bond_atom_site_label_1
_geom_bond_atom_site_label_2
_geom_bond_site_symmetry_1
_geom_bond_site_symmetry_2
F1 C15 1_555 1_555
F2 C15 1_555 1_555
F3 C15 1_555 1_555
N1 C7 1_555 1_555
O1 C13 1_555 1_555
C1 C2 1_555 1_555
C2 H1 1_555 1_555
C3 C2 1_555 1_555
H2 C3 1_555 1_555
C4 C3 1_555 1_555
H3 C4 1_555 1_555
C5 C4 1_555 1_555
H4 C5 1_555 1_555
C6 C1 1_555 1_555
H5 C6 1_555 1_555
C7 C8 1_555 1_555
C8 H6 1_555 1_555
C9 C8 1_555 1_555
H7 C9 1_555 1_555
C10 C9 1_555 1_555
C11 C10 1_555 1_555
H8 C11 1_555 1_555
C12 C7 1_555 1_555
H9 C12 1_555 1_555
C13 N1 1_555 1_555
C14 N1 1_555 1_555
H10 C14 1_555 1_555
H11 C14 1_555 1_555
H12 C14 1_555 1_555
C15 C10 1_555 1_555
F4 C30 1_555 1_555
F5 C30 1_555 1_555
F6 C30 1_555 1_555
N2 C22 1_555 1_555
O2 C28 1_555 1_555
C16 C17 1_555 1_555
C17 H13 1_555 1_555
C18 C17 1_555 1_555
H14 C18 1_555 1_555
C19 C18 1_555 1_555
H15 C19 1_555 1_555
C20 C19 1_555 1_555
H16 C20 1_555 1_555
C21 C16 1_555 1_555
H17 C21 1_555 1_555
C22 C23 1_555 1_555
C23 H18 1_555 1_555
C24 C23 1_555 1_555
H19 C24 1_555 1_555
C25 C24 1_555 1_555
C26 C25 1_555 1_555
H20 C26 1_555 1_555
C27 C22 1_555 1_555
H21 C27 1_555 1_555
C28 N2 1_555 1_555
C29 N2 1_555 1_555
H22 C29 1_555 1_555
H23 C29 1_555 1_555
H24 C29 1_555 1_555
C30 C25 1_555 1_555
C1 C13 1_555 1_555
C5 C6 1_555 1_555
C11 C12 1_555 1_555
C16 C28 1_555 1_555
C20 C21 1_555 1_555
C26 C27 1_555 1_555

#END
