
#######################################################################
#
#                 Cambridge Crystallographic Data Centre
#                                CCDC 
#
#######################################################################
#
# If this CIF has been generated from an entry in the Cambridge 
# Structural Database, then it will include bibliographic, chemical, 
# crystal, experimental, refinement or atomic coordinate data resulting 
# from the CCDC's data processing and validation procedures.
#
#######################################################################

data_FUNWES
_chemical_formula_moiety         'C42 H48 N4 O2 Si2'
_chemical_name_systematic        
6,13-bis((Tri-isopropylsilyl)ethynyl)[1,4]benzoxazino[2,3-b]phenoxazine-3,10-dicarbonitrile
_symmetry_cell_setting           triclinic
_symmetry_space_group_name_H-M   'P -1'
_symmetry_Int_Tables_number      2
_space_group_name_Hall           '-P 1'
loop_
_symmetry_equiv_pos_site_id
_symmetry_equiv_pos_as_xyz
1 x,y,z
2 -x,-y,-z
_cell_length_a                   7.9210(11)
_cell_length_b                   14.6577(19)
_cell_length_c                   17.062(2)
_cell_angle_alpha                74.479(3)
_cell_angle_beta                 87.380(3)
_cell_angle_gamma                83.772(3)
_cell_volume                     1897.17
_exptl_crystal_colour            'orange red'
_exptl_crystal_description       leaf
_cell_formula_units_Z            2
loop_
_atom_site_label
_atom_site_type_symbol
_atom_site_fract_x
_atom_site_fract_y
_atom_site_fract_z
N1 N -0.4398(2) 0.31701(13) 0.56998(12)
C1 C -0.3718(3) 0.38260(15) 0.53797(14)
C2 C -0.2865(2) 0.46509(14) 0.49639(14)
C3 C -0.2344(2) 0.52444(14) 0.54069(13)
H1 H -0.2541 0.5117 0.5978
C4 C -0.1535(2) 0.60209(14) 0.49854(13)
O1 O -0.09998(17) 0.65939(10) 0.54305(9)
C5 C -0.0150(2) 0.73494(14) 0.50329(12)
C6 C 0.0443(2) 0.78814(14) 0.54892(12)
C7 C 0.1265(2) 0.87225(14) 0.50763(13)
N2 N 0.1787(2) 0.92475(12) 0.55134(11)
C8 C 0.2561(2) 1.00497(14) 0.50904(13)
C9 C 0.3128(2) 1.06419(15) 0.55207(14)
H2 H 0.3016 1.0481 0.6097
C10 C 0.3853(2) 1.14603(15) 0.51163(14)
H3 H 0.4241 1.1859 0.5412
C11 C 0.4009(2) 1.16938(15) 0.42704(14)
C12 C 0.4667(3) 1.25799(16) 0.38447(14)
N3 N 0.5163(3) 1.32927(15) 0.35127(13)
C13 C 0.3492(2) 1.11033(15) 0.38212(14)
H4 H 0.3618 1.1259 0.3246
C14 C 0.2791(2) 1.02837(14) 0.42479(13)
O2 O 0.23173(18) 0.96974(10) 0.38014(9)
C15 C 0.1507(2) 0.89217(14) 0.42001(13)
C16 C 0.1058(2) 0.83380(14) 0.37552(12)
C17 C 0.0121(2) 0.75362(14) 0.41613(13)
N4 N -0.0386(2) 0.70019(12) 0.37299(11)
C18 C -0.1235(2) 0.62287(14) 0.41491(13)
C19 C -0.1770(3) 0.56220(15) 0.37217(14)
H5 H -0.1572 0.5751 0.3151
C20 C -0.2585(3) 0.48362(15) 0.41230(14)
H6 H -0.2950 0.4427 0.3831
C21 C 0.1674(2) 0.84072(14) 0.29430(13)
C22 C 0.2395(3) 0.83546(15) 0.23195(13)
Si1 Si 0.40417(7) 0.80161(4) 0.16156(4)
C23 C 0.3713(3) 0.67770(16) 0.15656(14)
H7 H 0.4671 0.6564 0.1233
C24 C 0.3770(4) 0.60669(17) 0.24095(16)
H8 H 0.2803 0.6234 0.2741
H9 H 0.4831 0.6090 0.2674
H10 H 0.3712 0.5423 0.2353
C25 C 0.2062(3) 0.67346(18) 0.11535(16)
H11 H 0.1947 0.6075 0.1155
H12 H 0.2082 0.7131 0.0591
H13 H 0.1097 0.6971 0.1450
C26 C 0.3912(3) 0.89082(16) 0.05883(14)
H14 H 0.4531 0.9451 0.0633
C27 C 0.2108(3) 0.93299(19) 0.03301(16)
H15 H 0.2152 0.9814 -0.0191
H16 H 0.1567 0.9622 0.0744
H17 H 0.1449 0.8824 0.0272
C28 C 0.4843(3) 0.85126(17) -0.00832(14)
H18 H 0.4326 0.7951 -0.0127
H19 H 0.6043 0.8334 0.0055
H20 H 0.4753 0.9001 -0.0604
C29 C 0.6095(3) 0.79969(16) 0.21389(14)
H21 H 0.6061 0.7499 0.2669
C30 C 0.6297(3) 0.89295(18) 0.23425(17)
H22 H 0.7316 0.8854 0.2668
H23 H 0.5297 0.9101 0.2653
H24 H 0.6406 0.9433 0.1838
C31 C 0.7680(3) 0.7713(2) 0.16733(16)
H25 H 0.7815 0.8210 0.1167
H26 H 0.7554 0.7110 0.1547
H27 H 0.8683 0.7638 0.2009
C32 C 0.0311(2) 0.76256(14) 0.63557(13)
C33 C 0.0288(3) 0.74095(15) 0.70876(14)
Si2 Si 0.06187(7) 0.71302(4) 0.81913(4)
C34 C 0.1496(3) 0.82072(16) 0.83545(15)
H28 H 0.1746 0.8074 0.8946
C35 C 0.0211(4) 0.90960(18) 0.81313(19)
H29 H 0.0698 0.9635 0.8241
H30 H -0.0832 0.8976 0.8458
H31 H -0.0053 0.9244 0.7552
C36 C 0.3168(3) 0.83915(18) 0.78744(16)
H32 H 0.2966 0.8499 0.7293
H33 H 0.4005 0.7839 0.8057
H34 H 0.3599 0.8955 0.7967
C37 C 0.2271(3) 0.60743(16) 0.84230(14)
H35 H 0.3258 0.6268 0.8051
C38 C 0.2968(3) 0.58043(18) 0.92881(15)
H36 H 0.2060 0.5584 0.9681
H37 H 0.3391 0.6361 0.9397
H38 H 0.3898 0.5294 0.9339
C39 C 0.1708(4) 0.51965(17) 0.82137(17)
H39 H 0.2694 0.4729 0.8220
H40 H 0.1211 0.5388 0.7671
H41 H 0.0861 0.4913 0.8616
C40 C -0.1530(3) 0.69552(18) 0.87086(15)
H42 H -0.2212 0.7588 0.8532
C41 C -0.2509(4) 0.6274(2) 0.8426(2)
H43 H -0.1973 0.5623 0.8632
H44 H -0.2507 0.6444 0.7830
H45 H -0.3682 0.6314 0.8632
C42 C -0.1440(3) 0.6739(2) 0.96354(16)
H46 H -0.2588 0.6694 0.9873
H47 H -0.0929 0.7250 0.9780
H48 H -0.0744 0.6134 0.9847
loop_
_geom_bond_atom_site_label_1
_geom_bond_atom_site_label_2
_geom_bond_site_symmetry_1
_geom_bond_site_symmetry_2
N1 C1 1_555 1_555
C1 C2 1_555 1_555
C2 C3 1_555 1_555
C3 H1 1_555 1_555
C4 C3 1_555 1_555
O1 C4 1_555 1_555
C5 O1 1_555 1_555
C6 C5 1_555 1_555
C7 C6 1_555 1_555
N2 C7 1_555 1_555
C8 N2 1_555 1_555
C9 C8 1_555 1_555
H2 C9 1_555 1_555
C10 C9 1_555 1_555
H3 C10 1_555 1_555
C11 C10 1_555 1_555
C12 C11 1_555 1_555
N3 C12 1_555 1_555
C13 C11 1_555 1_555
H4 C13 1_555 1_555
C14 C8 1_555 1_555
O2 C14 1_555 1_555
C15 C7 1_555 1_555
C16 C15 1_555 1_555
C17 C5 1_555 1_555
N4 C17 1_555 1_555
C18 C4 1_555 1_555
C19 C18 1_555 1_555
H5 C19 1_555 1_555
C20 C2 1_555 1_555
H6 C20 1_555 1_555
C21 C16 1_555 1_555
C22 C21 1_555 1_555
Si1 C22 1_555 1_555
C23 Si1 1_555 1_555
H7 C23 1_555 1_555
C24 C23 1_555 1_555
H8 C24 1_555 1_555
H9 C24 1_555 1_555
H10 C24 1_555 1_555
C25 C23 1_555 1_555
H11 C25 1_555 1_555
H12 C25 1_555 1_555
H13 C25 1_555 1_555
C26 Si1 1_555 1_555
H14 C26 1_555 1_555
C27 C26 1_555 1_555
H15 C27 1_555 1_555
H16 C27 1_555 1_555
H17 C27 1_555 1_555
C28 C26 1_555 1_555
H18 C28 1_555 1_555
H19 C28 1_555 1_555
H20 C28 1_555 1_555
C29 Si1 1_555 1_555
H21 C29 1_555 1_555
C30 C29 1_555 1_555
H22 C30 1_555 1_555
H23 C30 1_555 1_555
H24 C30 1_555 1_555
C31 C29 1_555 1_555
H25 C31 1_555 1_555
H26 C31 1_555 1_555
H27 C31 1_555 1_555
C32 C6 1_555 1_555
C33 C32 1_555 1_555
Si2 C33 1_555 1_555
C34 Si2 1_555 1_555
H28 C34 1_555 1_555
C35 C34 1_555 1_555
H29 C35 1_555 1_555
H30 C35 1_555 1_555
H31 C35 1_555 1_555
C36 C34 1_555 1_555
H32 C36 1_555 1_555
H33 C36 1_555 1_555
H34 C36 1_555 1_555
C37 Si2 1_555 1_555
H35 C37 1_555 1_555
C38 C37 1_555 1_555
H36 C38 1_555 1_555
H37 C38 1_555 1_555
H38 C38 1_555 1_555
C39 C37 1_555 1_555
H39 C39 1_555 1_555
H40 C39 1_555 1_555
H41 C39 1_555 1_555
C40 Si2 1_555 1_555
H42 C40 1_555 1_555
C41 C40 1_555 1_555
H43 C41 1_555 1_555
H44 C41 1_555 1_555
H45 C41 1_555 1_555
C42 C40 1_555 1_555
H46 C42 1_555 1_555
H47 C42 1_555 1_555
H48 C42 1_555 1_555
C13 C14 1_555 1_555
O2 C15 1_555 1_555
C16 C17 1_555 1_555
N4 C18 1_555 1_555
C19 C20 1_555 1_555

#END
