
#######################################################################
#
#                 Cambridge Crystallographic Data Centre
#                                CCDC 
#
#######################################################################
#
# If this CIF has been generated from an entry in the Cambridge 
# Structural Database, then it will include bibliographic, chemical, 
# crystal, experimental, refinement or atomic coordinate data resulting 
# from the CCDC's data processing and validation procedures.
#
#######################################################################

data_FUNYOE
_chemical_formula_moiety         'C36 H32 N10 O1,C1 H1 Cl3'
_chemical_name_systematic        
'N-(2-((8,14,20-Trimethyl-2,8,14,20,25,26,27,28-octa-azapentacyclo[19.3.1.1^3,7^.1^9,13^.1^15,19^]octacosa-1(25),3(28),4,6,9(27),10,12,15(26),16,18,21,23-dodecaen-2-yl)methyl)phenyl)pyridine-2-carboxamide chloroform solvate'
_symmetry_cell_setting           triclinic
_symmetry_space_group_name_H-M   'P -1'
_symmetry_Int_Tables_number      2
_space_group_name_Hall           '-P 1'
loop_
_symmetry_equiv_pos_site_id
_symmetry_equiv_pos_as_xyz
1 x,y,z
2 -x,-y,-z
_cell_length_a                   10.5175(11)
_cell_length_b                   11.7732(13)
_cell_length_c                   15.9960(16)
_cell_angle_alpha                68.723(7)
_cell_angle_beta                 78.299(7)
_cell_angle_gamma                86.606(8)
_cell_volume                     1807.11
_exptl_crystal_colour            yellow
_exptl_crystal_description       plate
_cell_formula_units_Z            2
loop_
_atom_site_label
_atom_site_type_symbol
_atom_site_fract_x
_atom_site_fract_y
_atom_site_fract_z
Cl1 Cl 0.4884(5) 0.0020(5) 0.1254(3)
Cl2 Cl 0.5859(5) 0.0329(3) 0.2652(4)
Cl3 Cl 0.3753(4) 0.1739(3) 0.2017(3)
C1 C 0.4541(9) 0.0403(9) 0.2220(8)
H1 H 0.3936 -0.0224 0.2678
O1 O 0.6272(4) 0.2689(4) 0.4389(3)
N1 N 0.2149(4) 0.5096(4) 0.3514(3)
N2 N 0.1569(4) 0.7060(4) 0.2666(3)
N3 N 0.0952(6) 0.8930(5) 0.1744(4)
N4 N -0.0351(6) 0.8045(5) 0.1103(3)
N5 N -0.1716(6) 0.7089(6) 0.0568(4)
N6 N -0.1141(5) 0.5155(5) 0.1377(3)
N7 N -0.0415(5) 0.3296(5) 0.2234(4)
N8 N 0.0902(4) 0.4208(4) 0.2842(3)
N9 N 0.4333(5) 0.3625(4) 0.4178(3)
H2 H 0.4007 0.4340 0.3987
N10 N 0.5425(5) 0.5785(5) 0.3691(4)
C2 C 0.2013(5) 0.6344(5) 0.3410(4)
C3 C 0.2305(6) 0.6785(6) 0.4038(4)
H3 H 0.2636 0.6279 0.4541
C4 C 0.2094(6) 0.7998(7) 0.3898(5)
H4 H 0.2278 0.8315 0.4315
C5 C 0.1618(6) 0.8743(6) 0.3157(5)
H5 H 0.1446 0.9557 0.3070
C6 C 0.1402(6) 0.8238(6) 0.2542(4)
C7 C 0.0151(9) 0.9979(7) 0.1737(6)
H6 H 0.0676 1.0620 0.1736
H7 H -0.0529 0.9753 0.2271
H8 H -0.0223 1.0259 0.1199
C8 C 0.0834(8) 0.8351(5) 0.1126(4)
C9 C 0.1942(7) 0.8137(6) 0.0583(4)
H9 H 0.2753 0.8383 0.0608
C10 C 0.1817(7) 0.7551(7) 0.0003(4)
H10 H 0.2545 0.7405 -0.0382
C11 C 0.0617(7) 0.7184(6) -0.0002(4)
H11 H 0.0513 0.6760 -0.0374
C12 C -0.0437(7) 0.7454(6) 0.0555(4)
C13 C -0.2718(9) 0.8031(8) 0.0485(7)
H12 H -0.3205 0.8022 0.0040
H13 H -0.2311 0.8817 0.0293
H14 H -0.3292 0.7867 0.1066
C14 C -0.2065(6) 0.5890(7) 0.1022(4)
C15 C -0.3321(7) 0.5466(9) 0.1130(5)
H15 H -0.3958 0.5983 0.0879
C16 C -0.3568(7) 0.4272(10) 0.1614(6)
H16 H -0.4397 0.3968 0.1693
C17 C -0.2651(7) 0.3476(7) 0.2000(5)
H17 H -0.2840 0.2655 0.2333
C18 C -0.1421(6) 0.3980(7) 0.1859(4)
C19 C -0.0702(7) 0.2166(6) 0.3009(5)
H18 H -0.1116 0.1601 0.2839
H19 H -0.1270 0.2323 0.3505
H20 H 0.0090 0.1825 0.3199
C20 C 0.0757(5) 0.3932(5) 0.2133(4)
C21 C 0.1669(6) 0.4198(6) 0.1335(4)
H21 H 0.1537 0.3972 0.0859
C22 C 0.2790(6) 0.4814(6) 0.1264(4)
H22 H 0.3426 0.5020 0.0734
C23 C 0.2944(6) 0.5114(5) 0.1992(4)
H23 H 0.3689 0.5527 0.1961
C24 C 0.1992(5) 0.4802(5) 0.2760(4)
C25 C 0.1636(6) 0.4200(5) 0.4423(4)
H24 H 0.0696 0.4186 0.4516
H25 H 0.1869 0.4464 0.4881
C26 C 0.2115(6) 0.2931(5) 0.4569(4)
C27 C 0.1239(7) 0.1976(7) 0.4851(5)
H26 H 0.0358 0.2143 0.4898
C28 C 0.1628(8) 0.0780(7) 0.5067(6)
H27 H 0.1016 0.0151 0.5271
C29 C 0.2926(8) 0.0532(7) 0.4975(7)
H28 H 0.3198 -0.0270 0.5118
C30 C 0.3827(7) 0.1456(6) 0.4677(6)
H29 H 0.4706 0.1277 0.4608
C31 C 0.3444(6) 0.2649(6) 0.4477(4)
C32 C 0.5635(6) 0.3603(6) 0.4146(4)
C33 C 0.6236(6) 0.4862(6) 0.3779(4)
C34 C 0.7570(6) 0.5012(6) 0.3559(4)
H30 H 0.8103 0.4336 0.3647
C35 C 0.8099(7) 0.6158(7) 0.3213(4)
H31 H 0.8994 0.6285 0.3036
C36 C 0.7264(8) 0.7120(7) 0.3133(5)
H32 H 0.7587 0.7914 0.2917
C37 C 0.5946(8) 0.6897(6) 0.3376(6)
H33 H 0.5393 0.7556 0.3315
loop_
_geom_bond_atom_site_label_1
_geom_bond_atom_site_label_2
_geom_bond_site_symmetry_1
_geom_bond_site_symmetry_2
Cl1 C1 1_555 1_555
Cl2 C1 1_555 1_555
Cl3 C1 1_555 1_555
C1 H1 1_555 1_555
O1 C32 1_555 1_555
N1 C2 1_555 1_555
N2 C2 1_555 1_555
N3 C6 1_555 1_555
N4 C8 1_555 1_555
N5 C12 1_555 1_555
N6 C14 1_555 1_555
N7 C18 1_555 1_555
N8 C20 1_555 1_555
N9 H2 1_555 1_555
N10 C33 1_555 1_555
C2 C3 1_555 1_555
C3 H3 1_555 1_555
C4 C3 1_555 1_555
H4 C4 1_555 1_555
C5 C4 1_555 1_555
H5 C5 1_555 1_555
C6 N2 1_555 1_555
C7 N3 1_555 1_555
H6 C7 1_555 1_555
H7 C7 1_555 1_555
H8 C7 1_555 1_555
C8 N3 1_555 1_555
C9 C8 1_555 1_555
H9 C9 1_555 1_555
C10 C9 1_555 1_555
H10 C10 1_555 1_555
C11 C10 1_555 1_555
H11 C11 1_555 1_555
C12 N4 1_555 1_555
C13 N5 1_555 1_555
H12 C13 1_555 1_555
H13 C13 1_555 1_555
H14 C13 1_555 1_555
C14 N5 1_555 1_555
C15 C14 1_555 1_555
H15 C15 1_555 1_555
C16 C15 1_555 1_555
H16 C16 1_555 1_555
C17 C16 1_555 1_555
H17 C17 1_555 1_555
C18 N6 1_555 1_555
C19 N7 1_555 1_555
H18 C19 1_555 1_555
H19 C19 1_555 1_555
H20 C19 1_555 1_555
C20 N7 1_555 1_555
C21 C20 1_555 1_555
H21 C21 1_555 1_555
C22 C21 1_555 1_555
H22 C22 1_555 1_555
C23 C22 1_555 1_555
H23 C23 1_555 1_555
C24 N1 1_555 1_555
C25 N1 1_555 1_555
H24 C25 1_555 1_555
H25 C25 1_555 1_555
C26 C25 1_555 1_555
C27 C26 1_555 1_555
H26 C27 1_555 1_555
C28 C27 1_555 1_555
H27 C28 1_555 1_555
C29 C28 1_555 1_555
H28 C29 1_555 1_555
C30 C29 1_555 1_555
H29 C30 1_555 1_555
C31 N9 1_555 1_555
C32 N9 1_555 1_555
C33 C32 1_555 1_555
C34 C33 1_555 1_555
H30 C34 1_555 1_555
C35 C34 1_555 1_555
H31 C35 1_555 1_555
C36 C35 1_555 1_555
H32 C36 1_555 1_555
C37 N10 1_555 1_555
H33 C37 1_555 1_555
N8 C24 1_555 1_555
C5 C6 1_555 1_555
C11 C12 1_555 1_555
C17 C18 1_555 1_555
C23 C24 1_555 1_555
C26 C31 1_555 1_555
C30 C31 1_555 1_555
C36 C37 1_555 1_555

#END
