
#######################################################################
#
#                 Cambridge Crystallographic Data Centre
#                                CCDC 
#
#######################################################################
#
# If this CIF has been generated from an entry in the Cambridge 
# Structural Database, then it will include bibliographic, chemical, 
# crystal, experimental, refinement or atomic coordinate data resulting 
# from the CCDC's data processing and validation procedures.
#
#######################################################################

data_FUNYUK
_chemical_formula_moiety         'C35 H30 N10 O1,C1 H1 Cl3'
_chemical_name_systematic        
'N-(2-(8,14,20-Trimethyl-2,8,14,20,25,26,27,28-octa-azapentacyclo[19.3.1.1^3,7^.1^9,13^.1^15,19^]octacosa-1(25),3(28),4,6,9(27),10,12,15(26),16,18,21,23-dodecaen-2-yl)phenyl)pyridine-2-carboxamide chloroform solvate'
_symmetry_cell_setting           triclinic
_symmetry_space_group_name_H-M   'P -1'
_symmetry_Int_Tables_number      2
_space_group_name_Hall           '-P 1'
loop_
_symmetry_equiv_pos_site_id
_symmetry_equiv_pos_as_xyz
1 x,y,z
2 -x,-y,-z
_cell_length_a                   9.7003(14)
_cell_length_b                   14.289(2)
_cell_length_c                   15.066(2)
_cell_angle_alpha                64.470(10)
_cell_angle_beta                 71.505(12)
_cell_angle_gamma                74.251(13)
_cell_volume                     1764.76
_exptl_crystal_colour            colorless
_exptl_crystal_description       plate
_cell_formula_units_Z            2
loop_
_atom_site_label
_atom_site_type_symbol
_atom_site_fract_x
_atom_site_fract_y
_atom_site_fract_z
Cl1 Cl 0.3919(2) 0.87432(16) 0.48773(13)
Cl2 Cl 0.2383(4) 0.98531(18) 0.62306(18)
Cl3 Cl 0.0887(2) 0.8694(2) 0.5817(2)
C1 C 0.2583(7) 0.8757(5) 0.5957(4)
H1 H 0.2846 0.8119 0.6543
O1 O 0.2585(3) 0.7114(2) 0.8139(2)
N1 N 0.4671(3) 0.4632(2) 0.6730(2)
N2 N 0.5172(3) 0.3353(3) 0.8265(2)
N3 N 0.5558(4) 0.2123(3) 0.9855(3)
N4 N 0.3376(4) 0.1558(3) 1.0170(3)
N5 N 0.1234(4) 0.1033(3) 1.0326(3)
N6 N 0.0935(4) 0.2101(3) 0.8679(3)
N7 N 0.0646(4) 0.3289(3) 0.7053(3)
N8 N 0.2623(3) 0.4031(2) 0.6857(2)
N9 N 0.3985(4) 0.5535(3) 0.8194(3)
H2 H 0.4050 0.4851 0.8525
N10 N 0.2557(4) 0.4598(3) 1.0100(3)
C2 C 0.5224(4) 0.3570(3) 0.7300(3)
C3 C 0.5765(4) 0.2847(3) 0.6845(3)
H3 H 0.5790 0.3041 0.6153
C4 C 0.6268(5) 0.1837(3) 0.7427(3)
H4 H 0.6664 0.1320 0.7137
C5 C 0.6195(5) 0.1578(3) 0.8430(3)
H5 H 0.6518 0.0879 0.8847
C6 C 0.5640(4) 0.2360(3) 0.8820(3)
C7 C 0.6246(6) 0.2787(4) 1.0056(4)
H6 H 0.6545 0.2392 1.0699
H7 H 0.5539 0.3414 1.0092
H8 H 0.7113 0.2999 0.9509
C8 C 0.4319(5) 0.1724(3) 1.0550(3)
C9 C 0.4077(6) 0.1493(3) 1.1588(3)
H9 H 0.4758 0.1606 1.1854
C10 C 0.2806(7) 0.1096(4) 1.2206(3)
H10 H 0.2619 0.0925 1.2912
C11 C 0.1797(6) 0.0937(4) 1.1831(3)
H11 H 0.0910 0.0683 1.2259
C12 C 0.2149(5) 0.1171(3) 1.0783(3)
C13 C -0.0250(6) 0.0831(4) 1.0854(4)
H12 H -0.0725 0.1306 1.1217
H13 H -0.0223 0.0102 1.1338
H14 H -0.0810 0.0949 1.0366
C14 C 0.1683(5) 0.1256(3) 0.9271(3)
C15 C 0.2838(5) 0.0615(3) 0.8895(3)
H15 H 0.3339 0.0016 0.9339
C16 C 0.3257(5) 0.0852(3) 0.7870(3)
H16 H 0.4045 0.0418 0.7595
C17 C 0.2517(5) 0.1726(3) 0.7251(3)
H17 H 0.2779 0.1909 0.6540
C18 C 0.1381(4) 0.2336(3) 0.7683(3)
C19 C -0.0949(5) 0.3407(4) 0.7199(4)
H18 H -0.1194 0.3669 0.6541
H19 H -0.1446 0.3907 0.7531
H20 H -0.1275 0.2725 0.7622
C20 C 0.1298(4) 0.4182(3) 0.6652(3)
C21 C 0.0627(5) 0.5167(3) 0.6088(3)
H21 H -0.0294 0.5254 0.5941
C22 C 0.1344(5) 0.5999(3) 0.5755(3)
H22 H 0.0909 0.6679 0.5376
C23 C 0.2698(5) 0.5871(3) 0.5960(3)
H23 H 0.3197 0.6450 0.5734
C24 C 0.3287(4) 0.4858(3) 0.6509(3)
C25 C 0.5404(4) 0.5460(3) 0.6576(3)
C26 C 0.6492(4) 0.5790(3) 0.5712(3)
H24 H 0.6745 0.5469 0.5233
C27 C 0.7219(5) 0.6584(3) 0.5535(3)
H25 H 0.7965 0.6811 0.4937
C28 C 0.6850(5) 0.7046(4) 0.6237(4)
H26 H 0.7338 0.7598 0.6119
C29 C 0.5776(5) 0.6707(4) 0.7109(3)
H27 H 0.5538 0.7022 0.7591
C30 C 0.5041(4) 0.5912(3) 0.7291(3)
C31 C 0.2871(5) 0.6160(3) 0.8587(3)
C32 C 0.2016(4) 0.5598(3) 0.9624(3)
C33 C 0.0733(5) 0.6120(4) 1.0041(4)
H28 H 0.0399 0.6837 0.9680
C34 C -0.0059(6) 0.5582(4) 1.0996(4)
H29 H -0.0957 0.5917 1.1295
C35 C 0.0484(6) 0.4555(4) 1.1498(4)
H30 H -0.0029 0.4166 1.2156
C36 C 0.1784(6) 0.4097(4) 1.1033(4)
H31 H 0.2154 0.3387 1.1392
loop_
_geom_bond_atom_site_label_1
_geom_bond_atom_site_label_2
_geom_bond_site_symmetry_1
_geom_bond_site_symmetry_2
Cl1 C1 1_555 1_555
Cl2 C1 1_555 1_555
Cl3 C1 1_555 1_555
C1 H1 1_555 1_555
O1 C31 1_555 1_555
N1 C2 1_555 1_555
N2 C2 1_555 1_555
N3 C6 1_555 1_555
N4 C8 1_555 1_555
N5 C12 1_555 1_555
N6 C14 1_555 1_555
N7 C18 1_555 1_555
N8 C20 1_555 1_555
N9 H2 1_555 1_555
N10 C32 1_555 1_555
C2 C3 1_555 1_555
C3 H3 1_555 1_555
C4 C3 1_555 1_555
H4 C4 1_555 1_555
C5 C4 1_555 1_555
H5 C5 1_555 1_555
C6 N2 1_555 1_555
C7 N3 1_555 1_555
H6 C7 1_555 1_555
H7 C7 1_555 1_555
H8 C7 1_555 1_555
C8 N3 1_555 1_555
C9 C8 1_555 1_555
H9 C9 1_555 1_555
C10 C9 1_555 1_555
H10 C10 1_555 1_555
C11 C10 1_555 1_555
H11 C11 1_555 1_555
C12 N4 1_555 1_555
C13 N5 1_555 1_555
H12 C13 1_555 1_555
H13 C13 1_555 1_555
H14 C13 1_555 1_555
C14 N5 1_555 1_555
C15 C14 1_555 1_555
H15 C15 1_555 1_555
C16 C15 1_555 1_555
H16 C16 1_555 1_555
C17 C16 1_555 1_555
H17 C17 1_555 1_555
C18 N6 1_555 1_555
C19 N7 1_555 1_555
H18 C19 1_555 1_555
H19 C19 1_555 1_555
H20 C19 1_555 1_555
C20 N7 1_555 1_555
C21 C20 1_555 1_555
H21 C21 1_555 1_555
C22 C21 1_555 1_555
H22 C22 1_555 1_555
C23 C22 1_555 1_555
H23 C23 1_555 1_555
C24 N1 1_555 1_555
C25 N1 1_555 1_555
C26 C25 1_555 1_555
H24 C26 1_555 1_555
C27 C26 1_555 1_555
H25 C27 1_555 1_555
C28 C27 1_555 1_555
H26 C28 1_555 1_555
C29 C28 1_555 1_555
H27 C29 1_555 1_555
C30 N9 1_555 1_555
C31 N9 1_555 1_555
C32 C31 1_555 1_555
C33 C32 1_555 1_555
H28 C33 1_555 1_555
C34 C33 1_555 1_555
H29 C34 1_555 1_555
C35 C34 1_555 1_555
H30 C35 1_555 1_555
C36 N10 1_555 1_555
H31 C36 1_555 1_555
N8 C24 1_555 1_555
C5 C6 1_555 1_555
C11 C12 1_555 1_555
C17 C18 1_555 1_555
C23 C24 1_555 1_555
C25 C30 1_555 1_555
C29 C30 1_555 1_555
C35 C36 1_555 1_555

#END
