
#######################################################################
#
#                 Cambridge Crystallographic Data Centre
#                                CCDC 
#
#######################################################################
#
# If this CIF has been generated from an entry in the Cambridge 
# Structural Database, then it will include bibliographic, chemical, 
# crystal, experimental, refinement or atomic coordinate data resulting 
# from the CCDC's data processing and validation procedures.
#
#######################################################################

data_FUNZAR
_chemical_formula_moiety         'C34 H29 N9 O1 S1'
_chemical_name_systematic        
N-(2-(8,14,20-Trimethyl-2,8,14,20,25,26,27,28-octa-azapentacyclo[19.3.1.1^3,7^.1^9,13^.1^15,19^]octacosa-1(25),3(28),4,6,9(27),10,12,15(26),16,18,21,23-dodecaen-2-yl)phenyl)thiophene-2-carboxamide
_symmetry_cell_setting           orthorhombic
_symmetry_space_group_name_H-M   'P 21 21 21'
_symmetry_Int_Tables_number      19
_space_group_name_Hall           'P 2ac 2ab'
loop_
_symmetry_equiv_pos_site_id
_symmetry_equiv_pos_as_xyz
1 x,y,z
2 1/2-x,-y,1/2+z
3 -x,1/2+y,1/2-z
4 1/2+x,1/2-y,-z
_cell_length_a                   11.3520(15)
_cell_length_b                   16.306(2)
_cell_length_c                   16.393(2)
_cell_angle_alpha                90
_cell_angle_beta                 90
_cell_angle_gamma                90
_cell_volume                     3034.44
_exptl_crystal_colour            colorless
_exptl_crystal_description       block
_cell_formula_units_Z            4
loop_
_atom_site_label
_atom_site_type_symbol
_atom_site_fract_x
_atom_site_fract_y
_atom_site_fract_z
S1 S 0.43560(6) 0.28989(4) 0.01349(4)
O1 O 0.23559(15) 0.35266(12) 0.11001(12)
N1 N 0.37925(16) 0.60072(11) 0.25100(11)
N2 N 0.49082(17) 0.64070(11) 0.13997(11)
N3 N 0.61736(18) 0.67787(13) 0.03516(12)
N4 N 0.78049(18) 0.59995(12) 0.07644(12)
N5 N 0.93887(19) 0.51449(13) 0.11487(14)
N6 N 0.81026(17) 0.45514(12) 0.20590(13)
N7 N 0.67468(17) 0.40680(11) 0.29929(12)
N8 N 0.53128(16) 0.50763(11) 0.27957(11)
N9 N 0.34143(16) 0.44385(11) 0.18642(12)
H1 H 0.4130 0.4638 0.1920
C1 C 0.3833(2) 0.62505(12) 0.16853(13)
C2 C 0.2812(2) 0.63202(15) 0.12157(15)
H2 H 0.2056 0.6206 0.1437
C3 C 0.2952(2) 0.65628(16) 0.04153(16)
H3 H 0.2279 0.6613 0.0074
C4 C 0.4056(2) 0.67339(16) 0.01013(15)
H4 H 0.4154 0.6906 -0.0448
C5 C 0.5022(2) 0.66439(14) 0.06211(14)
C6 C 0.6427(3) 0.6604(2) -0.05054(16)
H5 H 0.5969 0.6975 -0.0853
H6 H 0.6213 0.6035 -0.0628
H7 H 0.7269 0.6685 -0.0610
C7 C 0.7122(2) 0.66466(14) 0.09079(14)
C8 C 0.7306(2) 0.71885(15) 0.15525(15)
H8 H 0.6788 0.7637 0.1642
C9 C 0.8259(2) 0.70561(15) 0.20570(16)
H9 H 0.8419 0.7420 0.2495
C10 C 0.8981(2) 0.63838(15) 0.19164(17)
H10 H 0.9644 0.6279 0.2254
C11 C 0.8712(2) 0.58737(15) 0.12772(16)
C12 C 1.0060(3) 0.50871(19) 0.03893(19)
H11 H 1.0785 0.4776 0.0486
H12 H 1.0258 0.5639 0.0198
H13 H 0.9585 0.4807 -0.0025
C13 C 0.8976(2) 0.44373(14) 0.15171(15)
C14 C 0.9447(2) 0.36636(15) 0.13476(16)
H14 H 1.0054 0.3591 0.0955
C15 C 0.8988(2) 0.30082(15) 0.17796(16)
H15 H 0.9302 0.2476 0.1688
C16 C 0.8089(2) 0.31014(14) 0.23384(16)
H16 H 0.7772 0.2649 0.2629
C17 C 0.7669(2) 0.39051(13) 0.24532(14)
C18 C 0.5881(2) 0.34300(14) 0.31524(17)
H17 H 0.6264 0.2966 0.3425
H18 H 0.5537 0.3245 0.2636
H19 H 0.5257 0.3649 0.3504
C19 C 0.6380(2) 0.48919(13) 0.30856(13)
C20 C 0.7077(2) 0.54731(15) 0.34818(15)
H20 H 0.7837 0.5333 0.3681
C21 C 0.6637(2) 0.62538(15) 0.35765(15)
H21 H 0.7096 0.6660 0.3845
C22 C 0.5525(2) 0.64518(14) 0.32821(14)
H22 H 0.5203 0.6985 0.3351
C23 C 0.4911(2) 0.58444(13) 0.28882(13)
C24 C 0.28033(19) 0.55162(13) 0.27727(13)
C25 C 0.2071(2) 0.58201(15) 0.33780(15)
H23 H 0.2250 0.6326 0.3637
C26 C 0.1068(2) 0.53801(16) 0.36055(16)
H24 H 0.0572 0.5580 0.4028
C27 C 0.0800(2) 0.46570(17) 0.32166(15)
H25 H 0.0094 0.4375 0.3352
C28 C 0.1548(2) 0.43333(15) 0.26284(16)
H26 H 0.1363 0.3826 0.2374
C29 C 0.25702(19) 0.47542(13) 0.24117(14)
C30 C 0.3285(2) 0.38751(14) 0.12675(15)
C31 C 0.4390(2) 0.36935(14) 0.08263(13)
C32 C 0.5520(2) 0.4079(2) 0.08810(15)
H27 H 0.5708 0.4547 0.1201
C33 C 0.6323(3) 0.3631(2) 0.03657(17)
H28 H 0.7136 0.3764 0.0326
C34 C 0.5825(2) 0.30057(16) -0.00590(16)
H29 H 0.6249 0.2664 -0.0425
loop_
_geom_bond_atom_site_label_1
_geom_bond_atom_site_label_2
_geom_bond_site_symmetry_1
_geom_bond_site_symmetry_2
S1 C31 1_555 1_555
O1 C30 1_555 1_555
N1 C1 1_555 1_555
N2 C1 1_555 1_555
N3 C5 1_555 1_555
N4 C7 1_555 1_555
N5 C11 1_555 1_555
N6 C13 1_555 1_555
N7 C17 1_555 1_555
N8 C19 1_555 1_555
N9 H1 1_555 1_555
C1 C2 1_555 1_555
C2 H2 1_555 1_555
C3 C2 1_555 1_555
H3 C3 1_555 1_555
C4 C3 1_555 1_555
H4 C4 1_555 1_555
C5 N2 1_555 1_555
C6 N3 1_555 1_555
H5 C6 1_555 1_555
H6 C6 1_555 1_555
H7 C6 1_555 1_555
C7 N3 1_555 1_555
C8 C7 1_555 1_555
H8 C8 1_555 1_555
C9 C8 1_555 1_555
H9 C9 1_555 1_555
C10 C9 1_555 1_555
H10 C10 1_555 1_555
C11 N4 1_555 1_555
C12 N5 1_555 1_555
H11 C12 1_555 1_555
H12 C12 1_555 1_555
H13 C12 1_555 1_555
C13 N5 1_555 1_555
C14 C13 1_555 1_555
H14 C14 1_555 1_555
C15 C14 1_555 1_555
H15 C15 1_555 1_555
C16 C15 1_555 1_555
H16 C16 1_555 1_555
C17 N6 1_555 1_555
C18 N7 1_555 1_555
H17 C18 1_555 1_555
H18 C18 1_555 1_555
H19 C18 1_555 1_555
C19 N7 1_555 1_555
C20 C19 1_555 1_555
H20 C20 1_555 1_555
C21 C20 1_555 1_555
H21 C21 1_555 1_555
C22 C21 1_555 1_555
H22 C22 1_555 1_555
C23 N1 1_555 1_555
C24 N1 1_555 1_555
C25 C24 1_555 1_555
H23 C25 1_555 1_555
C26 C25 1_555 1_555
H24 C26 1_555 1_555
C27 C26 1_555 1_555
H25 C27 1_555 1_555
C28 C27 1_555 1_555
H26 C28 1_555 1_555
C29 N9 1_555 1_555
C30 N9 1_555 1_555
C31 C30 1_555 1_555
C32 C31 1_555 1_555
H27 C32 1_555 1_555
C33 C32 1_555 1_555
H28 C33 1_555 1_555
C34 S1 1_555 1_555
H29 C34 1_555 1_555
N8 C23 1_555 1_555
C4 C5 1_555 1_555
C10 C11 1_555 1_555
C16 C17 1_555 1_555
C22 C23 1_555 1_555
C24 C29 1_555 1_555
C28 C29 1_555 1_555
C33 C34 1_555 1_555

#END
