
#######################################################################
#
#                 Cambridge Crystallographic Data Centre
#                                CCDC 
#
#######################################################################
#
# If this CIF has been generated from an entry in the Cambridge 
# Structural Database, then it will include bibliographic, chemical, 
# crystal, experimental, refinement or atomic coordinate data resulting 
# from the CCDC's data processing and validation procedures.
#
#######################################################################

data_FUPDIF
_chemical_formula_moiety         'C44 H46 N6 O2 Si2'
_chemical_name_systematic        
6,13-bis((Tri-isopropylsilyl)ethynyl)[1,4]benzoxazino[2,3-b]phenoxazine-1,3,8,10-tetracarbonitrile
_symmetry_cell_setting           triclinic
_symmetry_space_group_name_H-M   'P -1'
_symmetry_Int_Tables_number      2
_space_group_name_Hall           '-P 1'
loop_
_symmetry_equiv_pos_site_id
_symmetry_equiv_pos_as_xyz
1 x,y,z
2 -x,-y,-z
_cell_length_a                   7.6655(4)
_cell_length_b                   8.1108(4)
_cell_length_c                   17.0518(10)
_cell_angle_alpha                83.788(2)
_cell_angle_beta                 78.364(2)
_cell_angle_gamma                89.566(2)
_cell_volume                     1032.17
_exptl_crystal_colour            red
_exptl_crystal_description       'little rectangle'
_cell_formula_units_Z            1
loop_
_atom_site_label
_atom_site_type_symbol
_atom_site_fract_x
_atom_site_fract_y
_atom_site_fract_z
Si1 Si 0.77450(4) 0.29278(4) 0.175560(19)
O1 O 0.28050(10) 0.32224(10) 0.42918(5)
N1 N 0.83659(13) 0.57934(12) 0.41476(6)
C1 C 0.55814(15) 0.44709(13) 0.42062(6)
C2 C 0.00370(15) 0.19325(14) 0.43531(7)
H1 H 0.0431 0.1657 0.3819
C3 C 0.94357(15) 0.67037(14) 0.45069(7)
C4 C 0.67577(15) 0.54243(13) 0.45603(6)
C5 C 0.39079(15) 0.40886(13) 0.46396(7)
N2 N -0.36117(14) -0.04803(14) 0.42034(7)
C6 C -0.27647(16) 0.04106(15) 0.44544(7)
C7 C 0.11251(15) 0.28180(14) 0.47178(7)
C8 C 1.11721(15) 0.71699(14) 0.40855(7)
C9 C 0.68058(16) 0.35108(15) 0.27757(7)
C10 C 0.62198(15) 0.39559(14) 0.34273(7)
C11 C 1.22798(15) 0.81037(14) 0.44282(7)
H2 H 1.3438 0.8436 0.4139
C12 C 1.17823(16) 0.66469(16) 0.32953(7)
C13 C -0.16575(15) 0.14542(14) 0.47926(7)
C14 C 0.60757(18) 0.14680(17) 0.15171(8)
H3 H 0.4978 0.2131 0.1496
C15 C 1.00300(17) 0.20755(17) 0.17965(7)
H4 H 1.0628 0.2877 0.2067
N3 N 1.22921(16) 0.62162(17) 0.26748(7)
C16 C 0.79404(18) 0.49052(16) 0.10515(7)
H5 H 0.8501 0.4625 0.0501
C17 C 0.6116(2) 0.5657(2) 0.10047(9)
H6 H 0.5498 0.5877 0.1544
H7 H 0.5405 0.4877 0.0794
H8 H 0.6281 0.6697 0.0646
C18 C 1.0016(2) 0.03950(18) 0.22995(9)
H9 H 0.9662 -0.0476 0.2004
H10 H 0.9167 0.0415 0.2812
H11 H 1.1210 0.0169 0.2405
C19 C 0.9162(2) 0.61767(19) 0.12848(10)
H12 H 0.9279 0.7171 0.0896
H13 H 1.0339 0.5696 0.1284
H14 H 0.8649 0.6475 0.1824
C20 C 0.5502(2) -0.0008(2) 0.21556(10)
H15 H 0.4542 -0.0628 0.2012
H16 H 0.5078 0.0396 0.2681
H17 H 0.6519 -0.0736 0.2182
C21 C 1.1206(2) 0.2007(2) 0.09565(9)
H18 H 1.2387 0.1601 0.1012
H19 H 1.1323 0.3120 0.0662
H20 H 1.0656 0.1256 0.0660
C22 C 0.6663(3) 0.0879(2) 0.06802(10)
H21 H 0.7726 0.0196 0.0670
H22 H 0.6938 0.1843 0.0275
H23 H 0.5701 0.0221 0.0561
Si1A Si 0.22550(4) 0.70722(4) 0.824440(19)
O1A O 0.71950(10) 0.67776(10) 0.57082(5)
N1A N 0.16341(13) 0.42066(12) 0.58524(6)
C1A C 0.44186(15) 0.55291(13) 0.57938(6)
C2A C 0.99630(15) 0.80675(14) 0.56469(7)
H1A H 0.9569 0.8343 0.6181
C3A C 0.05643(15) 0.32963(14) 0.54931(7)
C4A C 0.32423(15) 0.45757(13) 0.54397(6)
C5A C 0.60921(15) 0.59114(13) 0.53604(7)
N2A N 1.36117(14) 1.04803(14) 0.57966(7)
C6A C 1.27647(16) 0.95894(15) 0.55456(7)
C7A C 0.88749(15) 0.71820(14) 0.52822(7)
C8A C -0.11721(15) 0.28301(14) 0.59145(7)
C9A C 0.31942(16) 0.64892(15) 0.72243(7)
C10A C 0.37802(15) 0.60441(14) 0.65727(7)
C11A C -0.22798(15) 0.18963(14) 0.55718(7)
H2A H -0.3438 0.1564 0.5861
C12A C -0.17823(16) 0.33531(16) 0.67047(7)
C13A C 1.16575(15) 0.85458(14) 0.52074(7)
C14A C 0.39243(18) 0.85320(17) 0.84829(8)
H3A H 0.5022 0.7869 0.8504
C15A C -0.00300(17) 0.79245(17) 0.82035(7)
H4A H -0.0628 0.7123 0.7933
N3A N -0.22921(16) 0.37838(17) 0.73252(7)
C16A C 0.20596(18) 0.50948(16) 0.89485(7)
H5A H 0.1499 0.5375 0.9499
C17A C 0.3884(2) 0.4343(2) 0.89953(9)
H6A H 0.4502 0.4123 0.8456
H7A H 0.4595 0.5123 0.9206
H8A H 0.3719 0.3303 0.9354
C18A C -0.0016(2) 0.96050(18) 0.77005(9)
H9A H 0.0338 1.0476 0.7996
H10A H 0.0833 0.9585 0.7188
H11A H -0.1210 0.9831 0.7595
C19A C 0.0838(2) 0.38233(19) 0.87152(10)
H12A H 0.0721 0.2829 0.9104
H13A H -0.0339 0.4304 0.8716
H14A H 0.1351 0.3525 0.8176
C20A C 0.4498(2) 1.0008(2) 0.78444(10)
H15A H 0.5458 1.0628 0.7988
H16A H 0.4922 0.9604 0.7319
H17A H 0.3481 1.0736 0.7818
C21A C -0.1206(2) 0.7993(2) 0.90435(9)
H18A H -0.2387 0.8399 0.8988
H19A H -0.1323 0.6880 0.9338
H20A H -0.0656 0.8744 0.9340
C22A C 0.3337(3) 0.9121(2) 0.93198(10)
H21A H 0.2274 0.9804 0.9330
H22A H 0.3062 0.8157 0.9725
H23A H 0.4299 0.9779 0.9439
loop_
_geom_bond_atom_site_label_1
_geom_bond_atom_site_label_2
_geom_bond_site_symmetry_1
_geom_bond_site_symmetry_2
Si1 C9 1_555 1_555
O1 C5 1_555 1_555
N1 C3 1_555 1_555
C1 C4 1_555 1_555
C2 H1 1_555 1_555
C3 C8 1_555 1_555
C4 N1 1_555 1_555
C5 C1 1_555 1_555
N2 C6 1_555 1_555
C6 C13 1_555 1_555
C7 O1 1_555 1_555
C8 C11 1_555 1_555
C9 C10 1_555 1_555
C10 C1 1_555 1_555
C11 H2 1_555 1_555
C12 C8 1_555 1_555
C13 C2 1_555 1_555
C14 Si1 1_555 1_555
H3 C14 1_555 1_555
C15 Si1 1_555 1_555
H4 C15 1_555 1_555
N3 C12 1_555 1_555
C16 Si1 1_555 1_555
H5 C16 1_555 1_555
C17 C16 1_555 1_555
H6 C17 1_555 1_555
H7 C17 1_555 1_555
H8 C17 1_555 1_555
C18 C15 1_555 1_555
H9 C18 1_555 1_555
H10 C18 1_555 1_555
H11 C18 1_555 1_555
C19 C16 1_555 1_555
H12 C19 1_555 1_555
H13 C19 1_555 1_555
H14 C19 1_555 1_555
C20 C14 1_555 1_555
H15 C20 1_555 1_555
H16 C20 1_555 1_555
H17 C20 1_555 1_555
C21 C15 1_555 1_555
H18 C21 1_555 1_555
H19 C21 1_555 1_555
H20 C21 1_555 1_555
C22 C14 1_555 1_555
H21 C22 1_555 1_555
H22 C22 1_555 1_555
H23 C22 1_555 1_555
Si1A C9A 1_555 1_555
O1A C5A 1_555 1_555
N1A C3A 1_555 1_555
C1A C4A 1_555 1_555
C2A H1A 1_555 1_555
C3A C7 1_555 1_555
C4A C5 1_555 1_555
C5A C4 1_555 1_555
N2A C6A 1_555 1_555
C6A C13A 1_555 1_555
C7A C3 1_555 1_555
C8A C3A 1_555 1_555
C9A C10A 1_555 1_555
C10A C1A 1_555 1_555
C11A C13 1_555 1_555
H2A C11A 1_555 1_555
C12A C8A 1_555 1_555
C13A C11 1_555 1_555
C14A Si1A 1_555 1_555
H3A C14A 1_555 1_555
C15A Si1A 1_555 1_555
H4A C15A 1_555 1_555
N3A C12A 1_555 1_555
C16A Si1A 1_555 1_555
H5A C16A 1_555 1_555
C17A C16A 1_555 1_555
H6A C17A 1_555 1_555
H7A C17A 1_555 1_555
H8A C17A 1_555 1_555
C18A C15A 1_555 1_555
H9A C18A 1_555 1_555
H10A C18A 1_555 1_555
H11A C18A 1_555 1_555
C19A C16A 1_555 1_555
H12A C19A 1_555 1_555
H13A C19A 1_555 1_555
H14A C19A 1_555 1_555
C20A C14A 1_555 1_555
H15A C20A 1_555 1_555
H16A C20A 1_555 1_555
H17A C20A 1_555 1_555
C21A C15A 1_555 1_555
H18A C21A 1_555 1_555
H19A C21A 1_555 1_555
H20A C21A 1_555 1_555
C22A C14A 1_555 1_555
H21A C22A 1_555 1_555
H22A C22A 1_555 1_555
H23A C22A 1_555 1_555
C2 C7 1_555 1_555
O1A C7A 1_555 1_555
N1A C4A 1_555 1_555
C1A C5A 1_555 1_555
C2A C7A 1_555 1_555
C2A C13A 1_555 1_555
C8A C11A 1_555 1_555

#END
