
#######################################################################
#
#                 Cambridge Crystallographic Data Centre
#                                CCDC 
#
#######################################################################
#
# If this CIF has been generated from an entry in the Cambridge 
# Structural Database, then it will include bibliographic, chemical, 
# crystal, experimental, refinement or atomic coordinate data resulting 
# from the CCDC's data processing and validation procedures.
#
#######################################################################

data_FUPFON
_chemical_formula_moiety         'C7 H12 N2 O1 Se1'
_chemical_name_systematic        
1-(2-Methoxyethyl)-3-methyl-1,3-dihydro-2H-imidazole-2-selone
_symmetry_cell_setting           triclinic
_symmetry_space_group_name_H-M   'P -1'
_symmetry_Int_Tables_number      2
_space_group_name_Hall           '-P 1'
loop_
_symmetry_equiv_pos_site_id
_symmetry_equiv_pos_as_xyz
1 x,y,z
2 -x,-y,-z
_cell_length_a                   7.1103(7)
_cell_length_b                   7.1373(5)
_cell_length_c                   9.7036(8)
_cell_angle_alpha                96.978(3)
_cell_angle_beta                 103.907(3)
_cell_angle_gamma                95.938(3)
_cell_volume                     469.948
_exptl_crystal_colour            white
_exptl_crystal_description       Prism
_cell_formula_units_Z            2
_chemical_properties_physical    Oxygen-sensitive
_exptl_crystal_recrystallization_method chloroform
loop_
_atom_site_label
_atom_site_type_symbol
_atom_site_fract_x
_atom_site_fract_y
_atom_site_fract_z
Se1 Se 0.13506(6) 0.30905(5) 0.23356(4)
O1 O 0.5228(4) 0.8643(4) 0.1741(3)
N1 N 0.2216(4) 0.7160(4) 0.3034(3)
N2 N 0.2582(4) 0.5794(4) 0.4922(3)
C1 C 0.2085(4) 0.5431(5) 0.3471(3)
C2 C 0.1913(5) 0.7477(5) 0.1532(4)
H1 H 0.1593 0.8755 0.1458
H2 H 0.0810 0.6586 0.0940
C3 C 0.2781(5) 0.8571(5) 0.4196(4)
H3 H 0.2967 0.9875 0.4173
C4 C 0.3675(5) 0.7235(5) 0.0972(4)
H4 H 0.4045 0.5980 0.1082
H5 H 0.3376 0.7347 -0.0041
C5 C 0.3018(6) 0.7726(6) 0.5371(4)
H6 H 0.3406 0.8335 0.6317
C6 C 0.2646(6) 0.4347(6) 0.5861(4)
H7 H 0.1564 0.3354 0.5461
H8 H 0.2566 0.4913 0.6791
H9 H 0.3850 0.3819 0.5952
C7 C 0.6932(7) 0.8518(7) 0.1243(6)
H10 H 0.7394 0.7326 0.1403
H11 H 0.7927 0.9548 0.1753
H12 H 0.6631 0.8595 0.0234
loop_
_geom_bond_atom_site_label_1
_geom_bond_atom_site_label_2
_geom_bond_site_symmetry_1
_geom_bond_site_symmetry_2
Se1 C1 1_555 1_555
O1 C4 1_555 1_555
N1 C1 1_555 1_555
N2 C1 1_555 1_555
C2 N1 1_555 1_555
H1 C2 1_555 1_555
H2 C2 1_555 1_555
C3 N1 1_555 1_555
H3 C3 1_555 1_555
C4 C2 1_555 1_555
H4 C4 1_555 1_555
H5 C4 1_555 1_555
C5 N2 1_555 1_555
H6 C5 1_555 1_555
C6 N2 1_555 1_555
H7 C6 1_555 1_555
H8 C6 1_555 1_555
H9 C6 1_555 1_555
C7 O1 1_555 1_555
H10 C7 1_555 1_555
H11 C7 1_555 1_555
H12 C7 1_555 1_555
C3 C5 1_555 1_555

#END
