
#######################################################################
#
#                 Cambridge Crystallographic Data Centre
#                                CCDC 
#
#######################################################################
#
# If this CIF has been generated from an entry in the Cambridge 
# Structural Database, then it will include bibliographic, chemical, 
# crystal, experimental, refinement or atomic coordinate data resulting 
# from the CCDC's data processing and validation procedures.
#
#######################################################################

data_FUPFUT
_chemical_formula_moiety         'C6 H10 N2 O1 S1'
_chemical_name_systematic        
1-(2-Hydroxyethyl)-3-methyl-1,3-dihydro-2H-imidazole-2-thione
_symmetry_cell_setting           orthorhombic
_symmetry_space_group_name_H-M   'P b c a'
_symmetry_Int_Tables_number      61
_space_group_name_Hall           '-P 2ac 2ab'
loop_
_symmetry_equiv_pos_site_id
_symmetry_equiv_pos_as_xyz
1 x,y,z
2 1/2-x,-y,1/2+z
3 -x,1/2+y,1/2-z
4 1/2+x,1/2-y,-z
5 -x,-y,-z
6 1/2+x,y,1/2-z
7 x,1/2-y,1/2+z
8 1/2-x,1/2+y,z
_cell_length_a                   14.3984(7)
_cell_length_b                   7.2951(3)
_cell_length_c                   14.7907(7)
_cell_angle_alpha                90
_cell_angle_beta                 90
_cell_angle_gamma                90
_cell_volume                     1553.58
_exptl_crystal_colour            white
_exptl_crystal_description       Prism
_cell_formula_units_Z            8
loop_
_atom_site_label
_atom_site_type_symbol
_atom_site_fract_x
_atom_site_fract_y
_atom_site_fract_z
S1 S 0.57978(3) 0.28235(8) 0.55550(3)
O1 O 0.60899(12) 0.4009(2) 0.25050(9)
H1 H 0.6068 0.3535 0.2003
N1 N 0.67055(10) 0.17247(19) 0.40303(10)
N2 N 0.76338(10) 0.2428(2) 0.51235(11)
C1 C 0.67234(11) 0.2319(2) 0.48981(12)
C2 C 0.76014(14) 0.1465(3) 0.37268(14)
H2 H 0.7774 0.1057 0.3155
C3 C 0.81746(13) 0.1902(3) 0.43998(14)
H3 H 0.8820 0.1859 0.4384
C4 C 0.58651(13) 0.1386(3) 0.35020(13)
H4 H 0.5401 0.0828 0.3890
H5 H 0.6008 0.0523 0.3023
C5 C 0.54661(15) 0.3101(3) 0.30903(13)
H6 H 0.4909 0.2785 0.2756
H7 H 0.5288 0.3934 0.3571
C6 C 0.79945(16) 0.2960(3) 0.60042(16)
H8 H 0.7526 0.3620 0.6331
H9 H 0.8530 0.3727 0.5925
H10 H 0.8166 0.1882 0.6337
loop_
_geom_bond_atom_site_label_1
_geom_bond_atom_site_label_2
_geom_bond_site_symmetry_1
_geom_bond_site_symmetry_2
S1 C1 1_555 1_555
O1 H1 1_555 1_555
N1 C1 1_555 1_555
N2 C1 1_555 1_555
C2 N1 1_555 1_555
H2 C2 1_555 1_555
C3 N2 1_555 1_555
H3 C3 1_555 1_555
C4 N1 1_555 1_555
H4 C4 1_555 1_555
H5 C4 1_555 1_555
C5 O1 1_555 1_555
H6 C5 1_555 1_555
H7 C5 1_555 1_555
C6 N2 1_555 1_555
H8 C6 1_555 1_555
H9 C6 1_555 1_555
H10 C6 1_555 1_555
C2 C3 1_555 1_555
C4 C5 1_555 1_555

#END
