
#######################################################################
#
#                 Cambridge Crystallographic Data Centre
#                                CCDC 
#
#######################################################################
#
# If this CIF has been generated from an entry in the Cambridge 
# Structural Database, then it will include bibliographic, chemical, 
# crystal, experimental, refinement or atomic coordinate data resulting 
# from the CCDC's data processing and validation procedures.
#
#######################################################################

data_FUPPIQ
_chemical_formula_moiety         'C16 H11 B1 F2 N2 O2'
_chemical_name_systematic        
'2-(4,4-difluoro-4-bora-3a,4a-diaza-s-indacen-8-yl)benzoic acid'
_symmetry_cell_setting           monoclinic
_symmetry_space_group_name_H-M   'P 21/c'
_symmetry_Int_Tables_number      14
_space_group_name_Hall           '-P 2ybc'
loop_
_symmetry_equiv_pos_site_id
_symmetry_equiv_pos_as_xyz
1 x,y,z
2 -x,1/2+y,1/2-z
3 -x,-y,-z
4 x,1/2-y,1/2+z
_cell_length_a                   7.2069(6)
_cell_length_b                   13.5133(11)
_cell_length_c                   15.0135(12)
_cell_angle_alpha                90
_cell_angle_beta                 95.028(6)
_cell_angle_gamma                90
_cell_volume                     1456.52
_exptl_crystal_colour            'orange red'
_exptl_crystal_description       needle
_cell_formula_units_Z            4
loop_
_atom_site_label
_atom_site_type_symbol
_atom_site_fract_x
_atom_site_fract_y
_atom_site_fract_z
O1 O 0.6164(2) 0.41171(12) 0.95469(11)
O2 O 0.6867(3) 0.57196(11) 0.95809(11)
H1 H 0.5924 0.5747 0.9849
F1 F 0.4058(2) 0.14423(13) 0.94147(12)
C1 C 0.8167(4) 0.28252(17) 0.86703(17)
C2 C 0.8855(3) 0.46595(17) 0.88706(15)
N1 N 0.5518(3) 0.18521(15) 0.80879(15)
N2 N 0.7385(3) 0.13598(14) 0.94657(15)
C3 C 0.6699(4) 0.26502(17) 0.80145(18)
F2 F 0.5326(3) 0.02037(11) 0.86668(12)
C4 C 0.8556(4) 0.21669(16) 0.93585(18)
C5 C 0.9343(4) 0.37184(16) 0.85765(16)
C6 C 0.7170(4) 0.48056(18) 0.93590(16)
C7 C 1.2075(4) 0.4428(2) 0.80049(19)
H2 H 1.3159 0.4347 0.7719
C8 C 0.9989(4) 0.54565(18) 0.87190(16)
H3 H 0.9669 0.6081 0.8917
C9 C 0.6209(4) 0.31186(19) 0.71933(19)
H4 H 0.6770 0.3678 0.6975
C10 C 1.1576(4) 0.5349(2) 0.82834(18)
H5 H 1.2306 0.5897 0.8178
C11 C 1.0967(4) 0.36220(19) 0.81503(18)
H6 H 1.1315 0.3000 0.7959
C12 C 1.0060(4) 0.21030(19) 1.00227(18)
H7 H 1.1050 0.2544 1.0107
C13 C 0.4349(4) 0.1830(2) 0.7339(2)
H8 H 0.3408 0.1365 0.7220
C14 C 0.4738(4) 0.2594(2) 0.6768(2)
H9 H 0.4129 0.2729 0.6209
C15 C 0.8142(5) 0.0848(2) 1.0162(2)
H10 H 0.7630 0.0276 1.0384
B1 B 0.5502(5) 0.1187(2) 0.8915(2)
C16 C 0.9802(5) 0.1280(2) 1.0518(2)
H11 H 1.0581 0.1050 1.1000
loop_
_geom_bond_atom_site_label_1
_geom_bond_atom_site_label_2
_geom_bond_site_symmetry_1
_geom_bond_site_symmetry_2
O1 C6 1_555 1_555
O2 H1 1_555 1_555
F1 B1 1_555 1_555
C1 C3 1_555 1_555
C2 C5 1_555 1_555
N1 C3 1_555 1_555
N2 C4 1_555 1_555
C3 C9 1_555 1_555
F2 B1 1_555 1_555
C4 C1 1_555 1_555
C5 C1 1_555 1_555
C6 O2 1_555 1_555
C7 H2 1_555 1_555
C8 C2 1_555 1_555
H3 C8 1_555 1_555
C9 H4 1_555 1_555
C10 C7 1_555 1_555
H5 C10 1_555 1_555
C11 C5 1_555 1_555
H6 C11 1_555 1_555
C12 C4 1_555 1_555
H7 C12 1_555 1_555
C13 N1 1_555 1_555
H8 C13 1_555 1_555
C14 C9 1_555 1_555
H9 C14 1_555 1_555
C15 N2 1_555 1_555
H10 C15 1_555 1_555
B1 N1 1_555 1_555
C16 C12 1_555 1_555
H11 C16 1_555 1_555
C2 C6 1_555 1_555
N2 B1 1_555 1_555
C7 C11 1_555 1_555
C8 C10 1_555 1_555
C13 C14 1_555 1_555
C15 C16 1_555 1_555

#END
