
#######################################################################
#
#                 Cambridge Crystallographic Data Centre
#                                CCDC 
#
#######################################################################
#
# If this CIF has been generated from an entry in the Cambridge 
# Structural Database, then it will include bibliographic, chemical, 
# crystal, experimental, refinement or atomic coordinate data resulting 
# from the CCDC's data processing and validation procedures.
#
#######################################################################

data_FUPPIP
_chemical_formula_moiety         'C18 H14 S12 1+,Cl1 O4 1-'
_chemical_name_systematic        
"4,5:4''',5'''-bis(Ethylenedithio)-5',5''-dimethyl-4',4''-bitetrathiafulvalenium perchlorate"
_symmetry_cell_setting           orthorhombic
_symmetry_space_group_name_H-M   'P 21 21 2'
_symmetry_Int_Tables_number      18
_space_group_name_Hall           'P 2 2ab'
loop_
_symmetry_equiv_pos_site_id
_symmetry_equiv_pos_as_xyz
1 x,y,z
2 -x,-y,z
3 1/2-x,1/2+y,-z
4 1/2+x,1/2-y,-z
_cell_length_a                   11.074(3)
_cell_length_b                   24.139(7)
_cell_length_c                   4.876(2)
_cell_angle_alpha                90
_cell_angle_beta                 90
_cell_angle_gamma                90
_cell_volume                     1303.43
_exptl_crystal_colour            purple
_exptl_crystal_description       plate
_cell_formula_units_Z            2
loop_
_atom_site_label
_atom_site_type_symbol
_atom_site_fract_x
_atom_site_fract_y
_atom_site_fract_z
S1 S 0.5505(6) 0.5785(2) 0.3884(21)
S2 S 0.3277(5) 0.6124(3) 0.1202(16)
S3 S 0.5596(6) 0.6962(3) 0.7111(16)
S4 S 0.3271(5) 0.7266(3) 0.4628(15)
S5 S 0.5709(6) 0.7941(3) 1.0745(16)
S6 S 0.2900(6) 0.8266(4) 0.7898(17)
C1 C 0.4418(26) 0.6303(11) 0.3523(63)
C2 C 0.4747(22) 0.5270(9) 0.1978(53)
C3 C 0.3712(25) 0.5441(13) 0.0586(79)
C4 C 0.4427(21) 0.6786(9) 0.4798(53)
C5 C 0.4912(21) 0.7555(9) 0.8345(51)
C6 C 0.3801(22) 0.7702(10) 0.7261(60)
C7 C 0.2918(20) 0.5082(15) -0.1101(70)
H1 H 0.2688(20) 0.5278(15) -0.2781(70)
H2 H 0.2190(20) 0.4988(15) -0.0053(70)
H3 H 0.3350(20) 0.4741(15) -0.1580(70)
C8 C 0.5118(26) 0.8620(10) 1.0007(58)
H4 H 0.5531(26) 0.8896(10) 1.1182(58)
H5 H 0.5326(26) 0.8708(10) 0.8080(58)
C9 C 0.3758(20) 0.8690(11) 1.0264(75)
H6 H 0.3547(20) 0.9085(11) 0.9986(75)
H7 H 0.3533(20) 0.8589(11) 1.2164(75)
C2A C 0.5253(22) 0.4730(9) 0.1978(53)
S1A S 0.4495(6) 0.4215(2) 0.3884(21)
C1A C 0.5582(26) 0.3697(11) 0.3523(63)
S2A S 0.6723(5) 0.3876(3) 0.1202(16)
C3A C 0.6288(25) 0.4559(13) 0.0586(79)
C7A C 0.7082(20) 0.4918(15) -0.1101(70)
H1A H 0.7312(20) 0.4722(15) -0.2781(70)
H2A H 0.7810(20) 0.5012(15) -0.0053(70)
H3A H 0.6650(20) 0.5259(15) -0.1580(70)
C4A C 0.5573(21) 0.3214(9) 0.4798(53)
S3A S 0.4404(6) 0.3038(3) 0.7111(16)
C5A C 0.5088(21) 0.2445(9) 0.8345(51)
S5A S 0.4291(6) 0.2059(3) 1.0745(16)
C8A C 0.4882(26) 0.1380(10) 1.0007(58)
H4A H 0.4469(26) 0.1104(10) 1.1182(58)
H5A H 0.4674(26) 0.1292(10) 0.8080(58)
C9A C 0.6242(20) 0.1310(11) 1.0264(75)
S6A S 0.7100(6) 0.1734(4) 0.7898(17)
C6A C 0.6199(22) 0.2298(10) 0.7261(60)
S4A S 0.6729(5) 0.2734(3) 0.4628(15)
H6A H 0.6453(20) 0.0915(11) 0.9986(75)
H7A H 0.6467(20) 0.1411(11) 1.2164(75)
Cl1? Cl 0.9833(14) 0.4923(6) 0.4086(24)
O1? O 1.0000 0.5000 0.1169(60)
O2? O 0.8918(34) 0.4551(15) 0.4638(95)
O3? O 0.9577(61) 0.5440(27) 0.534(15)
O4? O 1.0943(48) 0.4662(20) 0.494(12)
loop_
_geom_bond_atom_site_label_1
_geom_bond_atom_site_label_2
_geom_bond_site_symmetry_1
_geom_bond_site_symmetry_2
S1 C1 1_555 1_555
S2 C1 1_555 1_555
S3 C4 1_555 1_555
S4 C4 1_555 1_555
S5 C5 1_555 1_555
S6 C6 1_555 1_555
C1 C4 1_555 1_555
C2 S1 1_555 1_555
C3 S2 1_555 1_555
C5 S3 1_555 1_555
C6 S4 1_555 1_555
C7 C3 1_555 1_555
H1 C7 1_555 1_555
H2 C7 1_555 1_555
H3 C7 1_555 1_555
C8 S5 1_555 1_555
H4 C8 1_555 1_555
H5 C8 1_555 1_555
C9 S6 1_555 1_555
H6 C9 1_555 1_555
H7 C9 1_555 1_555
C2A C2 1_555 1_555
S1A C2A 1_555 1_555
C1A S1A 1_555 1_555
S2A C1A 1_555 1_555
C3A C2A 1_555 1_555
C7A C3A 1_555 1_555
H1A C7A 1_555 1_555
H2A C7A 1_555 1_555
H3A C7A 1_555 1_555
C4A C1A 1_555 1_555
S3A C4A 1_555 1_555
C5A S3A 1_555 1_555
S5A C5A 1_555 1_555
C8A S5A 1_555 1_555
H4A C8A 1_555 1_555
H5A C8A 1_555 1_555
C9A C8A 1_555 1_555
S6A C9A 1_555 1_555
C6A C5A 1_555 1_555
S4A C4A 1_555 1_555
H6A C9A 1_555 1_555
H7A C9A 1_555 1_555
C2 C3 1_555 1_555
C5 C6 1_555 1_555
C8 C9 1_555 1_555
S2A C3A 1_555 1_555
S6A C6A 1_555 1_555
C6A S4A 1_555 1_555

#END
