
#######################################################################
#
#                 Cambridge Crystallographic Data Centre
#                                CCDC 
#
#######################################################################
#
# If this CIF has been generated from an entry in the Cambridge 
# Structural Database, then it will include bibliographic, chemical, 
# crystal, experimental, refinement or atomic coordinate data resulting 
# from the CCDC's data processing and validation procedures.
#
#######################################################################

data_FUPQAK
_chemical_formula_moiety         'C19 H15 N1 O2'
_chemical_name_systematic        
14-methyl-14-azatetracyclo[8.7.1.1^3,8^.0^12,16^]nonadeca-1,3,5,7,9,11,16-heptaene-13,15-dione
_symmetry_cell_setting           monoclinic
_symmetry_space_group_name_H-M   'P 21/n'
_symmetry_Int_Tables_number      14
_space_group_name_Hall           '-P 2yn'
loop_
_symmetry_equiv_pos_site_id
_symmetry_equiv_pos_as_xyz
1 x,y,z
2 1/2-x,1/2+y,1/2-z
3 -x,-y,-z
4 1/2+x,1/2-y,1/2+z
_cell_length_a                   9.32224(17)
_cell_length_b                   12.2859(3)
_cell_length_c                   24.6428(5)
_cell_angle_alpha                90
_cell_angle_beta                 90.3387(7)
_cell_angle_gamma                90
_cell_volume                     2822.34
_exptl_crystal_colour            red
_exptl_crystal_description       prism
_cell_formula_units_Z            8
loop_
_atom_site_label
_atom_site_type_symbol
_atom_site_fract_x
_atom_site_fract_y
_atom_site_fract_z
O1 O 0.03352(15) 0.57197(10) 0.18554(5)
O2 O 0.02909(16) 0.66566(11) 0.00659(5)
N1 N 0.05080(15) 0.59694(12) 0.09312(5)
C1 C -0.21648(18) 0.87622(15) 0.17968(7)
C2 C -0.12988(18) 0.78115(14) 0.18410(7)
C3 C -0.08767(17) 0.72210(13) 0.13991(6)
C4 C -0.08942(17) 0.75126(14) 0.08338(6)
C5 C -0.13710(19) 0.84445(15) 0.05860(7)
C6 C -0.22733(18) 0.92174(15) 0.08436(7)
C7 C -0.21363(19) 1.03213(15) 0.07344(7)
C8 C -0.25121(18) 1.11923(15) 0.10769(7)
C9 C -0.18552(19) 1.22132(15) 0.10175(8)
C10 C -0.1526(2) 1.29064(16) 0.14452(8)
C11 C -0.1344(3) 1.26311(16) 0.19978(8)
C12 C -0.1497(3) 1.16115(16) 0.22345(8)
C13 C -0.2278(2) 1.07473(15) 0.20101(7)
C14 C -0.18888(19) 0.96590(15) 0.21210(7)
C15 C -0.31415(18) 0.87576(16) 0.13045(8)
C16 C -0.33719(19) 1.10718(17) 0.15898(8)
C17 C 0.00358(18) 0.62322(14) 0.14491(6)
C18 C 0.00131(18) 0.67066(14) 0.05471(7)
C19 C 0.1469(2) 0.50718(15) 0.08108(8)
H1 H -0.1002 0.7578 0.2192
H2 H -0.1083 0.8581 0.0223
H3 H -0.1747 1.0509 0.0392
H4 H -0.1621 1.2445 0.0661
H5 H -0.1409 1.3653 0.1356
H6 H -0.1088 1.3210 0.2235
H7 H -0.1038 1.1492 0.2574
H8 H -0.1387 0.9529 0.2451
H9 H -0.3458 0.8007 0.1220
H10 H -0.4000 0.9212 0.1370
H11 H -0.3839 1.1767 0.1688
H12 H -0.4117 1.0503 0.1548
H13 H 0.0954 0.4521 0.0598
H14 H 0.1812 0.4747 0.1151
H15 H 0.2288 0.5342 0.0603
O3 O 0.59250(14) 0.36500(11) -0.00413(5)
O4 O 0.52135(16) 0.48994(11) 0.16785(6)
N2 N 0.57823(15) 0.44840(12) 0.07942(6)
C20 C 0.29869(17) 0.12555(13) 0.06723(6)
C21 C 0.40022(17) 0.19747(13) 0.04395(6)
C22 C 0.43899(16) 0.29438(13) 0.06730(6)
C23 C 0.41841(17) 0.33238(13) 0.12196(6)
C24 C 0.35769(17) 0.28063(13) 0.16525(6)
C25 C 0.26999(16) 0.18671(13) 0.15930(6)
C26 C 0.27997(18) 0.10163(14) 0.19626(6)
C27 C 0.24027(18) -0.00748(14) 0.18690(6)
C28 C 0.3036(2) -0.09240(15) 0.21708(7)
C29 C 0.3216(2) -0.19801(15) 0.19837(7)
C30 C 0.32467(19) -0.23504(15) 0.14400(7)
C31 C 0.31417(18) -0.17213(14) 0.09753(7)
C32 C 0.25499(17) -0.06700(13) 0.09586(6)
C33 C 0.31217(17) 0.01358(13) 0.06154(6)
C34 C 0.19423(17) 0.18031(14) 0.10495(7)
C35 C 0.14842(17) -0.04430(14) 0.14023(7)
C36 C 0.54365(18) 0.36924(14) 0.04150(7)
C37 C 0.50853(19) 0.43184(14) 0.12828(7)
C38 C 0.6837(3) 0.53389(17) 0.07077(9)
H16 H 0.4434 0.1775 0.0106
H17 H 0.3748 0.3085 0.2007
H18 H 0.3171 0.1186 0.2312
H19 H 0.3362 -0.0762 0.2528
H20 H 0.3334 -0.2523 0.2255
H21 H 0.3350 -0.3113 0.1388
H22 H 0.3493 -0.2020 0.0646
H23 H 0.3656 -0.0113 0.0313
H24 H 0.1049 0.1372 0.1079
H25 H 0.1697 0.2541 0.0916
H26 H 0.0800 0.0134 0.1292
H27 H 0.0941 -0.1108 0.1497
H28 H 0.7243 0.5565 0.1058
H29 H 0.6373 0.5964 0.0532
H30 H 0.7604 0.5064 0.0475
loop_
_geom_bond_atom_site_label_1
_geom_bond_atom_site_label_2
_geom_bond_site_symmetry_1
_geom_bond_site_symmetry_2
O1 C17 1_555 1_555
O2 C18 1_555 1_555
N1 C17 1_555 1_555
C1 C2 1_555 1_555
C2 C3 1_555 1_555
C3 C4 1_555 1_555
C4 C5 1_555 1_555
C5 C6 1_555 1_555
C6 C7 1_555 1_555
C7 C8 1_555 1_555
C8 C9 1_555 1_555
C9 C10 1_555 1_555
C10 C11 1_555 1_555
C11 C12 1_555 1_555
C12 C13 1_555 1_555
C13 C14 1_555 1_555
C14 C1 1_555 1_555
C15 C1 1_555 1_555
C16 C8 1_555 1_555
C17 C3 1_555 1_555
C18 N1 1_555 1_555
C19 N1 1_555 1_555
H1 C2 1_555 1_555
H2 C5 1_555 1_555
H3 C7 1_555 1_555
H4 C9 1_555 1_555
H5 C10 1_555 1_555
H6 C11 1_555 1_555
H7 C12 1_555 1_555
H8 C14 1_555 1_555
H9 C15 1_555 1_555
H10 C15 1_555 1_555
H11 C16 1_555 1_555
H12 C16 1_555 1_555
H13 C19 1_555 1_555
H14 C19 1_555 1_555
H15 C19 1_555 1_555
O3 C36 1_555 1_555
O4 C37 1_555 1_555
N2 C36 1_555 1_555
C20 C21 1_555 1_555
C21 C22 1_555 1_555
C22 C23 1_555 1_555
C23 C24 1_555 1_555
C24 C25 1_555 1_555
C25 C26 1_555 1_555
C26 C27 1_555 1_555
C27 C28 1_555 1_555
C28 C29 1_555 1_555
C29 C30 1_555 1_555
C30 C31 1_555 1_555
C31 C32 1_555 1_555
C32 C33 1_555 1_555
C33 C20 1_555 1_555
C34 C20 1_555 1_555
C35 C27 1_555 1_555
C36 C22 1_555 1_555
C37 N2 1_555 1_555
C38 N2 1_555 1_555
H16 C21 1_555 1_555
H17 C24 1_555 1_555
H18 C26 1_555 1_555
H19 C28 1_555 1_555
H20 C29 1_555 1_555
H21 C30 1_555 1_555
H22 C31 1_555 1_555
H23 C33 1_555 1_555
H24 C34 1_555 1_555
H25 C34 1_555 1_555
H26 C35 1_555 1_555
H27 C35 1_555 1_555
H28 C38 1_555 1_555
H29 C38 1_555 1_555
H30 C38 1_555 1_555
C4 C18 1_555 1_555
C6 C15 1_555 1_555
C13 C16 1_555 1_555
C23 C37 1_555 1_555
C25 C34 1_555 1_555
C32 C35 1_555 1_555

#END
