
#######################################################################
#
#                 Cambridge Crystallographic Data Centre
#                                CCDC 
#
#######################################################################
#
# If this CIF has been generated from an entry in the Cambridge 
# Structural Database, then it will include bibliographic, chemical, 
# crystal, experimental, refinement or atomic coordinate data resulting 
# from the CCDC's data processing and validation procedures.
#
#######################################################################

data_FUPQIS
_chemical_formula_moiety         'C23 H21 N1 O3,C3 H8 O1'
_chemical_name_systematic        
'(1-(1,3-benzodioxol-5-ylmethyl)aziridin-2-yl)(diphenyl)methanol propan-2-ol solvate'
_symmetry_cell_setting           monoclinic
_symmetry_space_group_name_H-M   'C 2'
_symmetry_Int_Tables_number      5
_space_group_name_Hall           'C 2y'
loop_
_symmetry_equiv_pos_site_id
_symmetry_equiv_pos_as_xyz
1 x,y,z
2 -x,y,-z
3 1/2+x,1/2+y,z
4 1/2-x,1/2+y,-z
_cell_length_a                   23.8240(16)
_cell_length_b                   6.1816(5)
_cell_length_c                   16.2224(13)
_cell_angle_alpha                90
_cell_angle_beta                 105.556(8)
_cell_angle_gamma                90
_cell_volume                     2301.57
_cell_formula_units_Z            4
loop_
_atom_site_label
_atom_site_type_symbol
_atom_site_fract_x
_atom_site_fract_y
_atom_site_fract_z
O1 O 0.38061(6) 0.6685(3) 0.74182(10)
O2 O 0.70053(6) 0.0615(3) 1.05344(11)
O3 O 0.67302(6) 0.3722(3) 0.97399(10)
N1 N 0.45258(6) 0.2877(3) 0.80755(9)
C1 C 0.71963(10) 0.2657(4) 1.03374(16)
H1 H 0.7524 0.2487 1.0095
H2 H 0.7323 0.3517 1.0854
C2 C 0.64575(8) 0.0352(3) 0.99913(13)
C3 C 0.62909(8) 0.2208(3) 0.95249(11)
C4 C 0.57528(8) 0.2432(3) 0.89511(12)
H3 H 0.5645 0.3702 0.8642
C5 C 0.53753(8) 0.0665(3) 0.88538(12)
C6 C 0.55516(9) -0.1189(4) 0.93268(16)
H4 H 0.5294 -0.2348 0.9260
C7 C 0.61006(9) -0.1385(4) 0.99008(16)
H5 H 0.6217 -0.2653 1.0208
C8 C 0.47736(9) 0.0696(4) 0.82228(15)
H6 H 0.4800 0.0094 0.7682
H7 H 0.4514 -0.0217 0.8439
C9 C 0.42832(8) 0.3688(4) 0.87596(12)
H8 H 0.4311 0.5227 0.8879
H9 H 0.4316 0.2771 0.9256
C10 C 0.38907(7) 0.2974(3) 0.79366(12)
H10 H 0.3700 0.1577 0.7952
C11 C 0.35418(8) 0.4599(3) 0.72873(12)
C12 C 0.29393(8) 0.4822(3) 0.74488(12)
C13 C 0.27716(9) 0.6675(4) 0.77993(14)
H11 H 0.3029 0.7832 0.7943
C14 C 0.22235(10) 0.6817(5) 0.79369(14)
H12 H 0.2114 0.8080 0.8165
C15 C 0.18410(9) 0.5129(5) 0.77422(15)
H13 H 0.1474 0.5239 0.7836
C16 C 0.20050(9) 0.3262(5) 0.74058(15)
H14 H 0.1748 0.2101 0.7276
C17 C 0.25498(8) 0.3103(4) 0.72597(13)
H15 H 0.2656 0.1834 0.7033
C18 C 0.34720(8) 0.3871(4) 0.63628(12)
C19 C 0.32241(11) 0.5303(6) 0.57126(16)
H16 H 0.3108 0.6664 0.5848
C20 C 0.31466(15) 0.4745(8) 0.48694(19)
H17 H 0.2983 0.5734 0.4440
C21 C 0.33103(14) 0.2727(8) 0.46558(17)
H18 H 0.3252 0.2346 0.4084
C22 C 0.35583(14) 0.1289(6) 0.52892(19)
H19 H 0.3675 -0.0068 0.5151
C23 C 0.36356(11) 0.1868(5) 0.61428(15)
H20 H 0.3801 0.0880 0.6571
H21 H 0.4105(11) 0.664(4) 0.7241(16)
O4 O 0.49197(8) 0.6119(3) 0.71871(12)
H22 H 0.4811 0.4994 0.7363
C24 C 0.5063(2) 0.5711(9) 0.6407(3)
H23 H 0.4712 0.5343 0.5954
C25 C 0.5334(2) 0.7742(9) 0.6185(3)
H24 H 0.5062 0.8916 0.6127
H25 H 0.5434 0.7541 0.5656
H26 H 0.5679 0.8070 0.6631
C26 C 0.5497(4) 0.3915(14) 0.6534(6)
H27 H 0.5835 0.4294 0.6983
H28 H 0.5606 0.3678 0.6013
H29 H 0.5327 0.2618 0.6688
H30? H 0.4855 0.5000 0.7417
H31? H 0.4952 0.7820 0.5794
H32? H 0.5620 0.7619 0.5869
H33? H 0.5406 0.9029 0.6529
C27? C 0.5371(5) 0.574(2) 0.6771(8)
H34? H 0.5757 0.5378 0.7140
C28? C 0.5053(9) 0.392(3) 0.6083(13)
H35? H 0.5100 0.2528 0.6353
H36? H 0.5226 0.3909 0.5612
H37? H 0.4646 0.4255 0.5876
loop_
_geom_bond_atom_site_label_1
_geom_bond_atom_site_label_2
_geom_bond_site_symmetry_1
_geom_bond_site_symmetry_2
O1 C11 1_555 1_555
O2 C1 1_555 1_555
O3 C1 1_555 1_555
N1 C8 1_555 1_555
C1 H1 1_555 1_555
H2 C1 1_555 1_555
C2 O2 1_555 1_555
C3 O3 1_555 1_555
C4 C3 1_555 1_555
H3 C4 1_555 1_555
C5 C4 1_555 1_555
C6 C5 1_555 1_555
H4 C6 1_555 1_555
C7 C2 1_555 1_555
H5 C7 1_555 1_555
C8 C5 1_555 1_555
H6 C8 1_555 1_555
H7 C8 1_555 1_555
C9 N1 1_555 1_555
H8 C9 1_555 1_555
H9 C9 1_555 1_555
C10 N1 1_555 1_555
H10 C10 1_555 1_555
C11 C10 1_555 1_555
C12 C11 1_555 1_555
C13 C12 1_555 1_555
H11 C13 1_555 1_555
C14 C13 1_555 1_555
H12 C14 1_555 1_555
C15 C14 1_555 1_555
H13 C15 1_555 1_555
C16 C15 1_555 1_555
H14 C16 1_555 1_555
C17 C12 1_555 1_555
H15 C17 1_555 1_555
C18 C11 1_555 1_555
C19 C18 1_555 1_555
H16 C19 1_555 1_555
C20 C19 1_555 1_555
H17 C20 1_555 1_555
C21 C20 1_555 1_555
H18 C21 1_555 1_555
C22 C21 1_555 1_555
H19 C22 1_555 1_555
C23 C18 1_555 1_555
H20 C23 1_555 1_555
H21 O1 1_555 1_555
O4 H22 1_555 1_555
C24 O4 1_555 1_555
H23 C24 1_555 1_555
C25 C24 1_555 1_555
H24 C25 1_555 1_555
H25 C25 1_555 1_555
H26 C25 1_555 1_555
C26 C24 1_555 1_555
H27 C26 1_555 1_555
H28 C26 1_555 1_555
H29 C26 1_555 1_555
C2 C3 1_555 1_555
C6 C7 1_555 1_555
C9 C10 1_555 1_555
C16 C17 1_555 1_555
C22 C23 1_555 1_555

#END
