
#######################################################################
#
#                 Cambridge Crystallographic Data Centre
#                                CCDC 
#
#######################################################################
#
# If this CIF has been generated from an entry in the Cambridge 
# Structural Database, then it will include bibliographic, chemical, 
# crystal, experimental, refinement or atomic coordinate data resulting 
# from the CCDC's data processing and validation procedures.
#
#######################################################################

data_FUPWAQ
_chemical_formula_moiety         'C25 H28 O7'
_chemical_name_systematic        
5-acetyl-3,10,10,14,18-pentamethyl-20-methylene-9,17,19-trioxahexacyclo[10.6.1.1^3,15^.0^1,15^.0^5,14^.0^6,11^]icos-6(11)-ene-2,8,16-trione
_symmetry_cell_setting           orthorhombic
_symmetry_space_group_name_H-M   'P 21 21 21'
_symmetry_Int_Tables_number      19
_space_group_name_Hall           'P 2ac 2ab'
loop_
_symmetry_equiv_pos_site_id
_symmetry_equiv_pos_as_xyz
1 x,y,z
2 1/2+x,1/2-y,-z
3 -x,1/2+y,1/2-z
4 1/2-x,-y,1/2+z
_cell_length_a                   11.4640(7)
_cell_length_b                   13.4589(8)
_cell_length_c                   14.0080(8)
_cell_angle_alpha                90
_cell_angle_beta                 90
_cell_angle_gamma                90
_cell_volume                     2161.33
_exptl_crystal_colour            purple
_exptl_crystal_description       prism
_cell_formula_units_Z            4
loop_
_atom_site_label
_atom_site_type_symbol
_atom_site_fract_x
_atom_site_fract_y
_atom_site_fract_z
C1 C 0.88181(13) 0.76444(10) -0.04183(10)
C2 C 0.94943(12) 0.78420(10) 0.04797(10)
H1 H 0.9589 0.8568 0.0559
H2 H 1.0282 0.7547 0.0417
C3 C 0.89138(11) 0.74239(9) 0.13576(9)
C4 C 0.83435(11) 0.65708(9) 0.12734(9)
C5 C 0.78113(11) 0.60850(10) 0.21348(9)
H3 H 0.7823 0.5349 0.2034
C6 C 0.85227(11) 0.63169(9) 0.30202(9)
H4 H 0.9331 0.6074 0.2934
H5 H 0.8181 0.5971 0.3578
C7 C 0.85384(11) 0.74375(10) 0.32043(9)
C8 C 0.72261(11) 0.77084(9) 0.33834(9)
C9 C 0.64295(11) 0.73818(9) 0.25627(9)
C10 C 0.65462(11) 0.82306(9) 0.18346(9)
C11 C 0.71276(12) 0.91069(9) 0.23487(9)
C12 C 0.84582(11) 0.90558(9) 0.21454(9)
H6 H 0.8858 0.9536 0.2569
H7 H 0.8595 0.9272 0.1479
C13 C 0.90325(11) 0.80155(9) 0.22851(9)
C14 C 1.03711(11) 0.81978(10) 0.24141(9)
C15 C 1.12052(12) 0.73351(11) 0.23396(11)
H8 H 1.1800 0.7482 0.1857
H9 H 1.0775 0.6736 0.2155
H10 H 1.1583 0.7227 0.2959
C16 C 0.82136(12) 0.60646(10) 0.03167(9)
C17 C 0.92234(13) 0.53483(10) 0.01340(10)
H11 H 0.9128 0.5040 -0.0495
H12 H 0.9228 0.4832 0.0627
H13 H 0.9962 0.5714 0.0153
C18 C 0.70379(13) 0.55471(11) 0.02056(10)
H14 H 0.6416 0.5987 0.0435
H15 H 0.7036 0.4932 0.0580
H16 H 0.6906 0.5390 -0.0469
C19 C 0.92530(12) 0.76945(11) 0.40896(9)
H17 H 0.8911 0.7369 0.4649
H18 H 0.9250 0.8416 0.4185
H19 H 1.0057 0.7464 0.4004
C20 C 0.66243(12) 0.72433(10) 0.42484(9)
C21 C 0.70490(11) 0.88233(10) 0.33918(9)
C22 C 0.69072(12) 0.94065(11) 0.41402(10)
H20 H 0.6840 1.0105 0.4056
H21 H 0.6872 0.9128 0.4763
C23 C 0.52108(11) 0.73357(10) 0.30403(10)
H22 H 0.4777 0.6766 0.2751
C24 C 0.44114(12) 0.82306(10) 0.30247(10)
H23 H 0.3705 0.8085 0.3393
H24 H 0.4198 0.8385 0.2364
H25 H 0.4814 0.8802 0.3308
C25 C 0.66265(13) 1.01052(9) 0.20610(10)
H26 H 0.5807 1.0141 0.2256
H27 H 0.6681 1.0182 0.1367
H28 H 0.7067 1.0637 0.2374
O1 O 0.87999(9) 0.82022(7) -0.10929(7)
O2 O 0.82017(9) 0.68006(7) -0.04639(7)
O3 O 0.66028(8) 0.63953(6) 0.22422(6)
O4 O 0.62408(8) 0.82167(7) 0.10119(6)
O5 O 1.07487(9) 0.90260(7) 0.25429(8)
O6 O 0.69927(9) 0.70656(7) 0.50308(6)
O7 O 0.54920(8) 0.70684(7) 0.40272(7)
loop_
_geom_bond_atom_site_label_1
_geom_bond_atom_site_label_2
_geom_bond_site_symmetry_1
_geom_bond_site_symmetry_2
C1 C2 1_555 1_555
C2 H1 1_555 1_555
H2 C2 1_555 1_555
C3 C2 1_555 1_555
C4 C3 1_555 1_555
C5 C4 1_555 1_555
H3 C5 1_555 1_555
C6 C5 1_555 1_555
H4 C6 1_555 1_555
H5 C6 1_555 1_555
C7 C6 1_555 1_555
C8 C7 1_555 1_555
C9 C8 1_555 1_555
C10 C9 1_555 1_555
C11 C10 1_555 1_555
C12 C11 1_555 1_555
H6 C12 1_555 1_555
H7 C12 1_555 1_555
C13 C3 1_555 1_555
C14 C13 1_555 1_555
C15 C14 1_555 1_555
H8 C15 1_555 1_555
H9 C15 1_555 1_555
H10 C15 1_555 1_555
C16 C4 1_555 1_555
C17 C16 1_555 1_555
H11 C17 1_555 1_555
H12 C17 1_555 1_555
H13 C17 1_555 1_555
C18 C16 1_555 1_555
H14 C18 1_555 1_555
H15 C18 1_555 1_555
H16 C18 1_555 1_555
C19 C7 1_555 1_555
H17 C19 1_555 1_555
H18 C19 1_555 1_555
H19 C19 1_555 1_555
C20 C8 1_555 1_555
C21 C8 1_555 1_555
C22 C21 1_555 1_555
H20 C22 1_555 1_555
H21 C22 1_555 1_555
C23 C9 1_555 1_555
H22 C23 1_555 1_555
C24 C23 1_555 1_555
H23 C24 1_555 1_555
H24 C24 1_555 1_555
H25 C24 1_555 1_555
C25 C11 1_555 1_555
H26 C25 1_555 1_555
H27 C25 1_555 1_555
H28 C25 1_555 1_555
O1 C1 1_555 1_555
O2 C1 1_555 1_555
O3 C5 1_555 1_555
O4 C10 1_555 1_555
O5 C14 1_555 1_555
O6 C20 1_555 1_555
O7 C20 1_555 1_555
C7 C13 1_555 1_555
C9 O3 1_555 1_555
C11 C21 1_555 1_555
C12 C13 1_555 1_555
C16 O2 1_555 1_555
C23 O7 1_555 1_555

#END
