
#######################################################################
#
#                 Cambridge Crystallographic Data Centre
#                                CCDC 
#
#######################################################################
#
# If this CIF has been generated from an entry in the Cambridge 
# Structural Database, then it will include bibliographic, chemical, 
# crystal, experimental, refinement or atomic coordinate data resulting 
# from the CCDC's data processing and validation procedures.
#
#######################################################################

data_FUQLOS
_chemical_formula_moiety         'C13 H10 N2 O4 S2'
_chemical_name_systematic        "2,4-Dinitro-4'-methyldiphenyl disulfide"
_symmetry_cell_setting           monoclinic
_symmetry_space_group_name_H-M   'P 21'
_symmetry_Int_Tables_number      4
_space_group_name_Hall           'P 2yb'
loop_
_symmetry_equiv_pos_site_id
_symmetry_equiv_pos_as_xyz
1 x,y,z
2 -x,1/2+y,-z
_cell_length_a                   10.1301(2)
_cell_length_b                   6.34740(10)
_cell_length_c                   11.1133(2)
_cell_angle_alpha                90
_cell_angle_beta                 106.644(8)
_cell_angle_gamma                90
_cell_volume                     684.644
_exptl_crystal_colour            yellow
_exptl_crystal_description       needle
_cell_formula_units_Z            2
loop_
_atom_site_label
_atom_site_type_symbol
_atom_site_fract_x
_atom_site_fract_y
_atom_site_fract_z
S1 S -0.17395(7) 0.83986(13) 0.00092(6)
S2 S 0.02483(6) 0.88284(11) 0.11272(7)
C1 C -0.2715(3) 0.9965(5) 0.0780(2)
C2 C -0.3138(3) 1.1968(5) 0.0322(3)
C3 C -0.3917(2) 1.3193(5) 0.0890(3)
C4 C -0.4285(3) 1.2454(5) 0.1929(3)
C5 C -0.5103(3) 1.3803(6) 0.2570(3)
C6 C -0.3868(3) 1.0437(6) 0.2372(3)
C7 C -0.3090(3) 0.9186(5) 0.1815(3)
C8 C 0.0558(3) 0.6666(5) 0.2182(3)
C9 C 0.1821(3) 0.6415(5) 0.3137(3)
N1 N 0.2914(3) 0.7983(5) 0.3299(2)
O1 O 0.2723(2) 0.9471(5) 0.2579(2)
O2 O 0.3974(2) 0.7749(5) 0.4180(2)
C10 C 0.2082(3) 0.4715(6) 0.3937(3)
C11 C 0.1076(3) 0.3215(5) 0.3809(3)
N2 N 0.1328(3) 0.1385(5) 0.4646(2)
O3 O 0.2393(3) 0.1373(5) 0.5530(2)
O4 O 0.0492(3) -0.0050(5) 0.4416(2)
C12 C -0.0192(3) 0.3390(5) 0.2909(3)
C13 C -0.0423(3) 0.5102(5) 0.2113(3)
H1 H -0.2892 1.2496 -0.0384
H2 H -0.4204 1.4557 0.0568
H3 H -0.5013 1.5286 0.2362
H4 H -0.4754 1.3610 0.3481
H5 H -0.6076 1.3390 0.2285
H9 H -0.4124 0.9908 0.3074
H10 H -0.2814 0.7815 0.2131
H11 H 0.2940 0.4581 0.4565
H12 H -0.0885 0.2353 0.2843
H13 H -0.1287 0.5219 0.1491
H6? H -0.5549 1.2905 0.3057
H7? H -0.5808 1.4581 0.1937
H8? H -0.4486 1.4801 0.3134
loop_
_geom_bond_atom_site_label_1
_geom_bond_atom_site_label_2
_geom_bond_site_symmetry_1
_geom_bond_site_symmetry_2
S1 S2 1_555 1_555
S2 C8 1_555 1_555
C1 S1 1_555 1_555
C2 C1 1_555 1_555
C3 C2 1_555 1_555
C4 C3 1_555 1_555
C5 C4 1_555 1_555
C6 C4 1_555 1_555
C7 C1 1_555 1_555
C8 C9 1_555 1_555
C9 N1 1_555 1_555
N1 O1 1_555 1_555
O2 N1 1_555 1_555
C10 C9 1_555 1_555
C11 C10 1_555 1_555
N2 C11 1_555 1_555
O3 N2 1_555 1_555
O4 N2 1_555 1_555
C12 C11 1_555 1_555
C13 C8 1_555 1_555
H1 C2 1_555 1_555
H2 C3 1_555 1_555
H3 C5 1_555 1_555
H4 C5 1_555 1_555
H5 C5 1_555 1_555
H9 C6 1_555 1_555
H10 C7 1_555 1_555
H11 C10 1_555 1_555
H12 C12 1_555 1_555
H13 C13 1_555 1_555
C6 C7 1_555 1_555
C12 C13 1_555 1_555

#END
