
#######################################################################
#
#                 Cambridge Crystallographic Data Centre
#                                CCDC 
#
#######################################################################
#
# If this CIF has been generated from an entry in the Cambridge 
# Structural Database, then it will include bibliographic, chemical, 
# crystal, experimental, refinement or atomic coordinate data resulting 
# from the CCDC's data processing and validation procedures.
#
#######################################################################

data_FUQLIM
_chemical_formula_moiety         'C12 H8 Cl1 N1 O2 S2'
_chemical_name_systematic        "2-Nitro-4'-chlorodiphenyl disulfide"
_symmetry_cell_setting           triclinic
_symmetry_space_group_name_H-M   'P -1'
_symmetry_Int_Tables_number      2
_space_group_name_Hall           '-P 1'
loop_
_symmetry_equiv_pos_site_id
_symmetry_equiv_pos_as_xyz
1 x,y,z
2 -x,-y,-z
_cell_length_a                   7.0434(5)
_cell_length_b                   7.8315(5)
_cell_length_c                   11.3709(8)
_cell_angle_alpha                82.576(4)
_cell_angle_beta                 80.690(3)
_cell_angle_gamma                83.189(3)
_cell_volume                     610.706
_exptl_crystal_colour            yellow
_exptl_crystal_description       plate
_cell_formula_units_Z            2
loop_
_atom_site_label
_atom_site_type_symbol
_atom_site_fract_x
_atom_site_fract_y
_atom_site_fract_z
S1 S 0.14074(7) 0.39829(6) 0.17396(4)
S2 S 0.21248(7) 0.46708(6) 0.32690(4)
C1 C 0.3636(3) 0.3184(2) 0.09132(17)
C2 C 0.5407(3) 0.2980(3) 0.13321(19)
C3 C 0.7061(3) 0.2329(3) 0.06260(19)
C4 C 0.6923(3) 0.1898(2) -0.04922(17)
Cl1 Cl 0.90005(8) 0.11244(7) -0.14014(5)
C5 C 0.5176(3) 0.2095(3) -0.09223(18)
C6 C 0.3525(3) 0.2743(3) -0.02186(18)
C7 C 0.2325(3) 0.2669(2) 0.42179(17)
C8 C 0.2571(3) 0.2587(2) 0.54267(17)
N1 N 0.2733(2) 0.4162(2) 0.59494(15)
O1 O 0.2768(2) 0.55227(18) 0.52754(13)
O2 O 0.2815(2) 0.40748(19) 0.70217(13)
C9 C 0.2692(3) 0.1042(3) 0.61713(18)
C10 C 0.2599(3) -0.0492(3) 0.57190(18)
C11 C 0.2389(3) -0.0456(3) 0.45267(18)
C12 C 0.2253(3) 0.1084(2) 0.37904(18)
H1 H 0.5484 0.3288 0.2103
H2 H 0.8274 0.2182 0.0910
H3 H 0.5109 0.1788 -0.1695
H4 H 0.2317 0.2886 -0.0508
H5 H 0.2837 0.1040 0.6988
H6 H 0.2679 -0.1559 0.6219
H7 H 0.2337 -0.1511 0.4210
H8 H 0.2107 0.1068 0.2976
loop_
_geom_bond_atom_site_label_1
_geom_bond_atom_site_label_2
_geom_bond_site_symmetry_1
_geom_bond_site_symmetry_2
S1 S2 1_555 1_555
S2 C7 1_555 1_555
C1 S1 1_555 1_555
C2 C1 1_555 1_555
C3 C2 1_555 1_555
C4 C3 1_555 1_555
Cl1 C4 1_555 1_555
C5 C4 1_555 1_555
C6 C1 1_555 1_555
C7 C8 1_555 1_555
C8 N1 1_555 1_555
N1 O1 1_555 1_555
O2 N1 1_555 1_555
C9 C8 1_555 1_555
C10 C9 1_555 1_555
C11 C10 1_555 1_555
C12 C7 1_555 1_555
H1 C2 1_555 1_555
H2 C3 1_555 1_555
H3 C5 1_555 1_555
H4 C6 1_555 1_555
H5 C9 1_555 1_555
H6 C10 1_555 1_555
H7 C11 1_555 1_555
H8 C12 1_555 1_555
C5 C6 1_555 1_555
C11 C12 1_555 1_555

#END
