
#######################################################################
#
#                 Cambridge Crystallographic Data Centre
#                                CCDC 
#
#######################################################################
#
# If this CIF has been generated from an entry in the Cambridge 
# Structural Database, then it will include bibliographic, chemical, 
# crystal, experimental, refinement or atomic coordinate data resulting 
# from the CCDC's data processing and validation procedures.
#
#######################################################################

data_FUQMIN
_chemical_formula_moiety         'C12 H8 N2 O6 S2'
_chemical_name_systematic        
'S-(2-Nitrophenyl) 2-nitrobenzene thiosulfonate'
_symmetry_cell_setting           triclinic
_symmetry_space_group_name_H-M   'P -1'
_symmetry_Int_Tables_number      2
_space_group_name_Hall           '-P 1'
loop_
_symmetry_equiv_pos_site_id
_symmetry_equiv_pos_as_xyz
1 x,y,z
2 -x,-y,-z
_cell_length_a                   8.8211(18)
_cell_length_b                   11.042(2)
_cell_length_c                   21.258(4)
_cell_angle_alpha                101.06(3)
_cell_angle_beta                 91.97(3)
_cell_angle_gamma                91.07(3)
_cell_volume                     2030.25
_exptl_crystal_colour            yellow
_exptl_crystal_description       plate
_cell_formula_units_Z            6
loop_
_atom_site_label
_atom_site_type_symbol
_atom_site_fract_x
_atom_site_fract_y
_atom_site_fract_z
S1 S 0.75190(18) 0.42884(16) 0.26121(8)
O1 O 0.8710(4) 0.5209(4) 0.27188(19)
O2 O 0.7558(5) 0.3298(4) 0.20682(19)
S2 S 0.54838(18) 0.51519(17) 0.25096(8)
C1 C 0.7460(6) 0.3694(6) 0.3325(3)
C2 C 0.6805(6) 0.2537(6) 0.3367(3)
N1 N 0.5993(6) 0.1748(6) 0.2814(3)
O3 O 0.5014(5) 0.2206(5) 0.2526(2)
O4 O 0.6362(5) 0.0650(5) 0.2698(2)
C3 C 0.6856(6) 0.2100(6) 0.3935(3)
C4 C 0.7540(7) 0.2845(7) 0.4476(3)
C5 C 0.8185(6) 0.3966(6) 0.4445(3)
C6 C 0.8124(6) 0.4391(6) 0.3876(3)
C7 C 0.5814(6) 0.6440(6) 0.3139(3)
C8 C 0.6622(6) 0.7530(6) 0.3086(3)
N2 N 0.7217(6) 0.7675(5) 0.2458(3)
O5 O 0.6408(5) 0.7366(5) 0.1976(2)
O6 O 0.8488(5) 0.8154(5) 0.2480(2)
C9 C 0.6910(7) 0.8459(7) 0.3595(3)
C10 C 0.6359(7) 0.8353(8) 0.4187(3)
C11 C 0.5565(7) 0.7337(8) 0.4263(3)
C12 C 0.5297(6) 0.6380(7) 0.3742(3)
H1 H 0.6434 0.1311 0.3956
H2 H 0.7559 0.2571 0.4873
H3 H 0.8675 0.4453 0.4816
H4 H 0.8550 0.5182 0.3864
H5 H 0.7480 0.9172 0.3548
H6 H 0.6543 0.9007 0.4545
H7 H 0.5193 0.7278 0.4670
H8 H 0.4746 0.5664 0.3799
S3 S 0.74925(17) 0.02210(16) 0.59309(8)
O7 O 0.6293(4) -0.0641(4) 0.5977(2)
O8 O 0.7447(5) 0.0879(4) 0.54078(18)
S4 S 0.95184(17) -0.07031(16) 0.58652(8)
C13 C 0.7565(6) 0.1294(6) 0.6668(3)
C14 C 0.8166(6) 0.2514(6) 0.6751(3)
N3 N 0.8927(6) 0.2955(5) 0.6230(2)
O9 O 0.9950(5) 0.2346(5) 0.5970(2)
O10 O 0.8485(5) 0.3941(4) 0.6103(2)
C15 C 0.8071(6) 0.3324(6) 0.7328(3)
C16 C 0.7435(7) 0.2910(7) 0.7842(3)
C17 C 0.6889(6) 0.1732(7) 0.7768(3)
C18 C 0.6929(6) 0.0916(6) 0.7192(3)
C19 C 0.9207(6) -0.1563(6) 0.6480(3)
C20 C 0.8318(6) -0.2656(6) 0.6402(3)
N4 N 0.7644(6) -0.3236(5) 0.5765(3)
O11 O 0.8377(5) -0.3218(4) 0.5287(2)
O12 O 0.6369(5) -0.3725(5) 0.5760(2)
C21 C 0.8037(7) -0.3227(6) 0.6903(3)
C22 C 0.8663(7) -0.2726(7) 0.7505(3)
C23 C 0.9544(7) -0.1676(7) 0.7590(3)
C24 C 0.9808(6) -0.1063(6) 0.7086(3)
H9 H 0.8434 0.4153 0.7374
H10 H 0.7384 0.3453 0.8245
H11 H 0.6465 0.1464 0.8124
H12 H 0.6527 0.0099 0.7152
H13 H 0.7420 -0.3958 0.6840
H14 H 0.8480 -0.3113 0.7858
H15 H 0.9989 -0.1352 0.8002
H16 H 1.0392 -0.0314 0.7158
S5 S 0.79527(17) 0.66439(16) 0.92199(7)
O13 O 0.9146(4) 0.7526(4) 0.92025(18)
O14 O 0.7757(4) 0.5613(4) 0.86949(18)
S6 S 0.59025(17) 0.75433(16) 0.92699(8)
C25 C 0.8210(6) 0.6124(6) 0.9953(3)
C26 C 0.7670(6) 0.5001(6) 1.0076(3)
N5 N 0.6727(6) 0.4142(5) 0.9605(3)
O15 O 0.5619(5) 0.4529(4) 0.9351(2)
O16 O 0.7089(5) 0.3050(5) 0.9497(2)
C27 C 0.8001(7) 0.4654(7) 1.0657(3)
C28 C 0.8802(7) 0.5486(8) 1.1127(3)
C29 C 0.9332(7) 0.6562(8) 1.1020(3)
C30 C 0.9031(6) 0.6904(6) 1.0434(3)
C31 C 0.6476(6) 0.8832(6) 0.9877(3)
C32 C 0.7323(6) 0.9852(6) 0.9774(3)
N6 N 0.7791(7) 0.9978(5) 0.9135(3)
O17 O 0.6899(5) 0.9626(4) 0.8678(2)
O18 O 0.9037(5) 1.0450(4) 0.9091(2)
C33 C 0.7805(6) 1.0787(6) 1.0280(3)
C34 C 0.7370(7) 1.0734(7) 1.0886(3)
C35 C 0.6511(7) 0.9735(7) 1.1004(3)
C36 C 0.6098(6) 0.8782(7) 1.0507(3)
H17 H 0.7687 0.3867 1.0731
H18 H 0.8979 0.5284 1.1538
H19 H 0.9919 0.7097 1.1345
H20 H 0.9394 0.7681 1.0364
H21 H 0.8428 1.1454 1.0206
H22 H 0.7657 1.1388 1.1232
H23 H 0.6212 0.9712 1.1427
H24 H 0.5552 0.8085 1.0591
loop_
_geom_bond_atom_site_label_1
_geom_bond_atom_site_label_2
_geom_bond_site_symmetry_1
_geom_bond_site_symmetry_2
S1 O1 1_555 1_555
O2 S1 1_555 1_555
S2 S1 1_555 1_555
C1 S1 1_555 1_555
C2 C1 1_555 1_555
N1 C2 1_555 1_555
O3 N1 1_555 1_555
O4 N1 1_555 1_555
C3 C2 1_555 1_555
C4 C3 1_555 1_555
C5 C4 1_555 1_555
C6 C1 1_555 1_555
C7 S2 1_555 1_555
C8 C7 1_555 1_555
N2 C8 1_555 1_555
O5 N2 1_555 1_555
O6 N2 1_555 1_555
C9 C8 1_555 1_555
C10 C9 1_555 1_555
C11 C10 1_555 1_555
C12 C7 1_555 1_555
S3 O7 1_555 1_555
O8 S3 1_555 1_555
S4 S3 1_555 1_555
C13 S3 1_555 1_555
C14 C13 1_555 1_555
N3 C14 1_555 1_555
O9 N3 1_555 1_555
O10 N3 1_555 1_555
C15 C14 1_555 1_555
C16 C15 1_555 1_555
C17 C16 1_555 1_555
C18 C13 1_555 1_555
C19 S4 1_555 1_555
C20 C19 1_555 1_555
N4 C20 1_555 1_555
O11 N4 1_555 1_555
O12 N4 1_555 1_555
C21 C20 1_555 1_555
C22 C21 1_555 1_555
C23 C22 1_555 1_555
C24 C19 1_555 1_555
S5 O13 1_555 1_555
O14 S5 1_555 1_555
S6 S5 1_555 1_555
C25 S5 1_555 1_555
C26 C25 1_555 1_555
N5 C26 1_555 1_555
O15 N5 1_555 1_555
O16 N5 1_555 1_555
C27 C26 1_555 1_555
C28 C27 1_555 1_555
C29 C28 1_555 1_555
C30 C25 1_555 1_555
C31 S6 1_555 1_555
C32 C31 1_555 1_555
N6 C32 1_555 1_555
O17 N6 1_555 1_555
O18 N6 1_555 1_555
C33 C32 1_555 1_555
C34 C33 1_555 1_555
C35 C34 1_555 1_555
C36 C31 1_555 1_555
H1 C3 1_555 1_555
H2 C4 1_555 1_555
H3 C5 1_555 1_555
H4 C6 1_555 1_555
H5 C9 1_555 1_555
H6 C10 1_555 1_555
H7 C11 1_555 1_555
H8 C12 1_555 1_555
H9 C15 1_555 1_555
H10 C16 1_555 1_555
H11 C17 1_555 1_555
H12 C18 1_555 1_555
H13 C21 1_555 1_555
H14 C22 1_555 1_555
H15 C23 1_555 1_555
H16 C24 1_555 1_555
H17 C27 1_555 1_555
H18 C28 1_555 1_555
H19 C29 1_555 1_555
H20 C30 1_555 1_555
H21 C33 1_555 1_555
H22 C34 1_555 1_555
H23 C35 1_555 1_555
H24 C36 1_555 1_555
C5 C6 1_555 1_555
C11 C12 1_555 1_555
C17 C18 1_555 1_555
C23 C24 1_555 1_555
C29 C30 1_555 1_555
C35 C36 1_555 1_555

#END
