
#######################################################################
#
#                 Cambridge Crystallographic Data Centre
#                                CCDC 
#
#######################################################################
#
# If this CIF has been generated from an entry in the Cambridge 
# Structural Database, then it will include bibliographic, chemical, 
# crystal, experimental, refinement or atomic coordinate data resulting 
# from the CCDC's data processing and validation procedures.
#
#######################################################################

data_FUQPUE
_chemical_formula_moiety         'C9 H4 F6 N4'
_chemical_name_systematic        
5-(3,5-bis(trifluoromethyl)phenyl)-1H-tetrazole
_symmetry_cell_setting           monoclinic
_symmetry_space_group_name_H-M   'P 21/n'
_symmetry_Int_Tables_number      14
_space_group_name_Hall           '-P 2yn'
loop_
_symmetry_equiv_pos_site_id
_symmetry_equiv_pos_as_xyz
1 x,y,z
2 1/2-x,1/2+y,1/2-z
3 -x,-y,-z
4 1/2+x,1/2-y,1/2+z
_cell_length_a                   7.3110(10)
_cell_length_b                   6.743(2)
_cell_length_c                   22.090(4)
_cell_angle_alpha                90
_cell_angle_beta                 95.695(18)
_cell_angle_gamma                90
_cell_volume                     1083.62
_exptl_crystal_colour            colorless
_exptl_crystal_description       needle
_cell_formula_units_Z            4
_exptl_crystal_recrystallization_method 
'Re-crystallisation from solvent: ethyl acetate'
loop_
_atom_site_label
_atom_site_type_symbol
_atom_site_fract_x
_atom_site_fract_y
_atom_site_fract_z
N1 N 0.1399(9) 0.1462(10) 1.0027(3)
N2 N 0.3534(10) 0.3629(10) 1.0023(3)
C1 C 0.2845(11) -0.0801(11) 0.9014(3)
H1 H 0.1777 -0.1285 0.9157
C2 C 0.3701(10) 0.0896(10) 0.9275(3)
C3 C 0.2894(10) 0.1934(11) 0.9766(3)
C4 C 0.3600(12) -0.1753(11) 0.8542(4)
N3 N 0.2404(11) 0.4130(11) 1.0445(3)
C5 C 0.5210(12) -0.1066(13) 0.8336(4)
H2 H 0.5724 -0.1722 0.8023
C6 C 0.6048(11) 0.0606(13) 0.8599(3)
N4 N 0.1113(10) 0.2871(11) 1.0443(3)
C7 C 0.5299(11) 0.1551(13) 0.9062(3)
H3 H 0.5885 0.2664 0.9239
C8 C 0.2667(13) -0.3507(14) 0.8262(4)
C9 C 0.7744(13) 0.1400(13) 0.8364(4)
F1 F 0.8121(17) 0.0783(18) 0.7833(5)
F2 F 0.7514(14) 0.3437(14) 0.8231(5)
F3 F 0.3860(16) -0.4811(18) 0.8058(6)
F4 F 0.1409(19) -0.318(2) 0.7825(6)
F5 F 0.1894(16) -0.4693(15) 0.8669(4)
F6 F 0.9160(18) 0.134(2) 0.8764(5)
F7? F 0.8741(17) -0.0179(15) 0.8162(5)
F8? F 0.747(2) 0.256(2) 0.7922(6)
F9? F 0.2996(19) -0.379(2) 0.7680(5)
F10? F 0.0818(16) -0.334(2) 0.8182(6)
F11? F 0.305(3) -0.511(2) 0.8555(7)
F12? F 0.8930(16) 0.213(2) 0.8801(4)
loop_
_geom_bond_atom_site_label_1
_geom_bond_atom_site_label_2
_geom_bond_site_symmetry_1
_geom_bond_site_symmetry_2
N1 C3 1_555 1_555
N2 C3 1_555 1_555
C1 H1 1_555 1_555
C2 C1 1_555 1_555
C3 C2 1_555 1_555
C4 C1 1_555 1_555
N3 N2 1_555 1_555
C5 C4 1_555 1_555
H2 C5 1_555 1_555
C6 C5 1_555 1_555
N4 N1 1_555 1_555
C7 C2 1_555 1_555
H3 C7 1_555 1_555
C8 C4 1_555 1_555
C9 C6 1_555 1_555
F1 C9 1_555 1_555
F2 C9 1_555 1_555
F3 C8 1_555 1_555
F4 C8 1_555 1_555
F5 C8 1_555 1_555
F6 C9 1_555 1_555
N3 N4 1_555 1_555
C6 C7 1_555 1_555

#END
