
#######################################################################
#
#                 Cambridge Crystallographic Data Centre
#                                CCDC 
#
#######################################################################
#
# If this CIF has been generated from an entry in the Cambridge 
# Structural Database, then it will include bibliographic, chemical, 
# crystal, experimental, refinement or atomic coordinate data resulting 
# from the CCDC's data processing and validation procedures.
#
#######################################################################

data_FUQQEO
_chemical_formula_moiety         'C41 H36 N4'
_chemical_name_systematic        
4'-(4-(2-(9-Hexyl-9H-carbazol-3-yl)vinyl)phenyl)-2,2':6',2''-terpyridine
_symmetry_cell_setting           monoclinic
_symmetry_space_group_name_H-M   'P 21/c'
_symmetry_Int_Tables_number      14
_space_group_name_Hall           '-P 2ybc'
loop_
_symmetry_equiv_pos_site_id
_symmetry_equiv_pos_as_xyz
1 x,y,z
2 -x,1/2+y,1/2-z
3 -x,-y,-z
4 x,1/2-y,1/2+z
_cell_length_a                   13.119(5)
_cell_length_b                   22.715(8)
_cell_length_c                   11.114(4)
_cell_angle_alpha                90
_cell_angle_beta                 106.552(5)
_cell_angle_gamma                90
_cell_volume                     3174.71
_exptl_crystal_colour            'pale yellow'
_exptl_crystal_description       block
_cell_formula_units_Z            4
_exptl_crystal_recrystallization_method dichloromethane/ethanol
loop_
_atom_site_label
_atom_site_type_symbol
_atom_site_fract_x
_atom_site_fract_y
_atom_site_fract_z
N1 N 0.4702(3) 0.36064(16) -0.0853(3)
N2 N 0.3599(3) 0.22820(16) 0.0031(3)
N3 N 0.6342(3) 0.48737(17) -0.0752(4)
N4 N 0.9246(3) 0.33513(15) 1.3134(3)
C1 C 0.5355(4) 0.40470(18) -0.0325(4)
C2 C 0.5820(3) 0.40874(17) 0.0954(4)
H1 H 0.6266 0.4402 0.1282
C3 C 0.5624(3) 0.36611(17) 0.1752(4)
C4 C 0.4957(3) 0.32031(18) 0.1195(4)
H2 H 0.4804 0.2905 0.1691
C5 C 0.4519(3) 0.31861(18) -0.0095(4)
C6 C 0.3794(3) 0.27054(19) -0.0720(4)
C7 C 0.3365(3) 0.2691(2) -0.2001(4)
H3 H 0.3524 0.2984 -0.2502
C8 C 0.2697(4) 0.2236(2) -0.2531(5)
H4 H 0.2393 0.2221 -0.3396
C9 C 0.2482(4) 0.1805(2) -0.1780(5)
H5 H 0.2031 0.1494 -0.2118
C10 C 0.2952(4) 0.1847(2) -0.0512(5)
H6 H 0.2808 0.1554 0.0000
C11 C 0.5545(4) 0.44944(19) -0.1209(4)
C12 C 0.4933(4) 0.4515(2) -0.2437(5)
H7 H 0.4375 0.4251 -0.2726
C13 C 0.5145(5) 0.4926(3) -0.3235(6)
H8 H 0.4721 0.4951 -0.4062
C14 C 0.5983(5) 0.5294(3) -0.2801(6)
H9 H 0.6170 0.5564 -0.3332
C15 C 0.6545(5) 0.5259(2) -0.1561(6)
H10 H 0.7105 0.5521 -0.1262
C16 C 0.6092(3) 0.36887(16) 0.3124(4)
C17 C 0.5556(3) 0.34489(18) 0.3925(4)
H11 H 0.4898 0.3272 0.3583
C18 C 0.5971(3) 0.34672(18) 0.5200(4)
H12 H 0.5584 0.3306 0.5703
C19 C 0.6951(3) 0.37181(16) 0.5764(4)
C20 C 0.7476(4) 0.39683(18) 0.4973(4)
H13 H 0.8130 0.4148 0.5321
C21 C 0.7059(3) 0.39590(18) 0.3687(4)
H14 H 0.7432 0.4137 0.3188
C22 C 0.7448(3) 0.37107(16) 0.7122(4)
H15 H 0.8079 0.3921 0.7408
C23 C 0.7113(3) 0.34432(18) 0.7985(4)
H16 H 0.6464 0.3249 0.7711
C24 C 0.8660(3) 0.33066(18) 1.1893(4)
C25 C 0.7860(3) 0.29111(19) 1.1322(4)
H17 H 0.7664 0.2611 1.1780
C26 C 0.7368(3) 0.29774(18) 1.0063(4)
H18 H 0.6822 0.2719 0.9676
C27 C 0.7652(3) 0.34184(17) 0.9332(4)
C28 C 0.8452(3) 0.38086(17) 0.9927(4)
H19 H 0.8651 0.4107 0.9467
C29 C 0.8958(3) 0.37577(16) 1.1199(4)
C30 C 0.9779(4) 0.40855(17) 1.2065(4)
C31 C 1.0415(4) 0.45570(19) 1.1955(5)
H20 H 1.0342 0.4727 1.1174
C32 C 1.1154(5) 0.4773(2) 1.3003(5)
H21 H 1.1593 0.5084 1.2926
C33 C 1.1246(4) 0.4527(2) 1.4184(5)
H22 H 1.1725 0.4688 1.4891
C34 C 1.0646(4) 0.4055(2) 1.4313(5)
H23 H 1.0723 0.3887 1.5098
C35 C 0.9917(4) 0.38295(18) 1.3251(4)
C36 C 0.9207(4) 0.2961(2) 1.4157(4)
H24 H 0.8539 0.2748 1.3917
H25 H 0.9218 0.3197 1.4887
C37 C 1.0109(4) 0.2521(2) 1.4517(4)
H26 H 1.0776 0.2733 1.4804
H27 H 1.0030 0.2285 1.5213
C38 C 1.0163(4) 0.21158(19) 1.3465(5)
H28 H 1.0340 0.2345 1.2817
H29 H 0.9467 0.1943 1.3102
C39 C 1.0971(4) 0.1625(2) 1.3874(5)
H30 H 1.1666 0.1797 1.4242
H31 H 1.0791 0.1394 1.4519
C40 C 1.1029(5) 0.1222(2) 1.2822(6)
H32 H 1.1207 0.1456 1.2180
H33 H 1.0329 0.1055 1.2453
C41 C 1.1820(5) 0.0723(3) 1.3183(7)
H34 H 1.2522 0.0881 1.3530
H35 H 1.1802 0.0493 1.2453
H36 H 1.1640 0.0479 1.3797
loop_
_geom_bond_atom_site_label_1
_geom_bond_atom_site_label_2
_geom_bond_site_symmetry_1
_geom_bond_site_symmetry_2
N1 C1 1_555 1_555
N2 C6 1_555 1_555
N3 C11 1_555 1_555
N4 C24 1_555 1_555
C1 C2 1_555 1_555
C2 H1 1_555 1_555
C3 C2 1_555 1_555
C4 C3 1_555 1_555
H2 C4 1_555 1_555
C5 N1 1_555 1_555
C6 C5 1_555 1_555
C7 C6 1_555 1_555
H3 C7 1_555 1_555
C8 C7 1_555 1_555
H4 C8 1_555 1_555
C9 C8 1_555 1_555
H5 C9 1_555 1_555
C10 N2 1_555 1_555
H6 C10 1_555 1_555
C11 C1 1_555 1_555
C12 C11 1_555 1_555
H7 C12 1_555 1_555
C13 C12 1_555 1_555
H8 C13 1_555 1_555
C14 C13 1_555 1_555
H9 C14 1_555 1_555
C15 N3 1_555 1_555
H10 C15 1_555 1_555
C16 C3 1_555 1_555
C17 C16 1_555 1_555
H11 C17 1_555 1_555
C18 C17 1_555 1_555
H12 C18 1_555 1_555
C19 C18 1_555 1_555
C20 C19 1_555 1_555
H13 C20 1_555 1_555
C21 C16 1_555 1_555
H14 C21 1_555 1_555
C22 C19 1_555 1_555
H15 C22 1_555 1_555
C23 C22 1_555 1_555
H16 C23 1_555 1_555
C24 C25 1_555 1_555
C25 H17 1_555 1_555
C26 C25 1_555 1_555
H18 C26 1_555 1_555
C27 C23 1_555 1_555
C28 C27 1_555 1_555
H19 C28 1_555 1_555
C29 C24 1_555 1_555
C30 C29 1_555 1_555
C31 C30 1_555 1_555
H20 C31 1_555 1_555
C32 C31 1_555 1_555
H21 C32 1_555 1_555
C33 C32 1_555 1_555
H22 C33 1_555 1_555
C34 C33 1_555 1_555
H23 C34 1_555 1_555
C35 N4 1_555 1_555
C36 N4 1_555 1_555
H24 C36 1_555 1_555
H25 C36 1_555 1_555
C37 C36 1_555 1_555
H26 C37 1_555 1_555
H27 C37 1_555 1_555
C38 C37 1_555 1_555
H28 C38 1_555 1_555
H29 C38 1_555 1_555
C39 C38 1_555 1_555
H30 C39 1_555 1_555
H31 C39 1_555 1_555
C40 C39 1_555 1_555
H32 C40 1_555 1_555
H33 C40 1_555 1_555
C41 C40 1_555 1_555
H34 C41 1_555 1_555
H35 C41 1_555 1_555
H36 C41 1_555 1_555
C4 C5 1_555 1_555
C9 C10 1_555 1_555
C14 C15 1_555 1_555
C20 C21 1_555 1_555
C26 C27 1_555 1_555
C28 C29 1_555 1_555
C30 C35 1_555 1_555
C34 C35 1_555 1_555

#END
