
#######################################################################
#
#                 Cambridge Crystallographic Data Centre
#                                CCDC 
#
#######################################################################
#
# If this CIF has been generated from an entry in the Cambridge 
# Structural Database, then it will include bibliographic, chemical, 
# crystal, experimental, refinement or atomic coordinate data resulting 
# from the CCDC's data processing and validation procedures.
#
#######################################################################

data_FURSIW
_chemical_formula_moiety         'C26 H21 N3 O2'
_chemical_name_systematic        
'ethyl 1-phenyl-5-(2-phenyl-1H-indol-1-yl)-1H-imidazole-4-carboxylate'
_symmetry_cell_setting           triclinic
_symmetry_space_group_name_H-M   'P -1'
_symmetry_Int_Tables_number      2
_space_group_name_Hall           '-P 1'
loop_
_symmetry_equiv_pos_site_id
_symmetry_equiv_pos_as_xyz
1 x,y,z
2 -x,-y,-z
_cell_length_a                   8.655(13)
_cell_length_b                   10.845(16)
_cell_length_c                   12.574(18)
_cell_angle_alpha                104.939(17)
_cell_angle_beta                 107.636(17)
_cell_angle_gamma                102.881(19)
_cell_volume                     1027.04
_exptl_crystal_colour            colorless
_exptl_crystal_description       rod
_cell_formula_units_Z            2
loop_
_atom_site_label
_atom_site_type_symbol
_atom_site_fract_x
_atom_site_fract_y
_atom_site_fract_z
N1 N 0.2064(4) 0.3847(3) 0.2332(3)
N2 N 0.2199(4) 0.4309(3) 0.4354(3)
N3 N 0.1569(4) 0.6206(3) 0.4738(3)
O1 O 0.0956(4) 0.6052(3) 0.1749(3)
O2 O 0.0687(5) 0.7605(3) 0.3178(3)
C1 C 0.1259(5) 0.2449(4) 0.1749(3)
C2 C 0.2078(5) 0.1992(4) 0.1048(4)
H1 H 0.1780 0.1103 0.0554
C3 C 0.3481(5) 0.3102(4) 0.1192(3)
C4 C 0.4747(6) 0.3239(5) 0.0733(4)
H2 H 0.4763 0.2499 0.0169
C5 C 0.5978(6) 0.4472(5) 0.1113(4)
H3 H 0.6842 0.4566 0.0815
C6 C 0.5937(6) 0.5582(5) 0.1944(4)
H4 H 0.6783 0.6411 0.2193
C7 C 0.4689(5) 0.5495(4) 0.2409(4)
H5 H 0.4676 0.6243 0.2966
C8 C 0.3446(5) 0.4240(4) 0.2013(3)
C9 C -0.0210(5) 0.1697(4) 0.1933(3)
C10 C -0.0293(6) 0.0435(4) 0.2018(4)
H6 H 0.0580 0.0087 0.1961
C11 C -0.1655(7) -0.0307(4) 0.2185(4)
H7 H -0.1712 -0.1159 0.2226
C12 C -0.2929(7) 0.0215(5) 0.2290(5)
H8 H -0.3843 -0.0280 0.2412
C13 C -0.2861(6) 0.1463(5) 0.2215(4)
H9 H -0.3727 0.1813 0.2287
C14 C -0.1513(5) 0.2195(4) 0.2034(4)
H10 H -0.1478 0.3039 0.1979
C15 C 0.1890(5) 0.4631(3) 0.3341(3)
C16 C 0.1494(5) 0.5794(4) 0.3593(3)
C17 C 0.1956(5) 0.5288(4) 0.5153(4)
H11 H 0.2057 0.5298 0.5913
C18 C 0.1010(5) 0.6604(4) 0.2845(4)
C19 C 0.0653(7) 0.6847(5) 0.0984(4)
H12 H -0.0151 0.7296 0.1136
H13 H 0.0149 0.6255 0.0156
C20 C 0.2294(8) 0.7877(6) 0.1206(6)
H14 H 0.2719 0.8529 0.1996
H15 H 0.2092 0.8325 0.0635
H16 H 0.3125 0.7441 0.1129
C21 C 0.2596(5) 0.3160(3) 0.4548(3)
C22 C 0.3952(5) 0.2837(4) 0.4286(4)
H17 H 0.4585 0.3364 0.3987
C23 C 0.4327(6) 0.1731(5) 0.4479(4)
H18 H 0.5215 0.1501 0.4301
C24 C 0.3403(7) 0.0959(5) 0.4933(5)
H19 H 0.3665 0.0210 0.5062
C25 C 0.2089(6) 0.1300(4) 0.5197(4)
H20 H 0.1478 0.0786 0.5516
C26 C 0.1666(5) 0.2396(4) 0.4995(3)
H21 H 0.0761 0.2611 0.5160
loop_
_geom_bond_atom_site_label_1
_geom_bond_atom_site_label_2
_geom_bond_site_symmetry_1
_geom_bond_site_symmetry_2
N1 C1 1_555 1_555
N2 C15 1_555 1_555
N3 C16 1_555 1_555
O1 C18 1_555 1_555
O2 C18 1_555 1_555
C1 C2 1_555 1_555
C2 H1 1_555 1_555
C3 C2 1_555 1_555
C4 C3 1_555 1_555
H2 C4 1_555 1_555
C5 C4 1_555 1_555
H3 C5 1_555 1_555
C6 C5 1_555 1_555
H4 C6 1_555 1_555
C7 C6 1_555 1_555
H5 C7 1_555 1_555
C8 N1 1_555 1_555
C9 C1 1_555 1_555
C10 C9 1_555 1_555
H6 C10 1_555 1_555
C11 C10 1_555 1_555
H7 C11 1_555 1_555
C12 C11 1_555 1_555
H8 C12 1_555 1_555
C13 C12 1_555 1_555
H9 C13 1_555 1_555
C14 C9 1_555 1_555
H10 C14 1_555 1_555
C15 N1 1_555 1_555
C16 C15 1_555 1_555
C17 N2 1_555 1_555
H11 C17 1_555 1_555
C18 C16 1_555 1_555
C19 O1 1_555 1_555
H12 C19 1_555 1_555
H13 C19 1_555 1_555
C20 C19 1_555 1_555
H14 C20 1_555 1_555
H15 C20 1_555 1_555
H16 C20 1_555 1_555
C21 N2 1_555 1_555
C22 C21 1_555 1_555
H17 C22 1_555 1_555
C23 C22 1_555 1_555
H18 C23 1_555 1_555
C24 C23 1_555 1_555
H19 C24 1_555 1_555
C25 C24 1_555 1_555
H20 C25 1_555 1_555
C26 C21 1_555 1_555
H21 C26 1_555 1_555
N3 C17 1_555 1_555
C3 C8 1_555 1_555
C7 C8 1_555 1_555
C13 C14 1_555 1_555
C25 C26 1_555 1_555

#END
