
#######################################################################
#
#                 Cambridge Crystallographic Data Centre
#                                CCDC 
#
#######################################################################
#
# If this CIF has been generated from an entry in the Cambridge 
# Structural Database, then it will include bibliographic, chemical, 
# crystal, experimental, refinement or atomic coordinate data resulting 
# from the CCDC's data processing and validation procedures.
#
#######################################################################

data_FURTUJ
_chemical_formula_moiety         'C22 H17 N1 O3 S1'
_chemical_name_systematic        
4-methyl-N-(3-oxo-3-phenylprop-1-yn-1-yl)-N-phenylbenzenesulfonamide
_symmetry_cell_setting           monoclinic
_symmetry_space_group_name_H-M   'P 21/c'
_symmetry_Int_Tables_number      14
_space_group_name_Hall           '-P 2ybc'
loop_
_symmetry_equiv_pos_site_id
_symmetry_equiv_pos_as_xyz
1 x,y,z
2 -x,1/2+y,1/2-z
3 -x,-y,-z
4 x,1/2-y,1/2+z
_cell_length_a                   5.587(2)
_cell_length_b                   18.446(7)
_cell_length_c                   17.936(7)
_cell_angle_alpha                90
_cell_angle_beta                 97.283(8)
_cell_angle_gamma                90
_cell_volume                     1833.53
_exptl_crystal_colour            colorless
_exptl_crystal_description       rod
_chemical_melting_point          '139-140 deg.C'
_cell_formula_units_Z            4
loop_
_atom_site_label
_atom_site_type_symbol
_atom_site_fract_x
_atom_site_fract_y
_atom_site_fract_z
S1 S 0.36379(6) 0.296787(16) 0.229811(18)
O1 O 1.24895(19) 0.34334(5) 0.44681(6)
O2 O 0.17788(17) 0.24534(5) 0.20685(6)
O3 O 0.31251(18) 0.36644(5) 0.25924(6)
N1 N 0.5446(2) 0.25509(6) 0.29975(6)
C1 C 0.7235(3) 0.29464(7) 0.33700(8)
C2 C 0.5434(2) 0.30921(7) 0.15736(8)
C3 C 1.0516(2) 0.45266(7) 0.40143(7)
C4 C 0.7602(3) 0.06610(8) 0.27811(9)
C5 C 1.0134(3) 0.60300(7) 0.39636(8)
C6 C 0.8319(2) 0.33073(7) 0.04353(8)
C7 C 0.6588(3) 0.27569(8) 0.03786(8)
C8 C 0.8211(3) 0.56039(8) 0.36499(8)
C9 C 0.3989(3) 0.13960(7) 0.34124(8)
C10 C 0.7154(2) 0.36467(7) 0.16462(8)
C11 C 0.5616(2) 0.17642(7) 0.30306(7)
C12 C 0.5148(3) 0.26422(7) 0.09431(8)
C13 C 1.2452(3) 0.49573(7) 0.43127(8)
C14 C 0.8570(2) 0.37484(7) 0.10744(8)
C15 C 0.9878(3) 0.34256(9) -0.01793(9)
C16 C 0.6010(3) 0.02837(7) 0.31716(9)
C17 C 0.8829(3) 0.32961(7) 0.37050(8)
C18 C 0.8388(2) 0.48519(7) 0.36769(8)
C19 C 1.0772(2) 0.37245(7) 0.40925(8)
C20 C 1.2262(3) 0.57080(7) 0.42923(8)
C21 C 0.7421(3) 0.14120(7) 0.27110(8)
C22 C 0.4207(3) 0.06459(8) 0.34846(9)
H1 H 0.616(3) -0.0228(10) 0.3223(11)
H2 H 0.997(3) 0.6541(10) 0.3946(10)
H3 H 0.275(3) 0.1644(10) 0.3615(10)
H4 H 1.396(3) 0.4731(10) 0.4519(11)
H5 H 0.706(3) 0.4548(9) 0.3470(10)
H6 H 0.737(3) 0.3939(9) 0.2084(10)
H7 H 0.852(3) 0.1680(9) 0.2450(10)
H8 H 0.309(3) 0.0374(10) 0.3758(11)
H9 H 0.977(3) 0.4131(10) 0.1130(10)
H10 H 0.884(3) 0.0407(9) 0.2545(10)
H11 H 0.641(3) 0.2450(10) -0.0062(11)
H12 H 0.395(3) 0.2266(10) 0.0893(11)
H13 H 1.360(3) 0.6000(10) 0.4507(11)
H14 H 0.666(4) 0.5823(10) 0.3413(11)
H15 H 1.126(4) 0.3720(11) 0.0003(11)
H16 H 1.051(4) 0.2969(12) -0.0320(13)
H17 H 0.895(4) 0.3661(11) -0.0601(13)
loop_
_geom_bond_atom_site_label_1
_geom_bond_atom_site_label_2
_geom_bond_site_symmetry_1
_geom_bond_site_symmetry_2
S1 O2 1_555 1_555
O1 C19 1_555 1_555
O3 S1 1_555 1_555
N1 S1 1_555 1_555
C1 N1 1_555 1_555
C2 S1 1_555 1_555
C3 C13 1_555 1_555
C4 C16 1_555 1_555
C5 C8 1_555 1_555
C6 C7 1_555 1_555
C7 C12 1_555 1_555
C8 C18 1_555 1_555
C9 C11 1_555 1_555
C10 C2 1_555 1_555
C11 N1 1_555 1_555
C12 C2 1_555 1_555
C13 C20 1_555 1_555
C14 C6 1_555 1_555
C15 C6 1_555 1_555
C16 C22 1_555 1_555
C17 C1 1_555 1_555
C18 C3 1_555 1_555
C19 C3 1_555 1_555
C20 C5 1_555 1_555
C21 C4 1_555 1_555
C22 C9 1_555 1_555
H1 C16 1_555 1_555
H2 C5 1_555 1_555
H3 C9 1_555 1_555
H4 C13 1_555 1_555
H5 C18 1_555 1_555
H6 C10 1_555 1_555
H7 C21 1_555 1_555
H8 C22 1_555 1_555
H9 C14 1_555 1_555
H10 C4 1_555 1_555
H11 C7 1_555 1_555
H12 C12 1_555 1_555
H13 C20 1_555 1_555
H14 C8 1_555 1_555
H15 C15 1_555 1_555
H16 C15 1_555 1_555
H17 C15 1_555 1_555
C10 C14 1_555 1_555
C11 C21 1_555 1_555
C17 C19 1_555 1_555

#END
