
#######################################################################
#
#                 Cambridge Crystallographic Data Centre
#                                CCDC 
#
#######################################################################
#
# If this CIF has been generated from an entry in the Cambridge 
# Structural Database, then it will include bibliographic, chemical, 
# crystal, experimental, refinement or atomic coordinate data resulting 
# from the CCDC's data processing and validation procedures.
#
#######################################################################

data_FURZAV
_chemical_formula_moiety         'C30 H27 N3 O3 S1'
_chemical_name_systematic        
(14-((4-Methylphenyl)sulfonyl)-5,9,14,14a-tetrahydroisoquinolino[1,2-b][1,3,4]benzotriazepin-8(6H)-yl)(phenyl)methanone
_symmetry_cell_setting           monoclinic
_symmetry_space_group_name_H-M   'P 21/c'
_symmetry_Int_Tables_number      14
_space_group_name_Hall           '-P 2ybc'
loop_
_symmetry_equiv_pos_site_id
_symmetry_equiv_pos_as_xyz
1 x,y,z
2 -x,1/2+y,1/2-z
3 -x,-y,-z
4 x,1/2-y,1/2+z
_cell_length_a                   10.029(5)
_cell_length_b                   12.960(6)
_cell_length_c                   21.156(8)
_cell_angle_alpha                90
_cell_angle_beta                 115.278(18)
_cell_angle_gamma                90
_cell_volume                     2486.47
_exptl_crystal_colour            yellow
_exptl_crystal_description       block
_cell_formula_units_Z            4
loop_
_atom_site_label
_atom_site_type_symbol
_atom_site_fract_x
_atom_site_fract_y
_atom_site_fract_z
S1 S 0.74328(6) 0.22335(3) 0.26981(2)
O1 O 0.57936(15) 0.55295(10) 0.14136(7)
O2 O 0.8506(2) 0.15784(10) 0.32024(7)
O3 O 0.59100(18) 0.19626(13) 0.24202(7)
N1 N 0.68283(16) 0.40908(10) 0.12433(7)
N2 N 0.66917(16) 0.31633(10) 0.08846(7)
C1 C 0.3697(2) 0.38324(14) 0.00268(9)
H1 H 0.4416 0.3694 -0.0143
C2 C 0.2242(2) 0.35621(15) -0.03697(11)
H2 H 0.1965 0.3247 -0.0813
C3 C 0.1188(2) 0.37471(17) -0.01260(12)
H3 H 0.0193 0.3545 -0.0396
C4 C 0.1581(2) 0.42230(18) 0.05075(12)
H4 H 0.0858 0.4353 0.0676
C5 C 0.3027(2) 0.45135(16) 0.09001(10)
H5 H 0.3286 0.4861 0.1332
C6 C 0.4112(2) 0.43038(13) 0.06709(9)
C7 C 0.5629(2) 0.46934(13) 0.11217(9)
C8 C 0.7467(2) 0.31314(14) 0.04332(9)
H6 H 0.8534 0.3018 0.0718
H7 H 0.7336 0.3793 0.0180
C9 C 0.6824(2) 0.22559(15) -0.00793(10)
H8 H 0.5795 0.2425 -0.0405
H9 H 0.7399 0.2170 -0.0357
C10 C 0.6846(2) 0.12649(14) 0.02919(9)
C11 C 0.6838(2) 0.03158(15) -0.00194(10)
H10 H 0.6829 0.0301 -0.0470
C12 C 0.6843(2) -0.05994(15) 0.03100(11)
H11 H 0.6815 -0.1238 0.0084
C13 C 0.6891(2) -0.05846(15) 0.09688(11)
H12 H 0.6924 -0.1213 0.1206
C14 C 0.6890(2) 0.03445(14) 0.12842(10)
H13 H 0.6919 0.0349 0.1739
C15 C 0.68493(18) 0.12775(13) 0.09498(9)
C16 C 0.67046(19) 0.22674(13) 0.12975(8)
H14 H 0.5724 0.2244 0.1315
N3 N 0.78409(16) 0.23337(10) 0.20307(7)
C17 C 0.92894(19) 0.26767(13) 0.21492(8)
C18 C 1.0469(2) 0.19988(14) 0.24307(9)
H15 H 1.0309 0.1310 0.2536
C19 C 1.1869(2) 0.23178(17) 0.25577(10)
H16 H 1.2681 0.1859 0.2764
C20 C 1.2082(2) 0.33070(17) 0.23839(11)
H17 H 1.3045 0.3529 0.2466
C21 C 1.0911(2) 0.39814(15) 0.20917(10)
H18 H 1.1075 0.4657 0.1965
C22 C 0.94966(19) 0.36877(13) 0.19801(8)
C23 C 0.8289(2) 0.44818(13) 0.17160(9)
H19 H 0.8214 0.4807 0.2123
H20 H 0.8574 0.5027 0.1469
C24 C 0.76648(19) 0.34609(13) 0.30763(8)
C25 C 0.9030(2) 0.37628(14) 0.35766(10)
H21 H 0.9841 0.3300 0.3724
C26 C 0.9207(2) 0.47379(16) 0.38598(11)
H22 H 1.0151 0.4944 0.4199
C27 C 0.8051(3) 0.54196(15) 0.36638(11)
C28 C 0.6704(2) 0.51156(16) 0.31600(11)
H23 H 0.5898 0.5583 0.3013
C29 C 0.6497(2) 0.41480(16) 0.28631(9)
H24 H 0.5558 0.3953 0.2514
C30 C 0.8268(4) 0.64723(17) 0.40019(14)
H25 H 0.7337 0.6855 0.3801
H26 H 0.9021 0.6852 0.3917
H27 H 0.8589 0.6392 0.4506
loop_
_geom_bond_atom_site_label_1
_geom_bond_atom_site_label_2
_geom_bond_site_symmetry_1
_geom_bond_site_symmetry_2
S1 O2 1_555 1_555
O1 C7 1_555 1_555
O3 S1 1_555 1_555
N1 N2 1_555 1_555
N2 C8 1_555 1_555
C1 H1 1_555 1_555
C2 C1 1_555 1_555
H2 C2 1_555 1_555
C3 C2 1_555 1_555
H3 C3 1_555 1_555
C4 C3 1_555 1_555
H4 C4 1_555 1_555
C5 C4 1_555 1_555
H5 C5 1_555 1_555
C6 C1 1_555 1_555
C7 N1 1_555 1_555
C8 H6 1_555 1_555
H7 C8 1_555 1_555
C9 C8 1_555 1_555
H8 C9 1_555 1_555
H9 C9 1_555 1_555
C10 C9 1_555 1_555
C11 C10 1_555 1_555
H10 C11 1_555 1_555
C12 C11 1_555 1_555
H11 C12 1_555 1_555
C13 C12 1_555 1_555
H12 C13 1_555 1_555
C14 C13 1_555 1_555
H13 C14 1_555 1_555
C15 C10 1_555 1_555
C16 N2 1_555 1_555
H14 C16 1_555 1_555
N3 S1 1_555 1_555
C17 N3 1_555 1_555
C18 C17 1_555 1_555
H15 C18 1_555 1_555
C19 C18 1_555 1_555
H16 C19 1_555 1_555
C20 C19 1_555 1_555
H17 C20 1_555 1_555
C21 C20 1_555 1_555
H18 C21 1_555 1_555
C22 C17 1_555 1_555
C23 N1 1_555 1_555
H19 C23 1_555 1_555
H20 C23 1_555 1_555
C24 S1 1_555 1_555
C25 C24 1_555 1_555
H21 C25 1_555 1_555
C26 C25 1_555 1_555
H22 C26 1_555 1_555
C27 C26 1_555 1_555
C28 C27 1_555 1_555
H23 C28 1_555 1_555
C29 C24 1_555 1_555
H24 C29 1_555 1_555
C30 C27 1_555 1_555
H25 C30 1_555 1_555
H26 C30 1_555 1_555
H27 C30 1_555 1_555
C5 C6 1_555 1_555
C6 C7 1_555 1_555
C14 C15 1_555 1_555
C15 C16 1_555 1_555
C16 N3 1_555 1_555
C21 C22 1_555 1_555
C22 C23 1_555 1_555
C28 C29 1_555 1_555

#END
