
#######################################################################
#
#                 Cambridge Crystallographic Data Centre
#                                CCDC 
#
#######################################################################
#
# If this CIF has been generated from an entry in the Cambridge 
# Structural Database, then it will include bibliographic, chemical, 
# crystal, experimental, refinement or atomic coordinate data resulting 
# from the CCDC's data processing and validation procedures.
#
#######################################################################

data_FUSQER
_chemical_compound_source        'seeds of Caesalpinia minax Hance'
_chemical_name_common            'Caesalmin I'
_chemical_formula_moiety         'C23 H30 O8'
_chemical_name_systematic        
'4a,6-Dihydroxy-4,4,11b-trimethyl-7-oxo-1,2,3,4,4a,5,6,6a,7,11,11a,11b-dodecahydrophenanthro[3,2-b]furan-1,5-diyl diacetate'
_chemical_properties_biological  'COX-2 inhibitory activity'
_symmetry_cell_setting           orthorhombic
_symmetry_space_group_name_H-M   'P 21 21 21'
_symmetry_Int_Tables_number      19
_space_group_name_Hall           'P 2ac 2ab'
loop_
_symmetry_equiv_pos_site_id
_symmetry_equiv_pos_as_xyz
1 x,y,z
2 1/2-x,-y,1/2+z
3 -x,1/2+y,1/2-z
4 1/2+x,1/2-y,-z
_cell_length_a                   7.6369(3)
_cell_length_b                   9.8408(4)
_cell_length_c                   28.3369(12)
_cell_angle_alpha                90
_cell_angle_beta                 90
_cell_angle_gamma                90
_cell_volume                     2129.61
_exptl_crystal_colour            colorless
_exptl_crystal_description       block
_cell_formula_units_Z            4
loop_
_atom_site_label
_atom_site_type_symbol
_atom_site_fract_x
_atom_site_fract_y
_atom_site_fract_z
O1 O 1.0059(2) 0.34963(13) 0.11919(5)
O2 O 1.0913(3) 0.47970(18) 0.18000(6)
O3 O 0.98622(19) 0.10363(14) 0.07141(5)
H1 H 1.0195 0.1820 0.0753
O4 O 0.8065(2) -0.14330(14) 0.05936(5)
O5 O 0.5735(3) -0.2658(2) 0.08177(8)
O6 O 0.9450(3) -0.26983(15) 0.13497(7)
H2 H 1.0125 -0.2998 0.1549
O7 O 1.2516(3) -0.21871(19) 0.18344(8)
O8 O 1.3006(3) 0.16512(18) 0.27293(6)
C1 C 0.8452(3) 0.3062(2) 0.14336(7)
H3 H 0.8431 0.3457 0.1751
C2 C 0.6948(3) 0.3631(2) 0.11522(8)
H4 H 0.7083 0.4608 0.1124
H5 H 0.5859 0.3454 0.1317
C3 C 0.6865(4) 0.3003(2) 0.06626(8)
H6 H 0.7909 0.3263 0.0490
H7 H 0.5865 0.3381 0.0497
C4 C 0.6714(3) 0.1433(2) 0.06567(8)
C5 C 0.8247(3) 0.0827(2) 0.09656(7)
C6 C 0.8162(3) -0.0730(2) 0.10411(7)
H8 H 0.7131 -0.0955 0.1231
C7 C 0.9786(3) -0.12773(19) 0.12799(8)
H9 H 1.0792 -0.1168 0.1069
C8 C 1.0178(3) -0.05818(19) 0.17504(7)
H10 H 0.9254 -0.0850 0.1972
C9 C 1.0121(3) 0.0991(2) 0.17087(6)
H11 H 1.1091 0.1262 0.1503
C10 C 0.8415(3) 0.1490(2) 0.14744(7)
C11 C 1.0463(3) 0.1631(2) 0.21977(7)
H12 H 1.0624 0.2605 0.2166
H13 H 0.9470 0.1471 0.2404
C12 C 1.2041(4) 0.1012(2) 0.23973(7)
C13 C 1.2742(3) -0.0228(2) 0.22967(8)
C14 C 1.1906(3) -0.1090(2) 0.19510(8)
C15 C 1.4257(4) -0.0367(3) 0.25926(9)
H14 H 1.5016 -0.1105 0.2605
C16 C 1.4357(4) 0.0769(3) 0.28445(10)
H15 H 1.5218 0.0949 0.3068
C17 C 0.4855(3) 0.1007(3) 0.08016(10)
H16 H 0.4052 0.1225 0.0552
H17 H 0.4522 0.1485 0.1083
H18 H 0.4830 0.0047 0.0860
C18 C 0.6921(4) 0.1027(3) 0.01314(8)
H19 H 0.6246 0.1633 -0.0062
H20 H 0.6511 0.0113 0.0087
H21 H 0.8132 0.1082 0.0043
C19 C 0.6855(3) 0.1155(2) 0.18007(8)
H22 H 0.6837 0.0197 0.1864
H23 H 0.5782 0.1415 0.1649
H24 H 0.6976 0.1645 0.2092
C20 C 1.1102(3) 0.4429(2) 0.13981(8)
C21 C 1.2429(3) 0.4954(3) 0.10676(9)
H25 H 1.1866 0.5485 0.0827
H26 H 1.3036 0.4206 0.0924
H27 H 1.3249 0.5512 0.1236
C22 C 0.6877(4) -0.2439(2) 0.05433(10)
C23 C 0.7185(5) -0.3209(3) 0.00986(11)
H28 H 0.6143 -0.3697 0.0014
H29 H 0.8129 -0.3840 0.0144
H30 H 0.7483 -0.2588 -0.0150
loop_
_geom_bond_atom_site_label_1
_geom_bond_atom_site_label_2
_geom_bond_site_symmetry_1
_geom_bond_site_symmetry_2
O1 C1 1_555 1_555
O2 C20 1_555 1_555
O3 H1 1_555 1_555
O4 C6 1_555 1_555
O5 C22 1_555 1_555
O6 H2 1_555 1_555
O7 C14 1_555 1_555
O8 C12 1_555 1_555
C1 H3 1_555 1_555
C2 C1 1_555 1_555
H4 C2 1_555 1_555
H5 C2 1_555 1_555
C3 C2 1_555 1_555
H6 C3 1_555 1_555
H7 C3 1_555 1_555
C4 C3 1_555 1_555
C5 O3 1_555 1_555
C6 C5 1_555 1_555
H8 C6 1_555 1_555
C7 O6 1_555 1_555
H9 C7 1_555 1_555
C8 C7 1_555 1_555
H10 C8 1_555 1_555
C9 C8 1_555 1_555
H11 C9 1_555 1_555
C10 C1 1_555 1_555
C11 C9 1_555 1_555
H12 C11 1_555 1_555
H13 C11 1_555 1_555
C12 C11 1_555 1_555
C13 C12 1_555 1_555
C14 C8 1_555 1_555
C15 C13 1_555 1_555
H14 C15 1_555 1_555
C16 O8 1_555 1_555
H15 C16 1_555 1_555
C17 C4 1_555 1_555
H16 C17 1_555 1_555
H17 C17 1_555 1_555
H18 C17 1_555 1_555
C18 C4 1_555 1_555
H19 C18 1_555 1_555
H20 C18 1_555 1_555
H21 C18 1_555 1_555
C19 C10 1_555 1_555
H22 C19 1_555 1_555
H23 C19 1_555 1_555
H24 C19 1_555 1_555
C20 O1 1_555 1_555
C21 C20 1_555 1_555
H25 C21 1_555 1_555
H26 C21 1_555 1_555
H27 C21 1_555 1_555
C22 O4 1_555 1_555
C23 C22 1_555 1_555
H28 C23 1_555 1_555
H29 C23 1_555 1_555
H30 C23 1_555 1_555
C4 C5 1_555 1_555
C5 C10 1_555 1_555
C6 C7 1_555 1_555
C9 C10 1_555 1_555
C13 C14 1_555 1_555
C15 C16 1_555 1_555

#END
