
#######################################################################
#
#                 Cambridge Crystallographic Data Centre
#                                CCDC 
#
#######################################################################
#
# If this CIF has been generated from an entry in the Cambridge 
# Structural Database, then it will include bibliographic, chemical, 
# crystal, experimental, refinement or atomic coordinate data resulting 
# from the CCDC's data processing and validation procedures.
#
#######################################################################

data_FUTCED
_chemical_formula_moiety         'C15 H18 N2 O1'
_chemical_name_systematic        N-(3-Isobutoxyphenyl)-2-pyridinamine
_symmetry_cell_setting           triclinic
_symmetry_space_group_name_H-M   'P -1'
_symmetry_Int_Tables_number      2
_space_group_name_Hall           '-P 1'
loop_
_symmetry_equiv_pos_site_id
_symmetry_equiv_pos_as_xyz
1 x,y,z
2 -x,-y,-z
_cell_length_a                   5.4091(14)
_cell_length_b                   10.027(3)
_cell_length_c                   12.418(3)
_cell_angle_alpha                75.868(3)
_cell_angle_beta                 86.406(3)
_cell_angle_gamma                83.215(3)
_cell_volume                     648.157
_exptl_crystal_colour            colorless
_exptl_crystal_description       block
_cell_formula_units_Z            2
_exptl_crystal_recrystallization_method dichloromethane/hexanes
loop_
_atom_site_label
_atom_site_type_symbol
_atom_site_fract_x
_atom_site_fract_y
_atom_site_fract_z
O1 O 0.51878(15) -0.05196(8) 0.33730(7)
N1 N 0.24392(17) 0.34640(9) 0.05356(8)
H1 H 0.2088 0.4361 0.0457
N2 N -0.06484(18) 0.36787(9) -0.06979(8)
C1 C 0.5551(2) 0.08154(11) 0.28323(9)
C2 C 0.3894(2) 0.14315(11) 0.19903(9)
H2 H 0.2631 0.0929 0.1835
C3 C 0.4088(2) 0.27801(11) 0.13779(9)
C4 C 0.5914(2) 0.35238(11) 0.16360(9)
H3 H 0.6046 0.4450 0.1232
C5 C 0.7516(2) 0.29063(12) 0.24780(9)
H4 H 0.8741 0.3420 0.2650
C6 C 0.7387(2) 0.15450(12) 0.30843(9)
H5 H 0.8522 0.1127 0.3654
C7 C 0.1318(2) 0.28864(11) -0.01774(9)
C8 C 0.2199(2) 0.15989(11) -0.03977(9)
H6 H 0.3644 0.1078 -0.0054
C9 C 0.0927(2) 0.11080(11) -0.11209(9)
H7 H 0.1479 0.0235 -0.1273
C10 C -0.1170(2) 0.18933(12) -0.16287(10)
H8 H -0.2106 0.1562 -0.2113
C11 C -0.1835(2) 0.31697(12) -0.14013(9)
H9 H -0.3225 0.3725 -0.1767
C12 C 0.6940(2) -0.12405(11) 0.41933(9)
H10 H 0.6854 -0.0777 0.4815
H11 H 0.8652 -0.1235 0.3861
C13 C 0.6315(2) -0.27174(11) 0.46193(9)
H12 H 0.4532 -0.2697 0.4888
C14 C 0.7953(2) -0.34168(12) 0.56016(10)
H13 H 0.7682 -0.2890 0.6175
H14 H 0.9708 -0.3449 0.5350
H15 H 0.7519 -0.4360 0.5910
C15 C 0.6672(2) -0.35153(12) 0.37102(10)
H16 H 0.5601 -0.3048 0.3092
H17 H 0.6226 -0.4458 0.4011
H18 H 0.8417 -0.3552 0.3444
loop_
_geom_bond_atom_site_label_1
_geom_bond_atom_site_label_2
_geom_bond_site_symmetry_1
_geom_bond_site_symmetry_2
O1 C1 1_555 1_555
N1 H1 1_555 1_555
N2 C7 1_555 1_555
C1 C2 1_555 1_555
C2 H2 1_555 1_555
C3 N1 1_555 1_555
C4 C3 1_555 1_555
H3 C4 1_555 1_555
C5 C4 1_555 1_555
H4 C5 1_555 1_555
C6 C1 1_555 1_555
H5 C6 1_555 1_555
C7 N1 1_555 1_555
C8 C7 1_555 1_555
H6 C8 1_555 1_555
C9 C8 1_555 1_555
H7 C9 1_555 1_555
C10 C9 1_555 1_555
H8 C10 1_555 1_555
C11 N2 1_555 1_555
H9 C11 1_555 1_555
C12 O1 1_555 1_555
H10 C12 1_555 1_555
H11 C12 1_555 1_555
C13 C12 1_555 1_555
H12 C13 1_555 1_555
C14 C13 1_555 1_555
H13 C14 1_555 1_555
H14 C14 1_555 1_555
H15 C14 1_555 1_555
C15 C13 1_555 1_555
H16 C15 1_555 1_555
H17 C15 1_555 1_555
H18 C15 1_555 1_555
C2 C3 1_555 1_555
C5 C6 1_555 1_555
C10 C11 1_555 1_555

#END
