
#######################################################################
#
#                 Cambridge Crystallographic Data Centre
#                                CCDC 
#
#######################################################################
#
# If this CIF has been generated from an entry in the Cambridge 
# Structural Database, then it will include bibliographic, chemical, 
# crystal, experimental, refinement or atomic coordinate data resulting 
# from the CCDC's data processing and validation procedures.
#
#######################################################################

data_FUTHOS
_chemical_formula_moiety         'C21 H22 N2 O3'
_chemical_name_systematic        
(Z)-1,2,4,6-Tetramethyl-8,8-diphenyl-7-oxa-2,4-diazabicyclo(4.2.0)octane-3,5-dione
_symmetry_cell_setting           monoclinic
_symmetry_space_group_name_H-M   'P 21/c'
_symmetry_Int_Tables_number      14
_space_group_name_Hall           '-P 2ybc'
loop_
_symmetry_equiv_pos_site_id
_symmetry_equiv_pos_as_xyz
1 x,y,z
2 -x,1/2+y,1/2-z
3 -x,-y,-z
4 x,1/2-y,1/2+z
_cell_length_a                   16.102(2)
_cell_length_b                   10.7697(10)
_cell_length_c                   10.9403(12)
_cell_angle_alpha                90
_cell_angle_beta                 101.787(2)
_cell_angle_gamma                90
_cell_volume                     1857.19
_exptl_crystal_colour            colorless
_exptl_crystal_description       block
_cell_formula_units_Z            4
_exptl_crystal_preparation       'irradiated product'
loop_
_atom_site_label
_atom_site_type_symbol
_atom_site_fract_x
_atom_site_fract_y
_atom_site_fract_z
N1 N 0.8192(3) -0.0266(5) 0.5725(5)
N2 N 0.8403(4) -0.1987(6) 0.7127(5)
O1 O 0.6529(3) -0.0539(5) 0.7142(5)
O2 O 0.9494(3) -0.1121(5) 0.6404(6)
O3 O 0.7344(5) -0.2931(6) 0.7796(7)
C1 C 0.7074(4) 0.0522(7) 0.7032(6)
C2 C 0.7302(4) -0.0141(7) 0.5827(6)
C3 C 0.8726(4) -0.1093(7) 0.6409(7)
C4 C 0.7564(6) -0.2132(8) 0.7122(8)
C5 C 0.6926(4) -0.1321(7) 0.6300(7)
C6 C 0.660(19) 0.18(3) 0.68(4)
C7 C 0.700(3) 0.288(7) 0.646(6)
H1 H 0.7556 0.2832 0.6347
C8 C 0.656(3) 0.402(4) 0.628(3)
H2 H 0.6818 0.4702 0.5999
C9 C 0.574(4) 0.413(6) 0.653(4)
H3 H 0.5457 0.4886 0.6394
C10 C 0.536(4) 0.312(6) 0.698(5)
H4 H 0.4837 0.3202 0.7196
C11 C 0.579(5) 0.197(7) 0.710(7)
H5 H 0.5525 0.1281 0.7375
C12 C 0.7785(4) 0.0627(6) 0.8163(6)
C13 C 0.8511(4) 0.1365(6) 0.8214(7)
H6 H 0.8572 0.1830 0.7522
C14 C 0.9142(4) 0.1402(8) 0.9301(10)
H7 H 0.9631 0.1866 0.9320
C15 C 0.9041(7) 0.0761(10) 1.0327(11)
H8 H 0.9458 0.0814 1.1051
C16 C 0.8330(8) 0.0028(9) 1.0322(9)
H9 H 0.8269 -0.0411 1.1030
C17 C 0.7722(6) -0.0030(8) 0.9242(8)
H10 H 0.7248 -0.0528 0.9228
C18 C 0.6761(5) 0.0330(9) 0.4587(7)
H11 H 0.6859 -0.0186 0.3914
H12 H 0.6916 0.1170 0.4445
H13 H 0.6172 0.0298 0.4628
C19 C 0.8566(5) 0.0648(8) 0.5004(9)
H14 H 0.8411 0.1469 0.5214
H15 H 0.8360 0.0504 0.4128
H16 H 0.9173 0.0567 0.5196
C20 C 0.9035(6) -0.2774(9) 0.7959(9)
H17 H 0.9184 -0.2395 0.8768
H18 H 0.9534 -0.2855 0.7611
H19 H 0.8797 -0.3580 0.8035
C21 C 0.627(3) -0.195(5) 0.527(5)
H20 H 0.6003 -0.2615 0.5615
H21 H 0.6554 -0.2267 0.4638
H22 H 0.5854 -0.1349 0.4896
C22? C 0.523(4) 0.258(7) 0.726(7)
C23? C 0.576(5) 0.154(8) 0.738(8)
C24? C 0.633(4) -0.235(5) 0.568(5)
C25? C 0.65(2) 0.16(4) 0.69(4)
C26? C 0.669(4) 0.268(8) 0.629(7)
C27? C 0.616(4) 0.370(4) 0.616(3)
C28? C 0.544(5) 0.362(7) 0.665(6)
H23? H 0.4746 0.2573 0.7588
H24? H 0.5632 0.0824 0.7774
H25? H 0.6249 -0.2948 0.6302
H26? H 0.6571 -0.2758 0.5056
H27? H 0.5790 -0.2000 0.5300
H28? H 0.7190 0.2705 0.5984
H29? H 0.6290 0.4418 0.5753
H30? H 0.5079 0.4304 0.6561
loop_
_geom_bond_atom_site_label_1
_geom_bond_atom_site_label_2
_geom_bond_site_symmetry_1
_geom_bond_site_symmetry_2
N1 C2 1_555 1_555
N2 C3 1_555 1_555
O1 C1 1_555 1_555
O2 C3 1_555 1_555
O3 C4 1_555 1_555
C1 C2 1_555 1_555
C2 C5 1_555 1_555
C3 N1 1_555 1_555
C4 N2 1_555 1_555
C5 O1 1_555 1_555
C6 C1 1_555 1_555
C7 C6 1_555 1_555
H1 C7 1_555 1_555
C8 C7 1_555 1_555
H2 C8 1_555 1_555
C9 C8 1_555 1_555
H3 C9 1_555 1_555
C10 C9 1_555 1_555
H4 C10 1_555 1_555
C11 C6 1_555 1_555
H5 C11 1_555 1_555
C12 C1 1_555 1_555
C13 C12 1_555 1_555
H6 C13 1_555 1_555
C14 C13 1_555 1_555
H7 C14 1_555 1_555
C15 C14 1_555 1_555
H8 C15 1_555 1_555
C16 C15 1_555 1_555
H9 C16 1_555 1_555
C17 C12 1_555 1_555
H10 C17 1_555 1_555
C18 C2 1_555 1_555
H11 C18 1_555 1_555
H12 C18 1_555 1_555
H13 C18 1_555 1_555
C19 N1 1_555 1_555
H14 C19 1_555 1_555
H15 C19 1_555 1_555
H16 C19 1_555 1_555
C20 N2 1_555 1_555
H17 C20 1_555 1_555
H18 C20 1_555 1_555
H19 C20 1_555 1_555
C21 C5 1_555 1_555
H20 C21 1_555 1_555
H21 C21 1_555 1_555
H22 C21 1_555 1_555
C4 C5 1_555 1_555
C10 C11 1_555 1_555
C16 C17 1_555 1_555

#END
