
#######################################################################
#
#                 Cambridge Crystallographic Data Centre
#                                CCDC 
#
#######################################################################
#
# If this CIF has been generated from an entry in the Cambridge 
# Structural Database, then it will include bibliographic, chemical, 
# crystal, experimental, refinement or atomic coordinate data resulting 
# from the CCDC's data processing and validation procedures.
#
#######################################################################

data_FUTRAP
_chemical_formula_moiety         'C19 H15 N3 O2'
_chemical_name_systematic        
5-Methoxy-2-(4-(4-methoxyphenyl)pyrimidin-2-yl)benzonitrile
_symmetry_cell_setting           monoclinic
_symmetry_space_group_name_H-M   'P 21/c'
_symmetry_Int_Tables_number      14
_space_group_name_Hall           '-P 2ybc'
loop_
_symmetry_equiv_pos_site_id
_symmetry_equiv_pos_as_xyz
1 x,y,z
2 -x,1/2+y,1/2-z
3 -x,-y,-z
4 x,1/2-y,1/2+z
_cell_length_a                   18.255(8)
_cell_length_b                   12.344(5)
_cell_length_c                   14.056(6)
_cell_angle_alpha                90
_cell_angle_beta                 103.505(5)
_cell_angle_gamma                90
_cell_volume                     3079.8
_cell_formula_units_Z            8
loop_
_atom_site_label
_atom_site_type_symbol
_atom_site_fract_x
_atom_site_fract_y
_atom_site_fract_z
C1 C 0.59432(15) 0.5164(2) 0.1212(2)
H1 H 0.5955 0.4413 0.1257
O1 O 0.71691(11) 0.74464(16) 0.09686(17)
C2 C 0.78538(15) 0.6926(3) 0.0923(2)
H2 H 0.8222 0.7462 0.0865
H3 H 0.7767 0.6454 0.0364
H4 H 0.8034 0.6509 0.1507
O2 O 0.06954(10) 0.76308(17) 0.11241(16)
C3 C -0.00098(15) 0.7118(3) 0.1091(3)
H5 H -0.0390 0.7660 0.1073
H6 H 0.0031 0.6675 0.1662
H7 H -0.0145 0.6675 0.0516
C4 C 0.33256(15) 0.7639(2) 0.1524(2)
N1 N 0.38046(14) 0.8258(2) 0.1686(2)
N2 N 0.39645(11) 0.56986(18) 0.12276(16)
C5 C 0.26501(14) 0.5840(2) 0.12417(19)
C6 C 0.45944(14) 0.5111(2) 0.13285(19)
C7 C 0.13087(14) 0.7000(2) 0.1147(2)
C8 C 0.19832(15) 0.7541(2) 0.1275(2)
H8 H 0.1992 0.8292 0.1329
C9 C 0.52797(14) 0.5692(2) 0.12339(19)
N3 N 0.32767(13) 0.4125(2) 0.14657(18)
C10 C 0.33407(14) 0.5192(2) 0.13169(19)
C11 C 0.26493(14) 0.6981(2) 0.13254(19)
C12 C 0.59209(15) 0.7371(2) 0.1081(2)
H9 H 0.5914 0.8123 0.1043
C13 C 0.45907(16) 0.4014(2) 0.1524(2)
H10 H 0.5028 0.3601 0.1621
C14 C 0.65718(14) 0.6815(2) 0.1053(2)
C15 C 0.12938(15) 0.5888(2) 0.1052(2)
H11 H 0.0840 0.5516 0.0955
C16 C 0.19554(15) 0.5333(2) 0.1100(2)
H12 H 0.1935 0.4583 0.1034
C17 C 0.65901(15) 0.5701(2) 0.1127(2)
H13 H 0.7028 0.5318 0.1119
C18 C 0.52839(15) 0.6823(2) 0.1166(2)
H14 H 0.4849 0.7210 0.1179
C19 C 0.39140(17) 0.3562(3) 0.1566(2)
H15 H 0.3898 0.2819 0.1671
O3 O -0.22034(11) 0.53311(17) 0.39696(18)
C20 C -0.29245(15) 0.5817(3) 0.3865(2)
H16 H -0.3277 0.5283 0.3977
H17 H -0.3091 0.6105 0.3216
H18 H -0.2892 0.6392 0.4333
O4 O 0.42738(10) 0.51899(16) 0.38367(16)
C21 C 0.49673(15) 0.5714(3) 0.3822(3)
H19 H 0.5344 0.5179 0.3797
H20 H 0.5127 0.6145 0.4402
H21 H 0.4898 0.6172 0.3255
C22 C 0.16629(15) 0.5162(2) 0.3563(2)
N4 N 0.11921(14) 0.4519(2) 0.3428(2)
N5 N 0.09991(12) 0.70954(18) 0.37347(16)
C23 C 0.23261(14) 0.6967(2) 0.38155(19)
C24 C 0.29857(14) 0.5274(2) 0.3743(2)
H22 H 0.2973 0.4525 0.3672
C25 C 0.36643(15) 0.5820(2) 0.3870(2)
C26 C 0.03552(14) 0.7670(2) 0.35797(19)
C27 C -0.03383(14) 0.7079(2) 0.3640(2)
C28 C 0.23271(14) 0.5835(2) 0.37201(19)
C29 C 0.16271(15) 0.7611(2) 0.36991(19)
C30 C 0.30209(15) 0.7473(2) 0.3979(2)
H23 H 0.3042 0.8219 0.4070
C31 C 0.10511(17) 0.9230(3) 0.3376(3)
H24 H 0.1065 0.9969 0.3254
C32 C -0.16175(15) 0.5954(2) 0.3839(2)
C33 C -0.10323(15) 0.7580(2) 0.3470(2)
H25 H -0.1072 0.8303 0.3281
N6 N 0.16964(13) 0.86803(19) 0.35464(19)
C34 C 0.03662(16) 0.8768(2) 0.3370(2)
H26 H -0.0074 0.9176 0.3230
C35 C 0.36818(15) 0.6923(2) 0.4013(2)
H27 H 0.4137 0.7295 0.4133
C36 C -0.09283(16) 0.5443(3) 0.3996(3)
H28 H -0.0891 0.4715 0.4172
C37 C -0.02981(16) 0.5987(2) 0.3896(2)
H29 H 0.0161 0.5625 0.4000
C38 C -0.16737(15) 0.7031(2) 0.3575(2)
H30 H -0.2135 0.7386 0.3468
loop_
_geom_bond_atom_site_label_1
_geom_bond_atom_site_label_2
_geom_bond_site_symmetry_1
_geom_bond_site_symmetry_2
C1 H1 1_555 1_555
O1 C2 1_555 1_555
C2 H2 1_555 1_555
H3 C2 1_555 1_555
H4 C2 1_555 1_555
O2 C3 1_555 1_555
C3 H5 1_555 1_555
H6 C3 1_555 1_555
H7 C3 1_555 1_555
C4 N1 1_555 1_555
N2 C6 1_555 1_555
C5 C10 1_555 1_555
C6 C9 1_555 1_555
C7 O2 1_555 1_555
C8 C7 1_555 1_555
H8 C8 1_555 1_555
C9 C1 1_555 1_555
N3 C10 1_555 1_555
C10 N2 1_555 1_555
C11 C4 1_555 1_555
C12 H9 1_555 1_555
C13 C6 1_555 1_555
H10 C13 1_555 1_555
C14 O1 1_555 1_555
C15 C7 1_555 1_555
H11 C15 1_555 1_555
C16 C5 1_555 1_555
H12 C16 1_555 1_555
C17 C1 1_555 1_555
H13 C17 1_555 1_555
C18 C9 1_555 1_555
H14 C18 1_555 1_555
C19 N3 1_555 1_555
H15 C19 1_555 1_555
O3 C20 1_555 1_555
C20 H16 1_555 1_555
H17 C20 1_555 1_555
H18 C20 1_555 1_555
O4 C21 1_555 1_555
C21 H19 1_555 1_555
H20 C21 1_555 1_555
H21 C21 1_555 1_555
C22 N4 1_555 1_555
N5 C26 1_555 1_555
C23 C28 1_555 1_555
C24 H22 1_555 1_555
C25 O4 1_555 1_555
C26 C27 1_555 1_555
C27 C33 1_555 1_555
C28 C22 1_555 1_555
C29 N5 1_555 1_555
C30 C23 1_555 1_555
H23 C30 1_555 1_555
C31 H24 1_555 1_555
C32 O3 1_555 1_555
C33 H25 1_555 1_555
N6 C29 1_555 1_555
C34 C26 1_555 1_555
H26 C34 1_555 1_555
C35 C25 1_555 1_555
H27 C35 1_555 1_555
C36 C32 1_555 1_555
H28 C36 1_555 1_555
C37 C27 1_555 1_555
H29 C37 1_555 1_555
C38 C32 1_555 1_555
H30 C38 1_555 1_555
C5 C11 1_555 1_555
C8 C11 1_555 1_555
C12 C14 1_555 1_555
C12 C18 1_555 1_555
C13 C19 1_555 1_555
C14 C17 1_555 1_555
C15 C16 1_555 1_555
C23 C29 1_555 1_555
C24 C25 1_555 1_555
C24 C28 1_555 1_555
C30 C35 1_555 1_555
C31 N6 1_555 1_555
C31 C34 1_555 1_555
C33 C38 1_555 1_555
C36 C37 1_555 1_555

#END
