
#######################################################################
#
#                 Cambridge Crystallographic Data Centre
#                                CCDC 
#
#######################################################################
#
# If this CIF has been generated from an entry in the Cambridge 
# Structural Database, then it will include bibliographic, chemical, 
# crystal, experimental, refinement or atomic coordinate data resulting 
# from the CCDC's data processing and validation procedures.
#
#######################################################################

data_FUTRET
_chemical_formula_moiety         'C20 H18 O2 S1'
_chemical_name_systematic        
5,7-bis(4-Methylphenyl)-2,3-dihydrothieno[3,4-b][1,4]dioxine
_symmetry_cell_setting           monoclinic
_symmetry_space_group_name_H-M   'P 21'
_symmetry_Int_Tables_number      4
_space_group_name_Hall           'P 2yb'
loop_
_symmetry_equiv_pos_site_id
_symmetry_equiv_pos_as_xyz
1 x,y,z
2 -x,1/2+y,-z
_cell_length_a                   6.7761(5)
_cell_length_b                   11.2906(7)
_cell_length_c                   11.3537(8)
_cell_angle_alpha                90
_cell_angle_beta                 102.150(7)
_cell_angle_gamma                90
_cell_volume                     849.171
_cell_formula_units_Z            2
loop_
_atom_site_label
_atom_site_type_symbol
_atom_site_fract_x
_atom_site_fract_y
_atom_site_fract_z
S1 S 0.84566(12) 0.68143(7) 0.31059(7)
O1 O 1.2127(4) 0.4459(2) 0.2337(2)
O2 O 0.9723(4) 0.3545(2) 0.3954(2)
C1 C 1.0309(5) 0.6279(3) 0.2392(3)
C2 C 1.0725(5) 0.5129(3) 0.2746(3)
C3 C 0.9569(5) 0.4689(3) 0.3542(3)
C4 C 0.8239(5) 0.5487(3) 0.3844(3)
C5 C 0.6842(5) 0.5392(3) 0.4664(3)
C6 C 0.7128(5) 0.4562(3) 0.5589(3)
H1 H 0.8179 0.4020 0.5659
C7 C 0.5879(5) 0.4529(3) 0.6406(3)
H2 H 0.6117 0.3970 0.7021
C8 C 0.4286(5) 0.5305(3) 0.6328(3)
C9 C 0.3968(5) 0.6128(3) 0.5396(3)
H3 H 0.2900 0.6659 0.5321
C10 C 0.5225(5) 0.6165(3) 0.4579(3)
H4 H 0.4980 0.6720 0.3960
C11 C 0.2940(7) 0.5286(4) 0.7233(4)
H5 H 0.3439 0.4712 0.7848
H6 H 0.1591 0.5078 0.6834
H7 H 0.2934 0.6055 0.7593
C12 C 1.1158(5) 0.7031(3) 0.1585(3)
C13 C 1.2998(5) 0.6767(4) 0.1281(3)
H8 H 1.3671 0.6076 0.1575
C14 C 1.3838(5) 0.7496(3) 0.0562(3)
H9 H 1.5062 0.7285 0.0375
C15 C 1.2922(6) 0.8537(3) 0.0107(3)
C16 C 1.1092(6) 0.8805(3) 0.0395(3)
H10 H 1.0423 0.9495 0.0093
C17 C 1.0234(5) 0.8075(3) 0.1116(3)
H11 H 0.9003 0.8287 0.1294
C18 C 1.3924(6) 0.9351(4) -0.0645(4)
H12 H 1.5339 0.9406 -0.0295
H13 H 1.3324 1.0124 -0.0672
H14 H 1.3744 0.9042 -0.1448
C19 C 1.2683(13) 0.3407(6) 0.3037(8)
H15 H 1.3544 0.3612 0.3806
H16 H 1.3428 0.2879 0.2616
C20 C 1.0821(14) 0.2803(7) 0.3238(9)
H17 H 0.9945 0.2628 0.2466
H18 H 1.1188 0.2060 0.3655
C21? C 1.174(2) 0.3174(11) 0.2519(14)
H19? H 1.2866 0.2703 0.2382
H20? H 1.0531 0.2921 0.1956
C22? C 1.147(3) 0.3006(15) 0.3800(15)
H21? H 1.1421 0.2167 0.3974
H22? H 1.2620 0.3345 0.4356
loop_
_geom_bond_atom_site_label_1
_geom_bond_atom_site_label_2
_geom_bond_site_symmetry_1
_geom_bond_site_symmetry_2
S1 C1 1_555 1_555
O1 C2 1_555 1_555
O2 C3 1_555 1_555
C1 C2 1_555 1_555
C2 C3 1_555 1_555
C3 C4 1_555 1_555
C4 S1 1_555 1_555
C5 C4 1_555 1_555
C6 C5 1_555 1_555
H1 C6 1_555 1_555
C7 C6 1_555 1_555
H2 C7 1_555 1_555
C8 C7 1_555 1_555
C9 C8 1_555 1_555
H3 C9 1_555 1_555
C10 C5 1_555 1_555
H4 C10 1_555 1_555
C11 C8 1_555 1_555
H5 C11 1_555 1_555
H6 C11 1_555 1_555
H7 C11 1_555 1_555
C12 C1 1_555 1_555
C13 C12 1_555 1_555
H8 C13 1_555 1_555
C14 C13 1_555 1_555
H9 C14 1_555 1_555
C15 C14 1_555 1_555
C16 C15 1_555 1_555
H10 C16 1_555 1_555
C17 C12 1_555 1_555
H11 C17 1_555 1_555
C18 C15 1_555 1_555
H12 C18 1_555 1_555
H13 C18 1_555 1_555
H14 C18 1_555 1_555
C19 O1 1_555 1_555
H15 C19 1_555 1_555
H16 C19 1_555 1_555
C20 O2 1_555 1_555
H17 C20 1_555 1_555
H18 C20 1_555 1_555
C9 C10 1_555 1_555
C16 C17 1_555 1_555
C19 C20 1_555 1_555

#END
