
#######################################################################
#
#                 Cambridge Crystallographic Data Centre
#                                CCDC 
#
#######################################################################
#
# If this CIF has been generated from an entry in the Cambridge 
# Structural Database, then it will include bibliographic, chemical, 
# crystal, experimental, refinement or atomic coordinate data resulting 
# from the CCDC's data processing and validation procedures.
#
#######################################################################

data_FUVCEG
_chemical_formula_moiety         'C45 H57 N1 O14,C3 H8 O1'
_chemical_name_systematic        'Cabazitaxel isopropanol solvate'
_chemical_properties_biological  'Cabazitaxel is an anticancer drug'
_symmetry_cell_setting           monoclinic
_symmetry_space_group_name_H-M   'P 21'
_symmetry_Int_Tables_number      4
_space_group_name_Hall           'P 2yb'
loop_
_symmetry_equiv_pos_site_id
_symmetry_equiv_pos_as_xyz
1 x,y,z
2 -x,1/2+y,-z
_cell_length_a                   11.807(4)
_cell_length_b                   17.339(5)
_cell_length_c                   12.610(4)
_cell_angle_alpha                90
_cell_angle_beta                 108.1210(10)
_cell_angle_gamma                90
_cell_volume                     2453.5
_exptl_crystal_colour            colorless
_exptl_crystal_description       Prism
_cell_formula_units_Z            2
_chemical_properties_physical    Heat-sensitive
_exptl_crystal_recrystallization_method 'isopropyl alcohol'
loop_
_atom_site_label
_atom_site_type_symbol
_atom_site_fract_x
_atom_site_fract_y
_atom_site_fract_z
O1 O 0.00374(13) -0.58192(9) 0.06930(13)
H1 H 0.0423 -0.6109 0.0422
O2 O -0.13742(11) -0.48835(9) -0.07840(12)
O3 O -0.18444(12) -0.33707(9) -0.06845(12)
O4 O -0.17922(17) -0.32169(12) -0.31687(12)
O5 O 0.21609(16) -0.25567(11) -0.15902(15)
O6 O 0.29527(17) -0.41944(14) -0.12529(18)
O7 O 0.40669(14) -0.40704(14) 0.0897(2)
O8 O 0.02087(14) -0.35143(10) 0.27486(12)
O9 O -0.13183(15) -0.59324(12) -0.18256(16)
O10 O -0.07563(16) -0.23251(11) 0.00608(15)
C1 C 0.04466(16) -0.50460(12) 0.06742(16)
C2 C -0.01076(15) -0.47411(12) -0.05475(16)
H2 H 0.0189 -0.5056 -0.1050
C3 C 0.00564(16) -0.38723(12) -0.07836(15)
H3 H 0.0322 -0.3616 -0.0055
C4 C -0.11441(17) -0.34927(13) -0.14388(16)
C5 C -0.1155(2) -0.27750(14) -0.21758(17)
H4 H -0.1671 -0.2373 -0.2031
C6 C 0.0010(2) -0.24290(15) -0.22211(19)
H5 H 0.0071 -0.2500 -0.2964
H6 H 0.0008 -0.1879 -0.2080
C7 C 0.10838(19) -0.27904(13) -0.13790(17)
H7 H 0.1117 -0.2605 -0.0636
C8 C 0.10320(18) -0.36892(13) -0.13711(16)
C9 C 0.23313(19) -0.39442(15) -0.0732(2)
C10 C 0.28743(17) -0.38007(15) 0.0525(2)
H8 H 0.2887 -0.3243 0.0651
C11 C 0.21638(16) -0.41670(14) 0.11984(17)
C12 C 0.17425(18) -0.37327(14) 0.18764(17)
C13 C 0.08572(19) -0.41074(14) 0.23568(17)
H9 H 0.1285 -0.4436 0.2986
C14 C -0.00525(18) -0.45957(14) 0.14898(17)
H10 H -0.0686 -0.4260 0.1058
H11 H -0.0403 -0.4962 0.1878
C15 C 0.18333(17) -0.50214(13) 0.10481(18)
C16 C 0.2313(2) -0.54654(16) 0.0218(2)
H12 H 0.3168 -0.5443 0.0463
H13 H 0.2009 -0.5236 -0.0508
H14 H 0.2060 -0.5994 0.0183
C17 C 0.2366(2) -0.54609(17) 0.2166(2)
H15 H 0.3144 -0.5260 0.2550
H16 H 0.2427 -0.6000 0.2017
H17 H 0.1857 -0.5395 0.2623
C18 C 0.2042(3) -0.28988(19) 0.2167(3)
H18 H 0.2611 -0.2725 0.1816
H19 H 0.2376 -0.2847 0.2961
H20 H 0.1332 -0.2593 0.1909
C19 C 0.0741(2) -0.40327(15) -0.25491(19)
H21 H 0.1362 -0.3901 -0.2860
H22 H -0.0004 -0.3828 -0.3013
H23 H 0.0683 -0.4584 -0.2509
C20 C -0.1937(2) -0.38659(15) -0.25034(18)
H24 H -0.1614 -0.4343 -0.2690
H25 H -0.2752 -0.3939 -0.2506
C21 C -0.18467(18) -0.55181(13) -0.13674(18)
C22 C -0.31002(18) -0.56238(14) -0.13863(19)
C23 C -0.3564(2) -0.52205(19) -0.0673(3)
H26 H -0.3095 -0.4862 -0.0181
C24 C -0.4729(3) -0.5349(3) -0.0692(4)
H27 H -0.5042 -0.5078 -0.0211
C25 C -0.5414(3) -0.5872(3) -0.1411(4)
H28 H -0.6194 -0.5956 -0.1418
C26 C -0.4971(3) -0.6276(2) -0.2126(3)
H29 H -0.5450 -0.6632 -0.2616
C27 C -0.3796(2) -0.61558(19) -0.2123(2)
H30 H -0.3489 -0.6429 -0.2607
C28 C -0.15714(19) -0.27572(14) 0.00070(16)
C29 C -0.2422(3) -0.2688(2) 0.0665(2)
H31 H -0.2215 -0.2248 0.1148
H32 H -0.2382 -0.3146 0.1104
H33 H -0.3217 -0.2627 0.0165
C30 C 0.2605(3) -0.1833(2) -0.1093(3)
H34 H 0.3322 -0.1706 -0.1260
H35 H 0.2773 -0.1867 -0.0299
H36 H 0.2018 -0.1440 -0.1384
C31 C 0.4940(4) -0.3573(4) 0.0833(6)
H37 H 0.5702 -0.3821 0.1112
H38 H 0.4929 -0.3123 0.1274
H39 H 0.4803 -0.3424 0.0070
N1 N -0.1636(2) -0.33655(14) 0.44311(16)
H40 H -0.1497 -0.3351 0.5142
O11 O 0.1268(3) -0.37774(18) 0.45130(17)
O12 O 0.05231(17) -0.25123(14) 0.53007(14)
H41 H 0.1243 -0.2594 0.5494
O13 O -0.2362(2) -0.40882(14) 0.28812(15)
O14 O -0.2302(2) -0.45307(14) 0.45899(17)
C32 C 0.0563(3) -0.33863(17) 0.38474(19)
C33 C 0.0034(2) -0.26571(17) 0.41593(18)
H42 H 0.0225 -0.2224 0.3746
C34 C -0.1327(2) -0.27038(16) 0.38884(17)
H43 H -0.1667 -0.2782 0.3082
C35 C -0.2129(2) -0.40012(16) 0.38817(19)
C36 C -0.2607(4) -0.5337(2) 0.4230(3)
C37 C -0.1766(18) -0.5638(13) 0.3625(18)
H44 H -0.2174 -0.5655 0.2838
H45 H -0.1503 -0.6147 0.3888
H46 H -0.1089 -0.5302 0.3768
C38 C -0.3777(8) -0.5388(6) 0.3321(7)
H47 H -0.4394 -0.5175 0.3580
H48 H -0.3955 -0.5918 0.3116
H49 H -0.3732 -0.5102 0.2683
C39 C -0.2389(15) -0.5789(7) 0.5323(9)
H50 H -0.2998 -0.5665 0.5652
H51 H -0.1623 -0.5653 0.5830
H52 H -0.2407 -0.6332 0.5170
C40 C -0.1844(2) -0.19579(17) 0.41763(18)
C41 C -0.2620(3) -0.1950(2) 0.4795(2)
H53 H -0.2847 -0.2413 0.5042
C42 C -0.3066(4) -0.1261(2) 0.5055(3)
H54 H -0.3585 -0.1270 0.5479
C43 C -0.2761(4) -0.0574(2) 0.4704(3)
H55 H -0.3052 -0.0114 0.4896
C44 C -0.2028(4) -0.0572(2) 0.4070(5)
H56 H -0.1830 -0.0107 0.3807
C45 C -0.1564(3) -0.1257(2) 0.3803(4)
H57 H -0.1057 -0.1242 0.3367
O15 O 0.2994(2) -0.2682(2) -0.3461(2)
H70 H 0.2827 -0.2690 -0.2877
C50 C 0.4935(7) -0.2961(12) -0.2363(8)
H71 H 0.4674 -0.3055 -0.1726
H72 H 0.5132 -0.2425 -0.2386
H73 H 0.5625 -0.3270 -0.2310
C51 C 0.4007(5) -0.3157(5) -0.3353(5)
H74 H 0.3779 -0.3695 -0.3294
C52 C 0.4357(7) -0.3077(9) -0.4353(7)
H75 H 0.3723 -0.3255 -0.4986
H76 H 0.5060 -0.3378 -0.4277
H77 H 0.4519 -0.2545 -0.4457
C46? C 0.4784(8) -0.3626(8) 0.1695(11)
H58? H 0.5577 -0.3834 0.1916
H59? H 0.4495 -0.3612 0.2327
H60? H 0.4795 -0.3112 0.1413
C47? C -0.3963(11) -0.5194(19) 0.376(3)
H61? H -0.4238 -0.4966 0.4332
H62? H -0.4366 -0.5675 0.3533
H63? H -0.4127 -0.4852 0.3135
C48? C -0.291(2) -0.5585(10) 0.5278(12)
H64? H -0.3618 -0.5322 0.5303
H65? H -0.2261 -0.5457 0.5930
H66? H -0.3044 -0.6132 0.5257
C49? C -0.1516(17) -0.5653(15) 0.3958(19)
H67? H -0.0824 -0.5608 0.4603
H68? H -0.1395 -0.5363 0.3353
H69? H -0.1645 -0.6186 0.3747
loop_
_geom_bond_atom_site_label_1
_geom_bond_atom_site_label_2
_geom_bond_site_symmetry_1
_geom_bond_site_symmetry_2
O1 H1 1_555 1_555
O2 C2 1_555 1_555
O3 C4 1_555 1_555
O4 C5 1_555 1_555
O5 C7 1_555 1_555
O6 C9 1_555 1_555
O7 C10 1_555 1_555
O8 C13 1_555 1_555
O9 C21 1_555 1_555
O10 C28 1_555 1_555
C1 O1 1_555 1_555
C2 C1 1_555 1_555
H2 C2 1_555 1_555
C3 C2 1_555 1_555
H3 C3 1_555 1_555
C4 C3 1_555 1_555
C5 C4 1_555 1_555
H4 C5 1_555 1_555
C6 C5 1_555 1_555
H5 C6 1_555 1_555
H6 C6 1_555 1_555
C7 C6 1_555 1_555
H7 C7 1_555 1_555
C8 C3 1_555 1_555
C9 C8 1_555 1_555
C10 C9 1_555 1_555
H8 C10 1_555 1_555
C11 C10 1_555 1_555
C12 C11 1_555 1_555
C13 C12 1_555 1_555
H9 C13 1_555 1_555
C14 C1 1_555 1_555
H10 C14 1_555 1_555
H11 C14 1_555 1_555
C15 C1 1_555 1_555
C16 C15 1_555 1_555
H12 C16 1_555 1_555
H13 C16 1_555 1_555
H14 C16 1_555 1_555
C17 C15 1_555 1_555
H15 C17 1_555 1_555
H16 C17 1_555 1_555
H17 C17 1_555 1_555
C18 C12 1_555 1_555
H18 C18 1_555 1_555
H19 C18 1_555 1_555
H20 C18 1_555 1_555
C19 C8 1_555 1_555
H21 C19 1_555 1_555
H22 C19 1_555 1_555
H23 C19 1_555 1_555
C20 O4 1_555 1_555
H24 C20 1_555 1_555
H25 C20 1_555 1_555
C21 O2 1_555 1_555
C22 C21 1_555 1_555
C23 C22 1_555 1_555
H26 C23 1_555 1_555
C24 C23 1_555 1_555
H27 C24 1_555 1_555
C25 C24 1_555 1_555
H28 C25 1_555 1_555
C26 C25 1_555 1_555
H29 C26 1_555 1_555
C27 C22 1_555 1_555
H30 C27 1_555 1_555
C28 O3 1_555 1_555
C29 C28 1_555 1_555
H31 C29 1_555 1_555
H32 C29 1_555 1_555
H33 C29 1_555 1_555
C30 O5 1_555 1_555
H34 C30 1_555 1_555
H35 C30 1_555 1_555
H36 C30 1_555 1_555
C31 O7 1_555 1_555
H37 C31 1_555 1_555
H38 C31 1_555 1_555
H39 C31 1_555 1_555
N1 H40 1_555 1_555
O11 C32 1_555 1_555
O12 H41 1_555 1_555
O13 C35 1_555 1_555
O14 C35 1_555 1_555
C32 O8 1_555 1_555
C33 O12 1_555 1_555
H42 C33 1_555 1_555
C34 N1 1_555 1_555
H43 C34 1_555 1_555
C35 N1 1_555 1_555
C36 O14 1_555 1_555
C37 C36 1_555 1_555
H44 C37 1_555 1_555
H45 C37 1_555 1_555
H46 C37 1_555 1_555
C38 C36 1_555 1_555
H47 C38 1_555 1_555
H48 C38 1_555 1_555
H49 C38 1_555 1_555
C39 C36 1_555 1_555
H50 C39 1_555 1_555
H51 C39 1_555 1_555
H52 C39 1_555 1_555
C40 C34 1_555 1_555
C41 C40 1_555 1_555
H53 C41 1_555 1_555
C42 C41 1_555 1_555
H54 C42 1_555 1_555
C43 C42 1_555 1_555
H55 C43 1_555 1_555
C44 C43 1_555 1_555
H56 C44 1_555 1_555
C45 C40 1_555 1_555
H57 C45 1_555 1_555
O15 H70 1_555 1_555
C50 H71 1_555 1_555
H72 C50 1_555 1_555
H73 C50 1_555 1_555
C51 O15 1_555 1_555
H74 C51 1_555 1_555
C52 C51 1_555 1_555
H75 C52 1_555 1_555
H76 C52 1_555 1_555
H77 C52 1_555 1_555
C4 C20 1_555 1_555
C7 C8 1_555 1_555
C11 C15 1_555 1_555
C13 C14 1_555 1_555
C26 C27 1_555 1_555
C32 C33 1_555 1_555
C33 C34 1_555 1_555
C44 C45 1_555 1_555
C50 C51 1_555 1_555

#END
