
#######################################################################
#
#                 Cambridge Crystallographic Data Centre
#                                CCDC 
#
#######################################################################
#
# If this CIF has been generated from an entry in the Cambridge 
# Structural Database, then it will include bibliographic, chemical, 
# crystal, experimental, refinement or atomic coordinate data resulting 
# from the CCDC's data processing and validation procedures.
#
#######################################################################

data_FUVDEG
_chemical_formula_moiety         'C25 H18'
_chemical_name_systematic        9,9-Diphenyl-9H-fluorene
_symmetry_cell_setting           monoclinic
_symmetry_space_group_name_H-M   'P 21/n'
_symmetry_Int_Tables_number      14
_space_group_name_Hall           '-P 2yn'
loop_
_symmetry_equiv_pos_site_id
_symmetry_equiv_pos_as_xyz
1 x,y,z
2 1/2-x,1/2+y,1/2-z
3 -x,-y,-z
4 1/2+x,1/2-y,1/2+z
_cell_length_a                   10.696(17)
_cell_length_b                   17.44(2)
_cell_length_c                   18.75(3)
_cell_angle_alpha                90
_cell_angle_beta                 106.33(4)
_cell_angle_gamma                90
_cell_volume                     3356.49
_exptl_crystal_colour            colorless
_exptl_crystal_description       prism
_cell_formula_units_Z            8
loop_
_atom_site_label
_atom_site_type_symbol
_atom_site_fract_x
_atom_site_fract_y
_atom_site_fract_z
C1 C 0.79772(13) 0.28882(8) 0.63686(7)
C2 C 0.91587(14) 0.26280(8) 0.68187(8)
H1 H 0.9744 0.2357 0.6612
C3 C 0.94757(15) 0.27693(9) 0.75769(8)
H2 H 1.0291 0.2601 0.7889
C4 C 0.86156(17) 0.31537(9) 0.78842(9)
H3 H 0.8843 0.3240 0.8405
C5 C 0.74277(16) 0.34139(9) 0.74383(8)
H4 H 0.6837 0.3675 0.7649
C6 C 0.71181(14) 0.32851(8) 0.66775(8)
C7 C 0.59710(14) 0.35111(8) 0.60796(8)
C8 C 0.48549(15) 0.39072(9) 0.61039(10)
H5 H 0.4754 0.4086 0.6563
C9 C 0.38931(16) 0.40356(10) 0.54447(10)
H6 H 0.3126 0.4305 0.5453
C10 C 0.40373(15) 0.37758(10) 0.47747(10)
H7 H 0.3367 0.3868 0.4328
C11 C 0.51536(14) 0.33809(9) 0.47478(9)
H8 H 0.5250 0.3203 0.4287
C12 C 0.61222(13) 0.32513(8) 0.54026(8)
C13 C 0.74165(13) 0.28186(8) 0.55237(7)
C14 C 0.83571(13) 0.31988(8) 0.51456(7)
C15 C 0.94709(13) 0.28042(8) 0.51024(8)
H9 H 0.9611 0.2294 0.5285
C16 C 1.03725(14) 0.31431(9) 0.47989(8)
H10 H 1.1132 0.2870 0.4783
C17 C 1.01675(15) 0.38817(9) 0.45187(8)
H11 H 1.0778 0.4114 0.4303
C18 C 0.90670(15) 0.42792(9) 0.45547(8)
H12 H 0.8921 0.4785 0.4361
C19 C 0.81741(14) 0.39431(8) 0.48724(8)
H13 H 0.7431 0.4225 0.4903
C20 C 0.70987(13) 0.19888(8) 0.52593(8)
C21 C 0.68989(14) 0.17991(9) 0.45134(8)
H14 H 0.7018 0.2178 0.4175
C22 C 0.65277(15) 0.10637(9) 0.42602(9)
H15 H 0.6394 0.0943 0.3750
C23 C 0.63514(14) 0.05045(9) 0.47455(9)
H16 H 0.6101 0.0000 0.4571
C24 C 0.65429(14) 0.06851(9) 0.54854(9)
H17 H 0.6418 0.0304 0.5821
C25 C 0.69178(13) 0.14209(8) 0.57410(8)
H18 H 0.7052 0.1538 0.6252
C26 C 0.29036(13) 0.14877(8) 0.61318(7)
C27 C 0.36486(14) 0.17499(8) 0.56872(8)
H19 H 0.4450 0.2007 0.5899
C28 C 0.32016(15) 0.16295(9) 0.49253(8)
H20 H 0.3708 0.1802 0.4614
C29 C 0.20252(15) 0.12608(9) 0.46129(8)
H21 H 0.1736 0.1184 0.4091
C30 C 0.12660(14) 0.10038(8) 0.50545(8)
H22 H 0.0457 0.0756 0.4840
C31 C 0.17136(13) 0.11169(7) 0.58173(8)
C32 C 0.11316(13) 0.09170(8) 0.64144(7)
C33 C -0.00584(14) 0.05780(8) 0.63858(8)
H23 H -0.0637 0.0425 0.5924
C34 C -0.03830(14) 0.04680(8) 0.70434(9)
H24 H -0.1192 0.0237 0.7033
C35 C 0.04625(14) 0.06925(9) 0.77190(8)
H25 H 0.0229 0.0608 0.8165
C36 C 0.16476(14) 0.10397(8) 0.77491(8)
H26 H 0.2219 0.1198 0.8211
C37 C 0.19782(13) 0.11498(8) 0.70938(7)
C38 C 0.31856(13) 0.15464(8) 0.69775(7)
C39 C 0.31892(12) 0.23795(8) 0.72452(7)
C40 C 0.25226(14) 0.29525(8) 0.67719(8)
H27 H 0.2092 0.2835 0.6268
C41 C 0.24844(15) 0.36972(8) 0.70333(8)
H28 H 0.2020 0.4084 0.6708
C42 C 0.31166(14) 0.38762(8) 0.77604(8)
H29 H 0.3111 0.4388 0.7934
C43 C 0.37591(14) 0.33077(9) 0.82369(8)
H30 H 0.4182 0.3427 0.8742
C44 C 0.37904(14) 0.25661(8) 0.79833(8)
H31 H 0.4228 0.2179 0.8317
C45 C 0.44738(13) 0.11332(8) 0.73499(7)
C46 C 0.56608(13) 0.15065(8) 0.74379(8)
H32 H 0.5667 0.2027 0.7288
C47 C 0.68315(14) 0.11303(9) 0.77407(8)
H33 H 0.7631 0.1393 0.7798
C48 C 0.68376(14) 0.03700(9) 0.79606(8)
H34 H 0.7639 0.0111 0.8169
C49 C 0.56698(14) -0.00079(9) 0.78741(9)
H35 H 0.5667 -0.0529 0.8022
C50 C 0.44991(14) 0.03731(8) 0.75714(8)
H36 H 0.3701 0.0108 0.7515
loop_
_geom_bond_atom_site_label_1
_geom_bond_atom_site_label_2
_geom_bond_site_symmetry_1
_geom_bond_site_symmetry_2
C1 C2 1_555 1_555
C2 H1 1_555 1_555
C3 C2 1_555 1_555
H2 C3 1_555 1_555
C4 C3 1_555 1_555
H3 C4 1_555 1_555
C5 C4 1_555 1_555
H4 C5 1_555 1_555
C6 C1 1_555 1_555
C7 C6 1_555 1_555
C8 C7 1_555 1_555
H5 C8 1_555 1_555
C9 C8 1_555 1_555
H6 C9 1_555 1_555
C10 C9 1_555 1_555
H7 C10 1_555 1_555
C11 C10 1_555 1_555
H8 C11 1_555 1_555
C12 C7 1_555 1_555
C13 C1 1_555 1_555
C14 C13 1_555 1_555
C15 C14 1_555 1_555
H9 C15 1_555 1_555
C16 C15 1_555 1_555
H10 C16 1_555 1_555
C17 C16 1_555 1_555
H11 C17 1_555 1_555
C18 C17 1_555 1_555
H12 C18 1_555 1_555
C19 C14 1_555 1_555
H13 C19 1_555 1_555
C20 C13 1_555 1_555
C21 C20 1_555 1_555
H14 C21 1_555 1_555
C22 C21 1_555 1_555
H15 C22 1_555 1_555
C23 C22 1_555 1_555
H16 C23 1_555 1_555
C24 C23 1_555 1_555
H17 C24 1_555 1_555
C25 C20 1_555 1_555
H18 C25 1_555 1_555
C26 C27 1_555 1_555
C27 H19 1_555 1_555
C28 C27 1_555 1_555
H20 C28 1_555 1_555
C29 C28 1_555 1_555
H21 C29 1_555 1_555
C30 C29 1_555 1_555
H22 C30 1_555 1_555
C31 C26 1_555 1_555
C32 C31 1_555 1_555
C33 C32 1_555 1_555
H23 C33 1_555 1_555
C34 C33 1_555 1_555
H24 C34 1_555 1_555
C35 C34 1_555 1_555
H25 C35 1_555 1_555
C36 C35 1_555 1_555
H26 C36 1_555 1_555
C37 C32 1_555 1_555
C38 C26 1_555 1_555
C39 C38 1_555 1_555
C40 C39 1_555 1_555
H27 C40 1_555 1_555
C41 C40 1_555 1_555
H28 C41 1_555 1_555
C42 C41 1_555 1_555
H29 C42 1_555 1_555
C43 C42 1_555 1_555
H30 C43 1_555 1_555
C44 C39 1_555 1_555
H31 C44 1_555 1_555
C45 C38 1_555 1_555
C46 C45 1_555 1_555
H32 C46 1_555 1_555
C47 C46 1_555 1_555
H33 C47 1_555 1_555
C48 C47 1_555 1_555
H34 C48 1_555 1_555
C49 C48 1_555 1_555
H35 C49 1_555 1_555
C50 C45 1_555 1_555
H36 C50 1_555 1_555
C5 C6 1_555 1_555
C11 C12 1_555 1_555
C12 C13 1_555 1_555
C18 C19 1_555 1_555
C24 C25 1_555 1_555
C30 C31 1_555 1_555
C36 C37 1_555 1_555
C37 C38 1_555 1_555
C43 C44 1_555 1_555
C49 C50 1_555 1_555

#END
