
#######################################################################
#
#                 Cambridge Crystallographic Data Centre
#                                CCDC 
#
#######################################################################
#
# If this CIF has been generated from an entry in the Cambridge 
# Structural Database, then it will include bibliographic, chemical, 
# crystal, experimental, refinement or atomic coordinate data resulting 
# from the CCDC's data processing and validation procedures.
#
#######################################################################

data_FUVKEM
_chemical_formula_moiety         'C20 H9 F9 N2'
_chemical_name_systematic        
1-Phenyl-2,3,4-tris(trifluoromethyl)pyrrolo(3,2-c)quinoline
_symmetry_cell_setting           monoclinic
_symmetry_space_group_name_H-M   'P 21/c'
_symmetry_Int_Tables_number      14
_space_group_name_Hall           '-P 2ybc'
loop_
_symmetry_equiv_pos_site_id
_symmetry_equiv_pos_as_xyz
1 x,y,z
2 -x,1/2+y,1/2-z
3 -x,-y,-z
4 x,1/2-y,1/2+z
_cell_length_a                   10.044(3)
_cell_length_b                   19.452(5)
_cell_length_c                   10.209(3)
_cell_angle_alpha                90
_cell_angle_beta                 117.78(2)
_cell_angle_gamma                90
_cell_volume                     1764.7
_exptl_crystal_colour            colorless
_cell_formula_units_Z            4
loop_
_atom_site_label
_atom_site_type_symbol
_atom_site_fract_x
_atom_site_fract_y
_atom_site_fract_z
N1 N 0.6752(4) 0.1006(2) 0.8813(4)
C1 C 0.8101(5) 0.1235(2) 0.9930(5)
C2 C 0.8787(5) 0.0726(3) 1.0913(5)
C3 C 0.7834(5) 0.0127(2) 1.0390(5)
C4 C 0.6570(5) 0.0329(2) 0.9084(5)
C5 C 0.7853(5) -0.0577(2) 1.0820(5)
N2 N 0.6742(4) -0.1000(2) 1.0112(4)
C6 C 0.5489(5) -0.0783(2) 0.8869(5)
C7 C 0.4337(6) -0.1275(2) 0.8201(6)
C8 C 0.3053(6) -0.1106(3) 0.6940(6)
C9 C 0.2900(6) -0.0455(3) 0.6348(6)
C10 C 0.3997(5) 0.0028(2) 0.6974(5)
C11 C 0.5341(5) -0.0118(2) 0.8276(5)
C12 C 0.5683(5) 0.1395(2) 0.7536(5)
C13 C 0.5779(6) 0.1348(3) 0.6242(6)
C14 C 0.4696(7) 0.1684(3) 0.5010(7)
C15 C 0.3574(6) 0.2053(3) 0.5086(6)
C16 C 0.3505(6) 0.2103(3) 0.6406(6)
C17 C 0.4579(6) 0.1767(2) 0.7662(6)
C18 C 0.8576(6) 0.1974(3) 0.9918(7)
C19 C 1.0204(7) 0.0821(3) 1.2317(7)
C20 C 0.9171(6) -0.0925(3) 1.2114(6)
F1 F 0.8128(5) 0.2209(2) 0.8544(4)
F2 F 1.0069(5) 0.2015(2) 1.0528(5)
F3 F 0.7965(6) 0.2390(2) 1.0469(6)
F4 F 1.1425(4) 0.0727(3) 1.2277(5)
F5 F 1.0167(4) 0.0422(2) 1.3415(4)
F6 F 1.0216(5) 0.1468(2) 1.2885(4)
F7 F 0.9217(5) -0.0831(2) 1.3383(4)
F8 F 1.0496(4) -0.0692(2) 1.2182(5)
F9 F 0.9167(5) -0.1595(2) 1.1891(5)
H1 H 0.440(6) -0.171(3) 0.866(6)
H2 H 0.216(7) -0.144(3) 0.657(7)
H3 H 0.190(6) -0.033(3) 0.557(5)
H4 H 0.376(6) 0.045(3) 0.659(6)
H5 H 0.656(5) 0.110(3) 0.620(6)
H6 H 0.470(6) 0.167(3) 0.424(6)
H7 H 0.306(7) 0.231(3) 0.413(7)
H8 H 0.249(9) 0.240(4) 0.660(8)
H9 H 0.445(6) 0.176(3) 0.866(6)
loop_
_geom_bond_atom_site_label_1
_geom_bond_atom_site_label_2
_geom_bond_site_symmetry_1
_geom_bond_site_symmetry_2
N1 C1 1_555 1_555
C1 C2 1_555 1_555
C2 C3 1_555 1_555
C3 C4 1_555 1_555
C4 N1 1_555 1_555
C5 C3 1_555 1_555
N2 C5 1_555 1_555
C6 N2 1_555 1_555
C7 C6 1_555 1_555
C8 C7 1_555 1_555
C9 C8 1_555 1_555
C10 C9 1_555 1_555
C11 C4 1_555 1_555
C12 N1 1_555 1_555
C13 C12 1_555 1_555
C14 C13 1_555 1_555
C15 C14 1_555 1_555
C16 C15 1_555 1_555
C17 C12 1_555 1_555
C18 C1 1_555 1_555
C19 C2 1_555 1_555
C20 C5 1_555 1_555
F1 C18 1_555 1_555
F2 C18 1_555 1_555
F3 C18 1_555 1_555
F4 C19 1_555 1_555
F5 C19 1_555 1_555
F6 C19 1_555 1_555
F7 C20 1_555 1_555
F8 C20 1_555 1_555
F9 C20 1_555 1_555
H1 C7 1_555 1_555
H2 C8 1_555 1_555
H3 C9 1_555 1_555
H4 C10 1_555 1_555
H5 C13 1_555 1_555
H6 C14 1_555 1_555
H7 C15 1_555 1_555
H8 C16 1_555 1_555
H9 C17 1_555 1_555
C6 C11 1_555 1_555
C10 C11 1_555 1_555
C16 C17 1_555 1_555

#END
