
#######################################################################
#
#                 Cambridge Crystallographic Data Centre
#                                CCDC 
#
#######################################################################
#
# If this CIF has been generated from an entry in the Cambridge 
# Structural Database, then it will include bibliographic, chemical, 
# crystal, experimental, refinement or atomic coordinate data resulting 
# from the CCDC's data processing and validation procedures.
#
#######################################################################

data_FUVREV
_chemical_formula_moiety         'C28 H27 Br1 N2 O7'
_chemical_name_systematic        
'Methyl 2-(5-bromo-2-nitrophenoxy)-1,4-di-tert-butyl-3-oxo-3H-phenoxazine-7-carboxylate'
_symmetry_cell_setting           triclinic
_symmetry_space_group_name_H-M   'P -1'
_symmetry_Int_Tables_number      2
_space_group_name_Hall           '-P 1'
loop_
_symmetry_equiv_pos_site_id
_symmetry_equiv_pos_as_xyz
1 x,y,z
2 -x,-y,-z
_cell_length_a                   7.1176(4)
_cell_length_b                   9.4945(6)
_cell_length_c                   19.7288(12)
_cell_angle_alpha                89.601(2)
_cell_angle_beta                 85.4020(10)
_cell_angle_gamma                75.4100(10)
_cell_volume                     1285.97
_exptl_crystal_colour            orange
_exptl_crystal_description       bar
_cell_formula_units_Z            2
loop_
_atom_site_label
_atom_site_type_symbol
_atom_site_fract_x
_atom_site_fract_y
_atom_site_fract_z
C1 C -0.9435(3) 1.0440(2) 0.09689(10)
H1 H -1.0165 1.0905 0.1372
H2 H -1.0071 0.9753 0.0797
H3 H -0.9359 1.1160 0.0631
C2 C -0.6310(2) 0.89900(17) 0.06090(8)
C3 C -0.4309(2) 0.83123(16) 0.08112(8)
C4 C -0.3763(2) 0.84889(17) 0.14604(8)
H4 H -0.4644 0.9037 0.1791
C5 C -0.1870(2) 0.78257(17) 0.15997(8)
C6 C -0.0549(2) 0.69507(16) 0.11252(8)
C7 C -0.1107(2) 0.68203(17) 0.04682(8)
H5 H -0.0224 0.6276 0.0137
C8 C -0.2966(2) 0.74993(17) 0.03151(8)
H6 H -0.3334 0.7417 -0.0122
C9 C 0.0604(2) 0.75098(16) 0.23710(7)
C10 C 0.1263(2) 0.80482(16) 0.29109(7)
C11 C 0.3260(2) 0.72899(16) 0.30506(8)
C12 C 0.4266(2) 0.59166(16) 0.26613(7)
C13 C 0.3639(2) 0.54239(16) 0.21059(7)
C14 C 0.1794(2) 0.63566(16) 0.19010(7)
C15 C 0.4622(2) 0.40261(17) 0.16887(8)
C16 C 0.3125(3) 0.31273(18) 0.16090(9)
H7 H 0.3736 0.2257 0.1350
H8 H 0.2058 0.3693 0.1377
H9 H 0.2651 0.2872 0.2050
C17 C 0.5454(3) 0.44238(19) 0.09898(8)
H10 H 0.6061 0.3550 0.0733
H11 H 0.6401 0.4964 0.1052
H12 H 0.4419 0.5005 0.0749
C18 C 0.6317(3) 0.3010(2) 0.20239(10)
H13 H 0.6854 0.2166 0.1739
H14 H 0.5851 0.2714 0.2458
H15 H 0.7306 0.3513 0.2084
C19 C 0.0190(3) 0.94198(18) 0.33359(8)
C20 C -0.2016(4) 0.9857(3) 0.32875(15)
H16 H -0.2563 0.9077 0.3449
H17 H -0.2289 1.0052 0.2822
H18 H -0.2581 1.0714 0.3561
C21 C 0.1060(6) 1.0660(2) 0.30767(11)
H19 H 0.0893 1.0793 0.2600
H20 H 0.2424 1.0425 0.3146
H21 H 0.0410 1.1542 0.3321
C22 C 0.0477(3) 0.92334(19) 0.40961(8)
H22 H -0.0068 0.8462 0.4268
H23 H -0.0164 1.0123 0.4336
H24 H 0.1844 0.8999 0.4160
C23 C 0.6113(2) 0.46206(16) 0.35090(7)
C24 C 0.7697(2) 0.45535(16) 0.38928(8)
C25 C 0.7787(2) 0.39364(17) 0.45320(8)
H25 H 0.8810 0.3966 0.4792
C26 C 0.6357(2) 0.32788(17) 0.47813(8)
H26 H 0.6405 0.2853 0.5208
C27 C 0.4848(2) 0.32693(16) 0.43799(8)
C28 C 0.4670(2) 0.39648(17) 0.37588(8)
H27 H 0.3598 0.3991 0.3514
N1 N 0.12638(19) 0.61574(14) 0.13016(6)
N2 N 0.93583(19) 0.50675(14) 0.36157(7)
O1 O -0.74905(17) 0.96877(13) 0.11291(6)
O2 O -0.68059(19) 0.89246(15) 0.00436(6)
O3 O -0.12870(17) 0.80682(13) 0.22230(6)
O4 O 0.41698(18) 0.76955(14) 0.34795(6)
O5 O 0.60777(15) 0.52748(12) 0.28868(5)
O6 O 0.99150(17) 0.47966(14) 0.30148(6)
O7 O 1.01834(18) 0.56791(13) 0.40025(7)
Br1 Br 0.30116(3) 0.22282(2) 0.468330(10)
loop_
_geom_bond_atom_site_label_1
_geom_bond_atom_site_label_2
_geom_bond_site_symmetry_1
_geom_bond_site_symmetry_2
C1 H1 1_555 1_555
H2 C1 1_555 1_555
H3 C1 1_555 1_555
C2 C3 1_555 1_555
C3 C4 1_555 1_555
C4 H4 1_555 1_555
C5 C4 1_555 1_555
C6 C5 1_555 1_555
C7 C6 1_555 1_555
H5 C7 1_555 1_555
C8 C3 1_555 1_555
H6 C8 1_555 1_555
C9 C10 1_555 1_555
C10 C11 1_555 1_555
C11 C12 1_555 1_555
C12 C13 1_555 1_555
C13 C14 1_555 1_555
C14 C9 1_555 1_555
C15 C13 1_555 1_555
C16 C15 1_555 1_555
H7 C16 1_555 1_555
H8 C16 1_555 1_555
H9 C16 1_555 1_555
C17 C15 1_555 1_555
H10 C17 1_555 1_555
H11 C17 1_555 1_555
H12 C17 1_555 1_555
C18 C15 1_555 1_555
H13 C18 1_555 1_555
H14 C18 1_555 1_555
H15 C18 1_555 1_555
C19 C10 1_555 1_555
C20 C19 1_555 1_555
H16 C20 1_555 1_555
H17 C20 1_555 1_555
H18 C20 1_555 1_555
C21 C19 1_555 1_555
H19 C21 1_555 1_555
H20 C21 1_555 1_555
H21 C21 1_555 1_555
C22 C19 1_555 1_555
H22 C22 1_555 1_555
H23 C22 1_555 1_555
H24 C22 1_555 1_555
C23 C24 1_555 1_555
C24 C25 1_555 1_555
C25 H25 1_555 1_555
C26 C25 1_555 1_555
H26 C26 1_555 1_555
C27 C26 1_555 1_555
C28 C23 1_555 1_555
H27 C28 1_555 1_555
N1 C6 1_555 1_555
N2 C24 1_555 1_555
O1 C1 1_555 1_555
O2 C2 1_555 1_555
O3 C5 1_555 1_555
O4 C11 1_555 1_555
O5 C12 1_555 1_555
O6 N2 1_555 1_555
O7 N2 1_555 1_555
Br1 C27 1_555 1_555
C2 O1 1_555 1_555
C7 C8 1_555 1_555
C9 O3 1_555 1_555
C14 N1 1_555 1_555
C23 O5 1_555 1_555
C27 C28 1_555 1_555

#END
