
#######################################################################
#
#                 Cambridge Crystallographic Data Centre
#                                CCDC 
#
#######################################################################
#
# If this CIF has been generated from an entry in the Cambridge 
# Structural Database, then it will include bibliographic, chemical, 
# crystal, experimental, refinement or atomic coordinate data resulting 
# from the CCDC's data processing and validation procedures.
#
#######################################################################

data_FUVYOM
_chemical_formula_moiety         'C25 H28 O6'
_chemical_name_systematic        
'Dimethyl 4-isopropyl-8-(4-methoxyphenyl)-5,7-dihydro-1H-indeno[5,6-c]furan-6,6(3H)-dicarboxylate'
_symmetry_cell_setting           monoclinic
_symmetry_space_group_name_H-M   'C 2/c'
_symmetry_Int_Tables_number      15
_space_group_name_Hall           '-C 2yn'
loop_
_symmetry_equiv_pos_site_id
_symmetry_equiv_pos_as_xyz
1 x,y,z
2 -x,y,1/2-z
3 1/2+x,1/2+y,z
4 1/2-x,1/2+y,1/2-z
5 -x,-y,-z
6 x,-y,1/2+z
7 1/2-x,1/2-y,-z
8 1/2+x,1/2-y,1/2+z
_cell_length_a                   24.463(3)
_cell_length_b                   13.1036(7)
_cell_length_c                   15.3564(18)
_cell_angle_alpha                90
_cell_angle_beta                 116.330(14)
_cell_angle_gamma                90
_cell_volume                     4411.85
_exptl_crystal_colour            colorless
_exptl_crystal_description       block
_cell_formula_units_Z            8
loop_
_atom_site_label
_atom_site_type_symbol
_atom_site_fract_x
_atom_site_fract_y
_atom_site_fract_z
O1 O 0.26790(9) 0.65341(16) 0.17371(13)
O2 O 0.46413(7) 0.32303(12) 0.63042(13)
O3 O 0.14091(8) 0.43561(12) 0.43816(13)
O4 O 0.06389(7) 0.50905(13) 0.45369(14)
O5 O 0.11192(8) 0.70851(12) 0.59091(12)
O6 O 0.16668(8) 0.57131(12) 0.66231(11)
C1 C 0.21315(12) 0.6995(2) 0.16385(18)
H1 H 0.1782 0.6695 0.1100
H2 H 0.2136 0.7722 0.1524
C2 C 0.21027(10) 0.67989(16) 0.25812(15)
C3 C 0.26087(10) 0.62285(15) 0.31794(15)
C4 C 0.29761(12) 0.6009(2) 0.26329(17)
H3 H 0.3391 0.6252 0.2994
H4 H 0.2986 0.5281 0.2524
C5 C 0.26948(9) 0.58819(14) 0.40877(14)
C6 C 0.22419(9) 0.61603(14) 0.43650(14)
C7 C 0.17286(9) 0.67218(14) 0.37544(14)
C8 C 0.16447(10) 0.70653(15) 0.28423(15)
C9 C 0.13173(9) 0.68792(15) 0.42420(15)
H5 H 0.0893 0.6776 0.3787
H6 H 0.1366 0.7559 0.4516
C10 C 0.15363(9) 0.60606(14) 0.50463(14)
C11 C 0.22191(9) 0.59403(16) 0.53167(14)
H7 H 0.2464 0.6425 0.5815
H8 H 0.2360 0.5254 0.5543
C12 C 0.10861(11) 0.76447(19) 0.21394(18)
H9 H 0.1198 0.7882 0.1635
C13 C 0.09488(17) 0.8605(2) 0.2530(3)
H10 H 0.0800 0.8438 0.2995
H11 H 0.0644 0.8988 0.2006
H12 H 0.1314 0.9006 0.2838
C14 C 0.05564(14) 0.6951(3) 0.1610(3)
H13 H 0.0683 0.6388 0.1342
H14 H 0.0237 0.7320 0.1095
H15 H 0.0409 0.6698 0.2053
C15 C 0.14119(9) 0.63655(15) 0.58933(15)
C16 C 0.15728(13) 0.5906(2) 0.74753(17)
H16 H 0.1144 0.5910 0.7296
H17 H 0.1745 0.6556 0.7747
H18 H 0.1768 0.5380 0.7948
C17 C 0.12055(10) 0.50632(16) 0.46213(15)
C18 C 0.02614(14) 0.4211(2) 0.4098(3)
H19 H 0.0146 0.4205 0.3414
H20 H -0.0098 0.4241 0.4200
H21 H 0.0485 0.3600 0.4390
C19 C 0.32173(9) 0.52057(15) 0.46876(14)
C20 C 0.31253(10) 0.42744(15) 0.50443(16)
H22 H 0.2732 0.4081 0.4920
C21 C 0.36042(10) 0.36400(16) 0.55748(17)
H23 H 0.3532 0.3023 0.5805
C22 C 0.41960(10) 0.39115(16) 0.57715(16)
C23 C 0.42978(10) 0.48317(16) 0.54247(17)
H24 H 0.4692 0.5025 0.5553
C24 C 0.38116(9) 0.54602(16) 0.48887(16)
H25 H 0.3885 0.6074 0.4655
C25 C 0.52527(12) 0.3475(2) 0.6522(2)
H26 H 0.5289 0.3561 0.5929
H27 H 0.5516 0.2932 0.6896
H28 H 0.5367 0.4096 0.6891
loop_
_geom_bond_atom_site_label_1
_geom_bond_atom_site_label_2
_geom_bond_site_symmetry_1
_geom_bond_site_symmetry_2
O1 C1 1_555 1_555
O2 C22 1_555 1_555
O3 C17 1_555 1_555
O4 C17 1_555 1_555
O5 C15 1_555 1_555
O6 C15 1_555 1_555
C1 H1 1_555 1_555
H2 C1 1_555 1_555
C2 C1 1_555 1_555
C3 C2 1_555 1_555
C4 O1 1_555 1_555
H3 C4 1_555 1_555
H4 C4 1_555 1_555
C5 C3 1_555 1_555
C6 C5 1_555 1_555
C7 C6 1_555 1_555
C8 C2 1_555 1_555
C9 C7 1_555 1_555
H5 C9 1_555 1_555
H6 C9 1_555 1_555
C10 C9 1_555 1_555
C11 C6 1_555 1_555
H7 C11 1_555 1_555
H8 C11 1_555 1_555
C12 C8 1_555 1_555
H9 C12 1_555 1_555
C13 C12 1_555 1_555
H10 C13 1_555 1_555
H11 C13 1_555 1_555
H12 C13 1_555 1_555
C14 C12 1_555 1_555
H13 C14 1_555 1_555
H14 C14 1_555 1_555
H15 C14 1_555 1_555
C15 C10 1_555 1_555
C16 O6 1_555 1_555
H16 C16 1_555 1_555
H17 C16 1_555 1_555
H18 C16 1_555 1_555
C17 C10 1_555 1_555
C18 O4 1_555 1_555
H19 C18 1_555 1_555
H20 C18 1_555 1_555
H21 C18 1_555 1_555
C19 C5 1_555 1_555
C20 C19 1_555 1_555
H22 C20 1_555 1_555
C21 C20 1_555 1_555
H23 C21 1_555 1_555
C22 C21 1_555 1_555
C23 C22 1_555 1_555
H24 C23 1_555 1_555
C24 C19 1_555 1_555
H25 C24 1_555 1_555
C25 O2 1_555 1_555
H26 C25 1_555 1_555
H27 C25 1_555 1_555
H28 C25 1_555 1_555
C3 C4 1_555 1_555
C7 C8 1_555 1_555
C10 C11 1_555 1_555
C23 C24 1_555 1_555

#END
