
#######################################################################
#
#                 Cambridge Crystallographic Data Centre
#                                CCDC 
#
#######################################################################
#
# If this CIF has been generated from an entry in the Cambridge 
# Structural Database, then it will include bibliographic, chemical, 
# crystal, experimental, refinement or atomic coordinate data resulting 
# from the CCDC's data processing and validation procedures.
#
#######################################################################

data_FUVZUS
_chemical_name_common            BMS-377806
_chemical_formula_moiety         'C22 H22 N4 O4,C2 H1 F3 O2'
_chemical_name_systematic        
'(R)-1-(4-benzoyl-2-methylpiperazin-1-yl)-2-(4-methoxy-1H-pyrrolo(2,3-b)pyridin-3-yl)ethane-1,2-dione trifluoroacetic acid solvate'
_symmetry_cell_setting           monoclinic
_symmetry_space_group_name_H-M   'P 21'
_symmetry_Int_Tables_number      4
_space_group_name_Hall           'P 2yb'
loop_
_symmetry_equiv_pos_site_id
_symmetry_equiv_pos_as_xyz
1 x,y,z
2 -x,1/2+y,-z
_cell_length_a                   15.152
_cell_length_b                   8.579
_cell_length_c                   20.137
_cell_angle_alpha                90
_cell_angle_beta                 110.39
_cell_angle_gamma                90
_cell_volume                     2453.58
_cell_formula_units_Z            4
loop_
_atom_site_label
_atom_site_type_symbol
_atom_site_fract_x
_atom_site_fract_y
_atom_site_fract_z
C1 C 1.03612 -0.126699 0.07703
H1 H 1.03981 -0.230668 0.065057
N1 N 1.11131 -0.046623 0.120419
H2 H 1.16754 -0.081358 0.14108
C2 C 0.952313 -0.040679 0.051548
C3 C 0.98748 0.11073 0.085877
C4 C 1.08241 0.086486 0.124127
N2 N 1.13696 0.20724 0.163702
C5 C 1.09663 0.352238 0.164973
H3 H 1.13312 0.433013 0.191462
C6 C 1.00171 0.376482 0.126723
H4 H 0.974777 0.473459 0.127571
C7 C 0.947151 0.255728 0.087149
O1 O 0.852278 0.268433 0.047733
C8 C 0.813307 0.420658 0.047521
H5 H 0.74766 0.419725 0.018913
H6 H 0.845791 0.494322 0.028449
H7 H 0.820288 0.449914 0.095096
C9 C 0.868815 -0.092197 0.006622
O2 O 0.850757 -0.235097 -0.007576
C10 C 0.807669 0.022729 -0.049323
O3 O 0.834197 0.093246 -0.086672
N3 N 0.709848 0.014570 -0.054197
C11 C 0.660003 -0.085554 -0.015893
H8 H 0.708992 -0.122852 0.027337
C12 C 0.624061 -0.229153 -0.062302
H9 H 0.589515 -0.294426 -0.041270
H10 H 0.676446 -0.286266 -0.066329
H11 H 0.583507 -0.196983 -0.108552
C13 C 0.642214 0.093946 -0.123015
H12 H 0.674676 0.17134 -0.141133
H13 H 0.612543 0.018183 -0.159729
C14 C 0.598766 0.001632 0.005934
H14 H 0.630803 0.088817 0.035071
H15 H 0.569363 -0.061426 0.032370
C15 C 0.57052 0.169708 -0.093983
H16 H 0.602325 0.24722 -0.058647
H17 H 0.522294 0.222509 -0.132286
N4 N 0.527362 0.057113 -0.063044
C16 C 0.43465 0.005595 -0.090381
O4 O 0.409095 -0.076579 -0.052925
C17 C 0.298258 0.159568 -0.147915
H18 H 0.294859 0.184278 -0.103943
C18 C 0.231483 0.218197 -0.209316
H19 H 0.183384 0.28207 -0.206296
C19 C 0.236548 0.181248 -0.275062
H20 H 0.191798 0.220411 -0.31612
C20 C 0.308338 0.085787 -0.279512
H21 H 0.311712 0.061076 -0.323537
C21 C 0.375154 0.027158 -0.218163
H22 H 0.423212 -0.036716 -0.22113
C22 C 0.370114 0.064107 -0.152365
C23 C 0.463697 0.947617 0.422764
H23 H 0.463111 1.05217 0.434896
N5 N 0.390811 0.866026 0.378952
H24 H 0.334525 0.900644 0.358873
C24 C 0.535871 0.852039 0.445227
C25 C 0.515134 0.699931 0.412699
C26 C 0.420862 0.719746 0.371588
N6 N 0.369738 0.596078 0.332013
C27 C 0.412885 0.452478 0.333549
H25 H 0.378709 0.369722 0.30706
C28 C 0.507223 0.432663 0.37466
H26 H 0.536134 0.33662 0.375667
C29 C 0.558347 0.556448 0.414235
O5 O 0.646783 0.550503 0.4483
C30 C 0.702973 0.400144 0.465889
H27 H 0.767739 0.423572 0.492166
H28 H 0.698473 0.347226 0.422817
H29 H 0.678174 0.334521 0.493861
C31 C 0.630764 0.905073 0.501649
O6 O 0.642893 1.05147 0.509172
C32 C 0.703236 0.797723 0.547845
O7 O 0.666628 0.713685 0.582811
N7 N 0.788211 0.791662 0.555051
C33 C 0.822914 0.895165 0.513834
H30 H 0.77551 0.964867 0.482153
C34 C 0.87939 0.800637 0.47802
H31 H 0.837482 0.735248 0.442101
H32 H 0.924628 0.737113 0.512721
H33 H 0.911462 0.870339 0.456776
C35 C 0.855782 0.694919 0.603208
H34 H 0.885618 0.629064 0.57799
H35 H 0.825775 0.628597 0.628054
C36 C 0.911907 0.976873 0.562785
H36 H 0.944877 1.02081 0.533647
H37 H 0.89259 1.06301 0.585778
C37 C 0.930155 0.799938 0.656503
H38 H 0.900255 0.871504 0.679443
H39 H 0.975437 0.737229 0.692581
N8 N 0.975986 0.884559 0.615657
C38 C 1.05842 0.869639 0.602837
O8 O 1.08822 0.938875 0.563156
C39 C 1.18872 0.666712 0.643789
H40 H 1.17774 0.650976 0.595844
C40 C 1.26213 0.589084 0.694436
H41 H 1.30033 0.52148 0.680449
C41 C 1.27846 0.612512 0.766062
H42 H 1.32762 0.560527 0.799968
C42 C 1.22136 0.713568 0.786988
H43 H 1.23232 0.729187 0.83488
C43 C 1.14793 0.791196 0.736288
H44 H 1.10975 0.858799 0.750327
C44 C 1.13162 0.767768 0.664715
C45 C 0.15107 0.765087 0.292915
O9 O 0.199114 0.887706 0.311299
O10 O 0.180757 0.634891 0.281631
C46 C 0.055147 0.778025 0.278029
F1 F 0.009942 0.911484 0.251381
F2 F -0.002186 0.71485 0.217634
F3 F 0.017765 0.755762 0.326715
C47 C 0.346919 0.030189 0.218163
O11 O 0.303581 -0.070867 0.179013
O12 O 0.318736 0.162598 0.228706
C48 C 0.45647 0.022612 0.241103
F4 F 0.500711 0.151059 0.269658
F5 F 0.480275 0.025293 0.182191
F6 F 0.486566 -0.120055 0.262771
loop_
_geom_bond_atom_site_label_1
_geom_bond_atom_site_label_2
_geom_bond_site_symmetry_1
_geom_bond_site_symmetry_2
C1 H1 1_555 1_555
N1 C1 1_555 1_555
H2 N1 1_555 1_555
C2 C1 1_555 1_555
C3 C2 1_555 1_555
C4 N1 1_555 1_555
N2 C4 1_555 1_555
C5 N2 1_555 1_555
H3 C5 1_555 1_555
C6 C5 1_555 1_555
H4 C6 1_555 1_555
C7 C3 1_555 1_555
O1 C7 1_555 1_555
C8 O1 1_555 1_555
H5 C8 1_555 1_555
H6 C8 1_555 1_555
H7 C8 1_555 1_555
C9 C2 1_555 1_555
O2 C9 1_555 1_555
C10 C9 1_555 1_555
O3 C10 1_555 1_555
N3 C10 1_555 1_555
C11 N3 1_555 1_555
H8 C11 1_555 1_555
C12 C11 1_555 1_555
H9 C12 1_555 1_555
H10 C12 1_555 1_555
H11 C12 1_555 1_555
C13 N3 1_555 1_555
H12 C13 1_555 1_555
H13 C13 1_555 1_555
C14 C11 1_555 1_555
H14 C14 1_555 1_555
H15 C14 1_555 1_555
C15 C13 1_555 1_555
H16 C15 1_555 1_555
H17 C15 1_555 1_555
N4 C14 1_555 1_555
C16 N4 1_555 1_555
O4 C16 1_555 1_555
C17 H18 1_555 1_555
C18 C17 1_555 1_555
H19 C18 1_555 1_555
C19 C18 1_555 1_555
H20 C19 1_555 1_555
C20 C19 1_555 1_555
H21 C20 1_555 1_555
C21 C20 1_555 1_555
H22 C21 1_555 1_555
C22 C16 1_555 1_555
C23 H23 1_555 1_555
N5 C23 1_555 1_555
H24 N5 1_555 1_555
C24 C23 1_555 1_555
C25 C24 1_555 1_555
C26 N5 1_555 1_555
N6 C26 1_555 1_555
C27 N6 1_555 1_555
H25 C27 1_555 1_555
C28 C27 1_555 1_555
H26 C28 1_555 1_555
C29 C25 1_555 1_555
O5 C29 1_555 1_555
C30 O5 1_555 1_555
H27 C30 1_555 1_555
H28 C30 1_555 1_555
H29 C30 1_555 1_555
C31 C24 1_555 1_555
O6 C31 1_555 1_555
C32 C31 1_555 1_555
O7 C32 1_555 1_555
N7 C32 1_555 1_555
C33 N7 1_555 1_555
H30 C33 1_555 1_555
C34 C33 1_555 1_555
H31 C34 1_555 1_555
H32 C34 1_555 1_555
H33 C34 1_555 1_555
C35 N7 1_555 1_555
H34 C35 1_555 1_555
H35 C35 1_555 1_555
C36 C33 1_555 1_555
H36 C36 1_555 1_555
H37 C36 1_555 1_555
C37 C35 1_555 1_555
H38 C37 1_555 1_555
H39 C37 1_555 1_555
N8 C36 1_555 1_555
C38 N8 1_555 1_555
O8 C38 1_555 1_555
C39 H40 1_555 1_555
C40 C39 1_555 1_555
H41 C40 1_555 1_555
C41 C40 1_555 1_555
H42 C41 1_555 1_555
C42 C41 1_555 1_555
H43 C42 1_555 1_555
C43 C42 1_555 1_555
H44 C43 1_555 1_555
C44 C38 1_555 1_555
C45 O9 1_555 1_555
O10 C45 1_555 1_555
C46 C45 1_555 1_555
F1 C46 1_555 1_555
F2 C46 1_555 1_555
F3 C46 1_555 1_555
C47 O11 1_555 1_555
O12 C47 1_555 1_555
C48 C47 1_555 1_555
F4 C48 1_555 1_555
F5 C48 1_555 1_555
F6 C48 1_555 1_555
C3 C4 1_555 1_555
C6 C7 1_555 1_555
C15 N4 1_555 1_555
C17 C22 1_555 1_555
C21 C22 1_555 1_555
C25 C26 1_555 1_555
C28 C29 1_555 1_555
C37 N8 1_555 1_555
C39 C44 1_555 1_555
C43 C44 1_555 1_555

#END
