
#######################################################################
#
#                 Cambridge Crystallographic Data Centre
#                                CCDC 
#
#######################################################################
#
# If this CIF has been generated from an entry in the Cambridge 
# Structural Database, then it will include bibliographic, chemical, 
# crystal, experimental, refinement or atomic coordinate data resulting 
# from the CCDC's data processing and validation procedures.
#
#######################################################################

data_FUWBIK
_chemical_name_common            
'(1)-(octamethoxy-butoxy-(3-(2-hydroxybenzylideneamino)propylaminocarbonylmethoxy)pillar(5)arene) rotaxane unknown solvate'
_chemical_formula_moiety         'C59 H68 N2 O12'
_chemical_name_systematic        
'(1)-(2-((34-butoxy-9,14,19,24,26,28,30,32-octamethoxyhexacyclo[21.2.2.2^3,6^.2^8,11^.2^13,16^.2^18,21^]pentatriaconta-1(25),3,5,8,10,13,15,18,20,23,26,28,30,32,34-pentadecaen-4-yl)oxy)-N-(3-((2-hydroxybenzylidene)amino)propyl)acetamide) rotaxane unknown solvate'
_symmetry_cell_setting           monoclinic
_symmetry_space_group_name_H-M   'P 21/c'
_symmetry_Int_Tables_number      14
_space_group_name_Hall           '-P 2ybc'
loop_
_symmetry_equiv_pos_site_id
_symmetry_equiv_pos_as_xyz
1 x,y,z
2 -x,1/2+y,1/2-z
3 -x,-y,-z
4 x,1/2-y,1/2+z
_cell_length_a                   12.1258(15)
_cell_length_b                   12.5446(15)
_cell_length_c                   38.100(4)
_cell_angle_alpha                90
_cell_angle_beta                 105.584(3)
_cell_angle_gamma                90
_cell_volume                     5582.46
_exptl_crystal_colour            yellow
_exptl_crystal_description       block
_cell_formula_units_Z            4
loop_
_atom_site_label
_atom_site_type_symbol
_atom_site_fract_x
_atom_site_fract_y
_atom_site_fract_z
O1 O 0.43852(16) -0.65411(17) -0.19376(6)
O2 O 0.1377(2) -0.33068(17) -0.18817(8)
O3 O 0.46089(17) -0.47864(18) -0.07935(6)
O4 O 0.04112(18) -0.35415(17) -0.06409(7)
O5 O 0.32042(17) -0.66946(16) 0.01369(6)
O6 O -0.11360(16) -0.79233(16) -0.06324(6)
O7 O 0.25114(17) -1.02656(17) -0.05021(6)
O8 O -0.10262(15) -0.99728(16) -0.17566(5)
O9 O 0.31092(17) -1.03154(16) -0.20840(6)
O10 O 0.02342(14) -0.68324(14) -0.23190(5)
O11 O -0.1419(2) -0.6905(2) -0.16742(8)
O12 O 0.5404(3) -0.8254(2) -0.04857(8)
H1 H 0.4756 -0.8035 -0.0580
N1 N 0.0408(2) -0.63943(19) -0.16189(7)
H2 H 0.0870 -0.6185 -0.1741
N2 N 0.3668(2) -0.7824(2) -0.10325(8)
C1 C 0.2314(2) -0.6569(2) -0.24674(8)
H3 H 0.1689 -0.6319 -0.2667
H4 H 0.2971 -0.6691 -0.2562
C2 C 0.2611(2) -0.5713(2) -0.21744(8)
C3 C 0.3659(2) -0.5726(2) -0.19086(8)
C4 C 0.3912(2) -0.4964(2) -0.16380(8)
H5 H 0.4619 -0.4983 -0.1465
C5 C 0.3138(3) -0.4173(2) -0.16183(9)
C6 C 0.2105(3) -0.4143(2) -0.18878(10)
C7 C 0.1862(2) -0.4901(2) -0.21629(9)
H6 H 0.1174 -0.4858 -0.2344
C8 C 0.5447(3) -0.6607(3) -0.16803(11)
H7 H 0.5890 -0.5984 -0.1697
H8 H 0.5845 -0.7230 -0.1727
H9 H 0.5335 -0.6651 -0.1441
C9 C 0.0241(3) -0.3571(3) -0.18975(10)
H10 H -0.0107 -0.3914 -0.2125
H11 H -0.0176 -0.2934 -0.1877
H12 H 0.0230 -0.4045 -0.1701
C10 C 0.3389(3) -0.3379(2) -0.13063(9)
H13 H 0.4209 -0.3265 -0.1222
H14 H 0.3032 -0.2702 -0.1393
C11 C 0.2951(2) -0.3761(2) -0.09912(8)
C12 C 0.3570(2) -0.4500(2) -0.07416(9)
C13 C 0.3152(2) -0.4901(2) -0.04684(8)
H15 H 0.3584 -0.5397 -0.0308
C14 C 0.2094(2) -0.4585(2) -0.04253(8)
C15 C 0.1495(2) -0.3837(2) -0.06643(9)
C16 C 0.1917(3) -0.3432(2) -0.09450(9)
H16 H 0.1488 -0.2930 -0.1104
C17 C 0.5271(3) -0.5532(3) -0.05568(10)
H17 H 0.5464 -0.5256 -0.0313
H18 H 0.5960 -0.5671 -0.0628
H19 H 0.4845 -0.6182 -0.0567
C18 C 0.0291(4) -0.2506(3) -0.05362(16)
H20 H 0.0888 -0.2344 -0.0320
H21 H -0.0440 -0.2424 -0.0487
H22 H 0.0341 -0.2029 -0.0728
C19 C 0.1644(3) -0.5051(2) -0.01268(8)
H23 H 0.0972 -0.4652 -0.0112
H24 H 0.2220 -0.4969 0.0104
C20 C 0.1328(2) -0.6227(2) -0.01845(7)
C21 C 0.2128(2) -0.7028(2) -0.00578(8)
C22 C 0.1830(2) -0.8087(2) -0.01307(7)
H25 H 0.2377 -0.8614 -0.0046
C23 C 0.0747(2) -0.8377(2) -0.03243(7)
C24 C -0.0058(2) -0.7582(2) -0.04448(8)
C25 C 0.0241(2) -0.6525(2) -0.03747(8)
H26 H -0.0309 -0.6001 -0.0459
C26 C 0.4092(3) -0.7439(3) 0.02297(12)
H27 H 0.3959 -0.7919 0.0410
H28 H 0.4806 -0.7076 0.0326
H29 H 0.4122 -0.7835 0.0017
C27 C -0.1988(3) -0.7166(3) -0.07731(12)
H30 H -0.2120 -0.6747 -0.0577
H31 H -0.2683 -0.7522 -0.0898
H32 H -0.1746 -0.6708 -0.0940
C28 C 0.0443(2) -0.9537(2) -0.04193(8)
H33 H 0.0923 -0.9991 -0.0234
H34 H -0.0347 -0.9660 -0.0420
C29 C 0.0601(2) -0.98398(18) -0.07871(7)
C30 C 0.1659(2) -1.01792(19) -0.08214(7)
C31 C 0.1800(2) -1.04044(19) -0.11630(7)
H35 H 0.2514 -1.0626 -0.1182
C32 C 0.0916(2) -1.03106(18) -0.14749(7)
C33 C -0.0151(2) -1.00114(19) -0.14375(7)
C34 C -0.0292(2) -0.97698(19) -0.10977(7)
H36 H -0.1008 -0.9555 -0.1079
C35 C 0.3488(3) -1.0871(3) -0.04996(10)
H37 H 0.3259 -1.1565 -0.0599
H38 H 0.3956 -1.0943 -0.0254
H39 H 0.3917 -1.0520 -0.0644
C36 C -0.2118(2) -0.9647(3) -0.17372(10)
H40 H -0.2393 -1.0131 -0.1585
H41 H -0.2635 -0.9647 -0.1977
H42 H -0.2072 -0.8942 -0.1637
C37 C 0.1115(2) -1.0515(2) -0.18461(7)
H43 H 0.1737 -1.1022 -0.1819
H44 H 0.0433 -1.0835 -0.2004
C38 C 0.1405(2) -0.9514(2) -0.20270(7)
C39 C 0.2408(2) -0.9430(2) -0.21344(7)
C40 C 0.2682(2) -0.8487(2) -0.22753(7)
H45 H 0.3370 -0.8441 -0.2339
C41 C 0.1974(2) -0.7605(2) -0.23259(7)
C42 C 0.0946(2) -0.7711(2) -0.22393(7)
C43 C 0.0678(2) -0.8640(2) -0.20856(7)
H46 H -0.0007 -0.8681 -0.2020
C44 C 0.3993(3) -1.0330(3) -0.22642(12)
H47 H 0.4531 -0.9756 -0.2174
H48 H 0.3670 -1.0228 -0.2524
C45 C 0.4599(3) -1.1386(3) -0.21945(14)
H49 H 0.5243 -1.1376 -0.2301
H50 H 0.4901 -1.1484 -0.1934
C46 C 0.3870(4) -1.2285(3) -0.23426(15)
H51 H 0.3441 -1.2115 -0.2590
H52 H 0.3323 -1.2383 -0.2201
C47 C 0.4477(5) -1.3290(3) -0.23469(17)
H53 H 0.4921 -1.3244 -0.2520
H54 H 0.3932 -1.3860 -0.2414
H55 H 0.4975 -1.3425 -0.2109
C48 C -0.0798(2) -0.6849(2) -0.22130(9)
H56 H -0.1184 -0.7522 -0.2288
H57 H -0.1293 -0.6284 -0.2340
C49 C -0.0625(3) -0.6712(2) -0.18082(10)
C50 C 0.0831(3) -0.6370(3) -0.12256(9)
H58 H 0.0194 -0.6463 -0.1120
H59 H 0.1171 -0.5679 -0.1151
C51 C 0.1711(3) -0.7230(3) -0.10823(9)
H60 H 0.1956 -0.7188 -0.0818
H61 H 0.1359 -0.7922 -0.1148
C52 C 0.2734(3) -0.7141(3) -0.12270(10)
H62 H 0.2519 -0.7332 -0.1483
H63 H 0.2994 -0.6406 -0.1207
C53 C 0.3993(3) -0.8572(3) -0.12019(9)
H64 H 0.3582 -0.8712 -0.1441
C54 C 0.4991(3) -0.9223(3) -0.10359(10)
C55 C 0.5662(3) -0.9035(3) -0.06899(12)
C56 C 0.6645(4) -0.9641(4) -0.05515(14)
H65 H 0.7119 -0.9491 -0.0321
C57 C 0.6918(4) -1.0448(5) -0.07493(18)
H66 H 0.7578 -1.0847 -0.0655
C58 C 0.6221(5) -1.0678(5) -0.10894(16)
H67 H 0.6393 -1.1247 -0.1222
C59 C 0.5268(4) -1.0064(4) -0.12331(13)
H68 H 0.4803 -1.0213 -0.1465
loop_
_geom_bond_atom_site_label_1
_geom_bond_atom_site_label_2
_geom_bond_site_symmetry_1
_geom_bond_site_symmetry_2
O1 C3 1_555 1_555
O2 C6 1_555 1_555
O3 C12 1_555 1_555
O4 C15 1_555 1_555
O5 C21 1_555 1_555
O6 C24 1_555 1_555
O7 C30 1_555 1_555
O8 C33 1_555 1_555
O9 C39 1_555 1_555
O10 C42 1_555 1_555
O11 C49 1_555 1_555
O12 H1 1_555 1_555
N1 H2 1_555 1_555
N2 C52 1_555 1_555
C1 H3 1_555 1_555
H4 C1 1_555 1_555
C2 C1 1_555 1_555
C3 C2 1_555 1_555
C4 C3 1_555 1_555
H5 C4 1_555 1_555
C5 C4 1_555 1_555
C6 C5 1_555 1_555
C7 C2 1_555 1_555
H6 C7 1_555 1_555
C8 O1 1_555 1_555
H7 C8 1_555 1_555
H8 C8 1_555 1_555
H9 C8 1_555 1_555
C9 O2 1_555 1_555
H10 C9 1_555 1_555
H11 C9 1_555 1_555
H12 C9 1_555 1_555
C10 C5 1_555 1_555
H13 C10 1_555 1_555
H14 C10 1_555 1_555
C11 C10 1_555 1_555
C12 C11 1_555 1_555
C13 C12 1_555 1_555
H15 C13 1_555 1_555
C14 C13 1_555 1_555
C15 C14 1_555 1_555
C16 C11 1_555 1_555
H16 C16 1_555 1_555
C17 O3 1_555 1_555
H17 C17 1_555 1_555
H18 C17 1_555 1_555
H19 C17 1_555 1_555
C18 O4 1_555 1_555
H20 C18 1_555 1_555
H21 C18 1_555 1_555
H22 C18 1_555 1_555
C19 C14 1_555 1_555
H23 C19 1_555 1_555
H24 C19 1_555 1_555
C20 C19 1_555 1_555
C21 C20 1_555 1_555
C22 C21 1_555 1_555
H25 C22 1_555 1_555
C23 C22 1_555 1_555
C24 C23 1_555 1_555
C25 C20 1_555 1_555
H26 C25 1_555 1_555
C26 O5 1_555 1_555
H27 C26 1_555 1_555
H28 C26 1_555 1_555
H29 C26 1_555 1_555
C27 O6 1_555 1_555
H30 C27 1_555 1_555
H31 C27 1_555 1_555
H32 C27 1_555 1_555
C28 C23 1_555 1_555
H33 C28 1_555 1_555
H34 C28 1_555 1_555
C29 C28 1_555 1_555
C30 C29 1_555 1_555
C31 C30 1_555 1_555
H35 C31 1_555 1_555
C32 C31 1_555 1_555
C33 C32 1_555 1_555
C34 C29 1_555 1_555
H36 C34 1_555 1_555
C35 O7 1_555 1_555
H37 C35 1_555 1_555
H38 C35 1_555 1_555
H39 C35 1_555 1_555
C36 O8 1_555 1_555
H40 C36 1_555 1_555
H41 C36 1_555 1_555
H42 C36 1_555 1_555
C37 C32 1_555 1_555
H43 C37 1_555 1_555
H44 C37 1_555 1_555
C38 C37 1_555 1_555
C39 C38 1_555 1_555
C40 C39 1_555 1_555
H45 C40 1_555 1_555
C41 C1 1_555 1_555
C42 C41 1_555 1_555
C43 C38 1_555 1_555
H46 C43 1_555 1_555
C44 O9 1_555 1_555
H47 C44 1_555 1_555
H48 C44 1_555 1_555
C45 C44 1_555 1_555
H49 C45 1_555 1_555
H50 C45 1_555 1_555
C46 C45 1_555 1_555
H51 C46 1_555 1_555
H52 C46 1_555 1_555
C47 C46 1_555 1_555
H53 C47 1_555 1_555
H54 C47 1_555 1_555
H55 C47 1_555 1_555
C48 O10 1_555 1_555
H56 C48 1_555 1_555
H57 C48 1_555 1_555
C49 N1 1_555 1_555
C50 N1 1_555 1_555
H58 C50 1_555 1_555
H59 C50 1_555 1_555
C51 C50 1_555 1_555
H60 C51 1_555 1_555
H61 C51 1_555 1_555
C52 C51 1_555 1_555
H62 C52 1_555 1_555
H63 C52 1_555 1_555
C53 N2 1_555 1_555
H64 C53 1_555 1_555
C54 C53 1_555 1_555
C55 O12 1_555 1_555
C56 C55 1_555 1_555
H65 C56 1_555 1_555
C57 C56 1_555 1_555
H66 C57 1_555 1_555
C58 C57 1_555 1_555
H67 C58 1_555 1_555
C59 C54 1_555 1_555
H68 C59 1_555 1_555
C6 C7 1_555 1_555
C15 C16 1_555 1_555
C24 C25 1_555 1_555
C33 C34 1_555 1_555
C40 C41 1_555 1_555
C42 C43 1_555 1_555
C48 C49 1_555 1_555
C54 C55 1_555 1_555
C58 C59 1_555 1_555

#END
