
#######################################################################
#
#                 Cambridge Crystallographic Data Centre
#                                CCDC 
#
#######################################################################
#
# If this CIF has been generated from an entry in the Cambridge 
# Structural Database, then it will include bibliographic, chemical, 
# crystal, experimental, refinement or atomic coordinate data resulting 
# from the CCDC's data processing and validation procedures.
#
#######################################################################

data_FUWBOQ
_chemical_name_common            
'(1)-(octamethoxy-butoxy-(3-(5-chloro-2-hydroxybenzylideneamino)propylaminocarbonylmethoxy)pillar(5)arene) rotaxane unknown solvate'
_chemical_formula_moiety         'C59 H67 Cl1 N2 O12'
_chemical_name_systematic        
'(1)-(2-((34-butoxy-9,14,19,24,26,28,30,32-octamethoxyhexacyclo[21.2.2.2^3,6^.2^8,11^.2^13,16^.2^18,21^]pentatriaconta-1(25),3,5,8,10,13,15,18,20,23,26,28,30,32,34-pentadecaen-4-yl)oxy)-N-(3-((5-chloro-2-hydroxybenzylidene)amino)propyl)acetamide) rotaxane unknown solvate'
_symmetry_cell_setting           triclinic
_symmetry_space_group_name_H-M   'P -1'
_symmetry_Int_Tables_number      2
_space_group_name_Hall           '-P 1'
loop_
_symmetry_equiv_pos_site_id
_symmetry_equiv_pos_as_xyz
1 x,y,z
2 -x,-y,-z
_cell_length_a                   11.9461(17)
_cell_length_b                   12.2976(18)
_cell_length_c                   21.633(3)
_cell_angle_alpha                85.709(2)
_cell_angle_beta                 83.188(2)
_cell_angle_gamma                64.069(2)
_cell_volume                     2836.99
_exptl_crystal_colour            colorless
_exptl_crystal_description       block
_cell_formula_units_Z            2
loop_
_atom_site_label
_atom_site_type_symbol
_atom_site_fract_x
_atom_site_fract_y
_atom_site_fract_z
C1 C 0.8331(3) 0.3308(2) 0.26343(12)
C2 C 0.7146(2) 0.3449(2) 0.28648(12)
H1 H 0.6700 0.3207 0.2626
C3 C 0.6604(2) 0.3942(2) 0.34422(11)
C4 C 0.7316(2) 0.4273(2) 0.37883(11)
C5 C 0.8526(3) 0.4082(2) 0.35720(12)
H2 H 0.8992 0.4279 0.3820
C6 C 0.9053(2) 0.3599(2) 0.29888(13)
C7 C 0.9172(5) 0.1747(4) 0.1909(2)
H3 H 0.8492 0.1528 0.2044
H4 H 0.9856 0.1272 0.2158
C8 C 0.9580(6) 0.1429(5) 0.1266(2)
H5 H 1.0207 0.0595 0.1269
H6 H 0.8870 0.1436 0.1087
C9 C 1.0063(9) 0.2054(6) 0.0852(3)
H7 H 1.0800 0.2046 0.1002
H8 H 0.9450 0.2889 0.0815
C10 C 1.0422(10) 0.1444(7) 0.0191(3)
H9 H 1.1315 0.1067 0.0103
H10 H 1.0058 0.2052 -0.0125
H11 H 1.0109 0.0846 0.0194
C11 C 0.7138(3) 0.6625(3) 0.42930(13)
C12 C 0.6266(3) 0.8051(3) 0.34212(15)
H12 H 0.7041 0.8136 0.3377
H13 H 0.5612 0.8782 0.3604
C13 C 0.5950(4) 0.7913(3) 0.27887(16)
H14 H 0.5167 0.7841 0.2834
H15 H 0.5829 0.8636 0.2538
C14 C 0.6914(3) 0.6862(3) 0.24622(16)
H16 H 0.6944 0.6128 0.2675
H17 H 0.7723 0.6865 0.2469
C15 C 0.6674(3) 0.5943(3) 0.15776(15)
H18 H 0.6740 0.5291 0.1843
C16 C 0.6599(3) 0.5856(3) 0.09216(15)
C17 C 0.6685(4) 0.4791(4) 0.0684(2)
H19 H 0.6734 0.4149 0.0953
C18 C 0.6697(4) 0.4695(4) 0.0054(2)
C19 C 0.6660(5) 0.5617(5) -0.0351(2)
H20 H 0.6705 0.5526 -0.0778
C20 C 0.6559(4) 0.6670(4) -0.01285(18)
H21 H 0.6511 0.7302 -0.0405
C21 C 0.6526(3) 0.6810(3) 0.05036(16)
C22 C 0.5271(2) 0.4171(2) 0.36771(12)
H22 H 0.5043 0.3632 0.3472
H23 H 0.5230 0.3985 0.4121
C23 C 0.4336(2) 0.5467(2) 0.35609(12)
C24 C 0.3911(2) 0.6317(2) 0.40292(11)
H24 H 0.4186 0.6075 0.4423
C25 C 0.3088(2) 0.7517(2) 0.39217(11)
C26 C 0.2636(2) 0.7897(2) 0.33367(11)
C27 C 0.3039(2) 0.7042(2) 0.28770(12)
H25 H 0.2738 0.7274 0.2488
C28 C 0.3879(2) 0.5851(2) 0.29829(12)
C29 C 0.3156(5) 0.8091(4) 0.49413(16)
H26 H 0.2878 0.7533 0.5161
H27 H 0.2868 0.8809 0.5179
H28 H 0.4053 0.7724 0.4881
C30 C 0.3791(3) 0.5274(3) 0.19616(14)
H29 H 0.2912 0.5488 0.2031
H30 H 0.4189 0.4591 0.1696
H31 H 0.3915 0.5946 0.1767
C31 C 0.1772(2) 0.9213(2) 0.32014(13)
H32 H 0.1192 0.9248 0.2914
H33 H 0.1288 0.9580 0.3585
C32 C 0.2469(2) 0.9927(2) 0.29273(11)
C33 C 0.2843(2) 1.0551(2) 0.33099(12)
H34 H 0.2628 1.0546 0.3737
C34 C 0.3527(2) 1.1178(2) 0.30680(12)
C35 C 0.3840(2) 1.1225(2) 0.24316(12)
C36 C 0.3466(2) 1.0609(2) 0.20469(12)
H35 H 0.3663 1.0634 0.1619
C37 C 0.2803(2) 0.9959(2) 0.22908(12)
C38 C 0.3458(6) 1.2004(7) 0.4032(2)
H36 H 0.2577 1.2227 0.4057
H37 H 0.3588 1.2660 0.4171
H38 H 0.3851 1.1301 0.4293
C39 C 0.3066(4) 0.8987(4) 0.13340(17)
H39 H 0.2865 0.9693 0.1067
H40 H 0.2818 0.8436 0.1162
H41 H 0.3950 0.8599 0.1367
C40 C 0.4630(3) 1.1856(2) 0.21562(14)
H42 H 0.4539 1.2480 0.2433
H43 H 0.4345 1.2240 0.1760
C41 C 0.5991(2) 1.0956(2) 0.20615(12)
C42 C 0.6733(2) 1.0604(2) 0.25592(12)
H44 H 0.6392 1.0957 0.2943
C43 C 0.7962(2) 0.9744(2) 0.24939(12)
C44 C 0.8494(2) 0.9188(2) 0.19258(11)
C45 C 0.7755(3) 0.9532(2) 0.14332(12)
H45 H 0.8093 0.9165 0.1052
C46 C 0.6525(3) 1.0409(2) 0.14919(12)
C47 C 0.6318(4) 1.0527(3) 0.03985(14)
H46 H 0.6938 1.0832 0.0319
H47 H 0.5693 1.0905 0.0112
H48 H 0.6708 0.9668 0.0345
C48 C 0.8283(3) 1.0021(3) 0.35342(14)
H49 H 0.8083 1.0862 0.3457
H50 H 0.8911 0.9686 0.3822
H51 H 0.7546 0.9939 0.3708
C49 C 0.9852(2) 0.8251(2) 0.18440(12)
H52 H 1.0153 0.8226 0.1406
H53 H 1.0350 0.8505 0.2069
C50 C 1.0050(2) 0.6989(2) 0.20703(11)
C51 C 0.9982(2) 0.6179(2) 0.16712(12)
C52 C 1.0111(2) 0.5047(2) 0.18905(13)
H54 H 1.0063 0.4521 0.1618
C53 C 1.0308(2) 0.4679(2) 0.25051(13)
C54 C 1.0408(2) 0.5476(3) 0.28990(12)
C55 C 1.0283(2) 0.6608(2) 0.26811(12)
H55 H 1.0356 0.7124 0.2950
C56 C 0.9834(4) 0.5762(4) 0.06326(15)
H56 H 1.0634 0.5073 0.0626
H57 H 0.9729 0.6144 0.0226
H58 H 0.9185 0.5506 0.0749
C57 C 1.0866(5) 0.5756(5) 0.38956(18)
H59 H 1.1608 0.5836 0.3728
H60 H 1.0991 0.5364 0.4299
H61 H 1.0175 0.6543 0.3932
C58 C 1.0351(3) 0.3473(2) 0.27453(15)
H62 H 1.0899 0.3164 0.3077
H63 H 1.0692 0.2898 0.2412
C59 C 0.7250(3) 0.5467(3) 0.46385(13)
H64 H 0.8128 0.4946 0.4674
H65 H 0.6842 0.5666 0.5057
Cl1 Cl 0.6813(2) 0.33687(16) -0.02421(9)
N1 N 0.6398(2) 0.7019(2) 0.38364(10)
H66 H 0.5963 0.6639 0.3780
N2 N 0.6655(3) 0.6872(3) 0.18044(12)
O1 O 0.67229(18) 0.48089(18) 0.43544(8)
O2 O 0.7729(2) 0.7148(2) 0.44536(12)
O3 O 0.6453(3) 0.7840(2) 0.06993(12)
H67 H 0.6477 0.7796 0.1078
O4 O 0.8776(2) 0.29533(18) 0.20233(9)
O5 O 0.2671(2) 0.83971(18) 0.43603(9)
O6 O 0.43169(19) 0.49759(17) 0.25379(9)
O7 O 0.3961(2) 1.1757(2) 0.34357(10)
O8 O 0.2428(2) 0.9325(2) 0.19272(9)
O9 O 0.87415(19) 0.93963(19) 0.29673(9)
O10 O 0.5753(2) 1.0786(2) 0.10156(9)
O11 O 0.9769(2) 0.6592(2) 0.10682(9)
O12 O 1.0614(2) 0.5073(2) 0.35048(10)
loop_
_geom_bond_atom_site_label_1
_geom_bond_atom_site_label_2
_geom_bond_site_symmetry_1
_geom_bond_site_symmetry_2
C1 C2 1_555 1_555
C2 H1 1_555 1_555
C3 C2 1_555 1_555
C4 C3 1_555 1_555
C5 C4 1_555 1_555
H2 C5 1_555 1_555
C6 C1 1_555 1_555
C7 H3 1_555 1_555
H4 C7 1_555 1_555
C8 C7 1_555 1_555
H5 C8 1_555 1_555
H6 C8 1_555 1_555
C9 C8 1_555 1_555
H7 C9 1_555 1_555
H8 C9 1_555 1_555
C10 C9 1_555 1_555
H9 C10 1_555 1_555
H10 C10 1_555 1_555
H11 C10 1_555 1_555
C11 C59 1_555 1_555
C12 H12 1_555 1_555
H13 C12 1_555 1_555
C13 C12 1_555 1_555
H14 C13 1_555 1_555
H15 C13 1_555 1_555
C14 C13 1_555 1_555
H16 C14 1_555 1_555
H17 C14 1_555 1_555
C15 H18 1_555 1_555
C16 C15 1_555 1_555
C17 C16 1_555 1_555
H19 C17 1_555 1_555
C18 C17 1_555 1_555
C19 C18 1_555 1_555
H20 C19 1_555 1_555
C20 C19 1_555 1_555
H21 C20 1_555 1_555
C21 C16 1_555 1_555
C22 C3 1_555 1_555
H22 C22 1_555 1_555
H23 C22 1_555 1_555
C23 C22 1_555 1_555
C24 C23 1_555 1_555
H24 C24 1_555 1_555
C25 C24 1_555 1_555
C26 C25 1_555 1_555
C27 C26 1_555 1_555
H25 C27 1_555 1_555
C28 C23 1_555 1_555
C29 H26 1_555 1_555
H27 C29 1_555 1_555
H28 C29 1_555 1_555
C30 H29 1_555 1_555
H30 C30 1_555 1_555
H31 C30 1_555 1_555
C31 C26 1_555 1_555
H32 C31 1_555 1_555
H33 C31 1_555 1_555
C32 C31 1_555 1_555
C33 C32 1_555 1_555
H34 C33 1_555 1_555
C34 C33 1_555 1_555
C35 C34 1_555 1_555
C36 C35 1_555 1_555
H35 C36 1_555 1_555
C37 C32 1_555 1_555
C38 H36 1_555 1_555
H37 C38 1_555 1_555
H38 C38 1_555 1_555
C39 H39 1_555 1_555
H40 C39 1_555 1_555
H41 C39 1_555 1_555
C40 C35 1_555 1_555
H42 C40 1_555 1_555
H43 C40 1_555 1_555
C41 C40 1_555 1_555
C42 C41 1_555 1_555
H44 C42 1_555 1_555
C43 C42 1_555 1_555
C44 C43 1_555 1_555
C45 C44 1_555 1_555
H45 C45 1_555 1_555
C46 C41 1_555 1_555
C47 H46 1_555 1_555
H47 C47 1_555 1_555
H48 C47 1_555 1_555
C48 H49 1_555 1_555
H50 C48 1_555 1_555
H51 C48 1_555 1_555
C49 C44 1_555 1_555
H52 C49 1_555 1_555
H53 C49 1_555 1_555
C50 C49 1_555 1_555
C51 C50 1_555 1_555
C52 C51 1_555 1_555
H54 C52 1_555 1_555
C53 C52 1_555 1_555
C54 C53 1_555 1_555
C55 C50 1_555 1_555
H55 C55 1_555 1_555
C56 H56 1_555 1_555
H57 C56 1_555 1_555
H58 C56 1_555 1_555
C57 H59 1_555 1_555
H60 C57 1_555 1_555
H61 C57 1_555 1_555
C58 C6 1_555 1_555
H62 C58 1_555 1_555
H63 C58 1_555 1_555
C59 H64 1_555 1_555
H65 C59 1_555 1_555
Cl1 C18 1_555 1_555
N1 C11 1_555 1_555
H66 N1 1_555 1_555
N2 C14 1_555 1_555
O1 C4 1_555 1_555
O2 C11 1_555 1_555
O3 C21 1_555 1_555
H67 O3 1_555 1_555
O4 C1 1_555 1_555
O5 C25 1_555 1_555
O6 C28 1_555 1_555
O7 C34 1_555 1_555
O8 C37 1_555 1_555
O9 C43 1_555 1_555
O10 C46 1_555 1_555
O11 C51 1_555 1_555
O12 C54 1_555 1_555
C5 C6 1_555 1_555
C7 O4 1_555 1_555
C12 N1 1_555 1_555
C15 N2 1_555 1_555
C20 C21 1_555 1_555
C27 C28 1_555 1_555
C29 O5 1_555 1_555
C30 O6 1_555 1_555
C36 C37 1_555 1_555
C38 O7 1_555 1_555
C39 O8 1_555 1_555
C45 C46 1_555 1_555
C47 O10 1_555 1_555
C48 O9 1_555 1_555
C53 C58 1_555 1_555
C54 C55 1_555 1_555
C56 O11 1_555 1_555
C57 O12 1_555 1_555
C59 O1 1_555 1_555

#END
