
#######################################################################
#
#                 Cambridge Crystallographic Data Centre
#                                CCDC 
#
#######################################################################
#
# If this CIF has been generated from an entry in the Cambridge 
# Structural Database, then it will include bibliographic, chemical, 
# crystal, experimental, refinement or atomic coordinate data resulting 
# from the CCDC's data processing and validation procedures.
#
#######################################################################

data_FUWBUW
_chemical_name_common            
'(1)-(octamethoxy-butoxy-(3-(5-bromo-2-hydroxybenzylideneamino)propylaminocarbonylmethoxy)pillar(5)arene) rotaxane'
_chemical_formula_moiety         'C59 H67 Br1 N2 O12'
_chemical_name_systematic        
'(1)-(N-(3-((5-bromo-2-hydroxybenzylidene)amino)propyl)-2-((34-butoxy-9,14,19,24,26,28,30,32-octamethoxyhexacyclo[21.2.2.2^3,6^.2^8,11^.2^13,16^.2^18,21^]pentatriaconta-1(25),3,5,8,10,13,15,18,20,23,26,28,30,32,34-pentadecaen-4-yl)oxy)acetamide) rotaxane'
_symmetry_cell_setting           triclinic
_symmetry_space_group_name_H-M   'P -1'
_symmetry_Int_Tables_number      2
_space_group_name_Hall           '-P 1'
loop_
_symmetry_equiv_pos_site_id
_symmetry_equiv_pos_as_xyz
1 x,y,z
2 -x,-y,-z
_cell_length_a                   12.419(4)
_cell_length_b                   13.036(4)
_cell_length_c                   18.772(6)
_cell_angle_alpha                89.445(9)
_cell_angle_beta                 87.559(9)
_cell_angle_gamma                63.947(8)
_cell_volume                     2727.65
_exptl_crystal_colour            colorless
_exptl_crystal_description       block
_cell_formula_units_Z            2
loop_
_atom_site_label
_atom_site_type_symbol
_atom_site_fract_x
_atom_site_fract_y
_atom_site_fract_z
Br1 Br 0.60795(7) 0.94560(6) 0.09280(5)
C1 C 0.7056(4) 0.5380(4) 0.4933(2)
H1 H 0.7310 0.5137 0.5413
H2 H 0.6407 0.6146 0.4963
C2 C 0.6606(4) 0.4582(4) 0.4615(2)
C3 C 0.5719(4) 0.4979(4) 0.4121(2)
H3 H 0.5384 0.5747 0.4000
C4 C 0.5314(3) 0.4264(4) 0.38000(19)
C5 C 0.5791(3) 0.3124(4) 0.3976(2)
C6 C 0.6661(4) 0.2727(4) 0.4475(2)
H4 H 0.6985 0.1961 0.4600
C7 C 0.7067(4) 0.3435(4) 0.4795(2)
C8 C 0.3914(4) 0.5778(4) 0.3111(3)
H5 H 0.3494 0.6245 0.3517
H6 H 0.3363 0.5895 0.2741
H7 H 0.4533 0.5983 0.2940
C9 C 0.8431(5) 0.1919(6) 0.5499(3)
H8 H 0.7805 0.1721 0.5663
H9 H 0.8977 0.1796 0.5873
H10 H 0.8856 0.1450 0.5094
C10 C 0.5407(4) 0.2313(4) 0.3605(2)
H11 H 0.4558 0.2710 0.3518
H12 H 0.5528 0.1677 0.3917
C11 C 0.6103(4) 0.1856(4) 0.2901(2)
C12 C 0.5656(4) 0.2384(3) 0.2267(2)
H13 H 0.4909 0.3015 0.2271
C13 C 0.6297(4) 0.1995(4) 0.1619(2)
C14 C 0.7421(4) 0.1078(3) 0.1603(2)
C15 C 0.7867(4) 0.0551(3) 0.2242(3)
H14 H 0.8618 -0.0073 0.2239
C16 C 0.7224(4) 0.0926(4) 0.2881(2)
C17 C 0.4632(4) 0.3265(4) 0.0957(2)
H15 H 0.4153 0.2913 0.1155
H16 H 0.4427 0.3472 0.0472
H17 H 0.4481 0.3938 0.1229
C18 C 0.8782(5) -0.0468(5) 0.3568(3)
H18 H 0.8874 -0.1089 0.3262
H19 H 0.8917 -0.0729 0.4051
H20 H 0.9354 -0.0189 0.3420
C19 C 0.8146(4) 0.0669(4) 0.0912(2)
H21 H 0.7606 0.0848 0.0521
H22 H 0.8609 -0.0154 0.0924
C20 C 0.8992(4) 0.1218(4) 0.0777(2)
C21 C 0.8571(4) 0.2312(4) 0.05224(19)
H23 H 0.7772 0.2696 0.0404
C22 C 0.9304(4) 0.2861(4) 0.04364(19)
C23 C 1.0500(4) 0.2307(4) 0.05948(19)
C24 C 1.0926(4) 0.1201(4) 0.0838(2)
H24 H 1.1734 0.0806 0.0934
C25 C 1.0186(4) 0.0661(4) 0.0943(2)
C26 C 0.7713(4) 0.4574(4) 0.0017(3)
H25 H 0.7567 0.4208 -0.0384
H26 H 0.7559 0.5342 -0.0106
H27 H 0.7194 0.4588 0.0414
C27 C 1.1759(5) -0.1056(4) 0.1344(4)
H28 H 1.2230 -0.1075 0.0921
H29 H 1.1903 -0.1820 0.1470
H30 H 1.1980 -0.0714 0.1728
C28 C 1.1310(3) 0.2904(3) 0.05280(19)
H31 H 1.1060 0.3435 0.0135
H32 H 1.2127 0.2341 0.0419
C29 C 1.1279(3) 0.3549(4) 0.12052(19)
C30 C 1.0530(3) 0.4700(3) 0.12857(19)
H33 H 1.0049 0.5088 0.0913
C31 C 1.0473(4) 0.5297(3) 0.1907(2)
C32 C 1.1173(4) 0.4741(4) 0.24740(19)
C33 C 1.1943(3) 0.3591(4) 0.2387(2)
H34 H 1.2438 0.3207 0.2755
C34 C 1.1998(3) 0.2996(4) 0.1770(2)
C35 C 0.9743(6) 0.7185(4) 0.1485(3)
H35 H 1.0527 0.7162 0.1469
H36 H 0.9152 0.7945 0.1603
H37 H 0.9588 0.6967 0.1028
C36 C 1.3392(4) 0.1201(4) 0.2229(3)
H38 H 1.3985 0.1444 0.2356
H39 H 1.3779 0.0410 0.2091
H40 H 1.2849 0.1302 0.2631
C37 C 1.1070(4) 0.5354(4) 0.3175(2)
H41 H 1.1814 0.4973 0.3421
H42 H 1.0941 0.6132 0.3081
C38 C 1.0046(4) 0.5371(4) 0.3646(2)
C39 C 0.8936(5) 0.6301(4) 0.3657(2)
H43 H 0.8835 0.6935 0.3384
C40 C 0.7966(5) 0.6321(5) 0.4062(2)
C41 C 0.8106(5) 0.5396(5) 0.4485(2)
C42 C 0.9224(5) 0.4463(4) 0.4481(2)
H44 H 0.9334 0.3833 0.4759
C43 C 1.0181(5) 0.4454(4) 0.4068(2)
C44 C 0.6597(17) 0.8164(19) 0.3655(19)
H45 H 0.6687 0.7929 0.3158
H46 H 0.7188 0.8444 0.3736
C45 C 0.5341(13) 0.9146(13) 0.3788(11)
H47 H 0.5364 0.9563 0.4208
H48 H 0.5181 0.9663 0.3389
C46 C 0.4288(13) 0.8863(12) 0.3892(10)
H49 H 0.4444 0.8276 0.4248
H50 H 0.3562 0.9535 0.4034
C47 C 0.4190(15) 0.8444(11) 0.3171(8)
H51 H 0.4577 0.8722 0.2819
H52 H 0.3359 0.8716 0.3069
H53 H 0.4571 0.7624 0.3163
C48 C 1.1442(4) 0.2499(4) 0.4366(2)
H54 H 1.1099 0.2667 0.4849
H55 H 1.2292 0.1999 0.4396
C49 C 1.0865(4) 0.1870(4) 0.3981(3)
C50 C 0.9814(5) 0.1822(4) 0.2905(3)
H56 H 0.9328 0.1584 0.3220
H57 H 1.0356 0.1164 0.2623
C51 C 0.9007(4) 0.2748(4) 0.2415(2)
H58 H 0.9493 0.3013 0.2119
H59 H 0.8627 0.2428 0.2103
C52 C 0.8070(5) 0.3730(5) 0.2812(3)
H60 H 0.7634 0.3460 0.3145
H61 H 0.8444 0.4106 0.3084
C53 C 0.7304(5) 0.5481(6) 0.2186(3)
H62 H 0.7897 0.5616 0.2393
C54 C 0.6498(4) 0.6327(5) 0.1721(3)
C55 C 0.6624(5) 0.7323(6) 0.1569(3)
H63 H 0.7230 0.7437 0.1776
C56 C 0.5871(5) 0.8133(5) 0.1122(3)
C57 C 0.4965(5) 0.7976(5) 0.0823(3)
H64 H 0.4447 0.8527 0.0522
C58 C 0.4824(4) 0.7012(5) 0.0967(3)
H65 H 0.4201 0.6919 0.0765
C59 C 0.5582(4) 0.6173(5) 0.1403(3)
N1 N 1.0510(3) 0.2230(3) 0.33303(19)
H66 H 1.0702 0.2736 0.3146
N2 N 0.7233(4) 0.4548(5) 0.2326(2)
O1 O 0.4433(3) 0.4623(3) 0.33081(15)
O2 O 0.7922(3) 0.3086(3) 0.53011(15)
O3 O 0.5862(2) 0.2489(3) 0.09775(15)
O4 O 0.7617(3) 0.0414(3) 0.35269(18)
O5 O 0.8917(3) 0.3965(3) 0.02016(14)
O6 O 1.0552(3) -0.0417(3) 0.12206(19)
O7 O 0.9688(3) 0.6442(2) 0.19932(14)
O8 O 1.2746(3) 0.1862(3) 0.16530(16)
O9 O 0.6840(4) 0.7215(4) 0.4080(2)
O10 O 1.1306(3) 0.3538(3) 0.40384(14)
O11 O 1.0751(4) 0.1082(3) 0.42730(19)
O12 O 0.5435(3) 0.5222(3) 0.1518(2)
H67 H 0.6038 0.4732 0.1692
C60? C 0.662(4) 0.825(4) 0.367(4)
H68? H 0.7066 0.8063 0.3211
H69? H 0.6831 0.8771 0.3928
C61? C 0.525(3) 0.877(3) 0.3566(17)
H70? H 0.4979 0.8202 0.3439
H71? H 0.4964 0.9402 0.3239
C62? C 0.499(2) 0.915(2) 0.4386(15)
H72? H 0.5168 0.8500 0.4699
H73? H 0.5428 0.9565 0.4526
C63? C 0.366(2) 0.991(2) 0.4369(17)
H74? H 0.3522 1.0680 0.4289
H75? H 0.3276 0.9859 0.4816
H76? H 0.3326 0.9658 0.3991
loop_
_geom_bond_atom_site_label_1
_geom_bond_atom_site_label_2
_geom_bond_site_symmetry_1
_geom_bond_site_symmetry_2
Br1 C56 1_555 1_555
C1 H1 1_555 1_555
H2 C1 1_555 1_555
C2 C1 1_555 1_555
C3 C2 1_555 1_555
H3 C3 1_555 1_555
C4 C3 1_555 1_555
C5 C4 1_555 1_555
C6 C5 1_555 1_555
H4 C6 1_555 1_555
C7 C2 1_555 1_555
C8 H5 1_555 1_555
H6 C8 1_555 1_555
H7 C8 1_555 1_555
C9 H8 1_555 1_555
H9 C9 1_555 1_555
H10 C9 1_555 1_555
C10 C5 1_555 1_555
H11 C10 1_555 1_555
H12 C10 1_555 1_555
C11 C10 1_555 1_555
C12 C11 1_555 1_555
H13 C12 1_555 1_555
C13 C12 1_555 1_555
C14 C13 1_555 1_555
C15 C14 1_555 1_555
H14 C15 1_555 1_555
C16 C11 1_555 1_555
C17 H15 1_555 1_555
H16 C17 1_555 1_555
H17 C17 1_555 1_555
C18 H18 1_555 1_555
H19 C18 1_555 1_555
H20 C18 1_555 1_555
C19 C14 1_555 1_555
H21 C19 1_555 1_555
H22 C19 1_555 1_555
C20 C19 1_555 1_555
C21 C20 1_555 1_555
H23 C21 1_555 1_555
C22 C21 1_555 1_555
C23 C22 1_555 1_555
C24 C23 1_555 1_555
H24 C24 1_555 1_555
C25 C20 1_555 1_555
C26 H25 1_555 1_555
H26 C26 1_555 1_555
H27 C26 1_555 1_555
C27 H28 1_555 1_555
H29 C27 1_555 1_555
H30 C27 1_555 1_555
C28 C23 1_555 1_555
H31 C28 1_555 1_555
H32 C28 1_555 1_555
C29 C28 1_555 1_555
C30 C29 1_555 1_555
H33 C30 1_555 1_555
C31 C30 1_555 1_555
C32 C31 1_555 1_555
C33 C32 1_555 1_555
H34 C33 1_555 1_555
C34 C29 1_555 1_555
C35 H35 1_555 1_555
H36 C35 1_555 1_555
H37 C35 1_555 1_555
C36 H38 1_555 1_555
H39 C36 1_555 1_555
H40 C36 1_555 1_555
C37 C32 1_555 1_555
H41 C37 1_555 1_555
H42 C37 1_555 1_555
C38 C37 1_555 1_555
C39 C38 1_555 1_555
H43 C39 1_555 1_555
C40 C39 1_555 1_555
C41 C1 1_555 1_555
C42 C41 1_555 1_555
H44 C42 1_555 1_555
C43 C38 1_555 1_555
C44 H45 1_555 1_555
H46 C44 1_555 1_555
C45 C44 1_555 1_555
H47 C45 1_555 1_555
H48 C45 1_555 1_555
C46 C45 1_555 1_555
H49 C46 1_555 1_555
H50 C46 1_555 1_555
C47 C46 1_555 1_555
H51 C47 1_555 1_555
H52 C47 1_555 1_555
H53 C47 1_555 1_555
C48 H54 1_555 1_555
H55 C48 1_555 1_555
C49 C48 1_555 1_555
C50 H56 1_555 1_555
H57 C50 1_555 1_555
C51 C50 1_555 1_555
H58 C51 1_555 1_555
H59 C51 1_555 1_555
C52 C51 1_555 1_555
H60 C52 1_555 1_555
H61 C52 1_555 1_555
C53 H62 1_555 1_555
C54 C53 1_555 1_555
C55 C54 1_555 1_555
H63 C55 1_555 1_555
C56 C55 1_555 1_555
C57 C56 1_555 1_555
H64 C57 1_555 1_555
C58 C57 1_555 1_555
H65 C58 1_555 1_555
C59 C54 1_555 1_555
N1 C49 1_555 1_555
H66 N1 1_555 1_555
N2 C52 1_555 1_555
O1 C4 1_555 1_555
O2 C7 1_555 1_555
O3 C13 1_555 1_555
O4 C16 1_555 1_555
O5 C22 1_555 1_555
O6 C25 1_555 1_555
O7 C31 1_555 1_555
O8 C34 1_555 1_555
O9 C40 1_555 1_555
O10 C43 1_555 1_555
O11 C49 1_555 1_555
O12 C59 1_555 1_555
H67 O12 1_555 1_555
C6 C7 1_555 1_555
C8 O1 1_555 1_555
C9 O2 1_555 1_555
C15 C16 1_555 1_555
C17 O3 1_555 1_555
C18 O4 1_555 1_555
C24 C25 1_555 1_555
C26 O5 1_555 1_555
C27 O6 1_555 1_555
C33 C34 1_555 1_555
C35 O7 1_555 1_555
C36 O8 1_555 1_555
C40 C41 1_555 1_555
C42 C43 1_555 1_555
C44 O9 1_555 1_555
C48 O10 1_555 1_555
C50 N1 1_555 1_555
C53 N2 1_555 1_555
C58 C59 1_555 1_555

#END
