
#######################################################################
#
#                 Cambridge Crystallographic Data Centre
#                                CCDC 
#
#######################################################################
#
# If this CIF has been generated from an entry in the Cambridge 
# Structural Database, then it will include bibliographic, chemical, 
# crystal, experimental, refinement or atomic coordinate data resulting 
# from the CCDC's data processing and validation procedures.
#
#######################################################################

data_FUWBEG
_chemical_name_common            
octamethoxy-butoxy-(2-(3,5-di-t-butyl-2-hydroxybenzylideneamino)ethylaminocarbonylmethoxy)pillar(5)arene
_chemical_formula_moiety         'C66 H82 N2 O12,C2 H6 O1'
_chemical_name_systematic        
'2-((34-butoxy-9,14,19,24,26,28,30,32-octamethoxyhexacyclo[21.2.2.2^3,6^.2^8,11^.2^13,16^.2^18,21^]pentatriaconta-1(25),3,5,8,10,13,15,18,20,23,26,28,30,32,34-pentadecaen-4-yl)oxy)-N-(2-((3,5-di-t-butyl-2-hydroxybenzylidene)amino)ethyl)acetamide ethanol solvate'
_symmetry_cell_setting           triclinic
_symmetry_space_group_name_H-M   'P -1'
_symmetry_Int_Tables_number      2
_space_group_name_Hall           '-P 1'
loop_
_symmetry_equiv_pos_site_id
_symmetry_equiv_pos_as_xyz
1 x,y,z
2 -x,-y,-z
_cell_length_a                   12.087(2)
_cell_length_b                   12.800(2)
_cell_length_c                   21.492(4)
_cell_angle_alpha                97.104(2)
_cell_angle_beta                 96.718(2)
_cell_angle_gamma                93.446(2)
_cell_volume                     3267.53
_exptl_crystal_colour            colorless
_exptl_crystal_description       block
_cell_formula_units_Z            2
loop_
_atom_site_label
_atom_site_type_symbol
_atom_site_fract_x
_atom_site_fract_y
_atom_site_fract_z
C1 C 0.9882(2) 0.7731(2) 0.50575(11)
H1 H 0.9618 0.8052 0.5440
H2 H 1.0651 0.7575 0.5164
C2 C 0.9832(2) 0.8504(2) 0.45771(10)
C3 C 0.8950(2) 0.9136(2) 0.45117(11)
H3 H 0.8394 0.9096 0.4775
C4 C 0.8872(2) 0.9831(2) 0.40631(11)
C5 C 0.9701(2) 0.99198(18) 0.36699(10)
C6 C 1.0584(2) 0.9300(2) 0.37415(11)
H4 H 1.1151 0.9357 0.3488
C7 C 1.0654(2) 0.8586(2) 0.41837(11)
C8 C 0.7134(3) 1.0414(3) 0.43466(18)
H5 H 0.6767 0.9716 0.4264
H6 H 0.6607 1.0918 0.4244
H7 H 0.7428 1.0564 0.4785
C9 C 1.2238(4) 0.7824(4) 0.3822(2)
H8 H 1.1822 0.7630 0.3410
H9 H 1.2723 0.7281 0.3914
H10 H 1.2676 0.8477 0.3830
C10 C 0.9602(2) 1.06381(18) 0.31550(11)
H11 H 0.9251 1.1268 0.3303
H12 H 1.0342 1.0852 0.3061
C11 C 0.8916(2) 1.00755(17) 0.25610(10)
C12 C 0.7795(2) 1.02153(17) 0.24312(10)
H13 H 0.7473 1.0703 0.2698
C13 C 0.7134(2) 0.96486(17) 0.19129(10)
C14 C 0.7588(2) 0.88866(16) 0.15152(10)
C15 C 0.8724(2) 0.87747(17) 0.16359(10)
H14 H 0.9049 0.8288 0.1369
C16 C 0.9389(2) 0.93662(18) 0.21426(11)
C17 C 0.5553(3) 1.0617(3) 0.20831(18)
H15 H 0.5554 1.0513 0.2518
H16 H 0.4799 1.0657 0.1895
H17 H 0.5983 1.1263 0.2059
C18 C 1.1067(2) 0.8633(2) 0.18681(15)
H18 H 1.0794 0.7917 0.1881
H19 H 1.1857 0.8715 0.2005
H20 H 1.0927 0.8799 0.1444
C19 C 0.6887(2) 0.82070(17) 0.09713(10)
H21 H 0.7358 0.8006 0.0647
H22 H 0.6316 0.8622 0.0791
C20 C 0.63199(17) 0.72066(16) 0.11506(9)
C21 C 0.55782(19) 0.72747(18) 0.16005(10)
H23 H 0.5445 0.7937 0.1796
C22 C 0.50321(18) 0.63873(19) 0.17659(10)
C23 C 0.52307(17) 0.53823(17) 0.14960(10)
C24 C 0.59584(18) 0.53198(17) 0.10424(10)
H24 H 0.6100 0.4657 0.0851
C25 C 0.64850(17) 0.62114(17) 0.08628(10)
C26 C 0.3973(3) 0.7414(3) 0.24527(16)
H25 H 0.4614 0.7808 0.2696
H26 H 0.3401 0.7319 0.2720
H27 H 0.3695 0.7793 0.2116
C27 C 0.7122(3) 0.5227(2) -0.00271(13)
H28 H 0.7413 0.4666 0.0186
H29 H 0.7550 0.5340 -0.0365
H30 H 0.6355 0.5038 -0.0196
C28 C 0.46954(19) 0.43959(18) 0.17029(11)
H31 H 0.3917 0.4494 0.1747
H32 H 0.4721 0.3799 0.1381
C29 C 0.52892(18) 0.41614(17) 0.23260(10)
C30 C 0.48879(19) 0.44775(18) 0.28937(11)
H33 H 0.4207 0.4781 0.2887
C31 C 0.54773(19) 0.43514(18) 0.34700(11)
C32 C 0.64750(18) 0.38600(17) 0.34946(10)
C33 C 0.68573(19) 0.35042(17) 0.29242(11)
H34 H 0.7508 0.3152 0.2928
C34 C 0.62814(19) 0.36682(17) 0.23505(10)
C35 C 0.4440(3) 0.5550(3) 0.40629(14)
H35 H 0.4767 0.6102 0.3863
H36 H 0.4377 0.5811 0.4494
H37 H 0.3712 0.5318 0.3844
C36 C 0.7786(2) 0.3183(3) 0.17809(14)
H38 H 0.8228 0.3764 0.2036
H39 H 0.7975 0.3127 0.1357
H40 H 0.7931 0.2541 0.1954
C37 C 0.71786(19) 0.37768(18) 0.41160(10)
H41 H 0.6694 0.3617 0.4426
H42 H 0.7661 0.3203 0.4057
C38 C 0.78865(19) 0.47949(18) 0.43596(10)
C39 C 0.7499(2) 0.5565(2) 0.47680(11)
H43 H 0.6805 0.5445 0.4903
C40 C 0.8117(2) 0.6515(2) 0.49827(11)
C41 C 0.9173(2) 0.6704(2) 0.48084(10)
C42 C 0.9565(2) 0.5932(2) 0.43946(10)
H44 H 1.0268 0.6047 0.4268
C43 C 0.89346(19) 0.49950(19) 0.41656(10)
C44 C 1.0429(2) 0.4167(2) 0.36888(12)
H45 H 1.0575 0.3430 0.3601
H46 H 1.0835 0.4439 0.4099
C45 C 1.0890(2) 0.4755(2) 0.31989(12)
C46 C 1.0544(3) 0.5816(2) 0.23392(12)
H47 H 1.1310 0.6098 0.2471
H48 H 1.0086 0.6409 0.2306
C47 C 1.0477(3) 0.5179(2) 0.17079(12)
H49 H 1.0903 0.4565 0.1740
H50 H 0.9705 0.4935 0.1558
C48 C 1.0252(2) 0.60888(19) 0.08225(11)
H51 H 0.9509 0.5826 0.0777
C49 C 1.05906(19) 0.67957(17) 0.03835(10)
C50 C 0.97877(19) 0.70809(18) -0.00719(10)
H52 H 0.9058 0.6787 -0.0102
C51 C 1.00431(18) 0.77853(17) -0.04795(10)
C52 C 1.11521(18) 0.81997(16) -0.04100(10)
H53 H 1.1338 0.8678 -0.0680
C53 C 1.19996(17) 0.79568(16) 0.00292(10)
C54 C 1.17002(18) 0.72319(16) 0.04370(9)
C55 C 0.9178(2) 0.8149(2) -0.09694(12)
C56 C 0.8038(2) 0.7542(3) -0.10108(15)
H54 H 0.7533 0.7770 -0.1337
H55 H 0.7749 0.7675 -0.0613
H56 H 0.8117 0.6800 -0.1108
C57 C 0.9560(2) 0.8015(2) -0.16240(13)
H57 H 1.0250 0.8432 -0.1614
H58 H 0.9002 0.8243 -0.1923
H59 H 0.9669 0.7285 -0.1747
C58 C 0.9052(3) 0.9326(3) -0.07745(19)
H60 H 0.9766 0.9713 -0.0745
H61 H 0.8777 0.9420 -0.0372
H62 H 0.8536 0.9580 -0.1085
C59 C 1.32108(18) 0.84536(17) 0.00779(10)
C60 C 1.40042(19) 0.7590(2) -0.00609(12)
H63 H 1.4752 0.7905 -0.0035
H64 H 1.3781 0.7222 -0.0478
H65 H 1.3977 0.7102 0.0243
C61 C 1.3573(2) 0.9056(2) 0.07388(12)
H66 H 1.3542 0.8578 0.1048
H67 H 1.3081 0.9604 0.0821
H68 H 1.4323 0.9364 0.0761
C62 C 1.3309(2) 0.9235(2) -0.03999(13)
H69 H 1.4066 0.9534 -0.0359
H70 H 1.2821 0.9787 -0.0321
H71 H 1.3103 0.8873 -0.0820
N1 N 1.01763(19) 0.52124(18) 0.28227(9)
H72 H 0.9477 0.5153 0.2864
N2 N 1.09207(19) 0.58165(16) 0.12620(9)
O1 O 0.80112(17) 1.04786(17) 0.39741(9)
O2 O 1.15166(18) 0.79410(18) 0.42633(10)
O3 O 0.60193(15) 0.97761(13) 0.17613(8)
O4 O 1.05204(15) 0.93171(15) 0.22695(8)
O5 O 0.42772(16) 0.64221(15) 0.21982(9)
O6 O 0.71937(14) 0.61564(12) 0.04024(8)
O7 O 0.51258(14) 0.46932(16) 0.40445(8)
O8 O 0.66531(15) 0.33542(14) 0.17751(8)
O9 O 0.77463(19) 0.73116(16) 0.53870(9)
O10 O 0.92679(13) 0.42237(13) 0.37269(7)
O11 O 1.18920(18) 0.4774(2) 0.31613(11)
O12 O 1.24814(13) 0.69692(13) 0.08814(7)
H73 H 1.2197 0.6544 0.1083
C63 C 0.6708(11) 0.7137(9) 0.5552(6)
H74 H 0.6699 0.6566 0.5810
H75 H 0.6175 0.6936 0.5176
C64 C 0.6381(8) 0.8170(8) 0.5932(4)
H76 H 0.6517 0.8774 0.5712
H77 H 0.5598 0.8110 0.5994
C65 C 0.7117(8) 0.8276(10) 0.6554(4)
H78 H 0.7127 0.7583 0.6691
H79 H 0.7871 0.8478 0.6477
C66 C 0.6847(8) 0.9013(11) 0.7078(6)
H80 H 0.7506 0.9451 0.7262
H81 H 0.6576 0.8626 0.7391
H82 H 0.6282 0.9448 0.6926
C71 C 0.7946(4) 0.7095(4) 0.2924(2)
H92 H 0.8652 0.7304 0.3187
H93 H 0.7834 0.7586 0.2617
C72 C 0.7067(4) 0.7114(5) 0.3301(2)
H94 H 0.6411 0.6735 0.3065
H95 H 0.6913 0.7833 0.3423
H96 H 0.7279 0.6789 0.3672
O13 O 0.7966(3) 0.6041(3) 0.2604(2)
H97 H 0.7324 0.5789 0.2489
C67? C 0.671(3) 0.718(2) 0.5759(13)
H83? H 0.6705 0.6478 0.5884
H84? H 0.6049 0.7191 0.5459
C68? C 0.656(3) 0.7965(17) 0.6363(11)
H85? H 0.5883 0.7791 0.6543
H86? H 0.7203 0.8031 0.6686
C69? C 0.648(2) 0.8927(16) 0.6006(10)
H87? H 0.5914 0.8788 0.5641
H88? H 0.7191 0.9120 0.5867
C70? C 0.616(2) 0.9808(17) 0.6494(12)
H89? H 0.5434 0.9616 0.6609
H90? H 0.6132 1.0456 0.6313
H91? H 0.6699 0.9898 0.6863
loop_
_geom_bond_atom_site_label_1
_geom_bond_atom_site_label_2
_geom_bond_site_symmetry_1
_geom_bond_site_symmetry_2
C1 H1 1_555 1_555
H2 C1 1_555 1_555
C2 C1 1_555 1_555
C3 C2 1_555 1_555
H3 C3 1_555 1_555
C4 C3 1_555 1_555
C5 C4 1_555 1_555
C6 C5 1_555 1_555
H4 C6 1_555 1_555
C7 C2 1_555 1_555
C8 H5 1_555 1_555
H6 C8 1_555 1_555
H7 C8 1_555 1_555
C9 H8 1_555 1_555
H9 C9 1_555 1_555
H10 C9 1_555 1_555
C10 C5 1_555 1_555
H11 C10 1_555 1_555
H12 C10 1_555 1_555
C11 C10 1_555 1_555
C12 C11 1_555 1_555
H13 C12 1_555 1_555
C13 C12 1_555 1_555
C14 C13 1_555 1_555
C15 C14 1_555 1_555
H14 C15 1_555 1_555
C16 C11 1_555 1_555
C17 H15 1_555 1_555
H16 C17 1_555 1_555
H17 C17 1_555 1_555
C18 H18 1_555 1_555
H19 C18 1_555 1_555
H20 C18 1_555 1_555
C19 C14 1_555 1_555
H21 C19 1_555 1_555
H22 C19 1_555 1_555
C20 C19 1_555 1_555
C21 C20 1_555 1_555
H23 C21 1_555 1_555
C22 C21 1_555 1_555
C23 C22 1_555 1_555
C24 C23 1_555 1_555
H24 C24 1_555 1_555
C25 C20 1_555 1_555
C26 H25 1_555 1_555
H26 C26 1_555 1_555
H27 C26 1_555 1_555
C27 H28 1_555 1_555
H29 C27 1_555 1_555
H30 C27 1_555 1_555
C28 C23 1_555 1_555
H31 C28 1_555 1_555
H32 C28 1_555 1_555
C29 C28 1_555 1_555
C30 C29 1_555 1_555
H33 C30 1_555 1_555
C31 C30 1_555 1_555
C32 C31 1_555 1_555
C33 C32 1_555 1_555
H34 C33 1_555 1_555
C34 C29 1_555 1_555
C35 H35 1_555 1_555
H36 C35 1_555 1_555
H37 C35 1_555 1_555
C36 H38 1_555 1_555
H39 C36 1_555 1_555
H40 C36 1_555 1_555
C37 C32 1_555 1_555
H41 C37 1_555 1_555
H42 C37 1_555 1_555
C38 C37 1_555 1_555
C39 C38 1_555 1_555
H43 C39 1_555 1_555
C40 C39 1_555 1_555
C41 C1 1_555 1_555
C42 C41 1_555 1_555
H44 C42 1_555 1_555
C43 C38 1_555 1_555
C44 H45 1_555 1_555
H46 C44 1_555 1_555
C45 C44 1_555 1_555
C46 H47 1_555 1_555
H48 C46 1_555 1_555
C47 C46 1_555 1_555
H49 C47 1_555 1_555
H50 C47 1_555 1_555
C48 H51 1_555 1_555
C49 C48 1_555 1_555
C50 C49 1_555 1_555
H52 C50 1_555 1_555
C51 C50 1_555 1_555
C52 C51 1_555 1_555
H53 C52 1_555 1_555
C53 C52 1_555 1_555
C54 C49 1_555 1_555
C55 C51 1_555 1_555
C56 C55 1_555 1_555
H54 C56 1_555 1_555
H55 C56 1_555 1_555
H56 C56 1_555 1_555
C57 C55 1_555 1_555
H57 C57 1_555 1_555
H58 C57 1_555 1_555
H59 C57 1_555 1_555
C58 C55 1_555 1_555
H60 C58 1_555 1_555
H61 C58 1_555 1_555
H62 C58 1_555 1_555
C59 C53 1_555 1_555
C60 C59 1_555 1_555
H63 C60 1_555 1_555
H64 C60 1_555 1_555
H65 C60 1_555 1_555
C61 C59 1_555 1_555
H66 C61 1_555 1_555
H67 C61 1_555 1_555
H68 C61 1_555 1_555
C62 C59 1_555 1_555
H69 C62 1_555 1_555
H70 C62 1_555 1_555
H71 C62 1_555 1_555
N1 C45 1_555 1_555
H72 N1 1_555 1_555
N2 C47 1_555 1_555
O1 C4 1_555 1_555
O2 C7 1_555 1_555
O3 C13 1_555 1_555
O4 C16 1_555 1_555
O5 C22 1_555 1_555
O6 C25 1_555 1_555
O7 C31 1_555 1_555
O8 C34 1_555 1_555
O9 C40 1_555 1_555
O10 C43 1_555 1_555
O11 C45 1_555 1_555
O12 C54 1_555 1_555
H73 O12 1_555 1_555
C63 O9 1_555 1_555
H74 C63 1_555 1_555
H75 C63 1_555 1_555
C64 C63 1_555 1_555
H76 C64 1_555 1_555
H77 C64 1_555 1_555
C65 C64 1_555 1_555
H78 C65 1_555 1_555
H79 C65 1_555 1_555
C66 C65 1_555 1_555
H80 C66 1_555 1_555
H81 C66 1_555 1_555
H82 C66 1_555 1_555
C71 H92 1_555 1_555
H93 C71 1_555 1_555
C72 C71 1_555 1_555
H94 C72 1_555 1_555
H95 C72 1_555 1_555
H96 C72 1_555 1_555
O13 C71 1_555 1_555
H97 O13 1_555 1_555
C6 C7 1_555 1_555
C8 O1 1_555 1_555
C9 O2 1_555 1_555
C15 C16 1_555 1_555
C17 O3 1_555 1_555
C18 O4 1_555 1_555
C24 C25 1_555 1_555
C26 O5 1_555 1_555
C27 O6 1_555 1_555
C33 C34 1_555 1_555
C35 O7 1_555 1_555
C36 O8 1_555 1_555
C40 C41 1_555 1_555
C42 C43 1_555 1_555
C44 O10 1_555 1_555
C46 N1 1_555 1_555
C48 N2 1_555 1_555
C53 C54 1_555 1_555

#END
