
#######################################################################
#
#                 Cambridge Crystallographic Data Centre
#                                CCDC 
#
#######################################################################
#
# If this CIF has been generated from an entry in the Cambridge 
# Structural Database, then it will include bibliographic, chemical, 
# crystal, experimental, refinement or atomic coordinate data resulting 
# from the CCDC's data processing and validation procedures.
#
#######################################################################

data_FUWCAD
_chemical_name_common            
'(1)-(octamethoxy-butoxy-(3-(3,5-di-t-butyl-2-hydroxybenzylideneamino)propylaminocarbonylmethoxy)pillar(5)arene) rotaxane'
_chemical_formula_moiety         'C67 H84 N2 O12'
_chemical_name_systematic        
'(1)-(2-((34-butoxy-9,14,19,24,26,28,30,32-octamethoxyhexacyclo[21.2.2.2^3,6^.2^8,11^.2^13,16^.2^18,21^]pentatriaconta-1(25),3,5,8,10,13,15,18,20,23,26,28,30,32,34-pentadecaen-4-yl)oxy)-N-(3-((3,5-di-t-butyl-2-hydroxybenzylidene)amino)propyl)acetamide) rotaxane'
_symmetry_cell_setting           monoclinic
_symmetry_space_group_name_H-M   'P 21/c'
_symmetry_Int_Tables_number      14
_space_group_name_Hall           '-P 2ybc'
loop_
_symmetry_equiv_pos_site_id
_symmetry_equiv_pos_as_xyz
1 x,y,z
2 -x,1/2+y,1/2-z
3 -x,-y,-z
4 x,1/2-y,1/2+z
_cell_length_a                   19.717(3)
_cell_length_b                   12.169(2)
_cell_length_c                   26.166(4)
_cell_angle_alpha                90
_cell_angle_beta                 98.340(5)
_cell_angle_gamma                90
_cell_volume                     6211.78
_exptl_crystal_colour            yellow
_exptl_crystal_description       block
_cell_formula_units_Z            4
loop_
_atom_site_label
_atom_site_type_symbol
_atom_site_fract_x
_atom_site_fract_y
_atom_site_fract_z
C1 C 0.39461(8) -0.04283(13) 0.18793(5)
H1 H 0.4410 -0.0713 0.1918
H2 H 0.3662 -0.0965 0.2023
C2 C 0.36828(8) -0.02714(12) 0.13104(6)
C3 C 0.29832(8) -0.03502(12) 0.11388(6)
H3 H 0.2686 -0.0527 0.1372
C4 C 0.27228(8) -0.01673(12) 0.06233(6)
C5 C 0.31515(8) 0.01075(12) 0.02705(6)
C6 C 0.38438(9) 0.01769(13) 0.04450(6)
H4 H 0.4141 0.0355 0.0212
C7 C 0.41106(8) -0.00120(13) 0.09590(6)
C8 C 0.15829(9) -0.05708(16) 0.07717(7)
H5 H 0.1688 -0.1313 0.0880
H6 H 0.1119 -0.0533 0.0600
H7 H 0.1635 -0.0098 0.1068
C9 C 0.52660(9) 0.03459(18) 0.08090(7)
H8 H 0.5241 -0.0177 0.0532
H9 H 0.5724 0.0361 0.0993
H10 H 0.5147 0.1062 0.0670
C10 C 0.28776(9) 0.03409(13) -0.02934(6)
H11 H 0.2489 -0.0136 -0.0401
H12 H 0.3230 0.0166 -0.0503
C11 C 0.26562(9) 0.15298(13) -0.03921(5)
C12 C 0.19807(8) 0.18359(13) -0.03962(5)
H13 H 0.1660 0.1304 -0.0343
C13 C 0.17696(8) 0.29110(14) -0.04774(6)
C14 C 0.22355(9) 0.37299(13) -0.05494(5)
C15 C 0.29095(9) 0.34237(14) -0.05556(6)
H14 H 0.3229 0.3957 -0.0611
C16 C 0.31216(9) 0.23439(15) -0.04814(6)
C17 C 0.05926(9) 0.24118(16) -0.04946(7)
H15 H 0.0607 0.1944 -0.0788
H16 H 0.0148 0.2745 -0.0518
H17 H 0.0680 0.1984 -0.0184
C18 C 0.42707(10) 0.2780(2) -0.05868(9)
H18 H 0.4126 0.3121 -0.0915
H19 H 0.4706 0.2429 -0.0591
H20 H 0.4313 0.3328 -0.0320
C19 C 0.20263(10) 0.49270(13) -0.05979(6)
H21 H 0.2316 0.5308 -0.0810
H22 H 0.1556 0.4979 -0.0768
C20 C 0.20863(9) 0.54750(13) -0.00743(6)
C21 C 0.15952(9) 0.53064(13) 0.02441(6)
H23 H 0.1212 0.4883 0.0124
C22 C 0.16541(8) 0.57454(13) 0.07350(6)
C23 C 0.22160(9) 0.63808(12) 0.09276(6)
C24 C 0.26961(9) 0.65897(14) 0.06046(6)
H24 H 0.3066 0.7046 0.0717
C25 C 0.26367(9) 0.61274(14) 0.01115(6)
C26 C 0.06247(11) 0.48583(18) 0.08998(9)
H25 H 0.0353 0.5147 0.0595
H26 H 0.0345 0.4784 0.1169
H27 H 0.0803 0.4152 0.0824
C27 C 0.36618(11) 0.7000(2) -0.00696(9)
H28 H 0.3485 0.7720 -0.0017
H29 H 0.3946 0.7029 -0.0338
H30 H 0.3928 0.6748 0.0245
C28 C 0.23072(9) 0.68159(13) 0.14763(6)
H31 H 0.1859 0.6940 0.1578
H32 H 0.2542 0.7518 0.1487
C29 C 0.27103(8) 0.60418(12) 0.18610(6)
C30 C 0.23905(8) 0.52996(13) 0.21491(6)
H33 H 0.1914 0.5272 0.2104
C31 C 0.27576(8) 0.46000(13) 0.25020(6)
C32 C 0.34684(8) 0.46054(13) 0.25789(6)
C33 C 0.37878(8) 0.53633(13) 0.22940(6)
H34 H 0.4264 0.5399 0.2342
C34 C 0.34197(9) 0.60640(13) 0.19426(6)
C35 C 0.21237(13) 0.4305(2) 0.31744(9)
H35 H 0.2404 0.4894 0.3331
H36 H 0.2080 0.3751 0.3429
H37 H 0.1678 0.4583 0.3039
C36 C 0.44023(9) 0.67339(17) 0.16007(8)
H38 H 0.4680 0.6766 0.1934
H39 H 0.4527 0.7324 0.1389
H40 H 0.4475 0.6044 0.1439
C37 C 0.38662(8) 0.37841(13) 0.29440(6)
H41 H 0.4325 0.4065 0.3054
H42 H 0.3642 0.3701 0.3248
C38 C 0.39148(8) 0.26696(13) 0.26918(6)
C39 C 0.34864(9) 0.18140(14) 0.27881(6)
H43 H 0.3188 0.1911 0.3029
C40 C 0.34928(8) 0.08126(14) 0.25314(6)
C41 C 0.39402(8) 0.06407(13) 0.21771(5)
C42 C 0.43758(8) 0.14975(14) 0.20896(6)
H44 H 0.4683 0.1395 0.1856
C43 C 0.43659(8) 0.24979(13) 0.23398(6)
C44 C 0.26419(10) -0.00081(17) 0.29893(8)
H45 H 0.2345 0.0631 0.2946
H46 H 0.2925 0.0037 0.3324
C45 C 0.22228(13) -0.10421(19) 0.29510(10)
H47 H 0.1941 -0.1026 0.3225
H48 H 0.1914 -0.1018 0.2627
C46 C 0.25848(15) -0.2129(2) 0.29787(11)
H49 H 0.2245 -0.2703 0.2895
H50 H 0.2885 -0.2143 0.2716
C47 C 0.29878(15) -0.2389(4) 0.34731(12)
H51 H 0.3386 -0.1925 0.3527
H52 H 0.3129 -0.3144 0.3475
H53 H 0.2716 -0.2269 0.3744
C48 C 0.52052(8) 0.32935(16) 0.18739(6)
H54 H 0.5453 0.2603 0.1914
H55 H 0.5541 0.3881 0.1920
C49 C 0.48206(8) 0.33548(15) 0.13291(7)
C50 C 0.36980(9) 0.37167(15) 0.08035(6)
H56 H 0.3811 0.3126 0.0582
H57 H 0.3740 0.4406 0.0625
C51 C 0.29696(8) 0.35796(14) 0.09049(6)
H58 H 0.2855 0.4182 0.1120
H59 H 0.2664 0.3618 0.0579
C52 C 0.28535(8) 0.25136(14) 0.11662(7)
H60 H 0.3020 0.1912 0.0975
H61 H 0.3110 0.2513 0.1512
C53 C 0.19257(8) 0.23040(15) 0.16337(6)
H62 H 0.2248 0.2387 0.1928
C54 C 0.12204(8) 0.21297(15) 0.16968(6)
C55 C 0.10375(10) 0.2098(2) 0.21886(7)
H63 H 0.1376 0.2194 0.2472
C56 C 0.03799(10) 0.1930(2) 0.22713(7)
C57 C -0.01136(9) 0.18088(19) 0.18329(7)
H64 H -0.0566 0.1701 0.1884
C58 C 0.00224(8) 0.18375(14) 0.13349(6)
C59 C 0.07083(8) 0.19896(13) 0.12688(6)
C60 C 0.01666(12) 0.1863(3) 0.28110(8)
C61 C 0.07119(13) 0.1388(3) 0.31934(8)
H65 H 0.0552 0.1332 0.3522
H66 H 0.1109 0.1852 0.3226
H67 H 0.0829 0.0670 0.3082
C62 C 0.0076(2) 0.3133(4) 0.29796(13)
H68 H -0.0133 0.3547 0.2686
H69 H 0.0517 0.3439 0.3105
H70 H -0.0209 0.3163 0.3247
C63 C -0.04969(14) 0.1445(4) 0.28351(10)
H71 H -0.0511 0.0679 0.2745
H72 H -0.0826 0.1839 0.2597
H73 H -0.0604 0.1532 0.3179
C64 C -0.05495(8) 0.16839(16) 0.08782(6)
C65 C -0.12501(10) 0.1547(2) 0.10489(8)
H74 H -0.1254 0.0890 0.1252
H75 H -0.1594 0.1495 0.0750
H76 H -0.1344 0.2170 0.1253
C66 C -0.05998(10) 0.26834(17) 0.05209(8)
H77 H -0.0945 0.2555 0.0228
H78 H -0.0166 0.2804 0.0405
H79 H -0.0721 0.3319 0.0705
C67 C -0.03958(11) 0.06657(17) 0.05747(8)
H80 H -0.0339 0.0043 0.0802
H81 H 0.0017 0.0781 0.0428
H82 H -0.0769 0.0533 0.0303
N1 N 0.41760(6) 0.37074(11) 0.12814(5)
H83 H 0.4031 0.3949 0.1555
N2 N 0.21271(6) 0.23500(11) 0.11961(5)
O1 O 0.20312(6) -0.02324(10) 0.04311(4)
O2 O 0.48050(6) 0.00403(11) 0.11485(4)
O3 O 0.10970(6) 0.32401(9) -0.04863(4)
O4 O 0.37850(6) 0.19952(11) -0.04909(5)
O5 O 0.11733(6) 0.55826(10) 0.10629(5)
O6 O 0.31219(7) 0.62832(11) -0.02124(5)
O7 O 0.24228(6) 0.38560(10) 0.27797(4)
O8 O 0.37167(7) 0.68320(10) 0.16592(5)
O9 O 0.30583(7) -0.00469(10) 0.25931(4)
O10 O 0.47853(5) 0.33737(9) 0.22675(4)
O11 O 0.51035(7) 0.30842(13) 0.09626(5)
O12 O 0.08801(5) 0.20210(9) 0.07905(4)
H84 H 0.1292 0.2141 0.0808
loop_
_geom_bond_atom_site_label_1
_geom_bond_atom_site_label_2
_geom_bond_site_symmetry_1
_geom_bond_site_symmetry_2
C1 H1 1_555 1_555
H2 C1 1_555 1_555
C2 C1 1_555 1_555
C3 C2 1_555 1_555
H3 C3 1_555 1_555
C4 C3 1_555 1_555
C5 C4 1_555 1_555
C6 C5 1_555 1_555
H4 C6 1_555 1_555
C7 C2 1_555 1_555
C8 H5 1_555 1_555
H6 C8 1_555 1_555
H7 C8 1_555 1_555
C9 H8 1_555 1_555
H9 C9 1_555 1_555
H10 C9 1_555 1_555
C10 C5 1_555 1_555
H11 C10 1_555 1_555
H12 C10 1_555 1_555
C11 C10 1_555 1_555
C12 C11 1_555 1_555
H13 C12 1_555 1_555
C13 C12 1_555 1_555
C14 C13 1_555 1_555
C15 C14 1_555 1_555
H14 C15 1_555 1_555
C16 C11 1_555 1_555
C17 H15 1_555 1_555
H16 C17 1_555 1_555
H17 C17 1_555 1_555
C18 H18 1_555 1_555
H19 C18 1_555 1_555
H20 C18 1_555 1_555
C19 C14 1_555 1_555
H21 C19 1_555 1_555
H22 C19 1_555 1_555
C20 C19 1_555 1_555
C21 C20 1_555 1_555
H23 C21 1_555 1_555
C22 C21 1_555 1_555
C23 C22 1_555 1_555
C24 C23 1_555 1_555
H24 C24 1_555 1_555
C25 C20 1_555 1_555
C26 H25 1_555 1_555
H26 C26 1_555 1_555
H27 C26 1_555 1_555
C27 H28 1_555 1_555
H29 C27 1_555 1_555
H30 C27 1_555 1_555
C28 C23 1_555 1_555
H31 C28 1_555 1_555
H32 C28 1_555 1_555
C29 C28 1_555 1_555
C30 C29 1_555 1_555
H33 C30 1_555 1_555
C31 C30 1_555 1_555
C32 C31 1_555 1_555
C33 C32 1_555 1_555
H34 C33 1_555 1_555
C34 C29 1_555 1_555
C35 H35 1_555 1_555
H36 C35 1_555 1_555
H37 C35 1_555 1_555
C36 H38 1_555 1_555
H39 C36 1_555 1_555
H40 C36 1_555 1_555
C37 C32 1_555 1_555
H41 C37 1_555 1_555
H42 C37 1_555 1_555
C38 C37 1_555 1_555
C39 C38 1_555 1_555
H43 C39 1_555 1_555
C40 C39 1_555 1_555
C41 C1 1_555 1_555
C42 C41 1_555 1_555
H44 C42 1_555 1_555
C43 C38 1_555 1_555
C44 H45 1_555 1_555
H46 C44 1_555 1_555
C45 C44 1_555 1_555
H47 C45 1_555 1_555
H48 C45 1_555 1_555
C46 C45 1_555 1_555
H49 C46 1_555 1_555
H50 C46 1_555 1_555
C47 C46 1_555 1_555
H51 C47 1_555 1_555
H52 C47 1_555 1_555
H53 C47 1_555 1_555
C48 H54 1_555 1_555
H55 C48 1_555 1_555
C49 C48 1_555 1_555
C50 H56 1_555 1_555
H57 C50 1_555 1_555
C51 C50 1_555 1_555
H58 C51 1_555 1_555
H59 C51 1_555 1_555
C52 C51 1_555 1_555
H60 C52 1_555 1_555
H61 C52 1_555 1_555
C53 H62 1_555 1_555
C54 C53 1_555 1_555
C55 C54 1_555 1_555
H63 C55 1_555 1_555
C56 C55 1_555 1_555
C57 C56 1_555 1_555
H64 C57 1_555 1_555
C58 C57 1_555 1_555
C59 C54 1_555 1_555
C60 C56 1_555 1_555
C61 C60 1_555 1_555
H65 C61 1_555 1_555
H66 C61 1_555 1_555
H67 C61 1_555 1_555
C62 C60 1_555 1_555
H68 C62 1_555 1_555
H69 C62 1_555 1_555
H70 C62 1_555 1_555
C63 C60 1_555 1_555
H71 C63 1_555 1_555
H72 C63 1_555 1_555
H73 C63 1_555 1_555
C64 C58 1_555 1_555
C65 C64 1_555 1_555
H74 C65 1_555 1_555
H75 C65 1_555 1_555
H76 C65 1_555 1_555
C66 C64 1_555 1_555
H77 C66 1_555 1_555
H78 C66 1_555 1_555
H79 C66 1_555 1_555
C67 C64 1_555 1_555
H80 C67 1_555 1_555
H81 C67 1_555 1_555
H82 C67 1_555 1_555
N1 C49 1_555 1_555
H83 N1 1_555 1_555
N2 C52 1_555 1_555
O1 C4 1_555 1_555
O2 C7 1_555 1_555
O3 C13 1_555 1_555
O4 C16 1_555 1_555
O5 C22 1_555 1_555
O6 C25 1_555 1_555
O7 C31 1_555 1_555
O8 C34 1_555 1_555
O9 C40 1_555 1_555
O10 C43 1_555 1_555
O11 C49 1_555 1_555
O12 C59 1_555 1_555
H84 O12 1_555 1_555
C6 C7 1_555 1_555
C8 O1 1_555 1_555
C9 O2 1_555 1_555
C15 C16 1_555 1_555
C17 O3 1_555 1_555
C18 O4 1_555 1_555
C24 C25 1_555 1_555
C26 O5 1_555 1_555
C27 O6 1_555 1_555
C33 C34 1_555 1_555
C35 O7 1_555 1_555
C36 O8 1_555 1_555
C40 C41 1_555 1_555
C42 C43 1_555 1_555
C44 O9 1_555 1_555
C48 O10 1_555 1_555
C50 N1 1_555 1_555
C53 N2 1_555 1_555
C58 C59 1_555 1_555

#END
