
#######################################################################
#
#                 Cambridge Crystallographic Data Centre
#                                CCDC 
#
#######################################################################
#
# If this CIF has been generated from an entry in the Cambridge 
# Structural Database, then it will include bibliographic, chemical, 
# crystal, experimental, refinement or atomic coordinate data resulting 
# from the CCDC's data processing and validation procedures.
#
#######################################################################

data_FUWCIL
_chemical_name_common            
'(1)-(octamethoxy-butoxy-(6-(5-chloro-2-hydroxybenzylideneamino)hexylaminocarbonylmethoxy)pillar(5)arene) rotaxane'
_chemical_formula_moiety         'C62 H73 Cl1 N2 O12'
_chemical_name_systematic        
'(1)-(2-((34-butoxy-9,14,19,24,26,28,30,32-octamethoxyhexacyclo[21.2.2.2^3,6^.2^8,11^.2^13,16^.2^18,21^]pentatriaconta-1(25),3,5,8,10,13,15,18,20,23,26,28,30,32,34-pentadecaen-4-yl)oxy)-N-(6-((5-chloro-2-hydroxybenzylidene)amino)hexyl)acetamide) rotaxane'
_symmetry_cell_setting           triclinic
_symmetry_space_group_name_H-M   'P -1'
_symmetry_Int_Tables_number      2
_space_group_name_Hall           '-P 1'
loop_
_symmetry_equiv_pos_site_id
_symmetry_equiv_pos_as_xyz
1 x,y,z
2 -x,-y,-z
_cell_length_a                   11.88(3)
_cell_length_b                   14.23(3)
_cell_length_c                   17.30(4)
_cell_angle_alpha                86.54(2)
_cell_angle_beta                 73.38(3)
_cell_angle_gamma                77.35(2)
_cell_volume                     2734.39
_exptl_crystal_colour            colorless
_exptl_crystal_description       block
_cell_formula_units_Z            2
loop_
_atom_site_label
_atom_site_type_symbol
_atom_site_fract_x
_atom_site_fract_y
_atom_site_fract_z
C1 C 0.2662(11) 0.9946(10) 0.4945(9)
H1 H 0.2683 0.9809 0.5497
H2 H 0.2292 1.0621 0.4912
C2 C 0.1948(13) 0.9349(11) 0.4720(11)
C3 C 0.1900(12) 0.8464(12) 0.5097(10)
C4 C 0.1203(12) 0.7876(11) 0.4948(10)
H3 H 0.1172 0.7291 0.5216
C5 C 0.0548(12) 0.8162(10) 0.4398(11)
C6 C 0.0639(12) 0.9038(11) 0.4012(10)
C7 C 0.1357(12) 0.9599(11) 0.4189(11)
H4 H 0.1416 1.0178 0.3916
C8 C -0.0004(16) 1.0181(12) 0.3114(10)
H5 H -0.0428 1.0668 0.3515
H6 H -0.0413 1.0225 0.2703
H7 H 0.0799 1.0274 0.2876
C9 C 0.2373(16) 0.7392(14) 0.6122(13)
H8 H 0.1539 0.7363 0.6269
H9 H 0.2615 0.7433 0.6601
H10 H 0.2846 0.6822 0.5825
C10 C -0.0104(12) 0.7530(10) 0.4168(9)
H11 H -0.0812 0.7913 0.4044
H12 H -0.0368 0.7114 0.4619
C11 C 0.0679(9) 0.6899(9) 0.3424(7)
C12 C 0.1387(16) 0.5965(11) 0.3570(15)
C13 C 0.2004(13) 0.5442(12) 0.2937(14)
H13 H 0.2387 0.4821 0.3034
C14 C 0.2154(14) 0.5698(13) 0.2152(12)
C15 C 0.1452(15) 0.6595(13) 0.2017(13)
C16 C 0.0738(12) 0.7092(11) 0.2698(10)
H14 H 0.0222 0.7654 0.2610
C17 C 0.0705(19) 0.697(2) 0.0930(13)
H15 H 0.0698 0.6342 0.0758
H16 H 0.0811 0.7393 0.0474
H17 H -0.0042 0.7219 0.1322
C18 C 0.180(2) 0.4933(14) 0.4620(14)
H18 H 0.1385 0.4422 0.4630
H19 H 0.1873 0.5014 0.5149
H20 H 0.2586 0.4774 0.4246
C19 C 0.2917(14) 0.5097(13) 0.1483(12)
H21 H 0.2589 0.5230 0.1025
H22 H 0.2935 0.4425 0.1629
C20 C 0.4143(13) 0.5266(12) 0.1256(11)
C21 C 0.4990(15) 0.4831(12) 0.1610(12)
C22 C 0.6158(14) 0.5090(13) 0.1361(13)
H23 H 0.6743 0.4786 0.1606
C23 C 0.6427(18) 0.5759(13) 0.0784(12)
C24 C 0.5576(16) 0.6226(15) 0.0412(12)
C25 C 0.4462(14) 0.5929(12) 0.0684(11)
H24 H 0.3874 0.6229 0.0440
C26 C 0.5192(17) 0.7279(13) -0.0573(12)
H25 H 0.5377 0.6908 -0.1056
H26 H 0.5298 0.7923 -0.0714
H27 H 0.4374 0.7296 -0.0268
C27 C 0.5495(17) 0.3704(12) 0.2559(12)
H28 H 0.6099 0.3237 0.2205
H29 H 0.5085 0.3385 0.3025
H30 H 0.5867 0.4162 0.2725
C28 C 0.7620(13) 0.6002(12) 0.0633(11)
H31 H 0.7868 0.6244 0.0088
H32 H 0.8208 0.5427 0.0685
C29 C 0.7569(12) 0.6748(12) 0.1224(11)
C30 C 0.7833(13) 0.6578(13) 0.1913(14)
C31 C 0.7817(11) 0.7287(12) 0.2438(10)
H33 H 0.8026 0.7133 0.2916
C32 C 0.7487(12) 0.8208(12) 0.2222(11)
C33 C 0.7181(12) 0.8412(12) 0.1539(10)
C34 C 0.7232(13) 0.7682(13) 0.1036(10)
H34 H 0.7031 0.7836 0.0555
C35 C 0.6153(19) 0.9634(14) 0.0877(13)
H35 H 0.5844 0.9092 0.0789
H36 H 0.6632 0.9832 0.0372
H37 H 0.5497 1.0156 0.1104
C36 C 0.8554(18) 0.5379(12) 0.2741(13)
H38 H 0.9327 0.5533 0.2661
H39 H 0.8616 0.4700 0.2831
H40 H 0.7990 0.5727 0.3200
C37 C 0.7427(11) 0.8985(11) 0.2812(10)
H41 H 0.7972 0.8732 0.3135
H42 H 0.7697 0.9529 0.2510
C38 C 0.6298(15) 0.9297(11) 0.3315(12)
C39 C 0.5878(12) 0.8836(11) 0.4083(12)
C40 C 0.4785(11) 0.9013(10) 0.4582(10)
H43 H 0.4592 0.8656 0.5051
C41 C 0.3929(10) 0.9747(11) 0.4388(10)
C42 C 0.4226(16) 1.0238(13) 0.3688(11)
C43 C 0.5385(15) 1.0022(11) 0.3182(11)
H44 H 0.5563 1.0392 0.2719
C44 C 0.3692(15) 1.1498(13) 0.2863(15)
H45 H 0.3725 1.1145 0.2392
H46 H 0.4489 1.1608 0.2809
C45 C 0.2801(12) 1.2460(11) 0.2920(14)
H47 H 0.2931 1.2879 0.3293
H48 H 0.2940 1.2767 0.2395
C46 C 0.1525(12) 1.2335(11) 0.3199(14)
H49 H 0.1364 1.2065 0.3739
H50 H 0.1399 1.1892 0.2843
C47 C 0.0663(14) 1.3313(12) 0.3201(14)
H51 H 0.0692 1.3714 0.3619
H52 H -0.0140 1.3217 0.3297
H53 H 0.0900 1.3621 0.2688
C48 C 0.6510(13) 0.7556(11) 0.4958(11)
H54 H 0.6071 0.7998 0.5401
H55 H 0.7255 0.7230 0.5068
C49 C 0.5815(16) 0.6849(14) 0.4948(16)
C50 C 0.4880(19) 0.6103(12) 0.4114(15)
H56 H 0.5224 0.5426 0.4166
H57 H 0.4110 0.6258 0.4519
C51 C 0.4711(18) 0.6274(14) 0.3346(14)
H58 H 0.4262 0.5823 0.3248
H59 H 0.5490 0.6150 0.2947
C52 C 0.4068(17) 0.7266(13) 0.3232(14)
H60 H 0.4460 0.7720 0.3393
H61 H 0.3252 0.7363 0.3582
C53 C 0.4031(16) 0.7468(16) 0.2387(13)
H62 H 0.4851 0.7371 0.2043
H63 H 0.3656 0.6999 0.2228
C54 C 0.3387(19) 0.8443(15) 0.2231(16)
H64 H 0.2582 0.8568 0.2598
H65 H 0.3800 0.8917 0.2338
C55 C 0.331(2) 0.8553(19) 0.1406(13)
H66 H 0.4113 0.8424 0.1038
H67 H 0.2888 0.8085 0.1300
C56 C 0.162(3) 0.961(2) 0.1185(15)
H68 H 0.1247 0.9094 0.1216
C57 C 0.104(2) 1.0524(13) 0.1059(10)
C58 C -0.012(2) 1.0625(15) 0.0998(10)
H69 H -0.0422 1.0082 0.0968
C59 C -0.0834(17) 1.154(2) 0.0984(10)
C60 C -0.038(2) 1.2350(14) 0.1030(11)
H70 H -0.0861 1.2961 0.1020
C61 C 0.078(2) 1.2249(14) 0.1090(11)
H71 H 0.1079 1.2792 0.1121
C62 C 0.1491(16) 1.1336(18) 0.1104(10)
Cl1 Cl -0.2255(9) 1.1674(7) 0.0949(7)
N1 N 0.5687(12) 0.6693(9) 0.4253(11)
H72 H 0.6104 0.6952 0.3838
N2 N 0.270(3) 0.9486(18) 0.1260(12)
O1 O 0.0037(9) 0.9284(8) 0.3468(7)
O2 O 0.2547(10) 0.8200(9) 0.5646(8)
O3 O 0.1619(9) 0.6903(8) 0.1261(8)
O4 O 0.1169(11) 0.5768(8) 0.4387(8)
O5 O 0.5936(11) 0.6869(9) -0.0124(9)
O6 O 0.4699(10) 0.4166(9) 0.2170(8)
O7 O 0.6828(13) 0.9385(9) 0.1382(9)
O8 O 0.8173(11) 0.5631(9) 0.2080(9)
O9 O 0.3327(12) 1.0961(10) 0.3561(10)
O10 O 0.6795(8) 0.8102(8) 0.4242(8)
O11 O 0.5375(12) 0.6488(10) 0.5549(11)
O12 O 0.2573(18) 1.1271(14) 0.1165(14)
H73 H 0.2888 1.0703 0.1204
loop_
_geom_bond_atom_site_label_1
_geom_bond_atom_site_label_2
_geom_bond_site_symmetry_1
_geom_bond_site_symmetry_2
C1 H1 1_555 1_555
H2 C1 1_555 1_555
C2 C1 1_555 1_555
C3 C2 1_555 1_555
C4 C3 1_555 1_555
H3 C4 1_555 1_555
C5 C4 1_555 1_555
C6 C5 1_555 1_555
C7 C2 1_555 1_555
H4 C7 1_555 1_555
C8 H5 1_555 1_555
H6 C8 1_555 1_555
H7 C8 1_555 1_555
C9 H8 1_555 1_555
H9 C9 1_555 1_555
H10 C9 1_555 1_555
C10 C5 1_555 1_555
H11 C10 1_555 1_555
H12 C10 1_555 1_555
C11 C10 1_555 1_555
C12 C11 1_555 1_555
C13 C12 1_555 1_555
H13 C13 1_555 1_555
C14 C13 1_555 1_555
C15 C14 1_555 1_555
C16 C11 1_555 1_555
H14 C16 1_555 1_555
C17 H15 1_555 1_555
H16 C17 1_555 1_555
H17 C17 1_555 1_555
C18 H18 1_555 1_555
H19 C18 1_555 1_555
H20 C18 1_555 1_555
C19 C14 1_555 1_555
H21 C19 1_555 1_555
H22 C19 1_555 1_555
C20 C19 1_555 1_555
C21 C20 1_555 1_555
C22 C21 1_555 1_555
H23 C22 1_555 1_555
C23 C22 1_555 1_555
C24 C23 1_555 1_555
C25 C20 1_555 1_555
H24 C25 1_555 1_555
C26 H25 1_555 1_555
H26 C26 1_555 1_555
H27 C26 1_555 1_555
C27 H28 1_555 1_555
H29 C27 1_555 1_555
H30 C27 1_555 1_555
C28 C23 1_555 1_555
H31 C28 1_555 1_555
H32 C28 1_555 1_555
C29 C28 1_555 1_555
C30 C29 1_555 1_555
C31 C30 1_555 1_555
H33 C31 1_555 1_555
C32 C31 1_555 1_555
C33 C32 1_555 1_555
C34 C29 1_555 1_555
H34 C34 1_555 1_555
C35 H35 1_555 1_555
H36 C35 1_555 1_555
H37 C35 1_555 1_555
C36 H38 1_555 1_555
H39 C36 1_555 1_555
H40 C36 1_555 1_555
C37 C32 1_555 1_555
H41 C37 1_555 1_555
H42 C37 1_555 1_555
C38 C37 1_555 1_555
C39 C38 1_555 1_555
C40 C39 1_555 1_555
H43 C40 1_555 1_555
C41 C1 1_555 1_555
C42 C41 1_555 1_555
C43 C38 1_555 1_555
H44 C43 1_555 1_555
C44 H45 1_555 1_555
H46 C44 1_555 1_555
C45 C44 1_555 1_555
H47 C45 1_555 1_555
H48 C45 1_555 1_555
C46 C45 1_555 1_555
H49 C46 1_555 1_555
H50 C46 1_555 1_555
C47 C46 1_555 1_555
H51 C47 1_555 1_555
H52 C47 1_555 1_555
H53 C47 1_555 1_555
C48 H54 1_555 1_555
H55 C48 1_555 1_555
C49 C48 1_555 1_555
C50 H56 1_555 1_555
H57 C50 1_555 1_555
C51 C50 1_555 1_555
H58 C51 1_555 1_555
H59 C51 1_555 1_555
C52 C51 1_555 1_555
H60 C52 1_555 1_555
H61 C52 1_555 1_555
C53 C52 1_555 1_555
H62 C53 1_555 1_555
H63 C53 1_555 1_555
C54 C53 1_555 1_555
H64 C54 1_555 1_555
H65 C54 1_555 1_555
C55 C54 1_555 1_555
H66 C55 1_555 1_555
H67 C55 1_555 1_555
C56 H68 1_555 1_555
C57 C56 1_555 1_555
C58 C57 1_555 1_555
H69 C58 1_555 1_555
C59 C58 1_555 1_555
C60 C59 1_555 1_555
H70 C60 1_555 1_555
C61 C60 1_555 1_555
H71 C61 1_555 1_555
C62 C57 1_555 1_555
Cl1 C59 1_555 1_555
N1 C49 1_555 1_555
H72 N1 1_555 1_555
N2 C55 1_555 1_555
O1 C6 1_555 1_555
O2 C3 1_555 1_555
O3 C15 1_555 1_555
O4 C12 1_555 1_555
O5 C24 1_555 1_555
O6 C21 1_555 1_555
O7 C33 1_555 1_555
O8 C30 1_555 1_555
O9 C42 1_555 1_555
O10 C39 1_555 1_555
O11 C49 1_555 1_555
O12 C62 1_555 1_555
H73 O12 1_555 1_555
C6 C7 1_555 1_555
C8 O1 1_555 1_555
C9 O2 1_555 1_555
C15 C16 1_555 1_555
C17 O3 1_555 1_555
C18 O4 1_555 1_555
C24 C25 1_555 1_555
C26 O5 1_555 1_555
C27 O6 1_555 1_555
C33 C34 1_555 1_555
C35 O7 1_555 1_555
C36 O8 1_555 1_555
C40 C41 1_555 1_555
C42 C43 1_555 1_555
C44 O9 1_555 1_555
C48 O10 1_555 1_555
C50 N1 1_555 1_555
C56 N2 1_555 1_555
C61 C62 1_555 1_555

#END
