
#######################################################################
#
#                 Cambridge Crystallographic Data Centre
#                                CCDC 
#
#######################################################################
#
# If this CIF has been generated from an entry in the Cambridge 
# Structural Database, then it will include bibliographic, chemical, 
# crystal, experimental, refinement or atomic coordinate data resulting 
# from the CCDC's data processing and validation procedures.
#
#######################################################################

data_FUWDAE
_chemical_formula_moiety         'C26 H24 Br2 N2 O6 S1'
_chemical_name_systematic        
'dimethyl (2-(4-bromophenyl)-3-((((4-bromophenyl)sulfonyl)amino)methyl)-2,3-dihydro-1H-isoindol-1-yl)malonate'
_symmetry_cell_setting           triclinic
_symmetry_space_group_name_H-M   'P -1'
_symmetry_Int_Tables_number      2
_space_group_name_Hall           '-P 1'
loop_
_symmetry_equiv_pos_site_id
_symmetry_equiv_pos_as_xyz
1 x,y,z
2 -x,-y,-z
_cell_length_a                   9.3815(3)
_cell_length_b                   10.5120(3)
_cell_length_c                   13.3213(4)
_cell_angle_alpha                94.651(2)
_cell_angle_beta                 97.224(2)
_cell_angle_gamma                93.867(2)
_cell_volume                     1294.99
_exptl_crystal_colour            colorless
_exptl_crystal_description       block
_cell_formula_units_Z            2
loop_
_atom_site_label
_atom_site_type_symbol
_atom_site_fract_x
_atom_site_fract_y
_atom_site_fract_z
Br1 Br 0.70260(4) 0.51638(3) 0.23034(2)
Br2 Br 0.36217(4) 0.82682(4) 1.00620(3)
S1 S 0.91657(8) 0.58605(6) 0.85572(5)
O1 O 0.6601(2) 0.0404(2) 0.75560(16)
O2 O 0.4884(2) 0.0953(2) 0.63801(16)
O3 O 0.7861(2) -0.17084(19) 0.50702(17)
O4 O 0.5920(2) -0.18627(19) 0.58971(19)
O5 O 0.9287(2) 0.6218(2) 0.75546(16)
O6 O 1.0310(2) 0.6252(2) 0.93692(16)
N1 N 0.8468(3) 0.2268(2) 0.60226(17)
N2 N 0.8946(3) 0.4332(2) 0.85097(18)
H1 H 0.8639 0.4110 0.9057
C1 C 0.7584(3) 0.4257(3) 0.3454(2)
C2 C 0.8028(3) 0.4933(3) 0.4384(2)
H2 H 0.8115 0.5823 0.4442
C3 C 0.8339(3) 0.4274(3) 0.5230(2)
H3 H 0.8636 0.4729 0.5858
C4 C 0.8219(3) 0.2930(3) 0.5161(2)
C5 C 0.7825(3) 0.2281(3) 0.4190(2)
H4 H 0.7777 0.1391 0.4115
C6 C 0.7509(3) 0.2940(3) 0.3349(2)
H5 H 0.7245 0.2497 0.2713
C7 C 0.9211(3) 0.2897(3) 0.6992(2)
H6 H 0.9974 0.3526 0.6867
C8 C 0.9862(3) 0.1797(3) 0.7496(2)
C9 C 0.9456(3) 0.0647(3) 0.6907(2)
C10 C 0.8522(3) 0.0876(2) 0.5942(2)
H7 H 0.9011 0.0615 0.5358
C11 C 0.9886(3) -0.0501(3) 0.7240(2)
H8 H 0.9622 -0.1268 0.6840
C12 C 1.0717(3) -0.0486(3) 0.8179(2)
H9 H 1.1001 -0.1249 0.8418
C13 C 1.1125(4) 0.0666(3) 0.8765(2)
H10 H 1.1681 0.0668 0.9394
C14 C 1.0713(3) 0.1817(3) 0.8420(2)
H11 H 1.1007 0.2588 0.8807
C15 C 0.6979(3) 0.0209(2) 0.5790(2)
H12 H 0.6452 0.0540 0.5196
C16 C 0.6169(3) 0.0521(2) 0.6685(2)
C17 C 0.3995(4) 0.1223(4) 0.7179(3)
H13 H 0.3089 0.1494 0.6888
H14 H 0.4480 0.1890 0.7662
H15 H 0.3829 0.0463 0.7516
C18 C 0.7001(3) -0.1231(3) 0.5547(2)
C19 C 0.5812(5) -0.3240(3) 0.5650(4)
H16 H 0.5643 -0.3427 0.4926
H17 H 0.5027 -0.3624 0.5948
H18 H 0.6694 -0.3578 0.5914
C20 C 0.8152(3) 0.3547(3) 0.7629(2)
H19 H 0.7567 0.4082 0.7213
H20 H 0.7515 0.2899 0.7859
C21 C 0.7586(3) 0.6483(3) 0.8932(2)
C22 C 0.7049(4) 0.7540(3) 0.8483(2)
H21 H 0.7479 0.7880 0.7961
C23 C 0.5866(4) 0.8078(3) 0.8826(3)
H22 H 0.5498 0.8784 0.8539
C24 C 0.5243(3) 0.7555(3) 0.9594(2)
C25 C 0.5776(3) 0.6512(3) 1.0046(2)
H23 H 0.5348 0.6181 1.0572
C26 C 0.6949(3) 0.5970(3) 0.9708(2)
H24 H 0.7310 0.5264 1.0000
loop_
_geom_bond_atom_site_label_1
_geom_bond_atom_site_label_2
_geom_bond_site_symmetry_1
_geom_bond_site_symmetry_2
Br1 C1 1_555 1_555
Br2 C24 1_555 1_555
S1 O5 1_555 1_555
O1 C16 1_555 1_555
O2 C16 1_555 1_555
O3 C18 1_555 1_555
O4 C18 1_555 1_555
O6 S1 1_555 1_555
N1 C4 1_555 1_555
N2 S1 1_555 1_555
H1 N2 1_555 1_555
C1 C2 1_555 1_555
C2 H2 1_555 1_555
C3 C2 1_555 1_555
H3 C3 1_555 1_555
C4 C3 1_555 1_555
C5 C4 1_555 1_555
H4 C5 1_555 1_555
C6 C1 1_555 1_555
H5 C6 1_555 1_555
C7 N1 1_555 1_555
H6 C7 1_555 1_555
C8 C7 1_555 1_555
C9 C8 1_555 1_555
C10 N1 1_555 1_555
H7 C10 1_555 1_555
C11 C9 1_555 1_555
H8 C11 1_555 1_555
C12 C11 1_555 1_555
H9 C12 1_555 1_555
C13 C12 1_555 1_555
H10 C13 1_555 1_555
C14 C8 1_555 1_555
H11 C14 1_555 1_555
C15 C10 1_555 1_555
H12 C15 1_555 1_555
C16 C15 1_555 1_555
C17 O2 1_555 1_555
H13 C17 1_555 1_555
H14 C17 1_555 1_555
H15 C17 1_555 1_555
C18 C15 1_555 1_555
C19 O4 1_555 1_555
H16 C19 1_555 1_555
H17 C19 1_555 1_555
H18 C19 1_555 1_555
C20 N2 1_555 1_555
H19 C20 1_555 1_555
H20 C20 1_555 1_555
C21 S1 1_555 1_555
C22 C21 1_555 1_555
H21 C22 1_555 1_555
C23 C22 1_555 1_555
H22 C23 1_555 1_555
C24 C23 1_555 1_555
C25 C24 1_555 1_555
H23 C25 1_555 1_555
C26 C21 1_555 1_555
H24 C26 1_555 1_555
C5 C6 1_555 1_555
C7 C20 1_555 1_555
C9 C10 1_555 1_555
C13 C14 1_555 1_555
C25 C26 1_555 1_555

#END
