
#######################################################################
#
#                 Cambridge Crystallographic Data Centre
#                                CCDC 
#
#######################################################################
#
# If this CIF has been generated from an entry in the Cambridge 
# Structural Database, then it will include bibliographic, chemical, 
# crystal, experimental, refinement or atomic coordinate data resulting 
# from the CCDC's data processing and validation procedures.
#
#######################################################################

data_FUWFEK
_chemical_formula_moiety         'C25 H15 Br2 N1 O1'
_chemical_name_systematic        
(4-(3,6-Dibromo-9H-carbazol-9-yl)phenyl)(phenyl)methanone
_symmetry_cell_setting           monoclinic
_symmetry_space_group_name_H-M   'C 2/c'
_symmetry_Int_Tables_number      15
_space_group_name_Hall           '-C 2yn'
loop_
_symmetry_equiv_pos_site_id
_symmetry_equiv_pos_as_xyz
1 x,y,z
2 -x,y,1/2-z
3 1/2+x,1/2+y,z
4 1/2-x,1/2+y,1/2-z
5 -x,-y,-z
6 x,-y,1/2+z
7 1/2-x,1/2-y,-z
8 1/2+x,1/2-y,1/2+z
_cell_length_a                   31.880(6)
_cell_length_b                   3.9089(8)
_cell_length_c                   31.929(6)
_cell_angle_alpha                90
_cell_angle_beta                 103.17(3)
_cell_angle_gamma                90
_cell_volume                     3874.21
_exptl_crystal_colour            colorless
_exptl_crystal_description       rod
_cell_formula_units_Z            8
loop_
_atom_site_label
_atom_site_type_symbol
_atom_site_fract_x
_atom_site_fract_y
_atom_site_fract_z
Br1 Br 0.41481(3) 0.3819(2) 0.12860(3)
Br2 Br 0.59053(3) -0.4940(2) -0.01325(3)
O1 O 0.76421(18) -0.1092(19) 0.3232(2)
N1 N 0.5950(2) -0.187(2) 0.1727(2)
C1 C 0.7204(3) -0.261(2) 0.3704(3)
C2 C 0.7539(3) -0.429(3) 0.3988(3)
H1 H 0.7791 -0.4971 0.3897
C3 C 0.7499(3) -0.495(2) 0.4407(3)
H2 H 0.7727 -0.6060 0.4604
C4 C 0.7132(3) -0.401(3) 0.4539(3)
H3 H 0.7101 -0.4575 0.4820
C5 C 0.6801(3) -0.218(3) 0.4252(3)
H4 H 0.6555 -0.1396 0.4345
C6 C 0.6840(3) -0.156(2) 0.3837(3)
H5 H 0.6616 -0.0410 0.3641
C7 C 0.7278(3) -0.179(2) 0.3265(3)
C8 C 0.6916(3) -0.181(2) 0.2877(3)
C9 C 0.6516(3) -0.335(2) 0.2868(2)
H6 H 0.6463 -0.4357 0.3121
C10 C 0.6199(3) -0.339(2) 0.2488(3)
H7 H 0.5928 -0.4429 0.2482
C11 C 0.6278(3) -0.190(2) 0.2115(2)
C12 C 0.6670(3) -0.043(2) 0.2119(3)
H8 H 0.6723 0.0556 0.1865
C13 C 0.6990(2) -0.040(2) 0.2499(2)
H9 H 0.7262 0.0591 0.2500
C14 C 0.5535(2) -0.058(2) 0.1692(3)
C15 C 0.5335(3) 0.060(2) 0.2011(3)
H10 H 0.5476 0.0499 0.2307
C16 C 0.4924(3) 0.193(2) 0.1879(3)
H11 H 0.4783 0.2849 0.2086
C17 C 0.4712(2) 0.192(2) 0.1442(3)
C18 C 0.4903(3) 0.064(2) 0.1124(3)
H12 H 0.4753 0.0578 0.0831
C19 C 0.5317(3) -0.053(2) 0.1254(3)
C20 C 0.5618(2) -0.190(2) 0.1015(3)
C21 C 0.5587(3) -0.260(3) 0.0578(3)
H13 H 0.5329 -0.2136 0.0371
C22 C 0.5942(3) -0.398(2) 0.0456(3)
C23 C 0.6320(3) -0.471(2) 0.0756(3)
H14 H 0.6556 -0.5688 0.0662
C24 C 0.6360(3) -0.401(2) 0.1196(3)
H15 H 0.6620 -0.4454 0.1401
C25 C 0.6008(3) -0.265(2) 0.1315(2)
loop_
_geom_bond_atom_site_label_1
_geom_bond_atom_site_label_2
_geom_bond_site_symmetry_1
_geom_bond_site_symmetry_2
Br1 C17 1_555 1_555
Br2 C22 1_555 1_555
O1 C7 1_555 1_555
N1 C11 1_555 1_555
C1 C2 1_555 1_555
C2 H1 1_555 1_555
C3 C2 1_555 1_555
H2 C3 1_555 1_555
C4 C3 1_555 1_555
H3 C4 1_555 1_555
C5 C4 1_555 1_555
H4 C5 1_555 1_555
C6 C1 1_555 1_555
H5 C6 1_555 1_555
C7 C1 1_555 1_555
C8 C7 1_555 1_555
C9 C8 1_555 1_555
H6 C9 1_555 1_555
C10 C9 1_555 1_555
H7 C10 1_555 1_555
C11 C10 1_555 1_555
C12 C11 1_555 1_555
H8 C12 1_555 1_555
C13 C8 1_555 1_555
H9 C13 1_555 1_555
C14 N1 1_555 1_555
C15 C14 1_555 1_555
H10 C15 1_555 1_555
C16 C15 1_555 1_555
H11 C16 1_555 1_555
C17 C16 1_555 1_555
C18 C17 1_555 1_555
H12 C18 1_555 1_555
C19 C14 1_555 1_555
C20 C19 1_555 1_555
C21 C20 1_555 1_555
H13 C21 1_555 1_555
C22 C21 1_555 1_555
C23 C22 1_555 1_555
H14 C23 1_555 1_555
C24 C23 1_555 1_555
H15 C24 1_555 1_555
C25 N1 1_555 1_555
C5 C6 1_555 1_555
C12 C13 1_555 1_555
C18 C19 1_555 1_555
C20 C25 1_555 1_555
C24 C25 1_555 1_555

#END
