
#######################################################################
#
#                 Cambridge Crystallographic Data Centre
#                                CCDC 
#
#######################################################################
#
# If this CIF has been generated from an entry in the Cambridge 
# Structural Database, then it will include bibliographic, chemical, 
# crystal, experimental, refinement or atomic coordinate data resulting 
# from the CCDC's data processing and validation procedures.
#
#######################################################################

data_FUWFAF
_chemical_formula_moiety         'C17 H17 N5 O2,0.5(C4 H8 O2)'
_chemical_name_systematic        
'N-(2-(3,5-Dimethyl-1H-pyrazol-1-yl)-6-(2-hydroxyphenyl)pyrimidin-4-yl)acetamide 1,4-dioxane solvate'
_symmetry_cell_setting           triclinic
_symmetry_space_group_name_H-M   'P -1'
_symmetry_Int_Tables_number      2
_space_group_name_Hall           '-P 1'
loop_
_symmetry_equiv_pos_site_id
_symmetry_equiv_pos_as_xyz
1 x,y,z
2 -x,-y,-z
_cell_length_a                   8.0030(9)
_cell_length_b                   9.9780(12)
_cell_length_c                   11.6910(14)
_cell_angle_alpha                83.305(2)
_cell_angle_beta                 77.992(2)
_cell_angle_gamma                78.851(2)
_cell_volume                     893.071
_exptl_crystal_colour            colorless
_exptl_crystal_description       plate
_cell_formula_units_Z            2
loop_
_atom_site_label
_atom_site_type_symbol
_atom_site_fract_x
_atom_site_fract_y
_atom_site_fract_z
C1 C 0.4213(3) 1.2943(2) 0.5611(2)
C2 C 0.4811(3) 1.3282(2) 0.4425(2)
H1 H 0.4389 1.4082 0.3973
C3 C 0.6111(3) 1.2253(2) 0.4040(2)
C4 C 0.2792(3) 1.3741(3) 0.6444(2)
H2 H 0.2558 1.3188 0.7190
H3 H 0.1739 1.3973 0.6107
H4 H 0.3151 1.4585 0.6580
C5 C 0.7148(3) 1.2088(3) 0.2840(2)
H5 H 0.6926 1.1276 0.2539
H6 H 0.8385 1.1978 0.2864
H7 H 0.6820 1.2901 0.2324
C6 C 0.7361(3) 1.0072(2) 0.5131(2)
C7 C 0.9542(3) 0.8457(2) 0.4368(2)
C8 C 0.9408(3) 0.7686(2) 0.5433(2)
H8 H 1.0144 0.6829 0.5533
C9 C 0.8155(3) 0.8218(2) 0.6347(2)
C10 C 1.1958(3) 0.6902(2) 0.3253(2)
C11 C 1.3205(3) 0.6893(3) 0.2113(2)
H9 H 1.3996 0.7533 0.2103
H10 H 1.2566 0.7173 0.1470
H11 H 1.3874 0.5967 0.2015
C12 C 0.7854(3) 0.7544(2) 0.7538(2)
C13 C 0.8806(3) 0.6254(3) 0.7814(2)
H12 H 0.9646 0.5813 0.7211
C14 C 0.8571(3) 0.5610(3) 0.8917(2)
H13 H 0.9243 0.4739 0.9077
C15 C 0.7338(3) 0.6243(3) 0.9804(2)
H14 H 0.7157 0.5801 1.0573
C16 C 0.6381(3) 0.7505(3) 0.9567(2)
H15 H 0.5544 0.7930 1.0179
C17 C 0.6615(3) 0.8167(3) 0.8457(2)
N1 N 0.5063(2) 1.1767(2) 0.59837(18)
N2 N 0.6246(2) 1.1333(2) 0.50043(17)
N3 N 0.7122(2) 0.9433(2) 0.61878(17)
N4 N 0.8513(2) 0.9673(2) 0.42002(17)
N5 N 1.0753(2) 0.8092(2) 0.33773(17)
H16 H 1.0755 0.8684 0.2757
O1 O 1.1998(2) 0.59605(18) 0.40036(15)
O2 O 0.5632(2) 0.94162(18) 0.83095(16)
H17 H 0.602(4) 0.965(3) 0.743(3)
C18 C 0.1755(3) 0.9635(3) 0.0035(2)
H18 H 0.2058 0.8748 -0.0326
H19 H 0.2823 0.9847 0.0220
C19 C -0.1054(3) 0.9257(3) 0.0817(2)
H20 H -0.1934 0.9201 0.1547
H21 H -0.0812 0.8363 0.0473
O3 O 0.0496(2) 0.95303(18) 0.10873(14)
C18A C -0.1755(3) 1.0365(3) -0.0035(2)
H18A H -0.2058 1.1252 0.0326
H19A H -0.2823 1.0153 -0.0220
C19A C 0.1054(3) 1.0743(3) -0.0817(2)
H20A H 0.1934 1.0799 -0.1547
H21A H 0.0812 1.1637 -0.0473
O3A O -0.0496(2) 1.04697(18) -0.10873(14)
loop_
_geom_bond_atom_site_label_1
_geom_bond_atom_site_label_2
_geom_bond_site_symmetry_1
_geom_bond_site_symmetry_2
C1 C2 1_555 1_555
C2 H1 1_555 1_555
C3 C2 1_555 1_555
C4 C1 1_555 1_555
H2 C4 1_555 1_555
H3 C4 1_555 1_555
H4 C4 1_555 1_555
C5 C3 1_555 1_555
H5 C5 1_555 1_555
H6 C5 1_555 1_555
H7 C5 1_555 1_555
C6 N2 1_555 1_555
C7 C8 1_555 1_555
C8 H8 1_555 1_555
C9 C8 1_555 1_555
C10 C11 1_555 1_555
C11 H9 1_555 1_555
H10 C11 1_555 1_555
H11 C11 1_555 1_555
C12 C9 1_555 1_555
C13 C12 1_555 1_555
H12 C13 1_555 1_555
C14 C13 1_555 1_555
H13 C14 1_555 1_555
C15 C14 1_555 1_555
H14 C15 1_555 1_555
C16 C15 1_555 1_555
H15 C16 1_555 1_555
C17 C12 1_555 1_555
N1 C1 1_555 1_555
N2 C3 1_555 1_555
N3 C6 1_555 1_555
N4 C6 1_555 1_555
N5 C7 1_555 1_555
H16 N5 1_555 1_555
O1 C10 1_555 1_555
O2 C17 1_555 1_555
H17 O2 1_555 1_555
C18 H18 1_555 1_555
H19 C18 1_555 1_555
C19 H20 1_555 1_555
H21 C19 1_555 1_555
O3 C18 1_555 1_555
C18A C19 1_555 1_555
H18A C18A 1_555 1_555
H19A C18A 1_555 1_555
C19A C18 1_555 1_555
H20A C19A 1_555 1_555
H21A C19A 1_555 1_555
O3A C18A 1_555 1_555
C7 N4 1_555 1_555
C9 N3 1_555 1_555
C10 N5 1_555 1_555
C16 C17 1_555 1_555
N1 N2 1_555 1_555
C19 O3 1_555 1_555
C19A O3A 1_555 1_555

#END
