
#######################################################################
#
#                 Cambridge Crystallographic Data Centre
#                                CCDC 
#
#######################################################################
#
# If this CIF has been generated from an entry in the Cambridge 
# Structural Database, then it will include bibliographic, chemical, 
# crystal, experimental, refinement or atomic coordinate data resulting 
# from the CCDC's data processing and validation procedures.
#
#######################################################################

data_FUWSAS
_chemical_formula_moiety         'C22 H20 Br1 N1 O2'
_chemical_name_systematic        
1-(9-Bromo-5-(phenylethynyl)-1,2,4,4a,5,6-hexahydro[1,4]oxazino[4,3-a]quinolin-5-yl)ethanone
_symmetry_cell_setting           triclinic
_symmetry_space_group_name_H-M   'P -1'
_symmetry_Int_Tables_number      2
_space_group_name_Hall           '-P 1'
loop_
_symmetry_equiv_pos_site_id
_symmetry_equiv_pos_as_xyz
1 x,y,z
2 -x,-y,-z
_cell_length_a                   9.5738(8)
_cell_length_b                   10.0161(8)
_cell_length_c                   20.1161(16)
_cell_angle_alpha                93.144(2)
_cell_angle_beta                 92.573(2)
_cell_angle_gamma                107.028(2)
_cell_volume                     1837.88
_exptl_crystal_colour            colorless
_exptl_crystal_description       block
_cell_formula_units_Z            4
loop_
_atom_site_label
_atom_site_type_symbol
_atom_site_fract_x
_atom_site_fract_y
_atom_site_fract_z
N1 N -0.6265(3) -0.2260(3) 0.07216(13)
Br1 Br -0.35354(4) 0.17298(4) 0.254150(18)
O3 O -0.6876(2) -0.5107(2) 0.02609(11)
O4 O -0.8581(3) -0.3092(3) -0.11360(12)
C23 C -0.6194(3) 0.1452(3) 0.08387(16)
H21 H -0.6609 0.2058 0.0605
C24 C -0.5318(3) 0.1982(3) 0.14151(17)
H22 H -0.5120 0.2932 0.1577
C25 C -0.4746(3) 0.1068(3) 0.17437(16)
C26 C -0.5028(3) -0.0319(3) 0.15204(16)
H23 H -0.4620 -0.0916 0.1764
C27 C -0.5912(3) -0.0847(3) 0.09361(15)
C28 C -0.6490(3) 0.0076(3) 0.05877(15)
C29 C -0.7418(3) -0.0449(3) -0.00510(15)
H24 H -0.6782 -0.0345 -0.0431
H25 H -0.8095 0.0119 -0.0120
C30 C -0.8311(3) -0.2010(3) -0.00262(15)
C31 C -0.7200(3) -0.2822(3) 0.01142(15)
H26 H -0.6561 -0.2743 -0.0270
C32 C -0.7932(3) -0.4370(3) 0.01944(16)
H27 H -0.8511 -0.4471 0.0594
H28 H -0.8611 -0.4781 -0.0199
C33 C -0.5936(4) -0.4569(3) 0.08427(17)
H29 H -0.5186 -0.5068 0.0877
H30 H -0.6515 -0.4740 0.1242
C34 C -0.5187(4) -0.3015(3) 0.08273(17)
H31 H -0.4609 -0.2657 0.1254
H32 H -0.4506 -0.2851 0.0464
C35 C -0.9383(3) -0.2165(3) 0.04936(15)
C36 C -1.0257(3) -0.2303(3) 0.09052(16)
C37 C -1.1250(3) -0.2531(3) 0.14351(15)
C38 C -1.1990(3) -0.3885(4) 0.15880(16)
H33 H -1.1910 -0.4664 0.1318
C39 C -1.2840(4) -0.4098(4) 0.21297(17)
H34 H -1.3318 -0.5026 0.2238
C40 C -1.3002(4) -0.2985(4) 0.25140(17)
H35 H -1.3592 -0.3142 0.2886
C41 C -1.2310(4) -0.1639(4) 0.23596(17)
H36 H -1.2431 -0.0869 0.2623
C42 C -1.1435(3) -0.1401(4) 0.18208(16)
H37 H -1.0963 -0.0471 0.1715
C43 C -0.9096(3) -0.2484(3) -0.07270(15)
C44 C -1.0478(4) -0.2124(4) -0.08735(17)
H38 H -1.0867 -0.2481 -0.1329
H39 H -1.0278 -0.1104 -0.0831
H40 H -1.1198 -0.2549 -0.0557
N2 N -0.1188(3) -0.2642(3) 0.41452(13)
Br2 Br 0.20524(4) 0.10808(3) 0.266275(17)
O1 O -0.1829(2) -0.5390(2) 0.45915(13)
O2 O -0.3578(3) -0.3168(3) 0.58564(12)
C1 C -0.1004(3) 0.1071(3) 0.40484(16)
H1 H -0.1467 0.1714 0.4231
C2 C 0.0004(3) 0.1506(3) 0.35729(16)
H2 H 0.0240 0.2430 0.3430
C3 C 0.0649(3) 0.0549(3) 0.33167(15)
C4 C 0.0298(3) -0.0812(3) 0.35060(15)
H3 H 0.0760 -0.1449 0.3315
C5 C -0.0741(3) -0.1250(3) 0.39820(15)
C6 C -0.1361(3) -0.0265(3) 0.42669(15)
C7 C -0.2360(3) -0.0633(3) 0.48283(16)
H4 H -0.3066 -0.0082 0.4813
H5 H -0.1774 -0.0374 0.5259
C8 C -0.3206(3) -0.2201(3) 0.47897(15)
C9 C -0.2099(3) -0.3044(3) 0.47140(15)
H6 H -0.1440 -0.2857 0.5130
C10 C -0.2865(4) -0.4617(3) 0.46184(18)
H7 H -0.3498 -0.4911 0.4992
H8 H -0.3496 -0.4825 0.4199
C11 C -0.0968(4) -0.5016(4) 0.4038(2)
H9 H -0.1608 -0.5265 0.3622
H10 H -0.0250 -0.5553 0.4019
C12 C -0.0165(4) -0.3470(4) 0.4082(2)
H11 H 0.0551 -0.3236 0.4473
H12 H 0.0381 -0.3235 0.3677
C13 C -0.4358(3) -0.2558(3) 0.42372(15)
C14 C -0.5330(3) -0.2865(3) 0.38113(15)
C15 C -0.6452(3) -0.3272(3) 0.32713(15)
C16 C -0.7219(4) -0.4673(3) 0.31279(17)
H13 H -0.7018 -0.5365 0.3389
C17 C -0.8277(4) -0.5060(4) 0.26051(18)
H14 H -0.8820 -0.6017 0.2515
C18 C -0.8546(3) -0.4058(4) 0.22136(16)
H15 H -0.9264 -0.4330 0.1851
C19 C -0.7773(4) -0.2664(3) 0.23496(16)
H16 H -0.7960 -0.1978 0.2081
C20 C -0.6730(3) -0.2268(3) 0.28754(16)
H17 H -0.6199 -0.1309 0.2968
C21 C -0.3953(3) -0.2471(3) 0.54583(16)
C22 C -0.5101(4) -0.1765(4) 0.56003(18)
H18 H -0.5489 -0.2020 0.6034
H19 H -0.5897 -0.2067 0.5251
H20 H -0.4668 -0.0748 0.5610
loop_
_geom_bond_atom_site_label_1
_geom_bond_atom_site_label_2
_geom_bond_site_symmetry_1
_geom_bond_site_symmetry_2
N1 C27 1_555 1_555
Br1 C25 1_555 1_555
N2 C5 1_555 1_555
Br2 C3 1_555 1_555
O1 C10 1_555 1_555
O2 C21 1_555 1_555
O3 C32 1_555 1_555
O4 C43 1_555 1_555
C1 H1 1_555 1_555
C2 C1 1_555 1_555
H2 C2 1_555 1_555
C3 C2 1_555 1_555
C4 C3 1_555 1_555
H3 C4 1_555 1_555
C5 C4 1_555 1_555
C6 C1 1_555 1_555
C7 C6 1_555 1_555
H4 C7 1_555 1_555
H5 C7 1_555 1_555
C8 C7 1_555 1_555
C9 N2 1_555 1_555
H6 C9 1_555 1_555
C10 C9 1_555 1_555
H7 C10 1_555 1_555
H8 C10 1_555 1_555
C11 O1 1_555 1_555
H9 C11 1_555 1_555
H10 C11 1_555 1_555
C12 N2 1_555 1_555
H11 C12 1_555 1_555
H12 C12 1_555 1_555
C13 C8 1_555 1_555
C14 C13 1_555 1_555
C15 C14 1_555 1_555
C16 C15 1_555 1_555
H13 C16 1_555 1_555
C17 C16 1_555 1_555
H14 C17 1_555 1_555
C18 C17 1_555 1_555
H15 C18 1_555 1_555
C19 C18 1_555 1_555
H16 C19 1_555 1_555
C20 C15 1_555 1_555
H17 C20 1_555 1_555
C21 C8 1_555 1_555
C22 C21 1_555 1_555
H18 C22 1_555 1_555
H19 C22 1_555 1_555
H20 C22 1_555 1_555
C23 H21 1_555 1_555
C24 C23 1_555 1_555
H22 C24 1_555 1_555
C25 C24 1_555 1_555
C26 C25 1_555 1_555
H23 C26 1_555 1_555
C27 C26 1_555 1_555
C28 C23 1_555 1_555
C29 C28 1_555 1_555
H24 C29 1_555 1_555
H25 C29 1_555 1_555
C30 C29 1_555 1_555
C31 N1 1_555 1_555
H26 C31 1_555 1_555
C32 C31 1_555 1_555
H27 C32 1_555 1_555
H28 C32 1_555 1_555
C33 O3 1_555 1_555
H29 C33 1_555 1_555
H30 C33 1_555 1_555
C34 N1 1_555 1_555
H31 C34 1_555 1_555
H32 C34 1_555 1_555
C35 C30 1_555 1_555
C36 C35 1_555 1_555
C37 C36 1_555 1_555
C38 C37 1_555 1_555
H33 C38 1_555 1_555
C39 C38 1_555 1_555
H34 C39 1_555 1_555
C40 C39 1_555 1_555
H35 C40 1_555 1_555
C41 C40 1_555 1_555
H36 C41 1_555 1_555
C42 C37 1_555 1_555
H37 C42 1_555 1_555
C43 C30 1_555 1_555
C44 C43 1_555 1_555
H38 C44 1_555 1_555
H39 C44 1_555 1_555
H40 C44 1_555 1_555
C5 C6 1_555 1_555
C8 C9 1_555 1_555
C11 C12 1_555 1_555
C19 C20 1_555 1_555
C27 C28 1_555 1_555
C30 C31 1_555 1_555
C33 C34 1_555 1_555
C41 C42 1_555 1_555

#END
