
#######################################################################
#
#                 Cambridge Crystallographic Data Centre
#                                CCDC 
#
#######################################################################
#
# If this CIF has been generated from an entry in the Cambridge 
# Structural Database, then it will include bibliographic, chemical, 
# crystal, experimental, refinement or atomic coordinate data resulting 
# from the CCDC's data processing and validation procedures.
#
#######################################################################

data_FUXVOL
_chemical_formula_moiety         'C26 H28 O6 S1'
_chemical_name_systematic        
'dimethyl 6-((4-methylphenyl)sulfonyl)-2-(prop-1-en-2-yl)-2,5-dihydrobiphenyl-4,4(3H)-dicarboxylate'
_symmetry_cell_setting           monoclinic
_symmetry_space_group_name_H-M   'P 21/n'
_symmetry_Int_Tables_number      14
_space_group_name_Hall           '-P 2yn'
loop_
_symmetry_equiv_pos_site_id
_symmetry_equiv_pos_as_xyz
1 x,y,z
2 1/2-x,1/2+y,1/2-z
3 -x,-y,-z
4 1/2+x,1/2-y,1/2+z
_cell_length_a                   10.2181(8)
_cell_length_b                   6.8051(6)
_cell_length_c                   33.7995(19)
_cell_angle_alpha                90
_cell_angle_beta                 91.074(5)
_cell_angle_gamma                90
_cell_volume                     2349.84
_exptl_crystal_colour            'light colorless'
_exptl_crystal_description       block
_cell_formula_units_Z            4
loop_
_atom_site_label
_atom_site_type_symbol
_atom_site_fract_x
_atom_site_fract_y
_atom_site_fract_z
S1 S 0.60504(5) 0.17876(8) 0.114318(15)
O1 O 0.18511(14) 0.1565(3) 0.01824(4)
O2 O 0.03118(14) 0.3436(3) 0.04478(4)
O3 O 0.36905(13) 0.5525(2) 0.03594(4)
O4 O 0.24816(15) 0.7039(2) 0.08122(4)
O5 O 0.61560(13) 0.0858(2) 0.07617(4)
O6 O 0.63841(14) 0.0670(2) 0.14920(4)
C1 C 0.23931(18) 0.3481(3) 0.07674(5)
C2 C 0.35496(18) 0.2065(3) 0.08159(5)
H1 H 0.3225 0.0736 0.0847
H2 H 0.4075 0.2102 0.0580
C3 C 0.43866(17) 0.2614(3) 0.11713(6)
C4 C 0.39495(17) 0.3612(3) 0.14824(5)
C5 C 0.25125(18) 0.4202(3) 0.15113(5)
H3 H 0.2481 0.5641 0.1522
C6 C 0.16511(18) 0.3554(3) 0.11566(5)
H4 H 0.1296 0.2261 0.1210
H5 H 0.0922 0.4458 0.1127
C7 C 0.28437(18) 0.5558(3) 0.06561(5)
C8 C 0.4202(2) 0.7435(3) 0.02426(6)
H6 H 0.4785 0.7270 0.0026
H7 H 0.4667 0.8018 0.0462
H8 H 0.3490 0.8275 0.0163
C9 C 0.15097(19) 0.2698(3) 0.04299(6)
C10 C -0.0622(2) 0.2713(4) 0.01511(7)
H9 H -0.0288 0.2948 -0.0108
H10 H -0.1441 0.3386 0.0178
H11 H -0.0752 0.1328 0.0188
C11 C 0.19368(19) 0.3434(4) 0.18936(6)
C12 C 0.1887(3) 0.1254(5) 0.19476(7)
H12 H 0.1216 0.0712 0.1778
H13 H 0.1696 0.0956 0.2218
H14 H 0.2718 0.0694 0.1882
C13 C 0.1482(3) 0.4674(7) 0.21592(8)
H15 H 0.156(3) 0.617(5) 0.2119(8)
H16 H 0.108(3) 0.419(5) 0.2394(9)
C14 C 0.47883(17) 0.4341(3) 0.18205(5)
C15 C 0.51762(19) 0.6301(3) 0.18268(6)
H17 H 0.4930 0.7128 0.1619
C16 C 0.59262(19) 0.7031(4) 0.21399(6)
H18 H 0.6202 0.8333 0.2139
C17 C 0.6263(2) 0.5812(4) 0.24539(6)
H19 H 0.6757 0.6300 0.2666
C18 C 0.5866(2) 0.3877(4) 0.24528(6)
H20 H 0.6088 0.3067 0.2665
C19 C 0.51373(19) 0.3132(4) 0.21370(6)
H21 H 0.4881 0.1820 0.2137
C20 C 0.70263(17) 0.3915(3) 0.11356(6)
C21 C 0.69628(19) 0.5122(3) 0.08051(6)
H22 H 0.6406 0.4808 0.0594
C22 C 0.7729(2) 0.6792(3) 0.07904(7)
H23 H 0.7681 0.7604 0.0569
C23 C 0.85700(19) 0.7265(3) 0.11040(7)
C24 C 0.86210(19) 0.6034(4) 0.14312(6)
H24 H 0.9185 0.6339 0.1642
C25 C 0.78531(19) 0.4362(4) 0.14519(6)
H25 H 0.7892 0.3555 0.1674
C26 C 0.9406(2) 0.9086(4) 0.10892(8)
H26 H 0.9348 0.9784 0.1335
H27 H 0.9105 0.9914 0.0876
H28 H 1.0300 0.8720 0.1047
loop_
_geom_bond_atom_site_label_1
_geom_bond_atom_site_label_2
_geom_bond_site_symmetry_1
_geom_bond_site_symmetry_2
S1 O5 1_555 1_555
O1 C9 1_555 1_555
O2 C9 1_555 1_555
O3 C7 1_555 1_555
O4 C7 1_555 1_555
O6 S1 1_555 1_555
C1 C2 1_555 1_555
C2 H1 1_555 1_555
H2 C2 1_555 1_555
C3 S1 1_555 1_555
C4 C3 1_555 1_555
C5 C4 1_555 1_555
H3 C5 1_555 1_555
C6 C1 1_555 1_555
H4 C6 1_555 1_555
H5 C6 1_555 1_555
C7 C1 1_555 1_555
C8 O3 1_555 1_555
H6 C8 1_555 1_555
H7 C8 1_555 1_555
H8 C8 1_555 1_555
C9 C1 1_555 1_555
C10 O2 1_555 1_555
H9 C10 1_555 1_555
H10 C10 1_555 1_555
H11 C10 1_555 1_555
C11 C5 1_555 1_555
C12 C11 1_555 1_555
H12 C12 1_555 1_555
H13 C12 1_555 1_555
H14 C12 1_555 1_555
C13 C11 1_555 1_555
H15 C13 1_555 1_555
H16 C13 1_555 1_555
C14 C4 1_555 1_555
C15 C14 1_555 1_555
H17 C15 1_555 1_555
C16 C15 1_555 1_555
H18 C16 1_555 1_555
C17 C16 1_555 1_555
H19 C17 1_555 1_555
C18 C17 1_555 1_555
H20 C18 1_555 1_555
C19 C14 1_555 1_555
H21 C19 1_555 1_555
C20 S1 1_555 1_555
C21 C20 1_555 1_555
H22 C21 1_555 1_555
C22 C21 1_555 1_555
H23 C22 1_555 1_555
C23 C22 1_555 1_555
C24 C23 1_555 1_555
H24 C24 1_555 1_555
C25 C20 1_555 1_555
H25 C25 1_555 1_555
C26 C23 1_555 1_555
H26 C26 1_555 1_555
H27 C26 1_555 1_555
H28 C26 1_555 1_555
C2 C3 1_555 1_555
C5 C6 1_555 1_555
C18 C19 1_555 1_555
C24 C25 1_555 1_555

#END
