
#######################################################################
#
#                 Cambridge Crystallographic Data Centre
#                                CCDC 
#
#######################################################################
#
# If this CIF has been generated from an entry in the Cambridge 
# Structural Database, then it will include bibliographic, chemical, 
# crystal, experimental, refinement or atomic coordinate data resulting 
# from the CCDC's data processing and validation procedures.
#
#######################################################################

data_FUXWOL
_chemical_formula_moiety         'C20 H20 N2 O6 S1'
_chemical_name_systematic        
'(Z)-Dimethyl 2-(2-benzylidene-1-((4-methylphenyl)sulfonyl)hydrazino)but-2-enedioate'
_symmetry_cell_setting           monoclinic
_symmetry_space_group_name_H-M   'P 21/c'
_symmetry_Int_Tables_number      14
_space_group_name_Hall           '-P 2ybc'
loop_
_symmetry_equiv_pos_site_id
_symmetry_equiv_pos_as_xyz
1 x,y,z
2 -x,1/2+y,1/2-z
3 -x,-y,-z
4 x,1/2-y,1/2+z
_cell_length_a                   15.5206(16)
_cell_length_b                   9.8874(11)
_cell_length_c                   13.4767(14)
_cell_angle_alpha                90
_cell_angle_beta                 98.125(2)
_cell_angle_gamma                90
_cell_volume                     2047.35
_exptl_crystal_colour            green
_exptl_crystal_description       prismatic
_cell_formula_units_Z            4
loop_
_atom_site_label
_atom_site_type_symbol
_atom_site_fract_x
_atom_site_fract_y
_atom_site_fract_z
S1 S 0.30201(3) 0.14186(5) 0.44186(3)
N1 N 0.27546(11) 0.17401(17) 0.55395(11)
N2 N 0.20455(11) 0.10030(17) 0.57590(12)
O1 O 0.23253(11) 0.18336(16) 0.36831(11)
O2 O 0.38558(10) 0.20301(15) 0.44432(11)
O3 O 0.16987(14) 0.4105(2) 0.56219(17)
O4 O 0.24983(14) 0.58115(19) 0.63411(15)
O5 O 0.41960(13) 0.06242(16) 0.67391(13)
O6 O 0.47048(11) 0.26544(17) 0.72155(12)
C1 C 0.33219(15) 0.2532(2) 0.62332(15)
C2 C 0.31455(16) 0.3748(2) 0.65069(17)
H1 H 0.3541 0.4152 0.7002
C3 C 0.23623(18) 0.4555(3) 0.60951(19)
C4 C 0.41237(15) 0.1811(2) 0.67522(16)
C5 C 0.18366(13) 0.1112(2) 0.66290(14)
H2 H 0.2154 0.1683 0.7093
C6 C 0.11009(12) 0.03512(19) 0.69156(15)
C7 C 0.09394(15) 0.0417(2) 0.78990(17)
H3 H 0.1293 0.0943 0.8362
C8 C 0.02572(17) -0.0294(3) 0.8191(2)
H4 H 0.0155 -0.0257 0.8854
C9 C -0.02711(17) -0.1053(3) 0.7513(2)
H5 H -0.0734 -0.1527 0.7715
C10 C -0.01248(16) -0.1122(3) 0.6534(2)
H6 H -0.0488 -0.1636 0.6072
C11 C 0.05630(14) -0.0426(2) 0.62405(18)
H7 H 0.0667 -0.0480 0.5579
C12 C 0.31051(13) -0.0345(2) 0.43258(14)
C13 C 0.24234(16) -0.1075(2) 0.38418(16)
H8 H 0.1901 -0.0653 0.3596
C14 C 0.25256(18) -0.2450(2) 0.37245(19)
H9 H 0.2066 -0.2950 0.3390
C15 C 0.32863(17) -0.3097(2) 0.40875(17)
C16 C 0.39526(16) -0.2341(2) 0.45814(17)
H10 H 0.4472 -0.2766 0.4836
C17 C 0.38727(15) -0.0968(2) 0.47098(16)
H11 H 0.4330 -0.0470 0.5050
C18 C 0.3398(2) -0.4592(2) 0.3933(2)
H12 H 0.3528 -0.4750 0.3267
H13 H 0.2871 -0.5054 0.4021
H14 H 0.3867 -0.4923 0.4412
C19 C 0.1796(2) 0.6721(3) 0.6057(3)
H15 H 0.1569 0.6582 0.5364
H16 H 0.2000 0.7634 0.6153
H17 H 0.1346 0.6559 0.6463
C20 C 0.54570(19) 0.2050(3) 0.7804(2)
H18 H 0.5272 0.1485 0.8314
H19 H 0.5832 0.2749 0.8113
H20 H 0.5767 0.1514 0.7377
loop_
_geom_bond_atom_site_label_1
_geom_bond_atom_site_label_2
_geom_bond_site_symmetry_1
_geom_bond_site_symmetry_2
S1 N1 1_555 1_555
N1 N2 1_555 1_555
N2 C5 1_555 1_555
O1 S1 1_555 1_555
O2 S1 1_555 1_555
O3 C3 1_555 1_555
O4 C3 1_555 1_555
O5 C4 1_555 1_555
O6 C4 1_555 1_555
C1 N1 1_555 1_555
C2 C1 1_555 1_555
H1 C2 1_555 1_555
C3 C2 1_555 1_555
C4 C1 1_555 1_555
C5 H2 1_555 1_555
C6 C5 1_555 1_555
C7 C6 1_555 1_555
H3 C7 1_555 1_555
C8 C7 1_555 1_555
H4 C8 1_555 1_555
C9 C8 1_555 1_555
H5 C9 1_555 1_555
C10 C9 1_555 1_555
H6 C10 1_555 1_555
C11 C6 1_555 1_555
H7 C11 1_555 1_555
C12 S1 1_555 1_555
C13 C12 1_555 1_555
H8 C13 1_555 1_555
C14 C13 1_555 1_555
H9 C14 1_555 1_555
C15 C14 1_555 1_555
C16 C15 1_555 1_555
H10 C16 1_555 1_555
C17 C12 1_555 1_555
H11 C17 1_555 1_555
C18 C15 1_555 1_555
H12 C18 1_555 1_555
H13 C18 1_555 1_555
H14 C18 1_555 1_555
C19 O4 1_555 1_555
H15 C19 1_555 1_555
H16 C19 1_555 1_555
H17 C19 1_555 1_555
C20 O6 1_555 1_555
H18 C20 1_555 1_555
H19 C20 1_555 1_555
H20 C20 1_555 1_555
C10 C11 1_555 1_555
C16 C17 1_555 1_555

#END
