
#######################################################################
#
#                 Cambridge Crystallographic Data Centre
#                                CCDC 
#
#######################################################################
#
# If this CIF has been generated from an entry in the Cambridge 
# Structural Database, then it will include bibliographic, chemical, 
# crystal, experimental, refinement or atomic coordinate data resulting 
# from the CCDC's data processing and validation procedures.
#
#######################################################################

data_FUXWUR
_chemical_formula_moiety         'C30 H26 N2 O10'
_chemical_name_systematic        
'Dimethyl 2-((1-(benzoyl(1,4-dimethoxy-1,4-dioxobut-2-en-2-yl)carbohydrazonoyl)-2-naphthyl)oxy)but-2-enedioate'
_symmetry_cell_setting           monoclinic
_symmetry_space_group_name_H-M   'P 21/c'
_symmetry_Int_Tables_number      14
_space_group_name_Hall           '-P 2ybc'
loop_
_symmetry_equiv_pos_site_id
_symmetry_equiv_pos_as_xyz
1 x,y,z
2 -x,1/2+y,1/2-z
3 -x,-y,-z
4 x,1/2-y,1/2+z
_cell_length_a                   11.3843(10)
_cell_length_b                   28.932(3)
_cell_length_c                   8.7987(8)
_cell_angle_alpha                90
_cell_angle_beta                 95.226(2)
_cell_angle_gamma                90
_cell_volume                     2885.99
_exptl_crystal_colour            colorless
_exptl_crystal_description       prismatic
_cell_formula_units_Z            4
loop_
_atom_site_label
_atom_site_type_symbol
_atom_site_fract_x
_atom_site_fract_y
_atom_site_fract_z
O1 O 0.12315(14) 0.09170(6) 0.45470(18)
O2 O 0.1414(2) -0.05123(7) 0.3724(2)
O3 O 0.0477(2) -0.03758(7) 0.1436(2)
O4 O 0.3150(2) 0.02137(13) 0.5386(3)
O5 O 0.15885(17) 0.01299(8) 0.6648(2)
O6 O 0.60526(16) 0.13830(8) 0.0559(2)
O7 O 0.3557(2) 0.04175(8) 0.1102(3)
O8 O 0.4586(2) -0.00672(9) 0.2646(3)
O9 O 0.5638(2) 0.18462(8) 0.3746(3)
O10 O 0.6285(2) 0.12640(8) 0.5145(3)
N1 N 0.31578(17) 0.14550(7) 0.1452(2)
N2 N 0.43309(17) 0.13245(7) 0.1585(2)
C1 C 0.0596(2) 0.17314(8) 0.1342(3)
C2 C 0.1123(3) 0.19938(9) 0.0236(3)
H1 H 0.1936 0.1985 0.0197
C3 C 0.0443(3) 0.22613(12) -0.0779(4)
H2 H 0.0800 0.2430 -0.1510
C4 C -0.0777(3) 0.22851(11) -0.0735(4)
H3 H -0.1227 0.2470 -0.1431
C5 C -0.1302(3) 0.20430(10) 0.0307(4)
H4 H -0.2116 0.2061 0.0326
C6 C -0.0644(2) 0.17604(8) 0.1376(3)
C7 C -0.1214(2) 0.15032(9) 0.2454(3)
H5 H -0.2029 0.1524 0.2460
C8 C -0.0599(2) 0.12282(9) 0.3475(3)
H6 H -0.0981 0.1062 0.4188
C9 C 0.0615(2) 0.11974(8) 0.3444(3)
C10 C 0.1251(2) 0.14327(8) 0.2425(3)
C11 C 0.2521(2) 0.13359(8) 0.2486(3)
H7 H 0.2873 0.1179 0.3330
C12 C 0.1331(2) 0.04589(9) 0.4231(3)
C13 C 0.0871(2) 0.02465(8) 0.2983(3)
H8 H 0.0475 0.0420 0.2207
C14 C 0.0971(3) -0.02481(10) 0.2798(3)
C15 C 0.0398(5) -0.08697(13) 0.1180(6)
H9 H 0.1134 -0.0982 0.0873
H10 H -0.0221 -0.0933 0.0391
H11 H 0.0227 -0.1021 0.2105
C16 C 0.2122(2) 0.02460(10) 0.5483(3)
C17 C 0.2294(3) -0.00746(15) 0.7930(4)
H12 H 0.2571 -0.0372 0.7642
H13 H 0.1821 -0.0109 0.8773
H14 H 0.2955 0.0122 0.8224
C18 C 0.4994(2) 0.14521(9) 0.0428(3)
C19 C 0.4367(2) 0.16610(9) -0.0956(3)
C20 C 0.4692(3) 0.20924(10) -0.1431(3)
H15 H 0.5277 0.2257 -0.0856
C21 C 0.4156(4) 0.22793(11) -0.2750(4)
H16 H 0.4369 0.2573 -0.3053
C22 C 0.3325(4) 0.20420(14) -0.3610(4)
H17 H 0.2981 0.2168 -0.4515
C23 C 0.2986(3) 0.16136(14) -0.3150(4)
H18 H 0.2404 0.1451 -0.3738
C24 C 0.3503(3) 0.14223(11) -0.1822(4)
H19 H 0.3269 0.1132 -0.1512
C25 C 0.4926(3) 0.11063(12) 0.2922(4)
C26 C 0.4882(3) 0.06827(13) 0.3239(4)
H20 H 0.5250 0.0578 0.4161
C27 C 0.4259(3) 0.03483(12) 0.2182(4)
C28 C 0.4095(4) -0.04497(12) 0.1774(5)
H21 H 0.3251 -0.0424 0.1663
H22 H 0.4319 -0.0733 0.2289
H23 H 0.4387 -0.0448 0.0784
C29 C 0.5667(3) 0.14534(11) 0.4020(4)
C30 C 0.6966(3) 0.15681(15) 0.6155(5)
H24 H 0.7317 0.1803 0.5574
H25 H 0.7575 0.1396 0.6731
H26 H 0.6463 0.1710 0.6841
loop_
_geom_bond_atom_site_label_1
_geom_bond_atom_site_label_2
_geom_bond_site_symmetry_1
_geom_bond_site_symmetry_2
O1 C9 1_555 1_555
O2 C14 1_555 1_555
O3 C14 1_555 1_555
O4 C16 1_555 1_555
O5 C16 1_555 1_555
O6 C18 1_555 1_555
O7 C27 1_555 1_555
O8 C27 1_555 1_555
O9 C29 1_555 1_555
O10 C29 1_555 1_555
N1 N2 1_555 1_555
N2 C18 1_555 1_555
C1 C2 1_555 1_555
C2 H1 1_555 1_555
C3 C2 1_555 1_555
H2 C3 1_555 1_555
C4 C3 1_555 1_555
H3 C4 1_555 1_555
C5 C4 1_555 1_555
H4 C5 1_555 1_555
C6 C1 1_555 1_555
C7 C6 1_555 1_555
H5 C7 1_555 1_555
C8 C7 1_555 1_555
H6 C8 1_555 1_555
C9 C8 1_555 1_555
C10 C1 1_555 1_555
C11 N1 1_555 1_555
H7 C11 1_555 1_555
C12 O1 1_555 1_555
C13 C12 1_555 1_555
H8 C13 1_555 1_555
C14 C13 1_555 1_555
C15 O3 1_555 1_555
H9 C15 1_555 1_555
H10 C15 1_555 1_555
H11 C15 1_555 1_555
C16 C12 1_555 1_555
C17 O5 1_555 1_555
H12 C17 1_555 1_555
H13 C17 1_555 1_555
H14 C17 1_555 1_555
C18 C19 1_555 1_555
C19 C20 1_555 1_555
C20 H15 1_555 1_555
C21 C20 1_555 1_555
H16 C21 1_555 1_555
C22 C21 1_555 1_555
H17 C22 1_555 1_555
C23 C22 1_555 1_555
H18 C23 1_555 1_555
C24 C19 1_555 1_555
H19 C24 1_555 1_555
C25 N2 1_555 1_555
C26 C25 1_555 1_555
H20 C26 1_555 1_555
C27 C26 1_555 1_555
C28 O8 1_555 1_555
H21 C28 1_555 1_555
H22 C28 1_555 1_555
H23 C28 1_555 1_555
C29 C25 1_555 1_555
C30 O10 1_555 1_555
H24 C30 1_555 1_555
H25 C30 1_555 1_555
H26 C30 1_555 1_555
C5 C6 1_555 1_555
C9 C10 1_555 1_555
C10 C11 1_555 1_555
C23 C24 1_555 1_555

#END
