
#######################################################################
#
#                 Cambridge Crystallographic Data Centre
#                                CCDC 
#
#######################################################################
#
# If this CIF has been generated from an entry in the Cambridge 
# Structural Database, then it will include bibliographic, chemical, 
# crystal, experimental, refinement or atomic coordinate data resulting 
# from the CCDC's data processing and validation procedures.
#
#######################################################################

data_FUXWUS
_chemical_formula_moiety         'C60 H72 N12 O12,C2 H3 N1'
_chemical_name_systematic        
'6,13,20,27,34,41-hexaisobutyl-2,6,9,13,16,20,23,27,30,34,37,41-dodecaazaheptacyclo[37.3.1.1^4,8^.1^11,15^.1^18,22^.1^25,29^.1^32,36^]octatetraconta-1(42),4,7,11,14,18,21,25,28,32,35,39-dodecaene-3,10,17,24,31,38,43,44,45,46,47,48-dodecone acetonitrile solvate'
_symmetry_cell_setting           rhombohedral
_symmetry_space_group_name_H-M   'R -3'
_symmetry_Int_Tables_number      148
_space_group_name_Hall           '-R 3'
loop_
_symmetry_equiv_pos_site_id
_symmetry_equiv_pos_as_xyz
1 x,y,z
2 -y,x-y,z
3 -x+y,-x,z
4 2/3+x,1/3+y,1/3+z
5 2/3-y,1/3+x-y,1/3+z
6 2/3-x+y,1/3-x,1/3+z
7 1/3+x,2/3+y,2/3+z
8 1/3-y,2/3+x-y,2/3+z
9 1/3-x+y,2/3-x,2/3+z
10 -x,-y,-z
11 y,-x+y,-z
12 x-y,x,-z
13 1/3-x,2/3-y,2/3-z
14 1/3+y,2/3-x+y,2/3-z
15 1/3+x-y,2/3+x,2/3-z
16 2/3-x,1/3-y,1/3-z
17 2/3+y,1/3-x+y,1/3-z
18 2/3+x-y,1/3+x,1/3-z
_cell_length_a                   20.9278(13)
_cell_length_b                   20.9278(13)
_cell_length_c                   11.7428(16)
_cell_angle_alpha                90
_cell_angle_beta                 90
_cell_angle_gamma                120
_cell_volume                     4453.99
_exptl_crystal_colour            colorless
_exptl_crystal_description       Block
_cell_formula_units_Z            3
loop_
_atom_site_label
_atom_site_type_symbol
_atom_site_fract_x
_atom_site_fract_y
_atom_site_fract_z
C11 C 0.3333 0.6667 0.1667
C12 C 0.3333 0.6667 0.0451(9)
N3 N 0.3333 0.6667 -0.0557(12)
C12O C 0.3334 0.6666 0.2882(9)
N3O N 0.3334 0.6666 0.3890(12)
O1 O 0.71624(12) 0.73976(13) 0.1449(3)
C1 C 0.66222(17) 0.49834(18) 0.0740(3)
H1 H 0.6973 0.5330 0.0170
H2 H 0.6367 0.4488 0.0386
C2 C 0.7056(3) 0.4961(3) 0.1735(4)
H3 H 0.6692 0.4620 0.2309
C3 C 0.7503(5) 0.5693(4) 0.2307(8)
H4 H 0.7833 0.6057 0.1750
H5 H 0.7795 0.5648 0.2922
H6 H 0.7172 0.5852 0.2624
C4 C 0.7510(3) 0.4619(4) 0.1372(6)
H7 H 0.7890 0.4947 0.0832
H8 H 0.7189 0.4142 0.1006
H9 H 0.7745 0.4545 0.2041
O2 O 0.44862(14) 0.57563(15) 0.1642(2)
N1 N 0.59072(16) 0.68561(16) 0.1381(3)
H10 H 0.5546(16) 0.694(2) 0.150(4)
C5 C 0.6604(2) 0.7430(2) 0.1563(4)
N2 N 0.6066(2) 0.5204(2) 0.0983(5)
C6 C 0.5384(3) 0.4678(2) 0.1258(5)
H11 H 0.5274 0.4180 0.1273
C7 C 0.4828(2) 0.4830(2) 0.1522(3)
C8 C 0.4965(2) 0.5574(3) 0.1498(3)
C9 C 0.5733(2) 0.6119(2) 0.1287(3)
C10 C 0.6244(2) 0.5914(2) 0.1011(4)
H12 H 0.6734 0.6285 0.0836
O1P O 0.40643(13) 0.35685(18) 0.1884(3)
C1P C 0.16501(18) 0.16945(25) 0.2593(3)
H1P H 0.1997 0.1690 0.3163
H2P H 0.1155 0.1454 0.2947
C2P C 0.1628(3) 0.1238(4) 0.1598(4)
H3P H 0.1287 0.1261 0.1024
C3P C 0.2360(4) 0.1523(6) 0.1026(8)
H4P H 0.2724 0.1557 0.1583
H5P H 0.2315 0.1186 0.0411
H6P H 0.2519 0.2013 0.0709
C4P C 0.1286(4) 0.0442(5) 0.1961(6)
H7P H 0.1614 0.0390 0.2501
H8P H 0.0809 0.0286 0.2327
H9P H 0.1212 0.0133 0.1292
O2P O 0.24230(15) 0.46034(21) 0.1691(2)
N1P N 0.35228(16) 0.42822(23) 0.1952(3)
H10P H 0.361(2) 0.4727(26) 0.183(4)
C5P C 0.4097(2) 0.4159(3) 0.1770(4)
N2P N 0.1871(2) 0.2471(3) 0.2350(5)
C6P C 0.1345(2) 0.2627(4) 0.2075(5)
H11P H 0.0847 0.2239 0.2060
C7P C 0.1497(2) 0.3335(3) 0.1811(3)
C8P C 0.2241(3) 0.3942(4) 0.1835(3)
C9P C 0.2786(2) 0.3719(3) 0.2046(3)
C10P C 0.2581(2) 0.3003(3) 0.2322(4)
H12P H 0.2952 0.2884 0.2497
O1Q O 0.64315(18) 1.04957(12) 0.1884(3)
C1Q C 0.83055(25) 0.99555(17) 0.2593(3)
H1Q H 0.8310 1.0306 0.3163
H2Q H 0.8546 0.9700 0.2947
C2Q C 0.8762(4) 1.0389(3) 0.1598(4)
H3Q H 0.8739 1.0025 0.1024
C3Q C 0.8477(6) 1.0836(5) 0.1026(8)
H4Q H 0.8443 1.1166 0.1583
H5Q H 0.8814 1.1128 0.0411
H6Q H 0.7987 1.0505 0.0709
C4Q C 0.9558(5) 1.0843(3) 0.1961(6)
H7Q H 0.9610 1.1223 0.2501
H8Q H 0.9714 1.0522 0.2327
H9Q H 0.9867 1.1078 0.1292
O2Q O 0.53966(21) 0.78195(14) 0.1691(2)
N1Q N 0.57178(23) 0.92405(16) 0.1952(3)
H10Q H 0.5273(26) 0.8879(16) 0.183(4)
C5Q C 0.5841(3) 0.9937(2) 0.1770(4)
N2Q N 0.7529(3) 0.9399(2) 0.2350(5)
C6Q C 0.7373(4) 0.8717(3) 0.2075(5)
H11Q H 0.7761 0.8607 0.2060
C7Q C 0.6665(3) 0.8161(2) 0.1811(3)
C8Q C 0.6058(4) 0.8298(2) 0.1835(3)
C9Q C 0.6281(3) 0.9066(2) 0.2046(3)
C10Q C 0.6997(3) 0.9577(2) 0.2322(4)
H12Q H 0.7116 1.0067 0.2497
O1A O 0.26024(13) 0.97648(18) 0.1449(3)
C1A C 0.50166(18) 1.16388(25) 0.0740(3)
H1A H 0.4670 1.1643 0.0170
H2A H 0.5512 1.1879 0.0386
C2A C 0.5039(3) 1.2095(4) 0.1735(4)
H3A H 0.5380 1.2072 0.2309
C3A C 0.4307(4) 1.1810(6) 0.2307(8)
H4A H 0.3943 1.1776 0.1750
H5A H 0.4352 1.2147 0.2922
H6A H 0.4148 1.1320 0.2624
C4A C 0.5381(4) 1.2891(5) 0.1372(6)
H7A H 0.5053 1.2943 0.0832
H8A H 0.5858 1.3047 0.1006
H9A H 0.5455 1.3200 0.2041
O2A O 0.42437(15) 0.87299(21) 0.1642(2)
N1A N 0.31439(16) 0.90511(23) 0.1381(3)
H10A H 0.306(2) 0.8606(26) 0.150(4)
C5A C 0.2570(2) 0.9174(3) 0.1563(4)
N2A N 0.4796(2) 1.0862(3) 0.0983(5)
C6A C 0.5322(2) 1.0706(4) 0.1258(5)
H11A H 0.5820 1.1094 0.1273
C7A C 0.5170(2) 0.9998(3) 0.1522(3)
C8A C 0.4426(3) 0.9391(4) 0.1498(3)
C9A C 0.3881(2) 0.9614(3) 0.1287(3)
C10A C 0.4086(2) 1.0330(3) 0.1011(4)
H12A H 0.3715 1.0449 0.0836
O1B O 0.02352(18) 0.28376(12) 0.1449(3)
C1B C -0.16388(25) 0.33778(17) 0.0740(3)
H1B H -0.1643 0.3027 0.0170
H2B H -0.1879 0.3633 0.0386
C2B C -0.2095(4) 0.2944(3) 0.1735(4)
H3B H -0.2072 0.3308 0.2309
C3B C -0.1810(6) 0.2497(5) 0.2307(8)
H4B H -0.1776 0.2167 0.1750
H5B H -0.2147 0.2205 0.2922
H6B H -0.1320 0.2828 0.2624
C4B C -0.2891(5) 0.2490(3) 0.1372(6)
H7B H -0.2943 0.2110 0.0832
H8B H -0.3047 0.2811 0.1006
H9B H -0.3200 0.2255 0.2041
O2B O 0.12701(21) 0.55138(14) 0.1642(2)
N1B N 0.09489(23) 0.40928(16) 0.1381(3)
H10B H 0.1394(26) 0.4454(16) 0.150(4)
C5B C 0.0826(3) 0.3396(2) 0.1563(4)
N2B N -0.0862(3) 0.3934(2) 0.0983(5)
C6B C -0.0706(4) 0.4616(3) 0.1258(5)
H11B H -0.1094 0.4726 0.1273
C7B C 0.0002(3) 0.5172(2) 0.1522(3)
C8B C 0.0609(4) 0.5035(2) 0.1498(3)
C9B C 0.0386(3) 0.4267(2) 0.1287(3)
C10B C -0.0330(3) 0.3756(2) 0.1011(4)
H12B H -0.0449 0.3266 0.0836
O1O O -0.04957(12) 0.59357(13) 0.1884(3)
C1O C 0.00445(17) 0.83499(18) 0.2593(3)
H1O H -0.0306 0.8003 0.3163
H2O H 0.0300 0.8845 0.2947
C2O C -0.0389(3) 0.8372(3) 0.1598(4)
H3O H -0.0025 0.8713 0.1024
C3O C -0.0836(5) 0.7640(4) 0.1026(8)
H4O H -0.1166 0.7276 0.1583
H5O H -0.1128 0.7685 0.0411
H6O H -0.0505 0.7481 0.0709
C4O C -0.0843(3) 0.8714(4) 0.1961(6)
H7O H -0.1223 0.8386 0.2501
H8O H -0.0522 0.9191 0.2327
H9O H -0.1078 0.8788 0.1292
O2O O 0.21805(14) 0.75770(15) 0.1691(2)
N1O N 0.07595(16) 0.64772(16) 0.1952(3)
H10O H 0.1121(16) 0.639(2) 0.183(4)
C5O C 0.0063(2) 0.5903(2) 0.1770(4)
N2O N 0.0601(2) 0.8129(2) 0.2350(5)
C6O C 0.1283(3) 0.8655(2) 0.2075(5)
H11O H 0.1393 0.9153 0.2060
C7O C 0.1839(2) 0.8503(2) 0.1811(3)
C8O C 0.1702(2) 0.7759(3) 0.1835(3)
C9O C 0.0934(2) 0.7214(2) 0.2046(3)
C10O C 0.0423(2) 0.7419(2) 0.2322(4)
H12O H -0.0067 0.7048 0.2497
C13? C 0.7293(15) 0.5433(14) 0.2570(13)
H13? H 0.7736 0.5468 0.2915
H14? H 0.6856 0.4982 0.2834
H15? H 0.7253 0.5863 0.2792
C14? C 0.7803(11) 0.5068(11) 0.1029(18)
H16? H 0.7669 0.4840 0.0273
H17? H 0.7714 0.4689 0.1598
H18? H 0.8327 0.5447 0.1036
C15? C 0.7346(6) 0.5412(9) 0.1305(12)
H19? H 0.7598 0.5929 0.1006
O3? O 0.4847(6) 0.6208(6) 0.1531(7)
N4? N 0.4239(6) 0.4756(6) 0.1783(9)
C16? C 0.6485(11) 0.7199(8) 0.1253(15)
N5? N 0.6138(8) 0.5283(8) 0.1110(17)
C17? C 0.6461(6) 0.6046(7) 0.1033(14)
H20? H 0.6973 0.6339 0.0867
C18? C 0.6037(7) 0.6378(5) 0.1199(10)
C19? C 0.5289(7) 0.5948(7) 0.1442(9)
C20? C 0.4966(6) 0.5186(7) 0.1518(10)
C21? C 0.5391(8) 0.4853(5) 0.1352(14)
H21? H 0.5170 0.4332 0.1405
H22? H 0.6392 0.4456 0.0954
H23? H 0.6686 0.5023 -0.0097
H24? H 0.323(8) 0.698(6) 0.119(7)
loop_
_geom_bond_atom_site_label_1
_geom_bond_atom_site_label_2
_geom_bond_site_symmetry_1
_geom_bond_site_symmetry_2
O1 C5 1_555 1_555
C1 H1 1_555 1_555
H2 C1 1_555 1_555
C2 C1 1_555 1_555
H3 C2 1_555 1_555
C3 C2 1_555 1_555
H4 C3 1_555 1_555
H5 C3 1_555 1_555
H6 C3 1_555 1_555
C4 C2 1_555 1_555
H7 C4 1_555 1_555
H8 C4 1_555 1_555
H9 C4 1_555 1_555
O2 C8 1_555 1_555
N1 H10 1_555 1_555
C5 N1 1_555 1_555
N2 C1 1_555 1_555
C6 N2 1_555 1_555
H11 C6 1_555 1_555
C7 C6 1_555 1_555
C8 C7 1_555 1_555
C9 N1 1_555 1_555
C10 N2 1_555 1_555
H12 C10 1_555 1_555
C11 C12 1_555 1_555
C12 N3 1_555 1_555
O1P C5P 1_555 1_555
C1P H1P 1_555 1_555
H2P C1P 1_555 1_555
C2P C1P 1_555 1_555
H3P C2P 1_555 1_555
C3P C2P 1_555 1_555
H4P C3P 1_555 1_555
H5P C3P 1_555 1_555
H6P C3P 1_555 1_555
C4P C2P 1_555 1_555
H7P C4P 1_555 1_555
H8P C4P 1_555 1_555
H9P C4P 1_555 1_555
O2P C8P 1_555 1_555
N1P H10P 1_555 1_555
C5P C7 1_555 1_555
N2P C1P 1_555 1_555
C6P N2P 1_555 1_555
H11P C6P 1_555 1_555
C7P C6P 1_555 1_555
C8P C7P 1_555 1_555
C9P N1P 1_555 1_555
C10P N2P 1_555 1_555
H12P C10P 1_555 1_555
O1Q C5Q 1_555 1_555
C1Q H1Q 1_555 1_555
H2Q C1Q 1_555 1_555
C2Q C1Q 1_555 1_555
H3Q C2Q 1_555 1_555
C3Q C2Q 1_555 1_555
H4Q C3Q 1_555 1_555
H5Q C3Q 1_555 1_555
H6Q C3Q 1_555 1_555
C4Q C2Q 1_555 1_555
H7Q C4Q 1_555 1_555
H8Q C4Q 1_555 1_555
H9Q C4Q 1_555 1_555
O2Q C8Q 1_555 1_555
N1Q H10Q 1_555 1_555
C5Q N1Q 1_555 1_555
N2Q C1Q 1_555 1_555
C6Q N2Q 1_555 1_555
H11Q C6Q 1_555 1_555
C7Q C5 1_555 1_555
C8Q C7Q 1_555 1_555
C9Q N1Q 1_555 1_555
C10Q N2Q 1_555 1_555
H12Q C10Q 1_555 1_555
O1A C5A 1_555 1_555
C1A H1A 1_555 1_555
H2A C1A 1_555 1_555
C2A C1A 1_555 1_555
H3A C2A 1_555 1_555
C3A C2A 1_555 1_555
H4A C3A 1_555 1_555
H5A C3A 1_555 1_555
H6A C3A 1_555 1_555
C4A C2A 1_555 1_555
H7A C4A 1_555 1_555
H8A C4A 1_555 1_555
H9A C4A 1_555 1_555
O2A C8A 1_555 1_555
N1A H10A 1_555 1_555
C5A N1A 1_555 1_555
N2A C1A 1_555 1_555
C6A N2A 1_555 1_555
H11A C6A 1_555 1_555
C7A C5Q 1_555 1_555
C8A C7A 1_555 1_555
C9A N1A 1_555 1_555
C10A N2A 1_555 1_555
H12A C10A 1_555 1_555
O1B C5B 1_555 1_555
C1B H1B 1_555 1_555
H2B C1B 1_555 1_555
C2B C1B 1_555 1_555
H3B C2B 1_555 1_555
C3B C2B 1_555 1_555
H4B C3B 1_555 1_555
H5B C3B 1_555 1_555
H6B C3B 1_555 1_555
C4B C2B 1_555 1_555
H7B C4B 1_555 1_555
H8B C4B 1_555 1_555
H9B C4B 1_555 1_555
O2B C8B 1_555 1_555
N1B H10B 1_555 1_555
C5B C7P 1_555 1_555
N2B C1B 1_555 1_555
C6B N2B 1_555 1_555
H11B C6B 1_555 1_555
C7B C6B 1_555 1_555
C8B C7B 1_555 1_555
C9B N1B 1_555 1_555
C10B N2B 1_555 1_555
H12B C10B 1_555 1_555
O1O C5O 1_555 1_555
C1O H1O 1_555 1_555
H2O C1O 1_555 1_555
C2O C1O 1_555 1_555
H3O C2O 1_555 1_555
C3O C2O 1_555 1_555
H4O C3O 1_555 1_555
H5O C3O 1_555 1_555
H6O C3O 1_555 1_555
C4O C2O 1_555 1_555
H7O C4O 1_555 1_555
H8O C4O 1_555 1_555
H9O C4O 1_555 1_555
O2O C8O 1_555 1_555
N1O H10O 1_555 1_555
C5O C7B 1_555 1_555
N2O C1O 1_555 1_555
C6O N2O 1_555 1_555
H11O C6O 1_555 1_555
C7O C5A 1_555 1_555
C8O C7O 1_555 1_555
C9O N1O 1_555 1_555
C10O N2O 1_555 1_555
H12O C10O 1_555 1_555
C12O C11 1_555 1_555
N3O C12O 1_555 1_555
C8 C9 1_555 1_555
C9 C10 1_555 1_555
N1P C5P 1_555 1_555
C8P C9P 1_555 1_555
C9P C10P 1_555 1_555
C6Q C7Q 1_555 1_555
C8Q C9Q 1_555 1_555
C9Q C10Q 1_555 1_555
C6A C7A 1_555 1_555
C8A C9A 1_555 1_555
C9A C10A 1_555 1_555
N1B C5B 1_555 1_555
C8B C9B 1_555 1_555
C9B C10B 1_555 1_555
N1O C5O 1_555 1_555
C6O C7O 1_555 1_555
C8O C9O 1_555 1_555
C9O C10O 1_555 1_555

#END
