
#######################################################################
#
#                 Cambridge Crystallographic Data Centre
#                                CCDC 
#
#######################################################################
#
# If this CIF has been generated from an entry in the Cambridge 
# Structural Database, then it will include bibliographic, chemical, 
# crystal, experimental, refinement or atomic coordinate data resulting 
# from the CCDC's data processing and validation procedures.
#
#######################################################################

data_FUXXAZ
_chemical_formula_moiety         'C21 H18 Br1 N1'
_chemical_name_systematic        
2-(2-bromophenyl)-4-phenyl-1,2,3,4-tetrahydroquinoline
_symmetry_cell_setting           monoclinic
_symmetry_space_group_name_H-M   'P 21'
_symmetry_Int_Tables_number      4
_space_group_name_Hall           'P 2yb'
loop_
_symmetry_equiv_pos_site_id
_symmetry_equiv_pos_as_xyz
1 x,y,z
2 -x,1/2+y,-z
_cell_length_a                   10.094(3)
_cell_length_b                   14.285(4)
_cell_length_c                   11.689(3)
_cell_angle_alpha                90
_cell_angle_beta                 90.952(4)
_cell_angle_gamma                90
_cell_volume                     1685.24
_exptl_crystal_colour            colorless
_exptl_crystal_description       block
_cell_formula_units_Z            4
loop_
_atom_site_label
_atom_site_type_symbol
_atom_site_fract_x
_atom_site_fract_y
_atom_site_fract_z
Br1 Br 0.30268(4) 0.58208(3) 1.00787(4)
N1 N 0.2886(4) 0.8826(2) 0.8817(3)
H1 H 0.270(4) 0.901(3) 0.943(4)
C1 C 0.3148(4) 0.7823(3) 0.8804(3)
H2 H 0.2350 0.7484 0.9028
C2 C 0.3518(4) 0.7543(3) 0.7584(3)
H3 H 0.3688 0.6875 0.7556
H4 H 0.4320 0.7867 0.7368
C3 C 0.2390(4) 0.7791(3) 0.6741(3)
H5 H 0.1604 0.7447 0.6984
C4 C 0.2070(3) 0.8831(3) 0.6844(3)
C5 C 0.1547(4) 0.9351(3) 0.5939(3)
H6 H 0.1438 0.9068 0.5227
C6 C 0.1184(4) 1.0282(3) 0.6067(4)
H7 H 0.0840 1.0619 0.5449
C7 C 0.1341(4) 1.0703(3) 0.7130(3)
H8 H 0.1081 1.1322 0.7230
C8 C 0.1877(4) 1.0212(3) 0.8037(3)
H9 H 0.1980 1.0504 0.8744
C9 C 0.2271(4) 0.9274(3) 0.7908(3)
C10 C 0.4270(3) 0.7603(3) 0.9643(3)
C11 C 0.5298(4) 0.8238(3) 0.9812(3)
H10 H 0.5298 0.8790 0.9390
C12 C 0.6324(4) 0.8075(3) 1.0590(3)
H11 H 0.6992 0.8517 1.0690
C13 C 0.6351(4) 0.7257(3) 1.1214(3)
H12 H 0.7028 0.7152 1.1748
C14 C 0.5365(4) 0.6591(3) 1.1045(3)
H13 H 0.5389 0.6030 1.1448
C15 C 0.4342(4) 0.6774(3) 1.0263(3)
C16 C 0.2669(4) 0.7490(3) 0.5528(3)
C17 C 0.3839(4) 0.7723(3) 0.4992(3)
H14 H 0.4479 0.8068 0.5387
C18 C 0.4066(4) 0.7450(3) 0.3875(3)
H15 H 0.4859 0.7606 0.3528
C19 C 0.3112(4) 0.6945(3) 0.3276(3)
H16 H 0.3259 0.6770 0.2522
C20 C 0.1952(4) 0.6703(3) 0.3790(4)
H17 H 0.1312 0.6361 0.3389
C21 C 0.1737(4) 0.6971(3) 0.4913(3)
H18 H 0.0952 0.6800 0.5261
Br2 Br 0.14773(5) 0.35463(4) 0.62506(4)
N2 N 0.1577(4) 0.4003(3) 0.2425(3)
H19 H 0.130(4) 0.455(3) 0.246(4)
C22 C 0.1845(4) 0.3545(3) 0.3523(3)
H20 H 0.1019 0.3496 0.3948
C23 C 0.2379(4) 0.2568(3) 0.3292(3)
H21 H 0.2561 0.2257 0.4015
H22 H 0.3207 0.2619 0.2888
C24 C 0.1402(4) 0.1971(3) 0.2580(3)
H23 H 0.0616 0.1868 0.3045
C25 C 0.0959(4) 0.2513(3) 0.1513(3)
C26 C 0.0448(4) 0.2061(3) 0.0554(4)
H24 H 0.0402 0.1411 0.0551
C27 C 0.0001(4) 0.2553(4) -0.0402(4)
H25 H -0.0335 0.2236 -0.1038
C28 C 0.0062(4) 0.3518(4) -0.0395(3)
H26 H -0.0239 0.3855 -0.1028
C29 C 0.0566(4) 0.3985(4) 0.0544(4)
H27 H 0.0600 0.4636 0.0538
C30 C 0.1028(3) 0.3497(3) 0.1507(3)
C31 C 0.2839(4) 0.4108(3) 0.4214(4)
C32 C 0.3885(4) 0.4572(3) 0.3672(4)
H28 H 0.3928 0.4560 0.2878
C33 C 0.4853(5) 0.5049(3) 0.4296(5)
H29 H 0.5546 0.5339 0.3920
C34 C 0.4789(6) 0.5093(3) 0.5470(5)
H30 H 0.5430 0.5424 0.5882
C35 C 0.3789(5) 0.4654(4) 0.6032(5)
H31 H 0.3751 0.4680 0.6826
C36 C 0.2825(5) 0.4166(3) 0.5403(4)
C37 C 0.2006(4) 0.1023(2) 0.2337(3)
C38 C 0.3097(4) 0.0950(3) 0.1619(3)
H32 H 0.3430 0.1482 0.1265
C39 C 0.3683(4) 0.0087(3) 0.1432(3)
H33 H 0.4394 0.0043 0.0940
C40 C 0.3223(4) -0.0710(3) 0.1968(3)
H34 H 0.3633 -0.1285 0.1854
C41 C 0.2139(4) -0.0639(3) 0.2678(3)
H35 H 0.1814 -0.1169 0.3039
C42 C 0.1542(4) 0.0219(3) 0.2849(3)
H36 H 0.0811 0.0256 0.3321
loop_
_geom_bond_atom_site_label_1
_geom_bond_atom_site_label_2
_geom_bond_site_symmetry_1
_geom_bond_site_symmetry_2
Br1 C15 1_555 1_555
N1 H1 1_555 1_555
C1 N1 1_555 1_555
H2 C1 1_555 1_555
C2 C1 1_555 1_555
H3 C2 1_555 1_555
H4 C2 1_555 1_555
C3 C2 1_555 1_555
H5 C3 1_555 1_555
C4 C3 1_555 1_555
C5 C4 1_555 1_555
H6 C5 1_555 1_555
C6 C5 1_555 1_555
H7 C6 1_555 1_555
C7 C6 1_555 1_555
H8 C7 1_555 1_555
C8 C7 1_555 1_555
H9 C8 1_555 1_555
C9 N1 1_555 1_555
C10 C1 1_555 1_555
C11 C10 1_555 1_555
H10 C11 1_555 1_555
C12 C11 1_555 1_555
H11 C12 1_555 1_555
C13 C12 1_555 1_555
H12 C13 1_555 1_555
C14 C13 1_555 1_555
H13 C14 1_555 1_555
C15 C10 1_555 1_555
C16 C3 1_555 1_555
C17 C16 1_555 1_555
H14 C17 1_555 1_555
C18 C17 1_555 1_555
H15 C18 1_555 1_555
C19 C18 1_555 1_555
H16 C19 1_555 1_555
C20 C19 1_555 1_555
H17 C20 1_555 1_555
C21 C16 1_555 1_555
H18 C21 1_555 1_555
Br2 C36 1_555 1_555
N2 H19 1_555 1_555
C22 N2 1_555 1_555
H20 C22 1_555 1_555
C23 C22 1_555 1_555
H21 C23 1_555 1_555
H22 C23 1_555 1_555
C24 C23 1_555 1_555
H23 C24 1_555 1_555
C25 C24 1_555 1_555
C26 C25 1_555 1_555
H24 C26 1_555 1_555
C27 C26 1_555 1_555
H25 C27 1_555 1_555
C28 C27 1_555 1_555
H26 C28 1_555 1_555
C29 C28 1_555 1_555
H27 C29 1_555 1_555
C30 N2 1_555 1_555
C31 C22 1_555 1_555
C32 C31 1_555 1_555
H28 C32 1_555 1_555
C33 C32 1_555 1_555
H29 C33 1_555 1_555
C34 C33 1_555 1_555
H30 C34 1_555 1_555
C35 C34 1_555 1_555
H31 C35 1_555 1_555
C36 C31 1_555 1_555
C37 C24 1_555 1_555
C38 C37 1_555 1_555
H32 C38 1_555 1_555
C39 C38 1_555 1_555
H33 C39 1_555 1_555
C40 C39 1_555 1_555
H34 C40 1_555 1_555
C41 C40 1_555 1_555
H35 C41 1_555 1_555
C42 C37 1_555 1_555
H36 C42 1_555 1_555
C4 C9 1_555 1_555
C8 C9 1_555 1_555
C14 C15 1_555 1_555
C20 C21 1_555 1_555
C25 C30 1_555 1_555
C29 C30 1_555 1_555
C35 C36 1_555 1_555
C41 C42 1_555 1_555

#END
