
#######################################################################
#
#                 Cambridge Crystallographic Data Centre
#                                CCDC 
#
#######################################################################
#
# If this CIF has been generated from an entry in the Cambridge 
# Structural Database, then it will include bibliographic, chemical, 
# crystal, experimental, refinement or atomic coordinate data resulting 
# from the CCDC's data processing and validation procedures.
#
#######################################################################

data_FUYCEI
_chemical_formula_moiety         'C32 H28 Br1 Cl1 N2 O4 S1,0.5(C4 H10 O1)'
_chemical_name_systematic        
'Methyl 3-(4-bromophenyl)-3-(7-chloro-2-(((4-methylphenyl)sulfonyl)amino)-3-phenyl-1,2-dihydroisoquinolin-1-yl)propanoate diethyl ether solvate'
_symmetry_cell_setting           triclinic
_symmetry_space_group_name_H-M   'P -1'
_symmetry_Int_Tables_number      2
_space_group_name_Hall           '-P 1'
loop_
_symmetry_equiv_pos_site_id
_symmetry_equiv_pos_as_xyz
1 x,y,z
2 -x,-y,-z
_cell_length_a                   12.3918(15)
_cell_length_b                   12.6265(16)
_cell_length_c                   12.6305(15)
_cell_angle_alpha                109.666(2)
_cell_angle_beta                 107.568(2)
_cell_angle_gamma                105.852(2)
_cell_volume                     1612.21
_exptl_crystal_colour            colorless
_exptl_crystal_description       prismatic
_cell_formula_units_Z            2
loop_
_atom_site_label
_atom_site_type_symbol
_atom_site_fract_x
_atom_site_fract_y
_atom_site_fract_z
Br1 Br 1.53509(8) 0.91560(10) 0.67707(8)
S1 S 0.81368(12) 0.45158(11) 0.34644(11)
Cl1 Cl 0.50278(17) 0.78071(18) 0.14972(19)
O1 O 1.1338(5) 1.0231(4) 0.2519(4)
O2 O 1.1407(4) 1.1380(4) 0.4332(4)
O3 O 0.8463(4) 0.4602(3) 0.4689(3)
O4 O 0.7084(3) 0.4726(3) 0.2893(3)
N1 N 0.9361(4) 0.6003(3) 0.2738(3)
N2 N 0.9374(4) 0.5569(4) 0.3621(4)
C1 C 0.9091(5) 0.7104(4) 0.2947(4)
H1 H 0.9062 0.7414 0.3757
C2 C 0.7851(5) 0.6793(4) 0.1935(5)
C3 C 0.7537(5) 0.5933(5) 0.0718(5)
C4 C 0.8269(5) 0.5248(5) 0.0545(4)
H2 H 0.8190 0.4823 -0.0255
C5 C 0.9074(5) 0.5196(4) 0.1506(4)
C6 C 0.7074(5) 0.7347(5) 0.2174(5)
H3 H 0.7263 0.7877 0.2988
C7 C 0.5998(5) 0.7098(5) 0.1175(6)
C8 C 0.5701(6) 0.6323(6) -0.0023(6)
H4 H 0.4998 0.6192 -0.0678
C9 C 0.6457(6) 0.5731(5) -0.0262(5)
H5 H 0.6248 0.5193 -0.1079
C10 C 1.0176(5) 0.8108(4) 0.2982(4)
H6 H 1.0163 0.7799 0.2153
C11 C 0.9971(5) 0.9305(5) 0.3249(5)
H7 H 0.9181 0.9119 0.2603
H8 H 0.9918 0.9591 0.4040
C12 C 1.0971(5) 1.0315(5) 0.3300(5)
C13 C 1.2370(8) 1.2428(6) 0.4459(8)
H9 H 1.3020 1.2203 0.4339
H10 H 1.2707 1.3101 0.5279
H11 H 1.2025 1.2677 0.3845
C14 C 1.1425(5) 0.8347(4) 0.3913(4)
C15 C 1.2371(6) 0.8272(6) 0.3548(6)
H12 H 1.2213 0.8058 0.2719
C16 C 1.3534(6) 0.8503(7) 0.4374(6)
H13 H 1.4150 0.8445 0.4112
C17 C 1.3757(6) 0.8828(6) 0.5621(6)
C18 C 1.2866(6) 0.8926(6) 0.6003(5)
H14 H 1.3028 0.9152 0.6835
C19 C 1.1718(5) 0.8693(5) 0.5159(5)
H15 H 1.1116 0.8770 0.5438
C20 C 0.9763(6) 0.4406(5) 0.1367(5)
C21 C 1.0974(6) 0.4797(6) 0.2243(6)
H16 H 1.1362 0.5576 0.2929
C22 C 1.1604(7) 0.4055(7) 0.2115(7)
H17 H 1.2407 0.4341 0.2722
C23 C 1.1103(10) 0.2948(8) 0.1151(9)
H18 H 1.1556 0.2471 0.1080
C24 C 0.9855(10) 0.2482(7) 0.0214(7)
H19 H 0.9491 0.1701 -0.0464
C25 C 0.9199(7) 0.3226(5) 0.0340(5)
H20 H 0.8391 0.2938 -0.0256
C26 C 0.7940(5) 0.3032(4) 0.2462(4)
C27 C 0.8889(5) 0.2661(5) 0.2774(5)
H21 H 0.9628 0.3183 0.3494
C28 C 0.8717(6) 0.1496(5) 0.1993(5)
H22 H 0.9346 0.1235 0.2211
C29 C 0.7648(7) 0.0706(5) 0.0901(6)
C30 C 0.6699(6) 0.1101(6) 0.0615(6)
H23 H 0.5956 0.0578 -0.0101
C31 C 0.6856(6) 0.2283(5) 0.1400(5)
H24 H 0.6229 0.2550 0.1199
C32 C 0.7514(8) -0.0531(6) 0.0034(7)
H25 H 0.7874 -0.0899 0.0514
H26 H 0.7937 -0.0421 -0.0471
H27 H 0.6647 -0.1062 -0.0495
H33 H 1.008(3) 0.562(4) 0.403(4)
O5 O 0.5000 0.5000 0.5000
C33 C 0.4917(18) 0.4732(16) 0.3901(13)
H28 H 0.5760 0.5119 0.4006
H29 H 0.4468 0.5167 0.3595
C34 C 0.4396(7) 0.3540(6) 0.2920(6)
H30 H 0.4530 0.2979 0.3248
H31 H 0.4781 0.3537 0.2365
H32 H 0.3518 0.3284 0.2473
C33A C 0.5083(18) 0.5268(16) 0.6099(13)
H28A H 0.4240 0.4881 0.5994
H29A H 0.5532 0.4833 0.6405
C34A C 0.5604(7) 0.6460(6) 0.7080(6)
H30A H 0.5470 0.7021 0.6752
H31A H 0.5219 0.6463 0.7635
H32A H 0.6482 0.6716 0.7527
loop_
_geom_bond_atom_site_label_1
_geom_bond_atom_site_label_2
_geom_bond_site_symmetry_1
_geom_bond_site_symmetry_2
Br1 C17 1_555 1_555
S1 O3 1_555 1_555
Cl1 C7 1_555 1_555
O1 C12 1_555 1_555
O2 C12 1_555 1_555
O4 S1 1_555 1_555
O5 C33 1_555 1_555
N1 N2 1_555 1_555
N2 S1 1_555 1_555
C1 N1 1_555 1_555
H1 C1 1_555 1_555
C2 C1 1_555 1_555
C3 C2 1_555 1_555
C4 C3 1_555 1_555
H2 C4 1_555 1_555
C5 N1 1_555 1_555
C6 C2 1_555 1_555
H3 C6 1_555 1_555
C7 C6 1_555 1_555
C8 C7 1_555 1_555
H4 C8 1_555 1_555
C9 C3 1_555 1_555
H5 C9 1_555 1_555
C10 C1 1_555 1_555
H6 C10 1_555 1_555
C11 C10 1_555 1_555
H7 C11 1_555 1_555
H8 C11 1_555 1_555
C12 C11 1_555 1_555
C13 O2 1_555 1_555
H9 C13 1_555 1_555
H10 C13 1_555 1_555
H11 C13 1_555 1_555
C14 C10 1_555 1_555
C15 C14 1_555 1_555
H12 C15 1_555 1_555
C16 C15 1_555 1_555
H13 C16 1_555 1_555
C17 C16 1_555 1_555
C18 C17 1_555 1_555
H14 C18 1_555 1_555
C19 C14 1_555 1_555
H15 C19 1_555 1_555
C20 C5 1_555 1_555
C21 C20 1_555 1_555
H16 C21 1_555 1_555
C22 C21 1_555 1_555
H17 C22 1_555 1_555
C23 C22 1_555 1_555
H18 C23 1_555 1_555
C24 C23 1_555 1_555
H19 C24 1_555 1_555
C25 C20 1_555 1_555
H20 C25 1_555 1_555
C26 S1 1_555 1_555
C27 C26 1_555 1_555
H21 C27 1_555 1_555
C28 C27 1_555 1_555
H22 C28 1_555 1_555
C29 C28 1_555 1_555
C30 C29 1_555 1_555
H23 C30 1_555 1_555
C31 C26 1_555 1_555
H24 C31 1_555 1_555
C32 C29 1_555 1_555
H25 C32 1_555 1_555
H26 C32 1_555 1_555
H27 C32 1_555 1_555
C33 H28 1_555 1_555
H29 C33 1_555 1_555
C34 C33 1_555 1_555
H30 C34 1_555 1_555
H31 C34 1_555 1_555
H32 C34 1_555 1_555
H33 N2 1_555 1_555
C33A O5 1_555 1_555
H28A C33A 1_555 1_555
H29A C33A 1_555 1_555
C34A C33A 1_555 1_555
H30A C34A 1_555 1_555
H31A C34A 1_555 1_555
H32A C34A 1_555 1_555
C4 C5 1_555 1_555
C8 C9 1_555 1_555
C18 C19 1_555 1_555
C24 C25 1_555 1_555
C30 C31 1_555 1_555

#END
