
#######################################################################
#
#                 Cambridge Crystallographic Data Centre
#                                CCDC 
#
#######################################################################
#
# If this CIF has been generated from an entry in the Cambridge 
# Structural Database, then it will include bibliographic, chemical, 
# crystal, experimental, refinement or atomic coordinate data resulting 
# from the CCDC's data processing and validation procedures.
#
#######################################################################

data_FUYHEN
_chemical_formula_moiety         
'C30 H30 N20 O10,2(C1 F3 O3 S1 1-),2(H3 O1 1+),5.25(H2 O1)'
_chemical_name_systematic        
'cucurbit[5]uril bis(trifluoromethanesulfonate) dioxonium hydrate'
_symmetry_cell_setting           orthorhombic
_symmetry_space_group_name_H-M   'P 21 21 21'
_symmetry_Int_Tables_number      19
_space_group_name_Hall           'P 2ac 2ab'
loop_
_symmetry_equiv_pos_site_id
_symmetry_equiv_pos_as_xyz
1 x,y,z
2 1/2-x,-y,1/2+z
3 1/2+x,1/2-y,-z
4 -x,1/2+y,1/2-z
_cell_length_a                   12.322(2)
_cell_length_b                   15.457(3)
_cell_length_c                   27.114(5)
_cell_angle_alpha                90
_cell_angle_beta                 90
_cell_angle_gamma                90
_cell_volume                     5164.16
_exptl_crystal_colour            colorless
_exptl_crystal_description       block
_cell_formula_units_Z            4
loop_
_atom_site_label
_atom_site_type_symbol
_atom_site_fract_x
_atom_site_fract_y
_atom_site_fract_z
C1 C 0.6727(5) 0.9066(3) 0.8314(2)
H1 H 0.6596 0.9689 0.8344
C2 C 0.6971(5) 0.8804(3) 0.7778(2)
H2 H 0.6894 0.9300 0.7556
C3 C 0.5436(4) 0.8064(3) 0.8053(2)
C4 C 0.8509(5) 0.8523(3) 0.8255(2)
C5 C 0.7668(4) 0.6972(4) 0.69267(19)
H3 H 0.7701 0.7250 0.6602
C6 C 0.7907(4) 0.5994(4) 0.68974(19)
H4 H 0.8036 0.5813 0.6556
C7 C 0.6168(4) 0.6188(4) 0.72030(17)
C8 C 0.9234(4) 0.6659(3) 0.73830(19)
C9 C 0.8179(4) 0.3932(3) 0.7639(2)
H5 H 0.8375 0.3476 0.7403
C10 C 0.8101(5) 0.3577(3) 0.8171(2)
H6 H 0.8236 0.2952 0.8181
C11 C 0.6439(5) 0.4138(3) 0.7942(2)
C12 C 0.9451(4) 0.4642(3) 0.8141(2)
C13 C 0.7515(5) 0.4182(4) 0.9500(2)
H7 H 0.7625 0.3641 0.9682
C14 C 0.7202(5) 0.4929(4) 0.9853(2)
H8 H 0.7162 0.4737 1.0197
C15 C 0.5809(4) 0.4713(3) 0.92762(19)
C16 C 0.8854(5) 0.5241(4) 0.9465(2)
C17 C 0.6622(4) 0.7316(4) 0.99207(19)
H9 H 0.6422 0.7409 1.0267
C18 C 0.6515(4) 0.8169(4) 0.9613(2)
H10 H 0.6334 0.8665 0.9822
C19 C 0.5257(4) 0.7170(3) 0.93278(18)
C20 C 0.8302(4) 0.7619(4) 0.9572(2)
C21 C 0.5950(5) 0.7757(4) 0.7209(2)
H11 H 0.6104 0.8170 0.6949
H12 H 0.5188 0.7605 0.7187
C22 C 0.8688(5) 0.8186(4) 0.7376(2)
H13 H 0.9453 0.8265 0.7447
H14 H 0.8516 0.8534 0.7089
C23 C 0.6749(4) 0.4670(4) 0.70990(19)
H15 H 0.7119 0.4405 0.6822
H16 H 0.5977 0.4571 0.7057
C24 C 0.9457(4) 0.5095(4) 0.7262(2)
H17 H 1.0220 0.5213 0.7320
H18 H 0.9401 0.4756 0.6962
C25 C 0.6496(6) 0.3507(3) 0.8771(2)
H19 H 0.6821 0.2964 0.8873
H20 H 0.5733 0.3399 0.8708
C26 C 0.9179(5) 0.3953(4) 0.8958(2)
H21 H 0.9088 0.3350 0.9049
H22 H 0.9933 0.4105 0.9013
C27 C 0.5542(4) 0.5898(4) 0.98656(19)
H23 H 0.5624 0.5898 1.0221
H24 H 0.4781 0.5805 0.9792
C28 C 0.8237(5) 0.6303(4) 1.0075(2)
H25 H 0.9012 0.6397 1.0109
H26 H 0.7942 0.6201 1.0401
C29 C 0.5236(5) 0.8587(3) 0.8915(2)
H27 H 0.5284 0.9165 0.9053
H28 H 0.4475 0.8460 0.8860
C30 C 0.7956(5) 0.8949(4) 0.9088(3)
H29 H 0.7603 0.9480 0.9191
H30 H 0.8732 0.9028 0.9128
N1 N 0.5798(4) 0.8574(3) 0.84448(18)
N2 N 0.6147(4) 0.8161(3) 0.76777(17)
N3 N 0.7722(4) 0.8800(3) 0.8574(2)
N4 N 0.8076(4) 0.8500(3) 0.77842(19)
N5 N 0.6598(4) 0.6985(3) 0.71288(17)
N6 N 0.6954(3) 0.5596(3) 0.70916(16)
N7 N 0.8503(4) 0.7291(3) 0.72575(17)
N8 N 0.8890(3) 0.5904(3) 0.71939(17)
N9 N 0.7104(4) 0.4253(3) 0.75505(16)
N10 N 0.7003(4) 0.3780(3) 0.83149(17)
N11 N 0.9028(3) 0.4585(3) 0.76772(17)
N12 N 0.8932(4) 0.4053(3) 0.84354(16)
N13 N 0.6585(4) 0.4121(3) 0.91748(17)
N14 N 0.6151(4) 0.5209(3) 0.96676(17)
N15 N 0.8516(4) 0.4469(3) 0.92705(18)
N16 N 0.8063(3) 0.5546(3) 0.97768(16)
N17 N 0.5865(3) 0.6738(3) 0.96751(15)
N18 N 0.5660(3) 0.7978(3) 0.92707(16)
N19 N 0.7748(4) 0.7076(3) 0.98727(18)
N20 N 0.7599(4) 0.8246(3) 0.94058(19)
O1 O 0.4636(3) 0.7613(3) 0.80576(15)
O2 O 0.9452(3) 0.8333(3) 0.83577(18)
O3 O 0.5238(3) 0.6028(3) 0.73420(14)
O4 O 1.0073(3) 0.6785(3) 0.76185(16)
O5 O 0.5456(3) 0.4323(2) 0.79531(15)
O6 O 1.0210(3) 0.5100(3) 0.82624(14)
O7 O 0.4933(3) 0.4780(3) 0.90704(15)
O8 O 0.9711(3) 0.5587(3) 0.93847(16)
O9 O 0.4473(3) 0.6874(3) 0.91062(14)
O10 O 0.9271(3) 0.7602(3) 0.94819(17)
O11 O 0.4187(4) 0.5781(3) 0.82458(18)
O12 O 0.0495(4) 0.6764(4) 0.8694(2)
O13 O 0.2389(6) 0.6138(6) 0.9341(3)
O14 O 0.3088(8) 0.6600(7) 0.6877(5)
O15 O 0.8509(6) 0.3904(6) 0.6113(3)
O16 O 0.7538(8) 0.2488(9) 0.6747(9)
O17 O 0.7626(7) 0.9649(9) 0.6604(8)
O18 O 0.7792(7) 0.098(2) 0.7280(5)
O19 O 0.7839(12) 0.7616(19) 0.5658(7)
O20 O 0.713(4) 0.912(3) 0.5968(17)
C31 C 0.5485(8) 1.1276(6) 0.9596(3)
F1 F 0.4919(10) 1.1554(7) 1.0015(2)
F2 F 0.6133(6) 1.1907(6) 0.9548(3)
F3 F 0.5908(12) 1.0569(7) 0.9755(4)
S1 S 0.4545(2) 1.11266(19) 0.91261(10)
O21 O 0.4276(12) 1.1992(7) 0.8943(5)
O22 O 0.3883(9) 1.0511(7) 0.9235(6)
O23 O 0.5298(9) 1.0746(7) 0.8756(3)
C32 C 1.0836(7) 0.6310(5) 0.5435(3)
F4 F 1.1464(6) 0.6989(4) 0.5391(3)
F5 F 1.1287(6) 0.5644(3) 0.5241(2)
F6 F 0.9999(8) 0.6504(5) 0.5140(3)
S2 S 1.0411(2) 0.61576(14) 0.60520(9)
O24 O 1.1300(12) 0.5942(11) 0.6290(3)
O25 O 0.9908(7) 0.6920(4) 0.6207(3)
O26 O 0.9718(8) 0.5417(5) 0.6003(4)
loop_
_geom_bond_atom_site_label_1
_geom_bond_atom_site_label_2
_geom_bond_site_symmetry_1
_geom_bond_site_symmetry_2
C1 H1 1_555 1_555
C2 C1 1_555 1_555
H2 C2 1_555 1_555
C3 N1 1_555 1_555
C4 N3 1_555 1_555
C5 H3 1_555 1_555
C6 C5 1_555 1_555
H4 C6 1_555 1_555
C7 N5 1_555 1_555
C8 N7 1_555 1_555
C9 H5 1_555 1_555
C10 C9 1_555 1_555
H6 C10 1_555 1_555
C11 N9 1_555 1_555
C12 N11 1_555 1_555
C13 H7 1_555 1_555
C14 C13 1_555 1_555
H8 C14 1_555 1_555
C15 N13 1_555 1_555
C16 N15 1_555 1_555
C17 H9 1_555 1_555
C18 C17 1_555 1_555
H10 C18 1_555 1_555
C19 N17 1_555 1_555
C20 N19 1_555 1_555
C21 H11 1_555 1_555
H12 C21 1_555 1_555
C22 H13 1_555 1_555
H14 C22 1_555 1_555
C23 H15 1_555 1_555
H16 C23 1_555 1_555
C24 H17 1_555 1_555
H18 C24 1_555 1_555
C25 H19 1_555 1_555
H20 C25 1_555 1_555
C26 H21 1_555 1_555
H22 C26 1_555 1_555
C27 H23 1_555 1_555
H24 C27 1_555 1_555
C28 H25 1_555 1_555
H26 C28 1_555 1_555
C29 H27 1_555 1_555
H28 C29 1_555 1_555
C30 H29 1_555 1_555
H30 C30 1_555 1_555
N1 C1 1_555 1_555
N2 C2 1_555 1_555
N3 C1 1_555 1_555
N4 C2 1_555 1_555
N5 C5 1_555 1_555
N6 C6 1_555 1_555
N7 C5 1_555 1_555
N8 C6 1_555 1_555
N9 C9 1_555 1_555
N10 C10 1_555 1_555
N11 C9 1_555 1_555
N12 C10 1_555 1_555
N13 C13 1_555 1_555
N14 C14 1_555 1_555
N15 C13 1_555 1_555
N16 C14 1_555 1_555
N17 C17 1_555 1_555
N18 C18 1_555 1_555
N19 C17 1_555 1_555
N20 C18 1_555 1_555
O1 C3 1_555 1_555
O2 C4 1_555 1_555
O3 C7 1_555 1_555
O4 C8 1_555 1_555
O5 C11 1_555 1_555
O6 C12 1_555 1_555
O7 C15 1_555 1_555
O8 C16 1_555 1_555
O9 C19 1_555 1_555
O10 C20 1_555 1_555
C31 F1 1_555 1_555
F2 C31 1_555 1_555
F3 C31 1_555 1_555
S1 C31 1_555 1_555
O21 S1 1_555 1_555
O22 S1 1_555 1_555
O23 S1 1_555 1_555
C32 F4 1_555 1_555
F5 C32 1_555 1_555
F6 C32 1_555 1_555
S2 C32 1_555 1_555
O24 S2 1_555 1_555
O25 S2 1_555 1_555
O26 S2 1_555 1_555
C3 N2 1_555 1_555
C4 N4 1_555 1_555
C7 N6 1_555 1_555
C8 N8 1_555 1_555
C11 N10 1_555 1_555
C12 N12 1_555 1_555
C15 N14 1_555 1_555
C16 N16 1_555 1_555
C19 N18 1_555 1_555
C20 N20 1_555 1_555
C21 N2 1_555 1_555
C21 N5 1_555 1_555
C22 N4 1_555 1_555
C22 N7 1_555 1_555
C23 N6 1_555 1_555
C23 N9 1_555 1_555
C24 N8 1_555 1_555
C24 N11 1_555 1_555
C25 N10 1_555 1_555
C25 N13 1_555 1_555
C26 N12 1_555 1_555
C26 N15 1_555 1_555
C27 N14 1_555 1_555
C27 N17 1_555 1_555
C28 N16 1_555 1_555
C28 N19 1_555 1_555
C29 N1 1_555 1_555
C29 N18 1_555 1_555
C30 N3 1_555 1_555
C30 N20 1_555 1_555

#END
