
#######################################################################
#
#                 Cambridge Crystallographic Data Centre
#                                CCDC 
#
#######################################################################
#
# If this CIF has been generated from an entry in the Cambridge 
# Structural Database, then it will include bibliographic, chemical, 
# crystal, experimental, refinement or atomic coordinate data resulting 
# from the CCDC's data processing and validation procedures.
#
#######################################################################

data_FUYHIR
_chemical_formula_moiety         'C42 H43 N28 O14 1+,C1 F3 O3 S1 1-'
_chemical_name_systematic        'cucurbit[7]urilium trifluoromethanesulfonate'
_symmetry_cell_setting           rhombohedral
_symmetry_space_group_name_H-M   'R -3'
_symmetry_Int_Tables_number      148
_space_group_name_Hall           '-R 3'
loop_
_symmetry_equiv_pos_site_id
_symmetry_equiv_pos_as_xyz
1 x,y,z
2 -y,x-y,z
3 -x+y,-x,z
4 2/3+x,1/3+y,1/3+z
5 2/3-y,1/3+x-y,1/3+z
6 2/3-x+y,1/3-x,1/3+z
7 1/3+x,2/3+y,2/3+z
8 1/3-y,2/3+x-y,2/3+z
9 1/3-x+y,2/3-x,2/3+z
10 -x,-y,-z
11 y,-x+y,-z
12 x-y,x,-z
13 1/3-x,2/3-y,2/3-z
14 1/3+y,2/3-x+y,2/3-z
15 1/3+x-y,2/3+x,2/3-z
16 2/3-x,1/3-y,1/3-z
17 2/3+y,1/3-x+y,1/3-z
18 2/3+x-y,1/3+x,1/3-z
_cell_length_a                   32.3851(9)
_cell_length_b                   32.3851(9)
_cell_length_c                   36.135(2)
_cell_angle_alpha                90
_cell_angle_beta                 90
_cell_angle_gamma                120
_cell_volume                     32820.8
_exptl_crystal_colour            colorless
_exptl_crystal_description       block
_cell_formula_units_Z            18
loop_
_atom_site_label
_atom_site_type_symbol
_atom_site_fract_x
_atom_site_fract_y
_atom_site_fract_z
O1 O 0.18404(15) 0.72624(15) 0.04448(14)
O2 O 0.27220(13) 0.87689(13) -0.07604(10)
O3 O 0.30378(18) 0.77885(17) 0.09341(15)
O4 O 0.3739(2) 0.92986(16) -0.02546(12)
O5 O 0.35500(16) 0.85913(16) 0.16894(12)
O6 O 0.40934(13) 1.01603(14) 0.05567(10)
O7 O 0.28099(15) 0.89969(14) 0.20271(11)
O8 O 0.35623(12) 1.07524(12) 0.10702(10)
O9 O 0.14939(13) 0.87570(12) 0.19253(10)
O10 O 0.23320(12) 1.04980(12) 0.09103(9)
O11 O 0.06738(12) 0.80860(12) 0.12115(9)
O12 O 0.15677(12) 0.98047(11) 0.02487(9)
O13 O 0.07150(13) 0.73068(12) 0.05531(10)
O14 O 0.17803(13) 0.90530(12) -0.04474(10)
N1 N 0.24214(17) 0.75761(17) -0.00128(16)
N2 N 0.16787(16) 0.74111(15) -0.01454(14)
N3 N 0.27596(17) 0.81340(16) -0.05247(14)
N4 N 0.20538(16) 0.80757(15) -0.05870(12)
N5 N 0.3751(2) 0.83983(18) 0.06971(14)
N6 N 0.31830(18) 0.79163(18) 0.03090(16)
N7 N 0.39897(19) 0.90131(17) 0.02340(14)
N8 N 0.35090(18) 0.85083(17) -0.01851(14)
N9 N 0.39716(17) 0.94023(17) 0.16187(12)
N10 N 0.40608(19) 0.89585(17) 0.12070(14)
N11 N 0.42124(15) 1.00460(16) 0.11691(12)
N12 N 0.42518(19) 0.95734(18) 0.07413(13)
N13 N 0.28309(15) 0.97156(14) 0.19563(11)
N14 N 0.35055(16) 0.97007(16) 0.19226(11)
N15 N 0.31710(14) 1.04721(14) 0.16263(11)
N16 N 0.37748(14) 1.03584(14) 0.14919(11)
N17 N 0.13119(14) 0.92907(14) 0.16510(11)
N18 N 0.20220(14) 0.95686(13) 0.19157(11)
N19 N 0.16516(14) 0.99714(13) 0.12321(10)
N20 N 0.23526(13) 1.02642(13) 0.15113(10)
N21 N 0.04909(14) 0.83427(13) 0.06730(10)
N22 N 0.07754(14) 0.88418(14) 0.11529(11)
N23 N 0.09259(14) 0.90412(13) 0.02884(10)
N24 N 0.10675(13) 0.95447(13) 0.07538(11)
N25 N 0.10358(15) 0.75677(14) -0.00279(12)
N26 N 0.06135(14) 0.78560(13) 0.02239(11)
N27 N 0.14114(14) 0.82289(13) -0.04631(11)
N28 N 0.10601(13) 0.85672(13) -0.01537(10)
C1 C 0.1964(2) 0.74062(19) 0.0124(2)
C2 C 0.2442(2) 0.7654(2) -0.04022(19)
H1 H 0.2496 0.7418 -0.0540
C3 C 0.1938(2) 0.75872(19) -0.04868(17)
H2 H 0.1778 0.7359 -0.0695
C4 C 0.25368(19) 0.83665(19) -0.06334(15)
C5 C 0.2770(2) 0.7495(2) 0.0185(2)
H3 H 0.2612 0.7290 0.0402
H4 H 0.2873 0.7318 0.0020
C6 C 0.3275(2) 0.8348(2) -0.05403(17)
H5 H 0.3353 0.8111 -0.0643
H6 H 0.3405 0.8623 -0.0712
C7 C 0.3307(3) 0.8015(3) 0.0675(2)
C8 C 0.3954(2) 0.8565(2) 0.03451(18)
H7 H 0.4267 0.8577 0.0321
C9 C 0.3580(2) 0.8205(2) 0.00649(18)
H8 H 0.3698 0.8012 -0.0065
C10 C 0.3738(2) 0.8972(2) -0.00876(18)
C11 C 0.4020(3) 0.8528(2) 0.10377(18)
H9 H 0.4343 0.8581 0.0987
H10 H 0.3863 0.8260 0.1215
C12 C 0.4353(2) 0.9465(2) 0.03759(18)
H11 H 0.4393 0.9719 0.0203
H12 H 0.4659 0.9465 0.0384
C13 C 0.3828(2) 0.8956(2) 0.15218(16)
C14 C 0.43408(19) 0.9744(2) 0.13788(15)
H13 H 0.4647 0.9936 0.1515
C15 C 0.4385(2) 0.9434(2) 0.10854(18)
H14 H 0.4718 0.9492 0.1072
C16 C 0.41731(18) 0.9948(2) 0.07975(16)
C17 C 0.3836(2) 0.9523(2) 0.19642(15)
H15 H 0.4127 0.9769 0.2091
H16 H 0.3688 0.9237 0.2124
C18 C 0.42149(17) 1.04600(18) 0.13192(14)
H17 H 0.4475 1.0611 0.1504
H18 H 0.4286 1.0693 0.1117
C19 C 0.3027(2) 0.9426(2) 0.19712(14)
C20 C 0.31995(17) 1.02100(17) 0.19451(13)
H19 H 0.3219 1.0377 0.2183
C21 C 0.36534(18) 1.01944(18) 0.18698(14)
H20 H 0.3914 1.0403 0.2045
C22 C 0.35027(17) 1.05433(18) 0.13649(14)
C23 C 0.23769(17) 0.95650(18) 0.21478(14)
H21 H 0.2254 0.9239 0.2246
H22 H 0.2436 0.9780 0.2361
C24 C 0.28381(16) 1.06373(16) 0.15929(15)
H23 H 0.2947 1.0880 0.1394
H24 H 0.2837 1.0795 0.1827
C25 C 0.15971(19) 0.91609(18) 0.18353(13)
C26 C 0.15285(16) 0.98000(15) 0.16083(13)
H25 H 0.1334 0.9923 0.1730
C27 C 0.20190(16) 0.99950(15) 0.17974(12)
H26 H 0.2051 1.0202 0.2013
C28 C 0.21304(17) 1.02656(16) 0.11851(13)
C29 C 0.08329(17) 0.89562(18) 0.15417(13)
H27 H 0.0625 0.9088 0.1608
H28 H 0.0723 0.8658 0.1684
C30 C 0.13061(17) 0.99680(16) 0.09702(13)
H29 H 0.1065 1.0008 0.1109
H30 H 0.1473 1.0245 0.0802
C31 C 0.06519(16) 0.83928(18) 0.10307(14)
C32 C 0.05223(17) 0.87748(16) 0.05344(13)
H31 H 0.0216 0.8717 0.0422
C33 C 0.06584(17) 0.90961(17) 0.08794(14)
H32 H 0.0390 0.9142 0.0964
C34 C 0.12251(18) 0.94976(17) 0.04136(13)
C35 C 0.02843(17) 0.78980(16) 0.04744(13)
H33 H 0.0008 0.7862 0.0330
H34 H 0.0163 0.7633 0.0655
C36 C 0.09271(18) 0.89217(16) -0.00968(12)
H35 H 0.0605 0.8805 -0.0201
H36 H 0.1151 0.9214 -0.0234
C37 C 0.07845(17) 0.75520(17) 0.02768(14)
C38 C 0.09744(17) 0.78312(16) -0.03324(13)
H37 H 0.0784 0.7614 -0.0539
C39 C 0.07108(17) 0.80560(16) -0.01466(13)
H38 H 0.0412 0.7981 -0.0282
C40 C 0.14528(18) 0.86535(18) -0.03660(14)
C41 C 0.11839(19) 0.72181(18) -0.01009(17)
H39 H 0.1075 0.6987 0.0106
H40 H 0.1022 0.7040 -0.0328
C42 C 0.17070(19) 0.81865(19) -0.07417(14)
H41 H 0.1877 0.8490 -0.0881
H42 H 0.1501 0.7933 -0.0918
C43 C 0.4325(3) 1.1751(3) 0.1865(2)
S1 S 0.48137(8) 1.21107(8) 0.15201(6)
O15 O 0.4798(5) 1.2483(3) 0.1389(3)
O16 O 0.4854(2) 1.17776(19) 0.13047(17)
O17 O 0.5236(3) 1.2275(4) 0.1784(3)
F1 F 0.4303(3) 1.1385(2) 0.1966(2)
F2 F 0.4315(3) 1.2043(2) 0.21042(19)
F3 F 0.3926(2) 1.1615(2) 0.1639(2)
O18? O 0.4542(4) 1.2289(4) 0.1291(3)
O19? O 0.5206(3) 1.2532(3) 0.1638(3)
loop_
_geom_bond_atom_site_label_1
_geom_bond_atom_site_label_2
_geom_bond_site_symmetry_1
_geom_bond_site_symmetry_2
O1 C1 1_555 1_555
O2 C4 1_555 1_555
O3 C7 1_555 1_555
O4 C10 1_555 1_555
O5 C13 1_555 1_555
O6 C16 1_555 1_555
O7 C19 1_555 1_555
O8 C22 1_555 1_555
O9 C25 1_555 1_555
O10 C28 1_555 1_555
O11 C31 1_555 1_555
O12 C34 1_555 1_555
O13 C37 1_555 1_555
O14 C40 1_555 1_555
N1 C1 1_555 1_555
N2 C1 1_555 1_555
N3 C2 1_555 1_555
N4 C3 1_555 1_555
N5 C7 1_555 1_555
N6 C5 1_555 1_555
N7 C8 1_555 1_555
N8 C6 1_555 1_555
N9 C13 1_555 1_555
N10 C11 1_555 1_555
N11 C14 1_555 1_555
N12 C12 1_555 1_555
N13 C19 1_555 1_555
N14 C17 1_555 1_555
N15 C20 1_555 1_555
N16 C18 1_555 1_555
N17 C25 1_555 1_555
N18 C23 1_555 1_555
N19 C26 1_555 1_555
N20 C24 1_555 1_555
N21 C31 1_555 1_555
N22 C29 1_555 1_555
N23 C32 1_555 1_555
N24 C30 1_555 1_555
N25 C37 1_555 1_555
N26 C35 1_555 1_555
N27 C38 1_555 1_555
N28 C36 1_555 1_555
C2 N1 1_555 1_555
H1 C2 1_555 1_555
C3 N2 1_555 1_555
H2 C3 1_555 1_555
C4 N3 1_555 1_555
C5 N1 1_555 1_555
H3 C5 1_555 1_555
H4 C5 1_555 1_555
C6 N3 1_555 1_555
H5 C6 1_555 1_555
H6 C6 1_555 1_555
C7 N6 1_555 1_555
C8 N5 1_555 1_555
H7 C8 1_555 1_555
C9 N6 1_555 1_555
H8 C9 1_555 1_555
C10 N7 1_555 1_555
C11 N5 1_555 1_555
H9 C11 1_555 1_555
H10 C11 1_555 1_555
C12 N7 1_555 1_555
H11 C12 1_555 1_555
H12 C12 1_555 1_555
C13 N10 1_555 1_555
C14 N9 1_555 1_555
H13 C14 1_555 1_555
C15 N10 1_555 1_555
H14 C15 1_555 1_555
C16 N11 1_555 1_555
C17 N9 1_555 1_555
H15 C17 1_555 1_555
H16 C17 1_555 1_555
C18 N11 1_555 1_555
H17 C18 1_555 1_555
H18 C18 1_555 1_555
C19 N14 1_555 1_555
C20 N13 1_555 1_555
H19 C20 1_555 1_555
C21 N14 1_555 1_555
H20 C21 1_555 1_555
C22 N15 1_555 1_555
C23 N13 1_555 1_555
H21 C23 1_555 1_555
H22 C23 1_555 1_555
C24 N15 1_555 1_555
H23 C24 1_555 1_555
H24 C24 1_555 1_555
C25 N18 1_555 1_555
C26 N17 1_555 1_555
H25 C26 1_555 1_555
C27 N18 1_555 1_555
H26 C27 1_555 1_555
C28 N19 1_555 1_555
C29 N17 1_555 1_555
H27 C29 1_555 1_555
H28 C29 1_555 1_555
C30 N19 1_555 1_555
H29 C30 1_555 1_555
H30 C30 1_555 1_555
C31 N22 1_555 1_555
C32 N21 1_555 1_555
H31 C32 1_555 1_555
C33 N22 1_555 1_555
H32 C33 1_555 1_555
C34 N23 1_555 1_555
C35 N21 1_555 1_555
H33 C35 1_555 1_555
H34 C35 1_555 1_555
C36 N23 1_555 1_555
H35 C36 1_555 1_555
H36 C36 1_555 1_555
C37 N26 1_555 1_555
C38 N25 1_555 1_555
H37 C38 1_555 1_555
C39 N26 1_555 1_555
H38 C39 1_555 1_555
C40 N27 1_555 1_555
C41 N2 1_555 1_555
H39 C41 1_555 1_555
H40 C41 1_555 1_555
C42 N4 1_555 1_555
H41 C42 1_555 1_555
H42 C42 1_555 1_555
C43 S1 1_555 1_555
S1 O15 1_555 1_555
O16 S1 1_555 1_555
O17 S1 1_555 1_555
F1 C43 1_555 1_555
F2 C43 1_555 1_555
F3 C43 1_555 1_555
N4 C4 1_555 1_555
N8 C9 1_555 1_555
N8 C10 1_555 1_555
N12 C15 1_555 1_555
N12 C16 1_555 1_555
N16 C21 1_555 1_555
N16 C22 1_555 1_555
N20 C27 1_555 1_555
N20 C28 1_555 1_555
N24 C33 1_555 1_555
N24 C34 1_555 1_555
N25 C41 1_555 1_555
N27 C42 1_555 1_555
N28 C39 1_555 1_555
N28 C40 1_555 1_555
C2 C3 1_555 1_555
C8 C9 1_555 1_555
C14 C15 1_555 1_555
C20 C21 1_555 1_555
C26 C27 1_555 1_555
C32 C33 1_555 1_555
C38 C39 1_555 1_555

#END
