
#######################################################################
#
#                 Cambridge Crystallographic Data Centre
#                                CCDC 
#
#######################################################################
#
# If this CIF has been generated from an entry in the Cambridge 
# Structural Database, then it will include bibliographic, chemical, 
# crystal, experimental, refinement or atomic coordinate data resulting 
# from the CCDC's data processing and validation procedures.
#
#######################################################################

data_FUYLIV
_chemical_formula_moiety         'C33 H30 N2 O4'
_chemical_name_systematic        
2,4-bis(((4-methoxyphenyl)amino)methylene)-1,5-diphenylpentane-1,5-dione
_symmetry_cell_setting           orthorhombic
_symmetry_space_group_name_H-M   'P 21 21 21'
_symmetry_Int_Tables_number      19
_space_group_name_Hall           'P 2ac 2ab'
loop_
_symmetry_equiv_pos_site_id
_symmetry_equiv_pos_as_xyz
1 x,y,z
2 1/2-x,-y,1/2+z
3 -x,1/2+y,1/2-z
4 1/2+x,1/2-y,-z
_cell_length_a                   8.2722(7)
_cell_length_b                   12.5266(11)
_cell_length_c                   26.185(2)
_cell_angle_alpha                90
_cell_angle_beta                 90
_cell_angle_gamma                90
_cell_volume                     2713.36
_exptl_crystal_colour            colorless
_exptl_crystal_description       prismatic
_cell_formula_units_Z            4
loop_
_atom_site_label
_atom_site_type_symbol
_atom_site_fract_x
_atom_site_fract_y
_atom_site_fract_z
O1 O 0.4908(2) 0.62431(11) 0.15725(5)
O2 O 0.4563(2) 0.83880(11) -0.02894(5)
O3 O 0.7204(3) 0.42583(13) -0.20241(5)
O4 O 0.9078(2) 1.00010(12) 0.31640(5)
N1 N 0.5090(2) 0.61534(14) -0.02286(6)
N2 N 0.6020(3) 0.83492(14) 0.14539(7)
C1 C 0.5388(3) 0.57762(16) 0.02398(7)
H1 H 0.5888 0.5113 0.0266
C2 C 0.5013(3) 0.62916(15) 0.06809(7)
C3 C 0.4092(3) 0.73300(15) 0.06656(7)
H2 H 0.3494 0.7396 0.0983
H3 H 0.3306 0.7285 0.0392
C4 C 0.5061(3) 0.83458(15) 0.05911(7)
C5 C 0.5919(3) 0.87666(16) 0.09830(7)
H4 H 0.6482 0.9396 0.0921
C6 C 0.5344(3) 0.58066(16) 0.11672(7)
C7 C 0.6155(3) 0.47466(16) 0.12210(7)
C8 C 0.5435(3) 0.39956(16) 0.15387(7)
H5 H 0.4440 0.4145 0.1688
C9 C 0.6177(4) 0.30353(19) 0.16351(8)
H6 H 0.5669 0.2533 0.1842
C10 C 0.7658(4) 0.28154(18) 0.14285(9)
H7 H 0.8167 0.2169 0.1498
C11 C 0.8390(3) 0.35516(18) 0.11185(8)
H8 H 0.9396 0.3402 0.0977
C12 C 0.7645(3) 0.45138(16) 0.10152(7)
H9 H 0.8154 0.5009 0.0805
C13 C 0.5060(3) 0.88528(16) 0.01001(8)
C14 C 0.5689(3) 0.99659(15) 0.00384(7)
C15 C 0.6674(3) 1.01926(18) -0.03711(8)
H10 H 0.6904 0.9661 -0.0608
C16 C 0.7326(3) 1.1199(2) -0.04344(9)
H11 H 0.8009 1.1337 -0.0709
C17 C 0.6968(4) 1.19915(19) -0.00940(11)
H12 H 0.7430 1.2664 -0.0132
C18 C 0.5932(3) 1.17956(18) 0.03022(9)
H13 H 0.5656 1.2343 0.0525
C19 C 0.5298(3) 1.07907(17) 0.03715(8)
H14 H 0.4603 1.0662 0.0644
C20 C 0.5518(3) 0.56431(16) -0.06918(7)
C21 C 0.5758(3) 0.45581(16) -0.07322(8)
H15 H 0.5550 0.4117 -0.0454
C22 C 0.6302(3) 0.41280(17) -0.11819(8)
H16 H 0.6467 0.3395 -0.1205
C23 C 0.6610(3) 0.47663(18) -0.16007(8)
C24 C 0.6253(3) 0.58276(18) -0.15714(8)
H17 H 0.6369 0.6258 -0.1858
C25 C 0.5722(3) 0.62633(16) -0.11209(7)
H18 H 0.5496 0.6990 -0.1105
C26 C 0.7796(4) 0.4928(2) -0.24248(8)
H19 H 0.6901 0.5259 -0.2597
H20 H 0.8399 0.4505 -0.2664
H21 H 0.8484 0.5469 -0.2283
C27 C 0.6823(3) 0.88109(16) 0.18732(7)
C28 C 0.7369(3) 0.81546(17) 0.22585(7)
H22 H 0.7218 0.7421 0.2234
C29 C 0.8137(3) 0.85755(17) 0.26799(8)
H23 H 0.8513 0.8123 0.2935
C30 C 0.8353(3) 0.96652(18) 0.27259(8)
C31 C 0.7793(3) 1.03149(17) 0.23426(8)
H24 H 0.7932 1.1050 0.2368
C32 C 0.7027(3) 0.98952(17) 0.19201(8)
H25 H 0.6647 1.0348 0.1666
C33 C 0.9307(4) 1.11108(19) 0.32305(9)
H26 H 0.9934 1.1387 0.2952
H27 H 0.9868 1.1238 0.3546
H28 H 0.8275 1.1461 0.3239
H29 H 0.475(3) 0.6820(13) -0.0272(7)
H30 H 0.555(2) 0.7729(12) 0.1510(6)
loop_
_geom_bond_atom_site_label_1
_geom_bond_atom_site_label_2
_geom_bond_site_symmetry_1
_geom_bond_site_symmetry_2
O1 C6 1_555 1_555
O2 C13 1_555 1_555
O3 C23 1_555 1_555
O4 C30 1_555 1_555
N1 C1 1_555 1_555
N2 C5 1_555 1_555
C1 H1 1_555 1_555
C2 C1 1_555 1_555
C3 C2 1_555 1_555
H2 C3 1_555 1_555
H3 C3 1_555 1_555
C4 C3 1_555 1_555
C5 C4 1_555 1_555
H4 C5 1_555 1_555
C6 C2 1_555 1_555
C7 C6 1_555 1_555
C8 C7 1_555 1_555
H5 C8 1_555 1_555
C9 C8 1_555 1_555
H6 C9 1_555 1_555
C10 C9 1_555 1_555
H7 C10 1_555 1_555
C11 C10 1_555 1_555
H8 C11 1_555 1_555
C12 C7 1_555 1_555
H9 C12 1_555 1_555
C13 C4 1_555 1_555
C14 C13 1_555 1_555
C15 C14 1_555 1_555
H10 C15 1_555 1_555
C16 C15 1_555 1_555
H11 C16 1_555 1_555
C17 C16 1_555 1_555
H12 C17 1_555 1_555
C18 C17 1_555 1_555
H13 C18 1_555 1_555
C19 C14 1_555 1_555
H14 C19 1_555 1_555
C20 N1 1_555 1_555
C21 C20 1_555 1_555
H15 C21 1_555 1_555
C22 C21 1_555 1_555
H16 C22 1_555 1_555
C23 C22 1_555 1_555
C24 C23 1_555 1_555
H17 C24 1_555 1_555
C25 C20 1_555 1_555
H18 C25 1_555 1_555
C26 O3 1_555 1_555
H19 C26 1_555 1_555
H20 C26 1_555 1_555
H21 C26 1_555 1_555
C27 N2 1_555 1_555
C28 C27 1_555 1_555
H22 C28 1_555 1_555
C29 C28 1_555 1_555
H23 C29 1_555 1_555
C30 C29 1_555 1_555
C31 C30 1_555 1_555
H24 C31 1_555 1_555
C32 C27 1_555 1_555
H25 C32 1_555 1_555
C33 O4 1_555 1_555
H26 C33 1_555 1_555
H27 C33 1_555 1_555
H28 C33 1_555 1_555
H29 N1 1_555 1_555
H30 N2 1_555 1_555
C11 C12 1_555 1_555
C18 C19 1_555 1_555
C24 C25 1_555 1_555
C31 C32 1_555 1_555

#END
