
#######################################################################
#
#                 Cambridge Crystallographic Data Centre
#                                CCDC 
#
#######################################################################
#
# If this CIF has been generated from an entry in the Cambridge 
# Structural Database, then it will include bibliographic, chemical, 
# crystal, experimental, refinement or atomic coordinate data resulting 
# from the CCDC's data processing and validation procedures.
#
#######################################################################

data_FUYMES
_chemical_formula_moiety         'C20 H17 N1 O1'
_chemical_name_systematic        
5-Benzyl-2-(2-naphthyl)-4,5-dihydro-1,3-oxazole
_symmetry_cell_setting           orthorhombic
_symmetry_space_group_name_H-M   'P 21 21 21'
_symmetry_Int_Tables_number      19
_space_group_name_Hall           'P 2ac 2ab'
loop_
_symmetry_equiv_pos_site_id
_symmetry_equiv_pos_as_xyz
1 x,y,z
2 1/2-x,-y,1/2+z
3 -x,1/2+y,1/2-z
4 1/2+x,1/2-y,-z
_cell_length_a                   6.1798(12)
_cell_length_b                   15.143(3)
_cell_length_c                   16.430(3)
_cell_angle_alpha                90
_cell_angle_beta                 90
_cell_angle_gamma                90
_cell_volume                     1537.53
_cell_formula_units_Z            4
loop_
_atom_site_label
_atom_site_type_symbol
_atom_site_fract_x
_atom_site_fract_y
_atom_site_fract_z
C1 C 0.5333(3) 1.10714(11) 0.53160(11)
H1 H 0.5804 1.1110 0.5852
C2 C 0.6680(3) 1.07146(12) 0.47377(12)
H2 H 0.8040 1.0508 0.4888
C3 C 0.6035(4) 1.06617(12) 0.39438(12)
H3 H 0.6946 1.0420 0.3552
C4 C 0.4025(4) 1.09704(12) 0.37314(11)
H4 H 0.3575 1.0940 0.3192
C5 C 0.2673(3) 1.13234(12) 0.43095(11)
H5 H 0.1318 1.1532 0.4155
C6 C 0.3293(3) 1.13744(10) 0.51173(10)
C7 C 0.1803(3) 1.17579(10) 0.57538(11)
H6 H 0.2300 1.2349 0.5885
H7 H 0.0368 1.1812 0.5520
C8 C 0.1628(3) 1.12379(10) 0.65346(10)
H8 H 0.3022 1.1236 0.6818
C9 C -0.0163(3) 1.15523(12) 0.71096(11)
H9 H 0.0428 1.1690 0.7642
H10 H -0.0864 1.2075 0.6894
C10 C -0.0947(3) 1.02014(11) 0.67415(9)
C11 C -0.1915(3) 0.93265(10) 0.66254(9)
C12 C -0.3967(3) 0.91457(12) 0.69761(10)
H11 H -0.4691 0.9584 0.7264
C13 C -0.4878(3) 0.83325(13) 0.68919(11)
H12 H -0.6220 0.8223 0.7127
C14 C -0.3831(3) 0.76520(11) 0.64564(10)
C15 C -0.4730(3) 0.67976(12) 0.63695(12)
H13 H -0.6045 0.6665 0.6616
C16 C -0.3688(4) 0.61738(12) 0.59304(13)
H14 H -0.4301 0.5616 0.5875
C17 C -0.1709(4) 0.63543(12) 0.55603(12)
H15 H -0.1022 0.5920 0.5255
C18 C -0.0773(3) 0.71650(10) 0.56431(10)
H16 H 0.0559 0.7277 0.5400
C19 C -0.1808(3) 0.78350(10) 0.60931(9)
C20 C -0.0886(3) 0.86820(10) 0.61919(9)
H17 H 0.0450 0.8803 0.5957
N1 N -0.1699(3) 1.08212(9) 0.71652(8)
O1 O 0.0970(2) 1.03382(7) 0.63491(8)
loop_
_geom_bond_atom_site_label_1
_geom_bond_atom_site_label_2
_geom_bond_site_symmetry_1
_geom_bond_site_symmetry_2
C1 H1 1_555 1_555
C2 C1 1_555 1_555
H2 C2 1_555 1_555
C3 C2 1_555 1_555
H3 C3 1_555 1_555
C4 C3 1_555 1_555
H4 C4 1_555 1_555
C5 C4 1_555 1_555
H5 C5 1_555 1_555
C6 C1 1_555 1_555
C7 C6 1_555 1_555
H6 C7 1_555 1_555
H7 C7 1_555 1_555
C8 C7 1_555 1_555
H8 C8 1_555 1_555
C9 C8 1_555 1_555
H9 C9 1_555 1_555
H10 C9 1_555 1_555
C10 C11 1_555 1_555
C11 C12 1_555 1_555
C12 H11 1_555 1_555
C13 C12 1_555 1_555
H12 C13 1_555 1_555
C14 C13 1_555 1_555
C15 C14 1_555 1_555
H13 C15 1_555 1_555
C16 C15 1_555 1_555
H14 C16 1_555 1_555
C17 C16 1_555 1_555
H15 C17 1_555 1_555
C18 C17 1_555 1_555
H16 C18 1_555 1_555
C19 C14 1_555 1_555
C20 C11 1_555 1_555
H17 C20 1_555 1_555
N1 C9 1_555 1_555
O1 C8 1_555 1_555
C5 C6 1_555 1_555
C10 N1 1_555 1_555
C10 O1 1_555 1_555
C18 C19 1_555 1_555
C19 C20 1_555 1_555

#END
