
#######################################################################
#
#                 Cambridge Crystallographic Data Centre
#                                CCDC 
#
#######################################################################
#
# If this CIF has been generated from an entry in the Cambridge 
# Structural Database, then it will include bibliographic, chemical, 
# crystal, experimental, refinement or atomic coordinate data resulting 
# from the CCDC's data processing and validation procedures.
#
#######################################################################

data_FUYNOD
_chemical_formula_moiety         'C22 H27 N1 O3'
_chemical_name_systematic        
'Isopropyl 5-oxo-4-(prop-1-en-1-yl)-1,2,3,3a,4,5,5a,6,10b,10c-decahydronaphtho[3,2,1-cd]indole-9-carboxylate'
_symmetry_cell_setting           monoclinic
_symmetry_space_group_name_H-M   'P 21/c'
_symmetry_Int_Tables_number      14
_space_group_name_Hall           '-P 2ybc'
loop_
_symmetry_equiv_pos_site_id
_symmetry_equiv_pos_as_xyz
1 x,y,z
2 -x,1/2+y,1/2-z
3 -x,-y,-z
4 x,1/2-y,1/2+z
_cell_length_a                   13.712(3)
_cell_length_b                   8.3220(17)
_cell_length_c                   17.688(4)
_cell_angle_alpha                90
_cell_angle_beta                 109.36(3)
_cell_angle_gamma                90
_cell_volume                     1904.27
_cell_formula_units_Z            4
loop_
_atom_site_label
_atom_site_type_symbol
_atom_site_fract_x
_atom_site_fract_y
_atom_site_fract_z
O1 O 0.0880(3) 0.2332(4) 0.17260(18)
O2 O 0.3177(3) 0.5544(5) 0.7127(2)
O3 O 0.4743(2) 0.4666(4) 0.71750(18)
N1 N -0.0448(3) 0.3002(4) 0.2189(2)
C1 C -0.3026(4) 0.3353(8) 0.0485(3)
H1 H -0.3689 0.3583 0.0534
H2 H -0.3050 0.2327 0.0232
H3 H -0.2855 0.4171 0.0168
C2 C -0.2207(4) 0.3318(6) 0.1316(3)
H4 H -0.2416 0.3510 0.1758
C3 C -0.1235(4) 0.3034(5) 0.1441(3)
H5 H -0.1043 0.2833 0.0992
C4 C 0.0541(4) 0.2641(5) 0.2266(3)
C5 C 0.1142(3) 0.2639(5) 0.3163(2)
H6 H 0.1112 0.1552 0.3367
C6 C 0.0486(3) 0.3718(5) 0.3481(2)
H7 H 0.0621 0.4828 0.3360
C7 C -0.0625(3) 0.3303(5) 0.2953(2)
H8 H -0.1087 0.4224 0.2908
C8 C 0.2249(3) 0.3170(6) 0.3447(3)
H9 H 0.2319 0.4135 0.3162
H10 H 0.2676 0.2339 0.3332
C9 C 0.2615(3) 0.3505(5) 0.4348(3)
C10 C 0.1922(3) 0.3726(5) 0.4772(2)
C11 C 0.0762(3) 0.3585(6) 0.4377(2)
H11 H 0.0452 0.4511 0.4553
C12 C 0.0296(3) 0.2073(6) 0.4617(3)
H12 H 0.0659 0.1135 0.4522
H13 H 0.0397 0.2117 0.5186
C13 C -0.0843(3) 0.1890(6) 0.4160(3)
H14 H -0.1215 0.2799 0.4274
H15 H -0.1099 0.0923 0.4337
C14 C -0.1048(4) 0.1791(6) 0.3254(2)
H16 H -0.0718 0.0839 0.3135
H17 H -0.1786 0.1702 0.2975
C15 C 0.3666(4) 0.3599(7) 0.4750(3)
H18 H 0.4126 0.3370 0.4478
C16 C 0.4049(4) 0.4033(7) 0.5556(3)
H19 H 0.4757 0.4133 0.5813
C17 C 0.3373(3) 0.4315(6) 0.5973(3)
C18 C 0.2320(3) 0.4153(5) 0.5572(3)
H20 H 0.1864 0.4340 0.5852
C19 C 0.3733(4) 0.4910(6) 0.6808(3)
C20 C 0.5210(3) 0.5274(6) 0.7982(3)
H21 H 0.4952 0.6359 0.8017
C21 C 0.4934(5) 0.4165(8) 0.8571(3)
H22 H 0.4199 0.4171 0.8457
H23 H 0.5270 0.4538 0.9108
H24 H 0.5159 0.3092 0.8518
C22 C 0.6344(4) 0.5336(8) 0.8138(3)
H25 H 0.6486 0.6043 0.7759
H26 H 0.6592 0.4278 0.8085
H27 H 0.6685 0.5726 0.8672
loop_
_geom_bond_atom_site_label_1
_geom_bond_atom_site_label_2
_geom_bond_site_symmetry_1
_geom_bond_site_symmetry_2
O1 C4 1_555 1_555
O2 C19 1_555 1_555
O3 C19 1_555 1_555
N1 C3 1_555 1_555
C1 H1 1_555 1_555
H2 C1 1_555 1_555
H3 C1 1_555 1_555
C2 C1 1_555 1_555
H4 C2 1_555 1_555
C3 C2 1_555 1_555
H5 C3 1_555 1_555
C4 N1 1_555 1_555
C5 C4 1_555 1_555
H6 C5 1_555 1_555
C6 C5 1_555 1_555
H7 C6 1_555 1_555
C7 N1 1_555 1_555
H8 C7 1_555 1_555
C8 C5 1_555 1_555
H9 C8 1_555 1_555
H10 C8 1_555 1_555
C9 C8 1_555 1_555
C10 C9 1_555 1_555
C11 C6 1_555 1_555
H11 C11 1_555 1_555
C12 C11 1_555 1_555
H12 C12 1_555 1_555
H13 C12 1_555 1_555
C13 C12 1_555 1_555
H14 C13 1_555 1_555
H15 C13 1_555 1_555
C14 C7 1_555 1_555
H16 C14 1_555 1_555
H17 C14 1_555 1_555
C15 C9 1_555 1_555
H18 C15 1_555 1_555
C16 C15 1_555 1_555
H19 C16 1_555 1_555
C17 C16 1_555 1_555
C18 C10 1_555 1_555
H20 C18 1_555 1_555
C19 C17 1_555 1_555
C20 O3 1_555 1_555
H21 C20 1_555 1_555
C21 C20 1_555 1_555
H22 C21 1_555 1_555
H23 C21 1_555 1_555
H24 C21 1_555 1_555
C22 C20 1_555 1_555
H25 C22 1_555 1_555
H26 C22 1_555 1_555
H27 C22 1_555 1_555
C6 C7 1_555 1_555
C10 C11 1_555 1_555
C13 C14 1_555 1_555
C17 C18 1_555 1_555

#END
