
#######################################################################
#
#                 Cambridge Crystallographic Data Centre
#                                CCDC 
#
#######################################################################
#
# If this CIF has been generated from an entry in the Cambridge 
# Structural Database, then it will include bibliographic, chemical, 
# crystal, experimental, refinement or atomic coordinate data resulting 
# from the CCDC's data processing and validation procedures.
#
#######################################################################

data_FUYPIZ
_chemical_formula_moiety         'C27 H31 N1 O3'
_chemical_name_systematic        
'Ethyl 6-(4-methylphenyl)-7-oxo-1,2,3,4,5,5a,6,7,7a,8,12b,12c-dodecahydrobenzo[f]cycloocta[cd]isoindole-11-carboxylate'
_symmetry_cell_setting           monoclinic
_symmetry_space_group_name_H-M   'P 21/c'
_symmetry_Int_Tables_number      14
_space_group_name_Hall           '-P 2ybc'
loop_
_symmetry_equiv_pos_site_id
_symmetry_equiv_pos_as_xyz
1 x,y,z
2 -x,1/2+y,1/2-z
3 -x,-y,-z
4 x,1/2-y,1/2+z
_cell_length_a                   10.804(2)
_cell_length_b                   15.222(3)
_cell_length_c                   13.676(3)
_cell_angle_alpha                90
_cell_angle_beta                 94.91(3)
_cell_angle_gamma                90
_cell_volume                     2240.88
_cell_formula_units_Z            4
loop_
_atom_site_label
_atom_site_type_symbol
_atom_site_fract_x
_atom_site_fract_y
_atom_site_fract_z
N1 N 0.2066(3) 0.27412(19) 0.3195(2)
O1 O 0.7273(3) 0.13556(18) -0.1792(2)
O2 O 0.6876(3) 0.2786(2) -0.1743(2)
O3 O 0.2662(3) 0.13702(18) 0.37748(18)
C1 C 0.8107(4) 0.0623(3) -0.3125(4)
H1 H 0.8520 0.0694 -0.3714
H2 H 0.7318 0.0343 -0.3279
H3 H 0.8609 0.0266 -0.2668
C2 C 0.7914(4) 0.1494(3) -0.2682(3)
H4 H 0.8707 0.1781 -0.2520
H5 H 0.7416 0.1863 -0.3141
C3 C 0.6795(3) 0.2063(3) -0.1406(3)
C4 C 0.6134(3) 0.1856(3) -0.0519(3)
C5 C 0.5401(3) 0.2494(3) -0.0145(3)
H6 H 0.5370 0.3048 -0.0433
C6 C 0.4692(3) 0.2337(2) 0.0662(2)
C7 C 0.4791(3) 0.1501(2) 0.1083(3)
C8 C 0.5547(4) 0.0877(3) 0.0728(3)
H7 H 0.5618 0.0334 0.1038
C9 C 0.6217(4) 0.1031(3) -0.0085(3)
H8 H 0.6705 0.0592 -0.0329
C10 C 0.3867(3) 0.3077(2) 0.0979(2)
H9 H 0.3327 0.3240 0.0395
C11 C 0.3008(3) 0.2732(2) 0.1725(2)
H10 H 0.2329 0.2418 0.1354
C12 C 0.3651(3) 0.2074(2) 0.2443(2)
H11 H 0.4401 0.2357 0.2750
C13 C 0.4046(4) 0.1271(2) 0.1948(3)
H12 H 0.3320 0.0932 0.1716
H13 H 0.4551 0.0913 0.2414
C14 C 0.4580(3) 0.3908(2) 0.1303(3)
H14 H 0.4694 0.3913 0.2014
H15 H 0.5398 0.3878 0.1062
C15 C 0.3974(4) 0.4771(2) 0.0960(3)
H16 H 0.3810 0.4739 0.0252
H17 H 0.4581 0.5234 0.1098
C16 C 0.2762(4) 0.5063(3) 0.1382(3)
H18 H 0.2915 0.5098 0.2091
H19 H 0.2561 0.5650 0.1144
C17 C 0.1653(4) 0.4490(3) 0.1146(3)
H20 H 0.1796 0.4138 0.0576
H21 H 0.0941 0.4863 0.0969
C18 C 0.1330(3) 0.3872(2) 0.1976(3)
H22 H 0.0988 0.4218 0.2484
H23 H 0.0690 0.3466 0.1718
C19 C 0.2415(3) 0.3355(2) 0.2426(2)
H24 H 0.3048 0.3762 0.2712
C20 C 0.2743(4) 0.1993(3) 0.3216(2)
C21 C 0.1361(3) 0.3002(2) 0.3986(2)
C22 C 0.1632(4) 0.3782(3) 0.4477(3)
H25 H 0.2271 0.4140 0.4293
C23 C 0.0952(4) 0.4024(3) 0.5238(3)
H26 H 0.1136 0.4555 0.5555
C24 C 0.0013(4) 0.3517(3) 0.5553(3)
C25 C -0.0239(4) 0.2728(3) 0.5051(3)
H27 H -0.0860 0.2361 0.5246
C26 C 0.0417(4) 0.2483(3) 0.4269(3)
H28 H 0.0218 0.1964 0.3934
C27 C -0.0681(5) 0.3756(3) 0.6409(3)
H29 H -0.0403 0.4319 0.6657
H30 H -0.0535 0.3321 0.6913
H31 H -0.1554 0.3784 0.6207
loop_
_geom_bond_atom_site_label_1
_geom_bond_atom_site_label_2
_geom_bond_site_symmetry_1
_geom_bond_site_symmetry_2
N1 C19 1_555 1_555
O1 C2 1_555 1_555
O2 C3 1_555 1_555
O3 C20 1_555 1_555
C1 H1 1_555 1_555
H2 C1 1_555 1_555
H3 C1 1_555 1_555
C2 C1 1_555 1_555
H4 C2 1_555 1_555
H5 C2 1_555 1_555
C3 O1 1_555 1_555
C4 C3 1_555 1_555
C5 C4 1_555 1_555
H6 C5 1_555 1_555
C6 C5 1_555 1_555
C7 C6 1_555 1_555
C8 C7 1_555 1_555
H7 C8 1_555 1_555
C9 C4 1_555 1_555
H8 C9 1_555 1_555
C10 C6 1_555 1_555
H9 C10 1_555 1_555
C11 C10 1_555 1_555
H10 C11 1_555 1_555
C12 C11 1_555 1_555
H11 C12 1_555 1_555
C13 C7 1_555 1_555
H12 C13 1_555 1_555
H13 C13 1_555 1_555
C14 C10 1_555 1_555
H14 C14 1_555 1_555
H15 C14 1_555 1_555
C15 C14 1_555 1_555
H16 C15 1_555 1_555
H17 C15 1_555 1_555
C16 C15 1_555 1_555
H18 C16 1_555 1_555
H19 C16 1_555 1_555
C17 C16 1_555 1_555
H20 C17 1_555 1_555
H21 C17 1_555 1_555
C18 C17 1_555 1_555
H22 C18 1_555 1_555
H23 C18 1_555 1_555
C19 C11 1_555 1_555
H24 C19 1_555 1_555
C20 N1 1_555 1_555
C21 N1 1_555 1_555
C22 C21 1_555 1_555
H25 C22 1_555 1_555
C23 C22 1_555 1_555
H26 C23 1_555 1_555
C24 C23 1_555 1_555
C25 C24 1_555 1_555
H27 C25 1_555 1_555
C26 C21 1_555 1_555
H28 C26 1_555 1_555
C27 C24 1_555 1_555
H29 C27 1_555 1_555
H30 C27 1_555 1_555
H31 C27 1_555 1_555
C8 C9 1_555 1_555
C12 C13 1_555 1_555
C12 C20 1_555 1_555
C18 C19 1_555 1_555
C25 C26 1_555 1_555

#END
