
#######################################################################
#
#                 Cambridge Crystallographic Data Centre
#                                CCDC 
#
#######################################################################
#
# If this CIF has been generated from an entry in the Cambridge 
# Structural Database, then it will include bibliographic, chemical, 
# crystal, experimental, refinement or atomic coordinate data resulting 
# from the CCDC's data processing and validation procedures.
#
#######################################################################

data_FUYSAV
_chemical_formula_moiety         'C152 H110 N12'
_chemical_name_systematic        
"tris(13,14-(9,10-Dihydroanthracene-9,10-diyl)-2,9-di-t-butyl-4,7,11,16-tetraazadibenzo[hi,qr]pentacene)[5,6-d:5',6'-k:5'',6''-r]triptycene unknown solvate"
_symmetry_cell_setting           monoclinic
_symmetry_space_group_name_H-M   'C 2/c'
_symmetry_Int_Tables_number      15
_space_group_name_Hall           '-C 2yn'
loop_
_symmetry_equiv_pos_site_id
_symmetry_equiv_pos_as_xyz
1 x,y,z
2 -x,y,1/2-z
3 1/2+x,1/2+y,z
4 1/2-x,1/2+y,1/2-z
5 -x,-y,-z
6 x,-y,1/2+z
7 1/2-x,1/2-y,-z
8 1/2+x,1/2-y,1/2+z
_cell_length_a                   12.0354(6)
_cell_length_b                   56.402(4)
_cell_length_c                   35.816(3)
_cell_angle_alpha                90
_cell_angle_beta                 90.951(7)
_cell_angle_gamma                90
_cell_volume                     24309.3
_exptl_crystal_colour            yellow
_exptl_crystal_description       polyhedron
_cell_formula_units_Z            4
loop_
_atom_site_label
_atom_site_type_symbol
_atom_site_fract_x
_atom_site_fract_y
_atom_site_fract_z
N1 N 0.7976(2) 0.38591(5) 0.67241(7)
N2 N 0.5998(2) 0.38524(5) 0.62782(7)
N3 N 0.8896(3) 0.32159(6) 0.48417(8)
N4 N 0.4025(2) 0.51599(5) 0.72795(8)
C1 C 0.7025(3) 0.39548(5) 0.68500(8)
N5 N 1.0867(2) 0.32253(6) 0.52865(9)
N6 N 0.4025(3) 0.64388(5) 0.72779(9)
C2 C 0.6030(3) 0.39548(6) 0.66237(9)
C3 C 0.6047(2) 0.41582(5) 0.73310(8)
C4 C 0.4494(3) 0.49550(5) 0.73847(8)
C5 C 0.5051(3) 0.40596(5) 0.67609(8)
H1 H 0.4404 0.4062 0.6616
C6 C 0.5069(2) 0.41574(5) 0.71111(8)
C7 C 0.7005(2) 0.40590(5) 0.72119(8)
H2 H 0.7639 0.4059 0.7364
C8 C 0.4098(2) 0.42815(5) 0.72938(8)
H3 H 0.3420 0.4280 0.7138
C9 C 0.4500(2) 0.45300(5) 0.73855(8)
C10 C 0.7955(3) 0.37615(6) 0.63900(9)
C11 C 0.8949(3) 0.35460(6) 0.58922(9)
C12 C 0.4019(3) 0.47352(5) 0.72749(8)
H4 H 0.3377 0.4732 0.7127
C13 C 0.9920(3) 0.33276(6) 0.53978(10)
C14 C 0.3989(3) 0.60146(6) 0.72746(10)
C15 C 0.5940(3) 0.35170(7) 0.52342(10)
C16 C 0.9920(3) 0.34408(6) 0.57619(10)
C17 C 0.7916(3) 0.34263(6) 0.53178(9)
C18 C 0.6942(3) 0.37568(6) 0.61625(9)
C19 C 0.4502(3) 0.62380(6) 0.73886(10)
C20 C 0.7932(3) 0.35407(6) 0.56714(9)
C21 C 0.8964(3) 0.36555(6) 0.62449(9)
C22 C 0.8922(3) 0.33198(6) 0.51783(10)
C23 C 0.6941(3) 0.36408(6) 0.57967(9)
C24 C 0.4495(3) 0.57996(6) 0.73863(10)
C25 C 0.9843(3) 0.31151(7) 0.47226(10)
C26 C 1.0812(4) 0.29021(7) 0.42483(11)
C27 C 0.6913(3) 0.34151(7) 0.51081(9)
H5 H 0.6905 0.3337 0.4879
C28 C 1.0824(3) 0.31177(7) 0.49469(10)
C29 C 0.9950(3) 0.36582(6) 0.64630(10)
H6 H 0.9945 0.3730 0.6697
C30 C 0.5983(3) 0.36291(7) 0.55841(10)
H7 H 0.5340 0.3698 0.5675
C31 C 0.9843(4) 0.30040(7) 0.43651(10)
H8 H 0.9204 0.3001 0.4215
C32 C 1.0936(3) 0.35563(6) 0.63385(10)
C33 C 0.3997(3) 0.55845(6) 0.72764(10)
C34 C 0.3031(4) 0.60120(6) 0.70596(11)
H9 H 0.2716 0.6155 0.6985
C35 C 1.1779(4) 0.28987(8) 0.44734(13)
C36 C 1.0892(3) 0.34464(6) 0.59873(10)
H10 H 1.1531 0.3374 0.5899
C37 C 0.4493(3) 0.53591(5) 0.73863(10)
C38 C 1.2015(3) 0.35494(7) 0.65715(11)
C39 C 0.3017(4) 0.55888(6) 0.70570(12)
H11 H 0.2699 0.5446 0.6982
C40 C 0.4513(4) 0.70692(6) 0.73889(10)
C41 C 0.4516(4) 0.66462(6) 0.73889(10)
C42 C 0.2512(4) 0.57987(7) 0.69489(12)
C43 C 0.4849(3) 0.35123(10) 0.49983(11)
C44 C 0.4044(4) 0.68645(6) 0.72781(11)
H12 H 0.3406 0.6867 0.7128
C45 C 0.4069(5) 0.73208(6) 0.72906(12)
H13 H 0.3389 0.7321 0.7136
C46 C 1.1805(3) 0.30049(7) 0.48138(12)
H14 H 1.2454 0.3004 0.4959
C47 C 1.2734(4) 0.27669(8) 0.42976(14)
H15 H 1.3403 0.2762 0.4457
C48 C 1.2218(3) 0.32963(7) 0.67011(12)
H16 H 1.2250 0.3193 0.6488
H17 H 1.2909 0.3288 0.6838
H18 H 1.1623 0.3247 0.6859
C49 C 1.0961(5) 0.27732(8) 0.38783(12)
H19 H 1.0295 0.2775 0.3717
C50 C 1.1335(4) 0.25240(8) 0.39936(12)
C51 C 1.2269(4) 0.25221(8) 0.42088(13)
C52 C 1.0764(5) 0.23139(8) 0.38961(13)
H20 H 1.0118 0.2320 0.3750
C53 C 1.1960(3) 0.37165(9) 0.69035(13)
H21 H 1.1832 0.3875 0.6816
H22 H 1.1364 0.3669 0.7062
H23 H 1.2650 0.3711 0.7042
C54 C 1.2989(3) 0.36277(9) 0.63291(14)
H24 H 1.2869 0.3788 0.6246
H25 H 1.3668 0.3620 0.6473
H26 H 1.3040 0.3525 0.6117
C55 C 0.1449(4) 0.57895(8) 0.67094(16)
C56 C 1.1178(5) 0.20996(9) 0.40203(15)
H27 H 1.0808 0.1959 0.3962
C57 C 1.2696(4) 0.23099(9) 0.43306(14)
H28 H 1.3341 0.2306 0.4477
C58 C 1.2143(5) 0.20958(9) 0.42307(14)
H29 H 1.2438 0.1951 0.4309
C59 C 0.3865(4) 0.34807(12) 0.52360(13)
H30 H 0.3885 0.3595 0.5434
H31 H 0.3201 0.3503 0.5088
H32 H 0.3870 0.3324 0.5340
C60 C 0.4875(5) 0.33435(15) 0.46900(19)
H33 H 0.5525 0.3371 0.4545
H34 H 0.4893 0.3185 0.4787
H35 H 0.4223 0.3364 0.4535
C61 C 0.4729(6) 0.37719(13) 0.4842(2)
H36 H 0.4713 0.3882 0.5047
H37 H 0.5349 0.3808 0.4687
H38 H 0.4052 0.3785 0.4698
C62 C 0.0970(6) 0.60312(10) 0.6643(2)
H39 H 0.1513 0.6130 0.6526
H40 H 0.0324 0.6019 0.6483
H41 H 0.0764 0.6100 0.6877
C63 C 0.1746(6) 0.56839(14) 0.6334(2)
H42 H 0.2056 0.5529 0.6371
H43 H 0.1090 0.5673 0.6180
H44 H 0.2281 0.5783 0.6215
C64 C 0.0591(5) 0.56343(13) 0.6894(2)
H45 H 0.0897 0.5479 0.6936
H46 H 0.0386 0.5703 0.7128
H47 H -0.0054 0.5622 0.6734
C65 C 1.2922(6) 0.28872(9) 0.39229(17)
C66 C 1.1973(6) 0.28897(9) 0.37007(15)
C67 C 1.1980(6) 0.29934(9) 0.33442(16)
H48 H 1.1346 0.2996 0.3192
C68 C 1.2983(8) 0.30926(13) 0.3228(2)
H49 H 1.3013 0.3159 0.2990
C69 C 1.3917(8) 0.30960(14) 0.3449(2)
H50 H 1.4564 0.3167 0.3365
C70 C 1.3895(6) 0.29913(10) 0.38023(19)
H51 H 1.4527 0.2992 0.3955
C71 C 0.3952(5) 0.74419(7) 0.76713(14)
C72 C 0.4925(5) 0.74416(6) 0.78920(13)
C73 C 0.4925(6) 0.75397(7) 0.82438(13)
H52 H 0.5565 0.7537 0.8393
C74 C 0.3956(8) 0.76426(9) 0.83726(17)
H53 H 0.3952 0.7711 0.8609
C75 C 0.3016(7) 0.76446(9) 0.8159(2)
H54 H 0.2377 0.7715 0.8250
C76 C 0.2995(5) 0.75427(7) 0.78066(16)
H55 H 0.2343 0.7542 0.7663
N1A N 0.2024(2) 0.38591(5) 0.82759(7)
N2A N 0.4002(2) 0.38524(5) 0.87218(7)
N3A N 0.1104(3) 0.32159(6) 1.01583(8)
N4A N 0.5975(2) 0.51599(5) 0.77205(8)
C1A C 0.2975(3) 0.39548(5) 0.81500(8)
N5A N -0.0867(2) 0.32253(6) 0.97135(9)
N6A N 0.5975(3) 0.64388(5) 0.77221(9)
C2A C 0.3970(3) 0.39548(6) 0.83763(9)
C3A C 0.3953(2) 0.41582(5) 0.76690(8)
C4A C 0.5506(3) 0.49550(5) 0.76153(8)
C5A C 0.4949(3) 0.40596(5) 0.82391(8)
H1A H 0.5596 0.4062 0.8384
C6A C 0.4931(2) 0.41574(5) 0.78889(8)
C7A C 0.2995(2) 0.40590(5) 0.77881(8)
H2A H 0.2361 0.4059 0.7636
C8A C 0.5902(2) 0.42815(5) 0.77062(8)
H3A H 0.6580 0.4280 0.7862
C9A C 0.5500(2) 0.45300(5) 0.76145(8)
C10A C 0.2045(3) 0.37615(6) 0.86100(9)
C11A C 0.1051(3) 0.35460(6) 0.91078(9)
C12A C 0.5981(3) 0.47352(5) 0.77251(8)
H4A H 0.6623 0.4732 0.7873
C13A C 0.0080(3) 0.33276(6) 0.96022(10)
C14A C 0.6011(3) 0.60146(6) 0.77254(10)
C15A C 0.4060(3) 0.35170(7) 0.97658(10)
C16A C 0.0080(3) 0.34408(6) 0.92381(10)
C17A C 0.2084(3) 0.34263(6) 0.96822(9)
C18A C 0.3058(3) 0.37568(6) 0.88375(9)
C19A C 0.5498(3) 0.62380(6) 0.76114(10)
C20A C 0.2068(3) 0.35407(6) 0.93286(9)
C21A C 0.1036(3) 0.36555(6) 0.87551(9)
C22A C 0.1078(3) 0.33198(6) 0.98217(10)
C23A C 0.3059(3) 0.36408(6) 0.92033(9)
C24A C 0.5505(3) 0.57996(6) 0.76137(10)
C25A C 0.0157(3) 0.31151(7) 1.02774(10)
C26A C -0.0812(4) 0.29021(7) 1.07517(11)
C27A C 0.3087(3) 0.34151(7) 0.98919(9)
H5A H 0.3095 0.3337 1.0121
C28A C -0.0824(3) 0.31177(7) 1.00531(10)
C29A C 0.0050(3) 0.36582(6) 0.85370(10)
H6A H 0.0055 0.3730 0.8303
C30A C 0.4017(3) 0.36291(7) 0.94159(10)
H7A H 0.4660 0.3698 0.9325
C31A C 0.0157(4) 0.30040(7) 1.06349(10)
H8A H 0.0796 0.3001 1.0785
C32A C -0.0936(3) 0.35563(6) 0.86615(10)
C33A C 0.6003(3) 0.55845(6) 0.77236(10)
C34A C 0.6969(4) 0.60120(6) 0.79404(11)
H9A H 0.7284 0.6155 0.8015
C35A C -0.1779(4) 0.28987(8) 1.05266(13)
C36A C -0.0892(3) 0.34464(6) 0.90127(10)
H10A H -0.1531 0.3374 0.9101
C37A C 0.5507(3) 0.53591(5) 0.76137(10)
C38A C -0.2015(3) 0.35494(7) 0.84285(11)
C39A C 0.6983(4) 0.55888(6) 0.79430(12)
H11A H 0.7301 0.5446 0.8018
C40A C 0.5487(4) 0.70692(6) 0.76111(10)
C41A C 0.5484(4) 0.66462(6) 0.76111(10)
C42A C 0.7488(4) 0.57987(7) 0.80511(12)
C43A C 0.5151(3) 0.35123(10) 1.00017(11)
C44A C 0.5956(4) 0.68645(6) 0.77219(11)
H12A H 0.6594 0.6867 0.7872
C45A C 0.5931(5) 0.73208(6) 0.77094(12)
H13A H 0.6611 0.7321 0.7864
C46A C -0.1805(3) 0.30049(7) 1.01862(12)
H14A H -0.2454 0.3004 1.0041
C47A C -0.2734(4) 0.27669(8) 1.07024(14)
H15A H -0.3403 0.2762 1.0543
C48A C -0.2218(3) 0.32963(7) 0.82989(12)
H16A H -0.2250 0.3193 0.8512
H17A H -0.2909 0.3288 0.8162
H18A H -0.1623 0.3247 0.8141
C49A C -0.0961(5) 0.27732(8) 1.11217(12)
H19A H -0.0295 0.2775 1.1283
C50A C -0.1335(4) 0.25240(8) 1.10064(12)
C51A C -0.2269(4) 0.25221(8) 1.07912(13)
C52A C -0.0764(5) 0.23139(8) 1.11039(13)
H20A H -0.0118 0.2320 1.1250
C53A C -0.1960(3) 0.37165(9) 0.80965(13)
H21A H -0.1832 0.3875 0.8184
H22A H -0.1364 0.3669 0.7938
H23A H -0.2650 0.3711 0.7958
C54A C -0.2989(3) 0.36277(9) 0.86709(14)
H24A H -0.2869 0.3788 0.8754
H25A H -0.3668 0.3620 0.8527
H26A H -0.3040 0.3525 0.8883
C55A C 0.8551(4) 0.57895(8) 0.82906(16)
C56A C -0.1178(5) 0.20996(9) 1.09797(15)
H27A H -0.0808 0.1959 1.1038
C57A C -0.2696(4) 0.23099(9) 1.06694(14)
H28A H -0.3341 0.2306 1.0523
C58A C -0.2143(5) 0.20958(9) 1.07693(14)
H29A H -0.2438 0.1951 1.0691
C59A C 0.6135(4) 0.34807(12) 0.97640(13)
H30A H 0.6115 0.3595 0.9566
H31A H 0.6799 0.3503 0.9912
H32A H 0.6130 0.3324 0.9660
C60A C 0.5125(5) 0.33435(15) 1.03100(19)
H33A H 0.4475 0.3371 1.0455
H34A H 0.5107 0.3185 1.0213
H35A H 0.5777 0.3364 1.0465
C61A C 0.5271(6) 0.37719(13) 1.0158(2)
H36A H 0.5287 0.3882 0.9953
H37A H 0.4651 0.3808 1.0313
H38A H 0.5948 0.3785 1.0302
C62A C 0.9030(6) 0.60312(10) 0.8357(2)
H39A H 0.8487 0.6130 0.8474
H40A H 0.9676 0.6019 0.8517
H41A H 0.9236 0.6100 0.8123
C63A C 0.8254(6) 0.56839(14) 0.8666(2)
H42A H 0.7944 0.5529 0.8629
H43A H 0.8910 0.5673 0.8820
H44A H 0.7719 0.5783 0.8785
C64A C 0.9409(5) 0.56343(13) 0.8106(2)
H45A H 0.9103 0.5479 0.8064
H46A H 0.9614 0.5703 0.7872
H47A H 1.0054 0.5622 0.8266
C65A C -0.2922(6) 0.28872(9) 1.10771(17)
C66A C -0.1973(6) 0.28897(9) 1.12993(15)
C67A C -0.1980(6) 0.29934(9) 1.16558(16)
H48A H -0.1346 0.2996 1.1808
C68A C -0.2983(8) 0.30926(13) 1.1772(2)
H49A H -0.3013 0.3159 1.2010
C69A C -0.3917(8) 0.30960(14) 1.1551(2)
H50A H -0.4564 0.3167 1.1635
C70A C -0.3895(6) 0.29913(10) 1.11977(19)
H51A H -0.4527 0.2992 1.1045
C71A C 0.6048(5) 0.74419(7) 0.73287(14)
C72A C 0.5075(5) 0.74416(6) 0.71080(13)
C73A C 0.5075(6) 0.75397(7) 0.67562(13)
H52A H 0.4435 0.7537 0.6607
C74A C 0.6044(8) 0.76426(9) 0.66274(17)
H53A H 0.6048 0.7711 0.6391
C75A C 0.6984(7) 0.76446(9) 0.6841(2)
H54A H 0.7623 0.7715 0.6750
C76A C 0.7005(5) 0.75427(7) 0.71934(16)
H55A H 0.7657 0.7542 0.7337
loop_
_geom_bond_atom_site_label_1
_geom_bond_atom_site_label_2
_geom_bond_site_symmetry_1
_geom_bond_site_symmetry_2
N1 C1 1_555 1_555
N2 C2 1_555 1_555
N3 C22 1_555 1_555
N4 C4 1_555 1_555
C1 C2 1_555 1_555
N5 C13 1_555 1_555
N6 C19 1_555 1_555
C2 C5 1_555 1_555
C3 C6 1_555 1_555
C4 C12 1_555 1_555
C5 H1 1_555 1_555
C6 C5 1_555 1_555
C7 C1 1_555 1_555
H2 C7 1_555 1_555
C8 C6 1_555 1_555
H3 C8 1_555 1_555
C9 C8 1_555 1_555
C10 N1 1_555 1_555
C11 C16 1_555 1_555
C12 C9 1_555 1_555
H4 C12 1_555 1_555
C13 C16 1_555 1_555
C14 C19 1_555 1_555
C15 C27 1_555 1_555
C16 C36 1_555 1_555
C17 C20 1_555 1_555
C18 N2 1_555 1_555
C19 C19A 1_555 1_555
C20 C11 1_555 1_555
C21 C10 1_555 1_555
C22 C13 1_555 1_555
C23 C18 1_555 1_555
C24 C14 1_555 1_555
C25 N3 1_555 1_555
C26 C31 1_555 1_555
C27 C17 1_555 1_555
H5 C27 1_555 1_555
C28 N5 1_555 1_555
C29 C21 1_555 1_555
H6 C29 1_555 1_555
C30 C15 1_555 1_555
H7 C30 1_555 1_555
C31 C25 1_555 1_555
H8 C31 1_555 1_555
C32 C29 1_555 1_555
C33 C24 1_555 1_555
C34 C14 1_555 1_555
H9 C34 1_555 1_555
C35 C26 1_555 1_555
C36 C32 1_555 1_555
H10 C36 1_555 1_555
C37 N4 1_555 1_555
C38 C32 1_555 1_555
C39 C33 1_555 1_555
H11 C39 1_555 1_555
C40 C44 1_555 1_555
C41 N6 1_555 1_555
C42 C34 1_555 1_555
C43 C15 1_555 1_555
C44 C41 1_555 1_555
H12 C44 1_555 1_555
C45 C40 1_555 1_555
H13 C45 1_555 1_555
C46 C28 1_555 1_555
H14 C46 1_555 1_555
C47 C35 1_555 1_555
H15 C47 1_555 1_555
C48 C38 1_555 1_555
H16 C48 1_555 1_555
H17 C48 1_555 1_555
H18 C48 1_555 1_555
C49 C26 1_555 1_555
H19 C49 1_555 1_555
C50 C49 1_555 1_555
C51 C47 1_555 1_555
C52 C50 1_555 1_555
H20 C52 1_555 1_555
C53 C38 1_555 1_555
H21 C53 1_555 1_555
H22 C53 1_555 1_555
H23 C53 1_555 1_555
C54 C38 1_555 1_555
H24 C54 1_555 1_555
H25 C54 1_555 1_555
H26 C54 1_555 1_555
C55 C42 1_555 1_555
C56 C52 1_555 1_555
H27 C56 1_555 1_555
C57 C51 1_555 1_555
H28 C57 1_555 1_555
C58 C56 1_555 1_555
H29 C58 1_555 1_555
C59 C43 1_555 1_555
H30 C59 1_555 1_555
H31 C59 1_555 1_555
H32 C59 1_555 1_555
C60 C43 1_555 1_555
H33 C60 1_555 1_555
H34 C60 1_555 1_555
H35 C60 1_555 1_555
C61 C43 1_555 1_555
H36 C61 1_555 1_555
H37 C61 1_555 1_555
H38 C61 1_555 1_555
C62 C55 1_555 1_555
H39 C62 1_555 1_555
H40 C62 1_555 1_555
H41 C62 1_555 1_555
C63 C55 1_555 1_555
H42 C63 1_555 1_555
H43 C63 1_555 1_555
H44 C63 1_555 1_555
C64 C55 1_555 1_555
H45 C64 1_555 1_555
H46 C64 1_555 1_555
H47 C64 1_555 1_555
C65 C47 1_555 1_555
C66 C49 1_555 1_555
C67 C66 1_555 1_555
H48 C67 1_555 1_555
C68 C67 1_555 1_555
H49 C68 1_555 1_555
C69 C68 1_555 1_555
H50 C69 1_555 1_555
C70 C65 1_555 1_555
H51 C70 1_555 1_555
C71 C45 1_555 1_555
C72 C71 1_555 1_555
C73 C72 1_555 1_555
H52 C73 1_555 1_555
C74 C73 1_555 1_555
H53 C74 1_555 1_555
C75 C74 1_555 1_555
H54 C75 1_555 1_555
C76 C71 1_555 1_555
H55 C76 1_555 1_555
N1A C1A 1_555 1_555
N2A C2A 1_555 1_555
N3A C22A 1_555 1_555
N4A C4A 1_555 1_555
C1A C2A 1_555 1_555
N5A C13A 1_555 1_555
N6A C19A 1_555 1_555
C2A C5A 1_555 1_555
C3A C8 1_555 1_555
C4A C4 1_555 1_555
C5A H1A 1_555 1_555
C6A C3A 1_555 1_555
C7A C1A 1_555 1_555
H2A C7A 1_555 1_555
C8A C3 1_555 1_555
H3A C8A 1_555 1_555
C9A C9 1_555 1_555
C10A N1A 1_555 1_555
C11A C16A 1_555 1_555
C12A C4A 1_555 1_555
H4A C12A 1_555 1_555
C13A C16A 1_555 1_555
C14A C19A 1_555 1_555
C15A C27A 1_555 1_555
C16A C36A 1_555 1_555
C17A C20A 1_555 1_555
C18A N2A 1_555 1_555
C20A C11A 1_555 1_555
C21A C10A 1_555 1_555
C22A C13A 1_555 1_555
C23A C18A 1_555 1_555
C24A C24 1_555 1_555
C25A N3A 1_555 1_555
C26A C31A 1_555 1_555
C27A C17A 1_555 1_555
H5A C27A 1_555 1_555
C28A N5A 1_555 1_555
C29A C21A 1_555 1_555
H6A C29A 1_555 1_555
C30A C15A 1_555 1_555
H7A C30A 1_555 1_555
C31A C25A 1_555 1_555
H8A C31A 1_555 1_555
C32A C29A 1_555 1_555
C33A C24A 1_555 1_555
C34A C14A 1_555 1_555
H9A C34A 1_555 1_555
C35A C26A 1_555 1_555
C36A C32A 1_555 1_555
H10A C36A 1_555 1_555
C37A C37 1_555 1_555
C38A C32A 1_555 1_555
C39A C33A 1_555 1_555
H11A C39A 1_555 1_555
C40A C40 1_555 1_555
C41A C41 1_555 1_555
C42A C34A 1_555 1_555
C43A C15A 1_555 1_555
C44A C40A 1_555 1_555
H12A C44A 1_555 1_555
C45A C72 1_555 1_555
H13A C45A 1_555 1_555
C46A C28A 1_555 1_555
H14A C46A 1_555 1_555
C47A C35A 1_555 1_555
H15A C47A 1_555 1_555
C48A C38A 1_555 1_555
H16A C48A 1_555 1_555
H17A C48A 1_555 1_555
H18A C48A 1_555 1_555
C49A C26A 1_555 1_555
H19A C49A 1_555 1_555
C50A C49A 1_555 1_555
C51A C47A 1_555 1_555
C52A C50A 1_555 1_555
H20A C52A 1_555 1_555
C53A C38A 1_555 1_555
H21A C53A 1_555 1_555
H22A C53A 1_555 1_555
H23A C53A 1_555 1_555
C54A C38A 1_555 1_555
H24A C54A 1_555 1_555
H25A C54A 1_555 1_555
H26A C54A 1_555 1_555
C55A C42A 1_555 1_555
C56A C52A 1_555 1_555
H27A C56A 1_555 1_555
C57A C51A 1_555 1_555
H28A C57A 1_555 1_555
C58A C56A 1_555 1_555
H29A C58A 1_555 1_555
C59A C43A 1_555 1_555
H30A C59A 1_555 1_555
H31A C59A 1_555 1_555
H32A C59A 1_555 1_555
C60A C43A 1_555 1_555
H33A C60A 1_555 1_555
H34A C60A 1_555 1_555
H35A C60A 1_555 1_555
C61A C43A 1_555 1_555
H36A C61A 1_555 1_555
H37A C61A 1_555 1_555
H38A C61A 1_555 1_555
C62A C55A 1_555 1_555
H39A C62A 1_555 1_555
H40A C62A 1_555 1_555
H41A C62A 1_555 1_555
C63A C55A 1_555 1_555
H42A C63A 1_555 1_555
H43A C63A 1_555 1_555
H44A C63A 1_555 1_555
C64A C55A 1_555 1_555
H45A C64A 1_555 1_555
H46A C64A 1_555 1_555
H47A C64A 1_555 1_555
C65A C47A 1_555 1_555
C66A C49A 1_555 1_555
C67A C66A 1_555 1_555
H48A C67A 1_555 1_555
C68A C67A 1_555 1_555
H49A C68A 1_555 1_555
C69A C68A 1_555 1_555
H50A C69A 1_555 1_555
C70A C65A 1_555 1_555
H51A C70A 1_555 1_555
C71A C45A 1_555 1_555
C72A C45 1_555 1_555
C73A C72A 1_555 1_555
H52A C73A 1_555 1_555
C74A C73A 1_555 1_555
H53A C74A 1_555 1_555
C75A C74A 1_555 1_555
H54A C75A 1_555 1_555
C76A C71A 1_555 1_555
H55A C76A 1_555 1_555
C3 C7 1_555 1_555
C10 C18 1_555 1_555
C11 C21 1_555 1_555
C17 C22 1_555 1_555
C20 C23 1_555 1_555
C23 C30 1_555 1_555
C25 C28 1_555 1_555
C33 C37 1_555 1_555
C35 C46 1_555 1_555
C39 C42 1_555 1_555
C50 C51 1_555 1_555
C57 C58 1_555 1_555
C65 C66 1_555 1_555
C69 C70 1_555 1_555
C75 C76 1_555 1_555
N4A C37A 1_555 1_555
N6A C41A 1_555 1_555
C3A C7A 1_555 1_555
C5A C6A 1_555 1_555
C6A C8A 1_555 1_555
C8A C9A 1_555 1_555
C9A C12A 1_555 1_555
C10A C18A 1_555 1_555
C11A C21A 1_555 1_555
C14A C24A 1_555 1_555
C17A C22A 1_555 1_555
C20A C23A 1_555 1_555
C23A C30A 1_555 1_555
C25A C28A 1_555 1_555
C33A C37A 1_555 1_555
C35A C46A 1_555 1_555
C39A C42A 1_555 1_555
C40A C45A 1_555 1_555
C41A C44A 1_555 1_555
C50A C51A 1_555 1_555
C57A C58A 1_555 1_555
C65A C66A 1_555 1_555
C69A C70A 1_555 1_555
C71A C72A 1_555 1_555
C75A C76A 1_555 1_555

#END
