
#######################################################################
#
#                 Cambridge Crystallographic Data Centre
#                                CCDC 
#
#######################################################################
#
# If this CIF has been generated from an entry in the Cambridge 
# Structural Database, then it will include bibliographic, chemical, 
# crystal, experimental, refinement or atomic coordinate data resulting 
# from the CCDC's data processing and validation procedures.
#
#######################################################################

data_FUYSUN
_chemical_formula_moiety         'C12 H28 N2 O4 2+,2(C8 H7 O3 1-)'
_chemical_name_systematic        
'1,7,10,16-Tetraoxa-4,13-diazacyclo-octadecane bis(4-hydroxy-3-methoxybenzaldehyde)'
_symmetry_cell_setting           triclinic
_symmetry_space_group_name_H-M   'P -1'
_symmetry_Int_Tables_number      2
_space_group_name_Hall           '-P 1'
loop_
_symmetry_equiv_pos_site_id
_symmetry_equiv_pos_as_xyz
1 x,y,z
2 -x,-y,-z
_cell_length_a                   7.400(2)
_cell_length_b                   9.111(3)
_cell_length_c                   10.704(3)
_cell_angle_alpha                94.21(2)
_cell_angle_beta                 93.38(2)
_cell_angle_gamma                94.91(2)
_cell_volume                     715.543
_exptl_crystal_colour            yellow
_chemical_melting_point          379-381K
_cell_formula_units_Z            1
loop_
_atom_site_label
_atom_site_type_symbol
_atom_site_fract_x
_atom_site_fract_y
_atom_site_fract_z
N1 N 0.5873(3) -0.1600(2) 0.0836(2)
C1 C 0.7904(3) -0.1499(3) 0.1036(2)
C2 C 0.8660(4) -0.0158(3) 0.1816(2)
O1 O 0.8555(2) 0.1091(2) 0.1105(1)
C3 C 0.8731(4) 0.2449(3) 0.1866(2)
C4 C 0.8794(3) 0.3711(3) 0.1052(2)
O2 O 0.7121(2) 0.3786(2) 0.0334(1)
C5 C 0.7029(3) 0.3101(3) -0.0910(2)
C6 C 0.4919(3) -0.2890(2) 0.1371(2)
H1 H 0.5465(28) -0.0720(23) 0.1214(19)
H2 H 0.5598(31) -0.1612(26) -0.0062(22)
H3 H 0.8416 -0.1486 0.0233
H4 H 0.8237 -0.2349 0.1446
H5 H 0.9908 -0.0252 0.2071
H6 H 0.7977 -0.0035 0.2545
H7 H 0.7710 0.2492 0.2377
H8 H 0.9832 0.2511 0.2397
H9 H 0.9740 0.3599 0.0485
H10 H 0.9062 0.4614 0.1575
H11 H 0.7699 0.3723 -0.1440
H12 H 0.7528 0.2163 -0.0909
H13 H 0.5495 -0.3762 0.1128
H14 H 0.4999 -0.2729 0.2270
C6A C 0.5081(3) 0.2890(2) -0.1371(2)
C5A C 0.2971(3) -0.3101(3) 0.0910(2)
N1A N 0.4127(3) 0.1600(2) -0.0836(2)
H13A H 0.4505 0.3762 -0.1128
H14A H 0.5001 0.2729 -0.2270
O2A O 0.2879(2) -0.3786(2) -0.0334(1)
H11A H 0.2301 -0.3723 0.1440
H12A H 0.2472 -0.2163 0.0909
C1A C 0.2096(3) 0.1499(3) -0.1036(2)
H1A H 0.4535(28) 0.0720(23) -0.1214(19)
H2A H 0.4402(31) 0.1612(26) 0.0062(22)
C4A C 0.1206(3) -0.3711(3) -0.1052(2)
C2A C 0.1340(4) 0.0158(3) -0.1816(2)
H3A H 0.1584 0.1486 -0.0233
H4A H 0.1763 0.2349 -0.1446
C3A C 0.1269(4) -0.2449(3) -0.1866(2)
H9A H 0.0260 -0.3599 -0.0485
H10A H 0.0938 -0.4614 -0.1575
O1A O 0.1445(2) -0.1091(2) -0.1105(1)
H5A H 0.0092 0.0252 -0.2071
H6A H 0.2023 0.0035 -0.2545
H7A H 0.2290 -0.2492 -0.2377
H8A H 0.0168 -0.2511 -0.2397
C7 C 0.3243(3) 0.3985(3) 0.3639(2)
C8 C 0.3843(3) 0.3224(2) 0.2610(2)
C9 C 0.3835(3) 0.1675(2) 0.2528(2)
O3 O 0.4368(2) 0.0934(2) 0.1559(1)
C10 C 0.3203(3) 0.0940(2) 0.3580(2)
O4 O 0.3276(2) -0.0563(2) 0.3453(1)
C11 C 0.2600(3) 0.1716(2) 0.4592(2)
C12 C 0.2606(3) 0.3254(2) 0.4640(2)
C13 C 0.1943(4) 0.4075(3) 0.5702(2)
O5 O 0.1303(3) 0.3558(2) 0.6612(2)
C14 C 0.2587(4) -0.1389(3) 0.4432(3)
H15 H 0.3268 0.5042 0.3666
H16 H 0.4274 0.3762 0.1932
H17 H 0.2169 0.1196 0.5280
H18 H 0.2017 0.5131 0.5688
H19 H 0.3452 -0.1271 0.5145
H20 H 0.2385 -0.2415 0.4142
H21 H 0.1462 -0.1034 0.4170
loop_
_geom_bond_atom_site_label_1
_geom_bond_atom_site_label_2
_geom_bond_site_symmetry_1
_geom_bond_site_symmetry_2
N1 C1 1_555 1_555
C1 C2 1_555 1_555
C2 O1 1_555 1_555
O1 C3 1_555 1_555
C3 C4 1_555 1_555
C4 O2 1_555 1_555
O2 C5 1_555 1_555
C5 H11 1_555 1_555
C6 N1 1_555 1_555
H1 N1 1_555 1_555
H2 N1 1_555 1_555
H3 C1 1_555 1_555
H4 C1 1_555 1_555
H5 C2 1_555 1_555
H6 C2 1_555 1_555
H7 C3 1_555 1_555
H8 C3 1_555 1_555
H9 C4 1_555 1_555
H10 C4 1_555 1_555
H12 C5 1_555 1_555
H13 C6 1_555 1_555
H14 C6 1_555 1_555
C7 C8 1_555 1_555
C8 C9 1_555 1_555
C9 O3 1_555 1_555
C10 C9 1_555 1_555
O4 C10 1_555 1_555
C11 C10 1_555 1_555
C12 C7 1_555 1_555
C13 C12 1_555 1_555
O5 C13 1_555 1_555
C14 O4 1_555 1_555
H15 C7 1_555 1_555
H16 C8 1_555 1_555
H17 C11 1_555 1_555
H18 C13 1_555 1_555
H19 C14 1_555 1_555
H20 C14 1_555 1_555
H21 C14 1_555 1_555
C6A C5 1_555 1_555
C5A C6 1_555 1_555
N1A C6A 1_555 1_555
H13A C6A 1_555 1_555
H14A C6A 1_555 1_555
O2A C5A 1_555 1_555
H11A C5A 1_555 1_555
H12A C5A 1_555 1_555
C1A N1A 1_555 1_555
H1A N1A 1_555 1_555
H2A N1A 1_555 1_555
C4A O2A 1_555 1_555
C2A C1A 1_555 1_555
H3A C1A 1_555 1_555
H4A C1A 1_555 1_555
C3A C4A 1_555 1_555
H9A C4A 1_555 1_555
H10A C4A 1_555 1_555
O1A C2A 1_555 1_555
H5A C2A 1_555 1_555
H6A C2A 1_555 1_555
H7A C3A 1_555 1_555
H8A C3A 1_555 1_555
C11 C12 1_555 1_555
C3A O1A 1_555 1_555

#END
