
#######################################################################
#
#                 Cambridge Crystallographic Data Centre
#                                CCDC 
#
#######################################################################
#
# If this CIF has been generated from an entry in the Cambridge 
# Structural Database, then it will include bibliographic, chemical, 
# crystal, experimental, refinement or atomic coordinate data resulting 
# from the CCDC's data processing and validation procedures.
#
#######################################################################

data_FUZHIS
_chemical_formula_moiety         'C10 H8 N6'
_chemical_name_systematic        3,6-bis(Imidazol-1-yl)pyridazine
_symmetry_cell_setting           monoclinic
_symmetry_space_group_name_H-M   'P 21/c'
_symmetry_Int_Tables_number      14
_space_group_name_Hall           '-P 2ybc'
loop_
_symmetry_equiv_pos_site_id
_symmetry_equiv_pos_as_xyz
1 x,y,z
2 -x,1/2+y,1/2-z
3 -x,-y,-z
4 x,1/2-y,1/2+z
_cell_length_a                   3.7908(5)
_cell_length_b                   15.3585(14)
_cell_length_c                   16.2420(15)
_cell_angle_alpha                90
_cell_angle_beta                 96.6420(10)
_cell_angle_gamma                90
_cell_volume                     939.279
_exptl_crystal_colour            colorless
_exptl_crystal_description       block
_cell_formula_units_Z            4
loop_
_atom_site_label
_atom_site_type_symbol
_atom_site_fract_x
_atom_site_fract_y
_atom_site_fract_z
N1 N 0.2309(5) 0.91689(11) 0.43653(10)
N2 N 0.3219(5) 0.84606(11) 0.48300(10)
N3 N 0.1905(5) 0.99533(10) 0.31544(10)
N4 N 0.1033(5) 1.09149(12) 0.21340(11)
N5 N 0.5666(5) 0.71046(11) 0.50402(10)
N6 N 0.6572(5) 0.63766(12) 0.62226(11)
C1 C 0.4721(5) 0.77992(13) 0.44926(12)
C2 C 0.5356(6) 0.77735(13) 0.36670(12)
H1 H 0.6357 0.7286 0.3445
C3 C 0.4454(6) 0.84892(13) 0.31974(13)
H2 H 0.4835 0.8517 0.2643
C4 C 0.2933(5) 0.91798(13) 0.35855(12)
C5 C 0.2200(6) 1.01356(14) 0.23436(13)
H3 H 0.3123 0.9751 0.1982
C6 C -0.0046(6) 1.12522(15) 0.28484(14)
H4 H -0.1004 1.1806 0.2890
C7 C 0.0458(6) 1.06823(14) 0.34776(14)
H5 H -0.0061 1.0763 0.4018
C8 C 0.5507(6) 0.71074(15) 0.58727(13)
H6 H 0.4722 0.7580 0.6160
C9 C 0.7473(6) 0.58693(15) 0.55842(14)
H7 H 0.8327 0.5303 0.5645
C10 C 0.6959(6) 0.62992(14) 0.48583(14)
H8 H 0.7390 0.6094 0.4341
loop_
_geom_bond_atom_site_label_1
_geom_bond_atom_site_label_2
_geom_bond_site_symmetry_1
_geom_bond_site_symmetry_2
N1 N2 1_555 1_555
N2 C1 1_555 1_555
N3 C4 1_555 1_555
N4 C5 1_555 1_555
N5 C1 1_555 1_555
N6 C8 1_555 1_555
C1 C2 1_555 1_555
C2 H1 1_555 1_555
C3 C2 1_555 1_555
H2 C3 1_555 1_555
C4 N1 1_555 1_555
C5 N3 1_555 1_555
H3 C5 1_555 1_555
C6 N4 1_555 1_555
H4 C6 1_555 1_555
C7 N3 1_555 1_555
H5 C7 1_555 1_555
C8 N5 1_555 1_555
H6 C8 1_555 1_555
C9 N6 1_555 1_555
H7 C9 1_555 1_555
C10 N5 1_555 1_555
H8 C10 1_555 1_555
C3 C4 1_555 1_555
C6 C7 1_555 1_555
C9 C10 1_555 1_555

#END
