
#######################################################################
#
#                 Cambridge Crystallographic Data Centre
#                                CCDC 
#
#######################################################################
#
# If this CIF has been generated from an entry in the Cambridge 
# Structural Database, then it will include bibliographic, chemical, 
# crystal, experimental, refinement or atomic coordinate data resulting 
# from the CCDC's data processing and validation procedures.
#
#######################################################################

data_FUZJUH
_chemical_formula_moiety         'C15 H17 B1 F2 N2 O2'
_chemical_name_systematic        
difluoro-(2-(1-(3,5-dimethyl-2H-pyrrol-2-ylidene)-2-methoxy-2-oxoethyl)-3,5-dimethylpyrrolyl)-boron
_symmetry_cell_setting           monoclinic
_symmetry_space_group_name_H-M   'P 21/n'
_symmetry_Int_Tables_number      14
_space_group_name_Hall           '-P 2yn'
loop_
_symmetry_equiv_pos_site_id
_symmetry_equiv_pos_as_xyz
1 x,y,z
2 1/2-x,1/2+y,1/2-z
3 -x,-y,-z
4 1/2+x,1/2-y,1/2+z
_cell_length_a                   12.368(3)
_cell_length_b                   6.4212(17)
_cell_length_c                   18.423(5)
_cell_angle_alpha                90
_cell_angle_beta                 102.248(3)
_cell_angle_gamma                90
_cell_volume                     1429.8
_exptl_crystal_description       plate
_cell_formula_units_Z            4
loop_
_atom_site_label
_atom_site_type_symbol
_atom_site_fract_x
_atom_site_fract_y
_atom_site_fract_z
B1 B 0.7975(10) 0.7235(16) 0.9458(5)
C1 C 0.7274(7) 0.3918(12) 0.9953(4)
C2 C 0.6228(8) 0.2789(14) 0.9820(5)
H1 H 0.6070 0.1582 1.0077
C3 C 0.5492(8) 0.3816(18) 0.9239(4)
C4 C 0.6080(8) 0.5583(15) 0.9074(5)
C5 C 0.5697(8) 0.7183(16) 0.8530(4)
C6 C 0.6378(8) 0.8758(14) 0.8435(4)
C7 C 0.6226(7) 1.0490(14) 0.7933(4)
C8 C 0.7211(7) 1.1554(13) 0.8045(4)
H2 H 0.7363 1.2737 0.7773
C9 C 0.7924(8) 1.0636(15) 0.8605(5)
C10 C 0.8306(6) 0.3566(12) 1.0536(4)
H3 H 0.8858 0.4623 1.0487
H4 H 0.8602 0.2178 1.0472
H5 H 0.8132 0.3666 1.1030
C11 C 0.4318(6) 0.3041(13) 0.8965(3)
H6 H 0.4241 0.1659 0.9174
H7 H 0.4155 0.2953 0.8422
H8 H 0.3800 0.4008 0.9123
C12 C 0.4552(9) 0.7130(12) 0.8124(5)
C13 C 0.5186(6) 1.0958(12) 0.7292(4)
H9 H 0.5115 0.9869 0.6912
H10 H 0.5280 1.2312 0.7068
H11 H 0.4518 1.0983 0.7498
C14 C 0.9120(7) 1.1182(11) 0.8948(4)
H12 H 0.9484 0.9981 0.9224
H13 H 0.9139 1.2366 0.9286
H14 H 0.9507 1.1553 0.8553
F1 F 0.8215(3) 0.8340(7) 1.0163(2)
F2 F 0.8947(3) 0.6449(7) 0.9349(2)
N1 N 0.7124(5) 0.5617(11) 0.9502(3)
N2 N 0.7433(6) 0.8862(11) 0.8844(3)
O1 O 0.4452(4) 0.6221(7) 0.7458(3)
O2 O 0.3786(5) 0.7886(9) 0.8329(3)
C15 C 0.3317(7) 0.6262(13) 0.6979(3)
H15 H 0.2830 0.5351 0.7193
H16 H 0.3346 0.5774 0.6480
H17 H 0.3030 0.7689 0.6951
loop_
_geom_bond_atom_site_label_1
_geom_bond_atom_site_label_2
_geom_bond_site_symmetry_1
_geom_bond_site_symmetry_2
B1 F1 1_555 1_555
C1 C2 1_555 1_555
C2 H1 1_555 1_555
C3 C2 1_555 1_555
C4 C3 1_555 1_555
C5 C4 1_555 1_555
C6 C5 1_555 1_555
C7 C6 1_555 1_555
C8 C7 1_555 1_555
H2 C8 1_555 1_555
C9 C8 1_555 1_555
C10 C1 1_555 1_555
H3 C10 1_555 1_555
H4 C10 1_555 1_555
H5 C10 1_555 1_555
C11 C3 1_555 1_555
H6 C11 1_555 1_555
H7 C11 1_555 1_555
H8 C11 1_555 1_555
C12 C5 1_555 1_555
C13 C7 1_555 1_555
H9 C13 1_555 1_555
H10 C13 1_555 1_555
H11 C13 1_555 1_555
C14 C9 1_555 1_555
H12 C14 1_555 1_555
H13 C14 1_555 1_555
H14 C14 1_555 1_555
F2 B1 1_555 1_555
N1 B1 1_555 1_555
N2 B1 1_555 1_555
O1 C12 1_555 1_555
O2 C12 1_555 1_555
C15 O1 1_555 1_555
H15 C15 1_555 1_555
H16 C15 1_555 1_555
H17 C15 1_555 1_555
C1 N1 1_555 1_555
C4 N1 1_555 1_555
C6 N2 1_555 1_555
C9 N2 1_555 1_555

#END
