
#######################################################################
#
#                 Cambridge Crystallographic Data Centre
#                                CCDC 
#
#######################################################################
#
# If this CIF has been generated from an entry in the Cambridge 
# Structural Database, then it will include bibliographic, chemical, 
# crystal, experimental, refinement or atomic coordinate data resulting 
# from the CCDC's data processing and validation procedures.
#
#######################################################################

data_FUZKAO
_chemical_formula_moiety         'C16 H21 B1 F2 N2'
_chemical_name_systematic        
(2-(1-(3,5-dimethyl-2H-pyrrol-2-ylidene)-2-methylpropyl)-3,5-dimethylpyrrolyl)-difluoro-boron
_symmetry_cell_setting           monoclinic
_symmetry_space_group_name_H-M   'P 21/c'
_symmetry_Int_Tables_number      14
_space_group_name_Hall           '-P 2ybc'
loop_
_symmetry_equiv_pos_site_id
_symmetry_equiv_pos_as_xyz
1 x,y,z
2 -x,1/2+y,1/2-z
3 -x,-y,-z
4 x,1/2-y,1/2+z
_cell_length_a                   11.8092(12)
_cell_length_b                   7.1347(7)
_cell_length_c                   18.0949(19)
_cell_angle_alpha                90
_cell_angle_beta                 94.310(5)
_cell_angle_gamma                90
_cell_volume                     1520.28
_exptl_crystal_colour            orange
_exptl_crystal_description       Block
_cell_formula_units_Z            4
loop_
_atom_site_label
_atom_site_type_symbol
_atom_site_fract_x
_atom_site_fract_y
_atom_site_fract_z
B1 B 0.7460(3) 0.6914(5) 0.16433(16)
F1 F 0.65948(13) 0.8012(2) 0.13140(9)
F2 F 0.82396(14) 0.6529(3) 0.11206(9)
N1 N 0.69775(18) 0.5087(3) 0.19340(12)
N2 N 0.80629(17) 0.7914(3) 0.23103(11)
C1 C 0.6441(2) 0.3765(4) 0.15060(17)
C2 C 0.6083(3) 0.2351(4) 0.1961(2)
H1 H 0.5694 0.1260 0.1797
C3 C 0.6385(2) 0.2794(4) 0.26907(19)
C4 C 0.6961(2) 0.4562(4) 0.26810(15)
C5 C 0.7490(2) 0.5709(4) 0.32370(15)
C6 C 0.8087(2) 0.7331(4) 0.30516(13)
C7 C 0.8796(2) 0.8650(4) 0.34728(16)
C8 C 0.9145(2) 0.9949(4) 0.29728(17)
H2 H 0.9621 1.0980 0.3089
C9 C 0.8678(2) 0.9485(4) 0.22719(16)
C10 C 0.6296(3) 0.3905(5) 0.06874(18)
H3 H 0.5806 0.4958 0.0548
H4 H 0.5956 0.2759 0.0485
H5 H 0.7031 0.4090 0.0492
C11 C 0.6122(3) 0.1480(5) 0.3306(2)
H6 H 0.5533 0.2021 0.3585
H7 H 0.6801 0.1284 0.3633
H8 H 0.5863 0.0290 0.3097
C12 C 0.7421(3) 0.5195(6) 0.40326(18)
H9 H 0.6910 0.4125 0.3905
C13 C 0.6533(4) 0.6190(8) 0.4435(2)
H10 H 0.6627 0.5883 0.4958
H11 H 0.5785 0.5799 0.4235
H12 H 0.6612 0.7533 0.4372
C14 C 0.8304(3) 0.3970(5) 0.43749(18)
H13 H 0.8357 0.2846 0.4078
H14 H 0.8113 0.3630 0.4870
H15 H 0.9027 0.4622 0.4404
C15 C 0.9202(3) 0.8769(5) 0.42743(17)
H16 H 0.9791 0.9715 0.4340
H17 H 0.9506 0.7564 0.4440
H18 H 0.8573 0.9105 0.4563
C16 C 0.8808(3) 1.0518(5) 0.15634(18)
H19 H 0.9384 0.9911 0.1293
H20 H 0.9033 1.1801 0.1673
H21 H 0.8090 1.0511 0.1265
loop_
_geom_bond_atom_site_label_1
_geom_bond_atom_site_label_2
_geom_bond_site_symmetry_1
_geom_bond_site_symmetry_2
B1 F1 1_555 1_555
F2 B1 1_555 1_555
N1 B1 1_555 1_555
N2 B1 1_555 1_555
C1 N1 1_555 1_555
C2 C1 1_555 1_555
H1 C2 1_555 1_555
C3 C2 1_555 1_555
C4 N1 1_555 1_555
C5 C4 1_555 1_555
C6 N2 1_555 1_555
C7 C6 1_555 1_555
C8 C7 1_555 1_555
H2 C8 1_555 1_555
C9 N2 1_555 1_555
C10 C1 1_555 1_555
H3 C10 1_555 1_555
H4 C10 1_555 1_555
H5 C10 1_555 1_555
C11 C3 1_555 1_555
H6 C11 1_555 1_555
H7 C11 1_555 1_555
H8 C11 1_555 1_555
C12 C5 1_555 1_555
H9 C12 1_555 1_555
C13 C12 1_555 1_555
H10 C13 1_555 1_555
H11 C13 1_555 1_555
H12 C13 1_555 1_555
C14 C12 1_555 1_555
H13 C14 1_555 1_555
H14 C14 1_555 1_555
H15 C14 1_555 1_555
C15 C7 1_555 1_555
H16 C15 1_555 1_555
H17 C15 1_555 1_555
H18 C15 1_555 1_555
C16 C9 1_555 1_555
H19 C16 1_555 1_555
H20 C16 1_555 1_555
H21 C16 1_555 1_555
C3 C4 1_555 1_555
C5 C6 1_555 1_555
C8 C9 1_555 1_555

#END
