
#######################################################################
#
#                 Cambridge Crystallographic Data Centre
#                                CCDC 
#
#######################################################################
#
# If this CIF has been generated from an entry in the Cambridge 
# Structural Database, then it will include bibliographic, chemical, 
# crystal, experimental, refinement or atomic coordinate data resulting 
# from the CCDC's data processing and validation procedures.
#
#######################################################################

data_FUZPAR01
_chemical_formula_moiety         'H12 B3 N3'
_chemical_name_systematic        cyclotriborazane
_symmetry_cell_setting           orthorhombic
_symmetry_space_group_name_H-M   'P b c m'
_symmetry_Int_Tables_number      57
_space_group_name_Hall           '-P 2c 2b'
loop_
_symmetry_equiv_pos_site_id
_symmetry_equiv_pos_as_xyz
1 x,y,z
2 -x,-y,1/2+z
3 x,1/2-y,-z
4 -x,1/2+y,1/2-z
5 -x,-y,-z
6 x,y,1/2-z
7 -x,1/2+y,z
8 x,1/2-y,1/2+z
_cell_length_a                   4.383(2)
_cell_length_b                   12.193(2)
_cell_length_c                   11.180(2)
_cell_angle_alpha                90
_cell_angle_beta                 90
_cell_angle_gamma                90
_cell_volume                     597.481
_cell_formula_units_Z            4
loop_
_atom_site_label
_atom_site_type_symbol
_atom_site_fract_x
_atom_site_fract_y
_atom_site_fract_z
N1 N 0.2447(3) 0.37063(12) 0.2500
B1 B 0.3545(5) 0.61662(15) 0.2500
N2 N 0.2460(3) 0.55058(9) 0.36300(9)
B2 B 0.3531(3) 0.42740(11) 0.36918(13)
H1 H 0.246(2) 0.3858(10) 0.4517(12)
H2 H 0.243(3) 0.7050(14) 0.2500
H3 H 0.611(4) 0.6224(13) 0.2500
H4 H 0.613(3) 0.4255(9) 0.3715(9)
H5 H 0.050(4) 0.5541(11) 0.3703(10)
H6 H 0.049(4) 0.3632(13) 0.2500
H7 H 0.314(4) 0.3022(16) 0.2500
H8 H 0.321(3) 0.5846(11) 0.4284(14)
N2E N 0.2460(3) 0.55058(9) 0.13700(9)
B2E B 0.3531(3) 0.42740(11) 0.13082(13)
H1E H 0.246(2) 0.3858(10) 0.0483(12)
H4E H 0.613(3) 0.4255(9) 0.1285(9)
H5E H 0.050(4) 0.5541(11) 0.1297(10)
H8E H 0.321(3) 0.5846(11) 0.0716(14)
loop_
_geom_bond_atom_site_label_1
_geom_bond_atom_site_label_2
_geom_bond_site_symmetry_1
_geom_bond_site_symmetry_2
N1 B2 1_555 1_555
B1 N2 1_555 1_555
N2 B2 1_555 1_555
B2 H1 1_555 1_555
H2 B1 1_555 1_555
H3 B1 1_555 1_555
H4 B2 1_555 1_555
H5 N2 1_555 1_555
H6 N1 1_555 1_555
H7 N1 1_555 1_555
H8 N2 1_555 1_555
N2E B1 1_555 1_555
B2E N1 1_555 1_555
H1E B2E 1_555 1_555
H4E B2E 1_555 1_555
H5E N2E 1_555 1_555
H8E N2E 1_555 1_555
N2E B2E 1_555 1_555

#END
