
#######################################################################
#
#                 Cambridge Crystallographic Data Centre
#                                CCDC 
#
#######################################################################
#
# If this CIF has been generated from an entry in the Cambridge 
# Structural Database, then it will include bibliographic, chemical, 
# crystal, experimental, refinement or atomic coordinate data resulting 
# from the CCDC's data processing and validation procedures.
#
#######################################################################

data_FUZQOH
_chemical_formula_moiety         'C12 H10 N2 O2'
_chemical_name_systematic        
3-(Hydroxymethyl)-2,9-dihydro-1H-\b-carbolin-1-one
_symmetry_cell_setting           monoclinic
_symmetry_space_group_name_H-M   'P 21/n'
_symmetry_Int_Tables_number      14
_space_group_name_Hall           '-P 2yn'
loop_
_symmetry_equiv_pos_site_id
_symmetry_equiv_pos_as_xyz
1 x,y,z
2 1/2-x,1/2+y,1/2-z
3 -x,-y,-z
4 1/2+x,1/2-y,1/2+z
_cell_length_a                   12.588(3)
_cell_length_b                   5.9830(12)
_cell_length_c                   13.443(3)
_cell_angle_alpha                90
_cell_angle_beta                 93.47(3)
_cell_angle_gamma                90
_cell_volume                     1010.59
_cell_formula_units_Z            4
loop_
_atom_site_label
_atom_site_type_symbol
_atom_site_fract_x
_atom_site_fract_y
_atom_site_fract_z
O1 O 0.7357(3) 0.8797(5) 0.2965(2)
H1 H 0.6888 0.9597 0.3169
N1 N 0.5572(3) 0.2202(6) 0.6078(3)
H2 H 0.5262 0.0947 0.5945
C1 C 0.6337(4) 0.6685(9) 0.7744(3)
H3 H 0.6704 0.8029 0.7706
O2 O 0.5934(3) 0.1287(6) 0.3935(2)
N2 N 0.6892(3) 0.4523(6) 0.3983(3)
H4 H 0.7028 0.4291 0.3373
C2 C 0.5920(4) 0.6019(10) 0.8607(4)
H5 H 0.6017 0.6925 0.9167
C3 C 0.5356(4) 0.4044(10) 0.8682(4)
H6 H 0.5084 0.3662 0.9287
C4 C 0.5189(4) 0.2634(10) 0.7877(3)
H7 H 0.4811 0.1306 0.7925
C5 C 0.5613(4) 0.3294(8) 0.6984(3)
C6 C 0.6194(4) 0.5266(8) 0.6911(3)
C7 C 0.6517(4) 0.5364(8) 0.5905(3)
C8 C 0.6112(3) 0.3468(8) 0.5429(3)
C9 C 0.6281(4) 0.2964(8) 0.4417(3)
C10 C 0.7318(4) 0.6447(8) 0.4424(3)
C11 C 0.7136(4) 0.6871(9) 0.5385(3)
H8 H 0.7418 0.8144 0.5699
C12 C 0.7970(4) 0.7884(9) 0.3785(3)
H9 H 0.8284 0.9092 0.4185
H10 H 0.8545 0.7000 0.3540
loop_
_geom_bond_atom_site_label_1
_geom_bond_atom_site_label_2
_geom_bond_site_symmetry_1
_geom_bond_site_symmetry_2
O1 H1 1_555 1_555
N1 H2 1_555 1_555
C1 H3 1_555 1_555
O2 C9 1_555 1_555
N2 H4 1_555 1_555
C2 C1 1_555 1_555
H5 C2 1_555 1_555
C3 C2 1_555 1_555
H6 C3 1_555 1_555
C4 C3 1_555 1_555
H7 C4 1_555 1_555
C5 N1 1_555 1_555
C6 C1 1_555 1_555
C7 C6 1_555 1_555
C8 N1 1_555 1_555
C9 N2 1_555 1_555
C10 N2 1_555 1_555
C11 C7 1_555 1_555
H8 C11 1_555 1_555
C12 O1 1_555 1_555
H9 C12 1_555 1_555
H10 C12 1_555 1_555
C4 C5 1_555 1_555
C5 C6 1_555 1_555
C7 C8 1_555 1_555
C8 C9 1_555 1_555
C10 C11 1_555 1_555
C10 C12 1_555 1_555

#END
