
#######################################################################
#
#                 Cambridge Crystallographic Data Centre
#                                CCDC 
#
#######################################################################
#
# If this CIF has been generated from an entry in the Cambridge 
# Structural Database, then it will include bibliographic, chemical, 
# crystal, experimental, refinement or atomic coordinate data resulting 
# from the CCDC's data processing and validation procedures.
#
#######################################################################

data_FUZQAT
_chemical_formula_moiety         'C20 H30 O4'
_chemical_name_systematic        'ent-1\b,7\a-Dihydroxykaur-16-en-19-oic acid'
_symmetry_cell_setting           orthorhombic
_symmetry_space_group_name_H-M   'P 21 21 21'
_symmetry_Int_Tables_number      19
_space_group_name_Hall           'P 2ac 2ab'
loop_
_symmetry_equiv_pos_site_id
_symmetry_equiv_pos_as_xyz
1 x,y,z
2 1/2-x,-y,1/2+z
3 -x,1/2+y,1/2-z
4 1/2+x,1/2-y,-z
_cell_length_a                   7.8825(10)
_cell_length_b                   11.1507(15)
_cell_length_c                   21.621(3)
_cell_angle_alpha                90
_cell_angle_beta                 90
_cell_angle_gamma                90
_cell_volume                     1900.39
_chemical_melting_point          '279-281 deg.C'
_cell_formula_units_Z            4
loop_
_atom_site_label
_atom_site_type_symbol
_atom_site_fract_x
_atom_site_fract_y
_atom_site_fract_z
C1 C 0.69094(19) 1.07650(14) 0.80027(8)
C2 C 0.6134(2) 1.06394(16) 0.73621(8)
H1 H 0.5278 1.0015 0.7372
H2 H 0.5576 1.1385 0.7253
C3 C 0.7423(2) 1.03381(15) 0.68715(8)
H3 H 0.817 1.1021 0.6816
H4 H 0.6836 1.0205 0.6483
C4 C 0.8499(2) 0.92343(15) 0.70185(8)
C5 C 0.92602(19) 0.94061(14) 0.76789(7)
C6 C 1.0549(2) 0.84419(15) 0.78682(9)
H5 H 0.9951 0.7718 0.7988
H6 H 1.1268 0.8251 0.7518
C7 C 1.1633(2) 0.88649(15) 0.83998(9)
C8 C 1.0562(2) 0.91751(17) 0.89646(8)
C9 C 0.9054(2) 1.00179(16) 0.87943(8)
C10 C 0.79659(18) 0.96535(13) 0.82127(7)
C11 C 0.8060(3) 1.0293(2) 0.93972(9)
H7 H 0.8647 1.0931 0.9615
H8 H 0.695 1.0597 0.9283
C12 C 0.7812(3) 0.9250(3) 0.98459(11)
H9 H 0.7453 0.9561 1.0244
H10 H 0.6922 0.873 0.9691
C13 C 0.9434(4) 0.8522(3) 0.99299(12)
C14 C 0.9953(3) 0.8032(2) 0.93030(11)
H11 H 0.9 0.7666 0.9091
H12 H 1.086 0.7449 0.9341
C15 C 1.1673(3) 0.9766(3) 0.94692(10)
H13 H 1.2842 0.9502 0.9435
H14 H 1.1639 1.0633 0.9435
C16 C 1.0904(4) 0.9357(4) 1.00751(12)
C17 C 1.1426(5) 0.9666(6) 1.06288(16)
H15 H 1.2346 1.0181 1.0673
H16 H 1.0875 0.937 1.0977
C18 C 0.9943(3) 0.9175(2) 0.65351(10)
H17 H 1.0607 0.9896 0.6556
H18 H 0.9465 0.9098 0.6129
H19 H 1.0654 0.8496 0.662
C19 C 0.7541(2) 0.80551(16) 0.69442(8)
C20 C 0.6746(2) 0.86025(15) 0.83241(9)
H20 H 0.7379 0.791 0.8452
H21 H 0.6147 0.8424 0.7948
H22 H 0.5948 0.8816 0.8641
O1 O 0.55764(17) 1.10600(12) 0.84292(6)
O2 O 1.27156(16) 0.98081(13) 0.82102(7)
O3 O 0.60115(19) 0.81393(14) 0.67277(7)
O4 O 0.8210(2) 0.71046(12) 0.70683(9)
H23 H 0.766(2) 1.1501(16) 0.7992(8)
H24 H 0.486(4) 1.062(3) 0.8399(13)
H25 H 0.565(4) 0.740(2) 0.6698(11)
H26 H 1.218(3) 1.039(2) 0.8123(10)
H27 H 0.990(3) 1.0155(18) 0.7632(9)
H28 H 1.242(3) 0.8261(17) 0.8523(9)
H29 H 0.960(2) 1.0731(17) 0.8653(9)
H30 H 0.924(4) 0.783(3) 1.0254(16)
loop_
_geom_bond_atom_site_label_1
_geom_bond_atom_site_label_2
_geom_bond_site_symmetry_1
_geom_bond_site_symmetry_2
C1 C2 1_555 1_555
C2 H1 1_555 1_555
H2 C2 1_555 1_555
C3 C2 1_555 1_555
H3 C3 1_555 1_555
H4 C3 1_555 1_555
C4 C3 1_555 1_555
C5 C4 1_555 1_555
C6 C5 1_555 1_555
H5 C6 1_555 1_555
H6 C6 1_555 1_555
C7 C6 1_555 1_555
C8 C7 1_555 1_555
C9 C8 1_555 1_555
C10 C1 1_555 1_555
C11 C9 1_555 1_555
H7 C11 1_555 1_555
H8 C11 1_555 1_555
C12 C11 1_555 1_555
H9 C12 1_555 1_555
H10 C12 1_555 1_555
C13 C12 1_555 1_555
C14 C8 1_555 1_555
H11 C14 1_555 1_555
H12 C14 1_555 1_555
C15 C8 1_555 1_555
H13 C15 1_555 1_555
H14 C15 1_555 1_555
C16 C13 1_555 1_555
C17 C16 1_555 1_555
H15 C17 1_555 1_555
H16 C17 1_555 1_555
C18 C4 1_555 1_555
H17 C18 1_555 1_555
H18 C18 1_555 1_555
H19 C18 1_555 1_555
C19 C4 1_555 1_555
C20 C10 1_555 1_555
H20 C20 1_555 1_555
H21 C20 1_555 1_555
H22 C20 1_555 1_555
O1 C1 1_555 1_555
O2 C7 1_555 1_555
O3 C19 1_555 1_555
O4 C19 1_555 1_555
H23 C1 1_555 1_555
H24 O1 1_555 1_555
H25 O3 1_555 1_555
H26 O2 1_555 1_555
H27 C5 1_555 1_555
H28 C7 1_555 1_555
H29 C9 1_555 1_555
H30 C13 1_555 1_555
C5 C10 1_555 1_555
C9 C10 1_555 1_555
C13 C14 1_555 1_555
C15 C16 1_555 1_555

#END
