
#######################################################################
#
#                 Cambridge Crystallographic Data Centre
#                                CCDC 
#
#######################################################################
#
# If this CIF has been generated from an entry in the Cambridge 
# Structural Database, then it will include bibliographic, chemical, 
# crystal, experimental, refinement or atomic coordinate data resulting 
# from the CCDC's data processing and validation procedures.
#
#######################################################################

data_FUZQIB
_chemical_formula_moiety         'C11 H8 N2 O1,H2 O1'
_chemical_name_systematic        '2,9-Dihydro-1H-\b-carbolin-1-one monohydrate'
_symmetry_cell_setting           monoclinic
_symmetry_space_group_name_H-M   'P 21/c'
_symmetry_Int_Tables_number      14
_space_group_name_Hall           '-P 2ybc'
loop_
_symmetry_equiv_pos_site_id
_symmetry_equiv_pos_as_xyz
1 x,y,z
2 -x,1/2+y,1/2-z
3 -x,-y,-z
4 x,1/2-y,1/2+z
_cell_length_a                   13.971(3)
_cell_length_b                   3.8610(8)
_cell_length_c                   17.989(4)
_cell_angle_alpha                90
_cell_angle_beta                 102.00(3)
_cell_angle_gamma                90
_cell_volume                     949.158
_cell_formula_units_Z            4
loop_
_atom_site_label
_atom_site_type_symbol
_atom_site_fract_x
_atom_site_fract_y
_atom_site_fract_z
O1 O 0.02320(16) 0.4014(7) 0.40759(12)
N1 N 0.1202(2) 0.2685(9) 0.52285(15)
H1 H 0.0747 0.3423 0.5444
C1 C 0.2043(3) 0.1460(12) 0.56875(19)
H2 H 0.2108 0.1544 0.6212
N2 N 0.18431(19) 0.1155(8) 0.33976(14)
H3 H 0.1397 0.1813 0.3020
C2 C 0.1036(3) 0.2817(10) 0.44570(18)
C3 C 0.1797(2) 0.1440(10) 0.41433(18)
C4 C 0.2717(2) -0.0349(10) 0.33457(18)
C5 C 0.3079(3) -0.1186(11) 0.2708(2)
H4 H 0.2714 -0.0772 0.2222
C6 C 0.3991(3) -0.2640(12) 0.2815(2)
H5 H 0.4243 -0.3260 0.2395
C7 C 0.4549(3) -0.3211(11) 0.3544(2)
H6 H 0.5175 -0.4137 0.3600
C8 C 0.4194(3) -0.2436(11) 0.4174(2)
H7 H 0.4563 -0.2896 0.4657
C9 C 0.3257(2) -0.0926(10) 0.40836(19)
C10 C 0.2668(2) 0.0164(10) 0.46010(19)
C11 C 0.2773(3) 0.0143(12) 0.5394(2)
H8 H 0.3332 -0.0757 0.5707
O2 O 0.06174(18) 0.3632(8) 0.20424(13)
H9 H 0.0797 0.3421 0.1621
H10 H 0.0074 0.4588 0.2057
loop_
_geom_bond_atom_site_label_1
_geom_bond_atom_site_label_2
_geom_bond_site_symmetry_1
_geom_bond_site_symmetry_2
O1 C2 1_555 1_555
N1 H1 1_555 1_555
C1 N1 1_555 1_555
H2 C1 1_555 1_555
N2 H3 1_555 1_555
C2 N1 1_555 1_555
C3 N2 1_555 1_555
C4 N2 1_555 1_555
C5 C4 1_555 1_555
H4 C5 1_555 1_555
C6 C5 1_555 1_555
H5 C6 1_555 1_555
C7 C6 1_555 1_555
H6 C7 1_555 1_555
C8 C7 1_555 1_555
H7 C8 1_555 1_555
C9 C4 1_555 1_555
C10 C3 1_555 1_555
C11 C1 1_555 1_555
H8 C11 1_555 1_555
O2 H9 1_555 1_555
H10 O2 1_555 1_555
C2 C3 1_555 1_555
C8 C9 1_555 1_555
C9 C10 1_555 1_555
C10 C11 1_555 1_555

#END
