
#######################################################################
#
#                 Cambridge Crystallographic Data Centre
#                                CCDC 
#
#######################################################################
#
# If this CIF has been generated from an entry in the Cambridge 
# Structural Database, then it will include bibliographic, chemical, 
# crystal, experimental, refinement or atomic coordinate data resulting 
# from the CCDC's data processing and validation procedures.
#
#######################################################################

data_FUZSOJ
_chemical_compound_source        'gorgonian coral Ellisella robusta'
_chemical_name_common            'Robustolide H'
_chemical_formula_moiety         'C28 H37 Cl1 O12'
_chemical_name_systematic        
"4-Chloro-13a-hydroxy-1,8a-dimethyl-5-methylene-2-oxotetradecahydro-2H-spiro[benzo[4,5]cyclodeca[1,2-b]furan-12,2'-oxirane]-8,9,11,13-tetrayl tetraacetate"
_symmetry_cell_setting           monoclinic
_symmetry_space_group_name_H-M   'C 2'
_symmetry_Int_Tables_number      5
_space_group_name_Hall           'C 2y'
loop_
_symmetry_equiv_pos_site_id
_symmetry_equiv_pos_as_xyz
1 x,y,z
2 -x,y,-z
3 1/2+x,1/2+y,z
4 1/2-x,1/2+y,-z
_cell_length_a                   17.4792(8)
_cell_length_b                   18.9594(8)
_cell_length_c                   9.9193(4)
_cell_angle_alpha                90
_cell_angle_beta                 104.639(2)
_cell_angle_gamma                90
_cell_volume                     3180.5
_exptl_crystal_colour            colorless
_exptl_crystal_description       plate
_cell_formula_units_Z            4
_exptl_crystal_recrystallization_method methanol
loop_
_atom_site_label
_atom_site_type_symbol
_atom_site_fract_x
_atom_site_fract_y
_atom_site_fract_z
Cl1 Cl 0.45795(3) 0.00383(3) 0.19421(6)
O1 O 0.09818(9) 0.15020(9) 0.19697(15)
O2 O 0.14199(11) 0.13829(11) 0.43034(18)
O3 O 0.49159(8) 0.14643(8) 0.30850(15)
O4 O 0.33846(9) 0.20626(8) 0.30533(16)
O5 O 0.29933(8) 0.19129(8) -0.04929(14)
O6 O 0.40920(9) 0.22087(10) -0.11394(16)
O7 O 0.29202(9) 0.37873(8) -0.03379(15)
O8 O 0.22057(9) 0.41454(8) 0.20408(15)
O9 O 0.25720(14) 0.51828(10) 0.13069(19)
O10 O 0.14209(9) 0.29628(8) 0.28600(14)
O11 O 0.01828(10) 0.31332(13) 0.30728(19)
O12 O 0.56860(8) 0.23063(8) 0.42851(14)
C1 C 0.16626(12) 0.23591(11) 0.0851(2)
C2 C 0.17719(12) 0.17001(12) 0.1815(2)
H1 H 0.2123 0.1813 0.2727
C3 C 0.20690(14) 0.10484(12) 0.1216(2)
H2 H 0.2441 0.1198 0.0694
H3 H 0.1624 0.0831 0.0561
C4 C 0.24749(14) 0.04806(12) 0.2275(2)
H4 H 0.2214 0.0471 0.3029
H5 H 0.2390 0.0025 0.1817
C5 C 0.33513(15) 0.05713(12) 0.2897(2)
C6 C 0.38268(13) 0.07167(12) 0.1846(2)
H6 H 0.3459 0.0674 0.0923
C7 C 0.42427(12) 0.14244(12) 0.1869(2)
H7 H 0.4441 0.1458 0.1031
C8 C 0.37901(11) 0.21172(11) 0.2003(2)
C9 C 0.32049(12) 0.24121(11) 0.06639(19)
H8 H 0.3493 0.2792 0.0336
C10 C 0.24628(12) 0.27653(11) 0.0936(2)
H9 H 0.2632 0.2929 0.1903
C11 C 0.22761(12) 0.34410(12) 0.0078(2)
C12 C 0.17768(13) 0.39524(12) 0.0631(2)
H10 H 0.1673 0.4373 0.0039
C13 C 0.10053(13) 0.36009(12) 0.0675(2)
H11 H 0.0681 0.3552 -0.0271
H12 H 0.0725 0.3905 0.1174
C14 C 0.11053(13) 0.28784(12) 0.1364(2)
H13 H 0.0582 0.2659 0.1202
C15 C 0.12229(12) 0.21493(12) -0.0651(2)
H14 H 0.1555 0.1849 -0.1037
H15 H 0.1095 0.2566 -0.1212
H16 H 0.0745 0.1903 -0.0637
C16 C 0.36897(17) 0.04816(14) 0.4245(3)
H17 H 0.3384 0.0357 0.4851
H18 H 0.4232 0.0543 0.4583
C17 C 0.45142(12) 0.26138(12) 0.2438(2)
H19 H 0.4705 0.2703 0.1606
C18 C 0.43839(14) 0.33272(12) 0.3048(2)
H20 H 0.4034 0.3606 0.2347
H21 H 0.4881 0.3566 0.3360
H22 H 0.4154 0.3259 0.3821
C19 C 0.51085(12) 0.21449(12) 0.3381(2)
C20 C 0.22739(14) 0.34986(13) -0.1400(2)
H23 H 0.2373 0.3074 -0.1874
H24 H 0.1905 0.3827 -0.1973
C21 C 0.09043(15) 0.13359(16) 0.3242(3)
C22 C 0.00767(19) 0.1074(3) 0.3151(4)
H25 H 0.0101 0.0667 0.3737
H26 H -0.0174 0.0949 0.2205
H27 H -0.0223 0.1438 0.3454
C23 C 0.34667(13) 0.19114(12) -0.1384(2)
C24 C 0.31074(15) 0.15114(16) -0.2681(2)
H28 H 0.2651 0.1260 -0.2567
H29 H 0.3487 0.1183 -0.2864
H30 H 0.2952 0.1834 -0.3448
C25 C 0.26055(15) 0.47587(13) 0.2213(2)
C26 C 0.30826(15) 0.48383(14) 0.3702(2)
H31 H 0.2835 0.4577 0.4305
H32 H 0.3109 0.5328 0.3958
H33 H 0.3607 0.4661 0.3791
C27 C 0.08807(14) 0.30949(15) 0.3591(2)
C28 C 0.12822(16) 0.3186(2) 0.5110(3)
H34 H 0.1560 0.2760 0.5462
H35 H 0.0893 0.3284 0.5616
H36 H 0.1650 0.3570 0.5223
H37 H 0.3673(16) 0.2018(14) 0.374(3)
loop_
_geom_bond_atom_site_label_1
_geom_bond_atom_site_label_2
_geom_bond_site_symmetry_1
_geom_bond_site_symmetry_2
Cl1 C6 1_555 1_555
O1 C2 1_555 1_555
O2 C21 1_555 1_555
O3 C7 1_555 1_555
O4 C8 1_555 1_555
O5 C9 1_555 1_555
O6 C23 1_555 1_555
O7 C11 1_555 1_555
O8 C12 1_555 1_555
O9 C25 1_555 1_555
O10 C14 1_555 1_555
O11 C27 1_555 1_555
O12 C19 1_555 1_555
C1 C2 1_555 1_555
C2 H1 1_555 1_555
C3 C2 1_555 1_555
H2 C3 1_555 1_555
H3 C3 1_555 1_555
C4 C3 1_555 1_555
H4 C4 1_555 1_555
H5 C4 1_555 1_555
C5 C4 1_555 1_555
C6 C5 1_555 1_555
H6 C6 1_555 1_555
C7 C6 1_555 1_555
H7 C7 1_555 1_555
C8 C7 1_555 1_555
C9 C8 1_555 1_555
H8 C9 1_555 1_555
C10 C1 1_555 1_555
H9 C10 1_555 1_555
C11 C10 1_555 1_555
C12 C11 1_555 1_555
H10 C12 1_555 1_555
C13 C12 1_555 1_555
H11 C13 1_555 1_555
H12 C13 1_555 1_555
C14 C1 1_555 1_555
H13 C14 1_555 1_555
C15 C1 1_555 1_555
H14 C15 1_555 1_555
H15 C15 1_555 1_555
H16 C15 1_555 1_555
C16 C5 1_555 1_555
H17 C16 1_555 1_555
H18 C16 1_555 1_555
C17 C8 1_555 1_555
H19 C17 1_555 1_555
C18 C17 1_555 1_555
H20 C18 1_555 1_555
H21 C18 1_555 1_555
H22 C18 1_555 1_555
C19 O3 1_555 1_555
C20 O7 1_555 1_555
H23 C20 1_555 1_555
H24 C20 1_555 1_555
C21 O1 1_555 1_555
C22 C21 1_555 1_555
H25 C22 1_555 1_555
H26 C22 1_555 1_555
H27 C22 1_555 1_555
C23 O5 1_555 1_555
C24 C23 1_555 1_555
H28 C24 1_555 1_555
H29 C24 1_555 1_555
H30 C24 1_555 1_555
C25 O8 1_555 1_555
C26 C25 1_555 1_555
H31 C26 1_555 1_555
H32 C26 1_555 1_555
H33 C26 1_555 1_555
C27 O10 1_555 1_555
C28 C27 1_555 1_555
H34 C28 1_555 1_555
H35 C28 1_555 1_555
H36 C28 1_555 1_555
H37 O4 1_555 1_555
C9 C10 1_555 1_555
C11 C20 1_555 1_555
C13 C14 1_555 1_555
C17 C19 1_555 1_555

#END
