
#######################################################################
#
#                 Cambridge Crystallographic Data Centre
#                                CCDC 
#
#######################################################################
#
# If this CIF has been generated from an entry in the Cambridge 
# Structural Database, then it will include bibliographic, chemical, 
# crystal, experimental, refinement or atomic coordinate data resulting 
# from the CCDC's data processing and validation procedures.
#
#######################################################################

data_FUZYUU
_chemical_formula_moiety         'C3 H6 N2 O4'
_chemical_name_systematic        'Malonodihydroxamic acid'
_symmetry_cell_setting           monoclinic
_symmetry_space_group_name_H-M   'P 21/n'
_symmetry_Int_Tables_number      14
_space_group_name_Hall           '-P 2yn'
loop_
_symmetry_equiv_pos_site_id
_symmetry_equiv_pos_as_xyz
1 x,y,z
2 1/2-x,1/2+y,1/2-z
3 -x,-y,-z
4 1/2+x,1/2-y,1/2+z
_cell_length_a                   7.277(2)
_cell_length_b                   8.450(2)
_cell_length_c                   9.413(2)
_cell_angle_alpha                90
_cell_angle_beta                 67.37
_cell_angle_gamma                90
_cell_volume                     534.248
_exptl_crystal_colour            colorless
_cell_formula_units_Z            4
loop_
_atom_site_label
_atom_site_type_symbol
_atom_site_fract_x
_atom_site_fract_y
_atom_site_fract_z
O1 O 0.8008(5) 0.0800(4) 0.9657(4)
O2 O 1.7381(5) 0.3894(4) 0.7952(3)
O3 O 1.1710(5) 0.1659(4) 0.7792(3)
O4 O 1.4521(5) 0.2195(4) 1.0082(4)
N1 N 0.9119(6) 0.1943(5) 1.0061(4)
N2 N 1.5387(6) 0.4035(5) 0.8188(4)
C1 C 1.0897(8) 0.2284(5) 0.9083(5)
C2 C 1.1932(7) 0.3598(6) 0.9594(5)
C3 C 1.4058(7) 0.3210(6) 0.9313(5)
H1 H 0.666(9) 0.139(7) 0.971(7)
H2 H 1.791(8) 0.332(6) 0.693(5)
H3 H 0.858(7) 0.226(2) 1.102(5)
H4 H 1.504(9) 0.489(7) 0.777(6)
H5 H 1.189(7) 0.453(6) 0.894(5)
H6 H 1.124(8) 0.382(6) 1.054(5)
loop_
_geom_bond_atom_site_label_1
_geom_bond_atom_site_label_2
_geom_bond_site_symmetry_1
_geom_bond_site_symmetry_2
O1 N1 1_555 1_555
O2 N2 1_555 1_555
O3 C1 1_555 1_555
O4 C3 1_555 1_555
N1 C1 1_555 1_555
N2 C3 1_555 1_555
C1 C2 1_555 1_555
C2 C3 1_555 1_555
H1 O1 1_555 1_555
H2 O2 1_555 1_555
H3 N1 1_555 1_555
H4 N2 1_555 1_555
H5 C2 1_555 1_555
H6 C2 1_555 1_555

#END
