
#######################################################################
#
#                 Cambridge Crystallographic Data Centre
#                                CCDC 
#
#######################################################################
#
# If this CIF has been generated from an entry in the Cambridge 
# Structural Database, then it will include bibliographic, chemical, 
# crystal, experimental, refinement or atomic coordinate data resulting 
# from the CCDC's data processing and validation procedures.
#
#######################################################################

data_FUZZAB
_chemical_formula_moiety         'C6 H6 N2 O2'
_chemical_name_systematic        'Nicotinohydroxamic acid'
_chemical_properties_biological  'biological activity'
_symmetry_cell_setting           orthorhombic
_symmetry_space_group_name_H-M   'P c a 21'
_symmetry_Int_Tables_number      29
_space_group_name_Hall           'P 2c -2ac'
loop_
_symmetry_equiv_pos_site_id
_symmetry_equiv_pos_as_xyz
1 x,y,z
2 1/2-x,y,1/2+z
3 1/2+x,-y,z
4 -x,-y,1/2+z
_cell_length_a                   14.823(2)
_cell_length_b                   4.893(1)
_cell_length_c                   8.435(1)
_cell_angle_alpha                90
_cell_angle_beta                 90
_cell_angle_gamma                90
_cell_volume                     611.782
_cell_formula_units_Z            4
loop_
_atom_site_label
_atom_site_type_symbol
_atom_site_fract_x
_atom_site_fract_y
_atom_site_fract_z
O1 O 0.5765(2) 0.4271(6) 0.6580
O2 O 0.4157(2) 0.5769(7) 0.5429(4)
N1 N 0.5178(2) 0.5964(7) 0.7426(4)
N2 N 0.3526(2) 1.2025(7) 0.9527(4)
C1 C 0.3762(2) 0.8311(8) 0.7731(5)
C2 C 0.4075(2) 1.0303(8) 0.8758(5)
C3 C 0.2637(3) 1.1789(8) 0.9305(5)
C4 C 0.2265(2) 0.9818(9) 0.8319(6)
C5 C 0.2839(3) 0.8054(8) 0.7503(5)
C6 C 0.4378(3) 0.6545(8) 0.6774(5)
H1 H 0.476(2) 1.063(9) 0.894(5)
H2 H 0.226(2) 1.338(8) 0.983(5)
H3 H 0.157(2) 0.967(9) 0.814(5)
H4 H 0.262(3) 0.668(8) 0.675(5)
H5 H 0.524(2) 0.619(8) 0.837(6)
H6 H 0.616(3) 0.523(9) 0.599(5)
loop_
_geom_bond_atom_site_label_1
_geom_bond_atom_site_label_2
_geom_bond_site_symmetry_1
_geom_bond_site_symmetry_2
O1 N1 1_555 1_555
O2 C6 1_555 1_555
N1 C6 1_555 1_555
N2 C2 1_555 1_555
C1 C2 1_555 1_555
C2 H1 1_555 1_555
C3 N2 1_555 1_555
C4 C3 1_555 1_555
C5 C1 1_555 1_555
C6 C1 1_555 1_555
H2 C3 1_555 1_555
H3 C4 1_555 1_555
H4 C5 1_555 1_555
H5 N1 1_555 1_555
H6 O1 1_555 1_555
C4 C5 1_555 1_555

#END
