
#######################################################################
#
#                 Cambridge Crystallographic Data Centre
#                                CCDC 
#
#######################################################################
#
# If this CIF has been generated from an entry in the Cambridge 
# Structural Database, then it will include bibliographic, chemical, 
# crystal, experimental, refinement or atomic coordinate data resulting 
# from the CCDC's data processing and validation procedures.
#
#######################################################################

data_FUZZIJ
_chemical_compound_source        'Rabdosia serra(Maxim) Hara'
_chemical_formula_moiety         'C20 H30 O6'
_chemical_name_systematic        Rabdoserrin-B
_chemical_properties_biological  
'in vitro cytotoxic activity against cultured HeLa cells'
_symmetry_cell_setting           monoclinic
_symmetry_space_group_name_H-M   'P 21'
_symmetry_Int_Tables_number      4
_space_group_name_Hall           'P 2yb'
loop_
_symmetry_equiv_pos_site_id
_symmetry_equiv_pos_as_xyz
1 x,y,z
2 -x,1/2+y,-z
_cell_length_a                   11.163(1)
_cell_length_b                   8.518(2)
_cell_length_c                   10.821(1)
_cell_angle_alpha                90
_cell_angle_beta                 117.23(1)
_cell_angle_gamma                90
_cell_volume                     914.901
_cell_formula_units_Z            2
loop_
_atom_site_label
_atom_site_type_symbol
_atom_site_fract_x
_atom_site_fract_y
_atom_site_fract_z
C1 C 0.3154(4) -0.0958(5) 0.2994(5)
C2 C 0.1659(4) -0.0579(6) 0.2112(5)
C3 C 0.1402(4) 0.1169(6) 0.1890(5)
C4 C 0.2192(4) 0.1952(6) 0.1202(4)
C5 C 0.3714(4) 0.1451(5) 0.2048(4)
C6 C 0.4629(4) 0.2219(5) 0.1524(4)
C7 C 0.6069(4) 0.2220(5) 0.2693(4)
C8 C 0.6623(4) 0.0567(5) 0.3182(4)
C9 C 0.5589(4) -0.0415(5) 0.3499(4)
C10 C 0.4059(4) -0.0340(5) 0.2341(4)
C11 C 0.6218(4) -0.2049(6) 0.4129(4)
C12 C 0.7156(5) -0.2856(6) 0.3635(5)
C13 C 0.8028(4) -0.1648(6) 0.3379(5)
C14 C 0.7139(4) -0.0433(5) 0.2323(4)
C15 C 0.7917(4) 0.0656(5) 0.4580(4)
C16 C 0.8790(4) -0.0685(6) 0.4677(4)
C17 C 0.9959(5) -0.0938(8) 0.5758(6)
C18 C 0.2105(5) 0.3731(6) 0.1349(6)
C19 C 0.1550(4) 0.1580(7) -0.0345(4)
C20 C 0.3729(4) -0.1231(5) 0.0979(4)
O1 O 0.3303(3) -0.2637(4) 0.3169(4)
O2 O 0.3985(3) -0.2889(4) 0.1154(3)
O3 O 0.6958(3) 0.3040 0.2296(3)
O4 O 0.8000(3) 0.0417(4) 0.1912(3)
O5 O 0.8158(3) 0.1643(4) 0.5459(3)
O6 O 0.6484(3) -0.3846(4) 0.2440(4)
loop_
_geom_bond_atom_site_label_1
_geom_bond_atom_site_label_2
_geom_bond_site_symmetry_1
_geom_bond_site_symmetry_2
C1 C2 1_555 1_555
C2 C3 1_555 1_555
C3 C4 1_555 1_555
C4 C5 1_555 1_555
C5 C6 1_555 1_555
C6 C7 1_555 1_555
C7 C8 1_555 1_555
C8 C9 1_555 1_555
C9 C10 1_555 1_555
C10 C1 1_555 1_555
C11 C9 1_555 1_555
C12 C11 1_555 1_555
C13 C12 1_555 1_555
C14 C8 1_555 1_555
C15 C8 1_555 1_555
C16 C13 1_555 1_555
C17 C16 1_555 1_555
C18 C4 1_555 1_555
C19 C4 1_555 1_555
C20 C10 1_555 1_555
O1 C1 1_555 1_555
O2 C20 1_555 1_555
O3 C7 1_555 1_555
O4 C14 1_555 1_555
O5 C15 1_555 1_555
O6 C12 1_555 1_555
C5 C10 1_555 1_555
C13 C14 1_555 1_555
C15 C16 1_555 1_555

#END
