
#######################################################################
#
#                 Cambridge Crystallographic Data Centre
#                                CCDC 
#
#######################################################################
#
# If this CIF has been generated from an entry in the Cambridge 
# Structural Database, then it will include bibliographic, chemical, 
# crystal, experimental, refinement or atomic coordinate data resulting 
# from the CCDC's data processing and validation procedures.
#
#######################################################################

data_GABLIF
_chemical_formula_moiety         'C29 H33 N1 O4 S1'
_chemical_name_systematic        
'(2S,3S)-3-(1-Methyl-1-(phenylsulfonyl)ethyl)-1-(1-phenylethyl)pyrrolidine-2-carboxylic acid benzyl ester'
_symmetry_cell_setting           orthorhombic
_symmetry_space_group_name_H-M   'P 21 21 21'
_symmetry_Int_Tables_number      19
_space_group_name_Hall           'P 2ac 2ab'
loop_
_symmetry_equiv_pos_site_id
_symmetry_equiv_pos_as_xyz
1 x,y,z
2 1/2+x,1/2-y,-z
3 -x,1/2+y,1/2-z
4 1/2-x,-y,1/2+z
_cell_length_a                   7.197(4)
_cell_length_b                   14.153(1)
_cell_length_c                   25.985(3)
_cell_angle_alpha                90
_cell_angle_beta                 90
_cell_angle_gamma                90
_cell_volume                     2646.81
_exptl_crystal_colour            colorless
_exptl_crystal_description       box
_chemical_melting_point          '146-148 deg.C'
_cell_formula_units_Z            4
loop_
_atom_site_label
_atom_site_type_symbol
_atom_site_fract_x
_atom_site_fract_y
_atom_site_fract_z
S1 S 0.3873(3) 0.2866(1) 0.22918(8)
O1 O 0.5821(8) 0.3089(4) 0.2347(2)
O2 O 0.306(1) 0.2205(4) 0.2639(2)
O3 O 0.505(1) 0.1533(6) 0.0379(3)
O4 O 0.2154(9) 0.1029(5) 0.0501(2)
N1 N 0.5888(9) 0.0191(5) 0.1212(3)
C1 C 0.423(1) 0.0793(5) 0.1180(3)
C2 C 0.474(1) 0.1562(6) 0.1587(3)
C3 C 0.683(1) 0.1724(7) 0.1490(4)
C4 C 0.752(1) 0.0794(8) 0.1249(4)
C5 C 0.604(1) -0.0554(6) 0.0829(4)
C6 C 0.780(1) -0.1125(9) 0.0916(5)
C7 C 0.393(1) 0.1173(6) 0.0643(3)
C8 C 0.160(2) 0.1364(8) -0.0010(4)
C9 C 0.348(1) 0.2427(5) 0.1637(3)
C10 C 0.143(1) 0.2166(6) 0.1588(3)
C11 C 0.390(1) 0.3232(5) 0.1264(3)
C12 C 0.2649(8) 0.3928(3) 0.2341(2)
C13 C 0.0784(8) 0.3934(4) 0.2480(3)
C14 C -0.0199(7) 0.4779(5) 0.2485(3)
C15 C 0.068(1) 0.5618(4) 0.2353(3)
C16 C 0.255(1) 0.5612(3) 0.2215(3)
C17 C 0.3532(7) 0.4767(4) 0.2209(2)
C18 C 0.4353(8) -0.1202(4) 0.0844(2)
C19 C 0.375(1) -0.1574(5) 0.1310(2)
C20 C 0.232(1) -0.2232(5) 0.1319(2)
C21 C 0.1487(9) -0.2518(5) 0.0862(3)
C22 C 0.209(1) -0.2146(5) 0.0396(2)
C23 C 0.3522(9) -0.1488(5) 0.0387(2)
C24 C 0.180(1) 0.0602(4) -0.0394(2)
C25 C 0.3391(9) 0.0633(5) -0.0699(3)
C26 C 0.366(1) -0.0038(6) -0.1082(3)
C27 C 0.234(1) -0.0742(5) -0.1160(3)
C28 C 0.076(1) -0.0774(5) -0.0856(3)
C29 C 0.0486(9) -0.0102(6) -0.0473(3)
H1 H 0.3034 0.0450 0.1245
H2 H 0.4498 0.1363 0.1951
H3 H 0.7516 0.1871 0.1823
H4 H 0.7044 0.2279 0.1250
H5 H 0.8511 0.0510 0.1476
H6 H 0.8077 0.0926 0.0903
H7 H 0.6143 -0.0238 0.0479
H8 H 0.7908 -0.1657 0.0650
H9 H 0.8930 -0.0738 0.0903
H10 H 0.7724 -0.1454 0.1266
H11 H 0.2432 0.1949 -0.0115
H12 H 0.0280 0.1640 -0.0009
H13 H 0.1135 0.1918 0.1234
H14 H 0.0619 0.2728 0.1658
H15 H 0.1109 0.1655 0.1846
H16 H 0.3687 0.3025 0.0890
H17 H 0.5202 0.3464 0.1292
H18 H 0.3026 0.3786 0.1326
H19 H 0.0133 0.3344 0.2571
H20 H -0.1553 0.4799 0.2583
H21 H -0.0030 0.6242 0.2358
H22 H 0.3178 0.6230 0.2121
H23 H 0.4864 0.4775 0.2109
H24 H 0.4356 -0.1361 0.1641
H25 H 0.1903 -0.2499 0.1659
H26 H 0.0482 -0.3002 0.0875
H27 H 0.1514 -0.2367 0.0072
H28 H 0.3967 -0.1229 0.0053
H29 H 0.4325 0.1146 -0.0652
H30 H 0.4785 -0.0013 -0.1309
H31 H 0.2529 -0.1229 -0.1437
H32 H -0.0186 -0.1288 -0.0909
H33 H -0.0645 -0.0130 -0.0251
loop_
_geom_bond_atom_site_label_1
_geom_bond_atom_site_label_2
_geom_bond_site_symmetry_1
_geom_bond_site_symmetry_2
S1 O1 1_555 1_555
O2 S1 1_555 1_555
O3 C7 1_555 1_555
O4 C7 1_555 1_555
N1 C1 1_555 1_555
C1 C2 1_555 1_555
C2 C3 1_555 1_555
C3 C4 1_555 1_555
C4 N1 1_555 1_555
C5 N1 1_555 1_555
C6 C5 1_555 1_555
C7 C1 1_555 1_555
C8 O4 1_555 1_555
C9 S1 1_555 1_555
C10 C9 1_555 1_555
C11 C9 1_555 1_555
C12 S1 1_555 1_555
C13 C12 1_555 1_555
C14 C13 1_555 1_555
C15 C14 1_555 1_555
C16 C15 1_555 1_555
C17 C12 1_555 1_555
C18 C5 1_555 1_555
C19 C18 1_555 1_555
C20 C19 1_555 1_555
C21 C20 1_555 1_555
C22 C21 1_555 1_555
C23 C18 1_555 1_555
C24 C8 1_555 1_555
C25 C24 1_555 1_555
C26 C25 1_555 1_555
C27 C26 1_555 1_555
C28 C27 1_555 1_555
C29 C24 1_555 1_555
H1 C1 1_555 1_555
H2 C2 1_555 1_555
H3 C3 1_555 1_555
H4 C3 1_555 1_555
H5 C4 1_555 1_555
H6 C4 1_555 1_555
H7 C5 1_555 1_555
H8 C6 1_555 1_555
H9 C6 1_555 1_555
H10 C6 1_555 1_555
H11 C8 1_555 1_555
H12 C8 1_555 1_555
H13 C10 1_555 1_555
H14 C10 1_555 1_555
H15 C10 1_555 1_555
H16 C11 1_555 1_555
H17 C11 1_555 1_555
H18 C11 1_555 1_555
H19 C13 1_555 1_555
H20 C14 1_555 1_555
H21 C15 1_555 1_555
H22 C16 1_555 1_555
H23 C17 1_555 1_555
H24 C19 1_555 1_555
H25 C20 1_555 1_555
H26 C21 1_555 1_555
H27 C22 1_555 1_555
H28 C23 1_555 1_555
H29 C25 1_555 1_555
H30 C26 1_555 1_555
H31 C27 1_555 1_555
H32 C28 1_555 1_555
H33 C29 1_555 1_555
C2 C9 1_555 1_555
C16 C17 1_555 1_555
C22 C23 1_555 1_555
C28 C29 1_555 1_555

#END
