
#######################################################################
#
#                 Cambridge Crystallographic Data Centre
#                                CCDC 
#
#######################################################################
#
# If this CIF has been generated from an entry in the Cambridge 
# Structural Database, then it will include bibliographic, chemical, 
# crystal, experimental, refinement or atomic coordinate data resulting 
# from the CCDC's data processing and validation procedures.
#
#######################################################################

data_GABTAE
_chemical_formula_moiety         'C6 H5 F1 O6 2-,2(K1 1+),H2 O1'
_chemical_name_systematic        
'Dipotassium 3-fluoro-3-deoxycitrate monohydrate'
_symmetry_cell_setting           triclinic
_symmetry_space_group_name_H-M   'P -1'
_symmetry_Int_Tables_number      2
_space_group_name_Hall           '-P 1'
loop_
_symmetry_equiv_pos_site_id
_symmetry_equiv_pos_as_xyz
1 x,y,z
2 -x,-y,-z
_cell_length_a                   8.062(2)
_cell_length_b                   10.215(1)
_cell_length_c                   6.832(1)
_cell_angle_alpha                96.27(1)
_cell_angle_beta                 93.66(1)
_cell_angle_gamma                69.00(1)
_cell_volume                     521.941
_cell_formula_units_Z            2
loop_
_atom_site_label
_atom_site_type_symbol
_atom_site_fract_x
_atom_site_fract_y
_atom_site_fract_z
K1 K 0.67309(7) 0.43725(6) 0.24947(8)
K2 K 0.23271(7) 0.30906(6) 0.14966(8)
F1 F 0.0693(2) 0.7552(2) 0.0015(2)
O2 O 0.0023(3) 0.6202(2) 0.5130(3)
O3 O -0.1373(3) 0.6242(3) 0.2214(3)
O4 O 0.3561(3) 1.0159(2) 0.0650(4)
O5 O 0.4123(3) 0.7890(2) -0.0198(4)
O6 O 0.3692(3) 0.6774(2) 0.4095(3)
O7 O 0.3110(3) 0.5422(2) 0.1549(3)
C1 C -0.0638(3) 0.6772(3) 0.3507(4)
C2 C -0.0322(4) 0.8127(3) 0.3287(4)
C3 C 0.1264(3) 0.7855(3) 0.1972(4)
C4 C 0.1743(3) 0.9164(3) 0.1993(4)
C5 C 0.3272(4) 0.9007(3) 0.0691(4)
C6 C 0.2848(3) 0.6565(3) 0.2567(4)
H4 H -0.001(4) 0.848(3) 0.453(5)
H5 H -0.153(4) 0.886(3) 0.266(5)
H6 H 0.218(4) 0.943(3) 0.341(5)
H7 H 0.075(4) 0.994(3) 0.171(5)
O1 O 0.5729(5) 0.8445(4) 0.5325(5)
H1 H 0.504(7) 0.810(5) 0.498(8)
H2? H 0.00000 0.50000 0.50000
H3? H 0.50000 1.00000 0.00000
loop_
_geom_bond_atom_site_label_1
_geom_bond_atom_site_label_2
_geom_bond_site_symmetry_1
_geom_bond_site_symmetry_2
F1 C3 1_555 1_555
O1 H1 1_555 1_555
O2 C1 1_555 1_555
O3 C1 1_555 1_555
O4 C5 1_555 1_555
O5 C5 1_555 1_555
O6 C6 1_555 1_555
O7 C6 1_555 1_555
C1 C2 1_555 1_555
C2 C3 1_555 1_555
C3 C4 1_555 1_555
C4 C5 1_555 1_555
C6 C3 1_555 1_555
H4 C2 1_555 1_555
H5 C2 1_555 1_555
H6 C4 1_555 1_555
H7 C4 1_555 1_555

#END
