
#######################################################################
#
#                 Cambridge Crystallographic Data Centre
#                                CCDC 
#
#######################################################################
#
# If this CIF has been generated from an entry in the Cambridge 
# Structural Database, then it will include bibliographic, chemical, 
# crystal, experimental, refinement or atomic coordinate data resulting 
# from the CCDC's data processing and validation procedures.
#
#######################################################################

data_GABWAJ
_chemical_formula_moiety         'C24 B1 F20 1-,C11 H20 N1 Si1 1+'
_chemical_name_systematic        
'tetrakis(pentafluorophenyl)borate dimethyl(phenyl)(trimethylsilyl)ammonium'
_symmetry_cell_setting           monoclinic
_symmetry_space_group_name_H-M   'P 21/c'
_symmetry_Int_Tables_number      14
_space_group_name_Hall           '-P 2ybc'
loop_
_symmetry_equiv_pos_site_id
_symmetry_equiv_pos_as_xyz
1 x,y,z
2 -x,1/2+y,1/2-z
3 -x,-y,-z
4 x,1/2-y,1/2+z
_cell_length_a                   13.6097(3)
_cell_length_b                   14.1254(3)
_cell_length_c                   18.6174(4)
_cell_angle_alpha                90
_cell_angle_beta                 99.2180(10)
_cell_angle_gamma                90
_cell_volume                     3532.83
_exptl_crystal_colour            colorless
_exptl_crystal_description       block
_cell_formula_units_Z            4
_chemical_properties_physical    air-sensitive
loop_
_atom_site_label
_atom_site_type_symbol
_atom_site_fract_x
_atom_site_fract_y
_atom_site_fract_z
Si1 Si 0.23462(3) -0.00636(2) 0.33355(2)
N1 N 0.25312(8) -0.07667(7) 0.24840(6)
C1 C 0.09994(11) 0.01276(13) 0.32765(11)
H1 H 0.0871 0.0486 0.3703
H2 H 0.0660 -0.0485 0.3262
H3 H 0.0750 0.0485 0.2833
C2 C 0.28723(16) -0.08080(12) 0.41090(9)
H4 H 0.2802 -0.0486 0.4564
H5 H 0.3579 -0.0922 0.4094
H6 H 0.2517 -0.1414 0.4082
C3 C 0.30405(12) 0.10504(10) 0.33095(8)
H7 H 0.2969 0.1434 0.3737
H8 H 0.2776 0.1401 0.2866
H9 H 0.3746 0.0910 0.3312
C28 C 0.21855(10) -0.17588(9) 0.25641(7)
C29 C 0.11742(10) -0.19602(10) 0.23968(8)
H10 H 0.0715 -0.1478 0.2213
C30 C 0.08430(11) -0.28699(11) 0.25001(9)
H11 H 0.0153 -0.3010 0.2387
C31 C 0.15067(12) -0.35776(10) 0.27654(9)
H12 H 0.1274 -0.4200 0.2835
C32 C 0.25103(12) -0.33732(10) 0.29277(8)
H13 H 0.2968 -0.3858 0.3109
C33 C 0.28567(11) -0.24644(10) 0.28284(8)
H14 H 0.3548 -0.2327 0.2940
C34 C 0.19819(11) -0.03188(10) 0.18025(8)
H15 H 0.2089 -0.0693 0.1379
H16 H 0.2230 0.0326 0.1756
H17 H 0.1269 -0.0297 0.1829
C35 C 0.36194(10) -0.07415(10) 0.24097(9)
H18 H 0.3721 -0.1098 0.1976
H19 H 0.4015 -0.1026 0.2842
H20 H 0.3828 -0.0083 0.2363
B1 B 0.27309(10) 0.15155(10) 0.63413(8)
C4 C 0.36990(9) 0.20196(9) 0.60573(7)
C5 C 0.39644(10) 0.29405(10) 0.62692(7)
C6 C 0.47127(11) 0.34582(11) 0.60369(8)
C7 C 0.52366(10) 0.30645(12) 0.55356(8)
C8 C 0.49885(10) 0.21691(12) 0.52852(7)
C9 C 0.42479(10) 0.16680(10) 0.55471(7)
C10 C 0.26340(9) 0.03679(9) 0.61644(7)
C11 C 0.17921(10) -0.01210(10) 0.58438(7)
C12 C 0.17541(11) -0.10944(10) 0.57594(8)
C13 C 0.25707(12) -0.16381(9) 0.60188(8)
C14 C 0.34166(11) -0.11995(10) 0.63643(7)
C15 C 0.34273(10) -0.02249(9) 0.64235(7)
C16 C 0.27971(9) 0.15106(9) 0.72354(7)
C17 C 0.19787(10) 0.12177(9) 0.75429(7)
C18 C 0.19898(11) 0.10535(10) 0.82729(8)
C19 C 0.28613(12) 0.11770(10) 0.87529(8)
C20 C 0.37000(11) 0.14587(10) 0.84845(8)
C21 C 0.36517(9) 0.16213(9) 0.77468(7)
C22 C 0.18026(9) 0.21468(9) 0.59030(7)
C23 C 0.15852(10) 0.20828(9) 0.51494(7)
C24 C 0.08819(10) 0.26156(10) 0.47118(8)
C25 C 0.03503(10) 0.32879(10) 0.50235(8)
C26 C 0.05354(10) 0.33980(9) 0.57658(8)
C27 C 0.12459(9) 0.28376(9) 0.61841(7)
F1 F 0.34663(6) 0.33835(6) 0.67478(5)
F2 F 0.49311(7) 0.43401(7) 0.62925(6)
F3 F 0.59641(7) 0.35539(8) 0.52980(5)
F4 F 0.54674(7) 0.17819(8) 0.47797(5)
F5 F 0.40751(7) 0.07900(6) 0.52653(5)
F6 F 0.09358(6) 0.03401(6) 0.55855(5)
F7 F 0.09200(7) -0.15122(7) 0.54179(6)
F8 F 0.25415(8) -0.25849(6) 0.59389(5)
F9 F 0.42150(7) -0.17144(6) 0.66493(5)
F10 F 0.42930(6) 0.01574(6) 0.67644(5)
F11 F 0.11001(6) 0.10549(6) 0.71028(5)
F12 F 0.11618(7) 0.07530(6) 0.85174(5)
F13 F 0.28917(9) 0.10235(7) 0.94670(5)
F14 F 0.45637(7) 0.15712(7) 0.89369(5)
F15 F 0.45173(6) 0.18948(6) 0.75431(4)
F16 F 0.20916(6) 0.14489(6) 0.48004(4)
F17 F -0.03427(7) 0.38127(7) 0.46099(5)
F18 F 0.07126(7) 0.24742(6) 0.39875(5)
F19 F 0.00339(6) 0.40561(6) 0.60856(5)
F20 F 0.13835(6) 0.30171(6) 0.69099(4)
loop_
_geom_bond_atom_site_label_1
_geom_bond_atom_site_label_2
_geom_bond_site_symmetry_1
_geom_bond_site_symmetry_2
Si1 N1 1_555 1_555
B1 C4 1_555 1_555
N1 C28 1_555 1_555
C1 Si1 1_555 1_555
H1 C1 1_555 1_555
H2 C1 1_555 1_555
H3 C1 1_555 1_555
C2 Si1 1_555 1_555
H4 C2 1_555 1_555
H5 C2 1_555 1_555
H6 C2 1_555 1_555
C3 Si1 1_555 1_555
H7 C3 1_555 1_555
H8 C3 1_555 1_555
H9 C3 1_555 1_555
C4 C5 1_555 1_555
C5 C6 1_555 1_555
C6 C7 1_555 1_555
C7 C8 1_555 1_555
C8 C9 1_555 1_555
C9 C4 1_555 1_555
C10 B1 1_555 1_555
C11 C10 1_555 1_555
C12 C11 1_555 1_555
C13 C12 1_555 1_555
C14 C13 1_555 1_555
C15 C10 1_555 1_555
C16 B1 1_555 1_555
C17 C16 1_555 1_555
C18 C17 1_555 1_555
C19 C18 1_555 1_555
C20 C19 1_555 1_555
C21 C16 1_555 1_555
C22 B1 1_555 1_555
C23 C22 1_555 1_555
C24 C23 1_555 1_555
C25 C24 1_555 1_555
C26 C25 1_555 1_555
C27 C22 1_555 1_555
C28 C29 1_555 1_555
C29 H10 1_555 1_555
C30 C29 1_555 1_555
H11 C30 1_555 1_555
C31 C30 1_555 1_555
H12 C31 1_555 1_555
C32 C31 1_555 1_555
H13 C32 1_555 1_555
C33 C28 1_555 1_555
H14 C33 1_555 1_555
C34 N1 1_555 1_555
H15 C34 1_555 1_555
H16 C34 1_555 1_555
H17 C34 1_555 1_555
C35 N1 1_555 1_555
H18 C35 1_555 1_555
H19 C35 1_555 1_555
H20 C35 1_555 1_555
F1 C5 1_555 1_555
F2 C6 1_555 1_555
F3 C7 1_555 1_555
F4 C8 1_555 1_555
F5 C9 1_555 1_555
F6 C11 1_555 1_555
F7 C12 1_555 1_555
F8 C13 1_555 1_555
F9 C14 1_555 1_555
F10 C15 1_555 1_555
F11 C17 1_555 1_555
F12 C18 1_555 1_555
F13 C19 1_555 1_555
F14 C20 1_555 1_555
F15 C21 1_555 1_555
F16 C23 1_555 1_555
F17 C25 1_555 1_555
F18 C24 1_555 1_555
F19 C26 1_555 1_555
F20 C27 1_555 1_555
C14 C15 1_555 1_555
C20 C21 1_555 1_555
C26 C27 1_555 1_555
C32 C33 1_555 1_555

#END
