
#######################################################################
#
#                 Cambridge Crystallographic Data Centre
#                                CCDC 
#
#######################################################################
#
# If this CIF has been generated from an entry in the Cambridge 
# Structural Database, then it will include bibliographic, chemical, 
# crystal, experimental, refinement or atomic coordinate data resulting 
# from the CCDC's data processing and validation procedures.
#
#######################################################################

data_GACGID
_chemical_formula_moiety         'C20 H12 Cl1 F6 N1 O1 S2'
_chemical_name_systematic        
4-(2-(5-Chloro-2-methyl-3-thienyl)-3,3,4,4,5,5-hexafluorocyclopent-1-en-1-yl)-5-methoxy-2-phenyl-1,3-thiazole
_symmetry_cell_setting           monoclinic
_symmetry_space_group_name_H-M   'P 21/n'
_symmetry_Int_Tables_number      14
_space_group_name_Hall           '-P 2yn'
loop_
_symmetry_equiv_pos_site_id
_symmetry_equiv_pos_as_xyz
1 x,y,z
2 1/2-x,1/2+y,1/2-z
3 -x,-y,-z
4 1/2+x,1/2-y,1/2+z
_cell_length_a                   10.3186(19)
_cell_length_b                   15.512(3)
_cell_length_c                   13.141(2)
_cell_angle_alpha                90
_cell_angle_beta                 105.465(3)
_cell_angle_gamma                90
_cell_volume                     2027.22
_cell_formula_units_Z            4
loop_
_atom_site_label
_atom_site_type_symbol
_atom_site_fract_x
_atom_site_fract_y
_atom_site_fract_z
S1 S 0.86485(7) 0.16717(4) 0.33048(5)
S2 S 1.04734(8) 0.12626(5) -0.04233(6)
Cl1 Cl 0.83164(13) 0.04627(7) -0.21109(8)
F1 F 0.67926(18) 0.44660(10) 0.16058(14)
F2 F 0.88236(18) 0.49126(11) 0.17140(13)
F3 F 0.60437(18) 0.46899(14) -0.03583(15)
O1 O 0.7880(2) 0.15771(13) 0.11666(16)
F4 F 0.7795(2) 0.55178(11) -0.01158(15)
F5 F 0.7108(2) 0.38208(11) -0.15330(13)
F6 F 0.90734(19) 0.43953(12) -0.08822(16)
N1 N 0.8857(2) 0.33043(15) 0.30208(18)
C1 C 0.8500(3) 0.29341(17) 0.2026(2)
C2 C 1.0214(3) 0.22101(18) 0.0180(2)
C3 C 0.7383(3) 0.47081(19) -0.0010(2)
C4 C 0.7822(3) 0.43922(17) 0.1153(2)
C5 C 0.8937(3) 0.25138(17) -0.0249(2)
C6 C 0.8411(3) 0.32957(17) 0.0121(2)
C7 C 0.8984(3) 0.27302(18) 0.3757(2)
C8 C 0.8326(3) 0.20577(18) 0.2031(2)
C9 C 0.8167(3) 0.19798(19) -0.1074(2)
H1 H 0.7271 0.2101 -0.1466
C10 C 0.9349(3) 0.29184(19) 0.4898(2)
C11 C 0.8000(3) 0.40445(19) -0.0611(2)
C12 C 0.8277(3) 0.34825(17) 0.1096(2)
C13 C 0.9935(3) 0.3299(2) 0.7039(2)
H2 H 1.0131 0.3429 0.7770
C14 C 0.9751(3) 0.2265(2) 0.5646(2)
H3 H 0.9824 0.1688 0.5426
C15 C 0.8867(3) 0.1283(2) -0.1230(2)
C16 C 1.0046(3) 0.2465(2) 0.6717(2)
H4 H 1.0326 0.2022 0.7228
C17 C 0.9259(3) 0.3756(2) 0.5238(2)
H5 H 0.9002 0.4207 0.4735
C18 C 0.9543(3) 0.3943(2) 0.6305(2)
H6 H 0.9465 0.4519 0.6530
C19 C 0.7979(4) 0.06561(19) 0.1283(3)
H7 H 0.8906 0.0498 0.1650
H8 H 0.7728 0.0385 0.0584
H9 H 0.7372 0.0457 0.1694
C20 C 1.1301(3) 0.2573(2) 0.1070(3)
H10 H 1.1048 0.3153 0.1240
H11 H 1.2143 0.2601 0.0860
H12 H 1.1424 0.2201 0.1691
loop_
_geom_bond_atom_site_label_1
_geom_bond_atom_site_label_2
_geom_bond_site_symmetry_1
_geom_bond_site_symmetry_2
S1 C7 1_555 1_555
S2 C2 1_555 1_555
Cl1 C15 1_555 1_555
F1 C4 1_555 1_555
F2 C4 1_555 1_555
F3 C3 1_555 1_555
O1 C8 1_555 1_555
F4 C3 1_555 1_555
F5 C11 1_555 1_555
F6 C11 1_555 1_555
N1 C1 1_555 1_555
C1 C8 1_555 1_555
C2 C5 1_555 1_555
C3 C4 1_555 1_555
C4 C12 1_555 1_555
C5 C6 1_555 1_555
C6 C11 1_555 1_555
C7 N1 1_555 1_555
C8 S1 1_555 1_555
C9 C5 1_555 1_555
H1 C9 1_555 1_555
C10 C7 1_555 1_555
C11 C3 1_555 1_555
C12 C1 1_555 1_555
C13 H2 1_555 1_555
C14 C10 1_555 1_555
H3 C14 1_555 1_555
C15 S2 1_555 1_555
C16 C13 1_555 1_555
H4 C16 1_555 1_555
C17 C10 1_555 1_555
H5 C17 1_555 1_555
C18 C13 1_555 1_555
H6 C18 1_555 1_555
C19 O1 1_555 1_555
H7 C19 1_555 1_555
H8 C19 1_555 1_555
H9 C19 1_555 1_555
C20 C2 1_555 1_555
H10 C20 1_555 1_555
H11 C20 1_555 1_555
H12 C20 1_555 1_555
C6 C12 1_555 1_555
C9 C15 1_555 1_555
C14 C16 1_555 1_555
C17 C18 1_555 1_555

#END
