
#######################################################################
#
#                 Cambridge Crystallographic Data Centre
#                                CCDC 
#
#######################################################################
#
# If this CIF has been generated from an entry in the Cambridge 
# Structural Database, then it will include bibliographic, chemical, 
# crystal, experimental, refinement or atomic coordinate data resulting 
# from the CCDC's data processing and validation procedures.
#
#######################################################################

data_GACGOJ
_chemical_formula_moiety         'C21 H15 F6 N1 O1 S2'
_chemical_name_systematic        
4-(2-(2,5-Dimethyl-3-thienyl)-3,3,4,4,5,5-hexafluorocyclopent-1-en-1-yl)-5-methoxy-2-phenyl-1,3-thiazole
_symmetry_cell_setting           monoclinic
_symmetry_space_group_name_H-M   'P 21/n'
_symmetry_Int_Tables_number      14
_space_group_name_Hall           '-P 2yn'
loop_
_symmetry_equiv_pos_site_id
_symmetry_equiv_pos_as_xyz
1 x,y,z
2 1/2-x,1/2+y,1/2-z
3 -x,-y,-z
4 1/2+x,1/2-y,1/2+z
_cell_length_a                   10.303(2)
_cell_length_b                   15.545(3)
_cell_length_c                   13.105(3)
_cell_angle_alpha                90
_cell_angle_beta                 105.128(4)
_cell_angle_gamma                90
_cell_volume                     2026.16
_cell_formula_units_Z            4
loop_
_atom_site_label
_atom_site_type_symbol
_atom_site_fract_x
_atom_site_fract_y
_atom_site_fract_z
S1 S 0.63696(5) 0.16832(3) 0.66965(4)
S2 S 0.45807(6) 0.12541(3) 1.04776(4)
N1 N 0.61510(16) 0.33084(10) 0.69971(12)
C1 C 0.65160(19) 0.29341(11) 0.79924(15)
C2 C 0.60209(19) 0.27418(12) 0.62520(15)
C3 C 0.4826(2) 0.22011(12) 0.98610(15)
C4 C 0.66979(19) 0.20596(12) 0.79816(15)
C5 C 0.67416(18) 0.34749(11) 0.89272(14)
C6 C 0.60898(19) 0.25015(11) 1.02787(14)
C7 C 0.6860(2) 0.19664(13) 1.11061(15)
C8 C 0.66186(18) 0.32864(11) 0.99057(14)
C9 C 0.6186(2) 0.12594(13) 1.12904(16)
C10 C 0.5261(2) 0.22893(14) 0.43600(16)
H1 H 0.5196 0.1711 0.4577
C11 C 0.56574(19) 0.29337(13) 0.51131(15)
C12 C 0.5733(2) 0.37757(14) 0.47814(17)
H2 H 0.5985 0.4222 0.5290
C13 C 0.3738(2) 0.25595(14) 0.89790(19)
H3 H 0.3983 0.3142 0.8811
H4 H 0.2896 0.2581 0.9193
H5 H 0.3621 0.2192 0.8354
C14 C 0.6669(3) 0.05505(15) 1.20722(19)
H6 H 0.7611 0.0653 1.2448
H7 H 0.6592 -0.0001 1.1699
H8 H 0.6121 0.0537 1.2581
C15 C 0.7625(2) 0.46931(12) 1.00282(16)
C16 C 0.70182(19) 0.40317(12) 1.06377(15)
C17 C 0.5444(2) 0.39711(15) 0.37148(17)
H9 H 0.5509 0.4548 0.3495
C18 C 0.7191(2) 0.43871(11) 0.88723(15)
F1 F 0.61939(12) 0.49003(7) 0.83160(9)
F2 F 0.78991(13) 0.38144(7) 1.15620(9)
F3 F 0.89727(12) 0.46748(9) 1.03755(10)
F4 F 0.82162(12) 0.44639(7) 0.84050(9)
F5 F 0.72338(15) 0.55020(7) 1.01481(10)
F6 F 0.59474(13) 0.43803(8) 1.09090(10)
C19 C 0.5060(2) 0.33247(16) 0.29668(17)
H10 H 0.4865 0.3457 0.2235
C20 C 0.4962(2) 0.24886(15) 0.32911(16)
H11 H 0.4688 0.2046 0.2780
O1 O 0.71536(15) 0.15779(8) 0.88361(10)
C21 C 0.7020(3) 0.06690(14) 0.8729(2)
H12 H 0.725(2) 0.0449(14) 0.941(2)
H13 H 0.756(3) 0.0443(16) 0.830(2)
H14 H 0.783(2) 0.2037(13) 1.1471(17)
H15 H 0.614(4) 0.054(2) 0.844(3)
loop_
_geom_bond_atom_site_label_1
_geom_bond_atom_site_label_2
_geom_bond_site_symmetry_1
_geom_bond_site_symmetry_2
S1 C2 1_555 1_555
S2 C3 1_555 1_555
N1 C1 1_555 1_555
C1 C4 1_555 1_555
C2 N1 1_555 1_555
C3 C6 1_555 1_555
C4 S1 1_555 1_555
C5 C1 1_555 1_555
C6 C7 1_555 1_555
C7 C9 1_555 1_555
C8 C5 1_555 1_555
C9 S2 1_555 1_555
C10 H1 1_555 1_555
C11 C2 1_555 1_555
C12 C11 1_555 1_555
H2 C12 1_555 1_555
C13 C3 1_555 1_555
H3 C13 1_555 1_555
H4 C13 1_555 1_555
H5 C13 1_555 1_555
C14 C9 1_555 1_555
H6 C14 1_555 1_555
H7 C14 1_555 1_555
H8 C14 1_555 1_555
C15 C16 1_555 1_555
C16 C8 1_555 1_555
C17 C12 1_555 1_555
H9 C17 1_555 1_555
C18 C5 1_555 1_555
F1 C18 1_555 1_555
F2 C16 1_555 1_555
F3 C15 1_555 1_555
F4 C18 1_555 1_555
F5 C15 1_555 1_555
F6 C16 1_555 1_555
C19 C17 1_555 1_555
H10 C19 1_555 1_555
C20 C10 1_555 1_555
H11 C20 1_555 1_555
O1 C4 1_555 1_555
C21 O1 1_555 1_555
H12 C21 1_555 1_555
H13 C21 1_555 1_555
H14 C7 1_555 1_555
H15 C21 1_555 1_555
C6 C8 1_555 1_555
C10 C11 1_555 1_555
C15 C18 1_555 1_555
C19 C20 1_555 1_555

#END
