
#######################################################################
#
#                 Cambridge Crystallographic Data Centre
#                                CCDC 
#
#######################################################################
#
# If this CIF has been generated from an entry in the Cambridge 
# Structural Database, then it will include bibliographic, chemical, 
# crystal, experimental, refinement or atomic coordinate data resulting 
# from the CCDC's data processing and validation procedures.
#
#######################################################################

data_GACHEY01
_chemical_formula_moiety         'C39 H54 N4 O3'
_chemical_name_systematic        
2,2',2''-(nitrilotris((ethane-2,1-diyl)iminomethyl))tris(6-t-butylphenol)
_symmetry_cell_setting           triclinic
_symmetry_space_group_name_H-M   'P -1'
_symmetry_Int_Tables_number      2
_space_group_name_Hall           '-P 1'
loop_
_symmetry_equiv_pos_site_id
_symmetry_equiv_pos_as_xyz
1 x,y,z
2 -x,-y,-z
_cell_length_a                   12.9272(4)
_cell_length_b                   13.0256(4)
_cell_length_c                   23.4928(6)
_cell_angle_alpha                82.005(2)
_cell_angle_beta                 79.707(2)
_cell_angle_gamma                86.311(2)
_cell_volume                     3851.16
_exptl_crystal_colour            'yellowish yellow'
_exptl_crystal_description       block
_cell_formula_units_Z            4
loop_
_atom_site_label
_atom_site_type_symbol
_atom_site_fract_x
_atom_site_fract_y
_atom_site_fract_z
O1 O -0.22768(14) 0.39555(13) 0.88550(7)
H1 H -0.2364 0.3421 0.8725
O2 O 0.21705(13) 0.12234(12) 0.92916(9)
H2 H 0.1568 0.1027 0.9333
O3 O 0.07936(15) 0.17705(13) 0.65662(7)
H3 H 0.0662 0.1302 0.6837
N1 N -0.10038(13) 0.04038(13) 0.85759(7)
N2 N 0.01610(14) 0.13437(14) 0.93939(7)
N3 N 0.08657(15) 0.06689(15) 0.75634(8)
N4 N -0.19763(16) 0.25346(15) 0.81716(9)
C1 C 0.02279(17) 0.23041(16) 0.92071(9)
H4 H -0.0385 0.2698 0.9163
C2 C -0.15476(16) 0.45191(17) 0.84747(9)
C3 C 0.21800(17) 0.22536(16) 0.91113(9)
C4 C 0.13358(16) 0.24991(16) 0.67316(9)
C5 C -0.13009(17) 0.54891(17) 0.86007(10)
C6 C -0.10491(16) 0.41147(18) 0.79684(9)
C7 C 0.12304(17) 0.28116(16) 0.90593(9)
C8 C 0.13611(18) 0.13933(19) 0.76884(10)
H5 H 0.1565 0.1322 0.8052
C9 C 0.16249(17) 0.23348(18) 0.72849(9)
C10 C -0.08674(18) 0.08873(18) 0.95370(9)
H6 H -0.1406 0.1417 0.9461
H7 H -0.1007 0.0622 0.9949
C11 C -0.09143(18) 0.00167(17) 0.91812(9)
H8 H -0.0284 -0.0428 0.9187
H9 H -0.1514 -0.0398 0.9357
C12 C -0.12854(18) 0.30996(19) 0.78437(10)
H10 H -0.0914 0.2854 0.7509
C13 C 0.1232(2) 0.38715(17) 0.88575(10)
H11 H 0.0604 0.4243 0.8820
C14 C -0.0543(2) -0.03316(16) 0.81778(11)
H12 H -0.0875 -0.0216 0.7834
H13 H -0.0688 -0.1031 0.8367
C15 C -0.20895(18) 0.06790(19) 0.85149(11)
H14 H -0.2463 0.0902 0.8876
H15 H -0.2422 0.0069 0.8450
C16 C 0.16090(19) 0.34026(18) 0.63448(10)
C17 C 0.31506(19) 0.27475(19) 0.89677(12)
C18 C -0.1791(2) 0.59025(19) 0.91738(11)
C19 C 0.0632(2) -0.02415(19) 0.79915(12)
H16 H 0.0952 -0.0191 0.8329
H17 H 0.0929 -0.0859 0.7825
C20 C 0.3096(2) 0.3802(2) 0.87778(12)
H18 H 0.3720 0.4153 0.8687
C21 C 0.2172(2) 0.43609(18) 0.87148(11)
H19 H 0.2184 0.5065 0.8577
C22 C -0.2186(2) 0.1532(2) 0.80177(12)
H20 H -0.1691 0.1385 0.7674
H21 H -0.2890 0.1553 0.7925
C23 C -0.0548(2) 0.6026(2) 0.81931(12)
H22 H -0.0368 0.6673 0.8260
C24 C 0.2174(2) 0.3081(2) 0.74613(12)
H23 H 0.2371 0.2971 0.7828
C25 C -0.0296(2) 0.4691(2) 0.75788(11)
H24 H 0.0042 0.4431 0.7242
C26 C 0.2149(2) 0.4118(2) 0.65516(13)
H25 H 0.2336 0.4728 0.6309
C27 C -0.0055(2) 0.5635(3) 0.76912(13)
H26 H 0.0445 0.6021 0.7429
C28 C 0.2425(2) 0.3971(2) 0.71015(14)
H27 H 0.2779 0.4478 0.7223
C29 C 0.1312(3) 0.3580(2) 0.57354(12)
C30 C -0.1465(3) 0.5162(3) 0.96826(12)
H28 H -0.1734 0.4490 0.9688
H29 H -0.1747 0.5426 1.0043
H30 H -0.0712 0.5107 0.9636
C31 C -0.2996(2) 0.5986(3) 0.92368(16)
H31 H -0.3194 0.6480 0.8928
H32 H -0.3292 0.6209 0.9606
H33 H -0.3255 0.5320 0.9216
C32 C 0.4196(2) 0.2138(3) 0.90105(18)
C33 C -0.1437(3) 0.6980(3) 0.92089(17)
H34 H -0.0692 0.6953 0.9205
H35 H -0.1797 0.7219 0.9563
H36 H -0.1599 0.7449 0.8881
C34 C 0.4182(3) 0.1547(4) 0.9628(2)
H37 H 0.4025 0.2026 0.9910
H38 H 0.4859 0.1210 0.9652
H39 H 0.3655 0.1036 0.9705
C35 C 0.1820(4) 0.2707(3) 0.53884(14)
H40 H 0.2559 0.2642 0.5403
H41 H 0.1722 0.2869 0.4990
H42 H 0.1498 0.2065 0.5555
C36 C 0.1744(4) 0.4605(3) 0.53902(18)
H43 H 0.1441 0.5176 0.5590
H44 H 0.1563 0.4689 0.5007
H45 H 0.2495 0.4587 0.5359
C37 C 0.0117(3) 0.3637(3) 0.57853(19)
H46 H -0.0173 0.3042 0.6037
H47 H -0.0065 0.3650 0.5406
H48 H -0.0163 0.4257 0.5945
C38 C 0.4380(3) 0.1385(3) 0.8542(2)
H49 H 0.3769 0.0984 0.8579
H50 H 0.4979 0.0929 0.8596
H51 H 0.4508 0.1777 0.8160
C39 C 0.5124(3) 0.2864(3) 0.8882(3)
H52 H 0.5206 0.3182 0.8484
H53 H 0.5757 0.2471 0.8946
H54 H 0.4990 0.3392 0.9136
O4 O 0.63701(12) 1.01658(13) 0.61123(7)
H55 H 0.5736 1.0305 0.6147
O5 O 0.24213(15) 0.76505(15) 0.79477(8)
H56 H 0.2306 0.7624 0.7618
O6 O 0.53718(16) 0.53738(13) 0.57275(9)
H57 H 0.5193 0.5937 0.5563
N5 N 0.32152(13) 0.87119(13) 0.58766(8)
N6 N 0.52048(15) 0.73845(15) 0.54778(9)
N7 N 0.26201(18) 0.70929(17) 0.69311(9)
N8 N 0.44074(15) 0.99929(17) 0.65127(10)
C40 C 0.58336(17) 0.74380(16) 0.58254(10)
H58 H 0.6021 0.8090 0.5880
C41 C 0.34783(19) 0.66089(17) 0.70207(10)
H59 H 0.3884 0.6291 0.6721
C42 C 0.32890(18) 0.70582(16) 0.80330(10)
C43 C 0.65845(18) 0.95957(16) 0.66055(10)
C44 C 0.62801(18) 0.65264(17) 0.61451(10)
C45 C 0.60341(17) 0.55185(17) 0.60887(10)
C46 C 0.38434(19) 0.65372(16) 0.75760(10)
C47 C 0.46514(19) 0.9452(2) 0.69634(11)
H60 H 0.4117 0.9180 0.7254
C48 C 0.48033(19) 0.83288(19) 0.51728(10)
H61 H 0.5033 0.8333 0.4756
H62 H 0.5095 0.8921 0.5287
C49 C 0.36276(19) 0.69725(17) 0.85732(10)
C50 C 0.76353(19) 0.93496(17) 0.66673(11)
C51 C 0.4749(2) 0.59392(18) 0.76546(11)
H63 H 0.5119 0.5598 0.7354
C52 C 0.3144(2) 0.98318(19) 0.58803(13)
H64 H 0.2455 1.0092 0.5805
H65 H 0.3663 1.0147 0.5565
C53 C 0.3622(2) 0.8433(2) 0.53004(10)
H66 H 0.3384 0.8957 0.5011
H67 H 0.3335 0.7780 0.5264
C54 C 0.5746(2) 0.92381(19) 0.70431(11)
C55 C 0.33118(19) 1.0161(2) 0.64379(14)
H68 H 0.3110 1.0891 0.6441
H69 H 0.2867 0.9771 0.6762
C56 C 0.4534(2) 0.63674(19) 0.86271(12)
H70 H 0.4781 0.6299 0.8979
C57 C 0.64587(19) 0.46465(18) 0.64116(11)
C58 C 0.85627(19) 0.9677(2) 0.61740(13)
C59 C 0.21993(18) 0.8261(2) 0.61003(12)
H71 H 0.1805 0.8294 0.5783
H72 H 0.1808 0.8670 0.6388
C60 C 0.3053(2) 0.7554(2) 0.90688(11)
C61 C 0.5095(2) 0.5856(2) 0.81771(13)
H73 H 0.5702 0.5459 0.8232
C62 C 0.6971(2) 0.6668(2) 0.65149(14)
H74 H 0.7142 0.7335 0.6552
C63 C 0.6175(2) 0.35420(19) 0.63709(13)
C64 C 0.2289(2) 0.7153(2) 0.63739(12)
H75 H 0.1614 0.6838 0.6424
H76 H 0.2795 0.6769 0.6118
C65 C 0.5950(3) 0.8647(2) 0.75541(12)
H77 H 0.5398 0.8413 0.7845
C66 C 0.7790(3) 0.8758(2) 0.71872(14)
H78 H 0.8477 0.8585 0.7244
C67 C 0.7141(2) 0.4842(2) 0.67677(13)
H79 H 0.7441 0.4281 0.6980
C68 C 0.1880(2) 0.7283(3) 0.92123(13)
H80 H 0.1551 0.7514 0.8879
H81 H 0.1536 0.7620 0.9537
H82 H 0.1827 0.6545 0.9309
C69 C 0.6689(3) 0.2743(2) 0.67885(16)
H83 H 0.7439 0.2801 0.6702
H84 H 0.6514 0.2058 0.6742
H85 H 0.6436 0.2870 0.7183
C70 C 0.7402(3) 0.5830(2) 0.68250(16)
H86 H 0.7866 0.5926 0.7072
C71 C 0.8457(3) 0.9198(3) 0.56269(16)
H87 H 0.8523 0.8456 0.5706
H88 H 0.9000 0.9442 0.5311
H89 H 0.7781 0.9396 0.5522
C72 C 0.8561(2) 1.0856(2) 0.60363(18)
H90 H 0.7915 1.1107 0.5909
H91 H 0.9143 1.1052 0.5733
H92 H 0.8625 1.1152 0.6380
C73 C 0.6973(3) 0.8411(3) 0.76267(15)
H93 H 0.7118 0.8022 0.7968
C74 C 0.6627(4) 0.3290(2) 0.57482(15)
H94 H 0.6278 0.3730 0.5471
H95 H 0.6515 0.2578 0.5724
H96 H 0.7367 0.3407 0.5663
C75 C 0.3128(3) 0.8723(2) 0.88854(18)
H97 H 0.3854 0.8900 0.8800
H98 H 0.2765 0.9085 0.9197
H99 H 0.2813 0.8920 0.8544
C76 C 0.3513(3) 0.7266(3) 0.96275(14)
H100 H 0.3475 0.6532 0.9746
H101 H 0.3119 0.7629 0.9930
H102 H 0.4234 0.7456 0.9558
C77 C 0.9626(3) 0.9329(3) 0.6343(2)
H103 H 0.9709 0.9636 0.6680
H104 H 1.0176 0.9545 0.6024
H105 H 0.9663 0.8587 0.6431
C78 C 0.4999(3) 0.3422(3) 0.6526(2)
H106 H 0.4754 0.3582 0.6915
H107 H 0.4839 0.2720 0.6503
H108 H 0.4655 0.3887 0.6257
loop_
_geom_bond_atom_site_label_1
_geom_bond_atom_site_label_2
_geom_bond_site_symmetry_1
_geom_bond_site_symmetry_2
O1 H1 1_555 1_555
O2 H2 1_555 1_555
O3 H3 1_555 1_555
N1 C11 1_555 1_555
N2 C1 1_555 1_555
N3 C8 1_555 1_555
N4 C12 1_555 1_555
C1 H4 1_555 1_555
C2 O1 1_555 1_555
C3 O2 1_555 1_555
C4 O3 1_555 1_555
C5 C2 1_555 1_555
C6 C2 1_555 1_555
C7 C1 1_555 1_555
C8 H5 1_555 1_555
C9 C4 1_555 1_555
C10 N2 1_555 1_555
H6 C10 1_555 1_555
H7 C10 1_555 1_555
C11 C10 1_555 1_555
H8 C11 1_555 1_555
H9 C11 1_555 1_555
C12 C6 1_555 1_555
H10 C12 1_555 1_555
C13 C7 1_555 1_555
H11 C13 1_555 1_555
C14 N1 1_555 1_555
H12 C14 1_555 1_555
H13 C14 1_555 1_555
C15 N1 1_555 1_555
H14 C15 1_555 1_555
H15 C15 1_555 1_555
C16 C4 1_555 1_555
C17 C3 1_555 1_555
C18 C5 1_555 1_555
C19 N3 1_555 1_555
H16 C19 1_555 1_555
H17 C19 1_555 1_555
C20 C17 1_555 1_555
H18 C20 1_555 1_555
C21 C13 1_555 1_555
H19 C21 1_555 1_555
C22 N4 1_555 1_555
H20 C22 1_555 1_555
H21 C22 1_555 1_555
C23 C5 1_555 1_555
H22 C23 1_555 1_555
C24 C9 1_555 1_555
H23 C24 1_555 1_555
C25 C6 1_555 1_555
H24 C25 1_555 1_555
C26 C16 1_555 1_555
H25 C26 1_555 1_555
C27 C23 1_555 1_555
H26 C27 1_555 1_555
C28 C24 1_555 1_555
H27 C28 1_555 1_555
C29 C16 1_555 1_555
C30 C18 1_555 1_555
H28 C30 1_555 1_555
H29 C30 1_555 1_555
H30 C30 1_555 1_555
C31 C18 1_555 1_555
H31 C31 1_555 1_555
H32 C31 1_555 1_555
H33 C31 1_555 1_555
C32 C17 1_555 1_555
C33 C18 1_555 1_555
H34 C33 1_555 1_555
H35 C33 1_555 1_555
H36 C33 1_555 1_555
C34 C32 1_555 1_555
H37 C34 1_555 1_555
H38 C34 1_555 1_555
H39 C34 1_555 1_555
C35 C29 1_555 1_555
H40 C35 1_555 1_555
H41 C35 1_555 1_555
H42 C35 1_555 1_555
C36 C29 1_555 1_555
H43 C36 1_555 1_555
H44 C36 1_555 1_555
H45 C36 1_555 1_555
C37 C29 1_555 1_555
H46 C37 1_555 1_555
H47 C37 1_555 1_555
H48 C37 1_555 1_555
C38 C32 1_555 1_555
H49 C38 1_555 1_555
H50 C38 1_555 1_555
H51 C38 1_555 1_555
C39 C32 1_555 1_555
H52 C39 1_555 1_555
H53 C39 1_555 1_555
H54 C39 1_555 1_555
O4 H55 1_555 1_555
O5 H56 1_555 1_555
O6 H57 1_555 1_555
N5 C52 1_555 1_555
N6 C40 1_555 1_555
N7 C41 1_555 1_555
N8 C47 1_555 1_555
C40 H58 1_555 1_555
C41 H59 1_555 1_555
C42 O5 1_555 1_555
C43 O4 1_555 1_555
C44 C40 1_555 1_555
C45 O6 1_555 1_555
C46 C41 1_555 1_555
C47 H60 1_555 1_555
C48 N6 1_555 1_555
H61 C48 1_555 1_555
H62 C48 1_555 1_555
C49 C42 1_555 1_555
C50 C43 1_555 1_555
C51 C46 1_555 1_555
H63 C51 1_555 1_555
C52 H64 1_555 1_555
H65 C52 1_555 1_555
C53 N5 1_555 1_555
H66 C53 1_555 1_555
H67 C53 1_555 1_555
C54 C43 1_555 1_555
C55 N8 1_555 1_555
H68 C55 1_555 1_555
H69 C55 1_555 1_555
C56 C49 1_555 1_555
H70 C56 1_555 1_555
C57 C45 1_555 1_555
C58 C50 1_555 1_555
C59 N5 1_555 1_555
H71 C59 1_555 1_555
H72 C59 1_555 1_555
C60 C49 1_555 1_555
C61 C51 1_555 1_555
H73 C61 1_555 1_555
C62 C44 1_555 1_555
H74 C62 1_555 1_555
C63 C57 1_555 1_555
C64 N7 1_555 1_555
H75 C64 1_555 1_555
H76 C64 1_555 1_555
C65 C54 1_555 1_555
H77 C65 1_555 1_555
C66 C50 1_555 1_555
H78 C66 1_555 1_555
C67 C57 1_555 1_555
H79 C67 1_555 1_555
C68 C60 1_555 1_555
H80 C68 1_555 1_555
H81 C68 1_555 1_555
H82 C68 1_555 1_555
C69 C63 1_555 1_555
H83 C69 1_555 1_555
H84 C69 1_555 1_555
H85 C69 1_555 1_555
C70 C62 1_555 1_555
H86 C70 1_555 1_555
C71 C58 1_555 1_555
H87 C71 1_555 1_555
H88 C71 1_555 1_555
H89 C71 1_555 1_555
C72 C58 1_555 1_555
H90 C72 1_555 1_555
H91 C72 1_555 1_555
H92 C72 1_555 1_555
C73 C65 1_555 1_555
H93 C73 1_555 1_555
C74 C63 1_555 1_555
H94 C74 1_555 1_555
H95 C74 1_555 1_555
H96 C74 1_555 1_555
C75 C60 1_555 1_555
H97 C75 1_555 1_555
H98 C75 1_555 1_555
H99 C75 1_555 1_555
C76 C60 1_555 1_555
H100 C76 1_555 1_555
H101 C76 1_555 1_555
H102 C76 1_555 1_555
C77 C58 1_555 1_555
H103 C77 1_555 1_555
H104 C77 1_555 1_555
H105 C77 1_555 1_555
C78 C63 1_555 1_555
H106 C78 1_555 1_555
H107 C78 1_555 1_555
H108 C78 1_555 1_555
C3 C7 1_555 1_555
C8 C9 1_555 1_555
C14 C19 1_555 1_555
C15 C22 1_555 1_555
C20 C21 1_555 1_555
C25 C27 1_555 1_555
C26 C28 1_555 1_555
C42 C46 1_555 1_555
C44 C45 1_555 1_555
C47 C54 1_555 1_555
C48 C53 1_555 1_555
C52 C55 1_555 1_555
C56 C61 1_555 1_555
C59 C64 1_555 1_555
C66 C73 1_555 1_555
C67 C70 1_555 1_555

#END
