
#######################################################################
#
#                 Cambridge Crystallographic Data Centre
#                                CCDC 
#
#######################################################################
#
# If this CIF has been generated from an entry in the Cambridge 
# Structural Database, then it will include bibliographic, chemical, 
# crystal, experimental, refinement or atomic coordinate data resulting 
# from the CCDC's data processing and validation procedures.
#
#######################################################################

data_GACKUT
_chemical_compound_source        'aerial parts of Isodon phyllostachys'
_chemical_name_common            
9-Hydroxy-11-methoxy-7,7,17-trimethyl-3,10-dioxapentacyclo[14.2.1.0$1,13!.0$4,12!.0$8,12!]nonadecane-2,18-dione
_chemical_formula_moiety         'C21 H30 O6'
_chemical_name_systematic        'Phyllostacin N'
_symmetry_cell_setting           orthorhombic
_symmetry_space_group_name_H-M   'P 21 21 2'
_symmetry_Int_Tables_number      18
_space_group_name_Hall           'P 2 2ab'
loop_
_symmetry_equiv_pos_site_id
_symmetry_equiv_pos_as_xyz
1 x,y,z
2 1/2+x,1/2-y,-z
3 1/2-x,1/2+y,-z
4 -x,-y,z
_cell_length_a                   15.0447(4)
_cell_length_b                   19.0079(5)
_cell_length_c                   6.6069(2)
_cell_angle_alpha                90
_cell_angle_beta                 90
_cell_angle_gamma                90
_cell_volume                     1889.36
_exptl_crystal_colour            colorless
_exptl_crystal_description       prism
_cell_formula_units_Z            4
loop_
_atom_site_label
_atom_site_type_symbol
_atom_site_fract_x
_atom_site_fract_y
_atom_site_fract_z
O1 O 0.24640(13) 0.73177(10) 1.0504(3)
H1 H 0.2049 0.7369 1.1341
O2 O 0.34984(12) 0.64387(11) 1.1180(3)
O3 O 0.48563(11) 0.68993(10) 1.0196(3)
O4 O 0.62362(12) 0.71143(10) 0.6578(3)
O5 O 0.51414(11) 0.63721(9) 0.6079(3)
O6 O 0.55788(13) 0.82604(12) 0.9115(4)
C1 C 0.29792(18) 0.54145(14) 0.5569(4)
H2 H 0.2842 0.4916 0.5266
H3 H 0.2715 0.5706 0.4483
C2 C 0.25531(16) 0.56146(13) 0.7598(4)
C3 C 0.27629(15) 0.64017(13) 0.8052(4)
H4 H 0.2355 0.6703 0.7228
C4 C 0.37339(16) 0.66386(13) 0.7660(4)
C5 C 0.38193(15) 0.74474(13) 0.7281(4)
H5 H 0.3752 0.7694 0.8609
C6 C 0.47813(15) 0.76189(13) 0.6415(4)
C7 C 0.50979(17) 0.82590(14) 0.7651(4)
C8 C 0.46938(18) 0.89190(15) 0.6683(5)
H6 H 0.5196 0.9229 0.6249
C9 C 0.4147(2) 0.93237(16) 0.8233(5)
H7 H 0.3641 0.9035 0.8667
H8 H 0.3927 0.9761 0.7623
H9 H 0.4519 0.9436 0.9407
C10 C 0.26565(16) 0.65990(14) 1.0291(4)
H10 H 0.2178 0.6309 1.0929
C11 C 0.41834(16) 0.64307(14) 0.9672(4)
H11 H 0.4434 0.5945 0.9555
C12 C 0.56235(17) 0.65758(17) 1.1085(4)
H12 H 0.5446 0.6315 1.2300
H13 H 0.6055 0.6940 1.1455
H14 H 0.5893 0.6252 1.0109
C13 C 0.30893(16) 0.77212(14) 0.5841(4)
H15 H 0.3037 0.7390 0.4691
H16 H 0.2515 0.7716 0.6574
C14 C 0.32392(19) 0.84614(15) 0.4995(5)
H17 H 0.2960 0.8808 0.5915
H18 H 0.2942 0.8500 0.3662
C15 C 0.42309(18) 0.86433(15) 0.4748(4)
H19 H 0.4312 0.8986 0.3615
C16 C 0.47313(19) 0.79616(14) 0.4288(4)
H20 H 0.5331 0.8057 0.3738
H21 H 0.4398 0.7662 0.3324
C17 C 0.54456(16) 0.70227(14) 0.6421(4)
C18 C 0.41774(16) 0.62894(14) 0.5852(4)
H22 H 0.3988 0.6544 0.4600
C19 C 0.39877(17) 0.55154(15) 0.5564(4)
H23 H 0.4261 0.5240 0.6673
H24 H 0.4241 0.5351 0.4263
C20 C 0.28478(17) 0.50877(15) 0.9237(4)
H25 H 0.2690 0.4609 0.8814
H26 H 0.2548 0.5198 1.0514
H27 H 0.3493 0.5120 0.9425
C21 C 0.15385(17) 0.55497(15) 0.7395(5)
H28 H 0.1337 0.5825 0.6229
H29 H 0.1254 0.5728 0.8627
H30 H 0.1378 0.5055 0.7199
loop_
_geom_bond_atom_site_label_1
_geom_bond_atom_site_label_2
_geom_bond_site_symmetry_1
_geom_bond_site_symmetry_2
O1 H1 1_555 1_555
O2 C10 1_555 1_555
O3 C11 1_555 1_555
O4 C17 1_555 1_555
O5 C17 1_555 1_555
O6 C7 1_555 1_555
C1 H2 1_555 1_555
H3 C1 1_555 1_555
C2 C1 1_555 1_555
C3 C2 1_555 1_555
H4 C3 1_555 1_555
C4 C3 1_555 1_555
C5 C4 1_555 1_555
H5 C5 1_555 1_555
C6 C5 1_555 1_555
C7 C6 1_555 1_555
C8 C7 1_555 1_555
H6 C8 1_555 1_555
C9 C8 1_555 1_555
H7 C9 1_555 1_555
H8 C9 1_555 1_555
H9 C9 1_555 1_555
C10 O1 1_555 1_555
H10 C10 1_555 1_555
C11 O2 1_555 1_555
H11 C11 1_555 1_555
C12 O3 1_555 1_555
H12 C12 1_555 1_555
H13 C12 1_555 1_555
H14 C12 1_555 1_555
C13 C5 1_555 1_555
H15 C13 1_555 1_555
H16 C13 1_555 1_555
C14 C13 1_555 1_555
H17 C14 1_555 1_555
H18 C14 1_555 1_555
C15 C8 1_555 1_555
H19 C15 1_555 1_555
C16 C6 1_555 1_555
H20 C16 1_555 1_555
H21 C16 1_555 1_555
C17 C6 1_555 1_555
C18 O5 1_555 1_555
H22 C18 1_555 1_555
C19 C1 1_555 1_555
H23 C19 1_555 1_555
H24 C19 1_555 1_555
C20 C2 1_555 1_555
H25 C20 1_555 1_555
H26 C20 1_555 1_555
H27 C20 1_555 1_555
C21 C2 1_555 1_555
H28 C21 1_555 1_555
H29 C21 1_555 1_555
H30 C21 1_555 1_555
C3 C10 1_555 1_555
C4 C11 1_555 1_555
C4 C18 1_555 1_555
C14 C15 1_555 1_555
C15 C16 1_555 1_555
C18 C19 1_555 1_555

#END
