
#######################################################################
#
#                 Cambridge Crystallographic Data Centre
#                                CCDC 
#
#######################################################################
#
# If this CIF has been generated from an entry in the Cambridge 
# Structural Database, then it will include bibliographic, chemical, 
# crystal, experimental, refinement or atomic coordinate data resulting 
# from the CCDC's data processing and validation procedures.
#
#######################################################################

data_GACLAA
_chemical_compound_source        'aerial parts of Isodon phyllostachys'
_chemical_name_common            
9-Hydroxy-11-methoxy-7,7,17-trimethyl-3,10-dioxapentacyclo[14.2.1.0$1,13!.0$4,12!.0$8,12!]nonadecane-2,18-dione
_chemical_formula_moiety         'C21 H30 O6'
_chemical_name_systematic        '20-epiphyllostacin N'
_symmetry_cell_setting           monoclinic
_symmetry_space_group_name_H-M   'P 2'
_symmetry_Int_Tables_number      3
_space_group_name_Hall           'P 2y'
loop_
_symmetry_equiv_pos_site_id
_symmetry_equiv_pos_as_xyz
1 x,y,z
2 -x,y,-z
_cell_length_a                   14.7955(3)
_cell_length_b                   6.6095(2)
_cell_length_c                   19.9799(5)
_cell_angle_alpha                90
_cell_angle_beta                 90.0360(10)
_cell_angle_gamma                90
_cell_volume                     1953.85
_exptl_crystal_colour            colorless
_exptl_crystal_description       prism
_cell_formula_units_Z            4
loop_
_atom_site_label
_atom_site_type_symbol
_atom_site_fract_x
_atom_site_fract_y
_atom_site_fract_z
O1 O -0.0093(7) 0.4973(16) 0.3651(5)
O2 O 0.1214(5) 0.3757(12) 0.3210(4)
O3 O 0.2589(5) 0.4566(13) 0.2690(4)
H1 H 0.2679 0.5747 0.2550
O4 O -0.1282(5) 0.8528(13) 0.2202(4)
O5 O -0.0435(5) 0.8908(13) 0.3094(4)
O6 O -0.0176(5) 0.5844(12) 0.1324(4)
C1 C 0.2886(8) 0.745(2) 0.4468(6)
H2 H 0.3132 0.8693 0.4270
H3 H 0.3233 0.6286 0.4309
H4 H 0.2927 0.7534 0.4956
C2 C 0.1901(8) 0.7216(18) 0.4262(6)
C3 C 0.1911(8) 0.6836(17) 0.3472(5)
H5 H 0.2401 0.7677 0.3269
C4 C 0.1033(6) 0.7268(14) 0.3103(5)
C5 C 0.1194(6) 0.7714(14) 0.2343(4)
H6 H 0.1318 0.6392 0.2117
C6 C 0.0308(6) 0.8656(14) 0.2005(5)
C7 C 0.0178(6) 0.7476(15) 0.1378(5)
C8 C 0.0658(7) 0.8655(16) 0.0833(5)
H7 H 0.0175 0.9297 0.0555
C9 C 0.1218(11) 0.728(2) 0.0349(8)
H8 H 0.1644 0.6462 0.0610
H9 H 0.1552 0.8128 0.0032
H10 H 0.0807 0.6385 0.0103
C10 C 0.1405(9) 0.9244(19) 0.4390(6)
H11 H 0.1741 1.0352 0.4168
H12 H 0.1399 0.9523 0.4877
C11 C 0.0417(8) 0.922(2) 0.4126(6)
H13 H 0.0082 0.8057 0.4316
H14 H 0.0101 1.0483 0.4250
C12 C 0.0483(6) 0.9031(15) 0.3374(5)
H15 H 0.0764 1.0305 0.3201
C13 C 0.0533(7) 0.5281(15) 0.3116(5)
H16 H 0.0221 0.5064 0.2677
C14 C -0.0865(8) 0.399(2) 0.3463(6)
H17 H -0.0810 0.3550 0.2996
H18 H -0.1383 0.4899 0.3508
H19 H -0.0954 0.2800 0.3750
C15 C 0.2097(7) 0.4646(18) 0.3317(5)
H20 H 0.2432 0.3961 0.3688
C16 C 0.1511(9) 0.554(2) 0.4674(7)
H21 H 0.1898 0.4341 0.4639
H22 H 0.0904 0.5211 0.4510
H23 H 0.1475 0.5968 0.5143
C17 C 0.2023(6) 0.9123(14) 0.2212(4)
H24 H 0.1977 1.0330 0.2503
H25 H 0.2584 0.8394 0.2332
C18 C 0.2078(7) 0.9802(17) 0.1480(5)
H26 H 0.2352 0.8703 0.1211
H27 H 0.2481 1.0995 0.1449
C19 C 0.1144(7) 1.0351(15) 0.1179(5)
H28 H 0.1198 1.1547 0.0875
C20 C 0.0484(7) 1.0818(16) 0.1760(5)
H29 H 0.0769 1.1664 0.2110
H30 H -0.0076 1.1479 0.1599
C21 C -0.0545(6) 0.8654(15) 0.2453(5)
O7 O 0.7568(6) 0.5339(13) 0.2312(4)
H31 H 0.7520 0.6510 0.2471
O8 O 0.4912(6) 0.4890(14) 0.1371(4)
O9 O 0.6221(6) 0.6144(14) 0.1793(5)
O10 O 0.4551(5) 0.0948(11) 0.1886(4)
O11 O 0.3717(5) 0.1347(13) 0.2808(4)
O12 O 0.4841(6) 0.4059(14) 0.3681(5)
C22 C 0.7110(7) 0.5237(17) 0.1704(5)
H32 H 0.7455 0.5951 0.1344
C23 C 0.6921(7) 0.3046(16) 0.1506(5)
H33 H 0.7412 0.2171 0.1692
C24 C 0.6030(6) 0.2598(12) 0.1894(4)
C25 C 0.6198(6) 0.2134(13) 0.2649(4)
H34 H 0.6329 0.3461 0.2869
C26 C 0.5290(7) 0.1263(16) 0.2997(5)
C27 C 0.5186(7) 0.2435(17) 0.3627(5)
C28 C 0.5649(7) 0.1290(18) 0.4185(5)
H35 H 0.5161 0.0693 0.4470
C29 C 0.6246(10) 0.257(2) 0.4649(7)
H36 H 0.6814 0.2889 0.4421
H37 H 0.6375 0.1804 0.5059
H38 H 0.5931 0.3823 0.4764
C30 C 0.4108(7) 0.5888(18) 0.1521(6)
H39 H 0.3918 0.5541 0.1976
H40 H 0.3638 0.5473 0.1203
H41 H 0.4201 0.7353 0.1488
C31 C 0.5504(7) 0.4696(15) 0.1862(5)
H42 H 0.5191 0.4928 0.2299
C32 C 0.6853(10) 0.266(2) 0.0733(7)
C33 C 0.6378(8) 0.0663(18) 0.0622(6)
H43 H 0.6368 0.0357 0.0137
H44 H 0.6722 -0.0423 0.0849
C34 C 0.5435(8) 0.0678(19) 0.0881(6)
H45 H 0.5118 -0.0580 0.0751
H46 H 0.5098 0.1846 0.0697
C35 C 0.5498(6) 0.0833(15) 0.1627(5)
H47 H 0.5779 -0.0440 0.1800
C36 C 0.4506(7) 0.1169(15) 0.2531(5)
C37 C 0.6123(7) -0.0519(17) 0.3816(5)
H48 H 0.6168 -0.1731 0.4114
C38 C 0.7063(6) 0.0026(16) 0.3508(5)
H49 H 0.7348 0.1094 0.3784
H50 H 0.7457 -0.1183 0.3526
C39 C 0.7006(6) 0.0737(15) 0.2809(5)
H51 H 0.6972 -0.0460 0.2512
H52 H 0.7571 0.1468 0.2700
C40 C 0.5494(6) -0.0902(14) 0.3244(5)
H53 H 0.4937 -0.1597 0.3394
H54 H 0.5788 -0.1719 0.2891
C41 C 0.6515(13) 0.430(3) 0.0325(9)
H55 H 0.6408 0.3810 -0.0131
H56 H 0.6961 0.5397 0.0314
H57 H 0.5947 0.4806 0.0514
C42 C 0.7906(12) 0.236(3) 0.0578(9)
H58 H 0.8042 0.2874 0.0129
H59 H 0.8056 0.0917 0.0601
H60 H 0.8265 0.3102 0.0909
loop_
_geom_bond_atom_site_label_1
_geom_bond_atom_site_label_2
_geom_bond_site_symmetry_1
_geom_bond_site_symmetry_2
O1 C13 1_555 1_555
O2 C13 1_555 1_555
O3 H1 1_555 1_555
O4 C21 1_555 1_555
O5 C12 1_555 1_555
O6 C7 1_555 1_555
C1 H2 1_555 1_555
H3 C1 1_555 1_555
H4 C1 1_555 1_555
C2 C1 1_555 1_555
C3 C2 1_555 1_555
H5 C3 1_555 1_555
C4 C3 1_555 1_555
C5 C4 1_555 1_555
H6 C5 1_555 1_555
C6 C5 1_555 1_555
C7 C6 1_555 1_555
C8 C7 1_555 1_555
H7 C8 1_555 1_555
C9 C8 1_555 1_555
H8 C9 1_555 1_555
H9 C9 1_555 1_555
H10 C9 1_555 1_555
C10 C2 1_555 1_555
H11 C10 1_555 1_555
H12 C10 1_555 1_555
C11 C10 1_555 1_555
H13 C11 1_555 1_555
H14 C11 1_555 1_555
C12 C4 1_555 1_555
H15 C12 1_555 1_555
C13 C4 1_555 1_555
H16 C13 1_555 1_555
C14 O1 1_555 1_555
H17 C14 1_555 1_555
H18 C14 1_555 1_555
H19 C14 1_555 1_555
C15 O2 1_555 1_555
H20 C15 1_555 1_555
C16 C2 1_555 1_555
H21 C16 1_555 1_555
H22 C16 1_555 1_555
H23 C16 1_555 1_555
C17 C5 1_555 1_555
H24 C17 1_555 1_555
H25 C17 1_555 1_555
C18 C17 1_555 1_555
H26 C18 1_555 1_555
H27 C18 1_555 1_555
C19 C8 1_555 1_555
H28 C19 1_555 1_555
C20 C6 1_555 1_555
H29 C20 1_555 1_555
H30 C20 1_555 1_555
C21 O5 1_555 1_555
O7 H31 1_555 1_555
O8 C30 1_555 1_555
O9 C22 1_555 1_555
O10 C35 1_555 1_555
O11 C36 1_555 1_555
O12 C27 1_555 1_555
C22 O7 1_555 1_555
H32 C22 1_555 1_555
C23 C22 1_555 1_555
H33 C23 1_555 1_555
C24 C23 1_555 1_555
C25 C24 1_555 1_555
H34 C25 1_555 1_555
C26 C25 1_555 1_555
C27 C26 1_555 1_555
C28 C27 1_555 1_555
H35 C28 1_555 1_555
C29 C28 1_555 1_555
H36 C29 1_555 1_555
H37 C29 1_555 1_555
H38 C29 1_555 1_555
C30 H39 1_555 1_555
H40 C30 1_555 1_555
H41 C30 1_555 1_555
C31 O8 1_555 1_555
H42 C31 1_555 1_555
C32 C23 1_555 1_555
C33 C32 1_555 1_555
H43 C33 1_555 1_555
H44 C33 1_555 1_555
C34 C33 1_555 1_555
H45 C34 1_555 1_555
H46 C34 1_555 1_555
C35 C24 1_555 1_555
H47 C35 1_555 1_555
C36 O10 1_555 1_555
C37 C28 1_555 1_555
H48 C37 1_555 1_555
C38 C37 1_555 1_555
H49 C38 1_555 1_555
H50 C38 1_555 1_555
C39 C25 1_555 1_555
H51 C39 1_555 1_555
H52 C39 1_555 1_555
C40 C26 1_555 1_555
H53 C40 1_555 1_555
H54 C40 1_555 1_555
C41 C32 1_555 1_555
H55 C41 1_555 1_555
H56 C41 1_555 1_555
H57 C41 1_555 1_555
C42 C32 1_555 1_555
H58 C42 1_555 1_555
H59 C42 1_555 1_555
H60 C42 1_555 1_555
O3 C15 1_555 1_555
C3 C15 1_555 1_555
C6 C21 1_555 1_555
C11 C12 1_555 1_555
C18 C19 1_555 1_555
C19 C20 1_555 1_555
O9 C31 1_555 1_555
C24 C31 1_555 1_555
C26 C36 1_555 1_555
C34 C35 1_555 1_555
C37 C40 1_555 1_555
C38 C39 1_555 1_555

#END
