
#######################################################################
#
#                 Cambridge Crystallographic Data Centre
#                                CCDC 
#
#######################################################################
#
# If this CIF has been generated from an entry in the Cambridge 
# Structural Database, then it will include bibliographic, chemical, 
# crystal, experimental, refinement or atomic coordinate data resulting 
# from the CCDC's data processing and validation procedures.
#
#######################################################################

data_GACMAB
_chemical_compound_source        'Euphorbia fischeriana'
_chemical_name_common            
'7,11-Dihydroxy-12,16-epoxyabieta-8(14),13(15)-dien-16-one monohydrate'
_chemical_formula_moiety         'C20 H28 O4,H2 O1'
_chemical_name_systematic        'Fischeriolide C monohydrate'
_symmetry_cell_setting           monoclinic
_symmetry_space_group_name_H-M   'C 2'
_symmetry_Int_Tables_number      5
_space_group_name_Hall           'C 2y'
loop_
_symmetry_equiv_pos_site_id
_symmetry_equiv_pos_as_xyz
1 x,y,z
2 -x,y,-z
3 1/2+x,1/2+y,z
4 1/2-x,1/2+y,-z
_cell_length_a                   15.8467(8)
_cell_length_b                   7.5277(4)
_cell_length_c                   17.3310(12)
_cell_angle_alpha                90
_cell_angle_beta                 113.152(2)
_cell_angle_gamma                90
_cell_volume                     1900.9
_exptl_crystal_colour            colorless
_exptl_crystal_description       Block
_cell_formula_units_Z            4
loop_
_atom_site_label
_atom_site_type_symbol
_atom_site_fract_x
_atom_site_fract_y
_atom_site_fract_z
C1 C 0.2661(4) 0.7766(7) 0.2823(3)
H1 H 0.2146 0.8118 0.2298
H2 H 0.2834 0.6532 0.2752
C2 C 0.2341(4) 0.7820(8) 0.3542(4)
H3 H 0.2843 0.7415 0.4064
H4 H 0.1814 0.7005 0.3420
C3 C 0.2058(5) 0.9693(8) 0.3663(4)
H5 H 0.1855 0.9691 0.4135
H6 H 0.1527 1.0053 0.3151
C4 C 0.2825(4) 1.1074(8) 0.3843(4)
C5 C 0.3222(4) 1.0914(7) 0.3153(3)
H7 H 0.2704 1.1280 0.2623
C6 C 0.3982(4) 1.2243(8) 0.3255(3)
H8 H 0.4550 1.1871 0.3728
H9 H 0.3804 1.3425 0.3391
C7 C 0.4171(4) 1.2383(8) 0.2459(3)
H10 H 0.4714 1.3170 0.2565
O1 O 0.3376(3) 1.3165(5) 0.1834(3)
H11 H 0.3466 1.3321 0.1392
C8 C 0.4351(4) 1.0581(7) 0.2178(3)
C9 C 0.3644(4) 0.9158(7) 0.2130(3)
H12 H 0.3050 0.9613 0.1706
C10 C 0.3487(4) 0.9003(7) 0.2965(3)
C11 C 0.3813(4) 0.7380(7) 0.1763(3)
H13 H 0.3561 0.6376 0.1985
O2 O 0.3348(3) 0.7461(5) 0.0875(2)
H14 H 0.3269 0.6427 0.0677
C12 C 0.4841(4) 0.7088(8) 0.1995(3)
H15 H 0.5157 0.6969 0.2618
C13 C 0.5242(4) 0.8600(9) 0.1715(3)
C14 C 0.5054(4) 1.0339(9) 0.1951(4)
H16 H 0.5432 1.1315 0.1945
C15 C 0.5690(4) 0.7997(10) 0.1249(4)
C16 C 0.5560(4) 0.6061(10) 0.1190(4)
O3 O 0.5027(3) 0.5543(6) 0.1607(3)
O4 O 0.5862(4) 0.4956(8) 0.0863(3)
C17 C 0.6189(5) 0.8980(13) 0.0824(4)
H17 H 0.6109 1.0259 0.0875
H18 H 0.5947 0.8650 0.0229
H19 H 0.6844 0.8684 0.1085
C18 C 0.3538(5) 1.0897(9) 0.4745(3)
H20 H 0.3748 0.9662 0.4851
H21 H 0.3259 1.1242 0.5138
H22 H 0.4061 1.1674 0.4824
C19 C 0.2390(5) 1.2934(9) 0.3773(4)
H23 H 0.1998 1.2955 0.4092
H24 H 0.2020 1.3202 0.3183
H25 H 0.2876 1.3826 0.4002
C20 C 0.4350(4) 0.8241(8) 0.3660(3)
H26 H 0.4277 0.8271 0.4195
H27 H 0.4885 0.8954 0.3705
H28 H 0.4440 0.7010 0.3523
O5 O 0.3236(3) 0.4109(6) 0.0209(2)
H29 H 0.2746 0.3584 -0.0178
H30 H 0.3666 0.4280 0.0036
loop_
_geom_bond_atom_site_label_1
_geom_bond_atom_site_label_2
_geom_bond_site_symmetry_1
_geom_bond_site_symmetry_2
C1 H1 1_555 1_555
H2 C1 1_555 1_555
C2 C1 1_555 1_555
H3 C2 1_555 1_555
H4 C2 1_555 1_555
C3 C2 1_555 1_555
H5 C3 1_555 1_555
H6 C3 1_555 1_555
C4 C3 1_555 1_555
C5 C4 1_555 1_555
H7 C5 1_555 1_555
C6 C5 1_555 1_555
H8 C6 1_555 1_555
H9 C6 1_555 1_555
C7 C6 1_555 1_555
H10 C7 1_555 1_555
O1 C7 1_555 1_555
H11 O1 1_555 1_555
C8 C7 1_555 1_555
C9 C8 1_555 1_555
H12 C9 1_555 1_555
C10 C1 1_555 1_555
C11 C9 1_555 1_555
H13 C11 1_555 1_555
O2 C11 1_555 1_555
H14 O2 1_555 1_555
C12 C11 1_555 1_555
H15 C12 1_555 1_555
C13 C12 1_555 1_555
C14 C8 1_555 1_555
H16 C14 1_555 1_555
C15 C13 1_555 1_555
C16 C15 1_555 1_555
O3 C12 1_555 1_555
O4 C16 1_555 1_555
C17 C15 1_555 1_555
H17 C17 1_555 1_555
H18 C17 1_555 1_555
H19 C17 1_555 1_555
C18 C4 1_555 1_555
H20 C18 1_555 1_555
H21 C18 1_555 1_555
H22 C18 1_555 1_555
C19 C4 1_555 1_555
H23 C19 1_555 1_555
H24 C19 1_555 1_555
H25 C19 1_555 1_555
C20 C10 1_555 1_555
H26 C20 1_555 1_555
H27 C20 1_555 1_555
H28 C20 1_555 1_555
O5 H29 1_555 1_555
H30 O5 1_555 1_555
C5 C10 1_555 1_555
C9 C10 1_555 1_555
C13 C14 1_555 1_555
C16 O3 1_555 1_555

#END
