
#######################################################################
#
#                 Cambridge Crystallographic Data Centre
#                                CCDC 
#
#######################################################################
#
# If this CIF has been generated from an entry in the Cambridge 
# Structural Database, then it will include bibliographic, chemical, 
# crystal, experimental, refinement or atomic coordinate data resulting 
# from the CCDC's data processing and validation procedures.
#
#######################################################################

data_GACNUV
_chemical_formula_moiety         'C3 N5 O6 1-,C2 H6 N5 1+'
_chemical_name_systematic        
'3,5-diamino-1H-1,2,4-triazol-4-ium 3,4,5-trinitropyrazol-1-ide'
_symmetry_cell_setting           triclinic
_symmetry_space_group_name_H-M   'P -1'
_symmetry_Int_Tables_number      2
_space_group_name_Hall           '-P 1'
loop_
_symmetry_equiv_pos_site_id
_symmetry_equiv_pos_as_xyz
1 x,y,z
2 -x,-y,-z
_cell_length_a                   5.1125(17)
_cell_length_b                   10.676(4)
_cell_length_c                   11.579(4)
_cell_angle_alpha                66.294(5)
_cell_angle_beta                 78.501(5)
_cell_angle_gamma                84.852(5)
_cell_volume                     567.019
_exptl_crystal_colour            orange
_exptl_crystal_description       plate
_cell_formula_units_Z            2
loop_
_atom_site_label
_atom_site_type_symbol
_atom_site_fract_x
_atom_site_fract_y
_atom_site_fract_z
N1 N 1.1315(5) 0.6164(2) 0.3010(2)
H1 H 1.0859 0.7013 0.2775
N2 N 1.3012(5) 0.5522(2) 0.3881(2)
C1 C 1.3135(5) 0.4274(2) 0.3955(2)
N3 N 1.1598(4) 0.41136(19) 0.31696(19)
H2 H 1.1395 0.3372 0.3074
C2 C 1.0489(5) 0.5331(2) 0.2588(2)
N4 N 1.4589(5) 0.3251(2) 0.4660(2)
H3 H 1.5560 0.3395 0.5121
H4 H 1.4552 0.2451 0.4653
N5 N 0.8883(5) 0.5618(2) 0.1737(2)
H5 H 0.8264 0.6435 0.1399
H6 H 0.8464 0.4986 0.1527
N6 N 0.9854(4) 0.2042(2) 0.2642(2)
N7 N 0.8284(5) 0.2793(2) 0.1800(2)
C3 C 0.7285(5) 0.1944(2) 0.1413(2)
C4 C 0.8196(5) 0.0621(2) 0.1987(2)
C5 C 0.9809(5) 0.0754(2) 0.2759(2)
N8 N 0.5525(5) 0.2474(3) 0.0488(2)
O1 O 0.4820(6) 0.3652(3) 0.0175(3)
O2 O 0.4794(5) 0.1692(3) 0.0109(2)
N9 N 0.7692(5) -0.0600(2) 0.1812(2)
O3 O 0.5439(5) -0.1022(3) 0.2128(3)
O4 O 0.9575(4) -0.11453(19) 0.13720(19)
N10 N 1.1181(4) -0.0299(2) 0.36724(18)
O5 O 1.0616(4) -0.14930(18) 0.39379(17)
O6 O 1.2776(4) 0.0048(2) 0.41436(17)
loop_
_geom_bond_atom_site_label_1
_geom_bond_atom_site_label_2
_geom_bond_site_symmetry_1
_geom_bond_site_symmetry_2
N1 H1 1_555 1_555
N2 N1 1_555 1_555
C1 N2 1_555 1_555
N3 C1 1_555 1_555
H2 N3 1_555 1_555
C2 N1 1_555 1_555
N4 C1 1_555 1_555
H3 N4 1_555 1_555
H4 N4 1_555 1_555
N5 C2 1_555 1_555
H5 N5 1_555 1_555
H6 N5 1_555 1_555
N6 N7 1_555 1_555
N7 C3 1_555 1_555
C3 C4 1_555 1_555
C4 C5 1_555 1_555
C5 N6 1_555 1_555
N8 C3 1_555 1_555
O1 N8 1_555 1_555
O2 N8 1_555 1_555
N9 C4 1_555 1_555
O3 N9 1_555 1_555
O4 N9 1_555 1_555
N10 C5 1_555 1_555
O5 N10 1_555 1_555
O6 N10 1_555 1_555
N3 C2 1_555 1_555

#END
