
#######################################################################
#
#                 Cambridge Crystallographic Data Centre
#                                CCDC 
#
#######################################################################
#
# If this CIF has been generated from an entry in the Cambridge 
# Structural Database, then it will include bibliographic, chemical, 
# crystal, experimental, refinement or atomic coordinate data resulting 
# from the CCDC's data processing and validation procedures.
#
#######################################################################

data_GACVAK
_chemical_name_common            
"N-benzyl-N-(2-(N-benzyl-N',N',N'',N''-tetramethylguanidinio)ethyl)-N',N',N'',N''-tetramethylguanidinium  dibromide sesquihydrate"
_chemical_formula_moiety         'C26 H42 N6 2+,1.5(H2 O1),2(Br1 1-)'
_chemical_name_systematic        
"4,7-dibenzyl-N,N,N',N',2,9-hexamethyl-2,4,7,9-tetraazadecane-3,8-diiminium bis(bromide) sesquihydrate"
_symmetry_cell_setting           monoclinic
_symmetry_space_group_name_H-M   'P 21/c'
_symmetry_Int_Tables_number      14
_space_group_name_Hall           '-P 2ybc'
loop_
_symmetry_equiv_pos_site_id
_symmetry_equiv_pos_as_xyz
1 x,y,z
2 -x,1/2+y,1/2-z
3 -x,-y,-z
4 x,1/2-y,1/2+z
_cell_length_a                   12.1957(9)
_cell_length_b                   7.9654(5)
_cell_length_c                   30.4821(18)
_cell_angle_alpha                90
_cell_angle_beta                 97.934(4)
_cell_angle_gamma                90
_cell_volume                     2932.8
_exptl_crystal_colour            colorless
_exptl_crystal_description       block
_cell_formula_units_Z            4
loop_
_atom_site_label
_atom_site_type_symbol
_atom_site_fract_x
_atom_site_fract_y
_atom_site_fract_z
Br1 Br 0.61652(3) 0.32199(15) 0.09074(2)
Br3 Br 0.08222(13) 0.1353(4) 0.08416(14)
C1 C 0.35370(16) 0.7762(3) 0.08670(6)
N1 N 0.36249(14) 0.9429(2) 0.09049(6)
N2 N 0.39307(14) 0.6969(2) 0.05355(6)
N3 N 0.30713(14) 0.6861(2) 0.11675(6)
C2 C 0.37669(19) 1.0285(3) 0.13337(7)
H1 H 0.3928 0.9456 0.1571
H2 H 0.3086 1.0890 0.1371
H3 H 0.4382 1.1084 0.1346
C3 C 0.3532(2) 1.0538(3) 0.05186(7)
H4 H 0.3354 0.9871 0.0248
H5 H 0.4236 1.1123 0.0512
H6 H 0.2944 1.1363 0.0537
C4 C 0.49080(18) 0.7544(3) 0.03505(7)
H7 H 0.5215 0.8537 0.0513
H8 H 0.4700 0.7830 0.0037
H9 H 0.5465 0.6649 0.0377
C5 C 0.34310(18) 0.5430(3) 0.03370(7)
H10 H 0.3905 0.4470 0.0435
H11 H 0.3354 0.5517 0.0013
H12 H 0.2699 0.5271 0.0429
C6 C 0.35329(18) 0.5204(3) 0.13192(7)
H13 H 0.4244 0.5016 0.1205
H14 H 0.3014 0.4302 0.1203
C7 C 0.37139(17) 0.5150(3) 0.18194(7)
C8 C 0.30142(17) 0.4218(3) 0.20481(7)
H15 H 0.2453 0.3543 0.1888
C9 C 0.31251(18) 0.4262(3) 0.25082(7)
H16 H 0.2646 0.3613 0.2661
C10 C 0.39372(18) 0.5255(3) 0.27427(7)
H17 H 0.4000 0.5316 0.3056
C11 C 0.46563(19) 0.6157(3) 0.25182(8)
H18 H 0.5224 0.6818 0.2678
C12 C 0.45473(18) 0.6095(3) 0.20599(7)
H19 H 0.5049 0.6706 0.1908
C13 C 0.20801(17) 0.7456(3) 0.13420(7)
H20 H 0.1928 0.8635 0.1251
H21 H 0.2204 0.7414 0.1670
C14 C 0.10851(17) 0.6355(3) 0.11665(7)
H22 H 0.0905 0.6512 0.0842
H23 H 0.1278 0.5160 0.1223
C15 C -0.08422(18) 0.7306(3) 0.11457(7)
N4 N 0.01152(14) 0.6780(2) 0.13802(5)
N5 N -0.11477(16) 0.6733(3) 0.07340(6)
N6 N -0.15023(15) 0.8373(3) 0.13257(6)
C16 C 0.02466(18) 0.6553(3) 0.18648(7)
H24 H 0.0436 0.7656 0.2005
H25 H 0.0886 0.5799 0.1950
C17 C -0.07320(17) 0.5853(3) 0.20581(7)
C18 C -0.08041(18) 0.6212(3) 0.24996(7)
H26 H -0.0277 0.6943 0.2659
C19 C -0.16346(18) 0.5518(3) 0.27109(7)
H27 H -0.1663 0.5751 0.3015
C20 C -0.24237(19) 0.4481(3) 0.24770(7)
H28 H -0.3000 0.4016 0.2619
C21 C -0.23666(19) 0.4129(3) 0.20374(8)
H29 H -0.2910 0.3428 0.1876
C22 C -0.15173(19) 0.4794(3) 0.18294(7)
H30 H -0.1474 0.4523 0.1529
C23 C -0.0885(2) 0.5048(4) 0.05929(9)
H31 H -0.0523 0.4414 0.0848
H32 H -0.0386 0.5123 0.0368
H33 H -0.1568 0.4475 0.0468
C24 C -0.1789(2) 0.7764(5) 0.03946(8)
H34 H -0.2551 0.7347 0.0340
H35 H -0.1456 0.7705 0.0120
H36 H -0.1789 0.8931 0.0496
C25 C -0.27108(18) 0.8224(3) 0.12385(8)
H37 H -0.2910 0.7196 0.1069
H38 H -0.3018 0.9199 0.1068
H39 H -0.3012 0.8176 0.1520
C26 C -0.10728(19) 0.9705(3) 0.16283(8)
H40 H -0.1106 0.9350 0.1934
H41 H -0.1520 1.0720 0.1564
H42 H -0.0303 0.9943 0.1591
O1 O 0.1101(2) 0.8214(4) 0.02327(11)
H43 H 0.103(4) 0.843(5) -0.0055(4)
H44 H 0.088(3) 0.916(3) 0.0345(12)
O2 O 0.8250(3) 0.1418(5) 0.05550(12)
Br2? Br 0.6107(5) 0.3919(18) 0.0962(2)
Br4? Br 0.08977(8) 0.1763(3) 0.10105(14)
H45? H 0.773(3) 0.198(7) 0.0678(15)
H46? H 0.885(2) 0.150(7) 0.0762(13)
loop_
_geom_bond_atom_site_label_1
_geom_bond_atom_site_label_2
_geom_bond_site_symmetry_1
_geom_bond_site_symmetry_2
C1 N1 1_555 1_555
N1 C2 1_555 1_555
N2 C1 1_555 1_555
N3 C1 1_555 1_555
C2 H1 1_555 1_555
H2 C2 1_555 1_555
H3 C2 1_555 1_555
C3 N1 1_555 1_555
H4 C3 1_555 1_555
H5 C3 1_555 1_555
H6 C3 1_555 1_555
C4 N2 1_555 1_555
H7 C4 1_555 1_555
H8 C4 1_555 1_555
H9 C4 1_555 1_555
C5 N2 1_555 1_555
H10 C5 1_555 1_555
H11 C5 1_555 1_555
H12 C5 1_555 1_555
C6 N3 1_555 1_555
H13 C6 1_555 1_555
H14 C6 1_555 1_555
C7 C6 1_555 1_555
C8 C7 1_555 1_555
H15 C8 1_555 1_555
C9 C8 1_555 1_555
H16 C9 1_555 1_555
C10 C9 1_555 1_555
H17 C10 1_555 1_555
C11 C10 1_555 1_555
H18 C11 1_555 1_555
C12 C7 1_555 1_555
H19 C12 1_555 1_555
C13 N3 1_555 1_555
H20 C13 1_555 1_555
H21 C13 1_555 1_555
C14 C13 1_555 1_555
H22 C14 1_555 1_555
H23 C14 1_555 1_555
C15 N4 1_555 1_555
N4 C14 1_555 1_555
N5 C15 1_555 1_555
N6 C15 1_555 1_555
C16 N4 1_555 1_555
H24 C16 1_555 1_555
H25 C16 1_555 1_555
C17 C16 1_555 1_555
C18 C17 1_555 1_555
H26 C18 1_555 1_555
C19 C18 1_555 1_555
H27 C19 1_555 1_555
C20 C19 1_555 1_555
H28 C20 1_555 1_555
C21 C20 1_555 1_555
H29 C21 1_555 1_555
C22 C17 1_555 1_555
H30 C22 1_555 1_555
C23 N5 1_555 1_555
H31 C23 1_555 1_555
H32 C23 1_555 1_555
H33 C23 1_555 1_555
C24 N5 1_555 1_555
H34 C24 1_555 1_555
H35 C24 1_555 1_555
H36 C24 1_555 1_555
C25 N6 1_555 1_555
H37 C25 1_555 1_555
H38 C25 1_555 1_555
H39 C25 1_555 1_555
C26 N6 1_555 1_555
H40 C26 1_555 1_555
H41 C26 1_555 1_555
H42 C26 1_555 1_555
O1 H43 1_555 1_555
H44 O1 1_555 1_555
C11 C12 1_555 1_555
C21 C22 1_555 1_555

#END
