
#######################################################################
#
#                 Cambridge Crystallographic Data Centre
#                                CCDC 
#
#######################################################################
#
# If this CIF has been generated from an entry in the Cambridge 
# Structural Database, then it will include bibliographic, chemical, 
# crystal, experimental, refinement or atomic coordinate data resulting 
# from the CCDC's data processing and validation procedures.
#
#######################################################################

data_GACXOA
_chemical_formula_moiety         'C24 H20 B1 1-,C10 H20 N3 O2 1+'
_chemical_name_systematic        
'2-(Dimethylamino)-1-(2-ethoxy-2-oxoethyl)-3-methyl-4,5-dihydro-1H-imidazol-3-ium tetraphenylborate'
_symmetry_cell_setting           monoclinic
_symmetry_space_group_name_H-M   'P 21/c'
_symmetry_Int_Tables_number      14
_space_group_name_Hall           '-P 2ybc'
loop_
_symmetry_equiv_pos_site_id
_symmetry_equiv_pos_as_xyz
1 x,y,z
2 -x,1/2+y,1/2-z
3 -x,-y,-z
4 x,1/2-y,1/2+z
_cell_length_a                   14.3033(6)
_cell_length_b                   10.3598(4)
_cell_length_c                   20.2825(9)
_cell_angle_alpha                90
_cell_angle_beta                 105.468(2)
_cell_angle_gamma                90
_cell_volume                     2896.59
_exptl_crystal_colour            colorless
_exptl_crystal_description       block
_cell_formula_units_Z            4
loop_
_atom_site_label
_atom_site_type_symbol
_atom_site_fract_x
_atom_site_fract_y
_atom_site_fract_z
N1 N 0.15751(13) 0.85761(17) 0.14856(9)
N2 N 0.22801(13) 0.67062(17) 0.11579(9)
N3 N 0.25859(13) 0.74356(18) 0.22959(9)
C1 C 0.21433(14) 0.7544(2) 0.16263(10)
C2 C 0.32486(16) 0.6191(2) 0.11954(12)
H1 H 0.3723 0.6579 0.1585
H2 H 0.3424 0.6398 0.0772
H3 H 0.3246 0.5252 0.1254
C3 C 0.15055(17) 0.6305(2) 0.05694(11)
H4 H 0.0883 0.6628 0.0618
H5 H 0.1486 0.5360 0.0543
H6 H 0.1626 0.6656 0.0151
C4 C 0.12980(18) 0.9223(2) 0.08231(11)
H7 H 0.1623 0.8807 0.0511
H8 H 0.1491 1.0133 0.0881
H9 H 0.0594 0.9165 0.0632
C5 C 0.16176(18) 0.9309(2) 0.21168(11)
H10 H 0.0965 0.9391 0.2194
H11 H 0.1889 1.0182 0.2096
C6 C 0.22867(16) 0.8499(2) 0.26790(11)
H12 H 0.2854 0.9008 0.2934
H13 H 0.1937 0.8167 0.3004
C7 C 0.29159(16) 0.6205(2) 0.26243(11)
H14 H 0.2727 0.5503 0.2284
H15 H 0.2593 0.6047 0.2992
C8 C 0.40090(18) 0.6179(2) 0.29273(14)
O1 O 0.45299(12) 0.70977(17) 0.30205(9)
O2 O 0.42497(19) 0.5050(3) 0.3209(3)
C9 C 0.5210(4) 0.4881(5) 0.3677(2)
H16 H 0.5192 0.4163 0.3996
H17 H 0.5397 0.5676 0.3951
C10 C 0.5954(5) 0.4591(4) 0.3294(3)
H18 H 0.5733 0.3863 0.2984
H19 H 0.6573 0.4372 0.3620
H20 H 0.6041 0.5352 0.3029
B1 B 0.22231(17) 0.2365(2) -0.06717(11)
C13 C 0.12514(14) 0.2878(2) -0.12493(10)
C14 C 0.09364(15) 0.2303(2) -0.18964(10)
H26 H 0.1254 0.1542 -0.1984
C15 C 0.01801(15) 0.2796(2) -0.24152(10)
H27 H -0.0010 0.2373 -0.2846
C16 C -0.02973(15) 0.3908(2) -0.23034(11)
H28 H -0.0817 0.4248 -0.2654
C17 C -0.00054(16) 0.4511(2) -0.16742(11)
H29 H -0.0328 0.5270 -0.1590
C18 C 0.07592(16) 0.4010(2) -0.11641(11)
H30 H 0.0957 0.4454 -0.0740
C19 C 0.23750(15) 0.0801(2) -0.07090(10)
C20 C 0.32987(17) 0.0230(2) -0.05127(12)
H31 H 0.3852 0.0777 -0.0395
C21 C 0.34389(18) -0.1098(2) -0.04832(12)
H32 H 0.4078 -0.1438 -0.0346
C22 C 0.26550(17) -0.1927(2) -0.06516(11)
H33 H 0.2748 -0.2835 -0.0634
C23 C 0.17262(16) -0.1403(2) -0.08472(10)
H34 H 0.1178 -0.1958 -0.0964
C24 C 0.15955(16) -0.0067(2) -0.08722(10)
H35 H 0.0954 0.0267 -0.1005
C25 C 0.31026(14) 0.3182(2) -0.08575(10)
C26 C 0.34530(15) 0.4359(2) -0.05523(11)
H36 H 0.3225 0.4660 -0.0181
C27 C 0.41212(16) 0.5108(2) -0.07703(11)
H37 H 0.4346 0.5897 -0.0544
C28 C 0.44602(16) 0.4705(2) -0.13184(12)
H38 H 0.4909 0.5218 -0.1474
C29 C 0.41315(16) 0.3543(2) -0.16324(12)
H39 H 0.4361 0.3251 -0.2005
C30 C 0.34649(15) 0.2798(2) -0.14064(11)
H40 H 0.3249 0.2005 -0.1631
C31 C 0.21625(15) 0.25991(19) 0.01178(10)
C32 C 0.29935(16) 0.2660(2) 0.06704(11)
H41 H 0.3611 0.2650 0.0578
C33 C 0.29566(17) 0.2735(2) 0.13480(11)
H42 H 0.3541 0.2776 0.1706
C34 C 0.20657(18) 0.2749(2) 0.15029(11)
H43 H 0.2035 0.2805 0.1964
C35 C 0.12275(17) 0.2679(2) 0.09746(11)
H44 H 0.0614 0.2684 0.1072
C36 C 0.12770(15) 0.2601(2) 0.02969(11)
H45 H 0.0690 0.2547 -0.0057
O3? O 0.4324(3) 0.4853(4) 0.2830(4)
C11? C 0.5365(7) 0.4603(6) 0.3073(4)
H21? H 0.5727 0.5331 0.2943
H22? H 0.5526 0.3810 0.2854
C12? C 0.5659(7) 0.4445(8) 0.3820(4)
H23? H 0.5509 0.5236 0.4037
H24? H 0.6357 0.4276 0.3973
H25? H 0.5305 0.3718 0.3948
loop_
_geom_bond_atom_site_label_1
_geom_bond_atom_site_label_2
_geom_bond_site_symmetry_1
_geom_bond_site_symmetry_2
N1 C1 1_555 1_555
N2 C1 1_555 1_555
N3 C1 1_555 1_555
C2 N2 1_555 1_555
H1 C2 1_555 1_555
H2 C2 1_555 1_555
H3 C2 1_555 1_555
C3 N2 1_555 1_555
H4 C3 1_555 1_555
H5 C3 1_555 1_555
H6 C3 1_555 1_555
C4 N1 1_555 1_555
H7 C4 1_555 1_555
H8 C4 1_555 1_555
H9 C4 1_555 1_555
C5 N1 1_555 1_555
H10 C5 1_555 1_555
H11 C5 1_555 1_555
C6 N3 1_555 1_555
H12 C6 1_555 1_555
H13 C6 1_555 1_555
C7 N3 1_555 1_555
H14 C7 1_555 1_555
H15 C7 1_555 1_555
C8 C7 1_555 1_555
O1 C8 1_555 1_555
O2 C8 1_555 1_555
C9 O2 1_555 1_555
H16 C9 1_555 1_555
H17 C9 1_555 1_555
C10 C9 1_555 1_555
H18 C10 1_555 1_555
H19 C10 1_555 1_555
H20 C10 1_555 1_555
B1 C13 1_555 1_555
C13 C14 1_555 1_555
C14 H26 1_555 1_555
C15 C14 1_555 1_555
H27 C15 1_555 1_555
C16 C15 1_555 1_555
H28 C16 1_555 1_555
C17 C16 1_555 1_555
H29 C17 1_555 1_555
C18 C13 1_555 1_555
H30 C18 1_555 1_555
C19 B1 1_555 1_555
C20 C19 1_555 1_555
H31 C20 1_555 1_555
C21 C20 1_555 1_555
H32 C21 1_555 1_555
C22 C21 1_555 1_555
H33 C22 1_555 1_555
C23 C22 1_555 1_555
H34 C23 1_555 1_555
C24 C19 1_555 1_555
H35 C24 1_555 1_555
C25 B1 1_555 1_555
C26 C25 1_555 1_555
H36 C26 1_555 1_555
C27 C26 1_555 1_555
H37 C27 1_555 1_555
C28 C27 1_555 1_555
H38 C28 1_555 1_555
C29 C28 1_555 1_555
H39 C29 1_555 1_555
C30 C25 1_555 1_555
H40 C30 1_555 1_555
C31 B1 1_555 1_555
C32 C31 1_555 1_555
H41 C32 1_555 1_555
C33 C32 1_555 1_555
H42 C33 1_555 1_555
C34 C33 1_555 1_555
H43 C34 1_555 1_555
C35 C34 1_555 1_555
H44 C35 1_555 1_555
C36 C31 1_555 1_555
H45 C36 1_555 1_555
C5 C6 1_555 1_555
C17 C18 1_555 1_555
C23 C24 1_555 1_555
C29 C30 1_555 1_555
C35 C36 1_555 1_555

#END
