
#######################################################################
#
#                 Cambridge Crystallographic Data Centre
#                                CCDC 
#
#######################################################################
#
# If this CIF has been generated from an entry in the Cambridge 
# Structural Database, then it will include bibliographic, chemical, 
# crystal, experimental, refinement or atomic coordinate data resulting 
# from the CCDC's data processing and validation procedures.
#
#######################################################################

data_GACXEP
_chemical_formula_moiety         'C32 H25 N1 O4'
_chemical_name_systematic        
2-(4,5-bis(2-methoxyphenyl)-5H-chromeno[4,3-b]pyridin-2-yl)phenol
_symmetry_cell_setting           monoclinic
_symmetry_space_group_name_H-M   'P 21/n'
_symmetry_Int_Tables_number      14
_space_group_name_Hall           '-P 2yn'
loop_
_symmetry_equiv_pos_site_id
_symmetry_equiv_pos_as_xyz
1 x,y,z
2 1/2-x,1/2+y,1/2-z
3 -x,-y,-z
4 1/2+x,1/2-y,1/2+z
_cell_length_a                   10.382(6)
_cell_length_b                   15.694(9)
_cell_length_c                   14.987(8)
_cell_angle_alpha                90
_cell_angle_beta                 99.233(8)
_cell_angle_gamma                90
_cell_volume                     2410.27
_cell_formula_units_Z            4
loop_
_atom_site_label
_atom_site_type_symbol
_atom_site_fract_x
_atom_site_fract_y
_atom_site_fract_z
N1 N 0.4477(4) 0.0965(2) 0.4487(2)
O1 O 0.6151(3) -0.0157(2) 0.24351(18)
O2 O 0.4815(3) 0.18940(19) 0.5885(2)
H1 H 0.4980 0.1672 0.5421
O3 O 0.3890(3) -0.1068(3) 0.0775(2)
O4 O 0.1052(3) 0.0512(3) 0.2052(2)
C1 C 0.4961(5) 0.0631(3) 0.3771(3)
C2 C 0.4210(5) 0.0102(3) 0.3160(3)
C3 C 0.2956(5) -0.0129(3) 0.3298(3)
C4 C 0.2491(4) 0.0217(3) 0.4030(3)
H2 H 0.1655 0.0081 0.4131
C5 C 0.3262(5) 0.0772(3) 0.4622(3)
C6 C 0.6254(5) 0.0864(3) 0.3642(3)
C7 C 0.6805(5) 0.0453(3) 0.2979(3)
C8 C 0.8077(5) 0.0600(3) 0.2849(3)
H3 H 0.8409 0.0316 0.2390
C9 C 0.8851(5) 0.1166(3) 0.3396(3)
H4 H 0.9710 0.1257 0.3317
C10 C 0.8347(5) 0.1592(3) 0.4057(3)
H5 H 0.8858 0.1983 0.4423
C11 C 0.7055(5) 0.1438(3) 0.4181(3)
H6 H 0.6724 0.1728 0.4636
C12 C 0.2793(5) 0.1179(3) 0.5390(3)
C13 C 0.3574(5) 0.1705(3) 0.5985(3)
C14 C 0.3140(5) 0.2091(3) 0.6711(3)
H7 H 0.3690 0.2448 0.7094
C15 C 0.1900(6) 0.1944(3) 0.6859(4)
H8 H 0.1609 0.2193 0.7353
C16 C 0.1067(6) 0.1426(3) 0.6282(4)
H9 H 0.0215 0.1339 0.6379
C17 C 0.1513(5) 0.1040(3) 0.5562(3)
H10 H 0.0959 0.0682 0.5183
C18 C 0.4759(5) -0.0216(3) 0.2339(3)
H11 H 0.4531 -0.0820 0.2264
C19 C 0.4169(5) 0.0228(3) 0.1487(4)
C20 C 0.3743(5) -0.0210(4) 0.0700(4)
C21 C 0.3240(5) 0.0216(5) -0.0097(4)
H12 H 0.2972 -0.0089 -0.0626
C22 C 0.3145(6) 0.1075(5) -0.0094(4)
H13 H 0.2817 0.1362 -0.0624
C23 C 0.3527(5) 0.1521(4) 0.0682(4)
H14 H 0.3443 0.2111 0.0682
C24 C 0.4038(5) 0.1105(4) 0.1467(3)
H15 H 0.4299 0.1417 0.1992
C25 C 0.3309(5) -0.1578(3) 0.0014(3)
H16 H 0.2380 -0.1499 -0.0085
H17 H 0.3507 -0.2168 0.0137
H18 H 0.3654 -0.1406 -0.0515
C26 C 0.2156(5) -0.0702(4) 0.2661(3)
C27 C 0.1215(6) -0.0354(4) 0.2033(4)
C28 C 0.0416(6) -0.0856(5) 0.1381(4)
H19 H -0.0242 -0.0611 0.0967
C29 C 0.0646(7) -0.1720(5) 0.1380(5)
H20 H 0.0155 -0.2068 0.0952
C30 C 0.1609(7) -0.2065(4) 0.2021(4)
H21 H 0.1744 -0.2651 0.2020
C31 C 0.2375(6) -0.1580(4) 0.2656(4)
H22 H 0.3024 -0.1829 0.3075
C32 C 0.0394(5) 0.0934(3) 0.1258(3)
H23 H 0.0746 0.0742 0.0739
H24 H 0.0516 0.1539 0.1324
H25 H -0.0521 0.0805 0.1180
loop_
_geom_bond_atom_site_label_1
_geom_bond_atom_site_label_2
_geom_bond_site_symmetry_1
_geom_bond_site_symmetry_2
N1 C1 1_555 1_555
O1 C7 1_555 1_555
O2 H1 1_555 1_555
O3 C20 1_555 1_555
O4 C27 1_555 1_555
C1 C2 1_555 1_555
C2 C3 1_555 1_555
C3 C4 1_555 1_555
C4 H2 1_555 1_555
C5 N1 1_555 1_555
C6 C1 1_555 1_555
C7 C6 1_555 1_555
C8 C7 1_555 1_555
H3 C8 1_555 1_555
C9 C8 1_555 1_555
H4 C9 1_555 1_555
C10 C9 1_555 1_555
H5 C10 1_555 1_555
C11 C6 1_555 1_555
H6 C11 1_555 1_555
C12 C5 1_555 1_555
C13 O2 1_555 1_555
C14 C13 1_555 1_555
H7 C14 1_555 1_555
C15 C14 1_555 1_555
H8 C15 1_555 1_555
C16 C15 1_555 1_555
H9 C16 1_555 1_555
C17 C12 1_555 1_555
H10 C17 1_555 1_555
C18 O1 1_555 1_555
H11 C18 1_555 1_555
C19 C18 1_555 1_555
C20 C19 1_555 1_555
C21 C20 1_555 1_555
H12 C21 1_555 1_555
C22 C21 1_555 1_555
H13 C22 1_555 1_555
C23 C22 1_555 1_555
H14 C23 1_555 1_555
C24 C19 1_555 1_555
H15 C24 1_555 1_555
C25 O3 1_555 1_555
H16 C25 1_555 1_555
H17 C25 1_555 1_555
H18 C25 1_555 1_555
C26 C3 1_555 1_555
C27 C26 1_555 1_555
C28 C27 1_555 1_555
H19 C28 1_555 1_555
C29 C28 1_555 1_555
H20 C29 1_555 1_555
C30 C29 1_555 1_555
H21 C30 1_555 1_555
C31 C26 1_555 1_555
H22 C31 1_555 1_555
C32 O4 1_555 1_555
H23 C32 1_555 1_555
H24 C32 1_555 1_555
H25 C32 1_555 1_555
C2 C18 1_555 1_555
C4 C5 1_555 1_555
C10 C11 1_555 1_555
C12 C13 1_555 1_555
C16 C17 1_555 1_555
C23 C24 1_555 1_555
C30 C31 1_555 1_555

#END
