
#######################################################################
#
#                 Cambridge Crystallographic Data Centre
#                                CCDC 
#
#######################################################################
#
# If this CIF has been generated from an entry in the Cambridge 
# Structural Database, then it will include bibliographic, chemical, 
# crystal, experimental, refinement or atomic coordinate data resulting 
# from the CCDC's data processing and validation procedures.
#
#######################################################################

data_GACYEP01
_chemical_formula_moiety         'C12 H20 N1 O3 1+,C20 H17 O8 1-'
_chemical_name_systematic        
'(S)-\a-(((1,1-Dimethylethyl)ammonio)methyl)-(3,5-dihydroxyphenyl)methanol (2S,3S)-di-O-toluoyl tartrate'
_symmetry_cell_setting           monoclinic
_symmetry_space_group_name_H-M   'P 21'
_symmetry_Int_Tables_number      4
_space_group_name_Hall           'P 2yb'
loop_
_symmetry_equiv_pos_site_id
_symmetry_equiv_pos_as_xyz
1 x,y,z
2 -x,1/2+y,-z
_cell_length_a                   7.512(1)
_cell_length_b                   18.733(4)
_cell_length_c                   11.599(2)
_cell_angle_alpha                90
_cell_angle_beta                 103.10(1)
_cell_angle_gamma                90
_cell_volume                     1589.76
_exptl_crystal_colour            colorless
_exptl_crystal_description       plate
_chemical_melting_point          193.0-195.0deg.C
_cell_formula_units_Z            2
_exptl_crystal_recrystallization_method methanol/acetone
loop_
_atom_site_label
_atom_site_type_symbol
_atom_site_fract_x
_atom_site_fract_y
_atom_site_fract_z
O1 O 0.9890(4) 0.5211(2) 1.1713(2)
H1 H 0.9320 0.5179 1.2236
O2 O 0.3856(4) 0.5135(3) 0.9367(3)
H2 H 0.3294 0.5056 0.8687
O3 O 1.0733(5) 0.47917(19) 0.7571(3)
H3 H 1.0941 0.4711 0.6920
N1 N 0.9945(4) 0.60469(18) 0.6011(3)
H4 H 0.8898 0.6050 0.5450
H5 H 1.0585 0.5661 0.5880
C1 C 0.9428(5) 0.5183(2) 0.9640(3)
H6 H 1.0687 0.5205 0.9724
C2 C 0.8708(5) 0.5189(2) 1.0642(3)
C3 C 0.6828(5) 0.5168(2) 1.0520(3)
H7 H 0.6337 0.5170 1.1187
C4 C 0.5700(5) 0.5143(2) 0.9414(4)
C5 C 0.6414(5) 0.5130(2) 0.8410(4)
H8 H 0.5639 0.5112 0.7662
C6 C 0.8315(5) 0.5143(2) 0.8535(3)
C7 C 0.9088(5) 0.5181(3) 0.7430(3)
H9 H 0.8189 0.4987 0.6756
C8 C 0.9463(6) 0.5952(2) 0.7184(4)
H10 H 0.8389 0.6236 0.7202
H11 H 1.0461 0.6127 0.7804
C9 C 1.1034(5) 0.6707(2) 0.5836(3)
C10 C 1.1029(7) 0.6707(3) 0.4530(4)
H12 H 1.1478 0.6257 0.4320
H13 H 1.1801 0.7084 0.4366
H14 H 0.9805 0.6780 0.4076
C11 C 1.0111(7) 0.7368(3) 0.6175(5)
H15 H 0.8889 0.7398 0.5698
H16 H 1.0788 0.7783 0.6046
H17 H 1.0072 0.7341 0.6995
C12 C 1.2961(6) 0.6618(3) 0.6573(4)
H18 H 1.2959 0.6667 0.7397
H19 H 1.3737 0.6977 0.6355
H20 H 1.3411 0.6154 0.6435
O4 O 0.3901(3) 0.40872(13) 0.3173(2)
O5 O 0.4207(4) 0.29761(15) 0.3897(3)
O6 O 0.2446(4) 0.49145(16) 0.5551(3)
O7 O 0.1119(4) 0.41313(17) 0.4182(3)
H21 H 0.0190 0.4252 0.4390
O8 O 0.7860(4) 0.52235(18) 0.3443(3)
O9 O 0.8167(4) 0.43401(17) 0.4747(3)
O10 O 0.4505(3) 0.55415(14) 0.3615(2)
O11 O 0.6281(4) 0.63806(15) 0.4693(2)
C13 C 0.1228(8) 0.2364(4) -0.1725(5)
H22 H 0.2204 0.2123 -0.1975
H23 H 0.0807 0.2757 -0.2248
H24 H 0.0239 0.2037 -0.1743
C14 C 0.1907(6) 0.2640(3) -0.0486(4)
C15 C 0.1977(7) 0.3367(3) -0.0248(4)
H25 H 0.1608 0.3689 -0.0866
C16 C 0.2588(6) 0.3621(3) 0.0897(4)
H26 H 0.2622 0.4109 0.1048
C17 C 0.3148(5) 0.3138(2) 0.1817(3)
C18 C 0.3073(6) 0.2416(2) 0.1574(4)
H27 H 0.3434 0.2090 0.2188
C19 C 0.2467(6) 0.2171(3) 0.0429(4)
H28 H 0.2439 0.1683 0.0279
C20 C 0.3810(5) 0.3372(2) 0.3062(3)
C21 C 0.4247(5) 0.4365(2) 0.4353(3)
H29 H 0.4938 0.4003 0.4882
C22 C 0.2462(5) 0.4495(2) 0.4741(3)
C23 C 0.5442(4) 0.5014(2) 0.4419(3)
H30 H 0.5654 0.5208 0.5223
C24 C 0.7294(5) 0.4849(2) 0.4146(3)
C25 C 0.5193(5) 0.6211(2) 0.3797(4)
C26 C 0.4458(5) 0.6695(2) 0.2798(4)
C27 C 0.4725(7) 0.7430(2) 0.2965(4)
H31 H 0.5289 0.7607 0.3707
C28 C 0.4146(8) 0.7895(3) 0.2021(5)
H32 H 0.4320 0.8384 0.2136
C29 C 0.3320(7) 0.7641(3) 0.0917(5)
C30 C 0.3019(7) 0.6906(3) 0.0770(4)
H33 H 0.2429 0.6730 0.0033
C31 C 0.3580(6) 0.6440(2) 0.1697(4)
H34 H 0.3368 0.5953 0.1584
C32 C 0.2726(9) 0.8146(4) -0.0133(6)
H35 H 0.3166 0.8619 0.0092
H36 H 0.1416 0.8153 -0.0372
H37 H 0.3223 0.7985 -0.0781
loop_
_geom_bond_atom_site_label_1
_geom_bond_atom_site_label_2
_geom_bond_site_symmetry_1
_geom_bond_site_symmetry_2
O1 H1 1_555 1_555
O2 H2 1_555 1_555
O3 H3 1_555 1_555
N1 H4 1_555 1_555
H5 N1 1_555 1_555
C1 H6 1_555 1_555
C2 O1 1_555 1_555
C3 C2 1_555 1_555
H7 C3 1_555 1_555
C4 O2 1_555 1_555
C5 C4 1_555 1_555
H8 C5 1_555 1_555
C6 C1 1_555 1_555
C7 O3 1_555 1_555
H9 C7 1_555 1_555
C8 N1 1_555 1_555
H10 C8 1_555 1_555
H11 C8 1_555 1_555
C9 N1 1_555 1_555
C10 C9 1_555 1_555
H12 C10 1_555 1_555
H13 C10 1_555 1_555
H14 C10 1_555 1_555
C11 C9 1_555 1_555
H15 C11 1_555 1_555
H16 C11 1_555 1_555
H17 C11 1_555 1_555
C12 C9 1_555 1_555
H18 C12 1_555 1_555
H19 C12 1_555 1_555
H20 C12 1_555 1_555
O4 C20 1_555 1_555
O5 C20 1_555 1_555
O6 C22 1_555 1_555
O7 H21 1_555 1_555
O8 C24 1_555 1_555
O9 C24 1_555 1_555
O10 C23 1_555 1_555
O11 C25 1_555 1_555
C13 H22 1_555 1_555
H23 C13 1_555 1_555
H24 C13 1_555 1_555
C14 C13 1_555 1_555
C15 C14 1_555 1_555
H25 C15 1_555 1_555
C16 C15 1_555 1_555
H26 C16 1_555 1_555
C17 C16 1_555 1_555
C18 C17 1_555 1_555
H27 C18 1_555 1_555
C19 C14 1_555 1_555
H28 C19 1_555 1_555
C20 C17 1_555 1_555
C21 O4 1_555 1_555
H29 C21 1_555 1_555
C22 O7 1_555 1_555
C23 C21 1_555 1_555
H30 C23 1_555 1_555
C24 C23 1_555 1_555
C25 O10 1_555 1_555
C26 C25 1_555 1_555
C27 C26 1_555 1_555
H31 C27 1_555 1_555
C28 C27 1_555 1_555
H32 C28 1_555 1_555
C29 C28 1_555 1_555
C30 C29 1_555 1_555
H33 C30 1_555 1_555
C31 C26 1_555 1_555
H34 C31 1_555 1_555
C32 C29 1_555 1_555
H35 C32 1_555 1_555
H36 C32 1_555 1_555
H37 C32 1_555 1_555
C1 C2 1_555 1_555
C3 C4 1_555 1_555
C5 C6 1_555 1_555
C6 C7 1_555 1_555
C7 C8 1_555 1_555
C18 C19 1_555 1_555
C21 C22 1_555 1_555
C30 C31 1_555 1_555

#END
