
#######################################################################
#
#                 Cambridge Crystallographic Data Centre
#                                CCDC 
#
#######################################################################
#
# If this CIF has been generated from an entry in the Cambridge 
# Structural Database, then it will include bibliographic, chemical, 
# crystal, experimental, refinement or atomic coordinate data resulting 
# from the CCDC's data processing and validation procedures.
#
#######################################################################

data_GACYUG
_chemical_formula_moiety         
'C24 H12 O16 S8 4-,2(C12 H12 N2 2+),4.25(H2 O1)'
_chemical_name_systematic        
"5,11,17,23-tetrasulfonato-25,26,27,28-tetrahydroxy-2,8,14,20-tetrathiacalix(4)arene bis(6,7-dihydrodipyrido(1,2-a:2',1'-c)pyrazinedi-ium) hydrate"
_symmetry_cell_setting           monoclinic
_symmetry_space_group_name_H-M   'P 21/n'
_symmetry_Int_Tables_number      14
_space_group_name_Hall           '-P 2yn'
loop_
_symmetry_equiv_pos_site_id
_symmetry_equiv_pos_as_xyz
1 x,y,z
2 1/2-x,1/2+y,1/2-z
3 -x,-y,-z
4 1/2+x,1/2-y,1/2+z
_cell_length_a                   12.6727(5)
_cell_length_b                   30.0947(13)
_cell_length_c                   13.5037(6)
_cell_angle_alpha                90
_cell_angle_beta                 96.832(3)
_cell_angle_gamma                90
_cell_volume                     5113.49
_exptl_crystal_colour            yellow
_exptl_crystal_description       block
_cell_formula_units_Z            4
loop_
_atom_site_label
_atom_site_type_symbol
_atom_site_fract_x
_atom_site_fract_y
_atom_site_fract_z
S1 S 0.61058(4) 0.741536(18) 0.77579(4)
S2 S 0.37276(4) 0.735146(18) 0.40535(4)
S3 S 0.73970(4) 0.726046(18) 0.22028(4)
S4 S 0.97918(4) 0.739401(18) 0.58900(4)
S5 S 0.84966(5) 0.591113(19) 0.77982(5)
S6 S 0.24380(4) 0.643255(17) 0.72061(4)
S7 S 0.51418(5) 0.574699(18) 0.27547(5)
S8 S 1.10539(5) 0.627519(18) 0.30242(4)
O1 O 0.78015(12) 0.77935(5) 0.65553(12)
H1 H 0.7236 0.7889 0.6745
O2 O 0.55874(13) 0.76037(5) 0.55896(12)
H2 H 0.5383 0.7676 0.4997
O3 O 0.56740(13) 0.76891(5) 0.33561(12)
H3 H 0.6160 0.7794 0.3053
O4 O 0.80294(14) 0.76002(6) 0.43139(12)
H4 H 0.7755 0.7740 0.3810
O5 O 0.9013(6) 0.5919(2) 0.8770(4)
O6 O 0.7364(3) 0.57485(17) 0.7746(5)
O7 O 0.9020(7) 0.5692(4) 0.7044(7)
O8 O 0.15627(13) 0.63816(6) 0.64240(12)
O9 O 0.29418(14) 0.60149(5) 0.75518(12)
O10 O 0.21658(13) 0.66952(5) 0.80598(12)
O11 O 0.6231(3) 0.5573(2) 0.2977(4)
O12 O 0.4504(3) 0.56196(10) 0.3558(4)
O13 O 0.4678(4) 0.56487(14) 0.1767(3)
O14 O 1.19389(13) 0.62677(6) 0.38126(14)
O15 O 1.05165(14) 0.58440(5) 0.28981(13)
O16 O 1.13104(16) 0.64585(6) 0.20836(14)
C1 C 0.79263(17) 0.73598(7) 0.68053(15)
C2 C 0.88284(17) 0.71280(7) 0.65567(15)
C3 C 0.90131(18) 0.66902(7) 0.68655(16)
H5 H 0.9634 0.6541 0.6714
C4 C 0.82888(18) 0.64702(7) 0.73973(17)
C5 C 0.73912(18) 0.66923(7) 0.76277(16)
H6 H 0.6898 0.6542 0.7988
C6 C 0.72041(17) 0.71305(7) 0.73397(15)
C7 C 0.48621(17) 0.73287(7) 0.59253(16)
C8 C 0.50284(17) 0.71944(7) 0.69346(16)
C9 C 0.43082(17) 0.69077(7) 0.73028(16)
H7 H 0.4422 0.6816 0.7981
C10 C 0.34186(17) 0.67521(7) 0.66885(16)
C11 C 0.32633(17) 0.68724(7) 0.56828(16)
H8 H 0.2675 0.6758 0.5258
C12 C 0.39763(17) 0.71611(7) 0.53070(15)
C13 C 0.55716(17) 0.72495(7) 0.31642(15)
C14 C 0.46851(17) 0.70334(7) 0.34820(15)
C15 C 0.45345(18) 0.65784(7) 0.33328(16)
H9 H 0.3923 0.6437 0.3532
C16 C 0.52832(18) 0.63309(7) 0.28901(16)
C17 C 0.61516(18) 0.65414(7) 0.25560(16)
H10 H 0.6647 0.6373 0.2236
C18 C 0.63034(17) 0.69969(7) 0.26849(15)
C19 C 0.86718(17) 0.72757(7) 0.40261(16)
C20 C 0.84860(17) 0.70764(7) 0.30721(16)
C21 C 0.92061(18) 0.67647(7) 0.27852(16)
H11 H 0.9096 0.6637 0.2137
C22 C 1.00862(17) 0.66392(7) 0.34446(16)
C23 C 1.02339(17) 0.68132(7) 0.44090(16)
H12 H 1.0815 0.6716 0.4867
C24 C 0.95265(17) 0.71314(7) 0.47017(15)
N1 N 0.19309(15) 0.50859(6) 0.49260(14)
N2 N 0.33624(15) 0.44058(6) 0.45837(14)
C25 C 0.14364(19) 0.54474(8) 0.52367(19)
H13 H 0.1526 0.5727 0.4932
C26 C 0.07971(19) 0.54127(8) 0.59993(19)
H14 H 0.0446 0.5667 0.6217
C27 C 0.06775(19) 0.50048(8) 0.64367(19)
H15 H 0.0226 0.4974 0.6946
C28 C 0.12244(19) 0.46372(8) 0.61267(18)
H16 H 0.1161 0.4357 0.6439
C29 C 0.18564(17) 0.46790(7) 0.53690(17)
C30 C 0.24935(18) 0.43079(7) 0.50398(16)
C31 C 0.22691(19) 0.38659(8) 0.52301(17)
H17 H 0.1650 0.3790 0.5526
C32 C 0.2958(2) 0.35357(8) 0.49839(17)
H18 H 0.2816 0.3233 0.5120
C33 C 0.3852(2) 0.36491(8) 0.45389(17)
H19 H 0.4331 0.3426 0.4374
C34 C 0.40377(19) 0.40899(8) 0.43382(17)
H20 H 0.4643 0.4171 0.4026
C35 C 0.25790(19) 0.51243(8) 0.40846(18)
H21 H 0.2728 0.5441 0.3954
H22 H 0.2193 0.4994 0.3472
C36 C 0.36083(19) 0.48754(8) 0.43747(19)
H23 H 0.4060 0.4891 0.3825
H24 H 0.4002 0.5013 0.4974
N3 N 0.3575(2) 0.61178(7) 1.00085(15)
N4 N 0.2031(2) 0.54679(7) 0.93678(16)
C37 C 0.4249(2) 0.64607(9) 1.0227(2)
H25 H 0.4026 0.6711 1.0576
C38 C 0.5260(3) 0.64480(10) 0.9945(2)
H26 H 0.5735 0.6689 1.0096
C39 C 0.5575(3) 0.60779(10) 0.9437(2)
H27 H 0.6273 0.6062 0.9248
C40 C 0.4868(2) 0.57337(9) 0.92079(19)
H28 H 0.5073 0.5484 0.8844
C41 C 0.3856(2) 0.57508(8) 0.95073(18)
C42 C 0.3075(2) 0.53882(9) 0.93122(18)
C43 C 0.3388(3) 0.49609(9) 0.9084(2)
H29 H 0.4115 0.4900 0.9032
C44 C 0.2641(3) 0.46253(10) 0.8933(2)
H30 H 0.2856 0.4332 0.8790
C45 C 0.1584(3) 0.47169(10) 0.8990(2)
H31 H 0.1066 0.4489 0.8883
C46 C 0.1286(3) 0.51488(9) 0.9207(2)
H32 H 0.0559 0.5217 0.9241
C47 C 0.2518(2) 0.61245(9) 1.0385(2)
H33 H 0.2319 0.6435 1.0522
H34 H 0.2553 0.5955 1.1015
C48 C 0.1695(2) 0.59235(8) 0.9625(2)
H35 H 0.1003 0.5910 0.9896
H36 H 0.1606 0.6111 0.9018
O17 O 0.40833(18) 0.53741(7) 0.66240(17)
H37 H 0.372(3) 0.5555(11) 0.688(3)
H38 H 0.394(3) 0.5113(9) 0.680(3)
O18 O 0.0894(2) 0.53127(7) 0.12952(15)
H39 H 0.153(2) 0.5208(12) 0.136(3)
H40 H 0.083(3) 0.5483(11) 0.177(2)
O19 O 0.3029(2) 0.50490(8) 0.13952(17)
H41 H 0.359(3) 0.5192(13) 0.171(3)
H42 H 0.313(3) 0.4788(10) 0.174(3)
O20 O 0.7666(5) 0.6473(3) 0.0411(5)
O22 O 0.4755(4) 0.84321(19) 0.5146(4)
O21? O 0.8175(5) 0.6381(2) 0.0282(5)
O23? O 0.6059(10) 0.5528(5) 0.3218(11)
O24? O 0.4103(9) 0.5619(3) 0.3001(13)
O25? O 0.5096(12) 0.5699(3) 0.1626(5)
O26? O 0.9456(11) 0.5929(3) 0.8589(7)
O27? O 0.7587(10) 0.5770(3) 0.8236(14)
O28? O 0.8762(9) 0.5659(6) 0.6962(8)
loop_
_geom_bond_atom_site_label_1
_geom_bond_atom_site_label_2
_geom_bond_site_symmetry_1
_geom_bond_site_symmetry_2
S1 C6 1_555 1_555
S2 C12 1_555 1_555
S3 C18 1_555 1_555
S4 C2 1_555 1_555
S5 O5 1_555 1_555
S6 O8 1_555 1_555
S7 O11 1_555 1_555
S8 O14 1_555 1_555
O1 H1 1_555 1_555
O2 H2 1_555 1_555
O3 H3 1_555 1_555
O4 H4 1_555 1_555
O6 S5 1_555 1_555
O7 S5 1_555 1_555
O9 S6 1_555 1_555
O10 S6 1_555 1_555
O12 S7 1_555 1_555
O13 S7 1_555 1_555
O15 S8 1_555 1_555
O16 S8 1_555 1_555
N1 C25 1_555 1_555
N2 C30 1_555 1_555
N3 C37 1_555 1_555
N4 C42 1_555 1_555
C1 O1 1_555 1_555
C2 C1 1_555 1_555
C3 C2 1_555 1_555
H5 C3 1_555 1_555
C4 S5 1_555 1_555
C5 C4 1_555 1_555
H6 C5 1_555 1_555
C6 C1 1_555 1_555
C7 O2 1_555 1_555
C8 S1 1_555 1_555
C9 C8 1_555 1_555
H7 C9 1_555 1_555
C10 S6 1_555 1_555
C11 C10 1_555 1_555
H8 C11 1_555 1_555
C12 C7 1_555 1_555
C13 O3 1_555 1_555
C14 S2 1_555 1_555
C15 C14 1_555 1_555
H9 C15 1_555 1_555
C16 S7 1_555 1_555
C17 C16 1_555 1_555
H10 C17 1_555 1_555
C18 C13 1_555 1_555
C19 O4 1_555 1_555
C20 S3 1_555 1_555
C21 C20 1_555 1_555
H11 C21 1_555 1_555
C22 S8 1_555 1_555
C23 C22 1_555 1_555
H12 C23 1_555 1_555
C24 S4 1_555 1_555
C25 H13 1_555 1_555
C26 C25 1_555 1_555
H14 C26 1_555 1_555
C27 C26 1_555 1_555
H15 C27 1_555 1_555
C28 C27 1_555 1_555
H16 C28 1_555 1_555
C29 N1 1_555 1_555
C30 C29 1_555 1_555
C31 C30 1_555 1_555
H17 C31 1_555 1_555
C32 C31 1_555 1_555
H18 C32 1_555 1_555
C33 C32 1_555 1_555
H19 C33 1_555 1_555
C34 N2 1_555 1_555
H20 C34 1_555 1_555
C35 N1 1_555 1_555
H21 C35 1_555 1_555
H22 C35 1_555 1_555
C36 N2 1_555 1_555
H23 C36 1_555 1_555
H24 C36 1_555 1_555
C37 H25 1_555 1_555
C38 C37 1_555 1_555
H26 C38 1_555 1_555
C39 C38 1_555 1_555
H27 C39 1_555 1_555
C40 C39 1_555 1_555
H28 C40 1_555 1_555
C41 N3 1_555 1_555
C42 C41 1_555 1_555
C43 C42 1_555 1_555
H29 C43 1_555 1_555
C44 C43 1_555 1_555
H30 C44 1_555 1_555
C45 C44 1_555 1_555
H31 C45 1_555 1_555
C46 N4 1_555 1_555
H32 C46 1_555 1_555
C47 N3 1_555 1_555
H33 C47 1_555 1_555
H34 C47 1_555 1_555
C48 N4 1_555 1_555
H35 C48 1_555 1_555
H36 C48 1_555 1_555
O17 H37 1_555 1_555
H38 O17 1_555 1_555
O18 H39 1_555 1_555
H40 O18 1_555 1_555
O19 H41 1_555 1_555
H42 O19 1_555 1_555
C3 C4 1_555 1_555
C5 C6 1_555 1_555
C7 C8 1_555 1_555
C9 C10 1_555 1_555
C11 C12 1_555 1_555
C13 C14 1_555 1_555
C15 C16 1_555 1_555
C17 C18 1_555 1_555
C19 C20 1_555 1_555
C19 C24 1_555 1_555
C21 C22 1_555 1_555
C23 C24 1_555 1_555
C28 C29 1_555 1_555
C33 C34 1_555 1_555
C35 C36 1_555 1_555
C40 C41 1_555 1_555
C45 C46 1_555 1_555
C47 C48 1_555 1_555

#END
