
#######################################################################
#
#                 Cambridge Crystallographic Data Centre
#                                CCDC 
#
#######################################################################
#
# If this CIF has been generated from an entry in the Cambridge 
# Structural Database, then it will include bibliographic, chemical, 
# crystal, experimental, refinement or atomic coordinate data resulting 
# from the CCDC's data processing and validation procedures.
#
#######################################################################

data_GACYEQ
_chemical_formula_moiety         'C20 H21 Br1 Cl1 N3 O1,0.25(H2 O1),H1 Cl1'
_chemical_name_systematic        
'(1R)-1-(1-(4-bromophenyl)-5-methoxy-1H-pyrazol-3-yl)-N-((R)-1-(3-chlorophenyl)ethyl)ethanamine hydrochloride hydrate'
_symmetry_cell_setting           monoclinic
_symmetry_space_group_name_H-M   'C 2'
_symmetry_Int_Tables_number      5
_space_group_name_Hall           'C 2y'
loop_
_symmetry_equiv_pos_site_id
_symmetry_equiv_pos_as_xyz
1 x,y,z
2 1/2+x,1/2+y,z
3 -x,y,-z
4 1/2-x,1/2+y,-z
_cell_length_a                   18.148(3)
_cell_length_b                   18.002(4)
_cell_length_c                   28.228(5)
_cell_angle_alpha                90
_cell_angle_beta                 91.024(3)
_cell_angle_gamma                90
_cell_volume                     9220.62
_cell_formula_units_Z            16
loop_
_atom_site_label
_atom_site_type_symbol
_atom_site_fract_x
_atom_site_fract_y
_atom_site_fract_z
Br1 Br 0.1450(2) 0.1215(2) 0.4233(1)
Cl1 Cl -0.0447(3) 0.3591(3) 0.5546(2)
O1 O 0.3680(6) 0.3549(6) 0.5486(4)
N1 N 0.2550(6) 0.3227(7) 0.5792(4)
N2 N 0.2111(6) 0.3398(7) 0.6173(4)
N3 N 0.2022(5) 0.4980(6) 0.6827(3)
C1 C 0.2295(9) 0.2729(10) 0.5437(5)
C2 C 0.1554(9) 0.2632(10) 0.5388(5)
C3 C 0.1314(9) 0.2154(10) 0.5033(5)
C4 C 0.1791(10) 0.1778(10) 0.4768(6)
C5 C 0.2515(9) 0.1839(10) 0.4828(6)
C6 C 0.2779(9) 0.2320(10) 0.5186(6)
C7 C 0.3184(8) 0.3636(9) 0.5830(5)
C8 C 0.3169(8) 0.4028(8) 0.6246(5)
C9 C 0.2488(7) 0.3859(8) 0.6441(5)
C10 C 0.2187(7) 0.4160(7) 0.6881(4)
C11 C 0.2666(7) 0.4070(7) 0.7305(4)
C12 C 0.4290(10) 0.4012(11) 0.5533(6)
C13 C 0.1466(8) 0.6032(7) 0.6401(5)
C14 C 0.1538(7) 0.5205(7) 0.6406(5)
C15 C 0.0795(7) 0.4790(8) 0.6425(5)
C16 C 0.0549(7) 0.4433(8) 0.6028(5)
C17 C -0.0167(8) 0.4092(8) 0.6027(5)
C18 C -0.0584(8) 0.4141(8) 0.6428(5)
C19 C -0.0333(7) 0.4502(7) 0.6811(5)
C20 C 0.0357(7) 0.4831(7) 0.6816(5)
H1 H 0.2194 0.5303 0.7024
H2 H 0.1225 0.2875 0.5584
H3 H 0.0811 0.2095 0.4977
H4 H 0.2837 0.1573 0.4640
H5 H 0.3282 0.2358 0.5249
H6 H 0.3533 0.4339 0.6370
H7 H 0.1722 0.3904 0.6941
H8 H 0.2729 0.3551 0.7372
H9 H 0.2444 0.4310 0.7570
H10 H 0.3138 0.4291 0.7248
H11 H 0.4135 0.4520 0.5506
H12 H 0.4633 0.3901 0.5288
H13 H 0.4521 0.3934 0.5837
H14 H 0.1201 0.6190 0.6674
H15 H 0.1202 0.6183 0.6119
H16 H 0.1947 0.6253 0.6406
H17 H 0.1787 0.5054 0.6116
H18 H 0.0840 0.4410 0.5761
H19 H -0.1048 0.3920 0.6432
H20 H -0.0625 0.4532 0.7078
H21 H 0.0524 0.5081 0.7086
Br2 Br 0.6178(1) 0.5360(1) 0.5771(1)
Cl2 Cl 0.2931(5) -0.0384(6) 0.5323(3)
O2 O 0.4572(4) 0.3926(5) 0.7797(3)
N4 N 0.4919(5) 0.3176(6) 0.7163(4)
N5 N 0.4859(5) 0.2454(6) 0.7018(4)
N6 N 0.3432(5) 0.1274(6) 0.7152(4)
C21 C 0.5251(7) 0.3693(8) 0.6867(5)
C22 C 0.4995(7) 0.4426(8) 0.6852(5)
C23 C 0.5283(7) 0.4888(9) 0.6521(5)
C24 C 0.5835(8) 0.4655(8) 0.6231(5)
C25 C 0.6106(8) 0.3978(8) 0.6255(5)
C26 C 0.5820(7) 0.3481(8) 0.6578(5)
C27 C 0.4560(7) 0.3256(8) 0.7584(5)
C28 C 0.4247(7) 0.2591(7) 0.7701(5)
C29 C 0.4467(7) 0.2114(7) 0.7342(5)
C30 C 0.4260(7) 0.1311(7) 0.7270(5)
C31 C 0.4372(7) 0.0880(7) 0.7724(4)
C32 C 0.4233(8) 0.3912(8) 0.8258(5)
C33 C 0.2351(7) 0.1690(8) 0.6679(5)
C34 C 0.3198(7) 0.1677(9) 0.6701(5)
C35 C 0.3523(8) 0.1334(11) 0.6265(5)
C36 C 0.3270(9) 0.0722(11) 0.6068(6)
C37 C 0.3546(9) 0.0421(12) 0.5638(6)
C38 C 0.4134(10) 0.0699(12) 0.5461(6)
C39 C 0.4418(10) 0.1351(12) 0.5634(6)
C40 C 0.4142(8) 0.1671(11) 0.6073(5)
H22 H 0.3124 0.1043 0.7328
H23 H 0.4640 0.4592 0.7061
H24 H 0.5102 0.5369 0.6491
H25 H 0.6486 0.3835 0.6058
H26 H 0.6012 0.3003 0.6601
H27 H 0.3956 0.2483 0.7960
H28 H 0.4546 0.1090 0.7014
H29 H 0.4884 0.0887 0.7814
H30 H 0.4214 0.0376 0.7678
H31 H 0.4088 0.1104 0.7970
H32 H 0.3707 0.3892 0.8219
H33 H 0.4367 0.4353 0.8431
H34 H 0.4400 0.3483 0.8431
H35 H 0.2187 0.1824 0.6365
H36 H 0.2172 0.2046 0.6902
H37 H 0.2165 0.1206 0.6756
H38 H 0.3373 0.2191 0.6723
H39 H 0.2892 0.0470 0.6217
H41 H 0.4366 0.0456 0.5214
H42 H 0.4790 0.1592 0.5471
Br3 Br 0.7109(1) 0.9546(1) 0.9011(1)
Cl4 Cl 0.3965(2) 0.8563(2) 0.9426(1)
O3 O 0.5613(4) 0.7788(5) 0.7015(3)
N7 N 0.4898(5) 0.8174(6) 0.7638(4)
N8 N 0.4184(6) 0.8142(6) 0.7793(4)
N9 N 0.3029(5) 0.6716(6) 0.7708(4)
C41 C 0.5443(7) 0.8529(8) 0.7933(5)
C42 C 0.5228(8) 0.9118(8) 0.8216(5)
C43 C 0.5720(8) 0.9417(8) 0.8532(5)
C44 C 0.6413(8) 0.9147(8) 0.8564(5)
C45 C 0.6638(8) 0.8564(8) 0.8293(5)
C46 C 0.6137(7) 0.8248(8) 0.7970(5)
C47 C 0.4971(7) 0.7786(7) 0.7222(5)
C48 C 0.4297(7) 0.7493(7) 0.7119(5)
C49 C 0.3839(7) 0.7727(7) 0.7482(5)
C50 C 0.3057(6) 0.7530(7) 0.7548(5)
C51 C 0.2572(7) 0.7606(7) 0.7110(4)
C52 C 0.5587(7) 0.7402(8) 0.6561(5)
C53 C 0.3436(8) 0.5689(7) 0.8219(5)
C54 C 0.3464(7) 0.6512(7) 0.8150(4)
C55 C 0.3196(8) 0.6946(8) 0.8577(5)
C56 C 0.3642(8) 0.7495(8) 0.8773(5)
C57 C 0.3401(8) 0.7853(8) 0.9183(5)
C58 C 0.2780(8) 0.7693(8) 0.9383(5)
C59 C 0.2329(8) 0.7133(8) 0.9200(5)
C60 C 0.2511(8) 0.6767(8) 0.8790(5)
H45 H 0.2777 0.6390 0.7552
H46 H 0.4752 0.9307 0.8189
H47 H 0.5578 0.9808 0.8726
H48 H 0.7116 0.8380 0.8323
H49 H 0.6277 0.7850 0.7782
H50 H 0.4168 0.7198 0.6860
H51 H 0.2857 0.7843 0.7799
H52 H 0.2553 0.8117 0.7015
H53 H 0.2084 0.7435 0.7177
H54 H 0.2772 0.7313 0.6859
H55 H 0.5485 0.6885 0.6612
H56 H 0.6052 0.7453 0.6408
H57 H 0.5205 0.7613 0.6364
H58 H 0.2937 0.5539 0.8275
H59 H 0.3742 0.5553 0.8486
H60 H 0.3611 0.5445 0.7940
H61 H 0.3979 0.6650 0.8100
H62 H 0.4087 0.7622 0.8636
H63 H 0.2638 0.7954 0.9650
H64 H 0.1899 0.7005 0.9355
H65 H 0.2198 0.6413 0.8656
Br4 Br 0.2555(1) 0.4827(1) 1.0294(1)
Cl5 Cl 0.5373(2) 0.2900(3) 0.9359(2)
O4 O 0.5396(5) 0.7010(5) 0.9377(3)
N10 N 0.5069(5) 0.5861(6) 0.9071(3)
N11 N 0.5204(5) 0.5397(6) 0.8699(3)
N12 N 0.6755(5) 0.5250(6) 0.8022(3)
C61 C 0.4518(7) 0.5643(7) 0.9408(4)
C62 C 0.4409(7) 0.4860(8) 0.9455(4)
C63 C 0.3826(7) 0.4637(8) 0.9735(4)
C64 C 0.3394(7) 0.5148(8) 0.9948(4)
C65 C 0.3525(7) 0.5888(8) 0.9908(4)
C66 C 0.4098(7) 0.6146(8) 0.9639(4)
C67 C 0.5467(7) 0.6503(8) 0.9035(5)
C68 C 0.5857(7) 0.6469(7) 0.8643(4)
C69 C 0.5676(6) 0.5773(7) 0.8444(4)
C70 C 0.5942(6) 0.5435(7) 0.7984(4)
C71 C 0.5816(7) 0.5936(7) 0.7555(4)
C72 C 0.5816(8) 0.7665(8) 0.9313(5)
C73 C 0.7795(6) 0.4635(8) 0.8416(4)
C74 C 0.6992(6) 0.4773(8) 0.8427(4)
C75 C 0.6553(7) 0.4042(8) 0.8424(5)
C76 C 0.6188(7) 0.3836(8) 0.8842(5)
C77 C 0.5839(7) 0.3149(8) 0.8839(5)
C78 C 0.5841(7) 0.2691(8) 0.8456(5)
C79 C 0.6179(7) 0.2876(8) 0.8061(5)
C80 C 0.6536(7) 0.3576(8) 0.8036(5)
H66 H 0.7064 0.5412 0.7819
H67 H 0.4711 0.4517 0.9306
H68 H 0.3732 0.4134 0.9777
H69 H 0.3224 0.6225 1.0064
H70 H 0.4195 0.6652 0.9617
H71 H 0.6178 0.6825 0.8525
H72 H 0.5670 0.4971 0.7929
H73 H 0.5297 0.6004 0.7501
H74 H 0.6028 0.5709 0.7281
H75 H 0.6045 0.6409 0.7612
H76 H 0.6325 0.7536 0.9279
H77 H 0.5763 0.7982 0.9584
H78 H 0.5643 0.7920 0.9034
H79 H 0.7915 0.4393 0.8124
H80 H 0.7938 0.4324 0.8678
H81 H 0.8054 0.5099 0.8438
H82 H 0.6885 0.5038 0.8721
H83 H 0.6181 0.4145 0.9106
H84 H 0.5600 0.2236 0.8471
H85 H 0.6182 0.2553 0.7804
H86 H 0.6759 0.3721 0.7757
Cl6 Cl 0.7616(2) 0.4735(2) 0.7134(1)
H87 H 0.7647 0.4805 0.6740
Cl7 Cl 0.3564(2) 0.5725(2) 0.6896(1)
H88 H 0.3522 0.5782 0.6501
Cl8 Cl 0.2566(2) 0.1791(2) 0.8043(1)
H89 H 0.2591 0.1783 0.7647
Cl9 Cl 0.6504(2) 0.0888(2) 0.7715(1)
H90 H 0.6457 0.1173 0.7363
O5 O 0.8140(15) 0.7639(17) 0.9305(10)
H91 H 0.8129 0.8022 0.9128
H92 H 0.8328 0.7342 0.9507
O6 O 0.9030(30) 0.6320(30) 0.9158(16)
H93 H 0.8649 0.6588 0.9179
H94 H 0.9174 0.5871 0.9193
Cl3? Cl 0.5134(6) 0.2166(7) 0.5417(4)
H40? H 0.3303 0.0029 0.5488
H43? H 0.4537 0.1656 0.6309
H44? H 0.4027 0.2189 0.6014
loop_
_geom_bond_atom_site_label_1
_geom_bond_atom_site_label_2
_geom_bond_site_symmetry_1
_geom_bond_site_symmetry_2
Br1 C4 1_555 1_555
Cl1 C17 1_555 1_555
O1 C7 1_555 1_555
N1 N2 1_555 1_555
N2 C9 1_555 1_555
N3 C10 1_555 1_555
C1 N1 1_555 1_555
C2 C1 1_555 1_555
C3 C2 1_555 1_555
C4 C3 1_555 1_555
C5 C4 1_555 1_555
C6 C1 1_555 1_555
C7 N1 1_555 1_555
C8 C7 1_555 1_555
C9 C8 1_555 1_555
C10 C9 1_555 1_555
C11 C10 1_555 1_555
C12 O1 1_555 1_555
C13 C14 1_555 1_555
C14 N3 1_555 1_555
C15 C14 1_555 1_555
C16 C15 1_555 1_555
C17 C16 1_555 1_555
C18 C17 1_555 1_555
C19 C18 1_555 1_555
C20 C15 1_555 1_555
Br2 C24 1_555 1_555
Cl2 C37 1_555 1_555
O2 C27 1_555 1_555
N4 N5 1_555 1_555
N5 C29 1_555 1_555
N6 C30 1_555 1_555
C21 N4 1_555 1_555
C22 C21 1_555 1_555
C23 C22 1_555 1_555
C24 C23 1_555 1_555
C25 C24 1_555 1_555
C26 C21 1_555 1_555
C27 N4 1_555 1_555
C28 C27 1_555 1_555
C29 C28 1_555 1_555
C30 C29 1_555 1_555
C31 C30 1_555 1_555
C32 O2 1_555 1_555
C33 C34 1_555 1_555
C34 N6 1_555 1_555
C35 C34 1_555 1_555
C36 C35 1_555 1_555
C37 C36 1_555 1_555
C38 C37 1_555 1_555
C39 C38 1_555 1_555
C40 C35 1_555 1_555
Br3 C44 1_555 1_555
Cl4 C57 1_555 1_555
O3 C47 1_555 1_555
N7 N8 1_555 1_555
N8 C49 1_555 1_555
N9 C50 1_555 1_555
C41 N7 1_555 1_555
C42 C41 1_555 1_555
C43 C42 1_555 1_555
C44 C43 1_555 1_555
C45 C44 1_555 1_555
C46 C41 1_555 1_555
C47 N7 1_555 1_555
C48 C47 1_555 1_555
C49 C48 1_555 1_555
C50 C49 1_555 1_555
C51 C50 1_555 1_555
C52 O3 1_555 1_555
C53 C54 1_555 1_555
C54 N9 1_555 1_555
C55 C54 1_555 1_555
C56 C55 1_555 1_555
C57 C56 1_555 1_555
C58 C57 1_555 1_555
C59 C58 1_555 1_555
C60 C55 1_555 1_555
Br4 C64 1_555 1_555
Cl5 C77 1_555 1_555
O4 C67 1_555 1_555
N10 N11 1_555 1_555
N11 C69 1_555 1_555
N12 C70 1_555 1_555
C61 N10 1_555 1_555
C62 C61 1_555 1_555
C63 C62 1_555 1_555
C64 C63 1_555 1_555
C65 C64 1_555 1_555
C66 C61 1_555 1_555
C67 N10 1_555 1_555
C68 C67 1_555 1_555
C69 C68 1_555 1_555
C70 C69 1_555 1_555
C71 C70 1_555 1_555
C72 O4 1_555 1_555
C73 C74 1_555 1_555
C74 N12 1_555 1_555
C75 C74 1_555 1_555
C76 C75 1_555 1_555
C77 C76 1_555 1_555
C78 C77 1_555 1_555
C79 C78 1_555 1_555
C80 C75 1_555 1_555
Cl6 H87 1_555 1_555
Cl7 H88 1_555 1_555
Cl8 H89 1_555 1_555
Cl9 H90 1_555 1_555
O5 H91 1_555 1_555
O6 H93 1_555 1_555
H1 N3 1_555 1_555
H2 C2 1_555 1_555
H3 C3 1_555 1_555
H4 C5 1_555 1_555
H5 C6 1_555 1_555
H6 C8 1_555 1_555
H7 C10 1_555 1_555
H8 C11 1_555 1_555
H9 C11 1_555 1_555
H10 C11 1_555 1_555
H11 C12 1_555 1_555
H12 C12 1_555 1_555
H13 C12 1_555 1_555
H14 C13 1_555 1_555
H15 C13 1_555 1_555
H16 C13 1_555 1_555
H17 C14 1_555 1_555
H18 C16 1_555 1_555
H19 C18 1_555 1_555
H20 C19 1_555 1_555
H21 C20 1_555 1_555
H22 N6 1_555 1_555
H23 C22 1_555 1_555
H24 C23 1_555 1_555
H25 C25 1_555 1_555
H26 C26 1_555 1_555
H27 C28 1_555 1_555
H28 C30 1_555 1_555
H29 C31 1_555 1_555
H30 C31 1_555 1_555
H31 C31 1_555 1_555
H32 C32 1_555 1_555
H33 C32 1_555 1_555
H34 C32 1_555 1_555
H35 C33 1_555 1_555
H36 C33 1_555 1_555
H37 C33 1_555 1_555
H38 C34 1_555 1_555
H39 C36 1_555 1_555
H41 C38 1_555 1_555
H42 C39 1_555 1_555
H45 N9 1_555 1_555
H46 C42 1_555 1_555
H47 C43 1_555 1_555
H48 C45 1_555 1_555
H49 C46 1_555 1_555
H50 C48 1_555 1_555
H51 C50 1_555 1_555
H52 C51 1_555 1_555
H53 C51 1_555 1_555
H54 C51 1_555 1_555
H55 C52 1_555 1_555
H56 C52 1_555 1_555
H57 C52 1_555 1_555
H58 C53 1_555 1_555
H59 C53 1_555 1_555
H60 C53 1_555 1_555
H61 C54 1_555 1_555
H62 C56 1_555 1_555
H63 C58 1_555 1_555
H64 C59 1_555 1_555
H65 C60 1_555 1_555
H66 N12 1_555 1_555
H67 C62 1_555 1_555
H68 C63 1_555 1_555
H69 C65 1_555 1_555
H70 C66 1_555 1_555
H71 C68 1_555 1_555
H72 C70 1_555 1_555
H73 C71 1_555 1_555
H74 C71 1_555 1_555
H75 C71 1_555 1_555
H76 C72 1_555 1_555
H77 C72 1_555 1_555
H78 C72 1_555 1_555
H79 C73 1_555 1_555
H80 C73 1_555 1_555
H81 C73 1_555 1_555
H82 C74 1_555 1_555
H83 C76 1_555 1_555
H84 C78 1_555 1_555
H85 C79 1_555 1_555
H86 C80 1_555 1_555
H92 O5 1_555 1_555
H94 O6 1_555 1_555
C5 C6 1_555 1_555
C19 C20 1_555 1_555
C25 C26 1_555 1_555
C39 C40 1_555 1_555
C45 C46 1_555 1_555
C59 C60 1_555 1_555
C65 C66 1_555 1_555
C79 C80 1_555 1_555

#END
