
#######################################################################
#
#                 Cambridge Crystallographic Data Centre
#                                CCDC 
#
#######################################################################
#
# If this CIF has been generated from an entry in the Cambridge 
# Structural Database, then it will include bibliographic, chemical, 
# crystal, experimental, refinement or atomic coordinate data resulting 
# from the CCDC's data processing and validation procedures.
#
#######################################################################

data_GACYUF
_chemical_formula_moiety         'C10 H12 N4 O4'
_chemical_name_systematic        2-Piperidino-3,5-dinitropyridine
_symmetry_cell_setting           triclinic
_symmetry_space_group_name_H-M   'P -1'
_symmetry_Int_Tables_number      2
_space_group_name_Hall           '-P 1'
loop_
_symmetry_equiv_pos_site_id
_symmetry_equiv_pos_as_xyz
1 x,y,z
2 -x,-y,-z
_cell_length_a                   5.9847(12)
_cell_length_b                   7.3833(15)
_cell_length_c                   12.375(3)
_cell_angle_alpha                94.29(3)
_cell_angle_beta                 95.28(3)
_cell_angle_gamma                91.80(3)
_cell_volume                     542.562
_exptl_crystal_colour            yellow
_exptl_crystal_description       cube
_cell_formula_units_Z            2
_exptl_crystal_recrystallization_method ethanol
loop_
_atom_site_label
_atom_site_type_symbol
_atom_site_fract_x
_atom_site_fract_y
_atom_site_fract_z
O1 O 0.22320(14) 0.13842(12) 0.00238(7)
O2 O 0.14441(14) 0.26952(12) -0.37638(7)
O3 O -0.02275(14) 0.24227(12) 0.10767(6)
O4 O -0.19528(14) 0.31833(11) -0.44237(6)
N1 N 0.05032(15) 0.21926(12) 0.01795(7)
N2 N -0.04787(15) 0.31769(12) -0.36594(7)
N3 N -0.38724(14) 0.59464(12) -0.29710(7)
N4 N -0.39735(15) 0.44419(12) -0.14077(7)
C1 C -0.07251(17) 0.29405(14) -0.07314(8)
C2 C -0.28706(18) 0.36070(14) -0.06326(9)
C3 C -0.61065(17) 0.66767(15) -0.28308(9)
C4 C 0.01294(17) 0.28740(14) -0.17342(9)
C5 C -0.10750(17) 0.36631(13) -0.25637(8)
C6 C -0.26700(18) 0.68067(14) -0.37947(9)
C7 C -0.30020(17) 0.47030(13) -0.23458(8)
C8 C -0.25344(18) 0.88743(14) -0.35607(9)
C9 C -0.48353(18) 0.96536(15) -0.34429(10)
C10 C -0.59535(18) 0.87264(15) -0.25617(9)
H1 H -0.115(2) 0.6374(19) -0.3778(11)
H2 H 0.144(2) 0.226(2) -0.1851(11)
H3 H -0.579(2) 0.942(2) -0.4137(12)
H4 H -0.677(2) 0.6002(19) -0.2284(12)
H5 H -0.347(2) 0.642(2) -0.4534(12)
H6 H -0.703(2) 0.6404(19) -0.3533(12)
H7 H -0.749(2) 0.9141(19) -0.2501(12)
H8 H -0.511(2) 0.9044(19) -0.1834(12)
H9 H -0.360(2) 0.3440(19) 0.0015(12)
H10 H -0.157(2) 0.9213(19) -0.2853(12)
H11 H -0.183(2) 0.9383(18) -0.4157(11)
H12 H -0.470(2) 1.097(2) -0.3230(12)
loop_
_geom_bond_atom_site_label_1
_geom_bond_atom_site_label_2
_geom_bond_site_symmetry_1
_geom_bond_site_symmetry_2
O1 N1 1_555 1_555
O2 N2 1_555 1_555
O3 N1 1_555 1_555
O4 N2 1_555 1_555
N1 C1 1_555 1_555
N2 C5 1_555 1_555
N3 C3 1_555 1_555
N4 C2 1_555 1_555
C1 C2 1_555 1_555
C2 H9 1_555 1_555
C3 C10 1_555 1_555
C4 C1 1_555 1_555
C5 C4 1_555 1_555
C6 N3 1_555 1_555
C7 N3 1_555 1_555
C8 C6 1_555 1_555
C9 C8 1_555 1_555
C10 C9 1_555 1_555
H1 C6 1_555 1_555
H2 C4 1_555 1_555
H3 C9 1_555 1_555
H4 C3 1_555 1_555
H5 C6 1_555 1_555
H6 C3 1_555 1_555
H7 C10 1_555 1_555
H8 C10 1_555 1_555
H10 C8 1_555 1_555
H11 C8 1_555 1_555
H12 C9 1_555 1_555
N4 C7 1_555 1_555
C5 C7 1_555 1_555

#END
