
#######################################################################
#
#                 Cambridge Crystallographic Data Centre
#                                CCDC 
#
#######################################################################
#
# If this CIF has been generated from an entry in the Cambridge 
# Structural Database, then it will include bibliographic, chemical, 
# crystal, experimental, refinement or atomic coordinate data resulting 
# from the CCDC's data processing and validation procedures.
#
#######################################################################

data_GACZER
_chemical_name_common            'PDB Chemical Component code: G3B'
_chemical_formula_moiety         'C18 H14 N2 O3 S1'
_chemical_name_systematic        
2-methyl-5-(3-(4-[(S)-methylsulfinyl]phenyl)-1-benzofuran-5-yl)-1,3,4-oxadiazole
_symmetry_cell_setting           monoclinic
_symmetry_space_group_name_H-M   'P 21'
_symmetry_Int_Tables_number      4
_space_group_name_Hall           'P 2yb'
loop_
_symmetry_equiv_pos_site_id
_symmetry_equiv_pos_as_xyz
1 x,y,z
2 -x,1/2+y,-z
_cell_length_a                   8.515(2)
_cell_length_b                   18.011(4)
_cell_length_c                   10.279(2)
_cell_angle_alpha                90
_cell_angle_beta                 99.63(2)
_cell_angle_gamma                90
_cell_volume                     1554.21
_exptl_crystal_colour            colorless
_chemical_melting_point          '443-444 K'
_cell_formula_units_Z            4
loop_
_atom_site_label
_atom_site_type_symbol
_atom_site_fract_x
_atom_site_fract_y
_atom_site_fract_z
O1 O 0.7122(5) 0.4535(2) 0.2010(4)
C1 C 0.7405(7) 0.3859(3) 0.1475(5)
N1 N 0.6712(6) 0.3323(3) 0.1975(5)
N2 N 0.5872(6) 0.3644(3) 0.2918(5)
C2 C 0.6183(7) 0.4351(3) 0.2904(6)
C3 C 0.8456(6) 0.3833(3) 0.0462(5)
C4 C 0.5540(6) 0.4929(3) 0.3673(6)
C5 C 0.5635(6) 0.5680(3) 0.3348(5)
C6 C 0.5016(6) 0.6205(3) 0.4130(5)
C7 C 0.4856(6) 0.7006(3) 0.4102(5)
C8 C 0.4091(6) 0.7165(3) 0.5116(6)
O2 O 0.3741(5) 0.6554(2) 0.5804(4)
C9 C 0.4340(7) 0.5956(3) 0.5179(5)
C10 C 0.4249(6) 0.5222(3) 0.5552(6)
C11 C 0.4861(7) 0.4711(3) 0.4777(6)
C12 C 0.5410(6) 0.7551(3) 0.3202(5)
C13 C 0.6848(6) 0.7444(3) 0.2743(6)
C14 C 0.7357(7) 0.7944(3) 0.1878(6)
C15 C 0.6451(7) 0.8564(3) 0.1490(6)
C16 C 0.5040(7) 0.8701(3) 0.1966(6)
C17 C 0.4502(7) 0.8185(3) 0.2802(6)
S1 S 0.7023(2) 0.9200 0.0297(1)
O3 O 0.5736(5) 0.9778(2) 0.0021(4)
C18 C 0.8640(7) 0.9628(3) 0.1370(6)
H1 H 0.8259 0.4258 -0.0096
H2 H 0.9540 0.3839 0.0883
H3 H 0.8250 0.3398 -0.0050
H4 H 0.6097 0.5827 0.2631
H5 H 0.3825 0.7646 0.5328
H6 H 0.3801 0.5082 0.6280
H7 H 0.4828 0.4210 0.4986
H8 H 0.7471 0.7031 0.3022
H9 H 0.8304 0.7862 0.1562
H10 H 0.4463 0.9133 0.1729
H11 H 0.3539 0.8262 0.3095
H12 H 0.8232 0.9915 0.2027
H13 H 0.9212 0.9948 0.0866
H14 H 0.9345 0.9252 0.1793
O4 O 0.1853(4) 0.5857(2) 0.1723(4)
C19 C 0.2061(6) 0.6537(3) 0.1157(6)
N3 N 0.1368(6) 0.7061(3) 0.1697(5)
N4 N 0.0658(6) 0.6725(2) 0.2709(5)
C20 C 0.0987(6) 0.6032(3) 0.2685(5)
C21 C 0.3018(7) 0.6585(3) 0.0081(6)
C22 C 0.0521(6) 0.5436(3) 0.3516(5)
C23 C 0.0860(7) 0.4699(3) 0.3331(5)
C24 C 0.0304(6) 0.4169(3) 0.4147(5)
C25 C 0.0310(6) 0.3361(3) 0.4221(5)
C26 C -0.0438(6) 0.3195(3) 0.5252(6)
O5 O -0.0966(4) 0.3822(2) 0.5833(3)
C27 C -0.0491(7) 0.4410(3) 0.5142(6)
C28 C -0.0846(6) 0.5147(3) 0.5365(5)
C29 C -0.0306(7) 0.5657(3) 0.4550(6)
C30 C 0.0968(6) 0.2811(3) 0.3411(5)
C31 C 0.2419(6) 0.2914(3) 0.2987(5)
C32 C 0.3123(7) 0.2352(3) 0.2356(6)
C33 C 0.2316(6) 0.1680(3) 0.2126(5)
C34 C 0.0807(6) 0.1575(3) 0.2466(5)
C35 C 0.0136(7) 0.2141(3) 0.3106(5)
S2 S 0.3278(2) 0.0902(1) 0.1490(1)
O6 O 0.2418(5) 0.0224(2) 0.1818(4)
C36 C 0.2530(8) 0.1074(3) -0.0233(5)
H15 H 0.3826 0.6957 0.0293
H16 H 0.2337 0.6714 -0.0729
H17 H 0.3510 0.6113 -0.0019
H18 H 0.1442 0.4557 0.2682
H19 H -0.0581 0.2714 0.5537
H20 H -0.1412 0.5286 0.6024
H21 H -0.0485 0.6159 0.4676
H22 H 0.2932 0.3369 0.3128
H23 H 0.4106 0.2423 0.2095
H24 H 0.0261 0.1132 0.2266
H25 H -0.0868 0.2077 0.3335
H26 H 0.2914 0.1545 -0.0481
H27 H 0.1387 0.1079 -0.0375
H28 H 0.2892 0.0689 -0.0757
loop_
_geom_bond_atom_site_label_1
_geom_bond_atom_site_label_2
_geom_bond_site_symmetry_1
_geom_bond_site_symmetry_2
O1 C1 1_555 1_555
C1 N1 1_555 1_555
N1 N2 1_555 1_555
N2 C2 1_555 1_555
C2 O1 1_555 1_555
C3 C1 1_555 1_555
C4 C2 1_555 1_555
C5 C4 1_555 1_555
C6 C5 1_555 1_555
C7 C6 1_555 1_555
C8 C7 1_555 1_555
O2 C8 1_555 1_555
C9 C6 1_555 1_555
C10 C9 1_555 1_555
C11 C4 1_555 1_555
C12 C7 1_555 1_555
C13 C12 1_555 1_555
C14 C13 1_555 1_555
C15 C14 1_555 1_555
C16 C15 1_555 1_555
C17 C12 1_555 1_555
S1 C15 1_555 1_555
O3 S1 1_555 1_555
C18 S1 1_555 1_555
H1 C3 1_555 1_555
H2 C3 1_555 1_555
H3 C3 1_555 1_555
H4 C5 1_555 1_555
H5 C8 1_555 1_555
H6 C10 1_555 1_555
H7 C11 1_555 1_555
H8 C13 1_555 1_555
H9 C14 1_555 1_555
H10 C16 1_555 1_555
H11 C17 1_555 1_555
H12 C18 1_555 1_555
H13 C18 1_555 1_555
H14 C18 1_555 1_555
O4 C19 1_555 1_555
C19 N3 1_555 1_555
N3 N4 1_555 1_555
N4 C20 1_555 1_555
C20 O4 1_555 1_555
C21 C19 1_555 1_555
C22 C20 1_555 1_555
C23 C22 1_555 1_555
C24 C23 1_555 1_555
C25 C24 1_555 1_555
C26 C25 1_555 1_555
O5 C26 1_555 1_555
C27 C24 1_555 1_555
C28 C27 1_555 1_555
C29 C22 1_555 1_555
C30 C25 1_555 1_555
C31 C30 1_555 1_555
C32 C31 1_555 1_555
C33 C32 1_555 1_555
C34 C33 1_555 1_555
C35 C30 1_555 1_555
S2 C33 1_555 1_555
O6 S2 1_555 1_555
C36 S2 1_555 1_555
H15 C21 1_555 1_555
H16 C21 1_555 1_555
H17 C21 1_555 1_555
H18 C23 1_555 1_555
H19 C26 1_555 1_555
H20 C28 1_555 1_555
H21 C29 1_555 1_555
H22 C31 1_555 1_555
H23 C32 1_555 1_555
H24 C34 1_555 1_555
H25 C35 1_555 1_555
H26 C36 1_555 1_555
H27 C36 1_555 1_555
H28 C36 1_555 1_555
O2 C9 1_555 1_555
C10 C11 1_555 1_555
C16 C17 1_555 1_555
O5 C27 1_555 1_555
C28 C29 1_555 1_555
C34 C35 1_555 1_555

#END
