
#######################################################################
#
#                 Cambridge Crystallographic Data Centre
#                                CCDC 
#
#######################################################################
#
# If this CIF has been generated from an entry in the Cambridge 
# Structural Database, then it will include bibliographic, chemical, 
# crystal, experimental, refinement or atomic coordinate data resulting 
# from the CCDC's data processing and validation procedures.
#
#######################################################################

data_GADDIY
_chemical_formula_moiety         'C24 H28 N2 O6'
_chemical_name_systematic        
N-(3-(t-Butoxycarbonyl)-3-(2-hydroxy-1-phenylethylamine)-2-hydroxypropyl)isoindole-1,3-dione
_symmetry_cell_setting           monoclinic
_symmetry_space_group_name_H-M   'P 21'
_symmetry_Int_Tables_number      4
_space_group_name_Hall           'P 2yb'
loop_
_symmetry_equiv_pos_site_id
_symmetry_equiv_pos_as_xyz
1 x,y,z
2 -x,1/2+y,-z
_cell_length_a                   13.797(2)
_cell_length_b                   6.137(2)
_cell_length_c                   14.480(3)
_cell_angle_alpha                90
_cell_angle_beta                 111.90(2)
_cell_angle_gamma                90
_cell_volume                     1137.58
_exptl_crystal_colour            colorless
_exptl_crystal_description       needles
_chemical_melting_point          165-167deg.C
_cell_formula_units_Z            2
_exptl_crystal_recrystallization_method ether/hexanes
loop_
_atom_site_label
_atom_site_type_symbol
_atom_site_fract_x
_atom_site_fract_y
_atom_site_fract_z
O1 O -0.0422(6) -0.417(2) 0.1351(7)
O2 O 0.0872(4) 0.370 0.0507(5)
O3 O 0.3950(4) 0.032(1) 0.0905(5)
O4 O 0.2079(4) 0.154(1) 0.2836(4)
O5 O 0.3411(4) -0.490(1) 0.2264(5)
O6 O 0.4474(4) -0.293(1) 0.3562(4)
N1 N 0.2325(5) 0.153(1) 0.0784(5)
N2 N 0.1733(4) -0.345(1) 0.2623(5)
C1 C 0.1687(7) 0.333(2) 0.0375(6)
C2 C 0.2204(7) 0.457(2) -0.0185(6)
C3 C 0.1867(8) 0.646(2) -0.0745(7)
C4 C 0.254(1) 0.728(2) -0.1167(8)
C5 C 0.3481(8) 0.626(2) -0.1040(7)
C6 C 0.3781(7) 0.441(2) -0.0498(7)
C7 C 0.3137(7) 0.364(2) -0.0054(7)
C8 C 0.3250(6) 0.173(2) 0.0585(6)
C9 C 0.2106(6) -0.018(2) 0.1335(6)
C10 C 0.2616(6) 0.008(2) 0.2467(6)
C11 C 0.2692(6) -0.211(2) 0.2975(6)
C12 C 0.0832(6) -0.258(2) 0.2853(6)
C13 C -0.0101(6) -0.417(2) 0.2378(7)
C14 C 0.1090(6) -0.244(2) 0.3936(6)
C15 C 0.0827(6) -0.052(2) 0.4299(7)
C16 C 0.0980(7) -0.029(2) 0.5312(7)
C17 C 0.1452(7) -0.203(3) 0.5933(7)
C18 C 0.1731(7) -0.390(2) 0.5585(7)
C19 C 0.1552(6) -0.409(2) 0.4571(7)
C20 C 0.3547(5) -0.358(2) 0.2862(6)
C21 C 0.5474(6) -0.397(2) 0.3572(7)
C22 C 0.5426(7) -0.637(2) 0.3723(9)
C23 C 0.6266(7) -0.296(3) 0.4494(9)
C24 C 0.5641(6) -0.334(3) 0.2661(7)
H1 H 0.1184 0.7175 -0.0821
H2 H 0.2309 0.8602 -0.1584
H3 H 0.3914 0.6838 -0.1388
H4 H 0.4477 0.3679 -0.0392
H5 H 0.2348 -0.1580 0.1147
H6 H 0.1364 -0.0343 0.1139
H7 H 0.3302 0.0512 0.2635
H8 H 0.2768 -0.1533 0.3629
H9 H 0.0677 -0.1045 0.2619
H10 H 0.0509 0.0510 0.3821
H11 H 0.0761 0.0986 0.5572
H12 H 0.1606 -0.1855 0.6649
H13 H 0.1992 -0.5072 0.6080
H14 H 0.1771 -0.5548 0.4339
H15 H 0.5361 -0.6835 0.4346
H16 H 0.4879 -0.7135 0.3201
H17 H 0.6083 -0.7203 0.3757
H18 H 0.6175 -0.3343 0.5110
H19 H 0.6978 -0.3139 0.4598
H20 H 0.6160 -0.1313 0.4468
H21 H 0.5674 -0.1708 0.2657
H22 H 0.6288 -0.3821 0.2651
H23 H 0.5085 -0.3753 0.2095
H24 H 0.1779 -0.5111 0.2602
H25 H 0.2096 0.3122 0.2658
O7? O 0.006(1) -0.629(5) 0.255(1)
loop_
_geom_bond_atom_site_label_1
_geom_bond_atom_site_label_2
_geom_bond_site_symmetry_1
_geom_bond_site_symmetry_2
O1 C13 1_555 1_555
O2 C1 1_555 1_555
O3 C8 1_555 1_555
O4 C10 1_555 1_555
O5 C20 1_555 1_555
O6 C20 1_555 1_555
N1 C1 1_555 1_555
N2 C11 1_555 1_555
C1 C2 1_555 1_555
C2 C3 1_555 1_555
C3 C4 1_555 1_555
C4 C5 1_555 1_555
C5 C6 1_555 1_555
C6 C7 1_555 1_555
C7 C2 1_555 1_555
C8 N1 1_555 1_555
C9 N1 1_555 1_555
C10 C9 1_555 1_555
C11 C10 1_555 1_555
C12 N2 1_555 1_555
C13 C12 1_555 1_555
C14 C12 1_555 1_555
C15 C14 1_555 1_555
C16 C15 1_555 1_555
C17 C16 1_555 1_555
C18 C17 1_555 1_555
C19 C14 1_555 1_555
C20 C11 1_555 1_555
C21 O6 1_555 1_555
C22 C21 1_555 1_555
C23 C21 1_555 1_555
C24 C21 1_555 1_555
H1 C3 1_555 1_555
H2 C4 1_555 1_555
H3 C5 1_555 1_555
H4 C6 1_555 1_555
H5 C9 1_555 1_555
H6 C9 1_555 1_555
H7 C10 1_555 1_555
H8 C11 1_555 1_555
H9 C12 1_555 1_555
H10 C15 1_555 1_555
H11 C16 1_555 1_555
H12 C17 1_555 1_555
H13 C18 1_555 1_555
H14 C19 1_555 1_555
H15 C22 1_555 1_555
H16 C22 1_555 1_555
H17 C22 1_555 1_555
H18 C23 1_555 1_555
H19 C23 1_555 1_555
H20 C23 1_555 1_555
H21 C24 1_555 1_555
H22 C24 1_555 1_555
H23 C24 1_555 1_555
H24 N2 1_555 1_555
H25 O4 1_555 1_555
C7 C8 1_555 1_555
C18 C19 1_555 1_555

#END
