
#######################################################################
#
#                 Cambridge Crystallographic Data Centre
#                                CCDC 
#
#######################################################################
#
# If this CIF has been generated from an entry in the Cambridge 
# Structural Database, then it will include bibliographic, chemical, 
# crystal, experimental, refinement or atomic coordinate data resulting 
# from the CCDC's data processing and validation procedures.
#
#######################################################################

data_GADGIE
_chemical_formula_moiety         'C16 H20 N2 O8'
_chemical_name_systematic        'Tetraethyl pyrazine-2,3,5,6-tetracarboxylate'
_symmetry_cell_setting           triclinic
_symmetry_space_group_name_H-M   'P -1'
_symmetry_Int_Tables_number      2
_space_group_name_Hall           '-P 1'
loop_
_symmetry_equiv_pos_site_id
_symmetry_equiv_pos_as_xyz
1 x,y,z
2 -x,-y,-z
_cell_length_a                   5.4194(8)
_cell_length_b                   9.0619(12)
_cell_length_c                   9.4607(13)
_cell_angle_alpha                81.285(11)
_cell_angle_beta                 82.771(11)
_cell_angle_gamma                77.208(11)
_cell_volume                     445.795
_exptl_crystal_colour            colorless
_exptl_crystal_description       plate
_cell_formula_units_Z            1
loop_
_atom_site_label
_atom_site_type_symbol
_atom_site_fract_x
_atom_site_fract_y
_atom_site_fract_z
O1 O 0.4462(2) -0.06169(15) 0.77032(15)
O2 O 0.1176(2) 0.13155(13) 0.81276(11)
O3 O 0.4091(2) 0.25124(15) 0.54380(14)
O4 O 0.1520(2) 0.36434(13) 0.37225(13)
N1 N 0.0156(2) -0.10741(14) 0.62316(14)
C1 C 0.1213(3) 0.01462(17) 0.60885(16)
C2 C 0.1086(3) 0.12084(17) 0.48617(16)
C3 C 0.2530(3) 0.02424(17) 0.73804(17)
C4 C 0.2194(4) 0.1491(2) 0.94406(18)
H1 H 0.3871 0.1728 0.9215
H2 H 0.2333 0.0552 1.0100
C5 C 0.0414(5) 0.2756(2) 1.0102(2)
H3 H -0.1260 0.2537 1.0266
H4 H 0.0379 0.3691 0.9466
H5 H 0.0975 0.2855 1.0999
C6 C 0.2424(3) 0.25202(18) 0.47080(17)
C7 C 0.2689(4) 0.4982(2) 0.3480(2)
H6 H 0.3113 0.5185 0.4388
H7 H 0.1485 0.5865 0.3092
C8 C 0.5034(4) 0.4738(3) 0.2464(2)
H8 H 0.4633 0.4482 0.1583
H9 H 0.6282 0.3920 0.2884
H10 H 0.5696 0.5655 0.2270
O1A O -0.4462(2) 0.06169(15) 0.22968(15)
O2A O -0.1176(2) -0.13155(13) 0.18724(11)
O3A O -0.4091(2) -0.25124(15) 0.45620(14)
O4A O -0.1520(2) -0.36434(13) 0.62775(13)
N1A N -0.0156(2) 0.10741(14) 0.37684(14)
C1A C -0.1213(3) -0.01462(17) 0.39115(16)
C2A C -0.1086(3) -0.12084(17) 0.51383(16)
C3A C -0.2530(3) -0.02424(17) 0.26196(17)
C4A C -0.2194(4) -0.1491(2) 0.05594(18)
H1A H -0.3871 -0.1728 0.0785
H2A H -0.2333 -0.0552 -0.0100
C5A C -0.0414(5) -0.2756(2) -0.0102(2)
H3A H 0.1260 -0.2537 -0.0266
H4A H -0.0379 -0.3691 0.0534
H5A H -0.0975 -0.2855 -0.0999
C6A C -0.2424(3) -0.25202(18) 0.52920(17)
C7A C -0.2689(4) -0.4982(2) 0.6520(2)
H6A H -0.3113 -0.5185 0.5612
H7A H -0.1485 -0.5865 0.6908
C8A C -0.5034(4) -0.4738(3) 0.7536(2)
H8A H -0.4633 -0.4482 0.8417
H9A H -0.6282 -0.3920 0.7116
H10A H -0.5696 -0.5655 0.7730
loop_
_geom_bond_atom_site_label_1
_geom_bond_atom_site_label_2
_geom_bond_site_symmetry_1
_geom_bond_site_symmetry_2
O1 C3 1_555 1_555
O2 C3 1_555 1_555
O3 C6 1_555 1_555
O4 C6 1_555 1_555
N1 C1 1_555 1_555
C1 C2 1_555 1_555
C2 C6 1_555 1_555
C3 C1 1_555 1_555
C4 O2 1_555 1_555
H1 C4 1_555 1_555
H2 C4 1_555 1_555
C5 C4 1_555 1_555
H3 C5 1_555 1_555
H4 C5 1_555 1_555
H5 C5 1_555 1_555
C7 O4 1_555 1_555
H6 C7 1_555 1_555
H7 C7 1_555 1_555
C8 C7 1_555 1_555
H8 C8 1_555 1_555
H9 C8 1_555 1_555
H10 C8 1_555 1_555
O1A C3A 1_555 1_555
O2A C3A 1_555 1_555
O3A C6A 1_555 1_555
O4A C6A 1_555 1_555
N1A C2 1_555 1_555
C1A N1A 1_555 1_555
C2A N1 1_555 1_555
C3A C1A 1_555 1_555
C4A O2A 1_555 1_555
H1A C4A 1_555 1_555
H2A C4A 1_555 1_555
C5A C4A 1_555 1_555
H3A C5A 1_555 1_555
H4A C5A 1_555 1_555
H5A C5A 1_555 1_555
C6A C2A 1_555 1_555
C7A O4A 1_555 1_555
H6A C7A 1_555 1_555
H7A C7A 1_555 1_555
C8A C7A 1_555 1_555
H8A C8A 1_555 1_555
H9A C8A 1_555 1_555
H10A C8A 1_555 1_555
C1A C2A 1_555 1_555

#END
