
#######################################################################
#
#                 Cambridge Crystallographic Data Centre
#                                CCDC 
#
#######################################################################
#
# If this CIF has been generated from an entry in the Cambridge 
# Structural Database, then it will include bibliographic, chemical, 
# crystal, experimental, refinement or atomic coordinate data resulting 
# from the CCDC's data processing and validation procedures.
#
#######################################################################

data_GADNAD
_chemical_formula_moiety         'C10 H6 O6 S2 2-,2(C5 H12 N1 1+)'
_chemical_name_systematic        'bis(piperidinium) naphthalene-1,5-disulfonate'
_symmetry_cell_setting           triclinic
_symmetry_space_group_name_H-M   'P -1'
_symmetry_Int_Tables_number      2
_space_group_name_Hall           '-P 1'
loop_
_symmetry_equiv_pos_site_id
_symmetry_equiv_pos_as_xyz
1 x,y,z
2 -x,-y,-z
_cell_length_a                   7.728(3)
_cell_length_b                   8.042(3)
_cell_length_c                   9.150(3)
_cell_angle_alpha                80.631(4)
_cell_angle_beta                 79.433(4)
_cell_angle_gamma                86.531(4)
_cell_volume                     551.283
_exptl_crystal_colour            colorless
_exptl_crystal_description       block
_cell_formula_units_Z            1
loop_
_atom_site_label
_atom_site_type_symbol
_atom_site_fract_x
_atom_site_fract_y
_atom_site_fract_z
N1 N 0.1923(2) 0.1245(2) 0.11425(19)
H1 H 0.2364 0.1346 0.0152
H2 H 0.1194 0.0373 0.1379
C1 C 0.0904(3) 0.2817(3) 0.1460(3)
H3 H 0.0370 0.2694 0.2516
H4 H -0.0030 0.3016 0.0868
C2 C 0.2097(3) 0.4286(3) 0.1079(3)
H5 H 0.1438 0.5287 0.1355
H6 H 0.2517 0.4486 0.0001
C3 C 0.3659(3) 0.3983(3) 0.1886(3)
H7 H 0.3255 0.3953 0.2958
H8 H 0.4459 0.4906 0.1536
C4 C 0.4627(3) 0.2336(3) 0.1606(3)
H9 H 0.5168 0.2424 0.0554
H10 H 0.5555 0.2124 0.2203
C5 C 0.3393(3) 0.0886(3) 0.2009(3)
H11 H 0.4026 -0.0143 0.1775
H12 H 0.2926 0.0731 0.3079
O1 O 0.33172(18) 0.18474(18) 0.79510(16)
O2 O 0.01934(18) 0.15156(17) 0.83414(15)
O3 O 0.2033(2) 0.05485(19) 0.61909(19)
S1 S 0.18130(7) 0.17438(6) 0.72206(5)
C6 C 0.2791(2) 0.4940(2) 0.6079(2)
H13 H 0.3750 0.4654 0.6563
C7 C 0.1550(2) 0.3773(2) 0.61578(19)
C8 C 0.0077(2) 0.4170(2) 0.54066(18)
C9 C -0.1235(2) 0.2995(2) 0.5434(2)
H14 H -0.1135 0.1907 0.5949
C10 C -0.2628(3) 0.3430(2) 0.4726(2)
H15 H -0.3480 0.2646 0.4773
O1A O -0.33172(18) 0.81526(18) 0.20490(16)
O2A O -0.01934(18) 0.84844(17) 0.16586(15)
O3A O -0.2033(2) 0.94515(19) 0.38091(19)
S1A S -0.18130(7) 0.82562(6) 0.27794(5)
C6A C -0.2791(2) 0.5060(2) 0.3921(2)
H13A H -0.3750 0.5346 0.3437
C7A C -0.1550(2) 0.6227(2) 0.38422(19)
C8A C -0.0077(2) 0.5830(2) 0.45934(18)
C9A C 0.1235(2) 0.7005(2) 0.4566(2)
H14A H 0.1135 0.8093 0.4051
C10A C 0.2628(3) 0.6570(2) 0.5274(2)
H15A H 0.3480 0.7354 0.5227
loop_
_geom_bond_atom_site_label_1
_geom_bond_atom_site_label_2
_geom_bond_site_symmetry_1
_geom_bond_site_symmetry_2
N1 H1 1_555 1_555
H2 N1 1_555 1_555
C1 N1 1_555 1_555
H3 C1 1_555 1_555
H4 C1 1_555 1_555
C2 C1 1_555 1_555
H5 C2 1_555 1_555
H6 C2 1_555 1_555
C3 C2 1_555 1_555
H7 C3 1_555 1_555
H8 C3 1_555 1_555
C4 C3 1_555 1_555
H9 C4 1_555 1_555
H10 C4 1_555 1_555
C5 N1 1_555 1_555
H11 C5 1_555 1_555
H12 C5 1_555 1_555
O1 S1 1_555 1_555
O2 S1 1_555 1_555
O3 S1 1_555 1_555
S1 C7 1_555 1_555
C6 H13 1_555 1_555
C7 C6 1_555 1_555
C8 C7 1_555 1_555
C9 C8 1_555 1_555
H14 C9 1_555 1_555
C10 C9 1_555 1_555
H15 C10 1_555 1_555
O1A S1A 1_555 1_555
O2A S1A 1_555 1_555
O3A S1A 1_555 1_555
S1A C7A 1_555 1_555
C6A C10 1_555 1_555
H13A C6A 1_555 1_555
C7A C6A 1_555 1_555
C8A C8 1_555 1_555
C9A C8A 1_555 1_555
H14A C9A 1_555 1_555
C10A C6 1_555 1_555
H15A C10A 1_555 1_555
C4 C5 1_555 1_555
C7A C8A 1_555 1_555
C9A C10A 1_555 1_555

#END
