
#######################################################################
#
#                 Cambridge Crystallographic Data Centre
#                                CCDC 
#
#######################################################################
#
# If this CIF has been generated from an entry in the Cambridge 
# Structural Database, then it will include bibliographic, chemical, 
# crystal, experimental, refinement or atomic coordinate data resulting 
# from the CCDC's data processing and validation procedures.
#
#######################################################################

data_GADSUA01
_chemical_formula_moiety         'C13 H12 O2 S2'
_chemical_name_systematic        bis(Phenylsulfinyl)methane
_symmetry_cell_setting           monoclinic
_symmetry_space_group_name_H-M   'P 21/c'
_symmetry_Int_Tables_number      14
_space_group_name_Hall           '-P 2ybc'
loop_
_symmetry_equiv_pos_site_id
_symmetry_equiv_pos_as_xyz
1 x,y,z
2 -x,1/2+y,1/2-z
3 -x,-y,-z
4 x,1/2-y,1/2+z
_cell_length_a                   8.4368(4)
_cell_length_b                   17.1966(7)
_cell_length_c                   17.1387(6)
_cell_angle_alpha                90
_cell_angle_beta                 95.251(3)
_cell_angle_gamma                90
_cell_volume                     2476.12
_exptl_crystal_colour            colorless
_exptl_crystal_description       block
_chemical_melting_point          '452-454 K'
_cell_formula_units_Z            8
_exptl_crystal_recrystallization_method ethanol
loop_
_atom_site_label
_atom_site_type_symbol
_atom_site_fract_x
_atom_site_fract_y
_atom_site_fract_z
S1 S 0.24251(6) 0.13741(2) 0.22205(3)
S2 S 0.04038(6) 0.03440(3) 0.30510(3)
O1 O 0.12552(17) 0.12780(8) 0.15191(9)
O2 O 0.02544(18) 0.09565(8) 0.36612(9)
C1 C 0.2401(2) 0.04591(10) 0.27607(11)
H1 H 0.2674 0.0020 0.2425
H2 H 0.3182 0.0475 0.3228
C2 C 0.4359(2) 0.12423(10) 0.18987(11)
C3 C 0.5695(2) 0.14283(10) 0.24020(11)
H3 H 0.5585 0.1599 0.2922
C4 C 0.7181(3) 0.13606(10) 0.21331(12)
H4 H 0.8103 0.1479 0.2472
C5 C 0.7339(3) 0.11204(12) 0.13709(13)
H5 H 0.8367 0.1079 0.1190
C6 C 0.6003(3) 0.09403(12) 0.08740(12)
H6 H 0.6117 0.0773 0.0354
C7 C 0.4492(2) 0.10045(11) 0.11357(11)
H7 H 0.3570 0.0887 0.0796
C8 C 0.0703(2) -0.05729(10) 0.35320(10)
C9 C 0.0409(2) -0.12363(11) 0.30828(11)
H8 H 0.0134 -0.1198 0.2534
C10 C 0.0522(3) -0.19562(11) 0.34478(12)
H9 H 0.0335 -0.2417 0.3148
C11 C 0.0907(2) -0.20043(11) 0.42499(12)
H10 H 0.0983 -0.2499 0.4498
C12 C 0.1184(2) -0.13364(12) 0.46918(11)
H11 H 0.1448 -0.1374 0.5241
C13 C 0.1076(2) -0.06116(11) 0.43344(10)
H12 H 0.1255 -0.0151 0.4635
S3 S 0.49132(6) 0.19368(3) 0.49191(3)
S4 S 0.28505(6) 0.29593(3) 0.39107(3)
O3 O 0.49884(19) 0.13910(9) 0.42450(8)
O4 O 0.39757(17) 0.36142(8) 0.41079(8)
C14 C 0.2918(2) 0.23495(10) 0.47830(10)
H13 H 0.2699 0.2664 0.5245
H14 H 0.2113 0.1931 0.4712
C15 C 0.4548(2) 0.13864(10) 0.57708(10)
C16 C 0.4973(2) 0.17217(11) 0.64956(11)
H15 H 0.5487 0.2213 0.6533
C17 C 0.4632(3) 0.13243(12) 0.71669(11)
H16 H 0.4891 0.1550 0.7668
C18 C 0.3916(2) 0.06008(12) 0.71060(12)
H17 H 0.3671 0.0335 0.7566
C19 C 0.3554(2) 0.02628(11) 0.63801(12)
H18 H 0.3087 -0.0240 0.6344
C20 C 0.3872(2) 0.06544(11) 0.57028(11)
H19 H 0.3628 0.0424 0.5202
C21 C 0.0874(2) 0.33204(10) 0.39779(10)
C22 C -0.0427(2) 0.28285(10) 0.38143(10)
H20 H -0.0276 0.2294 0.3701
C23 C -0.1946(2) 0.31345(11) 0.38202(11)
H21 H -0.2847 0.2806 0.3722
C24 C -0.2157(2) 0.39202(12) 0.39694(11)
H22 H -0.3202 0.4127 0.3966
C25 C -0.0852(3) 0.44035(11) 0.41228(11)
H23 H -0.1003 0.4940 0.4225
C26 C 0.0681(2) 0.41032(11) 0.41268(10)
H24 H 0.1582 0.4431 0.4230
loop_
_geom_bond_atom_site_label_1
_geom_bond_atom_site_label_2
_geom_bond_site_symmetry_1
_geom_bond_site_symmetry_2
S1 O1 1_555 1_555
S2 O2 1_555 1_555
S3 O3 1_555 1_555
S4 O4 1_555 1_555
C1 S1 1_555 1_555
H1 C1 1_555 1_555
H2 C1 1_555 1_555
C2 S1 1_555 1_555
C3 C2 1_555 1_555
H3 C3 1_555 1_555
C4 C3 1_555 1_555
H4 C4 1_555 1_555
C5 C4 1_555 1_555
H5 C5 1_555 1_555
C6 C5 1_555 1_555
H6 C6 1_555 1_555
C7 C2 1_555 1_555
H7 C7 1_555 1_555
C8 S2 1_555 1_555
C9 C8 1_555 1_555
H8 C9 1_555 1_555
C10 C9 1_555 1_555
H9 C10 1_555 1_555
C11 C10 1_555 1_555
H10 C11 1_555 1_555
C12 C11 1_555 1_555
H11 C12 1_555 1_555
C13 C8 1_555 1_555
H12 C13 1_555 1_555
C14 S3 1_555 1_555
H13 C14 1_555 1_555
H14 C14 1_555 1_555
C15 S3 1_555 1_555
C16 C15 1_555 1_555
H15 C16 1_555 1_555
C17 C16 1_555 1_555
H16 C17 1_555 1_555
C18 C17 1_555 1_555
H17 C18 1_555 1_555
C19 C18 1_555 1_555
H18 C19 1_555 1_555
C20 C15 1_555 1_555
H19 C20 1_555 1_555
C21 S4 1_555 1_555
C22 C21 1_555 1_555
H20 C22 1_555 1_555
C23 C22 1_555 1_555
H21 C23 1_555 1_555
C24 C23 1_555 1_555
H22 C24 1_555 1_555
C25 C24 1_555 1_555
H23 C25 1_555 1_555
C26 C21 1_555 1_555
H24 C26 1_555 1_555
S2 C1 1_555 1_555
S4 C14 1_555 1_555
C6 C7 1_555 1_555
C12 C13 1_555 1_555
C19 C20 1_555 1_555
C25 C26 1_555 1_555

#END
