
#######################################################################
#
#                 Cambridge Crystallographic Data Centre
#                                CCDC 
#
#######################################################################
#
# If this CIF has been generated from an entry in the Cambridge 
# Structural Database, then it will include bibliographic, chemical, 
# crystal, experimental, refinement or atomic coordinate data resulting 
# from the CCDC's data processing and validation procedures.
#
#######################################################################

data_GADVUF
_chemical_formula_moiety         'C28 H30 N2 O4 S2'
_chemical_name_systematic        
(R,S,R)-2,5-bis((4-Methylphenyl)sulfonyl)-4-phenyl-1,2,3,3a,4,5,6,8a-octahydropyrrolo[3,4-c]azepine
_symmetry_cell_setting           orthorhombic
_symmetry_space_group_name_H-M   'P 21 21 21'
_symmetry_Int_Tables_number      19
_space_group_name_Hall           'P 2ac 2ab'
loop_
_symmetry_equiv_pos_site_id
_symmetry_equiv_pos_as_xyz
1 x,y,z
2 1/2-x,-y,1/2+z
3 -x,1/2+y,1/2-z
4 1/2+x,1/2-y,-z
_cell_length_a                   8.1151(6)
_cell_length_b                   13.8183(10)
_cell_length_c                   23.5625(17)
_cell_angle_alpha                90
_cell_angle_beta                 90
_cell_angle_gamma                90
_cell_volume                     2642.23
_exptl_crystal_colour            colorless
_exptl_crystal_description       block
_cell_formula_units_Z            4
loop_
_atom_site_label
_atom_site_type_symbol
_atom_site_fract_x
_atom_site_fract_y
_atom_site_fract_z
S1 S 1.08958(9) 1.37858(6) 0.96875(3)
S2 S 0.79899(9) 0.91737(5) 0.82913(3)
O1 O 0.9443(3) 1.43469(16) 0.95955(10)
O2 O 1.1557(3) 1.36811(18) 1.02476(8)
O3 O 0.6362(2) 0.95505(16) 0.83580(11)
O4 O 0.8351(3) 0.85342(16) 0.78315(9)
N1 N 1.0484(3) 1.27019(18) 0.94622(10)
N2 N 0.9201(3) 1.01029(16) 0.82440(9)
C1 C 1.2476(3) 1.4228(2) 0.92498(12)
C2 C 1.2114(5) 1.4709(2) 0.87497(15)
H1 H 1.1029 1.4844 0.8651
C3 C 1.3398(5) 1.4984(3) 0.84000(16)
H2 H 1.3159 1.5301 0.8062
C4 C 1.5024(5) 1.4804(3) 0.85362(16)
C5 C 1.5340(4) 1.4337(3) 0.90377(15)
H3 H 1.6428 1.4218 0.9140
C6 C 1.4099(4) 1.4038(2) 0.93943(13)
H4 H 1.4346 1.3713 0.9729
C7 C 1.6396(6) 1.5093(4) 0.8142(2)
H5 H 1.5940 1.5389 0.7809
H6 H 1.7014 1.4529 0.8035
H7 H 1.7109 1.5545 0.8330
C8 C 1.1811(4) 1.1974(2) 0.94643(13)
H8 H 1.2093 1.1784 0.9848
H9 H 1.2790 1.2217 0.9276
C9 C 1.1059(3) 1.1133(2) 0.91366(11)
H10 H 1.0306 1.0779 0.9387
C10 C 1.2327(4) 1.0446(2) 0.89109(14)
H11 H 1.3258 1.0346 0.9133
C11 C 1.2250(4) 0.9975(2) 0.84310(15)
H12 H 1.3158 0.9595 0.8340
C12 C 1.0860(4) 0.9977(2) 0.80107(13)
H13 H 1.1058 1.0491 0.7739
H14 H 1.0888 0.9370 0.7804
C13 C 0.8618(3) 1.10678(19) 0.84453(11)
H15 H 0.7869 1.0950 0.8764
C14 C 1.0053(3) 1.1649(2) 0.86748(12)
H16 H 1.0790 1.1808 0.8359
C15 C 0.9467(4) 1.2588(2) 0.89449(13)
H17 H 0.9631 1.3129 0.8689
H18 H 0.8307 1.2549 0.9042
C16 C 0.7644(3) 1.1614(2) 0.79998(12)
C17 C 0.6001(4) 1.1816(2) 0.80925(15)
H19 H 0.5490 1.1600 0.8422
C18 C 0.5112(5) 1.2338(3) 0.76987(19)
H20 H 0.4010 1.2479 0.7769
C19 C 0.5821(5) 1.2651(3) 0.72073(18)
H21 H 0.5206 1.2987 0.6939
C20 C 0.7448(5) 1.2464(3) 0.71176(16)
H22 H 0.7949 1.2681 0.6786
C21 C 0.8358(4) 1.1960(2) 0.75086(13)
H23 H 0.9472 1.1850 0.7442
C22 C 0.8446(4) 0.8540(2) 0.89212(13)
C23 C 0.8258(5) 0.8983(2) 0.94415(14)
H24 H 0.7979 0.9635 0.9460
C24 C 0.8483(5) 0.8462(3) 0.99316(16)
H25 H 0.8378 0.8776 1.0279
C25 C 0.8857(5) 0.7491(3) 0.99260(19)
C26 C 0.9043(6) 0.7060(3) 0.94095(19)
H26 H 0.9308 0.6405 0.9393
C27 C 0.8850(5) 0.7571(2) 0.89093(17)
H27 H 0.8992 0.7259 0.8563
C28 C 0.9008(7) 0.6922(4) 1.0475(2)
H28 H 0.8832 0.7347 1.0791
H29 H 1.0090 0.6644 1.0499
H30 H 0.8199 0.6415 1.0480
loop_
_geom_bond_atom_site_label_1
_geom_bond_atom_site_label_2
_geom_bond_site_symmetry_1
_geom_bond_site_symmetry_2
S1 O1 1_555 1_555
S2 O3 1_555 1_555
O2 S1 1_555 1_555
O4 S2 1_555 1_555
N1 S1 1_555 1_555
N2 S2 1_555 1_555
C1 S1 1_555 1_555
C2 C1 1_555 1_555
H1 C2 1_555 1_555
C3 C2 1_555 1_555
H2 C3 1_555 1_555
C4 C3 1_555 1_555
C5 C4 1_555 1_555
H3 C5 1_555 1_555
C6 C1 1_555 1_555
H4 C6 1_555 1_555
C7 C4 1_555 1_555
H5 C7 1_555 1_555
H6 C7 1_555 1_555
H7 C7 1_555 1_555
C8 N1 1_555 1_555
H8 C8 1_555 1_555
H9 C8 1_555 1_555
C9 C8 1_555 1_555
H10 C9 1_555 1_555
C10 C9 1_555 1_555
H11 C10 1_555 1_555
C11 C10 1_555 1_555
H12 C11 1_555 1_555
C12 N2 1_555 1_555
H13 C12 1_555 1_555
H14 C12 1_555 1_555
C13 N2 1_555 1_555
H15 C13 1_555 1_555
C14 C9 1_555 1_555
H16 C14 1_555 1_555
C15 N1 1_555 1_555
H17 C15 1_555 1_555
H18 C15 1_555 1_555
C16 C13 1_555 1_555
C17 C16 1_555 1_555
H19 C17 1_555 1_555
C18 C17 1_555 1_555
H20 C18 1_555 1_555
C19 C18 1_555 1_555
H21 C19 1_555 1_555
C20 C19 1_555 1_555
H22 C20 1_555 1_555
C21 C16 1_555 1_555
H23 C21 1_555 1_555
C22 S2 1_555 1_555
C23 C22 1_555 1_555
H24 C23 1_555 1_555
C24 C23 1_555 1_555
H25 C24 1_555 1_555
C25 C24 1_555 1_555
C26 C25 1_555 1_555
H26 C26 1_555 1_555
C27 C22 1_555 1_555
H27 C27 1_555 1_555
C28 C25 1_555 1_555
H28 C28 1_555 1_555
H29 C28 1_555 1_555
H30 C28 1_555 1_555
C5 C6 1_555 1_555
C11 C12 1_555 1_555
C13 C14 1_555 1_555
C14 C15 1_555 1_555
C20 C21 1_555 1_555
C26 C27 1_555 1_555

#END
