
#######################################################################
#
#                 Cambridge Crystallographic Data Centre
#                                CCDC 
#
#######################################################################
#
# If this CIF has been generated from an entry in the Cambridge 
# Structural Database, then it will include bibliographic, chemical, 
# crystal, experimental, refinement or atomic coordinate data resulting 
# from the CCDC's data processing and validation procedures.
#
#######################################################################

data_GADVAK
_chemical_formula_moiety         'C19 H21 N3 Se2'
_chemical_name_systematic        
8,9,10,11-Tetrahydro-7H-dibenzo[d,o][1,3,7,10,13]diselenatriazacyclohexadecine
_symmetry_cell_setting           monoclinic
_symmetry_space_group_name_H-M   'P 21/c'
_symmetry_Int_Tables_number      14
_space_group_name_Hall           '-P 2ybc'
loop_
_symmetry_equiv_pos_site_id
_symmetry_equiv_pos_as_xyz
1 x,y,z
2 -x,1/2+y,1/2-z
3 -x,-y,-z
4 x,1/2-y,1/2+z
_cell_length_a                   17.8402(7)
_cell_length_b                   5.43560(10)
_cell_length_c                   20.6628(8)
_cell_angle_alpha                90
_cell_angle_beta                 114.833(5)
_cell_angle_gamma                90
_cell_volume                     1818.44
_exptl_crystal_colour            colorless
_exptl_crystal_description       needle
_chemical_melting_point          168-170deg.C
_cell_formula_units_Z            4
loop_
_atom_site_label
_atom_site_type_symbol
_atom_site_fract_x
_atom_site_fract_y
_atom_site_fract_z
Se1 Se 0.256084(16) 0.69228(4) 0.154707(13)
Se2 Se 0.156743(15) 0.26880(4) 0.191443(13)
N1 N 0.42992(13) 0.0933(3) 0.28072(10)
N2 N 0.32602(13) -0.0478(3) 0.35842(11)
H1 H 0.3070(14) -0.012(4) 0.3160(11)
N3 N 0.14938(13) -0.0916(3) 0.28159(10)
C1 C 0.15155(15) 0.5103(4) 0.11910(12)
H2 H 0.1425 0.4254 0.0740
H3 H 0.1051 0.6252 0.1096
C2 C 0.31445(14) 0.4607(4) 0.12128(12)
C3 C 0.29917(15) 0.4722(4) 0.04941(12)
H4 H 0.2640 0.5968 0.0200
C4 C 0.33489(15) 0.3034(4) 0.02051(13)
H5 H 0.3242 0.3116 -0.0285
C5 C 0.38648(15) 0.1224(4) 0.06403(13)
H6 H 0.4103 0.0044 0.0444
C6 C 0.40326(15) 0.1128(4) 0.13499(12)
H7 H 0.4389 -0.0118 0.1640
C7 C 0.36886(14) 0.2834(4) 0.16573(11)
C8 C 0.39267(14) 0.2746(4) 0.24324(12)
H8 H 0.3794 0.4103 0.2655
C9 C 0.45430(15) 0.1064(4) 0.35753(12)
H9 H 0.4380 0.2678 0.3698
H10 H 0.5151 0.0913 0.3831
C10 C 0.41349(15) -0.0973(4) 0.38085(12)
H11 H 0.4203 -0.2551 0.3600
H12 H 0.4408 -0.1130 0.4334
C11 C 0.28100(16) -0.2591(4) 0.36735(13)
H13 H 0.3096 -0.3227 0.4166
H14 H 0.2803 -0.3914 0.3342
C12 C 0.19380(16) -0.1908(5) 0.35305(13)
H15 H 0.1645 -0.3383 0.3587
H16 H 0.1946 -0.0670 0.3884
C13 C 0.08025(17) -0.1848(4) 0.24197(13)
H17 H 0.0607 -0.3203 0.2595
C14 C 0.02935(15) -0.0934(4) 0.17066(12)
C15 C -0.04540(16) -0.2102(4) 0.13168(13)
H18 H -0.0602 -0.3485 0.1519
C16 C -0.09906(16) -0.1321(4) 0.06439(13)
H19 H -0.1496 -0.2164 0.0385
C17 C -0.07790(16) 0.0697(4) 0.03567(13)
H20 H -0.1144 0.1274 -0.0102
C18 C -0.00362(16) 0.1894(4) 0.07328(13)
H21 H 0.0098 0.3293 0.0527
C19 C 0.05195(15) 0.1098(4) 0.14054(12)
loop_
_geom_bond_atom_site_label_1
_geom_bond_atom_site_label_2
_geom_bond_site_symmetry_1
_geom_bond_site_symmetry_2
Se1 C1 1_555 1_555
Se2 C1 1_555 1_555
N1 C8 1_555 1_555
N2 H1 1_555 1_555
N3 C12 1_555 1_555
C1 H2 1_555 1_555
H3 C1 1_555 1_555
C2 Se1 1_555 1_555
C3 C2 1_555 1_555
H4 C3 1_555 1_555
C4 C3 1_555 1_555
H5 C4 1_555 1_555
C5 C4 1_555 1_555
H6 C5 1_555 1_555
C6 C5 1_555 1_555
H7 C6 1_555 1_555
C7 C2 1_555 1_555
C8 C7 1_555 1_555
H8 C8 1_555 1_555
C9 N1 1_555 1_555
H9 C9 1_555 1_555
H10 C9 1_555 1_555
C10 N2 1_555 1_555
H11 C10 1_555 1_555
H12 C10 1_555 1_555
C11 N2 1_555 1_555
H13 C11 1_555 1_555
H14 C11 1_555 1_555
C12 C11 1_555 1_555
H15 C12 1_555 1_555
H16 C12 1_555 1_555
C13 N3 1_555 1_555
H17 C13 1_555 1_555
C14 C13 1_555 1_555
C15 C14 1_555 1_555
H18 C15 1_555 1_555
C16 C15 1_555 1_555
H19 C16 1_555 1_555
C17 C16 1_555 1_555
H20 C17 1_555 1_555
C18 C17 1_555 1_555
H21 C18 1_555 1_555
C19 Se2 1_555 1_555
C6 C7 1_555 1_555
C9 C10 1_555 1_555
C14 C19 1_555 1_555
C18 C19 1_555 1_555

#END
