
#######################################################################
#
#                 Cambridge Crystallographic Data Centre
#                                CCDC 
#
#######################################################################
#
# If this CIF has been generated from an entry in the Cambridge 
# Structural Database, then it will include bibliographic, chemical, 
# crystal, experimental, refinement or atomic coordinate data resulting 
# from the CCDC's data processing and validation procedures.
#
#######################################################################

data_GADVEN
_chemical_compound_source        'Indonesian lichen Usnea dasypoga Rohl'
_chemical_name_common            
'4,12,20-Trihydroxy-3,5,8,11,13,16,19,21,24-nonamethyl-1,9,17-trioxacyclotetracosane-2,10,18-trione methanol solvate monohydrate'
_chemical_formula_moiety         'C30 H54 O9,2(C1 H4 O1),H2 O1'
_chemical_name_systematic        'Dasypogalactone methanol solvate monohydrate'
_symmetry_cell_setting           orthorhombic
_symmetry_space_group_name_H-M   'P 21 21 21'
_symmetry_Int_Tables_number      19
_space_group_name_Hall           'P 2ac 2ab'
loop_
_symmetry_equiv_pos_site_id
_symmetry_equiv_pos_as_xyz
1 x,y,z
2 1/2-x,-y,1/2+z
3 -x,1/2+y,1/2-z
4 1/2+x,1/2-y,-z
_cell_length_a                   8.8977(14)
_cell_length_b                   19.524(3)
_cell_length_c                   21.445(3)
_cell_angle_alpha                90
_cell_angle_beta                 90
_cell_angle_gamma                90
_cell_volume                     3725.4
_exptl_crystal_colour            colorless
_exptl_crystal_description       block
_cell_formula_units_Z            4
_exptl_crystal_recrystallization_method dichloromethane/methanol
loop_
_atom_site_label
_atom_site_type_symbol
_atom_site_fract_x
_atom_site_fract_y
_atom_site_fract_z
O1 O -0.0931(4) 1.0277(2) -0.26806(18)
O2 O -0.2940(5) 0.9607(2) -0.2519(2)
O3 O -0.0506(4) 0.9515(2) -0.13037(18)
H1 H -0.1309 0.9627 -0.1124
O4 O 0.1150(4) 0.7852(2) 0.04383(19)
O5 O -0.0325(5) 0.7908(2) 0.12820(19)
O6 O 0.0238(5) 0.9389(2) 0.05163(18)
H2 H 0.0768 0.9658 0.0304
O7 O 0.0170(4) 1.20544(19) 0.08711(17)
O8 O -0.2215(5) 1.1860(2) 0.05796(18)
O9 O -0.0623(5) 1.1075(2) -0.04613(15)
H3 H 0.0033 1.0925 -0.0708
C1 C -0.1602(8) 0.9694(4) -0.2521(3)
C2 C -0.0505(7) 0.9135(3) -0.2364(2)
H4 H 0.0535 0.9324 -0.2396
C3 C -0.0650(7) 0.8536(3) -0.2819(2)
H5 H -0.1627 0.8313 -0.2761
H6 H 0.0155 0.8205 -0.2740
H7 H -0.0570 0.8707 -0.3248
C4 C -0.0770(7) 0.8909(3) -0.1691(2)
H8 H -0.1848 0.8771 -0.1646
C5 C 0.0213(7) 0.8318(3) -0.1466(3)
H9 H -0.0048 0.7903 -0.1717
C6 C 0.1873(7) 0.8451(3) -0.1543(3)
H10 H 0.2154 0.8861 -0.1307
H11 H 0.2101 0.8522 -0.1986
H12 H 0.2442 0.8057 -0.1387
C7 C -0.0119(7) 0.8163(3) -0.0787(2)
H13 H 0.0387 0.8514 -0.0528
H14 H -0.1214 0.8213 -0.0720
C8 C 0.0347(7) 0.7469(3) -0.0553(3)
H15 H 0.1425 0.7399 -0.0647
H16 H -0.0229 0.7114 -0.0780
C9 C 0.0102(7) 0.7377(3) 0.0136(3)
H17 H -0.0953 0.7507 0.0244
C10 C 0.0412(7) 0.6651(3) 0.0362(2)
H18 H 0.1403 0.6504 0.0214
H19 H -0.0359 0.6341 0.0199
H20 H 0.0393 0.6641 0.0819
C11 C 0.0740(8) 0.8112(4) 0.0988(3)
C12 C 0.1748(7) 0.8686(3) 0.1191(3)
H21 H 0.2632 0.8715 0.0905
C13 C 0.2289(7) 0.8572(3) 0.1855(2)
H22 H 0.1426 0.8575 0.2139
H23 H 0.2987 0.8938 0.1972
H24 H 0.2802 0.8129 0.1882
C14 C 0.0838(7) 0.9346(3) 0.1150(2)
H25 H -0.0047 0.9285 0.1432
C15 C 0.1576(7) 1.0013(3) 0.1339(2)
H26 H 0.1787 0.9978 0.1796
C16 C 0.3102(7) 1.0128(3) 0.1015(2)
H27 H 0.2953 1.0152 0.0563
H28 H 0.3779 0.9747 0.1114
H29 H 0.3545 1.0558 0.1162
C17 C 0.0538(6) 1.0610(3) 0.1256(3)
H30 H -0.0496 1.0454 0.1349
H31 H 0.0561 1.0745 0.0811
C18 C 0.0857(7) 1.1245(3) 0.1648(2)
H32 H 0.0747 1.1124 0.2094
H33 H 0.1914 1.1385 0.1580
C19 C -0.0144(7) 1.1841(3) 0.1508(2)
H34 H -0.1218 1.1694 0.1541
C20 C 0.0123(7) 1.2439(3) 0.1937(2)
H35 H 0.1147 1.2611 0.1877
H36 H -0.0004 1.2291 0.2371
H37 H -0.0600 1.2803 0.1843
C21 C -0.0912(8) 1.2026(3) 0.0463(3)
C22 C -0.0426(7) 1.2242(3) -0.0182(2)
H38 H 0.0694 1.2207 -0.0205
C23 C -0.0862(7) 1.2989(3) -0.0300(2)
H39 H -0.1959 1.3028 -0.0321
H40 H -0.0425 1.3142 -0.0696
H41 H -0.0482 1.3276 0.0040
C24 C -0.1093(7) 1.1750(3) -0.0659(2)
H42 H -0.2212 1.1773 -0.0623
C25 C -0.0681(6) 1.1876(3) -0.1342(3)
H43 H -0.1100 1.2331 -0.1467
C26 C 0.1029(6) 1.1896(3) -0.1438(2)
H44 H 0.1476 1.1473 -0.1276
H45 H 0.1450 1.2290 -0.1215
H46 H 0.1251 1.1937 -0.1884
C27 C -0.1407(7) 1.1323(3) -0.1756(2)
H47 H -0.0910 1.0880 -0.1668
H48 H -0.2476 1.1277 -0.1634
C28 C -0.1336(7) 1.1454(3) -0.2464(2)
H49 H -0.1949 1.1862 -0.2566
H50 H -0.0284 1.1552 -0.2585
C29 C -0.1896(7) 1.0856(3) -0.2827(3)
H51 H -0.2958 1.0752 -0.2710
C30 C -0.1781(6) 1.0975(3) -0.3525(2)
H52 H -0.0737 1.1079 -0.3636
H53 H -0.2425 1.1361 -0.3643
H54 H -0.2108 1.0563 -0.3747
C31 C -0.3127(8) 1.0062(3) 0.0032(2)
H55 H -0.2249 0.9848 0.0227
H56 H -0.4023 0.9786 0.0118
H57 H -0.3265 1.0523 0.0202
O10 O -0.2907(6) 1.0102(3) -0.06082(19)
H58 H -0.2108 1.0318 -0.0682
C32 C -0.5930(10) 1.0304(4) -0.1713(3)
H59 H -0.6963 1.0144 -0.1776
H60 H -0.5231 0.9991 -0.1921
H61 H -0.5820 1.0764 -0.1889
O11 O -0.5616(7) 1.0322(4) -0.1082(2)
H62 H -0.6361 1.0176 -0.0882
O12 O -0.8376(4) 1.0096(2) -0.05529(16)
loop_
_geom_bond_atom_site_label_1
_geom_bond_atom_site_label_2
_geom_bond_site_symmetry_1
_geom_bond_site_symmetry_2
O1 C1 1_555 1_555
O2 C1 1_555 1_555
O3 H1 1_555 1_555
O4 C9 1_555 1_555
O5 C11 1_555 1_555
O6 H2 1_555 1_555
O7 C19 1_555 1_555
O8 C21 1_555 1_555
O9 H3 1_555 1_555
C1 C2 1_555 1_555
C2 H4 1_555 1_555
C3 C2 1_555 1_555
H5 C3 1_555 1_555
H6 C3 1_555 1_555
H7 C3 1_555 1_555
C4 O3 1_555 1_555
H8 C4 1_555 1_555
C5 C4 1_555 1_555
H9 C5 1_555 1_555
C6 C5 1_555 1_555
H10 C6 1_555 1_555
H11 C6 1_555 1_555
H12 C6 1_555 1_555
C7 C5 1_555 1_555
H13 C7 1_555 1_555
H14 C7 1_555 1_555
C8 C7 1_555 1_555
H15 C8 1_555 1_555
H16 C8 1_555 1_555
C9 C8 1_555 1_555
H17 C9 1_555 1_555
C10 C9 1_555 1_555
H18 C10 1_555 1_555
H19 C10 1_555 1_555
H20 C10 1_555 1_555
C11 O4 1_555 1_555
C12 C11 1_555 1_555
H21 C12 1_555 1_555
C13 C12 1_555 1_555
H22 C13 1_555 1_555
H23 C13 1_555 1_555
H24 C13 1_555 1_555
C14 O6 1_555 1_555
H25 C14 1_555 1_555
C15 C14 1_555 1_555
H26 C15 1_555 1_555
C16 C15 1_555 1_555
H27 C16 1_555 1_555
H28 C16 1_555 1_555
H29 C16 1_555 1_555
C17 C15 1_555 1_555
H30 C17 1_555 1_555
H31 C17 1_555 1_555
C18 C17 1_555 1_555
H32 C18 1_555 1_555
H33 C18 1_555 1_555
C19 C18 1_555 1_555
H34 C19 1_555 1_555
C20 C19 1_555 1_555
H35 C20 1_555 1_555
H36 C20 1_555 1_555
H37 C20 1_555 1_555
C21 O7 1_555 1_555
C22 C21 1_555 1_555
H38 C22 1_555 1_555
C23 C22 1_555 1_555
H39 C23 1_555 1_555
H40 C23 1_555 1_555
H41 C23 1_555 1_555
C24 O9 1_555 1_555
H42 C24 1_555 1_555
C25 C24 1_555 1_555
H43 C25 1_555 1_555
C26 C25 1_555 1_555
H44 C26 1_555 1_555
H45 C26 1_555 1_555
H46 C26 1_555 1_555
C27 C25 1_555 1_555
H47 C27 1_555 1_555
H48 C27 1_555 1_555
C28 C27 1_555 1_555
H49 C28 1_555 1_555
H50 C28 1_555 1_555
C29 O1 1_555 1_555
H51 C29 1_555 1_555
C30 C29 1_555 1_555
H52 C30 1_555 1_555
H53 C30 1_555 1_555
H54 C30 1_555 1_555
C31 H55 1_555 1_555
H56 C31 1_555 1_555
H57 C31 1_555 1_555
O10 C31 1_555 1_555
H58 O10 1_555 1_555
C32 H59 1_555 1_555
H60 C32 1_555 1_555
H61 C32 1_555 1_555
O11 C32 1_555 1_555
H62 O11 1_555 1_555
C2 C4 1_555 1_555
C12 C14 1_555 1_555
C22 C24 1_555 1_555
C28 C29 1_555 1_555

#END
