
#######################################################################
#
#                 Cambridge Crystallographic Data Centre
#                                CCDC 
#
#######################################################################
#
# If this CIF has been generated from an entry in the Cambridge 
# Structural Database, then it will include bibliographic, chemical, 
# crystal, experimental, refinement or atomic coordinate data resulting 
# from the CCDC's data processing and validation procedures.
#
#######################################################################

data_GADYUI
_chemical_formula_moiety         'C4 H12 N1 O3 1+,C7 H5 O6 S1 1-,0.5(H2 O1)'
_chemical_name_systematic        
'1,3-dihydroxy-2-(hydroxymethyl)propan-2-aminium 3-carboxy-4-hydroxybenzenesulfonate hemihydrate'
_symmetry_cell_setting           triclinic
_symmetry_space_group_name_H-M   'P -1'
_symmetry_Int_Tables_number      2
_space_group_name_Hall           '-P 1'
loop_
_symmetry_equiv_pos_site_id
_symmetry_equiv_pos_as_xyz
1 x,y,z
2 -x,-y,-z
_cell_length_a                   6.6081(4)
_cell_length_b                   7.1635(4)
_cell_length_c                   15.2876(9)
_cell_angle_alpha                99.781(2)
_cell_angle_beta                 98.453(2)
_cell_angle_gamma                90.510(2)
_cell_volume                     704.979
_exptl_crystal_description       plate
_cell_formula_units_Z            2
loop_
_atom_site_label
_atom_site_type_symbol
_atom_site_fract_x
_atom_site_fract_y
_atom_site_fract_z
S1 S 0.68575(5) 0.88455(5) 0.77243(2)
O1 O 0.49811(18) 0.65266(17) 0.34703(7)
O2 O 0.78083(17) 0.60774(17) 0.44049(8)
H1 H 0.821(4) 0.557(3) 0.3905(16)
O3 O 0.18502(18) 0.79564(18) 0.41469(8)
H2 H 0.265(4) 0.753(3) 0.3760(17)
O4 O 0.65977(19) 1.08008(17) 0.81249(8)
O5 O 0.6138(2) 0.74896(19) 0.82223(8)
O6 O 0.89885(17) 0.85436(17) 0.75765(8)
C1 C 0.5051(2) 0.7467(2) 0.50440(9)
C2 C 0.3022(2) 0.8064(2) 0.49533(10)
C3 C 0.2172(2) 0.8814(2) 0.57199(10)
H3 H 0.0788 0.9184 0.5663
C4 C 0.3342(2) 0.9015(2) 0.65546(10)
H4 H 0.2763 0.9527 0.7073
C5 C 0.5383(2) 0.84700(19) 0.66448(9)
C6 C 0.6225(2) 0.7686(2) 0.58983(9)
H5 H 0.7601 0.7295 0.5963
C7 C 0.5932(2) 0.6653(2) 0.42344(10)
O7 O 0.80853(19) 0.90492(17) 0.13346(9)
H6 H 0.911(4) 0.965(4) 0.1655(17)
O8 O 0.68679(19) 0.34956(17) 0.00588(8)
H7 H 0.638(4) 0.252(4) -0.0042(16)
O9 O 0.89210(18) 0.46157(16) 0.28587(7)
H8 H 0.961(4) 0.369(3) 0.2745(15)
N1 N 0.58559(18) 0.59122(17) 0.15745(8)
H9 H 0.5592 0.5187 0.1982
H10 H 0.5008 0.5530 0.1047
H11 H 0.5644 0.7149 0.1788
C8 C 0.8043(2) 0.5700(2) 0.14204(9)
C9 C 0.8222(2) 0.3723(2) 0.08896(10)
H12 H 0.9648 0.3539 0.0774
H13 H 0.7872 0.2759 0.1242
C10 C 0.9430(2) 0.5949(2) 0.23282(10)
H14 H 1.0871 0.5798 0.2229
H15 H 0.9308 0.7248 0.2658
C11 C 0.8575(2) 0.7239(2) 0.09043(10)
H16 H 1.0056 0.7226 0.0862
H17 H 0.7809 0.6973 0.0287
O10 O 0.5000(2) 0.0000(2) 0.00000(10)
H18 H 0.4667 0.0388 0.0454
H18A H 0.5333 -0.0388 -0.0454
H19? H 0.3694 0.0271 -0.0378
loop_
_geom_bond_atom_site_label_1
_geom_bond_atom_site_label_2
_geom_bond_site_symmetry_1
_geom_bond_site_symmetry_2
S1 O4 1_555 1_555
O1 C7 1_555 1_555
O2 H1 1_555 1_555
O3 H2 1_555 1_555
O5 S1 1_555 1_555
O6 S1 1_555 1_555
C1 C2 1_555 1_555
C2 O3 1_555 1_555
C3 C2 1_555 1_555
H3 C3 1_555 1_555
C4 C3 1_555 1_555
H4 C4 1_555 1_555
C5 S1 1_555 1_555
C6 C1 1_555 1_555
H5 C6 1_555 1_555
C7 O2 1_555 1_555
O7 H6 1_555 1_555
O8 H7 1_555 1_555
O9 H8 1_555 1_555
N1 H9 1_555 1_555
H10 N1 1_555 1_555
H11 N1 1_555 1_555
C8 N1 1_555 1_555
C9 O8 1_555 1_555
H12 C9 1_555 1_555
H13 C9 1_555 1_555
C10 O9 1_555 1_555
H14 C10 1_555 1_555
H15 C10 1_555 1_555
C11 O7 1_555 1_555
H16 C11 1_555 1_555
H17 C11 1_555 1_555
O10 H18 1_555 1_555
H18A O10 1_555 1_555
C1 C7 1_555 1_555
C4 C5 1_555 1_555
C5 C6 1_555 1_555
C8 C9 1_555 1_555
C8 C10 1_555 1_555
C8 C11 1_555 1_555

#END
