
#######################################################################
#
#                 Cambridge Crystallographic Data Centre
#                                CCDC 
#
#######################################################################
#
# If this CIF has been generated from an entry in the Cambridge 
# Structural Database, then it will include bibliographic, chemical, 
# crystal, experimental, refinement or atomic coordinate data resulting 
# from the CCDC's data processing and validation procedures.
#
#######################################################################

data_GAFGIE
_chemical_formula_moiety         'C12 H36 N6 6+,6(Cl1 1-),4(H2 O1)'
_chemical_name_systematic        
'1,4,7,10,13,16-Hexa-azoniacyclo-octadecane hexachloride tetrahydrate'
_symmetry_cell_setting           triclinic
_symmetry_space_group_name_H-M   'P -1'
_symmetry_Int_Tables_number      2
_space_group_name_Hall           '-P 1'
loop_
_symmetry_equiv_pos_site_id
_symmetry_equiv_pos_as_xyz
1 x,y,z
2 -x,-y,-z
_cell_length_a                   7.2793(2)
_cell_length_b                   8.0716(3)
_cell_length_c                   11.4099(3)
_cell_angle_alpha                87.859(2)
_cell_angle_beta                 77.590(2)
_cell_angle_gamma                88.2340(10)
_cell_volume                     654.096
_cell_formula_units_Z            1
loop_
_atom_site_label
_atom_site_type_symbol
_atom_site_fract_x
_atom_site_fract_y
_atom_site_fract_z
Cl1 Cl 0.92131(9) -0.57213(8) 0.78763(5)
O1 O 0.8017(5) 0.4973(4) 0.4707(2)
H20 H 0.785(7) 0.403(6) 0.467(4)
H21 H 0.896(6) 0.511(6) 0.437(4)
N1 N 0.6254(3) 0.0017(3) 0.69266(18)
C1 C 0.5798(3) 0.1649(3) 0.7514(2)
N2 N 0.7633(3) -0.2322(3) 0.87966(17)
C2 C 0.8227(3) -0.0611(3) 0.6896(2)
N3 N 0.6643(3) -0.3871(3) 1.20328(17)
C3 C 0.8698(4) -0.0903(3) 0.8115(2)
C4 C 0.7977(4) -0.2539(3) 1.0041(2)
C5 C 0.6674(4) -0.3849(3) 1.0720(2)
C6 C 0.3898(4) 0.2285(3) 0.7333(2)
H1 H 0.291(4) 0.154(3) 0.763(2)
H2 H 0.681(4) 0.247(3) 0.714(2)
H3 H 0.770(3) -0.147(3) 1.041(2)
H4 H 0.839(3) -0.164(3) 0.6438(19)
H5 H 0.842(3) 0.004(3) 0.861(2)
H6 H 0.798(4) -0.324(3) 0.844(2)
H7 H 0.538(4) -0.364(3) 1.064(2)
H8 H 1.007(4) -0.126(3) 0.7956(19)
H9 H 0.577(4) 0.148(3) 0.837(2)
H10 H 0.591(4) -0.466(3) 1.240(2)
H11 H 0.777(4) -0.418(3) 1.2151(19)
H12 H 0.928(4) -0.283(3) 0.999(2)
H13 H 0.715(3) -0.491(3) 1.045(2)
H14 H 0.633(4) -0.212(4) 0.887(2)
H15 H 0.533(4) -0.077(4) 0.731(3)
H16 H 0.391(4) 0.253(3) 0.650(3)
H17 H 0.904(3) 0.020(3) 0.6434(19)
H22 H 0.610(4) 0.019(3) 0.614(3)
N3A N 0.3357(3) 0.3871(3) 0.79672(17)
C5A C 0.3326(4) 0.3849(3) 0.9280(2)
C4A C 0.2023(4) 0.2539(3) 0.9959(2)
N2A N 0.2367(3) 0.2322(3) 1.12034(17)
C3A C 0.1302(4) 0.0903(3) 1.1885(2)
C2A C 0.1773(3) 0.0611(3) 1.3104(2)
N1A N 0.3746(3) -0.0017(3) 1.30734(18)
C1A C 0.4202(3) -0.1649(3) 1.2486(2)
C6A C 0.6102(4) -0.2285(3) 1.2667(2)
H1A H 0.709(4) -0.154(3) 1.237(2)
H16A H 0.609(4) -0.253(3) 1.350(3)
H2A H 0.319(4) -0.247(3) 1.286(2)
H9A H 0.423(4) -0.148(3) 1.163(2)
H15A H 0.467(4) 0.077(4) 1.269(3)
H22A H 0.390(4) -0.019(3) 1.386(3)
H4A H 0.161(3) 0.164(3) 1.3562(19)
H17A H 0.096(3) -0.020(3) 1.3566(19)
H5A H 0.158(3) -0.004(3) 1.139(2)
H8A H -0.007(4) 0.126(3) 1.2044(19)
H6A H 0.202(4) 0.324(3) 1.156(2)
H14A H 0.367(4) 0.212(4) 1.113(2)
H3A H 0.230(3) 0.147(3) 0.959(2)
H12A H 0.072(4) 0.283(3) 1.001(2)
H7A H 0.462(4) 0.364(3) 0.936(2)
H13A H 0.285(3) 0.491(3) 0.955(2)
H10A H 0.409(4) 0.466(3) 0.760(2)
H11A H 0.223(4) 0.418(3) 0.7849(19)
Cl2 Cl 0.33465(8) -0.16459(7) 0.91337(5)
O2 O 0.5664(3) 0.6236(2) 0.66580(16)
H18 H 0.499(5) 0.676(4) 0.632(3)
H19 H 0.643(5) 0.578(4) 0.608(3)
Cl3 Cl 0.71310(8) 0.12849(8) 0.42994(5)
loop_
_geom_bond_atom_site_label_1
_geom_bond_atom_site_label_2
_geom_bond_site_symmetry_1
_geom_bond_site_symmetry_2
O1 H20 1_555 1_555
N1 C1 1_555 1_555
C1 C6 1_555 1_555
O2 H18 1_555 1_555
N2 C3 1_555 1_555
C2 N1 1_555 1_555
N3 C5 1_555 1_555
C3 C2 1_555 1_555
C4 N2 1_555 1_555
C5 C4 1_555 1_555
C6 H1 1_555 1_555
H2 C1 1_555 1_555
H3 C4 1_555 1_555
H4 C2 1_555 1_555
H5 C3 1_555 1_555
H6 N2 1_555 1_555
H7 C5 1_555 1_555
H8 C3 1_555 1_555
H9 C1 1_555 1_555
H10 N3 1_555 1_555
H11 N3 1_555 1_555
H12 C4 1_555 1_555
H13 C5 1_555 1_555
H14 N2 1_555 1_555
H15 N1 1_555 1_555
H16 C6 1_555 1_555
H17 C2 1_555 1_555
H19 O2 1_555 1_555
H21 O1 1_555 1_555
H22 N1 1_555 1_555
N3A C6 1_555 1_555
C5A N3A 1_555 1_555
C4A C5A 1_555 1_555
N2A C4A 1_555 1_555
C3A N2A 1_555 1_555
C2A C3A 1_555 1_555
N1A C2A 1_555 1_555
C1A N1A 1_555 1_555
C6A N3 1_555 1_555
H1A C6A 1_555 1_555
H16A C6A 1_555 1_555
H2A C1A 1_555 1_555
H9A C1A 1_555 1_555
H15A N1A 1_555 1_555
H22A N1A 1_555 1_555
H4A C2A 1_555 1_555
H17A C2A 1_555 1_555
H5A C3A 1_555 1_555
H8A C3A 1_555 1_555
H6A N2A 1_555 1_555
H14A N2A 1_555 1_555
H3A C4A 1_555 1_555
H12A C4A 1_555 1_555
H7A C5A 1_555 1_555
H13A C5A 1_555 1_555
H10A N3A 1_555 1_555
H11A N3A 1_555 1_555
C1A C6A 1_555 1_555

#END
