
#######################################################################
#
#                 Cambridge Crystallographic Data Centre
#                                CCDC 
#
#######################################################################
#
# If this CIF has been generated from an entry in the Cambridge 
# Structural Database, then it will include bibliographic, chemical, 
# crystal, experimental, refinement or atomic coordinate data resulting 
# from the CCDC's data processing and validation procedures.
#
#######################################################################

data_GAFNIN
_chemical_formula_moiety         'C6 H7 N2 O2 1+,C6 H6 N2 O2,Cl1 O4 1-,2(H2 O1)'
_chemical_name_systematic        
'2-amino-3-carboxypyridinium 2-aminopyridinium-3-carboxylate chloroform dihydrate'
_symmetry_cell_setting           triclinic
_symmetry_space_group_name_H-M   'P -1'
_symmetry_Int_Tables_number      2
_space_group_name_Hall           '-P 1'
loop_
_symmetry_equiv_pos_site_id
_symmetry_equiv_pos_as_xyz
1 x,y,z
2 -x,-y,-z
_cell_length_a                   4.9360(10)
_cell_length_b                   10.184(2)
_cell_length_c                   17.488(4)
_cell_angle_alpha                90.39(3)
_cell_angle_beta                 94.03(3)
_cell_angle_gamma                100.99(3)
_cell_volume                     860.652
_exptl_crystal_colour            colorless
_exptl_crystal_description       block
_cell_formula_units_Z            2
loop_
_atom_site_label
_atom_site_type_symbol
_atom_site_fract_x
_atom_site_fract_y
_atom_site_fract_z
C1 C 0.3785(10) 0.3552(6) 0.9326(3)
H1 H 0.2559 0.3641 0.9694
C2 C 0.4668(11) 0.4588(5) 0.8876(3)
H2 H 0.4066 0.5394 0.8927
C3 C 0.9445(9) 0.3108(5) 0.7645(3)
C4 C 0.7448(9) 0.3249(5) 0.8235(3)
C5 C 0.6517(11) 0.4419(5) 0.8329(3)
H3 H 0.7142 0.5132 0.8017
C6 C 0.6465(9) 0.2174(5) 0.8730(3)
N1 N 0.7191(9) 0.1007(4) 0.8698(3)
H4 H 0.6527 0.0386 0.9002
H5 H 0.8333 0.0859 0.8373
N2 N 0.4663(8) 0.2379(4) 0.9248(2)
H6 H 0.4045 0.1733 0.9541
O1 O 1.0436(7) 0.2062(3) 0.7649(2)
O2 O 1.0000(7) 0.4020(4) 0.7174(2)
C7 C -0.5430(11) 0.0383(5) 0.6741(3)
H7 H -0.6143 -0.0167 0.7131
C8 C -0.2390(11) 0.2875(6) 0.4929(3)
C9 C -0.2672(11) 0.0807(6) 0.5689(3)
H8 H -0.1464 0.0534 0.5363
C10 C -0.3642(12) -0.0031(6) 0.6272(3)
H9 H -0.3093 -0.0849 0.6342
C11 C -0.3425(10) 0.2022(5) 0.5573(3)
C12 C -0.5283(10) 0.2430(5) 0.6082(3)
N3 N -0.6162(9) 0.3560(5) 0.6055(3)
H10 H -0.7257 0.3738 0.6386
H11 H -0.5647 0.4126 0.5707
N4 N -0.6161(8) 0.1576(4) 0.6643(2)
H12 H -0.7256 0.1813 0.6955
O3 O -0.3151(9) 0.3908(4) 0.4774(2)
O4 O -0.0670(9) 0.2368(4) 0.4537(2)
H13 H 0.0007 0.2916 0.4228
O5 O 0.8645(9) 0.2932(5) 0.0838(4)
O6 O 0.8990(10) 0.1255(7) 0.1728(3)
O7 O 1.2156(8) 0.1729(4) 0.0799(3)
O8 O 0.7531(7) 0.0710(4) 0.0464(2)
Cl1 Cl 0.9329(2) 0.16677(12) 0.09613(7)
O9 O 0.0565(9) 0.3497(4) 0.3253(2)
H14 H 0.210(8) 0.335(6) 0.317(2)
H15 H 0.027(13) 0.425(4) 0.316(5)
O10 O 0.4847(10) 0.2700(5) 0.2570(3)
H16 H 0.643(7) 0.289(9) 0.276(4)
H17 H 0.468(14) 0.251(9) 0.2107(16)
loop_
_geom_bond_atom_site_label_1
_geom_bond_atom_site_label_2
_geom_bond_site_symmetry_1
_geom_bond_site_symmetry_2
C1 H1 1_555 1_555
C2 C1 1_555 1_555
H2 C2 1_555 1_555
C3 C4 1_555 1_555
C4 C5 1_555 1_555
C5 C2 1_555 1_555
H3 C5 1_555 1_555
C6 C4 1_555 1_555
N1 C6 1_555 1_555
H4 N1 1_555 1_555
H5 N1 1_555 1_555
N2 C1 1_555 1_555
H6 N2 1_555 1_555
O1 C3 1_555 1_555
O2 C3 1_555 1_555
C7 H7 1_555 1_555
C8 C11 1_555 1_555
C9 H8 1_555 1_555
C10 C7 1_555 1_555
H9 C10 1_555 1_555
C11 C9 1_555 1_555
C12 C11 1_555 1_555
N3 C12 1_555 1_555
H10 N3 1_555 1_555
H11 N3 1_555 1_555
N4 C7 1_555 1_555
H12 N4 1_555 1_555
O3 C8 1_555 1_555
O4 C8 1_555 1_555
H13 O4 1_555 1_555
O5 Cl1 1_555 1_555
O6 Cl1 1_555 1_555
O7 Cl1 1_555 1_555
O8 Cl1 1_555 1_555
O9 H14 1_555 1_555
H15 O9 1_555 1_555
O10 H16 1_555 1_555
H17 O10 1_555 1_555
C6 N2 1_555 1_555
C9 C10 1_555 1_555
C12 N4 1_555 1_555

#END
