
#######################################################################
#
#                 Cambridge Crystallographic Data Centre
#                                CCDC 
#
#######################################################################
#
# If this CIF has been generated from an entry in the Cambridge 
# Structural Database, then it will include bibliographic, chemical, 
# crystal, experimental, refinement or atomic coordinate data resulting 
# from the CCDC's data processing and validation procedures.
#
#######################################################################

data_GAFPEL
_chemical_formula_moiety         'C54 H38 O4'
_chemical_name_systematic        
1,2,8,9-tetrakis(4-methoxyphenyl)dicyclopenta[fg,qr]pentacene
_symmetry_cell_setting           monoclinic
_symmetry_space_group_name_H-M   'P 21/n'
_symmetry_Int_Tables_number      14
_space_group_name_Hall           '-P 2yn'
loop_
_symmetry_equiv_pos_site_id
_symmetry_equiv_pos_as_xyz
1 x,y,z
2 1/2-x,1/2+y,1/2-z
3 -x,-y,-z
4 1/2+x,1/2-y,1/2+z
_cell_length_a                   14.980(3)
_cell_length_b                   8.8100(18)
_cell_length_c                   15.110(3)
_cell_angle_alpha                90
_cell_angle_beta                 106.54(3)
_cell_angle_gamma                90
_cell_volume                     1911.61
_exptl_crystal_colour            'dark violet'
_exptl_crystal_description       plate
_cell_formula_units_Z            2
_exptl_crystal_recrystallization_method nitrobenzene/hexane
loop_
_atom_site_label
_atom_site_type_symbol
_atom_site_fract_x
_atom_site_fract_y
_atom_site_fract_z
O1 O 0.62717(9) 0.73846(15) 0.25889(9)
O2 O 1.08296(10) 0.3692(2) 0.60876(11)
C1 C 0.59295(8) -0.01213(16) 0.53198(8)
C2 C 0.45920(8) 0.12706(16) 0.43995(9)
C3 C 0.55721(8) 0.11216(16) 0.47432(9)
C4 C 0.69171(8) -0.00596(17) 0.55908(9)
C5 C 0.63656(9) 0.20115(17) 0.46508(9)
C6 C 0.63144(9) 0.34332(17) 0.41173(9)
C7 C 0.62616(10) 0.61275(19) 0.31214(11)
C8 C 0.74159(9) -0.12034(17) 0.61436(9)
C9 C 0.71709(9) 0.13251(17) 0.51655(9)
C10 C 0.40700(9) 0.24185(17) 0.38198(9)
H1 H 0.4385 0.3207 0.3601
C11 C 0.31016(9) 0.24007(18) 0.35679(9)
C12 C 0.81274(9) 0.19409(18) 0.53367(10)
C13 C 0.25877(11) 0.3617(2) 0.30041(12)
H2 H 0.2921 0.4453 0.2859
C14 C 0.84397(10) -0.1290(2) 0.64481(12)
H3 H 0.8802 -0.0621 0.6197
C15 C 0.62033(12) 0.4819(2) 0.44889(11)
H4 H 0.6148 0.4856 0.5100
C16 C 0.61681(13) 0.6174(2) 0.40028(11)
H5 H 0.6081 0.7114 0.4275
C17 C 0.16579(11) 0.3604(2) 0.26808(13)
H6 H 0.1342 0.4416 0.2308
C18 C 0.64011(15) 0.3421(2) 0.32232(12)
H7 H 0.6487 0.2483 0.2948
C19 C 0.99503(13) 0.3104(3) 0.58010(16)
C20 C 0.63645(16) 0.4755(2) 0.27302(13)
H8 H 0.6411 0.4721 0.2116
C21 C 0.85393(16) 0.2647(3) 0.61970(16)
H9 H 0.8189 0.2742 0.6629
C22 C 0.86225(13) 0.1951(3) 0.47018(14)
H10 H 0.8339 0.1584 0.4096
C23 C 0.94366(14) 0.3200(3) 0.64236(17)
H11 H 0.9702 0.3650 0.7011
C24 C 0.95460(15) 0.2495(3) 0.49302(17)
H12 H 0.9890 0.2446 0.4491
C25 C 0.11348(14) 0.2346(3) 0.2902(2)
H13 H 0.0489 0.2252 0.2593
C26 C 0.63406(16) 0.8822(2) 0.30124(16)
H14 H 0.6362 0.9610 0.2561
H15 H 0.6910 0.8867 0.3530
H16 H 0.5798 0.8989 0.3240
C27 C 1.13770(14) 0.3664(3) 0.5461(2)
H17 H 1.1037 0.4163 0.4884
H18 H 1.1508 0.2610 0.5334
H19 H 1.1964 0.4202 0.5733
O1B O 0.37283(9) -0.73846(15) 0.74111(9)
O2B O -0.08296(10) -0.3692(2) 0.39124(11)
C1B C 0.40705(8) 0.01213(16) 0.46802(8)
C2B C 0.54080(8) -0.12706(16) 0.56005(9)
C3B C 0.44279(8) -0.11216(16) 0.52568(9)
C4B C 0.30829(8) 0.00596(17) 0.44092(9)
C5B C 0.36344(9) -0.20115(17) 0.53492(9)
C6B C 0.36856(9) -0.34332(17) 0.58827(9)
C7B C 0.37384(10) -0.61275(19) 0.68786(11)
C8B C 0.25841(9) 0.12034(17) 0.38564(9)
C9B C 0.28291(9) -0.13251(17) 0.48345(9)
C10B C 0.59300(9) -0.24185(17) 0.61802(9)
H1B H 0.5615 -0.3207 0.6399
C11B C 0.68984(9) -0.24007(18) 0.64321(9)
C12B C 0.18726(9) -0.19409(18) 0.46633(10)
C13B C 0.74123(11) -0.3617(2) 0.69959(12)
H2B H 0.7079 -0.4453 0.7141
C14B C 0.15603(10) 0.1290(2) 0.35519(12)
H3B H 0.1198 0.0621 0.3803
C15B C 0.37967(12) -0.4819(2) 0.55111(11)
H4B H 0.3852 -0.4856 0.4900
C16B C 0.38319(13) -0.6174(2) 0.59972(11)
H5B H 0.3919 -0.7114 0.5725
C17B C 0.83421(11) -0.3604(2) 0.73192(13)
H6B H 0.8658 -0.4416 0.7692
C18B C 0.35989(15) -0.3421(2) 0.67768(12)
H7B H 0.3513 -0.2483 0.7052
C19B C 0.00497(13) -0.3104(3) 0.41990(16)
C20B C 0.36355(16) -0.4755(2) 0.72698(13)
H8B H 0.3589 -0.4721 0.7884
C21B C 0.14607(16) -0.2647(3) 0.38030(16)
H9B H 0.1811 -0.2742 0.3371
C22B C 0.13775(13) -0.1951(3) 0.52982(14)
H10B H 0.1661 -0.1584 0.5904
C23B C 0.05634(14) -0.3200(3) 0.35764(17)
H11B H 0.0298 -0.3650 0.2989
C24B C 0.04540(15) -0.2495(3) 0.50698(17)
H12B H 0.0110 -0.2446 0.5509
C25B C 0.88652(14) -0.2346(3) 0.7098(2)
H13B H 0.9511 -0.2252 0.7407
C26B C 0.36594(16) -0.8822(2) 0.69876(16)
H14B H 0.3638 -0.9610 0.7439
H15B H 0.3090 -0.8867 0.6470
H16B H 0.4202 -0.8989 0.6760
C27B C -0.13770(14) -0.3664(3) 0.4539(2)
H17B H -0.1037 -0.4163 0.5116
H18B H -0.1508 -0.2610 0.4666
H19B H -0.1964 -0.4202 0.4267
C28? C 0.8721(6) 0.0985(15) 0.4874(8)
H20? H 0.8466 0.0115 0.4521
C29? C 0.9613(7) 0.1400(15) 0.4976(8)
H21? H 1.0006 0.0792 0.4727
C30? C 0.9936(6) 0.2690(14) 0.5437(9)
C31? C 0.9481(6) 0.3294(13) 0.5966(8)
H22? H 0.9783 0.4010 0.6424
C32? C 0.8535(8) 0.2897(15) 0.5868(9)
H23? H 0.8213 0.3410 0.6237
O3? O 1.0786(5) 0.3148(11) 0.5379(6)
C33? C 1.1252(7) 0.4318(13) 0.5982(7)
H24? H 1.1830 0.4583 0.5837
H25? H 1.1399 0.3964 0.6622
H26? H 1.0850 0.5214 0.5904
loop_
_geom_bond_atom_site_label_1
_geom_bond_atom_site_label_2
_geom_bond_site_symmetry_1
_geom_bond_site_symmetry_2
O1 C7 1_555 1_555
O2 C19 1_555 1_555
C1 C3 1_555 1_555
C2 C3 1_555 1_555
C3 C5 1_555 1_555
C4 C1 1_555 1_555
C5 C6 1_555 1_555
C6 C15 1_555 1_555
C7 C16 1_555 1_555
C8 C4 1_555 1_555
C9 C4 1_555 1_555
C10 C2 1_555 1_555
H1 C10 1_555 1_555
C11 C10 1_555 1_555
C12 C9 1_555 1_555
C13 C11 1_555 1_555
H2 C13 1_555 1_555
C14 C8 1_555 1_555
H3 C14 1_555 1_555
C15 H4 1_555 1_555
C16 C15 1_555 1_555
H5 C16 1_555 1_555
C17 C13 1_555 1_555
H6 C17 1_555 1_555
C18 C6 1_555 1_555
H7 C18 1_555 1_555
C19 C23 1_555 1_555
C20 C7 1_555 1_555
H8 C20 1_555 1_555
C21 C12 1_555 1_555
H9 C21 1_555 1_555
C22 C12 1_555 1_555
H10 C22 1_555 1_555
C23 C21 1_555 1_555
H11 C23 1_555 1_555
C24 C19 1_555 1_555
H12 C24 1_555 1_555
C25 C17 1_555 1_555
H13 C25 1_555 1_555
C26 O1 1_555 1_555
H14 C26 1_555 1_555
H15 C26 1_555 1_555
H16 C26 1_555 1_555
C27 O2 1_555 1_555
H17 C27 1_555 1_555
H18 C27 1_555 1_555
H19 C27 1_555 1_555
O1B C7B 1_555 1_555
O2B C19B 1_555 1_555
C1B C2 1_555 1_555
C2B C1 1_555 1_555
C3B C1B 1_555 1_555
C4B C1B 1_555 1_555
C5B C3B 1_555 1_555
C6B C5B 1_555 1_555
C7B C16B 1_555 1_555
C8B C11 1_555 1_555
C9B C4B 1_555 1_555
C10B C2B 1_555 1_555
H1B C10B 1_555 1_555
C11B C8 1_555 1_555
C12B C9B 1_555 1_555
C13B C11B 1_555 1_555
H2B C13B 1_555 1_555
C14B C25 1_555 1_555
H3B C14B 1_555 1_555
C15B C6B 1_555 1_555
H4B C15B 1_555 1_555
C16B C15B 1_555 1_555
H5B C16B 1_555 1_555
C17B C13B 1_555 1_555
H6B C17B 1_555 1_555
C18B C6B 1_555 1_555
H7B C18B 1_555 1_555
C19B C23B 1_555 1_555
C20B C7B 1_555 1_555
H8B C20B 1_555 1_555
C21B C12B 1_555 1_555
H9B C21B 1_555 1_555
C22B C12B 1_555 1_555
H10B C22B 1_555 1_555
C23B C21B 1_555 1_555
H11B C23B 1_555 1_555
C24B C19B 1_555 1_555
H12B C24B 1_555 1_555
C25B C14 1_555 1_555
H13B C25B 1_555 1_555
C26B O1B 1_555 1_555
H14B C26B 1_555 1_555
H15B C26B 1_555 1_555
H16B C26B 1_555 1_555
C27B O2B 1_555 1_555
H17B C27B 1_555 1_555
H18B C27B 1_555 1_555
H19B C27B 1_555 1_555
C5 C9 1_555 1_555
C18 C20 1_555 1_555
C22 C24 1_555 1_555
C2B C3B 1_555 1_555
C4B C8B 1_555 1_555
C5B C9B 1_555 1_555
C8B C14B 1_555 1_555
C10B C11B 1_555 1_555
C17B C25B 1_555 1_555
C18B C20B 1_555 1_555
C22B C24B 1_555 1_555

#END
