
#######################################################################
#
#                 Cambridge Crystallographic Data Centre
#                                CCDC 
#
#######################################################################
#
# If this CIF has been generated from an entry in the Cambridge 
# Structural Database, then it will include bibliographic, chemical, 
# crystal, experimental, refinement or atomic coordinate data resulting 
# from the CCDC's data processing and validation procedures.
#
#######################################################################

data_GAFREM
_chemical_formula_moiety         'C20 H24 N1 O1 1+,C20 H17 O8 1-,2(C2 H6 O1)'
_chemical_name_systematic        
'4-Hydroxy-1,2,5-trimethyl-4-(1-naphthylethynyl)piperidinium di-p-tolyl-(L)-tartarate ethanol solvate'
_symmetry_cell_setting           orthorhombic
_symmetry_space_group_name_H-M   'P 21 21 21'
_symmetry_Int_Tables_number      19
_space_group_name_Hall           'P 2ac 2ab'
loop_
_symmetry_equiv_pos_site_id
_symmetry_equiv_pos_as_xyz
1 x,y,z
2 1/2-x,-y,1/2+z
3 1/2+x,1/2-y,-z
4 -x,1/2+y,1/2-z
_cell_length_a                   13.843(1)
_cell_length_b                   35.354(4)
_cell_length_c                   8.761(1)
_cell_angle_alpha                90
_cell_angle_beta                 90
_cell_angle_gamma                90
_cell_volume                     4287.68
_exptl_crystal_colour            colorless
_exptl_crystal_description       plate
_cell_formula_units_Z            4
loop_
_atom_site_label
_atom_site_type_symbol
_atom_site_fract_x
_atom_site_fract_y
_atom_site_fract_z
O1 O 1.0402(2) 0.42817(6) 0.7563(3)
H1 H 1.0800 0.4217 0.8500
N1 N 0.9903(2) 0.31426(6) 0.6411(3)
H3 H 1.0372 0.30943 0.7147
C1 C 0.9099(2) 0.33513(9) 0.7181(4)
H4 H 0.8791 0.31840 0.7945
H5 H 0.8605 0.34207 0.6414
C2 C 0.9459(2) 0.37045(8) 0.7961(4)
H6 H 0.9954 0.36266 0.8729
C3 C 0.9956(2) 0.39680(8) 0.6805(4)
C4 C 1.0729(2) 0.37459(8) 0.5933(4)
H7 H 1.1007 0.39125 0.5137
H8 H 1.1255 0.36799 0.6650
C5 C 1.0373(2) 0.33856(8) 0.5176(4)
H9 H 0.9878 0.34515 0.4389
C6 C 0.9559(2) 0.27675(8) 0.5822(4)
H10 H 1.0113 0.2620 0.5456
H11 H 0.9104 0.28080 0.4981
H12 H 0.9236 0.2629 0.6646
C7 C 0.8637(3) 0.38921(10) 0.8815(4)
H13 H 0.8849 0.4139 0.9195
H14 H 0.8444 0.3732 0.9676
H15 H 0.8087 0.3926 0.8125
C8 C 1.1194(2) 0.31763(10) 0.4422(4)
H16 H 1.0933 0.2976 0.3769
H17 H 1.1610 0.3064 0.5207
H18 H 1.1572 0.3353 0.3801
C9 C 0.9225(3) 0.41304(9) 0.5749(4)
C10 C 0.8602(3) 0.42502(9) 0.4932(4)
C11 C 0.7841(2) 0.44006(8) 0.4012(5)
C12 C 0.7877(3) 0.43594(11) 0.2441(5)
H19 H 0.8412 0.42346 0.1987
C13 C 0.7148(3) 0.44967(13) 0.1529(6)
H20 H 0.7173 0.44643 0.0454
C14 C 0.6374(4) 0.46831(13) 0.2201(7)
H21 H 0.5884 0.47867 0.1566
C15 C 0.6296(3) 0.47223(10) 0.3769(6)
C16 C 0.5480(3) 0.49084(12) 0.4523(9)
H22 H 0.4992 0.50224 0.3915
C17 C 0.5403(4) 0.49223(13) 0.6030(10)
H23 H 0.4848 0.50334 0.6482
C18 C 0.6135(3) 0.47745(11) 0.6961(7)
H24 H 0.6077 0.47903 0.8040
C19 C 0.6926(3) 0.46090(10) 0.6334(6)
H25 H 0.7420 0.45117 0.6978
C20 C 0.7023(3) 0.45802(9) 0.4735(5)
O2 O 0.7458(2) 0.33657(7) 0.1735(3)
O3 O 0.75725(15) 0.27602(6) 0.2436(2)
O4 O 0.9447(2) 0.29248(10) 0.2221(3)
O5 O 0.95567(14) 0.26687(7) -0.0108(3)
H2 H 1.0400 0.2716 0.0118
O6 O 0.63421(15) 0.23137(8) -0.0239(3)
O7 O 0.64579(14) 0.19612(7) 0.1855(3)
O8 O 0.83491(13) 0.20678(6) 0.2103(2)
O9 O 0.8189(2) 0.14993(7) 0.1010(3)
C21 C 0.5858(3) 0.33878(13) 0.8753(4)
H26 H 0.6395 0.3465 0.9412
H27 H 0.5567 0.3156 0.9157
H28 H 0.5371 0.3589 0.8724
C22 C 0.6231(2) 0.33159(10) 0.7160(4)
C23 C 0.6310(2) 0.36034(10) 0.6114(4)
H29 H 0.6115 0.38513 0.6396
C24 C 0.6664(2) 0.35422(9) 0.4665(4)
H30 H 0.6714 0.37469 0.3968
C25 C 0.6949(2) 0.31813(9) 0.4223(4)
C26 C 0.6872(2) 0.28843(9) 0.5280(4)
H31 H 0.7065 0.26361 0.4998
C27 C 0.6515(2) 0.29514(10) 0.6728(4)
H32 H 0.6463 0.27488 0.7435
C28 C 0.7349(2) 0.31265(9) 0.2690(4)
C29 C 0.8039(2) 0.26645(9) 0.1031(4)
H33 H 0.7728 0.28055 0.0173
C30 C 0.9096(2) 0.27699(10) 0.1123(4)
C31 C 0.7883(2) 0.22465(9) 0.0818(3)
H34 H 0.8184 0.21597 -0.0159
C32 C 0.6794(2) 0.21585(9) 0.0821(4)
C33 C 0.8373(2) 0.16910(9) 0.2111(4)
C34 C 0.8667(2) 0.15390(9) 0.3631(4)
C35 C 0.8881(2) 0.17756(9) 0.4830(4)
H35 H 0.8849 0.20419 0.4694
C36 C 0.9143(3) 0.16260(11) 0.6243(4)
H36 H 0.9288 0.17913 0.7067
C37 C 0.9194(3) 0.12373(11) 0.6455(4)
C38 C 0.8976(3) 0.10062(11) 0.5270(5)
H37 H 0.9002 0.07402 0.5415
C39 C 0.8711(3) 0.11491(10) 0.3828(5)
H38 H 0.8564 0.09827 0.3009
C40 C 0.9502(4) 0.10804(13) 0.7991(5)
H39 H 0.9162 0.1216 0.8807
H40 H 1.0201 0.1114 0.8117
H41 H 0.9343 0.0811 0.8042
O10 O 0.6755(3) 0.09835(11) 0.0392(4)
C41 C 0.6541(6) 0.1053(3) -0.1127(8)
H42 H 0.6574 0.1329 -0.1295
H43 H 0.7056 0.0936 -0.1755
C42 C 0.5685(6) 0.0930(2) -0.1662(7)
H44 H 0.5708 0.0917 -0.2779
H45 H 0.5174 0.1106 -0.1348
H46 H 0.5548 0.0678 -0.1249
O11 O 0.3936(15) 0.5071(6) 0.9951(22)
C43 C 0.2901(20) 0.5240(7) 0.9841(30)
C44 C 0.2386(33) 0.4967(12) 0.8931(46)
C45? C 0.3359(27) 0.4964(9) 1.0213(29)
C46? C 0.2418(48) 0.5087(15) 1.0419(47)
O12? O 0.3903(9) 0.5039(3) 1.1438(14)
O13? O 0.3414(20) 0.4742(7) 0.8885(31)
loop_
_geom_bond_atom_site_label_1
_geom_bond_atom_site_label_2
_geom_bond_site_symmetry_1
_geom_bond_site_symmetry_2
O1 H1 1_555 1_555
O2 C28 1_555 1_555
O3 C28 1_555 1_555
O4 C30 1_555 1_555
O5 H2 1_555 1_555
O6 C32 1_555 1_555
O7 C32 1_555 1_555
O8 C31 1_555 1_555
O9 C33 1_555 1_555
N1 H3 1_555 1_555
C1 N1 1_555 1_555
H4 C1 1_555 1_555
H5 C1 1_555 1_555
C2 C1 1_555 1_555
H6 C2 1_555 1_555
C3 O1 1_555 1_555
C4 C3 1_555 1_555
H7 C4 1_555 1_555
H8 C4 1_555 1_555
C5 N1 1_555 1_555
H9 C5 1_555 1_555
C6 N1 1_555 1_555
H10 C6 1_555 1_555
H11 C6 1_555 1_555
H12 C6 1_555 1_555
C7 C2 1_555 1_555
H13 C7 1_555 1_555
H14 C7 1_555 1_555
H15 C7 1_555 1_555
C8 C5 1_555 1_555
H16 C8 1_555 1_555
H17 C8 1_555 1_555
H18 C8 1_555 1_555
C9 C3 1_555 1_555
C10 C9 1_555 1_555
C11 C10 1_555 1_555
C12 C11 1_555 1_555
H19 C12 1_555 1_555
C13 C12 1_555 1_555
H20 C13 1_555 1_555
C14 C13 1_555 1_555
H21 C14 1_555 1_555
C15 C14 1_555 1_555
C16 C15 1_555 1_555
H22 C16 1_555 1_555
C17 C16 1_555 1_555
H23 C17 1_555 1_555
C18 C17 1_555 1_555
H24 C18 1_555 1_555
C19 C18 1_555 1_555
H25 C19 1_555 1_555
C20 C11 1_555 1_555
C21 H26 1_555 1_555
H27 C21 1_555 1_555
H28 C21 1_555 1_555
C22 C21 1_555 1_555
C23 C22 1_555 1_555
H29 C23 1_555 1_555
C24 C23 1_555 1_555
H30 C24 1_555 1_555
C25 C24 1_555 1_555
C26 C25 1_555 1_555
H31 C26 1_555 1_555
C27 C22 1_555 1_555
H32 C27 1_555 1_555
C28 C25 1_555 1_555
C29 O3 1_555 1_555
H33 C29 1_555 1_555
C30 O5 1_555 1_555
C31 C29 1_555 1_555
H34 C31 1_555 1_555
C32 C31 1_555 1_555
C33 O8 1_555 1_555
C34 C33 1_555 1_555
C35 C34 1_555 1_555
H35 C35 1_555 1_555
C36 C35 1_555 1_555
H36 C36 1_555 1_555
C37 C36 1_555 1_555
C38 C37 1_555 1_555
H37 C38 1_555 1_555
C39 C34 1_555 1_555
H38 C39 1_555 1_555
C40 C37 1_555 1_555
H39 C40 1_555 1_555
H40 C40 1_555 1_555
H41 C40 1_555 1_555
O10 C41 1_555 1_555
C41 H42 1_555 1_555
H43 C41 1_555 1_555
C42 C41 1_555 1_555
H44 C42 1_555 1_555
H45 C42 1_555 1_555
H46 C42 1_555 1_555
O11 C43 1_555 1_555
C43 C44 1_555 1_555
C2 C3 1_555 1_555
C4 C5 1_555 1_555
C15 C20 1_555 1_555
C19 C20 1_555 1_555
C26 C27 1_555 1_555
C29 C30 1_555 1_555
C38 C39 1_555 1_555

#END
