
#######################################################################
#
#                 Cambridge Crystallographic Data Centre
#                                CCDC 
#
#######################################################################
#
# If this CIF has been generated from an entry in the Cambridge 
# Structural Database, then it will include bibliographic, chemical, 
# crystal, experimental, refinement or atomic coordinate data resulting 
# from the CCDC's data processing and validation procedures.
#
#######################################################################

data_GAFYOB
_chemical_formula_moiety         'C31 H58 O5'
_chemical_name_systematic        '6,8-Dinonyl-7-oxotridecanedioic acid'
_symmetry_cell_setting           triclinic
_symmetry_space_group_name_H-M   'P -1'
_symmetry_Int_Tables_number      2
_space_group_name_Hall           '-P 1'
loop_
_symmetry_equiv_pos_site_id
_symmetry_equiv_pos_as_xyz
1 x,y,z
2 -x,-y,-z
_cell_length_a                   8.864(2)
_cell_length_b                   37.276(10)
_cell_length_c                   5.064(1)
_cell_angle_alpha                93.57(2)
_cell_angle_beta                 105.50(2)
_cell_angle_gamma                91.94(2)
_cell_volume                     1607.02
_cell_formula_units_Z            2
loop_
_atom_site_label
_atom_site_type_symbol
_atom_site_fract_x
_atom_site_fract_y
_atom_site_fract_z
C1 C 0.3945(4) 0.53113(8) 0.2042(7)
C2 C 0.3226(4) 0.55459(9) 0.3792(7)
C3 C 0.2988(4) 0.59238(9) 0.2992(7)
C4 C 0.2488(4) 0.61636(9) 0.5113(7)
C5 C 0.1934(4) 0.65286(9) 0.4198(7)
C6 C 0.3100(4) 0.67622(8) 0.3233(6)
C7 C 0.2373(4) 0.71062(9) 0.2006(7)
C8 C 0.1902(4) 0.73785(9) 0.3959(7)
C9 C 0.1271(4) 0.77097(10) 0.2531(8)
C10 C 0.0883(4) 0.80109(10) 0.4348(8)
C11 C 0.0267(5) 0.83334(10) 0.2794(9)
C12 C -0.0045(5) 0.86530(11) 0.4486(9)
C13 C -0.0654(5) 0.89676(10) 0.2808(10)
C14 C -0.0941(6) 0.92957(13) 0.4370(12)
C15 C -0.1541(7) 0.96009(13) 0.2610(15)
O1 O 0.4790(3) 0.54335(6) 0.0711(5)
O2 O 0.3626(3) 0.49690(6) 0.2037(5)
C16 C 0.4596(4) 0.68669(8) 0.5507(6)
O3 O 0.4602(3) 0.68643(6) 0.7918(4)
C17 C 0.9218(4) 0.54437(9) 0.6226(7)
C18 C 0.8582(4) 0.57732(9) 0.7211(7)
C19 C 0.7948(4) 0.60284(9) 0.5011(7)
C20 C 0.7353(4) 0.63645(9) 0.6086(7)
C21 C 0.6787(4) 0.66237(9) 0.3843(7)
C22 C 0.6056(4) 0.69681(8) 0.4669(6)
C23 C 0.7234(4) 0.72086(10) 0.6872(8)
C24 C 0.6654(5) 0.75718(10) 0.7602(8)
C25 C 0.6221(4) 0.78191(10) 0.5298(8)
C26 C 0.5757(5) 0.81818(10) 0.6180(9)
C27 C 0.5230(5) 0.84334(11) 0.3949(9)
C28 C 0.4810(5) 0.87982(11) 0.4943(9)
C29 C 0.4233(5) 0.90531(11) 0.2749(10)
C30 C 0.3899(6) 0.94172(13) 0.3812(11)
C31 C 0.3331(8) 0.96756(14) 0.1675(14)
O4 O 0.8775(3) 0.53194(7) 0.3788(5)
O5 O 1.0243(3) 0.52884(6) 0.8035(5)
H1 H 0.393(4) 0.5561(9) 0.557(7)
H2 H 0.225(4) 0.5425(9) 0.367(7)
H3 H 0.224(4) 0.5919(9) 0.140(7)
H4 H 0.401(3) 0.6032(7) 0.275(5)
H5 H 0.340(3) 0.6203(8) 0.664(6)
H6 H 0.162(3) 0.6019(8) 0.562(6)
H7 H 0.158(3) 0.6682(8) 0.565(6)
H8 H 0.095(4) 0.6483(9) 0.266(7)
H9 H 0.343(3) 0.6624(7) 0.180(5)
H10 H 0.139(4) 0.7016(8) 0.071(7)
H11 H 0.317(3) 0.7241(8) 0.131(6)
H12 H 0.282(3) 0.7458(8) 0.538(6)
H13 H 0.109(3) 0.7269(7) 0.473(6)
H14 H 0.025(4) 0.7615(10) 0.123(8)
H15 H 0.216(4) 0.7800(9) 0.171(7)
H16 H 0.180(4) 0.8102(9) 0.580(7)
H17 H 0.004(4) 0.7911(9) 0.508(7)
H18 H -0.073(4) 0.8253(10) 0.149(8)
H19 H 0.101(4) 0.8420(10) 0.197(8)
H20 H 0.094(5) 0.8750(11) 0.562(9)
H21 H -0.080(4) 0.8585(9) 0.549(7)
H22 H -0.171(4) 0.8926(10) 0.161(8)
H23 H 0.010(4) 0.9037(9) 0.170(7)
H24 H 0.008(4) 0.9359(13) 0.564(11)
H25 H -0.179(5) 0.9238(12) 0.525(10)
H26 H -0.176(6) 0.9836(13) 0.365(11)
H27 H -0.067(6) 0.9664(13) 0.179(11)
H28 H -0.264(7) 0.9504(17) 0.139(14)
H29 H 0.423(4) 0.4840(9) 0.106(7)
H30 H 0.940(4) 0.5922(9) 0.870(7)
H31 H 0.774(3) 0.5701(7) 0.799(6)
H32 H 0.711(3) 0.5903(8) 0.377(6)
H33 H 0.879(3) 0.6083(7) 0.420(6)
H34 H 0.817(3) 0.6507(7) 0.745(6)
H35 H 0.643(3) 0.6298(7) 0.685(6)
H36 H 0.602(3) 0.6462(8) 0.250(6)
H37 H 0.772(3) 0.6705(7) 0.324(5)
H38 H 0.572(3) 0.7114(7) 0.297(5)
H39 H 0.817(4) 0.7238(9) 0.614(7)
H40 H 0.762(3) 0.7082(8) 0.868(6)
H41 H 0.745(4) 0.7704(9) 0.921(7)
H42 H 0.563(4) 0.7505(9) 0.834(7)
H43 H 0.533(4) 0.7704(9) 0.395(7)
H44 H 0.712(4) 0.7868(9) 0.448(7)
H45 H 0.660(4) 0.8303(9) 0.736(7)
H46 H 0.480(4) 0.8134(8) 0.688(7)
H47 H 0.428(4) 0.8315(9) 0.262(7)
H48 H 0.611(4) 0.8453(10) 0.303(8)
H49 H 0.569(4) 0.8926(10) 0.615(8)
H50 H 0.384(4) 0.8750(9) 0.574(7)
H51 H 0.323(5) 0.8946(11) 0.157(9)
H52 H 0.505(4) 0.9075(10) 0.165(8)
H53 H 0.479(6) 0.9554(13) 0.483(10)
H54 H 0.312(5) 0.9369(12) 0.481(10)
H55 H 0.297(6) 0.9925(13) 0.239(10)
H56 H 0.415(7) 0.9722(14) 0.066(12)
H57 H 0.222(6) 0.9558(14) 0.042(11)
H58 H 1.065(3) 0.5038(8) 0.728(6)
loop_
_geom_bond_atom_site_label_1
_geom_bond_atom_site_label_2
_geom_bond_site_symmetry_1
_geom_bond_site_symmetry_2
C1 C2 1_555 1_555
C2 C3 1_555 1_555
C3 C4 1_555 1_555
C4 C5 1_555 1_555
C5 C6 1_555 1_555
C6 C7 1_555 1_555
C7 C8 1_555 1_555
C8 C9 1_555 1_555
C9 C10 1_555 1_555
C10 C11 1_555 1_555
C11 C12 1_555 1_555
C12 C13 1_555 1_555
C13 C14 1_555 1_555
C14 C15 1_555 1_555
C15 H26 1_555 1_555
O1 C1 1_555 1_555
O2 C1 1_555 1_555
C16 C6 1_555 1_555
O3 C16 1_555 1_555
C17 C18 1_555 1_555
C18 C19 1_555 1_555
C19 C20 1_555 1_555
C20 C21 1_555 1_555
C21 C22 1_555 1_555
C22 C16 1_555 1_555
C23 C22 1_555 1_555
C24 C23 1_555 1_555
C25 C24 1_555 1_555
C26 C25 1_555 1_555
C27 C26 1_555 1_555
C28 C27 1_555 1_555
C29 C28 1_555 1_555
C30 C29 1_555 1_555
C31 C30 1_555 1_555
O4 C17 1_555 1_555
O5 C17 1_555 1_555
H1 C2 1_555 1_555
H2 C2 1_555 1_555
H3 C3 1_555 1_555
H4 C3 1_555 1_555
H5 C4 1_555 1_555
H6 C4 1_555 1_555
H7 C5 1_555 1_555
H8 C5 1_555 1_555
H9 C6 1_555 1_555
H10 C7 1_555 1_555
H11 C7 1_555 1_555
H12 C8 1_555 1_555
H13 C8 1_555 1_555
H14 C9 1_555 1_555
H15 C9 1_555 1_555
H16 C10 1_555 1_555
H17 C10 1_555 1_555
H18 C11 1_555 1_555
H19 C11 1_555 1_555
H20 C12 1_555 1_555
H21 C12 1_555 1_555
H22 C13 1_555 1_555
H23 C13 1_555 1_555
H24 C14 1_555 1_555
H25 C14 1_555 1_555
H27 C15 1_555 1_555
H28 C15 1_555 1_555
H29 O2 1_555 1_555
H30 C18 1_555 1_555
H31 C18 1_555 1_555
H32 C19 1_555 1_555
H33 C19 1_555 1_555
H34 C20 1_555 1_555
H35 C20 1_555 1_555
H36 C21 1_555 1_555
H37 C21 1_555 1_555
H38 C22 1_555 1_555
H39 C23 1_555 1_555
H40 C23 1_555 1_555
H41 C24 1_555 1_555
H42 C24 1_555 1_555
H43 C25 1_555 1_555
H44 C25 1_555 1_555
H45 C26 1_555 1_555
H46 C26 1_555 1_555
H47 C27 1_555 1_555
H48 C27 1_555 1_555
H49 C28 1_555 1_555
H50 C28 1_555 1_555
H51 C29 1_555 1_555
H52 C29 1_555 1_555
H53 C30 1_555 1_555
H54 C30 1_555 1_555
H55 C31 1_555 1_555
H56 C31 1_555 1_555
H57 C31 1_555 1_555
H58 O5 1_555 1_555

#END
