
#######################################################################
#
#                 Cambridge Crystallographic Data Centre
#                                CCDC 
#
#######################################################################
#
# If this CIF has been generated from an entry in the Cambridge 
# Structural Database, then it will include bibliographic, chemical, 
# crystal, experimental, refinement or atomic coordinate data resulting 
# from the CCDC's data processing and validation procedures.
#
#######################################################################

data_GAGDOK
_chemical_formula_moiety         'C24 H21 Br1 O4'
_chemical_name_systematic        
'Methyl 4-bromo-3-hydroxy-2,3,5-triphenyltetrahydrofuran-2-carboxylate'
_symmetry_cell_setting           triclinic
_symmetry_space_group_name_H-M   'P -1'
_symmetry_Int_Tables_number      2
_space_group_name_Hall           '-P 1'
loop_
_symmetry_equiv_pos_site_id
_symmetry_equiv_pos_as_xyz
1 x,y,z
2 -x,-y,-z
_cell_length_a                   9.6341(11)
_cell_length_b                   10.0016(11)
_cell_length_c                   11.7647(13)
_cell_angle_alpha                108.671(3)
_cell_angle_beta                 102.680(4)
_cell_angle_gamma                98.804(4)
_cell_volume                     1016.71
_exptl_crystal_colour            colorless
_exptl_crystal_description       block
_cell_formula_units_Z            2
loop_
_atom_site_label
_atom_site_type_symbol
_atom_site_fract_x
_atom_site_fract_y
_atom_site_fract_z
Br1 Br 0.35252(4) 0.49817(3) 0.26365(3)
O1 O 0.2658(3) 0.8324(3) -0.0588(2)
O2 O 0.0487(2) 0.8158(3) -0.02085(18)
O3 O 0.2694(2) 0.5911(2) 0.02755(17)
O4 O 0.1348(2) 0.7949(2) 0.19283(18)
C1 C 0.0644(3) 0.6631(3) 0.3197(3)
C2 C 0.1264(4) 0.7542(4) 0.4435(3)
H1 H 0.2172 0.8190 0.4674
C3 C 0.0540(4) 0.7494(4) 0.5319(3)
H2 H 0.0962 0.8111 0.6151
C4 C -0.0792(4) 0.6546(4) 0.4979(3)
H3 H -0.1268 0.6511 0.5581
C5 C -0.1424(4) 0.5653(4) 0.3761(3)
H4 H -0.2338 0.5018 0.3528
C6 C -0.0702(3) 0.5690(3) 0.2866(3)
H5 H -0.1133 0.5072 0.2036
C7 C 0.3414(3) 0.9868(3) 0.2238(2)
C8 C 0.3136(3) 1.0628(4) 0.3354(3)
H6 H 0.2380 1.0205 0.3596
C9 C 0.3987(4) 1.2015(4) 0.4101(3)
H7 H 0.3802 1.2508 0.4848
C10 C 0.5093(4) 1.2669(4) 0.3759(3)
H8 H 0.5663 1.3596 0.4272
C11 C 0.5354(4) 1.1940(4) 0.2645(3)
H9 H 0.6097 1.2382 0.2402
C12 C 0.4519(3) 1.0559(3) 0.1890(3)
H10 H 0.4700 1.0085 0.1137
C13 C 0.5039(3) 0.7547(3) 0.1594(3)
C14 C 0.5555(4) 0.7287(4) 0.0548(3)
H11 H 0.4903 0.6819 -0.0250
C15 C 0.7037(4) 0.7722(4) 0.0692(4)
H12 H 0.7370 0.7569 -0.0013
C16 C 0.8017(4) 0.8373(4) 0.1854(4)
H13 H 0.9013 0.8637 0.1938
C17 C 0.7528(4) 0.8641(4) 0.2907(4)
H14 H 0.8190 0.9092 0.3701
C18 C 0.6039(3) 0.8229(4) 0.2766(3)
H15 H 0.5708 0.8415 0.3474
C19 C 0.2524(3) 0.8310(3) 0.1430(2)
C20 C 0.3415(3) 0.7103(3) 0.1433(2)
C21 C 0.3004(3) 0.6725(3) 0.2502(3)
H16 H 0.3501 0.7540 0.3294
C22 C 0.1381(3) 0.6643(3) 0.2194(3)
H17 H 0.0868 0.5795 0.1430
C23 C 0.1914(3) 0.8249(3) 0.0085(3)
C24 C -0.0138(4) 0.8213(5) -0.1425(3)
H18 H -0.1172 0.8136 -0.1563
H19 H 0.0021 0.7421 -0.2063
H20 H 0.0321 0.9118 -0.1455
loop_
_geom_bond_atom_site_label_1
_geom_bond_atom_site_label_2
_geom_bond_site_symmetry_1
_geom_bond_site_symmetry_2
Br1 C21 1_555 1_555
O1 C23 1_555 1_555
O2 C23 1_555 1_555
O3 C20 1_555 1_555
O4 C19 1_555 1_555
C1 C2 1_555 1_555
C2 H1 1_555 1_555
C3 C2 1_555 1_555
H2 C3 1_555 1_555
C4 C3 1_555 1_555
H3 C4 1_555 1_555
C5 C4 1_555 1_555
H4 C5 1_555 1_555
C6 C1 1_555 1_555
H5 C6 1_555 1_555
C7 C8 1_555 1_555
C8 H6 1_555 1_555
C9 C8 1_555 1_555
H7 C9 1_555 1_555
C10 C9 1_555 1_555
H8 C10 1_555 1_555
C11 C10 1_555 1_555
H9 C11 1_555 1_555
C12 C7 1_555 1_555
H10 C12 1_555 1_555
C13 C14 1_555 1_555
C14 H11 1_555 1_555
C15 C14 1_555 1_555
H12 C15 1_555 1_555
C16 C15 1_555 1_555
H13 C16 1_555 1_555
C17 C16 1_555 1_555
H14 C17 1_555 1_555
C18 C13 1_555 1_555
H15 C18 1_555 1_555
C19 C7 1_555 1_555
C20 C13 1_555 1_555
C21 C20 1_555 1_555
H16 C21 1_555 1_555
C22 O4 1_555 1_555
H17 C22 1_555 1_555
C23 C19 1_555 1_555
C24 O2 1_555 1_555
H18 C24 1_555 1_555
H19 C24 1_555 1_555
H20 C24 1_555 1_555
C1 C22 1_555 1_555
C5 C6 1_555 1_555
C11 C12 1_555 1_555
C17 C18 1_555 1_555
C19 C20 1_555 1_555
C21 C22 1_555 1_555

#END
