
#######################################################################
#
#                 Cambridge Crystallographic Data Centre
#                                CCDC 
#
#######################################################################
#
# If this CIF has been generated from an entry in the Cambridge 
# Structural Database, then it will include bibliographic, chemical, 
# crystal, experimental, refinement or atomic coordinate data resulting 
# from the CCDC's data processing and validation procedures.
#
#######################################################################

data_GAGFEZ10
_chemical_compound_source        'Actinomyces species from soil sample'
_chemical_name_common            'Kanglemeisu A methanol solvate'
_chemical_formula_moiety         'C50 H63 N1 O19,C1 H4 O1'
_chemical_name_systematic        'Kanglemycin A methanol solvate'
_chemical_properties_biological  'antibacterial activity'
_symmetry_cell_setting           triclinic
_symmetry_space_group_name_H-M   'P 1'
_symmetry_Int_Tables_number      1
_space_group_name_Hall           'P 1'
loop_
_symmetry_equiv_pos_site_id
_symmetry_equiv_pos_as_xyz
1 x,y,z
_cell_length_a                   12.760(3)
_cell_length_b                   10.287(2)
_cell_length_c                   9.926(2)
_cell_angle_alpha                88.39(2)
_cell_angle_beta                 78.64(2)
_cell_angle_gamma                89.14(2)
_cell_volume                     1276.82
_cell_formula_units_Z            1
loop_
_atom_site_label
_atom_site_type_symbol
_atom_site_fract_x
_atom_site_fract_y
_atom_site_fract_z
C1 C 0.7487(7) 0.6654(8) 0.3026(8)
C2 C 0.6863(7) 0.7842(8) 0.3520(8)
C3 C 0.7323(8) 0.8993(10) 0.2775(11)
C4 C 0.8455(7) 0.9086(8) 0.2025(8)
C5 C 1.0116(6) 0.7907(8) 0.0962(8)
C6 C 1.0716(6) 0.6802(7) 0.0557(8)
C7 C 1.0172(6) 0.5635(7) 0.0907(8)
C8 C 0.9141(6) 0.5513(7) 0.1696(7)
C9 C 0.8583(6) 0.6642(8) 0.2129(7)
C10 C 0.9052(6) 0.7857(7) 0.1711(7)
C11 C 0.8914(7) 0.4130(8) 0.1763(8)
C12 C 0.9891(6) 0.3467(7) 0.0840(8)
C13 C 0.9589(8) 0.2929(8) -0.0461(8)
C14 C 1.1844(7) 0.6845(9) -0.0242(10)
C15 C 0.5785(11) 1.0462(13) 0.3484(13)
C16 C 0.5535(8) 1.1863(10) 0.3686(10)
C17 C 0.5954(10) 1.2591(13) 0.4539(13)
C18 C 0.6704(7) 1.2154(8) 0.5430(10)
C19 C 0.6697(6) 1.0984(8) 0.6082(9)
C20 C 0.7563(7) 1.0644(8) 0.6887(9)
C21 C 0.8325(6) 0.9610(7) 0.6076(8)
C22 C 0.9297(7) 0.9262(9) 0.6726(9)
C23 C 1.0070(7) 0.8237(8) 0.5965(8)
C24 C 0.9687(7) 0.6841(8) 0.6187(8)
C25 C 1.0470(6) 0.5932(8) 0.5240(8)
C26 C 1.0276(6) 0.4486(8) 0.5643(8)
C27 C 1.1024(7) 0.3480(9) 0.4783(9)
C28 C 1.0987(7) 0.3530(8) 0.3257(8)
C29 C 1.0489(7) 0.2537(8) 0.2810(9)
C30 C 0.4747(8) 1.2431(9) 0.2843(10)
C31 C 0.7120(7) 1.0188(10) 0.8393(8)
C32 C 0.9949(8) 1.0455(9) 0.6955(9)
C33 C 0.9589(9) 0.6444(10) 0.7745(9)
C34 C 0.9106(7) 0.4114(9) 0.5627(11)
C35 C 1.2275(8) 0.6491(9) 0.4175(11)
C36 C 1.3383(7) 0.6958(11) 0.4449(12)
C37 C 1.2390(7) 0.3190(8) 0.6122(9)
C38 C 1.3355(8) 0.3929(9) 0.6318(10)
C39 C 1.3803(8) 0.3372(10) 0.7518(10)
C40 C 1.3250(13) 0.2823(15) 0.9843(14)
C41 C 1.3770(7) 0.1873(10) 0.7692(9)
C42 C 1.2793(8) 0.1251(10) 0.7272(11)
C43 C 1.2992(9) -0.0218(11) 0.7009(13)
C44 C 0.6451(9) 1.1226(12) 0.9213(11)
C45 C 0.6548(7) 0.8057(11) 0.9208(9)
C46 C 0.5636(9) 0.7125(13) 0.9419(11)
C47 C 0.5955(14) 0.5811(15) 1.0005(15)
C48 C 0.4697(10) 0.7746(15) 1.0505(11)
C49 C 0.5175(7) 0.6960(12) 0.8081(9)
C50 C 0.6052(8) 0.6433(10) 0.6945(11)
N1 N 0.6844(6) 1.0214(7) 0.2955(8)
O1 O 0.7130(5) 0.5613(6) 0.3625(6)
O2 O 0.8798(5) 1.0117(7) 0.1566(7)
O3 O 1.0572(5) 0.9071(5) 0.0565(6)
O4 O 1.0661(4) 0.4502(5) 0.0451(6)
O5 O 1.0330(4) 0.2427(5) 0.1462(5)
O6 O 1.2128(4) 0.3650(6) 0.4867(6)
O7 O 1.1542(4) 0.6279(5) 0.5343(5)
O8 O 1.2086(6) 0.6367(7) 0.3046(7)
O9 O 1.0289(5) 0.8560(5) 0.4493(5)
O10 O 0.8679(5) 1.0210(7) 0.4745(6)
O11 O 0.5106(6) 0.9617(8) 0.3747(8)
O12 O 0.8141(5) 0.3474(6) 0.2314(7)
O13 O 1.2659(5) 0.1833(6) 0.5946(6)
O14 O 1.3655(6) 0.1655(8) 0.9163(7)
O15 O 1.3097(6) 0.3745(7) 0.8819(7)
O16 O 0.6424(7) 0.9057(9) 0.8371(9)
O17 O 0.7283(8) 0.7942(10) 0.9804(11)
O18 O 0.6977(6) 0.6483(9) 0.6856(9)
O19 O 0.5595(5) 0.5958(7) 0.5911(7)
H1 H 0.604 0.781 0.389
H2 H 1.058 0.973 0.086
H3 H 1.169 0.679 -0.070
H4 H 1.224 0.597 -0.041
H5 H 1.244 0.774 -0.009
H6 H 0.524 1.269 0.169
H7 H 0.500 1.352 0.241
H8 H 0.396 1.241 0.329
H9 H 0.600 1.369 0.461
H10 H 0.728 1.288 0.540
H11 H 0.601 1.025 0.620
H12 H 0.792 1.143 0.687
H13 H 0.777 1.001 0.872
H14 H 0.681 1.197 0.896
H15 H 0.564 1.139 0.908
H16 H 0.603 1.062 0.967
H17 H 0.672 0.516 0.942
H18 H 0.454 0.847 1.010
H19 H 0.516 0.531 0.994
H20 H 0.473 0.778 0.793
H21 H 0.456 0.605 0.809
H22 H 0.799 0.885 0.597
H23 H 0.940 0.997 0.438
H24 H 0.905 0.885 0.779
H25 H 1.072 1.066 0.606
H26 H 0.953 1.117 0.701
H27 H 1.079 0.830 0.627
H28 H 1.081 0.911 0.439
H29 H 0.947 0.563 0.777
H30 H 1.022 0.645 0.776
H31 H 0.903 0.717 0.830
H32 H 1.036 0.620 0.437
H33 H 1.331 0.718 0.502
H34 H 1.390 0.656 0.421
H35 H 1.346 0.810 0.429
H36 H 1.040 0.431 0.664
H37 H 0.910 0.325 0.564
H38 H 0.897 0.438 0.494
H39 H 0.859 0.448 0.619
H40 H 1.085 0.252 0.520
H41 H 1.125 0.437 0.270
H42 H 1.031 0.158 0.333
H43 H 1.021 0.272 -0.102
H44 H 0.926 0.360 -0.070
H45 H 0.890 0.222 -0.032
H46 H 1.177 0.332 0.687
H47 H 1.317 0.495 0.658
H48 H 1.399 0.379 0.554
H49 H 1.470 0.396 0.725
H50 H 1.323 -0.092 0.786
H51 H 1.353 -0.029 0.632
H52 H 1.441 0.131 0.711
H53 H 1.241 0.279 1.041
C51 C 0.2626(10) 0.0004(14) 0.2500(13)
O20 O 0.2064(5) 0.0050(7) 0.3896(7)
H54 H 0.335 -0.063 0.268
H55 H 0.297 -0.022 0.127
H56? H 0.717 0.121 0.209
H57? H -0.393 0.682 0.017
H58? H 0.491 0.770 0.947
H59? H 0.615 0.247 0.478
H60? H 0.031 0.332 0.745
H61? H 0.955 0.657 0.730
H62? H 0.357 0.378 0.660
H63? H 0.252 0.876 0.227
H64? H 0.655 0.995 0.627
loop_
_geom_bond_atom_site_label_1
_geom_bond_atom_site_label_2
_geom_bond_site_symmetry_1
_geom_bond_site_symmetry_2
C1 C2 1_555 1_555
C2 C3 1_555 1_555
C3 C4 1_555 1_555
C4 C10 1_555 1_555
C5 C6 1_555 1_555
C6 C7 1_555 1_555
C7 C8 1_555 1_555
C8 C9 1_555 1_555
C9 C1 1_555 1_555
C10 C5 1_555 1_555
C11 C8 1_555 1_555
C12 C11 1_555 1_555
C13 C12 1_555 1_555
C14 C6 1_555 1_555
C15 C16 1_555 1_555
C16 C17 1_555 1_555
C17 C18 1_555 1_555
C18 C19 1_555 1_555
C19 C20 1_555 1_555
C20 C21 1_555 1_555
C21 C22 1_555 1_555
C22 C23 1_555 1_555
C23 C24 1_555 1_555
C24 C25 1_555 1_555
C25 C26 1_555 1_555
C26 C27 1_555 1_555
C27 C28 1_555 1_555
C28 C29 1_555 1_555
C29 O5 1_555 1_555
C30 C16 1_555 1_555
C31 C20 1_555 1_555
C32 C22 1_555 1_555
C33 C24 1_555 1_555
C34 C26 1_555 1_555
C35 C36 1_555 1_555
C36 H33 1_555 1_555
C37 C38 1_555 1_555
C38 C39 1_555 1_555
C39 C41 1_555 1_555
C40 O14 1_555 1_555
C41 C42 1_555 1_555
C42 C43 1_555 1_555
C43 H50 1_555 1_555
C44 C31 1_555 1_555
C45 C46 1_555 1_555
C46 C47 1_555 1_555
C47 H17 1_555 1_555
C48 C46 1_555 1_555
C49 C46 1_555 1_555
C50 C49 1_555 1_555
N1 C3 1_555 1_555
O1 C1 1_555 1_555
O2 C4 1_555 1_555
O3 C5 1_555 1_555
O4 C7 1_555 1_555
O5 C12 1_555 1_555
O6 C27 1_555 1_555
O7 C25 1_555 1_555
O8 C35 1_555 1_555
O9 C23 1_555 1_555
O10 C21 1_555 1_555
O11 C15 1_555 1_555
O12 C11 1_555 1_555
O13 C37 1_555 1_555
O14 C41 1_555 1_555
O15 C39 1_555 1_555
O16 C31 1_555 1_555
O17 C45 1_555 1_555
O18 C50 1_555 1_555
O19 C50 1_555 1_555
H1 C2 1_555 1_555
H2 O3 1_555 1_555
H3 C14 1_555 1_555
H4 C14 1_555 1_555
H5 C14 1_555 1_555
H6 C30 1_555 1_555
H7 C30 1_555 1_555
H8 C30 1_555 1_555
H9 C17 1_555 1_555
H10 C18 1_555 1_555
H11 C19 1_555 1_555
H12 C20 1_555 1_555
H13 C31 1_555 1_555
H14 C44 1_555 1_555
H15 C44 1_555 1_555
H16 C44 1_555 1_555
H18 C48 1_555 1_555
H19 C47 1_555 1_555
H20 C49 1_555 1_555
H21 C49 1_555 1_555
H22 C21 1_555 1_555
H23 O10 1_555 1_555
H24 C22 1_555 1_555
H25 C32 1_555 1_555
H26 C32 1_555 1_555
H27 C23 1_555 1_555
H28 O9 1_555 1_555
H29 C33 1_555 1_555
H30 C33 1_555 1_555
H31 C33 1_555 1_555
H32 C25 1_555 1_555
H34 C36 1_555 1_555
H35 C36 1_555 1_555
H36 C26 1_555 1_555
H37 C34 1_555 1_555
H38 C34 1_555 1_555
H39 C34 1_555 1_555
H40 C27 1_555 1_555
H41 C28 1_555 1_555
H42 C29 1_555 1_555
H43 C13 1_555 1_555
H44 C13 1_555 1_555
H45 C13 1_555 1_555
H46 C37 1_555 1_555
H47 C38 1_555 1_555
H48 C38 1_555 1_555
H49 C39 1_555 1_555
H51 C43 1_555 1_555
H52 C41 1_555 1_555
H53 C40 1_555 1_555
C51 O20 1_555 1_555
H54 C51 1_555 1_555
H55 C51 1_555 1_555
C9 C10 1_555 1_555
C12 O4 1_555 1_555
C15 N1 1_555 1_555
C35 O7 1_555 1_555
C37 O6 1_555 1_555
C40 O15 1_555 1_555
C42 O13 1_555 1_555
C45 O16 1_555 1_555

#END
