
#######################################################################
#
#                 Cambridge Crystallographic Data Centre
#                                CCDC 
#
#######################################################################
#
# If this CIF has been generated from an entry in the Cambridge 
# Structural Database, then it will include bibliographic, chemical, 
# crystal, experimental, refinement or atomic coordinate data resulting 
# from the CCDC's data processing and validation procedures.
#
#######################################################################

data_GAGHOM
_chemical_formula_moiety         'C24 H23 N3 O7'
_chemical_name_systematic        
N-(4-Methoxyphenyl)-N-(3-methyl-1-(fur-2-yl)pent-4-en-1-yl)-3,5-dinitrobenzamide
_symmetry_cell_setting           triclinic
_symmetry_space_group_name_H-M   'P -1'
_symmetry_Int_Tables_number      2
_space_group_name_Hall           '-P 1'
loop_
_symmetry_equiv_pos_site_id
_symmetry_equiv_pos_as_xyz
1 x,y,z
2 -x,-y,-z
_cell_length_a                   9.321(1)
_cell_length_b                   10.529(2)
_cell_length_c                   13.773(2)
_cell_angle_alpha                101.263(1)
_cell_angle_beta                 102.727(1)
_cell_angle_gamma                109.344(4)
_cell_volume                     1190.02
_exptl_crystal_description       block
_cell_formula_units_Z            2
loop_
_atom_site_label
_atom_site_type_symbol
_atom_site_fract_x
_atom_site_fract_y
_atom_site_fract_z
O1 O -0.2389(2) -0.2328(1) 0.6793(1)
O2 O 0.1529(2) -0.0143(2) 0.92859(10)
O3 O -0.0282(2) 0.4601(2) 0.6161(1)
O4 O -0.3297(2) 0.2490(2) 0.9236(1)
O5 O -0.2265(2) 0.4188(2) 1.0613(1)
O6 O 0.4634(2) 0.4540(2) 1.2067(1)
O7 O 0.3278(2) 0.5663(2) 1.2563(1)
N1 N 0.0476(2) 0.0349(1) 0.78210(10)
N2 N -0.2192(2) 0.3253(2) 0.9989(1)
N3 N 0.3413(3) 0.4736(2) 1.1969(1)
C1 C 0.4302(6) -0.1329(6) 0.8416(5)
C2 C 0.3713(4) -0.1273(5) 0.7645(3)
C3 C 0.3393(3) -0.0106(3) 0.7269(2)
C4 C 0.4538(3) 0.0501(4) 0.6687(2)
C5 C 0.1678(2) -0.0648(2) 0.6576(1)
C6 C 0.0427(2) -0.0964(2) 0.7132(1)
C7 C -0.1198(2) -0.1775(2) 0.6383(1)
C8 C -0.1813(3) -0.2112(2) 0.5344(2)
C9 C -0.3483(3) -0.2902(2) 0.5093(2)
C10 C -0.3776(3) -0.3014(3) 0.5975(2)
C11 C 0.0252(2) 0.1414(2) 0.7369(1)
C12 C 0.1532(2) 0.2661(2) 0.7533(1)
C13 C 0.1314(2) 0.3695(2) 0.7126(1)
C14 C -0.0184(2) 0.3504(2) 0.6532(1)
C15 C -0.1458(2) 0.2269(2) 0.6350(1)
C16 C -0.1244(2) 0.1226(2) 0.6771(1)
C17 C -0.1758(4) 0.4429(3) 0.5475(2)
C18 C 0.0988(2) 0.0600(2) 0.8865(1)
C19 C 0.0852(2) 0.1833(2) 0.9544(1)
C20 C 0.2160(2) 0.2718(2) 1.0396(1)
C21 C 0.2000(3) 0.3773(2) 1.1081(1)
C22 C 0.0606(3) 0.3972(2) 1.0976(1)
C23 C -0.0670(2) 0.3076(2) 1.0128(1)
C24 C -0.0577(2) 0.2011(2) 0.9406(1)
H1 H 0.4741 -0.0505 0.9017
H2 H 0.4377 -0.2204 0.8491
H3 H 0.3321 -0.2152 0.7097
H4 H 0.3547 0.0639 0.7870
H5 H 0.5630 0.0861 0.7140
H6 H 0.4392 -0.0229 0.6079
H7 H 0.4322 0.1260 0.6470
H8 H 0.1571 0.0057 0.6238
H9 H 0.1468 -0.1508 0.6054
H10 H 0.0655 -0.1538 0.7568
H11 H -0.1231 -0.1865 0.4859
H12 H -0.4259 -0.3285 0.4404
H13 H -0.4819 -0.3509 0.6036
H14 H 0.2593 0.2802 0.7940
H15 H 0.2217 0.4567 0.7256
H16 H -0.2510 0.2125 0.5925
H17 H -0.2152 0.0359 0.6646
H18 H -0.1641 0.5283 0.5276
H19 H -0.2069 0.3649 0.4859
H20 H -0.2572 0.4238 0.5822
H21 H 0.3166 0.2599 1.0509
H22 H 0.0522 0.4710 1.1477
H23 H -0.1500 0.1400 0.8812
loop_
_geom_bond_atom_site_label_1
_geom_bond_atom_site_label_2
_geom_bond_site_symmetry_1
_geom_bond_site_symmetry_2
O1 C7 1_555 1_555
O2 C18 1_555 1_555
O3 C14 1_555 1_555
O4 N2 1_555 1_555
O5 N2 1_555 1_555
O6 N3 1_555 1_555
O7 N3 1_555 1_555
N1 C6 1_555 1_555
N2 C23 1_555 1_555
N3 C21 1_555 1_555
C1 C2 1_555 1_555
C2 C3 1_555 1_555
C3 C4 1_555 1_555
C4 H5 1_555 1_555
C5 C3 1_555 1_555
C6 C5 1_555 1_555
C7 C6 1_555 1_555
C8 C7 1_555 1_555
C9 C8 1_555 1_555
C10 O1 1_555 1_555
C11 N1 1_555 1_555
C12 C11 1_555 1_555
C13 C12 1_555 1_555
C14 C13 1_555 1_555
C15 C14 1_555 1_555
C16 C11 1_555 1_555
C17 O3 1_555 1_555
C18 N1 1_555 1_555
C19 C18 1_555 1_555
C20 C19 1_555 1_555
C21 C20 1_555 1_555
C22 C21 1_555 1_555
C23 C22 1_555 1_555
C24 C19 1_555 1_555
H1 C1 1_555 1_555
H2 C1 1_555 1_555
H3 C2 1_555 1_555
H4 C3 1_555 1_555
H6 C4 1_555 1_555
H7 C4 1_555 1_555
H8 C5 1_555 1_555
H9 C5 1_555 1_555
H10 C6 1_555 1_555
H11 C8 1_555 1_555
H12 C9 1_555 1_555
H13 C10 1_555 1_555
H14 C12 1_555 1_555
H15 C13 1_555 1_555
H16 C15 1_555 1_555
H17 C16 1_555 1_555
H18 C17 1_555 1_555
H19 C17 1_555 1_555
H20 C17 1_555 1_555
H21 C20 1_555 1_555
H22 C22 1_555 1_555
H23 C24 1_555 1_555
C9 C10 1_555 1_555
C15 C16 1_555 1_555
C23 C24 1_555 1_555

#END
