
#######################################################################
#
#                 Cambridge Crystallographic Data Centre
#                                CCDC 
#
#######################################################################
#
# If this CIF has been generated from an entry in the Cambridge 
# Structural Database, then it will include bibliographic, chemical, 
# crystal, experimental, refinement or atomic coordinate data resulting 
# from the CCDC's data processing and validation procedures.
#
#######################################################################

data_GAGJAC
_chemical_formula_moiety         'C12 H12 N4 2+,2(C8 H5 O4 1-)'
_chemical_name_systematic        
"5,5'-(1,4-phenylene)bis-1H-imidazol-3-ium bis(4-carboxybenzoate)"
_symmetry_cell_setting           monoclinic
_symmetry_space_group_name_H-M   'P 21/c'
_symmetry_Int_Tables_number      14
_space_group_name_Hall           '-P 2ybc'
loop_
_symmetry_equiv_pos_site_id
_symmetry_equiv_pos_as_xyz
1 x,y,z
2 -x,1/2+y,1/2-z
3 -x,-y,-z
4 x,1/2-y,1/2+z
_cell_length_a                   9.6923(10)
_cell_length_b                   17.2950(17)
_cell_length_c                   7.1880(7)
_cell_angle_alpha                90
_cell_angle_beta                 94.801(2)
_cell_angle_gamma                90
_cell_volume                     1200.68
_exptl_crystal_colour            green
_exptl_crystal_description       block
_cell_formula_units_Z            2
loop_
_atom_site_label
_atom_site_type_symbol
_atom_site_fract_x
_atom_site_fract_y
_atom_site_fract_z
C1 C 0.47787(14) 0.07325(8) 0.4279(2)
H1 H 0.4632 0.1227 0.3793
C2 C 0.36510(13) 0.02454(7) 0.44390(18)
C3 C 0.38864(14) -0.04948(8) 0.5172(2)
H2 H 0.3146 -0.0828 0.5290
C4 C 0.22560(13) 0.05259(8) 0.38442(19)
C5 C 0.17189(14) 0.12501(8) 0.3909(2)
H3 H 0.2178 0.1688 0.4388
C6 C 0.00939(15) 0.05026(9) 0.2604(2)
H4 H -0.0744 0.0332 0.2023
N1 N 0.12032(12) 0.00648(7) 0.30319(18)
N2 N 0.03768(12) 0.12183(7) 0.31401(19)
H5 H 0.1232(19) -0.0458(12) 0.269(3)
H6 H -0.027(2) 0.1647(12) 0.301(3)
C1B C 0.52213(14) -0.07325(8) 0.5721(2)
H1B H 0.5368 -0.1227 0.6207
C2B C 0.63490(13) -0.02454(7) 0.55610(18)
C3B C 0.61136(14) 0.04948(8) 0.4828(2)
H2B H 0.6854 0.0828 0.4710
C4B C 0.77440(13) -0.05259(8) 0.61558(19)
C5B C 0.82811(14) -0.12501(8) 0.6091(2)
H3B H 0.7822 -0.1688 0.5612
C6B C 0.99061(15) -0.05026(9) 0.7396(2)
H4B H 1.0744 -0.0332 0.7977
N1B N 0.87968(12) -0.00648(7) 0.69681(18)
N2B N 0.96232(12) -0.12183(7) 0.68599(19)
H5B H 0.8768(19) 0.0458(12) 0.731(3)
H6B H 1.027(2) -0.1647(12) 0.699(3)
C7 C 0.55758(13) 0.23328(7) 0.75723(19)
H7 H 0.5838 0.2784 0.6993
C8 C 0.41824(13) 0.21750(8) 0.7688(2)
H8 H 0.3514 0.2515 0.7167
C9 C 0.37876(12) 0.15085(7) 0.85832(19)
C10 C 0.47939(13) 0.10029(8) 0.9342(2)
H9 H 0.4532 0.0559 0.9953
C11 C 0.61862(13) 0.11524(7) 0.9200(2)
H10 H 0.6853 0.0806 0.9694
C12 C 0.65828(12) 0.18230(7) 0.83144(19)
C13 C 0.80846(13) 0.20204(8) 0.8164(2)
C14 C 0.22964(13) 0.13085(8) 0.8725(2)
O1 O 0.14448(10) 0.18841(6) 0.83164(19)
H11 H 0.0644 0.1729 0.8290
O2 O 0.19389(10) 0.06677(6) 0.91697(17)
O3 O 0.83890(10) 0.27089(6) 0.79843(19)
O4 O 0.89360(9) 0.14581(6) 0.82338(18)
loop_
_geom_bond_atom_site_label_1
_geom_bond_atom_site_label_2
_geom_bond_site_symmetry_1
_geom_bond_site_symmetry_2
C1 H1 1_555 1_555
C2 C1 1_555 1_555
C3 C2 1_555 1_555
H2 C3 1_555 1_555
C4 C2 1_555 1_555
C5 C4 1_555 1_555
H3 C5 1_555 1_555
C6 H4 1_555 1_555
N1 C4 1_555 1_555
N2 C5 1_555 1_555
H5 N1 1_555 1_555
H6 N2 1_555 1_555
C7 H7 1_555 1_555
C8 C7 1_555 1_555
H8 C8 1_555 1_555
C9 C8 1_555 1_555
C10 C9 1_555 1_555
H9 C10 1_555 1_555
C11 C10 1_555 1_555
H10 C11 1_555 1_555
C12 C7 1_555 1_555
C13 C12 1_555 1_555
C14 C9 1_555 1_555
O1 C14 1_555 1_555
H11 O1 1_555 1_555
O2 C14 1_555 1_555
O3 C13 1_555 1_555
O4 C13 1_555 1_555
C1B C3 1_555 1_555
H1B C1B 1_555 1_555
C2B C1B 1_555 1_555
C3B C1 1_555 1_555
H2B C3B 1_555 1_555
C4B C2B 1_555 1_555
C5B C4B 1_555 1_555
H3B C5B 1_555 1_555
C6B H4B 1_555 1_555
N1B C4B 1_555 1_555
N2B C5B 1_555 1_555
H5B N1B 1_555 1_555
H6B N2B 1_555 1_555
C6 N1 1_555 1_555
C6 N2 1_555 1_555
C11 C12 1_555 1_555
C2B C3B 1_555 1_555
C6B N1B 1_555 1_555
C6B N2B 1_555 1_555

#END
