
#######################################################################
#
#                 Cambridge Crystallographic Data Centre
#                                CCDC 
#
#######################################################################
#
# If this CIF has been generated from an entry in the Cambridge 
# Structural Database, then it will include bibliographic, chemical, 
# crystal, experimental, refinement or atomic coordinate data resulting 
# from the CCDC's data processing and validation procedures.
#
#######################################################################

data_GAGJUW
_chemical_formula_moiety         
'C34 H28 N4 O3 S1,0.38(C4 H8 O2),0.13(C4 H10 O1)'
_chemical_name_systematic        
"1'-methyl-4'-(4-methylphenyl)-3''-phenyl-4''H-trispiro[indole-3,2'-pyrrolidine-3',5''-[1,3]thiazolidine-2'',3'''-indole]-2,2''',4''(1H,1'''H)-trione diethyl ether ethyl acetate solvate"
_symmetry_cell_setting           monoclinic
_symmetry_space_group_name_H-M   'P 21/c'
_symmetry_Int_Tables_number      14
_space_group_name_Hall           '-P 2ybc'
loop_
_symmetry_equiv_pos_site_id
_symmetry_equiv_pos_as_xyz
1 x,y,z
2 -x,1/2+y,1/2-z
3 -x,-y,-z
4 x,1/2-y,1/2+z
_cell_length_a                   13.9347(17)
_cell_length_b                   22.3341(19)
_cell_length_c                   12.6621(12)
_cell_angle_alpha                90
_cell_angle_beta                 116.439(14)
_cell_angle_gamma                90
_cell_volume                     3528.53
_cell_formula_units_Z            4
loop_
_atom_site_label
_atom_site_type_symbol
_atom_site_fract_x
_atom_site_fract_y
_atom_site_fract_z
O4 O 0.9327(13) 0.0370(7) 0.2835(13)
O5 O 0.8023(13) 0.0494(8) 0.3199(14)
C35 C 0.864(2) 0.0128(13) 0.313(2)
C36 C 0.863(3) -0.0531(17) 0.300(3)
H29 H 0.8594 -0.0718 0.3660
H30 H 0.9272 -0.0657 0.2956
H31 H 0.8017 -0.0646 0.2285
C37 C 0.974(4) 0.0974(19) 0.311(5)
H32 H 1.0512 0.0947 0.3440
H33 H 0.9580 0.1114 0.3745
C38 C 0.939(3) 0.1455(17) 0.220(5)
H34 H 0.9184 0.1279 0.1438
H35 H 0.9970 0.1730 0.2372
H36 H 0.8789 0.1665 0.2202
N1 N 0.6851(3) 0.58208(15) 0.3829(3)
N2 N 0.6094(3) 0.75961(18) 0.1364(3)
H1 H 0.6119 0.7743 0.0749
N3 N 0.8879(3) 0.50667(17) 0.3468(3)
H2 H 0.9457 0.4858 0.3715
N4 N 0.6528(3) 0.77495(16) 0.4237(3)
O1 O 0.6371(2) 0.63981(13) 0.4983(2)
O2 O 0.7734(3) 0.79021(15) 0.2733(2)
O3 O 0.9130(3) 0.55097(15) 0.5214(2)
S1 S 0.79751(9) 0.65382(5) 0.31948(9)
C1 C 0.7369(3) 0.68616(18) 0.4071(3)
C2 C 0.6812(3) 0.63401(19) 0.4357(3)
C3 C 0.7607(3) 0.57723(18) 0.3340(3)
C4 C 0.6884(4) 0.7649(2) 0.2462(4)
C5 C 0.6522(3) 0.73374(18) 0.3328(3)
C6 C 0.5415(3) 0.71204(19) 0.2480(3)
C7 C 0.5223(4) 0.7273(2) 0.1337(4)
C8 C 0.4289(4) 0.7128(3) 0.0372(4)
H3 H 0.4177 0.7232 -0.0385
C9 C 0.3526(5) 0.6826(3) 0.0561(5)
H4 H 0.2891 0.6717 -0.0082
C10 C 0.3672(4) 0.6681(3) 0.1665(5)
H5 H 0.3139 0.6477 0.1770
C11 C 0.4622(4) 0.6838(2) 0.2641(4)
H6 H 0.4714 0.6752 0.3399
C12 C 0.8637(4) 0.5437(2) 0.4158(4)
C13 C 0.8077(4) 0.5064(2) 0.2302(4)
C14 C 0.7262(3) 0.54461(19) 0.2195(3)
C15 C 0.6374(4) 0.5523(2) 0.1124(3)
H7 H 0.5829 0.5787 0.1048
C16 C 0.6315(5) 0.5197(2) 0.0160(4)
H8 H 0.5718 0.5231 -0.0568
C17 C 0.7142(5) 0.4825(2) 0.0290(4)
H9 H 0.7097 0.4615 -0.0366
C18 C 0.8034(4) 0.4747(2) 0.1346(4)
H10 H 0.8586 0.4492 0.1415
C19 C 0.7657(4) 0.7821(2) 0.5068(4)
H11 H 0.7730 0.7987 0.5808
H12 H 0.8015 0.8083 0.4746
C20 C 0.8122(4) 0.7192(2) 0.5246(3)
H13 H 0.7978 0.7010 0.5865
C21 C 0.9307(4) 0.7140(2) 0.5658(4)
C22 C 0.9905(5) 0.6813(3) 0.6677(4)
H14 H 0.9575 0.6658 0.7115
C23 C 1.0989(6) 0.6716(3) 0.7042(5)
H15 H 1.1373 0.6491 0.7718
C24 C 1.1510(5) 0.6944(3) 0.6430(6)
C25 C 1.0923(5) 0.7287(3) 0.5450(5)
H16 H 1.1260 0.7455 0.5030
C26 C 0.9837(4) 0.7385(3) 0.5076(4)
H17 H 0.9461 0.7623 0.4415
C27 C 1.2683(5) 0.6801(4) 0.6826(7)
H18 H 1.2826 0.6786 0.6151
H19 H 1.2848 0.6420 0.7217
H20 H 1.3118 0.7105 0.7359
C28 C 0.6318(4) 0.5289(2) 0.3953(4)
C29 C 0.5270(5) 0.5209(2) 0.3189(5)
H21 H 0.4920 0.5491 0.2601
C30 C 0.4716(6) 0.4711(3) 0.3278(6)
H22 H 0.3997 0.4655 0.2759
C31 C 0.5241(7) 0.4315(3) 0.4126(7)
H23 H 0.4880 0.3978 0.4193
C32 C 0.6267(7) 0.4387(3) 0.4882(7)
H24 H 0.6605 0.4100 0.5461
C33 C 0.6846(5) 0.4885(3) 0.4825(5)
H25 H 0.7561 0.4939 0.5359
C34 C 0.5951(5) 0.8308(2) 0.3779(5)
H26 H 0.6328 0.8546 0.3453
H27 H 0.5902 0.8526 0.4407
H28 H 0.5244 0.8222 0.3176
O6? O 1.020(4) 0.1019(19) 0.424(5)
C39? C 1.003(7) 0.095(3) 0.527(8)
H37? H 0.9426 0.0691 0.5100
H38? H 0.9882 0.1338 0.5511
C40? C 1.104(8) 0.068(4) 0.627(7)
H39? H 1.0885 0.0289 0.6455
H40? H 1.1275 0.0933 0.6956
H41? H 1.1602 0.0657 0.6024
C41? C 0.926(9) 0.117(5) 0.319(12)
H42? H 0.9033 0.1568 0.3264
H43? H 0.8692 0.0892 0.3094
C42? C 0.947(9) 0.114(5) 0.211(12)
H44? H 0.9959 0.1448 0.2149
H45? H 0.8806 0.1187 0.1411
H46? H 0.9775 0.0754 0.2083
loop_
_geom_bond_atom_site_label_1
_geom_bond_atom_site_label_2
_geom_bond_site_symmetry_1
_geom_bond_site_symmetry_2
N1 C2 1_555 1_555
N2 H1 1_555 1_555
N3 H2 1_555 1_555
N4 C5 1_555 1_555
O1 C2 1_555 1_555
O2 C4 1_555 1_555
O3 C12 1_555 1_555
S1 C1 1_555 1_555
C1 C2 1_555 1_555
C3 N1 1_555 1_555
C4 N2 1_555 1_555
C5 C1 1_555 1_555
C6 C5 1_555 1_555
C7 N2 1_555 1_555
C8 C7 1_555 1_555
H3 C8 1_555 1_555
C9 C8 1_555 1_555
H4 C9 1_555 1_555
C10 C9 1_555 1_555
H5 C10 1_555 1_555
C11 C6 1_555 1_555
H6 C11 1_555 1_555
C12 N3 1_555 1_555
C13 N3 1_555 1_555
C14 C3 1_555 1_555
C15 C14 1_555 1_555
H7 C15 1_555 1_555
C16 C15 1_555 1_555
H8 C16 1_555 1_555
C17 C16 1_555 1_555
H9 C17 1_555 1_555
C18 C13 1_555 1_555
H10 C18 1_555 1_555
C19 N4 1_555 1_555
H11 C19 1_555 1_555
H12 C19 1_555 1_555
C20 C1 1_555 1_555
H13 C20 1_555 1_555
C21 C20 1_555 1_555
C22 C21 1_555 1_555
H14 C22 1_555 1_555
C23 C22 1_555 1_555
H15 C23 1_555 1_555
C24 C23 1_555 1_555
C25 C24 1_555 1_555
H16 C25 1_555 1_555
C26 C21 1_555 1_555
H17 C26 1_555 1_555
C27 C24 1_555 1_555
H18 C27 1_555 1_555
H19 C27 1_555 1_555
H20 C27 1_555 1_555
C28 N1 1_555 1_555
C29 C28 1_555 1_555
H21 C29 1_555 1_555
C30 C29 1_555 1_555
H22 C30 1_555 1_555
C31 C30 1_555 1_555
H23 C31 1_555 1_555
C32 C31 1_555 1_555
H24 C32 1_555 1_555
C33 C28 1_555 1_555
H25 C33 1_555 1_555
C34 N4 1_555 1_555
H26 C34 1_555 1_555
H27 C34 1_555 1_555
H28 C34 1_555 1_555
O4 C35 1_555 1_555
O5 C35 1_555 1_555
C35 C36 1_555 1_555
C36 H29 1_555 1_555
H30 C36 1_555 1_555
H31 C36 1_555 1_555
C37 O4 1_555 1_555
H32 C37 1_555 1_555
H33 C37 1_555 1_555
C38 C37 1_555 1_555
H34 C38 1_555 1_555
H35 C38 1_555 1_555
H36 C38 1_555 1_555
S1 C3 1_555 1_555
C3 C12 1_555 1_555
C4 C5 1_555 1_555
C6 C7 1_555 1_555
C10 C11 1_555 1_555
C13 C14 1_555 1_555
C17 C18 1_555 1_555
C19 C20 1_555 1_555
C25 C26 1_555 1_555
C32 C33 1_555 1_555

#END
