
#######################################################################
#
#                 Cambridge Crystallographic Data Centre
#                                CCDC 
#
#######################################################################
#
# If this CIF has been generated from an entry in the Cambridge 
# Structural Database, then it will include bibliographic, chemical, 
# crystal, experimental, refinement or atomic coordinate data resulting 
# from the CCDC's data processing and validation procedures.
#
#######################################################################

data_GAGKOR
_chemical_formula_moiety         '2(C2 H8 N1 O6 P2 1-),C4 H12 N2 2+,4(H2 O1)'
_chemical_name_systematic        
'piperazinediium bis((1-ammonioethane-1,1-diyl)bis(hydrogen (phosphonate))) tetrahydrate'
_symmetry_cell_setting           triclinic
_symmetry_space_group_name_H-M   'P -1'
_symmetry_Int_Tables_number      2
_space_group_name_Hall           '-P 1'
loop_
_symmetry_equiv_pos_site_id
_symmetry_equiv_pos_as_xyz
1 x,y,z
2 -x,-y,-z
_cell_length_a                   5.7389(14)
_cell_length_b                   9.985(2)
_cell_length_c                   11.457(3)
_cell_angle_alpha                115.505(4)
_cell_angle_beta                 94.461(4)
_cell_angle_gamma                92.251(4)
_cell_volume                     588.81
_cell_formula_units_Z            1
loop_
_atom_site_label
_atom_site_type_symbol
_atom_site_fract_x
_atom_site_fract_y
_atom_site_fract_z
P1 P 0.58818(7) 0.18897(4) 0.17543(4)
P2 P 0.62824(7) 0.49518(4) 0.17367(4)
O1 O 0.3750(2) 0.47249(14) 0.12025(12)
O2 O 0.3505(2) 0.14197(13) 0.09935(13)
O3 O 0.6829(2) 0.57685(13) 0.31770(11)
O4 O 0.5980(2) 0.26801(15) 0.31972(12)
O5 O 0.7803(2) 0.57657(14) 0.11148(12)
H1 H 0.7232 0.5543 0.0370
O6 O 0.7445(2) 0.05311(13) 0.13902(13)
H2 H 0.7104 -0.0054 0.0624
N1 N 0.9960(2) 0.33803(15) 0.18169(13)
H3 H 1.0631 0.2523 0.1526
H4 H 0.9964 0.3752 0.2676
H5 H 1.0755 0.4022 0.1616
C1 C 0.7477(3) 0.31162(17) 0.11965(14)
C2 C 0.7510(3) 0.23619(19) -0.02843(15)
H6 H 0.8473 0.2975 -0.0542
H7 H 0.5942 0.2228 -0.0698
H8 H 0.8137 0.1410 -0.0541
O7 O 0.6032(3) 0.21929(18) 0.53158(16)
H9 H 0.560(5) 0.292(3) 0.583(3)
H10 H 0.607(5) 0.232(3) 0.463(3)
N2 N 0.9503(3) 0.84346(17) 0.44661(17)
H11 H 0.8480 0.7624 0.4175
H12 H 1.0959 0.8125 0.4391
C3 C 0.9071(4) 0.9235(2) 0.3650(2)
H13 H 0.7467 0.9510 0.3675
H14 H 0.9297 0.8591 0.2755
C4 C 0.9257(4) 0.9383(2) 0.5849(2)
H15 H 0.9590 0.8832 0.6355
H16 H 0.7659 0.9664 0.5944
N2A N 1.0497(3) 1.15654(17) 0.55339(17)
H11A H 1.1520 1.2376 0.5825
H12A H 0.9041 1.1875 0.5609
C3A C 1.0929(4) 1.0765(2) 0.6350(2)
H13A H 1.2533 1.0490 0.6325
H14A H 1.0703 1.1409 0.7245
C4A C 1.0743(4) 1.0617(2) 0.4151(2)
H15A H 1.0410 1.1168 0.3645
H16A H 1.2341 1.0336 0.4056
O8 O 0.2072(3) 0.4224(2) 0.42822(17)
H17 H 0.324(6) 0.385(4) 0.403(3)
H18 H 0.221(6) 0.467(4) 0.506(3)
loop_
_geom_bond_atom_site_label_1
_geom_bond_atom_site_label_2
_geom_bond_site_symmetry_1
_geom_bond_site_symmetry_2
P1 O2 1_555 1_555
P2 O1 1_555 1_555
O3 P2 1_555 1_555
O4 P1 1_555 1_555
O5 P2 1_555 1_555
H1 O5 1_555 1_555
O6 P1 1_555 1_555
H2 O6 1_555 1_555
N1 H3 1_555 1_555
H4 N1 1_555 1_555
H5 N1 1_555 1_555
C1 P1 1_555 1_555
C2 C1 1_555 1_555
H6 C2 1_555 1_555
H7 C2 1_555 1_555
H8 C2 1_555 1_555
O7 H9 1_555 1_555
H10 O7 1_555 1_555
N2 H11 1_555 1_555
H12 N2 1_555 1_555
C3 N2 1_555 1_555
H13 C3 1_555 1_555
H14 C3 1_555 1_555
C4 N2 1_555 1_555
H15 C4 1_555 1_555
H16 C4 1_555 1_555
O8 H17 1_555 1_555
H18 O8 1_555 1_555
N2A H11A 1_555 1_555
H12A N2A 1_555 1_555
C3A C4 1_555 1_555
H13A C3A 1_555 1_555
H14A C3A 1_555 1_555
C4A C3 1_555 1_555
H15A C4A 1_555 1_555
H16A C4A 1_555 1_555
P2 C1 1_555 1_555
N1 C1 1_555 1_555
N2A C3A 1_555 1_555
N2A C4A 1_555 1_555

#END
