
#######################################################################
#
#                 Cambridge Crystallographic Data Centre
#                                CCDC 
#
#######################################################################
#
# If this CIF has been generated from an entry in the Cambridge 
# Structural Database, then it will include bibliographic, chemical, 
# crystal, experimental, refinement or atomic coordinate data resulting 
# from the CCDC's data processing and validation procedures.
#
#######################################################################

data_GAGKAD
_chemical_formula_moiety         
'C33 H25 Br1 N4 O3 S1,0.5(C4 H8 O2),0.5(C4 H10 O1)'
_chemical_name_systematic        
"4'-(4-bromophenyl)-1'-methyl-3''-phenyl-4''H-trispiro[indole-3,2'-pyrrolidine-3',5''-[1,3]thiazolidine-2'',3'''-indole]-2,2''',4''(1H,1'''H)-trione diethyl ether ethyl acetate solvate"
_symmetry_cell_setting           monoclinic
_symmetry_space_group_name_H-M   'P 21/c'
_symmetry_Int_Tables_number      14
_space_group_name_Hall           '-P 2ybc'
loop_
_symmetry_equiv_pos_site_id
_symmetry_equiv_pos_as_xyz
1 x,y,z
2 -x,1/2+y,1/2-z
3 -x,-y,-z
4 x,1/2-y,1/2+z
_cell_length_a                   13.9834(11)
_cell_length_b                   22.6215(19)
_cell_length_c                   12.6040(12)
_cell_angle_alpha                90
_cell_angle_beta                 116.239(11)
_cell_angle_gamma                90
_cell_volume                     3576.14
_cell_formula_units_Z            4
loop_
_atom_site_label
_atom_site_type_symbol
_atom_site_fract_x
_atom_site_fract_y
_atom_site_fract_z
O4 O 0.523(2) 0.9031(11) 0.590(3)
O5 O 0.4302(19) 0.8916(8) 0.4071(16)
C34 C 0.517(4) 0.9082(16) 0.485(4)
C35 C 0.429(16) 0.882(8) 0.598(18)
H26 H 0.4161 0.8408 0.5763
H27 H 0.3669 0.9050 0.5473
C36 C 0.455(7) 0.891(2) 0.729(8)
H28 H 0.4713 0.8535 0.7686
H29 H 0.3943 0.9080 0.7343
H30 H 0.5149 0.9170 0.7653
C37 C 0.624(8) 0.926(4) 0.499(6)
H31 H 0.6190 0.9383 0.4234
H32 H 0.6721 0.8929 0.5272
H33 H 0.6510 0.9580 0.5540
Br1 Br 0.78817(6) 0.32857(5) 0.60683(10)
N1 N 0.1857(3) 0.41823(16) 0.2990(3)
N2 N 0.1549(3) 0.22625(16) 0.2294(3)
N3 N 0.3855(3) 0.49310(18) 0.5369(3)
H1 H 0.4427 0.5140 0.5691
N4 N 0.1064(3) 0.24385(19) 0.4720(3)
H2 H 0.1081 0.2301 0.5364
O1 O 0.1392(3) 0.36042(14) 0.1362(3)
O2 O 0.4132(3) 0.44973(15) 0.3878(3)
O3 O 0.2715(3) 0.21307(15) 0.4986(3)
S1 S 0.29602(9) 0.34726(5) 0.47466(9)
C1 C 0.2591(4) 0.4235(2) 0.4231(4)
C2 C 0.1830(4) 0.3667(2) 0.2438(4)
C3 C 0.2373(3) 0.31499(19) 0.3274(4)
C4 C 0.1521(3) 0.26729(19) 0.3171(4)
C5 C 0.2687(4) 0.2191(2) 0.2583(4)
H3 H 0.2771 0.2024 0.1921
H4 H 0.3042 0.1937 0.3268
C6 C 0.3126(4) 0.2815(2) 0.2844(4)
H5 H 0.2992 0.2989 0.2080
C7 C 0.4299(4) 0.2875(2) 0.3614(4)
C8 C 0.4814(4) 0.2625(3) 0.4731(5)
H6 H 0.4429 0.2381 0.4996
C9 C 0.5883(5) 0.2727(3) 0.5468(6)
H7 H 0.6215 0.2559 0.6217
C10 C 0.6440(5) 0.3088(3) 0.5050(7)
C11 C 0.5980(5) 0.3315(3) 0.3945(7)
H8 H 0.6381 0.3541 0.3670
C12 C 0.4913(5) 0.3211(3) 0.3224(6)
H9 H 0.4600 0.3368 0.2464
C13 C 0.1325(4) 0.4703(2) 0.2329(4)
C14 C 0.1847(6) 0.5100(3) 0.1968(5)
H10 H 0.2559 0.5041 0.2137
C15 C 0.1304(8) 0.5595(3) 0.1341(6)
H11 H 0.1653 0.5873 0.1093
C16 C 0.0270(8) 0.5675(3) 0.1091(6)
H12 H -0.0087 0.6008 0.0670
C17 C -0.0255(6) 0.5281(3) 0.1438(6)
H13 H -0.0970 0.5339 0.1253
C18 C 0.0278(5) 0.4794(3) 0.2068(5)
H14 H -0.0077 0.4522 0.2321
C19 C 0.3624(4) 0.4566(2) 0.4444(4)
C20 C 0.3040(4) 0.4928(2) 0.5743(4)
C21 C 0.2231(4) 0.4545(2) 0.5041(4)
C22 C 0.1347(4) 0.4468(2) 0.5230(4)
H15 H 0.0809 0.4208 0.4766
C23 C 0.1274(5) 0.4790(3) 0.6135(5)
H16 H 0.0674 0.4751 0.6268
C24 C 0.2082(5) 0.5161(3) 0.6829(5)
H17 H 0.2018 0.5371 0.7429
C25 C 0.2989(5) 0.5234(2) 0.6664(5)
H18 H 0.3543 0.5479 0.7154
C26 C 0.1863(4) 0.2381(2) 0.4410(4)
C27 C 0.0206(4) 0.2749(2) 0.3872(4)
C28 C 0.0411(4) 0.2890(2) 0.2923(4)
C29 C -0.0381(4) 0.3166(2) 0.1956(4)
H19 H -0.0277 0.3251 0.1293
C30 C -0.1339(5) 0.3315(3) 0.1981(6)
H20 H -0.1874 0.3499 0.1331
C31 C -0.1497(5) 0.3193(3) 0.2951(6)
H21 H -0.2131 0.3309 0.2962
C32 C -0.0737(5) 0.2900(3) 0.3919(6)
H22 H -0.0851 0.2809 0.4573
C33 C 0.0995(5) 0.1706(2) 0.2182(5)
H23 H 0.1355 0.1481 0.2896
H24 H 0.0989 0.1487 0.1528
H25 H 0.0276 0.1783 0.2050
O6? O 0.427(2) 0.9589(15) 0.646(2)
C38? C 0.361(3) 0.989(2) 0.538(3)
H34? H 0.2869 0.9820 0.5182
H35? H 0.3754 0.9747 0.4745
C39? C 0.383(8) 1.056(4) 0.553(7)
H36? H 0.4083 1.0692 0.4972
H37? H 0.4359 1.0643 0.6318
H38? H 0.3183 1.0767 0.5383
C40? C 0.450(17) 0.899(8) 0.627(19)
H39? H 0.5230 0.8961 0.6373
H40? H 0.4031 0.8871 0.5466
C41? C 0.435(7) 0.857(2) 0.714(9)
H41? H 0.3724 0.8334 0.6720
H42? H 0.4276 0.8795 0.7739
H43? H 0.4962 0.8315 0.7494
loop_
_geom_bond_atom_site_label_1
_geom_bond_atom_site_label_2
_geom_bond_site_symmetry_1
_geom_bond_site_symmetry_2
Br1 C10 1_555 1_555
N1 C1 1_555 1_555
N2 C4 1_555 1_555
N3 H1 1_555 1_555
N4 H2 1_555 1_555
O1 C2 1_555 1_555
O2 C19 1_555 1_555
O3 C26 1_555 1_555
S1 C1 1_555 1_555
C1 C19 1_555 1_555
C2 N1 1_555 1_555
C3 S1 1_555 1_555
C4 C3 1_555 1_555
C5 N2 1_555 1_555
H3 C5 1_555 1_555
H4 C5 1_555 1_555
C6 C3 1_555 1_555
H5 C6 1_555 1_555
C7 C6 1_555 1_555
C8 C7 1_555 1_555
H6 C8 1_555 1_555
C9 C8 1_555 1_555
H7 C9 1_555 1_555
C10 C9 1_555 1_555
C11 C10 1_555 1_555
H8 C11 1_555 1_555
C12 C7 1_555 1_555
H9 C12 1_555 1_555
C13 N1 1_555 1_555
C14 C13 1_555 1_555
H10 C14 1_555 1_555
C15 C14 1_555 1_555
H11 C15 1_555 1_555
C16 C15 1_555 1_555
H12 C16 1_555 1_555
C17 C16 1_555 1_555
H13 C17 1_555 1_555
C18 C13 1_555 1_555
H14 C18 1_555 1_555
C19 N3 1_555 1_555
C20 N3 1_555 1_555
C21 C1 1_555 1_555
C22 C21 1_555 1_555
H15 C22 1_555 1_555
C23 C22 1_555 1_555
H16 C23 1_555 1_555
C24 C23 1_555 1_555
H17 C24 1_555 1_555
C25 C20 1_555 1_555
H18 C25 1_555 1_555
C26 N4 1_555 1_555
C27 N4 1_555 1_555
C28 C4 1_555 1_555
C29 C28 1_555 1_555
H19 C29 1_555 1_555
C30 C29 1_555 1_555
H20 C30 1_555 1_555
C31 C30 1_555 1_555
H21 C31 1_555 1_555
C32 C27 1_555 1_555
H22 C32 1_555 1_555
C33 N2 1_555 1_555
H23 C33 1_555 1_555
H24 C33 1_555 1_555
H25 C33 1_555 1_555
O4 C34 1_555 1_555
O5 C34 1_555 1_555
C34 C37 1_555 1_555
C35 O4 1_555 1_555
H26 C35 1_555 1_555
H27 C35 1_555 1_555
C36 C35 1_555 1_555
H28 C36 1_555 1_555
H29 C36 1_555 1_555
H30 C36 1_555 1_555
C37 H31 1_555 1_555
H32 C37 1_555 1_555
H33 C37 1_555 1_555
C2 C3 1_555 1_555
C4 C26 1_555 1_555
C5 C6 1_555 1_555
C11 C12 1_555 1_555
C17 C18 1_555 1_555
C20 C21 1_555 1_555
C24 C25 1_555 1_555
C27 C28 1_555 1_555
C31 C32 1_555 1_555

#END
