
#######################################################################
#
#                 Cambridge Crystallographic Data Centre
#                                CCDC 
#
#######################################################################
#
# If this CIF has been generated from an entry in the Cambridge 
# Structural Database, then it will include bibliographic, chemical, 
# crystal, experimental, refinement or atomic coordinate data resulting 
# from the CCDC's data processing and validation procedures.
#
#######################################################################

data_GAGQEL01
_chemical_formula_moiety         'C16 H14 O2'
_chemical_name_systematic        2,2',3,3'-Tetrahydro-5,5'-bi-1-benzofuran
_symmetry_cell_setting           monoclinic
_symmetry_space_group_name_H-M   'P 21/c'
_symmetry_Int_Tables_number      14
_space_group_name_Hall           '-P 2ybc'
loop_
_symmetry_equiv_pos_site_id
_symmetry_equiv_pos_as_xyz
1 x,y,z
2 -x,1/2+y,1/2-z
3 -x,-y,-z
4 x,1/2-y,1/2+z
_cell_length_a                   5.8246(2)
_cell_length_b                   12.8801(4)
_cell_length_c                   7.7281(3)
_cell_angle_alpha                90
_cell_angle_beta                 98.953(2)
_cell_angle_gamma                90
_cell_volume                     572.709
_exptl_crystal_colour            colorless
_exptl_crystal_description       lamellar
_cell_formula_units_Z            2
loop_
_atom_site_label
_atom_site_type_symbol
_atom_site_fract_x
_atom_site_fract_y
_atom_site_fract_z
O1 O 0.0855(2) 0.17523(9) 0.83651(17)
C1 C 0.1883(3) 0.27022(13) 0.8739(2)
C2 C 0.4125(3) 0.26367(13) 0.9626(2)
C3 C 0.5353(3) 0.35283(13) 1.0118(2)
H1 H 0.6860 0.3480 1.0721
C4 C 0.4363(2) 0.45096(11) 0.97216(19)
C5 C 0.2099(3) 0.45315(13) 0.8803(2)
H2 H 0.1408 0.5172 0.8512
C6 C 0.0843(3) 0.36391(14) 0.8308(2)
H3 H -0.0664 0.3675 0.7700
C7 C 0.2566(3) 0.09631(14) 0.8977(2)
H4 H 0.2921 0.0556 0.7996
H5 H 0.1966 0.0500 0.9790
C8 C 0.4757(3) 0.15094(13) 0.9887(2)
H6 H 0.5076 0.1333 1.1121
H7 H 0.6097 0.1334 0.9341
O1B O 0.9145(2) 0.82477(9) 1.16349(17)
C1B C 0.8117(3) 0.72978(13) 1.1261(2)
C2B C 0.5875(3) 0.73633(13) 1.0374(2)
C3B C 0.4647(3) 0.64717(13) 0.9882(2)
H1B H 0.3140 0.6520 0.9279
C4B C 0.5637(2) 0.54904(11) 1.02784(19)
C5B C 0.7901(3) 0.54685(13) 1.1197(2)
H2B H 0.8592 0.4828 1.1488
C6B C 0.9157(3) 0.63609(14) 1.1692(2)
H3B H 1.0664 0.6325 1.2300
C7B C 0.7434(3) 0.90369(14) 1.1023(2)
H4B H 0.7079 0.9444 1.2004
H5B H 0.8034 0.9500 1.0210
C8B C 0.5243(3) 0.84906(13) 1.0113(2)
H6B H 0.4924 0.8667 0.8879
H7B H 0.3903 0.8666 1.0659
loop_
_geom_bond_atom_site_label_1
_geom_bond_atom_site_label_2
_geom_bond_site_symmetry_1
_geom_bond_site_symmetry_2
O1 C1 1_555 1_555
C1 C2 1_555 1_555
C2 C3 1_555 1_555
C3 H1 1_555 1_555
C4 C3 1_555 1_555
C5 C4 1_555 1_555
H2 C5 1_555 1_555
C6 C1 1_555 1_555
H3 C6 1_555 1_555
C7 O1 1_555 1_555
H4 C7 1_555 1_555
H5 C7 1_555 1_555
C8 C2 1_555 1_555
H6 C8 1_555 1_555
H7 C8 1_555 1_555
O1B C1B 1_555 1_555
C1B C2B 1_555 1_555
C2B C3B 1_555 1_555
C3B H1B 1_555 1_555
C4B C4 1_555 1_555
C5B C4B 1_555 1_555
H2B C5B 1_555 1_555
C6B C1B 1_555 1_555
H3B C6B 1_555 1_555
C7B O1B 1_555 1_555
H4B C7B 1_555 1_555
H5B C7B 1_555 1_555
C8B C2B 1_555 1_555
H6B C8B 1_555 1_555
H7B C8B 1_555 1_555
C5 C6 1_555 1_555
C7 C8 1_555 1_555
C3B C4B 1_555 1_555
C5B C6B 1_555 1_555
C7B C8B 1_555 1_555

#END
