
#######################################################################
#
#                 Cambridge Crystallographic Data Centre
#                                CCDC 
#
#######################################################################
#
# If this CIF has been generated from an entry in the Cambridge 
# Structural Database, then it will include bibliographic, chemical, 
# crystal, experimental, refinement or atomic coordinate data resulting 
# from the CCDC's data processing and validation procedures.
#
#######################################################################

data_GAGVOC
_chemical_formula_moiety         'C21 H21 O5 P1 S1,C1 H2 Cl2,H2 O1'
_chemical_name_systematic        
'2-(bis(2-Methoxyphenyl)phosphonio)-4-methylbenzenesulfonate dichloromethane solvate monohydrate'
_symmetry_cell_setting           monoclinic
_symmetry_space_group_name_H-M   'P 21/n'
_symmetry_Int_Tables_number      14
_space_group_name_Hall           '-P 2yn'
loop_
_symmetry_equiv_pos_site_id
_symmetry_equiv_pos_as_xyz
1 x,y,z
2 1/2-x,1/2+y,1/2-z
3 -x,-y,-z
4 1/2+x,1/2-y,1/2+z
_cell_length_a                   9.6437(6)
_cell_length_b                   15.9441(11)
_cell_length_c                   15.9641(11)
_cell_angle_alpha                90
_cell_angle_beta                 105.051(2)
_cell_angle_gamma                90
_cell_volume                     2370.44
_exptl_crystal_colour            colorless
_exptl_crystal_description       block
_cell_formula_units_Z            4
loop_
_atom_site_label
_atom_site_type_symbol
_atom_site_fract_x
_atom_site_fract_y
_atom_site_fract_z
P1 P 0.63863(5) 0.30456(3) 0.33309(3)
H1 H 0.592(2) 0.2397(14) 0.2950(14)
S1 S 0.43769(5) 0.17697(3) 0.41453(3)
O1 O 0.50338(15) 0.10620(9) 0.38266(10)
O2 O 0.34252(15) 0.15453(10) 0.46751(10)
O3 O 0.37411(14) 0.23600(9) 0.34604(9)
O4 O 0.86431(15) 0.19197(8) 0.35798(9)
O5 O 0.51406(15) 0.34403(9) 0.15930(8)
C1 C 0.77958(19) 0.33171(11) 0.50245(12)
H2 H 0.8372 0.3678 0.4781
C2 C 0.66711(19) 0.28789(11) 0.44773(11)
C3 C 0.58188(19) 0.23434(11) 0.48294(12)
C4 C 0.6117(2) 0.22566(12) 0.57215(12)
H3 H 0.5552 0.1890 0.5966
C5 C 0.7235(2) 0.27025(12) 0.62605(12)
H4 H 0.7417 0.2642 0.6871
C6 C 0.8093(2) 0.32358(12) 0.59237(12)
C7 C 0.9324(2) 0.37081(13) 0.65044(13)
H5 H 0.9220 0.3708 0.7099
H6 H 0.9323 0.4287 0.6299
H7 H 1.0231 0.3437 0.6493
C8 C 0.51505(19) 0.38810(11) 0.29746(12)
C9 C 0.4711(2) 0.44064(12) 0.35526(13)
H8 H 0.5089 0.4336 0.4160
C10 C 0.3720(2) 0.50321(13) 0.32356(14)
H9 H 0.3426 0.5402 0.3624
C11 C 0.3158(2) 0.51167(13) 0.23483(15)
H10 H 0.2461 0.5540 0.2136
C12 C 0.3583(2) 0.46027(12) 0.17634(13)
H11 H 0.3185 0.4670 0.1157
C13 C 0.46023(19) 0.39848(12) 0.20784(12)
C14 C 0.4860(2) 0.36077(14) 0.06819(13)
H12 H 0.3827 0.3561 0.0413
H13 H 0.5378 0.3201 0.0416
H14 H 0.5184 0.4176 0.0595
C15 C 0.80656(19) 0.32846(12) 0.31142(11)
C16 C 0.8366(2) 0.40458(12) 0.27736(12)
H15 H 0.7672 0.4482 0.2665
C17 C 0.9686(2) 0.41647(13) 0.25930(13)
H16 H 0.9894 0.4678 0.2349
C18 C 1.0697(2) 0.35248(13) 0.27735(13)
H17 H 1.1612 0.3615 0.2670
C19 C 1.0407(2) 0.27600(13) 0.30998(13)
H18 H 1.1106 0.2326 0.3208
C20 C 0.9083(2) 0.26368(12) 0.32663(12)
C21 C 0.9467(2) 0.11736(13) 0.35617(14)
H19 H 0.9509 0.1062 0.2965
H20 H 0.9012 0.0699 0.3775
H21 H 1.0442 0.1251 0.3932
C22 C 0.2653(5) 0.3457(2) 0.5203(2)
H22 H 0.2056 0.3047 0.4801
H23 H 0.3569 0.3518 0.5038
Cl1 Cl 0.30192(7) 0.30568(5) 0.62409(4)
Cl2 Cl 0.17791(9) 0.44136(4) 0.50619(5)
O6 O 0.73753(17) -0.00322(11) 0.45863(11)
H24 H 0.656(4) 0.027(2) 0.436(2)
H25 H 0.701(3) -0.053(2) 0.4720(19)
loop_
_geom_bond_atom_site_label_1
_geom_bond_atom_site_label_2
_geom_bond_site_symmetry_1
_geom_bond_site_symmetry_2
P1 H1 1_555 1_555
S1 O1 1_555 1_555
O2 S1 1_555 1_555
O3 S1 1_555 1_555
O4 C20 1_555 1_555
O5 C13 1_555 1_555
C1 H2 1_555 1_555
C2 P1 1_555 1_555
C3 S1 1_555 1_555
C4 C3 1_555 1_555
H3 C4 1_555 1_555
C5 C4 1_555 1_555
H4 C5 1_555 1_555
C6 C1 1_555 1_555
C7 C6 1_555 1_555
H5 C7 1_555 1_555
H6 C7 1_555 1_555
H7 C7 1_555 1_555
C8 P1 1_555 1_555
C9 C8 1_555 1_555
H8 C9 1_555 1_555
C10 C9 1_555 1_555
H9 C10 1_555 1_555
C11 C10 1_555 1_555
H10 C11 1_555 1_555
C12 C11 1_555 1_555
H11 C12 1_555 1_555
C13 C8 1_555 1_555
C14 O5 1_555 1_555
H12 C14 1_555 1_555
H13 C14 1_555 1_555
H14 C14 1_555 1_555
C15 P1 1_555 1_555
C16 C15 1_555 1_555
H15 C16 1_555 1_555
C17 C16 1_555 1_555
H16 C17 1_555 1_555
C18 C17 1_555 1_555
H17 C18 1_555 1_555
C19 C18 1_555 1_555
H18 C19 1_555 1_555
C20 C15 1_555 1_555
C21 O4 1_555 1_555
H19 C21 1_555 1_555
H20 C21 1_555 1_555
H21 C21 1_555 1_555
C22 H22 1_555 1_555
H23 C22 1_555 1_555
Cl1 C22 1_555 1_555
Cl2 C22 1_555 1_555
O6 H24 1_555 1_555
H25 O6 1_555 1_555
C1 C2 1_555 1_555
C2 C3 1_555 1_555
C5 C6 1_555 1_555
C12 C13 1_555 1_555
C19 C20 1_555 1_555

#END
