
#######################################################################
#
#                 Cambridge Crystallographic Data Centre
#                                CCDC 
#
#######################################################################
#
# If this CIF has been generated from an entry in the Cambridge 
# Structural Database, then it will include bibliographic, chemical, 
# crystal, experimental, refinement or atomic coordinate data resulting 
# from the CCDC's data processing and validation procedures.
#
#######################################################################

data_GAHGII
_chemical_formula_moiety         'C22 H26 O7'
_chemical_name_systematic        
6,9,12,15,18-pentaoxatetracyclo[21.3.1.0^5,26^.0^19,24^]heptacosa-1(26),2,4,19,21,23-hexaene-25,27-diol
_symmetry_cell_setting           monoclinic
_symmetry_space_group_name_H-M   'P 21/c'
_symmetry_Int_Tables_number      14
_space_group_name_Hall           '-P 2ybc'
loop_
_symmetry_equiv_pos_site_id
_symmetry_equiv_pos_as_xyz
1 x,y,z
2 -x,1/2+y,1/2-z
3 -x,-y,-z
4 x,1/2-y,1/2+z
_cell_length_a                   7.7175(6)
_cell_length_b                   13.5383(11)
_cell_length_c                   18.6624(15)
_cell_angle_alpha                90
_cell_angle_beta                 90.1320(10)
_cell_angle_gamma                90
_cell_volume                     1949.88
_exptl_crystal_colour            white
_exptl_crystal_description       CUBE
_cell_formula_units_Z            4
loop_
_atom_site_label
_atom_site_type_symbol
_atom_site_fract_x
_atom_site_fract_y
_atom_site_fract_z
O1 O 0.80380(11) 0.66743(7) 0.64696(5)
O2 O 0.38620(11) 0.64874(7) 0.72446(5)
O3 O 0.30496(13) 0.55472(7) 0.55384(5)
O4 O 0.77775(12) 0.85410(7) 0.58720(5)
O5 O 0.22049(12) 0.70900(7) 0.45950(5)
O6 O 0.50641(13) 0.33828(7) 0.82274(5)
O7 O 0.50364(13) 0.85721(8) 0.47365(5)
C1 C 0.37793(15) 0.49167(9) 0.66710(7)
C2 C 0.95720(16) 0.72250(10) 0.63049(7)
H1 H 1.0514 0.6782 0.6184
H2 H 0.9921 0.7622 0.6713
C3 C 0.65332(15) 0.55298(9) 0.71801(6)
C4 C 0.28466(16) 0.48072(9) 0.60313(7)
C5 C 0.48715(15) 0.58235(9) 0.68029(6)
H3 H 0.5143 0.6143 0.6346
C6 C 0.37040(15) 0.41745(9) 0.71868(7)
C7 C 0.96288(16) 0.57419(9) 0.73819(7)
H4 H 1.0669 0.6057 0.7279
C8 C 0.64973(16) 0.47927(9) 0.77024(7)
C9 C 0.81134(15) 0.59899(9) 0.70134(7)
C10 C 0.91368(17) 0.78755(10) 0.56775(7)
H5 H 1.0154 0.8246 0.5535
H6 H 0.8771 0.7473 0.5275
C11 C 0.47750(16) 0.42964(9) 0.78636(7)
H7 H 0.4130 0.4730 0.8188
C12 C 0.74562(19) 0.93012(11) 0.53568(7)
H8 H 0.8536 0.9646 0.5267
H9 H 0.6658 0.9773 0.5565
C13 C 0.25294(18) 0.53675(11) 0.48180(7)
H10 H 0.1280 0.5296 0.4791
H11 H 0.3058 0.4764 0.4643
C14 C 0.95498(16) 0.50141(10) 0.79065(7)
H12 H 1.0553 0.4844 0.8155
C15 C 0.25215(19) 0.79052(11) 0.41331(8)
H13 H 0.1846 0.8462 0.4302
H14 H 0.2097 0.7737 0.3659
C16 C 0.80101(17) 0.45345(10) 0.80690(7)
H15 H 0.7986 0.4046 0.8419
C17 C 0.16996(17) 0.32655(10) 0.64606(9)
H16 H 0.0975 0.2724 0.6397
C18 C 0.18026(17) 0.39766(10) 0.59270(8)
H17 H 0.1181 0.3901 0.5503
C19 C 0.31015(18) 0.62268(11) 0.43742(8)
H18 H 0.4340 0.6324 0.4430
H19 H 0.2863 0.6097 0.3872
C20 C 0.67261(19) 0.89653(12) 0.46487(8)
H20 H 0.6684 0.9520 0.4320
H21 H 0.7477 0.8465 0.4444
C21 C 0.26540(17) 0.33468(10) 0.70858(8)
H22 H 0.2597 0.2857 0.7434
C22 C 0.43863(19) 0.82303(12) 0.40666(7)
H23 H 0.5085 0.7680 0.3902
H24 H 0.4469 0.8755 0.3715
H25 H 0.422(2) 0.7026(15) 0.7142(10)
H26 H 0.416(3) 0.3304(16) 0.8502(11)
loop_
_geom_bond_atom_site_label_1
_geom_bond_atom_site_label_2
_geom_bond_site_symmetry_1
_geom_bond_site_symmetry_2
O1 C2 1_555 1_555
O2 C5 1_555 1_555
O3 C4 1_555 1_555
O4 C10 1_555 1_555
O5 C15 1_555 1_555
O6 C11 1_555 1_555
O7 C20 1_555 1_555
C1 C4 1_555 1_555
C2 H1 1_555 1_555
H2 C2 1_555 1_555
C3 C5 1_555 1_555
C4 C18 1_555 1_555
C5 C1 1_555 1_555
H3 C5 1_555 1_555
C6 C1 1_555 1_555
C7 H4 1_555 1_555
C8 C3 1_555 1_555
C9 O1 1_555 1_555
C10 C2 1_555 1_555
H5 C10 1_555 1_555
H6 C10 1_555 1_555
C11 C6 1_555 1_555
H7 C11 1_555 1_555
C12 O4 1_555 1_555
H8 C12 1_555 1_555
H9 C12 1_555 1_555
C13 O3 1_555 1_555
H10 C13 1_555 1_555
H11 C13 1_555 1_555
C14 C7 1_555 1_555
H12 C14 1_555 1_555
C15 H13 1_555 1_555
H14 C15 1_555 1_555
C16 C8 1_555 1_555
H15 C16 1_555 1_555
C17 H16 1_555 1_555
C18 C17 1_555 1_555
H17 C18 1_555 1_555
C19 O5 1_555 1_555
H18 C19 1_555 1_555
H19 C19 1_555 1_555
C20 C12 1_555 1_555
H20 C20 1_555 1_555
H21 C20 1_555 1_555
C21 C6 1_555 1_555
H22 C21 1_555 1_555
C22 O7 1_555 1_555
H23 C22 1_555 1_555
H24 C22 1_555 1_555
H25 O2 1_555 1_555
H26 O6 1_555 1_555
C3 C9 1_555 1_555
C7 C9 1_555 1_555
C8 C11 1_555 1_555
C13 C19 1_555 1_555
C14 C16 1_555 1_555
C15 C22 1_555 1_555
C17 C21 1_555 1_555

#END
