
#######################################################################
#
#                 Cambridge Crystallographic Data Centre
#                                CCDC 
#
#######################################################################
#
# If this CIF has been generated from an entry in the Cambridge 
# Structural Database, then it will include bibliographic, chemical, 
# crystal, experimental, refinement or atomic coordinate data resulting 
# from the CCDC's data processing and validation procedures.
#
#######################################################################

data_GAHGOO
_chemical_formula_moiety         'C22 H24 O6'
_chemical_name_systematic        
6,9,12,15,18-pentaoxatetracyclo[21.3.1.0^5,26^.0^19,24^]heptacosa-1(26),2,4,19,21,23-hexaen-27-one
_symmetry_cell_setting           monoclinic
_symmetry_space_group_name_H-M   'P 21/n'
_symmetry_Int_Tables_number      14
_space_group_name_Hall           '-P 2yn'
loop_
_symmetry_equiv_pos_site_id
_symmetry_equiv_pos_as_xyz
1 x,y,z
2 1/2-x,1/2+y,1/2-z
3 -x,-y,-z
4 1/2+x,1/2-y,1/2+z
_cell_length_a                   12.2726(5)
_cell_length_b                   13.7003(6)
_cell_length_c                   22.4713(10)
_cell_angle_alpha                90
_cell_angle_beta                 96.7520(10)
_cell_angle_gamma                90
_cell_volume                     3752.08
_exptl_crystal_colour            orange
_exptl_crystal_description       CUBE
_cell_formula_units_Z            8
loop_
_atom_site_label
_atom_site_type_symbol
_atom_site_fract_x
_atom_site_fract_y
_atom_site_fract_z
C1 C 0.32591(8) 0.52885(8) 0.52957(5)
C2 C 0.29609(9) 0.60074(8) 0.56828(5)
H1 H 0.2492 0.6509 0.5538
C3 C 0.33707(9) 0.59719(8) 0.62904(5)
H2 H 0.3168 0.6449 0.6550
C4 C 0.40716(9) 0.52364(8) 0.65056(5)
H3 H 0.4359 0.5229 0.6907
C5 C 0.60521(9) 0.21445(9) 0.61864(5)
H4 H 0.6309 0.2123 0.6592
C6 C 0.63373(9) 0.14226(8) 0.58055(5)
H5 H 0.6782 0.0910 0.5959
C7 C 0.59684(9) 0.14488(8) 0.51920(5)
H6 H 0.6172 0.0963 0.4938
C8 C 0.52927(8) 0.22117(8) 0.49663(5)
C9 C 0.50797(9) 0.36917(8) 0.63700(5)
C10 C 0.42205(8) 0.37390(7) 0.50807(4)
H7 H 0.4554 0.4048 0.4759
H8 H 0.3542 0.3438 0.4906
C11 C 0.39503(8) 0.45120(7) 0.55107(5)
C12 C 0.43534(8) 0.44955(8) 0.61187(5)
C13 C 0.53692(8) 0.29142(8) 0.59555(5)
C14 C 0.49755(8) 0.29517(8) 0.53475(5)
C15 C 0.52362(9) 0.16700(8) 0.39438(5)
H9 H 0.4974 0.1012 0.4000
H10 H 0.6031 0.1658 0.3979
C16 C 0.47758(9) 0.20553(9) 0.33403(5)
H11 H 0.4934 0.2747 0.3315
H12 H 0.5112 0.1720 0.3028
C17 C 0.30689(10) 0.24812(8) 0.27908(5)
H13 H 0.2413 0.2143 0.2617
H14 H 0.3544 0.2566 0.2479
C18 C 0.27532(9) 0.34758(9) 0.30139(5)
H15 H 0.2433 0.3415 0.3387
H16 H 0.3391 0.3898 0.3080
C19 C 0.17772(10) 0.48768(8) 0.25815(5)
H17 H 0.1526 0.5111 0.2181
H18 H 0.2462 0.5206 0.2717
C20 C 0.09334(9) 0.51440(9) 0.29960(5)
H19 H 0.0664 0.5796 0.2896
H20 H 0.0317 0.4699 0.2922
C21 C 0.20185(9) 0.59308(8) 0.37882(5)
H21 H 0.1682 0.6522 0.3614
H22 H 0.2718 0.5844 0.3634
C22 C 0.22018(8) 0.60297(8) 0.44574(5)
H23 H 0.2531 0.6658 0.4566
H24 H 0.1507 0.5988 0.4622
O1 O 0.54337(7) 0.36769(7) 0.69048(4)
O2 O 0.48683(6) 0.23166(6) 0.43817(3)
O3 O 0.29162(6) 0.52579(5) 0.46944(3)
O4 O 0.13274(6) 0.51178(6) 0.36205(3)
O5 O 0.36180(6) 0.19018(6) 0.32594(4)
O6 O 0.19757(7) 0.38568(6) 0.25550(4)
C23 C 0.99633(8) 0.27897(8) 0.47188(5)
C24 C 1.05490(9) 0.36548(8) 0.48158(5)
H25 H 1.0692 0.4043 0.4494
C25 C 1.09211(9) 0.39330(9) 0.54037(6)
H26 H 1.1307 0.4514 0.5472
C26 C 1.07253(9) 0.33612(9) 0.58838(5)
H27 H 1.0977 0.3556 0.6272
C27 C 0.91951(10) 0.03341(9) 0.66821(5)
H28 H 0.9452 0.0528 0.7070
C28 C 0.86424(10) -0.05342(9) 0.65855(5)
H29 H 0.8527 -0.0925 0.6911
C29 C 0.82507(9) -0.08384(8) 0.60065(5)
H30 H 0.7871 -0.1424 0.5946
C30 C 0.84353(9) -0.02548(8) 0.55218(5)
C31 C 0.99403(9) 0.18746(9) 0.63069(5)
C32 C 0.91378(9) 0.12537(8) 0.50711(5)
H31 H 0.8417 0.1411 0.4869
H32 H 0.9516 0.0870 0.4796
C33 C 0.97581(8) 0.21855(8) 0.52026(5)
C34 C 1.01427(8) 0.24814(8) 0.57832(5)
C35 C 0.93721(9) 0.09293(8) 0.61922(5)
C36 C 0.89982(8) 0.06405(8) 0.56083(5)
C37 C 0.74428(9) -0.13331(8) 0.48156(5)
H33 H 0.6779 -0.1291 0.5009
H34 H 0.7849 -0.1907 0.4966
C38 C 0.71641(9) -0.13986(8) 0.41506(6)
H35 H 0.7827 -0.1340 0.3957
H36 H 0.6831 -0.2026 0.4044
C39 C 0.60361(9) -0.07159(9) 0.33333(5)
H37 H 0.5377 -0.0325 0.3251
H38 H 0.5836 -0.1390 0.3245
C40 C 0.68496(10) -0.03962(9) 0.29185(5)
H39 H 0.7565 -0.0674 0.3049
H40 H 0.6616 -0.0625 0.2515
C41 C 0.76514(10) 0.09607(9) 0.25207(5)
H41 H 0.7421 0.0706 0.2123
H42 H 0.8383 0.0717 0.2650
C42 C 0.76717(10) 0.20602(9) 0.24999(5)
H43 H 0.8058 0.2261 0.2168
H44 H 0.6923 0.2295 0.2420
C43 C 0.93379(9) 0.24271(9) 0.31087(5)
H45 H 0.9636 0.2684 0.2759
H46 H 0.9544 0.1745 0.3153
C44 C 0.97893(10) 0.29853(9) 0.36552(5)
H47 H 1.0577 0.3062 0.3664
H48 H 0.9459 0.3629 0.3652
O7 O 1.02347(7) 0.21550(7) 0.68207(4)
O8 O 0.80961(6) -0.04738(6) 0.49369(4)
O9 O 0.95412(7) 0.24477(6) 0.41700(3)
O10 O 0.64235(6) -0.06373(6) 0.39535(4)
O11 O 0.81758(7) 0.25149(6) 0.30324(4)
O12 O 0.69176(7) 0.06376(6) 0.29224(4)
loop_
_geom_bond_atom_site_label_1
_geom_bond_atom_site_label_2
_geom_bond_site_symmetry_1
_geom_bond_site_symmetry_2
C1 C2 1_555 1_555
C2 H1 1_555 1_555
C3 C2 1_555 1_555
H2 C3 1_555 1_555
C4 C3 1_555 1_555
H3 C4 1_555 1_555
C5 H4 1_555 1_555
C6 C5 1_555 1_555
H5 C6 1_555 1_555
C7 C6 1_555 1_555
H6 C7 1_555 1_555
C8 C7 1_555 1_555
C9 C12 1_555 1_555
C10 H7 1_555 1_555
H8 C10 1_555 1_555
C11 C1 1_555 1_555
C12 C4 1_555 1_555
C13 C5 1_555 1_555
C14 C8 1_555 1_555
C15 H9 1_555 1_555
H10 C15 1_555 1_555
C16 C15 1_555 1_555
H11 C16 1_555 1_555
H12 C16 1_555 1_555
C17 H13 1_555 1_555
H14 C17 1_555 1_555
C18 C17 1_555 1_555
H15 C18 1_555 1_555
H16 C18 1_555 1_555
C19 H17 1_555 1_555
H18 C19 1_555 1_555
C20 C19 1_555 1_555
H19 C20 1_555 1_555
H20 C20 1_555 1_555
C21 H21 1_555 1_555
H22 C21 1_555 1_555
C22 C21 1_555 1_555
H23 C22 1_555 1_555
H24 C22 1_555 1_555
O1 C9 1_555 1_555
O2 C8 1_555 1_555
O3 C1 1_555 1_555
O4 C20 1_555 1_555
O5 C16 1_555 1_555
O6 C18 1_555 1_555
C23 C24 1_555 1_555
C24 H25 1_555 1_555
C25 C24 1_555 1_555
H26 C25 1_555 1_555
C26 C25 1_555 1_555
H27 C26 1_555 1_555
C27 H28 1_555 1_555
C28 C27 1_555 1_555
H29 C28 1_555 1_555
C29 C28 1_555 1_555
H30 C29 1_555 1_555
C30 C29 1_555 1_555
C31 C34 1_555 1_555
C32 H31 1_555 1_555
H32 C32 1_555 1_555
C33 C23 1_555 1_555
C34 C26 1_555 1_555
C35 C27 1_555 1_555
C36 C30 1_555 1_555
C37 H33 1_555 1_555
H34 C37 1_555 1_555
C38 C37 1_555 1_555
H35 C38 1_555 1_555
H36 C38 1_555 1_555
C39 H37 1_555 1_555
H38 C39 1_555 1_555
C40 C39 1_555 1_555
H39 C40 1_555 1_555
H40 C40 1_555 1_555
C41 H41 1_555 1_555
H42 C41 1_555 1_555
C42 C41 1_555 1_555
H43 C42 1_555 1_555
H44 C42 1_555 1_555
C43 H45 1_555 1_555
H46 C43 1_555 1_555
C44 C43 1_555 1_555
H47 C44 1_555 1_555
H48 C44 1_555 1_555
O7 C31 1_555 1_555
O8 C30 1_555 1_555
O9 C23 1_555 1_555
O10 C38 1_555 1_555
O11 C42 1_555 1_555
O12 C40 1_555 1_555
C9 C13 1_555 1_555
C10 C11 1_555 1_555
C10 C14 1_555 1_555
C11 C12 1_555 1_555
C13 C14 1_555 1_555
C15 O2 1_555 1_555
C17 O5 1_555 1_555
C19 O6 1_555 1_555
C21 O4 1_555 1_555
C22 O3 1_555 1_555
C31 C35 1_555 1_555
C32 C33 1_555 1_555
C32 C36 1_555 1_555
C33 C34 1_555 1_555
C35 C36 1_555 1_555
C37 O8 1_555 1_555
C39 O10 1_555 1_555
C41 O12 1_555 1_555
C43 O11 1_555 1_555
C44 O9 1_555 1_555

#END
