
#######################################################################
#
#                 Cambridge Crystallographic Data Centre
#                                CCDC 
#
#######################################################################
#
# If this CIF has been generated from an entry in the Cambridge 
# Structural Database, then it will include bibliographic, chemical, 
# crystal, experimental, refinement or atomic coordinate data resulting 
# from the CCDC's data processing and validation procedures.
#
#######################################################################

data_GAHTUG
_chemical_formula_moiety         'C15 H11 N1 O4'
_chemical_name_systematic        
'6-(3-Hydroxy-3-phenylacryloyl)pyridine-2-carboxylic acid'
_symmetry_cell_setting           monoclinic
_symmetry_space_group_name_H-M   'P 21/n'
_symmetry_Int_Tables_number      14
_space_group_name_Hall           '-P 2yn'
loop_
_symmetry_equiv_pos_site_id
_symmetry_equiv_pos_as_xyz
1 x,y,z
2 1/2-x,1/2+y,1/2-z
3 -x,-y,-z
4 1/2+x,1/2-y,1/2+z
_cell_length_a                   7.218(3)
_cell_length_b                   12.191(6)
_cell_length_c                   14.911(7)
_cell_angle_alpha                90
_cell_angle_beta                 100.161(7)
_cell_angle_gamma                90
_cell_volume                     1291.51
_exptl_crystal_colour            colorless
_exptl_crystal_description       block
_cell_formula_units_Z            4
loop_
_atom_site_label
_atom_site_type_symbol
_atom_site_fract_x
_atom_site_fract_y
_atom_site_fract_z
N1 N 0.1922(2) 0.18080(11) 1.06195(9)
O1 O 0.2819(3) -0.19229(11) 0.94002(12)
H1 H 0.3085 -0.1849 0.9955
O2 O 0.3192(2) -0.09868(11) 1.09297(10)
O3 O 0.0320(2) 0.35946(11) 0.97756(9)
H2 H -0.0006 0.4197 0.9559
O4 O 0.0895(3) 0.45640(11) 1.10383(9)
C1 C 0.1760(3) -0.19655(19) 0.75511(19)
H3 H 0.2060 -0.2618 0.7867
C2 C 0.1271(4) -0.1976(3) 0.6610(2)
H4 H 0.1249 -0.2637 0.6297
C3 C 0.0822(4) -0.1025(3) 0.6139(2)
H5 H 0.0481 -0.1038 0.5508
C4 C 0.0877(4) -0.0054(2) 0.65992(18)
H6 H 0.0584 0.0596 0.6279
C5 C 0.1365(3) -0.0032(2) 0.75369(16)
H7 H 0.1398 0.0634 0.7844
C6 C 0.1801(3) -0.09839(16) 0.80223(15)
C7 C 0.2309(3) -0.09799(15) 0.90263(15)
C8 C 0.2240(3) -0.00551(14) 0.95573(13)
H8 H 0.1866 0.0609 0.9276
C9 C 0.2717(3) -0.00950(14) 1.05046(14)
C10 C 0.2680(2) 0.09145(14) 1.10631(13)
C11 C 0.3399(3) 0.09120(16) 1.19887(13)
H9 H 0.3918 0.0277 1.2274
C12 C 0.3334(3) 0.18572(17) 1.24780(14)
H10 H 0.3818 0.1875 1.3099
C13 C 0.2545(3) 0.27768(16) 1.20378(12)
H11 H 0.2477 0.3429 1.2354
C14 C 0.1850(2) 0.27151(14) 1.11106(11)
C15 C 0.0968(3) 0.36965(15) 1.06218(12)
loop_
_geom_bond_atom_site_label_1
_geom_bond_atom_site_label_2
_geom_bond_site_symmetry_1
_geom_bond_site_symmetry_2
N1 C10 1_555 1_555
O1 H1 1_555 1_555
O2 C9 1_555 1_555
O3 H2 1_555 1_555
O4 C15 1_555 1_555
C1 H3 1_555 1_555
C2 C1 1_555 1_555
H4 C2 1_555 1_555
C3 C2 1_555 1_555
H5 C3 1_555 1_555
C4 C3 1_555 1_555
H6 C4 1_555 1_555
C5 C4 1_555 1_555
H7 C5 1_555 1_555
C6 C1 1_555 1_555
C7 O1 1_555 1_555
C8 C7 1_555 1_555
H8 C8 1_555 1_555
C9 C8 1_555 1_555
C10 C9 1_555 1_555
C11 C10 1_555 1_555
H9 C11 1_555 1_555
C12 C11 1_555 1_555
H10 C12 1_555 1_555
C13 C12 1_555 1_555
H11 C13 1_555 1_555
C14 N1 1_555 1_555
C15 O3 1_555 1_555
C5 C6 1_555 1_555
C6 C7 1_555 1_555
C13 C14 1_555 1_555
C14 C15 1_555 1_555

#END
