
#######################################################################
#
#                 Cambridge Crystallographic Data Centre
#                                CCDC 
#
#######################################################################
#
# If this CIF has been generated from an entry in the Cambridge 
# Structural Database, then it will include bibliographic, chemical, 
# crystal, experimental, refinement or atomic coordinate data resulting 
# from the CCDC's data processing and validation procedures.
#
#######################################################################

data_GAJBOJ01
_chemical_name_common            
"5-ethenyl-2-(hydroxy(quinolin-4-yl)methyl)-1-(phenylmethyl)-1-azoniabicyclo[2.2.2]octane chloride 8a,10a-dihydro-9,9'-spirobi[xanthene]-1,1'-diol acetonitrile solvate"
_chemical_formula_moiety         'C25 H16 O4,C26 H29 N2 O1 1+,Cl1 1-,C2 H3 N1'
_chemical_name_systematic        
"(R)-9,9'-spirobi[xanthene]-1,1'-diol N-benzylcinchonidinium chloride acetonitrile solvate"
_symmetry_cell_setting           monoclinic
_symmetry_space_group_name_H-M   'P 21'
_symmetry_Int_Tables_number      4
_space_group_name_Hall           'P 2yb'
loop_
_symmetry_equiv_pos_site_id
_symmetry_equiv_pos_as_xyz
1 x,y,z
2 -x,1/2+y,-z
_cell_length_a                   14.322(4)
_cell_length_b                   8.975(2)
_cell_length_c                   17.157(4)
_cell_angle_alpha                90
_cell_angle_beta                 97.742(5)
_cell_angle_gamma                90
_cell_volume                     2185.26
_exptl_crystal_colour            colorless
_exptl_crystal_description       'flat needle'
_cell_formula_units_Z            2
loop_
_atom_site_label
_atom_site_type_symbol
_atom_site_fract_x
_atom_site_fract_y
_atom_site_fract_z
C1 C 0.7996(2) 0.6830(4) 0.2674(2)
C2 C 0.8172(3) 0.7662(4) 0.3361(2)
H1 H 0.7702 0.7755 0.3700
C3 C 0.9036(3) 0.8356(4) 0.3547(3)
H2 H 0.9156 0.8928 0.4015
C4 C 0.9719(3) 0.8229(4) 0.3066(3)
H3 H 1.0316 0.8690 0.3202
C5 C 0.9525(3) 0.7411(4) 0.2372(2)
C6 C 0.8676(2) 0.6667(4) 0.2159(2)
C7 C 0.8500(3) 0.5698(4) 0.1428(2)
C8 C 0.9327(3) 0.5839(4) 0.0951(2)
C9 C 0.9291(3) 0.5158(4) 0.0221(3)
H4 H 0.8742 0.4617 0.0017
C10 C 1.0032(3) 0.5244(5) -0.0220(3)
H5 H 0.9991 0.4770 -0.0718
C11 C 1.0834(3) 0.6031(5) 0.0077(3)
H6 H 1.1348 0.6093 -0.0219
C12 C 1.0892(3) 0.6720(4) 0.0794(3)
H7 H 1.1445 0.7252 0.0997
C13 C 1.0140(3) 0.6637(4) 0.1222(2)
C14 C 0.7602(3) 0.6200(4) 0.0925(2)
C15 C 0.7472(3) 0.7703(4) 0.0708(2)
H8 H 0.7968 0.8392 0.0857
C16 C 0.6645(3) 0.8207(5) 0.0285(3)
H9 H 0.6573 0.9229 0.0147
C17 C 0.5922(3) 0.7212(5) 0.0064(3)
H10 H 0.5347 0.7556 -0.0219
C18 C 0.6030(3) 0.5720(5) 0.0253(2)
H11 H 0.5535 0.5035 0.0097
C19 C 0.6867(3) 0.5237(4) 0.0672(2)
C20 C 0.7659(3) 0.3169(4) 0.1328(2)
C21 C 0.7604(2) 0.1655(4) 0.1484(2)
H12 H 0.7089 0.1081 0.1240
C22 C 0.8306(3) 0.0997(4) 0.1998(2)
H13 H 0.8268 -0.0033 0.2117
C23 C 0.9060(3) 0.1821(4) 0.2339(2)
H14 H 0.9542 0.1363 0.2694
C24 C 0.9116(3) 0.3340(4) 0.2162(2)
C25 C 0.8405(2) 0.4042(4) 0.1648(2)
O1 O 0.71574(18) 0.6111(3) 0.24737(16)
H46 H 0.6774 0.6384 0.2775
O2 O 0.98648(18) 0.4181(3) 0.24650(17)
H47 H 1.0221 0.3675 0.2793
O3 O 0.69098(18) 0.3724(3) 0.08289(17)
O4 O 1.02560(17) 0.7372(3) 0.19304(16)
C26 C 0.9320(3) 0.2696(5) 0.4582(2)
H15 H 0.9989 0.2727 0.4658
C27 C 0.8853(3) 0.1488(5) 0.4871(2)
H16 H 0.9202 0.0713 0.5153
C28 C 0.7878(3) 0.1426(5) 0.4743(2)
H17 H 0.7558 0.0595 0.4925
C29 C 0.7364(2) 0.2587(4) 0.4346(2)
C30 C 0.7839(3) 0.3794(5) 0.4083(3)
H18 H 0.7494 0.4601 0.3827
C31 C 0.8821(3) 0.3829(5) 0.4193(3)
H19 H 0.9144 0.4643 0.3996
C32 C 0.6300(2) 0.2586(4) 0.4274(2)
H20 H 0.6086 0.3625 0.4331
H21 H 0.6112 0.2007 0.4719
C33 C 0.5994(3) 0.0305(4) 0.3430(2)
H22 H 0.6681 0.0133 0.3547
H23 H 0.5681 -0.0277 0.3811
C34 C 0.5641(3) -0.0211(5) 0.2597(2)
H24 H 0.5375 -0.1228 0.2608
H25 H 0.6169 -0.0234 0.2279
C35 C 0.4886(3) 0.0875(5) 0.2237(2)
H26 H 0.4532 0.0455 0.1743
C36 C 0.5354(3) 0.2357(5) 0.2070(2)
H27 H 0.5735 0.2172 0.1633
C37 C 0.6054(3) 0.2767(4) 0.2804(2)
H28 H 0.6701 0.2482 0.2721
H29 H 0.6042 0.3856 0.2893
C38 C 0.4712(2) 0.2200(4) 0.3476(2)
H30 H 0.4589 0.3233 0.3268
C39 C 0.4224(3) 0.1160(5) 0.2848(2)
H31 H 0.3631 0.1619 0.2594
H32 H 0.4067 0.0207 0.3091
C40 C 0.4301(2) 0.2139(4) 0.4251(2)
H33 H 0.4624 0.2894 0.4622
C41 C 0.3269(2) 0.2549(4) 0.4055(2)
C42 C 0.2584(3) 0.1502(5) 0.4074(2)
H34 H 0.2743 0.0530 0.4268
C43 C 0.1639(3) 0.1869(4) 0.3807(2)
H35 H 0.1174 0.1126 0.3840
C44 C 0.2032(2) 0.4272(4) 0.3509(2)
C45 C 0.2992(3) 0.4018(4) 0.3792(2)
C46 C 0.3622(3) 0.5239(4) 0.3792(2)
H36 H 0.4265 0.5110 0.4001
C47 C 0.3319(3) 0.6601(5) 0.3496(3)
H37 H 0.3754 0.7402 0.3503
C48 C 0.2379(3) 0.6819(4) 0.3185(3)
H38 H 0.2180 0.7755 0.2963
C49 C 0.1739(3) 0.5685(4) 0.3199(2)
H39 H 0.1096 0.5847 0.2999
C50 C 0.4639(3) 0.3551(5) 0.1789(3)
H40 H 0.4052 0.3192 0.1534
C51 C 0.4707(4) 0.4969(6) 0.1844(3)
H41 H 0.5273 0.5410 0.2092
H42 H 0.4192 0.5581 0.1637
N1 N 0.5783(2) 0.1956(3) 0.35150(18)
N2 N 0.1360(2) 0.3174(4) 0.3514(2)
O5 O 0.44407(18) 0.0706(3) 0.45855(16)
H48 H 0.4373 0.0743 0.5064
C52 C 0.1753(4) 0.1453(7) 0.1650(3)
C53 C 0.1500(4) 0.2875(6) 0.1298(3)
H43 H 0.0823 0.2888 0.1107
H44 H 0.1856 0.3043 0.0856
H45 H 0.1648 0.3664 0.1690
N3 N 0.1944(4) 0.0343(7) 0.1954(4)
Cl1 Cl 0.58915(6) 0.65415(10) 0.37725(6)
loop_
_geom_bond_atom_site_label_1
_geom_bond_atom_site_label_2
_geom_bond_site_symmetry_1
_geom_bond_site_symmetry_2
C1 C2 1_555 1_555
C2 H1 1_555 1_555
C3 C2 1_555 1_555
H2 C3 1_555 1_555
C4 C3 1_555 1_555
H3 C4 1_555 1_555
C5 C4 1_555 1_555
C6 C1 1_555 1_555
C7 C6 1_555 1_555
C8 C7 1_555 1_555
C9 C8 1_555 1_555
H4 C9 1_555 1_555
C10 C9 1_555 1_555
H5 C10 1_555 1_555
C11 C10 1_555 1_555
H6 C11 1_555 1_555
C12 C11 1_555 1_555
H7 C12 1_555 1_555
C13 C8 1_555 1_555
C14 C7 1_555 1_555
C15 C14 1_555 1_555
H8 C15 1_555 1_555
C16 C15 1_555 1_555
H9 C16 1_555 1_555
C17 C16 1_555 1_555
H10 C17 1_555 1_555
C18 C17 1_555 1_555
H11 C18 1_555 1_555
C19 C14 1_555 1_555
C20 C21 1_555 1_555
C21 H12 1_555 1_555
C22 C21 1_555 1_555
H13 C22 1_555 1_555
C23 C22 1_555 1_555
H14 C23 1_555 1_555
C24 C23 1_555 1_555
C25 C7 1_555 1_555
C26 H15 1_555 1_555
C27 C26 1_555 1_555
H16 C27 1_555 1_555
C28 C27 1_555 1_555
H17 C28 1_555 1_555
C29 C28 1_555 1_555
C30 C29 1_555 1_555
H18 C30 1_555 1_555
C31 C26 1_555 1_555
H19 C31 1_555 1_555
C32 C29 1_555 1_555
H20 C32 1_555 1_555
H21 C32 1_555 1_555
C33 H22 1_555 1_555
H23 C33 1_555 1_555
C34 C33 1_555 1_555
H24 C34 1_555 1_555
H25 C34 1_555 1_555
C35 C34 1_555 1_555
H26 C35 1_555 1_555
C36 C35 1_555 1_555
H27 C36 1_555 1_555
C37 C36 1_555 1_555
H28 C37 1_555 1_555
H29 C37 1_555 1_555
C38 H30 1_555 1_555
C39 C35 1_555 1_555
H31 C39 1_555 1_555
H32 C39 1_555 1_555
C40 C38 1_555 1_555
H33 C40 1_555 1_555
C41 C40 1_555 1_555
C42 C41 1_555 1_555
H34 C42 1_555 1_555
C43 C42 1_555 1_555
H35 C43 1_555 1_555
C44 C45 1_555 1_555
C45 C41 1_555 1_555
C46 C45 1_555 1_555
H36 C46 1_555 1_555
C47 C46 1_555 1_555
H37 C47 1_555 1_555
C48 C47 1_555 1_555
H38 C48 1_555 1_555
C49 C44 1_555 1_555
H39 C49 1_555 1_555
C50 C36 1_555 1_555
H40 C50 1_555 1_555
C51 C50 1_555 1_555
H41 C51 1_555 1_555
H42 C51 1_555 1_555
C52 C53 1_555 1_555
C53 H43 1_555 1_555
H44 C53 1_555 1_555
H45 C53 1_555 1_555
N1 C32 1_555 1_555
N2 C43 1_555 1_555
N3 C52 1_555 1_555
O1 C1 1_555 1_555
H46 O1 1_555 1_555
O2 C24 1_555 1_555
H47 O2 1_555 1_555
O3 C19 1_555 1_555
O4 C5 1_555 1_555
O5 C40 1_555 1_555
H48 O5 1_555 1_555
C5 C6 1_555 1_555
C12 C13 1_555 1_555
C13 O4 1_555 1_555
C18 C19 1_555 1_555
C20 C25 1_555 1_555
C20 O3 1_555 1_555
C24 C25 1_555 1_555
C30 C31 1_555 1_555
C33 N1 1_555 1_555
C37 N1 1_555 1_555
C38 C39 1_555 1_555
C38 N1 1_555 1_555
C44 N2 1_555 1_555
C48 C49 1_555 1_555

#END
