
#######################################################################
#
#                 Cambridge Crystallographic Data Centre
#                                CCDC 
#
#######################################################################
#
# If this CIF has been generated from an entry in the Cambridge 
# Structural Database, then it will include bibliographic, chemical, 
# crystal, experimental, refinement or atomic coordinate data resulting 
# from the CCDC's data processing and validation procedures.
#
#######################################################################

data_GAJCOM
_chemical_name_common            
3,6-bis(2-furyl)[1,2,4]triazolo[3,4-b][1,3,4]thiadiazole
_chemical_formula_moiety         'C11 H6 N4 O2 S1'
_chemical_name_systematic        
3,6-di(furan-2-yl)-[1,2,4]triazolo[3,4-b][1,3,4]thiadiazole
_symmetry_cell_setting           monoclinic
_symmetry_space_group_name_H-M   'P 21/n'
_symmetry_Int_Tables_number      14
_space_group_name_Hall           '-P 2yn'
loop_
_symmetry_equiv_pos_site_id
_symmetry_equiv_pos_as_xyz
1 x,y,z
2 1/2-x,1/2+y,1/2-z
3 -x,-y,-z
4 1/2+x,1/2-y,1/2+z
_cell_length_a                   10.7264(7)
_cell_length_b                   4.9865(3)
_cell_length_c                   19.6574(13)
_cell_angle_alpha                90
_cell_angle_beta                 92.788(4)
_cell_angle_gamma                90
_cell_volume                     1050.17
_exptl_crystal_colour            yellow
_exptl_crystal_description       'rectangular plate'
_cell_formula_units_Z            4
_exptl_crystal_recrystallization_method 
'Re-crystallisation from solvent: ethanol'
loop_
_atom_site_label
_atom_site_type_symbol
_atom_site_fract_x
_atom_site_fract_y
_atom_site_fract_z
C1 C 0.30728(14) -0.0431(3) 0.55402(7)
N1 N 0.40613(12) 0.0745(2) 0.58319(6)
N2 N 0.44774(11) 0.2731(3) 0.53945(6)
C2 C 0.37145(13) 0.2648(3) 0.48538(7)
S1 S 0.34709(3) 0.42928(7) 0.40862(2)
C3 C 0.21671(13) 0.2177(3) 0.39345(7)
N3 N 0.19208(12) 0.0407(2) 0.43974(6)
N4 N 0.28272(11) 0.0715(2) 0.49149(5)
C4 C 0.23230(13) -0.2538(3) 0.58138(7)
C5 C 0.13248(15) -0.3912(3) 0.55516(8)
H1 H 0.0925 -0.3682 0.5114
C6 C 0.09910(15) -0.5779(3) 0.60637(8)
H2 H 0.0327 -0.7041 0.6035
C7 C 0.18067(16) -0.5388(3) 0.65943(8)
H3 H 0.1805 -0.6361 0.7010
O1 O 0.26428(10) -0.3398(2) 0.64585(5)
C8 C 0.14446(13) 0.2470(3) 0.33026(7)
C9 C 0.14864(14) 0.4422(3) 0.28226(7)
H4 H 0.2006 0.5966 0.2837
C10 C 0.05970(16) 0.3694(3) 0.22933(7)
H5 H 0.0399 0.4659 0.1886
C11 C 0.00934(16) 0.1356(4) 0.24887(8)
H6 H -0.0526 0.0386 0.2229
O2 O 0.05959(11) 0.0563(2) 0.31141(6)
loop_
_geom_bond_atom_site_label_1
_geom_bond_atom_site_label_2
_geom_bond_site_symmetry_1
_geom_bond_site_symmetry_2
C1 N1 1_555 1_555
N1 N2 1_555 1_555
N2 C2 1_555 1_555
C2 S1 1_555 1_555
S1 C3 1_555 1_555
C3 N3 1_555 1_555
N3 N4 1_555 1_555
N4 C1 1_555 1_555
C4 C1 1_555 1_555
C5 C4 1_555 1_555
H1 C5 1_555 1_555
C6 C5 1_555 1_555
H2 C6 1_555 1_555
C7 C6 1_555 1_555
H3 C7 1_555 1_555
O1 C4 1_555 1_555
C8 C3 1_555 1_555
C9 C8 1_555 1_555
H4 C9 1_555 1_555
C10 C9 1_555 1_555
H5 C10 1_555 1_555
C11 C10 1_555 1_555
H6 C11 1_555 1_555
O2 C8 1_555 1_555
C2 N4 1_555 1_555
C7 O1 1_555 1_555
C11 O2 1_555 1_555

#END
