
#######################################################################
#
#                 Cambridge Crystallographic Data Centre
#                                CCDC 
#
#######################################################################
#
# If this CIF has been generated from an entry in the Cambridge 
# Structural Database, then it will include bibliographic, chemical, 
# crystal, experimental, refinement or atomic coordinate data resulting 
# from the CCDC's data processing and validation procedures.
#
#######################################################################

data_GAJKUA
_chemical_formula_moiety         'C41 H38 N4 O3 S1'
_chemical_name_systematic        
2-(4-(1,3-benzothiazol-2-yl)-3-hydroxyphenyl)-3',6'-bis(diethylamino)spiro[isoindole-1,9'-xanthen]-3(2H)-one
_symmetry_cell_setting           monoclinic
_symmetry_space_group_name_H-M   'P 21/c'
_symmetry_Int_Tables_number      14
_space_group_name_Hall           '-P 2ybc'
loop_
_symmetry_equiv_pos_site_id
_symmetry_equiv_pos_as_xyz
1 x,y,z
2 -x,1/2+y,1/2-z
3 -x,-y,-z
4 x,1/2-y,1/2+z
_cell_length_a                   18.9533(12)
_cell_length_b                   9.1195(6)
_cell_length_c                   21.5823(13)
_cell_angle_alpha                90
_cell_angle_beta                 113.281(2)
_cell_angle_gamma                90
_cell_volume                     3426.65
_exptl_crystal_colour            colorless
_exptl_crystal_description       block
_cell_formula_units_Z            4
loop_
_atom_site_label
_atom_site_type_symbol
_atom_site_fract_x
_atom_site_fract_y
_atom_site_fract_z
C1 C 0.43519(17) 0.0156(4) 1.04859(17)
C2 C 0.4713(2) -0.0534(6) 1.11189(19)
H1 H 0.5035 -0.0023 1.1498
C3 C 0.4560(2) -0.2029(7) 1.1145(2)
H2 H 0.4792 -0.2541 1.1547
C4 C 0.4063(3) -0.2753(5) 1.0573(3)
H3 H 0.3967 -0.3744 1.0603
C5 C 0.3721(2) -0.2075(4) 0.9981(2)
H4 H 0.3383 -0.2580 0.9607
C6 C 0.38742(18) -0.0636(4) 0.99334(16)
C7 C 0.38695(17) 0.1608(4) 0.94752(16)
C8 C 0.37302(16) 0.2763(3) 0.89794(15)
C9 C 0.40484(18) 0.4152(4) 0.91685(15)
H5 H 0.4334 0.4344 0.9623
C10 C 0.39546(17) 0.5243(4) 0.87072(15)
H6 H 0.4171 0.6161 0.8849
C11 C 0.35350(15) 0.4974(3) 0.80256(15)
C12 C 0.32121(18) 0.3610(3) 0.78245(15)
H7 H 0.2931 0.3422 0.7369
C13 C 0.33033(18) 0.2515(3) 0.82974(16)
C14 C 0.39934(17) 0.7147(3) 0.76123(15)
C15 C 0.36123(17) 0.8352(3) 0.71528(15)
C16 C 0.3921(2) 0.9646(4) 0.70298(16)
H8 H 0.4445 0.9832 0.7242
C17 C 0.3442(3) 1.0635(4) 0.65928(19)
H9 H 0.3637 1.1512 0.6507
C18 C 0.2658(3) 1.0337(4) 0.62734(19)
H10 H 0.2336 1.1022 0.5977
C19 C 0.2352(2) 0.9037(4) 0.63905(17)
H11 H 0.1830 0.8838 0.6174
C20 C 0.28427(16) 0.8050(3) 0.68358(14)
C21 C 0.26510(15) 0.6571(3) 0.70573(14)
C22 C 0.23308(15) 0.5511(3) 0.64698(14)
C23 C 0.27228(17) 0.5175(3) 0.60602(16)
H12 H 0.3198 0.5611 0.6157
C24 C 0.24449(17) 0.4238(4) 0.55243(16)
H13 H 0.2735 0.4045 0.5273
C25 C 0.17278(17) 0.3563(3) 0.53487(15)
C26 C 0.13332(17) 0.3870(4) 0.57557(15)
H14 H 0.0859 0.3433 0.5663
C27 C 0.16370(16) 0.4820(3) 0.62985(14)
N1 N 0.14357(16) 0.2612(3) 0.48133(14)
C28 C 0.1786(3) 0.2394(5) 0.4326(2)
H15 H 0.1384 0.2428 0.3876
H16 H 0.2132 0.3205 0.4366
C29 C 0.2202(4) 0.1056(6) 0.4396(4)
H17 H 0.2683 0.1123 0.4779
H18 H 0.2297 0.0887 0.3996
H19 H 0.1907 0.0258 0.4460
C30 C 0.0727(2) 0.1751(5) 0.4703(2)
H20 H 0.0738 0.0839 0.4476
H21 H 0.0710 0.1514 0.5135
C31 C 0.0069(3) 0.2557(7) 0.4311(3)
H22 H 0.0055 0.3452 0.4540
H23 H -0.0382 0.1988 0.4244
H24 H 0.0084 0.2781 0.3882
C32 C 0.14168(17) 0.5957(3) 0.71944(15)
C33 C 0.20959(16) 0.6722(3) 0.73980(14)
C34 C 0.22458(18) 0.7649(4) 0.79462(17)
H25 H 0.2703 0.8176 0.8105
C35 C 0.17515(19) 0.7829(4) 0.82672(17)
H26 H 0.1881 0.8465 0.8632
C36 C 0.09024(18) 0.6100(4) 0.75082(16)
H27 H 0.0453 0.5549 0.7356
C37 C 0.0678(2) 0.8320(4) 0.88833(19)
H28 H 0.0188 0.8650 0.8874
H29 H 0.0937 0.9162 0.8795
C38 C 0.1154(3) 0.7731(5) 0.9573(2)
H30 H 0.0901 0.6895 0.9663
H31 H 0.1214 0.8476 0.9904
H32 H 0.1649 0.7445 0.9592
C39 C 0.10576(18) 0.7062(4) 0.80472(16)
N2 N 0.05422(17) 0.7236(4) 0.83491(15)
C40 C -0.0094(4) 0.6141(9) 0.8225(3)
H33 H 0.0064 0.5187 0.8127
H34 H -0.0206 0.6052 0.8625
C41 C -0.0797(4) 0.6642(8) 0.7642(4)
H35 H -0.1202 0.5943 0.7560
H36 H -0.0683 0.6725 0.7247
H37 H -0.0955 0.7579 0.7744
N3 N 0.34326(12) 0.6124(3) 0.75539(12)
O1 O 0.46712(11) 0.7041(3) 0.79855(11)
O2 O 0.11802(12) 0.5006(3) 0.66570(11)
O3 O 0.2954(2) 0.1229(3) 0.80820(14)
H38 H 0.305(3) 0.074(5) 0.8441(15)
N4 N 0.3602(3) 0.0359(6) 0.9372(2)
S1 S 0.44628(8) 0.19637(16) 1.03423(7)
H39? H 0.3076 0.1604 0.8156
C42? C -0.0301(10) 0.709(2) 0.7907(9)
H40? H -0.0390 0.7096 0.7433
H41? H -0.0599 0.7865 0.7995
C43? C -0.0500(12) 0.554(2) 0.8131(10)
H42? H -0.1030 0.5313 0.7871
H43? H -0.0408 0.5566 0.8601
H44? H -0.0182 0.4801 0.8055
O4? O 0.4396(8) 0.4323(12) 0.9806(5)
H45? H 0.439(10) 0.356(11) 1.002(7)
N5? N 0.4291(9) 0.1584(14) 1.0077(7)
S2? S 0.3504(4) -0.0264(7) 0.9144(3)
loop_
_geom_bond_atom_site_label_1
_geom_bond_atom_site_label_2
_geom_bond_site_symmetry_1
_geom_bond_site_symmetry_2
C1 C2 1_555 1_555
C2 H1 1_555 1_555
C3 C2 1_555 1_555
H2 C3 1_555 1_555
C4 C3 1_555 1_555
H3 C4 1_555 1_555
C5 C4 1_555 1_555
H4 C5 1_555 1_555
C6 C1 1_555 1_555
C7 C8 1_555 1_555
C8 C9 1_555 1_555
C9 H5 1_555 1_555
C10 C9 1_555 1_555
H6 C10 1_555 1_555
C11 C10 1_555 1_555
C12 C11 1_555 1_555
H7 C12 1_555 1_555
C13 C8 1_555 1_555
C14 C15 1_555 1_555
C15 C16 1_555 1_555
C16 H8 1_555 1_555
C17 C16 1_555 1_555
H9 C17 1_555 1_555
C18 C17 1_555 1_555
H10 C18 1_555 1_555
C19 C18 1_555 1_555
H11 C19 1_555 1_555
C20 C15 1_555 1_555
C21 C20 1_555 1_555
C22 C21 1_555 1_555
C23 C22 1_555 1_555
H12 C23 1_555 1_555
C24 C23 1_555 1_555
H13 C24 1_555 1_555
C25 C24 1_555 1_555
C26 C25 1_555 1_555
H14 C26 1_555 1_555
C27 C22 1_555 1_555
N1 C25 1_555 1_555
C28 N1 1_555 1_555
H15 C28 1_555 1_555
H16 C28 1_555 1_555
C29 C28 1_555 1_555
H17 C29 1_555 1_555
H18 C29 1_555 1_555
H19 C29 1_555 1_555
C30 N1 1_555 1_555
H20 C30 1_555 1_555
H21 C30 1_555 1_555
C31 C30 1_555 1_555
H22 C31 1_555 1_555
H23 C31 1_555 1_555
H24 C31 1_555 1_555
C32 C33 1_555 1_555
C33 C21 1_555 1_555
C34 C33 1_555 1_555
H25 C34 1_555 1_555
C35 C34 1_555 1_555
H26 C35 1_555 1_555
C36 C32 1_555 1_555
H27 C36 1_555 1_555
C37 H28 1_555 1_555
H29 C37 1_555 1_555
C38 C37 1_555 1_555
H30 C38 1_555 1_555
H31 C38 1_555 1_555
H32 C38 1_555 1_555
C39 C35 1_555 1_555
N2 C37 1_555 1_555
C40 N2 1_555 1_555
H33 C40 1_555 1_555
H34 C40 1_555 1_555
C41 C40 1_555 1_555
H35 C41 1_555 1_555
H36 C41 1_555 1_555
H37 C41 1_555 1_555
N3 C11 1_555 1_555
O1 C14 1_555 1_555
O2 C27 1_555 1_555
O3 C13 1_555 1_555
H38 O3 1_555 1_555
N4 C6 1_555 1_555
S1 C1 1_555 1_555
C5 C6 1_555 1_555
C7 N4 1_555 1_555
C7 S1 1_555 1_555
C12 C13 1_555 1_555
C14 N3 1_555 1_555
C19 C20 1_555 1_555
C21 N3 1_555 1_555
C26 C27 1_555 1_555
C32 O2 1_555 1_555
C36 C39 1_555 1_555
C39 N2 1_555 1_555

#END
