
#######################################################################
#
#                 Cambridge Crystallographic Data Centre
#                                CCDC 
#
#######################################################################
#
# If this CIF has been generated from an entry in the Cambridge 
# Structural Database, then it will include bibliographic, chemical, 
# crystal, experimental, refinement or atomic coordinate data resulting 
# from the CCDC's data processing and validation procedures.
#
#######################################################################

data_GAJNEK
_chemical_formula_moiety         'C29 H21 N1 O3'
_chemical_name_systematic        
N-(2-Methoxycarbonyl-1-naphthyl)-N-(1-naphthyl)-benzamide
_symmetry_cell_setting           monoclinic
_symmetry_space_group_name_H-M   'C 2/c'
_symmetry_Int_Tables_number      15
_space_group_name_Hall           '-C 2yn'
loop_
_symmetry_equiv_pos_site_id
_symmetry_equiv_pos_as_xyz
1 x,y,z
2 1/2+x,1/2+y,z
3 -x,y,1/2-z
4 1/2-x,1/2+y,1/2-z
5 -x,-y,-z
6 1/2-x,1/2-y,-z
7 x,-y,1/2+z
8 1/2+x,1/2-y,1/2+z
_cell_length_a                   19.889(6)
_cell_length_b                   12.845(1)
_cell_length_c                   20.310(4)
_cell_angle_alpha                90
_cell_angle_beta                 108.97(2)
_cell_angle_gamma                90
_cell_volume                     4906.88
_chemical_melting_point          165-167deg.C
_cell_formula_units_Z            8
loop_
_atom_site_label
_atom_site_type_symbol
_atom_site_fract_x
_atom_site_fract_y
_atom_site_fract_z
N1 N 0.1665(3) 0.4565(4) 0.5936(3)
C1 C 0.1695(4) 0.3447(5) 0.5885(3)
C2 C 0.2296(4) 0.3004(6) 0.5849(4)
C3 C 0.2352(5) 0.1903(6) 0.5778(4)
C4 C 0.1786(4) 0.1297(5) 0.5754(3)
C5 C 0.1148(4) 0.1736(6) 0.5789(4)
C6 C 0.0546(3) 0.1093(4) 0.5769(3)
C7 C -0.0063(3) 0.1520(4) 0.5813(3)
C8 C -0.0121(4) 0.2600(7) 0.5867(4)
C9 C 0.0445(4) 0.3244(6) 0.5884(4)
C10 C 0.1097(4) 0.2836(5) 0.5857(3)
C11 C 0.1964(3) 0.5156(5) 0.5493(3)
C12 C 0.2589(4) 0.5713(5) 0.5743(3)
C13 C 0.2847(4) 0.6260(6) 0.5275(4)
C14 C 0.2520(4) 0.6222(6) 0.4582(4)
C15 C 0.1885(4) 0.5655(5) 0.4303(3)
C16 C 0.1522(4) 0.5594(6) 0.3573(4)
C17 C 0.0898(4) 0.5072(6) 0.3311(4)
C18 C 0.0596(4) 0.4592(7) 0.3758(4)
C19 C 0.0930(4) 0.4613(6) 0.4470(4)
C20 C 0.1583(3) 0.5129(5) 0.4763(3)
C21 C 0.3023(4) 0.5731(6) 0.6504(4)
O1 O 0.3060(5) 0.5037(7) 0.6909(4)
O2 O 0.3356(4) 0.6635(7) 0.6665(4)
C22 C 0.3812(5) 0.6768(7) 0.7386(5)
C23 C 0.1578(4) 0.4979(5) 0.6538(3)
O3 O 0.1543(3) 0.4425(4) 0.7003(3)
C24 C 0.1496(4) 0.6141(5) 0.6554(4)
C25 C 0.1072(4) 0.6721(6) 0.5997(4)
C26 C 0.1001(4) 0.7792(6) 0.6069(4)
C27 C 0.1366(6) 0.8283(9) 0.6680(5)
C28 C 0.1788(5) 0.7734(6) 0.7235(4)
C29 C 0.1847(5) 0.6653(6) 0.7187(4)
H1 H 0.268(1) 0.344(1) 0.588(1)
H2 H 0.282(4) 0.156(6) 0.578(4)
H3 H 0.179(4) 0.058(6) 0.569(4)
H4 H 0.057(4) 0.028(6) 0.573(4)
H5 H -0.052(5) 0.104(7) 0.594(5)
H6 H -0.051(4) 0.284(7) 0.604(4)
H7 H 0.041(4) 0.392(7) 0.591(4)
H8 H 0.326(3) 0.664(5) 0.542(3)
H9 H 0.275(4) 0.657(6) 0.426(4)
H10 H 0.177(4) 0.588(6) 0.327(4)
H11 H 0.044(4) 0.498(7) 0.280(4)
H12 H 0.035(4) 0.411(7) 0.342(4)
H13 H 0.072(5) 0.427(7) 0.476(5)
H14 H 0.422(5) 0.690(8) 0.793(5)
H15 H 0.354(9) 0.672(11) 0.763(10)
H16 H 0.390(5) 0.728(8) 0.705(5)
H17 H 0.076(4) 0.635(6) 0.553(4)
H18 H 0.069(4) 0.822(6) 0.571(4)
H19 H 0.136(4) 0.903(6) 0.673(4)
H20 H 0.210(4) 0.825(6) 0.765(4)
H21 H 0.208(5) 0.624(7) 0.758(5)
loop_
_geom_bond_atom_site_label_1
_geom_bond_atom_site_label_2
_geom_bond_site_symmetry_1
_geom_bond_site_symmetry_2
N1 C1 1_555 1_555
C1 C2 1_555 1_555
C2 C3 1_555 1_555
C3 C4 1_555 1_555
C4 C5 1_555 1_555
C5 C6 1_555 1_555
C6 C7 1_555 1_555
C7 C8 1_555 1_555
C8 C9 1_555 1_555
C9 C10 1_555 1_555
C10 C1 1_555 1_555
C11 N1 1_555 1_555
C12 C11 1_555 1_555
C13 C12 1_555 1_555
C14 C13 1_555 1_555
C15 C14 1_555 1_555
C16 C15 1_555 1_555
C17 C16 1_555 1_555
C18 C17 1_555 1_555
C19 C18 1_555 1_555
C20 C11 1_555 1_555
C21 C12 1_555 1_555
O1 C21 1_555 1_555
O2 C21 1_555 1_555
C22 O2 1_555 1_555
C23 N1 1_555 1_555
O3 C23 1_555 1_555
C24 C23 1_555 1_555
C25 C24 1_555 1_555
C26 C25 1_555 1_555
C27 C26 1_555 1_555
C28 C27 1_555 1_555
C29 C24 1_555 1_555
H1 C2 1_555 1_555
H2 C3 1_555 1_555
H3 C4 1_555 1_555
H4 C6 1_555 1_555
H5 C7 1_555 1_555
H6 C8 1_555 1_555
H7 C9 1_555 1_555
H8 C13 1_555 1_555
H9 C14 1_555 1_555
H10 C16 1_555 1_555
H11 C17 1_555 1_555
H12 C18 1_555 1_555
H13 C19 1_555 1_555
H14 C22 1_555 1_555
H15 C22 1_555 1_555
H16 C22 1_555 1_555
H17 C25 1_555 1_555
H18 C26 1_555 1_555
H19 C27 1_555 1_555
H20 C28 1_555 1_555
H21 C29 1_555 1_555
C5 C10 1_555 1_555
C15 C20 1_555 1_555
C19 C20 1_555 1_555
C28 C29 1_555 1_555

#END
