
#######################################################################
#
#                 Cambridge Crystallographic Data Centre
#                                CCDC 
#
#######################################################################
#
# If this CIF has been generated from an entry in the Cambridge 
# Structural Database, then it will include bibliographic, chemical, 
# crystal, experimental, refinement or atomic coordinate data resulting 
# from the CCDC's data processing and validation procedures.
#
#######################################################################

data_GAJPIT
_chemical_formula_moiety         'C36 H30 O2'
_chemical_name_systematic        
4-(1-(5-(1-(Biphenyl-4-yl)vinyl)-2,4-dimethoxyphenyl)vinyl)biphenyl
_symmetry_cell_setting           triclinic
_symmetry_space_group_name_H-M   'P -1'
_symmetry_Int_Tables_number      2
_space_group_name_Hall           '-P 1'
loop_
_symmetry_equiv_pos_site_id
_symmetry_equiv_pos_as_xyz
1 x,y,z
2 -x,-y,-z
_cell_length_a                   8.414(10)
_cell_length_b                   12.311(14)
_cell_length_c                   27.28(3)
_cell_angle_alpha                89.39(3)
_cell_angle_beta                 83.70(3)
_cell_angle_gamma                89.57(3)
_cell_volume                     2808.51
_exptl_crystal_colour            colorless
_cell_formula_units_Z            4
loop_
_atom_site_label
_atom_site_type_symbol
_atom_site_fract_x
_atom_site_fract_y
_atom_site_fract_z
O1 O 1.02688(18) 0.84546(13) 0.50583(6)
O2 O 0.84443(18) 0.52580(13) 0.42567(6)
C1 C 0.7996(4) 0.4245(3) 0.10567(11)
H1 H 0.7585 0.4171 0.0756
C2 C 0.9106(5) 0.3489(3) 0.12018(11)
H2 H 0.9450 0.2927 0.0990
C3 C 0.9705(4) 0.3559(2) 0.16555(10)
H3 H 1.0442 0.3047 0.1745
C4 C 0.9198(3) 0.4403(2) 0.19782(9)
C5 C 0.9796(3) 0.44667(19) 0.24765(9)
C6 C 0.9801(3) 0.54554(19) 0.27260(9)
H4 H 0.9430 0.6081 0.2581
C7 C 1.0349(3) 0.55140(19) 0.31847(9)
H5 H 1.0326 0.6182 0.3342
C8 C 1.0943(3) 0.45951(18) 0.34237(8)
C9 C 1.1626(3) 0.46784(18) 0.39067(9)
C10 C 1.1200(3) 0.56489(17) 0.42206(8)
C11 C 1.2404(3) 0.63094(17) 0.43658(8)
H6 H 1.3461 0.6124 0.4263
C12 C 1.2117(2) 0.72287(17) 0.46557(8)
C13 C 1.3469(3) 0.78914(17) 0.48029(9)
C14 C 1.3626(2) 0.80041(17) 0.53415(8)
C15 C 1.4636(3) 0.87737(18) 0.55174(9)
H7 H 1.5142 0.9279 0.5298
C16 C 1.4898(3) 0.88012(18) 0.60087(9)
H8 H 1.5584 0.9323 0.6110
C17 C 1.4166(3) 0.80692(17) 0.63612(8)
C18 C 1.4558(3) 0.80389(19) 0.68867(9)
C19 C 1.4192(3) 0.7149(2) 0.71957(10)
H9 H 1.3657 0.6566 0.7076
C20 C 1.4597(4) 0.7097(3) 0.76805(11)
H10 H 1.4326 0.6490 0.7877
C21 C 1.5383(4) 0.7931(3) 0.78615(11)
H11 H 1.5675 0.7898 0.8181
C22 C 0.7514(3) 0.5103(3) 0.13618(11)
H12 H 0.6803 0.5624 0.1265
C23 C 0.8116(3) 0.5171(2) 0.18178(10)
H13 H 0.7788 0.5747 0.2023
C24 C 1.0367(3) 0.3546(2) 0.27207(10)
H14 H 1.0373 0.2876 0.2566
C25 C 1.0918(3) 0.36021(19) 0.31811(10)
H15 H 1.1273 0.2975 0.3329
C26 C 1.5345(4) 0.8888(3) 0.70848(12)
H16 H 1.5608 0.9504 0.6893
C27 C 1.5746(5) 0.8832(3) 0.75656(13)
H17 H 1.6269 0.9414 0.7690
C28 C 1.3076(3) 0.7350(2) 0.61955(9)
H18 H 1.2516 0.6878 0.6419
C29 C 1.2811(3) 0.73235(19) 0.57021(9)
H19 H 1.2066 0.6837 0.5606
C30 C 1.4550(3) 0.82793(19) 0.44462(9)
H20 H 1.5450 0.8639 0.4529
H21 H 1.4398 0.8188 0.4117
C31 C 1.0507(3) 0.75011(17) 0.47989(8)
C32 C 0.8678(3) 0.8798(2) 0.52069(13)
H22 H 0.8106 0.8869 0.4922
H23 H 0.8693 0.9487 0.5368
H24 H 0.8159 0.8271 0.5431
C33 C 0.9264(3) 0.68618(18) 0.46694(8)
H25 H 0.8208 0.7052 0.4771
C34 C 0.9607(3) 0.59413(17) 0.43884(8)
C35 C 0.6822(3) 0.5476(2) 0.44362(10)
H26 H 0.6684 0.5397 0.4789
H27 H 0.6140 0.4973 0.4294
H28 H 0.6546 0.6204 0.4347
C36 C 1.2714(3) 0.3954(2) 0.40419(10)
H29 H 1.3193 0.4060 0.4329
H30 H 1.2983 0.3349 0.3848
O3 O 0.45799(17) 0.03248(12) 0.11149(6)
O4 O 0.48892(18) 0.36213(12) 0.00677(6)
C37 C 0.3931(4) 0.3078(4) -0.31968(11)
H31 H 0.3456 0.3085 -0.3489
C38 C 0.4795(4) 0.3952(3) -0.30722(12)
H32 H 0.4929 0.4548 -0.3284
C39 C 0.5474(3) 0.3951(2) -0.26298(10)
H33 H 0.6054 0.4552 -0.2551
C40 C 0.5305(3) 0.3061(2) -0.22961(9)
C41 C 0.5972(3) 0.30672(18) -0.18092(8)
C42 C 0.7131(3) 0.3811(2) -0.17019(9)
H34 H 0.7509 0.4315 -0.1942
C43 C 0.7732(3) 0.38208(19) -0.12510(9)
H35 H 0.8491 0.4337 -0.1196
C44 C 0.7228(3) 0.30702(16) -0.08711(8)
C45 C 0.7906(3) 0.30279(16) -0.03842(8)
C46 C 0.7026(2) 0.23550(17) 0.00289(7)
C47 C 0.7698(2) 0.13958(17) 0.02077(8)
H36 H 0.8722 0.1197 0.0074
C48 C 0.6915(2) 0.07191(16) 0.05769(7)
C49 C 0.7702(3) -0.03216(17) 0.07357(8)
C50 C 0.8307(2) -0.03885(17) 0.12314(8)
C51 C 0.8185(3) 0.05053(18) 0.15442(9)
H37 H 0.7728 0.1146 0.1440
C52 C 0.8729(3) 0.04611(19) 0.20069(9)
H38 H 0.8614 0.1073 0.2205
C53 C 0.9449(2) -0.04784(18) 0.21872(8)
C54 C 1.0005(3) -0.05472(18) 0.26921(8)
C55 C 0.9336(3) 0.0111(2) 0.30720(10)
H39 H 0.8563 0.0623 0.3010
C56 C 0.9805(4) 0.0016(3) 0.35461(11)
H40 H 0.9339 0.0462 0.3796
C57 C 1.0970(4) -0.0746(2) 0.36484(11)
H41 H 1.1273 -0.0812 0.3965
C58 C 0.5457(3) 0.23285(19) -0.14266(9)
H42 H 0.4686 0.1819 -0.1480
C59 C 0.6063(3) 0.23377(19) -0.09741(9)
H43 H 0.5679 0.1839 -0.0732
C60 C 1.1192(3) -0.1296(2) 0.28069(10)
H44 H 1.1677 -0.1738 0.2559
C61 C 1.1661(3) -0.1393(2) 0.32783(11)
H45 H 1.2442 -0.1898 0.3342
C62 C 0.9590(3) -0.13687(19) 0.18730(9)
H46 H 1.0065 -0.2005 0.1975
C63 C 0.9039(3) -0.13288(18) 0.14117(9)
H47 H 0.9155 -0.1941 0.1214
C64 C 0.7855(3) -0.1137(2) 0.04228(9)
H48 H 0.8351 -0.1778 0.0508
H49 H 0.7465 -0.1069 0.0118
C65 C 0.5356(3) 0.10290(17) 0.07649(8)
C66 C 0.2864(3) 0.0407(2) 0.12048(10)
H50 H 0.2574 0.1075 0.1370
H51 H 0.2461 -0.0194 0.1408
H52 H 0.2414 0.0393 0.0896
C67 C 0.4653(3) 0.19969(17) 0.06053(8)
H53 H 0.3634 0.2200 0.0742
C68 C 0.5483(2) 0.26518(16) 0.02417(8)
C69 C 0.3347(3) 0.3980(2) 0.02704(13)
H54 H 0.2569 0.3440 0.0217
H55 H 0.3085 0.4649 0.0113
H56 H 0.3347 0.4094 0.0618
C70 C 0.9265(3) 0.35142(19) -0.03103(10)
H57 H 0.9836 0.3900 -0.0566
H58 H 0.9645 0.3468 -0.0003
C71 C 0.4457(3) 0.2176(3) -0.24397(10)
H59 H 0.4344 0.1565 -0.2236
C72 C 0.3771(4) 0.2184(3) -0.28838(12)
H60 H 0.3202 0.1583 -0.2970
loop_
_geom_bond_atom_site_label_1
_geom_bond_atom_site_label_2
_geom_bond_site_symmetry_1
_geom_bond_site_symmetry_2
O1 C31 1_555 1_555
O2 C34 1_555 1_555
C1 H1 1_555 1_555
C2 C1 1_555 1_555
H2 C2 1_555 1_555
C3 C2 1_555 1_555
H3 C3 1_555 1_555
C4 C3 1_555 1_555
C5 C4 1_555 1_555
C6 C5 1_555 1_555
H4 C6 1_555 1_555
C7 C6 1_555 1_555
H5 C7 1_555 1_555
C8 C7 1_555 1_555
C9 C8 1_555 1_555
C10 C9 1_555 1_555
C11 C10 1_555 1_555
H6 C11 1_555 1_555
C12 C11 1_555 1_555
C13 C12 1_555 1_555
C14 C13 1_555 1_555
C15 C14 1_555 1_555
H7 C15 1_555 1_555
C16 C15 1_555 1_555
H8 C16 1_555 1_555
C17 C16 1_555 1_555
C18 C17 1_555 1_555
C19 C18 1_555 1_555
H9 C19 1_555 1_555
C20 C19 1_555 1_555
H10 C20 1_555 1_555
C21 C20 1_555 1_555
H11 C21 1_555 1_555
C22 C1 1_555 1_555
H12 C22 1_555 1_555
C23 C4 1_555 1_555
H13 C23 1_555 1_555
C24 C5 1_555 1_555
H14 C24 1_555 1_555
C25 C8 1_555 1_555
H15 C25 1_555 1_555
C26 C18 1_555 1_555
H16 C26 1_555 1_555
C27 C21 1_555 1_555
H17 C27 1_555 1_555
C28 C17 1_555 1_555
H18 C28 1_555 1_555
C29 C14 1_555 1_555
H19 C29 1_555 1_555
C30 C13 1_555 1_555
H20 C30 1_555 1_555
H21 C30 1_555 1_555
C31 C12 1_555 1_555
C32 O1 1_555 1_555
H22 C32 1_555 1_555
H23 C32 1_555 1_555
H24 C32 1_555 1_555
C33 C31 1_555 1_555
H25 C33 1_555 1_555
C34 C10 1_555 1_555
C35 O2 1_555 1_555
H26 C35 1_555 1_555
H27 C35 1_555 1_555
H28 C35 1_555 1_555
C36 C9 1_555 1_555
H29 C36 1_555 1_555
H30 C36 1_555 1_555
O3 C65 1_555 1_555
O4 C68 1_555 1_555
C37 H31 1_555 1_555
C38 C37 1_555 1_555
H32 C38 1_555 1_555
C39 C38 1_555 1_555
H33 C39 1_555 1_555
C40 C39 1_555 1_555
C41 C40 1_555 1_555
C42 C41 1_555 1_555
H34 C42 1_555 1_555
C43 C42 1_555 1_555
H35 C43 1_555 1_555
C44 C43 1_555 1_555
C45 C44 1_555 1_555
C46 C45 1_555 1_555
C47 C46 1_555 1_555
H36 C47 1_555 1_555
C48 C47 1_555 1_555
C49 C48 1_555 1_555
C50 C49 1_555 1_555
C51 C50 1_555 1_555
H37 C51 1_555 1_555
C52 C51 1_555 1_555
H38 C52 1_555 1_555
C53 C52 1_555 1_555
C54 C53 1_555 1_555
C55 C54 1_555 1_555
H39 C55 1_555 1_555
C56 C55 1_555 1_555
H40 C56 1_555 1_555
C57 C56 1_555 1_555
H41 C57 1_555 1_555
C58 C41 1_555 1_555
H42 C58 1_555 1_555
C59 C44 1_555 1_555
H43 C59 1_555 1_555
C60 C54 1_555 1_555
H44 C60 1_555 1_555
C61 C57 1_555 1_555
H45 C61 1_555 1_555
C62 C53 1_555 1_555
H46 C62 1_555 1_555
C63 C50 1_555 1_555
H47 C63 1_555 1_555
C64 C49 1_555 1_555
H48 C64 1_555 1_555
H49 C64 1_555 1_555
C65 C48 1_555 1_555
C66 O3 1_555 1_555
H50 C66 1_555 1_555
H51 C66 1_555 1_555
H52 C66 1_555 1_555
C67 C65 1_555 1_555
H53 C67 1_555 1_555
C68 C46 1_555 1_555
C69 O4 1_555 1_555
H54 C69 1_555 1_555
H55 C69 1_555 1_555
H56 C69 1_555 1_555
C70 C45 1_555 1_555
H57 C70 1_555 1_555
H58 C70 1_555 1_555
C71 C40 1_555 1_555
H59 C71 1_555 1_555
C72 C37 1_555 1_555
H60 C72 1_555 1_555
C22 C23 1_555 1_555
C24 C25 1_555 1_555
C26 C27 1_555 1_555
C28 C29 1_555 1_555
C33 C34 1_555 1_555
C58 C59 1_555 1_555
C60 C61 1_555 1_555
C62 C63 1_555 1_555
C67 C68 1_555 1_555
C71 C72 1_555 1_555

#END
