
#######################################################################
#
#                 Cambridge Crystallographic Data Centre
#                                CCDC 
#
#######################################################################
#
# If this CIF has been generated from an entry in the Cambridge 
# Structural Database, then it will include bibliographic, chemical, 
# crystal, experimental, refinement or atomic coordinate data resulting 
# from the CCDC's data processing and validation procedures.
#
#######################################################################

data_GAJVUL
_chemical_formula_moiety         'C34 H35 N1 O4 S1'
_chemical_name_systematic        
N-(2-(1,1-diphenylhepta-1,3-dien-3-yl)-4,5-dimethoxyphenyl)-4-methylbenzenesulfonamide
_symmetry_cell_setting           triclinic
_symmetry_space_group_name_H-M   'P -1'
_symmetry_Int_Tables_number      2
_space_group_name_Hall           '-P 1'
loop_
_symmetry_equiv_pos_site_id
_symmetry_equiv_pos_as_xyz
1 x,y,z
2 -x,-y,-z
_cell_length_a                   11.3232(12)
_cell_length_b                   12.1598(13)
_cell_length_c                   12.2434(13)
_cell_angle_alpha                77.4560(10)
_cell_angle_beta                 86.2230(10)
_cell_angle_gamma                69.2400(10)
_cell_volume                     1538.57
_exptl_crystal_colour            colorless
_exptl_crystal_description       block
_cell_formula_units_Z            2
loop_
_atom_site_label
_atom_site_type_symbol
_atom_site_fract_x
_atom_site_fract_y
_atom_site_fract_z
C1 C 1.1516(6) 0.2748(6) 0.0131(4)
H1 H 1.2337 0.2634 0.0399
H2 H 1.0986 0.3576 0.0066
H3 H 1.1591 0.2538 -0.0589
C2 C 1.0931(4) 0.1948(4) 0.0954(3)
C3 C 1.0053(4) 0.1564(5) 0.0617(3)
H4 H 0.9817 0.1781 -0.0134
C4 C 0.9504(3) 0.0868(4) 0.1349(3)
H5 H 0.8911 0.0610 0.1094
C5 C 0.9834(3) 0.0553(3) 0.2463(2)
C6 C 1.0701(3) 0.0953(3) 0.2819(3)
H6 H 1.0928 0.0752 0.3572
C7 C 1.1235(3) 0.1650(4) 0.2068(3)
H7 H 1.1814 0.1925 0.2320
C8 C 0.6871(3) 0.1386(2) 0.3133(2)
C9 C 0.6189(3) 0.0899(3) 0.2596(2)
H8 H 0.6402 0.0069 0.2723
C10 C 0.5208(3) 0.1628(3) 0.1885(3)
C11 C 0.4880(3) 0.2874(3) 0.1705(2)
C12 C 0.5548(3) 0.3350(3) 0.2237(2)
H9 H 0.5331 0.4180 0.2107
C13 C 0.6549(3) 0.2617(2) 0.2972(2)
C14 C 0.3384(4) 0.4787(4) 0.0891(4)
H10 H 0.3137 0.4972 0.1614
H11 H 0.2662 0.5124 0.0397
H12 H 0.4018 0.5122 0.0593
C15 C 0.4724(5) -0.0010(4) 0.1517(4)
H13 H 0.5563 -0.0410 0.1279
H14 H 0.4124 -0.0161 0.1106
H15 H 0.4650 -0.0309 0.2302
C16 C 0.7225(2) 0.3163(2) 0.3574(2)
C17 C 0.7985(3) 0.3694(3) 0.2992(3)
H16 H 0.8033 0.3697 0.2231
C18 C 0.8753(4) 0.4275(4) 0.3398(3)
H17 H 0.8437 0.4439 0.4123
H18 H 0.9610 0.3704 0.3512
C19 C 0.8804(6) 0.5338(5) 0.2726(5)
H19 H 0.7944 0.5903 0.2620
H20 H 0.9100 0.5168 0.1998
C20 C 0.9565(5) 0.5961(4) 0.3068(5)
H21 H 0.9681 0.5741 0.3866
H22 H 0.9141 0.6814 0.2848
H23 H 1.0374 0.5736 0.2714
C21 C 0.7097(3) 0.3059(2) 0.4785(2)
H24 H 0.7750 0.3142 0.5144
C22 C 0.6172(2) 0.2862(2) 0.5454(2)
C23 C 0.4974(2) 0.2854(3) 0.5037(2)
C24 C 0.4681(3) 0.1817(3) 0.5231(3)
H25 H 0.5266 0.1093 0.5592
C25 C 0.3528(5) 0.1845(5) 0.4893(4)
H26 H 0.3340 0.1143 0.5025
C26 C 0.2669(4) 0.2904(7) 0.4367(4)
H27 H 0.1893 0.2922 0.4140
C27 C 0.2934(4) 0.3936(5) 0.4170(4)
H28 H 0.2339 0.4658 0.3817
C28 C 0.4089(3) 0.3909(3) 0.4496(3)
H29 H 0.4272 0.4614 0.4347
C29 C 0.6263(3) 0.2709(2) 0.6686(2)
C30 C 0.5196(3) 0.3026(3) 0.7336(3)
H30 H 0.4403 0.3343 0.6994
C31 C 0.5284(4) 0.2884(3) 0.8475(3)
H31 H 0.4554 0.3123 0.8890
C32 C 0.6420(5) 0.2403(4) 0.8998(3)
H32 H 0.6476 0.2297 0.9770
C33 C 0.7469(4) 0.2077(4) 0.8388(3)
H33 H 0.8254 0.1744 0.8745
C34 C 0.7401(3) 0.2228(3) 0.7246(3)
H34 H 0.8143 0.1999 0.6844
N1 N 0.7893(2) 0.05926(19) 0.38845(19)
H35 H 0.7845 0.0607 0.4586
O1 O 0.3875(2) 0.3536(2) 0.0991(2)
O2 O 0.4479(2) 0.1243(2) 0.1318(2)
O3 O 0.8728(2) -0.09926(19) 0.2780(2)
O4 O 0.9959(2) -0.09468(19) 0.43556(19)
S1 S 0.91385(8) -0.03298(7) 0.34021(7)
loop_
_geom_bond_atom_site_label_1
_geom_bond_atom_site_label_2
_geom_bond_site_symmetry_1
_geom_bond_site_symmetry_2
C1 H1 1_555 1_555
H2 C1 1_555 1_555
H3 C1 1_555 1_555
C2 C1 1_555 1_555
C3 C2 1_555 1_555
H4 C3 1_555 1_555
C4 C3 1_555 1_555
H5 C4 1_555 1_555
C5 C4 1_555 1_555
C6 C5 1_555 1_555
H6 C6 1_555 1_555
C7 C2 1_555 1_555
H7 C7 1_555 1_555
C8 C9 1_555 1_555
C9 H8 1_555 1_555
C10 C9 1_555 1_555
C11 C10 1_555 1_555
C12 C11 1_555 1_555
H9 C12 1_555 1_555
C13 C8 1_555 1_555
C14 H10 1_555 1_555
H11 C14 1_555 1_555
H12 C14 1_555 1_555
C15 H13 1_555 1_555
H14 C15 1_555 1_555
H15 C15 1_555 1_555
C16 C13 1_555 1_555
C17 C16 1_555 1_555
H16 C17 1_555 1_555
C18 C17 1_555 1_555
H17 C18 1_555 1_555
H18 C18 1_555 1_555
C19 C18 1_555 1_555
H19 C19 1_555 1_555
H20 C19 1_555 1_555
C20 C19 1_555 1_555
H21 C20 1_555 1_555
H22 C20 1_555 1_555
H23 C20 1_555 1_555
C21 C16 1_555 1_555
H24 C21 1_555 1_555
C22 C21 1_555 1_555
C23 C22 1_555 1_555
C24 C23 1_555 1_555
H25 C24 1_555 1_555
C25 C24 1_555 1_555
H26 C25 1_555 1_555
C26 C25 1_555 1_555
H27 C26 1_555 1_555
C27 C26 1_555 1_555
H28 C27 1_555 1_555
C28 C23 1_555 1_555
H29 C28 1_555 1_555
C29 C22 1_555 1_555
C30 C29 1_555 1_555
H30 C30 1_555 1_555
C31 C30 1_555 1_555
H31 C31 1_555 1_555
C32 C31 1_555 1_555
H32 C32 1_555 1_555
C33 C32 1_555 1_555
H33 C33 1_555 1_555
C34 C29 1_555 1_555
H34 C34 1_555 1_555
N1 C8 1_555 1_555
H35 N1 1_555 1_555
O1 C11 1_555 1_555
O2 C10 1_555 1_555
O3 S1 1_555 1_555
O4 S1 1_555 1_555
S1 C5 1_555 1_555
C6 C7 1_555 1_555
C12 C13 1_555 1_555
C14 O1 1_555 1_555
C15 O2 1_555 1_555
C27 C28 1_555 1_555
C33 C34 1_555 1_555
N1 S1 1_555 1_555

#END
