
#######################################################################
#
#                 Cambridge Crystallographic Data Centre
#                                CCDC 
#
#######################################################################
#
# If this CIF has been generated from an entry in the Cambridge 
# Structural Database, then it will include bibliographic, chemical, 
# crystal, experimental, refinement or atomic coordinate data resulting 
# from the CCDC's data processing and validation procedures.
#
#######################################################################

data_GAJWEW
_chemical_formula_moiety         'C37 H29 N1 O5 S1'
_chemical_name_systematic        
2',3',8'-trimethoxy-5'-((4-methylphenyl)sulfonyl)-5'H-spiro[fluorene-9,6'-indeno[2,1-b]indole]
_symmetry_cell_setting           triclinic
_symmetry_space_group_name_H-M   'P -1'
_symmetry_Int_Tables_number      2
_space_group_name_Hall           '-P 1'
loop_
_symmetry_equiv_pos_site_id
_symmetry_equiv_pos_as_xyz
1 x,y,z
2 -x,-y,-z
_cell_length_a                   10.4254(8)
_cell_length_b                   10.7238(8)
_cell_length_c                   15.1044(11)
_cell_angle_alpha                76.0550(10)
_cell_angle_beta                 80.8570(10)
_cell_angle_gamma                63.8680(10)
_cell_volume                     1468.68
_exptl_crystal_colour            colorless
_exptl_crystal_description       block
_cell_formula_units_Z            2
loop_
_atom_site_label
_atom_site_type_symbol
_atom_site_fract_x
_atom_site_fract_y
_atom_site_fract_z
C1 C 1.0942(2) 0.7176(2) 0.39240(14)
C2 C 1.1934(3) 0.7737(3) 0.38175(17)
H1 H 1.2474 0.7789 0.3268
C3 C 1.2114(3) 0.8219(3) 0.45364(18)
H2 H 1.2788 0.8589 0.4467
C4 C 1.1319(3) 0.8164(3) 0.53560(16)
C5 C 1.0377(3) 0.7561(3) 0.54497(17)
H3 H 0.9855 0.7486 0.6004
C6 C 1.0179(2) 0.7064(3) 0.47482(15)
H4 H 0.9535 0.6655 0.4830
C7 C 1.1513(4) 0.8742(3) 0.61267(19)
H5 H 1.1026 0.8461 0.6678
H6 H 1.1121 0.9757 0.5969
H7 H 1.2514 0.8374 0.6219
C8 C 1.0042(2) 0.9082(2) 0.17552(13)
C9 C 1.1407(2) 0.8909(2) 0.13870(14)
H8 H 1.2204 0.8066 0.1552
C10 C 1.1538(2) 1.0033(2) 0.07676(14)
C11 C 1.0325(2) 1.1315(2) 0.05207(14)
C12 C 0.8987(2) 1.1480(2) 0.08998(14)
H9 H 0.8192 1.2327 0.0740
C13 C 0.8839(2) 1.0356(2) 0.15278(13)
C14 C 0.7629(2) 1.0134(2) 0.20001(13)
C15 C 0.6076(2) 1.0804(2) 0.20301(13)
C16 C 0.5090(2) 1.2152(2) 0.16899(15)
H10 H 0.5396 1.2839 0.1371
C17 C 0.3639(2) 1.2473(2) 0.18269(15)
H11 H 0.2973 1.3382 0.1605
C18 C 0.3175(2) 1.1453(2) 0.22904(14)
C19 C 0.4164(2) 1.0095(2) 0.26450(14)
H12 H 0.3855 0.9408 0.2963
C20 C 0.5596(2) 0.9784(2) 0.25199(13)
C21 C 0.6869(2) 0.8365(2) 0.28624(13)
C22 C 0.6669(2) 0.7885(2) 0.38908(14)
C23 C 0.6566(2) 0.8555(3) 0.45835(15)
H13 H 0.6646 0.9411 0.4459
C24 C 0.6338(3) 0.7918(3) 0.54818(17)
H14 H 0.6269 0.8356 0.5960
C25 C 0.6215(3) 0.6664(3) 0.56682(18)
H15 H 0.6084 0.6250 0.6271
C26 C 0.6283(3) 0.6008(3) 0.49759(17)
H16 H 0.6186 0.5159 0.5106
C27 C 0.6499(2) 0.6630(2) 0.40743(15)
C28 C 0.6601(2) 0.6189(2) 0.32126(15)
C29 C 0.6471(3) 0.5053(3) 0.3031(2)
H17 H 0.6274 0.4412 0.3503
C30 C 0.6636(3) 0.4884(3) 0.2140(2)
H18 H 0.6553 0.4120 0.2009
C31 C 0.6926(3) 0.5836(3) 0.1436(2)
H19 H 0.7039 0.5701 0.0838
C32 C 0.7051(2) 0.6993(3) 0.16071(16)
H20 H 0.7251 0.7632 0.1135
C33 C 0.68683(19) 0.7159(2) 0.24979(14)
C34 C 1.4040(2) 0.8763(3) 0.05512(19)
H21 H 1.4192 0.8599 0.1187
H22 H 1.4846 0.8862 0.0189
H23 H 1.3933 0.7977 0.0428
C35 C 0.9458(3) 1.3599(2) -0.04318(17)
H24 H 0.8781 1.3399 -0.0668
H25 H 0.9797 1.4175 -0.0908
H26 H 0.9004 1.4094 0.0063
C36 C 0.0739(2) 1.3007(3) 0.20504(18)
H27 H 0.0736 1.3729 0.2324
H28 H -0.0189 1.2998 0.2152
H29 H 0.0969 1.3201 0.1405
C37 C 0.8080(2) 0.8795(2) 0.24854(13)
N1 N 0.95763(17) 0.80801(17) 0.23411(11)
O1 O 1.27913(16) 1.00105(18) 0.03303(11)
O2 O 1.06242(16) 1.23167(16) -0.01125(11)
O3 O 0.17754(14) 1.16718(16) 0.24477(11)
O4 O 0.98238(16) 0.58126(15) 0.33426(10)
O5 O 1.19522(15) 0.60546(16) 0.24847(10)
S1 S 1.06405(5) 0.66118(5) 0.30139(4)
loop_
_geom_bond_atom_site_label_1
_geom_bond_atom_site_label_2
_geom_bond_site_symmetry_1
_geom_bond_site_symmetry_2
C1 C2 1_555 1_555
C2 H1 1_555 1_555
C3 C2 1_555 1_555
H2 C3 1_555 1_555
C4 C3 1_555 1_555
C5 C4 1_555 1_555
H3 C5 1_555 1_555
C6 C1 1_555 1_555
H4 C6 1_555 1_555
C7 C4 1_555 1_555
H5 C7 1_555 1_555
H6 C7 1_555 1_555
H7 C7 1_555 1_555
C8 C9 1_555 1_555
C9 H8 1_555 1_555
C10 C9 1_555 1_555
C11 C10 1_555 1_555
C12 C11 1_555 1_555
H9 C12 1_555 1_555
C13 C8 1_555 1_555
C14 C13 1_555 1_555
C15 C14 1_555 1_555
C16 C15 1_555 1_555
H10 C16 1_555 1_555
C17 C16 1_555 1_555
H11 C17 1_555 1_555
C18 C17 1_555 1_555
C19 C18 1_555 1_555
H12 C19 1_555 1_555
C20 C15 1_555 1_555
C21 C20 1_555 1_555
C22 C21 1_555 1_555
C23 C22 1_555 1_555
H13 C23 1_555 1_555
C24 C23 1_555 1_555
H14 C24 1_555 1_555
C25 C24 1_555 1_555
H15 C25 1_555 1_555
C26 C25 1_555 1_555
H16 C26 1_555 1_555
C27 C22 1_555 1_555
C28 C27 1_555 1_555
C29 C28 1_555 1_555
H17 C29 1_555 1_555
C30 C29 1_555 1_555
H18 C30 1_555 1_555
C31 C30 1_555 1_555
H19 C31 1_555 1_555
C32 C31 1_555 1_555
H20 C32 1_555 1_555
C33 C21 1_555 1_555
C34 H21 1_555 1_555
H22 C34 1_555 1_555
H23 C34 1_555 1_555
C35 H24 1_555 1_555
H25 C35 1_555 1_555
H26 C35 1_555 1_555
C36 H27 1_555 1_555
H28 C36 1_555 1_555
H29 C36 1_555 1_555
C37 C14 1_555 1_555
N1 C8 1_555 1_555
O1 C10 1_555 1_555
O2 C11 1_555 1_555
O3 C18 1_555 1_555
O4 S1 1_555 1_555
O5 S1 1_555 1_555
S1 C1 1_555 1_555
C5 C6 1_555 1_555
C12 C13 1_555 1_555
C19 C20 1_555 1_555
C21 C37 1_555 1_555
C26 C27 1_555 1_555
C28 C33 1_555 1_555
C32 C33 1_555 1_555
C34 O1 1_555 1_555
C35 O2 1_555 1_555
C36 O3 1_555 1_555
C37 N1 1_555 1_555
N1 S1 1_555 1_555

#END
