
#######################################################################
#
#                 Cambridge Crystallographic Data Centre
#                                CCDC 
#
#######################################################################
#
# If this CIF has been generated from an entry in the Cambridge 
# Structural Database, then it will include bibliographic, chemical, 
# crystal, experimental, refinement or atomic coordinate data resulting 
# from the CCDC's data processing and validation procedures.
#
#######################################################################

data_GAJWIA
_chemical_formula_moiety         'C55 H48 F2 N4 O18,2(C1 H2 Cl2)'
_chemical_name_systematic        
'4,34-bis(5-fluoro-2,4-dinitrophenoxy)-9,14,19,24,26,28,30,32-octamethoxyhexacyclo[21.2.2.2^3,6^.2^8,11^.2^13,16^.2^18,21^]pentatriaconta-1(25),3,5,8,10,13,15,18,20,23,26,28,30,32,34-pentadecaene dichloromethane solvate'
_symmetry_cell_setting           monoclinic
_symmetry_space_group_name_H-M   'P 21/c'
_symmetry_Int_Tables_number      14
_space_group_name_Hall           '-P 2ybc'
loop_
_symmetry_equiv_pos_site_id
_symmetry_equiv_pos_as_xyz
1 x,y,z
2 -x,1/2+y,1/2-z
3 -x,-y,-z
4 x,1/2-y,1/2+z
_cell_length_a                   10.9412(5)
_cell_length_b                   15.9438(6)
_cell_length_c                   37.9153(15)
_cell_angle_alpha                90
_cell_angle_beta                 102.511(4)
_cell_angle_gamma                90
_cell_volume                     6457.05
_exptl_crystal_colour            yellow
_exptl_crystal_description       plate
_cell_formula_units_Z            4
loop_
_atom_site_label
_atom_site_type_symbol
_atom_site_fract_x
_atom_site_fract_y
_atom_site_fract_z
F1 F 0.5014(2) 0.85431(14) 0.06742(7)
F2 F 0.99797(18) 0.88321(12) 0.12132(6)
O1 O 1.03779(18) 0.58856(13) 0.13583(6)
O2 O 0.52998(18) 0.55969(13) 0.07857(6)
O3 O 1.1532(2) 0.38959(16) 0.24965(6)
O4 O 0.6824(2) 0.53160(16) 0.21096(6)
O5 O 1.1116(2) 0.10507(16) 0.19245(6)
O6 O 0.7308(2) 0.22423(18) 0.25402(7)
O7 O 0.9496(2) 0.12471(17) 0.05445(7)
O8 O 0.6245(2) 0.04356(16) 0.14252(6)
O9 O 0.9027(2) 0.42951(14) 0.02061(7)
O10 O 0.4902(2) 0.24475(15) 0.03695(7)
O11 O 1.2631(2) 0.5465(2) 0.17552(10)
O12 O 1.4010(2) 0.60876(18) 0.15254(8)
O13 O 1.3593(3) 0.90981(18) 0.17578(9)
O14 O 1.2030(3) 0.97044(18) 0.14210(9)
O15 O 0.3126(2) 0.48593(16) 0.05450(7)
O16 O 0.1678(2) 0.5471(2) 0.07561(9)
O17 O 0.1236(3) 0.8408(2) 0.05008(8)
O18 O 0.2836(3) 0.9172(2) 0.07137(10)
N1 N 1.2977(2) 0.60529(18) 0.16104(7)
N2 N 1.2567(3) 0.90817(19) 0.15593(8)
N3 N 0.2676(2) 0.5468(2) 0.06576(7)
N4 N 0.2366(3) 0.8508(2) 0.06171(8)
C1 C 0.9074(2) 0.58051(18) 0.12163(8)
C2 C 0.8691(3) 0.55881(18) 0.08590(8)
H1 H 0.9294 0.5497 0.0716
C3 C 0.7417(3) 0.55009(17) 0.07047(7)
C4 C 0.6604(3) 0.56662(18) 0.09316(8)
C5 C 0.6989(3) 0.58547(18) 0.12912(8)
H2 H 0.6386 0.5939 0.1434
C6 C 0.8265(3) 0.59233(18) 0.14490(8)
C7 C 0.8721(3) 0.61035(19) 0.18464(8)
H3 H 0.8095 0.6459 0.1929
H4 H 0.9511 0.6427 0.1881
C8 C 0.8948(3) 0.53201(18) 0.20802(7)
C9 C 0.7988(3) 0.4940(2) 0.22082(8)
C10 C 0.8215(3) 0.4233(2) 0.24241(8)
H5 H 0.7548 0.3985 0.2511
C11 C 0.9408(3) 0.3877(2) 0.25157(8)
C12 C 1.0361(3) 0.4261(2) 0.23883(8)
C13 C 1.0139(3) 0.4971(2) 0.21717(8)
H6 H 1.0807 0.5220 0.2085
C14 C 1.2494(4) 0.4180(3) 0.23273(12)
H7 H 1.2219 0.4122 0.2065
H8 H 1.3251 0.3844 0.2412
H9 H 1.2677 0.4771 0.2388
C15 C 0.5813(3) 0.4923(3) 0.22317(13)
H10 H 0.5033 0.5227 0.2135
H11 H 0.5984 0.4934 0.2496
H12 H 0.5729 0.4341 0.2148
C16 C 0.9610(3) 0.3068(2) 0.27295(8)
H13 H 1.0473 0.3055 0.2879
H14 H 0.9020 0.3041 0.2894
C17 C 0.9409(3) 0.2321(2) 0.24799(8)
C18 C 0.8241(3) 0.1930(2) 0.23813(8)
C19 C 0.8068(3) 0.1263(2) 0.21415(8)
H15 H 0.7272 0.0998 0.2080
C20 C 0.9034(3) 0.0972(2) 0.19883(8)
C21 C 1.0190(3) 0.1360(2) 0.20847(8)
C22 C 1.0373(3) 0.2020(2) 0.23274(8)
H16 H 1.1175 0.2275 0.2392
C23 C 1.2323(4) 0.1397(3) 0.20349(12)
H17 H 1.2899 0.1111 0.1910
H18 H 1.2615 0.1325 0.2296
H19 H 1.2296 0.1996 0.1975
C24 C 0.6079(4) 0.1956(4) 0.24036(15)
H20 H 0.5867 0.2027 0.2141
H21 H 0.5493 0.2280 0.2512
H22 H 0.6021 0.1361 0.2463
C25 C 0.8809(4) 0.0243(2) 0.17226(8)
H23 H 0.9604 -0.0063 0.1736
H24 H 0.8202 -0.0150 0.1792
C26 C 0.8312(3) 0.05340(19) 0.13387(8)
C27 C 0.7034(3) 0.0643(2) 0.11980(8)
C28 C 0.6607(3) 0.0952(2) 0.08517(8)
H25 H 0.5733 0.1018 0.0760
C29 C 0.7437(3) 0.11673(18) 0.06365(8)
C30 C 0.8711(3) 0.1043(2) 0.07719(8)
C31 C 0.9135(3) 0.07293(19) 0.11188(8)
H26 H 1.0008 0.0646 0.1207
C32 C 1.0773(5) 0.1008(4) 0.06484(15)
H27 H 1.1212 0.1178 0.0460
H28 H 1.0830 0.0399 0.0680
H29 H 1.1157 0.1284 0.0876
C33 C 0.4954(4) 0.0599(3) 0.12979(13)
H30 H 0.4637 0.0267 0.1079
H31 H 0.4831 0.1197 0.1241
H32 H 0.4499 0.0445 0.1484
C34 C 0.6964(3) 0.1538(2) 0.02635(8)
H33 H 0.6104 0.1333 0.0164
H34 H 0.7506 0.1348 0.0101
C35 C 0.6957(3) 0.24920(19) 0.02753(7)
C36 C 0.5901(3) 0.2931(2) 0.03307(8)
C37 C 0.5917(3) 0.38037(19) 0.03397(8)
H35 H 0.5197 0.4096 0.0375
C38 C 0.6963(3) 0.42573(19) 0.02985(7)
C39 C 0.8016(3) 0.38136(19) 0.02484(7)
C40 C 0.7999(3) 0.2949(2) 0.02372(8)
H36 H 0.8721 0.2658 0.0202
C41 C 1.0138(3) 0.3867(3) 0.01769(11)
H37 H 0.9970 0.3514 -0.0040
H38 H 1.0422 0.3515 0.0391
H39 H 1.0790 0.4277 0.0159
C42 C 0.3822(4) 0.2866(3) 0.04301(13)
H40 H 0.3470 0.3219 0.0221
H41 H 0.4051 0.3217 0.0646
H42 H 0.3197 0.2451 0.0465
C43 C 0.6972(3) 0.52042(19) 0.03196(7)
H43 H 0.7530 0.5431 0.0169
H44 H 0.6117 0.5420 0.0222
C44 C 1.0853(3) 0.66747(19) 0.13819(8)
C45 C 1.0157(3) 0.7391(2) 0.12728(8)
H45 H 0.9288 0.7349 0.1168
C46 C 1.0726(3) 0.8157(2) 0.13168(8)
C47 C 1.1965(3) 0.8269(2) 0.14726(8)
C48 C 1.2695(3) 0.7556(2) 0.15637(8)
H46 H 1.3569 0.7610 0.1659
C49 C 1.2159(3) 0.6777(2) 0.15160(8)
C50 C 0.4633(3) 0.6315(2) 0.07286(7)
C51 C 0.5180(3) 0.7100(2) 0.07274(9)
H47 H 0.6062 0.7146 0.0756
C52 C 0.4453(3) 0.7811(2) 0.06858(9)
C53 C 0.3156(3) 0.7763(2) 0.06486(8)
C54 C 0.2609(3) 0.6989(2) 0.06379(8)
H48 H 0.1726 0.6948 0.0606
C55 C 0.3319(3) 0.6273(2) 0.06725(8)
Cl1 Cl 0.80480(12) 0.79114(7) 0.04465(3)
Cl2 Cl 0.69561(16) 0.93561(8) 0.00302(4)
C56 C 0.7927(5) 0.9014(3) 0.04294(13)
H49 H 0.7591 0.9214 0.0637
H50 H 0.8770 0.9259 0.0451
Cl3 Cl 0.73277(11) 0.82655(7) 0.14052(3)
Cl4 Cl 0.60934(9) 0.75820(6) 0.19508(3)
C57 C 0.6466(4) 0.8485(3) 0.17307(13)
H51 H 0.5681 0.8773 0.1614
H52 H 0.6952 0.8872 0.1912
loop_
_geom_bond_atom_site_label_1
_geom_bond_atom_site_label_2
_geom_bond_site_symmetry_1
_geom_bond_site_symmetry_2
F1 C52 1_555 1_555
F2 C46 1_555 1_555
O1 C1 1_555 1_555
O2 C4 1_555 1_555
O3 C12 1_555 1_555
O4 C9 1_555 1_555
O5 C21 1_555 1_555
O6 C18 1_555 1_555
O7 C30 1_555 1_555
O8 C27 1_555 1_555
O9 C39 1_555 1_555
O10 C36 1_555 1_555
O11 N1 1_555 1_555
O12 N1 1_555 1_555
O13 N2 1_555 1_555
O14 N2 1_555 1_555
O15 N3 1_555 1_555
O16 N3 1_555 1_555
O17 N4 1_555 1_555
O18 N4 1_555 1_555
N1 C49 1_555 1_555
N2 C47 1_555 1_555
N3 C55 1_555 1_555
N4 C53 1_555 1_555
C1 C2 1_555 1_555
C2 H1 1_555 1_555
C3 C2 1_555 1_555
C4 C3 1_555 1_555
C5 C4 1_555 1_555
H2 C5 1_555 1_555
C6 C1 1_555 1_555
C7 C6 1_555 1_555
H3 C7 1_555 1_555
H4 C7 1_555 1_555
C8 C7 1_555 1_555
C9 C8 1_555 1_555
C10 C9 1_555 1_555
H5 C10 1_555 1_555
C11 C10 1_555 1_555
C12 C11 1_555 1_555
C13 C8 1_555 1_555
H6 C13 1_555 1_555
C14 O3 1_555 1_555
H7 C14 1_555 1_555
H8 C14 1_555 1_555
H9 C14 1_555 1_555
C15 O4 1_555 1_555
H10 C15 1_555 1_555
H11 C15 1_555 1_555
H12 C15 1_555 1_555
C16 C11 1_555 1_555
H13 C16 1_555 1_555
H14 C16 1_555 1_555
C17 C16 1_555 1_555
C18 C17 1_555 1_555
C19 C18 1_555 1_555
H15 C19 1_555 1_555
C20 C19 1_555 1_555
C21 C20 1_555 1_555
C22 C17 1_555 1_555
H16 C22 1_555 1_555
C23 O5 1_555 1_555
H17 C23 1_555 1_555
H18 C23 1_555 1_555
H19 C23 1_555 1_555
C24 O6 1_555 1_555
H20 C24 1_555 1_555
H21 C24 1_555 1_555
H22 C24 1_555 1_555
C25 C20 1_555 1_555
H23 C25 1_555 1_555
H24 C25 1_555 1_555
C26 C25 1_555 1_555
C27 C26 1_555 1_555
C28 C27 1_555 1_555
H25 C28 1_555 1_555
C29 C28 1_555 1_555
C30 C29 1_555 1_555
C31 C26 1_555 1_555
H26 C31 1_555 1_555
C32 O7 1_555 1_555
H27 C32 1_555 1_555
H28 C32 1_555 1_555
H29 C32 1_555 1_555
C33 O8 1_555 1_555
H30 C33 1_555 1_555
H31 C33 1_555 1_555
H32 C33 1_555 1_555
C34 C29 1_555 1_555
H33 C34 1_555 1_555
H34 C34 1_555 1_555
C35 C34 1_555 1_555
C36 C35 1_555 1_555
C37 C36 1_555 1_555
H35 C37 1_555 1_555
C38 C37 1_555 1_555
C39 C38 1_555 1_555
C40 C35 1_555 1_555
H36 C40 1_555 1_555
C41 O9 1_555 1_555
H37 C41 1_555 1_555
H38 C41 1_555 1_555
H39 C41 1_555 1_555
C42 O10 1_555 1_555
H40 C42 1_555 1_555
H41 C42 1_555 1_555
H42 C42 1_555 1_555
C43 C3 1_555 1_555
H43 C43 1_555 1_555
H44 C43 1_555 1_555
C44 O1 1_555 1_555
C45 C44 1_555 1_555
H45 C45 1_555 1_555
C46 C45 1_555 1_555
C47 C46 1_555 1_555
C48 C47 1_555 1_555
H46 C48 1_555 1_555
C49 C44 1_555 1_555
C50 O2 1_555 1_555
C51 C50 1_555 1_555
H47 C51 1_555 1_555
C52 C51 1_555 1_555
C53 C52 1_555 1_555
C54 C53 1_555 1_555
H48 C54 1_555 1_555
C55 C50 1_555 1_555
Cl1 C56 1_555 1_555
Cl2 C56 1_555 1_555
C56 H49 1_555 1_555
H50 C56 1_555 1_555
Cl3 C57 1_555 1_555
Cl4 C57 1_555 1_555
C57 H51 1_555 1_555
H52 C57 1_555 1_555
C5 C6 1_555 1_555
C12 C13 1_555 1_555
C21 C22 1_555 1_555
C30 C31 1_555 1_555
C38 C43 1_555 1_555
C39 C40 1_555 1_555
C48 C49 1_555 1_555
C54 C55 1_555 1_555

#END
