
#######################################################################
#
#                 Cambridge Crystallographic Data Centre
#                                CCDC 
#
#######################################################################
#
# If this CIF has been generated from an entry in the Cambridge 
# Structural Database, then it will include bibliographic, chemical, 
# crystal, experimental, refinement or atomic coordinate data resulting 
# from the CCDC's data processing and validation procedures.
#
#######################################################################

data_GAKMEN
_chemical_formula_moiety         'C22 H25 N1 O3'
_chemical_name_systematic        
9-Benzyl-8-(methoxyimino)-3,5a-dimethyl-3a,4,5,5a,8,9b-hexahydronaphtho[1,2-b]furan-2(3H)-one
_symmetry_cell_setting           monoclinic
_symmetry_space_group_name_H-M   'P 21'
_symmetry_Int_Tables_number      4
_space_group_name_Hall           'P 2yb'
loop_
_symmetry_equiv_pos_site_id
_symmetry_equiv_pos_as_xyz
1 x,y,z
2 -x,1/2+y,-z
_cell_length_a                   8.1343(14)
_cell_length_b                   27.626(5)
_cell_length_c                   8.8172(15)
_cell_angle_alpha                90
_cell_angle_beta                 97.223(3)
_cell_angle_gamma                90
_cell_volume                     1965.66
_exptl_crystal_colour            colorless
_exptl_crystal_description       block
_cell_formula_units_Z            4
loop_
_atom_site_label
_atom_site_type_symbol
_atom_site_fract_x
_atom_site_fract_y
_atom_site_fract_z
C1 C 0.6270(6) 0.22335(16) 0.7270(5)
H1 H 0.7381 0.2298 0.7731
H2 H 0.6038 0.1894 0.7345
H3 H 0.5505 0.2415 0.7790
C2 C 0.6231(4) 0.30260(11) 0.4216(4)
C3 C 0.5509(5) 0.27383(13) 0.2939(4)
H4 H 0.5210 0.2419 0.3097
C4 C 0.5268(5) 0.29229(13) 0.1545(5)
H5 H 0.4790 0.2722 0.0766
C5 C 0.5700(4) 0.34310(12) 0.1110(4)
C6 C 0.6424(3) 0.37156(10) 0.2536(3)
C7 C 0.6680(3) 0.35346(10) 0.3960(3)
C8 C 0.7491(3) 0.38123(11) 0.5333(3)
H6 H 0.7193 0.3660 0.6251
H7 H 0.7044 0.4138 0.5294
C9 C 0.9368(3) 0.38438(10) 0.5459(3)
C10 C 1.0296(4) 0.35109(12) 0.4761(4)
H8 H 0.9763 0.3264 0.4176
C11 C 1.2023(5) 0.35408(18) 0.4922(5)
H9 H 1.2635 0.3317 0.4441
C12 C 1.2806(5) 0.39022(19) 0.5795(5)
H10 H 1.3957 0.3919 0.5923
C13 C 1.1907(5) 0.42401(17) 0.6483(5)
H11 H 1.2446 0.4486 0.7072
C14 C 1.0193(4) 0.42126(12) 0.6295(4)
H12 H 0.9586 0.4447 0.6740
C15 C 0.7000(4) 0.42004(10) 0.2011(3)
H13 H 0.6074 0.4347 0.1349
C16 C 0.8400(4) 0.41313(10) 0.1071(3)
H14 H 0.9240 0.3926 0.1648
C17 C 0.7770(6) 0.38743(12) -0.0420(4)
H15 H 0.6958 0.4075 -0.1028
H16 H 0.8681 0.3814 -0.1006
C18 C 0.6981(5) 0.33964(12) -0.0028(4)
H17 H 0.7856 0.3178 0.0391
H18 H 0.6447 0.3253 -0.0968
C19 C 0.9084(5) 0.46461(12) 0.1053(4)
H19 H 0.8384 0.4830 0.0271
C20 C 1.0843(6) 0.47093(19) 0.0783(7)
H20 H 1.1133 0.5046 0.0866
H21 H 1.0978 0.4595 -0.0223
H22 H 1.1550 0.4528 0.1530
C21 C 0.8756(4) 0.48277(11) 0.2602(4)
C22 C 0.4067(5) 0.36722(17) 0.0349(6)
H23 H 0.3492 0.3452 -0.0376
H24 H 0.4329 0.3963 -0.0165
H25 H 0.3376 0.3750 0.1122
N1 N 0.6526(3) 0.28670(9) 0.5604(3)
O1 O 0.6099(4) 0.23724(9) 0.5696(3)
O2 O 0.7593(3) 0.45536(7) 0.3159(2)
O3 O 0.9391(4) 0.51615(9) 0.3310(4)
C23 C 0.9180(5) 0.78222(14) 1.1977(4)
H26 H 0.8086 0.7740 1.2190
H27 H 0.9333 0.8166 1.2063
H28 H 0.9984 0.7662 1.2695
C24 C 0.9131(4) 0.70188(11) 0.8962(4)
C25 C 0.9633(5) 0.73105(12) 0.7736(4)
H29 H 0.9935 0.7632 0.7926
C26 C 0.9673(5) 0.71297(13) 0.6348(4)
H30 H 1.0024 0.7333 0.5612
C27 C 0.9201(4) 0.66284(12) 0.5879(4)
C28 C 0.8736(4) 0.63298(10) 0.7217(4)
C29 C 0.8696(3) 0.65074(10) 0.8641(3)
C30 C 0.8154(3) 0.62162(11) 0.9950(3)
H31 H 0.8629 0.5894 0.9933
H32 H 0.8601 0.6368 1.0906
C31 C 0.6301(4) 0.61696(11) 0.9912(3)
C32 C 0.5626(5) 0.57521(13) 1.0380(5)
H33 H 0.6318 0.5496 1.0718
C33 C 0.3939(6) 0.5702(2) 1.0361(7)
H34 H 0.3503 0.5414 1.0677
C34 C 0.2909(5) 0.6075(2) 0.9881(7)
H35 H 0.1771 0.6043 0.9882
C35 C 0.3539(5) 0.64881(19) 0.9405(6)
H36 H 0.2833 0.6741 0.9063
C36 C 0.5244(4) 0.65421(13) 0.9419(4)
H37 H 0.5670 0.6831 0.9093
C37 C 0.7693(5) 0.66642(12) 0.4622(4)
H38 H 0.6865 0.6870 0.4992
H39 H 0.8048 0.6820 0.3732
C38 C 0.6887(5) 0.61806(12) 0.4127(4)
H40 H 0.5863 0.6235 0.3457
H41 H 0.7624 0.5992 0.3576
C39 C 0.6537(4) 0.59132(10) 0.5538(4)
H42 H 0.5783 0.6112 0.6060
C40 C 0.8120(4) 0.58450(10) 0.6615(4)
H43 H 0.8954 0.5710 0.6024
C41 C 0.5854(5) 0.54006(12) 0.5420(4)
H44 H 0.6410 0.5222 0.4670
C42 C 0.6445(5) 0.52065(11) 0.6986(4)
C43 C 0.3985(6) 0.53498(18) 0.4999(6)
H45 H 0.3682 0.5015 0.5034
H46 H 0.3672 0.5473 0.3986
H47 H 0.3425 0.5530 0.5712
C44 C 1.0702(5) 0.64032(15) 0.5204(5)
H48 H 1.1038 0.6615 0.4436
H49 H 1.0390 0.6095 0.4754
H50 H 1.1606 0.6361 0.6004
N2 N 0.8986(3) 0.71717(9) 1.0318(3)
O4 O 0.9384(3) 0.76713(8) 1.0457(3)
O5 O 0.7725(3) 0.54788(7) 0.7684(2)
O6 O 0.5954(4) 0.48670(9) 0.7645(3)
loop_
_geom_bond_atom_site_label_1
_geom_bond_atom_site_label_2
_geom_bond_site_symmetry_1
_geom_bond_site_symmetry_2
C1 H1 1_555 1_555
H2 C1 1_555 1_555
H3 C1 1_555 1_555
C2 C3 1_555 1_555
C3 H4 1_555 1_555
C4 C3 1_555 1_555
H5 C4 1_555 1_555
C5 C4 1_555 1_555
C6 C5 1_555 1_555
C7 C2 1_555 1_555
C8 C7 1_555 1_555
H6 C8 1_555 1_555
H7 C8 1_555 1_555
C9 C8 1_555 1_555
C10 C9 1_555 1_555
H8 C10 1_555 1_555
C11 C10 1_555 1_555
H9 C11 1_555 1_555
C12 C11 1_555 1_555
H10 C12 1_555 1_555
C13 C12 1_555 1_555
H11 C13 1_555 1_555
C14 C9 1_555 1_555
H12 C14 1_555 1_555
C15 C6 1_555 1_555
H13 C15 1_555 1_555
C16 C15 1_555 1_555
H14 C16 1_555 1_555
C17 C16 1_555 1_555
H15 C17 1_555 1_555
H16 C17 1_555 1_555
C18 C5 1_555 1_555
H17 C18 1_555 1_555
H18 C18 1_555 1_555
C19 C16 1_555 1_555
H19 C19 1_555 1_555
C20 C19 1_555 1_555
H20 C20 1_555 1_555
H21 C20 1_555 1_555
H22 C20 1_555 1_555
C21 C19 1_555 1_555
C22 C5 1_555 1_555
H23 C22 1_555 1_555
H24 C22 1_555 1_555
H25 C22 1_555 1_555
N1 C2 1_555 1_555
O1 C1 1_555 1_555
O2 C15 1_555 1_555
O3 C21 1_555 1_555
C23 H26 1_555 1_555
H27 C23 1_555 1_555
H28 C23 1_555 1_555
C24 C25 1_555 1_555
C25 H29 1_555 1_555
C26 C25 1_555 1_555
H30 C26 1_555 1_555
C27 C26 1_555 1_555
C28 C27 1_555 1_555
C29 C24 1_555 1_555
C30 C29 1_555 1_555
H31 C30 1_555 1_555
H32 C30 1_555 1_555
C31 C30 1_555 1_555
C32 C31 1_555 1_555
H33 C32 1_555 1_555
C33 C32 1_555 1_555
H34 C33 1_555 1_555
C34 C33 1_555 1_555
H35 C34 1_555 1_555
C35 C34 1_555 1_555
H36 C35 1_555 1_555
C36 C31 1_555 1_555
H37 C36 1_555 1_555
C37 C27 1_555 1_555
H38 C37 1_555 1_555
H39 C37 1_555 1_555
C38 C37 1_555 1_555
H40 C38 1_555 1_555
H41 C38 1_555 1_555
C39 C38 1_555 1_555
H42 C39 1_555 1_555
C40 C28 1_555 1_555
H43 C40 1_555 1_555
C41 C39 1_555 1_555
H44 C41 1_555 1_555
C42 C41 1_555 1_555
C43 C41 1_555 1_555
H45 C43 1_555 1_555
H46 C43 1_555 1_555
H47 C43 1_555 1_555
C44 C27 1_555 1_555
H48 C44 1_555 1_555
H49 C44 1_555 1_555
H50 C44 1_555 1_555
N2 C24 1_555 1_555
O4 C23 1_555 1_555
O5 C40 1_555 1_555
O6 C42 1_555 1_555
C6 C7 1_555 1_555
C13 C14 1_555 1_555
C17 C18 1_555 1_555
C21 O2 1_555 1_555
N1 O1 1_555 1_555
C28 C29 1_555 1_555
C35 C36 1_555 1_555
C39 C40 1_555 1_555
C42 O5 1_555 1_555
N2 O4 1_555 1_555

#END
