
#######################################################################
#
#                 Cambridge Crystallographic Data Centre
#                                CCDC 
#
#######################################################################
#
# If this CIF has been generated from an entry in the Cambridge 
# Structural Database, then it will include bibliographic, chemical, 
# crystal, experimental, refinement or atomic coordinate data resulting 
# from the CCDC's data processing and validation procedures.
#
#######################################################################

data_GAKQOZ
_chemical_formula_moiety         'C13 H10 N4 O3'
_chemical_name_systematic        
'2-Nitrobenzaldehyde (pyridine-2-carbonyl)hydrazone'
_symmetry_cell_setting           monoclinic
_symmetry_space_group_name_H-M   'C 2/c'
_symmetry_Int_Tables_number      15
_space_group_name_Hall           '-C 2yn'
loop_
_symmetry_equiv_pos_site_id
_symmetry_equiv_pos_as_xyz
1 x,y,z
2 1/2+x,1/2+y,z
3 x,-y,1/2+z
4 1/2+x,1/2-y,1/2+z
5 -x,-y,-z
6 1/2-x,1/2-y,-z
7 -x,y,1/2-z
8 1/2-x,1/2+y,1/2-z
_cell_length_a                   12.191(3)
_cell_length_b                   9.398(3)
_cell_length_c                   21.624(6)
_cell_angle_alpha                90
_cell_angle_beta                 103.415(4)
_cell_angle_gamma                90
_cell_volume                     2409.89
_exptl_crystal_colour            yellow
_exptl_crystal_description       block
_cell_formula_units_Z            8
_exptl_crystal_recrystallization_method methanol
loop_
_atom_site_label
_atom_site_type_symbol
_atom_site_fract_x
_atom_site_fract_y
_atom_site_fract_z
O1 O 0.93152(11) 0.36164(16) 0.66863(6)
O2 O 0.83084(10) 0.32420(14) 0.57457(6)
O3 O 1.01588(9) -0.01070(15) 0.34731(6)
N1 N 0.92060(11) 0.35238(14) 0.61157(6)
N2 N 0.98282(10) 0.15256(13) 0.44585(6)
N3 N 0.90419(10) 0.06170(14) 0.41154(6)
N4 N 0.74431(10) -0.12126(14) 0.35758(6)
C1 C 1.03322(11) 0.31882(14) 0.52948(6)
C2 C 1.02018(11) 0.38007(15) 0.58607(6)
C3 C 1.10072(13) 0.46868(16) 0.62262(7)
H1 H 1.0897 0.5068 0.6604
C4 C 1.19692(13) 0.49964(18) 0.60255(8)
H2 H 1.2512 0.5596 0.6265
C5 C 1.21267(13) 0.44179(18) 0.54691(8)
H3 H 1.2779 0.4625 0.5334
C6 C 1.13259(12) 0.35343(16) 0.51108(7)
H4 H 1.1449 0.3156 0.4735
C7 C 0.95429(12) 0.21782(16) 0.49070(7)
H5 H 0.8839 0.2020 0.4991
C8 C 0.92673(11) -0.01454(15) 0.36308(7)
C9 C 0.83031(11) -0.10468(14) 0.32920(6)
C10 C 0.83383(13) -0.16666(16) 0.27209(7)
H6 H 0.8948 -0.1516 0.2538
C11 C 0.74506(13) -0.25142(18) 0.24258(7)
H7 H 0.7447 -0.2942 0.2038
C12 C 0.65747(13) -0.27182(19) 0.27120(8)
H8 H 0.5970 -0.3298 0.2525
C13 C 0.66041(13) -0.20481(19) 0.32821(8)
H9 H 0.6002 -0.2188 0.3472
H10 H 0.8359(10) 0.054(2) 0.4192(9)
loop_
_geom_bond_atom_site_label_1
_geom_bond_atom_site_label_2
_geom_bond_site_symmetry_1
_geom_bond_site_symmetry_2
O1 N1 1_555 1_555
O2 N1 1_555 1_555
O3 C8 1_555 1_555
N1 C2 1_555 1_555
N2 N3 1_555 1_555
N3 C8 1_555 1_555
N4 C9 1_555 1_555
C1 C2 1_555 1_555
C2 C3 1_555 1_555
C3 H1 1_555 1_555
C4 C3 1_555 1_555
H2 C4 1_555 1_555
C5 C4 1_555 1_555
H3 C5 1_555 1_555
C6 C1 1_555 1_555
H4 C6 1_555 1_555
C7 N2 1_555 1_555
H5 C7 1_555 1_555
C8 C9 1_555 1_555
C9 C10 1_555 1_555
C10 H6 1_555 1_555
C11 C10 1_555 1_555
H7 C11 1_555 1_555
C12 C11 1_555 1_555
H8 C12 1_555 1_555
C13 N4 1_555 1_555
H9 C13 1_555 1_555
H10 N3 1_555 1_555
C1 C7 1_555 1_555
C5 C6 1_555 1_555
C12 C13 1_555 1_555

#END
