
#######################################################################
#
#                 Cambridge Crystallographic Data Centre
#                                CCDC 
#
#######################################################################
#
# If this CIF has been generated from an entry in the Cambridge 
# Structural Database, then it will include bibliographic, chemical, 
# crystal, experimental, refinement or atomic coordinate data resulting 
# from the CCDC's data processing and validation procedures.
#
#######################################################################

data_GAKRAM
_chemical_name_common            
'2-Nitrobenzaldehyde (2-hydroxybenzoyl)hydrazone'
_chemical_formula_moiety         'C14 H11 N3 O4'
_chemical_name_systematic        '2-Nitrobenzaldehyde salicylhydrazone'
_symmetry_cell_setting           monoclinic
_symmetry_space_group_name_H-M   'P 21/n'
_symmetry_Int_Tables_number      14
_space_group_name_Hall           '-P 2yn'
loop_
_symmetry_equiv_pos_site_id
_symmetry_equiv_pos_as_xyz
1 x,y,z
2 1/2+x,1/2-y,1/2+z
3 -x,-y,-z
4 1/2-x,1/2+y,1/2-z
_cell_length_a                   7.070(3)
_cell_length_b                   25.214(9)
_cell_length_c                   7.870(3)
_cell_angle_alpha                90
_cell_angle_beta                 113.541(5)
_cell_angle_gamma                90
_cell_volume                     1286.17
_exptl_crystal_colour            yellow
_exptl_crystal_description       block
_cell_formula_units_Z            4
_exptl_crystal_recrystallization_method methanol
loop_
_atom_site_label
_atom_site_type_symbol
_atom_site_fract_x
_atom_site_fract_y
_atom_site_fract_z
O1 O 0.7348(2) 0.09416(5) 0.9938(2)
O2 O 0.6179(2) 0.18827(5) 0.82562(16)
O3 O 0.9208(8) 0.4332(3) 1.0750(8)
O5 O 0.7141(3) 0.49442(7) 0.9163(3)
N1 N 0.8073(2) 0.25586(6) 1.00027(19)
N2 N 0.7612(2) 0.28780(5) 0.84702(18)
N3 N 0.8011(3) 0.45286(7) 0.9248(3)
C1 C 0.7648(3) 0.17759(6) 1.1525(2)
C2 C 0.7912(3) 0.20303(7) 1.3173(2)
H1 H 0.7868 0.2399 1.3202
C3 C 0.8236(3) 0.17479(9) 1.4758(3)
H2 H 0.8415 0.1922 1.5853
C4 C 0.8290(3) 0.12022(9) 1.4700(3)
H3 H 0.8515 0.1008 1.5769
C5 C 0.8020(3) 0.09414(8) 1.3099(3)
H4 H 0.8075 0.0573 1.3090
C6 C 0.7665(3) 0.12212(7) 1.1495(3)
C7 C 0.7242(3) 0.20703(6) 0.9801(2)
C8 C 0.8197(3) 0.33522(7) 0.8844(2)
H5 H 0.8832 0.3462 1.0071
C9 C 0.7872(3) 0.37298(6) 0.7338(2)
C10 C 0.7823(3) 0.42797(7) 0.7500(2)
C11 C 0.7540(3) 0.46129(8) 0.6038(3)
H6 H 0.7484 0.4978 0.6182
C12 C 0.7342(4) 0.44064(9) 0.4373(3)
H7 H 0.7197 0.4631 0.3390
C13 C 0.7358(3) 0.38691(8) 0.4153(3)
H8 H 0.7200 0.3728 0.3012
C14 C 0.7605(3) 0.35360(7) 0.5604(2)
H9 H 0.7594 0.3171 0.5423
H10 H 0.898(4) 0.2670(9) 1.110(3)
H11 H 0.686(4) 0.1199(9) 0.904(3)
O4? O 0.827(3) 0.4275(9) 1.047(2)
loop_
_geom_bond_atom_site_label_1
_geom_bond_atom_site_label_2
_geom_bond_site_symmetry_1
_geom_bond_site_symmetry_2
O1 C6 1_555 1_555
O2 C7 1_555 1_555
O3 N3 1_555 1_555
O5 N3 1_555 1_555
N1 N2 1_555 1_555
N2 C8 1_555 1_555
N3 C10 1_555 1_555
C1 C2 1_555 1_555
C2 H1 1_555 1_555
C3 C2 1_555 1_555
H2 C3 1_555 1_555
C4 C3 1_555 1_555
H3 C4 1_555 1_555
C5 C4 1_555 1_555
H4 C5 1_555 1_555
C6 C1 1_555 1_555
C7 N1 1_555 1_555
C8 H5 1_555 1_555
C9 C8 1_555 1_555
C10 C9 1_555 1_555
C11 C10 1_555 1_555
H6 C11 1_555 1_555
C12 C11 1_555 1_555
H7 C12 1_555 1_555
C13 C12 1_555 1_555
H8 C13 1_555 1_555
C14 C9 1_555 1_555
H9 C14 1_555 1_555
H10 N1 1_555 1_555
H11 O1 1_555 1_555
C1 C7 1_555 1_555
C5 C6 1_555 1_555
C13 C14 1_555 1_555

#END
