
#######################################################################
#
#                 Cambridge Crystallographic Data Centre
#                                CCDC 
#
#######################################################################
#
# If this CIF has been generated from an entry in the Cambridge 
# Structural Database, then it will include bibliographic, chemical, 
# crystal, experimental, refinement or atomic coordinate data resulting 
# from the CCDC's data processing and validation procedures.
#
#######################################################################

data_GAKYIB
_chemical_formula_moiety         'C12 H19 N3 O5'
_chemical_name_systematic        
5-(1-(2,2-Dimethoxyethylamino)ethylidene)-1,3-dimethylpyrimidine-2,4,6(1H,3H,5H)-trione
_symmetry_cell_setting           rhombohedral
_symmetry_space_group_name_H-M   'R -3'
_symmetry_Int_Tables_number      148
_space_group_name_Hall           '-R 3'
loop_
_symmetry_equiv_pos_site_id
_symmetry_equiv_pos_as_xyz
1 x,y,z
2 -y,x-y,z
3 -x+y,-x,z
4 2/3+x,1/3+y,1/3+z
5 2/3-y,1/3+x-y,1/3+z
6 2/3-x+y,1/3-x,1/3+z
7 1/3+x,2/3+y,2/3+z
8 2/3+y,1/3-x+y,1/3-z
9 2/3+x-y,1/3+x,1/3-z
10 -x,-y,-z
11 y,-x+y,-z
12 x-y,x,-z
13 1/3-x,2/3-y,2/3-z
14 1/3+y,2/3-x+y,2/3-z
15 1/3+x-y,2/3+x,2/3-z
16 2/3-x,1/3-y,1/3-z
17 1/3-y,2/3+x-y,2/3+z
18 1/3-x+y,2/3-x,2/3+z
_cell_length_a                   18.4577(4)
_cell_length_b                   18.4577(4)
_cell_length_c                   19.7736(4)
_cell_angle_alpha                90
_cell_angle_beta                 90
_cell_angle_gamma                120.00
_cell_volume                     5834.07
_exptl_crystal_colour            colorless
_exptl_crystal_description       block
_cell_formula_units_Z            18
_exptl_crystal_recrystallization_method ethanol
loop_
_atom_site_label
_atom_site_type_symbol
_atom_site_fract_x
_atom_site_fract_y
_atom_site_fract_z
O1 O -0.15632(6) 0.33916(6) 0.09144(5)
O2 O -0.05233(6) 0.61636(6) 0.05752(5)
O3 O 0.12518(6) 0.50353(6) 0.09788(5)
O4 O 0.08471(6) 0.83411(6) -0.02294(5)
O5 O 0.08356(6) 0.85482(6) 0.09012(5)
N1 N -0.01542(7) 0.42417(7) 0.09841(6)
N2 N -0.10321(7) 0.47955(7) 0.07858(6)
N3 N 0.10694(7) 0.71932(7) 0.06069(6)
C1 C -0.00815(9) 0.35043(8) 0.11368(7)
C2 C -0.09556(8) 0.40959(8) 0.08972(7)
C3 C -0.18752(8) 0.46736(9) 0.07052(7)
C4 C -0.03586(8) 0.56031(8) 0.07096(6)
C5 C 0.04738(8) 0.57301(8) 0.07892(7)
C6 C 0.05812(8) 0.50185(8) 0.09210(7)
C7 C 0.11810(8) 0.65554(8) 0.07353(7)
C8 C 0.20607(8) 0.67348(9) 0.08217(7)
C9 C 0.17286(8) 0.80644(8) 0.05238(8)
C10 C 0.13520(8) 0.86096(8) 0.03604(7)
C11 C 0.13239(9) 0.85833(9) -0.08419(7)
C12 C 0.05569(10) 0.91427(9) 0.08661(8)
H1 H -0.0514 0.3150 0.1464
H2 H 0.0472 0.3682 0.1329
H3 H -0.0154 0.3187 0.0720
H4 H -0.2289 0.4104 0.0844
H5 H -0.1967 0.4757 0.0230
H6 H -0.1933 0.5078 0.0988
H7 H 0.0550 0.7085 0.0567
H8 H 0.2222 0.6523 0.0429
H9 H 0.2100 0.6459 0.1232
H10 H 0.2437 0.7340 0.0861
H11 H 0.2109 0.8105 0.0154
H12 H 0.2060 0.8264 0.0945
H13 H 0.1808 0.9204 0.0305
H14 H 0.1735 0.9182 -0.0826
H15 H 0.0949 0.8469 -0.1228
H16 H 0.1615 0.8264 -0.0892
H17 H 0.1042 0.9708 0.0832
H18 H 0.0238 0.9101 0.1275
H19 H 0.0200 0.9027 0.0468
loop_
_geom_bond_atom_site_label_1
_geom_bond_atom_site_label_2
_geom_bond_site_symmetry_1
_geom_bond_site_symmetry_2
O1 C2 1_555 1_555
O2 C4 1_555 1_555
O3 C6 1_555 1_555
O4 C10 1_555 1_555
O5 C10 1_555 1_555
N1 C1 1_555 1_555
N2 C2 1_555 1_555
N3 C7 1_555 1_555
C1 H1 1_555 1_555
C2 N1 1_555 1_555
C3 N2 1_555 1_555
C4 N2 1_555 1_555
C5 C4 1_555 1_555
C6 N1 1_555 1_555
C7 C5 1_555 1_555
C8 C7 1_555 1_555
C9 N3 1_555 1_555
C10 C9 1_555 1_555
C11 O4 1_555 1_555
C12 O5 1_555 1_555
H2 C1 1_555 1_555
H3 C1 1_555 1_555
H4 C3 1_555 1_555
H5 C3 1_555 1_555
H6 C3 1_555 1_555
H7 N3 1_555 1_555
H8 C8 1_555 1_555
H9 C8 1_555 1_555
H10 C8 1_555 1_555
H11 C9 1_555 1_555
H12 C9 1_555 1_555
H13 C10 1_555 1_555
H14 C11 1_555 1_555
H15 C11 1_555 1_555
H16 C11 1_555 1_555
H17 C12 1_555 1_555
H18 C12 1_555 1_555
H19 C12 1_555 1_555
C5 C6 1_555 1_555

#END
