
#######################################################################
#
#                 Cambridge Crystallographic Data Centre
#                                CCDC 
#
#######################################################################
#
# If this CIF has been generated from an entry in the Cambridge 
# Structural Database, then it will include bibliographic, chemical, 
# crystal, experimental, refinement or atomic coordinate data resulting 
# from the CCDC's data processing and validation procedures.
#
#######################################################################

data_GAKYAT
_chemical_formula_moiety         'C8 H10 N2 O4'
_chemical_name_systematic        
5-(1-Hydroxyethylidene)-1,3-dimethylpyrimidine-2,4,6(1H,3H,5H)-trione
_symmetry_cell_setting           monoclinic
_symmetry_space_group_name_H-M   'P 21/c'
_symmetry_Int_Tables_number      14
_space_group_name_Hall           '-P 2ybc'
loop_
_symmetry_equiv_pos_site_id
_symmetry_equiv_pos_as_xyz
1 x,y,z
2 x,1/2-y,1/2+z
3 -x,-y,-z
4 -x,1/2+y,1/2-z
_cell_length_a                   8.6066(5)
_cell_length_b                   9.1751(5)
_cell_length_c                   11.9799(7)
_cell_angle_alpha                90
_cell_angle_beta                 109.321(2)
_cell_angle_gamma                90
_cell_volume                     892.73
_exptl_crystal_colour            colorless
_exptl_crystal_description       block
_cell_formula_units_Z            4
_exptl_crystal_recrystallization_method ethanol
loop_
_atom_site_label
_atom_site_type_symbol
_atom_site_fract_x
_atom_site_fract_y
_atom_site_fract_z
O1 O 0.15848(17) 0.66714(19) 0.48681(14)
O2 O 0.68888(18) 0.78399(16) 0.54571(13)
O3 O 0.54580(17) 0.41371(16) 0.76817(12)
O4 O 0.91332(17) 0.66835(18) 0.70291(15)
N1 N 0.35333(16) 0.53851(16) 0.62581(11)
N2 N 0.42439(18) 0.72019(15) 0.51240(11)
C1 C 0.2236(2) 0.4511(2) 0.64934(18)
C2 C 0.3024(2) 0.64364(19) 0.53906(14)
C3 C 0.3700(3) 0.8321(2) 0.42007(18)
C4 C 0.5885(2) 0.70517(18) 0.57344(14)
C5 C 0.63903(19) 0.59883(17) 0.66653(13)
C6 C 0.51627(19) 0.51007(18) 0.69328(13)
C7 C 0.8064(2) 0.5875(2) 0.73124(16)
C8 C 0.8796(3) 0.4923(3) 0.8341(2)
H1 H 0.2426 0.4487 0.7329
H2 H 0.2258 0.3536 0.6208
H3 H 0.1181 0.4942 0.6096
H4 H 0.3564 0.9232 0.4552
H5 H 0.2670 0.8034 0.3630
H6 H 0.4511 0.8430 0.3816
H7 H 0.8649 0.7195 0.6459
H8 H 0.9958 0.5104 0.8662
H9 H 0.8610 0.3922 0.8100
H10 H 0.8296 0.5122 0.8933
loop_
_geom_bond_atom_site_label_1
_geom_bond_atom_site_label_2
_geom_bond_site_symmetry_1
_geom_bond_site_symmetry_2
O1 C2 1_555 1_555
O2 C4 1_555 1_555
O3 C6 1_555 1_555
O4 C7 1_555 1_555
N1 C1 1_555 1_555
N2 C2 1_555 1_555
C1 H1 1_555 1_555
C2 N1 1_555 1_555
C3 N2 1_555 1_555
C4 N2 1_555 1_555
C5 C4 1_555 1_555
C6 N1 1_555 1_555
C7 C5 1_555 1_555
C8 C7 1_555 1_555
H2 C1 1_555 1_555
H3 C1 1_555 1_555
H4 C3 1_555 1_555
H5 C3 1_555 1_555
H6 C3 1_555 1_555
H7 O4 1_555 1_555
H8 C8 1_555 1_555
H9 C8 1_555 1_555
H10 C8 1_555 1_555
C5 C6 1_555 1_555

#END
