
#######################################################################
#
#                 Cambridge Crystallographic Data Centre
#                                CCDC 
#
#######################################################################
#
# If this CIF has been generated from an entry in the Cambridge 
# Structural Database, then it will include bibliographic, chemical, 
# crystal, experimental, refinement or atomic coordinate data resulting 
# from the CCDC's data processing and validation procedures.
#
#######################################################################

data_GALCUR
_chemical_formula_moiety         'C19 H18 B1 N1 O2'
_chemical_name_systematic        
(3-Hydroxy-1,2-dimethyl-4-pyridonato-O,O')-diphenyl-boron
_symmetry_cell_setting           monoclinic
_symmetry_space_group_name_H-M   'P 21/n'
_symmetry_Int_Tables_number      14
_space_group_name_Hall           '-P 2yn'
loop_
_symmetry_equiv_pos_site_id
_symmetry_equiv_pos_as_xyz
1 x,y,z
2 1/2-x,1/2+y,1/2-z
3 -x,-y,-z
4 1/2+x,1/2-y,1/2+z
_cell_length_a                   8.2617(5)
_cell_length_b                   12.374(1)
_cell_length_c                   16.104(1)
_cell_angle_alpha                90
_cell_angle_beta                 92.741(5)
_cell_angle_gamma                90
_cell_volume                     1644.43
_exptl_crystal_colour            white
_chemical_melting_point          220-222deg.C(dec.)
_cell_formula_units_Z            4
loop_
_atom_site_label
_atom_site_type_symbol
_atom_site_fract_x
_atom_site_fract_y
_atom_site_fract_z
O1 O 0.3171(4) 0.1413(2) 0.4185(2)
O2 O 0.2172(3) 0.3211(2) 0.4363(2)
N1 N 0.0986(4) 0.0981(3) 0.6044(2)
C1 C 0.2564(9) -0.0365(5) 0.5324(5)
C2 C 0.1922(5) 0.0729(4) 0.5408(3)
C3 C 0.2240(4) 0.1554(3) 0.4858(2)
C4 C 0.1673(5) 0.2583(4) 0.4937(3)
C5 C 0.0654(6) 0.2815(4) 0.5602(3)
C6 C 0.0354(6) 0.2018(5) 0.6114(3)
C7 C 0.0584(10) 0.0213(6) 0.6696(4)
C8 C 0.2321(4) 0.2518(3) 0.2865(2)
C9 C 0.2158(6) 0.1611(4) 0.2375(3)
C10 C 0.1405(8) 0.1661(7) 0.1580(4)
C11 C 0.0837(7) 0.2601(7) 0.1262(4)
C12 C 0.0963(7) 0.3513(6) 0.1733(4)
C13 C 0.1709(5) 0.3470(4) 0.2523(3)
C14 C 0.5019(5) 0.2998(3) 0.3768(2)
C15 C 0.6191(6) 0.2524(4) 0.3298(3)
C16 C 0.7757(6) 0.2930(5) 0.3278(4)
C17 C 0.8167(6) 0.3844(5) 0.3734(4)
C18 C 0.7048(6) 0.4328(5) 0.4198(4)
C19 C 0.5503(6) 0.3905(4) 0.4211(3)
B1 B 0.3209(6) 0.2531(4) 0.3769(3)
H1 H 0.173(6) -0.087(4) 0.543(3)
H2 H 0.285(6) -0.041(4) 0.473(3)
H3 H 0.330(7) -0.051(5) 0.559(4)
H4 H 0.017(6) 0.350(4) 0.566(3)
H5 H -0.036(6) 0.218(4) 0.662(3)
H6 H -0.014(7) 0.070(5) 0.703(4)
H7 H -0.008(9) -0.036(6) 0.646(4)
H8 H 0.153(9) 0.007(6) 0.707(5)
H9 H 0.272(5) 0.096(3) 0.256(3)
H10 H 0.142(6) 0.106(4) 0.134(3)
H11 H 0.024(7) 0.268(4) 0.072(4)
H12 H 0.056(6) 0.414(4) 0.156(3)
H13 H 0.179(5) 0.415(3) 0.285(3)
H14 H 0.592(5) 0.191(3) 0.300(2)
H15 H 0.848(6) 0.250(4) 0.289(3)
H16 H 0.920(6) 0.408(4) 0.369(3)
H17 H 0.728(6) 0.506(4) 0.452(3)
H18 H 0.472(5) 0.424(3) 0.451(2)
loop_
_geom_bond_atom_site_label_1
_geom_bond_atom_site_label_2
_geom_bond_site_symmetry_1
_geom_bond_site_symmetry_2
O1 C3 1_555 1_555
O2 C4 1_555 1_555
N1 C2 1_555 1_555
C1 C2 1_555 1_555
C2 C3 1_555 1_555
C3 C4 1_555 1_555
C4 C5 1_555 1_555
C5 C6 1_555 1_555
C6 N1 1_555 1_555
C7 N1 1_555 1_555
C8 C9 1_555 1_555
C9 C10 1_555 1_555
C10 C11 1_555 1_555
C11 C12 1_555 1_555
C12 C13 1_555 1_555
C13 C8 1_555 1_555
C14 C15 1_555 1_555
C15 C16 1_555 1_555
C16 C17 1_555 1_555
C17 C18 1_555 1_555
C18 C19 1_555 1_555
C19 C14 1_555 1_555
B1 O1 1_555 1_555
H1 C1 1_555 1_555
H2 C1 1_555 1_555
H3 C1 1_555 1_555
H4 C5 1_555 1_555
H5 C6 1_555 1_555
H6 C7 1_555 1_555
H7 C7 1_555 1_555
H8 C7 1_555 1_555
H9 C9 1_555 1_555
H10 C10 1_555 1_555
H11 C11 1_555 1_555
H12 C12 1_555 1_555
H13 C13 1_555 1_555
H14 C15 1_555 1_555
H15 C16 1_555 1_555
H16 C17 1_555 1_555
H17 C18 1_555 1_555
H18 C19 1_555 1_555
O2 B1 1_555 1_555
C8 B1 1_555 1_555
C14 B1 1_555 1_555

#END
