
#######################################################################
#
#                 Cambridge Crystallographic Data Centre
#                                CCDC 
#
#######################################################################
#
# If this CIF has been generated from an entry in the Cambridge 
# Structural Database, then it will include bibliographic, chemical, 
# crystal, experimental, refinement or atomic coordinate data resulting 
# from the CCDC's data processing and validation procedures.
#
#######################################################################

data_GALCOL
_chemical_formula_moiety         'C18 H16 B1 N1 O2'
_chemical_name_systematic        
(3-Hydroxy-2-methyl-4-pyridonato-O,O')-diphenyl-boron
_symmetry_cell_setting           orthorhombic
_symmetry_space_group_name_H-M   'P b c a'
_symmetry_Int_Tables_number      61
_space_group_name_Hall           '-P 2ac 2ab'
loop_
_symmetry_equiv_pos_site_id
_symmetry_equiv_pos_as_xyz
1 x,y,z
2 1/2-x,-y,1/2+z
3 1/2+x,1/2-y,-z
4 -x,1/2+y,1/2-z
5 -x,-y,-z
6 1/2+x,y,1/2-z
7 1/2-x,1/2+y,z
8 x,1/2-y,1/2+z
_cell_length_a                   13.4010(6)
_cell_length_b                   15.005(1)
_cell_length_c                   14.833(1)
_cell_angle_alpha                90
_cell_angle_beta                 90
_cell_angle_gamma                90
_cell_volume                     2982.65
_exptl_crystal_colour            white
_chemical_melting_point          225-228deg.C(dec.)
_cell_formula_units_Z            8
loop_
_atom_site_label
_atom_site_type_symbol
_atom_site_fract_x
_atom_site_fract_y
_atom_site_fract_z
O1 O 0.1298(3) 0.1228(2) 0.5837(2)
O2 O 0.1375(2) 0.0210(2) 0.7083(2)
N1 N -0.1277(4) 0.0572(3) 0.5923(3)
C1 C -0.0598(8) 0.1678(5) 0.4837(5)
C2 C -0.0464(4) 0.1026(3) 0.5601(4)
C3 C 0.0407(3) 0.0833(2) 0.6028(2)
C4 C 0.0470(4) 0.0267(3) 0.6751(3)
C5 C -0.0389(4) -0.0179(3) 0.7061(3)
C6 C -0.1248(5) -0.0002(4) 0.6614(5)
C7 C 0.2774(2) 0.0133(2) 0.5864(2)
C8 C 0.2934(2) -0.0744(2) 0.6131(2)
C9 C 0.3510(3) -0.1331(2) 0.5621(3)
C10 C 0.3941(3) -0.1050(3) 0.4838(3)
C11 C 0.3801(3) -0.0190(3) 0.4558(2)
C12 C 0.3233(3) 0.0387(2) 0.5059(2)
C13 C 0.2613(2) 0.1537(2) 0.7029(2)
C14 C 0.2101(3) 0.1972(2) 0.7720(3)
C15 C 0.2533(3) 0.2617(3) 0.8251(2)
C16 C 0.3514(4) 0.2856(2) 0.8122(2)
C17 C 0.4052(3) 0.2437(2) 0.7455(3)
C18 C 0.3605(3) 0.1792(2) 0.6927(2)
B1 B 0.2084(3) 0.0808(3) 0.6410(3)
H1 H -0.187 0.067 0.565
H2 H -0.030 0.225 0.501
H3 H -0.027 0.145 0.430
H4 H -0.131 0.175 0.472
H5 H -0.037 -0.059 0.757
H6 H -0.186 -0.030 0.680
H7 H 0.264 -0.095 0.669
H8 H 0.360 -0.194 0.582
H9 H 0.434 -0.146 0.448
H10 H 0.411 0.001 0.400
H11 H 0.315 0.099 0.485
H12 H 0.141 0.181 0.783
H13 H 0.214 0.291 0.872
H14 H 0.382 0.331 0.849
H15 H 0.475 0.259 0.736
H16 H 0.400 0.150 0.647
loop_
_geom_bond_atom_site_label_1
_geom_bond_atom_site_label_2
_geom_bond_site_symmetry_1
_geom_bond_site_symmetry_2
O1 C3 1_555 1_555
O2 C4 1_555 1_555
N1 C2 1_555 1_555
C1 C2 1_555 1_555
C2 C3 1_555 1_555
C3 C4 1_555 1_555
C4 C5 1_555 1_555
C5 C6 1_555 1_555
C6 N1 1_555 1_555
C7 C8 1_555 1_555
C8 C9 1_555 1_555
C9 C10 1_555 1_555
C10 C11 1_555 1_555
C11 C12 1_555 1_555
C12 C7 1_555 1_555
C13 C14 1_555 1_555
C14 C15 1_555 1_555
C15 C16 1_555 1_555
C16 C17 1_555 1_555
C17 C18 1_555 1_555
C18 C13 1_555 1_555
B1 O1 1_555 1_555
H1 N1 1_555 1_555
H2 C1 1_555 1_555
H3 C1 1_555 1_555
H4 C1 1_555 1_555
H5 C5 1_555 1_555
H6 C6 1_555 1_555
H7 C8 1_555 1_555
H8 C9 1_555 1_555
H9 C10 1_555 1_555
H10 C11 1_555 1_555
H11 C12 1_555 1_555
H12 C14 1_555 1_555
H13 C15 1_555 1_555
H14 C16 1_555 1_555
H15 C17 1_555 1_555
H16 C18 1_555 1_555
O2 B1 1_555 1_555
C7 B1 1_555 1_555
C13 B1 1_555 1_555

#END
