
#######################################################################
#
#                 Cambridge Crystallographic Data Centre
#                                CCDC 
#
#######################################################################
#
# If this CIF has been generated from an entry in the Cambridge 
# Structural Database, then it will include bibliographic, chemical, 
# crystal, experimental, refinement or atomic coordinate data resulting 
# from the CCDC's data processing and validation procedures.
#
#######################################################################

data_GALDAY
_chemical_formula_moiety         'C6 H7 N1 O2'
_chemical_name_systematic        3-Hydroxy-2-methyl-4-pyridinone
_symmetry_cell_setting           monoclinic
_symmetry_space_group_name_H-M   'P 21/n'
_symmetry_Int_Tables_number      14
_space_group_name_Hall           '-P 2yn'
loop_
_symmetry_equiv_pos_site_id
_symmetry_equiv_pos_as_xyz
1 x,y,z
2 1/2-x,1/2+y,1/2-z
3 -x,-y,-z
4 1/2+x,1/2-y,1/2+z
_cell_length_a                   6.8351(4)
_cell_length_b                   10.2249(4)
_cell_length_c                   8.6525(4)
_cell_angle_alpha                90
_cell_angle_beta                 105.215(4)
_cell_angle_gamma                90
_cell_volume                     583.511
_exptl_crystal_colour            'pale pink'
_cell_formula_units_Z            4
loop_
_atom_site_label
_atom_site_type_symbol
_atom_site_fract_x
_atom_site_fract_y
_atom_site_fract_z
O1 O 0.3723(2) 0.5273(1) 0.1896(2)
O2 O 0.6775(2) 0.3876(1) 0.1100(2)
N1 N 0.4178(2) 0.2509(2) 0.4498(2)
C1 C 0.1726(3) 0.4302(3) 0.4114(3)
C2 C 0.3487(2) 0.3640(2) 0.3729(2)
C3 C 0.4409(3) 0.4120(2) 0.2618(2)
C4 C 0.6022(2) 0.3433(2) 0.2203(2)
C5 C 0.6679(3) 0.2281(2) 0.3085(2)
C6 C 0.5729(3) 0.1841(2) 0.4189(2)
H1 H 0.405(4) 0.537(3) 0.097(3)
H2 H 0.344(3) 0.216(2) 0.514(2)
H3 H 0.118(4) 0.376(3) 0.479(4)
H4 H 0.062(5) 0.444(3) 0.316(4)
H5 H 0.217(5) 0.514(4) 0.466(4)
H6 H 0.784(3) 0.176(2) 0.291(2)
H7 H 0.611(3) 0.100(2) 0.475(2)
loop_
_geom_bond_atom_site_label_1
_geom_bond_atom_site_label_2
_geom_bond_site_symmetry_1
_geom_bond_site_symmetry_2
O1 C3 1_555 1_555
O2 C4 1_555 1_555
N1 C2 1_555 1_555
C1 C2 1_555 1_555
C2 C3 1_555 1_555
C3 C4 1_555 1_555
C4 C5 1_555 1_555
C5 C6 1_555 1_555
C6 N1 1_555 1_555
H1 O1 1_555 1_555
H2 N1 1_555 1_555
H3 C1 1_555 1_555
H4 C1 1_555 1_555
H5 C1 1_555 1_555
H6 C5 1_555 1_555
H7 C6 1_555 1_555

#END
