
#######################################################################
#
#                 Cambridge Crystallographic Data Centre
#                                CCDC 
#
#######################################################################
#
# If this CIF has been generated from an entry in the Cambridge 
# Structural Database, then it will include bibliographic, chemical, 
# crystal, experimental, refinement or atomic coordinate data resulting 
# from the CCDC's data processing and validation procedures.
#
#######################################################################

data_GALDIH
_chemical_name_common            
'4-Amino-1-(2-deoxy-beta-D-erythro-pentafuranosyl)-3-vinyl-1H-pyrazolo[3,4-d]pyrimidine monohydrate'
_chemical_formula_moiety         'C12 H15 N5 O3,H2 O1'
_chemical_name_systematic        
"8-Aza-7-deaza-7-vinyl-2'-deoxyadenosine monohydrate"
_symmetry_cell_setting           orthorhombic
_symmetry_space_group_name_H-M   'P 21 21 21'
_symmetry_Int_Tables_number      19
_space_group_name_Hall           'P 2ac 2ab'
loop_
_symmetry_equiv_pos_site_id
_symmetry_equiv_pos_as_xyz
1 x,y,z
2 1/2-x,-y,1/2+z
3 -x,1/2+y,1/2-z
4 1/2+x,1/2-y,-z
_cell_length_a                   6.6513(8)
_cell_length_b                   9.603(5)
_cell_length_c                   21.481(3)
_cell_angle_alpha                90
_cell_angle_beta                 90
_cell_angle_gamma                90
_cell_volume                     1372.04
_exptl_crystal_colour            colorless
_exptl_crystal_description       block
_cell_formula_units_Z            4
_exptl_crystal_recrystallization_method 'aqueous methanol'
loop_
_atom_site_label
_atom_site_type_symbol
_atom_site_fract_x
_atom_site_fract_y
_atom_site_fract_z
N1 N 0.7445(6) 0.5975(3) 0.54376(12)
C1 C 0.7462(7) 0.5638(4) 0.48368(14)
H1 H 0.7467 0.4687 0.4755
N2 N 0.7474(6) 0.6450(3) 0.43335(11)
C2 C 0.7511(7) 0.7810(3) 0.44955(14)
C3 C 0.7518(7) 0.8351(3) 0.50977(13)
N3 N 0.7363(5) 0.7665(3) 0.61930(10)
H2 H 0.7328 0.7013 0.6467
H3 H 0.7352 0.8523 0.6308
C4 C 0.7433(7) 0.7341(4) 0.55823(14)
C5 C 0.7561(7) 0.9829(3) 0.50242(12)
C6 C 0.7639(7) 1.0921(4) 0.54974(14)
H4 H 0.7004 1.0757 0.5876
C7 C 0.8549(7) 1.2113(4) 0.54196(19)
H5 H 0.9197 1.2306 0.5046
H6 H 0.8549 1.2769 0.5738
N4 N 0.7576(5) 1.0140(3) 0.44211(10)
N5 N 0.7518(6) 0.8909(3) 0.40996(10)
C8 C 0.7540(7) 0.8897(4) 0.34202(13)
H7 H 0.7249 0.7951 0.3274
C9 C 0.6036(6) 0.9899(4) 0.31293(16)
H8 H 0.4883 0.9398 0.2967
H9 H 0.5575 1.0573 0.3434
C10 C 0.7170(6) 1.0614(4) 0.26076(13)
H10 H 0.6723 1.1579 0.2555
O1 O 0.7050(5) 0.9861(3) 0.20340(11)
H11 H 0.586(2) 0.977(5) 0.194(2)
O2 O 0.9466(4) 0.9300(3) 0.32001(11)
C11 C 0.9360(7) 1.0549(4) 0.28232(17)
H12 H 1.0219 1.0421 0.2457
O3 O 0.8724(6) 1.2346(3) 0.36217(12)
H13 H 0.844(8) 1.181(4) 0.3912(15)
C12 C 1.0097(7) 1.1807(4) 0.31795(19)
H14 H 1.1331 1.1559 0.3393
H15 H 1.0420 1.2537 0.2884
O4 O 0.3108(5) 0.9789(3) 0.17403(11)
H16 H 0.305(7) 1.040(3) 0.1415(11)
H17 H 0.262(8) 0.898(2) 0.1583(14)
loop_
_geom_bond_atom_site_label_1
_geom_bond_atom_site_label_2
_geom_bond_site_symmetry_1
_geom_bond_site_symmetry_2
N1 C1 1_555 1_555
C1 H1 1_555 1_555
N2 C1 1_555 1_555
C2 N2 1_555 1_555
C3 C2 1_555 1_555
N3 H2 1_555 1_555
H3 N3 1_555 1_555
C4 N1 1_555 1_555
C5 C3 1_555 1_555
C6 C5 1_555 1_555
H4 C6 1_555 1_555
C7 C6 1_555 1_555
H5 C7 1_555 1_555
H6 C7 1_555 1_555
N4 C5 1_555 1_555
N5 C2 1_555 1_555
C8 N5 1_555 1_555
H7 C8 1_555 1_555
C9 C8 1_555 1_555
H8 C9 1_555 1_555
H9 C9 1_555 1_555
C10 C9 1_555 1_555
H10 C10 1_555 1_555
O1 C10 1_555 1_555
H11 O1 1_555 1_555
O2 C8 1_555 1_555
C11 C10 1_555 1_555
H12 C11 1_555 1_555
O3 H13 1_555 1_555
C12 C11 1_555 1_555
H14 C12 1_555 1_555
H15 C12 1_555 1_555
O4 H16 1_555 1_555
H17 O4 1_555 1_555
C3 C4 1_555 1_555
N3 C4 1_555 1_555
N4 N5 1_555 1_555
O2 C11 1_555 1_555
O3 C12 1_555 1_555

#END
