
#######################################################################
#
#                 Cambridge Crystallographic Data Centre
#                                CCDC 
#
#######################################################################
#
# If this CIF has been generated from an entry in the Cambridge 
# Structural Database, then it will include bibliographic, chemical, 
# crystal, experimental, refinement or atomic coordinate data resulting 
# from the CCDC's data processing and validation procedures.
#
#######################################################################

data_GALDEC01
_chemical_name_common            Deferiprone
_chemical_formula_moiety         'C7 H9 N1 O2'
_chemical_name_systematic        3-Hydroxy-1,2-dimethylpyridin-4(1H)-one
_chemical_properties_biological  'orally effective iron chelator activity'
_symmetry_cell_setting           orthorhombic
_symmetry_space_group_name_H-M   'P b c a'
_symmetry_Int_Tables_number      61
_space_group_name_Hall           '-P 2ac 2ab'
loop_
_symmetry_equiv_pos_site_id
_symmetry_equiv_pos_as_xyz
1 x,y,z
2 1/2-x,-y,1/2+z
3 1/2+x,1/2-y,-z
4 -x,1/2+y,1/2-z
5 -x,-y,-z
6 1/2+x,y,1/2-z
7 1/2-x,1/2+y,z
8 x,1/2-y,1/2+z
_cell_length_a                   12.947(2)
_cell_length_b                   13.721(2)
_cell_length_c                   7.214(2)
_cell_angle_alpha                90
_cell_angle_beta                 90
_cell_angle_gamma                90
_cell_volume                     1281.54
_exptl_crystal_colour            colorless
_cell_formula_units_Z            8
loop_
_atom_site_label
_atom_site_type_symbol
_atom_site_fract_x
_atom_site_fract_y
_atom_site_fract_z
N1 N 0.64413(7) 0.18067(7) 0.3579(1)
O1 O 0.59703(7) 0.47495(6) 0.3701(1)
O2 O 0.44241(6) 0.35065(6) 0.4801(1)
C1 C 0.54992(8) 0.21651(8) 0.4167(2)
C2 C 0.53581(8) 0.31558(8) 0.4236(2)
C3 C 0.61426(9) 0.38380(8) 0.3682(2)
C4 C 0.70869(9) 0.34055(9) 0.3095(2)
C5 C 0.72061(9) 0.24201(9) 0.3074(2)
C6 C 0.66234(11) 0.07488(9) 0.3522(2)
C7 C 0.46695(10) 0.14549(8) 0.4674(2)
H1 H 0.447(1) 0.415(1) 0.506(2)
H2 H 0.761(1) 0.383(1) 0.268(2)
H3 H 0.786(1) 0.212(1) 0.265(2)
H4 H 0.651(1) 0.047(1) 0.479(2)
H5 H 0.619(1) 0.044(1) 0.257(2)
H6 H 0.733(2) 0.064(1) 0.313(2)
H7 H 0.495(1) 0.100(1) 0.566(2)
H8 H 0.448(1) 0.104(1) 0.358(2)
H9 H 0.403(1) 0.178(1) 0.508(2)
loop_
_geom_bond_atom_site_label_1
_geom_bond_atom_site_label_2
_geom_bond_site_symmetry_1
_geom_bond_site_symmetry_2
N1 C1 1_555 1_555
O1 C3 1_555 1_555
O2 C2 1_555 1_555
C1 C2 1_555 1_555
C2 C3 1_555 1_555
C3 C4 1_555 1_555
C4 C5 1_555 1_555
C5 N1 1_555 1_555
C6 N1 1_555 1_555
C7 C1 1_555 1_555
H1 O2 1_555 1_555
H2 C4 1_555 1_555
H3 C5 1_555 1_555
H4 C6 1_555 1_555
H5 C6 1_555 1_555
H6 C6 1_555 1_555
H7 C7 1_555 1_555
H8 C7 1_555 1_555
H9 C7 1_555 1_555

#END
