
#######################################################################
#
#                 Cambridge Crystallographic Data Centre
#                                CCDC 
#
#######################################################################
#
# If this CIF has been generated from an entry in the Cambridge 
# Structural Database, then it will include bibliographic, chemical, 
# crystal, experimental, refinement or atomic coordinate data resulting 
# from the CCDC's data processing and validation procedures.
#
#######################################################################

data_GALKEK
_chemical_formula_moiety         'C27 H33 Br1 N2 O3'
_chemical_name_systematic        
'(S)-6-Bromo-3a-(3-hydroxypropyl)-8-(3-phenylallyl)-3,3a,8,8a-tetrahydro-2H-pyrrolo(2,3-b)indole-1-carboxylic acid t-butyl ester'
_symmetry_cell_setting           monoclinic
_symmetry_space_group_name_H-M   'P 21'
_symmetry_Int_Tables_number      4
_space_group_name_Hall           'P 2yb'
loop_
_symmetry_equiv_pos_site_id
_symmetry_equiv_pos_as_xyz
1 x,y,z
2 -x,1/2+y,-z
_cell_length_a                   8.8345(4)
_cell_length_b                   15.4918(7)
_cell_length_c                   18.3034(9)
_cell_angle_alpha                90
_cell_angle_beta                 97.2290(10)
_cell_angle_gamma                90
_cell_volume                     2485.13
_exptl_crystal_colour            colorless
_exptl_crystal_description       block
_cell_formula_units_Z            4
_exptl_crystal_recrystallization_method deutero-chloroform
loop_
_atom_site_label
_atom_site_type_symbol
_atom_site_fract_x
_atom_site_fract_y
_atom_site_fract_z
Br1 Br 0.42904(2) 0.80785(2) 0.755592(13)
O1 O 1.1045(2) 0.96998(11) 0.46425(9)
O2 O 1.20942(19) 0.86746(11) 0.54430(9)
O3 O 1.3729(2) 1.08435(12) 0.87924(10)
H1 H 1.4390 1.0496 0.8988
N1 N 0.9773(2) 0.84814(13) 0.66880(11)
N2 N 1.0437(2) 0.95959(13) 0.58129(11)
C1 C 0.8489(3) 0.87592(16) 0.69892(13)
C2 C 0.7183(2) 0.82890(15) 0.70694(12)
H2 H 0.7051 0.7713 0.6895
C3 C 0.6082(3) 0.87055(16) 0.74179(13)
C4 C 0.6223(3) 0.95492(16) 0.76668(13)
H3 H 0.5442 0.9811 0.7903
C5 C 0.7542(3) 1.00044(16) 0.75624(13)
H4 H 0.7659 1.0587 0.7722
C6 C 0.8670(3) 0.96130(16) 0.72304(13)
C7 C 1.0220(3) 0.99428(17) 0.70685(13)
C8 C 1.0099(3) 1.07564(15) 0.65946(13)
H5 H 1.1095 1.1056 0.6625
H6 H 0.9331 1.1159 0.6751
C9 C 0.9604(3) 1.04221(15) 0.58083(14)
H7 H 0.8486 1.0332 0.5717
H8 H 0.9916 1.0823 0.5433
C10 C 1.0714(3) 0.92183(16) 0.65576(13)
H9 H 1.1820 0.9078 0.6689
C11 C 1.1392(3) 0.99975(17) 0.77699(13)
H10 H 1.1441 0.9426 0.8014
H11 H 1.2409 1.0112 0.7617
C12 C 1.1093(3) 1.06656(17) 0.83253(14)
H12 H 1.0072 1.0568 0.8479
H13 H 1.1099 1.1246 0.8099
C13 C 1.2299(3) 1.06256(19) 0.89969(14)
H14 H 1.2031 1.1032 0.9378
H15 H 1.2337 1.0036 0.9207
C14 C 0.9856(3) 0.76621(16) 0.63066(14)
H16 H 0.9535 0.7196 0.6624
H17 H 1.0932 0.7553 0.6237
C15 C 0.8885(3) 0.76135(17) 0.55626(14)
H18 H 0.8850 0.8106 0.5252
C16 C 0.8085(3) 0.69264(16) 0.53209(15)
H19 H 0.8081 0.6458 0.5655
C17 C 0.7203(3) 0.68085(17) 0.45934(14)
C18 C 0.7148(3) 0.74190(17) 0.40282(14)
H20 H 0.7720 0.7937 0.4109
C19 C 0.6281(3) 0.72864(17) 0.33556(14)
H21 H 0.6237 0.7716 0.2983
C20 C 0.5473(3) 0.65193(18) 0.32284(15)
H22 H 0.4891 0.6416 0.2764
C21 C 0.5522(3) 0.59063(18) 0.37826(15)
H23 H 0.4968 0.5383 0.3698
C22 C 0.6362(3) 0.60507(17) 0.44497(15)
H24 H 0.6376 0.5626 0.4825
C23 C 1.1184(3) 0.93583(16) 0.52449(14)
C24 C 1.2987(3) 0.82333(18) 0.49180(14)
C25 C 1.4125(4) 0.88495(19) 0.4664(2)
H25 H 1.3584 0.9311 0.4372
H26 H 1.4786 0.8540 0.4361
H27 H 1.4747 0.9100 0.5093
C26 C 1.1917(3) 0.78753(19) 0.42846(15)
H28 H 1.1243 0.7447 0.4469
H29 H 1.2510 0.7601 0.3930
H30 H 1.1304 0.8345 0.4042
C27 C 1.3755(4) 0.75230(19) 0.53891(16)
H31 H 1.4380 0.7775 0.5816
H32 H 1.4406 0.7186 0.5100
H33 H 1.2979 0.7146 0.5557
Br2 Br 1.05546(2) 0.31023(2) 0.747727(12)
O4 O 0.41247(19) 0.48014(11) 1.03998(9)
O5 O 0.26963(19) 0.39867(11) 0.95432(9)
O6 O 0.1307(2) 0.56417(12) 0.61201(11)
H34 H 0.0527 0.5394 0.5908
N3 N 0.5063(2) 0.37294(13) 0.82867(11)
N4 N 0.4519(2) 0.48170(13) 0.91983(10)
C28 C 0.6405(3) 0.39469(16) 0.80108(13)
C29 C 0.7642(3) 0.34253(16) 0.79269(12)
H35 H 0.7688 0.2841 0.8085
C30 C 0.8815(3) 0.38023(16) 0.75983(13)
C31 C 0.8803(3) 0.46464(16) 0.73556(13)
H36 H 0.9624 0.4874 0.7127
C32 C 0.7540(3) 0.51540(16) 0.74581(13)
H37 H 0.7493 0.5737 0.7296
C33 C 0.6367(3) 0.48149(16) 0.77923(13)
C34 C 0.4898(3) 0.52353(16) 0.79724(13)
C35 C 0.5227(3) 0.59849(16) 0.85159(13)
H38 H 0.6106 0.6330 0.8397
H39 H 0.4327 0.6367 0.8507
C36 C 0.5587(3) 0.55485(16) 0.92636(13)
H40 H 0.6660 0.5349 0.9347
H41 H 0.5393 0.5941 0.9669
C37 C 0.4212(3) 0.45063(15) 0.84321(13)
H42 H 0.3093 0.4431 0.8277
C38 C 0.3862(3) 0.55196(16) 0.72752(13)
H43 H 0.2917 0.5771 0.7424
H44 H 0.4388 0.5980 0.7030
C39 C 0.3430(3) 0.48088(17) 0.67278(13)
H45 H 0.2749 0.4395 0.6938
H46 H 0.4361 0.4494 0.6632
C40 C 0.2621(3) 0.51663(18) 0.60006(14)
H47 H 0.3330 0.5544 0.5770
H48 H 0.2323 0.4683 0.5659
C41 C 0.4911(3) 0.29230(16) 0.86744(13)
H49 H 0.5137 0.2441 0.8350
H50 H 0.3838 0.2861 0.8769
C42 C 0.5941(3) 0.28401(16) 0.94027(14)
H51 H 0.6040 0.3326 0.9721
C43 C 0.6704(3) 0.21325(17) 0.96183(14)
H52 H 0.6631 0.1668 0.9277
C44 C 0.7655(3) 0.19807(16) 1.03271(15)
C45 C 0.7799(3) 0.25744(17) 1.09096(13)
H53 H 0.7242 0.3100 1.0862
C46 C 0.8752(3) 0.23994(17) 1.15549(15)
H54 H 0.8857 0.2814 1.1941
C47 C 0.9544(3) 0.16358(18) 1.16439(16)
H55 H 1.0175 0.1516 1.2092
C48 C 0.9411(3) 0.10399(18) 1.10725(15)
H56 H 0.9962 0.0512 1.1126
C49 C 0.8478(3) 0.12171(17) 1.04269(15)
H57 H 0.8396 0.0805 1.0040
C50 C 0.3815(3) 0.45493(16) 0.97665(14)
C51 C 0.1873(3) 0.35062(17) 1.00791(14)
C52 C 0.0975(3) 0.41287(17) 1.05063(15)
H58 H 0.1686 0.4480 1.0836
H59 H 0.0315 0.3800 1.0797
H60 H 0.0348 0.4506 1.0160
C53 C 0.2967(3) 0.29651(19) 1.05806(14)
H61 H 0.3505 0.2567 1.0286
H62 H 0.2403 0.2634 1.0914
H63 H 0.3709 0.3341 1.0870
C54 C 0.0795(3) 0.29503(19) 0.95688(14)
H64 H 0.0086 0.3321 0.9256
H65 H 0.0218 0.2571 0.9862
H66 H 0.1383 0.2599 0.9259
loop_
_geom_bond_atom_site_label_1
_geom_bond_atom_site_label_2
_geom_bond_site_symmetry_1
_geom_bond_site_symmetry_2
Br1 C3 1_555 1_555
O1 C23 1_555 1_555
O2 C23 1_555 1_555
O3 H1 1_555 1_555
N1 C1 1_555 1_555
N2 C9 1_555 1_555
C1 C2 1_555 1_555
C2 H2 1_555 1_555
C3 C2 1_555 1_555
C4 C3 1_555 1_555
H3 C4 1_555 1_555
C5 C4 1_555 1_555
H4 C5 1_555 1_555
C6 C1 1_555 1_555
C7 C6 1_555 1_555
C8 C7 1_555 1_555
H5 C8 1_555 1_555
H6 C8 1_555 1_555
C9 C8 1_555 1_555
H7 C9 1_555 1_555
H8 C9 1_555 1_555
C10 N1 1_555 1_555
H9 C10 1_555 1_555
C11 C7 1_555 1_555
H10 C11 1_555 1_555
H11 C11 1_555 1_555
C12 C11 1_555 1_555
H12 C12 1_555 1_555
H13 C12 1_555 1_555
C13 O3 1_555 1_555
H14 C13 1_555 1_555
H15 C13 1_555 1_555
C14 N1 1_555 1_555
H16 C14 1_555 1_555
H17 C14 1_555 1_555
C15 C14 1_555 1_555
H18 C15 1_555 1_555
C16 C15 1_555 1_555
H19 C16 1_555 1_555
C17 C16 1_555 1_555
C18 C17 1_555 1_555
H20 C18 1_555 1_555
C19 C18 1_555 1_555
H21 C19 1_555 1_555
C20 C19 1_555 1_555
H22 C20 1_555 1_555
C21 C20 1_555 1_555
H23 C21 1_555 1_555
C22 C17 1_555 1_555
H24 C22 1_555 1_555
C23 N2 1_555 1_555
C24 O2 1_555 1_555
C25 C24 1_555 1_555
H25 C25 1_555 1_555
H26 C25 1_555 1_555
H27 C25 1_555 1_555
C26 C24 1_555 1_555
H28 C26 1_555 1_555
H29 C26 1_555 1_555
H30 C26 1_555 1_555
C27 C24 1_555 1_555
H31 C27 1_555 1_555
H32 C27 1_555 1_555
H33 C27 1_555 1_555
Br2 C30 1_555 1_555
O4 C50 1_555 1_555
O5 C50 1_555 1_555
O6 H34 1_555 1_555
N3 C28 1_555 1_555
N4 C36 1_555 1_555
C28 C29 1_555 1_555
C29 H35 1_555 1_555
C30 C29 1_555 1_555
C31 C30 1_555 1_555
H36 C31 1_555 1_555
C32 C31 1_555 1_555
H37 C32 1_555 1_555
C33 C28 1_555 1_555
C34 C33 1_555 1_555
C35 C34 1_555 1_555
H38 C35 1_555 1_555
H39 C35 1_555 1_555
C36 C35 1_555 1_555
H40 C36 1_555 1_555
H41 C36 1_555 1_555
C37 N3 1_555 1_555
H42 C37 1_555 1_555
C38 C34 1_555 1_555
H43 C38 1_555 1_555
H44 C38 1_555 1_555
C39 C38 1_555 1_555
H45 C39 1_555 1_555
H46 C39 1_555 1_555
C40 O6 1_555 1_555
H47 C40 1_555 1_555
H48 C40 1_555 1_555
C41 N3 1_555 1_555
H49 C41 1_555 1_555
H50 C41 1_555 1_555
C42 C41 1_555 1_555
H51 C42 1_555 1_555
C43 C42 1_555 1_555
H52 C43 1_555 1_555
C44 C43 1_555 1_555
C45 C44 1_555 1_555
H53 C45 1_555 1_555
C46 C45 1_555 1_555
H54 C46 1_555 1_555
C47 C46 1_555 1_555
H55 C47 1_555 1_555
C48 C47 1_555 1_555
H56 C48 1_555 1_555
C49 C44 1_555 1_555
H57 C49 1_555 1_555
C50 N4 1_555 1_555
C51 O5 1_555 1_555
C52 C51 1_555 1_555
H58 C52 1_555 1_555
H59 C52 1_555 1_555
H60 C52 1_555 1_555
C53 C51 1_555 1_555
H61 C53 1_555 1_555
H62 C53 1_555 1_555
H63 C53 1_555 1_555
C54 C51 1_555 1_555
H64 C54 1_555 1_555
H65 C54 1_555 1_555
H66 C54 1_555 1_555
N2 C10 1_555 1_555
C5 C6 1_555 1_555
C7 C10 1_555 1_555
C12 C13 1_555 1_555
C21 C22 1_555 1_555
N4 C37 1_555 1_555
C32 C33 1_555 1_555
C34 C37 1_555 1_555
C39 C40 1_555 1_555
C48 C49 1_555 1_555

#END
