
#######################################################################
#
#                 Cambridge Crystallographic Data Centre
#                                CCDC 
#
#######################################################################
#
# If this CIF has been generated from an entry in the Cambridge 
# Structural Database, then it will include bibliographic, chemical, 
# crystal, experimental, refinement or atomic coordinate data resulting 
# from the CCDC's data processing and validation procedures.
#
#######################################################################

data_GALNOZ
_chemical_formula_moiety         'C24 H18 N2 O1'
_chemical_name_systematic        
2-(4-(1H-benzimidazol-1-yl)benzylidene)-3,4-dihydronaphthalen-1(2H)-one
_symmetry_cell_setting           monoclinic
_symmetry_space_group_name_H-M   'P 21/c'
_symmetry_Int_Tables_number      14
_space_group_name_Hall           '-P 2ybc'
loop_
_symmetry_equiv_pos_site_id
_symmetry_equiv_pos_as_xyz
1 x,y,z
2 -x,1/2+y,1/2-z
3 -x,-y,-z
4 x,1/2-y,1/2+z
_cell_length_a                   7.5625(3)
_cell_length_b                   16.6745(5)
_cell_length_c                   14.9225(6)
_cell_angle_alpha                90
_cell_angle_beta                 110.395(3)
_cell_angle_gamma                90
_cell_volume                     1763.78
_exptl_crystal_colour            colorless
_exptl_crystal_description       block
_cell_formula_units_Z            4
loop_
_atom_site_label
_atom_site_type_symbol
_atom_site_fract_x
_atom_site_fract_y
_atom_site_fract_z
O1 O -0.2594(3) -0.44097(14) 0.64457(12)
N1 N -0.1953(3) -0.34052(12) -0.03940(13)
N2 N -0.1267(2) -0.37683(10) 0.11436(12)
C1 C -0.2514(3) -0.34244(14) 0.03354(16)
H1 H -0.3674 -0.3220 0.0311
C2 C -0.0176(3) -0.37654(13) -0.00554(15)
C3 C 0.1097(4) -0.38963(15) -0.05245(18)
H2 H 0.0815 -0.3746 -0.1159
C4 C 0.2778(4) -0.42546(17) -0.0019(2)
H3 H 0.3644 -0.4354 -0.0321
C5 C 0.3228(4) -0.44754(16) 0.0937(2)
H4 H 0.4393 -0.4710 0.1259
C6 C 0.1983(3) -0.43538(14) 0.14181(16)
H5 H 0.2276 -0.4502 0.2054
C7 C 0.0276(3) -0.39988(12) 0.08984(14)
C8 C -0.1603(3) -0.38698(12) 0.20180(14)
C9 C -0.1205(3) -0.45924(12) 0.25052(14)
H6 H -0.0674 -0.5013 0.2277
C10 C -0.1605(3) -0.46793(12) 0.33338(14)
H7 H -0.1316 -0.5162 0.3666
C11 C -0.2429(3) -0.40683(12) 0.36882(14)
C12 C -0.2787(3) -0.33398(12) 0.31915(15)
H8 H -0.3310 -0.2916 0.3420
C13 C -0.2375(3) -0.32424(12) 0.23669(15)
H9 H -0.2615 -0.2754 0.2045
C14 C -0.2745(3) -0.41835(13) 0.45932(15)
H10 H -0.1891 -0.4523 0.5027
C15 C -0.4078(3) -0.38735(12) 0.48905(14)
C16 C -0.3922(3) -0.40349(13) 0.58993(15)
C17 C -0.5398(3) -0.37029(12) 0.62371(14)
C18 C -0.5069(3) -0.36699(13) 0.72182(15)
H11 H -0.3932 -0.3856 0.7651
C19 C -0.6418(4) -0.33640(14) 0.75465(18)
H12 H -0.6199 -0.3342 0.8199
C20 C -0.8102(4) -0.30889(14) 0.6900(2)
H13 H -0.9013 -0.2880 0.7122
C21 C -0.8452(3) -0.31200(13) 0.59282(18)
H14 H -0.9600 -0.2937 0.5503
C22 C -0.7103(3) -0.34225(12) 0.55797(15)
C23 C -0.7457(3) -0.34898(15) 0.45280(15)
H15 H -0.8403 -0.3099 0.4188
H16 H -0.7953 -0.4019 0.4309
C24 C -0.5697(3) -0.33539(13) 0.42924(15)
H17 H -0.5333 -0.2794 0.4400
H18 H -0.5963 -0.3470 0.3621
loop_
_geom_bond_atom_site_label_1
_geom_bond_atom_site_label_2
_geom_bond_site_symmetry_1
_geom_bond_site_symmetry_2
O1 C16 1_555 1_555
N1 C1 1_555 1_555
N2 C1 1_555 1_555
C1 H1 1_555 1_555
C2 N1 1_555 1_555
C3 C2 1_555 1_555
H2 C3 1_555 1_555
C4 C3 1_555 1_555
H3 C4 1_555 1_555
C5 C4 1_555 1_555
H4 C5 1_555 1_555
C6 C5 1_555 1_555
H5 C6 1_555 1_555
C7 N2 1_555 1_555
C8 N2 1_555 1_555
C9 C8 1_555 1_555
H6 C9 1_555 1_555
C10 C9 1_555 1_555
H7 C10 1_555 1_555
C11 C10 1_555 1_555
C12 C11 1_555 1_555
H8 C12 1_555 1_555
C13 C8 1_555 1_555
H9 C13 1_555 1_555
C14 C11 1_555 1_555
H10 C14 1_555 1_555
C15 C14 1_555 1_555
C16 C15 1_555 1_555
C17 C16 1_555 1_555
C18 C17 1_555 1_555
H11 C18 1_555 1_555
C19 C18 1_555 1_555
H12 C19 1_555 1_555
C20 C19 1_555 1_555
H13 C20 1_555 1_555
C21 C20 1_555 1_555
H14 C21 1_555 1_555
C22 C17 1_555 1_555
C23 C22 1_555 1_555
H15 C23 1_555 1_555
H16 C23 1_555 1_555
C24 C15 1_555 1_555
H17 C24 1_555 1_555
H18 C24 1_555 1_555
C2 C7 1_555 1_555
C6 C7 1_555 1_555
C12 C13 1_555 1_555
C21 C22 1_555 1_555
C23 C24 1_555 1_555

#END
