
#######################################################################
#
#                 Cambridge Crystallographic Data Centre
#                                CCDC 
#
#######################################################################
#
# If this CIF has been generated from an entry in the Cambridge 
# Structural Database, then it will include bibliographic, chemical, 
# crystal, experimental, refinement or atomic coordinate data resulting 
# from the CCDC's data processing and validation procedures.
#
#######################################################################

data_GALQOC
_chemical_formula_moiety         'C20 H16 B1 F2 N3 O2'
_chemical_name_systematic        
10-(2,6-dimethoxyquinolin-3-yl)-5,5-difluoro-5H-6\l^5^,5\l^5^-dipyrrolo[1,2-c:2',1'-f][1,3,2]diazaborinine
_symmetry_cell_setting           monoclinic
_symmetry_space_group_name_H-M   'P 21/c'
_symmetry_Int_Tables_number      14
_space_group_name_Hall           '-P 2ybc'
loop_
_symmetry_equiv_pos_site_id
_symmetry_equiv_pos_as_xyz
1 x,y,z
2 -x,1/2+y,1/2-z
3 -x,-y,-z
4 x,1/2-y,1/2+z
_cell_length_a                   10.4767(8)
_cell_length_b                   20.7570(11)
_cell_length_c                   8.7718(7)
_cell_angle_alpha                90
_cell_angle_beta                 107.202(8)
_cell_angle_gamma                90
_cell_volume                     1822.23
_exptl_crystal_colour            red
_exptl_crystal_description       needle
_cell_formula_units_Z            4
loop_
_atom_site_label
_atom_site_type_symbol
_atom_site_fract_x
_atom_site_fract_y
_atom_site_fract_z
F1 F 0.8704(2) 0.09866(11) -0.0070(3)
F2 F 0.9578(2) 0.05901(10) 0.2413(3)
O1 O 1.3034(3) 0.55531(13) 0.0295(4)
O2 O 1.4264(2) 0.21763(12) 0.3843(3)
N1 N 0.9523(3) 0.17434(13) 0.2072(4)
N2 N 1.1067(3) 0.10717(13) 0.1110(4)
N3 N 1.4711(3) 0.32078(14) 0.3183(4)
C1 C 0.8483(4) 0.19472(19) 0.2559(5)
H1 H 0.7745 0.1697 0.2554
C2 C 0.8668(4) 0.25826(19) 0.3069(5)
H2 H 0.8093 0.2829 0.3459
C3 C 0.9875(4) 0.27772(17) 0.2883(4)
H3 H 1.0262 0.3182 0.3125
C4 C 1.0414(3) 0.22526(15) 0.2261(4)
C5 C 1.1623(3) 0.21778(15) 0.1907(4)
C6 C 1.1945(3) 0.15904(16) 0.1356(4)
C7 C 1.3046(4) 0.14022(18) 0.0835(5)
H4 H 1.3788 0.1654 0.0864
C8 C 1.2822(4) 0.07798(19) 0.0278(5)
H5 H 1.3376 0.0531 -0.0142
C9 C 1.1601(4) 0.05970(18) 0.0468(5)
H6 H 1.1207 0.0196 0.0185
C10 C 1.2520(3) 0.27435(16) 0.2050(4)
C11 C 1.2065(3) 0.33034(16) 0.1261(4)
H7 H 1.1184 0.3331 0.0622
C12 C 1.2926(4) 0.38441(16) 0.1406(4)
C13 C 1.4248(3) 0.37698(17) 0.2394(4)
C14 C 1.3879(3) 0.27296(16) 0.3022(4)
C15 C 1.5640(4) 0.2119(2) 0.4751(6)
H8 H 1.6190 0.2163 0.4055
H9 H 1.5791 0.1705 0.5259
H10 H 1.5862 0.2451 0.5548
C16 C 1.5121(4) 0.43006(19) 0.2587(5)
H11 H 1.6004 0.4260 0.3214
C17 C 1.4680(4) 0.4873(2) 0.1864(6)
H12 H 1.5267 0.5219 0.2003
C18 C 1.3339(4) 0.49495(18) 0.0902(5)
C19 C 1.2482(4) 0.44391(17) 0.0649(5)
H13 H 1.1611 0.4482 -0.0016
C20 C 1.1746(6) 0.5650(2) -0.0771(6)
H14 H 1.1605 0.5357 -0.1653
H15 H 1.1667 0.6085 -0.1158
H16 H 1.1089 0.5573 -0.0227
B1 B 0.9673(4) 0.10764(18) 0.1375(5)
loop_
_geom_bond_atom_site_label_1
_geom_bond_atom_site_label_2
_geom_bond_site_symmetry_1
_geom_bond_site_symmetry_2
F1 B1 1_555 1_555
F2 B1 1_555 1_555
O1 C18 1_555 1_555
O2 C14 1_555 1_555
N1 C1 1_555 1_555
N2 C6 1_555 1_555
N3 C13 1_555 1_555
C1 H1 1_555 1_555
C2 C1 1_555 1_555
H2 C2 1_555 1_555
C3 C2 1_555 1_555
H3 C3 1_555 1_555
C4 N1 1_555 1_555
C5 C4 1_555 1_555
C6 C5 1_555 1_555
C7 C6 1_555 1_555
H4 C7 1_555 1_555
C8 C7 1_555 1_555
H5 C8 1_555 1_555
C9 N2 1_555 1_555
H6 C9 1_555 1_555
C10 C5 1_555 1_555
C11 C10 1_555 1_555
H7 C11 1_555 1_555
C12 C11 1_555 1_555
C13 C12 1_555 1_555
C14 N3 1_555 1_555
C15 O2 1_555 1_555
H8 C15 1_555 1_555
H9 C15 1_555 1_555
H10 C15 1_555 1_555
C16 C13 1_555 1_555
H11 C16 1_555 1_555
C17 C16 1_555 1_555
H12 C17 1_555 1_555
C18 C17 1_555 1_555
C19 C12 1_555 1_555
H13 C19 1_555 1_555
C20 O1 1_555 1_555
H14 C20 1_555 1_555
H15 C20 1_555 1_555
H16 C20 1_555 1_555
B1 N1 1_555 1_555
N2 B1 1_555 1_555
C3 C4 1_555 1_555
C8 C9 1_555 1_555
C10 C14 1_555 1_555
C18 C19 1_555 1_555

#END
