
#######################################################################
#
#                 Cambridge Crystallographic Data Centre
#                                CCDC 
#
#######################################################################
#
# If this CIF has been generated from an entry in the Cambridge 
# Structural Database, then it will include bibliographic, chemical, 
# crystal, experimental, refinement or atomic coordinate data resulting 
# from the CCDC's data processing and validation procedures.
#
#######################################################################

data_GALQIW
_chemical_formula_moiety         'C19 H14 B1 F2 N3 O1'
_chemical_name_systematic        
3-(5,5-difluoro-5H-4\l^5^,5\l^5^-dipyrrolo[1,2-c:2',1'-f][1,3,2]diazaborinin-10-yl)-1-methylquinolin-2(1H)-one
_symmetry_cell_setting           monoclinic
_symmetry_space_group_name_H-M   'P 21/n'
_symmetry_Int_Tables_number      14
_space_group_name_Hall           '-P 2yn'
loop_
_symmetry_equiv_pos_site_id
_symmetry_equiv_pos_as_xyz
1 x,y,z
2 1/2-x,1/2+y,1/2-z
3 -x,-y,-z
4 1/2+x,1/2-y,1/2+z
_cell_length_a                   7.2297(2)
_cell_length_b                   9.3101(3)
_cell_length_c                   23.7779(6)
_cell_angle_alpha                90
_cell_angle_beta                 96.213(2)
_cell_angle_gamma                90
_cell_volume                     1591.07
_exptl_crystal_colour            red
_exptl_crystal_description       block
_cell_formula_units_Z            4
loop_
_atom_site_label
_atom_site_type_symbol
_atom_site_fract_x
_atom_site_fract_y
_atom_site_fract_z
B1 B 1.1682(3) 0.0926(2) 0.28515(8)
F1 F 1.28938(15) 0.17565(14) 0.32068(4)
F2 F 1.15170(17) -0.03987(14) 0.30991(5)
O1 O 0.8291(2) 0.03918(13) 0.07571(6)
N1 N 1.24063(19) 0.07717(14) 0.22643(5)
N2 N 0.97721(19) 0.16779(16) 0.27431(5)
N3 N 0.7712(2) 0.23962(14) 0.02147(5)
C1 C 1.4042(3) 0.02335(19) 0.21535(8)
H1 H 1.4923 -0.0160 0.2424
C2 C 1.4252(3) 0.0340(2) 0.15763(8)
H2 H 1.5267 0.0037 0.1398
C3 C 1.2667(3) 0.09798(18) 0.13282(7)
H3 H 1.2405 0.1191 0.0946
C4 C 1.1494(2) 0.12652(16) 0.17538(6)
C5 C 0.9811(2) 0.19792(16) 0.17316(6)
C6 C 0.8937(2) 0.21788(17) 0.22259(6)
C7 C 0.7259(2) 0.2850(2) 0.23144(8)
H4 H 0.6421 0.3277 0.2040
C8 C 0.7081(3) 0.2756(2) 0.28861(8)
H5 H 0.6101 0.3107 0.3069
C9 C 0.8643(3) 0.2039(2) 0.31346(7)
H6 H 0.8878 0.1837 0.3519
C10 C 0.8991(2) 0.26422(16) 0.11914(6)
C11 C 0.8321(2) 0.17079(17) 0.07198(6)
C12 C 0.7657(2) 0.38841(16) 0.01486(6)
C13 C 0.7022(2) 0.4528(2) -0.03691(7)
H7 H 0.6634 0.3960 -0.0681
C14 C 0.6971(3) 0.5994(2) -0.04149(7)
H8 H 0.6521 0.6412 -0.0758
C15 C 0.7579(3) 0.68716(19) 0.00413(8)
H9 H 0.7544 0.7866 0.0003
C16 C 0.8232(2) 0.62553(17) 0.05490(7)
H10 H 0.8658 0.6838 0.0853
C17 C 0.8265(2) 0.47589(16) 0.06137(6)
C18 C 0.8941(2) 0.40829(16) 0.11349(6)
H11 H 0.9358 0.4653 0.1444
C19 C 0.7158(3) 0.1476(2) -0.02730(8)
H12 H 0.5887 0.1673 -0.0413
H13 H 0.7277 0.0487 -0.0161
H14 H 0.7944 0.1665 -0.0565
loop_
_geom_bond_atom_site_label_1
_geom_bond_atom_site_label_2
_geom_bond_site_symmetry_1
_geom_bond_site_symmetry_2
B1 F1 1_555 1_555
F2 B1 1_555 1_555
O1 C11 1_555 1_555
N1 B1 1_555 1_555
N2 B1 1_555 1_555
N3 C11 1_555 1_555
C1 N1 1_555 1_555
H1 C1 1_555 1_555
C2 C1 1_555 1_555
H2 C2 1_555 1_555
C3 C2 1_555 1_555
H3 C3 1_555 1_555
C4 N1 1_555 1_555
C5 C4 1_555 1_555
C6 N2 1_555 1_555
C7 C6 1_555 1_555
H4 C7 1_555 1_555
C8 C7 1_555 1_555
H5 C8 1_555 1_555
C9 N2 1_555 1_555
H6 C9 1_555 1_555
C10 C5 1_555 1_555
C11 C10 1_555 1_555
C12 N3 1_555 1_555
C13 C12 1_555 1_555
H7 C13 1_555 1_555
C14 C13 1_555 1_555
H8 C14 1_555 1_555
C15 C14 1_555 1_555
H9 C15 1_555 1_555
C16 C15 1_555 1_555
H10 C16 1_555 1_555
C17 C12 1_555 1_555
C18 C10 1_555 1_555
H11 C18 1_555 1_555
C19 N3 1_555 1_555
H12 C19 1_555 1_555
H13 C19 1_555 1_555
H14 C19 1_555 1_555
C3 C4 1_555 1_555
C5 C6 1_555 1_555
C8 C9 1_555 1_555
C16 C17 1_555 1_555
C17 C18 1_555 1_555

#END
