
#######################################################################
#
#                 Cambridge Crystallographic Data Centre
#                                CCDC 
#
#######################################################################
#
# If this CIF has been generated from an entry in the Cambridge 
# Structural Database, then it will include bibliographic, chemical, 
# crystal, experimental, refinement or atomic coordinate data resulting 
# from the CCDC's data processing and validation procedures.
#
#######################################################################

data_GALSUJ
_chemical_formula_moiety         'C32 H26 O2 Si1'
_chemical_name_systematic        
4,4'-(1,1-Dimethyl-3,4-diphenyl-1H-silole-2,5-diyl)dibenzaldehyde
_symmetry_cell_setting           orthorhombic
_symmetry_space_group_name_H-M   'P b c a'
_symmetry_Int_Tables_number      61
_space_group_name_Hall           '-P 2ac 2ab'
loop_
_symmetry_equiv_pos_site_id
_symmetry_equiv_pos_as_xyz
1 x,y,z
2 1/2-x,-y,1/2+z
3 -x,1/2+y,1/2-z
4 1/2+x,1/2-y,-z
5 -x,-y,-z
6 1/2+x,y,1/2-z
7 x,1/2-y,1/2+z
8 1/2-x,1/2+y,z
_cell_length_a                   21.7477(9)
_cell_length_b                   13.4689(6)
_cell_length_c                   35.5044(11)
_cell_angle_alpha                90
_cell_angle_beta                 90
_cell_angle_gamma                90
_cell_volume                     10399.9
_exptl_crystal_colour            yellow
_exptl_crystal_description       bar
_chemical_melting_point          '482.15 K'
_cell_formula_units_Z            16
_exptl_crystal_recrystallization_method tetrahydrofuran/hexane
_exptl_crystal_preparation       Luminescent
loop_
_atom_site_label
_atom_site_type_symbol
_atom_site_fract_x
_atom_site_fract_y
_atom_site_fract_z
Si1 Si 0.33614(3) 0.27871(5) 0.248184(19)
O1 O 0.31292(12) -0.15179(18) 0.39655(5)
O2 O 0.29373(11) 0.72432(17) 0.10748(5)
C1 C 0.27792(11) 0.21257(19) 0.27766(6)
C2 C 0.22108(11) 0.24053(19) 0.26618(6)
C3 C 0.21950(11) 0.31761(18) 0.23531(6)
C4 C 0.27455(11) 0.34457(19) 0.22098(6)
C5 C 0.38500(13) 0.1903(2) 0.22141(7)
H1 H 0.4098 0.1512 0.2390
H2 H 0.4122 0.2273 0.2045
H3 H 0.3588 0.1458 0.2066
C6 C 0.38501(13) 0.3684(2) 0.27379(8)
H4 H 0.4159 0.3324 0.2886
H5 H 0.3594 0.4083 0.2907
H6 H 0.4057 0.4120 0.2557
C7 C 0.29137(11) 0.1373(2) 0.30655(6)
C8 C 0.33368(14) 0.1584(2) 0.33467(7)
H7 H 0.3535 0.2212 0.3349
C9 C 0.34751(15) 0.0899(3) 0.36230(8)
H8 H 0.3758 0.1068 0.3817
C10 C 0.32078(13) -0.0023(2) 0.36210(7)
C11 C 0.27907(13) -0.0257(2) 0.33374(6)
H9 H 0.2603 -0.0894 0.3332
C12 C 0.26484(11) 0.0440(2) 0.30624(6)
H10 H 0.2364 0.0272 0.2869
C13 C 0.33572(17) -0.0718(3) 0.39244(8)
H11 H 0.3659 -0.0518 0.4102
C14 C 0.16246(11) 0.20304(18) 0.28270(6)
C15 C 0.15340(11) 0.20627(19) 0.32160(6)
H12 H 0.1854 0.2292 0.3376
C16 C 0.09806(13) 0.1763(2) 0.33694(7)
H13 H 0.0923 0.1791 0.3634
C17 C 0.05135(12) 0.1425(2) 0.31443(8)
H14 H 0.0131 0.1234 0.3252
C18 C 0.06029(12) 0.1365(2) 0.27600(7)
H15 H 0.0284 0.1118 0.2603
C19 C 0.11523(11) 0.16605(18) 0.26043(6)
H16 H 0.1210 0.1611 0.2340
C20 C 0.15920(11) 0.35753(18) 0.22214(6)
C21 C 0.11746(11) 0.39917(19) 0.24720(7)
H17 H 0.1282 0.4052 0.2730
C22 C 0.06074(12) 0.4318(2) 0.23523(8)
H18 H 0.0327 0.4601 0.2527
C23 C 0.04483(13) 0.4233(2) 0.19772(8)
H19 H 0.0056 0.4453 0.1894
C24 C 0.08552(13) 0.3833(2) 0.17243(7)
H20 H 0.0744 0.3778 0.1466
C25 C 0.14292(11) 0.3508(2) 0.18427(6)
H21 H 0.1711 0.3239 0.1666
C26 C 0.28495(11) 0.42253(19) 0.19251(6)
C27 C 0.26187(11) 0.51858(19) 0.19664(6)
H22 H 0.2381 0.5345 0.2183
C28 C 0.27280(11) 0.59067(19) 0.17011(6)
H23 H 0.2571 0.6558 0.1736
C29 C 0.30700(12) 0.5681(2) 0.13799(6)
C30 C 0.33069(13) 0.4746(2) 0.13391(7)
H24 H 0.3544 0.4593 0.1122
C31 C 0.32079(12) 0.4016(2) 0.16077(7)
H25 H 0.3383 0.3376 0.1576
C32 C 0.31567(14) 0.6417(2) 0.10800(7)
H26 H 0.3406 0.6229 0.0872
Si2 Si 0.57855(3) 0.25171(6) 0.018082(18)
O3 O 0.49022(17) 0.5752(2) 0.18783(7)
O4 O 0.60780(11) -0.19926(16) -0.12279(5)
C33 C 0.50535(12) 0.31754(19) 0.03271(6)
C34 C 0.46064(12) 0.2922(2) 0.00811(6)
C35 C 0.47750(12) 0.21459(19) -0.02079(6)
C36 C 0.53729(12) 0.18486(19) -0.02036(6)
C37 C 0.63859(12) 0.3407(2) 0.00164(7)
H27 H 0.6730 0.3038 -0.0093
H28 H 0.6533 0.3801 0.0230
H29 H 0.6210 0.3850 -0.0174
C38 C 0.61274(13) 0.1639(2) 0.05253(6)
H30 H 0.6439 0.1231 0.0399
H31 H 0.5804 0.1210 0.0628
H32 H 0.6320 0.2013 0.0731
C39 C 0.49893(12) 0.3902(2) 0.06363(6)
C40 C 0.48638(13) 0.4902(2) 0.05742(7)
H33 H 0.4808 0.5135 0.0324
C41 C 0.48188(14) 0.5561(2) 0.08707(7)
H34 H 0.4733 0.6240 0.0822
C42 C 0.48974(15) 0.5240(3) 0.12420(7)
C43 C 0.50294(15) 0.4250(3) 0.13040(7)
H35 H 0.5088 0.4020 0.1554
C44 C 0.50777(14) 0.3591(2) 0.10085(7)
H36 H 0.5173 0.2915 0.1058
C45 C 0.48303(18) 0.5991(3) 0.15482(8)
H37 H 0.4731 0.6658 0.1487
C46 C 0.39696(12) 0.3325(2) 0.00887(6)
C47 C 0.36155(13) 0.3264(2) 0.04124(7)
H38 H 0.3789 0.2995 0.0636
C48 C 0.30081(13) 0.3593(2) 0.04142(8)
H39 H 0.2772 0.3554 0.0639
C49 C 0.27493(14) 0.3972(2) 0.00925(8)
H40 H 0.2334 0.4191 0.0094
C50 C 0.30914(13) 0.4036(2) -0.02327(8)
H41 H 0.2913 0.4298 -0.0456
C51 C 0.36997(13) 0.3715(2) -0.02343(7)
H42 H 0.3934 0.3763 -0.0459
C52 C 0.43023(13) 0.1731(2) -0.04680(7)
C53 C 0.37483(14) 0.1350(2) -0.03341(9)
H43 H 0.3661 0.1373 -0.0072
C54 C 0.33258(16) 0.0941(2) -0.05779(11)
H44 H 0.2944 0.0703 -0.0484
C55 C 0.34558(19) 0.0876(3) -0.09604(12)
H45 H 0.3171 0.0569 -0.1126
C56 C 0.39971(18) 0.1256(3) -0.10975(9)
H46 H 0.4082 0.1223 -0.1360
C57 C 0.44232(15) 0.1690(2) -0.08535(8)
H47 H 0.4795 0.1957 -0.0950
C58 C 0.56287(11) 0.10334(19) -0.04332(6)
C59 C 0.53209(12) 0.01299(19) -0.04730(6)
H48 H 0.4944 0.0026 -0.0344
C60 C 0.55592(12) -0.0621(2) -0.06997(7)
H49 H 0.5342 -0.1230 -0.0726
C61 C 0.61141(12) -0.0485(2) -0.08886(7)
C62 C 0.64323(13) 0.0395(2) -0.08371(7)
H50 H 0.6816 0.0490 -0.0960
C63 C 0.61972(12) 0.1140(2) -0.06089(6)
H51 H 0.6427 0.1732 -0.0572
C64 C 0.63436(14) -0.1238(2) -0.11498(7)
H52 H 0.6730 -0.1123 -0.1266
loop_
_geom_bond_atom_site_label_1
_geom_bond_atom_site_label_2
_geom_bond_site_symmetry_1
_geom_bond_site_symmetry_2
Si1 C1 1_555 1_555
O1 C13 1_555 1_555
O2 C32 1_555 1_555
C1 C2 1_555 1_555
C2 C3 1_555 1_555
C3 C4 1_555 1_555
C4 Si1 1_555 1_555
C5 Si1 1_555 1_555
H1 C5 1_555 1_555
H2 C5 1_555 1_555
H3 C5 1_555 1_555
C6 Si1 1_555 1_555
H4 C6 1_555 1_555
H5 C6 1_555 1_555
H6 C6 1_555 1_555
C7 C1 1_555 1_555
C8 C7 1_555 1_555
H7 C8 1_555 1_555
C9 C8 1_555 1_555
H8 C9 1_555 1_555
C10 C9 1_555 1_555
C11 C10 1_555 1_555
H9 C11 1_555 1_555
C12 C7 1_555 1_555
H10 C12 1_555 1_555
C13 C10 1_555 1_555
H11 C13 1_555 1_555
C14 C2 1_555 1_555
C15 C14 1_555 1_555
H12 C15 1_555 1_555
C16 C15 1_555 1_555
H13 C16 1_555 1_555
C17 C16 1_555 1_555
H14 C17 1_555 1_555
C18 C17 1_555 1_555
H15 C18 1_555 1_555
C19 C14 1_555 1_555
H16 C19 1_555 1_555
C20 C3 1_555 1_555
C21 C20 1_555 1_555
H17 C21 1_555 1_555
C22 C21 1_555 1_555
H18 C22 1_555 1_555
C23 C22 1_555 1_555
H19 C23 1_555 1_555
C24 C23 1_555 1_555
H20 C24 1_555 1_555
C25 C20 1_555 1_555
H21 C25 1_555 1_555
C26 C4 1_555 1_555
C27 C26 1_555 1_555
H22 C27 1_555 1_555
C28 C27 1_555 1_555
H23 C28 1_555 1_555
C29 C28 1_555 1_555
C30 C29 1_555 1_555
H24 C30 1_555 1_555
C31 C26 1_555 1_555
H25 C31 1_555 1_555
C32 C29 1_555 1_555
H26 C32 1_555 1_555
Si2 C33 1_555 1_555
O3 C45 1_555 1_555
O4 C64 1_555 1_555
C33 C34 1_555 1_555
C34 C35 1_555 1_555
C35 C36 1_555 1_555
C36 Si2 1_555 1_555
C37 Si2 1_555 1_555
H27 C37 1_555 1_555
H28 C37 1_555 1_555
H29 C37 1_555 1_555
C38 Si2 1_555 1_555
H30 C38 1_555 1_555
H31 C38 1_555 1_555
H32 C38 1_555 1_555
C39 C33 1_555 1_555
C40 C39 1_555 1_555
H33 C40 1_555 1_555
C41 C40 1_555 1_555
H34 C41 1_555 1_555
C42 C41 1_555 1_555
C43 C42 1_555 1_555
H35 C43 1_555 1_555
C44 C39 1_555 1_555
H36 C44 1_555 1_555
C45 C42 1_555 1_555
H37 C45 1_555 1_555
C46 C34 1_555 1_555
C47 C46 1_555 1_555
H38 C47 1_555 1_555
C48 C47 1_555 1_555
H39 C48 1_555 1_555
C49 C48 1_555 1_555
H40 C49 1_555 1_555
C50 C49 1_555 1_555
H41 C50 1_555 1_555
C51 C46 1_555 1_555
H42 C51 1_555 1_555
C52 C35 1_555 1_555
C53 C52 1_555 1_555
H43 C53 1_555 1_555
C54 C53 1_555 1_555
H44 C54 1_555 1_555
C55 C54 1_555 1_555
H45 C55 1_555 1_555
C56 C55 1_555 1_555
H46 C56 1_555 1_555
C57 C52 1_555 1_555
H47 C57 1_555 1_555
C58 C36 1_555 1_555
C59 C58 1_555 1_555
H48 C59 1_555 1_555
C60 C59 1_555 1_555
H49 C60 1_555 1_555
C61 C60 1_555 1_555
C62 C61 1_555 1_555
H50 C62 1_555 1_555
C63 C58 1_555 1_555
H51 C63 1_555 1_555
C64 C61 1_555 1_555
H52 C64 1_555 1_555
C11 C12 1_555 1_555
C18 C19 1_555 1_555
C24 C25 1_555 1_555
C30 C31 1_555 1_555
C43 C44 1_555 1_555
C50 C51 1_555 1_555
C56 C57 1_555 1_555
C62 C63 1_555 1_555

#END
