
#######################################################################
#
#                 Cambridge Crystallographic Data Centre
#                                CCDC 
#
#######################################################################
#
# If this CIF has been generated from an entry in the Cambridge 
# Structural Database, then it will include bibliographic, chemical, 
# crystal, experimental, refinement or atomic coordinate data resulting 
# from the CCDC's data processing and validation procedures.
#
#######################################################################

data_GALTAQ
_chemical_formula_moiety         'C54 H44 N2 Si1'
_chemical_name_systematic        
4,4'-(1,1-Dimethyl-3,4-diphenyl-1H-silole-2,5-diyl)bis(N,N-diphenylaniline)
_symmetry_cell_setting           monoclinic
_symmetry_space_group_name_H-M   'P 21/c'
_symmetry_Int_Tables_number      14
_space_group_name_Hall           '-P 2ybc'
loop_
_symmetry_equiv_pos_site_id
_symmetry_equiv_pos_as_xyz
1 x,y,z
2 -x,1/2+y,1/2-z
3 -x,-y,-z
4 x,1/2-y,1/2+z
_cell_length_a                   20.3587(4)
_cell_length_b                   11.0369(3)
_cell_length_c                   18.2729(8)
_cell_angle_alpha                90
_cell_angle_beta                 93.111(2)
_cell_angle_gamma                90
_cell_volume                     4099.81
_exptl_crystal_colour            yellow
_exptl_crystal_description       plate
_chemical_melting_point          '519.15 K'
_cell_formula_units_Z            4
_exptl_crystal_recrystallization_method tetrahydrofuran/hexane
_exptl_crystal_preparation       Luminescent
loop_
_atom_site_label
_atom_site_type_symbol
_atom_site_fract_x
_atom_site_fract_y
_atom_site_fract_z
Si1 Si 0.625837(18) 0.15986(4) 0.35437(2)
N1 N 0.28448(6) 0.17463(13) 0.33955(7)
N2 N 0.96685(6) 0.12899(11) 0.36297(8)
C1 C 0.55742(7) 0.14933(13) 0.28228(9)
C2 C 0.58453(6) 0.15023(13) 0.21599(9)
C3 C 0.65865(6) 0.14653(12) 0.21815(8)
C4 C 0.69058(6) 0.14856(13) 0.28536(8)
C5 C 0.63120(8) 0.03730(19) 0.42420(10)
H1 H 0.6723 0.0456 0.4543
H2 H 0.6304 -0.0416 0.3996
H3 H 0.5938 0.0433 0.4555
C6 C 0.62150(8) 0.31135(17) 0.39823(10)
H4 H 0.6550 0.3168 0.4387
H5 H 0.5778 0.3227 0.4172
H6 H 0.6294 0.3744 0.3619
C7 C 0.48683(7) 0.15988(14) 0.29608(9)
C8 C 0.44357(7) 0.24039(16) 0.25916(10)
H7 H 0.4597 0.2919 0.2225
C9 C 0.37793(7) 0.24685(16) 0.27468(10)
H8 H 0.3498 0.3031 0.2491
C10 C 0.35267(7) 0.17150(14) 0.32763(9)
C11 C 0.39532(7) 0.09367(14) 0.36651(9)
H9 H 0.3793 0.0432 0.4037
C12 C 0.46110(7) 0.08955(14) 0.35116(9)
H10 H 0.4897 0.0371 0.3791
C13 C 0.54585(6) 0.16102(13) 0.14511(8)
C14 C 0.55150(7) 0.26454(14) 0.10215(9)
H11 H 0.5835 0.3242 0.1160
C15 C 0.51128(8) 0.28152(16) 0.03975(10)
H12 H 0.5148 0.3538 0.0120
C16 C 0.46629(8) 0.19493(19) 0.01739(10)
H13 H 0.4394 0.2061 -0.0262
C17 C 0.46055(9) 0.09173(19) 0.05867(12)
H14 H 0.4294 0.0314 0.0435
C18 C 0.49985(8) 0.07493(16) 0.12237(11)
H15 H 0.4951 0.0035 0.1506
C19 C 0.69358(6) 0.14093(12) 0.14893(8)
C20 C 0.69137(7) 0.03771(14) 0.10554(9)
H16 H 0.6628 -0.0271 0.1166
C21 C 0.73084(8) 0.02870(15) 0.04586(9)
H17 H 0.7301 -0.0432 0.0172
C22 C 0.77092(7) 0.12344(14) 0.02824(9)
H18 H 0.7984 0.1162 -0.0119
C23 C 0.77123(7) 0.22853(14) 0.06863(9)
H19 H 0.7975 0.2952 0.0552
C24 C 0.73319(7) 0.23696(14) 0.12896(9)
H20 H 0.7341 0.3093 0.1571
C25 C 0.76215(7) 0.14039(13) 0.30307(8)
C26 C 0.78872(7) 0.20093(15) 0.36445(9)
H21 H 0.7603 0.2464 0.3935
C27 C 0.85545(7) 0.19732(15) 0.38483(9)
H22 H 0.8718 0.2402 0.4271
C28 C 0.89819(6) 0.13148(13) 0.34381(9)
C29 C 0.87218(7) 0.06668(14) 0.28376(9)
H23 H 0.9005 0.0188 0.2560
C30 C 0.80559(7) 0.07078(13) 0.26383(9)
H24 H 0.7891 0.0254 0.2227
C31 C 0.23937(7) 0.16014(14) 0.27781(9)
C32 C 0.25052(10) 0.07573(18) 0.22395(11)
H25 H 0.2886 0.0260 0.2275
C33 C 0.20520(13) 0.0645(2) 0.16442(12)
H26 H 0.2125 0.0070 0.1270
C34 C 0.14944(11) 0.1372(3) 0.15958(13)
H27 H 0.1185 0.1289 0.1190
C35 C 0.13886(9) 0.2205(2) 0.21299(12)
H28 H 0.1009 0.2706 0.2094
C36 C 0.18319(7) 0.23182(16) 0.27182(10)
H29 H 0.1754 0.2894 0.3090
C37 C 0.26219(6) 0.15211(13) 0.41076(8)
C38 C 0.21287(7) 0.06815(14) 0.42132(9)
H30 H 0.1945 0.0229 0.3809
C39 C 0.19028(7) 0.05013(15) 0.49076(10)
H31 H 0.1569 -0.0082 0.4977
C40 C 0.21566(8) 0.11564(16) 0.54961(10)
H32 H 0.1993 0.1043 0.5968
C41 C 0.26559(8) 0.19866(16) 0.53929(10)
H33 H 0.2838 0.2438 0.5798
C42 C 0.28901(7) 0.21605(14) 0.47041(9)
H34 H 0.3236 0.2721 0.4640
C43 C 1.00233(7) 0.23546(14) 0.38197(8)
C44 C 0.97979(8) 0.34886(15) 0.35890(10)
H35 H 0.9395 0.3557 0.3304
C45 C 1.01579(9) 0.45194(16) 0.37737(12)
H36 H 0.9997 0.5290 0.3617
C46 C 1.07489(8) 0.44417(16) 0.41834(12)
H37 H 1.0995 0.5152 0.4304
C47 C 1.09742(7) 0.33217(15) 0.44124(10)
H38 H 1.1378 0.3259 0.4695
C48 C 1.06177(7) 0.22865(14) 0.42343(9)
H39 H 1.0780 0.1519 0.4396
C49 C 1.00004(6) 0.01472(13) 0.36215(9)
C50 C 0.97942(7) -0.07986(14) 0.40484(9)
H40 H 0.9429 -0.0689 0.4344
C51 C 1.01171(8) -0.19093(15) 0.40482(10)
H41 H 0.9970 -0.2556 0.4340
C52 C 1.06490(8) -0.20740(15) 0.36262(10)
H42 H 1.0869 -0.2833 0.3625
C53 C 1.08595(7) -0.11310(16) 0.32064(10)
H43 H 1.1230 -0.1239 0.2919
C54 C 1.05371(7) -0.00240(15) 0.31984(10)
H44 H 1.0685 0.0618 0.2902
loop_
_geom_bond_atom_site_label_1
_geom_bond_atom_site_label_2
_geom_bond_site_symmetry_1
_geom_bond_site_symmetry_2
Si1 C1 1_555 1_555
N1 C10 1_555 1_555
N2 C28 1_555 1_555
C1 C2 1_555 1_555
C2 C3 1_555 1_555
C3 C4 1_555 1_555
C4 Si1 1_555 1_555
C5 Si1 1_555 1_555
H1 C5 1_555 1_555
H2 C5 1_555 1_555
H3 C5 1_555 1_555
C6 Si1 1_555 1_555
H4 C6 1_555 1_555
H5 C6 1_555 1_555
H6 C6 1_555 1_555
C7 C1 1_555 1_555
C8 C7 1_555 1_555
H7 C8 1_555 1_555
C9 C8 1_555 1_555
H8 C9 1_555 1_555
C10 C9 1_555 1_555
C11 C10 1_555 1_555
H9 C11 1_555 1_555
C12 C7 1_555 1_555
H10 C12 1_555 1_555
C13 C2 1_555 1_555
C14 C13 1_555 1_555
H11 C14 1_555 1_555
C15 C14 1_555 1_555
H12 C15 1_555 1_555
C16 C15 1_555 1_555
H13 C16 1_555 1_555
C17 C16 1_555 1_555
H14 C17 1_555 1_555
C18 C13 1_555 1_555
H15 C18 1_555 1_555
C19 C3 1_555 1_555
C20 C19 1_555 1_555
H16 C20 1_555 1_555
C21 C20 1_555 1_555
H17 C21 1_555 1_555
C22 C21 1_555 1_555
H18 C22 1_555 1_555
C23 C22 1_555 1_555
H19 C23 1_555 1_555
C24 C19 1_555 1_555
H20 C24 1_555 1_555
C25 C4 1_555 1_555
C26 C25 1_555 1_555
H21 C26 1_555 1_555
C27 C26 1_555 1_555
H22 C27 1_555 1_555
C28 C27 1_555 1_555
C29 C28 1_555 1_555
H23 C29 1_555 1_555
C30 C25 1_555 1_555
H24 C30 1_555 1_555
C31 N1 1_555 1_555
C32 C31 1_555 1_555
H25 C32 1_555 1_555
C33 C32 1_555 1_555
H26 C33 1_555 1_555
C34 C33 1_555 1_555
H27 C34 1_555 1_555
C35 C34 1_555 1_555
H28 C35 1_555 1_555
C36 C31 1_555 1_555
H29 C36 1_555 1_555
C37 N1 1_555 1_555
C38 C37 1_555 1_555
H30 C38 1_555 1_555
C39 C38 1_555 1_555
H31 C39 1_555 1_555
C40 C39 1_555 1_555
H32 C40 1_555 1_555
C41 C40 1_555 1_555
H33 C41 1_555 1_555
C42 C37 1_555 1_555
H34 C42 1_555 1_555
C43 N2 1_555 1_555
C44 C43 1_555 1_555
H35 C44 1_555 1_555
C45 C44 1_555 1_555
H36 C45 1_555 1_555
C46 C45 1_555 1_555
H37 C46 1_555 1_555
C47 C46 1_555 1_555
H38 C47 1_555 1_555
C48 C43 1_555 1_555
H39 C48 1_555 1_555
C49 N2 1_555 1_555
C50 C49 1_555 1_555
H40 C50 1_555 1_555
C51 C50 1_555 1_555
H41 C51 1_555 1_555
C52 C51 1_555 1_555
H42 C52 1_555 1_555
C53 C52 1_555 1_555
H43 C53 1_555 1_555
C54 C49 1_555 1_555
H44 C54 1_555 1_555
C11 C12 1_555 1_555
C17 C18 1_555 1_555
C23 C24 1_555 1_555
C29 C30 1_555 1_555
C35 C36 1_555 1_555
C41 C42 1_555 1_555
C47 C48 1_555 1_555
C53 C54 1_555 1_555

#END
