
#######################################################################
#
#                 Cambridge Crystallographic Data Centre
#                                CCDC 
#
#######################################################################
#
# If this CIF has been generated from an entry in the Cambridge 
# Structural Database, then it will include bibliographic, chemical, 
# crystal, experimental, refinement or atomic coordinate data resulting 
# from the CCDC's data processing and validation procedures.
#
#######################################################################

data_GAMBII
_chemical_formula_moiety         'C25 H34 N4 P4 2+,C4 H8 O1,2(Br1 1-)'
_chemical_name_systematic        
"12,12'-methylenebis(2,3,4,7,8,9,10,12-octahydro-1H-[1,2,3]benzodiazaphospholo[2,1-a][1,2,3]benzodiazaphosphol-5-ium) bromide tetrahydrofuran solvate"
_symmetry_cell_setting           monoclinic
_symmetry_space_group_name_H-M   'P 21/n'
_symmetry_Int_Tables_number      14
_space_group_name_Hall           '-P 2yn'
loop_
_symmetry_equiv_pos_site_id
_symmetry_equiv_pos_as_xyz
1 x,y,z
2 1/2-x,1/2+y,1/2-z
3 -x,-y,-z
4 1/2+x,1/2-y,1/2+z
_cell_length_a                   12.0766(5)
_cell_length_b                   12.7831(6)
_cell_length_c                   20.4146(9)
_cell_angle_alpha                90
_cell_angle_beta                 95.7196(9)
_cell_angle_gamma                90
_cell_volume                     3135.84
_exptl_crystal_colour            yellow
_exptl_crystal_description       rhombus
_cell_formula_units_Z            4
loop_
_atom_site_label
_atom_site_type_symbol
_atom_site_fract_x
_atom_site_fract_y
_atom_site_fract_z
Br1 Br 0.72969(2) 0.59235(2) 0.46523(2)
Br2 Br 0.73836(2) 0.05766(2) 0.46294(2)
P1 P 1.10868(3) 0.15969(3) 0.49879(2)
P2 P 0.86248(3) 0.39945(3) 0.49448(2)
P3 P 0.60297(3) 0.40162(3) 0.47093(2)
P4 P 0.42483(4) 0.13766(3) 0.53475(2)
N1 N 1.02215(10) 0.25953(10) 0.47421(6)
N2 N 0.93911(10) 0.27802(10) 0.51310(6)
N3 N 0.53003(10) 0.27670(10) 0.47273(6)
N4 N 0.51072(10) 0.24312(10) 0.53316(6)
C1 C 1.02916(13) 0.13839(12) 0.56339(8)
C2 C 0.94313(12) 0.21062(12) 0.56320(7)
C3 C 0.85871(13) 0.21561(13) 0.61142(8)
H1 H 0.7838 0.2217 0.5872
H2 H 0.8720 0.2792 0.6387
C4 C 0.8610(3) 0.1209(3) 0.6561(2)
H3 H 0.8200 0.0625 0.6328
H4 H 0.8237 0.1378 0.6958
C5 C 0.9807(2) 0.0875(2) 0.67644(13)
H5 H 0.9807 0.0279 0.7074
H6 H 1.0213 0.1461 0.6997
C6 C 1.04304(14) 0.05440(13) 0.61538(8)
H7 H 1.1231 0.0439 0.6294
H8 H 1.0121 -0.0124 0.5971
C7 C 0.94735(12) 0.41137(12) 0.42598(7)
C8 C 1.02262(12) 0.33513(12) 0.42397(7)
C9 C 1.10296(13) 0.32133(12) 0.37394(8)
H9 H 1.1078 0.2464 0.3623
H10 H 1.1778 0.3450 0.3922
C10 C 1.06457(14) 0.38497(13) 0.31236(8)
H11 H 1.1263 0.3902 0.2840
H12 H 1.0018 0.3485 0.2871
C11 C 1.02795(13) 0.49449(13) 0.33035(8)
H13 H 1.0045 0.5335 0.2894
H14 H 1.0922 0.5318 0.3536
C12 C 0.93244(12) 0.49390(12) 0.37390(8)
H15 H 0.9278 0.5632 0.3951
H16 H 0.8616 0.4816 0.3462
C13 C 0.60890(12) 0.39562(12) 0.56039(7)
C14 C 0.55678(13) 0.31185(12) 0.58218(8)
C15 C 0.54111(14) 0.28603(14) 0.65191(8)
H17 H 0.5597 0.2116 0.6607
H18 H 0.4624 0.2971 0.6597
C16 C 0.61607(15) 0.35549(14) 0.69814(8)
H19 H 0.5924 0.3515 0.7431
H20 H 0.6939 0.3304 0.6998
C17 C 0.60968(15) 0.46839(14) 0.67426(8)
H21 H 0.6537 0.5134 0.7066
H22 H 0.5314 0.4923 0.6712
C18 C 0.65386(13) 0.47967(13) 0.60713(8)
H23 H 0.6325 0.5490 0.5884
H24 H 0.7361 0.4758 0.6126
C19 C 0.41726(13) 0.13566(13) 0.44962(8)
C20 C 0.47858(12) 0.21679(12) 0.42560(8)
C21 C 0.49289(13) 0.23773(13) 0.35520(8)
H25 H 0.5671 0.2132 0.3452
H26 H 0.4881 0.3139 0.3466
C22 C 0.40227(15) 0.18085(13) 0.31110(8)
H27 H 0.3301 0.2170 0.3129
H28 H 0.4208 0.1821 0.2649
C23 C 0.39272(16) 0.06816(14) 0.33382(9)
H29 H 0.4662 0.0336 0.3343
H30 H 0.3396 0.0301 0.3023
C24 C 0.35314(14) 0.06242(14) 0.40235(8)
H31 H 0.2731 0.0804 0.3996
H32 H 0.3620 -0.0101 0.4191
C25 C 0.73507(12) 0.34093(12) 0.45175(8)
H33 H 0.7333 0.2658 0.4633
H34 H 0.7396 0.3458 0.4037
O1 O 0.79131(11) 0.28740(10) 0.30168(6)
C28 C 0.75975(16) 0.30561(14) 0.23367(9)
H41 H 0.8256 0.3228 0.2105
H42 H 0.7059 0.3640 0.2277
C29 C 0.70696(18) 0.20430(15) 0.20773(10)
H43 H 0.7209 0.1925 0.1613
H44 H 0.6257 0.2046 0.2108
C30 C 0.76448(17) 0.12118(16) 0.25278(10)
H45 H 0.7091 0.0764 0.2720
H46 H 0.8132 0.0765 0.2284
C31 C 0.83220(16) 0.18297(14) 0.30593(9)
H47 H 0.8233 0.1531 0.3499
H48 H 0.9121 0.1813 0.2988
C26? C 0.8949(5) 0.1409(3) 0.6678(2)
H35? H 0.9545 0.1748 0.6972
H36? H 0.8310 0.1287 0.6937
C27? C 0.9374(3) 0.0353(3) 0.64597(19)
H37? H 0.9513 -0.0120 0.6843
H38? H 0.8815 0.0023 0.6137
H39? H 1.0669 -0.0113 0.5953
H40? H 1.1021 0.0755 0.6500
loop_
_geom_bond_atom_site_label_1
_geom_bond_atom_site_label_2
_geom_bond_site_symmetry_1
_geom_bond_site_symmetry_2
P1 N1 1_555 1_555
P2 N2 1_555 1_555
P3 N3 1_555 1_555
P4 N4 1_555 1_555
N1 N2 1_555 1_555
N2 C2 1_555 1_555
N3 N4 1_555 1_555
N4 C14 1_555 1_555
C1 P1 1_555 1_555
C2 C1 1_555 1_555
C3 C2 1_555 1_555
H1 C3 1_555 1_555
H2 C3 1_555 1_555
C4 C3 1_555 1_555
H3 C4 1_555 1_555
H4 C4 1_555 1_555
C5 C4 1_555 1_555
H5 C5 1_555 1_555
H6 C5 1_555 1_555
C6 C1 1_555 1_555
H7 C6 1_555 1_555
H8 C6 1_555 1_555
C7 P2 1_555 1_555
C8 N1 1_555 1_555
C9 C8 1_555 1_555
H9 C9 1_555 1_555
H10 C9 1_555 1_555
C10 C9 1_555 1_555
H11 C10 1_555 1_555
H12 C10 1_555 1_555
C11 C10 1_555 1_555
H13 C11 1_555 1_555
H14 C11 1_555 1_555
C12 C7 1_555 1_555
H15 C12 1_555 1_555
H16 C12 1_555 1_555
C13 P3 1_555 1_555
C14 C13 1_555 1_555
C15 C14 1_555 1_555
H17 C15 1_555 1_555
H18 C15 1_555 1_555
C16 C15 1_555 1_555
H19 C16 1_555 1_555
H20 C16 1_555 1_555
C17 C16 1_555 1_555
H21 C17 1_555 1_555
H22 C17 1_555 1_555
C18 C13 1_555 1_555
H23 C18 1_555 1_555
H24 C18 1_555 1_555
C19 P4 1_555 1_555
C20 N3 1_555 1_555
C21 C20 1_555 1_555
H25 C21 1_555 1_555
H26 C21 1_555 1_555
C22 C21 1_555 1_555
H27 C22 1_555 1_555
H28 C22 1_555 1_555
C23 C22 1_555 1_555
H29 C23 1_555 1_555
H30 C23 1_555 1_555
C24 C19 1_555 1_555
H31 C24 1_555 1_555
H32 C24 1_555 1_555
C25 P2 1_555 1_555
H33 C25 1_555 1_555
H34 C25 1_555 1_555
O1 C28 1_555 1_555
C28 H41 1_555 1_555
H42 C28 1_555 1_555
C29 C28 1_555 1_555
H43 C29 1_555 1_555
H44 C29 1_555 1_555
C30 C29 1_555 1_555
H45 C30 1_555 1_555
H46 C30 1_555 1_555
C31 O1 1_555 1_555
H47 C31 1_555 1_555
H48 C31 1_555 1_555
P3 C25 1_555 1_555
C5 C6 1_555 1_555
C7 C8 1_555 1_555
C11 C12 1_555 1_555
C17 C18 1_555 1_555
C19 C20 1_555 1_555
C23 C24 1_555 1_555
C30 C31 1_555 1_555

#END
