
#######################################################################
#
#                 Cambridge Crystallographic Data Centre
#                                CCDC 
#
#######################################################################
#
# If this CIF has been generated from an entry in the Cambridge 
# Structural Database, then it will include bibliographic, chemical, 
# crystal, experimental, refinement or atomic coordinate data resulting 
# from the CCDC's data processing and validation procedures.
#
#######################################################################

data_GAMHEI
_chemical_formula_moiety         'C22 H23 F1 O6'
_chemical_name_systematic        
(5a,8a,9b,11S)-5,7,8,9-Tetrahydro-11-(fluoromethyl)-9-(3,4,5-trimethoxyphenyl)-5,8-methano-1,3-dioxolo(4,5-h)(2)benzoxepin
_symmetry_cell_setting           orthorhombic
_symmetry_space_group_name_H-M   'P 21 21 21'
_symmetry_Int_Tables_number      19
_space_group_name_Hall           'P 2ac 2ab'
loop_
_symmetry_equiv_pos_site_id
_symmetry_equiv_pos_as_xyz
1 x,y,z
2 1/2-x,-y,1/2+z
3 1/2+x,1/2-y,-z
4 -x,1/2+y,1/2-z
_cell_length_a                   7.22530(10)
_cell_length_b                   8.12170(10)
_cell_length_c                   32.7768(4)
_cell_angle_alpha                90
_cell_angle_beta                 90
_cell_angle_gamma                90
_cell_volume                     1923.4
_exptl_crystal_colour            colorless
_exptl_crystal_description       prism
_chemical_melting_point          '481-483 K'
_cell_formula_units_Z            4
_exptl_crystal_recrystallization_method 'ethyl acetate'
loop_
_atom_site_label
_atom_site_type_symbol
_atom_site_fract_x
_atom_site_fract_y
_atom_site_fract_z
F1 F 0.3768(4) 0.1661(4) 0.43426(8)
O1 O 0.1314(3) 0.5638(3) 0.34866(7)
O2 O 0.5840(4) 0.3373(4) 0.21736(7)
O3 O 0.8477(3) 0.4349(4) 0.24895(6)
O4 O 0.8202(4) 1.0503(3) 0.36740(6)
O5 O 0.9504(3) 1.0411(3) 0.44375(7)
O6 O 0.8829(3) 0.7823(3) 0.49289(5)
C1 C 0.5417(3) 0.4926(3) 0.38474(7)
H1 H 0.602 0.3967 0.3971
C2 C 0.3417(4) 0.4952(4) 0.40196(8)
H2 H 0.3426 0.5016 0.4318
C3 C 0.2236(4) 0.6323(4) 0.38366(10)
H3 H 0.1337 0.6709 0.4034
H4 H 0.3009 0.7243 0.3756
C4 C 0.2338(4) 0.3426(4) 0.38727(9)
H5 H 0.1139 0.3406 0.4012
C5 C 0.3253(5) 0.1791(4) 0.39322(10)
H6 H 0.2404 0.0911 0.3861
H7 H 0.4336 0.1705 0.3759
C6 C 0.2027(4) 0.3987(4) 0.34330(9)
H8 H 0.1115 0.3285 0.3296
C7 C 0.3806(4) 0.4045(3) 0.31951(8)
C8 C 0.3818(4) 0.3607(4) 0.27804(9)
H9 H 0.2752 0.3239 0.265
C9 C 0.5451(4) 0.3743(4) 0.25763(8)
C10 C 0.7756(6) 0.3642(8) 0.21299(11)
H10 H 0.798 0.4371 0.1901
H11 H 0.8375 0.2605 0.2076
C11 C 0.7041(4) 0.4324(4) 0.27640(8)
C12 C 0.7075(3) 0.4749(3) 0.31684(8)
H12 H 0.8156 0.5117 0.3292
C13 C 0.5419(3) 0.4609(3) 0.33877(7)
C14 C 0.6516(3) 0.6412(3) 0.39879(7)
C15 C 0.6782(4) 0.7793(3) 0.37453(7)
H13 H 0.6293 0.7832 0.3483
C16 C 0.7790(4) 0.9123(3) 0.38980(8)
C17 C 0.8456(4) 0.9117(3) 0.42968(8)
C18 C 0.8149(3) 0.7732(3) 0.45409(7)
C19 C 0.7212(3) 0.6381(3) 0.43852(7)
H14 H 0.7046 0.545 0.4546
C20 C 0.7856(5) 1.0437(4) 0.32491(9)
H15 H 0.6553 1.0554 0.32
H16 H 0.8271 0.9398 0.3143
H17 H 0.851 1.1313 0.3115
C21 C 0.8560(7) 1.1537(5) 0.46829(13)
H18 H 0.7951 1.0962 0.4901
H19 H 0.7656 1.211 0.4522
H20 H 0.9423 1.2314 0.4795
C22 C 0.8616(4) 0.6388(4) 0.51769(8)
H21 H 0.9263 0.5483 0.5054
H22 H 0.7326 0.6121 0.52
H23 H 0.9116 0.6596 0.5443
loop_
_geom_bond_atom_site_label_1
_geom_bond_atom_site_label_2
_geom_bond_site_symmetry_1
_geom_bond_site_symmetry_2
F1 C5 1_555 1_555
O1 C3 1_555 1_555
O2 C9 1_555 1_555
O3 C10 1_555 1_555
O4 C16 1_555 1_555
O5 C17 1_555 1_555
O6 C18 1_555 1_555
C1 H1 1_555 1_555
C2 C1 1_555 1_555
H2 C2 1_555 1_555
C3 C2 1_555 1_555
H3 C3 1_555 1_555
H4 C3 1_555 1_555
C4 C2 1_555 1_555
H5 C4 1_555 1_555
C5 C4 1_555 1_555
H6 C5 1_555 1_555
H7 C5 1_555 1_555
C6 O1 1_555 1_555
H8 C6 1_555 1_555
C7 C6 1_555 1_555
C8 C7 1_555 1_555
H9 C8 1_555 1_555
C9 C8 1_555 1_555
C10 O2 1_555 1_555
H10 C10 1_555 1_555
H11 C10 1_555 1_555
C11 O3 1_555 1_555
C12 C11 1_555 1_555
H12 C12 1_555 1_555
C13 C1 1_555 1_555
C14 C1 1_555 1_555
C15 C14 1_555 1_555
H13 C15 1_555 1_555
C16 C15 1_555 1_555
C17 C16 1_555 1_555
C18 C17 1_555 1_555
C19 C14 1_555 1_555
H14 C19 1_555 1_555
C20 O4 1_555 1_555
H15 C20 1_555 1_555
H16 C20 1_555 1_555
H17 C20 1_555 1_555
C21 O5 1_555 1_555
H18 C21 1_555 1_555
H19 C21 1_555 1_555
H20 C21 1_555 1_555
C22 O6 1_555 1_555
H21 C22 1_555 1_555
H22 C22 1_555 1_555
H23 C22 1_555 1_555
C4 C6 1_555 1_555
C7 C13 1_555 1_555
C9 C11 1_555 1_555
C12 C13 1_555 1_555
C18 C19 1_555 1_555

#END
