
#######################################################################
#
#                 Cambridge Crystallographic Data Centre
#                                CCDC 
#
#######################################################################
#
# If this CIF has been generated from an entry in the Cambridge 
# Structural Database, then it will include bibliographic, chemical, 
# crystal, experimental, refinement or atomic coordinate data resulting 
# from the CCDC's data processing and validation procedures.
#
#######################################################################

data_GAMMOX
_chemical_formula_moiety         'C10 H8 N2 O1'
_chemical_name_systematic        8-amino-1-iminonaphthalen-2(1H)-one
_symmetry_cell_setting           monoclinic
_symmetry_space_group_name_H-M   'P 21/n'
_symmetry_Int_Tables_number      14
_space_group_name_Hall           '-P 2yn'
loop_
_symmetry_equiv_pos_site_id
_symmetry_equiv_pos_as_xyz
1 x,y,z
2 1/2-x,1/2+y,1/2-z
3 -x,-y,-z
4 1/2+x,1/2-y,1/2+z
_cell_length_a                   7.4462(8)
_cell_length_b                   7.8786(9)
_cell_length_c                   13.6251(15)
_cell_angle_alpha                90
_cell_angle_beta                 91.258(2)
_cell_angle_gamma                90
_cell_volume                     799.132
_exptl_crystal_colour            red
_exptl_crystal_description       rectangular
_cell_formula_units_Z            4
loop_
_atom_site_label
_atom_site_type_symbol
_atom_site_fract_x
_atom_site_fract_y
_atom_site_fract_z
C1 C 0.33560(14) 0.02413(16) 0.62559(8)
C2 C 0.40189(16) 0.19036(18) 0.63993(10)
H1 H 0.4529 0.2203 0.7012
C3 C 0.39356(17) 0.30845(17) 0.56673(11)
H2 H 0.4365 0.4189 0.5786
C4 C 0.32198(17) 0.26671(17) 0.47444(10)
H3 H 0.3170 0.3486 0.4243
C5 C 0.25839(14) 0.10434(15) 0.45702(8)
C6 C 0.26094(13) -0.01932(14) 0.53208(8)
C7 C 0.18773(14) -0.18721(15) 0.51170(8)
C8 C 0.12039(15) -0.22659(16) 0.40757(9)
C9 C 0.12208(16) -0.09107(17) 0.33598(9)
H4 H 0.0769 -0.1108 0.2720
C10 C 0.18704(16) 0.06147(17) 0.35982(9)
H5 H 0.1868 0.1461 0.3112
N1 N 0.34306(15) -0.08818(16) 0.70001(7)
H6 H 0.3886 -0.0582 0.7567
H7 H 0.3023 -0.1907 0.6914
N2 N 0.17441(15) -0.30279(14) 0.57752(8)
H8 H 0.1203(19) -0.400(2) 0.5520(11)
O1 O 0.06914(14) -0.37089(13) 0.38838(7)
loop_
_geom_bond_atom_site_label_1
_geom_bond_atom_site_label_2
_geom_bond_site_symmetry_1
_geom_bond_site_symmetry_2
C1 C2 1_555 1_555
C2 H1 1_555 1_555
C3 C2 1_555 1_555
H2 C3 1_555 1_555
C4 C3 1_555 1_555
H3 C4 1_555 1_555
C5 C4 1_555 1_555
C6 C1 1_555 1_555
C7 C6 1_555 1_555
C8 C7 1_555 1_555
C9 C8 1_555 1_555
H4 C9 1_555 1_555
C10 C5 1_555 1_555
H5 C10 1_555 1_555
N1 C1 1_555 1_555
H6 N1 1_555 1_555
H7 N1 1_555 1_555
N2 C7 1_555 1_555
H8 N2 1_555 1_555
O1 C8 1_555 1_555
C5 C6 1_555 1_555
C9 C10 1_555 1_555

#END
