
#######################################################################
#
#                 Cambridge Crystallographic Data Centre
#                                CCDC 
#
#######################################################################
#
# If this CIF has been generated from an entry in the Cambridge 
# Structural Database, then it will include bibliographic, chemical, 
# crystal, experimental, refinement or atomic coordinate data resulting 
# from the CCDC's data processing and validation procedures.
#
#######################################################################

data_GAMNEO
_chemical_formula_moiety         'C20 H16 N4'
_chemical_name_systematic        
2,3-dihydro-2-spiro-7'-(8'-imino-7',8'-dihydronaphthalen-1'-amine)perimidine
_symmetry_cell_setting           orthorhombic
_symmetry_space_group_name_H-M   'P n a 21'
_symmetry_Int_Tables_number      33
_space_group_name_Hall           'P 2c -2n'
loop_
_symmetry_equiv_pos_site_id
_symmetry_equiv_pos_as_xyz
1 x,y,z
2 -x,-y,1/2+z
3 1/2+x,1/2-y,z
4 1/2-x,1/2+y,1/2+z
_cell_length_a                   8.3581(7)
_cell_length_b                   23.522(2)
_cell_length_c                   7.8293(7)
_cell_angle_alpha                90
_cell_angle_beta                 90
_cell_angle_gamma                90
_cell_volume                     1539.23
_exptl_crystal_colour            yellow
_exptl_crystal_description       plate
_cell_formula_units_Z            4
loop_
_atom_site_label
_atom_site_type_symbol
_atom_site_fract_x
_atom_site_fract_y
_atom_site_fract_z
C1 C 0.20403(18) 0.40219(6) 0.1029(2)
C2 C 0.0708(2) 0.43487(7) 0.0683(3)
H1 H -0.0287 0.4259 0.1203
C3 C 0.0820(2) 0.48157(7) -0.0445(3)
H2 H -0.0107 0.5036 -0.0677
C4 C 0.2238(2) 0.49570(7) -0.1209(3)
H3 H 0.2283 0.5269 -0.1980
C5 C 0.36392(19) 0.46393(6) -0.0855(2)
C6 C 0.5133(2) 0.47607(7) -0.1626(2)
H4 H 0.5228 0.5071 -0.2397
C7 C 0.6439(2) 0.44321(7) -0.1264(3)
H5 H 0.7432 0.4518 -0.1793
C8 C 0.63478(19) 0.39702(7) -0.0126(3)
H6 H 0.7274 0.3750 0.0110
C9 C 0.49071(18) 0.38375(6) 0.0647(2)
C10 C 0.35318(18) 0.41718(6) 0.0289(2)
C11 C 0.33990(18) 0.33290(6) 0.2888(2)
C12 C 0.32014(19) 0.26836(6) 0.3282(2)
C13 C 0.37981(19) 0.24576(6) 0.4905(2)
C14 C 0.3934(2) 0.18657(6) 0.5228(2)
C15 C 0.4528(3) 0.16795(7) 0.6802(3)
H7 H 0.4640 0.1283 0.7006
C16 C 0.4949(3) 0.20574(9) 0.8053(3)
H8 H 0.5332 0.1922 0.9120
C17 C 0.4818(3) 0.26395(9) 0.7762(3)
H9 H 0.5112 0.2900 0.8633
C18 C 0.4258(2) 0.28403(7) 0.6203(2)
C19 C 0.4134(3) 0.34549(7) 0.5929(2)
H10 H 0.4345 0.3701 0.6864
C20 C 0.3740(2) 0.36831(6) 0.4441(2)
H11 H 0.3672 0.4085 0.4353
H12 H 0.297(3) 0.1592(10) 0.316(4)
H13 H 0.558(3) 0.3184(8) 0.197(3)
H14 H 0.103(3) 0.3489(9) 0.264(3)
H15 H 0.341(3) 0.1123(11) 0.440(4)
H16 H 0.224(3) 0.2573(10) 0.125(5)
N1 N 0.19418(16) 0.35233(5) 0.2004(2)
N2 N 0.47066(15) 0.33578(5) 0.16496(18)
N3 N 0.35930(19) 0.14622(6) 0.3996(2)
N4 N 0.2606(2) 0.23643(6) 0.2116(2)
loop_
_geom_bond_atom_site_label_1
_geom_bond_atom_site_label_2
_geom_bond_site_symmetry_1
_geom_bond_site_symmetry_2
C1 C2 1_555 1_555
C2 H1 1_555 1_555
C3 C2 1_555 1_555
H2 C3 1_555 1_555
C4 C3 1_555 1_555
H3 C4 1_555 1_555
C5 C4 1_555 1_555
C6 C5 1_555 1_555
H4 C6 1_555 1_555
C7 C6 1_555 1_555
H5 C7 1_555 1_555
C8 C7 1_555 1_555
H6 C8 1_555 1_555
C9 C8 1_555 1_555
C10 C1 1_555 1_555
C11 C12 1_555 1_555
C12 C13 1_555 1_555
C13 C14 1_555 1_555
C14 C15 1_555 1_555
C15 H7 1_555 1_555
C16 C15 1_555 1_555
H8 C16 1_555 1_555
C17 C16 1_555 1_555
H9 C17 1_555 1_555
C18 C13 1_555 1_555
C19 C18 1_555 1_555
H10 C19 1_555 1_555
C20 C11 1_555 1_555
H11 C20 1_555 1_555
H12 N3 1_555 1_555
H13 N2 1_555 1_555
H14 N1 1_555 1_555
H15 N3 1_555 1_555
H16 N4 1_555 1_555
N1 C1 1_555 1_555
N2 C9 1_555 1_555
N3 C14 1_555 1_555
N4 C12 1_555 1_555
C5 C10 1_555 1_555
C9 C10 1_555 1_555
C11 N1 1_555 1_555
C11 N2 1_555 1_555
C17 C18 1_555 1_555
C19 C20 1_555 1_555

#END
