
#######################################################################
#
#                 Cambridge Crystallographic Data Centre
#                                CCDC 
#
#######################################################################
#
# If this CIF has been generated from an entry in the Cambridge 
# Structural Database, then it will include bibliographic, chemical, 
# crystal, experimental, refinement or atomic coordinate data resulting 
# from the CCDC's data processing and validation procedures.
#
#######################################################################

data_GAMQAO
_chemical_formula_moiety         'C25 H26 N4 O6'
_chemical_name_systematic        
1-(3-(t-Butylperoxy)-1,3-diphenylpropylidene)-2-(2,4-dinitrophenyl)hydrazine
_symmetry_cell_setting           triclinic
_symmetry_space_group_name_H-M   'P -1'
_symmetry_Int_Tables_number      2
_space_group_name_Hall           '-P 1'
loop_
_symmetry_equiv_pos_site_id
_symmetry_equiv_pos_as_xyz
1 x,y,z
2 -x,-y,-z
_cell_length_a                   9.1415(17)
_cell_length_b                   10.268(2)
_cell_length_c                   12.839(3)
_cell_angle_alpha                91.609(3)
_cell_angle_beta                 93.379(3)
_cell_angle_gamma                92.450(3)
_cell_volume                     1201.37
_exptl_crystal_colour            brown
_exptl_crystal_description       block
_cell_formula_units_Z            2
loop_
_atom_site_label
_atom_site_type_symbol
_atom_site_fract_x
_atom_site_fract_y
_atom_site_fract_z
O1 O 0.23195(16) 0.67707(10) 0.21993(8)
O2 O 0.16810(16) 0.79367(10) 0.26779(8)
O3 O 0.19743(18) 0.37172(11) 0.30523(9)
O4 O 0.04611(18) 0.22385(12) 0.36050(9)
O5 O -0.25137(18) -0.06218(12) 0.13248(10)
O6 O -0.27528(19) -0.02266(13) -0.03302(10)
N1 N 0.19457(19) 0.42343(13) 0.10585(10)
H1 H 0.2345 0.4471 0.1661
N2 N 0.22964(19) 0.48851(12) 0.01832(10)
N3 N 0.1000(2) 0.28347(13) 0.28906(10)
N4 N -0.2203(2) 0.00106(14) 0.05610(12)
C1 C 0.0954(2) 0.32059(15) 0.09553(12)
C2 C 0.0471(2) 0.24907(15) 0.18214(12)
C3 C -0.0554(2) 0.14470(15) 0.16921(13)
H2 H -0.0859 0.0999 0.2266
C4 C -0.1106(2) 0.10915(15) 0.06999(13)
C5 C -0.0668(2) 0.17620(15) -0.01773(13)
H3 H -0.1059 0.1510 -0.0841
C6 C 0.0338(2) 0.27867(15) -0.00476(12)
H4 H 0.0628 0.3222 -0.0632
C7 C 0.3351(2) 0.57739(15) 0.02660(12)
C8 C 0.3647(2) 0.64265(15) -0.07306(12)
C9 C 0.2857(2) 0.60058(15) -0.16648(13)
H5 H 0.2119 0.5356 -0.1645
C10 C 0.3160(2) 0.65423(16) -0.26106(13)
H6 H 0.2626 0.6251 -0.3218
C11 C 0.4261(3) 0.75171(17) -0.26567(13)
H7 H 0.4472 0.7872 -0.3292
C12 C 0.5042(3) 0.79545(16) -0.17391(14)
H8 H 0.5775 0.8607 -0.1765
C13 C 0.4737(2) 0.74234(16) -0.07819(13)
H9 H 0.5258 0.7733 -0.0175
C14 C 0.4305(2) 0.61041(15) 0.12573(12)
H10 H 0.5287 0.6344 0.1063
H11 H 0.4367 0.5325 0.1665
C15 C 0.3773(2) 0.72112(15) 0.19561(12)
H12 H 0.3714 0.8008 0.1556
C16 C 0.4763(2) 0.74808(16) 0.29345(12)
C17 C 0.5133(2) 0.64835(17) 0.36102(13)
H13 H 0.4820 0.5627 0.3436
C18 C 0.5965(3) 0.67585(19) 0.45392(13)
H14 H 0.6203 0.6088 0.4982
C19 C 0.6439(3) 0.8036(2) 0.48062(14)
H15 H 0.6983 0.8222 0.5432
C20 C 0.6100(3) 0.90315(19) 0.41359(15)
H16 H 0.6428 0.9884 0.4308
C21 C 0.5265(3) 0.87553(16) 0.32036(13)
H17 H 0.5043 0.9427 0.2758
C22 C 0.0783(2) 0.75205(16) 0.35195(12)
C23 C 0.1694(3) 0.68923(19) 0.43830(13)
H18 H 0.2064 0.6094 0.4119
H19 H 0.1093 0.6709 0.4954
H20 H 0.2501 0.7477 0.4620
C24 C -0.0484(3) 0.66087(19) 0.30834(15)
H21 H -0.1060 0.7048 0.2564
H22 H -0.1088 0.6362 0.3638
H23 H -0.0100 0.5843 0.2774
C25 C 0.0228(3) 0.88243(17) 0.38927(14)
H24 H 0.1048 0.9411 0.4093
H25 H -0.0356 0.8691 0.4481
H26 H -0.0358 0.9191 0.3339
loop_
_geom_bond_atom_site_label_1
_geom_bond_atom_site_label_2
_geom_bond_site_symmetry_1
_geom_bond_site_symmetry_2
O1 O2 1_555 1_555
O2 C22 1_555 1_555
O3 N3 1_555 1_555
O4 N3 1_555 1_555
O5 N4 1_555 1_555
O6 N4 1_555 1_555
N1 H1 1_555 1_555
N2 N1 1_555 1_555
N3 C2 1_555 1_555
N4 C4 1_555 1_555
C1 N1 1_555 1_555
C2 C1 1_555 1_555
C3 C2 1_555 1_555
H2 C3 1_555 1_555
C4 C3 1_555 1_555
C5 C4 1_555 1_555
H3 C5 1_555 1_555
C6 C1 1_555 1_555
H4 C6 1_555 1_555
C7 N2 1_555 1_555
C8 C7 1_555 1_555
C9 C8 1_555 1_555
H5 C9 1_555 1_555
C10 C9 1_555 1_555
H6 C10 1_555 1_555
C11 C10 1_555 1_555
H7 C11 1_555 1_555
C12 C11 1_555 1_555
H8 C12 1_555 1_555
C13 C8 1_555 1_555
H9 C13 1_555 1_555
C14 C7 1_555 1_555
H10 C14 1_555 1_555
H11 C14 1_555 1_555
C15 O1 1_555 1_555
H12 C15 1_555 1_555
C16 C15 1_555 1_555
C17 C16 1_555 1_555
H13 C17 1_555 1_555
C18 C17 1_555 1_555
H14 C18 1_555 1_555
C19 C18 1_555 1_555
H15 C19 1_555 1_555
C20 C19 1_555 1_555
H16 C20 1_555 1_555
C21 C16 1_555 1_555
H17 C21 1_555 1_555
C22 C23 1_555 1_555
C23 H18 1_555 1_555
H19 C23 1_555 1_555
H20 C23 1_555 1_555
C24 C22 1_555 1_555
H21 C24 1_555 1_555
H22 C24 1_555 1_555
H23 C24 1_555 1_555
C25 C22 1_555 1_555
H24 C25 1_555 1_555
H25 C25 1_555 1_555
H26 C25 1_555 1_555
C5 C6 1_555 1_555
C12 C13 1_555 1_555
C14 C15 1_555 1_555
C20 C21 1_555 1_555

#END
