
#######################################################################
#
#                 Cambridge Crystallographic Data Centre
#                                CCDC 
#
#######################################################################
#
# If this CIF has been generated from an entry in the Cambridge 
# Structural Database, then it will include bibliographic, chemical, 
# crystal, experimental, refinement or atomic coordinate data resulting 
# from the CCDC's data processing and validation procedures.
#
#######################################################################

data_GAMWOJ
_chemical_formula_moiety         'C28 H18 Br2 N4 O3 S1'
_chemical_name_systematic        
N-{5-[(4-bromophenyl)diazenyl]quinolin-8-yl}-2-[(4-bromophenyl)sulfonyl]benzamide
_symmetry_cell_setting           monoclinic
_symmetry_space_group_name_H-M   'P 21/n'
_symmetry_Int_Tables_number      14
_space_group_name_Hall           '-P 2yn'
loop_
_symmetry_equiv_pos_site_id
_symmetry_equiv_pos_as_xyz
1 x,y,z
2 1/2-x,1/2+y,1/2-z
3 -x,-y,-z
4 1/2+x,1/2-y,1/2+z
_cell_length_a                   9.854(3)
_cell_length_b                   13.770(4)
_cell_length_c                   18.821(6)
_cell_angle_alpha                90
_cell_angle_beta                 90.928(6)
_cell_angle_gamma                90
_cell_volume                     2553.48
_exptl_crystal_colour            orange
_exptl_crystal_description       block
_cell_formula_units_Z            4
loop_
_atom_site_label
_atom_site_type_symbol
_atom_site_fract_x
_atom_site_fract_y
_atom_site_fract_z
Br1 Br 0.64021(9) -0.48721(7) 0.23128(5)
Br2 Br -0.70531(11) 0.10013(10) 0.59000(6)
S1 S -0.27456(17) 0.38077(12) 0.44792(9)
O1 O -0.3407(5) 0.4713(3) 0.4316(3)
O2 O -0.2043(5) 0.3313(4) 0.3926(2)
O3 O -0.0926(5) 0.1798(4) 0.5046(3)
N1 N 0.0898(5) 0.2487(4) 0.4518(3)
H1 H 0.1309 0.3042 0.4469
N2 N 0.3007(5) 0.2857(4) 0.3704(3)
N3 N 0.3623(6) -0.0571(5) 0.3159(3)
N4 N 0.3087(6) -0.1396(4) 0.3214(3)
C1 C -0.1577(6) 0.4036(4) 0.5186(3)
C2 C -0.0464(6) 0.3435(5) 0.5306(4)
C3 C 0.0402(7) 0.3712(6) 0.5860(4)
H2 H 0.1177 0.3334 0.5957
C4 C 0.0174(8) 0.4512(6) 0.6271(4)
H3 H 0.0800 0.4676 0.6633
C5 C -0.0934(7) 0.5069(5) 0.6163(4)
H4 H -0.1107 0.5601 0.6460
C6 C -0.1814(7) 0.4843(5) 0.5606(4)
H5 H -0.2575 0.5238 0.5513
C7 C -0.0215(6) 0.2496(5) 0.4932(4)
C8 C 0.2613(6) 0.1906(5) 0.3750(3)
C9 C 0.1474(6) 0.1698(5) 0.4159(4)
C10 C 0.1027(8) 0.0748(5) 0.4218(4)
H6 H 0.0253 0.0610 0.4485
C11 C 0.1715(7) -0.0002(5) 0.3885(4)
H7 H 0.1405 -0.0644 0.3937
C12 C 0.2831(7) 0.0173(5) 0.3486(3)
C13 C 0.3327(7) 0.1150(5) 0.3411(4)
C14 C 0.4472(7) 0.1408(6) 0.3008(4)
H8 H 0.4981 0.0928 0.2777
C15 C 0.4823(7) 0.2357(6) 0.2960(4)
H9 H 0.5576 0.2545 0.2692
C16 C 0.4054(7) 0.3047(5) 0.3311(4)
H10 H 0.4308 0.3701 0.3261
C17 C 0.3882(7) -0.2163(5) 0.2950(4)
C18 C 0.5091(7) -0.2045(5) 0.2571(4)
H11 H 0.5401 -0.1421 0.2455
C19 C 0.5820(7) -0.2860(6) 0.2372(4)
H12 H 0.6633 -0.2790 0.2123
C20 C 0.5350(7) -0.3767(5) 0.2541(4)
C21 C 0.4136(7) -0.3900(5) 0.2892(4)
H13 H 0.3821 -0.4527 0.2998
C22 C 0.3400(7) -0.3089(5) 0.3081(4)
H14 H 0.2558 -0.3167 0.3302
C23 C -0.3940(6) 0.3027(5) 0.4855(4)
C24 C -0.4922(6) 0.3413(6) 0.5294(4)
H15 H -0.4958 0.4087 0.5372
C25 C -0.5822(7) 0.2824(7) 0.5607(4)
H16 H -0.6466 0.3075 0.5921
C26 C -0.5783(8) 0.1843(8) 0.5458(5)
C27 C -0.4826(9) 0.1449(7) 0.5011(5)
H17 H -0.4824 0.0779 0.4916
C28 C -0.3889(8) 0.2039(5) 0.4712(4)
H18 H -0.3221 0.1784 0.4414
loop_
_geom_bond_atom_site_label_1
_geom_bond_atom_site_label_2
_geom_bond_site_symmetry_1
_geom_bond_site_symmetry_2
Br1 C20 1_555 1_555
Br2 C26 1_555 1_555
S1 O1 1_555 1_555
O2 S1 1_555 1_555
O3 C7 1_555 1_555
N1 H1 1_555 1_555
N2 C8 1_555 1_555
N3 N4 1_555 1_555
N4 C17 1_555 1_555
C1 S1 1_555 1_555
C2 C1 1_555 1_555
C3 C2 1_555 1_555
H2 C3 1_555 1_555
C4 C3 1_555 1_555
H3 C4 1_555 1_555
C5 C4 1_555 1_555
H4 C5 1_555 1_555
C6 C1 1_555 1_555
H5 C6 1_555 1_555
C7 N1 1_555 1_555
C8 C9 1_555 1_555
C9 N1 1_555 1_555
C10 C9 1_555 1_555
H6 C10 1_555 1_555
C11 C10 1_555 1_555
H7 C11 1_555 1_555
C12 N3 1_555 1_555
C13 C8 1_555 1_555
C14 C13 1_555 1_555
H8 C14 1_555 1_555
C15 C14 1_555 1_555
H9 C15 1_555 1_555
C16 N2 1_555 1_555
H10 C16 1_555 1_555
C17 C18 1_555 1_555
C18 H11 1_555 1_555
C19 C18 1_555 1_555
H12 C19 1_555 1_555
C20 C19 1_555 1_555
C21 C20 1_555 1_555
H13 C21 1_555 1_555
C22 C17 1_555 1_555
H14 C22 1_555 1_555
C23 S1 1_555 1_555
C24 C23 1_555 1_555
H15 C24 1_555 1_555
C25 C24 1_555 1_555
H16 C25 1_555 1_555
C26 C25 1_555 1_555
C27 C26 1_555 1_555
H17 C27 1_555 1_555
C28 C23 1_555 1_555
H18 C28 1_555 1_555
C2 C7 1_555 1_555
C5 C6 1_555 1_555
C11 C12 1_555 1_555
C12 C13 1_555 1_555
C15 C16 1_555 1_555
C21 C22 1_555 1_555
C27 C28 1_555 1_555

#END
