
#######################################################################
#
#                 Cambridge Crystallographic Data Centre
#                                CCDC 
#
#######################################################################
#
# If this CIF has been generated from an entry in the Cambridge 
# Structural Database, then it will include bibliographic, chemical, 
# crystal, experimental, refinement or atomic coordinate data resulting 
# from the CCDC's data processing and validation procedures.
#
#######################################################################

data_GANCUV
_chemical_formula_moiety         'C120 H96 N12,0.5(H2 O1)'
_chemical_name_systematic        
'6,7,17,18,28,29,39,40,47,48,55,56-Dodecaphenyl-5,8,16,19,27,30,38,41,46,49,54,57-dodecaazaheptacyclo[21.21.6.6^12,34^.1^3,43^.1^10,14^.1^21,25^.1^32,36^]hexaconta-1,3(51),4,8,10(60),11,13,15,19,21(59),22,24,26,30,32(52),33,35,37,41,43,45,49,53,57-tetracosaene hemihydrate'
_symmetry_cell_setting           rhombohedral
_symmetry_space_group_name_H-M   'R 3'
_symmetry_Int_Tables_number      146
_space_group_name_Hall           'R 3'
loop_
_symmetry_equiv_pos_site_id
_symmetry_equiv_pos_as_xyz
1 x,y,z
2 -y,x-y,z
3 -x+y,-x,z
4 2/3+x,1/3+y,1/3+z
5 2/3-y,1/3+x-y,1/3+z
6 2/3-x+y,1/3-x,1/3+z
7 1/3+x,2/3+y,2/3+z
8 1/3-y,2/3+x-y,2/3+z
9 1/3-x+y,2/3-x,2/3+z
_cell_length_a                   29.290(6)
_cell_length_b                   29.290(6)
_cell_length_c                   21.799(7)
_cell_angle_alpha                90
_cell_angle_beta                 90
_cell_angle_gamma                120
_cell_volume                     16195.9
_exptl_crystal_colour            colorless
_exptl_crystal_description       needle
_cell_formula_units_Z            6
loop_
_atom_site_label
_atom_site_type_symbol
_atom_site_fract_x
_atom_site_fract_y
_atom_site_fract_z
N1 N 0.1994(2) 0.5474(2) 0.7550(2)
N2 N 0.1412(2) 0.5079(2) 0.6424(3)
N3 N 0.2663(2) 0.4793(2) 0.4147(3)
N4 N 0.3768(2) 0.5324(2) 0.3935(3)
C1 C 0.3132(3) 0.6126(3) 0.7471(3)
H1 H 0.2994 0.5756 0.7463
C2 C 0.2786(3) 0.6322(3) 0.7476(3)
C3 C 0.2208(3) 0.5960(3) 0.7476(3)
H2 H 0.1986 0.6107 0.7416
C4 C 0.1413(3) 0.5181(3) 0.7532(3)
H3 H 0.1283 0.5433 0.7452
C5 C 0.1244(3) 0.4783(3) 0.7000(3)
H4 H 0.1408 0.4557 0.7046
C6 C 0.1730(3) 0.5008(3) 0.6088(3)
H5 H 0.1865 0.4793 0.6235
C7 C 0.1893(3) 0.5256(3) 0.5474(3)
C8 C 0.1721(2) 0.5593(3) 0.5272(3)
H6 H 0.1533 0.5690 0.5548
C9 C 0.1813(3) 0.5792(3) 0.4679(3)
C10 C 0.2093(2) 0.5639(3) 0.4281(3)
H7 H 0.2162 0.5772 0.3873
C11 C 0.2266(3) 0.5307(3) 0.4459(3)
C12 C 0.2156(2) 0.5111(3) 0.5066(3)
H8 H 0.2266 0.4871 0.5196
C13 C 0.2522(3) 0.5128(3) 0.4026(3)
H9 H 0.2588 0.5273 0.3624
C14 C 0.2895(3) 0.4632(3) 0.3651(3)
H10 H 0.2923 0.4837 0.3272
C15 C 0.3442(3) 0.4750(3) 0.3841(3)
H11 H 0.3415 0.4568 0.4238
C16 C 0.3881(3) 0.5473(3) 0.4485(4)
H12 H 0.3745 0.5210 0.4795
C17 C 0.1193(3) 0.4906(3) 0.8136(3)
C18 C 0.1321(3) 0.4544(3) 0.8358(4)
H13 H 0.1562 0.4475 0.8143
C19 C 0.1090(3) 0.4278(3) 0.8905(4)
H14 H 0.1187 0.4038 0.9065
C20 C 0.0730(3) 0.4354(4) 0.9216(4)
H15 H 0.0563 0.4157 0.9574
C21 C 0.0613(3) 0.4733(4) 0.8990(4)
H16 H 0.0384 0.4813 0.9215
C22 C 0.0826(3) 0.4989(3) 0.8446(3)
H17 H 0.0722 0.5223 0.8281
C23 C 0.0649(3) 0.4447(3) 0.7007(3)
C24 C 0.0405(3) 0.3923(3) 0.7184(3)
H18 H 0.0610 0.3761 0.7267
C25 C -0.0132(3) 0.3638(4) 0.7240(4)
H19 H -0.0295 0.3281 0.7369
C26 C -0.0434(3) 0.3853(4) 0.7115(4)
H20 H -0.0807 0.3644 0.7149
C27 C -0.0204(3) 0.4384(4) 0.6935(4)
H21 H -0.0414 0.4541 0.6854
C28 C 0.0338(3) 0.4670(3) 0.6880(4)
H22 H 0.0502 0.5027 0.6752
C29 C 0.2548(3) 0.4056(3) 0.3523(4)
C30 C 0.2328(4) 0.3698(4) 0.3992(5)
H23 H 0.2398 0.3813 0.4406
C31 C 0.1999(6) 0.3164(5) 0.3861(7)
H24 H 0.1844 0.2917 0.4186
C32 C 0.1899(7) 0.2995(5) 0.3265(7)
H25 H 0.1658 0.2635 0.3176
C33 C 0.2141(4) 0.3337(5) 0.2811(6)
H26 H 0.2102 0.3211 0.2402
C34 C 0.2453(3) 0.3879(4) 0.2924(4)
H27 H 0.2595 0.4122 0.2593
C35 C 0.3694(3) 0.4568(3) 0.3370(4)
C36 C 0.3766(4) 0.4146(4) 0.3485(4)
H28 H 0.3668 0.3980 0.3875
C37 C 0.3972(5) 0.3954(5) 0.3059(6)
H29 H 0.4017 0.3663 0.3158
C38 C 0.4107(4) 0.4174(5) 0.2509(6)
H30 H 0.4255 0.4044 0.2216
C39 C 0.4032(4) 0.4601(4) 0.2357(5)
H31 H 0.4123 0.4757 0.1962
C40 C 0.3822(3) 0.4789(3) 0.2798(5)
H32 H 0.3768 0.5074 0.2699
N1A N 0.4526(2) 0.6520(3) 0.7550(2)
N1B N 0.3480(3) 0.8006(2) 0.7550(2)
N2A N 0.4921(2) 0.6333(3) 0.6424(3)
N2B N 0.3667(3) 0.8588(2) 0.6424(3)
N3A N 0.5207(2) 0.7870(3) 0.4147(3)
N3B N 0.2130(3) 0.7337(2) 0.4147(3)
N4A N 0.4676(2) 0.8444(3) 0.3935(3)
N4B N 0.1556(3) 0.6232(2) 0.3935(3)
C1A C 0.3874(3) 0.7006(4) 0.7471(3)
C1B C 0.2994(4) 0.6868(3) 0.7471(3)
H1A H 0.4244 0.7238 0.7463
H1B H 0.2762 0.7006 0.7463
C2A C 0.3678(3) 0.6464(4) 0.7476(3)
C2B C 0.3536(4) 0.7214(3) 0.7476(3)
C3A C 0.4040(3) 0.6248(4) 0.7476(3)
C3B C 0.3752(4) 0.7792(3) 0.7476(3)
H2A H 0.3893 0.5879 0.7416
H2B H 0.4121 0.8014 0.7416
C4A C 0.4819(3) 0.6232(4) 0.7532(3)
C4B C 0.3768(4) 0.8587(3) 0.7532(3)
H3A H 0.4567 0.5850 0.7452
H3B H 0.4150 0.8717 0.7452
C5A C 0.5217(3) 0.6461(4) 0.7000(3)
C5B C 0.3539(4) 0.8756(3) 0.7000(3)
H4A H 0.5443 0.6851 0.7046
H4B H 0.3149 0.8592 0.7046
C6A C 0.4992(3) 0.6722(4) 0.6088(3)
C6B C 0.3278(4) 0.8270(3) 0.6088(3)
H5A H 0.5207 0.7072 0.6235
H5B H 0.2928 0.8135 0.6235
C7A C 0.4744(3) 0.6637(4) 0.5474(3)
C7B C 0.3363(4) 0.8107(3) 0.5474(3)
C8A C 0.4407(3) 0.6128(4) 0.5272(3)
C8B C 0.3872(4) 0.8279(2) 0.5272(3)
H6A H 0.4310 0.5843 0.5548
H6B H 0.4157 0.8467 0.5548
C9A C 0.4208(3) 0.6021(4) 0.4679(3)
C9B C 0.3979(4) 0.8187(3) 0.4679(3)
C10A C 0.4361(3) 0.6454(4) 0.4281(3)
C10B C 0.3546(4) 0.7907(2) 0.4281(3)
H7A H 0.4228 0.6390 0.3873
H7B H 0.3610 0.7838 0.3873
C11A C 0.4693(3) 0.6959(4) 0.4459(3)
C11B C 0.3041(4) 0.7734(3) 0.4459(3)
C12A C 0.4889(3) 0.7045(4) 0.5066(3)
C12B C 0.2955(4) 0.7844(2) 0.5066(3)
H8A H 0.5129 0.7395 0.5196
H8B H 0.2605 0.7734 0.5196
C13A C 0.4872(3) 0.7394(4) 0.4026(3)
C13B C 0.2606(4) 0.7478(3) 0.4026(3)
H9A H 0.4727 0.7315 0.3624
H9B H 0.2685 0.7412 0.3624
C14A C 0.5368(3) 0.8263(4) 0.3651(3)
C14B C 0.1737(4) 0.7105(3) 0.3651(3)
H10A H 0.5163 0.8086 0.3272
H10B H 0.1914 0.7077 0.3272
C15A C 0.5250(3) 0.8692(4) 0.3841(3)
C15B C 0.1308(4) 0.6558(3) 0.3841(3)
H11A H 0.5432 0.8847 0.4238
H11B H 0.1153 0.6585 0.4238
C16A C 0.4527(3) 0.8408(4) 0.4485(4)
C16B C 0.1592(4) 0.6119(3) 0.4485(4)
H12A H 0.4790 0.8535 0.4795
H12B H 0.1465 0.6255 0.4795
C17A C 0.5094(3) 0.6287(4) 0.8136(3)
C17B C 0.3713(4) 0.8807(3) 0.8136(3)
C18A C 0.5456(3) 0.6777(4) 0.8358(4)
C18B C 0.3223(4) 0.8679(3) 0.8358(4)
H13A H 0.5525 0.7087 0.8143
H13B H 0.2913 0.8438 0.8143
C19A C 0.5722(3) 0.6812(4) 0.8905(4)
C19B C 0.3188(4) 0.8910(3) 0.8905(4)
H14A H 0.5962 0.7149 0.9065
H14B H 0.2851 0.8813 0.9065
C20A C 0.5646(4) 0.6376(5) 0.9216(4)
C20B C 0.3624(5) 0.9270(3) 0.9216(4)
H15A H 0.5843 0.6406 0.9574
H15B H 0.3594 0.9437 0.9574
C21A C 0.5267(4) 0.5880(5) 0.8990(4)
C21B C 0.4120(5) 0.9387(3) 0.8990(4)
H16A H 0.5187 0.5571 0.9215
H16B H 0.4429 0.9616 0.9215
C22A C 0.5011(3) 0.5837(4) 0.8446(3)
C22B C 0.4163(4) 0.9174(3) 0.8446(3)
H17A H 0.4777 0.5499 0.8281
H17B H 0.4501 0.9278 0.8281
C23A C 0.5553(3) 0.6202(4) 0.7007(3)
C23B C 0.3798(4) 0.9351(3) 0.7007(3)
C24A C 0.6077(3) 0.6482(4) 0.7184(3)
C24B C 0.3518(4) 0.9595(3) 0.7184(3)
H18A H 0.6239 0.6849 0.7267
H18B H 0.3151 0.9390 0.7267
C25A C 0.6362(4) 0.6230(5) 0.7240(4)
C25B C 0.3770(5) 1.0132(3) 0.7240(4)
H19A H 0.6719 0.6424 0.7369
H19B H 0.3576 1.0295 0.7369
C26A C 0.6147(4) 0.5713(5) 0.7115(4)
C26B C 0.4287(5) 1.0434(3) 0.7115(4)
H20A H 0.6356 0.5549 0.7149
H20B H 0.4451 1.0807 0.7149
C27A C 0.5616(4) 0.5412(5) 0.6935(4)
C27B C 0.4588(5) 1.0204(3) 0.6935(4)
H21A H 0.5459 0.5045 0.6854
H21B H 0.4955 1.0414 0.6854
C28A C 0.5330(3) 0.5668(4) 0.6880(4)
C28B C 0.4332(4) 0.9662(3) 0.6880(4)
H22A H 0.4973 0.5475 0.6752
H22B H 0.4525 0.9498 0.6752
C29A C 0.5944(3) 0.8492(4) 0.3523(4)
C29B C 0.1508(4) 0.7452(3) 0.3523(4)
C30A C 0.6302(4) 0.8630(6) 0.3992(5)
C30B C 0.1370(6) 0.7672(4) 0.3992(5)
H23A H 0.6187 0.8585 0.4406
H23B H 0.1415 0.7602 0.4406
C31A C 0.6836(5) 0.8835(8) 0.3861(7)
C31B C 0.1165(8) 0.8001(6) 0.3861(7)
H24A H 0.7083 0.8927 0.4186
H24B H 0.1073 0.8156 0.4186
C32A C 0.7005(5) 0.8904(9) 0.3265(7)
C32B C 0.1096(9) 0.8101(7) 0.3265(7)
H25A H 0.7365 0.9023 0.3176
H25B H 0.0977 0.8342 0.3176
C33A C 0.6663(5) 0.8804(6) 0.2811(6)
C33B C 0.1196(6) 0.7859(4) 0.2811(6)
H26A H 0.6789 0.8891 0.2402
H26B H 0.1109 0.7898 0.2402
C34A C 0.6121(4) 0.8574(5) 0.2924(4)
C34B C 0.1426(5) 0.7547(3) 0.2924(4)
H27A H 0.5878 0.8473 0.2593
H27B H 0.1527 0.7405 0.2593
C35A C 0.5432(3) 0.9126(4) 0.3370(4)
C35B C 0.0874(4) 0.6306(3) 0.3370(4)
C36A C 0.5854(4) 0.9620(6) 0.3485(4)
C36B C 0.0380(6) 0.6234(4) 0.3485(4)
H28A H 0.6020 0.9688 0.3875
H28B H 0.0312 0.6332 0.3875
C37A C 0.6046(5) 1.0018(7) 0.3059(6)
C37B C -0.0018(7) 0.6028(5) 0.3059(6)
H29A H 0.6337 1.0354 0.3158
H29B H -0.0354 0.5983 0.3158
C38A C 0.5826(5) 0.9933(6) 0.2509(6)
C38B C 0.0067(6) 0.5893(4) 0.2509(6)
H30A H 0.5956 1.0211 0.2216
H30B H -0.0211 0.5745 0.2216
C39A C 0.5399(4) 0.9431(6) 0.2357(5)
C39B C 0.0569(6) 0.5968(4) 0.2357(5)
H31A H 0.5243 0.9366 0.1962
H31B H 0.0634 0.5877 0.1962
C40A C 0.5211(3) 0.9033(4) 0.2798(5)
C40B C 0.0967(4) 0.6178(3) 0.2798(5)
H32A H 0.4926 0.8694 0.2699
H32B H 0.1306 0.6232 0.2699
N5 N 0.2036(2) 0.5422(3) 0.2520(3)
N6 N 0.1389(2) 0.5106(2) 0.1423(3)
N7 N 0.2498(2) 0.4806(2) -0.0919(3)
N8 N 0.3601(2) 0.5203(2) -0.1051(3)
C41 C 0.3168(3) 0.6135(3) 0.2485(3)
H33 H 0.3054 0.5769 0.2498
C42 C 0.2801(3) 0.6303(3) 0.2476(3)
C43 C 0.2235(3) 0.5922(3) 0.2495(3)
H34 H 0.1998 0.6055 0.2488
C44 C 0.1459(3) 0.5108(3) 0.2547(3)
H35 H 0.1304 0.5344 0.2586
C45 C 0.1243(3) 0.4757(3) 0.1962(3)
H36 H 0.1404 0.4528 0.1926
C46 C 0.1701(3) 0.5078(3) 0.1052(3)
H37 H 0.1851 0.4868 0.1167
C47 C 0.1854(3) 0.5344(3) 0.0454(3)
C48 C 0.1724(2) 0.5727(3) 0.0286(3)
H38 H 0.1566 0.5846 0.0578
C49 C 0.1824(2) 0.5932(3) -0.0306(3)
C50 C 0.2077(2) 0.5773(3) -0.0725(3)
H39 H 0.2153 0.5922 -0.1125
C51 C 0.2220(3) 0.5398(3) -0.0567(3)
C52 C 0.2103(2) 0.5187(3) 0.0040(3)
H40 H 0.2197 0.4933 0.0160
C53 C 0.2447(3) 0.5201(3) -0.1020(3)
H41 H 0.2560 0.5377 -0.1404
C54 C 0.2716(3) 0.4632(3) -0.1417(3)
H42 H 0.2817 0.4884 -0.1768
C55 C 0.3214(3) 0.4645(3) -0.1162(3)
H43 H 0.3128 0.4445 -0.0767
C56 C 0.3691(3) 0.5347(3) -0.0487(4)
H44 H 0.3508 0.5093 -0.0176
C57 C 0.1303(3) 0.4727(3) 0.3118(4)
C58 C 0.1499(4) 0.4380(4) 0.3154(4)
H45 H 0.1746 0.4403 0.2856
C59 C 0.1339(4) 0.3994(4) 0.3625(6)
H46 H 0.1452 0.3742 0.3657
C60 C 0.0997(6) 0.4034(7) 0.4030(6)
H47 H 0.0896 0.3795 0.4365
C61 C 0.0781(5) 0.4343(5) 0.4042(6)
H48 H 0.0543 0.4319 0.4353
C62 C 0.0942(4) 0.4720(4) 0.3537(4)
H49 H 0.0805 0.4952 0.3496
C63 C 0.0654(3) 0.4418(3) 0.2017(3)
C64 C 0.0427(3) 0.3886(3) 0.2143(3)
H50 H 0.0644 0.3730 0.2160
C65 C -0.0100(3) 0.3580(4) 0.2244(4)
H51 H -0.0247 0.3213 0.2314
C66 C -0.0417(4) 0.3789(4) 0.2248(4)
H52 H -0.0783 0.3575 0.2331
C67 C -0.0204(3) 0.4317(4) 0.2129(5)
H53 H -0.0424 0.4470 0.2133
C68 C 0.0335(3) 0.4633(3) 0.2001(4)
H54 H 0.0477 0.4995 0.1903
C69 C 0.2296(3) 0.4082(3) -0.1631(4)
C70 C 0.2019(4) 0.3690(3) -0.1207(4)
H55 H 0.2093 0.3758 -0.0782
C71 C 0.1629(4) 0.3192(4) -0.1406(5)
H56 H 0.1437 0.2921 -0.1114
C72 C 0.1521(4) 0.3089(4) -0.2035(5)
H57 H 0.1257 0.2752 -0.2176
C73 C 0.1810(4) 0.3494(4) -0.2439(4)
H58 H 0.1735 0.3432 -0.2864
C74 C 0.2202(3) 0.3984(3) -0.2253(4)
H59 H 0.2404 0.4249 -0.2546
C75 C 0.3447(3) 0.4418(3) -0.1616(4)
C76 C 0.3397(4) 0.3925(3) -0.1493(4)
H60 H 0.3229 0.3740 -0.1128
C77 C 0.3594(5) 0.3711(5) -0.1910(5)
H61 H 0.3562 0.3377 -0.1828
C78 C 0.3834(5) 0.3971(4) -0.2434(6)
H62 H 0.3969 0.3820 -0.2715
C79 C 0.3881(3) 0.4457(4) -0.2557(5)
H63 H 0.4049 0.4638 -0.2924
C80 C 0.3687(3) 0.4678(3) -0.2151(4)
H64 H 0.3718 0.5010 -0.2240
N5A N 0.4578(3) 0.6614(4) 0.2520(3)
N5B N 0.3386(4) 0.7964(2) 0.2520(3)
N6A N 0.4894(2) 0.6283(3) 0.1423(3)
N6B N 0.3717(3) 0.8611(2) 0.1423(3)
N7A N 0.5194(2) 0.7692(3) -0.0919(3)
N7B N 0.2308(3) 0.7502(2) -0.0919(3)
N8A N 0.4797(2) 0.8398(3) -0.1051(3)
N8B N 0.1602(3) 0.6399(2) -0.1051(3)
C41A C 0.3865(3) 0.7033(4) 0.2485(3)
C41B C 0.2967(4) 0.6832(3) 0.2485(3)
H33A H 0.4231 0.7285 0.2498
H33B H 0.2715 0.6946 0.2498
C42A C 0.3697(3) 0.6498(4) 0.2476(3)
C42B C 0.3502(4) 0.7199(3) 0.2476(3)
C43A C 0.4078(3) 0.6313(4) 0.2495(3)
C43B C 0.3687(4) 0.7765(3) 0.2495(3)
H34A H 0.3945 0.5943 0.2488
H34B H 0.4057 0.8002 0.2488
C44A C 0.4892(3) 0.6351(4) 0.2547(3)
C44B C 0.3649(4) 0.8541(3) 0.2547(3)
H35A H 0.4656 0.5960 0.2586
H35B H 0.4040 0.8696 0.2586
C45A C 0.5243(3) 0.6486(4) 0.1962(3)
C45B C 0.3514(4) 0.8757(3) 0.1962(3)
H36A H 0.5472 0.6876 0.1926
H36B H 0.3124 0.8596 0.1926
C46A C 0.4922(3) 0.6623(4) 0.1052(3)
C46B C 0.3377(4) 0.8299(3) 0.1052(3)
H37A H 0.5132 0.6983 0.1167
H37B H 0.3017 0.8149 0.1167
C47A C 0.4656(3) 0.6510(4) 0.0454(3)
C47B C 0.3490(4) 0.8146(3) 0.0454(3)
C48A C 0.4273(3) 0.5997(4) 0.0286(3)
C48B C 0.4003(4) 0.8276(2) 0.0286(3)
H38A H 0.4154 0.5720 0.0578
H38B H 0.4280 0.8434 0.0578
C49A C 0.4068(3) 0.5892(4) -0.0306(3)
C49B C 0.4108(4) 0.8176(2) -0.0306(3)
C50A C 0.4227(3) 0.6304(4) -0.0725(3)
C50B C 0.3696(4) 0.7923(2) -0.0725(3)
H39A H 0.4078 0.6231 -0.1125
H39B H 0.3769 0.7847 -0.1125
C51A C 0.4602(3) 0.6822(4) -0.0567(3)
C51B C 0.3178(4) 0.7780(3) -0.0567(3)
C52A C 0.4813(3) 0.6916(4) 0.0040(3)
C52B C 0.3084(4) 0.7897(2) 0.0040(3)
H40A H 0.5067 0.7264 0.0160
H40B H 0.2736 0.7803 0.0160
C53A C 0.4799(3) 0.7246(4) -0.1020(3)
C53B C 0.2754(4) 0.7553(3) -0.1020(3)
H41A H 0.4623 0.7183 -0.1404
H41B H 0.2817 0.7440 -0.1404
C54A C 0.5368(3) 0.8084(4) -0.1417(3)
C54B C 0.1916(4) 0.7284(3) -0.1417(3)
H42A H 0.5116 0.7933 -0.1768
H42B H 0.2067 0.7183 -0.1768
C55A C 0.5355(3) 0.8569(4) -0.1162(3)
C55B C 0.1431(4) 0.6786(3) -0.1162(3)
H43A H 0.5555 0.8683 -0.0767
H43B H 0.1317 0.6872 -0.0767
C56A C 0.4653(3) 0.8344(4) -0.0487(4)
C56B C 0.1656(4) 0.6309(3) -0.0487(4)
H44A H 0.4907 0.8415 -0.0176
H44B H 0.1585 0.6492 -0.0176
C57A C 0.5273(3) 0.6576(4) 0.3118(4)
C57B C 0.3424(4) 0.8697(3) 0.3118(4)
C58A C 0.5620(4) 0.7119(6) 0.3154(4)
C58B C 0.2881(6) 0.8501(4) 0.3154(4)
H45A H 0.5597 0.7343 0.2856
H45B H 0.2657 0.8254 0.2856
C59A C 0.6006(4) 0.7345(6) 0.3625(6)
C59B C 0.2655(6) 0.8661(4) 0.3625(6)
H46A H 0.6258 0.7710 0.3657
H46B H 0.2290 0.8548 0.3657
C60A C 0.5966(7) 0.6963(9) 0.4030(6)
C60B C 0.3037(9) 0.9003(6) 0.4030(6)
H47A H 0.6205 0.7101 0.4365
H47B H 0.2899 0.9104 0.4365
C61A C 0.5657(5) 0.6438(7) 0.4042(6)
C61B C 0.3562(7) 0.9219(5) 0.4042(6)
H48A H 0.5681 0.6224 0.4353
H48B H 0.3776 0.9457 0.4353
C62A C 0.5280(4) 0.6222(6) 0.3537(4)
C62B C 0.3778(6) 0.9058(4) 0.3537(4)
H49A H 0.5048 0.5853 0.3496
H49B H 0.4147 0.9195 0.3496
C63A C 0.5582(3) 0.6236(4) 0.2017(3)
C63B C 0.3764(4) 0.9346(3) 0.2017(3)
C64A C 0.6114(3) 0.6541(4) 0.2143(3)
C64B C 0.3459(4) 0.9573(3) 0.2143(3)
H50A H 0.6270 0.6914 0.2160
H50B H 0.3086 0.9356 0.2160
C65A C 0.6420(4) 0.6320(5) 0.2244(4)
C65B C 0.3680(5) 1.0100(3) 0.2244(4)
H51A H 0.6787 0.6540 0.2314
H51B H 0.3460 1.0247 0.2314
C66A C 0.6211(4) 0.5794(6) 0.2248(4)
C66B C 0.4206(6) 1.0417(4) 0.2248(4)
H52A H 0.6425 0.5642 0.2331
H52B H 0.4358 1.0783 0.2331
C67A C 0.5683(4) 0.5479(5) 0.2129(5)
C67B C 0.4521(5) 1.0204(3) 0.2129(5)
H53A H 0.5530 0.5106 0.2133
H53B H 0.4894 1.0424 0.2133
C68A C 0.5367(3) 0.5702(4) 0.2001(4)
C68B C 0.4298(4) 0.9665(3) 0.2001(4)
H54A H 0.5005 0.5482 0.1903
H54B H 0.4518 0.9523 0.1903
C69A C 0.5918(3) 0.8214(4) -0.1631(4)
C69B C 0.1786(4) 0.7704(3) -0.1631(4)
C70A C 0.6310(3) 0.8329(5) -0.1207(4)
C70B C 0.1671(5) 0.7981(4) -0.1207(4)
H55A H 0.6242 0.8335 -0.0782
H55B H 0.1665 0.7907 -0.0782
C71A C 0.6808(4) 0.8437(6) -0.1406(5)
C71B C 0.1563(6) 0.8371(4) -0.1406(5)
H56A H 0.7079 0.8516 -0.1114
H56B H 0.1484 0.8563 -0.1114
C72A C 0.6911(4) 0.8432(6) -0.2035(5)
C72B C 0.1568(6) 0.8479(4) -0.2035(5)
H57A H 0.7248 0.8505 -0.2176
H57B H 0.1495 0.8743 -0.2176
C73A C 0.6506(4) 0.8316(6) -0.2439(4)
C73B C 0.1684(6) 0.8190(4) -0.2439(4)
H58A H 0.6568 0.8303 -0.2864
H58B H 0.1697 0.8265 -0.2864
C74A C 0.6016(3) 0.8218(4) -0.2253(4)
C74B C 0.1782(4) 0.7798(3) -0.2253(4)
H59A H 0.5751 0.8155 -0.2546
H59B H 0.1845 0.7596 -0.2546
C75A C 0.5582(3) 0.9029(4) -0.1616(4)
C75B C 0.0971(4) 0.6553(3) -0.1616(4)
C76A C 0.6075(3) 0.9472(5) -0.1493(4)
C76B C 0.0528(5) 0.6603(4) -0.1493(4)
H60A H 0.6260 0.9489 -0.1128
H60B H 0.0511 0.6771 -0.1128
C77A C 0.6289(5) 0.9883(7) -0.1910(5)
C77B C 0.0117(7) 0.6406(5) -0.1910(5)
H61A H 0.6623 1.0185 -0.1828
H61B H -0.0185 0.6438 -0.1828
C78A C 0.6029(4) 0.9863(6) -0.2434(6)
C78B C 0.0137(6) 0.6166(5) -0.2434(6)
H62A H 0.6180 1.0149 -0.2715
H62B H -0.0149 0.6031 -0.2715
C79A C 0.5543(4) 0.9424(5) -0.2557(5)
C79B C 0.0576(5) 0.6119(3) -0.2557(5)
H63A H 0.5362 0.9411 -0.2924
H63B H 0.0589 0.5951 -0.2924
C80A C 0.5322(3) 0.9009(4) -0.2151(4)
C80B C 0.0991(4) 0.6313(3) -0.2151(4)
H64A H 0.4990 0.8708 -0.2240
H64B H 0.1292 0.6282 -0.2240
O1 O 0.3333 0.6667 0.539(4)
O2 O 0.3333 0.6667 0.054(3)
loop_
_geom_bond_atom_site_label_1
_geom_bond_atom_site_label_2
_geom_bond_site_symmetry_1
_geom_bond_site_symmetry_2
N1 C3 1_555 1_555
N2 C5 1_555 1_555
N3 C13 1_555 1_555
N4 C15 1_555 1_555
N5 C43 1_555 1_555
N6 C45 1_555 1_555
N7 C53 1_555 1_555
N8 C55 1_555 1_555
C1 H1 1_555 1_555
C2 C1 1_555 1_555
C3 C2 1_555 1_555
H2 C3 1_555 1_555
C4 N1 1_555 1_555
H3 C4 1_555 1_555
C5 C4 1_555 1_555
H4 C5 1_555 1_555
C6 N2 1_555 1_555
H5 C6 1_555 1_555
C7 C6 1_555 1_555
C8 C7 1_555 1_555
H6 C8 1_555 1_555
C9 C8 1_555 1_555
C10 C9 1_555 1_555
H7 C10 1_555 1_555
C11 C10 1_555 1_555
C12 C7 1_555 1_555
H8 C12 1_555 1_555
C13 C11 1_555 1_555
H9 C13 1_555 1_555
C14 N3 1_555 1_555
H10 C14 1_555 1_555
C15 C14 1_555 1_555
H11 C15 1_555 1_555
C16 N4 1_555 1_555
H12 C16 1_555 1_555
C17 C4 1_555 1_555
C18 C17 1_555 1_555
H13 C18 1_555 1_555
C19 C18 1_555 1_555
H14 C19 1_555 1_555
C20 C19 1_555 1_555
H15 C20 1_555 1_555
C21 C20 1_555 1_555
H16 C21 1_555 1_555
C22 C17 1_555 1_555
H17 C22 1_555 1_555
C23 C5 1_555 1_555
C24 C23 1_555 1_555
H18 C24 1_555 1_555
C25 C24 1_555 1_555
H19 C25 1_555 1_555
C26 C25 1_555 1_555
H20 C26 1_555 1_555
C27 C26 1_555 1_555
H21 C27 1_555 1_555
C28 C23 1_555 1_555
H22 C28 1_555 1_555
C29 C14 1_555 1_555
C30 C29 1_555 1_555
H23 C30 1_555 1_555
C31 C30 1_555 1_555
H24 C31 1_555 1_555
C32 C31 1_555 1_555
H25 C32 1_555 1_555
C33 C32 1_555 1_555
H26 C33 1_555 1_555
C34 C29 1_555 1_555
H27 C34 1_555 1_555
C35 C15 1_555 1_555
C36 C35 1_555 1_555
H28 C36 1_555 1_555
C37 C36 1_555 1_555
H29 C37 1_555 1_555
C38 C37 1_555 1_555
H30 C38 1_555 1_555
C39 C38 1_555 1_555
H31 C39 1_555 1_555
C40 C35 1_555 1_555
H32 C40 1_555 1_555
C41 H33 1_555 1_555
C42 C41 1_555 1_555
C43 C42 1_555 1_555
H34 C43 1_555 1_555
C44 N5 1_555 1_555
H35 C44 1_555 1_555
C45 C44 1_555 1_555
H36 C45 1_555 1_555
C46 N6 1_555 1_555
H37 C46 1_555 1_555
C47 C46 1_555 1_555
C48 C47 1_555 1_555
H38 C48 1_555 1_555
C49 C48 1_555 1_555
C50 C49 1_555 1_555
H39 C50 1_555 1_555
C51 C50 1_555 1_555
C52 C47 1_555 1_555
H40 C52 1_555 1_555
C53 C51 1_555 1_555
H41 C53 1_555 1_555
C54 N7 1_555 1_555
H42 C54 1_555 1_555
C55 C54 1_555 1_555
H43 C55 1_555 1_555
C56 N8 1_555 1_555
H44 C56 1_555 1_555
C57 C44 1_555 1_555
C58 C57 1_555 1_555
H45 C58 1_555 1_555
C59 C58 1_555 1_555
H46 C59 1_555 1_555
C60 C59 1_555 1_555
H47 C60 1_555 1_555
C61 C60 1_555 1_555
H48 C61 1_555 1_555
C62 C57 1_555 1_555
H49 C62 1_555 1_555
C63 C45 1_555 1_555
C64 C63 1_555 1_555
H50 C64 1_555 1_555
C65 C64 1_555 1_555
H51 C65 1_555 1_555
C66 C65 1_555 1_555
H52 C66 1_555 1_555
C67 C66 1_555 1_555
H53 C67 1_555 1_555
C68 C63 1_555 1_555
H54 C68 1_555 1_555
C69 C54 1_555 1_555
C70 C69 1_555 1_555
H55 C70 1_555 1_555
C71 C70 1_555 1_555
H56 C71 1_555 1_555
C72 C71 1_555 1_555
H57 C72 1_555 1_555
C73 C72 1_555 1_555
H58 C73 1_555 1_555
C74 C69 1_555 1_555
H59 C74 1_555 1_555
C75 C55 1_555 1_555
C76 C75 1_555 1_555
H60 C76 1_555 1_555
C77 C76 1_555 1_555
H61 C77 1_555 1_555
C78 C77 1_555 1_555
H62 C78 1_555 1_555
C79 C78 1_555 1_555
H63 C79 1_555 1_555
C80 C75 1_555 1_555
H64 C80 1_555 1_555
N1A C3A 1_555 1_555
N1B C3B 1_555 1_555
N2A C5A 1_555 1_555
N2B C5B 1_555 1_555
N3A C13A 1_555 1_555
N3B C13B 1_555 1_555
N4A C15A 1_555 1_555
N4B C15B 1_555 1_555
N5A C43A 1_555 1_555
N5B C43B 1_555 1_555
N6A C45A 1_555 1_555
N6B C45B 1_555 1_555
N7A C53A 1_555 1_555
N7B C53B 1_555 1_555
N8A C55A 1_555 1_555
N8B C55B 1_555 1_555
C1A H1A 1_555 1_555
C1B C2 1_555 1_555
H1B C1B 1_555 1_555
C2A C1 1_555 1_555
C2B C1A 1_555 1_555
C3A C2A 1_555 1_555
C3B C2B 1_555 1_555
H2A C3A 1_555 1_555
H2B C3B 1_555 1_555
C4A N1A 1_555 1_555
C4B N1B 1_555 1_555
H3A C4A 1_555 1_555
H3B C4B 1_555 1_555
C5A C4A 1_555 1_555
C5B C4B 1_555 1_555
H4A C5A 1_555 1_555
H4B C5B 1_555 1_555
C6A N2A 1_555 1_555
C6B N2B 1_555 1_555
H5A C6A 1_555 1_555
H5B C6B 1_555 1_555
C7A C6A 1_555 1_555
C7B C6B 1_555 1_555
C8A C7A 1_555 1_555
C8B C7B 1_555 1_555
H6A C8A 1_555 1_555
H6B C8B 1_555 1_555
C9A C16 1_555 1_555
C9B C8B 1_555 1_555
C10A C9A 1_555 1_555
C10B C9B 1_555 1_555
H7A C10A 1_555 1_555
H7B C10B 1_555 1_555
C11A C10A 1_555 1_555
C11B C10B 1_555 1_555
C12A C7A 1_555 1_555
C12B C7B 1_555 1_555
H8A C12A 1_555 1_555
H8B C12B 1_555 1_555
C13A C11A 1_555 1_555
C13B C11B 1_555 1_555
H9A C13A 1_555 1_555
H9B C13B 1_555 1_555
C14A N3A 1_555 1_555
C14B N3B 1_555 1_555
H10A C14A 1_555 1_555
H10B C14B 1_555 1_555
C15A C14A 1_555 1_555
C15B C14B 1_555 1_555
H11A C15A 1_555 1_555
H11B C15B 1_555 1_555
C16A N4A 1_555 1_555
C16B C9 1_555 1_555
H12A C16A 1_555 1_555
H12B C16B 1_555 1_555
C17A C4A 1_555 1_555
C17B C4B 1_555 1_555
C18A C17A 1_555 1_555
C18B C17B 1_555 1_555
H13A C18A 1_555 1_555
H13B C18B 1_555 1_555
C19A C18A 1_555 1_555
C19B C18B 1_555 1_555
H14A C19A 1_555 1_555
H14B C19B 1_555 1_555
C20A C19A 1_555 1_555
C20B C19B 1_555 1_555
H15A C20A 1_555 1_555
H15B C20B 1_555 1_555
C21A C20A 1_555 1_555
C21B C20B 1_555 1_555
H16A C21A 1_555 1_555
H16B C21B 1_555 1_555
C22A C17A 1_555 1_555
C22B C17B 1_555 1_555
H17A C22A 1_555 1_555
H17B C22B 1_555 1_555
C23A C5A 1_555 1_555
C23B C5B 1_555 1_555
C24A C23A 1_555 1_555
C24B C23B 1_555 1_555
H18A C24A 1_555 1_555
H18B C24B 1_555 1_555
C25A C24A 1_555 1_555
C25B C24B 1_555 1_555
H19A C25A 1_555 1_555
H19B C25B 1_555 1_555
C26A C25A 1_555 1_555
C26B C25B 1_555 1_555
H20A C26A 1_555 1_555
H20B C26B 1_555 1_555
C27A C26A 1_555 1_555
C27B C26B 1_555 1_555
H21A C27A 1_555 1_555
H21B C27B 1_555 1_555
C28A C23A 1_555 1_555
C28B C23B 1_555 1_555
H22A C28A 1_555 1_555
H22B C28B 1_555 1_555
C29A C14A 1_555 1_555
C29B C14B 1_555 1_555
C30A C29A 1_555 1_555
C30B C29B 1_555 1_555
H23A C30A 1_555 1_555
H23B C30B 1_555 1_555
C31A C30A 1_555 1_555
C31B C30B 1_555 1_555
H24A C31A 1_555 1_555
H24B C31B 1_555 1_555
C32A C31A 1_555 1_555
C32B C31B 1_555 1_555
H25A C32A 1_555 1_555
H25B C32B 1_555 1_555
C33A C32A 1_555 1_555
C33B C32B 1_555 1_555
H26A C33A 1_555 1_555
H26B C33B 1_555 1_555
C34A C29A 1_555 1_555
C34B C29B 1_555 1_555
H27A C34A 1_555 1_555
H27B C34B 1_555 1_555
C35A C15A 1_555 1_555
C35B C15B 1_555 1_555
C36A C35A 1_555 1_555
C36B C35B 1_555 1_555
H28A C36A 1_555 1_555
H28B C36B 1_555 1_555
C37A C36A 1_555 1_555
C37B C36B 1_555 1_555
H29A C37A 1_555 1_555
H29B C37B 1_555 1_555
C38A C37A 1_555 1_555
C38B C37B 1_555 1_555
H30A C38A 1_555 1_555
H30B C38B 1_555 1_555
C39A C38A 1_555 1_555
C39B C38B 1_555 1_555
H31A C39A 1_555 1_555
H31B C39B 1_555 1_555
C40A C35A 1_555 1_555
C40B C35B 1_555 1_555
H32A C40A 1_555 1_555
H32B C40B 1_555 1_555
C41A H33A 1_555 1_555
C41B C42 1_555 1_555
H33B C41B 1_555 1_555
C42A C41 1_555 1_555
C42B C41A 1_555 1_555
C43A C42A 1_555 1_555
C43B C42B 1_555 1_555
H34A C43A 1_555 1_555
H34B C43B 1_555 1_555
C44A N5A 1_555 1_555
C44B N5B 1_555 1_555
H35A C44A 1_555 1_555
H35B C44B 1_555 1_555
C45A C44A 1_555 1_555
C45B C44B 1_555 1_555
H36A C45A 1_555 1_555
H36B C45B 1_555 1_555
C46A N6A 1_555 1_555
C46B N6B 1_555 1_555
H37A C46A 1_555 1_555
H37B C46B 1_555 1_555
C47A C46A 1_555 1_555
C47B C46B 1_555 1_555
C48A C47A 1_555 1_555
C48B C47B 1_555 1_555
H38A C48A 1_555 1_555
H38B C48B 1_555 1_555
C49A C56 1_555 1_555
C49B C48B 1_555 1_555
C50A C49A 1_555 1_555
C50B C49B 1_555 1_555
H39A C50A 1_555 1_555
H39B C50B 1_555 1_555
C51A C50A 1_555 1_555
C51B C50B 1_555 1_555
C52A C47A 1_555 1_555
C52B C47B 1_555 1_555
H40A C52A 1_555 1_555
H40B C52B 1_555 1_555
C53A C51A 1_555 1_555
C53B C51B 1_555 1_555
H41A C53A 1_555 1_555
H41B C53B 1_555 1_555
C54A N7A 1_555 1_555
C54B N7B 1_555 1_555
H42A C54A 1_555 1_555
H42B C54B 1_555 1_555
C55A C54A 1_555 1_555
C55B C54B 1_555 1_555
H43A C55A 1_555 1_555
H43B C55B 1_555 1_555
C56A N8A 1_555 1_555
C56B C49 1_555 1_555
H44A C56A 1_555 1_555
H44B C56B 1_555 1_555
C57A C44A 1_555 1_555
C57B C44B 1_555 1_555
C58A C57A 1_555 1_555
C58B C57B 1_555 1_555
H45A C58A 1_555 1_555
H45B C58B 1_555 1_555
C59A C58A 1_555 1_555
C59B C58B 1_555 1_555
H46A C59A 1_555 1_555
H46B C59B 1_555 1_555
C60A C59A 1_555 1_555
C60B C59B 1_555 1_555
H47A C60A 1_555 1_555
H47B C60B 1_555 1_555
C61A C60A 1_555 1_555
C61B C60B 1_555 1_555
H48A C61A 1_555 1_555
H48B C61B 1_555 1_555
C62A C57A 1_555 1_555
C62B C57B 1_555 1_555
H49A C62A 1_555 1_555
H49B C62B 1_555 1_555
C63A C45A 1_555 1_555
C63B C45B 1_555 1_555
C64A C63A 1_555 1_555
C64B C63B 1_555 1_555
H50A C64A 1_555 1_555
H50B C64B 1_555 1_555
C65A C64A 1_555 1_555
C65B C64B 1_555 1_555
H51A C65A 1_555 1_555
H51B C65B 1_555 1_555
C66A C65A 1_555 1_555
C66B C65B 1_555 1_555
H52A C66A 1_555 1_555
H52B C66B 1_555 1_555
C67A C66A 1_555 1_555
C67B C66B 1_555 1_555
H53A C67A 1_555 1_555
H53B C67B 1_555 1_555
C68A C63A 1_555 1_555
C68B C63B 1_555 1_555
H54A C68A 1_555 1_555
H54B C68B 1_555 1_555
C69A C54A 1_555 1_555
C69B C54B 1_555 1_555
C70A C69A 1_555 1_555
C70B C69B 1_555 1_555
H55A C70A 1_555 1_555
H55B C70B 1_555 1_555
C71A C70A 1_555 1_555
C71B C70B 1_555 1_555
H56A C71A 1_555 1_555
H56B C71B 1_555 1_555
C72A C71A 1_555 1_555
C72B C71B 1_555 1_555
H57A C72A 1_555 1_555
H57B C72B 1_555 1_555
C73A C72A 1_555 1_555
C73B C72B 1_555 1_555
H58A C73A 1_555 1_555
H58B C73B 1_555 1_555
C74A C69A 1_555 1_555
C74B C69B 1_555 1_555
H59A C74A 1_555 1_555
H59B C74B 1_555 1_555
C75A C55A 1_555 1_555
C75B C55B 1_555 1_555
C76A C75A 1_555 1_555
C76B C75B 1_555 1_555
H60A C76A 1_555 1_555
H60B C76B 1_555 1_555
C77A C76A 1_555 1_555
C77B C76B 1_555 1_555
H61A C77A 1_555 1_555
H61B C77B 1_555 1_555
C78A C77A 1_555 1_555
C78B C77B 1_555 1_555
H62A C78A 1_555 1_555
H62B C78B 1_555 1_555
C79A C78A 1_555 1_555
C79B C78B 1_555 1_555
H63A C79A 1_555 1_555
H63B C79B 1_555 1_555
C80A C75A 1_555 1_555
C80B C75B 1_555 1_555
H64A C80A 1_555 1_555
H64B C80B 1_555 1_555
C11 C12 1_555 1_555
C21 C22 1_555 1_555
C27 C28 1_555 1_555
C33 C34 1_555 1_555
C39 C40 1_555 1_555
C51 C52 1_555 1_555
C61 C62 1_555 1_555
C67 C68 1_555 1_555
C73 C74 1_555 1_555
C79 C80 1_555 1_555
N4B C16B 1_555 1_555
N8B C56B 1_555 1_555
C1A C2A 1_555 1_555
C1B C2B 1_555 1_555
C8A C9A 1_555 1_555
C9B C16A 1_555 1_555
C11A C12A 1_555 1_555
C11B C12B 1_555 1_555
C21A C22A 1_555 1_555
C21B C22B 1_555 1_555
C27A C28A 1_555 1_555
C27B C28B 1_555 1_555
C33A C34A 1_555 1_555
C33B C34B 1_555 1_555
C39A C40A 1_555 1_555
C39B C40B 1_555 1_555
C41A C42A 1_555 1_555
C41B C42B 1_555 1_555
C48A C49A 1_555 1_555
C49B C56A 1_555 1_555
C51A C52A 1_555 1_555
C51B C52B 1_555 1_555
C61A C62A 1_555 1_555
C61B C62B 1_555 1_555
C67A C68A 1_555 1_555
C67B C68B 1_555 1_555
C73A C74A 1_555 1_555
C73B C74B 1_555 1_555
C79A C80A 1_555 1_555
C79B C80B 1_555 1_555

#END
