
#######################################################################
#
#                 Cambridge Crystallographic Data Centre
#                                CCDC 
#
#######################################################################
#
# If this CIF has been generated from an entry in the Cambridge 
# Structural Database, then it will include bibliographic, chemical, 
# crystal, experimental, refinement or atomic coordinate data resulting 
# from the CCDC's data processing and validation procedures.
#
#######################################################################

data_GANDEH
_chemical_compound_source        'whole plant of Aleuritopteris argentea'
_chemical_formula_moiety         'C20 H32 O2,0.5(H2 O1)'
_chemical_name_systematic        
'(2\b,4\a)-16-ene-kaurane-2,17-diol hemihydrate'
_chemical_properties_biological  'antitumour activity'
_symmetry_cell_setting           orthorhombic
_symmetry_space_group_name_H-M   'P 21 21 21'
_symmetry_Int_Tables_number      19
_space_group_name_Hall           'P 2ac 2ab'
loop_
_symmetry_equiv_pos_site_id
_symmetry_equiv_pos_as_xyz
1 x,y,z
2 1/2-x,-y,1/2+z
3 -x,1/2+y,1/2-z
4 1/2+x,1/2-y,-z
_cell_length_a                   6.19358(17)
_cell_length_b                   13.2414(4)
_cell_length_c                   43.1778(12)
_cell_angle_alpha                90
_cell_angle_beta                 90
_cell_angle_gamma                90
_cell_volume                     3541.08
_exptl_crystal_colour            colorless
_exptl_crystal_description       block
_cell_formula_units_Z            8
loop_
_atom_site_label
_atom_site_type_symbol
_atom_site_fract_x
_atom_site_fract_y
_atom_site_fract_z
C1 C 0.1142(6) 0.4723(3) 0.35153(8)
H1 H 0.0369 0.5345 0.3578
H2 H 0.2680 0.4805 0.3573
C2 C 0.0973(6) 0.4597(3) 0.31672(8)
H3 H -0.0585 0.4524 0.3111
C3 C 0.2170(6) 0.3661(3) 0.30605(8)
H4 H 0.3718 0.3734 0.3113
H5 H 0.2056 0.3609 0.2832
C4 C 0.1314(6) 0.2683(3) 0.32057(8)
C5 C 0.1225(6) 0.2826(3) 0.35634(9)
H6 H 0.2776 0.2877 0.3626
C6 C 0.0383(7) 0.1905(3) 0.37445(9)
H7 H -0.1214 0.1884 0.3735
H8 H 0.0948 0.1276 0.3651
C7 C 0.1117(8) 0.1979(3) 0.40809(10)
H9 H 0.0507 0.1401 0.4197
H10 H 0.2709 0.1917 0.4087
C8 C 0.0480(7) 0.2941(3) 0.42438(9)
C9 C 0.0949(6) 0.3891(3) 0.40394(8)
H11 H 0.2559 0.3934 0.4028
C10 C 0.0188(6) 0.3813(3) 0.36941(8)
C11 C 0.0234(8) 0.4867(3) 0.42105(9)
H12 H -0.0051 0.5402 0.4056
H13 H 0.1431 0.5100 0.4345
C12 C -0.1876(15) 0.4711(7) 0.44179(18)
H14 H -0.3160 0.4716 0.4281
H15 H -0.2010 0.5288 0.4563
C13 C -0.1866(8) 0.3677(4) 0.46149(10)
H16 H -0.3048 0.3601 0.4771
C14 C -0.1854(8) 0.2962(4) 0.43700(10)
H17 H -0.2876 0.3166 0.4205
H18 H -0.2276 0.2287 0.4447
C15 C 0.1720(8) 0.3070(3) 0.45512(9)
H19 H 0.1890 0.2412 0.4658
H20 H 0.3169 0.3362 0.4514
C16 C 0.0351(9) 0.3778(6) 0.47411(12)
C17 C 0.0818(10) 0.3993(4) 0.50542(11)
H21 H -0.0324 0.4082 0.5198
H22 H 0.2276 0.4048 0.5121
C18 C 0.2928(7) 0.1835(3) 0.31321(9)
H23 H 0.3358 0.1878 0.2914
H24 H 0.2249 0.1179 0.3171
H25 H 0.4205 0.1908 0.3264
C19 C -0.0891(6) 0.2401(3) 0.30629(9)
H26 H -0.1533 0.1842 0.3184
H27 H -0.1871 0.2989 0.3079
C20 C -0.2289(6) 0.3866(3) 0.36629(9)
H28 H -0.2851 0.4395 0.3800
H29 H -0.2919 0.3214 0.3721
H30 H -0.2672 0.4024 0.3448
O1 O 0.1808(5) 0.5492(2) 0.30199(6)
H31 H 0.1176 0.5580 0.2850
O2 O -0.0741(5) 0.2104(2) 0.27482(6)
H32 H -0.0677 0.2619 0.2635
C22 C 0.5681(6) 0.6809(3) 0.34139(8)
H37 H 0.5990 0.6208 0.3543
H38 H 0.4098 0.6851 0.3385
C23 C 0.6761(6) 0.6680(3) 0.30980(8)
H39 H 0.8357 0.6645 0.3132
C24 C 0.6307(6) 0.7581(3) 0.28906(8)
H40 H 0.4729 0.7637 0.2857
H41 H 0.6993 0.7469 0.2686
C25 C 0.7156(6) 0.8584(3) 0.30289(8)
C26 C 0.6250(6) 0.8690(3) 0.33648(8)
H42 H 0.4657 0.8763 0.3334
C27 C 0.6906(7) 0.9668(3) 0.35314(9)
H43 H 0.8396 0.9604 0.3612
H44 H 0.6870 1.0240 0.3384
C28 C 0.5350(7) 0.9869(3) 0.37985(9)
H45 H 0.3905 1.0015 0.3712
H46 H 0.5839 1.0479 0.3911
C29 C 0.5142(6) 0.9002(3) 0.40300(9)
C30 C 0.4877(6) 0.7963(3) 0.38606(8)
H47 H 0.3417 0.7998 0.3762
C31 C 0.6467(6) 0.7763(3) 0.35853(8)
C32 C 0.4692(9) 0.7102(3) 0.41016(10)
H48 H 0.3810 0.6528 0.4064
C33 C 0.5940(15) 0.7202(5) 0.43942(14)
H49 H 0.7437 0.6969 0.4358
H50 H 0.5292 0.6755 0.4553
C34 C 0.6008(10) 0.8361(5) 0.45289(11)
H51 H 0.6755 0.8439 0.4733
C35 C 0.6929(7) 0.8968(3) 0.42741(9)
H52 H 0.8245 0.8645 0.4190
H53 H 0.7296 0.9657 0.4346
C36 C 0.3173(7) 0.9168(4) 0.42448(9)
H54 H 0.2986 0.9894 0.4292
H55 H 0.1836 0.8912 0.4146
C37 C 0.3675(9) 0.8584(5) 0.45337(10)
C38 C 0.2355(10) 0.8542(4) 0.47896(12)
H56 H 0.2934 0.8356 0.4985
H57 H 0.0864 0.8698 0.4771
C39 C 0.6252(7) 0.9450(3) 0.28309(9)
H58 H 0.6608 0.9331 0.2613
H59 H 0.6891 1.0090 0.2898
H60 H 0.4680 0.9481 0.2855
C40 C 0.9653(6) 0.8611(3) 0.30134(9)
H61 H 1.0177 0.9234 0.3116
H62 H 1.0241 0.8027 0.3129
C41 C 0.8793(6) 0.7572(3) 0.37000(9)
H63 H 0.8757 0.7125 0.3881
H64 H 0.9462 0.8216 0.3757
H65 H 0.9635 0.7254 0.3535
O3 O 0.6093(5) 0.5750(2) 0.29544(6)
H66 H 0.4753 0.5679 0.2976
O4 O 1.0441(5) 0.8586(2) 0.27027(6)
H67 H 1.0627 0.9178 0.2639
O5 O 0.0886(5) 0.0456(2) 0.24787(6)
H68 H 0.2198 0.0563 0.2355
H69 H 0.0665 0.1012 0.2559
H33? H 0.069(18) 0.550(8) 0.408(2)
H34? H -0.095(19) 0.517(8) 0.413(2)
C21? C 0.0945(17) 0.4936(7) 0.4551(2)
H35? H 0.0175 0.5497 0.4654
H36? H 0.2514 0.5073 0.4562
loop_
_geom_bond_atom_site_label_1
_geom_bond_atom_site_label_2
_geom_bond_site_symmetry_1
_geom_bond_site_symmetry_2
C1 H1 1_555 1_555
H2 C1 1_555 1_555
C2 C1 1_555 1_555
H3 C2 1_555 1_555
C3 C2 1_555 1_555
H4 C3 1_555 1_555
H5 C3 1_555 1_555
C4 C3 1_555 1_555
C5 C4 1_555 1_555
H6 C5 1_555 1_555
C6 C5 1_555 1_555
H7 C6 1_555 1_555
H8 C6 1_555 1_555
C7 C6 1_555 1_555
H9 C7 1_555 1_555
H10 C7 1_555 1_555
C8 C7 1_555 1_555
C9 C8 1_555 1_555
H11 C9 1_555 1_555
C10 C1 1_555 1_555
C11 C9 1_555 1_555
H12 C11 1_555 1_555
H13 C11 1_555 1_555
C12 C11 1_555 1_555
H14 C12 1_555 1_555
H15 C12 1_555 1_555
C13 C12 1_555 1_555
H16 C13 1_555 1_555
C14 C8 1_555 1_555
H17 C14 1_555 1_555
H18 C14 1_555 1_555
C15 C8 1_555 1_555
H19 C15 1_555 1_555
H20 C15 1_555 1_555
C16 C13 1_555 1_555
C17 C16 1_555 1_555
H21 C17 1_555 1_555
H22 C17 1_555 1_555
C18 C4 1_555 1_555
H23 C18 1_555 1_555
H24 C18 1_555 1_555
H25 C18 1_555 1_555
C19 C4 1_555 1_555
H26 C19 1_555 1_555
H27 C19 1_555 1_555
C20 C10 1_555 1_555
H28 C20 1_555 1_555
H29 C20 1_555 1_555
H30 C20 1_555 1_555
O1 C2 1_555 1_555
H31 O1 1_555 1_555
O2 C19 1_555 1_555
H32 O2 1_555 1_555
C22 H37 1_555 1_555
H38 C22 1_555 1_555
C23 C22 1_555 1_555
H39 C23 1_555 1_555
C24 C23 1_555 1_555
H40 C24 1_555 1_555
H41 C24 1_555 1_555
C25 C24 1_555 1_555
C26 C25 1_555 1_555
H42 C26 1_555 1_555
C27 C26 1_555 1_555
H43 C27 1_555 1_555
H44 C27 1_555 1_555
C28 C27 1_555 1_555
H45 C28 1_555 1_555
H46 C28 1_555 1_555
C29 C28 1_555 1_555
C30 C29 1_555 1_555
H47 C30 1_555 1_555
C31 C22 1_555 1_555
C32 C30 1_555 1_555
H48 C32 1_555 1_555
C33 C32 1_555 1_555
H49 C33 1_555 1_555
H50 C33 1_555 1_555
C34 C33 1_555 1_555
H51 C34 1_555 1_555
C35 C29 1_555 1_555
H52 C35 1_555 1_555
H53 C35 1_555 1_555
C36 C29 1_555 1_555
H54 C36 1_555 1_555
H55 C36 1_555 1_555
C37 C34 1_555 1_555
C38 C37 1_555 1_555
H56 C38 1_555 1_555
H57 C38 1_555 1_555
C39 C25 1_555 1_555
H58 C39 1_555 1_555
H59 C39 1_555 1_555
H60 C39 1_555 1_555
C40 C25 1_555 1_555
H61 C40 1_555 1_555
H62 C40 1_555 1_555
C41 C31 1_555 1_555
H63 C41 1_555 1_555
H64 C41 1_555 1_555
H65 C41 1_555 1_555
O3 C23 1_555 1_555
H66 O3 1_555 1_555
O4 C40 1_555 1_555
H67 O4 1_555 1_555
O5 H68 1_555 1_555
H69 O5 1_555 1_555
C5 C10 1_555 1_555
C9 C10 1_555 1_555
C13 C14 1_555 1_555
C15 C16 1_555 1_555
C26 C31 1_555 1_555
C30 C31 1_555 1_555
C34 C35 1_555 1_555
C36 C37 1_555 1_555

#END
