
#######################################################################
#
#                 Cambridge Crystallographic Data Centre
#                                CCDC 
#
#######################################################################
#
# If this CIF has been generated from an entry in the Cambridge 
# Structural Database, then it will include bibliographic, chemical, 
# crystal, experimental, refinement or atomic coordinate data resulting 
# from the CCDC's data processing and validation procedures.
#
#######################################################################

data_GANDIL
_chemical_compound_source        
'Extracted and separated from the whole plant of Aleuritopteris argentea.'
_chemical_name_common            'aleuritopsis A'
_chemical_formula_moiety         'C20 H32 O2'
_chemical_name_systematic        beyer-15-ene-2,18-diol
_chemical_properties_biological  
'Inhibitory effects against MCF-7 breast cancer cells and SKOV3 ovarian cancer cells.'
_symmetry_cell_setting           triclinic
_symmetry_space_group_name_H-M   'P 1'
_symmetry_Int_Tables_number      1
_space_group_name_Hall           'P 1'
loop_
_symmetry_equiv_pos_site_id
_symmetry_equiv_pos_as_xyz
1 x,y,z
_cell_length_a                   6.0685(3)
_cell_length_b                   7.4278(3)
_cell_length_c                   21.1388(8)
_cell_angle_alpha                90.333(3)
_cell_angle_beta                 94.589(3)
_cell_angle_gamma                113.326(4)
_cell_volume                     871.428
_exptl_crystal_colour            colorless
_exptl_crystal_description       block
_cell_formula_units_Z            2
loop_
_atom_site_label
_atom_site_type_symbol
_atom_site_fract_x
_atom_site_fract_y
_atom_site_fract_z
O1 O -0.8840(3) -0.7550(2) -0.93156(7)
H1 H -0.9455 -0.8744 -0.9380
O2 O -0.1070(3) -0.1559(2) -0.94982(7)
H2 H -0.1011 -0.1912 -0.9133
C1 C -0.5662(4) -0.5898(3) -1.08443(10)
H3 H -0.4171 -0.6011 -1.0944
C2 C -0.3094(4) -0.2361(3) -1.05354(9)
H4 H -0.1634 -0.2452 -1.0658
H5 H -0.2928 -0.1019 -1.0588
C3 C -0.3908(4) -0.1251(3) -1.18879(10)
H6 H -0.5207 -0.0883 -1.1785
H7 H -0.2454 -0.0384 -1.1640
C4 C -0.6301(4) -0.4892(3) -1.21949(10)
C5 C -0.5250(4) -0.3732(3) -1.09882(9)
C6 C -0.3775(4) -0.4956(3) -0.97230(10)
H8 H -0.4046 -0.5202 -0.9280
H9 H -0.2333 -0.5157 -0.9800
C7 C -0.5921(4) -0.6470(3) -1.01360(10)
C8 C -0.7620(4) -0.7345(3) -1.13182(10)
H10 H -0.7879 -0.8678 -1.1211
H11 H -0.9121 -0.7187 -1.1289
C9 C -0.4497(4) -0.3383(3) -1.16852(10)
H12 H -0.2988 -0.3571 -1.1686
C10 C -0.3324(4) -0.2822(3) -0.98365(10)
H13 H -0.4640 -0.2531 -0.9688
C11 C -0.8447(4) -0.4359(3) -1.23721(10)
H14 H -0.9903 -0.4869 -1.2189
C12 C -0.5140(4) -0.4501(3) -1.28306(10)
H15 H -0.3455 -0.4297 -1.2773
H16 H -0.5983 -0.5571 -1.3141
C13 C -0.3549(4) -0.0922(3) -1.25983(11)
H17 H -0.1949 -0.0818 -1.2674
H18 H -0.3663 0.0305 -1.2709
C14 C -0.5441(4) -0.2609(3) -1.30280(10)
C15 C -0.6890(4) -0.6997(3) -1.19969(10)
H19 H -0.8193 -0.7886 -1.2287
H20 H -0.5492 -0.7303 -1.2034
C16 C -0.7938(4) -0.3065(3) -1.28243(11)
H21 H -0.8975 -0.2511 -1.2994
C17 C -0.8338(4) -0.6611(3) -0.99091(10)
H22 H -0.8305 -0.5300 -0.9865
H23 H -0.9630 -0.7338 -1.0230
C18 C -0.5751(4) -0.8472(3) -1.00573(10)
H24 H -0.4472 -0.8514 -1.0288
H25 H -0.7247 -0.9499 -1.0219
H26 H -0.5428 -0.8652 -0.9615
C19 C -0.7485(4) -0.3290(3) -1.08956(10)
H27 H -0.7503 -0.2986 -1.0455
H28 H -0.8917 -0.4418 -1.1033
H29 H -0.7426 -0.2192 -1.1141
C20 C -0.5172(5) -0.2165(4) -1.37276(11)
H30 H -0.6241 -0.3286 -1.3985
H31 H -0.3540 -0.1869 -1.3816
H32 H -0.5566 -0.1059 -1.3822
O3 O -0.1132(3) -0.6541(2) -0.83978(7)
H33 H -0.0553 -0.6703 -0.8720
O4 O -0.1068(3) -1.2909(2) -0.83031(7)
H34 H -0.1161 -1.4037 -0.8276
C21 C -0.3153(4) -1.1510(3) -0.76394(10)
C22 C -0.3067(4) -0.9934(3) -0.81179(10)
H35 H -0.2864 -1.0372 -0.8534
H36 H -0.4595 -0.9796 -0.8145
C23 C -0.2202(4) -0.7905(3) -0.61627(9)
H37 H -0.3716 -0.7801 -0.6313
C24 C -0.1328(4) -0.8604(3) -0.67575(9)
C25 C -0.3523(4) -1.2131(3) -0.64264(10)
H38 H -0.4644 -1.3438 -0.6573
H39 H -0.1974 -1.2181 -0.6304
C26 C -0.1051(4) -0.7944(3) -0.79445(9)
H40 H 0.0503 -0.8059 -0.7940
C27 C -0.1295(4) -0.7194(3) -0.72944(9)
H41 H -0.2773 -0.6977 -0.7312
H42 H 0.0037 -0.5940 -0.7193
C28 C -0.3269(4) -1.0696(3) -0.69654(10)
H43 H -0.4796 -1.0527 -0.6997
C29 C -0.1178(4) -0.5188(3) -0.52761(11)
H44 H -0.2501 -0.4783 -0.5370
H45 H 0.0185 -0.4065 -0.5083
C30 C -0.4435(4) -1.1460(3) -0.58551(10)
H46 H -0.4536 -1.2352 -0.5515
H47 H -0.6048 -1.1535 -0.5973
C31 C -0.2837(4) -0.9369(3) -0.56087(10)
C32 C -0.4068(4) -0.8575(3) -0.51363(10)
H48 H -0.4886 -0.9560 -0.4840
H49 H -0.5217 -0.8131 -0.5355
C33 C -0.0495(4) -0.5822(3) -0.58987(10)
H50 H 0.1127 -0.5774 -0.5829
H51 H -0.0479 -0.4883 -0.6217
C34 C -0.5471(4) -1.3341(3) -0.78210(11)
H52 H -0.5572 -1.3667 -0.8266
H53 H -0.6845 -1.3078 -0.7733
H54 H -0.5443 -1.4421 -0.7578
C35 C -0.1015(4) -1.2105(3) -0.76834(10)
H55 H 0.0482 -1.0965 -0.7591
H56 H -0.1080 -1.3070 -0.7370
C36 C 0.1235(4) -0.8545(3) -0.66163(10)
H57 H 0.1163 -0.9646 -0.6370
H58 H 0.2233 -0.7349 -0.6382
H59 H 0.1902 -0.8603 -0.7009
C37 C -0.1928(4) -0.6850(3) -0.47958(10)
C38 C -0.0068(4) -0.7763(3) -0.47425(11)
H60 H 0.1244 -0.7385 -0.4438
C39 C -0.2446(5) -0.6151(4) -0.41711(11)
H61 H -0.3727 -0.5708 -0.4245
H62 H -0.1024 -0.5090 -0.3987
H63 H -0.2913 -0.7213 -0.3886
C40 C -0.0577(4) -0.9169(3) -0.51894(10)
H64 H 0.0314 -0.9923 -0.5239
loop_
_geom_bond_atom_site_label_1
_geom_bond_atom_site_label_2
_geom_bond_site_symmetry_1
_geom_bond_site_symmetry_2
O1 H1 1_555 1_555
O2 H2 1_555 1_555
C1 H3 1_555 1_555
C2 H4 1_555 1_555
H5 C2 1_555 1_555
C3 H6 1_555 1_555
H7 C3 1_555 1_555
C4 C9 1_555 1_555
C5 C1 1_555 1_555
C6 H8 1_555 1_555
H9 C6 1_555 1_555
C7 C1 1_555 1_555
C8 C1 1_555 1_555
H10 C8 1_555 1_555
H11 C8 1_555 1_555
C9 C3 1_555 1_555
H12 C9 1_555 1_555
C10 O2 1_555 1_555
H13 C10 1_555 1_555
C11 C4 1_555 1_555
H14 C11 1_555 1_555
C12 C4 1_555 1_555
H15 C12 1_555 1_555
H16 C12 1_555 1_555
C13 C3 1_555 1_555
H17 C13 1_555 1_555
H18 C13 1_555 1_555
C14 C12 1_555 1_555
C15 C4 1_555 1_555
H19 C15 1_555 1_555
H20 C15 1_555 1_555
C16 C11 1_555 1_555
H21 C16 1_555 1_555
C17 O1 1_555 1_555
H22 C17 1_555 1_555
H23 C17 1_555 1_555
C18 C7 1_555 1_555
H24 C18 1_555 1_555
H25 C18 1_555 1_555
H26 C18 1_555 1_555
C19 C5 1_555 1_555
H27 C19 1_555 1_555
H28 C19 1_555 1_555
H29 C19 1_555 1_555
C20 C14 1_555 1_555
H30 C20 1_555 1_555
H31 C20 1_555 1_555
H32 C20 1_555 1_555
O3 H33 1_555 1_555
O4 H34 1_555 1_555
C21 C22 1_555 1_555
C22 H35 1_555 1_555
H36 C22 1_555 1_555
C23 H37 1_555 1_555
C24 C23 1_555 1_555
C25 H38 1_555 1_555
H39 C25 1_555 1_555
C26 O3 1_555 1_555
H40 C26 1_555 1_555
C27 C24 1_555 1_555
H41 C27 1_555 1_555
H42 C27 1_555 1_555
C28 C21 1_555 1_555
H43 C28 1_555 1_555
C29 H44 1_555 1_555
H45 C29 1_555 1_555
C30 C25 1_555 1_555
H46 C30 1_555 1_555
H47 C30 1_555 1_555
C31 C23 1_555 1_555
C32 C31 1_555 1_555
H48 C32 1_555 1_555
H49 C32 1_555 1_555
C33 C23 1_555 1_555
H50 C33 1_555 1_555
H51 C33 1_555 1_555
C34 C21 1_555 1_555
H52 C34 1_555 1_555
H53 C34 1_555 1_555
H54 C34 1_555 1_555
C35 O4 1_555 1_555
H55 C35 1_555 1_555
H56 C35 1_555 1_555
C36 C24 1_555 1_555
H57 C36 1_555 1_555
H58 C36 1_555 1_555
H59 C36 1_555 1_555
C37 C29 1_555 1_555
C38 C37 1_555 1_555
H60 C38 1_555 1_555
C39 C37 1_555 1_555
H61 C39 1_555 1_555
H62 C39 1_555 1_555
H63 C39 1_555 1_555
C40 C31 1_555 1_555
H64 C40 1_555 1_555
C2 C5 1_555 1_555
C2 C10 1_555 1_555
C5 C9 1_555 1_555
C6 C7 1_555 1_555
C6 C10 1_555 1_555
C7 C17 1_555 1_555
C8 C15 1_555 1_555
C13 C14 1_555 1_555
C14 C16 1_555 1_555
C21 C35 1_555 1_555
C22 C26 1_555 1_555
C24 C28 1_555 1_555
C25 C28 1_555 1_555
C26 C27 1_555 1_555
C29 C33 1_555 1_555
C30 C31 1_555 1_555
C32 C37 1_555 1_555
C38 C40 1_555 1_555

#END
