
#######################################################################
#
#                 Cambridge Crystallographic Data Centre
#                                CCDC 
#
#######################################################################
#
# If this CIF has been generated from an entry in the Cambridge 
# Structural Database, then it will include bibliographic, chemical, 
# crystal, experimental, refinement or atomic coordinate data resulting 
# from the CCDC's data processing and validation procedures.
#
#######################################################################

data_GANGAG
_chemical_formula_moiety         'C31 H24 Br1 N1 O3'
_chemical_name_systematic        
2-(1-(4-bromophenyl)-6,6-dimethyl-4-oxo-2-phenyl-4,5,6,7-tetrahydro-1H-indol-3-yl)-1H-indene-1,3(2H)-dione
_symmetry_cell_setting           monoclinic
_symmetry_space_group_name_H-M   'P 21/c'
_symmetry_Int_Tables_number      14
_space_group_name_Hall           '-P 2ybc'
loop_
_symmetry_equiv_pos_site_id
_symmetry_equiv_pos_as_xyz
1 x,y,z
2 -x,1/2+y,1/2-z
3 -x,-y,-z
4 x,1/2-y,1/2+z
_cell_length_a                   12.6974(11)
_cell_length_b                   9.6815(8)
_cell_length_c                   23.1368(16)
_cell_angle_alpha                90
_cell_angle_beta                 116.345(4)
_cell_angle_gamma                90
_cell_volume                     2548.8
_exptl_crystal_colour            yellow
_exptl_crystal_description       block
_cell_formula_units_Z            4
loop_
_atom_site_label
_atom_site_type_symbol
_atom_site_fract_x
_atom_site_fract_y
_atom_site_fract_z
Br1 Br 0.02100(10) -0.42609(12) 0.27198(6)
N1 N 0.2593(5) -0.0411(6) 0.1586(3)
O1 O 0.4449(5) 0.3343(5) 0.1256(3)
O2 O 0.1632(5) 0.2252(7) -0.0208(3)
O3 O 0.5549(5) 0.0722(6) 0.0773(3)
C1 C 0.2631(6) -0.0576(8) 0.0993(3)
C2 C 0.3213(6) 0.0555(7) 0.0903(3)
C3 C 0.3540(7) 0.1408(7) 0.1465(4)
C4 C 0.4087(7) 0.2762(8) 0.1601(4)
C5 C 0.4233(7) 0.3387(8) 0.2235(3)
H1 H 0.4984 0.3089 0.2573
H2 H 0.4263 0.4384 0.2204
C6 C 0.3283(8) 0.3027(8) 0.2437(4)
C7 C 0.3182(7) 0.1461(7) 0.2463(4)
H3 H 0.3856 0.1102 0.2835
H4 H 0.2480 0.1227 0.2509
C8 C 0.3124(7) 0.0816(8) 0.1860(3)
C9 C 0.2027(7) -0.1297(7) 0.1852(4)
C10 C 0.2618(7) -0.1767(8) 0.2478(4)
H5 H 0.3393 -0.1497 0.2726
C11 C 0.2081(7) -0.2637(7) 0.2747(4)
H6 H 0.2490 -0.2954 0.3169
C12 C 0.0933(8) -0.3015(8) 0.2376(4)
C13 C 0.0338(7) -0.2562(8) 0.1758(4)
H7 H -0.0435 -0.2840 0.1510
C14 C 0.0880(7) -0.1684(7) 0.1495(4)
H8 H 0.0462 -0.1358 0.1076
C15 C 0.2084(7) -0.1763(8) 0.0568(4)
C16 C 0.2340(8) -0.3106(9) 0.0773(4)
H9 H 0.2883 -0.3289 0.1196
C17 C 0.1803(9) -0.4186(9) 0.0358(5)
H10 H 0.1987 -0.5090 0.0505
C18 C 0.0997(10) -0.3946(12) -0.0271(5)
H11 H 0.0620 -0.4674 -0.0548
C19 C 0.0769(10) -0.2614(13) -0.0473(5)
H12 H 0.0243 -0.2443 -0.0901
C20 C 0.1290(8) -0.1492(9) -0.0067(4)
H13 H 0.1110 -0.0590 -0.0217
C21 C 0.2630(8) 0.2027(10) -0.0098(4)
C22 C 0.3382(7) 0.0836(8) 0.0312(3)
H14 H 0.3157 0.0001 0.0046
C23 C 0.4636(7) 0.1254(8) 0.0414(4)
C24 C 0.4508(8) 0.2385(8) -0.0044(4)
C25 C 0.3353(7) 0.2845(8) -0.0328(4)
C26 C 0.3033(7) 0.3934(8) -0.0763(3)
H15 H 0.2262 0.4254 -0.0956
C27 C 0.3871(8) 0.4529(8) -0.0905(4)
H16 H 0.3665 0.5261 -0.1195
C28 C 0.5020(8) 0.4057(8) -0.0622(4)
H17 H 0.5579 0.4479 -0.0719
C29 C 0.5338(7) 0.2960(8) -0.0196(4)
H18 H 0.6102 0.2619 -0.0016
C30 C 0.3564(8) 0.3664(8) 0.3089(4)
H19 H 0.4311 0.3328 0.3404
H20 H 0.2965 0.3415 0.3216
H21 H 0.3595 0.4651 0.3060
C31 C 0.2115(8) 0.3620(9) 0.1940(4)
H22 H 0.2187 0.4601 0.1911
H23 H 0.1511 0.3424 0.2071
H24 H 0.1912 0.3206 0.1527
loop_
_geom_bond_atom_site_label_1
_geom_bond_atom_site_label_2
_geom_bond_site_symmetry_1
_geom_bond_site_symmetry_2
Br1 C12 1_555 1_555
N1 C1 1_555 1_555
O1 C4 1_555 1_555
O2 C21 1_555 1_555
O3 C23 1_555 1_555
C1 C2 1_555 1_555
C2 C3 1_555 1_555
C3 C4 1_555 1_555
C4 C5 1_555 1_555
C5 H1 1_555 1_555
H2 C5 1_555 1_555
C6 C5 1_555 1_555
C7 C6 1_555 1_555
H3 C7 1_555 1_555
H4 C7 1_555 1_555
C8 N1 1_555 1_555
C9 N1 1_555 1_555
C10 C9 1_555 1_555
H5 C10 1_555 1_555
C11 C10 1_555 1_555
H6 C11 1_555 1_555
C12 C11 1_555 1_555
C13 C12 1_555 1_555
H7 C13 1_555 1_555
C14 C9 1_555 1_555
H8 C14 1_555 1_555
C15 C1 1_555 1_555
C16 C15 1_555 1_555
H9 C16 1_555 1_555
C17 C16 1_555 1_555
H10 C17 1_555 1_555
C18 C17 1_555 1_555
H11 C18 1_555 1_555
C19 C18 1_555 1_555
H12 C19 1_555 1_555
C20 C15 1_555 1_555
H13 C20 1_555 1_555
C21 C22 1_555 1_555
C22 C2 1_555 1_555
H14 C22 1_555 1_555
C23 C22 1_555 1_555
C24 C23 1_555 1_555
C25 C21 1_555 1_555
C26 C25 1_555 1_555
H15 C26 1_555 1_555
C27 C26 1_555 1_555
H16 C27 1_555 1_555
C28 C27 1_555 1_555
H17 C28 1_555 1_555
C29 C24 1_555 1_555
H18 C29 1_555 1_555
C30 C6 1_555 1_555
H19 C30 1_555 1_555
H20 C30 1_555 1_555
H21 C30 1_555 1_555
C31 C6 1_555 1_555
H22 C31 1_555 1_555
H23 C31 1_555 1_555
H24 C31 1_555 1_555
C3 C8 1_555 1_555
C7 C8 1_555 1_555
C13 C14 1_555 1_555
C19 C20 1_555 1_555
C24 C25 1_555 1_555
C28 C29 1_555 1_555

#END
