
#######################################################################
#
#                 Cambridge Crystallographic Data Centre
#                                CCDC 
#
#######################################################################
#
# If this CIF has been generated from an entry in the Cambridge 
# Structural Database, then it will include bibliographic, chemical, 
# crystal, experimental, refinement or atomic coordinate data resulting 
# from the CCDC's data processing and validation procedures.
#
#######################################################################

data_GANGAD
_chemical_name_common            Antiarthritica
_chemical_formula_moiety         'C7 H13 N1 O3 S1'
_chemical_name_systematic        N-Acetyl-D,L-penicillamine
_chemical_properties_biological  'antirheumatic activity'
_symmetry_cell_setting           monoclinic
_symmetry_space_group_name_H-M   'P 21/c'
_symmetry_Int_Tables_number      14
_space_group_name_Hall           '-P 2ybc'
loop_
_symmetry_equiv_pos_site_id
_symmetry_equiv_pos_as_xyz
1 x,y,z
2 -x,1/2+y,1/2-z
3 -x,-y,-z
4 x,1/2-y,1/2+z
_cell_length_a                   6.054(1)
_cell_length_b                   10.096(3)
_cell_length_c                   14.961(3)
_cell_angle_alpha                90
_cell_angle_beta                 95.78(2)
_cell_angle_gamma                90
_cell_volume                     909.785
_cell_formula_units_Z            4
loop_
_atom_site_label
_atom_site_type_symbol
_atom_site_fract_x
_atom_site_fract_y
_atom_site_fract_z
S1 S 0.8193(4) 0.3713(2) 0.4283(1)
N1 N 0.8055(4) 0.3446(3) 0.6323(2)
O1 O 0.5584(3) 0.1406(2) 0.6807(2)
O2 O 0.6173(4) 0.4640(2) 0.7258(1)
O3 O 0.2494(3) 0.2287(2) 0.6111(2)
C1 C 0.4499(5) 0.2235(3) 0.6246(2)
C2 C 0.6029(5) 0.3144(3) 0.5756(2)
C3 C 0.6510(5) 0.2568(3) 0.4831(2)
C4 C 0.7988(5) 0.4187(3) 0.7062(2)
C5 C 1.0142(5) 0.4424(4) 0.7630(2)
C6 C 0.4318(5) 0.2445(3) 0.4205(2)
C7 C 0.7715(17) 0.1138(11) 0.4964(7)
H1 H 1.150(16) 0.421(11) 0.732(7)
H2 H 1.029(7) 0.529(4) 0.791(3)
H3 H 1.044(8) 0.406(5) 0.807(3)
H4 H 0.320(10) 0.173(6) 0.451(4)
H5 H 0.338(10) 0.335(6) 0.412(4)
H6 H 0.497(9) 0.200(5) 0.363(3)
H7 H 0.473(8) 0.383(5) 0.572(3)
H8 H 0.972(8) 0.307(5) 0.623(3)
H9 H 0.451(3) 0.086(2) 0.718(1)
loop_
_geom_bond_atom_site_label_1
_geom_bond_atom_site_label_2
_geom_bond_site_symmetry_1
_geom_bond_site_symmetry_2
S1 C3 1_555 1_555
N1 C2 1_555 1_555
O1 C1 1_555 1_555
O2 C4 1_555 1_555
O3 C1 1_555 1_555
C1 C2 1_555 1_555
C2 C3 1_555 1_555
C3 C6 1_555 1_555
C4 N1 1_555 1_555
C5 C4 1_555 1_555
C6 H4 1_555 1_555
C7 C3 1_555 1_555
H1 C5 1_555 1_555
H2 C5 1_555 1_555
H3 C5 1_555 1_555
H5 C6 1_555 1_555
H6 C6 1_555 1_555
H7 C2 1_555 1_555
H8 N1 1_555 1_555
H9 O1 1_555 1_555

#END
