
#######################################################################
#
#                 Cambridge Crystallographic Data Centre
#                                CCDC 
#
#######################################################################
#
# If this CIF has been generated from an entry in the Cambridge 
# Structural Database, then it will include bibliographic, chemical, 
# crystal, experimental, refinement or atomic coordinate data resulting 
# from the CCDC's data processing and validation procedures.
#
#######################################################################

data_GANHIP
_chemical_compound_source        
'isolated from the fruiting body of Ganoderma gibbosum'
_chemical_name_common            'gibbosic acid A monohydrate'
_chemical_formula_moiety         'C30 H38 O8,H2 O1'
_chemical_name_systematic        
'20-hydroxy-3,12,15,23-tetraoxo-7,8-epoxylanosta-9(11),16-dien-26-oic acid monohydrate'
_symmetry_cell_setting           monoclinic
_symmetry_space_group_name_H-M   'P 21'
_symmetry_Int_Tables_number      4
_space_group_name_Hall           'P 2yb'
loop_
_symmetry_equiv_pos_site_id
_symmetry_equiv_pos_as_xyz
1 x,y,z
2 -x,1/2+y,-z
_cell_length_a                   6.8662(4)
_cell_length_b                   12.0343(8)
_cell_length_c                   33.453(2)
_cell_angle_alpha                90
_cell_angle_beta                 91.773(3)
_cell_angle_gamma                90
_cell_volume                     2762.9
_exptl_crystal_colour            colorless
_exptl_crystal_description       plate
_cell_formula_units_Z            4
loop_
_atom_site_label
_atom_site_type_symbol
_atom_site_fract_x
_atom_site_fract_y
_atom_site_fract_z
O1 O 0.815(2) 0.8045(11) 0.3360(3)
O2 O 0.1327(11) 0.6987(9) 0.7710(3)
H1 H 0.0849 0.7627 0.7725
O3 O 0.3961(18) 0.7914(11) 0.7518(3)
O4 O 0.5078(14) 0.6524(9) 0.6740(3)
O5 O 0.8227(11) 0.9040(7) 0.5732(3)
O6 O 0.8724(11) 0.4230(7) 0.5677(3)
O7 O 0.7448(12) 0.8491(8) 0.6505(3)
H2 H 0.6360 0.8317 0.6594
C1 C 0.7254(19) 0.7711(13) 0.3635(4)
C2 C 0.5875(17) 0.8455(12) 0.3854(4)
H3 H 0.4519 0.8203 0.3801
H4 H 0.5989 0.9225 0.3753
C3 C 0.6320(17) 0.8440(11) 0.4308(3)
H5 H 0.7670 0.8702 0.4361
H6 H 0.5426 0.8957 0.4441
C4 C 0.6093(16) 0.7287(10) 0.4481(3)
C5 C 0.6846(13) 0.7245(9) 0.4919(3)
C6 C 0.7157(15) 0.8176(10) 0.5132(3)
H7 H 0.7004 0.8871 0.5000
C7 C 0.7744(14) 0.8176(9) 0.5578(3)
C8 C 0.7486(14) 0.7035(9) 0.5769(3)
C9 C 0.8417(13) 0.6750(9) 0.6181(3)
C10 C 0.8741(19) 0.7547(11) 0.6533(4)
C11 C 0.8318(19) 0.6994(13) 0.6926(4)
H8 H 0.9285 0.6391 0.6967
H9 H 0.8581 0.7549 0.7140
C12 C 0.6385(19) 0.6516(13) 0.6996(3)
C13 C 0.601(2) 0.6039(18) 0.7409(5)
H10 H 0.6592 0.5285 0.7419
H11 H 0.6762 0.6497 0.7606
C14 C 0.404(2) 0.5941(13) 0.7555(4)
H12 H 0.4194 0.5666 0.7836
C15 C 0.3160(19) 0.7056(14) 0.7584(4)
C16 C 0.2761(18) 0.5036(12) 0.7324(4)
H13 H 0.1503 0.4961 0.7452
H14 H 0.3442 0.4320 0.7332
H15 H 0.2545 0.5267 0.7045
C17 C 0.5217(15) 0.6899(10) 0.5807(3)
H16 H 0.4564 0.7074 0.5550
H17 H 0.4757 0.7407 0.6013
H18 H 0.4920 0.6132 0.5882
C18 C 0.7455(15) 0.6541(11) 0.3789(4)
C19 C 0.7451(16) 0.6446(11) 0.4251(3)
H19 H 0.8805 0.6658 0.4340
C20 C 0.7221(17) 0.5243(10) 0.4399(4)
H20 H 0.5922 0.4963 0.4311
H21 H 0.8214 0.4771 0.4273
C21 C 0.7433(15) 0.5132(9) 0.4849(3)
H22 H 0.8289 0.4518 0.4953
O8 O 0.5682(11) 0.5369(8) 0.5074(3)
C22 C 0.7296(15) 0.6120(10) 0.5101(3)
C23 C 0.8397(14) 0.6201(9) 0.5493(3)
C24 C 1.0527(17) 0.6508(12) 0.5394(4)
H23 H 1.0675 0.6488 0.5103
H24 H 1.1424 0.5973 0.5522
H25 H 1.0825 0.7257 0.5494
C25 C 0.8628(17) 0.5205(10) 0.5775(4)
C26 C 0.8788(17) 0.5648(11) 0.6174(4)
H26 H 0.9116 0.5218 0.6404
C27 C 0.9353(17) 0.6055(12) 0.3641(3)
H27 H 0.9383 0.6129 0.3349
H28 H 0.9436 0.5267 0.3714
H29 H 1.0460 0.6456 0.3764
C28 C 0.571(2) 0.5899(14) 0.3576(4)
H30 H 0.4522 0.6010 0.3726
H31 H 0.6015 0.5104 0.3566
H32 H 0.5507 0.6184 0.3303
C29 C 0.3931(14) 0.6959(11) 0.4470(3)
H33 H 0.3219 0.7442 0.4650
H34 H 0.3803 0.6184 0.4555
H35 H 0.3392 0.7041 0.4197
C30 C 1.094(2) 0.7889(13) 0.6532(4)
H36 H 1.1293 0.8091 0.6260
H37 H 1.1746 0.7263 0.6625
H38 H 1.1156 0.8526 0.6710
O9 O 0.3420(14) 0.4545(9) 0.2732(3)
O10 O 0.952(2) 0.8856(13) 0.7795(5)
O11 O -0.1031(13) 0.3874(10) 0.7906(3)
O12 O 0.428(2) -0.0038(10) 1.1552(3)
O13 O 0.3371(13) 0.3794(7) 0.9286(3)
C31 C 0.5285(16) 0.0100(10) 0.8433(4)
H39 H 0.5632 -0.0218 0.8695
H40 H 0.6127 0.0739 0.8382
H41 H 0.5461 -0.0463 0.8225
O14 O 0.1847(10) -0.0433(7) 0.8456(2)
H42 H 0.2342 -0.0998 0.8353
O15 O -0.4116(14) 0.3256(9) 0.7943(3)
H43 H -0.4360 0.3912 0.8011
O16 O -0.0514(10) 0.1490(7) 0.8226(3)
O17 O 0.0609(11) 0.2647(7) 0.9897(2)
O18 O 0.2889(12) -0.1030(7) 0.9227(3)
C32 C -0.2289(18) 0.3198(13) 0.7811(4)
C33 C -0.2008(19) 0.2310(13) 0.7513(4)
H44 H -0.2892 0.1675 0.7572
C34 C 0.0106(17) 0.1917(12) 0.7553(4)
H45 H 0.0322 0.1332 0.7351
H46 H 0.0977 0.2548 0.7493
C35 C 0.066(2) 0.1466(12) 0.7960(4)
C36 C 0.2626(16) 0.1044(10) 0.8022(3)
H47 H 0.3538 0.1671 0.7988
H48 H 0.2874 0.0502 0.7807
C37 C 0.3147(18) 0.0478(11) 0.8427(4)
C38 C 0.2978(13) 0.1276(9) 0.8782(3)
C39 C 0.2218(14) 0.0954(9) 0.9191(3)
C40 C 0.2509(15) -0.0158(11) 0.9392(3)
C41 C 0.2131(15) -0.0154(10) 0.9829(3)
H49 H 0.2009 -0.0852 0.9958
C42 C 0.1951(15) 0.0760(9) 1.0053(3)
C43 C 0.1336(16) 0.0740(9) 1.0484(3)
C44 C 0.2732(16) 0.1591(10) 1.0717(3)
H50 H 0.4077 0.1409 1.0631
C45 C 0.2836(16) 0.1539(12) 1.1180(4)
C46 C 0.305(2) 0.0274(13) 1.1310(5)
C47 C -0.0064(15) 0.1111(10) 0.9157(3)
H51 H -0.0367 0.1888 0.9093
H52 H -0.0637 0.0914 0.9412
H53 H -0.0604 0.0629 0.8945
C48 C 0.3140(17) 0.1839(11) 0.9469(3)
C49 C 0.3275(15) 0.2832(10) 0.9188(4)
C50 C 0.3356(15) 0.2366(10) 0.8783(3)
H54 H 0.3641 0.2785 0.8552
C51 C -0.249(2) 0.2741(16) 0.7092(4)
H55 H -0.3895 0.2854 0.7060
H56 H -0.2057 0.2198 0.6895
H57 H -0.1812 0.3448 0.7052
C52 C 0.5387(15) 0.1519(11) 0.9553(4)
H58 H 0.6063 0.2144 0.9684
H59 H 0.6001 0.1351 0.9299
H60 H 0.5467 0.0865 0.9728
C53 C 0.2209(15) 0.1875(10) 0.9864(3)
C54 C 0.2424(15) 0.2885(10) 1.0119(4)
H61 H 0.3244 0.3499 1.0013
C55 C 0.2332(18) 0.2792(10) 1.0567(3)
H62 H 0.1026 0.3029 1.0651
H63 H 0.3306 0.3301 1.0692
C56 C -0.0883(16) 0.1007(12) 1.0509(4)
H64 H -0.1166 0.1713 1.0373
H65 H -0.1231 0.1064 1.0790
H66 H -0.1644 0.0411 1.0380
C57 C 0.1757(18) -0.0405(11) 1.0664(4)
H67 H 0.0874 -0.0952 1.0532
H68 H 0.3108 -0.0617 1.0603
C58 C 0.1524(19) -0.0490(10) 1.1115(4)
H69 H 0.1728 -0.1266 1.1205
H70 H 0.0199 -0.0253 1.1187
C59 C 0.120(2) 0.2001(19) 1.1390(5)
H71 H 0.1466 0.1956 1.1679
H72 H 0.0017 0.1579 1.1321
H73 H 0.1015 0.2780 1.1312
C60 C 0.477(2) 0.2030(13) 1.1331(4)
H74 H 0.4685 0.2842 1.1331
H75 H 0.5811 0.1796 1.1154
H76 H 0.5067 0.1765 1.1603
loop_
_geom_bond_atom_site_label_1
_geom_bond_atom_site_label_2
_geom_bond_site_symmetry_1
_geom_bond_site_symmetry_2
O1 C1 1_555 1_555
O2 H1 1_555 1_555
O3 C15 1_555 1_555
O4 C12 1_555 1_555
O5 C7 1_555 1_555
O6 C25 1_555 1_555
O7 H2 1_555 1_555
C1 C2 1_555 1_555
C2 H3 1_555 1_555
H4 C2 1_555 1_555
C3 C2 1_555 1_555
H5 C3 1_555 1_555
H6 C3 1_555 1_555
C4 C3 1_555 1_555
C5 C4 1_555 1_555
C6 C5 1_555 1_555
H7 C6 1_555 1_555
C7 C6 1_555 1_555
C8 C7 1_555 1_555
C9 C8 1_555 1_555
C10 O7 1_555 1_555
C11 C10 1_555 1_555
H8 C11 1_555 1_555
H9 C11 1_555 1_555
C12 C11 1_555 1_555
C13 C12 1_555 1_555
H10 C13 1_555 1_555
H11 C13 1_555 1_555
C14 C13 1_555 1_555
H12 C14 1_555 1_555
C15 O2 1_555 1_555
C16 C14 1_555 1_555
H13 C16 1_555 1_555
H14 C16 1_555 1_555
H15 C16 1_555 1_555
C17 C8 1_555 1_555
H16 C17 1_555 1_555
H17 C17 1_555 1_555
H18 C17 1_555 1_555
C18 C1 1_555 1_555
C19 C4 1_555 1_555
H19 C19 1_555 1_555
C20 C19 1_555 1_555
H20 C20 1_555 1_555
H21 C20 1_555 1_555
C21 C20 1_555 1_555
H22 C21 1_555 1_555
O8 C21 1_555 1_555
C22 C5 1_555 1_555
C23 C8 1_555 1_555
C24 C23 1_555 1_555
H23 C24 1_555 1_555
H24 C24 1_555 1_555
H25 C24 1_555 1_555
C25 C23 1_555 1_555
C26 C9 1_555 1_555
H26 C26 1_555 1_555
C27 C18 1_555 1_555
H27 C27 1_555 1_555
H28 C27 1_555 1_555
H29 C27 1_555 1_555
C28 C18 1_555 1_555
H30 C28 1_555 1_555
H31 C28 1_555 1_555
H32 C28 1_555 1_555
C29 C4 1_555 1_555
H33 C29 1_555 1_555
H34 C29 1_555 1_555
H35 C29 1_555 1_555
C30 C10 1_555 1_555
H36 C30 1_555 1_555
H37 C30 1_555 1_555
H38 C30 1_555 1_555
O11 C32 1_555 1_555
O12 C46 1_555 1_555
O13 C49 1_555 1_555
C31 H39 1_555 1_555
H40 C31 1_555 1_555
H41 C31 1_555 1_555
O14 H42 1_555 1_555
O15 H43 1_555 1_555
O16 C35 1_555 1_555
O17 C53 1_555 1_555
O18 C40 1_555 1_555
C32 O15 1_555 1_555
C33 C32 1_555 1_555
H44 C33 1_555 1_555
C34 C33 1_555 1_555
H45 C34 1_555 1_555
H46 C34 1_555 1_555
C35 C34 1_555 1_555
C36 C35 1_555 1_555
H47 C36 1_555 1_555
H48 C36 1_555 1_555
C37 C31 1_555 1_555
C38 C37 1_555 1_555
C39 C38 1_555 1_555
C40 C39 1_555 1_555
C41 C40 1_555 1_555
H49 C41 1_555 1_555
C42 C41 1_555 1_555
C43 C42 1_555 1_555
C44 C43 1_555 1_555
H50 C44 1_555 1_555
C45 C44 1_555 1_555
C46 C45 1_555 1_555
C47 C39 1_555 1_555
H51 C47 1_555 1_555
H52 C47 1_555 1_555
H53 C47 1_555 1_555
C48 C39 1_555 1_555
C49 C48 1_555 1_555
C50 C38 1_555 1_555
H54 C50 1_555 1_555
C51 C33 1_555 1_555
H55 C51 1_555 1_555
H56 C51 1_555 1_555
H57 C51 1_555 1_555
C52 C48 1_555 1_555
H58 C52 1_555 1_555
H59 C52 1_555 1_555
H60 C52 1_555 1_555
C53 C42 1_555 1_555
C54 O17 1_555 1_555
H61 C54 1_555 1_555
C55 C44 1_555 1_555
H62 C55 1_555 1_555
H63 C55 1_555 1_555
C56 C43 1_555 1_555
H64 C56 1_555 1_555
H65 C56 1_555 1_555
H66 C56 1_555 1_555
C57 C43 1_555 1_555
H67 C57 1_555 1_555
H68 C57 1_555 1_555
C58 C46 1_555 1_555
H69 C58 1_555 1_555
H70 C58 1_555 1_555
C59 C45 1_555 1_555
H71 C59 1_555 1_555
H72 C59 1_555 1_555
H73 C59 1_555 1_555
C60 C45 1_555 1_555
H74 C60 1_555 1_555
H75 C60 1_555 1_555
H76 C60 1_555 1_555
C9 C10 1_555 1_555
C14 C15 1_555 1_555
C18 C19 1_555 1_555
C21 C22 1_555 1_555
O8 C22 1_555 1_555
C22 C23 1_555 1_555
C25 C26 1_555 1_555
O14 C37 1_555 1_555
C36 C37 1_555 1_555
C48 C53 1_555 1_555
C49 C50 1_555 1_555
C53 C54 1_555 1_555
C54 C55 1_555 1_555
C57 C58 1_555 1_555

#END
