
#######################################################################
#
#                 Cambridge Crystallographic Data Centre
#                                CCDC 
#
#######################################################################
#
# If this CIF has been generated from an entry in the Cambridge 
# Structural Database, then it will include bibliographic, chemical, 
# crystal, experimental, refinement or atomic coordinate data resulting 
# from the CCDC's data processing and validation procedures.
#
#######################################################################

data_GANMAK
_chemical_formula_moiety         'C56 H51 N5 O10'
_chemical_name_systematic        
'(aS,aS)-4,9-bis(Phenyl-2-yl)benzo(f)isoindole-1,3-dione bis((2S)-2-t-butoxycarbonylamino-3-(1H-indol-3-yl)propionate)'
_symmetry_cell_setting           trigonal
_symmetry_space_group_name_H-M   'P 32 2 1'
_symmetry_Int_Tables_number      154
_space_group_name_Hall           'P 32 2"'
loop_
_symmetry_equiv_pos_site_id
_symmetry_equiv_pos_as_xyz
1 x,y,z
2 -y,x-y,2/3+z
3 -x+y,-x,1/3+z
4 y,x,-z
5 -x,-x+y,2/3-z
6 x-y,-y,1/3-z
_cell_length_a                   14.476(1)
_cell_length_b                   14.476(1)
_cell_length_c                   21.310(2)
_cell_angle_alpha                90
_cell_angle_beta                 90
_cell_angle_gamma                120
_cell_volume                     3867.33
_exptl_crystal_colour            colorless
_exptl_crystal_description       prism
_chemical_melting_point          217deg.C
_cell_formula_units_Z            3
_exptl_crystal_recrystallization_method 'hexane/ethyl acetate'
loop_
_atom_site_label
_atom_site_type_symbol
_atom_site_fract_x
_atom_site_fract_y
_atom_site_fract_z
O1 O 0.1161(5) 0.5288(3) 0.4168(2)
O2 O 0.0134(3) 0.2144(3) 0.5050(1)
O3 O -0.0380(5) 0.3337(4) 0.5256(4)
O4 O -0.2638(3) 0.1792(4) 0.6652(2)
O5 O -0.1139(3) 0.1757(4) 0.6376(2)
N1 N 0.0000 0.4912(6) 0.3333
N2 N -0.2354(4) 0.1573(4) 0.5654(2)
N3 N -0.5006(4) -0.0537(6) 0.4259(3)
C1 C 0.0585(6) 0.4689(4) 0.3754(3)
C2 C 0.0393(4) 0.3605(3) 0.3591(2)
C3 C 0.0761(4) 0.3005(3) 0.3846(2)
C4 C 0.0376(4) 0.1958(3) 0.3589(2)
C5 C 0.0716(4) 0.1250(4) 0.3829(2)
C6 C 0.0357(4) 0.0271(3) 0.3587(2)
C7 C 0.1512(4) 0.3413(4) 0.4379(2)
C8 C 0.2553(6) 0.4232(5) 0.4311(3)
C9 C 0.3234(7) 0.4609(7) 0.4818(4)
C10 C 0.2896(7) 0.4209(7) 0.5397(3)
C11 C 0.1851(6) 0.3396(5) 0.5493(3)
C12 C 0.1196(4) 0.3006(4) 0.4971(2)
C13 C -0.0619(5) 0.2420(4) 0.5182(2)
C14 C -0.1720(5) 0.1504(4) 0.5147(2)
C15 C -0.1970(4) 0.1721(5) 0.6245(2)
C16 C -0.2302(5) 0.2177(5) 0.7292(2)
C17 C -0.1341(7) 0.3272(6) 0.7268(4)
C18 C -0.210(1) 0.1408(8) 0.7645(3)
C19 C -0.3225(7) 0.2261(9) 0.7552(4)
C20 C -0.2228(5) 0.1522(5) 0.4504(2)
C21 C -0.3254(4) 0.0581(6) 0.4353(2)
C22 C -0.3420(4) -0.0411(6) 0.4151(2)
C23 C -0.2780(5) -0.0835(6) 0.4012(3)
C24 C -0.3203(7) -0.1864(7) 0.3828(3)
C25 C -0.4308(8) -0.2571(8) 0.3784(4)
C26 C -0.4977(7) -0.2168(8) 0.3913(4)
C27 C -0.4546(5) -0.1126(7) 0.4094(3)
C28 C -0.4284(5) 0.0455(6) 0.4415(3)
H1 H 0.0000 0.5559 0.3333
H2 H 0.1208 0.1479 0.4168
H3 H 0.0585 -0.0181 0.3766
H4 H 0.2802 0.4539 0.3908
H5 H 0.3952 0.5158 0.4758
H6 H 0.3375 0.4485 0.5742
H7 H 0.1596 0.3119 0.5900
H8 H -0.1704 0.0858 0.5184
H9 H -0.3026 0.1515 0.5571
H10 H -0.0776 0.3243 0.7060
H11 H -0.1511 0.3737 0.7047
H12 H -0.1125 0.3531 0.7683
H13 H -0.1556 0.1338 0.7442
H14 H -0.1887 0.1660 0.8061
H15 H -0.2739 0.0733 0.7657
H16 H -0.3334 0.2742 0.7303
H17 H -0.3072 0.2515 0.7972
H18 H -0.3850 0.1578 0.7546
H19 H -0.1738 0.1602 0.4183
H20 H -0.2328 0.2123 0.4503
H21 H -0.2027 -0.0398 0.4045
H22 H -0.2732 -0.2120 0.3725
H23 H -0.4586 -0.3297 0.3669
H24 H -0.5728 -0.2611 0.3877
H25 H -0.5754 -0.0805 0.4263
H26 H -0.4435 0.0994 0.4545
O1D O -0.1161(5) 0.4127(6) 0.2499(2)
O2D O -0.0134(3) 0.2010(4) 0.1617(1)
O3D O 0.0380(5) 0.3717(6) 0.1411(4)
O4D O 0.2638(3) 0.4430(5) 0.0015(2)
O5D O 0.1139(3) 0.2896(5) 0.0291(2)
N2D N 0.2354(4) 0.3927(6) 0.1013(2)
N3D N 0.5006(4) 0.4469(7) 0.2408(3)
C1D C -0.0585(6) 0.4104(7) 0.2913(3)
C2D C -0.0393(4) 0.3212(5) 0.3076(2)
C3D C -0.0761(4) 0.2244(5) 0.2821(2)
C4D C -0.0376(4) 0.1582(5) 0.3078(2)
C5D C -0.0716(4) 0.0534(6) 0.2838(2)
C6D C -0.0357(4) -0.0086(5) 0.3080(2)
C7D C -0.1512(4) 0.1901(6) 0.2288(2)
C8D C -0.2553(6) 0.1679(8) 0.2356(3)
C9D C -0.3234(7) 0.1375(10) 0.1849(4)
C10D C -0.2896(7) 0.1313(10) 0.1270(3)
C11D C -0.1851(6) 0.1545(8) 0.1174(3)
C12D C -0.1196(4) 0.1810(6) 0.1696(2)
C13D C 0.0619(5) 0.3039(6) 0.1485(2)
C14D C 0.1720(5) 0.3224(6) 0.1520(2)
C15D C 0.1970(4) 0.3691(6) 0.0422(2)
C16D C 0.2302(5) 0.4479(7) -0.0625(2)
C17D C 0.1341(7) 0.4613(9) -0.0601(4)
C18D C 0.210(1) 0.3508(13) -0.0978(3)
C19D C 0.3225(7) 0.5486(11) -0.0885(4)
C20D C 0.2228(5) 0.3750(7) 0.2163(2)
C21D C 0.3254(4) 0.3835(7) 0.2314(2)
C22D C 0.3420(4) 0.3009(7) 0.2516(2)
C23D C 0.2780(5) 0.1945(8) 0.2655(3)
C24D C 0.3203(7) 0.1339(10) 0.2839(3)
C25D C 0.4308(8) 0.1737(11) 0.2883(4)
C26D C 0.4977(7) 0.2809(11) 0.2754(4)
C27D C 0.4546(5) 0.3420(9) 0.2573(3)
C28D C 0.4284(5) 0.4739(8) 0.2252(3)
H2D H -0.1208 0.0271 0.2499
H3D H -0.0585 -0.0766 0.2901
H4D H -0.2802 0.1737 0.2759
H5D H -0.3952 0.1206 0.1909
H6D H -0.3375 0.1110 0.0925
H7D H -0.1596 0.1523 0.0767
H8D H 0.1704 0.2562 0.1483
H9D H 0.3026 0.4541 0.1096
H10D H 0.0776 0.4019 -0.0393
H11D H 0.1511 0.5248 -0.0380
H12D H 0.1125 0.4656 -0.1016
H13D H 0.1556 0.2894 -0.0775
H14D H 0.1887 0.3547 -0.1394
H15D H 0.2739 0.3472 -0.0990
H16D H 0.3334 0.6076 -0.0636
H17D H 0.3072 0.5587 -0.1305
H18D H 0.3850 0.5428 -0.0879
H19D H 0.1738 0.3340 0.2484
H20D H 0.2328 0.4451 0.2164
H21D H 0.2027 0.1629 0.2622
H22D H 0.2732 0.0612 0.2942
H23D H 0.4586 0.1289 0.2998
H24D H 0.5728 0.3117 0.2790
H25D H 0.5754 0.4949 0.2404
H26D H 0.4435 0.5429 0.2122
loop_
_geom_bond_atom_site_label_1
_geom_bond_atom_site_label_2
_geom_bond_site_symmetry_1
_geom_bond_site_symmetry_2
O1 C1 1_555 1_555
O2 C12 1_555 1_555
O3 C13 1_555 1_555
O4 C15 1_555 1_555
O5 C15 1_555 1_555
N1 C1 1_555 1_555
N2 C14 1_555 1_555
N3 C27 1_555 1_555
C1 C2 1_555 1_555
C2 C3 1_555 1_555
C3 C4 1_555 1_555
C4 C5 1_555 1_555
C5 C6 1_555 1_555
C6 H3 1_555 1_555
C7 C3 1_555 1_555
C8 C7 1_555 1_555
C9 C8 1_555 1_555
C10 C9 1_555 1_555
C11 C10 1_555 1_555
C12 C7 1_555 1_555
C13 O2 1_555 1_555
C14 C13 1_555 1_555
C15 N2 1_555 1_555
C16 O4 1_555 1_555
C17 C16 1_555 1_555
C18 C16 1_555 1_555
C19 C16 1_555 1_555
C20 C14 1_555 1_555
C21 C20 1_555 1_555
C22 C21 1_555 1_555
C23 C22 1_555 1_555
C24 C23 1_555 1_555
C25 C24 1_555 1_555
C26 C25 1_555 1_555
C27 C22 1_555 1_555
C28 N3 1_555 1_555
H1 N1 1_555 1_555
H2 C5 1_555 1_555
H4 C8 1_555 1_555
H5 C9 1_555 1_555
H6 C10 1_555 1_555
H7 C11 1_555 1_555
H8 C14 1_555 1_555
H9 N2 1_555 1_555
H10 C17 1_555 1_555
H11 C17 1_555 1_555
H12 C17 1_555 1_555
H13 C18 1_555 1_555
H14 C18 1_555 1_555
H15 C18 1_555 1_555
H16 C19 1_555 1_555
H17 C19 1_555 1_555
H18 C19 1_555 1_555
H19 C20 1_555 1_555
H20 C20 1_555 1_555
H21 C23 1_555 1_555
H22 C24 1_555 1_555
H23 C25 1_555 1_555
H24 C26 1_555 1_555
H25 N3 1_555 1_555
H26 C28 1_555 1_555
O1D C1D 1_555 1_555
O2D C12D 1_555 1_555
O3D C13D 1_555 1_555
O4D C15D 1_555 1_555
O5D C15D 1_555 1_555
N2D C14D 1_555 1_555
N3D C27D 1_555 1_555
C1D N1 1_555 1_555
C2D C2 1_555 1_555
C3D C2D 1_555 1_555
C4D C4 1_555 1_555
C5D C4D 1_555 1_555
C6D C6 1_555 1_555
C7D C3D 1_555 1_555
C8D C7D 1_555 1_555
C9D C8D 1_555 1_555
C10D C9D 1_555 1_555
C11D C10D 1_555 1_555
C12D C7D 1_555 1_555
C13D O2D 1_555 1_555
C14D C13D 1_555 1_555
C15D N2D 1_555 1_555
C16D O4D 1_555 1_555
C17D C16D 1_555 1_555
C18D C16D 1_555 1_555
C19D C16D 1_555 1_555
C20D C14D 1_555 1_555
C21D C20D 1_555 1_555
C22D C21D 1_555 1_555
C23D C22D 1_555 1_555
C24D C23D 1_555 1_555
C25D C24D 1_555 1_555
C26D C25D 1_555 1_555
C27D C22D 1_555 1_555
C28D N3D 1_555 1_555
H2D C5D 1_555 1_555
H3D C6D 1_555 1_555
H4D C8D 1_555 1_555
H5D C9D 1_555 1_555
H6D C10D 1_555 1_555
H7D C11D 1_555 1_555
H8D C14D 1_555 1_555
H9D N2D 1_555 1_555
H10D C17D 1_555 1_555
H11D C17D 1_555 1_555
H12D C17D 1_555 1_555
H13D C18D 1_555 1_555
H14D C18D 1_555 1_555
H15D C18D 1_555 1_555
H16D C19D 1_555 1_555
H17D C19D 1_555 1_555
H18D C19D 1_555 1_555
H19D C20D 1_555 1_555
H20D C20D 1_555 1_555
H21D C23D 1_555 1_555
H22D C24D 1_555 1_555
H23D C25D 1_555 1_555
H24D C26D 1_555 1_555
H25D N3D 1_555 1_555
H26D C28D 1_555 1_555
C11 C12 1_555 1_555
C21 C28 1_555 1_555
C26 C27 1_555 1_555
C1D C2D 1_555 1_555
C3D C4D 1_555 1_555
C5D C6D 1_555 1_555
C11D C12D 1_555 1_555
C21D C28D 1_555 1_555
C26D C27D 1_555 1_555

#END
