
#######################################################################
#
#                 Cambridge Crystallographic Data Centre
#                                CCDC 
#
#######################################################################
#
# If this CIF has been generated from an entry in the Cambridge 
# Structural Database, then it will include bibliographic, chemical, 
# crystal, experimental, refinement or atomic coordinate data resulting 
# from the CCDC's data processing and validation procedures.
#
#######################################################################

data_GANPOD
_chemical_formula_moiety         
'C34 H48 O12,C6 H18 N2 2+,2(C6 H6),C2 H3 N1,2(Cl1 O4 1-)'
_chemical_name_systematic        
"hexane-1,6-diammonium diperchlorate 18,18'-(E)-ethene-1,2-diylbis-2,3,5,6,8,9,11,12,14,15-decahydro-1,4,7,10,13,16-benzohexaoxacyclooctadecine benzene acetonitrile solvate"
_symmetry_cell_setting           triclinic
_symmetry_space_group_name_H-M   'P -1'
_symmetry_Int_Tables_number      2
_space_group_name_Hall           '-P 1'
loop_
_symmetry_equiv_pos_site_id
_symmetry_equiv_pos_as_xyz
1 x,y,z
2 -x,-y,-z
_cell_length_a                   10.1933(5)
_cell_length_b                   11.2662(5)
_cell_length_c                   12.6740(6)
_cell_angle_alpha                83.261(2)
_cell_angle_beta                 81.672(2)
_cell_angle_gamma                85.702(2)
_cell_volume                     1427.69
_exptl_crystal_colour            colorless
_exptl_crystal_description       block
_cell_formula_units_Z            1
_exptl_crystal_recrystallization_method acetonitrile/benzene
loop_
_atom_site_label
_atom_site_type_symbol
_atom_site_fract_x
_atom_site_fract_y
_atom_site_fract_z
O5 O 0.8193(2) 0.77532(17) 0.74847(15)
O6 O 1.0389(2) 0.82409(18) 0.84548(16)
O7 O 1.2664(2) 0.89365(18) 0.70878(19)
O8 O 1.3220(3) 0.8012(3) 0.5025(2)
O9 O 1.0751(2) 0.84363(17) 0.41527(15)
O10 O 0.82604(19) 0.81144(16) 0.54287(14)
C1 C 0.5049(3) 0.4981(2) 0.5515(2)
H1 H 0.4552 0.4404 0.5983
C2 C 0.5843(3) 0.5735(2) 0.6019(2)
C3 C 0.5840(3) 0.5553(2) 0.7121(2)
H2 H 0.5304 0.4962 0.7530
C4 C 0.6596(3) 0.6209(3) 0.7643(2)
H3 H 0.6574 0.6065 0.8399
C5 C 0.7379(3) 0.7070(2) 0.7062(2)
C6 C 0.7414(3) 0.7271(2) 0.5940(2)
C7 C 0.6636(3) 0.6611(2) 0.5440(2)
H4 H 0.6644 0.6760 0.4686
C8 C 0.8214(4) 0.7541(3) 0.8625(2)
H5 H 0.8581 0.6719 0.8818
H6 H 0.7301 0.7629 0.9011
C9 C 0.9069(4) 0.8442(3) 0.8933(2)
H7 H 0.8734 0.9262 0.8691
H8 H 0.9030 0.8368 0.9722
C10 C 1.1271(4) 0.9030(3) 0.8762(3)
H9 H 1.1272 0.8904 0.9549
H10 H 1.0966 0.9872 0.8568
C11 C 1.2634(4) 0.8789(3) 0.8205(3)
H11 H 1.3240 0.9342 0.8409
H12 H 1.2952 0.7960 0.8435
C12 C 1.3984(3) 0.8797(3) 0.6521(3)
H13 H 1.4402 0.8011 0.6768
H14 H 1.4530 0.9431 0.6673
C13 C 1.3932(4) 0.8875(4) 0.5353(3)
H15 H 1.3534 0.9675 0.5120
H16 H 1.4853 0.8817 0.4979
C14 C 1.3096(4) 0.8215(5) 0.3923(3)
H17 H 1.3073 0.7429 0.3652
H18 H 1.3905 0.8591 0.3544
C15 C 1.1916(3) 0.8979(3) 0.3625(3)
H19 H 1.1942 0.9790 0.3844
H20 H 1.1920 0.9053 0.2838
C16 C 0.9556(3) 0.9058(2) 0.3891(2)
H21 H 0.9618 0.9260 0.3104
H22 H 0.9413 0.9813 0.4231
C17 C 0.8413(3) 0.8276(2) 0.4284(2)
H23 H 0.7589 0.8659 0.4038
H24 H 0.8593 0.7491 0.3997
O5A O 0.1807(2) 0.22468(17) 0.25153(15)
O6A O -0.0389(2) 0.17591(18) 0.15452(16)
O7A O -0.2664(2) 0.10635(18) 0.29122(19)
O8A O -0.3220(3) 0.1988(3) 0.4975(2)
O9A O -0.0751(2) 0.15637(17) 0.58473(15)
O10A O 0.17396(19) 0.18856(16) 0.45713(14)
C1A C 0.4951(3) 0.5019(2) 0.4485(2)
H1A H 0.5448 0.5596 0.4017
C2A C 0.4157(3) 0.4265(2) 0.3981(2)
C3A C 0.4160(3) 0.4447(2) 0.2879(2)
H2A H 0.4696 0.5038 0.2470
C4A C 0.3404(3) 0.3791(3) 0.2357(2)
H3A H 0.3426 0.3935 0.1601
C5A C 0.2621(3) 0.2930(2) 0.2938(2)
C6A C 0.2586(3) 0.2729(2) 0.4060(2)
C7A C 0.3364(3) 0.3389(2) 0.4560(2)
H4A H 0.3356 0.3240 0.5314
C8A C 0.1786(4) 0.2459(3) 0.1375(2)
H5A H 0.1419 0.3281 0.1182
H6A H 0.2699 0.2371 0.0989
C9A C 0.0931(4) 0.1558(3) 0.1067(2)
H7A H 0.1266 0.0738 0.1309
H8A H 0.0970 0.1632 0.0278
C10A C -0.1271(4) 0.0970(3) 0.1238(3)
H9A H -0.1272 0.1096 0.0451
H10A H -0.0966 0.0128 0.1432
C11A C -0.2634(4) 0.1211(3) 0.1795(3)
H11A H -0.3240 0.0658 0.1591
H12A H -0.2952 0.2040 0.1565
C12A C -0.3984(3) 0.1203(3) 0.3479(3)
H13A H -0.4402 0.1989 0.3232
H14A H -0.4530 0.0569 0.3327
C13A C -0.3932(4) 0.1125(4) 0.4647(3)
H15A H -0.3534 0.0325 0.4880
H16A H -0.4853 0.1183 0.5021
C14A C -0.3096(4) 0.1785(5) 0.6077(3)
H17A H -0.3073 0.2571 0.6348
H18A H -0.3905 0.1409 0.6456
C15A C -0.1916(3) 0.1021(3) 0.6375(3)
H19A H -0.1942 0.0210 0.6156
H20A H -0.1920 0.0947 0.7162
C16A C 0.0444(3) 0.0942(2) 0.6109(2)
H21A H 0.0382 0.0740 0.6896
H22A H 0.0587 0.0187 0.5769
C17A C 0.1587(3) 0.1724(2) 0.5716(2)
H23A H 0.2411 0.1341 0.5962
H24A H 0.1407 0.2509 0.6003
N1 N 1.0904(2) 0.74802(19) 0.63791(18)
H25 H 1.1441 0.7991 0.6591
H26 H 1.0061 0.7600 0.6715
H27 H 1.0910 0.7618 0.5657
C18 C 1.1400(3) 0.6217(2) 0.6667(2)
H28 H 1.1425 0.6076 0.7449
H29 H 1.2315 0.6085 0.6298
C19 C 1.0514(3) 0.5340(2) 0.6346(2)
H30 H 0.9603 0.5477 0.6721
H31 H 1.0835 0.4517 0.6591
C20 C 1.0459(3) 0.5431(2) 0.5149(2)
H32 H 1.0158 0.6259 0.4899
H33 H 1.1365 0.5271 0.4774
N1A N 0.9096(2) 0.25198(19) 0.36209(18)
H25A H 0.8559 0.2009 0.3409
H26A H 0.9939 0.2400 0.3285
H27A H 0.9090 0.2382 0.4343
C18A C 0.8600(3) 0.3783(2) 0.3333(2)
H28A H 0.8575 0.3924 0.2551
H29A H 0.7685 0.3915 0.3702
C19A C 0.9486(3) 0.4660(2) 0.3654(2)
H30A H 1.0397 0.4523 0.3279
H31A H 0.9165 0.5483 0.3409
C20A C 0.9541(3) 0.4569(2) 0.4851(2)
H32A H 0.9842 0.3741 0.5101
H33A H 0.8635 0.4729 0.5226
C21 C 0.1748(4) 0.5703(3) 0.0013(3)
H34 H 0.1286 0.5257 -0.0390
C22 C 0.3098(4) 0.5780(3) -0.0242(3)
H35 H 0.3567 0.5386 -0.0818
C23 C 0.3773(4) 0.6432(3) 0.0344(3)
H36 H 0.4707 0.6488 0.0171
C24 C 0.3083(4) 0.7002(3) 0.1180(3)
H37 H 0.3539 0.7457 0.1582
C25 C 0.1723(4) 0.6907(3) 0.1433(3)
H38 H 0.1250 0.7289 0.2015
C26 C 0.1056(4) 0.6270(3) 0.0850(3)
H39 H 0.0122 0.6217 0.1020
Cl1 Cl 0.29667(7) 0.25672(6) 0.80985(5)
O1 O 0.1721(3) 0.2054(2) 0.8164(2)
O2 O 0.3900(10) 0.1991(17) 0.7326(10)
O3 O 0.3477(9) 0.2484(12) 0.9077(6)
O4 O 0.2787(11) 0.3784(10) 0.7713(11)
O11? O 0.3828(19) 0.2399(16) 0.7191(12)
O12? O 0.350(2) 0.192(3) 0.8980(18)
O13? O 0.273(2) 0.380(2) 0.823(3)
O14? O 1.2988(10) 0.9028(11) 0.4858(9)
H40? H 1.4520 0.9523 0.5036
H41? H 1.4399 0.8125 0.5129
H42? H 1.3909 0.8299 0.3395
H43? H 1.2923 0.7365 0.4156
N2? N 0.6020(8) 0.9865(8) 0.8548(8)
C27? C 0.542(3) 0.990(2) 0.9347(18)
C28? C 0.459(3) 0.997(2) 1.0358(16)
H44? H 0.3684 0.9788 1.0289
H45? H 0.4584 1.0782 1.0568
H46? H 0.4937 0.9393 1.0905
loop_
_geom_bond_atom_site_label_1
_geom_bond_atom_site_label_2
_geom_bond_site_symmetry_1
_geom_bond_site_symmetry_2
Cl1 O1 1_555 1_555
O2 Cl1 1_555 1_555
O3 Cl1 1_555 1_555
O4 Cl1 1_555 1_555
O5 C5 1_555 1_555
O6 C9 1_555 1_555
O7 C11 1_555 1_555
O8 C13 1_555 1_555
O9 C15 1_555 1_555
O10 C6 1_555 1_555
C1 H1 1_555 1_555
C2 C1 1_555 1_555
C3 C2 1_555 1_555
H2 C3 1_555 1_555
C4 C3 1_555 1_555
H3 C4 1_555 1_555
C5 C4 1_555 1_555
C6 C5 1_555 1_555
C7 C2 1_555 1_555
H4 C7 1_555 1_555
C8 O5 1_555 1_555
H5 C8 1_555 1_555
H6 C8 1_555 1_555
C9 C8 1_555 1_555
H7 C9 1_555 1_555
H8 C9 1_555 1_555
C10 O6 1_555 1_555
H9 C10 1_555 1_555
H10 C10 1_555 1_555
C11 C10 1_555 1_555
H11 C11 1_555 1_555
H12 C11 1_555 1_555
C12 O7 1_555 1_555
H13 C12 1_555 1_555
H14 C12 1_555 1_555
C13 C12 1_555 1_555
H15 C13 1_555 1_555
H16 C13 1_555 1_555
C14 O8 1_555 1_555
H17 C14 1_555 1_555
H18 C14 1_555 1_555
C15 C14 1_555 1_555
H19 C15 1_555 1_555
H20 C15 1_555 1_555
C16 O9 1_555 1_555
H21 C16 1_555 1_555
H22 C16 1_555 1_555
C17 O10 1_555 1_555
H23 C17 1_555 1_555
H24 C17 1_555 1_555
N1 H25 1_555 1_555
H26 N1 1_555 1_555
H27 N1 1_555 1_555
C18 N1 1_555 1_555
H28 C18 1_555 1_555
H29 C18 1_555 1_555
C19 C18 1_555 1_555
H30 C19 1_555 1_555
H31 C19 1_555 1_555
C20 C19 1_555 1_555
H32 C20 1_555 1_555
H33 C20 1_555 1_555
C21 H34 1_555 1_555
C22 C21 1_555 1_555
H35 C22 1_555 1_555
C23 C22 1_555 1_555
H36 C23 1_555 1_555
C24 C23 1_555 1_555
H37 C24 1_555 1_555
C25 C24 1_555 1_555
H38 C25 1_555 1_555
C26 C21 1_555 1_555
H39 C26 1_555 1_555
O5A C5A 1_555 1_555
O6A C9A 1_555 1_555
O7A C11A 1_555 1_555
O8A C13A 1_555 1_555
O9A C15A 1_555 1_555
O10A C6A 1_555 1_555
C1A C1 1_555 1_555
H1A C1A 1_555 1_555
C2A C1A 1_555 1_555
C3A C2A 1_555 1_555
H2A C3A 1_555 1_555
C4A C3A 1_555 1_555
H3A C4A 1_555 1_555
C5A C4A 1_555 1_555
C6A C5A 1_555 1_555
C7A C2A 1_555 1_555
H4A C7A 1_555 1_555
C8A O5A 1_555 1_555
H5A C8A 1_555 1_555
H6A C8A 1_555 1_555
C9A C8A 1_555 1_555
H7A C9A 1_555 1_555
H8A C9A 1_555 1_555
C10A O6A 1_555 1_555
H9A C10A 1_555 1_555
H10A C10A 1_555 1_555
C11A C10A 1_555 1_555
H11A C11A 1_555 1_555
H12A C11A 1_555 1_555
C12A O7A 1_555 1_555
H13A C12A 1_555 1_555
H14A C12A 1_555 1_555
C13A C12A 1_555 1_555
H15A C13A 1_555 1_555
H16A C13A 1_555 1_555
C14A O8A 1_555 1_555
H17A C14A 1_555 1_555
H18A C14A 1_555 1_555
C15A C14A 1_555 1_555
H19A C15A 1_555 1_555
H20A C15A 1_555 1_555
C16A O9A 1_555 1_555
H21A C16A 1_555 1_555
H22A C16A 1_555 1_555
C17A O10A 1_555 1_555
H23A C17A 1_555 1_555
H24A C17A 1_555 1_555
N1A H25A 1_555 1_555
H26A N1A 1_555 1_555
H27A N1A 1_555 1_555
C18A N1A 1_555 1_555
H28A C18A 1_555 1_555
H29A C18A 1_555 1_555
C19A C18A 1_555 1_555
H30A C19A 1_555 1_555
H31A C19A 1_555 1_555
C20A C20 1_555 1_555
H32A C20A 1_555 1_555
H33A C20A 1_555 1_555
C6 C7 1_555 1_555
C16 C17 1_555 1_555
C25 C26 1_555 1_555
C6A C7A 1_555 1_555
C16A C17A 1_555 1_555
C19A C20A 1_555 1_555

#END
