
#######################################################################
#
#                 Cambridge Crystallographic Data Centre
#                                CCDC 
#
#######################################################################
#
# If this CIF has been generated from an entry in the Cambridge 
# Structural Database, then it will include bibliographic, chemical, 
# crystal, experimental, refinement or atomic coordinate data resulting 
# from the CCDC's data processing and validation procedures.
#
#######################################################################

data_GANSAQ
_chemical_formula_moiety         'C17 H14 O2 S1'
_chemical_name_systematic        
(S)-4-Vinylspiro(1,3-oxathiolane-2,9'-(9'H)xanthene)
_symmetry_cell_setting           orthorhombic
_symmetry_space_group_name_H-M   'P 21 21 21'
_symmetry_Int_Tables_number      19
_space_group_name_Hall           'P 2ac 2ab'
loop_
_symmetry_equiv_pos_site_id
_symmetry_equiv_pos_as_xyz
1 x,y,z
2 1/2-x,-y,1/2+z
3 1/2+x,1/2-y,-z
4 -x,1/2+y,1/2-z
_cell_length_a                   8.9261(3)
_cell_length_b                   9.7256(4)
_cell_length_c                   15.6448(4)
_cell_angle_alpha                90
_cell_angle_beta                 90
_cell_angle_gamma                90
_cell_volume                     1358.15
_exptl_crystal_colour            colorless
_exptl_crystal_description       tablet
_chemical_melting_point          '345.3-345.9 K'
_cell_formula_units_Z            4
_exptl_crystal_recrystallization_method dichloromethane/hexane
loop_
_atom_site_label
_atom_site_type_symbol
_atom_site_fract_x
_atom_site_fract_y
_atom_site_fract_z
S1 S 1.04415(5) 0.52959(5) 0.43742(3)
O1 O 0.74554(16) 0.36215(15) 0.65263(9)
O2 O 0.89556(14) 0.66621(12) 0.55413(9)
C1 C 0.9555(3) 0.3245(2) 0.73891(12)
H1 H 0.8931 0.2731 0.7763
C2 C 1.1052(3) 0.3419(2) 0.75747(14)
H2 H 1.1462 0.3031 0.8081
C3 C 1.1959(3) 0.4158(2) 0.70234(14)
H3 H 1.2990 0.4283 0.7153
C4 C 1.1363(2) 0.4715(2) 0.62848(13)
H4 H 1.1996 0.5215 0.5909
C5 C 0.9853(2) 0.4557(2) 0.60803(11)
C6 C 0.6952(2) 0.4715(2) 0.43040(13)
H5 H 0.7488 0.5115 0.3842
C7 C 0.5493(3) 0.4278(2) 0.41730(14)
H6 H 0.5035 0.4389 0.3629
C8 C 0.4705(2) 0.3679(2) 0.48382(15)
H7 H 0.3692 0.3410 0.4758
C9 C 0.5389(2) 0.34737(19) 0.56146(14)
H8 H 0.4861 0.3037 0.6067
C10 C 0.6857(2) 0.3907(2) 0.57352(12)
C11 C 0.9158(2) 0.5229(2) 0.53081(11)
C12 C 0.7658(2) 0.45832(19) 0.50967(11)
C13 C 0.8963(2) 0.3826(2) 0.66507(13)
C14 C 1.0138(2) 0.71363(19) 0.41959(12)
H9 H 1.1051 0.7655 0.4378
C15 C 0.8842(2) 0.7487(2) 0.47966(12)
H10 H 0.8884 0.8472 0.4954
H11 H 0.7875 0.7310 0.4507
C16 C 0.9786(2) 0.7478(2) 0.32858(12)
H12 H 0.9001 0.6986 0.3013
C17 C 1.0497(3) 0.8419(2) 0.28416(13)
H13 H 1.1288 0.8928 0.3097
H14 H 1.0222 0.8590 0.2265
loop_
_geom_bond_atom_site_label_1
_geom_bond_atom_site_label_2
_geom_bond_site_symmetry_1
_geom_bond_site_symmetry_2
S1 C11 1_555 1_555
O1 C10 1_555 1_555
O2 C11 1_555 1_555
C1 H1 1_555 1_555
C2 C1 1_555 1_555
H2 C2 1_555 1_555
C3 C2 1_555 1_555
H3 C3 1_555 1_555
C4 C3 1_555 1_555
H4 C4 1_555 1_555
C5 C4 1_555 1_555
C6 H5 1_555 1_555
C7 C6 1_555 1_555
H6 C7 1_555 1_555
C8 C7 1_555 1_555
H7 C8 1_555 1_555
C9 C8 1_555 1_555
H8 C9 1_555 1_555
C10 C9 1_555 1_555
C11 C5 1_555 1_555
C12 C6 1_555 1_555
C13 O1 1_555 1_555
C14 S1 1_555 1_555
H9 C14 1_555 1_555
C15 O2 1_555 1_555
H10 C15 1_555 1_555
H11 C15 1_555 1_555
C16 C14 1_555 1_555
H12 C16 1_555 1_555
C17 C16 1_555 1_555
H13 C17 1_555 1_555
H14 C17 1_555 1_555
C1 C13 1_555 1_555
C5 C13 1_555 1_555
C10 C12 1_555 1_555
C11 C12 1_555 1_555
C14 C15 1_555 1_555

#END
