
#######################################################################
#
#                 Cambridge Crystallographic Data Centre
#                                CCDC 
#
#######################################################################
#
# If this CIF has been generated from an entry in the Cambridge 
# Structural Database, then it will include bibliographic, chemical, 
# crystal, experimental, refinement or atomic coordinate data resulting 
# from the CCDC's data processing and validation procedures.
#
#######################################################################

data_GANSIA
_chemical_formula_moiety         'C29 H48 O7,H2 O1'
_chemical_name_systematic        
'3-((5-hydroxy-3,4-dimethoxy-6-methyltetrahydro-2H-pyran-2-yl)oxy)pregn-5-ene-17,20-diol monohydrate'
_symmetry_cell_setting           triclinic
_symmetry_space_group_name_H-M   'P 1'
_symmetry_Int_Tables_number      1
_space_group_name_Hall           'P 1'
loop_
_symmetry_equiv_pos_site_id
_symmetry_equiv_pos_as_xyz
1 x,y,z
_cell_length_a                   7.3861(4)
_cell_length_b                   9.9803(5)
_cell_length_c                   19.0795(10)
_cell_angle_alpha                84.8750(10)
_cell_angle_beta                 88.381(2)
_cell_angle_gamma                89.622(2)
_cell_volume                     1400.26
_exptl_crystal_colour            colorless
_exptl_crystal_description       prism
_cell_formula_units_Z            2
loop_
_atom_site_label
_atom_site_type_symbol
_atom_site_fract_x
_atom_site_fract_y
_atom_site_fract_z
O1 O 0.7157(6) 0.2820(4) 0.00162(18)
O2 O 0.7279(5) 0.4438(4) -0.09004(17)
O3 O 0.7548(6) 0.3890(4) -0.24436(17)
H1 H 0.7828 0.4135 -0.2865
O4 O 1.1553(5) 0.3132(4) -0.14118(18)
O5 O 0.7453(5) 0.6651(3) 0.48386(18)
H2 H 0.7888 0.7193 0.5101
O6 O 0.8197(6) 0.5439(4) 0.63116(17)
H3 H 0.7566 0.5328 0.6685
O7 O 0.7050(5) 0.1768(4) -0.13265(18)
C1 C 0.5306(9) 0.4929(7) 0.5836(3)
H4 H 0.4897 0.4523 0.6300
H5 H 0.4739 0.4464 0.5468
H6 H 0.4962 0.5882 0.5786
C2 C 0.7332(8) 0.4802(5) 0.5765(2)
H7 H 0.7629 0.3821 0.5836
C3 C 0.8132(7) 0.5325(5) 0.5032(2)
C4 C 0.7669(8) 0.4456(5) 0.4412(2)
C5 C 0.9119(7) 0.4965(5) 0.3866(2)
H8 H 0.8808 0.5923 0.3718
C6 C 0.9176(7) 0.4226(5) 0.3197(2)
H9 H 0.9520 0.3266 0.3323
C7 C 0.7303(7) 0.4270(4) 0.2871(2)
H10 H 0.7105 0.5220 0.2673
C8 C 0.7244(7) 0.3383(4) 0.2237(2)
C9 C 0.5591(7) 0.3791(5) 0.1794(2)
H11 H 0.5565 0.4783 0.1706
H12 H 0.4480 0.3515 0.2071
C10 C 0.5551(8) 0.3178(5) 0.1082(3)
H13 H 0.5442 0.2188 0.1163
H14 H 0.4483 0.3524 0.0820
C11 C 0.7256(8) 0.3530(5) 0.0650(2)
H15 H 0.7295 0.4522 0.0518
C12 C 0.8238(7) 0.3359(5) -0.0542(2)
H16 H 0.9392 0.3699 -0.0362
C13 C 0.8384(7) 0.5147(5) -0.1450(2)
H17 H 0.9488 0.5490 -0.1234
C14 C 0.8988(7) 0.4190(5) -0.2006(2)
H18 H 0.9958 0.4653 -0.2313
C15 C 1.2970(8) 0.2882(6) -0.1915(3)
H19 H 1.2856 0.1965 -0.2055
H20 H 1.4150 0.2981 -0.1703
H21 H 1.2872 0.3528 -0.2330
C16 C 0.9777(7) 0.2892(5) -0.1669(2)
H22 H 0.9888 0.2229 -0.2031
C17 C 1.0221(8) 0.5311(5) 0.5020(2)
H23 H 1.0669 0.4620 0.5379
H24 H 1.0685 0.6198 0.5124
C18 C 1.0872(8) 0.4988(5) 0.4277(2)
H25 H 1.1706 0.5690 0.4061
H26 H 1.1495 0.4105 0.4294
C19 C 0.7920(8) 0.2954(5) 0.4655(2)
H27 H 0.6890 0.2643 0.4961
H28 H 0.9042 0.2829 0.4916
H29 H 0.7987 0.2433 0.4243
C20 C 0.5832(7) 0.4694(5) 0.4077(2)
H30 H 0.5649 0.5669 0.3953
H31 H 0.4858 0.4373 0.4416
C21 C 0.5739(7) 0.3936(5) 0.3406(2)
H32 H 0.5749 0.2956 0.3544
H33 H 0.4578 0.4159 0.3175
C22 C 1.0537(7) 0.4846(5) 0.2661(3)
H34 H 1.0374 0.5835 0.2619
H35 H 1.1773 0.4648 0.2831
C23 C 1.0377(8) 0.4345(5) 0.1948(2)
H36 H 1.1327 0.4535 0.1608
C24 C 0.8950(7) 0.3643(5) 0.1770(2)
C25 C 0.8941(8) 0.3092(5) 0.1054(2)
H37 H 0.8992 0.2097 0.1117
H38 H 1.0032 0.3411 0.0777
C26 C 0.7159(7) 0.1871(4) 0.2481(2)
H39 H 0.5965 0.1656 0.2698
H40 H 0.8098 0.1647 0.2826
H41 H 0.7360 0.1347 0.2075
C27 C 0.8660(7) 0.2259(5) -0.1037(2)
H42 H 0.9346 0.1503 -0.0786
C28 C 0.6192(10) 0.0713(6) -0.0912(3)
H43 H 0.7102 0.0171 -0.0650
H44 H 0.5547 0.0147 -0.1217
H45 H 0.5328 0.1084 -0.0581
C29 C 0.7297(9) 0.6329(5) -0.1748(3)
H46 H 0.6145 0.6014 -0.1914
H47 H 0.7977 0.6804 -0.2142
H48 H 0.7059 0.6942 -0.1381
O8 O 0.3503(6) 0.4785(4) 0.94019(19)
O9 O 0.6654(5) 0.9855(4) 0.67434(17)
O10 O 0.2353(6) 1.0171(3) 0.53411(18)
O11 O 0.2541(6) 0.9165(4) 0.77946(18)
H49 H 0.2804 0.9000 0.8219
O12 O 0.2428(5) 0.8560(4) 0.62617(17)
O13 O 0.2203(6) 0.6318(3) 0.05107(18)
H50 H 0.2461 0.5801 0.0198
O14 O 0.2884(7) 0.7508(4) -0.09753(18)
H51 H 0.2609 0.6689 -0.0928
O15 O 0.2152(6) 1.1239(4) 0.66613(17)
C30 C 0.8005(8) 1.0140(6) 0.7235(3)
H52 H 0.7824 1.1054 0.7375
H53 H 0.9211 1.0068 0.7014
H54 H 0.7903 0.9493 0.7652
C31 C 0.4865(8) 1.0112(5) 0.7002(2)
H55 H 0.4932 1.0787 0.7357
C32 C 0.3780(7) 1.0717(5) 0.6383(2)
H56 H 0.4487 1.1461 0.6120
C33 C 0.3410(7) 0.9616(5) 0.5891(2)
H57 H 0.4578 0.9267 0.5699
C34 C 0.2395(8) 0.9429(5) 0.4725(2)
H58 H 0.2381 0.8443 0.4874
C35 C 0.4061(7) 0.9763(5) 0.4272(2)
H59 H 0.5137 0.9394 0.4522
H60 H 0.4193 1.0753 0.4205
C36 C 0.4024(7) 0.9215(4) 0.3554(2)
C37 C 0.5371(7) 0.8463(5) 0.3326(2)
H61 H 0.6339 0.8247 0.3634
C38 C 0.5463(8) 0.7937(5) 0.2617(2)
H62 H 0.5214 0.6959 0.2669
H63 H 0.6702 0.8068 0.2411
C39 C 0.4100(7) 0.8642(5) 0.2115(2)
H64 H 0.4495 0.9591 0.1989
C40 C 0.3991(8) 0.7921(5) 0.1444(2)
H65 H 0.3666 0.6965 0.1593
C41 C 0.2508(7) 0.8486(4) 0.0940(2)
C42 C 0.2897(7) 0.7621(5) 0.0302(2)
C43 C 0.2068(9) 0.8180(5) -0.0401(3)
H66 H 0.2385 0.9156 -0.0480
C44 C 0.0041(10) 0.8074(7) -0.0412(3)
H67 H -0.0372 0.8355 -0.0887
H68 H -0.0508 0.8657 -0.0077
H69 H -0.0320 0.7140 -0.0280
C45 C 0.4020(7) 0.8815(5) 0.7360(2)
H70 H 0.4948 0.8349 0.7667
C46 C 0.3495(7) 0.7868(5) 0.6810(2)
H71 H 0.4627 0.7518 0.6590
C47 C 0.0686(8) 0.9815(5) 0.4333(2)
H72 H 0.0627 1.0805 0.4237
H73 H -0.0386 0.9523 0.4630
C48 C 0.0653(7) 0.9155(5) 0.3636(2)
H74 H -0.0475 0.9427 0.3392
H75 H 0.0627 0.8166 0.3740
C49 C 0.2292(7) 0.9533(5) 0.3135(2)
C50 C 0.0681(8) 0.8294(5) 0.1336(2)
H76 H 0.0460 0.7323 0.1458
H77 H -0.0302 0.8653 0.1030
C51 C 0.0663(7) 0.9032(5) 0.2016(2)
H78 H 0.0697 1.0013 0.1884
H79 H -0.0488 0.8828 0.2281
C52 C 0.2251(7) 0.8647(5) 0.2500(2)
H80 H 0.2026 0.7703 0.2704
C53 C 0.2802(8) 0.9987(5) 0.0706(2)
H81 H 0.1813 1.0318 0.0404
H82 H 0.3958 1.0101 0.0443
H83 H 0.2822 1.0498 0.1121
C54 C 0.4990(8) 0.7579(5) 0.0251(2)
H84 H 0.5442 0.8258 -0.0122
H85 H 0.5412 0.6680 0.0134
C55 C 0.5705(8) 0.7887(5) 0.0977(3)
H86 H 0.6547 0.7174 0.1163
H87 H 0.6336 0.8763 0.0943
C56 C 0.2224(8) 1.1041(5) 0.2888(2)
H88 H 0.0973 1.1306 0.2785
H89 H 0.2990 1.1217 0.2462
H90 H 0.2667 1.1561 0.3260
C57 C 0.1378(10) 1.2345(6) 0.6255(3)
H91 H 0.2316 1.3018 0.6121
H92 H 0.0417 1.2748 0.6533
H93 H 0.0868 1.2035 0.5830
C58 C 0.2386(9) 0.6697(6) 0.7121(3)
H94 H 0.1290 0.7029 0.7352
H95 H 0.3098 0.6153 0.7467
H96 H 0.2044 0.6145 0.6746
O16 O 0.8716(5) 0.8168(4) 0.59446(19)
loop_
_geom_bond_atom_site_label_1
_geom_bond_atom_site_label_2
_geom_bond_site_symmetry_1
_geom_bond_site_symmetry_2
O1 C11 1_555 1_555
O2 C12 1_555 1_555
O3 H1 1_555 1_555
O4 C15 1_555 1_555
O5 H2 1_555 1_555
O6 H3 1_555 1_555
O7 C27 1_555 1_555
C1 H4 1_555 1_555
H5 C1 1_555 1_555
H6 C1 1_555 1_555
C2 O6 1_555 1_555
H7 C2 1_555 1_555
C3 O5 1_555 1_555
C4 C3 1_555 1_555
C5 C4 1_555 1_555
H8 C5 1_555 1_555
C6 C5 1_555 1_555
H9 C6 1_555 1_555
C7 C6 1_555 1_555
H10 C7 1_555 1_555
C8 C7 1_555 1_555
C9 C8 1_555 1_555
H11 C9 1_555 1_555
H12 C9 1_555 1_555
C10 C9 1_555 1_555
H13 C10 1_555 1_555
H14 C10 1_555 1_555
C11 C10 1_555 1_555
H15 C11 1_555 1_555
C12 O1 1_555 1_555
H16 C12 1_555 1_555
C13 O2 1_555 1_555
H17 C13 1_555 1_555
C14 O3 1_555 1_555
H18 C14 1_555 1_555
C15 H19 1_555 1_555
H20 C15 1_555 1_555
H21 C15 1_555 1_555
C16 O4 1_555 1_555
H22 C16 1_555 1_555
C17 C3 1_555 1_555
H23 C17 1_555 1_555
H24 C17 1_555 1_555
C18 C5 1_555 1_555
H25 C18 1_555 1_555
H26 C18 1_555 1_555
C19 C4 1_555 1_555
H27 C19 1_555 1_555
H28 C19 1_555 1_555
H29 C19 1_555 1_555
C20 C4 1_555 1_555
H30 C20 1_555 1_555
H31 C20 1_555 1_555
C21 C7 1_555 1_555
H32 C21 1_555 1_555
H33 C21 1_555 1_555
C22 C6 1_555 1_555
H34 C22 1_555 1_555
H35 C22 1_555 1_555
C23 C22 1_555 1_555
H36 C23 1_555 1_555
C24 C8 1_555 1_555
C25 C11 1_555 1_555
H37 C25 1_555 1_555
H38 C25 1_555 1_555
C26 C8 1_555 1_555
H39 C26 1_555 1_555
H40 C26 1_555 1_555
H41 C26 1_555 1_555
C27 C12 1_555 1_555
H42 C27 1_555 1_555
C28 O7 1_555 1_555
H43 C28 1_555 1_555
H44 C28 1_555 1_555
H45 C28 1_555 1_555
C29 C13 1_555 1_555
H46 C29 1_555 1_555
H47 C29 1_555 1_555
H48 C29 1_555 1_555
O9 C30 1_555 1_555
O10 C33 1_555 1_555
O11 H49 1_555 1_555
O12 C33 1_555 1_555
O13 H50 1_555 1_555
O14 H51 1_555 1_555
O15 C32 1_555 1_555
C30 H52 1_555 1_555
H53 C30 1_555 1_555
H54 C30 1_555 1_555
C31 O9 1_555 1_555
H55 C31 1_555 1_555
C32 C31 1_555 1_555
H56 C32 1_555 1_555
C33 C32 1_555 1_555
H57 C33 1_555 1_555
C34 O10 1_555 1_555
H58 C34 1_555 1_555
C35 C34 1_555 1_555
H59 C35 1_555 1_555
H60 C35 1_555 1_555
C36 C35 1_555 1_555
C37 C36 1_555 1_555
H61 C37 1_555 1_555
C38 C37 1_555 1_555
H62 C38 1_555 1_555
H63 C38 1_555 1_555
C39 C38 1_555 1_555
H64 C39 1_555 1_555
C40 C39 1_555 1_555
H65 C40 1_555 1_555
C41 C40 1_555 1_555
C42 O13 1_555 1_555
C43 O14 1_555 1_555
H66 C43 1_555 1_555
C44 C43 1_555 1_555
H67 C44 1_555 1_555
H68 C44 1_555 1_555
H69 C44 1_555 1_555
C45 O11 1_555 1_555
H70 C45 1_555 1_555
C46 O12 1_555 1_555
H71 C46 1_555 1_555
C47 C34 1_555 1_555
H72 C47 1_555 1_555
H73 C47 1_555 1_555
C48 C47 1_555 1_555
H74 C48 1_555 1_555
H75 C48 1_555 1_555
C49 C36 1_555 1_555
C50 C41 1_555 1_555
H76 C50 1_555 1_555
H77 C50 1_555 1_555
C51 C50 1_555 1_555
H78 C51 1_555 1_555
H79 C51 1_555 1_555
C52 C39 1_555 1_555
H80 C52 1_555 1_555
C53 C41 1_555 1_555
H81 C53 1_555 1_555
H82 C53 1_555 1_555
H83 C53 1_555 1_555
C54 C42 1_555 1_555
H84 C54 1_555 1_555
H85 C54 1_555 1_555
C55 C40 1_555 1_555
H86 C55 1_555 1_555
H87 C55 1_555 1_555
C56 C49 1_555 1_555
H88 C56 1_555 1_555
H89 C56 1_555 1_555
H90 C56 1_555 1_555
C57 O15 1_555 1_555
H91 C57 1_555 1_555
H92 C57 1_555 1_555
H93 C57 1_555 1_555
C58 C46 1_555 1_555
H94 C58 1_555 1_555
H95 C58 1_555 1_555
H96 C58 1_555 1_555
C1 C2 1_555 1_555
C2 C3 1_555 1_555
C13 C14 1_555 1_555
C14 C16 1_555 1_555
C16 C27 1_555 1_555
C17 C18 1_555 1_555
C20 C21 1_555 1_555
C23 C24 1_555 1_555
C24 C25 1_555 1_555
C31 C45 1_555 1_555
C41 C42 1_555 1_555
C42 C43 1_555 1_555
C45 C46 1_555 1_555
C48 C49 1_555 1_555
C49 C52 1_555 1_555
C51 C52 1_555 1_555
C54 C55 1_555 1_555

#END
