
#######################################################################
#
#                 Cambridge Crystallographic Data Centre
#                                CCDC 
#
#######################################################################
#
# If this CIF has been generated from an entry in the Cambridge 
# Structural Database, then it will include bibliographic, chemical, 
# crystal, experimental, refinement or atomic coordinate data resulting 
# from the CCDC's data processing and validation procedures.
#
#######################################################################

data_GANVUO
_chemical_formula_moiety         'H12 Mg1 O6 2+,2(C8 H5 N8 1-),4(H2 O1)'
_chemical_name_systematic        
'Hexa-aqua-magnesium(ii) bis(5-(3-(1H-tetrazol-5-yl)phenyl)tetrazolide) tetrahydrate'
_symmetry_cell_setting           monoclinic
_symmetry_space_group_name_H-M   'P 21/n'
_symmetry_Int_Tables_number      14
_space_group_name_Hall           '-P 2yn'
loop_
_symmetry_equiv_pos_site_id
_symmetry_equiv_pos_as_xyz
1 x,y,z
2 1/2-x,1/2+y,1/2-z
3 -x,-y,-z
4 1/2+x,1/2-y,1/2+z
_cell_length_a                   7.3776(12)
_cell_length_b                   16.038(3)
_cell_length_c                   12.1787(19)
_cell_angle_alpha                90
_cell_angle_beta                 102.199(2)
_cell_angle_gamma                90
_cell_volume                     1408.47
_exptl_crystal_colour            colorless
_exptl_crystal_description       block
_cell_formula_units_Z            2
loop_
_atom_site_label
_atom_site_type_symbol
_atom_site_fract_x
_atom_site_fract_y
_atom_site_fract_z
Mg1 Mg 0.5000 0.0000 0.5000
O1 O 0.5231(2) 0.12872(9) 0.51251(12)
H6 H 0.5065 0.1746 0.4769
H7 H 0.5592 0.1400 0.5819
O2 O 0.2173(2) 0.00747(9) 0.46229(14)
H8 H 0.1668 0.0466 0.4914
H9 H 0.1493 -0.0367 0.4605
O3 O 0.5006(3) -0.00392(9) 0.67073(12)
H10 H 0.5486 0.0092 0.7382
H11 H 0.4035 -0.0323 0.6713
O1B O 0.4769(2) -0.12872(9) 0.48749(12)
H6B H 0.4935 -0.1746 0.5231
H7B H 0.4408 -0.1400 0.4181
O2B O 0.7827(2) -0.00747(9) 0.53771(14)
H8B H 0.8332 -0.0466 0.5086
H9B H 0.8507 0.0367 0.5395
O3B O 0.4994(3) 0.00392(9) 0.32927(12)
H10B H 0.4514 -0.0092 0.2618
H11B H 0.5965 0.0323 0.3287
C1 C 0.7904(3) 0.15136(12) -0.09794(16)
C2 C 0.8281(3) 0.10454(12) 0.00838(16)
C3 C 0.9335(3) 0.14064(13) 0.10478(18)
H1 H 0.9753 0.1952 0.1023
C4 C 0.9768(4) 0.09637(14) 0.20399(19)
H2 H 1.0476 0.1211 0.2679
C5 C 0.7649(3) 0.02305(12) 0.01326(16)
H3 H 0.6933 -0.0016 -0.0505
C6 C 0.9152(3) 0.01543(14) 0.20876(18)
H4 H 0.9451 -0.0143 0.2757
C7 C 0.8087(3) -0.02159(12) 0.11354(16)
C8 C 0.7505(3) -0.10822(12) 0.12182(16)
N1 N 0.6957(3) 0.12118(10) -0.19549(14)
N2 N 0.7003(3) 0.18189(11) -0.27055(14)
N3 N 0.7922(3) 0.24562(10) -0.21978(14)
N4 N 0.8508(2) 0.22850(10) -0.11037(14)
N5 N 0.7909(3) -0.15548(10) 0.21375(15)
N6 N 0.7168(3) -0.23122(11) 0.18397(16)
N7 N 0.6331(3) -0.23186(11) 0.07931(16)
N8 N 0.6528(2) -0.15522(10) 0.03918(14)
H5 H 0.6097 -0.1389 -0.0286
O4 O 0.5005(2) 0.14487(9) 0.18614(12)
H12 H 0.4286 0.1770 0.2133
H13 H 0.6097 0.1676 0.2042
O5 O 0.5296(2) 0.37416(9) 0.05607(13)
H14 H 0.5036 0.3291 0.0216
H15 H 0.5769 0.3613 0.1249
loop_
_geom_bond_atom_site_label_1
_geom_bond_atom_site_label_2
_geom_bond_site_symmetry_1
_geom_bond_site_symmetry_2
Mg1 O1 1_555 1_555
C1 C2 1_555 1_555
C2 C3 1_555 1_555
C3 H1 1_555 1_555
C4 C3 1_555 1_555
H2 C4 1_555 1_555
C5 C2 1_555 1_555
H3 C5 1_555 1_555
C6 C4 1_555 1_555
H4 C6 1_555 1_555
C7 C5 1_555 1_555
C8 C7 1_555 1_555
N1 C1 1_555 1_555
N2 N1 1_555 1_555
N3 N2 1_555 1_555
N4 C1 1_555 1_555
N5 C8 1_555 1_555
N6 N5 1_555 1_555
N7 N6 1_555 1_555
N8 C8 1_555 1_555
H5 N8 1_555 1_555
O1 H6 1_555 1_555
H7 O1 1_555 1_555
O2 Mg1 1_555 1_555
H8 O2 1_555 1_555
H9 O2 1_555 1_555
O3 Mg1 1_555 1_555
H10 O3 1_555 1_555
H11 O3 1_555 1_555
O4 H12 1_555 1_555
H13 O4 1_555 1_555
O5 H14 1_555 1_555
H15 O5 1_555 1_555
O1B Mg1 1_555 1_555
H6B O1B 1_555 1_555
H7B O1B 1_555 1_555
O2B Mg1 1_555 1_555
H8B O2B 1_555 1_555
H9B O2B 1_555 1_555
O3B Mg1 1_555 1_555
H10B O3B 1_555 1_555
H11B O3B 1_555 1_555
C6 C7 1_555 1_555
N3 N4 1_555 1_555
N7 N8 1_555 1_555

#END
