
#######################################################################
#
#                 Cambridge Crystallographic Data Centre
#                                CCDC 
#
#######################################################################
#
# If this CIF has been generated from an entry in the Cambridge 
# Structural Database, then it will include bibliographic, chemical, 
# crystal, experimental, refinement or atomic coordinate data resulting 
# from the CCDC's data processing and validation procedures.
#
#######################################################################

data_GANWUQ
_chemical_formula_moiety         'C19 H16 O4 S1'
_chemical_name_systematic        
'4-acetylnaphthalen-2-yl 4-methylbenzene-1-sulfonate'
_symmetry_cell_setting           triclinic
_symmetry_space_group_name_H-M   'P -1'
_symmetry_Int_Tables_number      2
_space_group_name_Hall           '-P 1'
loop_
_symmetry_equiv_pos_site_id
_symmetry_equiv_pos_as_xyz
1 x,y,z
2 -x,-y,-z
_cell_length_a                   8.5541(2)
_cell_length_b                   9.1578(3)
_cell_length_c                   11.6908(4)
_cell_angle_alpha                79.670(2)
_cell_angle_beta                 86.710(2)
_cell_angle_gamma                68.030(2)
_cell_volume                     835.499
_exptl_crystal_description       block
_cell_formula_units_Z            2
loop_
_atom_site_label
_atom_site_type_symbol
_atom_site_fract_x
_atom_site_fract_y
_atom_site_fract_z
C1 C -0.1794(2) 0.8500(2) 0.54405(16)
C2 C -0.2717(2) 0.8459(2) 0.64157(16)
H1 H -0.3878 0.8747 0.6363
C3 C -0.1908(2) 0.7977(2) 0.75130(16)
C4 C -0.2850(3) 0.7918(3) 0.85431(18)
H2 H -0.4016 0.8238 0.8495
C5 C -0.2080(3) 0.7404(3) 0.95946(19)
H3 H -0.2715 0.7386 1.0266
C6 C -0.0329(3) 0.6898(3) 0.96739(18)
H4 H 0.0195 0.6513 1.0401
C7 C 0.0627(3) 0.6956(2) 0.87091(17)
H5 H 0.1790 0.6619 0.8788
C8 C -0.0120(2) 0.7522(2) 0.75866(16)
C9 C 0.0797(2) 0.7639(2) 0.65277(16)
C10 C -0.0050(2) 0.8121(2) 0.54839(17)
H6 H 0.0539 0.8197 0.4796
C11 C 0.2652(2) 0.7309(2) 0.65062(19)
C12 C 0.3595(3) 0.6957(3) 0.5407(2)
H7 H 0.3263 0.7911 0.4831
H8 H 0.3342 0.6145 0.5127
H9 H 0.4783 0.6589 0.5557
C13 C -0.0533(2) 0.7546(2) 0.28334(16)
C14 C -0.0347(3) 0.8836(2) 0.21038(17)
H10 H -0.1241 0.9817 0.1972
C15 C 0.1179(3) 0.8646(3) 0.1576(2)
H11 H 0.1317 0.9515 0.1095
C16 C 0.2515(3) 0.7187(3) 0.17464(19)
C17 C 0.2296(3) 0.5914(3) 0.24756(19)
H12 H 0.3182 0.4928 0.2595
C18 C 0.0782(3) 0.6082(2) 0.30316(17)
H13 H 0.0653 0.5223 0.3531
C19 C 0.4160(3) 0.6994(4) 0.1121(3)
H14 H 0.4903 0.5893 0.1273
H15 H 0.4674 0.7640 0.1392
H16 H 0.3945 0.7327 0.0299
O1 O 0.33936(19) 0.7358(2) 0.73498(14)
O2 O -0.26426(16) 0.90521(16) 0.43522(11)
O3 O -0.23788(19) 0.63193(18) 0.42179(13)
O4 O -0.37939(18) 0.8647(2) 0.27020(13)
S1 S -0.24656(6) 0.77890(7) 0.35154(5)
loop_
_geom_bond_atom_site_label_1
_geom_bond_atom_site_label_2
_geom_bond_site_symmetry_1
_geom_bond_site_symmetry_2
C1 C2 1_555 1_555
C2 H1 1_555 1_555
C3 C2 1_555 1_555
C4 C3 1_555 1_555
H2 C4 1_555 1_555
C5 C4 1_555 1_555
H3 C5 1_555 1_555
C6 C5 1_555 1_555
H4 C6 1_555 1_555
C7 C6 1_555 1_555
H5 C7 1_555 1_555
C8 C3 1_555 1_555
C9 C8 1_555 1_555
C10 C1 1_555 1_555
H6 C10 1_555 1_555
C11 C9 1_555 1_555
C12 C11 1_555 1_555
H7 C12 1_555 1_555
H8 C12 1_555 1_555
H9 C12 1_555 1_555
C13 C14 1_555 1_555
C14 H10 1_555 1_555
C15 C14 1_555 1_555
H11 C15 1_555 1_555
C16 C15 1_555 1_555
C17 C16 1_555 1_555
H12 C17 1_555 1_555
C18 C13 1_555 1_555
H13 C18 1_555 1_555
C19 C16 1_555 1_555
H14 C19 1_555 1_555
H15 C19 1_555 1_555
H16 C19 1_555 1_555
O1 C11 1_555 1_555
O2 C1 1_555 1_555
O3 S1 1_555 1_555
O4 S1 1_555 1_555
S1 C13 1_555 1_555
C7 C8 1_555 1_555
C9 C10 1_555 1_555
C17 C18 1_555 1_555
O2 S1 1_555 1_555

#END
