
#######################################################################
#
#                 Cambridge Crystallographic Data Centre
#                                CCDC 
#
#######################################################################
#
# If this CIF has been generated from an entry in the Cambridge 
# Structural Database, then it will include bibliographic, chemical, 
# crystal, experimental, refinement or atomic coordinate data resulting 
# from the CCDC's data processing and validation procedures.
#
#######################################################################

data_GANXOJ
_chemical_formula_moiety         'C7 H10 Cl1 I1 N2'
_chemical_name_systematic        1-Chloroiodo-4-(dimethylamino)pyridine
_symmetry_cell_setting           monoclinic
_symmetry_space_group_name_H-M   'P 21/c'
_symmetry_Int_Tables_number      14
_space_group_name_Hall           '-P 2ybc'
loop_
_symmetry_equiv_pos_site_id
_symmetry_equiv_pos_as_xyz
1 x,y,z
2 -x,1/2+y,1/2-z
3 -x,-y,-z
4 x,1/2-y,1/2+z
_cell_length_a                   8.4864(9)
_cell_length_b                   7.4207(7)
_cell_length_c                   15.8671(16)
_cell_angle_alpha                90
_cell_angle_beta                 105.19(2)
_cell_angle_gamma                90
_cell_volume                     964.32
_exptl_crystal_colour            colorless
_exptl_crystal_description       plate
_chemical_melting_point          '413-414 K'
_cell_formula_units_Z            4
loop_
_atom_site_label
_atom_site_type_symbol
_atom_site_fract_x
_atom_site_fract_y
_atom_site_fract_z
I1 I -0.147179(16) 0.341088(17) 0.383043(8)
Cl1 Cl -0.34124(7) 0.32336(8) 0.48218(4)
N1 N 0.0215(2) 0.3533(2) 0.29519(12)
N2 N 0.3295(2) 0.3700(3) 0.13004(12)
C1 C -0.0362(3) 0.3251(3) 0.20844(14)
H1 H -0.1493 0.3013 0.1856
C2 C 0.0613(3) 0.3293(3) 0.15191(14)
H2 H 0.0154 0.3078 0.0914
C3 C 0.2305(3) 0.3656(3) 0.18358(14)
C4 C 0.2876(3) 0.3967(3) 0.27485(14)
H3 H 0.3998 0.4220 0.3000
C5 C 0.1820(3) 0.3904(3) 0.32656(14)
H4 H 0.2233 0.4131 0.3873
C6 C 0.2664(3) 0.3384(3) 0.03652(15)
H5 H 0.2068 0.2239 0.0270
H6 H 0.3575 0.3333 0.0093
H7 H 0.1926 0.4367 0.0105
C7 C 0.5012(3) 0.4188(4) 0.16273(16)
H8 H 0.5097 0.5425 0.1851
H9 H 0.5549 0.4104 0.1152
H10 H 0.5543 0.3362 0.2098
loop_
_geom_bond_atom_site_label_1
_geom_bond_atom_site_label_2
_geom_bond_site_symmetry_1
_geom_bond_site_symmetry_2
I1 Cl1 1_555 1_555
N1 I1 1_555 1_555
N2 C3 1_555 1_555
C1 N1 1_555 1_555
H1 C1 1_555 1_555
C2 C1 1_555 1_555
H2 C2 1_555 1_555
C3 C2 1_555 1_555
C4 C3 1_555 1_555
H3 C4 1_555 1_555
C5 N1 1_555 1_555
H4 C5 1_555 1_555
C6 N2 1_555 1_555
H5 C6 1_555 1_555
H6 C6 1_555 1_555
H7 C6 1_555 1_555
C7 N2 1_555 1_555
H8 C7 1_555 1_555
H9 C7 1_555 1_555
H10 C7 1_555 1_555
C4 C5 1_555 1_555

#END
