
#######################################################################
#
#                 Cambridge Crystallographic Data Centre
#                                CCDC 
#
#######################################################################
#
# If this CIF has been generated from an entry in the Cambridge 
# Structural Database, then it will include bibliographic, chemical, 
# crystal, experimental, refinement or atomic coordinate data resulting 
# from the CCDC's data processing and validation procedures.
#
#######################################################################

data_GANXAV
_chemical_formula_moiety         'C5 H4 Br1 Cl1 I1 N1'
_chemical_name_systematic        3-Bromo-1-chloroiodopyridine
_symmetry_cell_setting           monoclinic
_symmetry_space_group_name_H-M   'C 2/c'
_symmetry_Int_Tables_number      15
_space_group_name_Hall           '-C 2yn'
loop_
_symmetry_equiv_pos_site_id
_symmetry_equiv_pos_as_xyz
1 x,y,z
2 1/2+x,1/2+y,z
3 -x,y,1/2-z
4 1/2-x,1/2+y,1/2-z
5 -x,-y,-z
6 1/2-x,1/2-y,-z
7 x,-y,1/2+z
8 1/2+x,1/2-y,1/2+z
_cell_length_a                   21.337(3)
_cell_length_b                   4.174(1)
_cell_length_c                   18.384(3)
_cell_angle_alpha                90
_cell_angle_beta                 94.38(1)
_cell_angle_gamma                90
_cell_volume                     1632.51
_exptl_crystal_colour            'light yellow'
_exptl_crystal_description       prism
_chemical_melting_point          '368-369 K'
_cell_formula_units_Z            8
loop_
_atom_site_label
_atom_site_type_symbol
_atom_site_fract_x
_atom_site_fract_y
_atom_site_fract_z
I1 I 0.408486(7) 0.85914(3) 0.555418(7)
Br1 Br 0.227363(12) 0.16793(6) 0.346961(14)
Cl1 Cl 0.43605(3) 1.10232(14) 0.67633(3)
N1 N 0.38283(9) 0.6148(4) 0.44227(10)
C1 C 0.32488(11) 0.4972(6) 0.42730(13)
H1 H 0.2997(12) 0.522(6) 0.4623(13)
C2 C 0.30997(11) 0.3259(5) 0.36394(12)
C3 C 0.35515(12) 0.2734(6) 0.31498(13)
H2 H 0.3474(13) 0.151(6) 0.2689(13)
C4 C 0.41478(11) 0.3986(6) 0.33118(12)
H3 H 0.4461(14) 0.366(6) 0.2964(14)
C5 C 0.42715(12) 0.5685(6) 0.39532(12)
H4 H 0.4676(12) 0.659(6) 0.4075(13)
loop_
_geom_bond_atom_site_label_1
_geom_bond_atom_site_label_2
_geom_bond_site_symmetry_1
_geom_bond_site_symmetry_2
I1 Cl1 1_555 1_555
Br1 C2 1_555 1_555
N1 I1 1_555 1_555
C1 N1 1_555 1_555
H1 C1 1_555 1_555
C2 C1 1_555 1_555
C3 C2 1_555 1_555
H2 C3 1_555 1_555
C4 C3 1_555 1_555
H3 C4 1_555 1_555
C5 N1 1_555 1_555
H4 C5 1_555 1_555
C4 C5 1_555 1_555

#END
