
#######################################################################
#
#                 Cambridge Crystallographic Data Centre
#                                CCDC 
#
#######################################################################
#
# If this CIF has been generated from an entry in the Cambridge 
# Structural Database, then it will include bibliographic, chemical, 
# crystal, experimental, refinement or atomic coordinate data resulting 
# from the CCDC's data processing and validation procedures.
#
#######################################################################

data_GAPCUY
_chemical_formula_moiety         'C5 H5 N5 O1'
_chemical_name_systematic        
5-cyano-2-methyl-2H-1,2,3-triazole-4-carboxamide
_symmetry_cell_setting           triclinic
_symmetry_space_group_name_H-M   'P -1'
_symmetry_Int_Tables_number      2
_space_group_name_Hall           '-P 1'
loop_
_symmetry_equiv_pos_site_id
_symmetry_equiv_pos_as_xyz
1 x,y,z
2 -x,-y,-z
_cell_length_a                   4.956(2)
_cell_length_b                   10.058(5)
_cell_length_c                   14.142(7)
_cell_angle_alpha                105.904(7)
_cell_angle_beta                 91.169(4)
_cell_angle_gamma                102.741(8)
_cell_volume                     658.806
_exptl_crystal_colour            colorless
_exptl_crystal_description       Prism
_cell_formula_units_Z            4
loop_
_atom_site_label
_atom_site_type_symbol
_atom_site_fract_x
_atom_site_fract_y
_atom_site_fract_z
O1 O 0.2548(3) 0.83215(13) 0.95702(9)
N1 N 0.5271(3) 0.63821(14) 0.74505(10)
N2 N 0.4076(3) 0.50477(14) 0.69696(10)
N3 N 0.1810(3) 0.44720(14) 0.73383(10)
N4 N 0.6495(3) 0.90618(15) 0.88903(11)
N5 N -0.2503(3) 0.51225(17) 0.92024(12)
C1 C 0.3675(3) 0.67160(16) 0.81935(11)
C2 C 0.1526(3) 0.55231(17) 0.81167(12)
C3 C 0.5092(4) 0.42583(19) 0.60803(12)
H1 H 0.6853 0.4828 0.5958
H2 H 0.3725 0.4051 0.5518
H3 H 0.5381 0.3365 0.6167
C4 C 0.4223(3) 0.81098(17) 0.89418(12)
C5 C -0.0684(3) 0.53167(18) 0.87293(13)
H4 H 0.763(5) 0.878(3) 0.8438(18)
H5 H 0.697(5) 0.998(3) 0.9387(18)
O2 O 0.3101(2) 0.09485(12) 0.46319(8)
N6 N 0.4856(3) -0.14800(14) 0.25102(10)
N7 N 0.7036(3) -0.11138(14) 0.20287(10)
N8 N 0.8539(3) 0.02085(14) 0.23925(10)
N9 N 0.0852(3) -0.13488(15) 0.39141(11)
N10 N 0.9027(3) 0.33146(16) 0.42645(12)
C6 C 0.4927(3) -0.03046(16) 0.32499(11)
C7 C 0.7221(3) 0.07373(16) 0.31758(11)
C8 C 0.7791(4) -0.20984(18) 0.11680(12)
H6 H 0.9488 -0.2358 0.1343
H7 H 0.8111 -0.1643 0.0637
H8 H 0.6281 -0.2956 0.0946
C9 C 0.2858(3) -0.01978(16) 0.39909(11)
C10 C 0.8211(3) 0.21627(18) 0.37835(12)
H9 H -0.049(5) -0.130(2) 0.4354(16)
H10 H 0.085(4) -0.217(2) 0.3416(16)
loop_
_geom_bond_atom_site_label_1
_geom_bond_atom_site_label_2
_geom_bond_site_symmetry_1
_geom_bond_site_symmetry_2
O1 C4 1_555 1_555
N1 N2 1_555 1_555
N2 N3 1_555 1_555
N3 C2 1_555 1_555
N4 C4 1_555 1_555
N5 C5 1_555 1_555
C1 N1 1_555 1_555
C2 C1 1_555 1_555
C3 N2 1_555 1_555
H1 C3 1_555 1_555
H2 C3 1_555 1_555
H3 C3 1_555 1_555
C4 C1 1_555 1_555
C5 C2 1_555 1_555
H4 N4 1_555 1_555
H5 N4 1_555 1_555
O2 C9 1_555 1_555
N6 N7 1_555 1_555
N7 N8 1_555 1_555
N8 C7 1_555 1_555
N9 C9 1_555 1_555
N10 C10 1_555 1_555
C6 N6 1_555 1_555
C7 C6 1_555 1_555
C8 N7 1_555 1_555
H6 C8 1_555 1_555
H7 C8 1_555 1_555
H8 C8 1_555 1_555
C9 C6 1_555 1_555
C10 C7 1_555 1_555
H9 N9 1_555 1_555
H10 N9 1_555 1_555

#END
