
#######################################################################
#
#                 Cambridge Crystallographic Data Centre
#                                CCDC 
#
#######################################################################
#
# If this CIF has been generated from an entry in the Cambridge 
# Structural Database, then it will include bibliographic, chemical, 
# crystal, experimental, refinement or atomic coordinate data resulting 
# from the CCDC's data processing and validation procedures.
#
#######################################################################

data_GAPCIM
_chemical_formula_moiety         'C20 H14 N2 O2'
_chemical_name_systematic        '2-(1-phenyl-1H-benzimidazol-2-yl)benzoic acid'
_symmetry_cell_setting           monoclinic
_symmetry_space_group_name_H-M   'P 21'
_symmetry_Int_Tables_number      4
_space_group_name_Hall           'P 2yb'
loop_
_symmetry_equiv_pos_site_id
_symmetry_equiv_pos_as_xyz
1 x,y,z
2 -x,1/2+y,-z
_cell_length_a                   8.6939(10)
_cell_length_b                   9.5718(11)
_cell_length_c                   10.0841(12)
_cell_angle_alpha                90
_cell_angle_beta                 109.6090(10)
_cell_angle_gamma                90
_cell_volume                     790.494
_exptl_crystal_colour            white
_exptl_crystal_description       block
_cell_formula_units_Z            2
loop_
_atom_site_label
_atom_site_type_symbol
_atom_site_fract_x
_atom_site_fract_y
_atom_site_fract_z
O1 O 0.42067(17) 0.14460(15) 0.89542(14)
H1 H 0.3804 0.2223 0.8942
N1 N 0.76560(18) 0.10895(15) 1.03040(15)
N2 N 0.67782(18) -0.08789(16) 1.09826(15)
C1 C 0.4844(2) -0.01778(19) 0.74279(19)
C2 C 0.6903(2) -0.01682(18) 0.99105(18)
C3 C 0.7984(2) 0.1220(2) 1.17454(19)
C4 C 0.7445(2) -0.0017(2) 1.21567(19)
C5 C 0.7211(3) -0.1668(2) 0.8033(2)
H2 H 0.8172 -0.1993 0.8693
C6 C 0.7287(3) 0.3418(2) 0.9286(3)
H3 H 0.6586 0.3630 0.9781
C7 C 0.9406(3) 0.2804(3) 0.7845(2)
H4 H 1.0125 0.2600 0.7365
C8 C 0.6293(2) -0.06628(17) 0.84233(18)
C9 C 0.4362(3) -0.0741(2) 0.6075(2)
H5 H 0.3397 -0.0432 0.5407
C10 C 0.8002(2) 0.21188(19) 0.94075(19)
C11 C 0.8679(3) 0.4091(3) 0.7695(2)
H6 H 0.8892 0.4755 0.7106
C12 C 0.9078(2) 0.1803(2) 0.87080(19)
H7 H 0.9576 0.0930 0.8814
C13 C 0.3777(3) 0.0952(2) 0.7669(2)
C14 C 0.6712(3) -0.2194(2) 0.6671(2)
H8 H 0.7349 -0.2851 0.6417
C15 C 0.5277(3) -0.1740(2) 0.5703(2)
H9 H 0.4924 -0.2108 0.4797
C16 C 0.8758(3) 0.2266(2) 1.2691(2)
H10 H 0.9121 0.3087 1.2401
C17 C 0.7668(3) -0.0247(3) 1.3579(2)
H11 H 0.7319 -0.1069 1.3880
C18 C 0.8956(3) 0.2016(3) 1.4083(2)
H12 H 0.9461 0.2688 1.4754
C19 C 0.8418(3) 0.0781(3) 1.4510(2)
H13 H 0.8574 0.0652 1.5461
C20 C 0.7624(3) 0.4402(2) 0.8422(3)
H14 H 0.7140 0.5279 0.8328
O2 O 0.2621(3) 0.1388(2) 0.6724(2)
loop_
_geom_bond_atom_site_label_1
_geom_bond_atom_site_label_2
_geom_bond_site_symmetry_1
_geom_bond_site_symmetry_2
O1 H1 1_555 1_555
N1 C2 1_555 1_555
N2 C2 1_555 1_555
C1 C8 1_555 1_555
C2 C8 1_555 1_555
C3 N1 1_555 1_555
C4 N2 1_555 1_555
C5 H2 1_555 1_555
C6 H3 1_555 1_555
C7 H4 1_555 1_555
C8 C5 1_555 1_555
C9 C1 1_555 1_555
H5 C9 1_555 1_555
C10 N1 1_555 1_555
C11 C7 1_555 1_555
H6 C11 1_555 1_555
C12 C7 1_555 1_555
H7 C12 1_555 1_555
C13 O1 1_555 1_555
C14 C5 1_555 1_555
H8 C14 1_555 1_555
C15 C9 1_555 1_555
H9 C15 1_555 1_555
C16 C3 1_555 1_555
H10 C16 1_555 1_555
C17 C4 1_555 1_555
H11 C17 1_555 1_555
C18 C16 1_555 1_555
H12 C18 1_555 1_555
C19 C17 1_555 1_555
H13 C19 1_555 1_555
C20 C6 1_555 1_555
H14 C20 1_555 1_555
O2 C13 1_555 1_555
C1 C13 1_555 1_555
C3 C4 1_555 1_555
C6 C10 1_555 1_555
C10 C12 1_555 1_555
C11 C20 1_555 1_555
C14 C15 1_555 1_555
C18 C19 1_555 1_555

#END
