
#######################################################################
#
#                 Cambridge Crystallographic Data Centre
#                                CCDC 
#
#######################################################################
#
# If this CIF has been generated from an entry in the Cambridge 
# Structural Database, then it will include bibliographic, chemical, 
# crystal, experimental, refinement or atomic coordinate data resulting 
# from the CCDC's data processing and validation procedures.
#
#######################################################################

data_GAPHIQ
_chemical_name_common            
2-(4,5-Diphenyl-2-p-tolyl-1H-imidazol-1-yl)-3-phenylpropan-1-ol
_chemical_formula_moiety         'C31 H28 N2 O1'
_chemical_name_systematic        
2-(2-(4-Methylphenyl)-4,5-diphenyl-1H-imidazol-1-yl)-3-phenylpropan-1-ol
_symmetry_cell_setting           orthorhombic
_symmetry_space_group_name_H-M   'P 21 21 21'
_symmetry_Int_Tables_number      19
_space_group_name_Hall           'P 2ac 2ab'
loop_
_symmetry_equiv_pos_site_id
_symmetry_equiv_pos_as_xyz
1 x,y,z
2 1/2-x,-y,1/2+z
3 1/2+x,1/2-y,-z
4 -x,1/2+y,1/2-z
_cell_length_a                   9.3413(7)
_cell_length_b                   13.7402(11)
_cell_length_c                   19.6296(14)
_cell_angle_alpha                90
_cell_angle_beta                 90
_cell_angle_gamma                90
_cell_volume                     2519.49
_exptl_crystal_colour            colorless
_exptl_crystal_description       prismatic
_cell_formula_units_Z            4
loop_
_atom_site_label
_atom_site_type_symbol
_atom_site_fract_x
_atom_site_fract_y
_atom_site_fract_z
O1 O 0.03250(17) 0.28449(11) 0.37156(10)
N1 N 0.38409(17) 0.31434(10) 0.52389(7)
N2 N 0.32181(16) 0.32519(10) 0.41559(7)
C1 C 0.3733(2) 0.45666(14) 0.63052(9)
H1 H 0.3616 0.3912 0.6413
C2 C 0.3881(3) 0.52437(18) 0.68230(11)
H2 H 0.3855 0.5040 0.7275
C3 C 0.4063(4) 0.62017(19) 0.66770(12)
H3 H 0.4181 0.6652 0.7026
C4 C 0.4069(4) 0.64981(17) 0.60113(13)
H4 H 0.4174 0.7155 0.5909
C5 C 0.3922(3) 0.58302(15) 0.54886(11)
H5 H 0.3933 0.6043 0.5039
C6 C 0.3757(2) 0.48512(13) 0.56267(9)
C7 C 0.3616(2) 0.41103(12) 0.50849(8)
C8 C 0.32230(19) 0.41909(11) 0.44146(8)
C9 C 0.2811(2) 0.50422(12) 0.39900(8)
C10 C 0.1384(3) 0.52990(14) 0.39201(10)
H6 H 0.0678 0.4931 0.4133
C11 C 0.1006(3) 0.61040(17) 0.35333(12)
H7 H 0.0046 0.6273 0.3489
C12 C 0.2033(4) 0.66518(16) 0.32168(13)
H8 H 0.1776 0.7197 0.2964
C13 C 0.3428(4) 0.63930(17) 0.32753(13)
H9 H 0.4124 0.6759 0.3054
C14 C 0.3837(3) 0.55919(14) 0.36594(11)
H10 H 0.4799 0.5425 0.3694
C15 C 0.6439(3) 0.33594(17) 0.33126(13)
H11 H 0.6546 0.2910 0.3663
C16 C 0.7497(3) 0.4045(2) 0.32048(17)
H12 H 0.8298 0.4058 0.3486
C17 C 0.7373(3) 0.4703(2) 0.26865(16)
H13 H 0.8090 0.5160 0.2611
C18 C 0.6186(3) 0.46844(18) 0.22809(12)
H14 H 0.6088 0.5135 0.1931
C19 C 0.5128(3) 0.39962(16) 0.23896(10)
H15 H 0.4333 0.3984 0.2105
C20 C 0.5231(2) 0.33255(13) 0.29131(9)
C21 C 0.4054(2) 0.25978(13) 0.30306(9)
H16 H 0.4449 0.2037 0.3265
H17 H 0.3697 0.2378 0.2593
C22 C 0.2799(2) 0.29999(12) 0.34487(8)
H18 H 0.2516 0.3611 0.3230
C23 C 0.1490(2) 0.23495(13) 0.34372(9)
H19 H 0.1276 0.2161 0.2972
H20 H 0.1675 0.1763 0.3698
C24 C 0.35972(19) 0.26487(12) 0.46788(8)
C25 C 0.3693(2) 0.15676(12) 0.46470(8)
C26 C 0.2543(3) 0.10109(16) 0.48526(13)
H21 H 0.1712 0.1313 0.5004
C27 C 0.2621(3) 0.00056(17) 0.48343(15)
H22 H 0.1833 -0.0358 0.4973
C28 C 0.3829(3) -0.04669(14) 0.46169(11)
C29 C 0.4981(3) 0.00908(15) 0.44320(11)
H23 H 0.5818 -0.0214 0.4290
C30 C 0.4930(2) 0.10967(13) 0.44520(11)
H24 H 0.5735 0.1457 0.4333
C31 C 0.3906(5) -0.15668(17) 0.45750(18)
H25 H 0.3258 -0.1847 0.4900
H26 H 0.4864 -0.1777 0.4674
H27 H 0.3645 -0.1774 0.4125
H28 H -0.008(3) 0.2522(19) 0.4008(15)
loop_
_geom_bond_atom_site_label_1
_geom_bond_atom_site_label_2
_geom_bond_site_symmetry_1
_geom_bond_site_symmetry_2
O1 C23 1_555 1_555
N1 C7 1_555 1_555
N2 C8 1_555 1_555
C1 H1 1_555 1_555
C2 C1 1_555 1_555
H2 C2 1_555 1_555
C3 C2 1_555 1_555
H3 C3 1_555 1_555
C4 C3 1_555 1_555
H4 C4 1_555 1_555
C5 C4 1_555 1_555
H5 C5 1_555 1_555
C6 C1 1_555 1_555
C7 C6 1_555 1_555
C8 C7 1_555 1_555
C9 C8 1_555 1_555
C10 C9 1_555 1_555
H6 C10 1_555 1_555
C11 C10 1_555 1_555
H7 C11 1_555 1_555
C12 C11 1_555 1_555
H8 C12 1_555 1_555
C13 C12 1_555 1_555
H9 C13 1_555 1_555
C14 C9 1_555 1_555
H10 C14 1_555 1_555
C15 H11 1_555 1_555
C16 C15 1_555 1_555
H12 C16 1_555 1_555
C17 C16 1_555 1_555
H13 C17 1_555 1_555
C18 C17 1_555 1_555
H14 C18 1_555 1_555
C19 C18 1_555 1_555
H15 C19 1_555 1_555
C20 C15 1_555 1_555
C21 C20 1_555 1_555
H16 C21 1_555 1_555
H17 C21 1_555 1_555
C22 N2 1_555 1_555
H18 C22 1_555 1_555
C23 C22 1_555 1_555
H19 C23 1_555 1_555
H20 C23 1_555 1_555
C24 N1 1_555 1_555
C25 C24 1_555 1_555
C26 C25 1_555 1_555
H21 C26 1_555 1_555
C27 C26 1_555 1_555
H22 C27 1_555 1_555
C28 C27 1_555 1_555
C29 C28 1_555 1_555
H23 C29 1_555 1_555
C30 C25 1_555 1_555
H24 C30 1_555 1_555
C31 C28 1_555 1_555
H25 C31 1_555 1_555
H26 C31 1_555 1_555
H27 C31 1_555 1_555
H28 O1 1_555 1_555
N2 C24 1_555 1_555
C5 C6 1_555 1_555
C13 C14 1_555 1_555
C19 C20 1_555 1_555
C21 C22 1_555 1_555
C29 C30 1_555 1_555

#END
