
#######################################################################
#
#                 Cambridge Crystallographic Data Centre
#                                CCDC 
#
#######################################################################
#
# If this CIF has been generated from an entry in the Cambridge 
# Structural Database, then it will include bibliographic, chemical, 
# crystal, experimental, refinement or atomic coordinate data resulting 
# from the CCDC's data processing and validation procedures.
#
#######################################################################

data_GAPHOW01
_chemical_formula_moiety         'C25 H15 N1 O8'
_chemical_name_systematic        
3,3'-((4-Nitrophenyl)methylene)bis(4-hydroxy-2H-chromen-2-one)
_chemical_properties_biological  'antibacterial activity'
_symmetry_cell_setting           orthorhombic
_symmetry_space_group_name_H-M   'P n a 21'
_symmetry_Int_Tables_number      33
_space_group_name_Hall           'P 2c -2n'
loop_
_symmetry_equiv_pos_site_id
_symmetry_equiv_pos_as_xyz
1 x,y,z
2 -x,-y,1/2+z
3 1/2+x,1/2-y,z
4 1/2-x,1/2+y,1/2+z
_cell_length_a                   13.906(3)
_cell_length_b                   14.159(4)
_cell_length_c                   10.294(3)
_cell_angle_alpha                90
_cell_angle_beta                 90
_cell_angle_gamma                90
_cell_volume                     2026.84
_exptl_crystal_colour            colorless
_exptl_crystal_description       Prism
_chemical_melting_point          '251-252 deg.C'
_cell_formula_units_Z            4
loop_
_atom_site_label
_atom_site_type_symbol
_atom_site_fract_x
_atom_site_fract_y
_atom_site_fract_z
O1 O 1.07719(8) 0.20674(8) 0.61959(13)
O2 O 1.13117(8) 0.07146(8) 0.69339(12)
O3 O 0.86394(8) 0.21644(8) 0.89762(13)
H1 H 0.8496 0.1621 0.9238
O4 O 0.79147(8) -0.09614(8) 0.88954(12)
O5 O 0.80738(8) 0.04768(7) 0.96509(13)
O6 O 1.06715(8) -0.09656(8) 0.74471(12)
H2 H 1.0902 -0.0418 0.7403
O7 O 1.42107(9) 0.06023(9) 1.19096(15)
O8 O 1.36529(9) -0.07489(9) 1.25731(13)
N1 N 1.35974(10) -0.00277(10) 1.19155(16)
C1 C 1.00933(12) 0.27751(11) 0.62001(19)
C2 C 1.01587(14) 0.34395(12) 0.51868(19)
H3 H 1.0660 0.3406 0.4562
C3 C 0.94708(14) 0.41419(12) 0.51296(19)
H4 H 0.9503 0.4604 0.4462
C4 C 0.87350(14) 0.41785(12) 0.6035(2)
H5 H 0.8260 0.4659 0.5970
C5 C 0.86820(13) 0.35348(11) 0.7020(2)
H6 H 0.8177 0.3573 0.7639
C6 C 0.93674(12) 0.28241(11) 0.71168(19)
C7 C 0.93633(12) 0.21064(11) 0.81198(18)
C8 C 1.00458(11) 0.14147(11) 0.81402(17)
C9 C 1.07386(12) 0.13616(11) 0.70949(18)
C10 C 1.00621(11) 0.06412(10) 0.91656(17)
H7 H 0.9692 0.0913 0.9910
C11 C 0.94770(11) -0.02121(11) 0.87485(17)
C12 C 0.98007(12) -0.09284(11) 0.79803(17)
C13 C 0.91882(12) -0.17382(11) 0.77091(18)
C14 C 0.94760(13) -0.25041(11) 0.69613(19)
H8 H 1.0106 -0.2522 0.6604
C15 C 0.88534(13) -0.32314(12) 0.6741(2)
H9 H 0.9053 -0.3753 0.6227
C16 C 0.79274(13) -0.32172(12) 0.7263(2)
H10 H 0.7503 -0.3730 0.7100
C17 C 0.76207(13) -0.24687(13) 0.80108(19)
H11 H 0.6993 -0.2459 0.8374
C18 C 0.82627(12) -0.17235(11) 0.82181(17)
C19 C 0.84765(13) -0.01973(11) 0.91359(17)
C20 C 1.10537(11) 0.04199(11) 0.97390(17)
C21 C 1.17625(12) 0.11084(11) 0.98005(17)
H12 H 1.1663 0.1695 0.9375
C22 C 1.26142(12) 0.09568(12) 1.04714(17)
H13 H 1.3101 0.1428 1.0495
C23 C 1.27379(11) 0.01059(12) 1.11038(18)
C24 C 1.20657(12) -0.06109(12) 1.10204(18)
H14 H 1.2176 -0.1202 1.1430
C25 C 1.12289(11) -0.04486(11) 1.03287(17)
H15 H 1.0765 -0.0938 1.0255
loop_
_geom_bond_atom_site_label_1
_geom_bond_atom_site_label_2
_geom_bond_site_symmetry_1
_geom_bond_site_symmetry_2
O1 C1 1_555 1_555
O2 C9 1_555 1_555
O3 H1 1_555 1_555
O4 C18 1_555 1_555
O5 C19 1_555 1_555
O6 H2 1_555 1_555
O7 N1 1_555 1_555
O8 N1 1_555 1_555
N1 C23 1_555 1_555
C1 C2 1_555 1_555
C2 H3 1_555 1_555
C3 C2 1_555 1_555
H4 C3 1_555 1_555
C4 C3 1_555 1_555
H5 C4 1_555 1_555
C5 C4 1_555 1_555
H6 C5 1_555 1_555
C6 C1 1_555 1_555
C7 O3 1_555 1_555
C8 C7 1_555 1_555
C9 O1 1_555 1_555
C10 C8 1_555 1_555
H7 C10 1_555 1_555
C11 C10 1_555 1_555
C12 O6 1_555 1_555
C13 C12 1_555 1_555
C14 C13 1_555 1_555
H8 C14 1_555 1_555
C15 C14 1_555 1_555
H9 C15 1_555 1_555
C16 C15 1_555 1_555
H10 C16 1_555 1_555
C17 C16 1_555 1_555
H11 C17 1_555 1_555
C18 C13 1_555 1_555
C19 O4 1_555 1_555
C20 C10 1_555 1_555
C21 C20 1_555 1_555
H12 C21 1_555 1_555
C22 C21 1_555 1_555
H13 C22 1_555 1_555
C23 C22 1_555 1_555
C24 C23 1_555 1_555
H14 C24 1_555 1_555
C25 C20 1_555 1_555
H15 C25 1_555 1_555
C5 C6 1_555 1_555
C6 C7 1_555 1_555
C8 C9 1_555 1_555
C11 C12 1_555 1_555
C11 C19 1_555 1_555
C17 C18 1_555 1_555
C24 C25 1_555 1_555

#END
