
#######################################################################
#
#                 Cambridge Crystallographic Data Centre
#                                CCDC 
#
#######################################################################
#
# If this CIF has been generated from an entry in the Cambridge 
# Structural Database, then it will include bibliographic, chemical, 
# crystal, experimental, refinement or atomic coordinate data resulting 
# from the CCDC's data processing and validation procedures.
#
#######################################################################

data_GAPNOC
_chemical_formula_moiety         'C32 H38 N2 O5,2(C2 H6 O1)'
_chemical_name_systematic        
'(E)-1-(4-[bis(4-methoxyphenyl)methyl]piperazin-1-yl)-3-(3,4-diethoxyphenyl)prop-2-en-1-one ethanol solvate'
_symmetry_cell_setting           triclinic
_symmetry_space_group_name_H-M   'P -1'
_symmetry_Int_Tables_number      2
_space_group_name_Hall           '-P 1'
loop_
_symmetry_equiv_pos_site_id
_symmetry_equiv_pos_as_xyz
1 x,y,z
2 -x,-y,-z
_cell_length_a                   12.511(3)
_cell_length_b                   12.564(3)
_cell_length_c                   13.601(3)
_cell_angle_alpha                88.13(3)
_cell_angle_beta                 70.62(3)
_cell_angle_gamma                65.84(3)
_cell_volume                     1826.85
_exptl_crystal_colour            'pale yellow'
_exptl_crystal_description       block
_cell_formula_units_Z            2
loop_
_atom_site_label
_atom_site_type_symbol
_atom_site_fract_x
_atom_site_fract_y
_atom_site_fract_z
O1 O 0.7645(2) 0.43579(19) 0.73201(16)
N1 N 0.3880(2) 0.3238(2) 0.4502(2)
C1 C 0.6388(3) 0.4767(3) 0.7589(2)
O2 O 0.6341(2) 0.58409(19) 0.90097(16)
N2 N 0.4710(2) 0.1072(2) 0.32428(18)
C2 C 0.5791(3) 0.4492(3) 0.7042(2)
H1 H 0.6264 0.3976 0.6426
O3 O 0.2255(2) 0.4493(2) 0.58302(18)
C3 C 0.4490(3) 0.4953(3) 0.7369(2)
O4 O 1.0072(2) -0.2941(2) 0.0568(2)
C4 C 0.3823(3) 0.5725(3) 0.8292(2)
H2 H 0.2954 0.6051 0.8532
O5 O 0.2255(3) -0.0921(2) 0.0774(2)
C5 C 0.4408(3) 0.6019(3) 0.8857(2)
H3 H 0.3933 0.6527 0.9477
C6 C 0.5677(3) 0.5574(3) 0.8519(2)
C7 C 0.5645(3) 0.6754(3) 0.9877(2)
H4 H 0.5113 0.6515 1.0447
H5 H 0.5119 0.7464 0.9663
C8 C 0.6542(3) 0.6980(3) 1.0227(3)
H6 H 0.6094 0.7638 1.0766
H7 H 0.7109 0.7152 0.9643
H8 H 0.7003 0.6298 1.0500
C9 C 0.8405(3) 0.3706(3) 0.6294(2)
H9 H 0.8141 0.4160 0.5760
H10 H 0.8323 0.2975 0.6254
C10 C 0.9728(3) 0.3462(4) 0.6129(3)
H11 H 1.0259 0.3027 0.5450
H12 H 0.9979 0.3011 0.6661
H13 H 0.9798 0.4191 0.6169
C11 C 0.3817(3) 0.4704(3) 0.6783(2)
H14 H 0.2956 0.5000 0.7119
C12 C 0.4248(3) 0.4126(3) 0.5852(2)
H15 H 0.5102 0.3808 0.5474
C13 C 0.3408(4) 0.3975(3) 0.5399(3)
C14 C 0.5202(3) 0.2540(3) 0.3899(3)
H16 H 0.5711 0.2641 0.4261
H17 H 0.5415 0.2812 0.3216
C15 C 0.5478(3) 0.1252(3) 0.3761(2)
H18 H 0.6354 0.0804 0.3346
H19 H 0.5318 0.0967 0.4442
C16 C 0.3399(3) 0.1738(3) 0.3898(2)
H20 H 0.3243 0.1451 0.4578
H21 H 0.2868 0.1618 0.3572
C17 C 0.3071(3) 0.3040(3) 0.4043(3)
H22 H 0.3165 0.3343 0.3369
H23 H 0.2206 0.3458 0.4498
C18 C 0.5014(3) -0.0179(3) 0.3039(2)
H24 H 0.4825 -0.0482 0.3719
C19 C 0.6393(3) -0.0892(3) 0.2416(2)
C20 C 0.7021(3) -0.0505(3) 0.1564(2)
H25 H 0.6619 0.0237 0.1384
C21 C 0.8259(3) -0.1216(3) 0.0964(3)
H26 H 0.8682 -0.0942 0.0391
C22 C 0.8859(4) -0.2317(3) 0.1212(3)
C23 C 0.8234(4) -0.2700(3) 0.2074(3)
H27 H 0.8638 -0.3439 0.2258
C24 C 0.7014(4) -0.1997(3) 0.2664(3)
H28 H 0.6598 -0.2270 0.3243
C25 C 1.0723(4) -0.4088(4) 0.0787(3)
H29 H 1.1550 -0.4439 0.0271
H30 H 1.0284 -0.4555 0.0768
H31 H 1.0778 -0.4048 0.1471
C26 C 0.4215(3) -0.0353(3) 0.2477(2)
C27 C 0.3708(3) -0.1137(3) 0.2767(3)
H32 H 0.3807 -0.1537 0.3341
C28 C 0.3052(3) -0.1346(3) 0.2223(3)
H33 H 0.2718 -0.1892 0.2426
C29 C 0.2886(3) -0.0757(3) 0.1386(3)
C30 C 0.3385(3) 0.0033(3) 0.1085(3)
H34 H 0.3272 0.0436 0.0516
C31 C 0.4052(3) 0.0238(3) 0.1617(2)
H35 H 0.4397 0.0773 0.1403
C32 C 0.1610(4) -0.1626(4) 0.1114(3)
H36 H 0.1211 -0.1660 0.0630
H37 H 0.0990 -0.1298 0.1798
H38 H 0.2188 -0.2405 0.1148
O6 O 0.0879(4) 0.6828(3) 0.6384(3)
H39 H 0.1356 0.6162 0.6429
C33 C -0.0052(9) 0.6966(9) 0.8023(7)
H40 H -0.0769 0.7214 0.8657
H41 H 0.0398 0.7435 0.7999
H42 H 0.0483 0.6155 0.8007
C34 C -0.0443(9) 0.7107(8) 0.7151(8)
H43 H -0.1044 0.7900 0.7156
H44 H -0.0751 0.6540 0.7052
O7 O 0.2275(4) 0.7986(4) 0.5355(3)
H45 H 0.1836 0.7656 0.5666
C35 C 0.1491(9) 0.9230(10) 0.5390(7)
H46 H 0.1965 0.9620 0.4943
H47 H 0.0786 0.9342 0.5180
C36 C 0.1096(9) 0.9642(10) 0.6458(9)
H48 H 0.1206 1.0347 0.6516
H49 H 0.1583 0.9054 0.6794
H50 H 0.0229 0.9806 0.6792
loop_
_geom_bond_atom_site_label_1
_geom_bond_atom_site_label_2
_geom_bond_site_symmetry_1
_geom_bond_site_symmetry_2
O1 C1 1_555 1_555
N1 C13 1_555 1_555
C1 C2 1_555 1_555
O2 C6 1_555 1_555
N2 C15 1_555 1_555
C2 H1 1_555 1_555
O3 C13 1_555 1_555
C3 C2 1_555 1_555
O4 C22 1_555 1_555
C4 C3 1_555 1_555
H2 C4 1_555 1_555
O5 C29 1_555 1_555
C5 C4 1_555 1_555
H3 C5 1_555 1_555
C6 C1 1_555 1_555
C7 O2 1_555 1_555
H4 C7 1_555 1_555
H5 C7 1_555 1_555
C8 C7 1_555 1_555
H6 C8 1_555 1_555
H7 C8 1_555 1_555
H8 C8 1_555 1_555
C9 O1 1_555 1_555
H9 C9 1_555 1_555
H10 C9 1_555 1_555
C10 C9 1_555 1_555
H11 C10 1_555 1_555
H12 C10 1_555 1_555
H13 C10 1_555 1_555
C11 C3 1_555 1_555
H14 C11 1_555 1_555
C12 C11 1_555 1_555
H15 C12 1_555 1_555
C13 C12 1_555 1_555
C14 N1 1_555 1_555
H16 C14 1_555 1_555
H17 C14 1_555 1_555
C15 C14 1_555 1_555
H18 C15 1_555 1_555
H19 C15 1_555 1_555
C16 N2 1_555 1_555
H20 C16 1_555 1_555
H21 C16 1_555 1_555
C17 N1 1_555 1_555
H22 C17 1_555 1_555
H23 C17 1_555 1_555
C18 N2 1_555 1_555
H24 C18 1_555 1_555
C19 C18 1_555 1_555
C20 C19 1_555 1_555
H25 C20 1_555 1_555
C21 C20 1_555 1_555
H26 C21 1_555 1_555
C22 C21 1_555 1_555
C23 C22 1_555 1_555
H27 C23 1_555 1_555
C24 C19 1_555 1_555
H28 C24 1_555 1_555
C25 O4 1_555 1_555
H29 C25 1_555 1_555
H30 C25 1_555 1_555
H31 C25 1_555 1_555
C26 C18 1_555 1_555
C27 C26 1_555 1_555
H32 C27 1_555 1_555
C28 C27 1_555 1_555
H33 C28 1_555 1_555
C29 C28 1_555 1_555
C30 C29 1_555 1_555
H34 C30 1_555 1_555
C31 C26 1_555 1_555
H35 C31 1_555 1_555
C32 O5 1_555 1_555
H36 C32 1_555 1_555
H37 C32 1_555 1_555
H38 C32 1_555 1_555
O6 H39 1_555 1_555
C33 H40 1_555 1_555
H41 C33 1_555 1_555
H42 C33 1_555 1_555
C34 O6 1_555 1_555
H43 C34 1_555 1_555
H44 C34 1_555 1_555
O7 H45 1_555 1_555
C35 O7 1_555 1_555
H46 C35 1_555 1_555
H47 C35 1_555 1_555
C36 C35 1_555 1_555
H48 C36 1_555 1_555
H49 C36 1_555 1_555
H50 C36 1_555 1_555
C5 C6 1_555 1_555
C16 C17 1_555 1_555
C23 C24 1_555 1_555
C30 C31 1_555 1_555
C33 C34 1_555 1_555

#END
