
#######################################################################
#
#                 Cambridge Crystallographic Data Centre
#                                CCDC 
#
#######################################################################
#
# If this CIF has been generated from an entry in the Cambridge 
# Structural Database, then it will include bibliographic, chemical, 
# crystal, experimental, refinement or atomic coordinate data resulting 
# from the CCDC's data processing and validation procedures.
#
#######################################################################

data_GAPNUI
_chemical_name_common            
'Morpholin-4-ium hydrogen L-tartrate monohydrate'
_chemical_formula_moiety         'C4 H10 N1 O1 1+,C4 H5 O6 1-,H2 O1'
_chemical_name_systematic        
'Morpholin-4-ium 3-carboxy-2,3-dihydroxypropanoate monohydrate'
_symmetry_cell_setting           triclinic
_symmetry_space_group_name_H-M   'P -1'
_symmetry_Int_Tables_number      2
_space_group_name_Hall           '-P 1'
loop_
_symmetry_equiv_pos_site_id
_symmetry_equiv_pos_as_xyz
1 x,y,z
2 -x,-y,-z
_cell_length_a                   7.6260(3)
_cell_length_b                   8.2408(3)
_cell_length_c                   10.1674(4)
_cell_angle_alpha                98.4620(10)
_cell_angle_beta                 106.2820(10)
_cell_angle_gamma                104.8070(10)
_cell_volume                     576.252
_exptl_crystal_colour            colorless
_exptl_crystal_description       block
_cell_formula_units_Z            2
loop_
_atom_site_label
_atom_site_type_symbol
_atom_site_fract_x
_atom_site_fract_y
_atom_site_fract_z
O1 O 0.94402(12) 0.37187(11) 0.27498(9)
O2 O 0.97405(10) 0.21983(10) 0.43867(8)
H1 H 1.078(3) 0.201(2) 0.4093(18)
O3 O 0.64815(10) 0.44948(8) 0.32017(7)
H2 H 0.614(2) 0.529(2) 0.3718(16)
O4 O 0.49940(9) 0.07745(8) 0.24744(7)
H3 H 0.435(2) 0.1291(19) 0.1931(16)
O5 O 0.46940(10) 0.30910(9) 0.56376(7)
O6 O 0.24385(10) 0.16066(12) 0.35901(9)
C1 C 0.89145(11) 0.31305(11) 0.36407(9)
C2 C 0.72471(11) 0.34681(10) 0.40548(9)
H4 H 0.7731 0.4103 0.5044
C3 C 0.56984(11) 0.17709(10) 0.38751(8)
H5 H 0.6295 0.1105 0.4483
C4 C 0.41269(11) 0.21858(11) 0.44055(9)
O7 O 0.27079(16) 0.18179(14) 0.03248(8)
N1 N 0.13637(14) 0.33402(11) -0.18924(9)
H6 H 0.009(3) 0.299(2) -0.2159(17)
H7 H 0.171(2) 0.406(2) -0.2372(17)
C5 C 0.18699(19) 0.08025(15) -0.10810(11)
H8 H 0.0503 0.0270 -0.1283
H9 H 0.2445 -0.0110 -0.1189
C6 C 0.21726(18) 0.18979(14) -0.20995(11)
H10 H 0.3536 0.2358 -0.1949
H11 H 0.1544 0.1202 -0.3058
C7 C 0.21262(16) 0.43291(14) -0.04050(12)
H12 H 0.1471 0.5177 -0.0285
H13 H 0.3487 0.4936 -0.0152
C8 C 0.1826(2) 0.31178(19) 0.05380(12)
H14 H 0.2377 0.3759 0.1515
H15 H 0.0460 0.2582 0.0335
O8 O -0.25124(12) 0.25085(11) -0.22673(10)
H16 H -0.305(3) 0.152(3) -0.2239(19)
H17 H -0.323(3) 0.282(2) -0.2912(19)
loop_
_geom_bond_atom_site_label_1
_geom_bond_atom_site_label_2
_geom_bond_site_symmetry_1
_geom_bond_site_symmetry_2
O1 C1 1_555 1_555
O2 H1 1_555 1_555
O3 H2 1_555 1_555
O4 H3 1_555 1_555
O5 C4 1_555 1_555
O6 C4 1_555 1_555
C1 O2 1_555 1_555
C2 O3 1_555 1_555
H4 C2 1_555 1_555
C3 O4 1_555 1_555
H5 C3 1_555 1_555
C4 C3 1_555 1_555
O7 C5 1_555 1_555
N1 H6 1_555 1_555
H7 N1 1_555 1_555
C5 H8 1_555 1_555
H9 C5 1_555 1_555
C6 N1 1_555 1_555
H10 C6 1_555 1_555
H11 C6 1_555 1_555
C7 N1 1_555 1_555
H12 C7 1_555 1_555
H13 C7 1_555 1_555
C8 O7 1_555 1_555
H14 C8 1_555 1_555
H15 C8 1_555 1_555
O8 H16 1_555 1_555
H17 O8 1_555 1_555
C1 C2 1_555 1_555
C2 C3 1_555 1_555
C5 C6 1_555 1_555
C7 C8 1_555 1_555

#END
