
#######################################################################
#
#                 Cambridge Crystallographic Data Centre
#                                CCDC 
#
#######################################################################
#
# If this CIF has been generated from an entry in the Cambridge 
# Structural Database, then it will include bibliographic, chemical, 
# crystal, experimental, refinement or atomic coordinate data resulting 
# from the CCDC's data processing and validation procedures.
#
#######################################################################

data_GAPPOE
_chemical_formula_moiety         'C17 H15 Cl1 N2 O5'
_chemical_name_systematic        
'4-((E)-((3-Chloro-4-methylphenyl)imino)methyl)-2-methoxy-3-nitrophenyl acetate'
_symmetry_cell_setting           triclinic
_symmetry_space_group_name_H-M   'P -1'
_symmetry_Int_Tables_number      2
_space_group_name_Hall           '-P 1'
loop_
_symmetry_equiv_pos_site_id
_symmetry_equiv_pos_as_xyz
1 x,y,z
2 -x,-y,-z
_cell_length_a                   7.035(6)
_cell_length_b                   7.672(6)
_cell_length_c                   17.272(14)
_cell_angle_alpha                83.477(8)
_cell_angle_beta                 84.994(8)
_cell_angle_gamma                66.697(7)
_cell_volume                     849.711
_exptl_crystal_colour            yellow
_exptl_crystal_description       block
_cell_formula_units_Z            2
loop_
_atom_site_label
_atom_site_type_symbol
_atom_site_fract_x
_atom_site_fract_y
_atom_site_fract_z
Cl1 Cl -0.50222(11) 1.23475(11) 0.05852(6)
O1 O -0.3219(3) 0.5157(3) 0.34263(13)
O2 O -0.3928(3) 0.4212(3) 0.23925(14)
O3 O -0.2466(2) 0.0650(2) 0.34480(11)
O4 O 0.1492(2) -0.2520(2) 0.35298(10)
O5 O 0.2885(4) -0.2451(3) 0.46343(13)
N1 N -0.0690(3) 0.6082(3) 0.20244(12)
N2 N -0.2784(3) 0.4109(3) 0.28994(14)
C1 C -0.2521(3) 0.9075(3) 0.13350(15)
H1 H -0.3684 0.8771 0.1395
C2 C -0.2654(4) 1.0797(3) 0.09522(15)
C3 C -0.0985(4) 1.1342(3) 0.08453(14)
C4 C 0.0867(4) 1.0021(4) 0.11302(15)
H2 H 0.2035 1.0317 0.1061
C5 C 0.1053(4) 0.8288(3) 0.15121(15)
H3 H 0.2328 0.7443 0.1692
C6 C -0.0665(3) 0.7799(3) 0.16295(13)
C7 C 0.0954(3) 0.4730(3) 0.22155(15)
H4 H 0.2197 0.4885 0.2100
C8 C 0.1029(3) 0.2917(3) 0.26103(14)
C9 C -0.0705(3) 0.2553(3) 0.29035(13)
C10 C -0.0619(3) 0.0795(3) 0.32370(13)
C11 C 0.1336(3) -0.0677(3) 0.32809(14)
C12 C 0.3094(3) -0.0359(3) 0.30170(15)
H5 H 0.4389 -0.1349 0.3063
C13 C 0.2947(3) 0.1401(3) 0.26888(16)
H6 H 0.4148 0.1587 0.2515
C14 C -0.1131(5) 1.3253(4) 0.04590(17)
H7 H 0.0227 1.3280 0.0397
H8 H -0.2006 1.4239 0.0778
H9 H -0.1706 1.3456 -0.0043
C15 C -0.2664(4) -0.0543(4) 0.41121(17)
H10 H -0.2223 -0.1825 0.3972
H11 H -0.4086 -0.0101 0.4301
H12 H -0.1817 -0.0511 0.4513
C16 C 0.2390(4) -0.3320(4) 0.42227(17)
C17 C 0.2612(5) -0.5342(4) 0.43672(19)
H13 H 0.2924 -0.5781 0.4902
H14 H 0.3714 -0.6114 0.4033
H15 H 0.1340 -0.5434 0.4260
loop_
_geom_bond_atom_site_label_1
_geom_bond_atom_site_label_2
_geom_bond_site_symmetry_1
_geom_bond_site_symmetry_2
Cl1 C2 1_555 1_555
O1 N2 1_555 1_555
O2 N2 1_555 1_555
O3 C10 1_555 1_555
O4 C11 1_555 1_555
O5 C16 1_555 1_555
N1 C6 1_555 1_555
N2 C9 1_555 1_555
C1 H1 1_555 1_555
C2 C1 1_555 1_555
C3 C2 1_555 1_555
C4 C3 1_555 1_555
H2 C4 1_555 1_555
C5 C4 1_555 1_555
H3 C5 1_555 1_555
C6 C1 1_555 1_555
C7 N1 1_555 1_555
H4 C7 1_555 1_555
C8 C7 1_555 1_555
C9 C8 1_555 1_555
C10 C9 1_555 1_555
C11 C10 1_555 1_555
C12 C11 1_555 1_555
H5 C12 1_555 1_555
C13 C8 1_555 1_555
H6 C13 1_555 1_555
C14 C3 1_555 1_555
H7 C14 1_555 1_555
H8 C14 1_555 1_555
H9 C14 1_555 1_555
C15 O3 1_555 1_555
H10 C15 1_555 1_555
H11 C15 1_555 1_555
H12 C15 1_555 1_555
C16 O4 1_555 1_555
C17 C16 1_555 1_555
H13 C17 1_555 1_555
H14 C17 1_555 1_555
H15 C17 1_555 1_555
C5 C6 1_555 1_555
C12 C13 1_555 1_555

#END
