
#######################################################################
#
#                 Cambridge Crystallographic Data Centre
#                                CCDC 
#
#######################################################################
#
# If this CIF has been generated from an entry in the Cambridge 
# Structural Database, then it will include bibliographic, chemical, 
# crystal, experimental, refinement or atomic coordinate data resulting 
# from the CCDC's data processing and validation procedures.
#
#######################################################################

data_GAPQAS
_chemical_formula_moiety         'C26 H18 S2'
_chemical_name_systematic        
2-(2-(10-(2-(2-thienyl)vinyl)-9-anthryl)vinyl)thiophene
_symmetry_cell_setting           monoclinic
_symmetry_space_group_name_H-M   'P 21/c'
_symmetry_Int_Tables_number      14
_space_group_name_Hall           '-P 2ybc'
loop_
_symmetry_equiv_pos_site_id
_symmetry_equiv_pos_as_xyz
1 x,y,z
2 -x,1/2+y,1/2-z
3 -x,-y,-z
4 x,1/2-y,1/2+z
_cell_length_a                   5.641(3)
_cell_length_b                   9.315(7)
_cell_length_c                   19.216(9)
_cell_angle_alpha                90
_cell_angle_beta                 103.97(2)
_cell_angle_gamma                90
_cell_volume                     979.857
_cell_formula_units_Z            2
loop_
_atom_site_label
_atom_site_type_symbol
_atom_site_fract_x
_atom_site_fract_y
_atom_site_fract_z
S1 S 0.60555(11) 0.59757(8) 0.85863(4)
C1 C -0.1377(4) 0.6530(3) 1.07659(12)
H1 H -0.1366 0.5555 1.0871
C2 C -0.0033(4) 0.7025(2) 1.03228(11)
H2 H 0.0881 0.6380 1.0125
C3 C 0.0021(3) 0.8514(2) 1.01500(10)
C4 C 0.1334(3) 0.9025(2) 0.96673(10)
C5 C 0.1362(3) 1.0508(2) 0.95230(9)
C6 C 0.2781(4) 1.1090(2) 0.90717(11)
H3 H 0.3725 1.0475 0.8868
C7 C -0.2797(4) 0.7476(3) 1.10706(12)
H4 H -0.3742 0.7124 1.1368
C8 C 0.2685(4) 0.7999(2) 0.93121(11)
H5 H 0.4094 0.7578 0.9589
C9 C 0.2009(4) 0.7653(2) 0.86311(11)
H6 H 0.0600 0.8096 0.8366
C10 C 0.3203(3) 0.6660(2) 0.82423(10)
C11 C 0.2208(4) 0.6100(3) 0.75501(12)
H7 H 0.0676 0.6333 0.7265
C12 C 0.3883(5) 0.5128(3) 0.73494(14)
H8 H 0.3548 0.4648 0.6912
C13 C 0.5964(5) 0.4971(3) 0.78452(16)
H9 H 0.7231 0.4376 0.7791
S1B S -0.60555(11) 1.40243(8) 1.14137(4)
C1B C 0.1377(4) 1.3470(3) 0.92341(12)
H1B H 0.1366 1.4445 0.9129
C2B C 0.0033(4) 1.2975(2) 0.96772(11)
H2B H -0.0881 1.3620 0.9875
C3B C -0.0021(3) 1.1486(2) 0.98500(10)
C4B C -0.1334(3) 1.0975(2) 1.03327(10)
C5B C -0.1362(3) 0.9492(2) 1.04770(9)
C6B C -0.2781(4) 0.8910(2) 1.09283(11)
H3B H -0.3725 0.9525 1.1132
C7B C 0.2797(4) 1.2524(3) 0.89294(12)
H4B H 0.3742 1.2876 0.8632
C8B C -0.2685(4) 1.2001(2) 1.06879(11)
H5B H -0.4094 1.2422 1.0411
C9B C -0.2009(4) 1.2347(2) 1.13689(11)
H6B H -0.0600 1.1904 1.1634
C10B C -0.3203(3) 1.3340(2) 1.17577(10)
C11B C -0.2208(4) 1.3900(3) 1.24499(12)
H7B H -0.0676 1.3667 1.2735
C12B C -0.3883(5) 1.4872(3) 1.26506(14)
H8B H -0.3548 1.5352 1.3088
C13B C -0.5964(5) 1.5029(3) 1.21548(16)
H9B H -0.7231 1.5624 1.2209
loop_
_geom_bond_atom_site_label_1
_geom_bond_atom_site_label_2
_geom_bond_site_symmetry_1
_geom_bond_site_symmetry_2
S1 C10 1_555 1_555
C1 H1 1_555 1_555
C2 C1 1_555 1_555
H2 C2 1_555 1_555
C3 C2 1_555 1_555
C4 C3 1_555 1_555
C5 C4 1_555 1_555
C6 C5 1_555 1_555
H3 C6 1_555 1_555
C7 C1 1_555 1_555
H4 C7 1_555 1_555
C8 C4 1_555 1_555
H5 C8 1_555 1_555
C9 C8 1_555 1_555
H6 C9 1_555 1_555
C10 C9 1_555 1_555
C11 C10 1_555 1_555
H7 C11 1_555 1_555
C12 C11 1_555 1_555
H8 C12 1_555 1_555
C13 S1 1_555 1_555
H9 C13 1_555 1_555
S1B C10B 1_555 1_555
C1B H1B 1_555 1_555
C2B C1B 1_555 1_555
H2B C2B 1_555 1_555
C3B C5 1_555 1_555
C4B C3B 1_555 1_555
C5B C3 1_555 1_555
C6B C7 1_555 1_555
H3B C6B 1_555 1_555
C7B C6 1_555 1_555
H4B C7B 1_555 1_555
C8B C4B 1_555 1_555
H5B C8B 1_555 1_555
C9B C8B 1_555 1_555
H6B C9B 1_555 1_555
C10B C9B 1_555 1_555
C11B C10B 1_555 1_555
H7B C11B 1_555 1_555
C12B C11B 1_555 1_555
H8B C12B 1_555 1_555
C13B S1B 1_555 1_555
H9B C13B 1_555 1_555
C12 C13 1_555 1_555
C1B C7B 1_555 1_555
C2B C3B 1_555 1_555
C4B C5B 1_555 1_555
C5B C6B 1_555 1_555
C12B C13B 1_555 1_555

#END
