
#######################################################################
#
#                 Cambridge Crystallographic Data Centre
#                                CCDC 
#
#######################################################################
#
# If this CIF has been generated from an entry in the Cambridge 
# Structural Database, then it will include bibliographic, chemical, 
# crystal, experimental, refinement or atomic coordinate data resulting 
# from the CCDC's data processing and validation procedures.
#
#######################################################################

data_GAPSIB
_chemical_formula_moiety         'C11 H11 N3 O2'
_chemical_name_systematic        
'1-Benzyl-5-methyl-1H-1,2,3-triazole-4-carboxylic acid'
_symmetry_cell_setting           trigonal
_symmetry_space_group_name_H-M   'P 31'
_symmetry_Int_Tables_number      144
_space_group_name_Hall           'P 31'
loop_
_symmetry_equiv_pos_site_id
_symmetry_equiv_pos_as_xyz
1 x,y,z
2 -y,x-y,1/3+z
3 -x+y,-x,2/3+z
_cell_length_a                   10.1178(7)
_cell_length_b                   10.1178(7)
_cell_length_c                   8.9971(8)
_cell_angle_alpha                90
_cell_angle_beta                 90
_cell_angle_gamma                120
_cell_volume                     797.637
_exptl_crystal_colour            colorless
_exptl_crystal_description       prism
_cell_formula_units_Z            3
loop_
_atom_site_label
_atom_site_type_symbol
_atom_site_fract_x
_atom_site_fract_y
_atom_site_fract_z
C1 C 0.5374(3) 0.4836(3) -0.0739(3)
C2 C 0.4072(3) 0.4056(3) 0.0273(3)
C3 C 0.2816(3) 0.4222(3) 0.0376(3)
C4 C 0.2356(4) 0.5194(4) -0.0452(4)
H1 H 0.1509 0.4566 -0.1088
H2 H 0.3198 0.5920 -0.1042
H3 H 0.2064 0.5725 0.0239
C5 C 0.0466(3) 0.2884(4) 0.2051(3)
H4 H 0.0400 0.3806 0.2120
H5 H 0.0333 0.2457 0.3042
C6 C -0.0779(3) 0.1758(3) 0.1057(3)
C7 C -0.1626(4) 0.2174(4) 0.0197(4)
H6 H -0.1439 0.3172 0.0231
C8 C -0.2762(4) 0.1118(5) -0.0726(4)
H7 H -0.3333 0.1408 -0.1309
C9 C -0.3039(4) -0.0348(4) -0.0778(4)
H8 H -0.3792 -0.1056 -0.1405
C10 C -0.2215(4) -0.0772(4) 0.0086(4)
H9 H -0.2417 -0.1775 0.0060
C11 C -0.1093(4) 0.0259(4) 0.0992(4)
H10 H -0.0531 -0.0045 0.1573
N1 N 0.3952(3) 0.3015(3) 0.1301(2)
N2 N 0.2667(3) 0.2531(3) 0.2037(2)
N3 N 0.1987(3) 0.3270(3) 0.1477(2)
O1 O 0.6345(2) 0.4335(2) -0.0625(2)
H11 H 0.7135 0.4916 -0.1068
O2 O 0.5511(2) 0.5822(2) -0.1573(2)
loop_
_geom_bond_atom_site_label_1
_geom_bond_atom_site_label_2
_geom_bond_site_symmetry_1
_geom_bond_site_symmetry_2
C1 C2 1_555 1_555
C2 C3 1_555 1_555
C3 C4 1_555 1_555
C4 H1 1_555 1_555
H2 C4 1_555 1_555
H3 C4 1_555 1_555
C5 H4 1_555 1_555
H5 C5 1_555 1_555
C6 C5 1_555 1_555
C7 C6 1_555 1_555
H6 C7 1_555 1_555
C8 C7 1_555 1_555
H7 C8 1_555 1_555
C9 C8 1_555 1_555
H8 C9 1_555 1_555
C10 C9 1_555 1_555
H9 C10 1_555 1_555
C11 C6 1_555 1_555
H10 C11 1_555 1_555
N1 C2 1_555 1_555
N2 N1 1_555 1_555
N3 C3 1_555 1_555
O1 C1 1_555 1_555
H11 O1 1_555 1_555
O2 C1 1_555 1_555
C5 N3 1_555 1_555
C10 C11 1_555 1_555
N2 N3 1_555 1_555

#END
