
#######################################################################
#
#                 Cambridge Crystallographic Data Centre
#                                CCDC 
#
#######################################################################
#
# If this CIF has been generated from an entry in the Cambridge 
# Structural Database, then it will include bibliographic, chemical, 
# crystal, experimental, refinement or atomic coordinate data resulting 
# from the CCDC's data processing and validation procedures.
#
#######################################################################

data_GAPZON
_chemical_formula_moiety         'C23 H28 N4 O4 S2'
_chemical_name_systematic        
"N-t-Butyl-N'-thio(O-(1-methylthioethylimino)-N''-methylcarbamic acid)-N,N'-dibenzoylhydrazine"
_symmetry_cell_setting           monoclinic
_symmetry_space_group_name_H-M   'P 21/n'
_symmetry_Int_Tables_number      14
_space_group_name_Hall           '-P 2yn'
loop_
_symmetry_equiv_pos_site_id
_symmetry_equiv_pos_as_xyz
1 x,y,z
2 1/2-x,1/2+y,1/2-z
3 -x,-y,-z
4 1/2+x,1/2-y,1/2+z
_cell_length_a                   7.569(3)
_cell_length_b                   20.585(7)
_cell_length_c                   16.347(5)
_cell_angle_alpha                90
_cell_angle_beta                 92.606(6)
_cell_angle_gamma                90
_cell_volume                     2544.36
_exptl_crystal_colour            colorless
_chemical_melting_point          '162-164 deg.C'
_cell_formula_units_Z            4
_exptl_crystal_recrystallization_method 'isopropyl alcohol'
loop_
_atom_site_label
_atom_site_type_symbol
_atom_site_fract_x
_atom_site_fract_y
_atom_site_fract_z
S1 S 0.1088(1) 0.1931(1) 0.9892(1)
S2 S 0.0841(1) 0.4741(1) 0.8597(1)
O1 O 0.4328(3) 0.0769(1) 0.8944(1)
O2 O 0.2399(3) 0.3125(1) 1.0669(1)
O3 O 0.1305(2) 0.3754(1) 0.9624(1)
O4 O 0.6978(3) 0.2372(1) 1.0251(1)
N1 N 0.4603(3) 0.1718(1) 1.0044(1)
N2 N 0.3036(3) 0.1626(1) 0.9560(1)
N3 N 0.0945(3) 0.2686(1) 0.9536(1)
N4 N 0.2151(3) 0.4299(1) 1.0030(2)
C1 C 0.0492(4) 0.0502(2) 0.8395(2)
C2 C -0.0780(5) 0.0403(2) 0.7760(3)
C3 C -0.1009(5) 0.0855(2) 0.7154(2)
C4 C -0.0013(5) 0.1397(2) 0.7156(2)
C5 C 0.1239(4) 0.1495(2) 0.7774(2)
C6 C 0.1501(3) 0.1054(1) 0.8396(2)
C7 C 0.3063(4) 0.1120(1) 0.8982(2)
C8 C 0.0021(4) 0.2831(1) 0.8743(2)
C9 C 0.1633(3) 0.3180(1) 1.0018(2)
C10 C 0.1954(4) 0.4792(1) 0.9553(2)
C11 C 0.2765(4) 0.5411(1) 0.9872(2)
C12 C 0.0801(5) 0.5567(2) 0.8246(3)
C13 C 0.4947(4) 0.1319(1) 1.0813(2)
C14 C 0.3533(5) 0.0798(2) 1.0877(2)
C15 C 0.6742(4) 0.0988(2) 1.0757(2)
C16 C 0.4912(5) 0.1767(2) 1.1558(2)
C17 C 0.5717(4) 0.2198(1) 0.9813(2)
C18 C 0.5404(3) 0.2505(2) 0.8985(2)
C19 C 0.5673(4) 0.2164(2) 0.8274(2)
C20 C 0.5550(5) 0.2475(3) 0.7527(2)
C21 C 0.5133(6) 0.3124(3) 0.7488(3)
C22 C 0.4878(5) 0.3468(2) 0.8187(3)
C23 C 0.5046(4) 0.3162(2) 0.8943(2)
H1 H 0.0650 0.0197 0.8811
H2 H -0.1470 0.0030 0.7752
H3 H -0.1862 0.0788 0.6735
H4 H -0.0176 0.1703 0.6740
H5 H 0.1927 0.1870 0.7772
H6 H -0.0836 0.3167 0.8815
H7 H -0.0565 0.2446 0.8538
H8 H 0.0863 0.2972 0.8359
H9 H 0.3247 0.5344 1.0418
H10 H 0.1878 0.5744 0.9875
H11 H 0.3692 0.5542 0.9525
H12 H 0.0148 0.5829 0.8613
H13 H 0.0243 0.5587 0.7707
H14 H 0.1989 0.5728 0.8229
H15 H 0.2398 0.1001 1.0919
H16 H 0.3790 0.0537 1.1354
H17 H 0.3520 0.0528 1.0398
H18 H 0.6738 0.0723 1.0274
H19 H 0.6966 0.0721 1.1231
H20 H 0.7650 0.1312 1.0731
H21 H 0.5861 0.2075 1.1540
H22 H 0.5049 0.1513 1.2049
H23 H 0.3803 0.1994 1.1553
H24 H 0.5939 0.1723 0.8299
H25 H 0.5748 0.2245 0.7050
H26 H 0.5024 0.3331 0.6983
H27 H 0.4591 0.3907 0.8156
H28 H 0.4918 0.3399 0.9421
loop_
_geom_bond_atom_site_label_1
_geom_bond_atom_site_label_2
_geom_bond_site_symmetry_1
_geom_bond_site_symmetry_2
S1 N2 1_555 1_555
S2 C10 1_555 1_555
O1 C7 1_555 1_555
O2 C9 1_555 1_555
O3 N4 1_555 1_555
O4 C17 1_555 1_555
N1 N2 1_555 1_555
N2 C7 1_555 1_555
N3 S1 1_555 1_555
N4 C10 1_555 1_555
C1 C2 1_555 1_555
C2 C3 1_555 1_555
C3 C4 1_555 1_555
C4 C5 1_555 1_555
C5 C6 1_555 1_555
C6 C1 1_555 1_555
C7 C6 1_555 1_555
C8 N3 1_555 1_555
C9 O3 1_555 1_555
C10 C11 1_555 1_555
C11 H9 1_555 1_555
C12 S2 1_555 1_555
C13 N1 1_555 1_555
C14 C13 1_555 1_555
C15 C13 1_555 1_555
C16 C13 1_555 1_555
C17 N1 1_555 1_555
C18 C17 1_555 1_555
C19 C18 1_555 1_555
C20 C19 1_555 1_555
C21 C20 1_555 1_555
C22 C21 1_555 1_555
C23 C18 1_555 1_555
H1 C1 1_555 1_555
H2 C2 1_555 1_555
H3 C3 1_555 1_555
H4 C4 1_555 1_555
H5 C5 1_555 1_555
H6 C8 1_555 1_555
H7 C8 1_555 1_555
H8 C8 1_555 1_555
H10 C11 1_555 1_555
H11 C11 1_555 1_555
H12 C12 1_555 1_555
H13 C12 1_555 1_555
H14 C12 1_555 1_555
H15 C14 1_555 1_555
H16 C14 1_555 1_555
H17 C14 1_555 1_555
H18 C15 1_555 1_555
H19 C15 1_555 1_555
H20 C15 1_555 1_555
H21 C16 1_555 1_555
H22 C16 1_555 1_555
H23 C16 1_555 1_555
H24 C19 1_555 1_555
H25 C20 1_555 1_555
H26 C21 1_555 1_555
H27 C22 1_555 1_555
H28 C23 1_555 1_555
N3 C9 1_555 1_555
C22 C23 1_555 1_555

#END
