
#######################################################################
#
#                 Cambridge Crystallographic Data Centre
#                                CCDC 
#
#######################################################################
#
# If this CIF has been generated from an entry in the Cambridge 
# Structural Database, then it will include bibliographic, chemical, 
# crystal, experimental, refinement or atomic coordinate data resulting 
# from the CCDC's data processing and validation procedures.
#
#######################################################################

data_GAPZED
_chemical_formula_moiety         'C25 H24 N2 O2'
_chemical_name_systematic        
5-(3',4'-Dimethyl-2'-oxo-5'-phenylimidazolidinyl)-2-(naphthyl)-2,5-anti-dihydrofuran
_symmetry_cell_setting           monoclinic
_symmetry_space_group_name_H-M   'P 21'
_symmetry_Int_Tables_number      4
_space_group_name_Hall           'P 2yb'
loop_
_symmetry_equiv_pos_site_id
_symmetry_equiv_pos_as_xyz
1 x,y,z
2 -x,1/2+y,-z
_cell_length_a                   8.2006(16)
_cell_length_b                   5.9900(12)
_cell_length_c                   20.888(4)
_cell_angle_alpha                90
_cell_angle_beta                 100.704(3)
_cell_angle_gamma                90
_cell_volume                     1008.2
_exptl_crystal_colour            colorless
_exptl_crystal_description       needle
_cell_formula_units_Z            2
loop_
_atom_site_label
_atom_site_type_symbol
_atom_site_fract_x
_atom_site_fract_y
_atom_site_fract_z
O1 O 0.7531(4) -0.0831(6) 0.76053(14)
O2 O 0.9292(4) -0.2249(6) 0.62233(16)
N1 N 0.8466(4) 0.0900(6) 0.67152(16)
N2 N 0.7961(4) 0.0723(6) 0.56373(17)
C1 C 0.7187(6) 0.0402(9) 0.8156(2)
H1 H 0.6077 0.1138 0.8041
C2 C 0.8514(7) 0.2123(9) 0.8269(2)
H2 H 0.8637 0.3204 0.8607
C3 C 0.9477(6) 0.1958(9) 0.7849(2)
H3 H 1.0419 0.2874 0.7843
C4 C 0.8910(6) 0.0132(8) 0.7374(2)
H4 H 0.9811 -0.1009 0.7401
C5 C 0.8637(5) -0.0406(8) 0.6192(2)
C6 C 0.7769(5) 0.3086(8) 0.57912(19)
H5 H 0.8837 0.3870 0.5774
C7 C 0.7551(5) 0.2971(8) 0.65164(18)
H6 H 0.8144 0.4257 0.6762
C8 C 0.8348(6) 0.0093(9) 0.5015(2)
H7 H 0.8414 -0.1537 0.4989
H8 H 0.9416 0.0746 0.4969
H9 H 0.7477 0.0643 0.4664
C9 C 0.6401(6) 0.4248(9) 0.5335(2)
H10 H 0.6687 0.4335 0.4901
H11 H 0.6258 0.5759 0.5496
H12 H 0.5365 0.3410 0.5311
C10 C 0.5763(5) 0.2949(8) 0.66093(19)
C11 C 0.5107(6) 0.4878(8) 0.6833(2)
H13 H 0.5808 0.6124 0.6963
C12 C 0.3446(6) 0.4992(10) 0.6869(2)
H14 H 0.3010 0.6328 0.7015
C13 C 0.2421(6) 0.3212(11) 0.6697(2)
H15 H 0.1278 0.3310 0.6722
C14 C 0.3058(6) 0.1257(9) 0.6485(2)
H16 H 0.2354 0.0003 0.6372
C15 C 0.4725(5) 0.1132(9) 0.6440(2)
H17 H 0.5155 -0.0205 0.6292
C16 C 0.7191(6) -0.1237(8) 0.8714(2)
C17 C 0.8649(6) -0.1733(9) 0.9115(2)
H18 H 0.9626 -0.0958 0.9062
C18 C 0.8752(6) -0.3360(9) 0.9607(2)
H19 H 0.9785 -0.3667 0.9883
C19 C 0.7368(6) -0.4485(9) 0.9685(2)
H20 H 0.7440 -0.5587 1.0016
C20 C 0.4376(7) -0.5191(10) 0.9362(3)
H21 H 0.4453 -0.6323 0.9685
C21 C 0.2875(7) -0.4718(12) 0.8990(3)
H22 H 0.1913 -0.5503 0.9055
C22 C 0.2758(7) -0.3075(12) 0.8514(3)
H23 H 0.1706 -0.2738 0.8256
C23 C 0.4124(6) -0.1943(11) 0.8410(2)
H24 H 0.4015 -0.0847 0.8076
C24 C 0.5706(6) -0.2376(9) 0.8794(2)
C25 C 0.5816(6) -0.4044(9) 0.9280(2)
loop_
_geom_bond_atom_site_label_1
_geom_bond_atom_site_label_2
_geom_bond_site_symmetry_1
_geom_bond_site_symmetry_2
O1 C1 1_555 1_555
O2 C5 1_555 1_555
N1 C4 1_555 1_555
N2 C5 1_555 1_555
C1 H1 1_555 1_555
C2 C1 1_555 1_555
H2 C2 1_555 1_555
C3 C2 1_555 1_555
H3 C3 1_555 1_555
C4 O1 1_555 1_555
H4 C4 1_555 1_555
C5 N1 1_555 1_555
C6 N2 1_555 1_555
H5 C6 1_555 1_555
C7 N1 1_555 1_555
H6 C7 1_555 1_555
C8 N2 1_555 1_555
H7 C8 1_555 1_555
H8 C8 1_555 1_555
H9 C8 1_555 1_555
C9 C6 1_555 1_555
H10 C9 1_555 1_555
H11 C9 1_555 1_555
H12 C9 1_555 1_555
C10 C7 1_555 1_555
C11 C10 1_555 1_555
H13 C11 1_555 1_555
C12 C11 1_555 1_555
H14 C12 1_555 1_555
C13 C12 1_555 1_555
H15 C13 1_555 1_555
C14 C13 1_555 1_555
H16 C14 1_555 1_555
C15 C10 1_555 1_555
H17 C15 1_555 1_555
C16 C1 1_555 1_555
C17 C16 1_555 1_555
H18 C17 1_555 1_555
C18 C17 1_555 1_555
H19 C18 1_555 1_555
C19 C18 1_555 1_555
H20 C19 1_555 1_555
C20 H21 1_555 1_555
C21 C20 1_555 1_555
H22 C21 1_555 1_555
C22 C21 1_555 1_555
H23 C22 1_555 1_555
C23 C22 1_555 1_555
H24 C23 1_555 1_555
C24 C16 1_555 1_555
C25 C19 1_555 1_555
C3 C4 1_555 1_555
C6 C7 1_555 1_555
C14 C15 1_555 1_555
C20 C25 1_555 1_555
C23 C24 1_555 1_555
C24 C25 1_555 1_555

#END
