
#######################################################################
#
#                 Cambridge Crystallographic Data Centre
#                                CCDC 
#
#######################################################################
#
# If this CIF has been generated from an entry in the Cambridge 
# Structural Database, then it will include bibliographic, chemical, 
# crystal, experimental, refinement or atomic coordinate data resulting 
# from the CCDC's data processing and validation procedures.
#
#######################################################################

data_GAPZUU
_chemical_formula_moiety         'C29 H22 Br2 O3'
_chemical_name_systematic        
'1,3-bis(biphenyl-4-yl)-2,2-dibromo-3-oxopropyl acetate'
_symmetry_cell_setting           monoclinic
_symmetry_space_group_name_H-M   'P 21/c'
_symmetry_Int_Tables_number      14
_space_group_name_Hall           '-P 2ybc'
loop_
_symmetry_equiv_pos_site_id
_symmetry_equiv_pos_as_xyz
1 x,y,z
2 -x,1/2+y,1/2-z
3 -x,-y,-z
4 x,1/2-y,1/2+z
_cell_length_a                   12.0497(14)
_cell_length_b                   20.842(2)
_cell_length_c                   9.9482(10)
_cell_angle_alpha                90
_cell_angle_beta                 98.743(10)
_cell_angle_gamma                90
_cell_volume                     2469.36
_exptl_crystal_colour            colorless
_exptl_crystal_description       block
_chemical_melting_point          '445 K'
_cell_formula_units_Z            4
_exptl_crystal_recrystallization_method acetone
loop_
_atom_site_label
_atom_site_type_symbol
_atom_site_fract_x
_atom_site_fract_y
_atom_site_fract_z
Br1 Br 0.44982(4) 0.34440(2) 0.13153(5)
Br2 Br 0.42924(4) 0.46937(2) 0.31413(5)
O1 O 0.1796(3) 0.28133(16) 0.4651(3)
O2 O 0.3020(2) 0.28697(12) 0.3156(3)
O3 O 0.1617(2) 0.39172(18) 0.2153(3)
C1 C 0.1816(5) 0.1984(2) 0.2981(5)
H1 H 0.1179 0.1800 0.3354
H2 H 0.2442 0.1679 0.3100
H3 H 0.1592 0.2073 0.2010
C2 C 0.2174(4) 0.2594(2) 0.3710(5)
C3 C 0.3430(3) 0.34764(17) 0.3725(4)
H4 H 0.2813 0.3675 0.4151
C4 C 0.3582(3) 0.38888(19) 0.2475(4)
C5 C 0.2436(3) 0.4071(2) 0.1659(4)
C6 C 0.2285(3) 0.44157(18) 0.0336(4)
C7 C 0.3135(3) 0.46850(19) -0.0303(4)
H5 H 0.3894 0.4656 0.0125
C8 C 0.2891(3) 0.4989(2) -0.1532(4)
H6 H 0.3484 0.5168 -0.1939
C9 C 0.1792(3) 0.50414(19) -0.2200(4)
C10 C 0.0950(3) 0.47780(18) -0.1548(4)
H7 H 0.0189 0.4809 -0.1969
C11 C 0.1194(3) 0.44754(19) -0.0316(4)
H8 H 0.0599 0.4303 0.0099
C12 C 0.1512(3) 0.53706(17) -0.3519(4)
C13 C 0.2239(4) 0.5370(2) -0.4479(5)
H9 H 0.2932 0.5147 -0.4287
C14 C 0.1977(4) 0.5685(2) -0.5701(5)
H10 H 0.2495 0.5680 -0.6332
C15 C 0.0983(4) 0.6004(2) -0.6020(5)
H11 H 0.0810 0.6224 -0.6862
C16 C 0.0235(4) 0.6000(2) -0.5100(5)
H12 H -0.0467 0.6213 -0.5318
C17 C 0.0496(4) 0.5689(2) -0.3860(5)
H13 H -0.0027 0.5694 -0.3236
C18 C 0.4403(3) 0.33835(17) 0.4820(4)
C19 C 0.5332(3) 0.30086(19) 0.4645(4)
H14 H 0.5355 0.2805 0.3795
C20 C 0.6214(3) 0.29298(19) 0.5683(4)
H15 H 0.6844 0.2683 0.5526
C21 C 0.6208(3) 0.32024(17) 0.6958(4)
C22 C 0.5258(3) 0.35519(19) 0.7145(4)
H16 H 0.5208 0.3729 0.8014
C23 C 0.4388(3) 0.36451(19) 0.6088(4)
H17 H 0.3762 0.3897 0.6240
C24 C 0.7180(3) 0.31323(18) 0.8042(4)
C25 C 0.7914(4) 0.2617(2) 0.8065(5)
H18 H 0.7759 0.2287 0.7405
C26 C 0.8855(4) 0.2576(2) 0.9022(5)
H19 H 0.9348 0.2222 0.9007
C27 C 0.9099(4) 0.3037(3) 0.9998(5)
H20 H 0.9757 0.3007 1.0656
C28 C 0.8380(4) 0.3540(2) 1.0011(5)
H21 H 0.8529 0.3857 1.0701
C29 C 0.7442(4) 0.3597(2) 0.9043(5)
H22 H 0.6965 0.3959 0.9057
loop_
_geom_bond_atom_site_label_1
_geom_bond_atom_site_label_2
_geom_bond_site_symmetry_1
_geom_bond_site_symmetry_2
Br1 C4 1_555 1_555
Br2 C4 1_555 1_555
O1 C2 1_555 1_555
O2 C2 1_555 1_555
O3 C5 1_555 1_555
C1 H1 1_555 1_555
H2 C1 1_555 1_555
H3 C1 1_555 1_555
C2 C1 1_555 1_555
C3 O2 1_555 1_555
H4 C3 1_555 1_555
C4 C3 1_555 1_555
C5 C4 1_555 1_555
C6 C5 1_555 1_555
C7 C6 1_555 1_555
H5 C7 1_555 1_555
C8 C7 1_555 1_555
H6 C8 1_555 1_555
C9 C8 1_555 1_555
C10 C9 1_555 1_555
H7 C10 1_555 1_555
C11 C6 1_555 1_555
H8 C11 1_555 1_555
C12 C9 1_555 1_555
C13 C12 1_555 1_555
H9 C13 1_555 1_555
C14 C13 1_555 1_555
H10 C14 1_555 1_555
C15 C14 1_555 1_555
H11 C15 1_555 1_555
C16 C15 1_555 1_555
H12 C16 1_555 1_555
C17 C12 1_555 1_555
H13 C17 1_555 1_555
C18 C3 1_555 1_555
C19 C18 1_555 1_555
H14 C19 1_555 1_555
C20 C19 1_555 1_555
H15 C20 1_555 1_555
C21 C20 1_555 1_555
C22 C21 1_555 1_555
H16 C22 1_555 1_555
C23 C18 1_555 1_555
H17 C23 1_555 1_555
C24 C21 1_555 1_555
C25 C24 1_555 1_555
H18 C25 1_555 1_555
C26 C25 1_555 1_555
H19 C26 1_555 1_555
C27 C26 1_555 1_555
H20 C27 1_555 1_555
C28 C27 1_555 1_555
H21 C28 1_555 1_555
C29 C24 1_555 1_555
H22 C29 1_555 1_555
C10 C11 1_555 1_555
C16 C17 1_555 1_555
C22 C23 1_555 1_555
C28 C29 1_555 1_555

#END
