
#######################################################################
#
#                 Cambridge Crystallographic Data Centre
#                                CCDC 
#
#######################################################################
#
# If this CIF has been generated from an entry in the Cambridge 
# Structural Database, then it will include bibliographic, chemical, 
# crystal, experimental, refinement or atomic coordinate data resulting 
# from the CCDC's data processing and validation procedures.
#
#######################################################################

data_GAQBOS
_chemical_formula_moiety         'C8 Cl2 N10 O13'
_chemical_name_systematic        
3,3'-(1,2,5-oxadiazole-3,4-diylbis(oxy))bis(4-(chloro(dinitro)methyl)-1,2,5-oxadiazole)
_symmetry_cell_setting           monoclinic
_symmetry_space_group_name_H-M   'P 21/c'
_symmetry_Int_Tables_number      14
_space_group_name_Hall           '-P 2ybc'
loop_
_symmetry_equiv_pos_site_id
_symmetry_equiv_pos_as_xyz
1 x,y,z
2 -x,1/2+y,1/2-z
3 -x,-y,-z
4 x,1/2-y,1/2+z
_cell_length_a                   15.345(4)
_cell_length_b                   6.3034(15)
_cell_length_c                   19.677(5)
_cell_angle_alpha                90
_cell_angle_beta                 110.297(4)
_cell_angle_gamma                90
_cell_volume                     1785.09
_cell_formula_units_Z            4
loop_
_atom_site_label
_atom_site_type_symbol
_atom_site_fract_x
_atom_site_fract_y
_atom_site_fract_z
Cl1 Cl 0.02470(6) 0.51764(12) 0.09617(5)
Cl2 Cl 0.36843(12) 0.3920(2) -0.02067(7)
N1 N -0.05376(18) 0.1284(4) 0.07648(14)
N2 N -0.04716(17) 0.3259(4) 0.18441(14)
N3 N 0.11641(17) -0.0139(4) 0.15920(14)
N4 N 0.24098(17) 0.1174(4) 0.25021(15)
N5 N 0.2866(2) 0.5871(6) 0.36467(17)
N6 N 0.40660(19) 0.6600(5) 0.32685(17)
N7 N 0.47969(19) 0.6841(5) 0.22080(18)
N8 N 0.4886(2) 0.5816(5) 0.1128(2)
N9 N 0.3581(2) 0.1375(5) 0.08488(18)
N10 N 0.2475(2) 0.4293(7) 0.04565(19)
O1 O -0.0579(2) 0.1522(5) 0.01572(13)
O2 O -0.0893(2) -0.0075(4) 0.10088(17)
O3 O -0.01401(17) 0.2630(4) 0.24550(13)
O4 O -0.11922(17) 0.4195(5) 0.15804(16)
O5 O 0.20505(15) -0.0540(3) 0.20528(13)
O6 O 0.18031(13) 0.4509(3) 0.26032(12)
O7 O 0.37386(18) 0.6710(5) 0.38346(14)
O8 O 0.33748(14) 0.5230(4) 0.20842(12)
O9 O 0.53076(17) 0.6897(4) 0.17460(19)
O10 O 0.3797(3) 0.0089(5) 0.0498(2)
O11 O 0.3483(3) 0.1103(5) 0.13999(17)
O12 O 0.1933(2) 0.2841(8) 0.0315(3)
O13 O 0.2332(2) 0.6096(6) 0.0551(2)
C1 C 0.00828(18) 0.2832(4) 0.13397(14)
C2 C 0.09807(17) 0.1765(4) 0.17454(14)
C3 C 0.17610(18) 0.2554(5) 0.23086(15)
C4 C 0.2666(2) 0.5260(5) 0.29923(17)
C5 C 0.34052(19) 0.5715(5) 0.27529(17)
C6 C 0.40866(19) 0.5720(5) 0.18499(18)
C7 C 0.4125(2) 0.5055(4) 0.11794(19)
C8 C 0.3495(2) 0.3721(5) 0.05914(17)
loop_
_geom_bond_atom_site_label_1
_geom_bond_atom_site_label_2
_geom_bond_site_symmetry_1
_geom_bond_site_symmetry_2
Cl1 C1 1_555 1_555
Cl2 C8 1_555 1_555
N1 O1 1_555 1_555
N2 O3 1_555 1_555
N3 O5 1_555 1_555
N4 O5 1_555 1_555
N5 O7 1_555 1_555
N6 O7 1_555 1_555
N7 O9 1_555 1_555
N8 O9 1_555 1_555
N9 O10 1_555 1_555
N10 O12 1_555 1_555
O2 N1 1_555 1_555
O4 N2 1_555 1_555
O6 C3 1_555 1_555
O8 C5 1_555 1_555
O11 N9 1_555 1_555
O13 N10 1_555 1_555
C1 N1 1_555 1_555
C2 N3 1_555 1_555
C3 N4 1_555 1_555
C4 N5 1_555 1_555
C5 N6 1_555 1_555
C6 N7 1_555 1_555
C7 N8 1_555 1_555
C8 N9 1_555 1_555
N2 C1 1_555 1_555
N10 C8 1_555 1_555
O6 C4 1_555 1_555
O8 C6 1_555 1_555
C1 C2 1_555 1_555
C2 C3 1_555 1_555
C4 C5 1_555 1_555
C6 C7 1_555 1_555
C7 C8 1_555 1_555

#END
