
#######################################################################
#
#                 Cambridge Crystallographic Data Centre
#                                CCDC 
#
#######################################################################
#
# If this CIF has been generated from an entry in the Cambridge 
# Structural Database, then it will include bibliographic, chemical, 
# crystal, experimental, refinement or atomic coordinate data resulting 
# from the CCDC's data processing and validation procedures.
#
#######################################################################

data_GAQGAI
_chemical_formula_moiety         '2(C17 H24 N1 O1 1+),B1 F4 1-,F1 1-,H2 O1'
_chemical_name_systematic        
'bis[N-(2-hydroxybenzyl)adamantan-1-aminium] fluoride tetrafluoroborate monohydrate'
_symmetry_cell_setting           triclinic
_symmetry_space_group_name_H-M   'P -1'
_symmetry_Int_Tables_number      2
_space_group_name_Hall           '-P 1'
loop_
_symmetry_equiv_pos_site_id
_symmetry_equiv_pos_as_xyz
1 x,y,z
2 -x,-y,-z
_cell_length_a                   9.4546(19)
_cell_length_b                   12.532(3)
_cell_length_c                   15.394(3)
_cell_angle_alpha                104.28(3)
_cell_angle_beta                 103.20(3)
_cell_angle_gamma                94.54(3)
_cell_volume                     1703.07
_exptl_crystal_colour            colorless
_exptl_crystal_description       block
_cell_formula_units_Z            2
loop_
_atom_site_label
_atom_site_type_symbol
_atom_site_fract_x
_atom_site_fract_y
_atom_site_fract_z
O1 O 0.2166(3) 1.1728(2) 0.47603(16)
H1 H 0.3013 1.1960 0.5069
N1 N 0.0613(2) 1.02915(18) 0.30531(17)
H2 H 0.1500 1.0481 0.3463
H3 H 0.0719 1.0434 0.2525
C1 C 0.0278(4) 1.2233(3) 0.3748(2)
C2 C -0.0385(4) 1.3028(3) 0.3406(3)
H4 H -0.1256 1.2820 0.2940
C3 C 0.0221(6) 1.4134(4) 0.3743(4)
H5 H -0.0252 1.4669 0.3515
C4 C 0.1489(7) 1.4435(4) 0.4398(4)
H6 H 0.1894 1.5182 0.4617
C5 C 0.2210(5) 1.3663(4) 0.4756(3)
H7 H 0.3099 1.3878 0.5206
C6 C 0.1572(4) 1.2556(3) 0.4427(3)
C7 C -0.0398(4) 1.1038(3) 0.3424(3)
H8 H -0.1296 1.0952 0.2942
H9 H -0.0653 1.0817 0.3936
C8 C 0.0186(3) 0.9063(2) 0.2855(2)
C9 C 0.1294(4) 0.8504(3) 0.2392(3)
H10 H 0.2274 0.8747 0.2800
H11 H 0.1273 0.8713 0.1823
C10 C -0.1343(3) 0.8703(3) 0.2206(2)
H12 H -0.1380 0.8915 0.1637
H13 H -0.2056 0.9060 0.2496
C11 C 0.0925(4) 0.7243(3) 0.2173(3)
H14 H 0.1639 0.6881 0.1875
C12 C -0.0605(5) 0.6881(3) 0.1526(3)
H15 H -0.0637 0.7090 0.0957
H16 H -0.0848 0.6079 0.1371
C13 C -0.1698(4) 0.7428(3) 0.1991(3)
H17 H -0.2685 0.7181 0.1575
C14 C 0.0981(4) 0.6935(3) 0.3076(3)
H18 H 0.0764 0.6134 0.2950
H19 H 0.1960 0.7174 0.3487
C15 C -0.1649(4) 0.7114(3) 0.2891(3)
H20 H -0.1909 0.6316 0.2759
H21 H -0.2353 0.7475 0.3188
C16 C -0.0107(4) 0.7479(3) 0.3536(3)
H22 H -0.0072 0.7268 0.4112
C17 C 0.0250(4) 0.8748(3) 0.3757(2)
H23 H -0.0454 0.9102 0.4059
H24 H 0.1222 0.8999 0.4174
O2 O 0.1598(2) -0.01917(18) -0.04354(16)
H25 H 0.0796 -0.0455 -0.0799
N2 N 0.3591(3) 0.12722(18) 0.15517(16)
H26 H 0.3973 0.1208 0.2125
H27 H 0.2626 0.1027 0.1428
C18 C 0.3497(3) -0.0654(2) 0.0606(2)
C19 C 0.2181(4) -0.0990(2) -0.0076(2)
C20 C 0.1529(4) -0.2079(3) -0.0355(2)
H28 H 0.0652 -0.2300 -0.0816
C21 C 0.2177(5) -0.2837(3) 0.0049(3)
H29 H 0.1726 -0.3573 -0.0135
C22 C 0.3476(5) -0.2532(3) 0.0719(3)
H30 H 0.3912 -0.3054 0.0986
C23 C 0.4205(3) 0.0525(2) 0.0859(2)
H31 H 0.4063 0.0782 0.0304
H32 H 0.5252 0.0565 0.1112
C24 C 0.3909(3) 0.2505(2) 0.1669(2)
C25 C 0.4134(4) -0.1434(3) 0.0993(2)
H33 H 0.5019 -0.1221 0.1447
C26 C 0.5540(4) 0.2863(3) 0.1827(3)
H34 H 0.5866 0.2486 0.1293
H35 H 0.6087 0.2668 0.2366
C27 C 0.5349(6) 0.4692(3) 0.2807(3)
H36 H 0.5549 0.5491 0.2911
H37 H 0.5902 0.4504 0.3349
C28 C 0.5812(4) 0.4116(3) 0.1977(3)
H38 H 0.6863 0.4351 0.2073
C29 C 0.4980(5) 0.4424(3) 0.1150(3)
H39 H 0.5307 0.4069 0.0610
H40 H 0.5165 0.5223 0.1250
C30 C 0.2869(6) 0.4637(3) 0.1814(5)
H41 H 0.1828 0.4406 0.1716
H42 H 0.3028 0.5436 0.1906
C31 C 0.3359(5) 0.4061(3) 0.0979(3)
H43 H 0.2821 0.4262 0.0432
C32 C 0.3073(4) 0.2796(3) 0.0817(3)
H44 H 0.2031 0.2554 0.0702
H45 H 0.3393 0.2423 0.0280
C33 C 0.3429(5) 0.3085(3) 0.2515(3)
H46 H 0.3965 0.2885 0.3055
H47 H 0.2389 0.2856 0.2425
C34 C 0.3730(7) 0.4347(3) 0.2667(4)
H48 H 0.3422 0.4732 0.3214
F1 F 0.6340(4) 0.1272(5) 0.4430(3)
F2 F 0.5834(7) -0.0399(5) 0.3596(4)
F3 F 0.4169(3) 0.0710(3) 0.3459(2)
F4 F 0.6105(3) 0.0848(3) 0.2942(2)
B1 B 0.5602(7) 0.0654(7) 0.3648(5)
O3 O 0.4910(3) 0.2203(3) 0.5815(2)
H49 H 0.5421 0.1997 0.5458
H50 H 0.4798 0.1802 0.6150
F5 F 0.08538(18) 0.08174(14) 0.15565(12)
loop_
_geom_bond_atom_site_label_1
_geom_bond_atom_site_label_2
_geom_bond_site_symmetry_1
_geom_bond_site_symmetry_2
O1 H1 1_555 1_555
N1 H2 1_555 1_555
H3 N1 1_555 1_555
C1 C2 1_555 1_555
C2 H4 1_555 1_555
C3 C2 1_555 1_555
H5 C3 1_555 1_555
C4 C3 1_555 1_555
H6 C4 1_555 1_555
C5 C4 1_555 1_555
H7 C5 1_555 1_555
C6 O1 1_555 1_555
C7 N1 1_555 1_555
H8 C7 1_555 1_555
H9 C7 1_555 1_555
C8 N1 1_555 1_555
C9 C8 1_555 1_555
H10 C9 1_555 1_555
H11 C9 1_555 1_555
C10 C8 1_555 1_555
H12 C10 1_555 1_555
H13 C10 1_555 1_555
C11 C9 1_555 1_555
H14 C11 1_555 1_555
C12 C11 1_555 1_555
H15 C12 1_555 1_555
H16 C12 1_555 1_555
C13 C10 1_555 1_555
H17 C13 1_555 1_555
C14 C11 1_555 1_555
H18 C14 1_555 1_555
H19 C14 1_555 1_555
C15 C13 1_555 1_555
H20 C15 1_555 1_555
H21 C15 1_555 1_555
C16 C14 1_555 1_555
H22 C16 1_555 1_555
C17 C8 1_555 1_555
H23 C17 1_555 1_555
H24 C17 1_555 1_555
O2 H25 1_555 1_555
N2 H26 1_555 1_555
H27 N2 1_555 1_555
C18 C19 1_555 1_555
C19 O2 1_555 1_555
C20 C19 1_555 1_555
H28 C20 1_555 1_555
C21 C20 1_555 1_555
H29 C21 1_555 1_555
C22 C21 1_555 1_555
H30 C22 1_555 1_555
C23 N2 1_555 1_555
H31 C23 1_555 1_555
H32 C23 1_555 1_555
C24 N2 1_555 1_555
C25 C18 1_555 1_555
H33 C25 1_555 1_555
C26 C24 1_555 1_555
H34 C26 1_555 1_555
H35 C26 1_555 1_555
C27 H36 1_555 1_555
H37 C27 1_555 1_555
C28 C26 1_555 1_555
H38 C28 1_555 1_555
C29 C28 1_555 1_555
H39 C29 1_555 1_555
H40 C29 1_555 1_555
C30 H41 1_555 1_555
H42 C30 1_555 1_555
C31 C29 1_555 1_555
H43 C31 1_555 1_555
C32 C24 1_555 1_555
H44 C32 1_555 1_555
H45 C32 1_555 1_555
C33 C24 1_555 1_555
H46 C33 1_555 1_555
H47 C33 1_555 1_555
C34 C27 1_555 1_555
H48 C34 1_555 1_555
F1 B1 1_555 1_555
F2 B1 1_555 1_555
F3 B1 1_555 1_555
F4 B1 1_555 1_555
O3 H49 1_555 1_555
H50 O3 1_555 1_555
C1 C6 1_555 1_555
C1 C7 1_555 1_555
C5 C6 1_555 1_555
C12 C13 1_555 1_555
C15 C16 1_555 1_555
C16 C17 1_555 1_555
C18 C23 1_555 1_555
C22 C25 1_555 1_555
C27 C28 1_555 1_555
C30 C31 1_555 1_555
C30 C34 1_555 1_555
C31 C32 1_555 1_555
C33 C34 1_555 1_555

#END
