
#######################################################################
#
#                 Cambridge Crystallographic Data Centre
#                                CCDC 
#
#######################################################################
#
# If this CIF has been generated from an entry in the Cambridge 
# Structural Database, then it will include bibliographic, chemical, 
# crystal, experimental, refinement or atomic coordinate data resulting 
# from the CCDC's data processing and validation procedures.
#
#######################################################################

data_GAQGEM
_chemical_formula_moiety         'C14 H7 F1 N2 O1 S1'
_chemical_name_systematic        
3-Fluoro-12H-benzimidazo[2,1-b][1,3]benzothiazin-12-one
_symmetry_cell_setting           monoclinic
_symmetry_space_group_name_H-M   'P 21/c'
_symmetry_Int_Tables_number      14
_space_group_name_Hall           '-P 2ybc'
loop_
_symmetry_equiv_pos_site_id
_symmetry_equiv_pos_as_xyz
1 x,y,z
2 -x,1/2+y,1/2-z
3 -x,-y,-z
4 x,1/2-y,1/2+z
_cell_length_a                   9.5027(12)
_cell_length_b                   7.0759(9)
_cell_length_c                   16.931(2)
_cell_angle_alpha                90
_cell_angle_beta                 94.375(3)
_cell_angle_gamma                90
_cell_volume                     1135.13
_exptl_crystal_colour            colorless
_exptl_crystal_description       block
_cell_formula_units_Z            4
loop_
_atom_site_label
_atom_site_type_symbol
_atom_site_fract_x
_atom_site_fract_y
_atom_site_fract_z
S1 S -0.14487(5) 0.16939(8) 0.36622(3)
F1 F -0.43167(13) 0.1082(2) 0.59933(8)
O1 O 0.19345(15) 0.3338(2) 0.54945(8)
N1 N 0.08266(18) 0.2319(2) 0.28889(9)
N2 N 0.12490(15) 0.2778(2) 0.42060(8)
C1 C 0.4856(2) 0.4053(3) 0.36667(13)
H1 H 0.5742 0.4478 0.3860
C2 C 0.3838(2) 0.3749(3) 0.41907(12)
H2 H 0.4024 0.3929 0.4733
C3 C 0.2520(2) 0.3161(2) 0.38695(11)
C4 C 0.2239(2) 0.2870(3) 0.30570(11)
C5 C 0.3284(2) 0.3134(3) 0.25403(12)
H3 H 0.3112 0.2914 0.2000
C6 C 0.4596(2) 0.3741(3) 0.28586(13)
H4 H 0.5314 0.3942 0.2525
C7 C 0.0288(2) 0.2291(2) 0.35679(10)
C8 C 0.0987(2) 0.2875(2) 0.50112(10)
C9 C -0.04393(18) 0.2395(2) 0.52280(10)
C10 C -0.1557(2) 0.1855(2) 0.46872(11)
C11 C -0.2867(2) 0.1387(3) 0.49526(12)
H5 H -0.3609 0.0999 0.4599
C12 C -0.3033(2) 0.1512(3) 0.57463(12)
C13 C -0.1972(2) 0.2037(3) 0.62965(12)
H6 H -0.2121 0.2090 0.6833
C14 C -0.0687(2) 0.2480(3) 0.60323(11)
H7 H 0.0043 0.2848 0.6397
loop_
_geom_bond_atom_site_label_1
_geom_bond_atom_site_label_2
_geom_bond_site_symmetry_1
_geom_bond_site_symmetry_2
S1 C7 1_555 1_555
F1 C12 1_555 1_555
O1 C8 1_555 1_555
N1 C4 1_555 1_555
N2 C3 1_555 1_555
C1 H1 1_555 1_555
C2 C1 1_555 1_555
H2 C2 1_555 1_555
C3 C2 1_555 1_555
C4 C3 1_555 1_555
C5 C4 1_555 1_555
H3 C5 1_555 1_555
C6 C1 1_555 1_555
H4 C6 1_555 1_555
C7 N1 1_555 1_555
C8 N2 1_555 1_555
C9 C8 1_555 1_555
C10 S1 1_555 1_555
C11 C10 1_555 1_555
H5 C11 1_555 1_555
C12 C11 1_555 1_555
C13 C12 1_555 1_555
H6 C13 1_555 1_555
C14 C9 1_555 1_555
H7 C14 1_555 1_555
N2 C7 1_555 1_555
C5 C6 1_555 1_555
C9 C10 1_555 1_555
C13 C14 1_555 1_555

#END
