
#######################################################################
#
#                 Cambridge Crystallographic Data Centre
#                                CCDC 
#
#######################################################################
#
# If this CIF has been generated from an entry in the Cambridge 
# Structural Database, then it will include bibliographic, chemical, 
# crystal, experimental, refinement or atomic coordinate data resulting 
# from the CCDC's data processing and validation procedures.
#
#######################################################################

data_GAQJOZ
_chemical_formula_moiety         'C24 H22 N2 O4,H2 O1'
_chemical_name_systematic        
'(4R,7S)-2-Amino-4-(3,4-dimethoxyphenyl)-5-oxo-7-phenyl-5,6,7,8-tetrahydro-4H-chromene-3-carbonitrile monohydrate'
_symmetry_cell_setting           monoclinic
_symmetry_space_group_name_H-M   'C 2/c'
_symmetry_Int_Tables_number      15
_space_group_name_Hall           '-C 2yn'
loop_
_symmetry_equiv_pos_site_id
_symmetry_equiv_pos_as_xyz
1 x,y,z
2 -x,y,1/2-z
3 1/2+x,1/2+y,z
4 1/2-x,1/2+y,1/2-z
5 -x,-y,-z
6 x,-y,1/2+z
7 1/2-x,1/2-y,-z
8 1/2+x,1/2-y,1/2+z
_cell_length_a                   29.008(16)
_cell_length_b                   16.146(8)
_cell_length_c                   12.068(6)
_cell_angle_alpha                90
_cell_angle_beta                 110.486(9)
_cell_angle_gamma                90
_cell_volume                     5294.75
_exptl_crystal_colour            colorless
_exptl_crystal_description       block
_cell_formula_units_Z            8
loop_
_atom_site_label
_atom_site_type_symbol
_atom_site_fract_x
_atom_site_fract_y
_atom_site_fract_z
C1 C 0.21676(7) 0.42190(12) 0.10641(17)
C2 C 0.23258(7) 0.43944(11) 0.01610(16)
C3 C 0.23849(7) 0.52781(11) -0.02193(17)
H1 H 0.2253 0.5299 -0.1086
C4 C 0.20768(7) 0.58404(12) 0.02376(16)
C5 C 0.19297(7) 0.66544(12) -0.03195(18)
C6 C 0.16490(8) 0.72255(13) 0.01636(17)
H2 H 0.1315 0.7258 -0.0399
H3 H 0.1793 0.7773 0.0216
C7 C 0.16233(7) 0.70135(12) 0.13490(18)
H4 H 0.1946 0.7191 0.1892
C8 C 0.16176(8) 0.61261(13) 0.16256(19)
H5 H 0.1280 0.5929 0.1333
H6 H 0.1744 0.6055 0.2478
C9 C 0.19168(7) 0.56133(12) 0.10981(16)
C10 C 0.29243(7) 0.55177(11) 0.01855(18)
C11 C 0.31728(7) 0.57684(13) 0.13438(17)
H7 H 0.3000 0.5865 0.1850
C12 C 0.36802(8) 0.58754(13) 0.17454(19)
C13 C 0.39391(8) 0.57317(13) 0.0989(2)
C14 C 0.36906(8) 0.54809(14) -0.0170(2)
H8 H 0.3864 0.5385 -0.0676
C15 C 0.31832(8) 0.53739(13) -0.05712(19)
H9 H 0.3017 0.5206 -0.1346
C16 C 0.37141(7) 0.65844(12) 0.35114(17)
H10 H 0.3953 0.6784 0.4234
H11 H 0.3489 0.6218 0.3691
H12 H 0.3536 0.7044 0.3056
C17 C 0.47282(7) 0.55420(13) 0.08253(18)
H13 H 0.5070 0.5570 0.1308
H14 H 0.4667 0.5891 0.0145
H15 H 0.4643 0.4981 0.0574
C18 C 0.12798(8) 0.75372(13) 0.17207(18)
C19 C 0.15023(8) 0.80989(13) 0.26227(18)
H16 H 0.1843 0.8140 0.2934
C20 C 0.12148(7) 0.85989(12) 0.30591(19)
H17 H 0.1364 0.8975 0.3663
C21 C 0.07048(7) 0.85373(12) 0.25936(17)
H18 H 0.0512 0.8872 0.2886
C22 C 0.04824(8) 0.79756(12) 0.16916(18)
H19 H 0.0141 0.7934 0.1380
C23 C 0.07698(7) 0.74756(12) 0.12551(18)
H20 H 0.0621 0.7100 0.0652
C24 C 0.24929(7) 0.37408(12) -0.03676(18)
N1 N 0.21337(6) 0.34897(10) 0.15312(15)
H21 H 0.2221 0.3049 0.1256
H22 H 0.2025 0.3455 0.2108
N2 N 0.26326(6) 0.32244(10) -0.08241(14)
O1 O 0.20008(5) 0.48364(8) 0.16179(11)
O2 O 0.20311(5) 0.68522(9) -0.11773(12)
O3 O 0.39552(5) 0.61541(9) 0.28562(13)
O4 O 0.44392(5) 0.58132(9) 0.14876(12)
O5 O 1.0000 0.7117(3) 0.7500
H24 H 0.9771 0.7439 0.7095
H24A H 1.0229 0.7439 0.7905
O6 O 0.0778(2) 0.4029(3) 0.9183(5)
H25 H 0.0654 0.3666 0.8652
H26 H 0.1088 0.4040 0.9360
O7 O 0.0547(2) 0.5322(3) 0.9458(5)
H27 H 0.0710 0.5671 0.9215
H28 H 0.0242 0.5384 0.9073
O8 O 0.0707(2) 0.4226(4) 0.1806(5)
H29 H 0.0635 0.3823 0.1323
H30 H 0.0502 0.4617 0.1534
H23? H 1.0148 0.6920 0.7062
loop_
_geom_bond_atom_site_label_1
_geom_bond_atom_site_label_2
_geom_bond_site_symmetry_1
_geom_bond_site_symmetry_2
C1 C2 1_555 1_555
C2 C3 1_555 1_555
C3 H1 1_555 1_555
C4 C3 1_555 1_555
C5 C4 1_555 1_555
C6 C5 1_555 1_555
H2 C6 1_555 1_555
H3 C6 1_555 1_555
C7 C6 1_555 1_555
H4 C7 1_555 1_555
C8 C7 1_555 1_555
H5 C8 1_555 1_555
H6 C8 1_555 1_555
C9 C4 1_555 1_555
C10 C3 1_555 1_555
C11 C10 1_555 1_555
H7 C11 1_555 1_555
C12 C11 1_555 1_555
C13 C12 1_555 1_555
C14 C13 1_555 1_555
H8 C14 1_555 1_555
C15 C10 1_555 1_555
H9 C15 1_555 1_555
C16 H10 1_555 1_555
H11 C16 1_555 1_555
H12 C16 1_555 1_555
C17 H13 1_555 1_555
H14 C17 1_555 1_555
H15 C17 1_555 1_555
C18 C7 1_555 1_555
C19 C18 1_555 1_555
H16 C19 1_555 1_555
C20 C19 1_555 1_555
H17 C20 1_555 1_555
C21 C20 1_555 1_555
H18 C21 1_555 1_555
C22 C21 1_555 1_555
H19 C22 1_555 1_555
C23 C18 1_555 1_555
H20 C23 1_555 1_555
C24 C2 1_555 1_555
N1 C1 1_555 1_555
H21 N1 1_555 1_555
H22 N1 1_555 1_555
N2 C24 1_555 1_555
O1 C1 1_555 1_555
O2 C5 1_555 1_555
O3 C12 1_555 1_555
O4 C13 1_555 1_555
O5 H24 1_555 1_555
O6 H25 1_555 1_555
H26 O6 1_555 1_555
O7 H27 1_555 1_555
H28 O7 1_555 1_555
O8 H29 1_555 1_555
H30 O8 1_555 1_555
H24A O5 1_555 1_555
C8 C9 1_555 1_555
C9 O1 1_555 1_555
C14 C15 1_555 1_555
C16 O3 1_555 1_555
C17 O4 1_555 1_555
C22 C23 1_555 1_555

#END
