
#######################################################################
#
#                 Cambridge Crystallographic Data Centre
#                                CCDC 
#
#######################################################################
#
# If this CIF has been generated from an entry in the Cambridge 
# Structural Database, then it will include bibliographic, chemical, 
# crystal, experimental, refinement or atomic coordinate data resulting 
# from the CCDC's data processing and validation procedures.
#
#######################################################################

data_GAQKOZ01
_chemical_name_common            bis(1-Phenyl-ortho-carboran-2-yl)disulfide
_chemical_formula_moiety         'C16 H30 B20 S2'
_chemical_name_systematic        
bis(2-Phenyl-1,2-dicarbadodecaboranyl)disulfide
_symmetry_cell_setting           triclinic
_symmetry_space_group_name_H-M   'P -1'
_symmetry_Int_Tables_number      2
_space_group_name_Hall           '-P 1'
loop_
_symmetry_equiv_pos_site_id
_symmetry_equiv_pos_as_xyz
1 x,y,z
2 -x,-y,-z
_cell_length_a                   10.475(1)
_cell_length_b                   11.549(1)
_cell_length_c                   12.900(1)
_cell_angle_alpha                85.070(5)
_cell_angle_beta                 69.041(6)
_cell_angle_gamma                77.637(5)
_cell_volume                     1423.46
_exptl_crystal_colour            colorless
_exptl_crystal_description       plate
_cell_formula_units_Z            2
loop_
_atom_site_label
_atom_site_type_symbol
_atom_site_fract_x
_atom_site_fract_y
_atom_site_fract_z
S1 S 0.35914(10) 0.46325(8) 0.67300(9)
S2 S 0.23128(10) 0.49337(7) 0.83206(8)
C1 C 0.2837(4) 0.3674(3) 0.6191(3)
C2 C 0.3752(4) 0.2207(3) 0.5980(3)
B1 B 0.2109(5) 0.2566(4) 0.6980(4)
H1 H 0.204(4) 0.252(3) 0.780(3)
B2 B 0.1122(5) 0.3753(4) 0.6443(4)
H2 H 0.040(4) 0.438(3) 0.701(3)
B3 B 0.2225(5) 0.4161(4) 0.5138(4)
H3 H 0.227(4) 0.510(3) 0.489(3)
B4 B 0.3896(5) 0.3216(4) 0.4885(4)
H4 H 0.483(4) 0.356(3) 0.454(3)
B5 B 0.2613(5) 0.1327(4) 0.6078(4)
H5 H 0.281(4) 0.045(3) 0.643(3)
B6 B 0.0957(5) 0.2277(4) 0.6370(5)
H6 H 0.000(4) 0.198(3) 0.690(3)
B7 B 0.1053(6) 0.3251(5) 0.5212(5)
H7 H 0.014(4) 0.356(3) 0.503(3)
B8 B 0.2765(6) 0.2931(5) 0.4243(5)
H8 H 0.303(4) 0.313(3) 0.334(4)
B9 B 0.3723(5) 0.1738(4) 0.4780(4)
H9 H 0.464(4) 0.112(3) 0.430(3)
B10 B 0.1952(6) 0.1774(5) 0.5002(5)
H10 H 0.159(4) 0.115(4) 0.464(3)
C3 C 0.4968(4) 0.1815(3) 0.6371(3)
C4 C 0.4806(5) 0.1199(4) 0.7350(4)
H11 H 0.389(5) 0.101(4) 0.783(4)
C5 C 0.5979(7) 0.0800(5) 0.7687(5)
H12 H 0.579(5) 0.036(4) 0.837(4)
C6 C 0.7239(6) 0.1037(5) 0.7038(6)
H13 H 0.804(5) 0.074(4) 0.731(4)
C7 C 0.7405(5) 0.1631(5) 0.6070(5)
H14 H 0.845(5) 0.177(4) 0.555(4)
C8 C 0.6281(5) 0.2009(4) 0.5723(4)
H15 H 0.639(4) 0.255(4) 0.507(4)
C9 C 0.1268(3) 0.6384(3) 0.8324(3)
C10 C 0.1590(3) 0.7444(3) 0.9053(3)
B11 B 0.2006(5) 0.7550(4) 0.7630(4)
H16 H 0.307(4) 0.737(3) 0.713(3)
B12 B 0.0686(5) 0.7047(4) 0.7313(4)
H17 H 0.103(3) 0.658(3) 0.656(3)
B13 B -0.0473(5) 0.6575(4) 0.8563(4)
H18 H -0.086(4) 0.574(3) 0.862(3)
B14 B 0.0159(4) 0.6758(4) 0.9641(4)
H19 H 0.022(3) 0.610(3) 1.030(3)
B15 B 0.1186(5) 0.8805(3) 0.8520(4)
H20 H 0.180(4) 0.946(3) 0.849(3)
B16 B 0.0606(5) 0.8592(4) 0.7426(4)
H21 H 0.080(4) 0.914(3) 0.668(3)
B17 B -0.0930(5) 0.7973(4) 0.8021(4)
H22 H -0.176(4) 0.816(3) 0.769(3)
B18 B -0.1256(5) 0.7790(4) 0.9465(4)
H23 H -0.227(4) 0.786(3) 1.006(3)
B19 B 0.0050(4) 0.8295(4) 0.9772(4)
H24 H -0.005(3) 0.859(3) 1.060(3)
B20 B -0.0625(5) 0.9049(4) 0.8761(4)
H25 H -0.128(4) 0.996(3) 0.893(3)
C11 C 0.2740(4) 0.7113(3) 0.9518(3)
C12 C 0.4065(5) 0.7285(5) 0.8903(4)
H26 H 0.424(5) 0.756(4) 0.819(4)
C13 C 0.5114(6) 0.7038(6) 0.9355(6)
H27 H 0.603(6) 0.726(5) 0.889(5)
C14 C 0.4856(7) 0.6622(6) 1.0398(6)
H28 H 0.556(6) 0.649(5) 1.073(4)
C15 C 0.3550(7) 0.6468(5) 1.1035(5)
H29 H 0.335(5) 0.616(5) 1.176(4)
C16 C 0.2483(5) 0.6709(4) 1.0588(4)
H30 H 0.160(5) 0.662(4) 1.105(4)
S3? S 0.258(2) 0.388(2) 0.7838(19)
S4? S 0.323(3) 0.544(2) 0.742(2)
loop_
_geom_bond_atom_site_label_1
_geom_bond_atom_site_label_2
_geom_bond_site_symmetry_1
_geom_bond_site_symmetry_2
S1 S2 1_555 1_555
S2 C9 1_555 1_555
C1 S1 1_555 1_555
C2 C1 1_555 1_555
B1 C1 1_555 1_555
H1 B1 1_555 1_555
B2 C1 1_555 1_555
H2 B2 1_555 1_555
B3 C1 1_555 1_555
H3 B3 1_555 1_555
B4 C1 1_555 1_555
H4 B4 1_555 1_555
B5 C2 1_555 1_555
H5 B5 1_555 1_555
B6 B1 1_555 1_555
H6 B6 1_555 1_555
B7 B2 1_555 1_555
H7 B7 1_555 1_555
B8 B3 1_555 1_555
H8 B8 1_555 1_555
B9 C2 1_555 1_555
H9 B9 1_555 1_555
B10 B5 1_555 1_555
H10 B10 1_555 1_555
C3 C2 1_555 1_555
C4 C3 1_555 1_555
H11 C4 1_555 1_555
C5 C4 1_555 1_555
H12 C5 1_555 1_555
C6 C5 1_555 1_555
H13 C6 1_555 1_555
C7 C6 1_555 1_555
H14 C7 1_555 1_555
C8 C3 1_555 1_555
H15 C8 1_555 1_555
C9 C10 1_555 1_555
C10 B11 1_555 1_555
B11 C9 1_555 1_555
H16 B11 1_555 1_555
B12 C9 1_555 1_555
H17 B12 1_555 1_555
B13 C9 1_555 1_555
H18 B13 1_555 1_555
B14 C9 1_555 1_555
H19 B14 1_555 1_555
B15 C10 1_555 1_555
H20 B15 1_555 1_555
B16 B11 1_555 1_555
H21 B16 1_555 1_555
B17 B12 1_555 1_555
H22 B17 1_555 1_555
B18 B13 1_555 1_555
H23 B18 1_555 1_555
B19 C10 1_555 1_555
H24 B19 1_555 1_555
B20 B15 1_555 1_555
H25 B20 1_555 1_555
C11 C10 1_555 1_555
C12 C11 1_555 1_555
H26 C12 1_555 1_555
C13 C12 1_555 1_555
H27 C13 1_555 1_555
C14 C13 1_555 1_555
H28 C14 1_555 1_555
C15 C14 1_555 1_555
H29 C15 1_555 1_555
C16 C11 1_555 1_555
H30 C16 1_555 1_555
C2 B1 1_555 1_555
C2 B4 1_555 1_555
B1 B2 1_555 1_555
B1 B5 1_555 1_555
B2 B3 1_555 1_555
B2 B6 1_555 1_555
B3 B4 1_555 1_555
B3 B7 1_555 1_555
B4 B8 1_555 1_555
B4 B9 1_555 1_555
B5 B6 1_555 1_555
B5 B9 1_555 1_555
B6 B7 1_555 1_555
B6 B10 1_555 1_555
B7 B8 1_555 1_555
B7 B10 1_555 1_555
B8 B9 1_555 1_555
B8 B10 1_555 1_555
B9 B10 1_555 1_555
C7 C8 1_555 1_555
C10 B14 1_555 1_555
B11 B12 1_555 1_555
B11 B15 1_555 1_555
B12 B13 1_555 1_555
B12 B16 1_555 1_555
B13 B14 1_555 1_555
B13 B17 1_555 1_555
B14 B18 1_555 1_555
B14 B19 1_555 1_555
B15 B16 1_555 1_555
B15 B19 1_555 1_555
B16 B17 1_555 1_555
B16 B20 1_555 1_555
B17 B18 1_555 1_555
B17 B20 1_555 1_555
B18 B19 1_555 1_555
B18 B20 1_555 1_555
B19 B20 1_555 1_555
C15 C16 1_555 1_555

#END
