
#######################################################################
#
#                 Cambridge Crystallographic Data Centre
#                                CCDC 
#
#######################################################################
#
# If this CIF has been generated from an entry in the Cambridge 
# Structural Database, then it will include bibliographic, chemical, 
# crystal, experimental, refinement or atomic coordinate data resulting 
# from the CCDC's data processing and validation procedures.
#
#######################################################################

data_GAQLOB
_chemical_formula_moiety         'C13 H12 N2 O4'
_chemical_name_systematic        
2-((4,6-Dimethoxypyrimidin-2-yl)oxy)benzaldehyde
_symmetry_cell_setting           monoclinic
_symmetry_space_group_name_H-M   'P 21'
_symmetry_Int_Tables_number      4
_space_group_name_Hall           'P 2yb'
loop_
_symmetry_equiv_pos_site_id
_symmetry_equiv_pos_as_xyz
1 x,y,z
2 -x,1/2+y,-z
_cell_length_a                   3.9920(8)
_cell_length_b                   7.3670(15)
_cell_length_c                   20.885(4)
_cell_angle_alpha                90
_cell_angle_beta                 94.87(3)
_cell_angle_gamma                90
_cell_volume                     611.991
_exptl_crystal_colour            colorless
_exptl_crystal_description       block
_cell_formula_units_Z            2
loop_
_atom_site_label
_atom_site_type_symbol
_atom_site_fract_x
_atom_site_fract_y
_atom_site_fract_z
O1 O 1.4553(7) 0.5127(4) 0.39674(15)
O2 O 0.8453(6) 0.7927(3) 0.27202(8)
O3 O 0.7500(5) 0.7425(3) 0.05537(8)
O4 O 1.2359(6) 1.2581(3) 0.15175(9)
N1 N 0.7955(6) 0.7671(3) 0.16578(10)
N2 N 1.0511(6) 1.0293(3) 0.21505(10)
C1 C 0.8229(7) 1.0480(4) 0.34509(13)
C2 C 0.9064(7) 1.1207(4) 0.40473(14)
C3 C 1.1033(7) 1.0252(4) 0.44989(14)
C4 C 1.2202(7) 0.8574(4) 0.43577(13)
C5 C 1.1421(7) 0.7798(4) 0.37569(12)
C6 C 0.9419(7) 0.8792(4) 0.33036(12)
C7 C 1.2647(9) 0.5998(4) 0.36179(17)
C8 C 0.9023(7) 0.8697(4) 0.21501(12)
C9 C 0.8461(7) 0.8376(4) 0.10859(12)
C10 C 0.9930(7) 1.0035(4) 0.10102(13)
C11 C 1.0929(7) 1.0950(4) 0.15650(13)
C12 C 0.5970(8) 0.5691(5) 0.06309(14)
C13 C 1.3137(9) 1.3609(4) 0.20875(15)
H1 H 0.68640 1.11240 0.31480
H2 H 0.82900 1.23560 0.41460
H3 H 1.15740 1.07510 0.49040
H4 H 1.35410 0.79390 0.46680
H5 H 1.18890 0.54810 0.32260
H6 H 1.02300 1.05120 0.06070
H7 H 0.54180 0.51540 0.02160
H8 H 0.39590 0.58390 0.08470
H9 H 0.75070 0.49160 0.08810
H10 H 1.41400 1.47410 0.19800
H11 H 1.46830 1.29400 0.23750
H12 H 1.11130 1.38390 0.22920
loop_
_geom_bond_atom_site_label_1
_geom_bond_atom_site_label_2
_geom_bond_site_symmetry_1
_geom_bond_site_symmetry_2
O1 C7 1_555 1_555
O2 C6 1_555 1_555
O3 C9 1_555 1_555
O4 C11 1_555 1_555
N1 C8 1_555 1_555
N2 C8 1_555 1_555
C1 C2 1_555 1_555
C2 C3 1_555 1_555
C3 C4 1_555 1_555
C4 C5 1_555 1_555
C5 C6 1_555 1_555
C6 C1 1_555 1_555
C7 C5 1_555 1_555
C8 O2 1_555 1_555
C9 N1 1_555 1_555
C10 C9 1_555 1_555
C11 N2 1_555 1_555
C12 O3 1_555 1_555
C13 O4 1_555 1_555
H1 C1 1_555 1_555
H2 C2 1_555 1_555
H3 C3 1_555 1_555
H4 C4 1_555 1_555
H5 C7 1_555 1_555
H6 C10 1_555 1_555
H7 C12 1_555 1_555
H8 C12 1_555 1_555
H9 C12 1_555 1_555
H10 C13 1_555 1_555
H11 C13 1_555 1_555
H12 C13 1_555 1_555
C10 C11 1_555 1_555

#END
