
#######################################################################
#
#                 Cambridge Crystallographic Data Centre
#                                CCDC 
#
#######################################################################
#
# If this CIF has been generated from an entry in the Cambridge 
# Structural Database, then it will include bibliographic, chemical, 
# crystal, experimental, refinement or atomic coordinate data resulting 
# from the CCDC's data processing and validation procedures.
#
#######################################################################

data_GAQQAS
_chemical_name_common            
N-[(perhydrocyclopenta[c]pyrrol-2-yl)aminocarbonyl]-o-toluenesulfonamide
_chemical_formula_moiety         'C15 H21 N3 O3 S1'
_chemical_name_systematic        
N-(Hexahydrocyclopenta[c]pyrrol-2(1H)-ylcarbamoyl)-2-methylbenzenesulfonamide
_symmetry_cell_setting           monoclinic
_symmetry_space_group_name_H-M   'P 21/c'
_symmetry_Int_Tables_number      14
_space_group_name_Hall           '-P 2ybc'
loop_
_symmetry_equiv_pos_site_id
_symmetry_equiv_pos_as_xyz
1 x,y,z
2 -x,1/2+y,1/2-z
3 -x,-y,-z
4 x,1/2-y,1/2+z
_cell_length_a                   10.891(7)
_cell_length_b                   11.226(7)
_cell_length_c                   13.477(9)
_cell_angle_alpha                90
_cell_angle_beta                 95.509(9)
_cell_angle_gamma                90
_cell_volume                     1640.12
_exptl_crystal_colour            colorless
_exptl_crystal_description       prism
_cell_formula_units_Z            4
_exptl_crystal_recrystallization_method methanol
loop_
_atom_site_label
_atom_site_type_symbol
_atom_site_fract_x
_atom_site_fract_y
_atom_site_fract_z
S1 S 0.88574(3) 0.63900(3) 1.09521(2)
O1 O 0.83163(10) 0.75502(10) 1.08708(8)
O2 O 1.01217(9) 0.62502(10) 1.07406(8)
O3 O 0.62260(9) 0.57766(10) 1.07603(8)
N1 N 0.80984(11) 0.54879(12) 1.01545(9)
N2 N 0.63131(12) 0.47495(13) 0.93204(9)
N3 N 0.69959(11) 0.44335(12) 0.85221(9)
C1 C 1.01300(15) 0.40745(16) 1.19750(12)
H1 H 0.9694 0.3882 1.1324
H2 H 1.0329 0.3337 1.2345
H3 H 1.0893 0.4503 1.1879
C2 C 0.93199(14) 0.48450(14) 1.25551(11)
C3 C 0.91819(16) 0.45650(16) 1.35526(12)
H4 H 0.9612 0.3899 1.3850
C4 C 0.84335(16) 0.52348(17) 1.41160(12)
H5 H 0.8377 0.5035 1.4795
C5 C 0.77680(16) 0.61910(17) 1.36998(12)
H6 H 0.7238 0.6632 1.4083
C6 C 0.78836(15) 0.64984(15) 1.27155(11)
H7 H 0.7428 0.7150 1.2420
C7 C 0.86715(13) 0.58463(14) 1.21606(10)
C8 C 0.68259(13) 0.53668(14) 1.01056(10)
C9 C 0.70155(15) 0.31371(15) 0.83580(12)
H8 H 0.6184 0.2788 0.8382
H9 H 0.7598 0.2739 0.8862
C10 C 0.74462(16) 0.30259(17) 0.73176(13)
H10 H 0.8364 0.2946 0.7354
C11 C 0.68091(18) 0.20163(19) 0.66902(16)
H11 H 0.7340 0.1726 0.6185
H12 H 0.6607 0.1341 0.7118
C12 C 0.56419(18) 0.25961(19) 0.61967(14)
H13 H 0.5304 0.2138 0.5605
H14 H 0.5003 0.2661 0.6669
C13 C 0.6079(2) 0.3821(2) 0.58998(13)
H15 H 0.5380 0.4386 0.5806
H16 H 0.6484 0.3777 0.5274
C14 C 0.70093(17) 0.42092(17) 0.67816(12)
H17 H 0.7720 0.4652 0.6541
C15 C 0.64125(16) 0.49198(16) 0.75762(11)
H18 H 0.6586 0.5782 0.7520
H19 H 0.5508 0.4797 0.7519
H20 H 0.8539(17) 0.5085(18) 0.9741(13)
H21 H 0.5498(9) 0.4609(18) 0.9291(15)
loop_
_geom_bond_atom_site_label_1
_geom_bond_atom_site_label_2
_geom_bond_site_symmetry_1
_geom_bond_site_symmetry_2
S1 O1 1_555 1_555
O2 S1 1_555 1_555
O3 C8 1_555 1_555
N1 S1 1_555 1_555
N2 N3 1_555 1_555
N3 C9 1_555 1_555
C1 H1 1_555 1_555
H2 C1 1_555 1_555
H3 C1 1_555 1_555
C2 C1 1_555 1_555
C3 C2 1_555 1_555
H4 C3 1_555 1_555
C4 C3 1_555 1_555
H5 C4 1_555 1_555
C5 C4 1_555 1_555
H6 C5 1_555 1_555
C6 C5 1_555 1_555
H7 C6 1_555 1_555
C7 S1 1_555 1_555
C8 N1 1_555 1_555
C9 H8 1_555 1_555
H9 C9 1_555 1_555
C10 C9 1_555 1_555
H10 C10 1_555 1_555
C11 C10 1_555 1_555
H11 C11 1_555 1_555
H12 C11 1_555 1_555
C12 C11 1_555 1_555
H13 C12 1_555 1_555
H14 C12 1_555 1_555
C13 C12 1_555 1_555
H15 C13 1_555 1_555
H16 C13 1_555 1_555
C14 C10 1_555 1_555
H17 C14 1_555 1_555
C15 N3 1_555 1_555
H18 C15 1_555 1_555
H19 C15 1_555 1_555
H20 N1 1_555 1_555
H21 N2 1_555 1_555
N2 C8 1_555 1_555
C2 C7 1_555 1_555
C6 C7 1_555 1_555
C13 C14 1_555 1_555
C14 C15 1_555 1_555

#END
