
#######################################################################
#
#                 Cambridge Crystallographic Data Centre
#                                CCDC 
#
#######################################################################
#
# If this CIF has been generated from an entry in the Cambridge 
# Structural Database, then it will include bibliographic, chemical, 
# crystal, experimental, refinement or atomic coordinate data resulting 
# from the CCDC's data processing and validation procedures.
#
#######################################################################

data_GAQQEX
_chemical_formula_moiety         'C18 H16 N2 O5'
_chemical_name_systematic        
'diethyl 5-hydroxy-5\l^5^-benzo[c]cinnoline-3,8-dicarboxylate'
_symmetry_cell_setting           orthorhombic
_symmetry_space_group_name_H-M   'P b c n'
_symmetry_Int_Tables_number      60
_space_group_name_Hall           '-P 2n 2ab'
loop_
_symmetry_equiv_pos_site_id
_symmetry_equiv_pos_as_xyz
1 x,y,z
2 1/2-x,1/2-y,1/2+z
3 1/2+x,1/2-y,-z
4 -x,y,1/2-z
5 -x,-y,-z
6 1/2+x,1/2+y,1/2-z
7 1/2-x,1/2+y,z
8 x,-y,1/2+z
_cell_length_a                   8.2607(15)
_cell_length_b                   14.168(3)
_cell_length_c                   27.700(5)
_cell_angle_alpha                90
_cell_angle_beta                 90
_cell_angle_gamma                90
_cell_volume                     3241.94
_exptl_crystal_colour            colorless
_exptl_crystal_description       block
_cell_formula_units_Z            8
loop_
_atom_site_label
_atom_site_type_symbol
_atom_site_fract_x
_atom_site_fract_y
_atom_site_fract_z
O1 O 0.6490(4) 0.37408(16) 0.43464(8)
O2 O -0.1057(3) 0.32431(19) 0.08892(9)
O3 O 0.6716(3) 0.22107(13) 0.41854(7)
O4 O -0.0912(3) 0.47632(17) 0.10679(8)
C1 C 0.3247(3) 0.32289(17) 0.28283(9)
C2 C 0.2268(3) 0.33468(17) 0.24038(9)
C3 C 0.3815(3) 0.40325(16) 0.30631(9)
C4 C 0.5170(3) 0.31146(17) 0.36587(9)
C5 C 0.4771(3) 0.39801(17) 0.34750(9)
H1 H 0.5137 0.4528 0.3624
C6 C 0.1967(3) 0.42784(18) 0.22566(9)
C7 C 0.4622(3) 0.23021(18) 0.34277(9)
H2 H 0.4905 0.1714 0.3550
C8 C 0.3673(3) 0.23537(18) 0.30234(10)
H3 H 0.3309 0.1802 0.2877
C9 C 0.1606(3) 0.26132(19) 0.21354(10)
H4 H 0.1786 0.1993 0.2230
C10 C 0.1036(3) 0.4457(2) 0.18454(10)
H5 H 0.0845 0.5075 0.1748
C11 C 0.0695(3) 0.2790(2) 0.17344(10)
H6 H 0.0263 0.2291 0.1559
C12 C 0.0406(3) 0.3720(2) 0.15861(9)
C13 C 0.6184(4) 0.3074(2) 0.41005(10)
C14 C -0.0586(4) 0.3866(3) 0.11459(12)
C15 C 0.7748(4) 0.2064(2) 0.46033(11)
H7 H 0.7107 0.2065 0.4897
H8 H 0.8550 0.2561 0.4626
C16 C 0.8546(5) 0.1139(3) 0.45380(14)
H9 H 0.9207 0.1155 0.4253
H10 H 0.7738 0.0656 0.4505
H11 H 0.9211 0.1005 0.4814
C17 C -0.1877(6) 0.4952(3) 0.06351(15)
H12 H -0.1441 0.4598 0.0365
H13 H -0.2984 0.4747 0.0688
C18 C -0.1858(8) 0.5889(4) 0.05303(19)
H14 H -0.2436 0.5998 0.0235
H15 H -0.0759 0.6097 0.0495
H16 H -0.2367 0.6234 0.0787
N1 N 0.3437(3) 0.49420(14) 0.28799(8)
O5 O 0.4004(3) 0.56612(14) 0.30969(9)
N2 N 0.2546(3) 0.50621(16) 0.24981(9)
O6? O 0.198(2) 0.5713(9) 0.2332(6)
loop_
_geom_bond_atom_site_label_1
_geom_bond_atom_site_label_2
_geom_bond_site_symmetry_1
_geom_bond_site_symmetry_2
O1 C13 1_555 1_555
O2 C14 1_555 1_555
O3 C13 1_555 1_555
O4 C14 1_555 1_555
C1 C2 1_555 1_555
C2 C6 1_555 1_555
C3 C1 1_555 1_555
C4 C5 1_555 1_555
C5 C3 1_555 1_555
H1 C5 1_555 1_555
C6 C10 1_555 1_555
C7 C4 1_555 1_555
H2 C7 1_555 1_555
C8 C1 1_555 1_555
H3 C8 1_555 1_555
C9 C2 1_555 1_555
H4 C9 1_555 1_555
C10 H5 1_555 1_555
C11 C9 1_555 1_555
H6 C11 1_555 1_555
C12 C10 1_555 1_555
C13 C4 1_555 1_555
C14 C12 1_555 1_555
C15 O3 1_555 1_555
H7 C15 1_555 1_555
H8 C15 1_555 1_555
C16 C15 1_555 1_555
H9 C16 1_555 1_555
H10 C16 1_555 1_555
H11 C16 1_555 1_555
C17 O4 1_555 1_555
H12 C17 1_555 1_555
H13 C17 1_555 1_555
C18 C17 1_555 1_555
H14 C18 1_555 1_555
H15 C18 1_555 1_555
H16 C18 1_555 1_555
N1 C3 1_555 1_555
O5 N1 1_555 1_555
N2 C6 1_555 1_555
C7 C8 1_555 1_555
C11 C12 1_555 1_555
N1 N2 1_555 1_555

#END
