
#######################################################################
#
#                 Cambridge Crystallographic Data Centre
#                                CCDC 
#
#######################################################################
#
# If this CIF has been generated from an entry in the Cambridge 
# Structural Database, then it will include bibliographic, chemical, 
# crystal, experimental, refinement or atomic coordinate data resulting 
# from the CCDC's data processing and validation procedures.
#
#######################################################################

data_GAQREW
_chemical_formula_moiety         'C20 H23 F1 N2 O2'
_chemical_name_systematic        
4-(4-Dimethylamino-1-(4-fluorophenyl)-1-hydroxybutyl)-3-(hydroxymethyl)benzonitrile
_symmetry_cell_setting           triclinic
_symmetry_space_group_name_H-M   'P -1'
_symmetry_Int_Tables_number      2
_space_group_name_Hall           '-P 1'
loop_
_symmetry_equiv_pos_site_id
_symmetry_equiv_pos_as_xyz
1 x,y,z
2 -x,-y,-z
_cell_length_a                   8.1512(5)
_cell_length_b                   12.4991(6)
_cell_length_c                   18.9280(10)
_cell_angle_alpha                100.7080(10)
_cell_angle_beta                 96.0057(8)
_cell_angle_gamma                94.896(3)
_cell_volume                     1873.59
_exptl_crystal_colour            colorless
_exptl_crystal_description       block
_cell_formula_units_Z            4
loop_
_atom_site_label
_atom_site_type_symbol
_atom_site_fract_x
_atom_site_fract_y
_atom_site_fract_z
F1 F 0.6611(2) 1.27820(10) 0.19720(10)
O1 O 0.2838(2) 1.10750(10) 0.43657(7)
O2 O 0.7674(2) 0.98450(10) 0.44271(9)
N1 N 0.4866(4) 0.5378(2) 0.3791(2)
N2 N 0.0954(3) 1.2732(2) 0.45010(10)
C1 C 0.2640(3) 1.0544(2) 0.36220(10)
C2 C 0.3164(3) 0.9386(2) 0.36290(10)
C3 C 0.4792(3) 0.9240(2) 0.39010(10)
C4 C 0.6148(3) 1.0175(2) 0.41800(10)
C5 C 0.5179(3) 0.8185(2) 0.39240(10)
C6 C 0.4024(3) 0.7282(2) 0.36890(10)
C7 C 0.4482(4) 0.6215(2) 0.3740(2)
C8 C 0.2435(3) 0.7425(2) 0.34140(10)
C9 C 0.2037(3) 0.8456(2) 0.33860(10)
C10 C 0.3757(2) 1.1151(2) 0.31880(10)
C11 C 0.4011(3) 1.0664(2) 0.24910(10)
C12 C 0.4969(3) 1.1202(2) 0.20810(10)
C13 C 0.5672(3) 1.2233(2) 0.23710(10)
C14 C 0.5471(3) 1.2759(2) 0.30600(10)
C15 C 0.4508(3) 1.2198(2) 0.34620(10)
C16 C 0.0817(3) 1.0513(2) 0.32920(10)
C17 C 0.0156(3) 1.1614(2) 0.32540(10)
C18 C -0.0396(3) 1.2203(2) 0.3947(2)
C19 C 0.1611(5) 1.3780(3) 0.4350(2)
C20 C 0.0431(5) 1.2887(4) 0.5224(2)
H1 H 0.5787 1.0664 0.4566
H2 H 0.6322 1.0546 0.3795
H3 H 0.6271 0.8079 0.4107
H4 H 0.1638 0.6807 0.3243
H5 H 0.0944 0.8554 0.3200
H6 H 0.3492 0.9945 0.2297
H7 H 0.5142 1.0863 0.1606
H8 H 0.5968 1.3486 0.3246
H9 H 0.4365 1.2535 0.3941
H10 H 0.0703 1.0087 0.2816
H11 H 0.0138 1.0163 0.3579
H12 H 0.1037 1.2080 0.3145
H13 H -0.0740 1.1505 0.2875
H14 H -0.1017 1.1671 0.4140
H15 H -0.1087 1.2741 0.3839
H16 H 0.2472 1.3668 0.4051
H17 H 0.2040 1.4259 0.4793
H18 H 0.0749 1.4094 0.4109
H19 H 0.1346 1.2863 0.5574
H20 H 0.0014 1.3579 0.5330
H21 H -0.0417 1.2324 0.5238
H22 H 0.7564 0.9594 0.4854
H23 H 0.2258 1.1694 0.4400
F2 F 0.8388(2) 0.6644(2) 0.30276(9)
O3 O 0.3860(2) 0.62020(10) 0.00455(8)
O4 O 0.1525(3) 0.56750(10) 0.08200(10)
N3 N -0.1738(4) 1.0411(2) 0.1274(2)
N4 N 0.8642(2) 0.62490(10) -0.12620(10)
C21 C 0.4605(3) 0.7212(2) 0.04810(10)
C22 C 0.3224(3) 0.7949(2) 0.06920(10)
C23 C 0.2013(3) 0.7625(2) 0.11140(10)
C24 C 0.1914(3) 0.6584(2) 0.14070(10)
C25 C 0.0763(3) 0.8288(2) 0.12610(10)
C26 C 0.0684(3) 0.9256(2) 0.10120(10)
C27 C -0.0649(3) 0.9913(2) 0.11710(10)
C28 C 0.1877(3) 0.9582(2) 0.06040(10)
C29 C 0.3118(3) 0.8927(2) 0.04520(10)
C30 C 0.5644(3) 0.7050(2) 0.11740(10)
C31 C 0.6201(3) 0.7938(2) 0.17280(10)
C32 C 0.7119(3) 0.7810(3) 0.23540(10)
C33 C 0.7484(3) 0.6790(3) 0.24100(10)
C34 C 0.6987(3) 0.5889(3) 0.1880(2)
C35 C 0.6055(3) 0.6029(2) 0.12450(10)
C36 C 0.5755(3) 0.7672(2) -0.00020(10)
C37 C 0.7049(3) 0.6915(2) -0.02510(10)
C38 C 0.7400(4) 0.6952(2) -0.09960(10)
C39 C 1.0293(4) 0.6700(3) -0.0938(3)
C40 C 0.8525(7) 0.6089(4) -0.2044(2)
H24 H 0.2962 0.6527 0.1660
H25 H 0.1092 0.6592 0.1727
H26 H -0.0074 0.8065 0.1533
H27 H 0.1833 1.0248 0.0433
H28 H 0.3932 0.9147 0.0168
H29 H 0.5941 0.8643 0.1665
H30 H 0.7498 0.8419 0.2734
H31 H 0.7278 0.5189 0.1941
H32 H 0.5695 0.5425 0.0860
H33 H 0.6313 0.8355 0.0253
H34 H 0.5099 0.7779 -0.0423
H35 H 0.6639 0.6188 -0.0231
H36 H 0.8051 0.7125 0.0069
H37 H 0.6391 0.6734 -0.1310
H38 H 0.7779 0.7687 -0.1010
H39 H 1.0739 0.7147 -0.1242
H40 H 1.0259 0.7133 -0.0471
H41 H 1.0974 0.6129 -0.0896
H42 H 0.8129 0.6706 -0.2205
H43 H 0.7771 0.5456 -0.2242
H44 H 0.9583 0.5982 -0.2197
H45 H 0.1582 0.4989 0.1008
H46 H 0.2899 0.5932 0.0307
loop_
_geom_bond_atom_site_label_1
_geom_bond_atom_site_label_2
_geom_bond_site_symmetry_1
_geom_bond_site_symmetry_2
F1 C13 1_555 1_555
F2 C33 1_555 1_555
O1 C1 1_555 1_555
O2 C4 1_555 1_555
O3 C21 1_555 1_555
O4 C24 1_555 1_555
N1 C7 1_555 1_555
N2 C18 1_555 1_555
N3 C27 1_555 1_555
N4 C38 1_555 1_555
C1 C2 1_555 1_555
C2 C3 1_555 1_555
C3 C4 1_555 1_555
C4 H1 1_555 1_555
C5 C3 1_555 1_555
C6 C5 1_555 1_555
C7 C6 1_555 1_555
C8 C6 1_555 1_555
C9 C2 1_555 1_555
C10 C1 1_555 1_555
C11 C10 1_555 1_555
C12 C11 1_555 1_555
C13 C12 1_555 1_555
C14 C13 1_555 1_555
C15 C10 1_555 1_555
C16 C1 1_555 1_555
C17 C16 1_555 1_555
C18 C17 1_555 1_555
C19 N2 1_555 1_555
C20 N2 1_555 1_555
C21 C22 1_555 1_555
C22 C23 1_555 1_555
C23 C24 1_555 1_555
C24 H24 1_555 1_555
C25 C23 1_555 1_555
C26 C25 1_555 1_555
C27 C26 1_555 1_555
C28 C26 1_555 1_555
C29 C22 1_555 1_555
C30 C21 1_555 1_555
C31 C30 1_555 1_555
C32 C31 1_555 1_555
C33 C32 1_555 1_555
C34 C33 1_555 1_555
C35 C30 1_555 1_555
C36 C21 1_555 1_555
C37 C36 1_555 1_555
C38 C37 1_555 1_555
C39 N4 1_555 1_555
C40 N4 1_555 1_555
H2 C4 1_555 1_555
H3 C5 1_555 1_555
H4 C8 1_555 1_555
H5 C9 1_555 1_555
H6 C11 1_555 1_555
H7 C12 1_555 1_555
H8 C14 1_555 1_555
H9 C15 1_555 1_555
H10 C16 1_555 1_555
H11 C16 1_555 1_555
H12 C17 1_555 1_555
H13 C17 1_555 1_555
H14 C18 1_555 1_555
H15 C18 1_555 1_555
H16 C19 1_555 1_555
H17 C19 1_555 1_555
H18 C19 1_555 1_555
H19 C20 1_555 1_555
H20 C20 1_555 1_555
H21 C20 1_555 1_555
H22 O2 1_555 1_555
H23 O1 1_555 1_555
H25 C24 1_555 1_555
H26 C25 1_555 1_555
H27 C28 1_555 1_555
H28 C29 1_555 1_555
H29 C31 1_555 1_555
H30 C32 1_555 1_555
H31 C34 1_555 1_555
H32 C35 1_555 1_555
H33 C36 1_555 1_555
H34 C36 1_555 1_555
H35 C37 1_555 1_555
H36 C37 1_555 1_555
H37 C38 1_555 1_555
H38 C38 1_555 1_555
H39 C39 1_555 1_555
H40 C39 1_555 1_555
H41 C39 1_555 1_555
H42 C40 1_555 1_555
H43 C40 1_555 1_555
H44 C40 1_555 1_555
H45 O4 1_555 1_555
H46 O3 1_555 1_555
C8 C9 1_555 1_555
C14 C15 1_555 1_555
C28 C29 1_555 1_555
C34 C35 1_555 1_555

#END
