
#######################################################################
#
#                 Cambridge Crystallographic Data Centre
#                                CCDC 
#
#######################################################################
#
# If this CIF has been generated from an entry in the Cambridge 
# Structural Database, then it will include bibliographic, chemical, 
# crystal, experimental, refinement or atomic coordinate data resulting 
# from the CCDC's data processing and validation procedures.
#
#######################################################################

data_GAQREX
_chemical_formula_moiety         'C21 H18 Si1'
_chemical_name_systematic        Triphenyl(prop-2-yn-1-yl)silane
_symmetry_cell_setting           triclinic
_symmetry_space_group_name_H-M   'P -1'
_symmetry_Int_Tables_number      2
_space_group_name_Hall           '-P 1'
loop_
_symmetry_equiv_pos_site_id
_symmetry_equiv_pos_as_xyz
1 x,y,z
2 -x,-y,-z
_cell_length_a                   9.6668(11)
_cell_length_b                   9.6857(7)
_cell_length_c                   10.1178(10)
_cell_angle_alpha                80.289(7)
_cell_angle_beta                 65.189(10)
_cell_angle_gamma                72.957(8)
_cell_volume                     820.984
_exptl_crystal_colour            colorless
_exptl_crystal_description       plate
_cell_formula_units_Z            2
loop_
_atom_site_label
_atom_site_type_symbol
_atom_site_fract_x
_atom_site_fract_y
_atom_site_fract_z
C1 C 0.8154(3) 0.5812(3) 0.1515(4)
C2 C 0.7846(3) 0.6191(2) 0.2662(3)
C3 C 0.7508(3) 0.6647(3) 0.4086(3)
C4 C 0.7985(2) 0.9730(2) 0.3179(2)
C5 C 0.8267(2) 0.9789(2) 0.1710(2)
H1 H 0.8735 0.8920 0.1205
C6 C 0.7884(3) 1.1085(2) 0.0958(3)
H2 H 0.8073 1.1101 -0.0044
C7 C 0.7222(3) 1.2353(2) 0.1697(3)
H3 H 0.6958 1.3246 0.1195
C8 C 0.6944(2) 1.2329(2) 0.3138(3)
H4 H 0.6493 1.3206 0.3631
C9 C 0.7317(2) 1.1033(2) 0.3891(3)
H5 H 0.7118 1.1028 0.4894
C10 C 0.8073(2) 0.8192(2) 0.6057(2)
C11 C 0.6509(2) 0.8669(2) 0.7011(2)
H6 H 0.5712 0.8932 0.6635
C12 C 0.6081(3) 0.8771(2) 0.8479(3)
H7 H 0.5003 0.9082 0.9102
C13 C 0.7231(3) 0.8417(2) 0.9041(3)
H8 H 0.6949 0.8494 1.0050
C14 C 0.8787(3) 0.7953(2) 0.8126(2)
H9 H 0.9578 0.7708 0.8509
C15 C 0.9206(2) 0.7841(2) 0.6660(2)
H10 H 1.0285 0.7520 0.6046
C16 C 1.0757(2) 0.7216(2) 0.3174(2)
C17 C 1.1798(3) 0.8035(2) 0.2971(2)
H11 H 1.1386 0.9000 0.3275
C18 C 1.3405(3) 0.7505(2) 0.2347(3)
H12 H 1.4086 0.8087 0.2246
C19 C 1.4016(3) 0.6110(2) 0.1867(3)
H13 H 1.5123 0.5735 0.1418
C20 C 1.3025(3) 0.5280(2) 0.2043(3)
H14 H 1.3449 0.4325 0.1712
C21 C 1.1409(3) 0.5807(2) 0.2696(2)
H15 H 1.0738 0.5207 0.2820
H16 H 0.764(3) 0.588(2) 0.475(3)
H17 H 0.646(3) 0.707(2) 0.454(3)
H18 H 0.839(2) 0.557(2) 0.066(2)
Si1 Si 0.85982(7) 0.79610(6) 0.41079(7)
loop_
_geom_bond_atom_site_label_1
_geom_bond_atom_site_label_2
_geom_bond_site_symmetry_1
_geom_bond_site_symmetry_2
C1 C2 1_555 1_555
C2 C3 1_555 1_555
C3 H16 1_555 1_555
C4 C5 1_555 1_555
C5 H1 1_555 1_555
C6 C5 1_555 1_555
H2 C6 1_555 1_555
C7 C6 1_555 1_555
H3 C7 1_555 1_555
C8 C7 1_555 1_555
H4 C8 1_555 1_555
C9 C4 1_555 1_555
H5 C9 1_555 1_555
C10 C11 1_555 1_555
C11 H6 1_555 1_555
C12 C11 1_555 1_555
H7 C12 1_555 1_555
C13 C12 1_555 1_555
H8 C13 1_555 1_555
C14 C13 1_555 1_555
H9 C14 1_555 1_555
C15 C10 1_555 1_555
H10 C15 1_555 1_555
C16 C17 1_555 1_555
C17 H11 1_555 1_555
C18 C17 1_555 1_555
H12 C18 1_555 1_555
C19 C18 1_555 1_555
H13 C19 1_555 1_555
C20 C19 1_555 1_555
H14 C20 1_555 1_555
C21 C16 1_555 1_555
H15 C21 1_555 1_555
H17 C3 1_555 1_555
H18 C1 1_555 1_555
Si1 C3 1_555 1_555
C4 Si1 1_555 1_555
C8 C9 1_555 1_555
C10 Si1 1_555 1_555
C14 C15 1_555 1_555
C16 Si1 1_555 1_555
C20 C21 1_555 1_555

#END
