
#######################################################################
#
#                 Cambridge Crystallographic Data Centre
#                                CCDC 
#
#######################################################################
#
# If this CIF has been generated from an entry in the Cambridge 
# Structural Database, then it will include bibliographic, chemical, 
# crystal, experimental, refinement or atomic coordinate data resulting 
# from the CCDC's data processing and validation procedures.
#
#######################################################################

data_GAQTEZ
_chemical_formula_moiety         'C19 H17 N3 O1'
_chemical_name_systematic        
(Z)-1-(2,4-Dimethylphenyl)-3-phenyl-2-(1H-1,2,4-triazol-1-yl)prop-2-en-1-one
_symmetry_cell_setting           monoclinic
_symmetry_space_group_name_H-M   'P 21/n'
_symmetry_Int_Tables_number      14
_space_group_name_Hall           '-P 2yn'
loop_
_symmetry_equiv_pos_site_id
_symmetry_equiv_pos_as_xyz
1 x,y,z
2 1/2-x,1/2+y,1/2-z
3 -x,-y,-z
4 1/2+x,1/2-y,1/2+z
_cell_length_a                   12.8499(3)
_cell_length_b                   7.8836(2)
_cell_length_c                   16.5274(4)
_cell_angle_alpha                90
_cell_angle_beta                 108.3760(10)
_cell_angle_gamma                90
_cell_volume                     1588.91
_exptl_crystal_colour            colorless
_exptl_crystal_description       block
_cell_formula_units_Z            4
loop_
_atom_site_label
_atom_site_type_symbol
_atom_site_fract_x
_atom_site_fract_y
_atom_site_fract_z
C1 C 0.20259(13) 1.1290(2) 0.85885(11)
H1 H 0.1666 1.2043 0.8842
C2 C 0.23209(14) 0.9674(3) 0.77106(11)
H2 H 0.2254 0.9031 0.7225
C3 C 0.29220(13) 0.6718(2) 0.94192(10)
H3 H 0.2511 0.7004 0.8865
C4 C 0.24256(14) 0.5912(2) 0.99443(12)
H4 H 0.1685 0.5637 0.9736
C5 C 0.30203(15) 0.5514(2) 1.07733(11)
H5 H 0.2679 0.4990 1.1126
C6 C 0.41158(15) 0.5892(2) 1.10754(10)
H6 H 0.4518 0.5634 1.1636
C7 C 0.46229(13) 0.6653(2) 1.05485(9)
H7 H 0.5372 0.6870 1.0753
C8 C 0.40332(11) 0.71002(18) 0.97182(9)
C9 C 0.46292(12) 0.78548(19) 0.91780(9)
C10 C 0.42801(11) 0.89791(19) 0.85496(9)
C11 C 0.48890(13) 0.9480(2) 0.79522(10)
C12 C 0.60794(12) 0.90705(19) 0.81731(9)
C13 C 0.67846(13) 0.9510(2) 0.89704(10)
H8 H 0.6502 1.0017 0.9365
C14 C 0.78937(13) 0.9210(2) 0.91891(11)
H9 H 0.8351 0.9543 0.9723
C15 C 0.83373(13) 0.8419(2) 0.86257(11)
C16 C 0.76298(13) 0.7989(2) 0.78301(10)
H10 H 0.7918 0.7458 0.7446
C17 C 0.65123(12) 0.8313(2) 0.75783(10)
C18 C 0.58064(16) 0.7803(3) 0.67006(11)
H11 H 0.6255 0.7291 0.6400
H12 H 0.5449 0.8788 0.6396
H13 H 0.5264 0.7003 0.6746
C19 C 0.95482(15) 0.8037(3) 0.88741(15)
H14 H 0.9910 0.8916 0.8663
H15 H 0.9656 0.6968 0.8633
H16 H 0.9849 0.7983 0.9484
H17 H 0.5369(13) 0.746(2) 0.9311(9)
N1 N 0.15299(12) 1.0603(2) 0.78249(9)
N2 N 0.30462(10) 1.08424(18) 0.89592(8)
N3 N 0.32284(9) 0.97702(16) 0.83766(7)
O1 O 0.43871(10) 1.0182(2) 0.72867(8)
loop_
_geom_bond_atom_site_label_1
_geom_bond_atom_site_label_2
_geom_bond_site_symmetry_1
_geom_bond_site_symmetry_2
C1 H1 1_555 1_555
C2 H2 1_555 1_555
C3 H3 1_555 1_555
C4 C3 1_555 1_555
H4 C4 1_555 1_555
C5 C4 1_555 1_555
H5 C5 1_555 1_555
C6 C5 1_555 1_555
H6 C6 1_555 1_555
C7 C6 1_555 1_555
H7 C7 1_555 1_555
C8 C3 1_555 1_555
C9 C8 1_555 1_555
C10 C9 1_555 1_555
C11 C10 1_555 1_555
C12 C11 1_555 1_555
C13 C12 1_555 1_555
H8 C13 1_555 1_555
C14 C13 1_555 1_555
H9 C14 1_555 1_555
C15 C14 1_555 1_555
C16 C15 1_555 1_555
H10 C16 1_555 1_555
C17 C12 1_555 1_555
C18 C17 1_555 1_555
H11 C18 1_555 1_555
H12 C18 1_555 1_555
H13 C18 1_555 1_555
C19 C15 1_555 1_555
H14 C19 1_555 1_555
H15 C19 1_555 1_555
H16 C19 1_555 1_555
H17 C9 1_555 1_555
N1 C1 1_555 1_555
N2 C1 1_555 1_555
N3 C2 1_555 1_555
O1 C11 1_555 1_555
C2 N1 1_555 1_555
C7 C8 1_555 1_555
C10 N3 1_555 1_555
C16 C17 1_555 1_555
N2 N3 1_555 1_555

#END
