
#######################################################################
#
#                 Cambridge Crystallographic Data Centre
#                                CCDC 
#
#######################################################################
#
# If this CIF has been generated from an entry in the Cambridge 
# Structural Database, then it will include bibliographic, chemical, 
# crystal, experimental, refinement or atomic coordinate data resulting 
# from the CCDC's data processing and validation procedures.
#
#######################################################################

data_GAQTUP
_chemical_formula_moiety         'C12 H14 Cl1 N3 O3'
_chemical_name_systematic        
'Ethyl 3-((6-chloropyridin-3-yl)methyl)-2-oxoimidazolidine-1-carboxylate'
_symmetry_cell_setting           monoclinic
_symmetry_space_group_name_H-M   'P 21/c'
_symmetry_Int_Tables_number      14
_space_group_name_Hall           '-P 2ybc'
loop_
_symmetry_equiv_pos_site_id
_symmetry_equiv_pos_as_xyz
1 x,y,z
2 -x,1/2+y,1/2-z
3 -x,-y,-z
4 x,1/2-y,1/2+z
_cell_length_a                   13.3926(14)
_cell_length_b                   8.4991(8)
_cell_length_c                   12.3361(12)
_cell_angle_alpha                90
_cell_angle_beta                 106.538(10)
_cell_angle_gamma                90
_cell_volume                     1346.07
_exptl_crystal_colour            white
_exptl_crystal_description       plate
_chemical_melting_point          '362 K'
_cell_formula_units_Z            4
loop_
_atom_site_label
_atom_site_type_symbol
_atom_site_fract_x
_atom_site_fract_y
_atom_site_fract_z
Cl1 Cl -0.37380(8) 0.08507(14) -0.01623(10)
O1 O 0.06757(17) -0.2327(3) 0.42795(18)
O2 O 0.22097(18) -0.0437(3) 0.57542(18)
N1 N -0.2183(2) -0.0963(4) -0.0205(2)
C1 C -0.1521(3) -0.1394(4) 0.2107(3)
H1 H -0.1303 -0.1540 0.2887
C2 C -0.0976(2) -0.2097(3) 0.1434(2)
C3 C -0.1347(3) -0.1827(4) 0.0290(3)
H2 H -0.0987 -0.2282 -0.0173
C4 C -0.2373(3) -0.0491(4) 0.1629(3)
H3 H -0.2745 -0.0006 0.2070
C5 C -0.2664(2) -0.0322(4) 0.0476(3)
C6 C -0.0017(2) -0.3089(4) 0.1925(3)
H4 H -0.0165 -0.3841 0.2451
H5 H 0.0140 -0.3677 0.1320
N2 N 0.0890(2) -0.2170(3) 0.2508(2)
C7 C 0.1498(2) -0.1287(4) 0.1924(2)
H6 H 0.1105 -0.0411 0.1509
H7 H 0.1735 -0.1950 0.1406
C8 C 0.2408(3) -0.0717(4) 0.2892(3)
H8 H 0.3021 -0.1365 0.2968
H9 H 0.2579 0.0370 0.2782
N3 N 0.20128(18) -0.0880(3) 0.3875(2)
C9 C 0.1124(2) -0.1855(3) 0.3619(2)
C10 C 0.2523(3) -0.0357(4) 0.4938(3)
O3 O 0.34333(19) 0.0302(3) 0.4922(2)
C11 C 0.4057(3) 0.0951(5) 0.5990(4)
H10 H 0.3606 0.1450 0.6379
H11 H 0.4527 0.1742 0.5850
C12 C 0.4668(3) -0.0327(6) 0.6709(4)
H12 H 0.4200 -0.1055 0.6906
H13 H 0.5122 0.0120 0.7386
H14 H 0.5075 -0.0869 0.6299
loop_
_geom_bond_atom_site_label_1
_geom_bond_atom_site_label_2
_geom_bond_site_symmetry_1
_geom_bond_site_symmetry_2
Cl1 C5 1_555 1_555
O1 C9 1_555 1_555
O2 C10 1_555 1_555
N1 C3 1_555 1_555
C1 H1 1_555 1_555
C2 C1 1_555 1_555
C3 C2 1_555 1_555
H2 C3 1_555 1_555
C4 C1 1_555 1_555
H3 C4 1_555 1_555
C5 N1 1_555 1_555
C6 C2 1_555 1_555
H4 C6 1_555 1_555
H5 C6 1_555 1_555
N2 C6 1_555 1_555
C7 N2 1_555 1_555
H6 C7 1_555 1_555
H7 C7 1_555 1_555
C8 C7 1_555 1_555
H8 C8 1_555 1_555
H9 C8 1_555 1_555
N3 C8 1_555 1_555
C9 N2 1_555 1_555
C10 N3 1_555 1_555
O3 C10 1_555 1_555
C11 O3 1_555 1_555
H10 C11 1_555 1_555
H11 C11 1_555 1_555
C12 C11 1_555 1_555
H12 C12 1_555 1_555
H13 C12 1_555 1_555
H14 C12 1_555 1_555
C4 C5 1_555 1_555
N3 C9 1_555 1_555

#END
