
#######################################################################
#
#                 Cambridge Crystallographic Data Centre
#                                CCDC 
#
#######################################################################
#
# If this CIF has been generated from an entry in the Cambridge 
# Structural Database, then it will include bibliographic, chemical, 
# crystal, experimental, refinement or atomic coordinate data resulting 
# from the CCDC's data processing and validation procedures.
#
#######################################################################

data_GARFIQ
_chemical_formula_moiety         'C14 H14 N2 O2 S1'
_chemical_name_systematic        
1-(3-Hydroxyphenyl)-3-(3-methoxyphenyl)thiourea
_symmetry_cell_setting           triclinic
_symmetry_space_group_name_H-M   'P -1'
_symmetry_Int_Tables_number      2
_space_group_name_Hall           '-P 1'
loop_
_symmetry_equiv_pos_site_id
_symmetry_equiv_pos_as_xyz
1 x,y,z
2 -x,-y,-z
_cell_length_a                   6.9925(4)
_cell_length_b                   9.8666(6)
_cell_length_c                   10.4238(6)
_cell_angle_alpha                103.055(2)
_cell_angle_beta                 100.0330(10)
_cell_angle_gamma                90.5080(10)
_cell_volume                     688.988
_exptl_crystal_colour            colorless
_exptl_crystal_description       block
_chemical_melting_point          '401 K'
_cell_formula_units_Z            2
loop_
_atom_site_label
_atom_site_type_symbol
_atom_site_fract_x
_atom_site_fract_y
_atom_site_fract_z
C1 C 0.24836(18) 0.58574(16) 0.14956(13)
H1 H 0.2357 0.6671 0.2123
C2 C 0.23577(19) 0.58682(17) 0.01519(14)
C3 C 0.2516(2) 0.46570(19) -0.07750(15)
H2 H 0.2405 0.4666 -0.1675
C4 C 0.2838(2) 0.34340(19) -0.03709(16)
H3 H 0.2945 0.2617 -0.1001
C5 C 0.3005(2) 0.34057(17) 0.09647(16)
H4 H 0.3253 0.258 0.1239
C6 C 0.28010(19) 0.46141(16) 0.18824(13)
N1 N 0.29788(18) 0.46161(13) 0.32718(12)
H5 H 0.387(2) 0.5124(16) 0.3796(16)
C7 C 0.19730(19) 0.37739(14) 0.37909(13)
S1 S 0.26879(6) 0.36711(4) 0.53992(4)
N2 N 0.04156(17) 0.30682(13) 0.29859(12)
H6 H 0.007(2) 0.3295(17) 0.2288(16)
C8 C -0.07082(19) 0.19821(14) 0.32679(13)
C9 C 0.0066(2) 0.07050(14) 0.32391(13)
H7 H 0.1324 0.0564 0.3077
C10 C -0.1033(2) -0.03815(15) 0.34530(13)
C11 C -0.2904(2) -0.01681(17) 0.36628(16)
H8 H -0.366 -0.0894 0.3783
C12 C -0.3659(2) 0.11175(19) 0.3695(2)
H9 H -0.4917 0.1257 0.3858
C13 C -0.2575(2) 0.22180(17) 0.34868(17)
H10 H -0.3097 0.3083 0.3496
O1 O 0.20472(17) 0.70305(13) -0.03543(11)
C14 C 0.2042(3) 0.8340(2) 0.0567(2)
H11 H 0.1815 0.9061 0.0082
H12 H 0.3277 0.8528 0.116
H13 H 0.1031 0.8313 0.1078
O2 O -0.01696(17) -0.16246(11) 0.34188(11)
H14 H -0.080(3) -0.213(3) 0.385(2)
loop_
_geom_bond_atom_site_label_1
_geom_bond_atom_site_label_2
_geom_bond_site_symmetry_1
_geom_bond_site_symmetry_2
C1 H1 1_555 1_555
C2 C1 1_555 1_555
C3 C2 1_555 1_555
H2 C3 1_555 1_555
C4 C3 1_555 1_555
H3 C4 1_555 1_555
C5 C4 1_555 1_555
H4 C5 1_555 1_555
C6 C1 1_555 1_555
N1 C6 1_555 1_555
H5 N1 1_555 1_555
C7 N1 1_555 1_555
S1 C7 1_555 1_555
N2 C7 1_555 1_555
H6 N2 1_555 1_555
C8 N2 1_555 1_555
C9 C8 1_555 1_555
H7 C9 1_555 1_555
C10 C9 1_555 1_555
C11 C10 1_555 1_555
H8 C11 1_555 1_555
C12 C11 1_555 1_555
H9 C12 1_555 1_555
C13 C8 1_555 1_555
H10 C13 1_555 1_555
O1 C2 1_555 1_555
C14 O1 1_555 1_555
H11 C14 1_555 1_555
H12 C14 1_555 1_555
H13 C14 1_555 1_555
O2 C10 1_555 1_555
H14 O2 1_555 1_555
C5 C6 1_555 1_555
C12 C13 1_555 1_555

#END
