
#######################################################################
#
#                 Cambridge Crystallographic Data Centre
#                                CCDC 
#
#######################################################################
#
# If this CIF has been generated from an entry in the Cambridge 
# Structural Database, then it will include bibliographic, chemical, 
# crystal, experimental, refinement or atomic coordinate data resulting 
# from the CCDC's data processing and validation procedures.
#
#######################################################################

data_GARKOB
_chemical_name_common            
1,5-bis[(2-methoxyethoxy)methyl]-1,5-naphthyridine-4,8(1H,5H)-dione
_chemical_formula_moiety         'C16 H22 N2 O6'
_chemical_name_systematic        
1,5-bis((2-methoxyethoxy)methyl)-1,5-dihydro-1,5-naphthyridine-4,8-dione
_symmetry_cell_setting           monoclinic
_symmetry_space_group_name_H-M   'P 21/n'
_symmetry_Int_Tables_number      14
_space_group_name_Hall           '-P 2yn'
loop_
_symmetry_equiv_pos_site_id
_symmetry_equiv_pos_as_xyz
1 x,y,z
2 1/2-x,1/2+y,1/2-z
3 -x,-y,-z
4 1/2+x,1/2-y,1/2+z
_cell_length_a                   7.1610(14)
_cell_length_b                   11.497(2)
_cell_length_c                   10.734(2)
_cell_angle_alpha                90
_cell_angle_beta                 105.45(3)
_cell_angle_gamma                90
_cell_volume                     851.795
_exptl_crystal_colour            colorless
_exptl_crystal_description       block
_chemical_melting_point          '365 K'
_cell_formula_units_Z            2
loop_
_atom_site_label
_atom_site_type_symbol
_atom_site_fract_x
_atom_site_fract_y
_atom_site_fract_z
N1 N 0.03696(18) 0.64646(11) 0.57178(12)
O1 O 0.25472(18) 1.00854(10) 0.36603(13)
C1 C 0.2858(3) 1.0712(2) 0.2607(2)
H1 H 0.2389 1.1492 0.2623
H2 H 0.2177 1.0341 0.1815
H3 H 0.4219 1.0729 0.2665
O2 O 0.06007(17) 0.80910(9) 0.43882(11)
C2 C 0.1950(2) 0.62630(14) 0.67339(15)
H4 H 0.2437 0.6875 0.7292
C3 C 0.3185(3) 0.89321(17) 0.3692(2)
H5 H 0.4581 0.8917 0.3836
H6 H 0.2603 0.8560 0.2869
C4 C 0.2645(3) 0.82888(15) 0.4743(2)
H7 H 0.3325 0.7551 0.4890
H8 H 0.3014 0.8736 0.5537
O3 O 0.32189(18) 0.33513(10) 0.62397(14)
C5 C -0.0118(2) 0.77036(13) 0.54011(17)
H9 H -0.1514 0.7797 0.5165
H10 H 0.0419 0.8177 0.6160
C6 C 0.2837(2) 0.52236(14) 0.69674(16)
H11 H 0.3860 0.5132 0.7704
C7 C 0.2259(2) 0.42641(13) 0.61247(15)
C8 C 0.0437(2) 0.44520(12) 0.50952(13)
N1B N -0.03696(18) 0.35354(11) 0.42822(12)
O1B O -0.25472(18) -0.00854(10) 0.63397(13)
C1B C -0.2858(3) -0.0712(2) 0.7393(2)
H1B H -0.2389 -0.1492 0.7377
H2B H -0.2177 -0.0341 0.8185
H3B H -0.4219 -0.0729 0.7335
O2B O -0.06007(17) 0.19090(9) 0.56118(11)
C2B C -0.1950(2) 0.37370(14) 0.32661(15)
H4B H -0.2437 0.3125 0.2708
C3B C -0.3185(3) 0.10679(17) 0.6308(2)
H5B H -0.4581 0.1083 0.6164
H6B H -0.2603 0.1440 0.7131
C4B C -0.2645(3) 0.17112(15) 0.5257(2)
H7B H -0.3325 0.2449 0.5110
H8B H -0.3014 0.1264 0.4463
O3B O -0.32189(18) 0.66487(10) 0.37603(14)
C5B C 0.0118(2) 0.22964(13) 0.45989(17)
H9B H 0.1514 0.2203 0.4835
H10B H -0.0419 0.1823 0.3840
C6B C -0.2837(2) 0.47764(14) 0.30326(16)
H11B H -0.3860 0.4868 0.2296
C7B C -0.2259(2) 0.57359(13) 0.38753(15)
C8B C -0.0437(2) 0.55480(12) 0.49048(13)
loop_
_geom_bond_atom_site_label_1
_geom_bond_atom_site_label_2
_geom_bond_site_symmetry_1
_geom_bond_site_symmetry_2
N1 C2 1_555 1_555
O1 C1 1_555 1_555
C1 H1 1_555 1_555
H2 C1 1_555 1_555
H3 C1 1_555 1_555
O2 C4 1_555 1_555
C2 H4 1_555 1_555
C3 O1 1_555 1_555
H5 C3 1_555 1_555
H6 C3 1_555 1_555
C4 C3 1_555 1_555
H7 C4 1_555 1_555
H8 C4 1_555 1_555
O3 C7 1_555 1_555
C5 N1 1_555 1_555
H9 C5 1_555 1_555
H10 C5 1_555 1_555
C6 C2 1_555 1_555
H11 C6 1_555 1_555
C7 C6 1_555 1_555
C8 C7 1_555 1_555
N1B C8 1_555 1_555
O1B C1B 1_555 1_555
C1B H1B 1_555 1_555
H2B C1B 1_555 1_555
H3B C1B 1_555 1_555
O2B C4B 1_555 1_555
C2B N1B 1_555 1_555
H4B C2B 1_555 1_555
C3B O1B 1_555 1_555
H5B C3B 1_555 1_555
H6B C3B 1_555 1_555
C4B C3B 1_555 1_555
H7B C4B 1_555 1_555
H8B C4B 1_555 1_555
O3B C7B 1_555 1_555
C5B N1B 1_555 1_555
H9B C5B 1_555 1_555
H10B C5B 1_555 1_555
C6B C2B 1_555 1_555
H11B C6B 1_555 1_555
C7B C6B 1_555 1_555
C8B N1 1_555 1_555
O2 C5 1_555 1_555
C8 C8B 1_555 1_555
O2B C5B 1_555 1_555
C7B C8B 1_555 1_555

#END
