
#######################################################################
#
#                 Cambridge Crystallographic Data Centre
#                                CCDC 
#
#######################################################################
#
# If this CIF has been generated from an entry in the Cambridge 
# Structural Database, then it will include bibliographic, chemical, 
# crystal, experimental, refinement or atomic coordinate data resulting 
# from the CCDC's data processing and validation procedures.
#
#######################################################################

data_GARLAO
_chemical_name_common            
1,4-Dibutoxy-2,5-bis((Z)-2-[4-(9H-carbazol-9-yl)phenyl]ethenyl)benzene
_chemical_formula_moiety         'C54 H48 N2 O2'
_chemical_name_systematic        
9,9'-((2,5-Dibutoxy-1,4-phenylene)bis(ethene-2,1-diyl-4,1-phenylene))bis(9H-carbazole)
_symmetry_cell_setting           monoclinic
_symmetry_space_group_name_H-M   'P 21/c'
_symmetry_Int_Tables_number      14
_space_group_name_Hall           '-P 2ybc'
loop_
_symmetry_equiv_pos_site_id
_symmetry_equiv_pos_as_xyz
1 x,y,z
2 -x,1/2+y,1/2-z
3 -x,-y,-z
4 x,1/2-y,1/2+z
_cell_length_a                   8.437(5)
_cell_length_b                   13.229(5)
_cell_length_c                   19.165(5)
_cell_angle_alpha                90
_cell_angle_beta                 98.683(5)
_cell_angle_gamma                90
_cell_volume                     2114.55
_exptl_crystal_colour            yellow
_exptl_crystal_description       needle
_cell_formula_units_Z            2
loop_
_atom_site_label
_atom_site_type_symbol
_atom_site_fract_x
_atom_site_fract_y
_atom_site_fract_z
C1 C 0.6314(2) 0.01846(14) 0.30709(10)
C2 C 0.5261(3) 0.09216(18) 0.27681(12)
H1 H 0.5617 0.1571 0.2689
C3 C 0.3666(3) 0.0660(2) 0.25877(14)
H2 H 0.2937 0.1146 0.2390
C4 C 0.3127(3) -0.0308(2) 0.26946(15)
H3 H 0.2048 -0.0463 0.2562
C5 C 0.4158(3) -0.1037(2) 0.29922(13)
H4 H 0.3785 -0.1685 0.3063
C6 C 0.5790(3) -0.08014(16) 0.31913(10)
C7 C 0.7160(3) -0.13494(14) 0.35341(10)
C8 C 0.7409(4) -0.23444(16) 0.37736(12)
H5 H 0.6563 -0.2802 0.3724
C9 C 0.8896(4) -0.26362(17) 0.40789(12)
H6 H 0.9059 -0.3297 0.4239
C10 C 1.0173(4) -0.19693(18) 0.41564(11)
H7 H 1.1178 -0.2192 0.4367
C11 C 0.9989(3) -0.09695(16) 0.39257(10)
H8 H 1.0847 -0.0521 0.3976
C12 C 0.8465(3) -0.06768(14) 0.36177(9)
C13 C 0.8898(2) 0.11459(13) 0.33371(9)
C14 C 0.9683(2) 0.15220(14) 0.39700(9)
H9 H 0.9623 0.1178 0.4389
C15 C 0.9041(2) 0.16441(15) 0.27167(10)
H10 H 0.8548 0.1384 0.2288
C16 C 0.9915(2) 0.25288(14) 0.27323(9)
H11 H 1.0006 0.2857 0.2311
C17 C 1.0551(2) 0.24032(14) 0.39810(9)
H12 H 1.1077 0.2646 0.4410
C18 C 1.0662(2) 0.29390(13) 0.33655(9)
C19 C 1.1556(2) 0.38949(14) 0.33594(9)
H13 H 1.2118 0.3978 0.2982
C20 C 1.1673(2) 0.46543(14) 0.38176(10)
H14 H 1.2394 0.5161 0.3745
C21 C 1.0817(2) 0.48059(12) 0.44267(9)
C22 C 0.9217(2) 0.45503(13) 0.43986(10)
H15 H 0.8678 0.4248 0.3993
C23 C 0.8406(2) 0.47336(14) 0.49562(10)
C24 C 0.5859(3) 0.4184(3) 0.43144(16)
H16 H 0.6265 0.4481 0.3914
H17 H 0.4763 0.4411 0.4305
C25 C 0.5883(4) 0.3084(3) 0.42550(18)
H18 H 0.6980 0.2858 0.4264
H19 H 0.5274 0.2883 0.3806
C26 C 0.5189(4) 0.2581(3) 0.48432(18)
H20 H 0.4070 0.2769 0.4817
H21 H 0.5754 0.2811 0.5294
C27 C 0.533(2) 0.1370(7) 0.4794(7)
H22 H 0.4529 0.1121 0.4426
H23 H 0.5179 0.1073 0.5236
H24 H 0.6376 0.1193 0.4690
N1 N 0.7950(2) 0.02509(11) 0.33273(8)
O1 O 0.68197(18) 0.45206(16) 0.49568(9)
C1B C 1.3686(2) 0.98154(14) 0.69291(10)
C2B C 1.4739(3) 0.90784(18) 0.72319(12)
H1B H 1.4383 0.8429 0.7311
C3B C 1.6334(3) 0.9340(2) 0.74123(14)
H2B H 1.7063 0.8854 0.7610
C4B C 1.6873(3) 1.0308(2) 0.73054(15)
H3B H 1.7952 1.0463 0.7438
C5B C 1.5842(3) 1.1037(2) 0.70078(13)
H4B H 1.6215 1.1685 0.6937
C6B C 1.4210(3) 1.08014(16) 0.68087(10)
C7B C 1.2840(3) 1.13494(14) 0.64659(10)
C8B C 1.2591(4) 1.23444(16) 0.62264(12)
H5B H 1.3437 1.2802 0.6276
C9B C 1.1104(4) 1.26362(17) 0.59211(12)
H6B H 1.0941 1.3297 0.5761
C10B C 0.9827(4) 1.19693(18) 0.58436(11)
H7B H 0.8822 1.2192 0.5633
C11B C 1.0011(3) 1.09695(16) 0.60743(10)
H8B H 0.9153 1.0521 0.6024
C12B C 1.1535(3) 1.06768(14) 0.63823(9)
C13B C 1.1102(2) 0.88541(13) 0.66629(9)
C14B C 1.0317(2) 0.84780(14) 0.60300(9)
H9B H 1.0377 0.8822 0.5611
C15B C 1.0959(2) 0.83559(15) 0.72833(10)
H10B H 1.1452 0.8616 0.7712
C16B C 1.0085(2) 0.74712(14) 0.72677(9)
H11B H 0.9994 0.7143 0.7689
C17B C 0.9449(2) 0.75968(14) 0.60190(9)
H12B H 0.8923 0.7354 0.5590
C18B C 0.9338(2) 0.70610(13) 0.66345(9)
C19B C 0.8444(2) 0.61051(14) 0.66406(9)
H13B H 0.7882 0.6022 0.7018
C20B C 0.8327(2) 0.53457(14) 0.61824(10)
H14B H 0.7606 0.4839 0.6255
C21B C 0.9183(2) 0.51941(12) 0.55733(9)
C22B C 1.0783(2) 0.54497(13) 0.56014(10)
H15B H 1.1322 0.5752 0.6007
C23B C 1.1594(2) 0.52664(14) 0.50438(10)
C24B C 1.4141(3) 0.5816(3) 0.56856(16)
H16B H 1.3735 0.5519 0.6086
H17B H 1.5237 0.5589 0.5695
C25B C 1.4117(4) 0.6916(3) 0.57450(18)
H18B H 1.3020 0.7142 0.5736
H19B H 1.4726 0.7117 0.6194
C26B C 1.4811(4) 0.7419(3) 0.51568(18)
H20B H 1.5930 0.7231 0.5183
H21B H 1.4246 0.7189 0.4706
C27B C 1.467(2) 0.8630(7) 0.5206(7)
H22B H 1.5471 0.8879 0.5574
H23B H 1.4821 0.8927 0.4764
H24B H 1.3624 0.8807 0.5310
N1B N 1.2050(2) 0.97491(11) 0.66727(8)
O1B O 1.31803(18) 0.54794(16) 0.50432(9)
C28? C 0.470(3) 0.1500(14) 0.4664(14)
H25? H 0.4259 0.2958 0.4938
H26? H 0.5976 0.2588 0.5268
H27? H 0.4231 0.1459 0.4176
H28? H 0.3938 0.1283 0.4956
H29? H 0.5632 0.1073 0.4745
loop_
_geom_bond_atom_site_label_1
_geom_bond_atom_site_label_2
_geom_bond_site_symmetry_1
_geom_bond_site_symmetry_2
C1 C2 1_555 1_555
C2 H1 1_555 1_555
C3 C2 1_555 1_555
H2 C3 1_555 1_555
C4 C3 1_555 1_555
H3 C4 1_555 1_555
C5 C4 1_555 1_555
H4 C5 1_555 1_555
C6 C1 1_555 1_555
C7 C6 1_555 1_555
C8 C7 1_555 1_555
H5 C8 1_555 1_555
C9 C8 1_555 1_555
H6 C9 1_555 1_555
C10 C9 1_555 1_555
H7 C10 1_555 1_555
C11 C10 1_555 1_555
H8 C11 1_555 1_555
C12 C7 1_555 1_555
C13 C14 1_555 1_555
C14 H9 1_555 1_555
C15 C13 1_555 1_555
H10 C15 1_555 1_555
C16 C15 1_555 1_555
H11 C16 1_555 1_555
C17 C14 1_555 1_555
H12 C17 1_555 1_555
C18 C16 1_555 1_555
C19 C18 1_555 1_555
H13 C19 1_555 1_555
C20 C19 1_555 1_555
H14 C20 1_555 1_555
C21 C20 1_555 1_555
C22 C21 1_555 1_555
H15 C22 1_555 1_555
C23 C22 1_555 1_555
C24 H16 1_555 1_555
H17 C24 1_555 1_555
C25 C24 1_555 1_555
H18 C25 1_555 1_555
H19 C25 1_555 1_555
C26 C25 1_555 1_555
H20 C26 1_555 1_555
H21 C26 1_555 1_555
C27 C26 1_555 1_555
H22 C27 1_555 1_555
H23 C27 1_555 1_555
H24 C27 1_555 1_555
N1 C1 1_555 1_555
O1 C23 1_555 1_555
C1B C2B 1_555 1_555
C2B H1B 1_555 1_555
C3B C2B 1_555 1_555
H2B C3B 1_555 1_555
C4B C3B 1_555 1_555
H3B C4B 1_555 1_555
C5B C4B 1_555 1_555
H4B C5B 1_555 1_555
C6B C1B 1_555 1_555
C7B C6B 1_555 1_555
C8B C7B 1_555 1_555
H5B C8B 1_555 1_555
C9B C8B 1_555 1_555
H6B C9B 1_555 1_555
C10B C9B 1_555 1_555
H7B C10B 1_555 1_555
C11B C10B 1_555 1_555
H8B C11B 1_555 1_555
C12B C7B 1_555 1_555
C13B C14B 1_555 1_555
C14B H9B 1_555 1_555
C15B C13B 1_555 1_555
H10B C15B 1_555 1_555
C16B C15B 1_555 1_555
H11B C16B 1_555 1_555
C17B C14B 1_555 1_555
H12B C17B 1_555 1_555
C18B C16B 1_555 1_555
C19B C18B 1_555 1_555
H13B C19B 1_555 1_555
C20B C19B 1_555 1_555
H14B C20B 1_555 1_555
C21B C23 1_555 1_555
C22B C21B 1_555 1_555
H15B C22B 1_555 1_555
C23B C21 1_555 1_555
C24B H16B 1_555 1_555
H17B C24B 1_555 1_555
C25B C24B 1_555 1_555
H18B C25B 1_555 1_555
H19B C25B 1_555 1_555
C26B C25B 1_555 1_555
H20B C26B 1_555 1_555
H21B C26B 1_555 1_555
C27B C26B 1_555 1_555
H22B C27B 1_555 1_555
H23B C27B 1_555 1_555
H24B C27B 1_555 1_555
N1B C1B 1_555 1_555
O1B C23B 1_555 1_555
C5 C6 1_555 1_555
C11 C12 1_555 1_555
C12 N1 1_555 1_555
C13 N1 1_555 1_555
C17 C18 1_555 1_555
C24 O1 1_555 1_555
C5B C6B 1_555 1_555
C11B C12B 1_555 1_555
C12B N1B 1_555 1_555
C13B N1B 1_555 1_555
C17B C18B 1_555 1_555
C20B C21B 1_555 1_555
C22B C23B 1_555 1_555
C24B O1B 1_555 1_555

#END
