
#######################################################################
#
#                 Cambridge Crystallographic Data Centre
#                                CCDC 
#
#######################################################################
#
# If this CIF has been generated from an entry in the Cambridge 
# Structural Database, then it will include bibliographic, chemical, 
# crystal, experimental, refinement or atomic coordinate data resulting 
# from the CCDC's data processing and validation procedures.
#
#######################################################################

data_GARLER
_chemical_name_common            
'1-phenylethylammonium 4-((2,5-methanocyclopentyl)carbonyl)benzoate'
_chemical_formula_moiety         'C14 H13 O3 1-,C8 H12 N1 1+'
_chemical_name_systematic        
'(S)-(-)-1-Phenylethanaminium 4-(bicyclo[2.1.1]hex-5-ylcarbonyl)benzoate'
_symmetry_cell_setting           monoclinic
_symmetry_space_group_name_H-M   'P 21'
_symmetry_Int_Tables_number      4
_space_group_name_Hall           'P 2yb'
loop_
_symmetry_equiv_pos_site_id
_symmetry_equiv_pos_as_xyz
1 x,y,z
2 -x,1/2+y,-z
_cell_length_a                   12.654(3)
_cell_length_b                   6.347(1)
_cell_length_c                   12.841(3)
_cell_angle_alpha                90
_cell_angle_beta                 108.86(3)
_cell_angle_gamma                90
_cell_volume                     975.954
_exptl_crystal_colour            colorless
_exptl_crystal_description       plate
_cell_formula_units_Z            2
loop_
_atom_site_label
_atom_site_type_symbol
_atom_site_fract_x
_atom_site_fract_y
_atom_site_fract_z
C1 C 0.5606(4) 0.6564(7) 0.8053(4)
H1 H 0.5956 0.5174 0.8102
C2 C 0.4962(3) 0.7506(5) 0.6917(3)
H2 H 0.5440 0.8339 0.6606
C3 C 0.4427(4) 0.8839(10) 0.7616(4)
H3 H 0.3696 0.9501 0.7277
C4 C 0.5408(5) 1.0133(9) 0.8291(5)
H4 H 0.5274 1.0772 0.8923
H5 H 0.5608 1.1215 0.7855
C5 C 0.6279(4) 0.8408(8) 0.8624(4)
H6 H 0.6902 0.8686 0.8361
H7 H 0.6553 0.8214 0.9416
C6 C 0.4536(5) 0.6820(15) 0.8339(4)
H8 H 0.4645 0.7082 0.9111
H9 H 0.3974 0.5750 0.8034
C7 C 0.4179(3) 0.6093(5) 0.6087(3)
C8 C 0.3417(3) 0.7076(5) 0.5057(2)
C9 C 0.2558(3) 0.5873(5) 0.4360(3)
H10 H 0.2474 0.4480 0.4543
C10 C 0.1832(3) 0.6694(5) 0.3410(3)
H11 H 0.1263 0.5858 0.2960
C11 C 0.1942(2) 0.8757(4) 0.3117(2)
C12 C 0.2793(3) 0.9970(5) 0.3809(3)
H12 H 0.2877 1.1360 0.3620
C13 C 0.3512(3) 0.9162(5) 0.4764(3)
H13 H 0.4069 1.0013 0.5221
C14 C 0.1151(3) 0.9726(5) 0.2080(2)
O1 O 0.4161(3) 0.4198(4) 0.6208(2)
O2 O 0.0469(2) 0.8550(3) 0.14005(17)
O3 O 0.1230(2) 1.1640(4) 0.1933(2)
C15 C 0.1389(3) 0.9839(6) 0.7998(3)
C16 C 0.1019(3) 0.8293(8) 0.7213(3)
H14 H 0.0789 0.6995 0.7399
C17 C 0.0989(4) 0.8692(13) 0.6128(4)
H15 H 0.0740 0.7655 0.5593
C18 C 0.1327(5) 1.0612(16) 0.5859(5)
H16 H 0.1307 1.0876 0.5140
C19 C 0.1692(5) 1.2128(11) 0.6639(5)
H17 H 0.1917 1.3431 0.6456
C20 C 0.1725(4) 1.1729(7) 0.7694(4)
H18 H 0.1985 1.2773 0.8223
C21 C 0.1424(2) 0.9474(6) 0.9164(2)
H19 H 0.1847 1.0630 0.9615
C22 C 0.1982(4) 0.7395(7) 0.9660(4)
H20 H 0.2018 0.7310 1.0417
H21 H 0.2724 0.7342 0.9614
H22 H 0.1554 0.6234 0.9259
N1 N 0.0274(2) 0.9527(4) 0.92317(18)
H23 H 0.0304 0.9391 0.9931
H24 H -0.0124 0.8472 0.8837
H25 H -0.0048 1.0748 0.8968
loop_
_geom_bond_atom_site_label_1
_geom_bond_atom_site_label_2
_geom_bond_site_symmetry_1
_geom_bond_site_symmetry_2
C1 H1 1_555 1_555
C2 C1 1_555 1_555
H2 C2 1_555 1_555
C3 C2 1_555 1_555
H3 C3 1_555 1_555
C4 C3 1_555 1_555
H4 C4 1_555 1_555
H5 C4 1_555 1_555
C5 C1 1_555 1_555
H6 C5 1_555 1_555
H7 C5 1_555 1_555
C6 C1 1_555 1_555
H8 C6 1_555 1_555
H9 C6 1_555 1_555
C7 C2 1_555 1_555
C8 C7 1_555 1_555
C9 C8 1_555 1_555
H10 C9 1_555 1_555
C10 C9 1_555 1_555
H11 C10 1_555 1_555
C11 C10 1_555 1_555
C12 C11 1_555 1_555
H12 C12 1_555 1_555
C13 C8 1_555 1_555
H13 C13 1_555 1_555
C14 C11 1_555 1_555
O1 C7 1_555 1_555
O2 C14 1_555 1_555
O3 C14 1_555 1_555
C15 C16 1_555 1_555
C16 H14 1_555 1_555
C17 C16 1_555 1_555
H15 C17 1_555 1_555
C18 C17 1_555 1_555
H16 C18 1_555 1_555
C19 C18 1_555 1_555
H17 C19 1_555 1_555
C20 C15 1_555 1_555
H18 C20 1_555 1_555
C21 C15 1_555 1_555
H19 C21 1_555 1_555
C22 C21 1_555 1_555
H20 C22 1_555 1_555
H21 C22 1_555 1_555
H22 C22 1_555 1_555
N1 C21 1_555 1_555
H23 N1 1_555 1_555
H24 N1 1_555 1_555
H25 N1 1_555 1_555
C3 C6 1_555 1_555
C4 C5 1_555 1_555
C12 C13 1_555 1_555
C19 C20 1_555 1_555

#END
