
#######################################################################
#
#                 Cambridge Crystallographic Data Centre
#                                CCDC 
#
#######################################################################
#
# If this CIF has been generated from an entry in the Cambridge 
# Structural Database, then it will include bibliographic, chemical, 
# crystal, experimental, refinement or atomic coordinate data resulting 
# from the CCDC's data processing and validation procedures.
#
#######################################################################

data_GARMAP
_chemical_formula_moiety         'C26 H20 N2 O1'
_chemical_name_systematic        
(E)-3-[4-(Diphenylamino)phenyl]-1-(pyridin-2-yl)prop-2-en-1-one
_symmetry_cell_setting           monoclinic
_symmetry_space_group_name_H-M   'P 21/c'
_symmetry_Int_Tables_number      14
_space_group_name_Hall           '-P 2ybc'
loop_
_symmetry_equiv_pos_site_id
_symmetry_equiv_pos_as_xyz
1 x,y,z
2 -x,1/2+y,1/2-z
3 -x,-y,-z
4 x,1/2-y,1/2+z
_cell_length_a                   12.0342(3)
_cell_length_b                   17.4069(4)
_cell_length_c                   9.4392(2)
_cell_angle_alpha                90
_cell_angle_beta                 91.757(2)
_cell_angle_gamma                90
_cell_volume                     1976.38
_exptl_crystal_colour            orange
_exptl_crystal_description       block
_chemical_melting_point          '467 K'
_cell_formula_units_Z            4
loop_
_atom_site_label
_atom_site_type_symbol
_atom_site_fract_x
_atom_site_fract_y
_atom_site_fract_z
C1 C 0.37944(18) 0.15352(15) 0.1848(2)
C2 C 0.4306(2) 0.22083(15) 0.1472(3)
H1 H 0.4013 0.2498 0.0721
C3 C 0.5246(2) 0.24556(18) 0.2199(3)
H2 H 0.5590 0.2911 0.1939
C4 C 0.5675(2) 0.2031(2) 0.3304(3)
H3 H 0.6305 0.2204 0.3803
C5 C 0.5181(2) 0.13502(18) 0.3686(3)
H4 H 0.5484 0.1059 0.4428
C6 C 0.4231(2) 0.11022(15) 0.2955(3)
H5 H 0.3890 0.0646 0.3210
C7 C 0.28491(19) 0.11150(14) -0.0356(2)
C8 C 0.1950(2) 0.12480(17) -0.1262(3)
H6 H 0.1298 0.1450 -0.0913
C9 C 0.2017(3) 0.1082(2) -0.2684(3)
H7 H 0.1402 0.1166 -0.3285
C10 C 0.2972(3) 0.0796(2) -0.3223(3)
H8 H 0.3008 0.0683 -0.4183
C11 C 0.3868(3) 0.06786(17) -0.2342(3)
H9 H 0.4526 0.0493 -0.2706
C12 C 0.3814(2) 0.08311(15) -0.0914(3)
H10 H 0.4432 0.0742 -0.0321
C13 C 0.18324(18) 0.11941(14) 0.1885(2)
C14 C 0.1670(2) 0.16653(16) 0.3048(3)
H11 H 0.2185 0.2047 0.3277
C15 C 0.0747(2) 0.15704(16) 0.3865(3)
H12 H 0.0651 0.1894 0.4636
C16 C 0.10415(18) 0.06364(14) 0.1553(2)
H13 H 0.1133 0.0319 0.0773
C17 C 0.01208(19) 0.05508(15) 0.2374(3)
H14 H -0.0406 0.0180 0.2125
C18 C -0.00423(19) 0.10043(15) 0.3566(3)
C19 C -0.0996(2) 0.08741(15) 0.4450(3)
H15 H -0.1560 0.0565 0.4068
C20 C -0.1147(2) 0.11495(15) 0.5740(3)
H16 H -0.0612 0.1476 0.6138
C21 C -0.2123(2) 0.09591(15) 0.6561(3)
C22 C -0.21265(18) 0.11975(13) 0.8081(3)
C23 C -0.2974(2) 0.09692(16) 0.8930(3)
H17 H -0.3557 0.0674 0.8556
C24 C -0.2956(2) 0.11791(17) 1.0331(3)
H18 H -0.3519 0.1023 1.0920
C25 C -0.2104(2) 0.16171(17) 1.0843(3)
H19 H -0.2081 0.1782 1.1780
C26 C -0.1279(2) 0.18110(19) 0.9946(4)
H20 H -0.0683 0.2096 1.0312
N1 N 0.28066(15) 0.12811(12) 0.1108(2)
N2 N -0.12745(18) 0.16178(14) 0.8578(3)
O1 O -0.29203(14) 0.06052(12) 0.60544(19)
loop_
_geom_bond_atom_site_label_1
_geom_bond_atom_site_label_2
_geom_bond_site_symmetry_1
_geom_bond_site_symmetry_2
C1 C2 1_555 1_555
C2 H1 1_555 1_555
C3 C2 1_555 1_555
H2 C3 1_555 1_555
C4 C3 1_555 1_555
H3 C4 1_555 1_555
C5 C4 1_555 1_555
H4 C5 1_555 1_555
C6 C1 1_555 1_555
H5 C6 1_555 1_555
C7 C8 1_555 1_555
C8 H6 1_555 1_555
C9 C8 1_555 1_555
H7 C9 1_555 1_555
C10 C9 1_555 1_555
H8 C10 1_555 1_555
C11 C10 1_555 1_555
H9 C11 1_555 1_555
C12 C7 1_555 1_555
H10 C12 1_555 1_555
C13 C14 1_555 1_555
C14 H11 1_555 1_555
C15 C14 1_555 1_555
H12 C15 1_555 1_555
C16 C13 1_555 1_555
H13 C16 1_555 1_555
C17 C16 1_555 1_555
H14 C17 1_555 1_555
C18 C15 1_555 1_555
C19 C18 1_555 1_555
H15 C19 1_555 1_555
C20 C19 1_555 1_555
H16 C20 1_555 1_555
C21 C20 1_555 1_555
C22 C21 1_555 1_555
C23 C22 1_555 1_555
H17 C23 1_555 1_555
C24 C23 1_555 1_555
H18 C24 1_555 1_555
C25 C24 1_555 1_555
H19 C25 1_555 1_555
C26 C25 1_555 1_555
H20 C26 1_555 1_555
N1 C1 1_555 1_555
N2 C22 1_555 1_555
O1 C21 1_555 1_555
C5 C6 1_555 1_555
C7 N1 1_555 1_555
C11 C12 1_555 1_555
C13 N1 1_555 1_555
C17 C18 1_555 1_555
C26 N2 1_555 1_555

#END
