
#######################################################################
#
#                 Cambridge Crystallographic Data Centre
#                                CCDC 
#
#######################################################################
#
# If this CIF has been generated from an entry in the Cambridge 
# Structural Database, then it will include bibliographic, chemical, 
# crystal, experimental, refinement or atomic coordinate data resulting 
# from the CCDC's data processing and validation procedures.
#
#######################################################################

data_GARRID
_chemical_formula_moiety         'C15 H20 O3'
_chemical_name_systematic        
(5-ethyl-2-(2-phenylvinyl)-1,3-dioxan-5-yl)methanol
_symmetry_cell_setting           monoclinic
_symmetry_space_group_name_H-M   'P 21'
_symmetry_Int_Tables_number      4
_space_group_name_Hall           'P 2yb'
loop_
_symmetry_equiv_pos_site_id
_symmetry_equiv_pos_as_xyz
1 x,y,z
2 -x,1/2+y,-z
_cell_length_a                   5.717(2)
_cell_length_b                   11.684(4)
_cell_length_c                   10.569(4)
_cell_angle_alpha                90
_cell_angle_beta                 99.646(4)
_cell_angle_gamma                90
_cell_volume                     696.001
_exptl_crystal_colour            colorless
_exptl_crystal_description       block
_cell_formula_units_Z            2
loop_
_atom_site_label
_atom_site_type_symbol
_atom_site_fract_x
_atom_site_fract_y
_atom_site_fract_z
O1 O 0.3703(2) 0.66913(10) 0.44602(12)
C1 C 0.1635(2) 0.80880(11) 0.55921(14)
O2 O 0.0954(2) 0.78997(10) 0.32624(11)
C2 C -0.0138(2) 0.81655(13) 0.43488(15)
H1 H -0.1434 0.7637 0.4384
H2 H -0.0790 0.8933 0.4256
C3 C 0.2760(3) 0.69026(12) 0.56183(16)
H3 H 0.4025 0.6845 0.6352
H4 H 0.1578 0.6327 0.5711
C4 C 0.1939(3) 0.67915(14) 0.33535(17)
H5 H 0.0700 0.6213 0.3359
C5 C 0.0265(3) 0.82242(14) 0.67209(17)
H6 H -0.0571 0.8949 0.6623
H7 H -0.0920 0.7624 0.6659
O3 O 0.2486(2) 1.00973(10) 0.55092(18)
H8 H 0.3509 1.0587 0.5493
C6 C 0.3193(4) 0.66176(17) 0.2235(2)
H9 H 0.4371 0.7139 0.2125
C7 C 0.3554(2) 0.89979(13) 0.56120(19)
H10 H 0.4680 0.8945 0.6406
H11 H 0.4403 0.8876 0.4902
C8 C 0.2760(3) 0.57927(17) 0.14085(18)
H12 H 0.1540 0.5292 0.1509
C9 C 0.4014(3) 0.55753(15) 0.03268(16)
C10 C 0.3137(4) 0.4742(2) -0.0565(2)
H13 H 0.1785 0.4334 -0.0464
C11 C 0.6068(4) 0.61645(19) 0.0150(2)
H14 H 0.6696 0.6726 0.0732
C12 C 0.4238(6) 0.4515(3) -0.1592(2)
H15 H 0.3605 0.3964 -0.2188
C13 C 0.7170(4) 0.5914(2) -0.0891(2)
H16 H 0.8534 0.6307 -0.1005
C14 C 0.1734(5) 0.8184(3) 0.8051(2)
H17 H 0.2580 0.7472 0.8166
H18 H 0.0710 0.8249 0.8681
H19 H 0.2845 0.8807 0.8152
C15 C 0.6244(5) 0.5083(3) -0.1752(2)
H20 H 0.6990 0.4909 -0.2446
loop_
_geom_bond_atom_site_label_1
_geom_bond_atom_site_label_2
_geom_bond_site_symmetry_1
_geom_bond_site_symmetry_2
O1 C3 1_555 1_555
C1 C2 1_555 1_555
O2 C2 1_555 1_555
C2 H1 1_555 1_555
H2 C2 1_555 1_555
C3 C1 1_555 1_555
H3 C3 1_555 1_555
H4 C3 1_555 1_555
C4 O1 1_555 1_555
H5 C4 1_555 1_555
C5 C1 1_555 1_555
H6 C5 1_555 1_555
H7 C5 1_555 1_555
O3 H8 1_555 1_555
C6 C4 1_555 1_555
H9 C6 1_555 1_555
C7 C1 1_555 1_555
H10 C7 1_555 1_555
H11 C7 1_555 1_555
C8 C6 1_555 1_555
H12 C8 1_555 1_555
C9 C8 1_555 1_555
C10 C9 1_555 1_555
H13 C10 1_555 1_555
C11 C9 1_555 1_555
H14 C11 1_555 1_555
C12 C10 1_555 1_555
H15 C12 1_555 1_555
C13 C11 1_555 1_555
H16 C13 1_555 1_555
C14 C5 1_555 1_555
H17 C14 1_555 1_555
H18 C14 1_555 1_555
H19 C14 1_555 1_555
C15 C12 1_555 1_555
H20 C15 1_555 1_555
O2 C4 1_555 1_555
O3 C7 1_555 1_555
C13 C15 1_555 1_555

#END
