
#######################################################################
#
#                 Cambridge Crystallographic Data Centre
#                                CCDC 
#
#######################################################################
#
# If this CIF has been generated from an entry in the Cambridge 
# Structural Database, then it will include bibliographic, chemical, 
# crystal, experimental, refinement or atomic coordinate data resulting 
# from the CCDC's data processing and validation procedures.
#
#######################################################################

data_GARWOL
_chemical_formula_moiety         'C11 H7 N5 O4 S1,0.8(C1 H2 Cl2)'
_chemical_name_systematic        
'3-Phenyl-4-(N-carbamyl-1,4,2-oxathiazolimin-3-yl)syndone dichloromethane solvate'
_symmetry_cell_setting           orthorhombic
_symmetry_space_group_name_H-M   'P b n a'
_symmetry_Int_Tables_number      60
_space_group_name_Hall           '-P 2ac 2b'
loop_
_symmetry_equiv_pos_site_id
_symmetry_equiv_pos_as_xyz
1 x,y,z
2 1/2-x,-y,1/2+z
3 x,1/2-y,-z
4 1/2-x,1/2+y,1/2-z
5 -x,-y,-z
6 1/2+x,y,1/2-z
7 -x,1/2+y,z
8 1/2+x,1/2-y,1/2+z
_cell_length_a                   10.410(2)
_cell_length_b                   11.658(4)
_cell_length_c                   23.108(3)
_cell_angle_alpha                90
_cell_angle_beta                 90
_cell_angle_gamma                90
_cell_volume                     2804.38
_exptl_crystal_colour            colorless
_cell_formula_units_Z            8
loop_
_atom_site_label
_atom_site_type_symbol
_atom_site_fract_x
_atom_site_fract_y
_atom_site_fract_z
S1 S 0.0277(1) 0.3189(1) 0.3874(1)
C1 C -0.3847(5) 0.4729(4) 0.3204(2)
C2 C -0.4167(5) 0.3716(4) 0.2937(2)
C3 C -0.5443(5) 0.3373(5) 0.2962(2)
C4 C -0.6328(5) 0.4047(6) 0.3250(3)
C5 C -0.5981(5) 0.5045(5) 0.3514(3)
C6 C -0.4699(6) 0.5418(5) 0.3493(2)
C7 C -0.0407(5) 0.5379(4) 0.3163(2)
C8 C -0.1415(5) 0.4643(4) 0.3342(2)
C9 C -0.1282(5) 0.3644(4) 0.3694(2)
N1 N -0.2222(4) 0.3048(4) 0.3899(2)
O1 O -0.1739(3) 0.2137(3) 0.4245(2)
C10 C -0.0445(5) 0.2072(4) 0.4262(2)
N2 N 0.0050(5) 0.1267(3) 0.4554(2)
C11 C 0.1409(5) 0.1228(5) 0.4550(2)
N3 N 0.1862(4) 0.0342(4) 0.4872(2)
O2 O 0.2073(4) 0.1893(3) 0.4271(2)
N4 N -0.2523(4) 0.5123(4) 0.3148(2)
N5 N -0.2359(4) 0.6090(4) 0.2862(2)
O3 O -0.1061(3) 0.6269(3) 0.2868(1)
O4 O 0.0735(3) 0.5385(3) 0.3219(2)
H1 H -0.3493 0.3243 0.2668
H2 H -0.5781 0.2702 0.2692
H3 H -0.4397 0.6213 0.3700
H4 H -0.7335 0.3772 0.3274
H5 H -0.6720 0.5632 0.3633
H6 H 0.2773 0.0543 0.4909
H7 H 0.1039 0.0009 0.5149
loop_
_geom_bond_atom_site_label_1
_geom_bond_atom_site_label_2
_geom_bond_site_symmetry_1
_geom_bond_site_symmetry_2
S1 C9 1_555 1_555
C1 C2 1_555 1_555
C2 C3 1_555 1_555
C3 C4 1_555 1_555
C4 C5 1_555 1_555
C5 C6 1_555 1_555
C6 C1 1_555 1_555
C7 C8 1_555 1_555
C8 C9 1_555 1_555
C9 N1 1_555 1_555
N1 O1 1_555 1_555
O1 C10 1_555 1_555
C10 S1 1_555 1_555
N2 C10 1_555 1_555
C11 N2 1_555 1_555
N3 C11 1_555 1_555
O2 C11 1_555 1_555
N4 C1 1_555 1_555
N5 N4 1_555 1_555
O3 C7 1_555 1_555
O4 C7 1_555 1_555
H1 C2 1_555 1_555
H2 C3 1_555 1_555
H3 C6 1_555 1_555
H4 C4 1_555 1_555
H5 C5 1_555 1_555
H6 N3 1_555 1_555
H7 N3 1_555 1_555
C8 N4 1_555 1_555
N5 O3 1_555 1_555

#END
