
#######################################################################
#
#                 Cambridge Crystallographic Data Centre
#                                CCDC 
#
#######################################################################
#
# If this CIF has been generated from an entry in the Cambridge 
# Structural Database, then it will include bibliographic, chemical, 
# crystal, experimental, refinement or atomic coordinate data resulting 
# from the CCDC's data processing and validation procedures.
#
#######################################################################

data_GASBUZ
_chemical_formula_moiety         'C36 H38 N4 O4 S2'
_chemical_name_systematic        
"8,8'-Dimethyl-1,1'-bis((4-methylphenyl)sulfonyl)-2,2',3,3',8,8',8a,8a'-octahydro-1H,1'H-3a,3a'-bipyrrolo[2,3-b]indole unknown solvate"
_symmetry_cell_setting           monoclinic
_symmetry_space_group_name_H-M   'C 2/c'
_symmetry_Int_Tables_number      15
_space_group_name_Hall           '-C 2yn'
loop_
_symmetry_equiv_pos_site_id
_symmetry_equiv_pos_as_xyz
1 x,y,z
2 -x,y,1/2-z
3 1/2+x,1/2+y,z
4 1/2-x,1/2+y,1/2-z
5 -x,-y,-z
6 x,-y,1/2+z
7 1/2-x,1/2-y,-z
8 1/2+x,1/2-y,1/2+z
_cell_length_a                   31.563(7)
_cell_length_b                   12.194(3)
_cell_length_c                   19.897(4)
_cell_angle_alpha                90
_cell_angle_beta                 102.099(3)
_cell_angle_gamma                90
_cell_volume                     7487.84
_exptl_crystal_colour            colorless
_exptl_crystal_description       block
_cell_formula_units_Z            8
loop_
_atom_site_label
_atom_site_type_symbol
_atom_site_fract_x
_atom_site_fract_y
_atom_site_fract_z
C1 C 0.21097(12) 0.2299(3) 0.58719(19)
C2 C 0.24297(15) 0.3037(3) 0.5825(2)
H1 H 0.2362 0.3736 0.5648
C3 C 0.28497(15) 0.2721(4) 0.6046(2)
H2 H 0.3070 0.3220 0.6026
C4 C 0.29586(13) 0.1682(4) 0.6297(2)
H3 H 0.3248 0.1478 0.6427
C5 C 0.26330(12) 0.0935(3) 0.63564(19)
H4 H 0.2702 0.0235 0.6530
C6 C 0.22066(12) 0.1261(3) 0.61511(18)
C7 C 0.17911(11) 0.0631(3) 0.61317(18)
C8 C 0.14639(11) 0.1366(3) 0.56375(17)
H5 H 0.1184 0.1398 0.5777
C9 C 0.17867(12) -0.0461(3) 0.5760(2)
H6 H 0.2058 -0.0851 0.5913
H7 H 0.1550 -0.0920 0.5836
C10 C 0.17253(12) -0.0142(3) 0.5010(2)
H8 H 0.1997 0.0074 0.4896
H9 H 0.1599 -0.0738 0.4711
C11 C 0.07244(12) -0.0459(3) 0.4420(2)
C12 C 0.07330(14) -0.1265(4) 0.3949(2)
H10 H 0.0893 -0.1168 0.3610
C13 C 0.05049(17) -0.2228(4) 0.3973(3)
H11 H 0.0520 -0.2781 0.3657
C14 C 0.02587(14) -0.2379(4) 0.4452(3)
C15 C 0.02618(13) -0.1577(4) 0.4943(2)
H12 H 0.0104 -0.1685 0.5283
C16 C 0.04931(13) -0.0626(4) 0.4939(2)
H13 H 0.0496 -0.0098 0.5278
C17 C -0.00081(18) -0.3407(5) 0.4459(3)
H14 H -0.0236 -0.3267 0.4699
H15 H 0.0174 -0.3985 0.4686
H16 H -0.0131 -0.3623 0.3995
C18 C 0.14579(15) 0.3343(3) 0.5293(3)
H17 H 0.1610 0.4001 0.5465
H18 H 0.1163 0.3393 0.5345
H19 H 0.1464 0.3254 0.4816
C19 C 0.09620(14) 0.1092(4) 0.6951(2)
C20 C 0.05239(15) 0.0991(5) 0.6966(2)
H20 H 0.0361 0.1589 0.7055
C21 C 0.03423(16) -0.0041(7) 0.6841(2)
H21 H 0.0047 -0.0123 0.6825
C22 C 0.05818(17) -0.0963(5) 0.6739(2)
H22 H 0.0452 -0.1651 0.6675
C23 C 0.10128(14) -0.0832(4) 0.6734(2)
H23 H 0.1178 -0.1438 0.6667
C24 C 0.12009(12) 0.0179(3) 0.68268(18)
C25 C 0.16704(11) 0.0537(3) 0.68597(18)
C26 C 0.16674(13) 0.1685(3) 0.72093(18)
H24 H 0.1849 0.2213 0.7028
C27 C 0.19165(13) 0.0260(3) 0.8070(2)
H25 H 0.1668 -0.0089 0.8194
H26 H 0.2170 0.0130 0.8431
C28 C 0.19849(12) -0.0149(3) 0.73891(19)
H27 H 0.1917 -0.0924 0.7333
H28 H 0.2282 -0.0034 0.7345
C29 C 0.26533(14) 0.1903(3) 0.8652(2)
C30 C 0.2869(2) 0.1703(3) 0.9318(2)
H29 H 0.2723 0.1746 0.9677
C31 C 0.3302(2) 0.1439(4) 0.9446(3)
H30 H 0.3450 0.1338 0.9898
C32 C 0.35241(19) 0.1320(4) 0.8920(4)
C33 C 0.32929(18) 0.1532(4) 0.8258(3)
H31 H 0.3435 0.1475 0.7895
C34 C 0.28703(16) 0.1815(4) 0.8120(2)
H32 H 0.2726 0.1950 0.7670
C35 C 0.39942(19) 0.1024(5) 0.9078(4)
H33 H 0.4081 0.0823 0.9554
H34 H 0.4162 0.1641 0.8986
H35 H 0.4042 0.0417 0.8796
C36 C 0.10849(18) 0.3025(4) 0.7310(3)
H36 H 0.0793 0.3190 0.7080
H37 H 0.1274 0.3602 0.7225
H38 H 0.1099 0.2966 0.7795
N1 N 0.16619(10) 0.2420(2) 0.56723(16)
N2 N 0.14240(9) 0.0795(2) 0.49624(15)
N3 N 0.12165(12) 0.2014(3) 0.70579(17)
N4 N 0.18411(11) 0.1452(2) 0.79452(15)
O1 O 0.11010(9) 0.0845(2) 0.37207(13)
O2 O 0.07212(8) 0.1648(2) 0.45567(14)
O3 O 0.20726(11) 0.3353(2) 0.81137(16)
O4 O 0.19610(11) 0.2269(3) 0.91113(15)
S1 S 0.09871(3) 0.08022(9) 0.43754(5)
S2 S 0.21067(4) 0.23318(9) 0.84741(6)
loop_
_geom_bond_atom_site_label_1
_geom_bond_atom_site_label_2
_geom_bond_site_symmetry_1
_geom_bond_site_symmetry_2
C1 C2 1_555 1_555
C2 H1 1_555 1_555
C3 C2 1_555 1_555
H2 C3 1_555 1_555
C4 C3 1_555 1_555
H3 C4 1_555 1_555
C5 C4 1_555 1_555
H4 C5 1_555 1_555
C6 C1 1_555 1_555
C7 C6 1_555 1_555
C8 C7 1_555 1_555
H5 C8 1_555 1_555
C9 C7 1_555 1_555
H6 C9 1_555 1_555
H7 C9 1_555 1_555
C10 C9 1_555 1_555
H8 C10 1_555 1_555
H9 C10 1_555 1_555
C11 C12 1_555 1_555
C12 H10 1_555 1_555
C13 C12 1_555 1_555
H11 C13 1_555 1_555
C14 C13 1_555 1_555
C15 C14 1_555 1_555
H12 C15 1_555 1_555
C16 C11 1_555 1_555
H13 C16 1_555 1_555
C17 C14 1_555 1_555
H14 C17 1_555 1_555
H15 C17 1_555 1_555
H16 C17 1_555 1_555
C18 H17 1_555 1_555
H18 C18 1_555 1_555
H19 C18 1_555 1_555
C19 C20 1_555 1_555
C20 H20 1_555 1_555
C21 C20 1_555 1_555
H21 C21 1_555 1_555
C22 C21 1_555 1_555
H22 C22 1_555 1_555
C23 C22 1_555 1_555
H23 C23 1_555 1_555
C24 C19 1_555 1_555
C25 C7 1_555 1_555
C26 C25 1_555 1_555
H24 C26 1_555 1_555
C27 H25 1_555 1_555
H26 C27 1_555 1_555
C28 C25 1_555 1_555
H27 C28 1_555 1_555
H28 C28 1_555 1_555
C29 C30 1_555 1_555
C30 H29 1_555 1_555
C31 C30 1_555 1_555
H30 C31 1_555 1_555
C32 C31 1_555 1_555
C33 C32 1_555 1_555
H31 C33 1_555 1_555
C34 C29 1_555 1_555
H32 C34 1_555 1_555
C35 C32 1_555 1_555
H33 C35 1_555 1_555
H34 C35 1_555 1_555
H35 C35 1_555 1_555
C36 H36 1_555 1_555
H37 C36 1_555 1_555
H38 C36 1_555 1_555
N1 C1 1_555 1_555
N2 C8 1_555 1_555
N3 C19 1_555 1_555
N4 C26 1_555 1_555
O1 S1 1_555 1_555
O2 S1 1_555 1_555
O3 S2 1_555 1_555
O4 S2 1_555 1_555
S1 C11 1_555 1_555
S2 C29 1_555 1_555
C5 C6 1_555 1_555
C8 N1 1_555 1_555
C10 N2 1_555 1_555
C15 C16 1_555 1_555
C18 N1 1_555 1_555
C23 C24 1_555 1_555
C24 C25 1_555 1_555
C26 N3 1_555 1_555
C27 C28 1_555 1_555
C27 N4 1_555 1_555
C33 C34 1_555 1_555
C36 N3 1_555 1_555
N2 S1 1_555 1_555
N4 S2 1_555 1_555

#END
