
#######################################################################
#
#                 Cambridge Crystallographic Data Centre
#                                CCDC 
#
#######################################################################
#
# If this CIF has been generated from an entry in the Cambridge 
# Structural Database, then it will include bibliographic, chemical, 
# crystal, experimental, refinement or atomic coordinate data resulting 
# from the CCDC's data processing and validation procedures.
#
#######################################################################

data_GASCOS01
_chemical_name_common            'Trimethyl isocyanurate'
_chemical_formula_moiety         'C6 H9 N3 O3'
_chemical_name_systematic        
1,3,5-Trimethyl-1,3,5-triazine-2,4,6(1H,3H,5H)-trione
_symmetry_cell_setting           monoclinic
_symmetry_space_group_name_H-M   'P 21/a'
_symmetry_Int_Tables_number      14
_space_group_name_Hall           '-P 2yab'
loop_
_symmetry_equiv_pos_site_id
_symmetry_equiv_pos_as_xyz
1 x,y,z
2 1/2-x,1/2+y,-z
3 -x,-y,-z
4 1/2+x,1/2-y,z
_cell_length_a                   8.142
_cell_length_b                   13.393
_cell_length_c                   14.822
_cell_angle_alpha                90
_cell_angle_beta                 100.88
_cell_angle_gamma                90
_cell_volume                     1587.22
_cell_formula_units_Z            8
loop_
_atom_site_label
_atom_site_type_symbol
_atom_site_fract_x
_atom_site_fract_y
_atom_site_fract_z
C1 C 0.2057(3) 0.9455(2) 0.0763(2)
C2 C 0.1266(3) 1.0961(2) 0.1485(2)
C3 C -0.0502(3) 0.9489(2) 0.1375(2)
C4 C 0.0334(5) 0.7964(2) 0.0683(3)
C5 C 0.3901(5) 1.0899(4) 0.0913(4)
C6 C -0.1372(5) 1.1017(3) 0.2044(3)
N1 N 0.0602(2) 0.9026(1) 0.0919(1)
N2 N 0.2323(2) 1.0432(1) 0.1044(1)
N3 N -0.0163(2) 1.0469(1) 0.1606(1)
O1 O 0.3032(3) 0.9012(2) 0.0386(1)
O2 O 0.1551(3) 1.1810(1) 0.1749(1)
O3 O -0.1711(2) 0.9065(2) 0.1551(2)
H1 H 0.092(5) 0.759(3) 0.113(3)
H2 H 0.050(6) 0.786(4) 0.011(4)
H3 H -0.074(8) 0.766(4) 0.086(4)
H4 H 0.387(6) 1.093(4) 0.030(4)
H5 H 0.478(7) 1.048(4) 0.126(4)
H6 H 0.396(9) 1.152(7) 0.111(6)
H7 H -0.237(8) 1.118(4) 0.175(4)
H8 H -0.090(9) 1.148(6) 0.242(6)
H9 H -0.15(1) 1.055(7) 0.258(6)
C7 C 0.5949(3) 0.8467(2) 0.4675(2)
C8 C 0.3398(3) 0.8925(2) 0.5204(2)
C9 C 0.3467(3) 0.8937(2) 0.3577(2)
C10 C 0.6065(6) 0.8555(4) 0.3039(3)
C11 C 0.5840(7) 0.8376(3) 0.6314(2)
C12 C 0.0884(4) 0.9347(4) 0.4094(3)
N4 N 0.5114(2) 0.8651(2) 0.3797(1)
N5 N 0.5050(3) 0.8618(2) 0.5357(1)
N6 N 0.2673(2) 0.9076(2) 0.4303(1)
O4 O 0.7396(2) 0.8193(2) 0.4836(2)
O5 O 0.2654(3) 0.9078(2) 0.5822(1)
O6 O 0.2770(2) 0.9075(2) 0.2791(1)
H10 H 0.731(9) 0.846(6) 0.331(5)
H11 H 0.622(9) 0.905(5) 0.271(5)
H12 H 0.586(7) 0.791(4) 0.287(4)
H13 H 0.521(7) 0.787(4) 0.660(3)
H14 H 0.616(7) 0.900(4) 0.672(4)
H15 H 0.677(7) 0.805(4) 0.629(4)
H16 H 0.078(5) 1.009(3) 0.420(3)
H17 H 0.046(7) 0.910(4) 0.456(4)
H18 H 0.030(6) 0.930(4) 0.341(4)
loop_
_geom_bond_atom_site_label_1
_geom_bond_atom_site_label_2
_geom_bond_site_symmetry_1
_geom_bond_site_symmetry_2
C1 N1 1_555 1_555
C2 N2 1_555 1_555
C3 N1 1_555 1_555
C4 N1 1_555 1_555
C5 N2 1_555 1_555
C6 N3 1_555 1_555
N2 C1 1_555 1_555
N3 C2 1_555 1_555
O1 C1 1_555 1_555
O2 C2 1_555 1_555
O3 C3 1_555 1_555
H1 C4 1_555 1_555
H2 C4 1_555 1_555
H3 C4 1_555 1_555
H4 C5 1_555 1_555
H5 C5 1_555 1_555
H6 C5 1_555 1_555
H7 C6 1_555 1_555
H8 C6 1_555 1_555
H9 C6 1_555 1_555
C7 N4 1_555 1_555
C8 N5 1_555 1_555
C9 N4 1_555 1_555
C10 N4 1_555 1_555
C11 N5 1_555 1_555
C12 N6 1_555 1_555
N5 C7 1_555 1_555
N6 C8 1_555 1_555
O4 C7 1_555 1_555
O5 C8 1_555 1_555
O6 C9 1_555 1_555
H10 C10 1_555 1_555
H11 C10 1_555 1_555
H12 C10 1_555 1_555
H13 C11 1_555 1_555
H14 C11 1_555 1_555
H15 C11 1_555 1_555
H16 C12 1_555 1_555
H17 C12 1_555 1_555
H18 C12 1_555 1_555
C3 N3 1_555 1_555
C9 N6 1_555 1_555

#END
