
#######################################################################
#
#                 Cambridge Crystallographic Data Centre
#                                CCDC 
#
#######################################################################
#
# If this CIF has been generated from an entry in the Cambridge 
# Structural Database, then it will include bibliographic, chemical, 
# crystal, experimental, refinement or atomic coordinate data resulting 
# from the CCDC's data processing and validation procedures.
#
#######################################################################

data_GASHEQ
_chemical_formula_moiety         'C117 H123 N3 O6,2(C1 H4 O1),3(C1 H2 Cl2)'
_chemical_name_systematic        
'3,17,20-trimethyl-3,17,30-triaza-7,13,21-trioxa-5,6,7,12,14,15,21,22,24-nonabenzena-9,11,25(1,3)-tri(2-hydroxy-5-pentylbenzena)-1(1,3,5)-(2,4,6-triethylbenzena)-10(1,3,5)-(2,4,6-trimethylbenzena)-bicyclo(8.8.8)pentacosaphane dichloromethane methanol unknown solvate'
_symmetry_cell_setting           triclinic
_symmetry_space_group_name_H-M   'P -1'
_symmetry_Int_Tables_number      2
_space_group_name_Hall           '-P 1'
loop_
_symmetry_equiv_pos_site_id
_symmetry_equiv_pos_as_xyz
1 x,y,z
2 -x,-y,-z
_cell_length_a                   17.7964(3)
_cell_length_b                   20.6944(5)
_cell_length_c                   21.5845(4)
_cell_angle_alpha                109.368(2)
_cell_angle_beta                 106.354(2)
_cell_angle_gamma                104.440(2)
_cell_volume                     6660.24
_exptl_crystal_colour            colorless
_exptl_crystal_description       prism
_cell_formula_units_Z            2
loop_
_atom_site_label
_atom_site_type_symbol
_atom_site_fract_x
_atom_site_fract_y
_atom_site_fract_z
Cl1 Cl 0.83996(14) 0.68972(12) 0.07080(11)
Cl2 Cl 0.94078(11) 0.70940(10) -0.01088(9)
C1 C 0.8799(5) 0.7363(4) 0.0200(4)
H1 H 0.8306 0.7302 -0.0201
H2 H 0.9093 0.7899 0.0519
Cl3 Cl 0.37413(8) 0.19832(7) 0.71680(9)
Cl4 Cl 0.25416(7) 0.27079(6) 0.71846(10)
C2 C 0.3589(2) 0.2802(2) 0.7302(3)
H3 H 0.3735 0.2980 0.6962
H4 H 0.3976 0.3179 0.7793
Cl5 Cl 0.26877(12) 0.13710(11) 0.28149(13)
Cl6 Cl 0.42108(9) 0.10348(10) 0.31171(9)
C3 C 0.3198(3) 0.0814(3) 0.2492(4)
H5 H 0.3249 0.0858 0.2061
H6 H 0.2847 0.0292 0.2344
O1 O 0.63625(15) 0.27752(12) 0.79647(11)
O2 O 0.15309(17) 0.57292(14) 0.33078(13)
O3 O -0.14112(13) 0.03159(12) 0.43342(12)
O4 O 0.21790(14) 0.54722(11) 0.62730(11)
H7 H 0.2169 0.5255 0.6539
O5 O 0.11179(12) 0.35120(11) 0.66273(10)
H8 H 0.0784 0.3426 0.6220
O6 O 0.39966(12) 0.45467(11) 0.78690(10)
H9 H 0.3640 0.4670 0.7637
N1 N 0.23755(16) -0.11308(14) 0.14940(14)
N2 N 0.37181(17) 0.14708(14) 0.11696(14)
N3 N 0.61472(16) 0.01313(13) 0.26589(13)
C4 C 0.8137(3) 0.8931(3) 1.1102(3)
H10 H 0.7924 0.8507 1.0635
H11 H 0.8594 0.8890 1.1449
H12 H 0.8354 0.9390 1.1059
C5 C 0.26733(19) 0.44625(17) 0.86870(15)
H13 H 0.3272 0.4619 0.8987
H14 H 0.2468 0.3955 0.8318
H15 H 0.2346 0.4482 0.8985
C6 C 0.7437(3) 0.8937(2) 1.1352(2)
H16 H 0.7016 0.9046 1.1034
H17 H 0.7670 0.9342 1.1840
C7 C 0.27503(19) -0.13773(16) 0.09725(17)
H18 H 0.2322 -0.1560 0.0482
H19 H 0.2907 -0.1794 0.1010
C8 C 0.6988(2) 0.8220(2) 1.13665(19)
H20 H 0.6621 0.8308 1.1629
H21 H 0.7419 0.8083 1.1639
C9 C 0.6451(2) 0.75704(19) 1.06373(17)
H22 H 0.6817 0.7474 1.0376
H23 H 0.6022 0.7706 1.0360
C10 C 0.59933(18) 0.68508(17) 1.06753(14)
H24 H 0.6421 0.6702 1.0936
H25 H 0.5638 0.6948 1.0948
C11 C 0.54431(17) 0.62228(15) 0.99412(13)
C12 C 0.46508(17) 0.61863(15) 0.95527(14)
H26 H 0.4448 0.6550 0.9763
C13 C 0.41435(17) 0.56275(15) 0.88586(14)
C14 C 0.44576(16) 0.51040(14) 0.85472(13)
C15 C 0.52405(16) 0.51080(14) 0.89343(13)
C16 C 0.57202(16) 0.56783(15) 0.96303(13)
H27 H 0.6253 0.5691 0.9897
C17 C 0.55483(15) 0.45134(14) 0.86524(13)
C18 C 0.59115(18) 0.42269(15) 0.91039(14)
H28 H 0.5971 0.4426 0.9588
C19 C 0.61895(18) 0.36588(16) 0.88655(15)
H29 H 0.6440 0.3476 0.9185
C20 C 0.61018(17) 0.33611(15) 0.81637(15)
C21 C 0.57577(17) 0.36401(15) 0.76961(13)
H30 H 0.5711 0.3443 0.7216
C22 C 0.31670(17) 0.60335(14) 0.81237(14)
C23 C 0.54825(16) 0.42150(14) 0.79448(14)
H31 H 0.5247 0.4407 0.7628
C24 C 0.6341(2) 0.24908(17) 0.72759(16)
C25 C 0.5679(2) 0.18571(19) 0.67496(18)
H32 H 0.5234 0.1617 0.6853
C26 C 0.5666(2) 0.15693(18) 0.60647(18)
H33 H 0.5204 0.1134 0.5701
C27 C 0.63153(18) 0.19034(16) 0.58998(16)
C28 C 0.69926(19) 0.25340(16) 0.64520(16)
H34 H 0.7453 0.2766 0.6359
C29 C 0.7003(2) 0.28275(16) 0.71360(16)
H35 H 0.7465 0.3259 0.7506
C30 C 0.62869(18) 0.16255(16) 0.51644(16)
C31 C 0.5892(2) 0.08749(17) 0.46804(18)
H36 H 0.5628 0.0528 0.4827
C32 C 0.5873(2) 0.06236(17) 0.39964(17)
H37 H 0.5608 0.0110 0.3685
C33 C 0.62413(19) 0.11173(16) 0.37604(16)
C34 C 0.66241(19) 0.18650(16) 0.42306(17)
H38 H 0.6876 0.2211 0.4078
C35 C 0.66444(19) 0.21133(16) 0.49141(17)
H39 H 0.6908 0.2628 0.5222
C36 C 0.6204(2) 0.08876(16) 0.30094(16)
H40 H 0.5708 0.0943 0.2716
H41 H 0.6716 0.1229 0.3023
C37 C 0.6931(2) 0.0053(2) 0.29887(18)
H42 H 0.6865 -0.0465 0.2765
H43 H 0.7069 0.0210 0.3502
H44 H 0.7389 0.0363 0.2922
C38 C 0.59229(18) -0.01081(15) 0.18858(15)
H45 H 0.5947 -0.0602 0.1676
H46 H 0.6343 0.0242 0.1813
C39 C 0.50510(18) -0.01445(14) 0.15037(14)
C40 C 0.43465(18) -0.07333(15) 0.13987(15)
C41 C 0.35304(18) -0.07608(15) 0.10932(15)
C42 C 0.34033(17) -0.02127(16) 0.08746(14)
C43 C 0.41029(18) 0.03596(15) 0.09617(14)
C44 C 0.49283(17) 0.03998(14) 0.12813(14)
C45 C 0.56825(18) 0.10255(16) 0.13808(15)
H47 H 0.6169 0.1144 0.1818
H48 H 0.5542 0.1472 0.1453
C46 C 0.5941(2) 0.0840(2) 0.07474(19)
H49 H 0.5458 0.0710 0.0310
H50 H 0.6120 0.0421 0.0693
H51 H 0.6410 0.1271 0.0831
C47 C 0.4503(2) -0.13457(18) 0.1588(2)
H52 H 0.4040 -0.1575 0.1710
H53 H 0.5041 -0.1134 0.2014
C48 C 0.4547(3) -0.19351(19) 0.0964(3)
H54 H 0.3984 -0.2209 0.0574
H55 H 0.4745 -0.2277 0.1123
H56 H 0.4942 -0.1697 0.0795
C49 C 0.25153(18) -0.02509(18) 0.05215(16)
H57 H 0.2530 0.0258 0.0633
H58 H 0.2147 -0.0476 0.0724
C50 C 0.2133(2) -0.0704(2) -0.02947(19)
H59 H 0.2472 -0.0464 -0.0502
H60 H 0.1551 -0.0734 -0.0494
H61 H 0.2133 -0.1204 -0.0409
C51 C 0.39491(19) 0.09281(17) 0.07027(16)
H62 H 0.4468 0.1195 0.0665
H63 H 0.3490 0.0669 0.0217
C52 C 0.4382(2) 0.19158(18) 0.18881(18)
H64 H 0.4555 0.1589 0.2088
H65 H 0.4168 0.2219 0.2194
H66 H 0.4870 0.2239 0.1865
C53 C 0.3539(2) 0.1952(2) 0.0827(2)
H67 H 0.3110 0.1637 0.0332
H68 H 0.4062 0.2219 0.0796
C54 C 0.3227(2) 0.2507(2) 0.12009(19)
C55 C 0.2633(3) 0.2319(2) 0.1486(2)
H69 H 0.2429 0.1831 0.1449
C56 C 0.2342(2) 0.2836(2) 0.1821(2)
H70 H 0.1943 0.2698 0.2013
C57 C 0.2623(2) 0.35567(18) 0.18844(18)
C58 C 0.3204(2) 0.37340(19) 0.15844(19)
H71 H 0.3402 0.4217 0.1610
C59 C 0.3494(2) 0.3208(2) 0.12498(18)
H72 H 0.3887 0.3340 0.1050
C60 C 0.2338(2) 0.41177(18) 0.22591(18)
C61 C 0.1518(2) 0.39333(19) 0.2233(2)
H73 H 0.1130 0.3433 0.1966
C62 C 0.1259(2) 0.4466(2) 0.2589(2)
H74 H 0.0699 0.4330 0.2570
C63 C 0.1816(2) 0.51962(19) 0.29749(18)
C64 C 0.2623(2) 0.53975(19) 0.29983(19)
H75 H 0.2999 0.5902 0.3250
C65 C 0.2885(2) 0.4861(2) 0.26537(18)
H76 H 0.3450 0.5001 0.2685
C66 C 0.1679(2) 0.59153(16) 0.40226(17)
C67 C 0.2295(2) 0.57933(18) 0.44754(19)
H77 H 0.2645 0.5568 0.4304
C68 C 0.23943(19) 0.60060(17) 0.51897(18)
H78 H 0.2818 0.5925 0.5502
C69 C 0.18877(18) 0.63317(15) 0.54502(17)
C70 C 0.12760(19) 0.64532(15) 0.49806(18)
H79 H 0.0927 0.6681 0.5151
C71 C 0.11691(19) 0.62482(15) 0.42740(18)
H80 H 0.0750 0.6334 0.3962
C72 C 0.19885(17) 0.65745(15) 0.62092(17)
C73 C 0.21366(18) 0.61506(15) 0.65924(17)
C74 C 0.22321(17) 0.64039(15) 0.73083(16)
C75 C 0.21786(18) 0.70786(16) 0.76468(18)
H81 H 0.2257 0.7255 0.8136
C76 C 0.20091(19) 0.75057(16) 0.72738(18)
C77 C 0.19252(18) 0.72458(16) 0.65735(18)
H82 H 0.1819 0.7536 0.6324
C78 C 0.1899(2) 0.82219(19) 0.7632(2)
H83 H 0.2212 0.8425 0.8156
H84 H 0.2158 0.8584 0.7473
C79 C 0.1024(3) 0.8147(4) 0.7484(4)
H85 H 0.0721 0.7933 0.6958
H86 H 0.0776 0.7777 0.7640
C80 C 0.0831(7) 0.8778(6) 0.7785(6)
H87 H 0.0789 0.9004 0.7445
H88 H 0.1341 0.9131 0.8223
C81 C 0.0096(9) 0.8783(11) 0.7992(10)
H89 H 0.0202 0.8712 0.8436
H90 H 0.0057 0.9274 0.8098
C82 C -0.0706(8) 0.8218(8) 0.7445(10)
H91 H -0.0817 0.8282 0.7003
H92 H -0.1160 0.8261 0.7609
H93 H -0.0684 0.7728 0.7354
C83 C 0.23570(18) 0.59208(15) 0.76845(15)
C84 C 0.16512(17) 0.53347(15) 0.75573(14)
C85 C 0.17635(16) 0.48610(14) 0.78840(14)
C86 C 0.25714(17) 0.49719(14) 0.83354(13)
C87 C 0.32769(17) 0.55607(14) 0.84459(13)
C88 C 0.39260(19) 0.66650(17) 0.82446(19)
H94 H 0.4088 0.7085 0.8703
H95 H 0.3781 0.6816 0.7856
H96 H 0.4400 0.6503 0.8254
C89 C 0.07792(19) 0.52012(18) 0.70595(19)
H97 H 0.0679 0.4894 0.6566
H98 H 0.0741 0.5676 0.7098
H99 H 0.0352 0.4947 0.7193
C90 C 0.10053(16) 0.42099(14) 0.77170(14)
C91 C 0.05701(17) 0.42400(15) 0.81602(14)
H100 H 0.0784 0.4668 0.8601
C92 C -0.01758(18) 0.36586(16) 0.79780(15)
C93 C -0.04728(17) 0.30438(15) 0.73301(14)
H101 H -0.0991 0.2653 0.7188
C94 C -0.00407(16) 0.29773(14) 0.68793(14)
C95 C 0.07073(16) 0.35725(14) 0.70810(14)
C96 C -0.0624(2) 0.3694(2) 0.84780(17)
H102 H -0.0263 0.3672 0.8907
H103 H -0.1154 0.3251 0.8237
C97 C -0.0838(3) 0.4371(2) 0.8720(2)
H104 H -0.1230 0.4394 0.8307
H105 H -0.0320 0.4827 0.8970
C98 C -0.1286(3) 0.4277(4) 0.9263(3)
H106 H -0.1823 0.3838 0.8996
H107 H -0.0911 0.4198 0.9643
C99 C -0.1469(3) 0.4976(3) 0.9610(3)
H108 H -0.1771 0.4894 0.9916
H109 H -0.0926 0.5402 0.9922
C100 C -0.1994(4) 0.5161(3) 0.9062(3)
H110 H -0.1689 0.5262 0.8770
H111 H -0.2100 0.5599 0.9307
H112 H -0.2534 0.4742 0.8753
C101 C -0.03782(16) 0.22890(14) 0.61992(13)
C102 C -0.11990(17) 0.20318(15) 0.57026(15)
H113 H -0.1548 0.2301 0.5794
C103 C -0.15244(17) 0.13842(15) 0.50690(15)
H114 H -0.2082 0.1223 0.4725
C104 C -0.10268(18) 0.09825(15) 0.49491(15)
C105 C -0.02120(19) 0.12108(17) 0.54467(17)
H115 H 0.0121 0.0922 0.5369
C106 C 0.01083(18) 0.18702(16) 0.60621(16)
H116 H 0.0673 0.2039 0.6397
C107 C -0.09758(18) 0.00909(16) 0.39150(15)
C108 C -0.13117(18) -0.06572(16) 0.34620(16)
H117 H -0.1791 -0.0980 0.3467
C109 C -0.09433(19) -0.09323(16) 0.29998(16)
H118 H -0.1180 -0.1445 0.2685
C110 C -0.02321(19) -0.04696(17) 0.29885(16)
C111 C 0.0075(2) 0.0279(2) 0.3439(2)
H119 H 0.0551 0.0609 0.3434
C112 C -0.0296(3) 0.05585(19) 0.3896(2)
H120 H -0.0079 0.1074 0.4195
C113 C 0.01856(19) -0.07712(17) 0.25166(16)
C114 C 0.0161(2) -0.14893(19) 0.23225(19)
H121 H -0.0148 -0.1802 0.2478
C115 C 0.0605(2) -0.03536(18) 0.2235(2)
H122 H 0.0605 0.0129 0.2331
C116 C 0.1020(2) -0.0631(2) 0.1818(2)
H123 H 0.1306 -0.0332 0.1639
C117 C 0.0577(2) -0.17575(19) 0.19089(19)
H124 H 0.0555 -0.2249 0.1792
C118 C 0.10268(19) -0.13286(18) 0.16590(17)
C119 C 0.1487(2) -0.16246(18) 0.12105(19)
H125 H 0.1462 -0.2115 0.1191
H126 H 0.1196 -0.1694 0.0716
C120 C 0.2850(3) -0.1093(2) 0.2178(2)
H127 H 0.2833 -0.1587 0.2120
H128 H 0.2600 -0.0911 0.2518
H129 H 0.3439 -0.0756 0.2361
O7 O 0.05042(18) 0.32511(16) 0.52175(15)
H148 H 0.0935 0.3559 0.5243
C127 C 0.0340(4) 0.2598(3) 0.4735(3)
H149 H 0.0134 0.2586 0.4258
H150 H -0.0095 0.2225 0.4765
H151 H 0.0856 0.2490 0.4818
O8 O 0.26157(13) 0.44346(11) 0.67476(11)
H152 H 0.2171 0.4190 0.6760
C128 C 0.2745(3) 0.3988(2) 0.61505(19)
H153 H 0.2480 0.4066 0.5732
H154 H 0.2491 0.3465 0.6044
H155 H 0.3353 0.4127 0.6267
H130? H 0.1060 0.8649 0.7770
H131? H 0.0783 0.8062 0.6978
C121? C 0.0411(7) 0.7687(7) 0.7556(7)
H132? H 0.0589 0.7802 0.8071
H133? H 0.0375 0.7177 0.7304
C122? C -0.0458(9) 0.7691(9) 0.7292(8)
H134? H -0.0893 0.7234 0.7214
H135? H -0.0594 0.7754 0.6843
C123? C -0.0376(15) 0.8378(10) 0.7926(12)
H136? H -0.0292 0.8801 0.7807
H137? H 0.0109 0.8495 0.8356
H138? H -0.0893 0.8272 0.8016
H139? H -0.0280 0.4786 0.8968
H140? H -0.1118 0.4399 0.8269
C124? C -0.1281(5) 0.4590(7) 0.9122(5)
H141? H -0.0958 0.4646 0.9605
H142? H -0.1817 0.4159 0.8922
C125? C -0.1530(14) 0.5261(10) 0.9245(10)
H143? H -0.1971 0.5175 0.8794
H144? H -0.1031 0.5700 0.9374
C126? C -0.1865(8) 0.5423(8) 0.9841(6)
H145? H -0.2265 0.5665 0.9748
H146? H -0.1391 0.5750 1.0304
H147? H -0.2152 0.4958 0.9849
loop_
_geom_bond_atom_site_label_1
_geom_bond_atom_site_label_2
_geom_bond_site_symmetry_1
_geom_bond_site_symmetry_2
Cl1 C1 1_555 1_555
Cl2 C1 1_555 1_555
C1 H1 1_555 1_555
H2 C1 1_555 1_555
Cl3 C2 1_555 1_555
Cl4 C2 1_555 1_555
C2 H3 1_555 1_555
H4 C2 1_555 1_555
Cl5 C3 1_555 1_555
Cl6 C3 1_555 1_555
C3 H5 1_555 1_555
H6 C3 1_555 1_555
O1 C20 1_555 1_555
O2 C63 1_555 1_555
O3 C104 1_555 1_555
O4 H7 1_555 1_555
O5 H8 1_555 1_555
O6 H9 1_555 1_555
N1 C7 1_555 1_555
N2 C51 1_555 1_555
N3 C36 1_555 1_555
C4 H10 1_555 1_555
H11 C4 1_555 1_555
H12 C4 1_555 1_555
C5 H13 1_555 1_555
H14 C5 1_555 1_555
H15 C5 1_555 1_555
C6 C4 1_555 1_555
H16 C6 1_555 1_555
H17 C6 1_555 1_555
C7 H18 1_555 1_555
H19 C7 1_555 1_555
C8 C6 1_555 1_555
H20 C8 1_555 1_555
H21 C8 1_555 1_555
C9 C8 1_555 1_555
H22 C9 1_555 1_555
H23 C9 1_555 1_555
C10 C9 1_555 1_555
H24 C10 1_555 1_555
H25 C10 1_555 1_555
C11 C10 1_555 1_555
C12 C11 1_555 1_555
H26 C12 1_555 1_555
C13 C12 1_555 1_555
C14 O6 1_555 1_555
C15 C14 1_555 1_555
C16 C11 1_555 1_555
H27 C16 1_555 1_555
C17 C15 1_555 1_555
C18 C17 1_555 1_555
H28 C18 1_555 1_555
C19 C18 1_555 1_555
H29 C19 1_555 1_555
C20 C19 1_555 1_555
C21 C20 1_555 1_555
H30 C21 1_555 1_555
C22 C83 1_555 1_555
C23 C17 1_555 1_555
H31 C23 1_555 1_555
C24 O1 1_555 1_555
C25 C24 1_555 1_555
H32 C25 1_555 1_555
C26 C25 1_555 1_555
H33 C26 1_555 1_555
C27 C26 1_555 1_555
C28 C27 1_555 1_555
H34 C28 1_555 1_555
C29 C24 1_555 1_555
H35 C29 1_555 1_555
C30 C27 1_555 1_555
C31 C30 1_555 1_555
H36 C31 1_555 1_555
C32 C31 1_555 1_555
H37 C32 1_555 1_555
C33 C32 1_555 1_555
C34 C33 1_555 1_555
H38 C34 1_555 1_555
C35 C30 1_555 1_555
H39 C35 1_555 1_555
C36 C33 1_555 1_555
H40 C36 1_555 1_555
H41 C36 1_555 1_555
C37 N3 1_555 1_555
H42 C37 1_555 1_555
H43 C37 1_555 1_555
H44 C37 1_555 1_555
C38 N3 1_555 1_555
H45 C38 1_555 1_555
H46 C38 1_555 1_555
C39 C38 1_555 1_555
C40 C39 1_555 1_555
C41 C7 1_555 1_555
C42 C41 1_555 1_555
C43 C42 1_555 1_555
C44 C39 1_555 1_555
C45 C44 1_555 1_555
H47 C45 1_555 1_555
H48 C45 1_555 1_555
C46 C45 1_555 1_555
H49 C46 1_555 1_555
H50 C46 1_555 1_555
H51 C46 1_555 1_555
C47 C40 1_555 1_555
H52 C47 1_555 1_555
H53 C47 1_555 1_555
C48 C47 1_555 1_555
H54 C48 1_555 1_555
H55 C48 1_555 1_555
H56 C48 1_555 1_555
C49 C42 1_555 1_555
H57 C49 1_555 1_555
H58 C49 1_555 1_555
C50 C49 1_555 1_555
H59 C50 1_555 1_555
H60 C50 1_555 1_555
H61 C50 1_555 1_555
C51 C43 1_555 1_555
H62 C51 1_555 1_555
H63 C51 1_555 1_555
C52 N2 1_555 1_555
H64 C52 1_555 1_555
H65 C52 1_555 1_555
H66 C52 1_555 1_555
C53 N2 1_555 1_555
H67 C53 1_555 1_555
H68 C53 1_555 1_555
C54 C53 1_555 1_555
C55 C54 1_555 1_555
H69 C55 1_555 1_555
C56 C55 1_555 1_555
H70 C56 1_555 1_555
C57 C56 1_555 1_555
C58 C57 1_555 1_555
H71 C58 1_555 1_555
C59 C54 1_555 1_555
H72 C59 1_555 1_555
C60 C57 1_555 1_555
C61 C60 1_555 1_555
H73 C61 1_555 1_555
C62 C61 1_555 1_555
H74 C62 1_555 1_555
C63 C62 1_555 1_555
C64 C63 1_555 1_555
H75 C64 1_555 1_555
C65 C60 1_555 1_555
H76 C65 1_555 1_555
C66 O2 1_555 1_555
C67 C66 1_555 1_555
H77 C67 1_555 1_555
C68 C67 1_555 1_555
H78 C68 1_555 1_555
C69 C68 1_555 1_555
C70 C69 1_555 1_555
H79 C70 1_555 1_555
C71 C66 1_555 1_555
H80 C71 1_555 1_555
C72 C69 1_555 1_555
C73 O4 1_555 1_555
C74 C73 1_555 1_555
C75 C74 1_555 1_555
H81 C75 1_555 1_555
C76 C75 1_555 1_555
C77 C72 1_555 1_555
H82 C77 1_555 1_555
C78 C76 1_555 1_555
H83 C78 1_555 1_555
H84 C78 1_555 1_555
C79 C78 1_555 1_555
H85 C79 1_555 1_555
H86 C79 1_555 1_555
C80 C79 1_555 1_555
H87 C80 1_555 1_555
H88 C80 1_555 1_555
C81 C80 1_555 1_555
H89 C81 1_555 1_555
H90 C81 1_555 1_555
C82 C81 1_555 1_555
H91 C82 1_555 1_555
H92 C82 1_555 1_555
H93 C82 1_555 1_555
C83 C74 1_555 1_555
C84 C83 1_555 1_555
C85 C84 1_555 1_555
C86 C5 1_555 1_555
C87 C13 1_555 1_555
C88 C22 1_555 1_555
H94 C88 1_555 1_555
H95 C88 1_555 1_555
H96 C88 1_555 1_555
C89 C84 1_555 1_555
H97 C89 1_555 1_555
H98 C89 1_555 1_555
H99 C89 1_555 1_555
C90 C85 1_555 1_555
C91 C90 1_555 1_555
H100 C91 1_555 1_555
C92 C91 1_555 1_555
C93 C92 1_555 1_555
H101 C93 1_555 1_555
C94 C93 1_555 1_555
C95 O5 1_555 1_555
C96 C92 1_555 1_555
H102 C96 1_555 1_555
H103 C96 1_555 1_555
C97 C96 1_555 1_555
H104 C97 1_555 1_555
H105 C97 1_555 1_555
C98 C97 1_555 1_555
H106 C98 1_555 1_555
H107 C98 1_555 1_555
C99 C98 1_555 1_555
H108 C99 1_555 1_555
H109 C99 1_555 1_555
C100 C99 1_555 1_555
H110 C100 1_555 1_555
H111 C100 1_555 1_555
H112 C100 1_555 1_555
C101 C94 1_555 1_555
C102 C101 1_555 1_555
H113 C102 1_555 1_555
C103 C102 1_555 1_555
H114 C103 1_555 1_555
C104 C103 1_555 1_555
C105 C104 1_555 1_555
H115 C105 1_555 1_555
C106 C101 1_555 1_555
H116 C106 1_555 1_555
C107 O3 1_555 1_555
C108 C107 1_555 1_555
H117 C108 1_555 1_555
C109 C108 1_555 1_555
H118 C109 1_555 1_555
C110 C109 1_555 1_555
C111 C110 1_555 1_555
H119 C111 1_555 1_555
C112 C107 1_555 1_555
H120 C112 1_555 1_555
C113 C110 1_555 1_555
C114 C113 1_555 1_555
H121 C114 1_555 1_555
C115 C113 1_555 1_555
H122 C115 1_555 1_555
C116 C115 1_555 1_555
H123 C116 1_555 1_555
C117 C114 1_555 1_555
H124 C117 1_555 1_555
C118 C116 1_555 1_555
C119 N1 1_555 1_555
H125 C119 1_555 1_555
H126 C119 1_555 1_555
C120 N1 1_555 1_555
H127 C120 1_555 1_555
H128 C120 1_555 1_555
H129 C120 1_555 1_555
O7 H148 1_555 1_555
C127 O7 1_555 1_555
H149 C127 1_555 1_555
H150 C127 1_555 1_555
H151 C127 1_555 1_555
O8 H152 1_555 1_555
C128 O8 1_555 1_555
H153 C128 1_555 1_555
H154 C128 1_555 1_555
H155 C128 1_555 1_555
C13 C14 1_555 1_555
C15 C16 1_555 1_555
C21 C23 1_555 1_555
C22 C87 1_555 1_555
C28 C29 1_555 1_555
C34 C35 1_555 1_555
C40 C41 1_555 1_555
C43 C44 1_555 1_555
C58 C59 1_555 1_555
C64 C65 1_555 1_555
C70 C71 1_555 1_555
C72 C73 1_555 1_555
C76 C77 1_555 1_555
C85 C86 1_555 1_555
C86 C87 1_555 1_555
C90 C95 1_555 1_555
C94 C95 1_555 1_555
C105 C106 1_555 1_555
C111 C112 1_555 1_555
C117 C118 1_555 1_555
C118 C119 1_555 1_555

#END
