
#######################################################################
#
#                 Cambridge Crystallographic Data Centre
#                                CCDC 
#
#######################################################################
#
# If this CIF has been generated from an entry in the Cambridge 
# Structural Database, then it will include bibliographic, chemical, 
# crystal, experimental, refinement or atomic coordinate data resulting 
# from the CCDC's data processing and validation procedures.
#
#######################################################################

data_GASQUN
_chemical_compound_source        'Aspergillus terreus'
_chemical_formula_moiety         'C26 H32 O8'
_chemical_name_systematic        'Terretonin A'
_symmetry_cell_setting           monoclinic
_symmetry_space_group_name_H-M   'P 21'
_symmetry_Int_Tables_number      4
_space_group_name_Hall           'P 2yb'
loop_
_symmetry_equiv_pos_site_id
_symmetry_equiv_pos_as_xyz
1 x,y,z
2 -x,1/2+y,-z
_cell_length_a                   8.6564(10)
_cell_length_b                   8.9699(10)
_cell_length_c                   15.7331(18)
_cell_angle_alpha                90
_cell_angle_beta                 91.492(2)
_cell_angle_gamma                90
_cell_volume                     1221.21
_exptl_crystal_colour            colorless
_exptl_crystal_description       block
_chemical_melting_point          '232-233 deg.C'
_cell_formula_units_Z            2
_exptl_crystal_recrystallization_method acetone
loop_
_atom_site_label
_atom_site_type_symbol
_atom_site_fract_x
_atom_site_fract_y
_atom_site_fract_z
O1 O -0.4773(2) 0.5170(3) 0.05187(13)
O2 O 0.1367(2) 0.5338(2) 0.06822(11)
H1 H 0.2313(17) 0.558(4) 0.070(2)
O3 O 0.29381(17) 0.7037(2) 0.17596(10)
O4 O 0.3812(2) 0.6649(2) 0.35302(11)
O5 O 0.44605(18) 0.89465(19) 0.38205(10)
O6 O 0.2176(2) 1.1657(3) 0.46645(13)
O7 O 0.4888(3) 1.0600(3) 0.23810(13)
O8 O 0.3617(3) 1.2490(2) 0.29192(14)
C1 C -0.2669(3) 0.8439(3) 0.12274(15)
H2 H -0.3144 0.9217 0.1560
H3 H -0.1940 0.8908 0.0853
C2 C -0.3914(3) 0.7649(3) 0.06929(17)
H4 H -0.4909 0.7829 0.0944
H5 H -0.3945 0.8084 0.0128
C3 C -0.3684(3) 0.6012(3) 0.06139(15)
C4 C -0.2012(3) 0.5447(3) 0.05923(16)
C5 C -0.0975(3) 0.6289(3) 0.12455(13)
C6 C 0.0571(3) 0.6155(3) 0.12610(13)
C7 C 0.1572(2) 0.6904(2) 0.18987(13)
C8 C 0.0829(2) 0.7453(2) 0.27044(12)
C9 C -0.0614(2) 0.8309(2) 0.23674(13)
H6 H -0.0221 0.9051 0.1970
C10 C -0.1784(2) 0.7351(2) 0.18356(12)
C11 C -0.1347(3) 0.9213(3) 0.30809(16)
H7 H -0.2249 0.9738 0.2857
H8 H -0.1680 0.8543 0.3524
C12 C -0.0205(3) 1.0316(3) 0.34489(14)
C13 C 0.1227(2) 0.9577(3) 0.38526(13)
C14 C 0.1938(2) 0.8575(2) 0.31451(12)
H9 H 0.2235 0.9269 0.2697
C15 C 0.3441(3) 0.7935(3) 0.34928(13)
C16 C 0.4092(3) 1.0500(3) 0.38299(15)
C17 C 0.2447(3) 1.0708(3) 0.41526(14)
C18 C -0.1943(4) 0.3774(4) 0.0772(3)
H10 H -0.2296 0.3583 0.1335
H11 H -0.0897 0.3431 0.0727
H12 H -0.2592 0.3255 0.0365
C19 C -0.1525(4) 0.5796(5) -0.03331(18)
H13 H -0.0493 0.5439 -0.0415
H14 H -0.1559 0.6853 -0.0426
H15 H -0.2222 0.5310 -0.0728
C20 C 0.0449(3) 0.6073(3) 0.32482(15)
H16 H -0.0011 0.5317 0.2892
H17 H -0.0261 0.6351 0.3679
H18 H 0.1382 0.5694 0.3512
C21 C -0.2960(3) 0.6555(3) 0.23968(15)
H19 H -0.3646 0.5965 0.2045
H20 H -0.3546 0.7283 0.2699
H21 H -0.2421 0.5920 0.2796
C22 C -0.0420(3) 1.1759(3) 0.33709(18)
H22 H -0.1294 1.2120 0.3083
H23 H 0.0302 1.2420 0.3604
C23 C 0.0828(3) 0.8717(4) 0.46660(15)
H24 H 0.1721 0.8176 0.4869
H25 H 0.0001 0.8031 0.4541
H26 H 0.0514 0.9408 0.5094
C24 C 0.5278(3) 1.1220(4) 0.44339(18)
H27 H 0.5145 1.0844 0.4999
H28 H 0.5136 1.2281 0.4431
H29 H 0.6300 1.0987 0.4252
C25 C 0.4267(3) 1.1180(3) 0.29493(16)
C26 C 0.3753(6) 1.3352(4) 0.2144(3)
H30 H 0.4629 1.3008 0.1838
H31 H 0.3888 1.4386 0.2284
H32 H 0.2833 1.3232 0.1797
loop_
_geom_bond_atom_site_label_1
_geom_bond_atom_site_label_2
_geom_bond_site_symmetry_1
_geom_bond_site_symmetry_2
O1 C3 1_555 1_555
O2 H1 1_555 1_555
O3 C7 1_555 1_555
O4 C15 1_555 1_555
O5 C15 1_555 1_555
O6 C17 1_555 1_555
O7 C25 1_555 1_555
O8 C25 1_555 1_555
C1 H2 1_555 1_555
H3 C1 1_555 1_555
C2 C1 1_555 1_555
H4 C2 1_555 1_555
H5 C2 1_555 1_555
C3 C2 1_555 1_555
C4 C3 1_555 1_555
C5 C4 1_555 1_555
C6 O2 1_555 1_555
C7 C6 1_555 1_555
C8 C7 1_555 1_555
C9 C8 1_555 1_555
H6 C9 1_555 1_555
C10 C1 1_555 1_555
C11 C9 1_555 1_555
H7 C11 1_555 1_555
H8 C11 1_555 1_555
C12 C11 1_555 1_555
C13 C12 1_555 1_555
C14 C8 1_555 1_555
H9 C14 1_555 1_555
C15 C14 1_555 1_555
C16 O5 1_555 1_555
C17 C13 1_555 1_555
C18 C4 1_555 1_555
H10 C18 1_555 1_555
H11 C18 1_555 1_555
H12 C18 1_555 1_555
C19 C4 1_555 1_555
H13 C19 1_555 1_555
H14 C19 1_555 1_555
H15 C19 1_555 1_555
C20 C8 1_555 1_555
H16 C20 1_555 1_555
H17 C20 1_555 1_555
H18 C20 1_555 1_555
C21 C10 1_555 1_555
H19 C21 1_555 1_555
H20 C21 1_555 1_555
H21 C21 1_555 1_555
C22 C12 1_555 1_555
H22 C22 1_555 1_555
H23 C22 1_555 1_555
C23 C13 1_555 1_555
H24 C23 1_555 1_555
H25 C23 1_555 1_555
H26 C23 1_555 1_555
C24 C16 1_555 1_555
H27 C24 1_555 1_555
H28 C24 1_555 1_555
H29 C24 1_555 1_555
C25 C16 1_555 1_555
C26 O8 1_555 1_555
H30 C26 1_555 1_555
H31 C26 1_555 1_555
H32 C26 1_555 1_555
C5 C6 1_555 1_555
C5 C10 1_555 1_555
C9 C10 1_555 1_555
C13 C14 1_555 1_555
C16 C17 1_555 1_555

#END
