
#######################################################################
#
#                 Cambridge Crystallographic Data Centre
#                                CCDC 
#
#######################################################################
#
# If this CIF has been generated from an entry in the Cambridge 
# Structural Database, then it will include bibliographic, chemical, 
# crystal, experimental, refinement or atomic coordinate data resulting 
# from the CCDC's data processing and validation procedures.
#
#######################################################################

data_GASWUU
_chemical_compound_source        'Munronia unifoliolata Oliv'
_chemical_name_common            'Munronoid A'
_chemical_formula_moiety         'C31 H40 O9'
_chemical_name_systematic        
'Methyl (5-acetoxy-4-(7-acetoxy-1-(3-furyl)-7a-methyl-4-methylene-2,4,5,6,7,7a-hexahydro-1H-inden-5-yl)-2,2,4-trimethyl-7-oxooxepan-3-yl)acetate'
_symmetry_cell_setting           orthorhombic
_symmetry_space_group_name_H-M   'P 21 21 21'
_symmetry_Int_Tables_number      19
_space_group_name_Hall           'P 2ac 2ab'
loop_
_symmetry_equiv_pos_site_id
_symmetry_equiv_pos_as_xyz
1 x,y,z
2 1/2-x,-y,1/2+z
3 -x,1/2+y,1/2-z
4 1/2+x,1/2-y,-z
_cell_length_a                   9.428(3)
_cell_length_b                   10.119(2)
_cell_length_c                   30.503(6)
_cell_angle_alpha                90
_cell_angle_beta                 90
_cell_angle_gamma                90
_cell_volume                     2910.05
_cell_formula_units_Z            4
loop_
_atom_site_label
_atom_site_type_symbol
_atom_site_fract_x
_atom_site_fract_y
_atom_site_fract_z
O1 O 0.2380(6) 0.6192(3) 0.08549(12)
O2 O 0.5706(3) 1.2646(2) 0.07133(10)
O3 O 0.4661(2) 1.06491(18) 0.07374(6)
O4 O 0.7403(4) 0.7818(4) 0.11523(10)
O5 O 0.5810(2) 0.77124(19) 0.17001(7)
C1 C 0.2202(3) 1.0270(2) 0.09490(8)
C2 C 0.2092(3) 0.8999(3) 0.06548(8)
H1 H 0.2995 0.8533 0.0693
C3 C 0.1877(4) 0.9121(3) 0.01494(9)
C4 C 0.3508(4) 1.1011(4) -0.00355(11)
C5 C 0.2928(3) 1.1871(3) 0.03203(10)
H2 H 0.1908 1.1951 0.0287
H3 H 0.3337 1.2747 0.0298
C6 C 0.3270(3) 1.1281(3) 0.07706(9)
H4 H 0.3341 1.2008 0.0982
C7 C 0.2578(3) 0.9856(3) 0.14439(8)
H5 H 0.1668 0.9583 0.1570
C8 C 0.3053(3) 1.1023(3) 0.17294(9)
C9 C 0.4594(3) 1.1228(3) 0.17784(9)
C10 C 0.5507(3) 1.0050(3) 0.18998(8)
C11 C 0.5159(3) 0.8963(2) 0.15711(8)
H6 H 0.5522 0.9220 0.1282
C12 C 0.3582(3) 0.8675(3) 0.15330(10)
H7 H 0.3279 0.8255 0.1803
H8 H 0.3452 0.8037 0.1299
C13 C 0.7051(3) 1.0614(3) 0.18419(9)
H9 H 0.7343 1.0404 0.1541
C14 C 0.6866(4) 1.2131(3) 0.18638(14)
H10 H 0.7100 1.2463 0.2153
H11 H 0.7462 1.2568 0.1649
C15 C 0.5330(4) 1.2338(3) 0.17633(12)
H12 H 0.4937 1.3157 0.1697
C16 C 0.8179(3) 1.0083(3) 0.21376(9)
C17 C 0.8568(5) 1.0503(5) 0.25595(14)
H13 H 0.8137 1.1181 0.2716
C18 C 0.9660(5) 0.9769(5) 0.26998(14)
H14 H 1.0130 0.9879 0.2965
O6 O 0.9961(3) 0.8870(4) 0.24031(12)
C19 C 0.0788(3) 1.1014(3) 0.09870(10)
H16 H 0.0450 1.1235 0.0699
H17 H 0.0925 1.1809 0.1153
H18 H 0.0104 1.0463 0.1132
C20 C 0.0947(4) 0.8065(3) 0.08432(11)
H19 H 0.0440 0.8554 0.1067
H20 H 0.0275 0.7890 0.0610
C21 C 0.1329(6) 0.6813(5) 0.10296(19)
C22 C 0.109(3) 0.4478(11) 0.1178(7)
H21 H 0.0236 0.4046 0.1272
H22 H 0.1821 0.4340 0.1392
H23 H 0.1387 0.4119 0.0902
C23 C 0.0510(4) 0.9787(4) -0.00144(12)
H24 H 0.0437 0.9680 -0.0326
H25 H 0.0535 1.0711 0.0056
H26 H -0.0295 0.9384 0.0125
C24 C 0.1950(6) 0.7744(4) -0.00521(13)
H27 H 0.1953 0.7815 -0.0366
H28 H 0.1140 0.7239 0.0040
H29 H 0.2801 0.7310 0.0043
C25 C 0.5781(3) 1.1473(3) 0.06783(10)
C26 C 0.7067(4) 1.0716(4) 0.05547(13)
H30 H 0.7891 1.1261 0.0594
H31 H 0.6999 1.0451 0.0253
H32 H 0.7144 0.9946 0.0737
C27 C 0.2130(4) 1.1736(4) 0.19622(13)
H33 H 0.2456 1.2372 0.2158
H34 H 0.1161 1.1598 0.1928
C28 C 0.5187(4) 0.9632(4) 0.23741(10)
H35 H 0.4207 0.9386 0.2399
H36 H 0.5382 1.0356 0.2568
H37 H 0.5774 0.8892 0.2451
C29 C 0.6791(5) 0.7187(3) 0.14429(12)
C30 C 0.7188(6) 0.5833(4) 0.1584(2)
H38 H 0.8196 0.5724 0.1561
H39 H 0.6722 0.5197 0.1400
H40 H 0.6902 0.5701 0.1883
C31 C 0.9092 0.9053 0.20530
O7 O 0.0727 0.5779 0.13208
O8 O 0.3070 1.0020 0.02290
O9 O 0.4081 1.1138 -0.03843
H15? H 1.0663 0.8227 0.2427
loop_
_geom_bond_atom_site_label_1
_geom_bond_atom_site_label_2
_geom_bond_site_symmetry_1
_geom_bond_site_symmetry_2
O1 C21 1_555 1_555
O2 C25 1_555 1_555
O3 C6 1_555 1_555
O4 C29 1_555 1_555
O5 C11 1_555 1_555
C1 C2 1_555 1_555
C2 H1 1_555 1_555
C3 C2 1_555 1_555
C4 C5 1_555 1_555
C5 H2 1_555 1_555
H3 C5 1_555 1_555
C6 C1 1_555 1_555
H4 C6 1_555 1_555
C7 C1 1_555 1_555
H5 C7 1_555 1_555
C8 C7 1_555 1_555
C9 C8 1_555 1_555
C10 C9 1_555 1_555
C11 C10 1_555 1_555
H6 C11 1_555 1_555
C12 C7 1_555 1_555
H7 C12 1_555 1_555
H8 C12 1_555 1_555
C13 C10 1_555 1_555
H9 C13 1_555 1_555
C14 C13 1_555 1_555
H10 C14 1_555 1_555
H11 C14 1_555 1_555
C15 C9 1_555 1_555
H12 C15 1_555 1_555
C16 C13 1_555 1_555
C17 C16 1_555 1_555
H13 C17 1_555 1_555
C18 C17 1_555 1_555
H14 C18 1_555 1_555
O6 C18 1_555 1_555
C19 C1 1_555 1_555
H16 C19 1_555 1_555
H17 C19 1_555 1_555
H18 C19 1_555 1_555
C20 C2 1_555 1_555
H19 C20 1_555 1_555
H20 C20 1_555 1_555
C21 C20 1_555 1_555
C22 H21 1_555 1_555
H22 C22 1_555 1_555
H23 C22 1_555 1_555
C23 C3 1_555 1_555
H24 C23 1_555 1_555
H25 C23 1_555 1_555
H26 C23 1_555 1_555
C24 C3 1_555 1_555
H27 C24 1_555 1_555
H28 C24 1_555 1_555
H29 C24 1_555 1_555
C25 O3 1_555 1_555
C26 C25 1_555 1_555
H30 C26 1_555 1_555
H31 C26 1_555 1_555
H32 C26 1_555 1_555
C27 C8 1_555 1_555
H33 C27 1_555 1_555
H34 C27 1_555 1_555
C28 C10 1_555 1_555
H35 C28 1_555 1_555
H36 C28 1_555 1_555
H37 C28 1_555 1_555
C29 O5 1_555 1_555
C30 C29 1_555 1_555
H38 C30 1_555 1_555
H39 C30 1_555 1_555
H40 C30 1_555 1_555
C31 C16 1_555 1_555
O7 C21 1_555 1_555
O8 C3 1_555 1_555
O9 C4 1_555 1_555
C4 O8 1_555 1_555
C5 C6 1_555 1_555
C11 C12 1_555 1_555
C14 C15 1_555 1_555
O6 C31 1_555 1_555
C22 O7 1_555 1_555

#END
