
#######################################################################
#
#                 Cambridge Crystallographic Data Centre
#                                CCDC 
#
#######################################################################
#
# If this CIF has been generated from an entry in the Cambridge 
# Structural Database, then it will include bibliographic, chemical, 
# crystal, experimental, refinement or atomic coordinate data resulting 
# from the CCDC's data processing and validation procedures.
#
#######################################################################

data_GASXEF
_chemical_formula_moiety         'C24 H17 N1 O2 S1'
_chemical_name_systematic        
9-Methyl-3-phenyl-4-(phenylsulfanyl)pyrano[3,4-b]indol-1(9H)-one
_symmetry_cell_setting           triclinic
_symmetry_space_group_name_H-M   'P -1'
_symmetry_Int_Tables_number      2
_space_group_name_Hall           '-P 1'
loop_
_symmetry_equiv_pos_site_id
_symmetry_equiv_pos_as_xyz
1 x,y,z
2 -x,-y,-z
_cell_length_a                   7.520(3)
_cell_length_b                   10.017(4)
_cell_length_c                   13.763(5)
_cell_angle_alpha                93.338(5)
_cell_angle_beta                 104.179(5)
_cell_angle_gamma                110.424(4)
_cell_volume                     930.108
_exptl_crystal_colour            colorless
_exptl_crystal_description       prism
_cell_formula_units_Z            2
loop_
_atom_site_label
_atom_site_type_symbol
_atom_site_fract_x
_atom_site_fract_y
_atom_site_fract_z
C1 C -0.0340(4) 0.7470(3) 0.49366(18)
C2 C -0.0202(3) 0.6810(2) 0.57944(18)
C3 C -0.1712(3) 0.5390(2) 0.55097(18)
C4 C -0.2343(4) 0.4195(3) 0.5994(2)
H1 H -0.1692 0.4215 0.6666
C5 C -0.3937(4) 0.2994(3) 0.5464(2)
H2 H -0.4360 0.2195 0.5782
C6 C -0.4943(4) 0.2946(3) 0.4453(2)
H3 H -0.6041 0.2125 0.4119
C7 C -0.4347(4) 0.4072(3) 0.3947(2)
H4 H -0.5001 0.4029 0.3271
C8 C -0.2718(4) 0.5297(3) 0.44801(19)
C9 C -0.2552(5) 0.6869(3) 0.3129(2)
H5 H -0.3651 0.6038 0.2730
H6 H -0.1498 0.7100 0.2815
H7 H -0.2961 0.7673 0.3174
C10 C 0.1031(4) 0.8862(3) 0.49022(18)
C11 C 0.2584(4) 0.8922(2) 0.66957(18)
C12 C 0.4322(4) 0.9902(3) 0.75049(19)
C13 C 0.6126(4) 1.0435(3) 0.7309(2)
H8 H 0.6221 1.0199 0.6665
C14 C 0.7798(5) 1.1315(3) 0.8055(2)
H9 H 0.9013 1.1654 0.7916
C15 C 0.7673(5) 1.1694(3) 0.9006(2)
H10 H 0.8802 1.2279 0.9512
C16 C 0.5876(5) 1.1205(3) 0.9201(2)
H11 H 0.5783 1.1479 0.9839
C17 C 0.4196(5) 1.0308(3) 0.8462(2)
H12 H 0.2982 0.9976 0.8604
C18 C 0.1295(4) 0.7589(3) 0.67106(18)
C19 C -0.0352(4) 0.6677(3) 0.82663(17)
C20 C -0.1145(4) 0.7746(3) 0.8223(2)
H13 H -0.0680 0.8524 0.7893
C21 C -0.2635(5) 0.7638(4) 0.8678(2)
H14 H -0.3166 0.8350 0.8652
C22 C -0.3330(5) 0.6497(4) 0.9163(2)
H15 H -0.4319 0.6439 0.9472
C23 C -0.2560(5) 0.5433(4) 0.9192(2)
H16 H -0.3043 0.4650 0.9514
C24 C -0.1088(4) 0.5520(3) 0.8748(2)
H17 H -0.0579 0.4796 0.8771
N1 N -0.1867(3) 0.6561(2) 0.41416(15)
O1 O 0.1109(3) 0.9519(2) 0.41967(13)
O2 O 0.2461(3) 0.95136(18) 0.58138(13)
S1 S 0.16716(9) 0.67582(7) 0.77971(5)
loop_
_geom_bond_atom_site_label_1
_geom_bond_atom_site_label_2
_geom_bond_site_symmetry_1
_geom_bond_site_symmetry_2
C1 C2 1_555 1_555
C2 C3 1_555 1_555
C3 C4 1_555 1_555
C4 H1 1_555 1_555
C5 C4 1_555 1_555
H2 C5 1_555 1_555
C6 C5 1_555 1_555
H3 C6 1_555 1_555
C7 C6 1_555 1_555
H4 C7 1_555 1_555
C8 C3 1_555 1_555
C9 H5 1_555 1_555
H6 C9 1_555 1_555
H7 C9 1_555 1_555
C10 C1 1_555 1_555
C11 C12 1_555 1_555
C12 C13 1_555 1_555
C13 H8 1_555 1_555
C14 C13 1_555 1_555
H9 C14 1_555 1_555
C15 C14 1_555 1_555
H10 C15 1_555 1_555
C16 C15 1_555 1_555
H11 C16 1_555 1_555
C17 C12 1_555 1_555
H12 C17 1_555 1_555
C18 C2 1_555 1_555
C19 C20 1_555 1_555
C20 H13 1_555 1_555
C21 C20 1_555 1_555
H14 C21 1_555 1_555
C22 C21 1_555 1_555
H15 C22 1_555 1_555
C23 C22 1_555 1_555
H16 C23 1_555 1_555
C24 C19 1_555 1_555
H17 C24 1_555 1_555
N1 C1 1_555 1_555
O1 C10 1_555 1_555
O2 C10 1_555 1_555
S1 C18 1_555 1_555
C7 C8 1_555 1_555
C8 N1 1_555 1_555
C9 N1 1_555 1_555
C11 C18 1_555 1_555
C11 O2 1_555 1_555
C16 C17 1_555 1_555
C19 S1 1_555 1_555
C23 C24 1_555 1_555

#END
