
#######################################################################
#
#                 Cambridge Crystallographic Data Centre
#                                CCDC 
#
#######################################################################
#
# If this CIF has been generated from an entry in the Cambridge 
# Structural Database, then it will include bibliographic, chemical, 
# crystal, experimental, refinement or atomic coordinate data resulting 
# from the CCDC's data processing and validation procedures.
#
#######################################################################

data_GASXOP
_chemical_formula_moiety         'C10 H10 Br1 N1 S1'
_chemical_name_systematic        5-Bromo-3-((methylsulfanyl)methyl)-1H-indole
_symmetry_cell_setting           monoclinic
_symmetry_space_group_name_H-M   'P 21/n'
_symmetry_Int_Tables_number      14
_space_group_name_Hall           '-P 2yn'
loop_
_symmetry_equiv_pos_site_id
_symmetry_equiv_pos_as_xyz
1 x,y,z
2 1/2-x,1/2+y,1/2-z
3 -x,-y,-z
4 1/2+x,1/2-y,1/2+z
_cell_length_a                   10.169(11)
_cell_length_b                   8.736(10)
_cell_length_c                   12.714(14)
_cell_angle_alpha                90
_cell_angle_beta                 107.479(11)
_cell_angle_gamma                90
_cell_volume                     1077.32
_exptl_crystal_colour            colorless
_exptl_crystal_description       block
_cell_formula_units_Z            4
loop_
_atom_site_label
_atom_site_type_symbol
_atom_site_fract_x
_atom_site_fract_y
_atom_site_fract_z
Br1 Br 0.29949(5) 0.05289(6) 0.56820(4)
C1 C 0.5110(4) 0.2716(4) 0.5840(3)
H1 H 0.5181 0.2266 0.5197
C2 C 0.4181(4) 0.2201(5) 0.6341(3)
C3 C 0.4055(4) 0.2826(5) 0.7310(3)
H2 H 0.3413 0.2427 0.7626
C4 C 0.4872(4) 0.4030(5) 0.7804(3)
H3 H 0.4799 0.4457 0.8454
C5 C 0.5807(4) 0.4590(4) 0.7304(3)
C6 C 0.5957(4) 0.3953(4) 0.6333(3)
C7 C 0.7020(4) 0.4798(4) 0.6058(3)
C8 C 0.7450(4) 0.5883(5) 0.6848(4)
H4 H 0.8136 0.6601 0.6879
C9 C 0.7555(4) 0.4546(5) 0.5112(3)
H5 H 0.7993 0.5480 0.4976
H6 H 0.6784 0.4338 0.4462
C10 C 1.0133(4) 0.3658(6) 0.6483(4)
H7 H 1.0448 0.4637 0.6315
H8 H 1.0887 0.2947 0.6664
H9 H 0.9779 0.3759 0.7100
N1 N 0.6724(4) 0.5763(5) 0.7596(4)
S1 S 0.87951(11) 0.29701(13) 0.53089(9)
H10 H 0.684(4) 0.620(5) 0.808(3)
loop_
_geom_bond_atom_site_label_1
_geom_bond_atom_site_label_2
_geom_bond_site_symmetry_1
_geom_bond_site_symmetry_2
Br1 C2 1_555 1_555
C1 H1 1_555 1_555
C2 C1 1_555 1_555
C3 C2 1_555 1_555
H2 C3 1_555 1_555
C4 C3 1_555 1_555
H3 C4 1_555 1_555
C5 C4 1_555 1_555
C6 C1 1_555 1_555
C7 C6 1_555 1_555
C8 C7 1_555 1_555
H4 C8 1_555 1_555
C9 C7 1_555 1_555
H5 C9 1_555 1_555
H6 C9 1_555 1_555
C10 H7 1_555 1_555
H8 C10 1_555 1_555
H9 C10 1_555 1_555
N1 C5 1_555 1_555
S1 C9 1_555 1_555
H10 N1 1_555 1_555
C5 C6 1_555 1_555
C8 N1 1_555 1_555
C10 S1 1_555 1_555

#END
