
#######################################################################
#
#                 Cambridge Crystallographic Data Centre
#                                CCDC 
#
#######################################################################
#
# If this CIF has been generated from an entry in the Cambridge 
# Structural Database, then it will include bibliographic, chemical, 
# crystal, experimental, refinement or atomic coordinate data resulting 
# from the CCDC's data processing and validation procedures.
#
#######################################################################

data_GASZEI
_chemical_formula_moiety         'C36 H31 B1 F2 N2 Si1'
_chemical_name_systematic        
5,5-difluoro-10-mesityl-2-(triphenylsilyl)-5H-6\l^5^,5\l^5^-dipyrrolo[1,2-c:2',1'-f][1,3,2]diazaborinine
_symmetry_cell_setting           monoclinic
_symmetry_space_group_name_H-M   'P 21/n'
_symmetry_Int_Tables_number      14
_space_group_name_Hall           '-P 2yn'
loop_
_symmetry_equiv_pos_site_id
_symmetry_equiv_pos_as_xyz
1 x,y,z
2 1/2-x,1/2+y,1/2-z
3 -x,-y,-z
4 1/2+x,1/2-y,1/2+z
_cell_length_a                   15.6301(17)
_cell_length_b                   10.2536(11)
_cell_length_c                   19.1314(19)
_cell_angle_alpha                90
_cell_angle_beta                 95.051(2)
_cell_angle_gamma                90
_cell_volume                     3054.18
_exptl_crystal_colour            colorless
_exptl_crystal_description       block
_cell_formula_units_Z            4
loop_
_atom_site_label
_atom_site_type_symbol
_atom_site_fract_x
_atom_site_fract_y
_atom_site_fract_z
Si1 Si 0.37372(4) 0.67932(6) 0.11920(3)
C1 C 0.32632(14) 0.8381(2) 0.14616(10)
C2 C 0.45736(14) 0.6773(2) 0.26039(11)
H1 H 0.4380 0.7610 0.2692
C3 C 0.62048(15) 0.4231(2) 0.37395(11)
C4 C 0.57925(13) 0.3962(2) 0.30783(11)
C5 C 0.59372(14) 0.2682(2) 0.27414(11)
C6 C 0.47697(13) 0.4884(2) 0.20835(11)
H2 H 0.4742 0.4195 0.1766
C7 C 0.43478(13) 0.6082(2) 0.19834(11)
C8 C 0.52413(14) 0.4894(2) 0.27423(11)
C9 C 0.28402(14) 0.5704(2) 0.08402(11)
C10 C 0.55584(15) 0.1557(2) 0.30029(12)
C11 C 0.45284(14) 0.7120(2) 0.05299(11)
C12 C 0.37852(16) 0.9446(2) 0.16595(13)
H3 H 0.4374 0.9381 0.1627
C13 C 0.64529(15) 0.2585(3) 0.21793(12)
C14 C 0.23882(15) 0.8541(3) 0.15055(12)
H4 H 0.2019 0.7853 0.1380
C15 C 0.23928(17) 0.5962(3) 0.01909(13)
H5 H 0.2577 0.6638 -0.0083
C16 C 0.62252(17) 0.0235(3) 0.21539(15)
C17 C 0.25494(16) 0.4668(3) 0.12219(12)
H6 H 0.2836 0.4458 0.1654
C18 C 0.18412(18) 0.3940(3) 0.09714(14)
H7 H 0.1660 0.3249 0.1237
C19 C 0.65891(16) 0.1348(3) 0.19047(14)
H8 H 0.6940 0.1272 0.1538
C20 C 0.34573(19) 1.0590(3) 0.19007(13)
H9 H 0.3823 1.1275 0.2039
C21 C 0.68465(19) 0.3778(3) 0.18658(15)
H10 H 0.6473 0.4086 0.1475
H11 H 0.7394 0.3553 0.1709
H12 H 0.6921 0.4451 0.2215
C22 C 0.49550(18) 0.1618(3) 0.35753(14)
H13 H 0.4688 0.0783 0.3621
H14 H 0.4521 0.2265 0.3458
H15 H 0.5271 0.1846 0.4011
C23 C 0.67786(17) 0.3483(3) 0.41883(13)
H16 H 0.6987 0.2657 0.4096
C24 C 0.2586(2) 1.0717(3) 0.19364(13)
H17 H 0.2361 1.1488 0.2098
C25 C 0.57201(17) 0.0361(3) 0.27011(15)
H18 H 0.5476 -0.0384 0.2877
C26 C 0.16841(19) 0.5240(3) -0.00569(14)
H19 H 0.1396 0.5438 -0.0490
C27 C 0.14044(18) 0.4225(3) 0.03378(14)
H20 H 0.0925 0.3740 0.0175
C28 C 0.43933(18) 0.8077(3) 0.00198(14)
H21 H 0.3891 0.8567 -0.0004
C29 C 0.20503(18) 0.9700(3) 0.17318(14)
H22 H 0.1460 0.9788 0.1745
C30 C 0.4998(2) 0.8316(4) -0.04581(16)
H23 H 0.4893 0.8954 -0.0800
C31 C 0.52931(18) 0.6438(3) 0.05395(14)
H24 H 0.5405 0.5790 0.0875
C32 C 0.5895(2) 0.6680(3) 0.00713(16)
H25 H 0.6403 0.6203 0.0096
C33 C 0.6970(2) 0.4199(3) 0.47827(14)
H26 H 0.7334 0.3951 0.5171
C34 C 0.5745(2) 0.7617(3) -0.04269(15)
H27 H 0.6149 0.7782 -0.0745
C35 C 0.6361(2) -0.1078(3) 0.1823(2)
H28 H 0.6187 -0.1756 0.2126
H29 H 0.6958 -0.1184 0.1752
H30 H 0.6025 -0.1129 0.1379
C36 C 0.6523(2) 0.5362(3) 0.47028(13)
H31 H 0.6540 0.6024 0.5036
B1 B 0.5499(2) 0.6539(3) 0.37876(15)
F1 F 0.60135(18) 0.76071(19) 0.37065(11)
F2 F 0.48739(16) 0.6795(3) 0.42107(9)
N1 N 0.51015(12) 0.60856(18) 0.30556(9)
N2 N 0.60638(13) 0.5404(2) 0.40810(9)
loop_
_geom_bond_atom_site_label_1
_geom_bond_atom_site_label_2
_geom_bond_site_symmetry_1
_geom_bond_site_symmetry_2
Si1 C1 1_555 1_555
C1 C12 1_555 1_555
C2 H1 1_555 1_555
C3 C4 1_555 1_555
C4 C5 1_555 1_555
C5 C10 1_555 1_555
C6 H2 1_555 1_555
C7 Si1 1_555 1_555
C8 C4 1_555 1_555
C9 Si1 1_555 1_555
C10 C22 1_555 1_555
C11 Si1 1_555 1_555
C12 H3 1_555 1_555
C13 C5 1_555 1_555
C14 C1 1_555 1_555
H4 C14 1_555 1_555
C15 C9 1_555 1_555
H5 C15 1_555 1_555
C16 C19 1_555 1_555
C17 C9 1_555 1_555
H6 C17 1_555 1_555
C18 C17 1_555 1_555
H7 C18 1_555 1_555
C19 C13 1_555 1_555
H8 C19 1_555 1_555
C20 C12 1_555 1_555
H9 C20 1_555 1_555
C21 C13 1_555 1_555
H10 C21 1_555 1_555
H11 C21 1_555 1_555
H12 C21 1_555 1_555
C22 H13 1_555 1_555
H14 C22 1_555 1_555
H15 C22 1_555 1_555
C23 C3 1_555 1_555
H16 C23 1_555 1_555
C24 C20 1_555 1_555
H17 C24 1_555 1_555
C25 C10 1_555 1_555
H18 C25 1_555 1_555
C26 C15 1_555 1_555
H19 C26 1_555 1_555
C27 C18 1_555 1_555
H20 C27 1_555 1_555
C28 C11 1_555 1_555
H21 C28 1_555 1_555
C29 C14 1_555 1_555
H22 C29 1_555 1_555
C30 C28 1_555 1_555
H23 C30 1_555 1_555
C31 C11 1_555 1_555
H24 C31 1_555 1_555
C32 C31 1_555 1_555
H25 C32 1_555 1_555
C33 C23 1_555 1_555
H26 C33 1_555 1_555
C34 C30 1_555 1_555
H27 C34 1_555 1_555
C35 C16 1_555 1_555
H28 C35 1_555 1_555
H29 C35 1_555 1_555
H30 C35 1_555 1_555
C36 C33 1_555 1_555
H31 C36 1_555 1_555
B1 F1 1_555 1_555
F2 B1 1_555 1_555
N1 C2 1_555 1_555
N2 C3 1_555 1_555
C2 C7 1_555 1_555
C6 C7 1_555 1_555
C6 C8 1_555 1_555
C8 N1 1_555 1_555
C16 C25 1_555 1_555
C24 C29 1_555 1_555
C26 C27 1_555 1_555
C32 C34 1_555 1_555
C36 N2 1_555 1_555
B1 N1 1_555 1_555
B1 N2 1_555 1_555

#END
