
#######################################################################
#
#                 Cambridge Crystallographic Data Centre
#                                CCDC 
#
#######################################################################
#
# If this CIF has been generated from an entry in the Cambridge 
# Structural Database, then it will include bibliographic, chemical, 
# crystal, experimental, refinement or atomic coordinate data resulting 
# from the CCDC's data processing and validation procedures.
#
#######################################################################

data_GASZOP10
_chemical_compound_source        'Fritillaria ussuriensis Maxim'
_chemical_formula_moiety         'C28 H39 N1 O3'
_chemical_name_systematic        Ussurienine
_symmetry_cell_setting           orthorhombic
_symmetry_space_group_name_H-M   'P 21 21 21'
_symmetry_Int_Tables_number      19
_space_group_name_Hall           'P 2ac 2ab'
loop_
_symmetry_equiv_pos_site_id
_symmetry_equiv_pos_as_xyz
1 x,y,z
2 1/2+x,1/2-y,-z
3 -x,1/2+y,1/2-z
4 1/2-x,-y,1/2+z
_cell_length_a                   10.877(2)
_cell_length_b                   26.983(3)
_cell_length_c                   8.100(1)
_cell_angle_alpha                90
_cell_angle_beta                 90
_cell_angle_gamma                90
_cell_volume                     2377.3
_exptl_crystal_colour            colorless
_chemical_melting_point          'above 300deg.C'
_cell_formula_units_Z            4
loop_
_atom_site_label
_atom_site_type_symbol
_atom_site_fract_x
_atom_site_fract_y
_atom_site_fract_z
C1 C 0.0809(3) 0.9116(1) 0.5624(4)
C2 C -0.0287(3) 0.9255(1) 0.6692(4)
C3 C -0.0674(3) 0.9787(1) 0.6344(4)
C4 C -0.0970(3) 0.9859(1) 0.4529(4)
C5 C 0.0137(3) 0.9716(1) 0.3470(4)
C6 C 0.0046(3) 0.9873(1) 0.1635(4)
C7 C 0.1190(3) 0.9733(1) 0.0652(4)
C8 C 0.1565(3) 0.9192(1) 0.0958(4)
C9 C 0.1745(3) 0.9114(1) 0.2804(4)
C10 C 0.0540(3) 0.9168(1) 0.3766(4)
C11 C 0.2527(3) 0.8640(1) 0.2938(4)
C12 C 0.3314(3) 0.8681(1) 0.1416(4)
C13 C 0.4445(3) 0.8451(1) 0.1061(4)
C14 C 0.2754(3) 0.8986(1) 0.0251(4)
C15 C 0.3254(3) 0.9046(1) -0.1305(4)
C16 C 0.4327(3) 0.8794(1) -0.1696(5)
C17 C 0.4940(3) 0.8503(1) -0.0517(5)
C18 C 0.5140(3) 0.8185(1) 0.2421(5)
C19 C -0.0425(3) 0.8786(1) 0.3239(5)
C20 C 0.6125(4) 0.8247(2) -0.1006(5)
C21 C 0.7179(4) 0.8629(2) -0.1105(8)
C22 C 0.6423(4) 0.7838(1) 0.0226(6)
C23 C 0.5568(5) 0.7383(2) -0.0008(7)
C24 C 0.5628(5) 0.7034(2) 0.1489(8)
C25 C 0.5607(4) 0.7327(2) 0.3103(7)
C26 C 0.6736(4) 0.7662(2) 0.3138(7)
C27 C 0.4545(4) 0.7703(1) 0.3120(6)
C28 C 0.5856(4) 0.8961(2) 0.3530(6)
N1 N 0.6391(3) 0.8043(1) 0.1908(4)
O1 O -0.1743(2) 0.9919(1) 0.7277(3)
O2 O -0.1023(2) 0.9679(1) 0.0808(3)
O3 O 0.5251(2) 0.8500(1) 0.3832(3)
H1 H 0.113(4) 0.875(1) 0.590(5)
H2 H 0.156(4) 0.933(1) 0.576(5)
H3 H -0.001(4) 0.922(1) 0.796(5)
H4 H -0.103(4) 0.903(1) 0.640(5)
H5 H 0.008(4) 1.004(1) 0.660(5)
H6 H -0.119(4) 1.024(1) 0.437(5)
H7 H -0.171(4) 0.966(1) 0.414(5)
H8 H 0.087(4) 0.990(1) 0.391(5)
H9 H -0.007(4) 1.027(1) 0.160(5)
H10 H 0.099(4) 0.980(1) -0.058(5)
H11 H 0.191(3) 0.997(1) 0.094(5)
H12 H 0.087(4) 0.899(1) 0.054(5)
H13 H 0.233(4) 0.940(1) 0.320(5)
H14 H 0.300(4) 0.863(1) 0.404(5)
H15 H 0.203(4) 0.831(1) 0.294(5)
H16 H 0.279(4) 0.928(1) -0.209(5)
H17 H 0.461(4) 0.878(1) -0.284(6)
H18 H -0.064(4) 0.884(1) 0.193(5)
H19 H -0.010(4) 0.844(1) 0.346(5)
H20 H -0.125(4) 0.881(1) 0.397(5)
H21 H 0.606(5) 0.811(2) -0.229(6)
H22 H 0.795(5) 0.846(2) -0.161(7)
H23 H 0.735(5) 0.879(2) 0.009(7)
H24 H 0.688(5) 0.888(2) -0.205(7)
H25 H 0.727(5) 0.770(1) 0.007(6)
H26 H 0.457(5) 0.755(2) -0.011(7)
H27 H 0.583(5) 0.721(2) -0.104(7)
H28 H 0.490(5) 0.680(2) 0.142(7)
H29 H 0.648(5) 0.685(2) 0.145(7)
H30 H 0.567(5) 0.711(2) 0.426(7)
H31 H 0.753(5) 0.749(2) 0.258(6)
H32 H 0.687(5) 0.785(2) 0.430(7)
H33 H 0.427(5) 0.777(2) 0.445(6)
H34 H 0.378(4) 0.759(2) 0.240(6)
H35 H 0.611(4) 0.912(2) 0.452(6)
H36 H 0.568(5) 0.916(2) 0.252(6)
H37 H 0.673(4) 0.889(2) 0.295(6)
H38 H -0.155(4) 0.985(1) 0.849(6)
H39 H -0.177(4) 0.975(1) 0.148(5)
loop_
_geom_bond_atom_site_label_1
_geom_bond_atom_site_label_2
_geom_bond_site_symmetry_1
_geom_bond_site_symmetry_2
C1 C2 1_555 1_555
C2 C3 1_555 1_555
C3 C4 1_555 1_555
C4 C5 1_555 1_555
C5 C6 1_555 1_555
C6 C7 1_555 1_555
C7 C8 1_555 1_555
C8 C9 1_555 1_555
C9 C10 1_555 1_555
C10 C1 1_555 1_555
C11 C9 1_555 1_555
C12 C11 1_555 1_555
C13 C12 1_555 1_555
C14 C8 1_555 1_555
C15 C14 1_555 1_555
C16 C15 1_555 1_555
C17 C13 1_555 1_555
C18 C13 1_555 1_555
C19 C10 1_555 1_555
C20 C17 1_555 1_555
C21 C20 1_555 1_555
C22 C20 1_555 1_555
C23 C22 1_555 1_555
C24 C23 1_555 1_555
C25 C24 1_555 1_555
C26 C25 1_555 1_555
C27 C18 1_555 1_555
C28 O3 1_555 1_555
N1 C18 1_555 1_555
O1 C3 1_555 1_555
O2 C6 1_555 1_555
O3 C18 1_555 1_555
H1 C1 1_555 1_555
H2 C1 1_555 1_555
H3 C2 1_555 1_555
H4 C2 1_555 1_555
H5 C3 1_555 1_555
H6 C4 1_555 1_555
H7 C4 1_555 1_555
H8 C5 1_555 1_555
H9 C6 1_555 1_555
H10 C7 1_555 1_555
H11 C7 1_555 1_555
H12 C8 1_555 1_555
H13 C9 1_555 1_555
H14 C11 1_555 1_555
H15 C11 1_555 1_555
H16 C15 1_555 1_555
H17 C16 1_555 1_555
H18 C19 1_555 1_555
H19 C19 1_555 1_555
H20 C19 1_555 1_555
H21 C20 1_555 1_555
H22 C21 1_555 1_555
H23 C21 1_555 1_555
H24 C21 1_555 1_555
H25 C22 1_555 1_555
H26 C23 1_555 1_555
H27 C23 1_555 1_555
H28 C24 1_555 1_555
H29 C24 1_555 1_555
H30 C25 1_555 1_555
H31 C26 1_555 1_555
H32 C26 1_555 1_555
H33 C27 1_555 1_555
H34 C27 1_555 1_555
H35 C28 1_555 1_555
H36 C28 1_555 1_555
H37 C28 1_555 1_555
H38 O1 1_555 1_555
H39 O2 1_555 1_555
C5 C10 1_555 1_555
C12 C14 1_555 1_555
C16 C17 1_555 1_555
C22 N1 1_555 1_555
C25 C27 1_555 1_555
C26 N1 1_555 1_555

#END
