
#######################################################################
#
#                 Cambridge Crystallographic Data Centre
#                                CCDC 
#
#######################################################################
#
# If this CIF has been generated from an entry in the Cambridge 
# Structural Database, then it will include bibliographic, chemical, 
# crystal, experimental, refinement or atomic coordinate data resulting 
# from the CCDC's data processing and validation procedures.
#
#######################################################################

data_GASZUY
_chemical_formula_moiety         'C48 H42 B2 F4 N4 Si1'
_chemical_name_systematic        
2-((5,5-difluoro-10-mesityl-5H-6\l^5^,5\l^5^-dipyrrolo[1,2-c:2',1'-f][1,3,2]diazaborinin-2-yl)(diphenyl)silyl)-5,5-difluoro-10-mesityl-5H-4\l^5^,5\l^5^-dipyrrolo[1,2-c:2',1'-f][1,3,2]diazaborinine
_symmetry_cell_setting           orthorhombic
_symmetry_space_group_name_H-M   'P b c a'
_symmetry_Int_Tables_number      61
_space_group_name_Hall           '-P 2ac 2ab'
loop_
_symmetry_equiv_pos_site_id
_symmetry_equiv_pos_as_xyz
1 x,y,z
2 1/2-x,-y,1/2+z
3 -x,1/2+y,1/2-z
4 1/2+x,1/2-y,-z
5 -x,-y,-z
6 1/2+x,y,1/2-z
7 x,1/2-y,1/2+z
8 1/2-x,1/2+y,z
_cell_length_a                   15.387(5)
_cell_length_b                   23.341(7)
_cell_length_c                   24.609(8)
_cell_angle_alpha                90
_cell_angle_beta                 90
_cell_angle_gamma                90
_cell_volume                     8838.27
_exptl_crystal_colour            orange
_exptl_crystal_description       block
_cell_formula_units_Z            8
loop_
_atom_site_label
_atom_site_type_symbol
_atom_site_fract_x
_atom_site_fract_y
_atom_site_fract_z
B1 B 0.69171(14) 0.26632(8) 0.60882(7)
B2 B 0.78556(16) -0.03646(8) 0.90715(8)
F1 F 0.65484(7) 0.24602(4) 0.56045(3)
F2 F 0.77200(7) 0.28702(4) 0.59874(4)
F3 F 0.82446(8) -0.08632(4) 0.89401(4)
F4 F 0.70033(8) -0.04407(5) 0.92057(4)
N1 N 0.69303(9) 0.21735(5) 0.65084(5)
N2 N 0.63227(10) 0.31301(5) 0.63296(5)
N3 N 0.79545(9) 0.00743(5) 0.86010(5)
N4 N 0.83472(10) -0.00770(5) 0.95594(5)
Si1 Si 0.76152(3) 0.05766(2) 0.70324(2)
C1 C 0.72945(12) 0.16598(6) 0.64523(6)
H1 H 0.7571 0.1540 0.6136
C2 C 0.72177(11) 0.13144(6) 0.69236(6)
C3 C 0.67313(11) 0.16589(6) 0.72752(6)
H2 H 0.6562 0.1556 0.7625
C4 C 0.65369(11) 0.21830(6) 0.70219(6)
C5 C 0.60831(11) 0.26615(6) 0.72013(6)
C6 C 0.59595(12) 0.31227(7) 0.68530(7)
C7 C 0.54968(12) 0.36271(7) 0.69306(7)
H3 H 0.5187 0.3729 0.7241
C8 C 0.55809(14) 0.39508(7) 0.64625(8)
H4 H 0.5345 0.4311 0.6398
C9 C 0.60945(13) 0.36268(7) 0.61031(7)
H5 H 0.6253 0.3743 0.5755
C10 C 0.57455(11) 0.26687(6) 0.77590(6)
C11 C 0.49282(12) 0.24551(7) 0.78819(7)
C12 C 0.46393(12) 0.24726(7) 0.84112(7)
H6 H 0.4083 0.2342 0.8492
C13 C 0.51615(13) 0.26818(7) 0.88290(7)
C14 C 0.59523(13) 0.28866(7) 0.86943(7)
H7 H 0.6294 0.3043 0.8969
C15 C 0.62863(12) 0.28777(7) 0.81695(7)
C16 C 0.71544(13) 0.31025(8) 0.80543(8)
H8 H 0.7389 0.3274 0.8377
H9 H 0.7118 0.3385 0.7772
H10 H 0.7526 0.2796 0.7938
C17 C 0.43171(12) 0.22241(8) 0.74433(8)
H11 H 0.3800 0.2076 0.7611
H12 H 0.4603 0.1924 0.7246
H13 H 0.4164 0.2528 0.7198
C18 C 0.48220(14) 0.26935(9) 0.94145(7)
H14 H 0.5255 0.2858 0.9648
H15 H 0.4697 0.2310 0.9531
H16 H 0.4301 0.2920 0.9431
C19 C 0.77733(12) -0.00077(7) 0.80799(6)
H17 H 0.7608 -0.0359 0.7934
C20 C 0.78600(11) 0.05009(6) 0.77724(6)
C21 C 0.80323(11) 0.09173(6) 0.81561(6)
H18 H 0.8095 0.1307 0.8089
C22 C 0.80968(11) 0.06477(6) 0.86671(6)
C23 C 0.83483(12) 0.08637(6) 0.91836(6)
C24 C 0.84682(12) 0.04990(7) 0.96140(6)
C25 C 0.88033(13) 0.06039(8) 1.01376(6)
H19 H 0.8958 0.0958 1.0280
C26 C 0.88579(14) 0.00878(8) 1.03959(7)
H20 H 0.9040 0.0020 1.0750
C27 C 0.85804(13) -0.03203(8) 1.00138(6)
H21 H 0.8565 -0.0713 1.0077
C28 C 0.84562(11) 0.14934(6) 0.92454(6)
C29 C 0.77727(13) 0.18289(7) 0.94226(6)
C30 C 0.78644(13) 0.24196(7) 0.94980(7)
H22 H 0.7397 0.2642 0.9611
C31 C 0.86684(14) 0.26648(7) 0.94005(7)
C32 C 0.93281(13) 0.23374(7) 0.92146(7)
H23 H 0.9855 0.2512 0.9131
C33 C 0.92474(12) 0.17545(7) 0.91450(6)
C34 C 0.68687(13) 0.15790(8) 0.95201(9)
H24 H 0.6582 0.1522 0.9178
H25 H 0.6535 0.1839 0.9738
H26 H 0.6921 0.1219 0.9706
C35 C 0.87484(15) 0.33111(7) 0.95060(8)
H27 H 0.9305 0.3392 0.9665
H28 H 0.8297 0.3431 0.9750
H29 H 0.8694 0.3515 0.9169
C36 C 1.00298(12) 0.14108(7) 0.89655(8)
H30 H 1.0452 0.1663 0.8807
H31 H 0.9853 0.1131 0.8702
H32 H 1.0280 0.1221 0.9274
C37 C 0.85936(12) 0.04819(7) 0.66060(6)
C38 C 0.94141(13) 0.05519(8) 0.68025(8)
H33 H 0.9486 0.0624 0.7171
C39 C 1.01604(15) 0.05197(8) 0.64699(9)
H34 H 1.0714 0.0567 0.6615
C40 C 1.00433(17) 0.04172(9) 0.59257(9)
H35 H 1.0526 0.0373 0.5702
C41 C 0.92472(16) 0.03805(8) 0.57125(8)
H36 H 0.9177 0.0347 0.5338
C42 C 0.85185(14) 0.03925(7) 0.60523(7)
H37 H 0.7970 0.0339 0.5902
C43 C 0.67582(12) 0.00329(6) 0.68641(6)
C44 C 0.69938(13) -0.05258(7) 0.67408(7)
H38 H 0.7577 -0.0627 0.6720
C45 C 0.63411(15) -0.09406(8) 0.66474(8)
H39 H 0.6497 -0.1312 0.6550
C46 C 0.55145(15) -0.08049(8) 0.66969(8)
H40 H 0.5095 -0.1087 0.6649
C47 C 0.52537(13) -0.02491(8) 0.68189(7)
H41 H 0.4668 -0.0151 0.6834
C48 C 0.58938(12) 0.01527(7) 0.69162(7)
H42 H 0.5729 0.0520 0.7021
loop_
_geom_bond_atom_site_label_1
_geom_bond_atom_site_label_2
_geom_bond_site_symmetry_1
_geom_bond_site_symmetry_2
B1 F1 1_555 1_555
B2 F3 1_555 1_555
F2 B1 1_555 1_555
F4 B2 1_555 1_555
N1 B1 1_555 1_555
N2 B1 1_555 1_555
N3 B2 1_555 1_555
N4 B2 1_555 1_555
Si1 C2 1_555 1_555
C1 N1 1_555 1_555
H1 C1 1_555 1_555
C2 C1 1_555 1_555
C3 C2 1_555 1_555
H2 C3 1_555 1_555
C4 N1 1_555 1_555
C5 C4 1_555 1_555
C6 N2 1_555 1_555
C7 C6 1_555 1_555
H3 C7 1_555 1_555
C8 C7 1_555 1_555
H4 C8 1_555 1_555
C9 N2 1_555 1_555
H5 C9 1_555 1_555
C10 C5 1_555 1_555
C11 C10 1_555 1_555
C12 C11 1_555 1_555
H6 C12 1_555 1_555
C13 C12 1_555 1_555
C14 C13 1_555 1_555
H7 C14 1_555 1_555
C15 C10 1_555 1_555
C16 C15 1_555 1_555
H8 C16 1_555 1_555
H9 C16 1_555 1_555
H10 C16 1_555 1_555
C17 C11 1_555 1_555
H11 C17 1_555 1_555
H12 C17 1_555 1_555
H13 C17 1_555 1_555
C18 C13 1_555 1_555
H14 C18 1_555 1_555
H15 C18 1_555 1_555
H16 C18 1_555 1_555
C19 N3 1_555 1_555
H17 C19 1_555 1_555
C20 Si1 1_555 1_555
C21 C20 1_555 1_555
H18 C21 1_555 1_555
C22 N3 1_555 1_555
C23 C22 1_555 1_555
C24 N4 1_555 1_555
C25 C24 1_555 1_555
H19 C25 1_555 1_555
C26 C25 1_555 1_555
H20 C26 1_555 1_555
C27 N4 1_555 1_555
H21 C27 1_555 1_555
C28 C23 1_555 1_555
C29 C28 1_555 1_555
C30 C29 1_555 1_555
H22 C30 1_555 1_555
C31 C30 1_555 1_555
C32 C31 1_555 1_555
H23 C32 1_555 1_555
C33 C28 1_555 1_555
C34 C29 1_555 1_555
H24 C34 1_555 1_555
H25 C34 1_555 1_555
H26 C34 1_555 1_555
C35 C31 1_555 1_555
H27 C35 1_555 1_555
H28 C35 1_555 1_555
H29 C35 1_555 1_555
C36 C33 1_555 1_555
H30 C36 1_555 1_555
H31 C36 1_555 1_555
H32 C36 1_555 1_555
C37 Si1 1_555 1_555
C38 C37 1_555 1_555
H33 C38 1_555 1_555
C39 C38 1_555 1_555
H34 C39 1_555 1_555
C40 C39 1_555 1_555
H35 C40 1_555 1_555
C41 C40 1_555 1_555
H36 C41 1_555 1_555
C42 C37 1_555 1_555
H37 C42 1_555 1_555
C43 Si1 1_555 1_555
C44 C43 1_555 1_555
H38 C44 1_555 1_555
C45 C44 1_555 1_555
H39 C45 1_555 1_555
C46 C45 1_555 1_555
H40 C46 1_555 1_555
C47 C46 1_555 1_555
H41 C47 1_555 1_555
C48 C43 1_555 1_555
H42 C48 1_555 1_555
C3 C4 1_555 1_555
C5 C6 1_555 1_555
C8 C9 1_555 1_555
C14 C15 1_555 1_555
C19 C20 1_555 1_555
C21 C22 1_555 1_555
C23 C24 1_555 1_555
C26 C27 1_555 1_555
C32 C33 1_555 1_555
C41 C42 1_555 1_555
C47 C48 1_555 1_555

#END
