
#######################################################################
#
#                 Cambridge Crystallographic Data Centre
#                                CCDC 
#
#######################################################################
#
# If this CIF has been generated from an entry in the Cambridge 
# Structural Database, then it will include bibliographic, chemical, 
# crystal, experimental, refinement or atomic coordinate data resulting 
# from the CCDC's data processing and validation procedures.
#
#######################################################################

data_GATBAG
_chemical_formula_moiety         'C20 H18 O4'
_chemical_name_systematic        
anti-3-(2-Furyl)-2-hydroxy-3-(4-methoxyphenyl)-1-phenylpropan-1-one
_symmetry_cell_setting           monoclinic
_symmetry_space_group_name_H-M   'P 21/n'
_symmetry_Int_Tables_number      14
_space_group_name_Hall           '-P 2yn'
loop_
_symmetry_equiv_pos_site_id
_symmetry_equiv_pos_as_xyz
1 x,y,z
2 1/2-x,1/2+y,1/2-z
3 -x,-y,-z
4 1/2+x,1/2-y,1/2+z
_cell_length_a                   10.455(11)
_cell_length_b                   9.529(10)
_cell_length_c                   16.844(18)
_cell_angle_alpha                90
_cell_angle_beta                 90.194(11)
_cell_angle_gamma                90
_cell_volume                     1678.09
_exptl_crystal_colour            colorless
_exptl_crystal_description       block
_cell_formula_units_Z            4
loop_
_atom_site_label
_atom_site_type_symbol
_atom_site_fract_x
_atom_site_fract_y
_atom_site_fract_z
C1 C 0.5294(3) 0.3700(3) 0.08754(16)
H1 H 0.5057 0.3764 0.0344
C2 C 0.6476(3) 0.4201(3) 0.1123(2)
H2 H 0.7027 0.4605 0.0756
C3 C 0.6833(3) 0.4105(4) 0.1897(2)
H3 H 0.7619 0.4464 0.2060
C4 C 0.6045(2) 0.3485(3) 0.24374(18)
H4 H 0.6305 0.3394 0.2963
C5 C 0.4865(2) 0.2994(3) 0.22034(16)
H5 H 0.4328 0.2583 0.2576
C6 C 0.4467(2) 0.3106(2) 0.14218(14)
C7 C 0.3188(2) 0.2654(2) 0.11459(13)
C8 C 0.21242(19) 0.2451(2) 0.17508(12)
H6 H 0.2445 0.1819 0.2165
C9 C 0.17887(18) 0.3859(2) 0.21476(11)
H7 H 0.2563 0.4171 0.2425
C10 C 0.14604(18) 0.4999(2) 0.15534(11)
C11 C 0.02399(19) 0.5171(2) 0.12476(13)
H8 H -0.0403 0.4551 0.1397
C12 C -0.0041(2) 0.6236(2) 0.07292(13)
H9 H -0.0871 0.6336 0.0537
C13 C 0.0898(2) 0.7159(2) 0.04906(13)
C14 C 0.2123(2) 0.7000(2) 0.07793(13)
H10 H 0.2767 0.7611 0.0622
C15 C 0.23875(19) 0.5926(2) 0.13038(12)
H11 H 0.3218 0.5825 0.1495
C16 C 0.1478(3) 0.9101(3) -0.03269(18)
H12 H 0.1855 0.9622 0.0102
H13 H 0.1094 0.9740 -0.0699
H14 H 0.2128 0.8563 -0.0589
C17 C 0.0789(2) 0.3674(2) 0.27664(13)
C18 C -0.0127(2) 0.2750(3) 0.29280(15)
H15 H -0.0329 0.1951 0.2636
C19 C -0.0740(3) 0.3220(4) 0.36346(18)
H16 H -0.1418 0.2786 0.3893
C20 C -0.0165(3) 0.4378(4) 0.38492(17)
H17 H -0.0377 0.4907 0.4294
O1 O 0.07890(17) 0.47003(19) 0.33301(10)
O2 O 0.29416(16) 0.2479(2) 0.04495(10)
O3 O 0.10571(15) 0.18169(18) 0.14013(9)
H18 H 0.1052 0.1982 0.0924
O4 O 0.05241(15) 0.81803(17) -0.00224(10)
loop_
_geom_bond_atom_site_label_1
_geom_bond_atom_site_label_2
_geom_bond_site_symmetry_1
_geom_bond_site_symmetry_2
C1 H1 1_555 1_555
C2 C1 1_555 1_555
H2 C2 1_555 1_555
C3 C2 1_555 1_555
H3 C3 1_555 1_555
C4 C3 1_555 1_555
H4 C4 1_555 1_555
C5 C4 1_555 1_555
H5 C5 1_555 1_555
C6 C1 1_555 1_555
C7 C6 1_555 1_555
C8 C7 1_555 1_555
H6 C8 1_555 1_555
C9 C8 1_555 1_555
H7 C9 1_555 1_555
C10 C9 1_555 1_555
C11 C10 1_555 1_555
H8 C11 1_555 1_555
C12 C11 1_555 1_555
H9 C12 1_555 1_555
C13 C12 1_555 1_555
C14 C13 1_555 1_555
H10 C14 1_555 1_555
C15 C10 1_555 1_555
H11 C15 1_555 1_555
C16 H12 1_555 1_555
H13 C16 1_555 1_555
H14 C16 1_555 1_555
C17 C9 1_555 1_555
C18 C17 1_555 1_555
H15 C18 1_555 1_555
C19 C18 1_555 1_555
H16 C19 1_555 1_555
C20 C19 1_555 1_555
H17 C20 1_555 1_555
O1 C17 1_555 1_555
O2 C7 1_555 1_555
O3 C8 1_555 1_555
H18 O3 1_555 1_555
O4 C13 1_555 1_555
C5 C6 1_555 1_555
C14 C15 1_555 1_555
C16 O4 1_555 1_555
C20 O1 1_555 1_555

#END
