
#######################################################################
#
#                 Cambridge Crystallographic Data Centre
#                                CCDC 
#
#######################################################################
#
# If this CIF has been generated from an entry in the Cambridge 
# Structural Database, then it will include bibliographic, chemical, 
# crystal, experimental, refinement or atomic coordinate data resulting 
# from the CCDC's data processing and validation procedures.
#
#######################################################################

data_GATCUZ
_chemical_formula_moiety         'C45 H36 O6,C1 H2 Cl2'
_chemical_name_systematic        
"4,4':5,4'':5',5''-tris(m-Xylyldioxy)-(1,2'':2,2':1',1'')(1.1.1) orthocyclophane dichloromethane clathrate"
_symmetry_cell_setting           orthorhombic
_symmetry_space_group_name_H-M   'P c m n'
_symmetry_Int_Tables_number      62
_space_group_name_Hall           '-P 2n 2ac'
loop_
_symmetry_equiv_pos_site_id
_symmetry_equiv_pos_as_xyz
1 x,y,z
2 1/2-x,1/2-y,1/2+z
3 1/2+x,-y,1/2-z
4 -x,1/2+y,-z
5 -x,-y,-z
6 1/2+x,1/2+y,1/2-z
7 1/2-x,y,1/2+z
8 x,1/2-y,z
_cell_length_a                   12.676(1)
_cell_length_b                   16.347(1)
_cell_length_c                   19.024(1)
_cell_angle_alpha                90
_cell_angle_beta                 90
_cell_angle_gamma                90
_cell_volume                     3942.05
_exptl_crystal_colour            colorless
_chemical_melting_point          'above 360deg.C'
_cell_formula_units_Z            4
loop_
_atom_site_label
_atom_site_type_symbol
_atom_site_fract_x
_atom_site_fract_y
_atom_site_fract_z
O1 O -0.03876(47) 0.32801(39) -0.08293(30)
O2 O 0.38406(44) 0.52523(36) -0.17664(31)
O3 O 0.55376(42) 0.44334(37) -0.22140(31)
C1 C 0.1290(8) 0.4152(6) 0.0024(5)
H1 H 0.0883 0.3747 0.0381
C2 C 0.2315(8) 0.4393(6) 0.0168(5)
H2 H 0.2684 0.4200 0.0652
C3 C 0.2879(8) 0.4884(6) -0.0306(5)
H3 H 0.3691 0.5045 -0.0201
C4 C 0.2379(7) 0.5165(5) -0.0918(4)
C5 C 0.1318(7) 0.4938(5) -0.1040(4)
H4 H 0.0912 0.5162 -0.1500
C6 C 0.0790(7) 0.4425(5) -0.0570(4)
C7 C -0.0318(7) 0.4146(6) -0.0746(5)
H5 H -0.0562 0.4435 -0.1230
H6 H -0.0841 0.4330 -0.0326
C8 C 0.0089(6) 0.2930(5) -0.1411(4)
C9 C 0.0480(6) 0.3338(5) -0.1983(4)
H7 H 0.0441 0.3997 -0.1991
C10 C 0.0930(6) 0.2929(5) -0.2562(4)
C11 C 0.1436(6) 0.3451(5) -0.3124(4)
H8 H 0.1454 0.3109 -0.3610
H9 H 0.0969 0.3998 -0.3195
C12 C 0.2557(6) 0.3698(5) -0.2931(4)
C13 C 0.2675(6) 0.4386(5) -0.2491(4)
H10 H 0.1987 0.4743 -0.2359
C14 C 0.3654(6) 0.4620(5) -0.2222(4)
C15 C 0.2962(6) 0.5675(5) -0.1456(4)
H11 H 0.3252 0.6221 -0.1201
H12 H 0.2418 0.5843 -0.1868
C16 C 0.3478(6) 0.3271(5) -0.3148(4)
C17 C 0.3440(9) 0.2500 -0.3588(6)
C18 C 0.4456(6) 0.3535(5) -0.2904(4)
H13 H 0.5159 0.3228 -0.3086
C19 C 0.4558(6) 0.4172(5) -0.2441(4)
C20 C 0.5878(7) 0.4050(6) -0.1568(4)
C21 C 0.6403(7) 0.3252(5) -0.1697(4)
C22 C 0.5904(9) 0.2500 -0.1559(6)
C23 C 0.7409(7) 0.3241(6) -0.1974(4)
H14 H 0.7820 0.3810 -0.2062
C24 C 0.7903(10) 0.2500 -0.2143(6)
H15 H 0.8529 0.2500 -0.2435
H16 H 0.5247 0.3942 -0.1238
H17 H 0.6295 0.4515 -0.1247
H18 H 0.5322 0.2500 -0.1215
C8G C 0.0089(6) 0.2070(5) -0.1411(4)
C10G C 0.0930(6) 0.2071(5) -0.2562(4)
C16G C 0.3478(6) 0.1729(5) -0.3148(4)
C21G C 0.6403(7) 0.1748(5) -0.1697(4)
C23G C 0.7409(7) 0.1759(6) -0.1974(4)
O1G O -0.03876(47) 0.17199(39) -0.08293(30)
C9G C 0.0480(6) 0.1662(5) -0.1983(4)
C11G C 0.1436(6) 0.1549(5) -0.3124(4)
C12G C 0.2557(6) 0.1302(5) -0.2931(4)
C18G C 0.4456(6) 0.1465(5) -0.2904(4)
C20G C 0.5878(7) 0.0950(6) -0.1568(4)
H14G H 0.7820 0.1190 -0.2062
C7G C -0.0318(7) 0.0854(6) -0.0746(5)
H7G H 0.0441 0.1003 -0.1991
H8G H 0.1454 0.1891 -0.3610
H9G H 0.0969 0.1002 -0.3195
C13G C 0.2675(6) 0.0614(5) -0.2491(4)
H13G H 0.5159 0.1772 -0.3086
C19G C 0.4558(6) 0.0828(5) -0.2441(4)
O3G O 0.55376(42) 0.05666(37) -0.22140(31)
H16G H 0.5247 0.1058 -0.1238
H17G H 0.6295 0.0485 -0.1247
C6G C 0.0790(7) 0.0575(5) -0.0570(4)
H5G H -0.0562 0.0565 -0.1230
H6G H -0.0841 0.0670 -0.0326
H10G H 0.1987 0.0257 -0.2359
C14G C 0.3654(6) 0.0380(5) -0.2222(4)
C1G C 0.1290(8) 0.0848(6) 0.0024(5)
C5G C 0.1318(7) 0.0062(5) -0.1040(4)
O2G O 0.38406(44) -0.02523(36) -0.17664(31)
H1G H 0.0883 0.1253 0.0381
C2G C 0.2315(8) 0.0607(6) 0.0168(5)
C4G C 0.2379(7) -0.0165(5) -0.0918(4)
H4G H 0.0912 -0.0162 -0.1500
C15G C 0.2962(6) -0.0675(5) -0.1456(4)
H2G H 0.2684 0.0800 0.0652
C3G C 0.2879(8) 0.0116(6) -0.0306(5)
H11G H 0.3252 -0.1221 -0.1201
H12G H 0.2418 -0.0843 -0.1868
H3G H 0.3691 -0.0045 -0.0201
Cl1 Cl -0.14284(28) 0.25000 0.07734(19)
Cl2 Cl -0.35743(26) 0.25000 0.02412(18)
C25 C -0.2228(19) 0.2500 0.0027(12)
H19 H -0.2244 0.1975 -0.0026
H19G H -0.2244 0.3025 -0.0026
loop_
_geom_bond_atom_site_label_1
_geom_bond_atom_site_label_2
_geom_bond_site_symmetry_1
_geom_bond_site_symmetry_2
O1 C7 1_555 1_555
O2 C14 1_555 1_555
O3 C19 1_555 1_555
C1 H1 1_555 1_555
C2 C1 1_555 1_555
H2 C2 1_555 1_555
C3 C2 1_555 1_555
H3 C3 1_555 1_555
C4 C3 1_555 1_555
C5 C4 1_555 1_555
H4 C5 1_555 1_555
C6 C1 1_555 1_555
C7 C6 1_555 1_555
H5 C7 1_555 1_555
H6 C7 1_555 1_555
C8 O1 1_555 1_555
C9 C8 1_555 1_555
H7 C9 1_555 1_555
C10 C9 1_555 1_555
C11 C10 1_555 1_555
H8 C11 1_555 1_555
H9 C11 1_555 1_555
C12 C11 1_555 1_555
C13 C12 1_555 1_555
H10 C13 1_555 1_555
C14 C13 1_555 1_555
C15 O2 1_555 1_555
H11 C15 1_555 1_555
H12 C15 1_555 1_555
C16 C12 1_555 1_555
C17 C16 1_555 1_555
C18 C16 1_555 1_555
H13 C18 1_555 1_555
C19 C14 1_555 1_555
C20 O3 1_555 1_555
C21 C20 1_555 1_555
C22 C21 1_555 1_555
C23 C21 1_555 1_555
H14 C23 1_555 1_555
C24 C23 1_555 1_555
H15 C24 1_555 1_555
H16 C20 1_555 1_555
H17 C20 1_555 1_555
H18 C22 1_555 1_555
Cl1 C25 1_555 1_555
Cl2 C25 1_555 1_555
C25 H19 1_555 1_555
C8G C8 1_555 1_555
C10G C10 1_555 1_555
C16G C17 1_555 1_555
C21G C22 1_555 1_555
C23G C24 1_555 1_555
O1G C8G 1_555 1_555
C9G C8G 1_555 1_555
C11G C10G 1_555 1_555
C12G C16G 1_555 1_555
C18G C16G 1_555 1_555
C20G C21G 1_555 1_555
H14G C23G 1_555 1_555
C7G O1G 1_555 1_555
H7G C9G 1_555 1_555
H8G C11G 1_555 1_555
H9G C11G 1_555 1_555
C13G C12G 1_555 1_555
H13G C18G 1_555 1_555
C19G C18G 1_555 1_555
O3G C20G 1_555 1_555
H16G C20G 1_555 1_555
H17G C20G 1_555 1_555
C6G C7G 1_555 1_555
H5G C7G 1_555 1_555
H6G C7G 1_555 1_555
H10G C13G 1_555 1_555
C14G C13G 1_555 1_555
C1G C6G 1_555 1_555
C5G C6G 1_555 1_555
O2G C14G 1_555 1_555
H1G C1G 1_555 1_555
C2G C1G 1_555 1_555
C4G C5G 1_555 1_555
H4G C5G 1_555 1_555
C15G O2G 1_555 1_555
H2G C2G 1_555 1_555
C3G C2G 1_555 1_555
H11G C15G 1_555 1_555
H12G C15G 1_555 1_555
H3G C3G 1_555 1_555
H19G C25 1_555 1_555
C4 C15 1_555 1_555
C5 C6 1_555 1_555
C18 C19 1_555 1_555
C10G C9G 1_555 1_555
C21G C23G 1_555 1_555
C11G C12G 1_555 1_555
C19G O3G 1_555 1_555
C19G C14G 1_555 1_555
C4G C15G 1_555 1_555
C4G C3G 1_555 1_555

#END
