
#######################################################################
#
#                 Cambridge Crystallographic Data Centre
#                                CCDC 
#
#######################################################################
#
# If this CIF has been generated from an entry in the Cambridge 
# Structural Database, then it will include bibliographic, chemical, 
# crystal, experimental, refinement or atomic coordinate data resulting 
# from the CCDC's data processing and validation procedures.
#
#######################################################################

data_GATCIP
_chemical_formula_moiety         'C30 H26 F2 N2 O2 S1'
_chemical_name_systematic        
5,9-bis(4-fluorobenzyl)-7-((4-methylphenyl)sulfonyl)-7,8-dihydro-6H-pyrido[3,4-d]azepine
_symmetry_cell_setting           monoclinic
_symmetry_space_group_name_H-M   'P 21/c'
_symmetry_Int_Tables_number      14
_space_group_name_Hall           '-P 2ybc'
loop_
_symmetry_equiv_pos_site_id
_symmetry_equiv_pos_as_xyz
1 x,y,z
2 -x,1/2+y,1/2-z
3 -x,-y,-z
4 x,1/2-y,1/2+z
_cell_length_a                   12.6080(8)
_cell_length_b                   18.4828(12)
_cell_length_c                   12.3061(8)
_cell_angle_alpha                90
_cell_angle_beta                 118.5500(10)
_cell_angle_gamma                90
_cell_volume                     2518.99
_cell_formula_units_Z            4
loop_
_atom_site_label
_atom_site_type_symbol
_atom_site_fract_x
_atom_site_fract_y
_atom_site_fract_z
C1 C -0.3145(3) 0.7177(2) 0.2687(4)
H1 H -0.2697 0.7320 0.3539
H2 H -0.3601 0.6748 0.2623
H3 H -0.3685 0.7559 0.2218
O1 O 0.09421(19) 0.72113(10) 0.0715(2)
N1 N 0.14645(17) 0.60714(10) 0.19027(18)
S1 S 0.04001(6) 0.65505(3) 0.07916(6)
C2 C -0.2281(3) 0.70262(18) 0.2188(3)
O2 O -0.0157(2) 0.60842(11) -0.02614(17)
N2 N 0.5551(3) 0.50064(18) 0.3292(3)
C3 C -0.1385(3) 0.75178(16) 0.2364(3)
H4 H -0.1321 0.7946 0.2788
F1 F -0.21172(15) 0.37719(11) 0.42700(18)
C4 C -0.0578(3) 0.73801(14) 0.1916(3)
H5 H 0.0026 0.7712 0.2048
F2 F 0.3629(2) 0.96799(10) 0.5292(2)
C5 C -0.0682(2) 0.67488(13) 0.1274(2)
C6 C -0.1579(2) 0.62526(15) 0.1077(3)
H6 H -0.1654 0.5829 0.0638
C7 C -0.2365(2) 0.63975(17) 0.1543(3)
H7 H -0.2964 0.6063 0.1419
C8 C 0.2218(2) 0.64529(13) 0.3082(2)
H8 H 0.2025 0.6276 0.3708
H9 H 0.2036 0.6966 0.2972
C9 C 0.3548(2) 0.63406(13) 0.3515(2)
C10 C 0.3965(2) 0.56266(13) 0.3306(2)
C11 C 0.3311(2) 0.49819(13) 0.3112(2)
C12 C 0.2107(2) 0.49301(12) 0.3058(2)
C13 C 0.1073(2) 0.53505(12) 0.2080(2)
H10 H 0.0736 0.5086 0.1306
H11 H 0.0446 0.5404 0.2317
C14 C 0.1968(2) 0.44747(13) 0.3825(2)
H12 H 0.2540 0.4638 0.4649
H13 H 0.2272 0.4014 0.3714
C15 C 0.0863(2) 0.42950(12) 0.3898(2)
C16 C -0.0270(2) 0.42331(13) 0.2868(2)
H14 H -0.0359 0.4310 0.2082
C17 C -0.1268(2) 0.40569(15) 0.3004(3)
H15 H -0.2026 0.4017 0.2314
C18 C -0.1129(2) 0.39437(14) 0.4153(3)
C19 C -0.0028(3) 0.39766(15) 0.5197(3)
H16 H 0.0051 0.3882 0.5974
C20 C 0.0960(2) 0.41555(14) 0.5051(2)
H17 H 0.1715 0.4183 0.5748
C21 C 0.3847(3) 0.43425(15) 0.3040(3)
H18 H 0.3436 0.3907 0.2924
C22 C 0.4982(3) 0.43450(16) 0.3140(3)
H19 H 0.5354 0.3917 0.3107
C23 C 0.5066(2) 0.56225(13) 0.3377(2)
H20 H 0.5484 0.6054 0.3486
C24 C 0.4347(2) 0.68701(14) 0.4075(2)
H21 H 0.4732 0.6949 0.3565
H22 H 0.4961 0.6660 0.4841
C25 C 0.4126(2) 0.76003(14) 0.4409(2)
C26 C 0.4700(2) 0.81864(15) 0.4204(3)
H23 H 0.5210 0.8106 0.3865
C27 C 0.4532(3) 0.88832(15) 0.4492(3)
H24 H 0.4901 0.9272 0.4327
C28 C 0.3816(3) 0.89877(15) 0.5024(3)
C29 C 0.3251(3) 0.84349(16) 0.5274(3)
H25 H 0.2774 0.8523 0.5648
C30 C 0.3406(3) 0.77389(15) 0.4959(3)
H26 H 0.3021 0.7356 0.5118
loop_
_geom_bond_atom_site_label_1
_geom_bond_atom_site_label_2
_geom_bond_site_symmetry_1
_geom_bond_site_symmetry_2
C1 H1 1_555 1_555
H2 C1 1_555 1_555
H3 C1 1_555 1_555
O1 S1 1_555 1_555
N1 S1 1_555 1_555
S1 O2 1_555 1_555
C2 C1 1_555 1_555
N2 C22 1_555 1_555
C3 C2 1_555 1_555
H4 C3 1_555 1_555
F1 C18 1_555 1_555
C4 C3 1_555 1_555
H5 C4 1_555 1_555
F2 C28 1_555 1_555
C5 S1 1_555 1_555
C6 C5 1_555 1_555
H6 C6 1_555 1_555
C7 C2 1_555 1_555
H7 C7 1_555 1_555
C8 N1 1_555 1_555
H8 C8 1_555 1_555
H9 C8 1_555 1_555
C9 C8 1_555 1_555
C10 C9 1_555 1_555
C11 C10 1_555 1_555
C12 C11 1_555 1_555
C13 N1 1_555 1_555
H10 C13 1_555 1_555
H11 C13 1_555 1_555
C14 C12 1_555 1_555
H12 C14 1_555 1_555
H13 C14 1_555 1_555
C15 C14 1_555 1_555
C16 C15 1_555 1_555
H14 C16 1_555 1_555
C17 C16 1_555 1_555
H15 C17 1_555 1_555
C18 C17 1_555 1_555
C19 C18 1_555 1_555
H16 C19 1_555 1_555
C20 C15 1_555 1_555
H17 C20 1_555 1_555
C21 C11 1_555 1_555
H18 C21 1_555 1_555
C22 C21 1_555 1_555
H19 C22 1_555 1_555
C23 N2 1_555 1_555
H20 C23 1_555 1_555
C24 C9 1_555 1_555
H21 C24 1_555 1_555
H22 C24 1_555 1_555
C25 C24 1_555 1_555
C26 C25 1_555 1_555
H23 C26 1_555 1_555
C27 C26 1_555 1_555
H24 C27 1_555 1_555
C28 C27 1_555 1_555
C29 C28 1_555 1_555
H25 C29 1_555 1_555
C30 C25 1_555 1_555
H26 C30 1_555 1_555
C4 C5 1_555 1_555
C6 C7 1_555 1_555
C10 C23 1_555 1_555
C12 C13 1_555 1_555
C19 C20 1_555 1_555
C29 C30 1_555 1_555

#END
