
#######################################################################
#
#                 Cambridge Crystallographic Data Centre
#                                CCDC 
#
#######################################################################
#
# If this CIF has been generated from an entry in the Cambridge 
# Structural Database, then it will include bibliographic, chemical, 
# crystal, experimental, refinement or atomic coordinate data resulting 
# from the CCDC's data processing and validation procedures.
#
#######################################################################

data_GATDUD
_chemical_formula_moiety         'C18 H16 Br1 N3 O5'
_chemical_name_systematic        
3-(4-bromobenzyl)-3-nitro-1-(4-nitrobenzyl)pyrrolidin-2-one
_symmetry_cell_setting           monoclinic
_symmetry_space_group_name_H-M   'I a'
_symmetry_Int_Tables_number      9
_space_group_name_Hall           'I -2ya'
loop_
_symmetry_equiv_pos_site_id
_symmetry_equiv_pos_as_xyz
1 x,y,z
2 1/2+x,-y,z
3 1/2+x,1/2+y,1/2+z
4 x,1/2-y,1/2+z
_cell_length_a                   13.044(3)
_cell_length_b                   9.5725(6)
_cell_length_c                   14.578(3)
_cell_angle_alpha                90
_cell_angle_beta                 104.884(10)
_cell_angle_gamma                90
_cell_volume                     1759.19
_exptl_crystal_colour            colorless
_exptl_crystal_description       prism
_cell_formula_units_Z            4
_exptl_crystal_recrystallization_method 'dichloromethane/petroleum ether'
loop_
_atom_site_label
_atom_site_type_symbol
_atom_site_fract_x
_atom_site_fract_y
_atom_site_fract_z
Br1 Br 0.20867(3) 0.34760(3) 0.51242(3)
O1 O 0.5778(2) 0.9270(2) 0.46584(19)
O2 O 0.4276(3) 1.2543(3) 0.4203(2)
O3 O 0.4847(2) 1.1991(3) 0.5689(2)
O4 O 0.7174(3) 0.2919(3) 0.2647(3)
O5 O 0.5680(3) 0.2352(3) 0.2927(2)
N1 N 0.4491(2) 0.9463(3) 0.3251(2)
N2 N 0.4402(3) 1.1715(3) 0.4863(2)
N3 N 0.6309(3) 0.3223(3) 0.2773(2)
C1 C 0.4004(3) 1.0220(3) 0.4606(2)
C2 C 0.4881(3) 0.9579(3) 0.4190(2)
C3 C 0.3444(3) 1.0095(4) 0.2883(3)
H1 H 0.2977 0.9483 0.2407
H2 H 0.3501 1.1017 0.2592
C4 C 0.3029(3) 1.0245(4) 0.3769(3)
H3 H 0.2638 1.1135 0.3753
H4 H 0.2546 0.9463 0.3812
C5 C 0.3896(3) 0.9495(3) 0.5521(2)
H5 H 0.4605 0.9452 0.5976
H6 H 0.3434 1.0072 0.5813
C6 C 0.3444(3) 0.8035(4) 0.5370(2)
C7 C 0.4089(3) 0.6857(4) 0.5195(2)
H7 H 0.4792 0.7002 0.5143
C8 C 0.3657(3) 0.5548(3) 0.5107(2)
H8 H 0.4064 0.4776 0.4990
C9 C 0.2632(3) 0.5333(3) 0.5188(2)
C10 C 0.1998(3) 0.6430(4) 0.5337(3)
H9 H 0.1296 0.6258 0.5384
C11 C 0.2402(3) 0.7790(4) 0.5418(3)
H10 H 0.1967 0.8549 0.5506
C12 C 0.5162(3) 0.9044(4) 0.2633(2)
H11 H 0.5832 0.9583 0.2812
H12 H 0.4797 0.9294 0.1970
C13 C 0.5429(3) 0.7504(3) 0.2670(2)
C14 C 0.6320(3) 0.7069(3) 0.2380(2)
H13 H 0.6731 0.7745 0.2155
C15 C 0.6619(3) 0.5674(4) 0.2412(3)
H14 H 0.7233 0.5390 0.2225
C16 C 0.5991(3) 0.4707(4) 0.2727(3)
C17 C 0.5089(3) 0.5085(3) 0.3008(3)
H15 H 0.4673 0.4399 0.3218
C18 C 0.4807(3) 0.6493(3) 0.2977(3)
H16 H 0.4192 0.6772 0.3164
loop_
_geom_bond_atom_site_label_1
_geom_bond_atom_site_label_2
_geom_bond_site_symmetry_1
_geom_bond_site_symmetry_2
Br1 C9 1_555 1_555
O1 C2 1_555 1_555
O2 N2 1_555 1_555
O3 N2 1_555 1_555
O4 N3 1_555 1_555
O5 N3 1_555 1_555
N1 C2 1_555 1_555
N2 C1 1_555 1_555
N3 C16 1_555 1_555
C1 C2 1_555 1_555
C3 N1 1_555 1_555
H1 C3 1_555 1_555
H2 C3 1_555 1_555
C4 C1 1_555 1_555
H3 C4 1_555 1_555
H4 C4 1_555 1_555
C5 C1 1_555 1_555
H5 C5 1_555 1_555
H6 C5 1_555 1_555
C6 C5 1_555 1_555
C7 C6 1_555 1_555
H7 C7 1_555 1_555
C8 C7 1_555 1_555
H8 C8 1_555 1_555
C9 C8 1_555 1_555
C10 C9 1_555 1_555
H9 C10 1_555 1_555
C11 C6 1_555 1_555
H10 C11 1_555 1_555
C12 N1 1_555 1_555
H11 C12 1_555 1_555
H12 C12 1_555 1_555
C13 C12 1_555 1_555
C14 C13 1_555 1_555
H13 C14 1_555 1_555
C15 C14 1_555 1_555
H14 C15 1_555 1_555
C16 C15 1_555 1_555
C17 C16 1_555 1_555
H15 C17 1_555 1_555
C18 C13 1_555 1_555
H16 C18 1_555 1_555
C3 C4 1_555 1_555
C10 C11 1_555 1_555
C17 C18 1_555 1_555

#END
