
#######################################################################
#
#                 Cambridge Crystallographic Data Centre
#                                CCDC 
#
#######################################################################
#
# If this CIF has been generated from an entry in the Cambridge 
# Structural Database, then it will include bibliographic, chemical, 
# crystal, experimental, refinement or atomic coordinate data resulting 
# from the CCDC's data processing and validation procedures.
#
#######################################################################

data_GATFUE
_chemical_formula_moiety         'C16 H18 Cl2 N2 S6'
_chemical_name_systematic        
2-(4,5-bis(butylsulfanyl)-1,3-dithiol-2-ylidene)-4,7-dichloro[1,3]dithiolo[4,5-d]pyridazine
_symmetry_cell_setting           triclinic
_symmetry_space_group_name_H-M   'P -1'
_symmetry_Int_Tables_number      2
_space_group_name_Hall           '-P 1'
loop_
_symmetry_equiv_pos_site_id
_symmetry_equiv_pos_as_xyz
1 x,y,z
2 -x,-y,-z
_cell_length_a                   7.671(6)
_cell_length_b                   11.215(8)
_cell_length_c                   13.310(11)
_cell_angle_alpha                86.10(3)
_cell_angle_beta                 79.57(3)
_cell_angle_gamma                79.27(2)
_cell_volume                     1105.75
_cell_formula_units_Z            2
loop_
_atom_site_label
_atom_site_type_symbol
_atom_site_fract_x
_atom_site_fract_y
_atom_site_fract_z
C1 C 0.4781(5) -0.0434(3) -0.2264(3)
C2 C 0.3790(4) -0.0261(3) -0.1292(3)
C3 C 0.3952(4) -0.1237(3) -0.0610(3)
C4 C 0.5083(5) -0.2299(3) -0.0983(3)
C5 C 0.1815(4) 0.0470(3) 0.0392(3)
C6 C 0.0712(4) 0.1129(3) 0.1137(3)
C7 C -0.1213(5) 0.2875(3) 0.2229(3)
C8 C -0.1023(5) 0.1914(4) 0.2888(3)
C9 C 0.0090(6) 0.1710(4) 0.4739(3)
H1 H -0.0211 0.1525 0.5465
H2 H 0.0947 0.1026 0.4438
C10 C 0.0978(6) 0.2816(4) 0.4594(3)
H3 H 0.1349 0.2971 0.3868
H4 H 0.0100 0.3512 0.4857
C11 C 0.2575(7) 0.2699(5) 0.5108(3)
H5 H 0.3442 0.1994 0.4853
H6 H 0.2198 0.2555 0.5835
C12 C 0.3485(7) 0.3787(5) 0.4955(4)
H7 H 0.3883 0.3930 0.4238
H8 H 0.4503 0.3643 0.5301
H9 H 0.2651 0.4485 0.5227
C13 C -0.1265(6) 0.5344(4) 0.1906(4)
H10 H -0.0871 0.5143 0.1194
H11 H -0.2000 0.6148 0.1931
C14 C 0.0374(7) 0.5349(4) 0.2402(6)
H12 H 0.0008 0.5248 0.3135
H13 H 0.1260 0.4639 0.2181
C15 C 0.1202(7) 0.6319(4) 0.2233(5)
H14 H 0.0314 0.7022 0.2468
H15 H 0.1530 0.6430 0.1498
C16 C 0.2824(7) 0.6353(5) 0.2679(4)
H16 H 0.2471 0.6544 0.3388
H17 H 0.3451 0.6963 0.2321
H18 H 0.3601 0.5575 0.2619
Cl1 Cl 0.53560(14) -0.35512(7) -0.01701(9)
Cl2 Cl 0.46759(18) 0.07417(11) -0.31497(9)
N1 N 0.5960(4) -0.2413(3) -0.1916(3)
N2 N 0.5807(4) -0.1461(3) -0.2575(2)
S1 S 0.27234(12) -0.10647(7) 0.06078(7)
S2 S 0.23682(12) 0.10579(7) -0.08587(7)
S3 S 0.01064(13) 0.05325(8) 0.23699(8)
S4 S -0.03029(13) 0.26374(8) 0.09438(8)
S5 S -0.19290(17) 0.18765(12) 0.41829(10)
S6 S -0.25794(16) 0.42716(10) 0.25403(11)
loop_
_geom_bond_atom_site_label_1
_geom_bond_atom_site_label_2
_geom_bond_site_symmetry_1
_geom_bond_site_symmetry_2
C1 C2 1_555 1_555
C2 C3 1_555 1_555
C3 C4 1_555 1_555
C4 Cl1 1_555 1_555
C5 C6 1_555 1_555
C6 S3 1_555 1_555
C7 C8 1_555 1_555
C8 S3 1_555 1_555
C9 H1 1_555 1_555
H2 C9 1_555 1_555
C10 C9 1_555 1_555
H3 C10 1_555 1_555
H4 C10 1_555 1_555
C11 C10 1_555 1_555
H5 C11 1_555 1_555
H6 C11 1_555 1_555
C12 C11 1_555 1_555
H7 C12 1_555 1_555
H8 C12 1_555 1_555
H9 C12 1_555 1_555
C13 H10 1_555 1_555
H11 C13 1_555 1_555
C14 C13 1_555 1_555
H12 C14 1_555 1_555
H13 C14 1_555 1_555
C15 C14 1_555 1_555
H14 C15 1_555 1_555
H15 C15 1_555 1_555
C16 C15 1_555 1_555
H16 C16 1_555 1_555
H17 C16 1_555 1_555
H18 C16 1_555 1_555
Cl2 C1 1_555 1_555
N1 C4 1_555 1_555
N2 C1 1_555 1_555
S1 C3 1_555 1_555
S2 C2 1_555 1_555
S4 C6 1_555 1_555
S5 C8 1_555 1_555
S6 C7 1_555 1_555
C5 S1 1_555 1_555
C5 S2 1_555 1_555
C7 S4 1_555 1_555
C9 S5 1_555 1_555
C13 S6 1_555 1_555
N1 N2 1_555 1_555

#END
