
#######################################################################
#
#                 Cambridge Crystallographic Data Centre
#                                CCDC 
#
#######################################################################
#
# If this CIF has been generated from an entry in the Cambridge 
# Structural Database, then it will include bibliographic, chemical, 
# crystal, experimental, refinement or atomic coordinate data resulting 
# from the CCDC's data processing and validation procedures.
#
#######################################################################

data_GATFAL
_chemical_formula_moiety         'C27 H26 N4 O6'
_chemical_name_systematic        
'methyl 3-(2-((1-benzyl-2,5-dioxo-2,5-dihydro-1H-pyrrol-3-yl)amino)phenyl)-1,5-dimethyl-4,6-dioxooctahydropyrrolo[3,4-c]pyrrole-1-carboxylate unknown solvate'
_symmetry_cell_setting           triclinic
_symmetry_space_group_name_H-M   'P -1'
_symmetry_Int_Tables_number      2
_space_group_name_Hall           '-P 1'
loop_
_symmetry_equiv_pos_site_id
_symmetry_equiv_pos_as_xyz
1 x,y,z
2 -x,-y,-z
_cell_length_a                   11.0454(5)
_cell_length_b                   14.1639(7)
_cell_length_c                   16.6788(8)
_cell_angle_alpha                94.228(4)
_cell_angle_beta                 102.590(4)
_cell_angle_gamma                99.650(4)
_cell_volume                     2494.01
_exptl_crystal_colour            yellow
_exptl_crystal_description       prism
_cell_formula_units_Z            4
loop_
_atom_site_label
_atom_site_type_symbol
_atom_site_fract_x
_atom_site_fract_y
_atom_site_fract_z
O1 O -0.17527(12) 0.62464(10) 0.50404(8)
O2 O 0.02251(10) 0.64110(9) 0.57911(8)
O3 O -0.19987(16) 0.51914(11) 0.65707(10)
O4 O -0.11274(13) 0.71487(11) 0.89860(8)
O5 O 0.17296(15) 0.58106(10) 0.75382(8)
O6 O 0.31395(15) 0.54064(12) 1.02465(9)
N1 N -0.00888(12) 0.78913(10) 0.68780(8)
H1 H 0.043(2) 0.8297(16) 0.6678(13)
N2 N 0.14277(12) 0.75244(10) 0.83882(9)
H2 H 0.1177 0.7388 0.7848
N3 N -0.14122(13) 0.60221(11) 0.78699(9)
N4 N 0.25238(16) 0.53711(12) 0.88289(10)
C1 C -0.07932(14) 0.66291(12) 0.56839(10)
C2 C -0.11845(14) 0.73786(12) 0.62319(10)
C3 C -0.20608(14) 0.69056(13) 0.67714(10)
H3 H -0.2969 0.6860 0.6489
C4 C -0.17226(14) 0.75785(12) 0.75859(10)
H4 H -0.2466 0.7862 0.7663
C5 C -0.06262(14) 0.83851(12) 0.74927(10)
H5 H -0.1020 0.8903 0.7223
C6 C -0.13701(15) 0.69376(13) 0.82484(11)
C7 C -0.18212(16) 0.59326(13) 0.70247(11)
C8 C 0.19227(14) 0.68486(12) 0.88080(10)
C9 C 0.20310(16) 0.59637(13) 0.82845(11)
C10 C 0.27218(17) 0.57937(15) 0.96474(12)
C11 C 0.23403(16) 0.67322(14) 0.96098(11)
H6 H 0.2380 0.7182 1.0071
C12 C 0.12679(14) 0.84247(12) 0.87201(10)
C13 C 0.03086(15) 0.88576(12) 0.82788(10)
C14 C 0.01862(17) 0.97620(13) 0.85994(11)
H7 H -0.0440 1.0071 0.8299
C15 C 0.09486(18) 1.02261(14) 0.93424(13)
H8 H 0.0834 1.0838 0.9554
C16 C 0.18762(17) 0.97893(14) 0.97713(12)
H9 H 0.2400 1.0099 1.0284
C17 C 0.20468(15) 0.88993(13) 0.94569(11)
H10 H 0.2703 0.8612 0.9749
C18 C 0.2691(2) 0.43979(15) 0.85907(14)
H11 H 0.3368 0.4224 0.9016
H12 H 0.2958 0.4381 0.8061
C19 C 0.1492(2) 0.36701(14) 0.84955(11)
C20 C 0.0706(3) 0.33436(19) 0.77279(13)
H13 H 0.0925 0.3572 0.7247
C21 C -0.0413(3) 0.2679(2) 0.76537(16)
H14 H -0.0942 0.2449 0.7122
C22 C -0.0752(3) 0.23550(19) 0.83431(17)
H15 H -0.1524 0.1915 0.8289
C23 C 0.0025(2) 0.26679(16) 0.91119(14)
H16 H -0.0198 0.2438 0.9591
C24 C 0.11376(18) 0.33217(14) 0.91827(11)
H17 H 0.1672 0.3537 0.9716
C25 C -0.15180(19) 0.55012(16) 0.44875(12)
H18 H -0.2269 0.5282 0.4035
H19 H -0.1326 0.4958 0.4792
H20 H -0.0800 0.5758 0.4260
C26 C -0.18638(15) 0.80494(13) 0.56831(10)
H21 H -0.2106 0.8538 0.6032
H22 H -0.2622 0.7670 0.5302
H23 H -0.1296 0.8366 0.5366
C27 C -0.11340(19) 0.52283(15) 0.83477(14)
H24 H -0.0293 0.5415 0.8720
H25 H -0.1155 0.4659 0.7970
H26 H -0.1767 0.5079 0.8673
O7 O 0.85711(12) 0.13113(10) 0.57904(7)
O8 O 0.90472(11) 0.13333(10) 0.45552(8)
O9 O 0.64098(11) -0.01720(9) 0.47421(8)
O10 O 0.35506(11) 0.10004(10) 0.28935(8)
O11 O 0.77118(12) 0.00586(9) 0.29150(8)
O12 O 0.51629(15) -0.14014(10) 0.04643(8)
N5 N 0.72245(12) 0.23848(10) 0.39732(8)
H27 H 0.787(2) 0.2864(15) 0.3940(12)
N6 N 0.62512(12) 0.14426(10) 0.23878(8)
H28 H 0.6795 0.1511 0.2869
N7 N 0.49609(12) 0.02419(10) 0.36860(9)
N8 N 0.66061(13) -0.08888(10) 0.17067(9)
C28 C 0.84135(14) 0.15368(12) 0.50160(10)
C29 C 0.73515(15) 0.21080(12) 0.48122(9)
C30 C 0.60312(14) 0.14832(13) 0.47463(10)
H29 H 0.5787 0.1540 0.5289
C31 C 0.51311(14) 0.19005(12) 0.40891(10)
H30 H 0.4519 0.2191 0.4344
C32 C 0.59989(14) 0.27004(12) 0.37623(10)
H31 H 0.6075 0.3322 0.4112
C33 C 0.44397(14) 0.10352(13) 0.34725(10)
C34 C 0.58793(14) 0.04302(13) 0.44179(10)
C35 C 0.60934(14) 0.06033(11) 0.19196(9)
C36 C 0.53330(16) 0.01720(12) 0.11912(10)
H32 H 0.4714 0.0442 0.0840
C37 C 0.56299(17) -0.07754(13) 0.10399(10)
C38 C 0.69328(14) -0.00862(12) 0.22712(10)
C39 C 0.56537(14) 0.22291(11) 0.22049(10)
C40 C 0.55777(14) 0.28687(12) 0.28688(10)
C41 C 0.50589(15) 0.36828(12) 0.26917(11)
H33 H 0.5029 0.4133 0.3135
C42 C 0.45858(16) 0.38512(13) 0.18869(12)
H34 H 0.4224 0.4405 0.1780
C43 C 0.46443(17) 0.32050(14) 0.12400(12)
H35 H 0.4311 0.3312 0.0686
C44 C 0.51876(16) 0.23997(13) 0.13937(11)
H36 H 0.5241 0.1966 0.0946
C45 C 0.70672(17) -0.17853(13) 0.18344(12)
H37 H 0.7947 -0.1638 0.2172
H38 H 0.7068 -0.2124 0.1294
C46 C 0.62486(16) -0.24312(12) 0.22664(11)
C47 C 0.5062(2) -0.29051(14) 0.18413(13)
H39 H 0.4784 -0.2856 0.1268
C48 C 0.4277(2) -0.34483(16) 0.22410(16)
H40 H 0.3455 -0.3758 0.1942
C49 C 0.4663(2) -0.35497(15) 0.30648(15)
H41 H 0.4110 -0.3917 0.3339
C50 C 0.5862(2) -0.31101(17) 0.34867(13)
H42 H 0.6155 -0.3195 0.4051
C51 C 0.66436(19) -0.25450(16) 0.30921(12)
H43 H 0.7463 -0.2231 0.3393
C52 C 0.9529(2) 0.07429(17) 0.60387(13)
H44 H 0.9319 0.0133 0.5676
H45 H 0.9569 0.0610 0.6611
H46 H 1.0350 0.1100 0.5998
C53 C 0.76008(19) 0.29748(15) 0.54864(11)
H47 H 0.8412 0.3388 0.5498
H48 H 0.7626 0.2739 0.6026
H49 H 0.6923 0.3346 0.5361
C54 C 0.44819(17) -0.07071(13) 0.32241(11)
H50 H 0.5089 -0.1129 0.3387
H51 H 0.4360 -0.0652 0.2631
H52 H 0.3673 -0.0980 0.3343
loop_
_geom_bond_atom_site_label_1
_geom_bond_atom_site_label_2
_geom_bond_site_symmetry_1
_geom_bond_site_symmetry_2
O1 C1 1_555 1_555
O2 C1 1_555 1_555
O3 C7 1_555 1_555
O4 C6 1_555 1_555
O5 C9 1_555 1_555
O6 C10 1_555 1_555
N1 H1 1_555 1_555
N2 H2 1_555 1_555
N3 C6 1_555 1_555
N4 C9 1_555 1_555
C1 C2 1_555 1_555
C2 N1 1_555 1_555
C3 C2 1_555 1_555
H3 C3 1_555 1_555
C4 C3 1_555 1_555
H4 C4 1_555 1_555
C5 N1 1_555 1_555
H5 C5 1_555 1_555
C6 C4 1_555 1_555
C7 N3 1_555 1_555
C8 N2 1_555 1_555
C9 C8 1_555 1_555
C10 N4 1_555 1_555
C11 C8 1_555 1_555
H6 C11 1_555 1_555
C12 N2 1_555 1_555
C13 C5 1_555 1_555
C14 C13 1_555 1_555
H7 C14 1_555 1_555
C15 C14 1_555 1_555
H8 C15 1_555 1_555
C16 C15 1_555 1_555
H9 C16 1_555 1_555
C17 C12 1_555 1_555
H10 C17 1_555 1_555
C18 N4 1_555 1_555
H11 C18 1_555 1_555
H12 C18 1_555 1_555
C19 C18 1_555 1_555
C20 C19 1_555 1_555
H13 C20 1_555 1_555
C21 C20 1_555 1_555
H14 C21 1_555 1_555
C22 C21 1_555 1_555
H15 C22 1_555 1_555
C23 C22 1_555 1_555
H16 C23 1_555 1_555
C24 C19 1_555 1_555
H17 C24 1_555 1_555
C25 O1 1_555 1_555
H18 C25 1_555 1_555
H19 C25 1_555 1_555
H20 C25 1_555 1_555
C26 C2 1_555 1_555
H21 C26 1_555 1_555
H22 C26 1_555 1_555
H23 C26 1_555 1_555
C27 N3 1_555 1_555
H24 C27 1_555 1_555
H25 C27 1_555 1_555
H26 C27 1_555 1_555
O7 C28 1_555 1_555
O8 C28 1_555 1_555
O9 C34 1_555 1_555
O10 C33 1_555 1_555
O11 C38 1_555 1_555
O12 C37 1_555 1_555
N5 H27 1_555 1_555
N6 H28 1_555 1_555
N7 C33 1_555 1_555
N8 C37 1_555 1_555
C28 C29 1_555 1_555
C29 N5 1_555 1_555
C30 C29 1_555 1_555
H29 C30 1_555 1_555
C31 C30 1_555 1_555
H30 C31 1_555 1_555
C32 N5 1_555 1_555
H31 C32 1_555 1_555
C33 C31 1_555 1_555
C34 N7 1_555 1_555
C35 N6 1_555 1_555
C36 C35 1_555 1_555
H32 C36 1_555 1_555
C37 C36 1_555 1_555
C38 N8 1_555 1_555
C39 N6 1_555 1_555
C40 C32 1_555 1_555
C41 C40 1_555 1_555
H33 C41 1_555 1_555
C42 C41 1_555 1_555
H34 C42 1_555 1_555
C43 C42 1_555 1_555
H35 C43 1_555 1_555
C44 C39 1_555 1_555
H36 C44 1_555 1_555
C45 N8 1_555 1_555
H37 C45 1_555 1_555
H38 C45 1_555 1_555
C46 C45 1_555 1_555
C47 C46 1_555 1_555
H39 C47 1_555 1_555
C48 C47 1_555 1_555
H40 C48 1_555 1_555
C49 C48 1_555 1_555
H41 C49 1_555 1_555
C50 C49 1_555 1_555
H42 C50 1_555 1_555
C51 C46 1_555 1_555
H43 C51 1_555 1_555
C52 O7 1_555 1_555
H44 C52 1_555 1_555
H45 C52 1_555 1_555
H46 C52 1_555 1_555
C53 C29 1_555 1_555
H47 C53 1_555 1_555
H48 C53 1_555 1_555
H49 C53 1_555 1_555
C54 N7 1_555 1_555
H50 C54 1_555 1_555
H51 C54 1_555 1_555
H52 C54 1_555 1_555
C3 C7 1_555 1_555
C4 C5 1_555 1_555
C10 C11 1_555 1_555
C12 C13 1_555 1_555
C16 C17 1_555 1_555
C23 C24 1_555 1_555
C30 C34 1_555 1_555
C31 C32 1_555 1_555
C35 C38 1_555 1_555
C39 C40 1_555 1_555
C43 C44 1_555 1_555
C50 C51 1_555 1_555

#END
