
#######################################################################
#
#                 Cambridge Crystallographic Data Centre
#                                CCDC 
#
#######################################################################
#
# If this CIF has been generated from an entry in the Cambridge 
# Structural Database, then it will include bibliographic, chemical, 
# crystal, experimental, refinement or atomic coordinate data resulting 
# from the CCDC's data processing and validation procedures.
#
#######################################################################

data_GATJIX
_chemical_formula_moiety         'C19 H18 Br1 N3'
_chemical_name_systematic        
4-(4-bromophenyl)-2-(piperidin-1-yl)quinazoline
_symmetry_cell_setting           monoclinic
_symmetry_space_group_name_H-M   'P 21/c'
_symmetry_Int_Tables_number      14
_space_group_name_Hall           '-P 2ybc'
loop_
_symmetry_equiv_pos_site_id
_symmetry_equiv_pos_as_xyz
1 x,y,z
2 -x,1/2+y,1/2-z
3 -x,-y,-z
4 x,1/2-y,1/2+z
_cell_length_a                   9.5466(4)
_cell_length_b                   16.5737(6)
_cell_length_c                   10.8841(4)
_cell_angle_alpha                90
_cell_angle_beta                 106.314(4)
_cell_angle_gamma                90
_cell_volume                     1652.77
_exptl_crystal_colour            'greenish yellow'
_exptl_crystal_description       plate
_cell_formula_units_Z            4
loop_
_atom_site_label
_atom_site_type_symbol
_atom_site_fract_x
_atom_site_fract_y
_atom_site_fract_z
Br1 Br 0.90470(3) 0.53580(2) 0.72552(3)
N1 N 0.4144(2) 0.47330(11) 0.14595(18)
N2 N 0.2525(2) 0.53142(11) -0.04419(19)
N3 N 0.2811(3) 0.39317(12) -0.0199(2)
C1 C 0.7617(3) 0.53870(13) 0.5640(2)
C2 C 0.6383(3) 0.58615(14) 0.5481(2)
H1 H 0.6239 0.6153 0.6166
C3 C 0.7835(3) 0.49348(15) 0.4640(2)
H2 H 0.8664 0.4615 0.4762
C4 C 0.6802(3) 0.49636(14) 0.3452(2)
H3 H 0.6933 0.4654 0.2781
C5 C 0.5370(3) 0.58967(13) 0.4292(2)
H4 H 0.4547 0.6219 0.4177
C6 C 0.5569(2) 0.54522(12) 0.3259(2)
C7 C 0.4480(2) 0.54499(13) 0.1973(2)
C8 C 0.3866(3) 0.61776(13) 0.1314(2)
C9 C 0.4187(3) 0.69737(15) 0.1780(3)
H5 H 0.4828 0.7055 0.2589
C10 C 0.3567(3) 0.76235(15) 0.1058(3)
H6 H 0.3774 0.8143 0.1382
C11 C 0.2619(3) 0.75067(16) -0.0172(3)
H7 H 0.2206 0.7952 -0.0661
C12 C 0.2291(3) 0.67499(15) -0.0662(3)
H8 H 0.1668 0.6685 -0.1482
C13 C 0.2898(3) 0.60593(14) 0.0075(2)
C14 C 0.3154(3) 0.46906(13) 0.0268(2)
C15 C 0.1801(3) 0.37839(15) -0.1452(2)
H9 H 0.2296 0.3487 -0.1974
H10 H 0.1481 0.4295 -0.1870
C16 C 0.0496(3) 0.33120(19) -0.1345(4)
H11 H -0.0132 0.3193 -0.2194
H12 H -0.0058 0.3632 -0.0898
C17 C 0.0976(4) 0.25267(19) -0.0621(4)
H13 H 0.0132 0.2250 -0.0495
H14 H 0.1424 0.2178 -0.1119
C18 C 0.2060(4) 0.26989(17) 0.0669(3)
H15 H 0.1570 0.2985 0.1207
H16 H 0.2422 0.2193 0.1086
C19 C 0.3332(3) 0.31984(15) 0.0530(3)
H17 H 0.3954 0.3341 0.1371
H18 H 0.3907 0.2884 0.0095
loop_
_geom_bond_atom_site_label_1
_geom_bond_atom_site_label_2
_geom_bond_site_symmetry_1
_geom_bond_site_symmetry_2
Br1 C1 1_555 1_555
N1 C7 1_555 1_555
N2 C13 1_555 1_555
N3 C14 1_555 1_555
C1 C2 1_555 1_555
C2 H1 1_555 1_555
C3 C1 1_555 1_555
H2 C3 1_555 1_555
C4 C3 1_555 1_555
H3 C4 1_555 1_555
C5 C2 1_555 1_555
H4 C5 1_555 1_555
C6 C4 1_555 1_555
C7 C6 1_555 1_555
C8 C7 1_555 1_555
C9 C8 1_555 1_555
H5 C9 1_555 1_555
C10 C9 1_555 1_555
H6 C10 1_555 1_555
C11 C10 1_555 1_555
H7 C11 1_555 1_555
C12 C11 1_555 1_555
H8 C12 1_555 1_555
C13 C8 1_555 1_555
C14 N1 1_555 1_555
C15 N3 1_555 1_555
H9 C15 1_555 1_555
H10 C15 1_555 1_555
C16 C15 1_555 1_555
H11 C16 1_555 1_555
H12 C16 1_555 1_555
C17 C16 1_555 1_555
H13 C17 1_555 1_555
H14 C17 1_555 1_555
C18 C17 1_555 1_555
H15 C18 1_555 1_555
H16 C18 1_555 1_555
C19 N3 1_555 1_555
H17 C19 1_555 1_555
H18 C19 1_555 1_555
N2 C14 1_555 1_555
C5 C6 1_555 1_555
C12 C13 1_555 1_555
C18 C19 1_555 1_555

#END
