
#######################################################################
#
#                 Cambridge Crystallographic Data Centre
#                                CCDC 
#
#######################################################################
#
# If this CIF has been generated from an entry in the Cambridge 
# Structural Database, then it will include bibliographic, chemical, 
# crystal, experimental, refinement or atomic coordinate data resulting 
# from the CCDC's data processing and validation procedures.
#
#######################################################################

data_GATVUU
_chemical_formula_moiety         'C20 H18 Br2 O2'
_chemical_name_systematic        
(R,R,R)-1,13-dibromo-5a,6,7,8,8a,9-hexahydro-5H-chromeno[3,2-d]xanthene
_symmetry_cell_setting           orthorhombic
_symmetry_space_group_name_H-M   'P 21 21 21'
_symmetry_Int_Tables_number      19
_space_group_name_Hall           'P 2ac 2ab'
loop_
_symmetry_equiv_pos_site_id
_symmetry_equiv_pos_as_xyz
1 x,y,z
2 1/2-x,-y,1/2+z
3 -x,1/2+y,1/2-z
4 1/2+x,1/2-y,-z
_cell_length_a                   9.160(2)
_cell_length_b                   10.192(2)
_cell_length_c                   18.814(4)
_cell_angle_alpha                90
_cell_angle_beta                 90
_cell_angle_gamma                90
_cell_volume                     1756.45
_exptl_crystal_colour            colorless
_exptl_crystal_description       prismatic
_cell_formula_units_Z            4
loop_
_atom_site_label
_atom_site_type_symbol
_atom_site_fract_x
_atom_site_fract_y
_atom_site_fract_z
Br1 Br 0.55969(11) 0.95600(8) 0.63554(4)
Br2 Br 0.39926(10) 0.86389(8) 0.28936(5)
O1 O 0.6659(5) 1.0239(4) 0.4925(2)
O2 O 0.6456(5) 0.9438(4) 0.3827(2)
C1 C 0.7273(8) 1.1078(6) 0.5411(4)
C2 C 0.6873(9) 1.0937(6) 0.6114(4)
C3 C 0.7435(11) 1.1742(8) 0.6633(4)
H1 H 0.7201 1.1607 0.7108
C4 C 0.8326(10) 1.2726(8) 0.6443(5)
H2 H 0.8701 1.3281 0.6790
C5 C 0.8696(9) 1.2927(7) 0.5737(5)
H3 H 0.9303 1.3623 0.5614
C6 C 0.8179(8) 1.2113(6) 0.5220(4)
C7 C 0.8651(9) 1.2245(7) 0.4463(4)
H4 H 0.9686 1.2050 0.4435
H5 H 0.8519 1.3151 0.4319
C8 C 0.7846(8) 1.1365(7) 0.3936(4)
H6 H 0.6930 1.1807 0.3813
C9 C 0.8683(9) 1.1161(8) 0.3255(4)
H7 H 0.8976 1.2007 0.3067
H8 H 0.8049 1.0747 0.2908
C10 C 1.0061(10) 1.0295(8) 0.3363(5)
H9 H 1.0511 1.0118 0.2906
H10 H 1.0763 1.0762 0.3655
C11 C 0.9660(8) 0.9018(7) 0.3718(4)
H11 H 1.0546 0.8534 0.3823
H12 H 0.9083 0.8496 0.3391
C12 C 0.8799(8) 0.9216(6) 0.4404(4)
H13 H 0.9429 0.9676 0.4744
C13 C 0.7449(9) 1.0060(6) 0.4278(4)
C14 C 0.8301(9) 0.7931(7) 0.4748(4)
H14 H 0.9121 0.7334 0.4785
H15 H 0.7940 0.8103 0.5223
C15 C 0.7126(8) 0.7321(7) 0.4313(4)
C16 C 0.6269(8) 0.8102(6) 0.3886(3)
C17 C 0.5187(8) 0.7567(7) 0.3469(4)
C18 C 0.4921(9) 0.6231(8) 0.3473(4)
H16 H 0.4175 0.5873 0.3199
C19 C 0.5783(11) 0.5446(8) 0.3890(4)
H17 H 0.5636 0.4543 0.3885
C20 C 0.6870(10) 0.5967(7) 0.4320(4)
H18 H 0.7423 0.5421 0.4611
loop_
_geom_bond_atom_site_label_1
_geom_bond_atom_site_label_2
_geom_bond_site_symmetry_1
_geom_bond_site_symmetry_2
Br1 C2 1_555 1_555
Br2 C17 1_555 1_555
O1 C1 1_555 1_555
O2 C13 1_555 1_555
C1 C2 1_555 1_555
C2 C3 1_555 1_555
C3 H1 1_555 1_555
C4 C3 1_555 1_555
H2 C4 1_555 1_555
C5 C4 1_555 1_555
H3 C5 1_555 1_555
C6 C1 1_555 1_555
C7 C6 1_555 1_555
H4 C7 1_555 1_555
H5 C7 1_555 1_555
C8 C7 1_555 1_555
H6 C8 1_555 1_555
C9 C8 1_555 1_555
H7 C9 1_555 1_555
H8 C9 1_555 1_555
C10 C9 1_555 1_555
H9 C10 1_555 1_555
H10 C10 1_555 1_555
C11 C10 1_555 1_555
H11 C11 1_555 1_555
H12 C11 1_555 1_555
C12 C11 1_555 1_555
H13 C12 1_555 1_555
C13 O1 1_555 1_555
C14 C12 1_555 1_555
H14 C14 1_555 1_555
H15 C14 1_555 1_555
C15 C14 1_555 1_555
C16 O2 1_555 1_555
C17 C16 1_555 1_555
C18 C17 1_555 1_555
H16 C18 1_555 1_555
C19 C18 1_555 1_555
H17 C19 1_555 1_555
C20 C15 1_555 1_555
H18 C20 1_555 1_555
C5 C6 1_555 1_555
C8 C13 1_555 1_555
C12 C13 1_555 1_555
C15 C16 1_555 1_555
C19 C20 1_555 1_555

#END
