
#######################################################################
#
#                 Cambridge Crystallographic Data Centre
#                                CCDC 
#
#######################################################################
#
# If this CIF has been generated from an entry in the Cambridge 
# Structural Database, then it will include bibliographic, chemical, 
# crystal, experimental, refinement or atomic coordinate data resulting 
# from the CCDC's data processing and validation procedures.
#
#######################################################################

data_GATVII
_chemical_formula_moiety         'C20 H20 O2'
_chemical_name_systematic        
cis-5a,6,7,8,8a,9-hexahydro-5H-chromeno[3,2-d]xanthene
_symmetry_cell_setting           monoclinic
_symmetry_space_group_name_H-M   'P 21/c'
_symmetry_Int_Tables_number      14
_space_group_name_Hall           '-P 2ybc'
loop_
_symmetry_equiv_pos_site_id
_symmetry_equiv_pos_as_xyz
1 x,y,z
2 -x,1/2+y,1/2-z
3 -x,-y,-z
4 x,1/2-y,1/2+z
_cell_length_a                   13.3191(14)
_cell_length_b                   6.5609(7)
_cell_length_c                   17.3777(19)
_cell_angle_alpha                90
_cell_angle_beta                 98.037(2)
_cell_angle_gamma                90
_cell_volume                     1503.64
_exptl_crystal_colour            colorless
_exptl_crystal_description       prismatic
_cell_formula_units_Z            4
loop_
_atom_site_label
_atom_site_type_symbol
_atom_site_fract_x
_atom_site_fract_y
_atom_site_fract_z
O1 O 0.25354(8) 0.58232(16) 0.16675(6)
O2 O 0.12190(8) 0.35885(16) 0.12768(7)
C1 C 0.20664(11) 0.4591(2) 0.10358(9)
C2 C 0.27687(11) 0.2919(2) 0.08299(9)
H1 H 0.2392 0.2064 0.0426
C3 C 0.30960(12) 0.1595(2) 0.15370(10)
H2 H 0.2528 0.0767 0.1644
H3 H 0.3634 0.0687 0.1429
C4 C 0.34638(11) 0.2868(2) 0.22364(9)
C5 C 0.31370(11) 0.4870(2) 0.22738(9)
C6 C 0.34322(12) 0.6052(3) 0.29214(10)
H4 H 0.3210 0.7392 0.2938
C7 C 0.40581(13) 0.5239(3) 0.35428(10)
H5 H 0.4245 0.6024 0.3985
C8 C 0.44094(13) 0.3266(3) 0.35132(10)
H6 H 0.4843 0.2727 0.3930
C9 C 0.41142(12) 0.2107(3) 0.28645(9)
H7 H 0.4355 0.0781 0.2845
C10 C 0.17405(12) 0.6050(2) 0.03693(10)
H8 H 0.1362 0.5254 -0.0052
C11 C 0.10218(12) 0.7646(3) 0.06119(11)
H9 H 0.1410 0.8676 0.0925
H10 H 0.0671 0.8307 0.0152
C12 C 0.02605(12) 0.6742(3) 0.10658(10)
C13 C 0.03912(11) 0.4790(3) 0.13693(9)
C14 C -0.03208(13) 0.3910(3) 0.17783(10)
H11 H -0.0228 0.2592 0.1972
C15 C -0.11656(14) 0.5015(4) 0.18935(11)
H12 H -0.1648 0.4435 0.2165
C16 C -0.13044(15) 0.6969(4) 0.16113(12)
H13 H -0.1871 0.7716 0.1699
C17 C -0.06019(13) 0.7806(3) 0.12009(10)
H14 H -0.0703 0.9122 0.1007
C18 C 0.36710(12) 0.3840(3) 0.05046(10)
H15 H 0.4095 0.4558 0.0917
H16 H 0.4072 0.2750 0.0325
C19 C 0.33583(13) 0.5299(3) -0.01600(10)
H17 H 0.3020 0.4545 -0.0602
H18 H 0.3959 0.5926 -0.0314
C20 C 0.26556(13) 0.6950(3) 0.00587(11)
H19 H 0.2428 0.7779 -0.0395
H20 H 0.3023 0.7825 0.0451
loop_
_geom_bond_atom_site_label_1
_geom_bond_atom_site_label_2
_geom_bond_site_symmetry_1
_geom_bond_site_symmetry_2
O1 C1 1_555 1_555
O2 C1 1_555 1_555
C1 C2 1_555 1_555
C2 H1 1_555 1_555
C3 C2 1_555 1_555
H2 C3 1_555 1_555
H3 C3 1_555 1_555
C4 C3 1_555 1_555
C5 O1 1_555 1_555
C6 C5 1_555 1_555
H4 C6 1_555 1_555
C7 C6 1_555 1_555
H5 C7 1_555 1_555
C8 C7 1_555 1_555
H6 C8 1_555 1_555
C9 C4 1_555 1_555
H7 C9 1_555 1_555
C10 C1 1_555 1_555
H8 C10 1_555 1_555
C11 C10 1_555 1_555
H9 C11 1_555 1_555
H10 C11 1_555 1_555
C12 C11 1_555 1_555
C13 O2 1_555 1_555
C14 C13 1_555 1_555
H11 C14 1_555 1_555
C15 C14 1_555 1_555
H12 C15 1_555 1_555
C16 C15 1_555 1_555
H13 C16 1_555 1_555
C17 C12 1_555 1_555
H14 C17 1_555 1_555
C18 C2 1_555 1_555
H15 C18 1_555 1_555
H16 C18 1_555 1_555
C19 C18 1_555 1_555
H17 C19 1_555 1_555
H18 C19 1_555 1_555
C20 C10 1_555 1_555
H19 C20 1_555 1_555
H20 C20 1_555 1_555
C4 C5 1_555 1_555
C8 C9 1_555 1_555
C12 C13 1_555 1_555
C16 C17 1_555 1_555
C19 C20 1_555 1_555

#END
