
#######################################################################
#
#                 Cambridge Crystallographic Data Centre
#                                CCDC 
#
#######################################################################
#
# If this CIF has been generated from an entry in the Cambridge 
# Structural Database, then it will include bibliographic, chemical, 
# crystal, experimental, refinement or atomic coordinate data resulting 
# from the CCDC's data processing and validation procedures.
#
#######################################################################

data_GATXAB02
_chemical_formula_moiety         'C24 H12 N4 O4,2(C3 H7 N1 O1)'
_chemical_name_systematic        
"N,N'-bis(4-Pyridyl)naphthalene-1,8:4,5-bis(dicarboximide) dimethylformamide solvate"
_symmetry_cell_setting           monoclinic
_symmetry_space_group_name_H-M   'P 21/c'
_symmetry_Int_Tables_number      14
_space_group_name_Hall           '-P 2ybc'
loop_
_symmetry_equiv_pos_site_id
_symmetry_equiv_pos_as_xyz
1 x,y,z
2 -x,1/2+y,1/2-z
3 -x,-y,-z
4 x,1/2-y,1/2+z
_cell_length_a                   5.4481(10)
_cell_length_b                   13.062(3)
_cell_length_c                   19.355(5)
_cell_angle_alpha                90
_cell_angle_beta                 93.32(3)
_cell_angle_gamma                90
_cell_volume                     1375.05
_exptl_crystal_colour            yellow
_exptl_crystal_description       Block
_cell_formula_units_Z            2
loop_
_atom_site_label
_atom_site_type_symbol
_atom_site_fract_x
_atom_site_fract_y
_atom_site_fract_z
O1 O 0.7732(4) 0.26179(18) 0.40697(11)
O2 O 0.1095(4) 0.08849(18) 0.31718(11)
N1 N 0.3802(6) 0.3860(3) 0.19796(16)
N2 N 0.4424(4) 0.17420(17) 0.36225(11)
C1 C 0.2215(7) 0.3837(3) 0.24701(19)
H1 H 0.0941 0.4312 0.2446
C2 C 0.5572(7) 0.3174(3) 0.20335(19)
H2 H 0.6707 0.3171 0.1693
C3 C 0.2323(6) 0.3156(3) 0.30162(17)
H3 H 0.1155 0.3171 0.3348
C4 C 0.5879(6) 0.2453(3) 0.25586(17)
H4 H 0.7172 0.1987 0.2571
C5 C 0.4201(5) 0.2457(2) 0.30554(14)
C6 C 0.2684(5) 0.0955(2) 0.36309(13)
C7 C 0.6357(5) 0.1900(2) 0.41181(13)
C8 C 0.6598(4) 0.11524(19) 0.46892(12)
C9 C 0.2937(4) 0.02324(19) 0.42172(12)
C10 C 0.1272(5) -0.0549(2) 0.42698(13)
H5 H -0.0023 -0.0615 0.3938
C11 C 0.4881(4) 0.03497(18) 0.47216(12)
C12 C 0.8495(5) 0.12442(19) 0.51845(13)
H6 H 0.9628 0.1773 0.5155
O1B O 0.2268(4) -0.26179(18) 0.59303(11)
O2B O 0.8905(4) -0.08849(18) 0.68282(11)
N1B N 0.6198(6) -0.3860(3) 0.80204(16)
N2B N 0.5576(4) -0.17420(17) 0.63775(11)
C1B C 0.7785(7) -0.3837(3) 0.75299(19)
H1B H 0.9059 -0.4312 0.7554
C2B C 0.4428(7) -0.3174(3) 0.79665(19)
H2B H 0.3293 -0.3171 0.8307
C3B C 0.7677(6) -0.3156(3) 0.69838(17)
H3B H 0.8845 -0.3171 0.6652
C4B C 0.4121(6) -0.2453(3) 0.74414(17)
H4B H 0.2828 -0.1987 0.7429
C5B C 0.5799(5) -0.2457(2) 0.69446(14)
C6B C 0.7316(5) -0.0955(2) 0.63691(13)
C7B C 0.3643(5) -0.1900(2) 0.58819(13)
C8B C 0.3402(4) -0.11524(19) 0.53108(12)
C9B C 0.7063(4) -0.02324(19) 0.57828(12)
C10B C 0.8728(5) 0.0549(2) 0.57302(13)
H5B H 1.0023 0.0615 0.6062
C11B C 0.5119(4) -0.03497(18) 0.52784(12)
C12B C 0.1505(5) -0.12442(19) 0.48155(13)
H6B H 0.0372 -0.1773 0.4845
O3 O 0.3074(10) 0.2124(6) 0.0105(5)
N3 N 0.2658(11) 0.0893(4) 0.0925(3)
C13 C 0.032(2) 0.1535(13) 0.1261(5)
H7 H -0.1217 0.1285 0.1059
H8 H 0.0469 0.2252 0.1164
H9 H 0.0371 0.1432 0.1753
C14 C 0.391(2) 0.0161(7) 0.1341(6)
H10 H 0.4838 0.0498 0.1711
H11 H 0.5004 -0.0220 0.1066
H12 H 0.2744 -0.0297 0.1530
C15 C 0.3714(19) 0.1464(7) 0.0459(4)
H13 H 0.5348 0.1286 0.0409
loop_
_geom_bond_atom_site_label_1
_geom_bond_atom_site_label_2
_geom_bond_site_symmetry_1
_geom_bond_site_symmetry_2
O1 C7 1_555 1_555
O2 C6 1_555 1_555
N1 C1 1_555 1_555
N2 C5 1_555 1_555
C1 H1 1_555 1_555
C2 N1 1_555 1_555
H2 C2 1_555 1_555
C3 C1 1_555 1_555
H3 C3 1_555 1_555
C4 C2 1_555 1_555
H4 C4 1_555 1_555
C5 C3 1_555 1_555
C6 N2 1_555 1_555
C7 N2 1_555 1_555
C8 C7 1_555 1_555
C9 C6 1_555 1_555
C10 C9 1_555 1_555
H5 C10 1_555 1_555
C11 C8 1_555 1_555
C12 C8 1_555 1_555
H6 C12 1_555 1_555
O3 C15 1_555 1_555
N3 C13 1_555 1_555
C13 H7 1_555 1_555
H8 C13 1_555 1_555
H9 C13 1_555 1_555
C14 N3 1_555 1_555
H10 C14 1_555 1_555
H11 C14 1_555 1_555
H12 C14 1_555 1_555
C15 N3 1_555 1_555
H13 C15 1_555 1_555
O1B C7B 1_555 1_555
O2B C6B 1_555 1_555
N1B C1B 1_555 1_555
N2B C5B 1_555 1_555
C1B H1B 1_555 1_555
C2B N1B 1_555 1_555
H2B C2B 1_555 1_555
C3B C1B 1_555 1_555
H3B C3B 1_555 1_555
C4B C2B 1_555 1_555
H4B C4B 1_555 1_555
C5B C3B 1_555 1_555
C6B N2B 1_555 1_555
C7B N2B 1_555 1_555
C8B C7B 1_555 1_555
C9B C6B 1_555 1_555
C10B C12 1_555 1_555
H5B C10B 1_555 1_555
C11B C11 1_555 1_555
C12B C10 1_555 1_555
H6B C12B 1_555 1_555
C4 C5 1_555 1_555
C9 C11 1_555 1_555
C4B C5B 1_555 1_555
C8B C11B 1_555 1_555
C8B C12B 1_555 1_555
C9B C10B 1_555 1_555
C9B C11B 1_555 1_555

#END
