
#######################################################################
#
#                 Cambridge Crystallographic Data Centre
#                                CCDC 
#
#######################################################################
#
# If this CIF has been generated from an entry in the Cambridge 
# Structural Database, then it will include bibliographic, chemical, 
# crystal, experimental, refinement or atomic coordinate data resulting 
# from the CCDC's data processing and validation procedures.
#
#######################################################################

data_GATYEG
_chemical_formula_moiety         'C17 H16 O4'
_chemical_name_systematic        2,2'-(Propane-1,3-diyldioxy)dibenzaldehyde
_symmetry_cell_setting           monoclinic
_symmetry_space_group_name_H-M   'P 21/c'
_symmetry_Int_Tables_number      14
_space_group_name_Hall           '-P 2ybc'
loop_
_symmetry_equiv_pos_site_id
_symmetry_equiv_pos_as_xyz
1 x,y,z
2 -x,1/2+y,1/2-z
3 -x,-y,-z
4 x,1/2-y,1/2+z
_cell_length_a                   12.8275(12)
_cell_length_b                   14.8431(13)
_cell_length_c                   7.8272(7)
_cell_angle_alpha                90
_cell_angle_beta                 95.334(2)
_cell_angle_gamma                90
_cell_volume                     1483.84
_exptl_crystal_colour            'light yellow'
_exptl_crystal_description       pillar
_chemical_melting_point          98deg.C
_cell_formula_units_Z            4
_exptl_crystal_recrystallization_method '95% ethanol'
loop_
_atom_site_label
_atom_site_type_symbol
_atom_site_fract_x
_atom_site_fract_y
_atom_site_fract_z
O1 O 0.09389(13) 0.44218(11) 0.2032(2)
O2 O 0.36143(14) -0.07326(11) -0.3507(2)
O3 O 0.11249(10) 0.17765(8) 0.23069(17)
O4 O 0.32562(10) 0.07694(9) 0.06363(17)
C1 C 0.02200(15) 0.20877(13) 0.1464(2)
C2 C 0.01279(15) 0.30219(12) 0.1336(2)
C3 C -0.07773(19) 0.33811(18) 0.0461(3)
C4 C -0.1563(2) 0.2836(2) -0.0232(3)
C5 C -0.14618(19) 0.1923(2) -0.0065(3)
C6 C -0.05814(17) 0.15385(17) 0.0772(3)
C7 C 0.40320(14) 0.10281(12) -0.0332(2)
C8 C 0.46916(17) 0.17475(14) 0.0072(3)
C9 C 0.54887(18) 0.19447(17) -0.0924(3)
C10 C 0.56466(19) 0.14414(17) -0.2338(3)
C11 C 0.49788(18) 0.07428(16) -0.2777(3)
C12 C 0.41631(14) 0.05178(12) -0.1799(2)
C13 C 0.0952(2) 0.36121(17) 0.2106(3)
C14 C 0.3490(2) -0.02504(15) -0.2292(3)
C15 C 0.13203(18) 0.08225(14) 0.2319(4)
C16 C 0.24032(19) 0.0698(2) 0.3191(3)
C17 C 0.32353(18) 0.11701(17) 0.2311(3)
H1 H -0.0767(16) 0.4009(15) 0.039(2)
H2 H -0.2227(19) 0.3118(15) -0.087(3)
H3 H -0.1984(17) 0.1508(15) -0.056(3)
H4 H -0.0507(15) 0.0913(14) 0.092(2)
H5 H 0.4634(15) 0.2068(14) 0.108(3)
H6 H 0.5970(18) 0.2470(15) -0.060(3)
H7 H 0.6244(16) 0.1574(13) -0.307(3)
H8 H 0.5067(15) 0.0368(13) -0.374(3)
H9 H 0.1564(18) 0.3309(14) 0.270(3)
H10 H 0.2910(15) -0.0366(12) -0.158(2)
H11 H 0.0808(16) 0.0524(13) 0.299(3)
H12 H 0.2414(16) 0.0938(14) 0.437(3)
H13 H 0.3084(14) 0.1845(14) 0.216(2)
H14 H 0.1279(16) 0.0593(14) 0.110(3)
H15 H 0.2564(16) 0.0035(16) 0.322(2)
H16 H 0.3968(16) 0.1103(13) 0.293(2)
loop_
_geom_bond_atom_site_label_1
_geom_bond_atom_site_label_2
_geom_bond_site_symmetry_1
_geom_bond_site_symmetry_2
O1 C13 1_555 1_555
O2 C14 1_555 1_555
O3 C1 1_555 1_555
O4 C7 1_555 1_555
C1 C2 1_555 1_555
C2 C3 1_555 1_555
C3 C4 1_555 1_555
C4 C5 1_555 1_555
C5 C6 1_555 1_555
C6 C1 1_555 1_555
C7 C8 1_555 1_555
C8 C9 1_555 1_555
C9 C10 1_555 1_555
C10 C11 1_555 1_555
C11 C12 1_555 1_555
C12 C7 1_555 1_555
C13 C2 1_555 1_555
C14 C12 1_555 1_555
C15 O3 1_555 1_555
C16 C15 1_555 1_555
C17 O4 1_555 1_555
H1 C3 1_555 1_555
H2 C4 1_555 1_555
H3 C5 1_555 1_555
H4 C6 1_555 1_555
H5 C8 1_555 1_555
H6 C9 1_555 1_555
H7 C10 1_555 1_555
H8 C11 1_555 1_555
H9 C13 1_555 1_555
H10 C14 1_555 1_555
H11 C15 1_555 1_555
H12 C16 1_555 1_555
H13 C17 1_555 1_555
H14 C15 1_555 1_555
H15 C16 1_555 1_555
H16 C17 1_555 1_555
C16 C17 1_555 1_555

#END
