
#######################################################################
#
#                 Cambridge Crystallographic Data Centre
#                                CCDC 
#
#######################################################################
#
# If this CIF has been generated from an entry in the Cambridge 
# Structural Database, then it will include bibliographic, chemical, 
# crystal, experimental, refinement or atomic coordinate data resulting 
# from the CCDC's data processing and validation procedures.
#
#######################################################################

data_GAUTAM
_chemical_formula_moiety         'C7 H4 N2 O6,C9 H11 N1 O2'
_chemical_name_systematic        
'3,5-Dinitrobenzoic acid 4-(N,N-dimethylamino)benzoic acid'
_symmetry_cell_setting           monoclinic
_symmetry_space_group_name_H-M   'P 21/c'
_symmetry_Int_Tables_number      14
_space_group_name_Hall           '-P 2ybc'
loop_
_symmetry_equiv_pos_site_id
_symmetry_equiv_pos_as_xyz
1 x,y,z
2 -x,1/2+y,1/2-z
3 -x,-y,-z
4 x,1/2-y,1/2+z
_cell_length_a                   14.442(2)
_cell_length_b                   6.969(3)
_cell_length_c                   16.952(2)
_cell_angle_alpha                90
_cell_angle_beta                 99.58(1)
_cell_angle_gamma                90
_cell_volume                     1682.36
_cell_formula_units_Z            4
loop_
_atom_site_label
_atom_site_type_symbol
_atom_site_fract_x
_atom_site_fract_y
_atom_site_fract_z
C1 C 0.1946(2) -0.1438(4) -0.0720(2)
C2 C 0.2795(2) -0.1618(4) -0.0205(2)
C3 C 0.3575(2) -0.2146(4) -0.0514(2)
C4 C 0.3556(2) -0.2513(4) -0.1313(2)
C5 C 0.2705(2) -0.2346(4) -0.1805(2)
C6 C 0.1902(2) -0.1823(4) -0.1525(2)
C7 C 0.1091(2) -0.0832(4) -0.0408(2)
N1 N 0.4477(2) -0.2348(5) 0.0025(2)
N2 N 0.2661(2) -0.2757(4) -0.2662(2)
O1 O 0.4498(2) -0.2149(7) 0.0722(2)
O2 O 0.5166(2) -0.2722(5) -0.0254(2)
O3 O 0.1909(2) -0.2544(4) -0.3098(1)
O4 O 0.3373(2) -0.3298(4) -0.2889(1)
O5 O 0.1192(1) -0.0207(3) 0.0296(1)
O6 O 0.0315(2) -0.0951(3) -0.0871(1)
H1 H 0.283(2) -0.137(4) 0.034(2)
H2 H 0.411(2) -0.288(4) -0.151(2)
H3 H 0.135(2) -0.167(4) -0.189(2)
H4 H 0.067(6) -0.024(13) 0.060(5)
C8 C 0.1414(2) 0.3473(4) -0.1274(2)
C9 C 0.2374(2) 0.3262(4) -0.1011(2)
C10 C 0.2967(2) 0.2704(4) -0.1517(2)
C11 C 0.2631(2) 0.2292(4) -0.2326(2)
C12 C 0.1658(2) 0.2491(5) -0.2585(2)
C13 C 0.1078(2) 0.3057(5) -0.2073(2)
C14 C 0.0806(2) 0.4116(4) -0.0723(2)
C15 C 0.2894(4) 0.1597(9) -0.3688(2)
C16 C 0.4214(3) 0.1666(8) -0.2587(3)
N3 N 0.3210(2) 0.1689(4) -0.2834(1)
O7 O -0.0093(2) 0.4138(4) -0.1012(1)
O8 O 0.1109(1) 0.4643(3) -0.0035(1)
H5 H 0.261(2) 0.353(4) -0.044(2)
H6 H 0.359(2) 0.257(3) -0.132(1)
H7 H 0.140(2) 0.225(4) -0.315(2)
H8 H 0.042(2) 0.314(4) -0.228(2)
H9 H 0.266(4) 0.301(7) -0.389(3)
H10 H 0.336(3) 0.119(7) -0.398(3)
H11 H 0.241(3) 0.088(7) -0.379(3)
H12 H 0.444(3) 0.299(7) -0.251(3)
H13 H 0.438(3) 0.098(6) -0.212(2)
H14 H 0.452(3) 0.099(6) -0.303(2)
H15 H -0.051(3) 0.462(6) -0.061(2)
H16? H -0.021(7) -0.072(14) -0.068(5)
loop_
_geom_bond_atom_site_label_1
_geom_bond_atom_site_label_2
_geom_bond_site_symmetry_1
_geom_bond_site_symmetry_2
C1 C2 1_555 1_555
C2 C3 1_555 1_555
C3 C4 1_555 1_555
C4 C5 1_555 1_555
C5 C6 1_555 1_555
C6 C1 1_555 1_555
C7 C1 1_555 1_555
N1 C3 1_555 1_555
N2 C5 1_555 1_555
O1 N1 1_555 1_555
O2 N1 1_555 1_555
O3 N2 1_555 1_555
O4 N2 1_555 1_555
O5 C7 1_555 1_555
O6 C7 1_555 1_555
H1 C2 1_555 1_555
H2 C4 1_555 1_555
H3 C6 1_555 1_555
H4 O5 1_555 1_555
C8 C9 1_555 1_555
C9 C10 1_555 1_555
C10 C11 1_555 1_555
C11 C12 1_555 1_555
C12 C13 1_555 1_555
C13 C8 1_555 1_555
C14 C8 1_555 1_555
C15 N3 1_555 1_555
C16 N3 1_555 1_555
N3 C11 1_555 1_555
O7 C14 1_555 1_555
O8 C14 1_555 1_555
H5 C9 1_555 1_555
H6 C10 1_555 1_555
H7 C12 1_555 1_555
H8 C13 1_555 1_555
H9 C15 1_555 1_555
H10 C15 1_555 1_555
H11 C15 1_555 1_555
H12 C16 1_555 1_555
H13 C16 1_555 1_555
H14 C16 1_555 1_555
H15 O7 1_555 1_555

#END
