
#######################################################################
#
#                 Cambridge Crystallographic Data Centre
#                                CCDC 
#
#######################################################################
#
# If this CIF has been generated from an entry in the Cambridge 
# Structural Database, then it will include bibliographic, chemical, 
# crystal, experimental, refinement or atomic coordinate data resulting 
# from the CCDC's data processing and validation procedures.
#
#######################################################################

data_GAVBEL
_chemical_formula_moiety         'C15 H10 Cl2 O1'
_chemical_name_systematic        1,3-bis(4-Chlorophenyl)prop-2-en-1-one
_symmetry_cell_setting           monoclinic
_symmetry_space_group_name_H-M   'P 21/c'
_symmetry_Int_Tables_number      14
_space_group_name_Hall           '-P 2ybc'
loop_
_symmetry_equiv_pos_site_id
_symmetry_equiv_pos_as_xyz
1 x,y,z
2 -x,1/2+y,1/2-z
3 -x,-y,-z
4 x,1/2-y,1/2+z
_cell_length_a                   15.325(3)
_cell_length_b                   14.009(2)
_cell_length_c                   5.8501(10)
_cell_angle_alpha                90
_cell_angle_beta                 92.908(4)
_cell_angle_gamma                90
_cell_volume                     1254.33
_exptl_crystal_colour            colorless
_exptl_crystal_description       block
_chemical_melting_point          '428-430 K'
_cell_formula_units_Z            4
_exptl_crystal_recrystallization_method 'absolute ethanol'
loop_
_atom_site_label
_atom_site_type_symbol
_atom_site_fract_x
_atom_site_fract_y
_atom_site_fract_z
Cl1 Cl 0.13688(4) 0.87551(5) 0.24181(12)
Cl2 Cl 0.98538(4) 0.85574(5) 0.76034(11)
O1 O 0.52958(11) 0.87320(13) -0.1987(3)
C1 C 0.41966(14) 0.87436(14) 0.0693(4)
C2 C 0.39509(14) 0.90720(15) 0.2824(4)
H1 H 0.4385 0.9277 0.3934
C3 C 0.30778(15) 0.90992(15) 0.3322(4)
H2 H 0.2908 0.9341 0.4751
C4 C 0.24574(14) 0.87724(15) 0.1726(4)
C5 C 0.26815(14) 0.84412(15) -0.0390(4)
H3 H 0.2245 0.8222 -0.1477
C6 C 0.35493(14) 0.84341(14) -0.0895(4)
H4 H 0.3710 0.8214 -0.2352
C7 C 0.74095(13) 0.88928(14) 0.3031(3)
C8 C 0.82155(14) 0.92138(15) 0.2331(4)
H5 H 0.8247 0.9503 0.0868
C9 C 0.89706(15) 0.91220(16) 0.3713(4)
H6 H 0.9514 0.9345 0.3211
C10 C 0.89194(14) 0.87001(15) 0.5835(4)
C11 C 0.81306(14) 0.83811(15) 0.6594(4)
H7 H 0.8106 0.8093 0.8060
C12 C 0.73804(14) 0.84827(14) 0.5214(4)
H8 H 0.6837 0.8273 0.5746
C13 C 0.51247(14) 0.87384(15) 0.0047(4)
C14 C 0.58259(14) 0.87272(15) 0.1879(4)
H9 H 0.5688 0.8556 0.3391
C15 C 0.66429(14) 0.89506(14) 0.1455(4)
H10 H 0.6740 0.9173 -0.0045
loop_
_geom_bond_atom_site_label_1
_geom_bond_atom_site_label_2
_geom_bond_site_symmetry_1
_geom_bond_site_symmetry_2
Cl1 C4 1_555 1_555
Cl2 C10 1_555 1_555
O1 C13 1_555 1_555
C1 C2 1_555 1_555
C2 H1 1_555 1_555
C3 C2 1_555 1_555
H2 C3 1_555 1_555
C4 C3 1_555 1_555
C5 C4 1_555 1_555
H3 C5 1_555 1_555
C6 C1 1_555 1_555
H4 C6 1_555 1_555
C7 C8 1_555 1_555
C8 H5 1_555 1_555
C9 C8 1_555 1_555
H6 C9 1_555 1_555
C10 C9 1_555 1_555
C11 C10 1_555 1_555
H7 C11 1_555 1_555
C12 C7 1_555 1_555
H8 C12 1_555 1_555
C13 C1 1_555 1_555
C14 C13 1_555 1_555
H9 C14 1_555 1_555
C15 C7 1_555 1_555
H10 C15 1_555 1_555
C5 C6 1_555 1_555
C11 C12 1_555 1_555
C14 C15 1_555 1_555

#END
