
#######################################################################
#
#                 Cambridge Crystallographic Data Centre
#                                CCDC 
#
#######################################################################
#
# If this CIF has been generated from an entry in the Cambridge 
# Structural Database, then it will include bibliographic, chemical, 
# crystal, experimental, refinement or atomic coordinate data resulting 
# from the CCDC's data processing and validation procedures.
#
#######################################################################

data_GAVCUB
_chemical_formula_moiety         'C10 H12 Cl2 O1'
_chemical_name_systematic        
trans-9,10-Dichlorotricyclo(3.3.2.O^1,5^)decan-2-one
_symmetry_cell_setting           monoclinic
_symmetry_space_group_name_H-M   'P 21/a'
_symmetry_Int_Tables_number      14
_space_group_name_Hall           '-P 2yab'
loop_
_symmetry_equiv_pos_site_id
_symmetry_equiv_pos_as_xyz
1 x,y,z
2 1/2-x,1/2+y,-z
3 -x,-y,-z
4 1/2+x,1/2-y,z
_cell_length_a                   13.4140(10)
_cell_length_b                   7.3560(10)
_cell_length_c                   10.8050(10)
_cell_angle_alpha                90
_cell_angle_beta                 101.7943(2)
_cell_angle_gamma                90
_cell_volume                     1043.66
_exptl_crystal_description       needle
_cell_formula_units_Z            4
loop_
_atom_site_label
_atom_site_type_symbol
_atom_site_fract_x
_atom_site_fract_y
_atom_site_fract_z
C1 C 0.1684(2) 0.0176(5) 0.2503(3)
H1 H 0.1672(2) -0.0681(5) 0.3195(3)
C2 C 0.0608(2) 0.0635(4) 0.1832(3)
H2 H 0.0608(2) 0.0994(4) 0.0959(3)
C3 C 0.0631(2) 0.2350(5) 0.2662(3)
C4 C 0.0255(3) 0.2146(6) 0.3910(4)
H3 H -0.0311(3) 0.2961(6) 0.3926(4)
H4 H 0.0035(3) 0.0908(6) 0.4011(4)
C5 C 0.1147(3) 0.2622(8) 0.4936(4)
H5 H 0.1146(3) 0.1883(8) 0.5679(4)
H6 H 0.1115(3) 0.3891(8) 0.5168(4)
C6 C 0.2094(3) 0.2269(5) 0.4437(3)
C7 C 0.1803(2) 0.2157(5) 0.3018(3)
C8 C 0.2247(3) 0.3623(6) 0.2290(4)
H7 H 0.2751(3) 0.3111(6) 0.1861(4)
H8 H 0.2564(3) 0.4579(6) 0.2855(4)
C9 C 0.1336(4) 0.4360(7) 0.1337(4)
H9 H 0.1431(4) 0.5637(7) 0.1171(4)
H10 H 0.1250(4) 0.3697(7) 0.0546(4)
C10 C 0.0417(4) 0.4100(6) 0.1933(5)
H11 H 0.0349(4) 0.5103(6) 0.2492(5)
H12 H -0.0202(4) 0.4005(6) 0.1290(5)
Cl1 Cl 0.25249(9) -0.0609(2) 0.15479(12)
Cl2 Cl -0.03474(7) -0.10568(14) 0.18416(9)
O1 O 0.2946(2) 0.2159(5) 0.5067(3)
loop_
_geom_bond_atom_site_label_1
_geom_bond_atom_site_label_2
_geom_bond_site_symmetry_1
_geom_bond_site_symmetry_2
C1 H1 1_555 1_555
C2 C1 1_555 1_555
H2 C2 1_555 1_555
C3 C2 1_555 1_555
C4 C3 1_555 1_555
H3 C4 1_555 1_555
H4 C4 1_555 1_555
C5 C4 1_555 1_555
H5 C5 1_555 1_555
H6 C5 1_555 1_555
C6 C5 1_555 1_555
C7 C1 1_555 1_555
C8 C7 1_555 1_555
H7 C8 1_555 1_555
H8 C8 1_555 1_555
C9 C8 1_555 1_555
H9 C9 1_555 1_555
H10 C9 1_555 1_555
C10 C3 1_555 1_555
H11 C10 1_555 1_555
H12 C10 1_555 1_555
Cl1 C1 1_555 1_555
Cl2 C2 1_555 1_555
O1 C6 1_555 1_555
C3 C7 1_555 1_555
C6 C7 1_555 1_555
C9 C10 1_555 1_555

#END
