
#######################################################################
#
#                 Cambridge Crystallographic Data Centre
#                                CCDC 
#
#######################################################################
#
# If this CIF has been generated from an entry in the Cambridge 
# Structural Database, then it will include bibliographic, chemical, 
# crystal, experimental, refinement or atomic coordinate data resulting 
# from the CCDC's data processing and validation procedures.
#
#######################################################################

data_GAVCOW
_chemical_name_common            p-Fluorobenzalhydantoin
_chemical_formula_moiety         'C10 H7 F1 N2 O2'
_chemical_name_systematic        
5-(4-Fluorobenzylidene)imidazolidine-2,4-dione
_symmetry_cell_setting           monoclinic
_symmetry_space_group_name_H-M   'P 21'
_symmetry_Int_Tables_number      4
_space_group_name_Hall           'P 2yb'
loop_
_symmetry_equiv_pos_site_id
_symmetry_equiv_pos_as_xyz
1 x,y,z
2 -x,1/2+y,-z
_cell_length_a                   3.8250(8)
_cell_length_b                   6.2410(12)
_cell_length_c                   18.988(4)
_cell_angle_alpha                90
_cell_angle_beta                 95.25(3)
_cell_angle_gamma                90
_cell_volume                     451.377
_exptl_crystal_colour            'light yellow'
_exptl_crystal_description       'thick plate'
_cell_formula_units_Z            2
_exptl_crystal_recrystallization_method 'glacial acetic acid'
loop_
_atom_site_label
_atom_site_type_symbol
_atom_site_fract_x
_atom_site_fract_y
_atom_site_fract_z
F1 F 1.3552(7) -0.3128(6) 0.44119(13)
O1 O 0.4354(9) 0.6359(5) 0.16225(15)
O2 O 0.1868(8) 0.0370(5) 0.02950(14)
C1 C 0.5661(8) 0.2600(6) 0.18368(17)
N1 N 0.4905(9) 0.0875(5) 0.13867(16)
N2 N 0.2659(8) 0.3724(6) 0.08143(16)
C2 C 1.1995(10) -0.1685(8) 0.3937(2)
C3 C 1.1545(9) -0.2264(8) 0.3244(2)
H1 H 1.2300 -0.3594 0.3097
C4 C 0.9949(9) -0.0836(6) 0.27647(18)
H2 H 0.9610 -0.1211 0.2289
C5 C 0.8826(8) 0.1173(6) 0.29826(17)
C6 C 0.9381(10) 0.1679(7) 0.36921(18)
H3 H 0.8675 0.3012 0.3847
C7 C 1.0964(11) 0.0248(10) 0.41768(19)
H4 H 1.1314 0.0597 0.4654
C8 C 0.7229(8) 0.2774(6) 0.24941(17)
H5 H 0.7315 0.4165 0.2671
C9 C 0.3013(10) 0.1501(6) 0.07797(18)
C10 C 0.4189(10) 0.4490(6) 0.1435(2)
H6 H 0.141(10) 0.437(8) 0.0468(18)
H7 H 0.507(10) -0.041(7) 0.1497(19)
loop_
_geom_bond_atom_site_label_1
_geom_bond_atom_site_label_2
_geom_bond_site_symmetry_1
_geom_bond_site_symmetry_2
F1 C2 1_555 1_555
O1 C10 1_555 1_555
O2 C9 1_555 1_555
C1 N1 1_555 1_555
N1 C9 1_555 1_555
N2 C9 1_555 1_555
C2 C3 1_555 1_555
C3 H1 1_555 1_555
C4 C3 1_555 1_555
H2 C4 1_555 1_555
C5 C4 1_555 1_555
C6 C5 1_555 1_555
H3 C6 1_555 1_555
C7 C2 1_555 1_555
H4 C7 1_555 1_555
C8 C1 1_555 1_555
H5 C8 1_555 1_555
C10 C1 1_555 1_555
H6 N2 1_555 1_555
H7 N1 1_555 1_555
N2 C10 1_555 1_555
C5 C8 1_555 1_555
C6 C7 1_555 1_555

#END
