
#######################################################################
#
#                 Cambridge Crystallographic Data Centre
#                                CCDC 
#
#######################################################################
#
# If this CIF has been generated from an entry in the Cambridge 
# Structural Database, then it will include bibliographic, chemical, 
# crystal, experimental, refinement or atomic coordinate data resulting 
# from the CCDC's data processing and validation procedures.
#
#######################################################################

data_GAVFIS10
_chemical_name_common            'Potassium cryptand(2.2.2) electride'
_chemical_formula_moiety         'C18 H36 K1 N2 O6'
_chemical_name_systematic        
'(4,7,13,16,21,24-Hexaoxa-1,0-diazabicyclo(8.8.8)hexacosane)-potassium electride'
_symmetry_cell_setting           monoclinic
_symmetry_space_group_name_H-M   'C 2/c'
_symmetry_Int_Tables_number      15
_space_group_name_Hall           '-C 2yn'
loop_
_symmetry_equiv_pos_site_id
_symmetry_equiv_pos_as_xyz
1 x,y,z
2 1/2+x,1/2+y,z
3 -x,y,1/2-z
4 1/2-x,1/2+y,1/2-z
5 -x,-y,-z
6 1/2-x,1/2-y,-z
7 x,-y,1/2+z
8 1/2+x,1/2-y,1/2+z
_cell_length_a                   12.129(8)
_cell_length_b                   20.692(13)
_cell_length_c                   21.519(16)
_cell_angle_alpha                90
_cell_angle_beta                 95.23(6)
_cell_angle_gamma                90
_cell_volume                     5378.21
_exptl_crystal_colour            'dark gray'
_cell_formula_units_Z            8
loop_
_atom_site_label
_atom_site_type_symbol
_atom_site_fract_x
_atom_site_fract_y
_atom_site_fract_z
K1 K 0.75630(4) 0.08333(3) 0.04166(3)
O1 O 0.8032(2) -0.03005(9) -0.0224(1)
O2 O 0.8697(2) -0.0209(1) 0.1070(1)
O3 O 0.5596(1) 0.0827(1) 0.10540(8)
O4 O 0.5516(1) 0.11103(9) -0.02329(8)
O5 O 0.8879(1) 0.16757(8) -0.02146(9)
O6 O 0.8695(2) 0.1868(1) 0.10733(9)
N1 N 0.7364(2) 0.0833(1) -0.0974(1)
N2 N 0.7759(2) 0.0831(2) 0.1797(1)
C1 C 0.7343(2) 0.0165(2) -0.1199(1)
C2 C 0.8205(2) -0.0266(1) -0.0863(2)
C3 C 0.8767(2) -0.0752(2) 0.0101(2)
C4 C 0.8512(2) -0.0805(2) 0.0757(2)
C5 C 0.8543(3) -0.0265(2) 0.1722(2)
C6 C 0.8624(3) 0.0376(2) 0.2025(2)
C7 C 0.6691(3) 0.0626(2) 0.2019(2)
C8 C 0.5712(3) 0.0980(2) 0.1699(2)
C9 C 0.4735(2) 0.1199(1) 0.0736(1)
C10 C 0.4546(2) 0.0989(1) 0.0079(1)
C11 C 0.5338(2) 0.0960(1) -0.0880(1)
C12 C 0.6332(2) 0.1168(2) -0.1203(1)
C13 C 0.8318(2) 0.1180(2) -0.1197(1)
C14 C 0.8600(2) 0.1800(1) -0.0858(1)
C15 C 0.9254(2) 0.2245(1) 0.0109(2)
C16 C 0.9610(2) 0.2094(1) 0.0771(2)
C17 C 0.8990(3) 0.1795(2) 0.1724(2)
C18 C 0.8048(3) 0.1487(2) 0.2025(2)
H1 H 0.745(2) 0.014(1) -0.164(1)
H2 H 0.665(2) -0.003(1) -0.114(1)
H3 H 0.812(2) -0.068(1) -0.103(1)
H4 H 0.894(2) -0.012(1) -0.090(1)
H5 H 0.951(2) -0.060(1) 0.005(1)
H6 H 0.864(2) -0.118(1) -0.010(1)
H7 H 0.778(2) -0.095(1) 0.081(1)
H8 H 0.893(2) -0.111(1) 0.100(1)
H9 H 0.905(3) -0.056(2) 0.192(2)
H10 H 0.785(3) -0.049(2) 0.173(2)
H11 H 0.861(3) 0.031(2) 0.251(1)
H12 H 0.936(2) 0.057(1) 0.195(1)
H13 H 0.667(2) 0.071(2) 0.248(1)
H14 H 0.658(3) 0.013(2) 0.197(2)
H15 H 0.501(3) 0.084(2) 0.191(1)
H16 H 0.573(3) 0.143(2) 0.176(1)
H17 H 0.493(2) 0.167(1) 0.076(1)
H18 H 0.406(2) 0.116(1) 0.096(1)
H19 H 0.436(2) 0.053(1) 0.003(1)
H20 H 0.394(2) 0.127(1) -0.014(1)
H21 H 0.472(2) 0.119(1) -0.105(1)
H22 H 0.514(2) 0.049(1) -0.092(1)
H23 H 0.617(2) 0.109(1) -0.167(1)
H24 H 0.644(2) 0.165(1) -0.114(1)
H25 H 0.819(2) 0.127(1) -0.166(1)
H26 H 0.894(2) 0.089(1) -0.114(1)
H27 H 0.921(2) 0.202(1) -0.104(1)
H28 H 0.801(2) 0.212(1) -0.092(1)
H29 H 0.867(2) 0.255(1) 0.007(1)
H30 H 0.984(2) 0.242(1) -0.009(1)
H31 H 1.017(2) 0.175(1) 0.080(1)
H32 H 0.990(2) 0.249(1) 0.099(1)
H33 H 0.923(3) 0.223(2) 0.192(2)
H34 H 0.961(2) 0.151(2) 0.177(1)
H35 H 0.824(3) 0.149(2) 0.251(2)
loop_
_geom_bond_atom_site_label_1
_geom_bond_atom_site_label_2
_geom_bond_site_symmetry_1
_geom_bond_site_symmetry_2
K1 O1 1_555 1_555
O1 C2 1_555 1_555
O2 K1 1_555 1_555
O3 K1 1_555 1_555
O4 K1 1_555 1_555
O5 K1 1_555 1_555
O6 K1 1_555 1_555
N1 K1 1_555 1_555
N2 K1 1_555 1_555
C1 N1 1_555 1_555
C2 C1 1_555 1_555
C3 O1 1_555 1_555
C4 O2 1_555 1_555
C5 O2 1_555 1_555
C6 N2 1_555 1_555
C7 N2 1_555 1_555
C8 O3 1_555 1_555
C9 O3 1_555 1_555
C10 O4 1_555 1_555
C11 O4 1_555 1_555
C12 N1 1_555 1_555
C13 N1 1_555 1_555
C14 O5 1_555 1_555
C15 O5 1_555 1_555
C16 O6 1_555 1_555
C17 O6 1_555 1_555
C18 N2 1_555 1_555
H1 C1 1_555 1_555
H2 C1 1_555 1_555
H3 C2 1_555 1_555
H4 C2 1_555 1_555
H5 C3 1_555 1_555
H6 C3 1_555 1_555
H7 C4 1_555 1_555
H8 C4 1_555 1_555
H9 C5 1_555 1_555
H10 C5 1_555 1_555
H11 C6 1_555 1_555
H12 C6 1_555 1_555
H13 C7 1_555 1_555
H14 C7 1_555 1_555
H15 C8 1_555 1_555
H16 C8 1_555 1_555
H17 C9 1_555 1_555
H18 C9 1_555 1_555
H19 C10 1_555 1_555
H20 C10 1_555 1_555
H21 C11 1_555 1_555
H22 C11 1_555 1_555
H23 C12 1_555 1_555
H24 C12 1_555 1_555
H25 C13 1_555 1_555
H26 C13 1_555 1_555
H27 C14 1_555 1_555
H28 C14 1_555 1_555
H29 C15 1_555 1_555
H30 C15 1_555 1_555
H31 C16 1_555 1_555
H32 C16 1_555 1_555
H33 C17 1_555 1_555
H34 C17 1_555 1_555
H35 C18 1_555 1_555
C3 C4 1_555 1_555
C5 C6 1_555 1_555
C7 C8 1_555 1_555
C9 C10 1_555 1_555
C11 C12 1_555 1_555
C13 C14 1_555 1_555
C15 C16 1_555 1_555
C17 C18 1_555 1_555

#END
