
#######################################################################
#
#                 Cambridge Crystallographic Data Centre
#                                CCDC 
#
#######################################################################
#
# If this CIF has been generated from an entry in the Cambridge 
# Structural Database, then it will include bibliographic, chemical, 
# crystal, experimental, refinement or atomic coordinate data resulting 
# from the CCDC's data processing and validation procedures.
#
#######################################################################

data_GAVPID
_chemical_formula_moiety         'C14 H13 Cl1 N1 1+,C24 H20 B1 1-'
_chemical_name_systematic        
'cis-4-(2-(4-Chlorophenyl)ethenyl)-1-methylpyridium tetraphenylborate'
_symmetry_cell_setting           orthorhombic
_symmetry_space_group_name_H-M   'F d d 2'
_symmetry_Int_Tables_number      43
_space_group_name_Hall           'F 2 -2d'
loop_
_symmetry_equiv_pos_site_id
_symmetry_equiv_pos_as_xyz
1 x,y,z
2 1/4-x,1/4+y,1/4+z
3 1/4+x,1/4-y,1/4+z
4 1/2-x,-y,1/2+z
5 x,1/2+y,1/2+z
6 1/4-x,3/4+y,3/4+z
7 1/4+x,3/4-y,3/4+z
8 1/2-x,1/2-y,z
9 1/2+x,y,1/2+z
10 3/4-x,1/4+y,3/4+z
11 3/4+x,1/4-y,3/4+z
12 -x,-y,z
13 1/2+x,1/2+y,z
14 3/4-x,3/4+y,1/4+z
15 3/4+x,3/4-y,1/4+z
16 -x,1/2-y,1/2+z
_cell_length_a                   33.358(3)
_cell_length_b                   37.815(4)
_cell_length_c                   9.6570(10)
_cell_angle_alpha                90
_cell_angle_beta                 90
_cell_angle_gamma                90
_cell_volume                     12181.7
_exptl_crystal_colour            yellow
_exptl_crystal_description       block
_chemical_melting_point          490-491K
_cell_formula_units_Z            16
_exptl_crystal_recrystallization_method dmf
loop_
_atom_site_label
_atom_site_type_symbol
_atom_site_fract_x
_atom_site_fract_y
_atom_site_fract_z
Cl1 Cl 0.58416(4) -0.02873(3) 0.99335(14)
N1 N 0.58941(7) 0.17374(6) 0.6469(3)
C1 C 0.55325(9) 0.18896(8) 0.6470(3)
H1 H 0.5478 0.2081 0.5863
C2 C 0.52403(9) 0.17698(7) 0.7345(3)
H2 H 0.4984 0.1880 0.7326
C3 C 0.53057(8) 0.14926(7) 0.8259(3)
C4 C 0.56936(9) 0.13448(8) 0.8242(3)
H3 H 0.5759 0.1157 0.8855
C5 C 0.59760(8) 0.14719(7) 0.7343(3)
H4 H 0.6236 0.1370 0.7338
C6 C 0.49892(9) 0.13842(9) 0.9202(4)
H5 H 0.4788 0.1557 0.9357
C7 C 0.49355(10) 0.10835(9) 0.9881(4)
H6 H 0.4709 0.1080 1.0477
C8 C 0.51713(10) 0.07514(8) 0.9863(3)
C9 C 0.52684(15) 0.05825(12) 1.1091(4)
H7 H 0.5189 0.0686 1.1945
C10 C 0.54764(18) 0.02708(12) 1.1101(5)
H8 H 0.5547 0.0165 1.1958
C11 C 0.55837(11) 0.01113(9) 0.9890(4)
C12 C 0.54825(11) 0.02642(9) 0.8662(4)
H9 H 0.5554 0.0152 0.7816
C13 C 0.52758(11) 0.05820(9) 0.8641(4)
H10 H 0.5205 0.0685 0.7778
C14 C 0.62061(9) 0.18617(8) 0.5498(4)
H11 H 0.6410 0.1996 0.6008
H12 H 0.6084 0.2014 0.4795
H13 H 0.6332 0.1658 0.5047
C15 C 0.61647(8) 0.08834(7) 0.3932(3)
C16 C 0.57959(8) 0.10111(8) 0.4416(3)
H14 H 0.5687 0.0913 0.5238
C17 C 0.55820(9) 0.12787(9) 0.3731(4)
H15 H 0.5329 0.1353 0.4081
C18 C 0.57354(11) 0.14352(9) 0.2555(4)
H16 H 0.5592 0.1618 0.2095
C19 C 0.60979(11) 0.13231(9) 0.2065(4)
H17 H 0.6209 0.1429 0.1259
C20 C 0.63046(9) 0.10558(8) 0.2739(3)
H18 H 0.6556 0.0985 0.2371
C21 C 0.67822(9) 0.04251(7) 0.3771(3)
C22 C 0.66917(9) 0.02854(7) 0.2468(3)
H19 H 0.6422 0.0294 0.2156
C23 C 0.69791(11) 0.01349(9) 0.1608(4)
H20 H 0.6904 0.0046 0.0726
C24 C 0.73736(10) 0.01152(8) 0.2038(4)
H21 H 0.7571 0.0010 0.1461
C25 C 0.74781(10) 0.02503(8) 0.3311(3)
H22 H 0.7749 0.0239 0.3612
C26 C 0.71884(9) 0.04027(7) 0.4158(3)
H23 H 0.7268 0.0495 0.5031
C27 C 0.61570(9) 0.02315(8) 0.5181(3)
C28 C 0.63379(12) -0.00327(8) 0.5988(3)
H24 H 0.6611 -0.0003 0.6240
C29 C 0.61431(16) -0.03337(9) 0.6436(5)
H25 H 0.6275 -0.0501 0.7012
C30 C 0.57504(18) -0.03859(11) 0.6026(5)
H26 H 0.5610 -0.0591 0.6324
C31 C 0.55605(13) -0.01436(11) 0.5190(5)
H27 H 0.5295 -0.0186 0.4879
C32 C 0.57611(10) 0.01650(9) 0.4799(4)
H28 H 0.5623 0.0335 0.4254
C33 C 0.66003(8) 0.07702(7) 0.6162(3)
C34 C 0.64938(10) 0.06842(8) 0.7517(3)
H29 H 0.6311 0.0495 0.7664
C35 C 0.66439(12) 0.08635(10) 0.8663(4)
H30 H 0.6566 0.0792 0.9566
C36 C 0.69035(12) 0.11439(11) 0.8507(4)
H31 H 0.7003 0.1268 0.9291
C37 C 0.70152(9) 0.12409(9) 0.7184(4)
H32 H 0.7195 0.1433 0.7054
C38 C 0.68675(9) 0.10602(8) 0.6044(4)
H33 H 0.6949 0.1134 0.5146
B1 B 0.64243(10) 0.05815(9) 0.4763(4)
loop_
_geom_bond_atom_site_label_1
_geom_bond_atom_site_label_2
_geom_bond_site_symmetry_1
_geom_bond_site_symmetry_2
Cl1 C11 1_555 1_555
N1 C1 1_555 1_555
C1 H1 1_555 1_555
C2 C1 1_555 1_555
H2 C2 1_555 1_555
C3 C2 1_555 1_555
C4 C3 1_555 1_555
H3 C4 1_555 1_555
C5 N1 1_555 1_555
H4 C5 1_555 1_555
C6 C3 1_555 1_555
H5 C6 1_555 1_555
C7 C6 1_555 1_555
H6 C7 1_555 1_555
C8 C7 1_555 1_555
C9 C8 1_555 1_555
H7 C9 1_555 1_555
C10 C9 1_555 1_555
H8 C10 1_555 1_555
C11 C10 1_555 1_555
C12 C11 1_555 1_555
H9 C12 1_555 1_555
C13 C8 1_555 1_555
H10 C13 1_555 1_555
C14 N1 1_555 1_555
H11 C14 1_555 1_555
H12 C14 1_555 1_555
H13 C14 1_555 1_555
C15 C16 1_555 1_555
C16 H14 1_555 1_555
C17 C16 1_555 1_555
H15 C17 1_555 1_555
C18 C17 1_555 1_555
H16 C18 1_555 1_555
C19 C18 1_555 1_555
H17 C19 1_555 1_555
C20 C15 1_555 1_555
H18 C20 1_555 1_555
C21 C22 1_555 1_555
C22 H19 1_555 1_555
C23 C22 1_555 1_555
H20 C23 1_555 1_555
C24 C23 1_555 1_555
H21 C24 1_555 1_555
C25 C24 1_555 1_555
H22 C25 1_555 1_555
C26 C21 1_555 1_555
H23 C26 1_555 1_555
C27 C28 1_555 1_555
C28 H24 1_555 1_555
C29 C28 1_555 1_555
H25 C29 1_555 1_555
C30 C29 1_555 1_555
H26 C30 1_555 1_555
C31 C30 1_555 1_555
H27 C31 1_555 1_555
C32 C27 1_555 1_555
H28 C32 1_555 1_555
C33 C34 1_555 1_555
C34 H29 1_555 1_555
C35 C34 1_555 1_555
H30 C35 1_555 1_555
C36 C35 1_555 1_555
H31 C36 1_555 1_555
C37 C36 1_555 1_555
H32 C37 1_555 1_555
C38 C33 1_555 1_555
H33 C38 1_555 1_555
B1 C15 1_555 1_555
C4 C5 1_555 1_555
C12 C13 1_555 1_555
C19 C20 1_555 1_555
C21 B1 1_555 1_555
C25 C26 1_555 1_555
C27 B1 1_555 1_555
C31 C32 1_555 1_555
C33 B1 1_555 1_555
C37 C38 1_555 1_555

#END
