
#######################################################################
#
#                 Cambridge Crystallographic Data Centre
#                                CCDC 
#
#######################################################################
#
# If this CIF has been generated from an entry in the Cambridge 
# Structural Database, then it will include bibliographic, chemical, 
# crystal, experimental, refinement or atomic coordinate data resulting 
# from the CCDC's data processing and validation procedures.
#
#######################################################################

data_GAVWIK
_chemical_formula_moiety         'C21 H16 Cl1 N1 O1'
_chemical_name_systematic        
3-((2-Chlorophenyl)amino)-1,3-diphenylprop-2-en-1-one
_symmetry_cell_setting           triclinic
_symmetry_space_group_name_H-M   'P -1'
_symmetry_Int_Tables_number      2
_space_group_name_Hall           '-P 1'
loop_
_symmetry_equiv_pos_site_id
_symmetry_equiv_pos_as_xyz
1 x,y,z
2 -x,-y,-z
_cell_length_a                   8.7720(18)
_cell_length_b                   9.7380(19)
_cell_length_c                   11.306(2)
_cell_angle_alpha                86.02(3)
_cell_angle_beta                 74.08(3)
_cell_angle_gamma                69.26(3)
_cell_volume                     868.139
_exptl_crystal_colour            yellow
_exptl_crystal_description       block
_chemical_melting_point          '375.7-376.5 K'
_cell_formula_units_Z            2
_exptl_crystal_recrystallization_method 'petroleum ether'
loop_
_atom_site_label
_atom_site_type_symbol
_atom_site_fract_x
_atom_site_fract_y
_atom_site_fract_z
Cl1 Cl 0.15838(11) 0.63052(8) 0.41744(8)
O1 O 0.3876(2) 0.9311(2) 0.24755(16)
N1 N 0.2946(3) 0.8475(2) 0.47807(19)
H1 H 0.3130 0.8279 0.4013
C1 C 0.1845(5) 1.4299(4) 0.1502(3)
H2 H 0.0941 1.5184 0.1676
C2 C 0.3095(5) 1.4102(4) 0.0432(3)
H3 H 0.3050 1.4864 -0.0115
C3 C 0.4410(5) 1.2801(4) 0.0156(3)
H4 H 0.5261 1.2683 -0.0573
C4 C 0.4481(4) 1.1652(3) 0.0960(2)
H5 H 0.5364 1.0756 0.0760
C5 C 0.3236(3) 1.1838(3) 0.2061(2)
C6 C 0.1929(4) 1.3176(3) 0.2325(3)
H6 H 0.1095 1.3321 0.3067
C7 C 0.3308(3) 1.0591(3) 0.2918(2)
C8 C 0.2702(3) 1.0923(3) 0.4213(2)
H7 H 0.2394 1.1892 0.4473
C9 C 0.2546(3) 0.9904(3) 0.5093(2)
C10 C 0.1802(3) 1.0386(3) 0.6410(2)
C11 C 0.2466(3) 1.1189(3) 0.6964(2)
H8 H 0.3411 1.1404 0.6516
C12 C 0.1729(4) 1.1667(3) 0.8175(3)
H9 H 0.2200 1.2174 0.8550
C13 C 0.0293(4) 1.1394(4) 0.8833(3)
H10 H -0.0221 1.1741 0.9644
C14 C -0.0380(4) 1.0603(4) 0.8286(3)
H11 H -0.1348 1.0420 0.8729
C15 C 0.0372(3) 1.0088(3) 0.7092(2)
H12 H -0.0072 0.9539 0.6735
C16 C 0.3095(3) 0.7274(3) 0.5564(2)
C17 C 0.3875(4) 0.7111(3) 0.6509(2)
H13 H 0.4273 0.7833 0.6655
C18 C 0.4065(4) 0.5898(3) 0.7232(3)
H14 H 0.4581 0.5808 0.7864
C19 C 0.3487(4) 0.4812(3) 0.7018(3)
H15 H 0.3605 0.3997 0.7512
C20 C 0.2742(4) 0.4938(3) 0.6075(3)
H16 H 0.2373 0.4200 0.5922
C21 C 0.2539(3) 0.6160(3) 0.5354(2)
loop_
_geom_bond_atom_site_label_1
_geom_bond_atom_site_label_2
_geom_bond_site_symmetry_1
_geom_bond_site_symmetry_2
Cl1 C21 1_555 1_555
O1 C7 1_555 1_555
N1 H1 1_555 1_555
C1 H2 1_555 1_555
C2 C1 1_555 1_555
H3 C2 1_555 1_555
C3 C2 1_555 1_555
H4 C3 1_555 1_555
C4 C3 1_555 1_555
H5 C4 1_555 1_555
C5 C4 1_555 1_555
C6 C1 1_555 1_555
H6 C6 1_555 1_555
C7 C5 1_555 1_555
C8 C7 1_555 1_555
H7 C8 1_555 1_555
C9 N1 1_555 1_555
C10 C9 1_555 1_555
C11 C10 1_555 1_555
H8 C11 1_555 1_555
C12 C11 1_555 1_555
H9 C12 1_555 1_555
C13 C12 1_555 1_555
H10 C13 1_555 1_555
C14 C13 1_555 1_555
H11 C14 1_555 1_555
C15 C10 1_555 1_555
H12 C15 1_555 1_555
C16 N1 1_555 1_555
C17 C16 1_555 1_555
H13 C17 1_555 1_555
C18 C17 1_555 1_555
H14 C18 1_555 1_555
C19 C18 1_555 1_555
H15 C19 1_555 1_555
C20 C19 1_555 1_555
H16 C20 1_555 1_555
C21 C16 1_555 1_555
C5 C6 1_555 1_555
C8 C9 1_555 1_555
C14 C15 1_555 1_555
C20 C21 1_555 1_555

#END
