
#######################################################################
#
#                 Cambridge Crystallographic Data Centre
#                                CCDC 
#
#######################################################################
#
# If this CIF has been generated from an entry in the Cambridge 
# Structural Database, then it will include bibliographic, chemical, 
# crystal, experimental, refinement or atomic coordinate data resulting 
# from the CCDC's data processing and validation procedures.
#
#######################################################################

data_GAWFEQ
_chemical_formula_moiety         'C21 H17 N1 O1'
_chemical_name_systematic        (3S*,4S*)-1,3,4-Triphenylazetidin-2-one
_symmetry_cell_setting           monoclinic
_symmetry_space_group_name_H-M   'P 21/c'
_symmetry_Int_Tables_number      14
_space_group_name_Hall           '-P 2ybc'
loop_
_symmetry_equiv_pos_site_id
_symmetry_equiv_pos_as_xyz
1 x,y,z
2 -x,1/2+y,1/2-z
3 -x,-y,-z
4 x,1/2-y,1/2+z
_cell_length_a                   9.016(3)
_cell_length_b                   8.752(3)
_cell_length_c                   20.664(8)
_cell_angle_alpha                90
_cell_angle_beta                 100.614(14)
_cell_angle_gamma                90
_cell_volume                     1602.66
_exptl_crystal_colour            colorless
_exptl_crystal_description       platelet
_cell_formula_units_Z            4
_exptl_crystal_recrystallization_method hexane
loop_
_atom_site_label
_atom_site_type_symbol
_atom_site_fract_x
_atom_site_fract_y
_atom_site_fract_z
O1 O 0.01120(9) 0.42040(10) 0.15838(4)
N1 N 0.17655(9) 0.63038(10) 0.17528(4)
C1 C 0.07887(10) 0.59075(12) 0.25859(6)
C2 C 0.19156(10) 0.71175(12) 0.23879(5)
C3 C 0.07615(11) 0.52482(13) 0.19024(6)
C4 C 0.12439(10) 0.48815(12) 0.31659(5)
C5 C 0.22813(12) 0.37125(13) 0.31522(6)
C6 C 0.26662(13) 0.27453(17) 0.36843(8)
C7 C 0.20294(17) 0.29205(19) 0.42309(8)
C8 C 0.10095(18) 0.4060(2) 0.42481(6)
C9 C 0.06224(12) 0.50405(16) 0.37219(6)
C10 C 0.34738(10) 0.72451(12) 0.27950(5)
C11 C 0.46847(11) 0.64163(12) 0.26606(6)
C12 C 0.60986(12) 0.65953(13) 0.30504(6)
C13 C 0.63073(12) 0.75786(16) 0.35743(6)
C14 C 0.51054(12) 0.84009(16) 0.37152(6)
C15 C 0.36935(12) 0.82405(12) 0.33245(5)
C16 C 0.21990(11) 0.67543(12) 0.11622(5)
C17 C 0.16952(12) 0.59697(14) 0.05786(6)
C18 C 0.21041(13) 0.64842(17) 0.00057(6)
C19 C 0.30166(13) 0.77446(18) 0.00051(6)
C20 C 0.35196(13) 0.85077(16) 0.05836(6)
C21 C 0.31217(12) 0.80129(13) 0.11619(6)
H1 H -0.0188 0.6377 0.2606
H2 H 0.1447 0.8129 0.2323
H3 H 0.2747 0.3598 0.2762
H4 H 0.3388 0.1917 0.3665
H5 H 0.2311 0.2240 0.4610
H6 H 0.0542 0.4176 0.4637
H7 H -0.0105 0.5864 0.3741
H8 H 0.4538 0.5707 0.2287
H9 H 0.6957 0.6010 0.2952
H10 H 0.7312 0.7699 0.3846
H11 H 0.5254 0.9096 0.4093
H12 H 0.2838 0.8837 0.3418
H13 H 0.1049 0.5069 0.0578
H14 H 0.1754 0.5934 -0.0407
H15 H 0.3280 0.8107 -0.0408
H16 H 0.4185 0.9394 0.0589
H17 H 0.3475 0.8557 0.1576
loop_
_geom_bond_atom_site_label_1
_geom_bond_atom_site_label_2
_geom_bond_site_symmetry_1
_geom_bond_site_symmetry_2
O1 C3 1_555 1_555
N1 C2 1_555 1_555
C1 C2 1_555 1_555
C2 C10 1_555 1_555
C3 N1 1_555 1_555
C4 C1 1_555 1_555
C5 C4 1_555 1_555
C6 C5 1_555 1_555
C7 C6 1_555 1_555
C8 C7 1_555 1_555
C9 C4 1_555 1_555
C10 C11 1_555 1_555
C11 C12 1_555 1_555
C12 C13 1_555 1_555
C13 C14 1_555 1_555
C14 C15 1_555 1_555
C15 C10 1_555 1_555
C16 N1 1_555 1_555
C17 C16 1_555 1_555
C18 C17 1_555 1_555
C19 C18 1_555 1_555
C20 C19 1_555 1_555
C21 C16 1_555 1_555
H1 C1 1_555 1_555
H2 C2 1_555 1_555
H3 C5 1_555 1_555
H4 C6 1_555 1_555
H5 C7 1_555 1_555
H6 C8 1_555 1_555
H7 C9 1_555 1_555
H8 C11 1_555 1_555
H9 C12 1_555 1_555
H10 C13 1_555 1_555
H11 C14 1_555 1_555
H12 C15 1_555 1_555
H13 C17 1_555 1_555
H14 C18 1_555 1_555
H15 C19 1_555 1_555
H16 C20 1_555 1_555
H17 C21 1_555 1_555
C1 C3 1_555 1_555
C8 C9 1_555 1_555
C20 C21 1_555 1_555

#END
