
#######################################################################
#
#                 Cambridge Crystallographic Data Centre
#                                CCDC 
#
#######################################################################
#
# If this CIF has been generated from an entry in the Cambridge 
# Structural Database, then it will include bibliographic, chemical, 
# crystal, experimental, refinement or atomic coordinate data resulting 
# from the CCDC's data processing and validation procedures.
#
#######################################################################

data_GAWFIU
_chemical_formula_moiety         'C36 H31 N1'
_chemical_name_systematic        
4-(4,4-Diphenylbuta-1,3-dienyl)-N,N-bis(4-methylphenyl)aniline
_symmetry_cell_setting           orthorhombic
_symmetry_space_group_name_H-M   'P b c a'
_symmetry_Int_Tables_number      61
_space_group_name_Hall           '-P 2ac 2ab'
loop_
_symmetry_equiv_pos_site_id
_symmetry_equiv_pos_as_xyz
1 x,y,z
2 1/2-x,-y,1/2+z
3 -x,1/2+y,1/2-z
4 1/2+x,1/2-y,-z
5 -x,-y,-z
6 1/2+x,y,1/2-z
7 x,1/2-y,1/2+z
8 1/2-x,1/2+y,z
_cell_length_a                   16.629(2)
_cell_length_b                   14.9729(19)
_cell_length_c                   22.899(3)
_cell_angle_alpha                90
_cell_angle_beta                 90
_cell_angle_gamma                90
_cell_volume                     5701.49
_exptl_crystal_colour            yellow
_exptl_crystal_description       block
_chemical_melting_point          '433 K'
_cell_formula_units_Z            8
_exptl_crystal_recrystallization_method hexane
loop_
_atom_site_label
_atom_site_type_symbol
_atom_site_fract_x
_atom_site_fract_y
_atom_site_fract_z
N1 N 0.12394(10) 0.77860(13) 0.09231(9)
C1 C 0.06843(12) 0.21249(15) 0.21684(9)
C2 C -0.00783(13) 0.21673(14) 0.18290(9)
C3 C -0.01074(16) 0.24705(17) 0.12571(11)
H1 H 0.0365 0.2639 0.1069
C4 C -0.0836(2) 0.2525(2) 0.09637(12)
H2 H -0.0851 0.2736 0.0582
C5 C -0.1533(2) 0.2269(2) 0.12330(16)
H3 H -0.2021 0.2308 0.1036
C6 C -0.15096(16) 0.19584(19) 0.17912(14)
H4 H -0.1983 0.1784 0.1975
C7 C -0.07922(14) 0.19000(16) 0.20856(11)
H5 H -0.0786 0.1677 0.2465
C8 C 0.08875(12) 0.12799(15) 0.24666(10)
C9 C 0.07081(14) 0.04581(17) 0.22196(12)
H6 H 0.0428 0.0436 0.1868
C10 C 0.09391(17) -0.03274(18) 0.24866(15)
H7 H 0.0822 -0.0872 0.2311
C11 C 0.13387(16) -0.0310(2) 0.30084(17)
H8 H 0.1497 -0.0841 0.3185
C12 C 0.15064(14) 0.0492(2) 0.32716(12)
H9 H 0.1772 0.0507 0.3629
C13 C 0.12768(12) 0.12786(16) 0.30016(11)
H10 H 0.1387 0.1820 0.3184
C14 C 0.11809(12) 0.28416(15) 0.22111(9)
H11 H 0.1664 0.2751 0.2407
C15 C 0.10423(13) 0.37202(15) 0.19875(9)
H12 H 0.0545 0.3832 0.1817
C16 C 0.15666(12) 0.43906(15) 0.20036(9)
H13 H 0.2052 0.4280 0.2191
C17 C 0.14596(12) 0.52763(14) 0.17590(9)
C18 C 0.20769(12) 0.59010(15) 0.17676(9)
H14 H 0.2553 0.5758 0.1959
C19 C 0.20097(13) 0.67206(15) 0.15049(10)
H15 H 0.2436 0.7121 0.1524
C20 C 0.13125(12) 0.69582(15) 0.12118(10)
C21 C 0.06848(12) 0.63513(15) 0.12058(10)
H16 H 0.0208 0.6499 0.1016
C22 C 0.07540(12) 0.55376(15) 0.14742(9)
H17 H 0.0319 0.5147 0.1467
C23 C 0.19283(13) 0.81937(17) 0.06699(10)
C24 C 0.24623(16) 0.76996(19) 0.03360(11)
H18 H 0.2365 0.7097 0.0266
C25 C 0.31437(16) 0.8105(2) 0.01056(11)
H19 H 0.3503 0.7765 -0.0112
C26 C 0.32991(16) 0.8995(2) 0.01914(11)
C27 C 0.27608(15) 0.94740(19) 0.05112(10)
H20 H 0.2851 1.0081 0.0569
C28 C 0.20870(14) 0.90876(17) 0.07516(10)
H21 H 0.1735 0.9434 0.0972
C29 C 0.40591(18) 0.9424(3) -0.00451(14)
H22 H 0.4390 0.9619 0.0274
H23 H 0.3919 0.9929 -0.0283
H24 H 0.4350 0.8997 -0.0276
C30 C 0.04878(12) 0.82316(14) 0.08929(10)
C31 C 0.02397(14) 0.86527(15) 0.03875(10)
H25 H 0.0569 0.8644 0.0059
C32 C -0.04906(15) 0.90844(17) 0.03655(11)
H26 H -0.0645 0.9364 0.0021
C33 C -0.09950(14) 0.91136(16) 0.08365(12)
C34 C -0.07454(16) 0.86931(17) 0.13351(11)
H27 H -0.1077 0.8704 0.1662
C35 C -0.00227(15) 0.82569(16) 0.13679(10)
H28 H 0.0125 0.7975 0.1714
C36 C -0.17928(17) 0.9602(2) 0.08128(15)
H29 H -0.2192 0.9221 0.0640
H30 H -0.1736 1.0133 0.0582
H31 H -0.1956 0.9760 0.1201
loop_
_geom_bond_atom_site_label_1
_geom_bond_atom_site_label_2
_geom_bond_site_symmetry_1
_geom_bond_site_symmetry_2
N1 C20 1_555 1_555
C1 C2 1_555 1_555
C2 C3 1_555 1_555
C3 H1 1_555 1_555
C4 C3 1_555 1_555
H2 C4 1_555 1_555
C5 C4 1_555 1_555
H3 C5 1_555 1_555
C6 C5 1_555 1_555
H4 C6 1_555 1_555
C7 C2 1_555 1_555
H5 C7 1_555 1_555
C8 C1 1_555 1_555
C9 C8 1_555 1_555
H6 C9 1_555 1_555
C10 C9 1_555 1_555
H7 C10 1_555 1_555
C11 C10 1_555 1_555
H8 C11 1_555 1_555
C12 C11 1_555 1_555
H9 C12 1_555 1_555
C13 C8 1_555 1_555
H10 C13 1_555 1_555
C14 C1 1_555 1_555
H11 C14 1_555 1_555
C15 C14 1_555 1_555
H12 C15 1_555 1_555
C16 C15 1_555 1_555
H13 C16 1_555 1_555
C17 C16 1_555 1_555
C18 C17 1_555 1_555
H14 C18 1_555 1_555
C19 C18 1_555 1_555
H15 C19 1_555 1_555
C20 C19 1_555 1_555
C21 C20 1_555 1_555
H16 C21 1_555 1_555
C22 C17 1_555 1_555
H17 C22 1_555 1_555
C23 N1 1_555 1_555
C24 C23 1_555 1_555
H18 C24 1_555 1_555
C25 C24 1_555 1_555
H19 C25 1_555 1_555
C26 C25 1_555 1_555
C27 C26 1_555 1_555
H20 C27 1_555 1_555
C28 C23 1_555 1_555
H21 C28 1_555 1_555
C29 C26 1_555 1_555
H22 C29 1_555 1_555
H23 C29 1_555 1_555
H24 C29 1_555 1_555
C30 N1 1_555 1_555
C31 C30 1_555 1_555
H25 C31 1_555 1_555
C32 C31 1_555 1_555
H26 C32 1_555 1_555
C33 C32 1_555 1_555
C34 C33 1_555 1_555
H27 C34 1_555 1_555
C35 C30 1_555 1_555
H28 C35 1_555 1_555
C36 C33 1_555 1_555
H29 C36 1_555 1_555
H30 C36 1_555 1_555
H31 C36 1_555 1_555
C6 C7 1_555 1_555
C12 C13 1_555 1_555
C21 C22 1_555 1_555
C27 C28 1_555 1_555
C34 C35 1_555 1_555

#END
