
#######################################################################
#
#                 Cambridge Crystallographic Data Centre
#                                CCDC 
#
#######################################################################
#
# If this CIF has been generated from an entry in the Cambridge 
# Structural Database, then it will include bibliographic, chemical, 
# crystal, experimental, refinement or atomic coordinate data resulting 
# from the CCDC's data processing and validation procedures.
#
#######################################################################

data_GAWGUH
_chemical_formula_moiety         'C16 H14 N2 O2'
_chemical_name_systematic        
N-(2-Methylphenyl)-N-(3-(2-nitrophenyl)prop-2-enylidene)amine
_symmetry_cell_setting           monoclinic
_symmetry_space_group_name_H-M   'P 21/c'
_symmetry_Int_Tables_number      14
_space_group_name_Hall           '-P 2ybc'
loop_
_symmetry_equiv_pos_site_id
_symmetry_equiv_pos_as_xyz
1 x,y,z
2 -x,1/2+y,1/2-z
3 -x,-y,-z
4 x,1/2-y,1/2+z
_cell_length_a                   11.390(3)
_cell_length_b                   9.705(3)
_cell_length_c                   13.072(4)
_cell_angle_alpha                90
_cell_angle_beta                 106.532(4)
_cell_angle_gamma                90
_cell_volume                     1385.24
_exptl_crystal_colour            yellow
_exptl_crystal_description       plate
_cell_formula_units_Z            4
loop_
_atom_site_label
_atom_site_type_symbol
_atom_site_fract_x
_atom_site_fract_y
_atom_site_fract_z
O1 O -0.45987(15) -0.00866(18) 0.74650(11)
O2 O -0.61075(12) -0.13739(17) 0.74283(11)
N1 N -0.51252(13) -0.08727(15) 0.78953(11)
N2 N -0.00243(10) 0.21509(12) 0.95744(10)
C1 C -0.45601(12) -0.12692(15) 0.90148(11)
C2 C -0.50582(14) -0.24085(17) 0.93665(14)
H1 H -0.5724 -0.2861 0.8912
C3 C -0.45657(15) -0.28701(18) 1.03903(14)
H2 H -0.4889 -0.3642 1.0634
C4 C -0.35872(15) -0.21781(18) 1.10542(14)
H3 H -0.3254 -0.2480 1.1752
C5 C -0.30980(13) -0.10453(17) 1.06954(12)
H4 H -0.2439 -0.0595 1.1161
C6 C -0.35567(12) -0.05465(14) 0.96540(11)
C7 C -0.29677(12) 0.06532(14) 0.93226(11)
H5 H -0.3461 0.1300 0.8875
C8 C -0.17650(12) 0.08605(15) 0.96308(12)
H6 H -0.1274 0.0224 1.0092
C9 C -0.11797(13) 0.20209(14) 0.92879(11)
H7 H -0.1659 0.2685 0.8849
C10 C 0.05196(12) 0.32484(14) 0.91588(12)
C11 C 0.14266(13) 0.40283(15) 0.98692(12)
C12 C 0.19922(14) 0.50606(16) 0.94463(15)
H8 H 0.2583 0.5607 0.9906
C13 C 0.17040(16) 0.52985(18) 0.83660(16)
H9 H 0.2098 0.5995 0.8103
C14 C 0.08312(16) 0.45023(19) 0.76764(15)
H10 H 0.0642 0.4650 0.6945
C15 C 0.02379(15) 0.34875(17) 0.80692(13)
H11 H -0.0358 0.2956 0.7601
C16 C 0.17657(16) 0.3742(2) 1.10393(14)
H12 H 0.2391 0.4376 1.1408
H13 H 0.2067 0.2816 1.1171
H14 H 0.1058 0.3851 1.1291
loop_
_geom_bond_atom_site_label_1
_geom_bond_atom_site_label_2
_geom_bond_site_symmetry_1
_geom_bond_site_symmetry_2
O1 N1 1_555 1_555
O2 N1 1_555 1_555
N1 C1 1_555 1_555
N2 C9 1_555 1_555
C1 C2 1_555 1_555
C2 H1 1_555 1_555
C3 C2 1_555 1_555
H2 C3 1_555 1_555
C4 C3 1_555 1_555
H3 C4 1_555 1_555
C5 C4 1_555 1_555
H4 C5 1_555 1_555
C6 C1 1_555 1_555
C7 C6 1_555 1_555
H5 C7 1_555 1_555
C8 C7 1_555 1_555
H6 C8 1_555 1_555
C9 C8 1_555 1_555
H7 C9 1_555 1_555
C10 N2 1_555 1_555
C11 C10 1_555 1_555
C12 C11 1_555 1_555
H8 C12 1_555 1_555
C13 C12 1_555 1_555
H9 C13 1_555 1_555
C14 C13 1_555 1_555
H10 C14 1_555 1_555
C15 C10 1_555 1_555
H11 C15 1_555 1_555
C16 C11 1_555 1_555
H12 C16 1_555 1_555
H13 C16 1_555 1_555
H14 C16 1_555 1_555
C5 C6 1_555 1_555
C14 C15 1_555 1_555

#END
