
#######################################################################
#
#                 Cambridge Crystallographic Data Centre
#                                CCDC 
#
#######################################################################
#
# If this CIF has been generated from an entry in the Cambridge 
# Structural Database, then it will include bibliographic, chemical, 
# crystal, experimental, refinement or atomic coordinate data resulting 
# from the CCDC's data processing and validation procedures.
#
#######################################################################

data_GAWGES
_chemical_compound_source        'roots of Jatropha curcas L. (Euphorbiaceae)'
_chemical_name_common            5-Acetyljatrophadiketone
_chemical_formula_moiety         'C22 H26 O4'
_chemical_name_systematic        
'6,9-Dimethyl-4-methylene-5,8-dioxo-1-(prop-1-en-2-yl)-1,3,4,4a,4b,5,8,10a-octahydrophenanthren-8a(2H)-yl acetate'
_symmetry_cell_setting           monoclinic
_symmetry_space_group_name_H-M   'P 21'
_symmetry_Int_Tables_number      4
_space_group_name_Hall           'P 2yb'
loop_
_symmetry_equiv_pos_site_id
_symmetry_equiv_pos_as_xyz
1 x,y,z
2 -x,1/2+y,-z
_cell_length_a                   8.7240(1)
_cell_length_b                   9.8751(1)
_cell_length_c                   11.1950(1)
_cell_angle_alpha                90
_cell_angle_beta                 92.42
_cell_angle_gamma                90
_cell_volume                     963.593
_exptl_crystal_colour            colorless
_exptl_crystal_description       prism
_cell_formula_units_Z            2
loop_
_atom_site_label
_atom_site_type_symbol
_atom_site_fract_x
_atom_site_fract_y
_atom_site_fract_z
O1 O 1.21376(12) 0.99339(12) 0.41184(9)
O2 O 1.10242(11) 0.84161(10) 0.28405(8)
O3 O 1.05177(12) 0.76048(12) 0.50816(9)
O4 O 0.65087(11) 1.11515(12) 0.32050(9)
C1 C 1.22323(16) 0.91213(16) 0.33270(12)
C2 C 0.95093(16) 0.86812(15) 0.32907(12)
C3 C 0.89913(16) 1.01453(15) 0.30253(11)
H1 H 0.9804 1.0771 0.3357
C4 C 0.88855(16) 1.03208(15) 0.16617(12)
H2 H 0.9835 0.9888 0.1368
C5 C 0.75477(16) 0.94713(15) 0.11225(12)
H3 H 0.6563 0.9924 0.1316
C6 C 0.76508(16) 0.94244(16) -0.02605(12)
H4 H 0.8656 0.9001 -0.0442
C7 C 0.63923(18) 0.85886(17) -0.08795(12)
C8 C 0.4790(2) 0.9055(2) -0.08087(17)
H5 H 0.4097 0.8381 -0.1180
H6 H 0.4664 0.9920 -0.1230
H7 H 0.4546 0.9174 0.0031
C9 C 1.36731(18) 0.87742(19) 0.27169(15)
H8 H 1.3656 0.9200 0.1926
H9 H 1.3747 0.7789 0.2629
H10 H 1.4561 0.9106 0.3196
C10 C 0.95524(17) 0.83516(16) 0.46303(12)
C11 C 0.83009(18) 0.89154(17) 0.53071(12)
H11 H 0.8165 0.8584 0.6092
C12 C 0.73394(17) 0.98709(18) 0.48806(13)
C13 C 0.60384(19) 1.0424(2) 0.55569(14)
H12 H 0.6033 0.9998 0.6347
H13 H 0.5068 1.0232 0.5117
H14 H 0.6161 1.1405 0.5650
C14 C 0.75160(16) 1.04420(15) 0.36501(12)
C15 C 0.88943(16) 1.17384(16) 0.11754(12)
C16 C 0.89399(18) 1.17417(17) -0.01714(13)
H15 H 0.9944 1.1390 -0.0411
H16 H 0.8837 1.2683 -0.0467
C17 C 0.76548(18) 1.08741(17) -0.07474(13)
H17 H 0.7775 1.0845 -0.1622
H18 H 0.6654 1.1303 -0.0603
C18 C 0.6733(2) 0.7473(2) -0.15013(16)
H19 H 0.5938 0.6972 -0.1904
H20 H 0.7769 0.7185 -0.1539
C19 C 0.75731(16) 0.80861(15) 0.16757(12)
H21 H 0.6903 0.7430 0.1317
C20 C 0.84411(16) 0.76826(16) 0.26207(12)
C21 C 0.84549(19) 0.62426(17) 0.30514(13)
H22 H 0.7776 0.5695 0.2525
H23 H 0.8096 0.6209 0.3869
H24 H 0.9502 0.5884 0.3041
C22 C 0.89083(17) 1.28620(16) 0.18187(13)
H25 H 0.8914 1.2812 0.2666
H26 H 0.8913 1.3719 0.1433
loop_
_geom_bond_atom_site_label_1
_geom_bond_atom_site_label_2
_geom_bond_site_symmetry_1
_geom_bond_site_symmetry_2
O1 C1 1_555 1_555
O2 C1 1_555 1_555
O3 C10 1_555 1_555
O4 C14 1_555 1_555
C1 C9 1_555 1_555
C2 O2 1_555 1_555
C3 C2 1_555 1_555
H1 C3 1_555 1_555
C4 C3 1_555 1_555
H2 C4 1_555 1_555
C5 C4 1_555 1_555
H3 C5 1_555 1_555
C6 C5 1_555 1_555
H4 C6 1_555 1_555
C7 C6 1_555 1_555
C8 C7 1_555 1_555
H5 C8 1_555 1_555
H6 C8 1_555 1_555
H7 C8 1_555 1_555
C9 H8 1_555 1_555
H9 C9 1_555 1_555
H10 C9 1_555 1_555
C10 C2 1_555 1_555
C11 C10 1_555 1_555
H11 C11 1_555 1_555
C12 C11 1_555 1_555
C13 C12 1_555 1_555
H12 C13 1_555 1_555
H13 C13 1_555 1_555
H14 C13 1_555 1_555
C14 C3 1_555 1_555
C15 C4 1_555 1_555
C16 C15 1_555 1_555
H15 C16 1_555 1_555
H16 C16 1_555 1_555
C17 C6 1_555 1_555
H17 C17 1_555 1_555
H18 C17 1_555 1_555
C18 C7 1_555 1_555
H19 C18 1_555 1_555
H20 C18 1_555 1_555
C19 C5 1_555 1_555
H21 C19 1_555 1_555
C20 C2 1_555 1_555
C21 C20 1_555 1_555
H22 C21 1_555 1_555
H23 C21 1_555 1_555
H24 C21 1_555 1_555
C22 C15 1_555 1_555
H25 C22 1_555 1_555
H26 C22 1_555 1_555
C12 C14 1_555 1_555
C16 C17 1_555 1_555
C19 C20 1_555 1_555

#END
