
#######################################################################
#
#                 Cambridge Crystallographic Data Centre
#                                CCDC 
#
#######################################################################
#
# If this CIF has been generated from an entry in the Cambridge 
# Structural Database, then it will include bibliographic, chemical, 
# crystal, experimental, refinement or atomic coordinate data resulting 
# from the CCDC's data processing and validation procedures.
#
#######################################################################

data_GAWGAO
_chemical_compound_source        'roots of Jatropha curcas L. (Euphorbiaceae)'
_chemical_name_common            'Jatrophalactone methanol solvate hemihydrate'
_chemical_formula_moiety         'C20 H26 O5,C1 H4 O1,0.5(H2 O1)'
_chemical_name_systematic        
'1-Hydroxy-1,5a,8,8-tetramethyl-3-(2-oxopropyl)-5a,6,7,7a,8,8a,8b,8c-octahydro-1H-5-oxabenzo[cd]cyclopropa[f]azulene-2,4-dione methanol solvate hemihydrate'
_chemical_properties_biological  'cytotoxic activity'
_symmetry_cell_setting           orthorhombic
_symmetry_space_group_name_H-M   'P 21 21 2'
_symmetry_Int_Tables_number      18
_space_group_name_Hall           'P 2 2ab'
loop_
_symmetry_equiv_pos_site_id
_symmetry_equiv_pos_as_xyz
1 x,y,z
2 1/2+x,1/2-y,-z
3 1/2-x,1/2+y,-z
4 -x,-y,z
_cell_length_a                   11.8937(3)
_cell_length_b                   28.7658(6)
_cell_length_c                   5.8648(1)
_cell_angle_alpha                90
_cell_angle_beta                 90
_cell_angle_gamma                90
_cell_volume                     2006.53
_exptl_crystal_colour            colorless
_exptl_crystal_description       piece
_cell_formula_units_Z            4
loop_
_atom_site_label
_atom_site_type_symbol
_atom_site_fract_x
_atom_site_fract_y
_atom_site_fract_z
O1 O 0.5000 0.0000 0.8365(19)
O2 O 0.24106(19) 0.13400(10) 1.2649(4)
C1 C -0.2778(2) 0.15909(10) 1.0293(5)
H1 H -0.2856 0.1268 1.0798
H2 H -0.3426 0.1772 1.0824
H3 H -0.2086 0.1723 1.0927
O3 O 0.16303(15) 0.23090(6) 0.7476(4)
O4 O 0.33092(16) 0.19513(7) 0.7395(4)
O5 O 0.09959(16) 0.03844(7) 0.9600(4)
O6 O -0.10755(15) 0.05644(7) 0.8196(4)
H4 H -0.0787 0.0326 0.8781
C2 C -0.3797(2) 0.14307(11) 0.6599(6)
H5 H -0.3958 0.1115 0.7131
H6 H -0.3698 0.1429 0.4940
H7 H -0.4424 0.1636 0.7000
C3 C -0.2727(2) 0.16062(9) 0.7726(5)
C4 C -0.1633(2) 0.14952(9) 0.6538(5)
H8 H -0.1740 0.1327 0.5061
C5 C -0.0554(2) 0.13627(9) 0.7741(5)
H9 H -0.0670 0.1402 0.9419
C6 C 0.0406(2) 0.16807(9) 0.7006(5)
H10 H 0.0357 0.1723 0.5316
C7 C 0.1560(2) 0.15071(9) 0.7559(5)
C8 C 0.1824(2) 0.10840(10) 0.8314(5)
C9 C 0.2956(2) 0.09487(11) 0.9226(6)
H11 H 0.3549 0.1081 0.8235
H12 H 0.3029 0.0606 0.9194
C10 C 0.3125(2) 0.11204(12) 1.1652(6)
C11 C -0.2095(2) 0.19909(9) 0.6499(5)
H13 H -0.2443 0.2074 0.5002
C12 C -0.1580(2) 0.24059(10) 0.7701(5)
H14 H -0.1625 0.2352 0.9366
H15 H -0.2042 0.2683 0.7352
C13 C -0.0349(2) 0.25157(9) 0.7088(5)
H16 H -0.0265 0.2516 0.5409
H17 H -0.0158 0.2831 0.7650
C14 C 0.0471(2) 0.21660(10) 0.8107(5)
C15 C 0.0448(2) 0.21702(10) 1.0700(5)
H18 H 0.0981 0.1940 1.1286
H19 H -0.0312 0.2094 1.1233
H20 H 0.0658 0.2480 1.1253
C16 C 0.2307(2) 0.19244(9) 0.7487(5)
C17 C 0.0891(2) 0.07432(9) 0.8520(5)
C18 C -0.0212(2) 0.08528(9) 0.7287(5)
C19 C -0.0009(2) 0.07408(10) 0.4763(5)
H21 H 0.0244 0.0418 0.4615
H22 H 0.0568 0.0950 0.4154
H23 H -0.0710 0.0783 0.3909
C20 C 0.4229(3) 0.1011(2) 1.2721(9)
H24 H 0.4272 0.1159 1.4225
H25 H 0.4837 0.1129 1.1752
H26 H 0.4306 0.0674 1.2890
C21 C 0.7044(6) 0.0220(2) 0.3688(16)
H27 H 0.7180 0.0546 0.3295
H28 H 0.6341 0.0116 0.2981
H29 H 0.7668 0.0029 0.3129
O7 O 0.6958(4) 0.01728(18) 0.6175(12)
H30 H 0.6278 0.0164 0.6556
loop_
_geom_bond_atom_site_label_1
_geom_bond_atom_site_label_2
_geom_bond_site_symmetry_1
_geom_bond_site_symmetry_2
O2 C10 1_555 1_555
C1 H1 1_555 1_555
H2 C1 1_555 1_555
H3 C1 1_555 1_555
O3 C14 1_555 1_555
O4 C16 1_555 1_555
O5 C17 1_555 1_555
O6 H4 1_555 1_555
C2 H5 1_555 1_555
H6 C2 1_555 1_555
H7 C2 1_555 1_555
C3 C1 1_555 1_555
C4 C3 1_555 1_555
H8 C4 1_555 1_555
C5 C4 1_555 1_555
H9 C5 1_555 1_555
C6 C5 1_555 1_555
H10 C6 1_555 1_555
C7 C6 1_555 1_555
C8 C7 1_555 1_555
C9 C8 1_555 1_555
H11 C9 1_555 1_555
H12 C9 1_555 1_555
C10 C9 1_555 1_555
C11 C3 1_555 1_555
H13 C11 1_555 1_555
C12 C11 1_555 1_555
H14 C12 1_555 1_555
H15 C12 1_555 1_555
C13 C12 1_555 1_555
H16 C13 1_555 1_555
H17 C13 1_555 1_555
C14 C6 1_555 1_555
C15 C14 1_555 1_555
H18 C15 1_555 1_555
H19 C15 1_555 1_555
H20 C15 1_555 1_555
C16 O3 1_555 1_555
C17 C8 1_555 1_555
C18 O6 1_555 1_555
C19 C18 1_555 1_555
H21 C19 1_555 1_555
H22 C19 1_555 1_555
H23 C19 1_555 1_555
C20 C10 1_555 1_555
H24 C20 1_555 1_555
H25 C20 1_555 1_555
H26 C20 1_555 1_555
C21 H27 1_555 1_555
H28 C21 1_555 1_555
H29 C21 1_555 1_555
O7 C21 1_555 1_555
H30 O7 1_555 1_555
C2 C3 1_555 1_555
C4 C11 1_555 1_555
C5 C18 1_555 1_555
C7 C16 1_555 1_555
C13 C14 1_555 1_555
C17 C18 1_555 1_555

#END
