
#######################################################################
#
#                 Cambridge Crystallographic Data Centre
#                                CCDC 
#
#######################################################################
#
# If this CIF has been generated from an entry in the Cambridge 
# Structural Database, then it will include bibliographic, chemical, 
# crystal, experimental, refinement or atomic coordinate data resulting 
# from the CCDC's data processing and validation procedures.
#
#######################################################################

data_GAWHIY
_chemical_formula_moiety         'C18 H20 O2'
_chemical_name_systematic        
(R)-5,6,7,8,9,10-hexahydrodibenzo[a,c][10]annulene-1,14-diol
_symmetry_cell_setting           orthorhombic
_symmetry_space_group_name_H-M   'P 21 21 21'
_symmetry_Int_Tables_number      19
_space_group_name_Hall           'P 2ac 2ab'
loop_
_symmetry_equiv_pos_site_id
_symmetry_equiv_pos_as_xyz
1 x,y,z
2 1/2-x,-y,1/2+z
3 1/2+x,1/2-y,-z
4 -x,1/2+y,1/2-z
_cell_length_a                   7.9979(3)
_cell_length_b                   9.8720(5)
_cell_length_c                   18.7094(11)
_cell_angle_alpha                90
_cell_angle_beta                 90
_cell_angle_gamma                90
_cell_volume                     1477.21
_exptl_crystal_colour            colorless
_exptl_crystal_description       column
_chemical_melting_point          '429-430 K'
_cell_formula_units_Z            4
_exptl_crystal_recrystallization_method 'dichloromethane/petroleum ether'
loop_
_atom_site_label
_atom_site_type_symbol
_atom_site_fract_x
_atom_site_fract_y
_atom_site_fract_z
O1 O 0.4568(2) 0.70762(15) 0.04337(8)
H1 H 0.4264 0.7885 0.0382
C1 C 0.6191(3) 0.7042(2) 0.06693(11)
O2 O 0.7532(2) 1.01754(15) -0.01833(8)
H2 H 0.7979 0.9421 -0.0103
C2 C 0.6969(3) 0.8214(2) 0.09272(11)
C3 C 0.8601(3) 0.8129(2) 0.11998(11)
C4 C 0.6027(3) 0.9526(2) 0.08892(10)
C5 C 0.7012(3) 0.5803(2) 0.06603(11)
H3 H 0.6481 0.5019 0.0474
C6 C 0.9412(3) 0.6877(2) 0.11968(12)
H4 H 1.0516 0.6807 0.1381
C7 C 0.3889(3) 1.1057(2) 0.13130(12)
H5 H 0.3024 1.1271 0.1642
C8 C 0.6360(3) 1.0433(2) 0.03275(11)
C9 C 0.4449(3) 0.8967(2) 0.20344(11)
H6 H 0.5079 0.8109 0.1984
H7 H 0.3244 0.8743 0.2057
C10 C 0.4253(3) 1.1950(2) 0.07640(13)
H8 H 0.3650 1.2775 0.0724
C11 C 0.9473(3) 0.9349(2) 0.15177(11)
H9 H 0.8812 1.0172 0.1411
H10 H 1.0584 0.9454 0.1290
C12 C 0.5493(3) 1.1645(2) 0.02728(12)
H11 H 0.5749 1.2264 -0.0100
C13 C 0.8626(3) 0.5736(2) 0.09294(12)
H12 H 0.9201 0.4894 0.0930
C14 C 0.4773(3) 0.9852(2) 0.13892(11)
C15 C 0.8063(3) 0.8963(2) 0.27398(12)
H13 H 0.7517 0.8156 0.2530
H14 H 0.8337 0.8746 0.3243
C16 C 0.4976(3) 0.9677(2) 0.27332(11)
H15 H 0.4251 1.0476 0.2809
H16 H 0.4796 0.9048 0.3138
C17 C 0.6805(3) 1.0136(2) 0.27343(12)
H17 H 0.7002 1.0710 0.3160
H18 H 0.7009 1.0700 0.2306
C18 C 0.9701(3) 0.9222(3) 0.23357(12)
H19 H 1.0485 0.8470 0.2436
H20 H 1.0212 1.0067 0.2519
loop_
_geom_bond_atom_site_label_1
_geom_bond_atom_site_label_2
_geom_bond_site_symmetry_1
_geom_bond_site_symmetry_2
O1 H1 1_555 1_555
C1 O1 1_555 1_555
O2 H2 1_555 1_555
C2 C1 1_555 1_555
C3 C2 1_555 1_555
C4 C2 1_555 1_555
C5 C1 1_555 1_555
H3 C5 1_555 1_555
C6 C3 1_555 1_555
H4 C6 1_555 1_555
C7 H5 1_555 1_555
C8 O2 1_555 1_555
C9 H6 1_555 1_555
H7 C9 1_555 1_555
C10 C7 1_555 1_555
H8 C10 1_555 1_555
C11 C3 1_555 1_555
H9 C11 1_555 1_555
H10 C11 1_555 1_555
C12 C8 1_555 1_555
H11 C12 1_555 1_555
C13 C5 1_555 1_555
H12 C13 1_555 1_555
C14 C4 1_555 1_555
C15 H13 1_555 1_555
H14 C15 1_555 1_555
C16 C9 1_555 1_555
H15 C16 1_555 1_555
H16 C16 1_555 1_555
C17 C15 1_555 1_555
H17 C17 1_555 1_555
H18 C17 1_555 1_555
C18 C11 1_555 1_555
H19 C18 1_555 1_555
H20 C18 1_555 1_555
C4 C8 1_555 1_555
C6 C13 1_555 1_555
C7 C14 1_555 1_555
C9 C14 1_555 1_555
C10 C12 1_555 1_555
C15 C18 1_555 1_555
C16 C17 1_555 1_555

#END
