
#######################################################################
#
#                 Cambridge Crystallographic Data Centre
#                                CCDC 
#
#######################################################################
#
# If this CIF has been generated from an entry in the Cambridge 
# Structural Database, then it will include bibliographic, chemical, 
# crystal, experimental, refinement or atomic coordinate data resulting 
# from the CCDC's data processing and validation procedures.
#
#######################################################################

data_GAWHUI
_chemical_formula_moiety         'C14 H12 Cl1 N1 O1'
_chemical_name_systematic        2-Amino-2'-chloro-5-methylbenzophenone
_symmetry_cell_setting           monoclinic
_symmetry_space_group_name_H-M   'P 21/c'
_symmetry_Int_Tables_number      14
_space_group_name_Hall           '-P 2ybc'
loop_
_symmetry_equiv_pos_site_id
_symmetry_equiv_pos_as_xyz
1 x,y,z
2 -x,1/2+y,1/2-z
3 -x,-y,-z
4 x,1/2-y,1/2+z
_cell_length_a                   10.3419(19)
_cell_length_b                   10.892(2)
_cell_length_c                   11.592(2)
_cell_angle_alpha                90
_cell_angle_beta                 102.982(3)
_cell_angle_gamma                90
_cell_volume                     1272.39
_exptl_crystal_colour            'light yellow'
_exptl_crystal_description       block
_chemical_melting_point          '376 K'
_cell_formula_units_Z            4
_exptl_crystal_recrystallization_method cyclohexane/dichloromethane
loop_
_atom_site_label
_atom_site_type_symbol
_atom_site_fract_x
_atom_site_fract_y
_atom_site_fract_z
Cl1 Cl 0.09031(6) 0.07657(6) 0.12545(6)
O1 O 0.42261(17) 0.00178(13) 0.23103(15)
N1 N 0.4557(2) -0.2382(2) 0.2847(2)
H1 H 0.490(2) -0.317(3) 0.287(2)
H2 H 0.481(2) -0.176(2) 0.245(2)
C1 C 0.1757(2) 0.17261(17) 0.23674(17)
C2 C 0.1286(2) 0.2907(2) 0.2462(2)
H3 H 0.0542 0.3192 0.1922
C3 C 0.1935(3) 0.3645(2) 0.3363(2)
H4 H 0.1632 0.4441 0.3428
C4 C 0.3015(3) 0.3231(2) 0.4165(2)
H5 H 0.3439 0.3736 0.4782
C5 C 0.3481(2) 0.2060(2) 0.4060(2)
H6 H 0.4220 0.1780 0.4609
C6 C 0.28643(19) 0.12938(16) 0.31500(17)
C7 C 0.3459(2) 0.00583(17) 0.29911(18)
C8 C 0.31486(19) -0.09873(16) 0.36486(17)
C9 C 0.3700(2) -0.21628(17) 0.35421(18)
C10 C 0.3336(2) -0.31250(19) 0.4218(2)
H7 H 0.3672 -0.3909 0.4156
C11 C 0.2507(2) -0.2934(2) 0.4957(2)
H8 H 0.2299 -0.3593 0.5392
C12 C 0.1953(2) -0.1782(2) 0.50913(19)
C13 C 0.2287(2) -0.08422(18) 0.44278(18)
H9 H 0.1928 -0.0069 0.4494
C14 C 0.1043(3) -0.1591(3) 0.5930(2)
H10 H 0.0882 -0.0729 0.5999
H11 H 0.1453 -0.1917 0.6694
H12 H 0.0217 -0.2005 0.5629
loop_
_geom_bond_atom_site_label_1
_geom_bond_atom_site_label_2
_geom_bond_site_symmetry_1
_geom_bond_site_symmetry_2
Cl1 C1 1_555 1_555
O1 C7 1_555 1_555
N1 H1 1_555 1_555
H2 N1 1_555 1_555
C1 C2 1_555 1_555
C2 H3 1_555 1_555
C3 C2 1_555 1_555
H4 C3 1_555 1_555
C4 C3 1_555 1_555
H5 C4 1_555 1_555
C5 C4 1_555 1_555
H6 C5 1_555 1_555
C6 C1 1_555 1_555
C7 C6 1_555 1_555
C8 C7 1_555 1_555
C9 N1 1_555 1_555
C10 C9 1_555 1_555
H7 C10 1_555 1_555
C11 C10 1_555 1_555
H8 C11 1_555 1_555
C12 C11 1_555 1_555
C13 C8 1_555 1_555
H9 C13 1_555 1_555
C14 C12 1_555 1_555
H10 C14 1_555 1_555
H11 C14 1_555 1_555
H12 C14 1_555 1_555
C5 C6 1_555 1_555
C8 C9 1_555 1_555
C12 C13 1_555 1_555

#END
