
#######################################################################
#
#                 Cambridge Crystallographic Data Centre
#                                CCDC 
#
#######################################################################
#
# If this CIF has been generated from an entry in the Cambridge 
# Structural Database, then it will include bibliographic, chemical, 
# crystal, experimental, refinement or atomic coordinate data resulting 
# from the CCDC's data processing and validation procedures.
#
#######################################################################

data_GAWJIA
_chemical_formula_moiety         'C26 H29 N3 O4'
_chemical_name_systematic        
't-butyl (1,2-diphenyl-2-((pyridin-2-ylcarbonyl)amino)ethyl)methoxycarbamate'
_symmetry_cell_setting           trigonal
_symmetry_space_group_name_H-M   'P 32'
_symmetry_Int_Tables_number      145
_space_group_name_Hall           'P 32'
loop_
_symmetry_equiv_pos_site_id
_symmetry_equiv_pos_as_xyz
1 x,y,z
2 -y,x-y,2/3+z
3 -x+y,-x,1/3+z
_cell_length_a                   9.05833(18)
_cell_length_b                   9.05833(18)
_cell_length_c                   26.0061(5)
_cell_angle_alpha                90
_cell_angle_beta                 90
_cell_angle_gamma                120
_cell_volume                     1848
_exptl_crystal_colour            colorless
_exptl_crystal_description       block
_cell_formula_units_Z            3
loop_
_atom_site_label
_atom_site_type_symbol
_atom_site_fract_x
_atom_site_fract_y
_atom_site_fract_z
O1 O -0.4043(3) -0.1609(2) -0.33002(7)
O2 O -0.69246(18) -0.0038(2) -0.36359(6)
O3 O -0.5995(2) 0.2674(2) -0.25849(6)
O4 O -0.8174(2) 0.0043(2) -0.27769(6)
N1 N -0.3814(2) 0.0787(2) -0.29547(7)
H1 H -0.3870 0.1274 -0.2677
N2 N -0.4505(3) -0.0585(3) -0.20230(8)
N3 N -0.6212(2) 0.1533(2) -0.33747(7)
C1 C -0.0684(4) 0.4489(4) -0.31953(11)
H2 H -0.1338 0.4771 -0.2985
C2 C 0.1052(4) 0.5579(4) -0.32278(14)
H3 H 0.1555 0.6601 -0.3047
C3 C 0.2037(3) 0.5165(4) -0.35245(10)
H4 H 0.3209 0.5895 -0.3541
C4 C 0.1290(4) 0.3673(4) -0.37967(12)
H5 H 0.1956 0.3386 -0.3999
C5 C -0.0458(3) 0.2587(4) -0.37703(10)
H6 H -0.0958 0.1578 -0.3958
C6 C -0.1463(3) 0.2985(3) -0.34707(8)
C7 C -0.3368(3) 0.1746(3) -0.34347(8)
H7 H -0.3680 0.0928 -0.3718
C8 C -0.4409(3) 0.2655(3) -0.34964(8)
H8 H -0.3965 0.3579 -0.3243
C9 C -0.4182(3) 0.3479(3) -0.40206(9)
C10 C -0.4247(4) 0.2633(4) -0.44724(9)
H9 H -0.4417 0.1533 -0.4456
C11 C -0.4064(4) 0.3390(4) -0.49436(11)
H10 H -0.4100 0.2807 -0.5242
C12 C -0.3831(5) 0.4994(5) -0.49748(13)
H11 H -0.3717 0.5502 -0.5294
C13 C -0.3763(5) 0.5855(4) -0.45358(16)
H12 H -0.3602 0.6951 -0.4558
C14 C -0.3935(4) 0.5103(4) -0.40552(11)
H13 H -0.3883 0.5699 -0.3758
C15 C -0.4140(3) -0.0823(3) -0.29313(9)
C16 C -0.4651(3) -0.1624(3) -0.24090(9)
C17 C -0.5226(3) -0.3338(3) -0.23457(10)
H14 H -0.5306 -0.4019 -0.2624
C18 C -0.5682(4) -0.4017(4) -0.18562(11)
H15 H -0.6082 -0.5169 -0.1800
C19 C -0.5538(4) -0.2977(4) -0.14582(12)
H16 H -0.5837 -0.3408 -0.1126
C20 C -0.4937(4) -0.1268(4) -0.15562(11)
H17 H -0.4830 -0.0562 -0.1282
C21 C -0.8373(4) -0.0294(5) -0.39285(13)
H18 H -0.9177 -0.0219 -0.3705
H19 H -0.8901 -0.1400 -0.4086
H20 H -0.8013 0.0565 -0.4190
C22 C -0.6745(3) 0.1479(3) -0.28749(8)
C23 C -0.9198(3) -0.0121(4) -0.23154(9)
C24 C -0.8206(5) 0.0035(7) -0.18357(13)
H21 H -0.7207 0.1145 -0.1823
H22 H -0.7874 -0.0819 -0.1838
H23 H -0.8904 -0.0121 -0.1540
C25 C -0.9760(4) 0.1185(4) -0.23450(14)
H24 H -1.0303 0.1089 -0.2670
H25 H -0.8785 0.2306 -0.2312
H26 H -1.0549 0.0992 -0.2072
C26 C -1.0715(4) -0.1887(4) -0.23828(14)
H27 H -1.0339 -0.2708 -0.2386
H28 H -1.1274 -0.1944 -0.2702
H29 H -1.1498 -0.2133 -0.2104
loop_
_geom_bond_atom_site_label_1
_geom_bond_atom_site_label_2
_geom_bond_site_symmetry_1
_geom_bond_site_symmetry_2
O1 C15 1_555 1_555
O2 N3 1_555 1_555
O3 C22 1_555 1_555
O4 C22 1_555 1_555
N1 H1 1_555 1_555
N2 C16 1_555 1_555
N3 C8 1_555 1_555
C1 H2 1_555 1_555
C2 C1 1_555 1_555
H3 C2 1_555 1_555
C3 C2 1_555 1_555
H4 C3 1_555 1_555
C4 C3 1_555 1_555
H5 C4 1_555 1_555
C5 C4 1_555 1_555
H6 C5 1_555 1_555
C6 C1 1_555 1_555
C7 N1 1_555 1_555
H7 C7 1_555 1_555
C8 C7 1_555 1_555
H8 C8 1_555 1_555
C9 C8 1_555 1_555
C10 C9 1_555 1_555
H9 C10 1_555 1_555
C11 C10 1_555 1_555
H10 C11 1_555 1_555
C12 C11 1_555 1_555
H11 C12 1_555 1_555
C13 C12 1_555 1_555
H12 C13 1_555 1_555
C14 C9 1_555 1_555
H13 C14 1_555 1_555
C15 N1 1_555 1_555
C16 C15 1_555 1_555
C17 C16 1_555 1_555
H14 C17 1_555 1_555
C18 C17 1_555 1_555
H15 C18 1_555 1_555
C19 C18 1_555 1_555
H16 C19 1_555 1_555
C20 N2 1_555 1_555
H17 C20 1_555 1_555
C21 O2 1_555 1_555
H18 C21 1_555 1_555
H19 C21 1_555 1_555
H20 C21 1_555 1_555
C22 N3 1_555 1_555
C23 O4 1_555 1_555
C24 C23 1_555 1_555
H21 C24 1_555 1_555
H22 C24 1_555 1_555
H23 C24 1_555 1_555
C25 C23 1_555 1_555
H24 C25 1_555 1_555
H25 C25 1_555 1_555
H26 C25 1_555 1_555
C26 C23 1_555 1_555
H27 C26 1_555 1_555
H28 C26 1_555 1_555
H29 C26 1_555 1_555
C5 C6 1_555 1_555
C6 C7 1_555 1_555
C13 C14 1_555 1_555
C19 C20 1_555 1_555

#END
