
#######################################################################
#
#                 Cambridge Crystallographic Data Centre
#                                CCDC 
#
#######################################################################
#
# If this CIF has been generated from an entry in the Cambridge 
# Structural Database, then it will include bibliographic, chemical, 
# crystal, experimental, refinement or atomic coordinate data resulting 
# from the CCDC's data processing and validation procedures.
#
#######################################################################

data_GAWJEW
_chemical_formula_moiety         'C17 H18 O2'
_chemical_name_systematic        
(R)-6,7,8,9-tetrahydro-5H-dibenzo[a,c][9]annulene-1,13-diol
_symmetry_cell_setting           orthorhombic
_symmetry_space_group_name_H-M   'P 21 21 21'
_symmetry_Int_Tables_number      19
_space_group_name_Hall           'P 2ac 2ab'
loop_
_symmetry_equiv_pos_site_id
_symmetry_equiv_pos_as_xyz
1 x,y,z
2 1/2-x,-y,1/2+z
3 1/2+x,1/2-y,-z
4 -x,1/2+y,1/2-z
_cell_length_a                   7.3281(3)
_cell_length_b                   8.20037(19)
_cell_length_c                   22.5229(11)
_cell_angle_alpha                90
_cell_angle_beta                 90
_cell_angle_gamma                90
_cell_volume                     1353.47
_exptl_crystal_colour            colorless
_exptl_crystal_description       column
_chemical_melting_point          '398-399 K'
_cell_formula_units_Z            4
_exptl_crystal_recrystallization_method 'dichloromethane/petroleum ether'
loop_
_atom_site_label
_atom_site_type_symbol
_atom_site_fract_x
_atom_site_fract_y
_atom_site_fract_z
O1 O 0.38598(15) 0.00013(13) 0.07529(5)
H1 H 0.3415 0.0891 0.0638
C1 C 0.41718(19) 0.42799(17) 0.12114(6)
O2 O 0.64496(14) 0.28099(12) -0.01467(4)
H2 H 0.6941 0.2033 0.0037
C2 C 0.3999(2) 0.39427(19) 0.18705(6)
H3 H 0.4124 0.2754 0.1934
H4 H 0.2755 0.4257 0.1998
C3 C 0.8760(2) 0.37138(17) 0.14466(6)
H5 H 0.7998 0.4529 0.1238
H6 H 1.0002 0.3758 0.1274
C4 C 0.8159(2) -0.08828(18) 0.14789(6)
H7 H 0.8807 -0.1810 0.1619
C5 C 0.8907(2) 0.06658(18) 0.15492(6)
H8 H 1.0063 0.0789 0.1735
C6 C 0.52419(19) 0.32915(16) 0.08398(6)
C7 C 0.32738(19) 0.56307(18) 0.09731(6)
H9 H 0.2534 0.6291 0.1222
C8 C 0.45263(19) 0.50703(16) 0.00062(6)
H10 H 0.4662 0.5341 -0.0401
C9 C 0.5524(2) 0.02731(18) 0.10053(6)
C10 C 0.7969(2) 0.20359(18) 0.13477(6)
C11 C 0.62609(19) 0.18415(17) 0.10702(5)
C12 C 0.6476(2) -0.10849(18) 0.12068(6)
H11 H 0.5977 -0.2146 0.1158
C13 C 0.7101(2) 0.3872(2) 0.24692(6)
H12 H 0.7354 0.4140 0.2890
H13 H 0.6805 0.2695 0.2451
C14 C 0.5400(2) 0.48316(18) 0.22760(6)
H14 H 0.5814 0.5826 0.2066
H15 H 0.4752 0.5191 0.2639
C15 C 0.8860(2) 0.4156(2) 0.21123(6)
H16 H 0.9851 0.3509 0.2296
H17 H 0.9199 0.5320 0.2147
C16 C 0.54055(18) 0.37131(16) 0.02419(6)
C17 C 0.3450(2) 0.60213(18) 0.03752(6)
H18 H 0.2829 0.6943 0.0219
loop_
_geom_bond_atom_site_label_1
_geom_bond_atom_site_label_2
_geom_bond_site_symmetry_1
_geom_bond_site_symmetry_2
O1 H1 1_555 1_555
C1 C2 1_555 1_555
O2 H2 1_555 1_555
C2 H3 1_555 1_555
H4 C2 1_555 1_555
C3 H5 1_555 1_555
H6 C3 1_555 1_555
C4 H7 1_555 1_555
C5 C4 1_555 1_555
H8 C5 1_555 1_555
C6 C1 1_555 1_555
C7 C1 1_555 1_555
H9 C7 1_555 1_555
C8 H10 1_555 1_555
C9 O1 1_555 1_555
C10 C3 1_555 1_555
C11 C6 1_555 1_555
C12 C4 1_555 1_555
H11 C12 1_555 1_555
C13 H12 1_555 1_555
H13 C13 1_555 1_555
C14 C2 1_555 1_555
H14 C14 1_555 1_555
H15 C14 1_555 1_555
C15 C3 1_555 1_555
H16 C15 1_555 1_555
H17 C15 1_555 1_555
C16 O2 1_555 1_555
C17 C7 1_555 1_555
H18 C17 1_555 1_555
C5 C10 1_555 1_555
C6 C16 1_555 1_555
C8 C16 1_555 1_555
C8 C17 1_555 1_555
C9 C11 1_555 1_555
C9 C12 1_555 1_555
C10 C11 1_555 1_555
C13 C14 1_555 1_555
C13 C15 1_555 1_555

#END
