
#######################################################################
#
#                 Cambridge Crystallographic Data Centre
#                                CCDC 
#
#######################################################################
#
# If this CIF has been generated from an entry in the Cambridge 
# Structural Database, then it will include bibliographic, chemical, 
# crystal, experimental, refinement or atomic coordinate data resulting 
# from the CCDC's data processing and validation procedures.
#
#######################################################################

data_GAWMAT
_chemical_formula_moiety         'C14 H20 N1 O3 1+,Cl1 1-'
_chemical_name_systematic        
'1-(2-(4-Carboxyphenoxy)ethyl)piperidinium chloride'
_symmetry_cell_setting           orthorhombic
_symmetry_space_group_name_H-M   'P b c a'
_symmetry_Int_Tables_number      61
_space_group_name_Hall           '-P 2ac 2ab'
loop_
_symmetry_equiv_pos_site_id
_symmetry_equiv_pos_as_xyz
1 x,y,z
2 1/2+x,1/2-y,-z
3 -x,1/2+y,1/2-z
4 1/2-x,-y,1/2+z
5 -x,-y,-z
6 1/2-x,1/2+y,z
7 x,1/2-y,1/2+z
8 1/2+x,y,1/2-z
_cell_length_a                   16.777(4)
_cell_length_b                   7.4464(15)
_cell_length_c                   23.192(5)
_cell_angle_alpha                90
_cell_angle_beta                 90
_cell_angle_gamma                90
_cell_volume                     2897.34
_exptl_crystal_colour            colorless
_exptl_crystal_description       block
_chemical_melting_point          '549-550 K'
_cell_formula_units_Z            8
_exptl_crystal_recrystallization_method 'ethanol solution'
loop_
_atom_site_label
_atom_site_type_symbol
_atom_site_fract_x
_atom_site_fract_y
_atom_site_fract_z
Cl1 Cl 0.60784(2) 0.15467(5) 0.188580(10)
O1 O 0.72054(6) 0.28477(16) 0.54758(4)
O2 O 0.61229(6) 0.45127(13) 0.56284(4)
O3 O 0.64593(6) 0.61350(12) 0.29911(4)
N1 N 0.60721(6) 0.57138(14) 0.17082(4)
C1 C 0.67032(9) 0.38568(19) 0.52976(6)
C2 C 0.66449(8) 0.44739(17) 0.46900(6)
C3 C 0.72244(9) 0.39612(18) 0.43019(6)
C4 C 0.71908(9) 0.44754(19) 0.37279(6)
C5 C 0.65582(9) 0.55105(17) 0.35432(6)
C6 C 0.59629(9) 0.60075(19) 0.39258(6)
C7 C 0.60125(9) 0.55098(18) 0.44966(6)
C8 C 0.70016(8) 0.5544(2) 0.25620(6)
C9 C 0.68015(9) 0.6428(2) 0.19964(6)
C10 C 0.61381(10) 0.5954(2) 0.10674(6)
C11 C 0.54184(11) 0.5223(2) 0.07616(6)
C12 C 0.46492(11) 0.6004(2) 0.09901(6)
C13 C 0.46019(9) 0.5762(2) 0.16346(6)
C14 C 0.53204(9) 0.6522(2) 0.19371(6)
H1 H 0.7670 0.3219 0.4436
H2 H 0.7607 0.4101 0.3457
H3 H 0.5509 0.6714 0.3788
H4 H 0.5599 0.5894 0.4768
H5 H 0.7543 0.5840 0.2675
H6 H 0.6953 0.4253 0.2517
H7 H 0.6181 0.7228 0.0985
H8 H 0.6612 0.5343 0.0930
H9 H 0.4638 0.7279 0.0904
H10 H 0.4198 0.5420 0.0807
H11 H 0.4123 0.6338 0.1778
H12 H 0.4579 0.4485 0.1716
H13 H 0.5279 0.6302 0.2348
H14 H 0.5338 0.7805 0.1867
H15 H 0.7250 0.6294 0.1736
H16 H 0.6712 0.7692 0.2072
H17 H 0.5461 0.5486 0.0353
H18 H 0.5404 0.3932 0.0818
H19 H 0.6191 0.4220 0.6014
H20 H 0.6052 0.4580 0.1778
loop_
_geom_bond_atom_site_label_1
_geom_bond_atom_site_label_2
_geom_bond_site_symmetry_1
_geom_bond_site_symmetry_2
O1 C1 1_555 1_555
O2 C1 1_555 1_555
O3 C5 1_555 1_555
N1 C9 1_555 1_555
C1 C2 1_555 1_555
C2 C3 1_555 1_555
C3 C4 1_555 1_555
C4 C5 1_555 1_555
C5 C6 1_555 1_555
C6 C7 1_555 1_555
C7 C2 1_555 1_555
C8 O3 1_555 1_555
C9 C8 1_555 1_555
C10 N1 1_555 1_555
C11 C10 1_555 1_555
C12 C11 1_555 1_555
C13 C12 1_555 1_555
C14 N1 1_555 1_555
H1 C3 1_555 1_555
H2 C4 1_555 1_555
H3 C6 1_555 1_555
H4 C7 1_555 1_555
H5 C8 1_555 1_555
H6 C8 1_555 1_555
H7 C10 1_555 1_555
H8 C10 1_555 1_555
H9 C12 1_555 1_555
H10 C12 1_555 1_555
H11 C13 1_555 1_555
H12 C13 1_555 1_555
H13 C14 1_555 1_555
H14 C14 1_555 1_555
H15 C9 1_555 1_555
H16 C9 1_555 1_555
H17 C11 1_555 1_555
H18 C11 1_555 1_555
H19 O2 1_555 1_555
H20 N1 1_555 1_555
C13 C14 1_555 1_555

#END
