
#######################################################################
#
#                 Cambridge Crystallographic Data Centre
#                                CCDC 
#
#######################################################################
#
# If this CIF has been generated from an entry in the Cambridge 
# Structural Database, then it will include bibliographic, chemical, 
# crystal, experimental, refinement or atomic coordinate data resulting 
# from the CCDC's data processing and validation procedures.
#
#######################################################################

data_GAWNIC
_chemical_formula_moiety         'C12 H14 Cl2 F1 N1 O4 S1'
_chemical_name_systematic        
(R-(R*,S*))-2,2-Dichloro-N-(1-(fluoromethyl)-2-hydroxy-2-(4-(methylsulfonyl)phenyl)ethyl)acetamide
_chemical_properties_biological  
'synthetic broad-spectrum antibiotic used in veterinary medicine'
_symmetry_cell_setting           monoclinic
_symmetry_space_group_name_H-M   'P 21'
_symmetry_Int_Tables_number      4
_space_group_name_Hall           'P 2yb'
loop_
_symmetry_equiv_pos_site_id
_symmetry_equiv_pos_as_xyz
1 x,y,z
2 -x,1/2+y,-z
_cell_length_a                   11.2407(18)
_cell_length_b                   5.0994(8)
_cell_length_c                   13.412(2)
_cell_angle_alpha                90
_cell_angle_beta                 103.499(3)
_cell_angle_gamma                90
_cell_volume                     747.548
_exptl_crystal_colour            colorless
_exptl_crystal_description       plate
_cell_formula_units_Z            2
_exptl_crystal_recrystallization_method ethanol
loop_
_atom_site_label
_atom_site_type_symbol
_atom_site_fract_x
_atom_site_fract_y
_atom_site_fract_z
C1 C 0.1090(4) 0.9154(13) 0.6128(3)
H1 H 0.0246 0.8716 0.5858
H2 H 0.1190 1.1023 0.6117
H3 H 0.1344 0.8533 0.6821
C2 C 0.3531(4) 0.8279(8) 0.6015(3)
C3 C 0.4122(4) 0.6518(9) 0.6751(3)
H4 H 0.3699 0.5122 0.6952
C4 C 0.4136(4) 1.0409(9) 0.5725(3)
H5 H 0.3723 1.1594 0.5239
C5 C 0.5359(4) 0.6876(8) 0.7184(3)
H6 H 0.5765 0.5702 0.7679
C6 C 0.5372(4) 1.0743(8) 0.6174(3)
H7 H 0.5786 1.2178 0.5992
C7 C 0.6000(4) 0.8950(9) 0.6894(3)
C8 C 0.7373(4) 0.9282(9) 0.7287(3)
H8 H 0.7764 0.8551 0.6768
C9 C 0.7931(4) 0.7922(9) 0.8300(3)
H9 H 0.7771 0.6037 0.8215
C10 C 0.9311(5) 0.8338(14) 0.8597(4)
H10 H 0.9511 1.0186 0.8691
H11 H 0.9679 0.7402 0.9222
C11 C 0.7131(4) 0.7128(9) 0.9798(3)
C12 C 0.6792(4) 0.8451(9) 1.0724(3)
H12 H 0.6418 1.0160 1.0514
Cl1 Cl 0.57592(14) 0.6518(4) 1.12025(10)
Cl2 Cl 0.81408(14) 0.8918(4) 1.16698(10)
F1 F 0.9721(5) 0.728(2) 0.7734(5)
N1 N 0.7403(3) 0.8869(8) 0.9141(2)
O1 O 0.1797(3) 0.4903(7) 0.5373(3)
O2 O 0.1734(3) 0.8979(8) 0.4395(2)
O3 O 0.7686(3) 1.2008(6) 0.7394(2)
H13 H 0.7994 1.2460 0.6924
O4 O 0.7148(3) 0.4780(7) 0.9714(2)
S1 S 0.19842(10) 0.7680(2) 0.53801(8)
H14? H 0.9665 0.7787 0.8037
H15? H 0.9487 1.0187 0.8721
F2? F 0.9840(6) 0.690(2) 0.9482(5)
loop_
_geom_bond_atom_site_label_1
_geom_bond_atom_site_label_2
_geom_bond_site_symmetry_1
_geom_bond_site_symmetry_2
C1 H1 1_555 1_555
H2 C1 1_555 1_555
H3 C1 1_555 1_555
C2 C3 1_555 1_555
C3 H4 1_555 1_555
C4 C2 1_555 1_555
H5 C4 1_555 1_555
C5 C3 1_555 1_555
H6 C5 1_555 1_555
C6 C4 1_555 1_555
H7 C6 1_555 1_555
C7 C5 1_555 1_555
C8 C7 1_555 1_555
H8 C8 1_555 1_555
C9 C8 1_555 1_555
H9 C9 1_555 1_555
C10 C9 1_555 1_555
H10 C10 1_555 1_555
H11 C10 1_555 1_555
C11 C12 1_555 1_555
C12 H12 1_555 1_555
Cl1 C12 1_555 1_555
Cl2 C12 1_555 1_555
F1 C10 1_555 1_555
N1 C9 1_555 1_555
O1 S1 1_555 1_555
O2 S1 1_555 1_555
O3 C8 1_555 1_555
H13 O3 1_555 1_555
O4 C11 1_555 1_555
S1 C1 1_555 1_555
C2 S1 1_555 1_555
C6 C7 1_555 1_555
C11 N1 1_555 1_555

#END
