
#######################################################################
#
#                 Cambridge Crystallographic Data Centre
#                                CCDC 
#
#######################################################################
#
# If this CIF has been generated from an entry in the Cambridge 
# Structural Database, then it will include bibliographic, chemical, 
# crystal, experimental, refinement or atomic coordinate data resulting 
# from the CCDC's data processing and validation procedures.
#
#######################################################################

data_GAWZUC
_chemical_formula_moiety         'C32 H18 Cl2 O4'
_chemical_name_systematic        
'4-(4-chlorophenyl)-5-((4-chlorophenyl)ethynyl)-2-oxo-6-phenyl-2H-pyran-3-yl benzoate'
_symmetry_cell_setting           triclinic
_symmetry_space_group_name_H-M   'P -1'
_symmetry_Int_Tables_number      2
_space_group_name_Hall           '-P 1'
loop_
_symmetry_equiv_pos_site_id
_symmetry_equiv_pos_as_xyz
1 x,y,z
2 -x,-y,-z
_cell_length_a                   9.533(4)
_cell_length_b                   10.285(4)
_cell_length_c                   14.038(6)
_cell_angle_alpha                98.0380(10)
_cell_angle_beta                 106.877(5)
_cell_angle_gamma                99.272(6)
_cell_volume                     1274.27
_exptl_crystal_colour            white
_exptl_crystal_description       Prism
_cell_formula_units_Z            2
loop_
_atom_site_label
_atom_site_type_symbol
_atom_site_fract_x
_atom_site_fract_y
_atom_site_fract_z
Cl1 Cl 1.32935(4) 1.17198(4) 0.66515(3)
Cl2 Cl 0.77866(5) 0.68595(5) 0.07160(3)
O1 O 0.55749(10) 0.22909(8) 0.50839(6)
O2 O 0.41440(12) 0.05787(10) 0.38745(8)
O3 O 0.51238(9) 0.16186(9) 0.24142(6)
O4 O 0.27150(11) 0.18005(10) 0.20652(8)
C1 C 0.49967(14) 0.16459(12) 0.40851(9)
C2 C 0.54974(13) 0.23606(12) 0.33872(9)
C3 C 0.63857(12) 0.36045(12) 0.36718(8)
C4 C 0.69542(12) 0.42090(11) 0.47518(8)
C5 C 0.65652(13) 0.35058(11) 0.54245(9)
C6 C 0.71413(13) 0.38140(12) 0.65428(9)
C7 C 0.76231(14) 0.51203(13) 0.71091(9)
H1 H 0.7564 0.5845 0.6781
C8 C 0.81889(15) 0.53461(14) 0.81567(10)
H2 H 0.8514 0.6222 0.8529
C9 C 0.82744(15) 0.42751(15) 0.86541(10)
H3 H 0.8651 0.4430 0.9359
C10 C 0.77997(16) 0.29831(15) 0.81010(10)
H4 H 0.7863 0.2264 0.8435
C11 C 0.72293(15) 0.27405(13) 0.70543(10)
H5 H 0.6903 0.1861 0.6688
C12 C 0.79650(13) 0.54921(12) 0.50820(8)
C13 C 0.88127(14) 0.65602(13) 0.53121(9)
C14 C 0.98836(14) 0.78137(12) 0.56261(9)
C15 C 1.01122(18) 0.86411(16) 0.65534(11)
H6 H 0.9547 0.8389 0.6963
C16 C 1.11685(19) 0.98331(16) 0.68723(11)
H7 H 1.1327 1.0377 0.7497
C17 C 1.19860(14) 1.02079(12) 0.62544(10)
C18 C 1.17730(14) 0.94237(13) 0.53288(10)
H8 H 1.2331 0.9692 0.4919
C19 C 1.07135(14) 0.82252(12) 0.50133(10)
H9 H 1.0556 0.7690 0.4385
C20 C 0.67711(12) 0.43504(11) 0.29164(8)
C21 C 0.82467(13) 0.48634(12) 0.29872(9)
H10 H 0.9029 0.4700 0.3500
C22 C 0.85634(14) 0.56141(13) 0.23029(9)
H11 H 0.9552 0.5953 0.2350
C23 C 0.73908(15) 0.58544(13) 0.15472(9)
C24 C 0.59180(15) 0.53365(14) 0.14491(9)
H12 H 0.5140 0.5493 0.0930
C25 C 0.56177(13) 0.45820(13) 0.21330(9)
H13 H 0.4627 0.4222 0.2069
C26 C 0.36344(13) 0.12504(12) 0.18571(9)
C27 C 0.33495(14) 0.01457(12) 0.09880(9)
C28 C 0.43690(16) -0.06581(13) 0.09273(10)
H14 H 0.5297 -0.0485 0.1430
C29 C 0.3994(2) -0.17203(16) 0.01117(13)
H15 H 0.4673 -0.2265 0.0070
C30 C 0.2632(2) -0.19749(18) -0.06340(12)
H16 H 0.2388 -0.2694 -0.1176
C31 C 0.19762(17) -0.01131(16) 0.02253(11)
H17 H 0.1292 0.0427 0.0260
C32 C 0.1625(2) -0.1170(2) -0.05834(12)
H18 H 0.0706 -0.1338 -0.1096
loop_
_geom_bond_atom_site_label_1
_geom_bond_atom_site_label_2
_geom_bond_site_symmetry_1
_geom_bond_site_symmetry_2
Cl1 C17 1_555 1_555
Cl2 C23 1_555 1_555
O1 C1 1_555 1_555
O2 C1 1_555 1_555
O3 C2 1_555 1_555
O4 C26 1_555 1_555
C1 C2 1_555 1_555
C2 C3 1_555 1_555
C3 C4 1_555 1_555
C4 C5 1_555 1_555
C5 O1 1_555 1_555
C6 C5 1_555 1_555
C7 C6 1_555 1_555
H1 C7 1_555 1_555
C8 C7 1_555 1_555
H2 C8 1_555 1_555
C9 C8 1_555 1_555
H3 C9 1_555 1_555
C10 C9 1_555 1_555
H4 C10 1_555 1_555
C11 C6 1_555 1_555
H5 C11 1_555 1_555
C12 C4 1_555 1_555
C13 C12 1_555 1_555
C14 C13 1_555 1_555
C15 C14 1_555 1_555
H6 C15 1_555 1_555
C16 C15 1_555 1_555
H7 C16 1_555 1_555
C17 C16 1_555 1_555
C18 C17 1_555 1_555
H8 C18 1_555 1_555
C19 C14 1_555 1_555
H9 C19 1_555 1_555
C20 C3 1_555 1_555
C21 C20 1_555 1_555
H10 C21 1_555 1_555
C22 C21 1_555 1_555
H11 C22 1_555 1_555
C23 C22 1_555 1_555
C24 C23 1_555 1_555
H12 C24 1_555 1_555
C25 C20 1_555 1_555
H13 C25 1_555 1_555
C26 O3 1_555 1_555
C27 C26 1_555 1_555
C28 C27 1_555 1_555
H14 C28 1_555 1_555
C29 C28 1_555 1_555
H15 C29 1_555 1_555
C30 C29 1_555 1_555
H16 C30 1_555 1_555
C31 C27 1_555 1_555
H17 C31 1_555 1_555
C32 C30 1_555 1_555
H18 C32 1_555 1_555
C10 C11 1_555 1_555
C18 C19 1_555 1_555
C24 C25 1_555 1_555
C31 C32 1_555 1_555

#END
