
#######################################################################
#
#                 Cambridge Crystallographic Data Centre
#                                CCDC 
#
#######################################################################
#
# If this CIF has been generated from an entry in the Cambridge 
# Structural Database, then it will include bibliographic, chemical, 
# crystal, experimental, refinement or atomic coordinate data resulting 
# from the CCDC's data processing and validation procedures.
#
#######################################################################

data_GAXKAU
_chemical_formula_moiety         'C11 H11 F2 N1 S1'
_chemical_name_systematic        
3-((difluoromethyl)sulfanyl)-1,2-dimethyl-1H-indole
_symmetry_cell_setting           triclinic
_symmetry_space_group_name_H-M   'P -1'
_symmetry_Int_Tables_number      2
_space_group_name_Hall           '-P 1'
loop_
_symmetry_equiv_pos_site_id
_symmetry_equiv_pos_as_xyz
1 x,y,z
2 -x,-y,-z
_cell_length_a                   7.8821(12)
_cell_length_b                   8.1520(12)
_cell_length_c                   9.2260(15)
_cell_angle_alpha                65.702(4)
_cell_angle_beta                 87.317(5)
_cell_angle_gamma                84.202(5)
_cell_volume                     537.529
_exptl_crystal_colour            colorless
_exptl_crystal_description       block
_cell_formula_units_Z            2
loop_
_atom_site_label
_atom_site_type_symbol
_atom_site_fract_x
_atom_site_fract_y
_atom_site_fract_z
C1 C 0.2988(3) 0.3467(4) 0.1241(3)
H1 H 0.3492 0.3106 0.0414
C2 C 0.3507(3) 0.4359(3) 0.3750(3)
C3 C 0.3006(3) 0.6107(3) 0.3556(3)
C4 C 0.3238(3) 0.7840(3) 0.2146(3)
H2 H 0.2144 0.8412 0.1705
H3 H 0.3922 0.7593 0.1359
H4 H 0.3795 0.8627 0.2470
C5 C 0.1409(3) 0.7645(3) 0.5172(3)
H5 H 0.1962 0.8698 0.4503
H6 H 0.1538 0.7435 0.6266
H7 H 0.0219 0.7831 0.4916
C6 C 0.2142(3) 0.4299(3) 0.6006(3)
C7 C 0.1430(3) 0.3602(3) 0.7534(3)
H8 H 0.0883 0.4356 0.7975
C8 C 0.1574(3) 0.1743(4) 0.8363(3)
H9 H 0.1111 0.1238 0.9381
C9 C 0.2405(3) 0.0595(3) 0.7701(3)
H10 H 0.2490 -0.0650 0.8292
C10 C 0.3094(3) 0.1290(3) 0.6191(3)
H11 H 0.3633 0.0524 0.5759
C11 C 0.2971(3) 0.3168(3) 0.5315(2)
F1 F 0.1921(3) 0.2225(3) 0.2165(2)
F2 F 0.1956(2) 0.5025(3) 0.0553(2)
N1 N 0.2188(2) 0.6072(2) 0.4913(2)
S1 S 0.46565(7) 0.37241(9) 0.23673(7)
loop_
_geom_bond_atom_site_label_1
_geom_bond_atom_site_label_2
_geom_bond_site_symmetry_1
_geom_bond_site_symmetry_2
C1 H1 1_555 1_555
C2 C3 1_555 1_555
C3 C4 1_555 1_555
C4 H2 1_555 1_555
H3 C4 1_555 1_555
H4 C4 1_555 1_555
C5 H5 1_555 1_555
H6 C5 1_555 1_555
H7 C5 1_555 1_555
C6 C7 1_555 1_555
C7 H8 1_555 1_555
C8 C7 1_555 1_555
H9 C8 1_555 1_555
C9 C8 1_555 1_555
H10 C9 1_555 1_555
C10 C9 1_555 1_555
H11 C10 1_555 1_555
C11 C2 1_555 1_555
F1 C1 1_555 1_555
F2 C1 1_555 1_555
N1 C3 1_555 1_555
S1 C1 1_555 1_555
C2 S1 1_555 1_555
C5 N1 1_555 1_555
C6 C11 1_555 1_555
C6 N1 1_555 1_555
C10 C11 1_555 1_555

#END
