
#######################################################################
#
#                 Cambridge Crystallographic Data Centre
#                                CCDC 
#
#######################################################################
#
# If this CIF has been generated from an entry in the Cambridge 
# Structural Database, then it will include bibliographic, chemical, 
# crystal, experimental, refinement or atomic coordinate data resulting 
# from the CCDC's data processing and validation procedures.
#
#######################################################################

data_GAXLAV
_chemical_formula_moiety         'C25 H22 N2 O3 S1'
_chemical_name_systematic        
N-(1-(1H-indol-3-yl)-1-methyl-3-oxo-2,3-dihydro-1H-inden-2-yl)-4-methylbenzene-1-sulfonamide
_symmetry_cell_setting           monoclinic
_symmetry_space_group_name_H-M   'P 21/c'
_symmetry_Int_Tables_number      14
_space_group_name_Hall           '-P 2ybc'
loop_
_symmetry_equiv_pos_site_id
_symmetry_equiv_pos_as_xyz
1 x,y,z
2 -x,1/2+y,1/2-z
3 -x,-y,-z
4 x,1/2-y,1/2+z
_cell_length_a                   19.827(7)
_cell_length_b                   7.782(3)
_cell_length_c                   14.742(6)
_cell_angle_alpha                90
_cell_angle_beta                 107.923(7)
_cell_angle_gamma                90
_cell_volume                     2164.21
_exptl_crystal_colour            colorless
_exptl_crystal_description       Prism
_cell_formula_units_Z            4
loop_
_atom_site_label
_atom_site_type_symbol
_atom_site_fract_x
_atom_site_fract_y
_atom_site_fract_z
S1 S 0.33336(4) 0.76856(11) 0.11212(5)
O1 O 0.31154(13) 0.9447(3) 0.10307(17)
O2 O 0.35858(14) 0.6921(4) 0.04114(16)
O3 O 0.19413(18) 0.4690(4) -0.05336(15)
N1 N 0.26487(12) 0.6600(3) 0.11506(17)
H1 H 0.2412(16) 0.706(4) 0.149(2)
N2 N 0.19928(15) 0.6725(4) 0.36740(17)
H2 H 0.211(2) 0.740(4) 0.4168(19)
C1 C 0.5646(3) 0.7044(7) 0.4901(3)
H3 H 0.5882 0.8130 0.5055
H4 H 0.5980 0.6184 0.4853
H5 H 0.5445 0.6728 0.5393
C2 C 0.50664(18) 0.7183(5) 0.3967(2)
C3 C 0.44362(17) 0.8051(5) 0.3883(2)
H6 H 0.4370 0.8550 0.4423
C4 C 0.39102(15) 0.8188(4) 0.3026(2)
H7 H 0.3496 0.8783 0.2988
C5 C 0.39983(15) 0.7445(4) 0.2226(2)
C6 C 0.26366(14) 0.4732(3) 0.11437(18)
H8 H 0.3104 0.4347 0.1130
C7 C 0.24863(13) 0.3807(3) 0.20042(17)
C8 C 0.21369(13) 0.4974(3) 0.25420(16)
C9 C 0.14045(13) 0.5505(3) 0.22775(17)
C10 C 0.13426(16) 0.6588(4) 0.30150(19)
C11 C 0.0698(2) 0.7316(4) 0.3010(2)
H9 H 0.0665 0.7991 0.3515
C12 C 0.01198(19) 0.7010(5) 0.2246(3)
H10 H -0.0314 0.7490 0.2227
C13 C 0.51406(17) 0.6453(5) 0.3150(3)
H11 H 0.5558 0.5870 0.3186
C14 C 0.46201(16) 0.6556(4) 0.2288(2)
H12 H 0.4682 0.6038 0.1751
C15 C 0.20925(17) 0.4023(4) 0.02483(19)
C16 C 0.17909(16) 0.2480(3) 0.05154(19)
C17 C 0.19881(14) 0.2371(3) 0.15000(18)
C18 C 0.17154(17) 0.1073(4) 0.1917(2)
H13 H 0.1839 0.0979 0.2576
C19 C 0.1252(2) -0.0094(4) 0.1330(3)
H14 H 0.1062 -0.0970 0.1606
C20 C 0.1065(2) 0.0013(4) 0.0351(3)
H15 H 0.0754 -0.0788 -0.0024
C21 C 0.13353(18) 0.1297(4) -0.0070(2)
H16 H 0.1217 0.1375 -0.0730
C22 C 0.31806(16) 0.3051(5) 0.2672(2)
H17 H 0.3509 0.3966 0.2931
H18 H 0.3383 0.2280 0.2319
H19 H 0.3082 0.2438 0.3182
C23 C 0.24658(16) 0.5756(4) 0.33907(18)
H20 H 0.2944 0.5646 0.3728
C24 C 0.01635(16) 0.5993(4) 0.1491(2)
H21 H -0.0238 0.5829 0.0969
C25 C 0.07956(14) 0.5217(4) 0.1503(2)
H22 H 0.0815 0.4512 0.1002
loop_
_geom_bond_atom_site_label_1
_geom_bond_atom_site_label_2
_geom_bond_site_symmetry_1
_geom_bond_site_symmetry_2
S1 O1 1_555 1_555
O2 S1 1_555 1_555
O3 C15 1_555 1_555
N1 S1 1_555 1_555
H1 N1 1_555 1_555
N2 H2 1_555 1_555
C1 H3 1_555 1_555
H4 C1 1_555 1_555
H5 C1 1_555 1_555
C2 C1 1_555 1_555
C3 C2 1_555 1_555
H6 C3 1_555 1_555
C4 C3 1_555 1_555
H7 C4 1_555 1_555
C5 S1 1_555 1_555
C6 N1 1_555 1_555
H8 C6 1_555 1_555
C7 C6 1_555 1_555
C8 C7 1_555 1_555
C9 C8 1_555 1_555
C10 N2 1_555 1_555
C11 C10 1_555 1_555
H9 C11 1_555 1_555
C12 C11 1_555 1_555
H10 C12 1_555 1_555
C13 C2 1_555 1_555
H11 C13 1_555 1_555
C14 C5 1_555 1_555
H12 C14 1_555 1_555
C15 C6 1_555 1_555
C16 C15 1_555 1_555
C17 C7 1_555 1_555
C18 C17 1_555 1_555
H13 C18 1_555 1_555
C19 C18 1_555 1_555
H14 C19 1_555 1_555
C20 C19 1_555 1_555
H15 C20 1_555 1_555
C21 C16 1_555 1_555
H16 C21 1_555 1_555
C22 C7 1_555 1_555
H17 C22 1_555 1_555
H18 C22 1_555 1_555
H19 C22 1_555 1_555
C23 N2 1_555 1_555
H20 C23 1_555 1_555
C24 C12 1_555 1_555
H21 C24 1_555 1_555
C25 C9 1_555 1_555
H22 C25 1_555 1_555
C4 C5 1_555 1_555
C8 C23 1_555 1_555
C9 C10 1_555 1_555
C13 C14 1_555 1_555
C16 C17 1_555 1_555
C20 C21 1_555 1_555
C24 C25 1_555 1_555

#END
