
#######################################################################
#
#                 Cambridge Crystallographic Data Centre
#                                CCDC 
#
#######################################################################
#
# If this CIF has been generated from an entry in the Cambridge 
# Structural Database, then it will include bibliographic, chemical, 
# crystal, experimental, refinement or atomic coordinate data resulting 
# from the CCDC's data processing and validation procedures.
#
#######################################################################

data_GAXSEG
_chemical_formula_moiety         'C31 H22 B1 F2 N1 O3,0.5(C1 H2 Cl2)'
_chemical_name_systematic        
"difluoro-(3-[4'-(diphenylamino)[1,1'-biphenyl]-4-yl]-1-(furan-2-yl)-3-oxoprop-1-en-1-olate)-boron dichloromethane solvate"
_symmetry_cell_setting           triclinic
_symmetry_space_group_name_H-M   'P -1'
_symmetry_Int_Tables_number      2
_space_group_name_Hall           '-P 1'
loop_
_symmetry_equiv_pos_site_id
_symmetry_equiv_pos_as_xyz
1 x,y,z
2 -x,-y,-z
_cell_length_a                   11.5254(18)
_cell_length_b                   13.842(2)
_cell_length_c                   19.130(3)
_cell_angle_alpha                109.973(3)
_cell_angle_beta                 105.729(2)
_cell_angle_gamma                93.216(3)
_cell_volume                     2723.38
_exptl_crystal_colour            colorless
_exptl_crystal_description       block
_cell_formula_units_Z            4
loop_
_atom_site_label
_atom_site_type_symbol
_atom_site_fract_x
_atom_site_fract_y
_atom_site_fract_z
F1 F -0.2563(2) 0.26125(18) 0.57822(13)
F2 F -0.19020(19) 0.20329(16) 0.47228(13)
O1 O -0.5303(2) 0.3650(2) 0.39730(17)
O2 O -0.3259(2) 0.32191(19) 0.47758(15)
O3 O -0.1131(2) 0.37080(19) 0.56331(16)
N1 N 0.6887(3) 0.9391(3) 0.8598(2)
C1 C -0.6182(4) 0.4080(5) 0.3633(3)
H1 H -0.6986 0.3751 0.3364
C2 C -0.5750(4) 0.5049(5) 0.3733(3)
H2 H -0.6192 0.5498 0.3544
C3 C -0.4467(3) 0.5279(3) 0.4189(2)
H3 H -0.3914 0.5889 0.4358
C4 C -0.4274(3) 0.4384(3) 0.4308(2)
C5 C -0.3182(3) 0.4142(3) 0.4750(2)
C6 C -0.2106(3) 0.4877(3) 0.5138(2)
H4 H -0.2073 0.5527 0.5096
C7 C -0.1100(3) 0.4628(3) 0.5584(2)
C8 C 0.0053(3) 0.5344(3) 0.6034(2)
C9 C 0.0994(3) 0.5018(3) 0.6496(2)
H5 H 0.0886 0.4351 0.6503
C10 C 0.2080(3) 0.5690(3) 0.6942(2)
H6 H 0.2690 0.5466 0.7252
C11 C 0.2293(3) 0.6692(3) 0.6942(2)
C12 C 0.1341(3) 0.6998(3) 0.6470(2)
H7 H 0.1451 0.7658 0.6451
C13 C 0.0250(3) 0.6339(3) 0.6034(2)
H8 H -0.0367 0.6568 0.5733
C14 C 0.3474(3) 0.7392(3) 0.7392(2)
C15 C 0.4556(3) 0.7006(3) 0.7607(2)
H9 H 0.4525 0.6291 0.7475
C16 C 0.5667(3) 0.7654(3) 0.8009(3)
H10 H 0.6368 0.7371 0.8146
C17 C 0.5752(3) 0.8727(3) 0.8211(2)
C18 C 0.4687(4) 0.9133(4) 0.8009(3)
H11 H 0.4722 0.9848 0.8139
C19 C 0.3580(4) 0.8472(3) 0.7616(3)
H12 H 0.2877 0.8759 0.7496
C20 C 0.9033(4) 0.9200(4) 0.9009(3)
H13 H 0.9038 0.9472 0.9527
C21 C 1.0088(4) 0.8936(4) 0.8846(3)
H14 H 1.0807 0.9053 0.9252
C22 C 1.0082(4) 0.8494(4) 0.8074(3)
H15 H 1.0786 0.8294 0.7959
C23 C 0.9009(4) 0.8355(4) 0.7477(3)
H16 H 0.8999 0.8071 0.6958
C24 C 0.7960(4) 0.8635(4) 0.7647(3)
H17 H 0.7246 0.8533 0.7242
C25 C 0.7959(3) 0.9066(3) 0.8413(3)
C26 C 0.6977(12) 1.0293(10) 0.9295(9)
C27 C 0.7619(14) 1.1245(10) 0.9381(8)
H18 H 0.7970 1.1259 0.9000
C28 C 0.7749(14) 1.2176(10) 1.0021(9)
H19 H 0.8195 1.2797 1.0082
C29 C 0.7164(12) 1.2109(12) 1.0562(9)
H20 H 0.7186 1.2714 1.0978
C30 C 0.6559(12) 1.1184(13) 1.0503(9)
H21 H 0.6235 1.1171 1.0896
C31 C 0.6428(12) 1.0289(12) 0.9881(8)
H22 H 0.5983 0.9678 0.9837
B1 B -0.2218(4) 0.2869(3) 0.5229(3)
F3 F -0.2704(2) -0.2387(2) 0.56937(14)
F4 F -0.2026(2) -0.29700(17) 0.46504(14)
C38 C -0.5381(4) -0.1073(4) 0.3821(3)
H28 H -0.5681 -0.1764 0.3711
O4 O -0.3319(2) -0.1739(2) 0.47063(16)
O5 O -0.1201(2) -0.1319(2) 0.55777(16)
N2 N 0.6841(3) 0.4298(3) 0.8774(2)
C39 C -0.5994(4) -0.0331(5) 0.3532(3)
H29 H -0.6780 -0.0470 0.3187
C40 C -0.5257(4) 0.0565(5) 0.3838(3)
H30 H -0.5448 0.1164 0.3748
O6 O -0.4179(3) 0.0490(3) 0.4305(2)
C41 C -0.4271(3) -0.0519(3) 0.4288(2)
C42 C -0.3218(3) -0.0777(3) 0.4738(2)
C43 C -0.2150(3) -0.0069(3) 0.5177(2)
H31 H -0.2106 0.0613 0.5197
C44 C -0.1162(3) -0.0374(3) 0.5579(2)
C45 C 0.0023(3) 0.0319(3) 0.6038(2)
C46 C 0.0184(3) 0.1375(3) 0.6140(3)
H32 H -0.0466 0.1653 0.5915
C47 C 0.1290(3) 0.1998(3) 0.6567(3)
H33 H 0.1373 0.2698 0.6631
C48 C 0.2296(3) 0.1620(3) 0.6910(2)
C49 C 0.2134(3) 0.0558(3) 0.6786(2)
H34 H 0.2793 0.0273 0.6991
C50 C 0.1020(3) -0.0073(3) 0.6366(2)
H35 H 0.0934 -0.0773 0.6302
C51 C 0.3480(3) 0.2303(3) 0.7374(2)
C52 C 0.3852(3) 0.3177(3) 0.7233(2)
H36 H 0.3344 0.3327 0.6828
C53 C 0.4949(3) 0.3822(3) 0.7677(2)
H37 H 0.5181 0.4391 0.7564
C54 C 0.5717(3) 0.3624(4) 0.8299(2)
C55 C 0.5362(4) 0.2750(4) 0.8451(3)
H38 H 0.5870 0.2598 0.8855
C56 C 0.4262(4) 0.2119(4) 0.8000(3)
H39 H 0.4028 0.1550 0.8115
C57 C 0.7883(4) 0.4130(4) 0.7801(3)
H40 H 0.7638 0.3412 0.7599
C58 C 0.8595(4) 0.4583(5) 0.7481(3)
H41 H 0.8819 0.4163 0.7060
C59 C 0.8973(4) 0.5634(5) 0.7774(3)
H42 H 0.9449 0.5928 0.7553
C60 C 0.8642(5) 0.6257(4) 0.8399(3)
H43 H 0.8912 0.6973 0.8608
C61 C 0.7913(4) 0.5824(4) 0.8718(3)
H44 H 0.7673 0.6251 0.9130
C62 C 0.7538(3) 0.4754(4) 0.8426(2)
C63 C 0.7225(4) 0.4592(4) 0.9602(3)
C64 C 0.8440(4) 0.4801(4) 1.0011(3)
H45 H 0.9013 0.4720 0.9743
C65 C 0.8832(5) 0.5130(5) 1.0815(3)
H46 H 0.9665 0.5282 1.1082
C66 C 0.8019(5) 0.5235(5) 1.1224(3)
H47 H 0.8289 0.5471 1.1767
C67 C 0.6799(5) 0.4989(6) 1.0825(3)
H48 H 0.6229 0.5057 1.1095
C68 C 0.6409(5) 0.4637(5) 1.0010(3)
H49 H 0.5579 0.4428 0.9739
B2 B -0.2310(4) -0.2112(4) 0.5160(3)
Cl1 Cl 0.6211(7) 0.7415(7) 0.0058(5)
Cl2 Cl 0.8093(17) 0.8743(13) 0.1067(7)
C69 C 0.720(2) 0.8353(18) 0.0225(12)
H50 H 0.7665 0.8140 -0.0142
H51 H 0.6804 0.8921 0.0143
C32? C 0.6382(12) 1.0567(11) 0.9649(9)
H23? H 0.5824 1.0020 0.9603
C33? C 0.6572(12) 1.1530(11) 1.0252(9)
H24? H 0.6150 1.1639 1.0616
C34? C 0.7403(13) 1.2314(12) 1.0294(11)
H25? H 0.7510 1.2973 1.0676
C35? C 0.8101(13) 1.2145(10) 0.9771(9)
H26? H 0.8699 1.2674 0.9834
C36? C 0.7896(14) 1.1203(11) 0.9174(10)
H27? H 0.8332 1.1090 0.8817
C37? C 0.7035(17) 1.0426(13) 0.9110(10)
Cl3? Cl 1.0734(8) 0.8019(8) 0.2031(5)
Cl4? Cl 0.9263(9) 0.7935(7) 0.0677(5)
C70? C 0.9672(19) 0.8477(16) 0.1687(12)
H52? H 0.9899 0.9227 0.1865
H53? H 0.8985 0.8334 0.1858
loop_
_geom_bond_atom_site_label_1
_geom_bond_atom_site_label_2
_geom_bond_site_symmetry_1
_geom_bond_site_symmetry_2
F1 B1 1_555 1_555
F2 B1 1_555 1_555
O1 C1 1_555 1_555
O2 C5 1_555 1_555
O3 C7 1_555 1_555
N1 C17 1_555 1_555
C1 H1 1_555 1_555
C2 C1 1_555 1_555
H2 C2 1_555 1_555
C3 C2 1_555 1_555
H3 C3 1_555 1_555
C4 O1 1_555 1_555
C5 C4 1_555 1_555
C6 C5 1_555 1_555
H4 C6 1_555 1_555
C7 C6 1_555 1_555
C8 C7 1_555 1_555
C9 C8 1_555 1_555
H5 C9 1_555 1_555
C10 C9 1_555 1_555
H6 C10 1_555 1_555
C11 C10 1_555 1_555
C12 C11 1_555 1_555
H7 C12 1_555 1_555
C13 C8 1_555 1_555
H8 C13 1_555 1_555
C14 C11 1_555 1_555
C15 C14 1_555 1_555
H9 C15 1_555 1_555
C16 C15 1_555 1_555
H10 C16 1_555 1_555
C17 C16 1_555 1_555
C18 C17 1_555 1_555
H11 C18 1_555 1_555
C19 C14 1_555 1_555
H12 C19 1_555 1_555
C20 H13 1_555 1_555
C21 C20 1_555 1_555
H14 C21 1_555 1_555
C22 C21 1_555 1_555
H15 C22 1_555 1_555
C23 C22 1_555 1_555
H16 C23 1_555 1_555
C24 C23 1_555 1_555
H17 C24 1_555 1_555
C25 N1 1_555 1_555
C26 N1 1_555 1_555
C27 C26 1_555 1_555
H18 C27 1_555 1_555
C28 C27 1_555 1_555
H19 C28 1_555 1_555
C29 C28 1_555 1_555
H20 C29 1_555 1_555
C30 C29 1_555 1_555
H21 C30 1_555 1_555
C31 C26 1_555 1_555
H22 C31 1_555 1_555
B1 O2 1_555 1_555
F3 B2 1_555 1_555
F4 B2 1_555 1_555
C38 H28 1_555 1_555
O4 C42 1_555 1_555
O5 C44 1_555 1_555
N2 C54 1_555 1_555
C39 C38 1_555 1_555
H29 C39 1_555 1_555
C40 C39 1_555 1_555
H30 C40 1_555 1_555
O6 C40 1_555 1_555
C41 C38 1_555 1_555
C42 C41 1_555 1_555
C43 C42 1_555 1_555
H31 C43 1_555 1_555
C44 C43 1_555 1_555
C45 C44 1_555 1_555
C46 C45 1_555 1_555
H32 C46 1_555 1_555
C47 C46 1_555 1_555
H33 C47 1_555 1_555
C48 C47 1_555 1_555
C49 C48 1_555 1_555
H34 C49 1_555 1_555
C50 C45 1_555 1_555
H35 C50 1_555 1_555
C51 C48 1_555 1_555
C52 C51 1_555 1_555
H36 C52 1_555 1_555
C53 C52 1_555 1_555
H37 C53 1_555 1_555
C54 C53 1_555 1_555
C55 C54 1_555 1_555
H38 C55 1_555 1_555
C56 C51 1_555 1_555
H39 C56 1_555 1_555
C57 H40 1_555 1_555
C58 C57 1_555 1_555
H41 C58 1_555 1_555
C59 C58 1_555 1_555
H42 C59 1_555 1_555
C60 C59 1_555 1_555
H43 C60 1_555 1_555
C61 C60 1_555 1_555
H44 C61 1_555 1_555
C62 N2 1_555 1_555
C63 N2 1_555 1_555
C64 C63 1_555 1_555
H45 C64 1_555 1_555
C65 C64 1_555 1_555
H46 C65 1_555 1_555
C66 C65 1_555 1_555
H47 C66 1_555 1_555
C67 C66 1_555 1_555
H48 C67 1_555 1_555
C68 C63 1_555 1_555
H49 C68 1_555 1_555
B2 O4 1_555 1_555
Cl1 C69 1_555 1_555
Cl2 C69 1_555 1_555
C69 H50 1_555 1_555
H51 C69 1_555 1_555
O3 B1 1_555 1_555
C3 C4 1_555 1_555
C12 C13 1_555 1_555
C18 C19 1_555 1_555
C20 C25 1_555 1_555
C24 C25 1_555 1_555
C30 C31 1_555 1_555
O5 B2 1_555 1_555
O6 C41 1_555 1_555
C49 C50 1_555 1_555
C55 C56 1_555 1_555
C57 C62 1_555 1_555
C61 C62 1_555 1_555
C67 C68 1_555 1_555

#END
