
#######################################################################
#
#                 Cambridge Crystallographic Data Centre
#                                CCDC 
#
#######################################################################
#
# If this CIF has been generated from an entry in the Cambridge 
# Structural Database, then it will include bibliographic, chemical, 
# crystal, experimental, refinement or atomic coordinate data resulting 
# from the CCDC's data processing and validation procedures.
#
#######################################################################

data_GAXYUZ
_chemical_formula_moiety         'C12 H32 Li2 O10 2+,2(Cl1 1-),H2 O1'
_chemical_name_systematic        
"(\m~2~-Aqua)-(\m~2~-18-crown-6-O,O',O',O'',O''')-tri-aqua-di-lithium dichloride monohydrate"
_symmetry_cell_setting           monoclinic
_symmetry_space_group_name_H-M   'C c'
_symmetry_Int_Tables_number      9
_space_group_name_Hall           'C -2yc'
loop_
_symmetry_equiv_pos_site_id
_symmetry_equiv_pos_as_xyz
1 x,y,z
2 1/2+x,1/2+y,z
3 x,-y,1/2+z
4 1/2+x,1/2-y,1/2+z
_cell_length_a                   17.835(4)
_cell_length_b                   9.634(2)
_cell_length_c                   16.025(4)
_cell_angle_alpha                90
_cell_angle_beta                 127.25(2)
_cell_angle_gamma                90
_cell_volume                     2191.75
_exptl_crystal_colour            colorless
_cell_formula_units_Z            4
_chemical_properties_physical    Moisture-sensitive
loop_
_atom_site_label
_atom_site_type_symbol
_atom_site_fract_x
_atom_site_fract_y
_atom_site_fract_z
Cl1 Cl 1.0000 0.7820(1) 0.5000
Cl2 Cl 1.0243(1) 0.3386(1) 0.6754(1)
Li1 Li 0.7760(6) 0.6431(8) 0.5363(7)
Li2 Li 0.6752(5) 0.9409(8) 0.5227(6)
O1 O 0.7515(2) 0.8763(3) 0.4496(2)
O2 O 0.6935(2) 0.6117(4) 0.3782(3)
O3 O 0.7293(3) 0.4444(3) 0.5316(3)
O4 O 0.8462(3) 0.5195(4) 0.7449(4)
O5 O 0.8454(3) 0.8077(4) 0.7864(3)
O6 O 0.8097(2) 1.00793 0.6272(3)
O7 O 0.7025(2) 0.7436(3) 0.5745(3)
O8 O 0.9052(2) 0.6312(4) 0.5941(3)
O9 O 0.6226(3) 1.0083(4) 0.5946(3)
O10 O 0.5822(3) 1.0531(5) 0.3956(3)
C1 C 0.7067(4) 0.8439(6) 0.3423(4)
C2 C 0.6391(4) 0.7264(6) 0.3106(4)
C3 C 0.6422(5) 0.4880(7) 0.3532(5)
C4 C 0.7013(5) 0.3845(6) 0.4359(5)
C5 C 0.7771(5) 0.3461(6) 0.6157(6)
C6 C 0.7877(5) 0.4014(7) 0.7078(6)
C7 C 0.8520(7) 0.5733(9) 0.8312(6)
C8 C 0.8981(8) 0.6958(9) 0.8646(6)
C9 C 0.9083(4) 0.9133(5) 0.8079(5)
C10 C 0.8562(4) 1.0336(5) 0.7367(4)
C11 C 0.8728(4) 0.9968(5) 0.6001(4)
C12 C 0.8154(4) 0.9893(5) 0.4845(4)
O11 O 0.5791(3) 0.5950(4) 0.5848(3)
loop_
_geom_bond_atom_site_label_1
_geom_bond_atom_site_label_2
_geom_bond_site_symmetry_1
_geom_bond_site_symmetry_2
Li1 O1 1_555 1_555
Li2 O1 1_555 1_555
O1 C1 1_555 1_555
O2 Li1 1_555 1_555
O3 Li1 1_555 1_555
O4 C6 1_555 1_555
O5 C8 1_555 1_555
O6 Li2 1_555 1_555
O7 Li1 1_555 1_555
O8 Li1 1_555 1_555
O9 Li2 1_555 1_555
O10 Li2 1_555 1_555
C1 C2 1_555 1_555
C2 O2 1_555 1_555
C3 O2 1_555 1_555
C4 O3 1_555 1_555
C5 O3 1_555 1_555
C6 C5 1_555 1_555
C7 O4 1_555 1_555
C8 C7 1_555 1_555
C9 O5 1_555 1_555
C10 O6 1_555 1_555
C11 O6 1_555 1_555
C12 O1 1_555 1_555
Li2 O7 1_555 1_555
C3 C4 1_555 1_555
C9 C10 1_555 1_555
C11 C12 1_555 1_555

#END
