
#######################################################################
#
#                 Cambridge Crystallographic Data Centre
#                                CCDC 
#
#######################################################################
#
# If this CIF has been generated from an entry in the Cambridge 
# Structural Database, then it will include bibliographic, chemical, 
# crystal, experimental, refinement or atomic coordinate data resulting 
# from the CCDC's data processing and validation procedures.
#
#######################################################################

data_GAYDAL
_chemical_formula_moiety         'C17 H28 N1 O1 1+,Br1 1-'
_chemical_name_systematic        
'(+)-(2S,3S)-8-Hydroxy-3-methyl-2-(di-n-propylamino)tetralin hydrobromide'
_chemical_properties_biological  '5-HT receptor agonistic activity'
_symmetry_cell_setting           monoclinic
_symmetry_space_group_name_H-M   'P 21'
_symmetry_Int_Tables_number      4
_space_group_name_Hall           'P 2yb'
loop_
_symmetry_equiv_pos_site_id
_symmetry_equiv_pos_as_xyz
1 x,y,z
2 -x,1/2+y,-z
_cell_length_a                   7.741(1)
_cell_length_b                   18.358(3)
_cell_length_c                   12.243(1)
_cell_angle_alpha                90
_cell_angle_beta                 98.47(1)
_cell_angle_gamma                90
_cell_volume                     1720.87
_chemical_melting_point          188-190deg.C
_cell_formula_units_Z            4
loop_
_atom_site_label
_atom_site_type_symbol
_atom_site_fract_x
_atom_site_fract_y
_atom_site_fract_z
Br1 Br -0.2038(1) -0.5003 0.7677(1)
Br2 Br -0.1770(1) -0.2683(1) 0.2954(1)
C1 C 0.3733(7) -0.4549(3) 0.5245(4)
C2 C 0.1961(6) -0.4850(2) 0.5428(4)
C3 C 0.1658(7) -0.5636(3) 0.5076(4)
C4 C 0.1801(7) -0.5689(3) 0.3857(5)
C5 C 0.3348(6) -0.5294(2) 0.3491(4)
C6 C 0.3845(7) -0.5466(3) 0.2485(4)
C7 C 0.5202(7) -0.5083(3) 0.2115(4)
C8 C 0.6021(7) -0.4522(3) 0.2745(4)
C9 C 0.5531(6) -0.4359(3) 0.3747(4)
C10 C 0.4192(6) -0.4749(2) 0.4146(4)
C11 C 0.2920(7) -0.5069(6) 0.7491(5)
C12 C 0.2639 -0.5293 0.8473
C13 C 0.3892(8) -0.5822(3) 0.9083(4)
C14 C 0.1460(7) -0.3901(3) 0.6847(4)
C15 C 0.0114(7) -0.3521(3) 0.6027(4)
C16 C -0.0234(8) -0.2757(3) 0.6372(5)
C17 C -0.0111(8) -0.5924(3) 0.5272(5)
N1 N 0.1642(5) -0.4704(2) 0.6603(3)
O1 O 0.6280(5) -0.3812(2) 0.4406(3)
H1 H 0.0524 -0.4957 0.6730
H2 H 0.6596 -0.3491 0.4019
H3 H 0.4663 -0.4769 0.5838
H4 H 0.3774 -0.4008 0.5344
H5 H 0.1023 -0.4544 0.4956
H6 H 0.2611 -0.5951 0.5496
H7 H 0.1861 -0.6222 0.3639
H8 H 0.0686 -0.5483 0.3424
H9 H 0.3259 -0.5876 0.2004
H10 H 0.5538 -0.5196 0.1368
H11 H 0.7019 -0.4254 0.2483
H12 H 0.3458 -0.5482 0.7084
H13 H 0.3859 -0.4704 0.7717
H14 H 0.2631 -0.4851 0.8949
H15 H 0.1459 -0.5527 0.8376
H16 H 0.4164 -0.6247 0.8610
H17 H 0.4970 -0.5529 0.9289
H18 H 0.3666 -0.6058 0.9790
H19 H 0.1116 -0.3830 0.7599
H20 H 0.2605 -0.3648 0.6822
H21 H 0.0537 -0.3513 0.5292
H22 H -0.0997 -0.3824 0.5950
H23 H -0.0714 -0.2768 0.7112
H24 H 0.0820 -0.2456 0.6455
H25 H -0.1185 -0.2509 0.5830
H26 H -0.1086 -0.5637 0.4854
H27 H -0.0272 -0.6457 0.5031
H28 H -0.0205 -0.5904 0.6084
C18 C 0.3729(6) -0.3189(3) 0.0333(4)
C19 C 0.2476(5) -0.2664(2) 0.0773(3)
C20 C 0.1062(6) -0.2380(2) -0.0151(3)
C21 C 0.2050(7) -0.1916(2) -0.0886(4)
C22 C 0.3496(6) -0.2320(2) -0.1317(4)
C23 C 0.4044(7) -0.2119(3) -0.2307(4)
C24 C 0.5295(7) -0.2514(3) -0.2727(4)
C25 C 0.5992(6) -0.3122(3) -0.2201(4)
C26 C 0.5471(6) -0.3340(3) -0.1217(4)
C27 C 0.4244(5) -0.2933(2) -0.0757(3)
C28 C 0.1330(6) -0.3788(2) 0.1726(3)
C29 C -0.0036(7) -0.4022(3) 0.0802(4)
C30 C -0.0425(8) -0.4825(3) 0.0895(4)
C31 C 0.2999(5) -0.2825(2) 0.2821(3)
C32 C 0.3071(6) -0.2011(2) 0.3096(4)
C33 C 0.3971(8) -0.1921(4) 0.4284(5)
C34 C -0.0340(8) -0.1925(3) 0.0274(5)
N2 N 0.1763(5) -0.2979(2) 0.1777(3)
O2 O 0.6087(4) -0.3959(2) -0.0670(3)
H29 H 0.0594 -0.2742 0.1820
H30 H 0.6986 -0.4175 -0.1034
H31 H 0.3158 -0.3679 0.0222
H32 H 0.4810 -0.3237 0.0896
H33 H 0.3143 -0.2233 0.1124
H34 H 0.0467 -0.2801 -0.0563
H35 H 0.1189 -0.1747 -0.1534
H36 H 0.2546 -0.1482 -0.0458
H37 H 0.3489 -0.1680 -0.2705
H38 H 0.5728 -0.2339 -0.3446
H39 H 0.6825 -0.3449 -0.2560
H40 H 0.2443 -0.4053 0.1645
H41 H 0.0962 -0.3923 0.2447
H42 H -0.1154 -0.3726 0.0856
H43 H -0.0335 -0.3900 0.0076
H44 H 0.0691 -0.5118 0.0854
H45 H -0.0798 -0.4944 0.1634
H46 H -0.1336 -0.4986 0.0292
H47 H 0.2604 -0.3103 0.3446
H48 H 0.4202 -0.2999 0.2725
H49 H 0.3735 -0.1741 0.2577
H50 H 0.1851 -0.1806 0.3019
H51 H 0.3333 -0.2201 0.4834
H52 H 0.5217 -0.2137 0.4393
H53 H 0.4043 -0.1402 0.4495
H54 H 0.0159 -0.1494 0.0701
H55 H -0.1220 -0.1746 -0.0372
H56 H -0.1019 -0.2226 0.0762
loop_
_geom_bond_atom_site_label_1
_geom_bond_atom_site_label_2
_geom_bond_site_symmetry_1
_geom_bond_site_symmetry_2
C1 C2 1_555 1_555
C2 C3 1_555 1_555
C3 C4 1_555 1_555
C4 C5 1_555 1_555
C5 C6 1_555 1_555
C6 C7 1_555 1_555
C7 C8 1_555 1_555
C8 C9 1_555 1_555
C9 C10 1_555 1_555
C10 C1 1_555 1_555
C11 C12 1_555 1_555
C12 C13 1_555 1_555
C13 H16 1_555 1_555
C14 C15 1_555 1_555
C15 C16 1_555 1_555
C16 H23 1_555 1_555
C17 C3 1_555 1_555
N1 C2 1_555 1_555
O1 C9 1_555 1_555
C18 C19 1_555 1_555
C19 C20 1_555 1_555
C20 C21 1_555 1_555
C21 C22 1_555 1_555
C22 C23 1_555 1_555
C23 C24 1_555 1_555
C24 C25 1_555 1_555
C25 C26 1_555 1_555
C26 C27 1_555 1_555
C27 C18 1_555 1_555
C28 C29 1_555 1_555
C29 C30 1_555 1_555
C30 H44 1_555 1_555
C31 C32 1_555 1_555
C32 C33 1_555 1_555
C33 H51 1_555 1_555
C34 C20 1_555 1_555
N2 C19 1_555 1_555
O2 C26 1_555 1_555
H1 N1 1_555 1_555
H2 O1 1_555 1_555
H3 C1 1_555 1_555
H4 C1 1_555 1_555
H5 C2 1_555 1_555
H6 C3 1_555 1_555
H7 C4 1_555 1_555
H8 C4 1_555 1_555
H9 C6 1_555 1_555
H10 C7 1_555 1_555
H11 C8 1_555 1_555
H12 C11 1_555 1_555
H13 C11 1_555 1_555
H14 C12 1_555 1_555
H15 C12 1_555 1_555
H17 C13 1_555 1_555
H18 C13 1_555 1_555
H19 C14 1_555 1_555
H20 C14 1_555 1_555
H21 C15 1_555 1_555
H22 C15 1_555 1_555
H24 C16 1_555 1_555
H25 C16 1_555 1_555
H26 C17 1_555 1_555
H27 C17 1_555 1_555
H28 C17 1_555 1_555
H29 N2 1_555 1_555
H30 O2 1_555 1_555
H31 C18 1_555 1_555
H32 C18 1_555 1_555
H33 C19 1_555 1_555
H34 C20 1_555 1_555
H35 C21 1_555 1_555
H36 C21 1_555 1_555
H37 C23 1_555 1_555
H38 C24 1_555 1_555
H39 C25 1_555 1_555
H40 C28 1_555 1_555
H41 C28 1_555 1_555
H42 C29 1_555 1_555
H43 C29 1_555 1_555
H45 C30 1_555 1_555
H46 C30 1_555 1_555
H47 C31 1_555 1_555
H48 C31 1_555 1_555
H49 C32 1_555 1_555
H50 C32 1_555 1_555
H52 C33 1_555 1_555
H53 C33 1_555 1_555
H54 C34 1_555 1_555
H55 C34 1_555 1_555
H56 C34 1_555 1_555
C5 C10 1_555 1_555
C11 N1 1_555 1_555
C14 N1 1_555 1_555
C22 C27 1_555 1_555
C28 N2 1_555 1_555
C31 N2 1_555 1_555

#END
