
#######################################################################
#
#                 Cambridge Crystallographic Data Centre
#                                CCDC 
#
#######################################################################
#
# If this CIF has been generated from an entry in the Cambridge 
# Structural Database, then it will include bibliographic, chemical, 
# crystal, experimental, refinement or atomic coordinate data resulting 
# from the CCDC's data processing and validation procedures.
#
#######################################################################

data_GAYMOL03
_chemical_formula_moiety         'C3 H1 N5 O3'
_chemical_name_systematic        
4-diazonio-5-nitro-3-oxo-2,3-dihydropyrazol-1-ide
_symmetry_cell_setting           monoclinic
_symmetry_space_group_name_H-M   'P 21/n'
_symmetry_Int_Tables_number      14
_space_group_name_Hall           '-P 2yn'
loop_
_symmetry_equiv_pos_site_id
_symmetry_equiv_pos_as_xyz
1 x,y,z
2 1/2-x,1/2+y,1/2-z
3 -x,-y,-z
4 1/2+x,1/2-y,1/2+z
_cell_length_a                   5.5007(2)
_cell_length_b                   9.0691(4)
_cell_length_c                   11.4158(4)
_cell_angle_alpha                90
_cell_angle_beta                 92.710(3)
_cell_angle_gamma                90
_cell_volume                     568.856
_cell_formula_units_Z            4
loop_
_atom_site_label
_atom_site_type_symbol
_atom_site_fract_x
_atom_site_fract_y
_atom_site_fract_z
O1 O 0.12488(15) 0.69084(9) 0.66813(7)
O2 O 1.00933(14) 1.03520(9) 0.65193(7)
O3 O 0.23145(15) 0.80559(9) 0.83111(7)
N1 N 0.69733(16) 0.94744(10) 0.84887(8)
N2 N 0.51163(17) 0.81301(10) 0.56607(8)
C1 C 0.8239(2) 0.95840(12) 0.64590(9)
N3 N 0.73988(18) 0.97982(12) 0.94176(9)
N4 N 0.26233(17) 0.76898(11) 0.72878(8)
N5 N 0.72037(16) 0.88997(11) 0.54785(8)
H1 H 0.7825 0.8953 0.4802
C2 C 0.47728(19) 0.82759(12) 0.67755(10)
C3 C 0.6604(2) 0.91445(12) 0.73555(9)
loop_
_geom_bond_atom_site_label_1
_geom_bond_atom_site_label_2
_geom_bond_site_symmetry_1
_geom_bond_site_symmetry_2
O1 N4 1_555 1_555
O2 C1 1_555 1_555
O3 N4 1_555 1_555
N1 N3 1_555 1_555
N2 N5 1_555 1_555
C1 N5 1_555 1_555
N4 C2 1_555 1_555
N5 H1 1_555 1_555
C2 N2 1_555 1_555
C3 N1 1_555 1_555
C1 C3 1_555 1_555
C2 C3 1_555 1_555

#END
