
#######################################################################
#
#                 Cambridge Crystallographic Data Centre
#                                CCDC 
#
#######################################################################
#
# If this CIF has been generated from an entry in the Cambridge 
# Structural Database, then it will include bibliographic, chemical, 
# crystal, experimental, refinement or atomic coordinate data resulting 
# from the CCDC's data processing and validation procedures.
#
#######################################################################

data_GAYPUT
_chemical_formula_moiety         'C14 H23 N1 O2 S1 Si1'
_chemical_name_systematic        
2-(4-Methylphenyl)-1-((2-(trimethylsilyl)ethyl)sulfonyl)aziridine
_symmetry_cell_setting           monoclinic
_symmetry_space_group_name_H-M   'P 21'
_symmetry_Int_Tables_number      4
_space_group_name_Hall           'P 2yb'
loop_
_symmetry_equiv_pos_site_id
_symmetry_equiv_pos_as_xyz
1 x,y,z
2 -x,1/2+y,-z
_cell_length_a                   10.8858(17)
_cell_length_b                   5.9432(9)
_cell_length_c                   12.636(2)
_cell_angle_alpha                90
_cell_angle_beta                 98.350(2)
_cell_angle_gamma                90
_cell_volume                     808.839
_exptl_crystal_colour            colorless
_exptl_crystal_description       block
_cell_formula_units_Z            2
_exptl_crystal_recrystallization_method 'diethyl ether'
loop_
_atom_site_label
_atom_site_type_symbol
_atom_site_fract_x
_atom_site_fract_y
_atom_site_fract_z
S1 S 0.43432(3) 0.41443(7) 0.31729(3)
Si1 Si 0.27134(4) 0.60863(7) -0.01538(3)
O1 O 0.39287(11) 0.4886(2) 0.41474(9)
O2 O 0.42717(11) 0.1782(2) 0.29342(10)
N1 N 0.57866(12) 0.4933(2) 0.30943(9)
C1 C 1.12535(17) 0.0240(4) 0.31445(15)
H1 H 1.1964 0.0837 0.3596
H2 H 1.1334 0.0515 0.2409
H3 H 1.1201 -0.1351 0.3262
C2 C 0.26738(17) 0.9201(3) -0.01019(13)
H4 H 0.3489 0.9786 -0.0137
H5 H 0.2406 0.9672 0.0555
H6 H 0.2105 0.9759 -0.0696
C3 C 0.11270(15) 0.5001(3) -0.00483(15)
H7 H 0.0836 0.5661 0.0563
H8 H 0.1157 0.3395 0.0031
H9 H 0.0572 0.5389 -0.0684
C4 C 0.63036(16) 0.6779(3) 0.38179(12)
H10 H 0.6895 0.7792 0.3563
H11 H 0.5757 0.7479 0.4263
C5 C 0.96902(15) 0.3409(3) 0.29302(13)
H12 H 1.0156 0.4086 0.2456
C6 C 0.32362(16) 0.5076(3) -0.14110(12)
H13 H 0.2620 0.5441 -0.2009
H14 H 0.3352 0.3475 -0.1375
H15 H 0.4006 0.5791 -0.1497
C7 C 1.00895(15) 0.1373(3) 0.34067(12)
C8 C 0.86119(14) 0.4451(3) 0.31471(12)
H16 H 0.8360 0.5807 0.2818
C9 C 0.93945(14) 0.0420(3) 0.41281(12)
H17 H 0.9652 -0.0928 0.4463
C10 C 0.38305(14) 0.5018(3) 0.10111(11)
H18 H 0.3855 0.3389 0.0975
H19 H 0.4654 0.5572 0.0945
C11 C 0.35150(14) 0.5701(3) 0.21040(12)
H20 H 0.2632 0.5492 0.2108
H21 H 0.3697 0.7287 0.2218
C12 C 0.67095(13) 0.4437(3) 0.40746(11)
H22 H 0.6358 0.3747 0.4668
C13 C 0.83163(14) 0.1457(3) 0.43565(11)
H23 H 0.7866 0.0801 0.4847
C14 C 0.79064(14) 0.3455(3) 0.38614(11)
loop_
_geom_bond_atom_site_label_1
_geom_bond_atom_site_label_2
_geom_bond_site_symmetry_1
_geom_bond_site_symmetry_2
S1 O1 1_555 1_555
Si1 C2 1_555 1_555
O2 S1 1_555 1_555
N1 S1 1_555 1_555
C1 H1 1_555 1_555
H2 C1 1_555 1_555
H3 C1 1_555 1_555
C2 H4 1_555 1_555
H5 C2 1_555 1_555
H6 C2 1_555 1_555
C3 Si1 1_555 1_555
H7 C3 1_555 1_555
H8 C3 1_555 1_555
H9 C3 1_555 1_555
C4 N1 1_555 1_555
H10 C4 1_555 1_555
H11 C4 1_555 1_555
C5 H12 1_555 1_555
C6 Si1 1_555 1_555
H13 C6 1_555 1_555
H14 C6 1_555 1_555
H15 C6 1_555 1_555
C7 C1 1_555 1_555
C8 C5 1_555 1_555
H16 C8 1_555 1_555
C9 C7 1_555 1_555
H17 C9 1_555 1_555
C10 Si1 1_555 1_555
H18 C10 1_555 1_555
H19 C10 1_555 1_555
C11 S1 1_555 1_555
H20 C11 1_555 1_555
H21 C11 1_555 1_555
C12 N1 1_555 1_555
H22 C12 1_555 1_555
C13 C9 1_555 1_555
H23 C13 1_555 1_555
C14 C8 1_555 1_555
C4 C12 1_555 1_555
C5 C7 1_555 1_555
C10 C11 1_555 1_555
C12 C14 1_555 1_555
C13 C14 1_555 1_555

#END
