
#######################################################################
#
#                 Cambridge Crystallographic Data Centre
#                                CCDC 
#
#######################################################################
#
# If this CIF has been generated from an entry in the Cambridge 
# Structural Database, then it will include bibliographic, chemical, 
# crystal, experimental, refinement or atomic coordinate data resulting 
# from the CCDC's data processing and validation procedures.
#
#######################################################################

data_GAYPII
_chemical_formula_moiety         'C8 H9 N2 S1 1+,I1 1-'
_chemical_name_systematic        '3-methyl-1-(2-thienyl)imidazolium iodide'
_symmetry_cell_setting           orthorhombic
_symmetry_space_group_name_H-M   'P n a 21'
_symmetry_Int_Tables_number      33
_space_group_name_Hall           'P 2c -2n'
loop_
_symmetry_equiv_pos_site_id
_symmetry_equiv_pos_as_xyz
1 x,y,z
2 -x,-y,1/2+z
3 1/2+x,1/2-y,z
4 1/2-x,1/2+y,1/2+z
_cell_length_a                   18.903(10)
_cell_length_b                   6.311(3)
_cell_length_c                   17.950(9)
_cell_angle_alpha                90
_cell_angle_beta                 90
_cell_angle_gamma                90
_cell_volume                     2141.38
_exptl_crystal_colour            colorless
_exptl_crystal_description       prism
_cell_formula_units_Z            8
loop_
_atom_site_label
_atom_site_type_symbol
_atom_site_fract_x
_atom_site_fract_y
_atom_site_fract_z
I1 I 0.29076(3) 0.28467(9) 0.15251(2)
I2 I 0.04292(3) 0.23947(8) 0.34313(3)
N1 N 0.2279(4) 0.0204(11) 0.3893(4)
N2 N 0.1800(4) -0.1867(13) 0.3088(5)
C1 C 0.2148(4) -0.0052(16) 0.3173(5)
H1 H 0.240(4) 0.067(14) 0.277(4)
C2 C 0.1997(5) -0.1460(16) 0.4287(5)
H2 H 0.2015 -0.1666 0.4806
C3 C 0.1685(8) -0.2751(16) 0.3775(8)
H3 H 0.1437 -0.4012 0.3874
C4 C 0.2654(5) 0.1940(14) 0.4189(5)
C5 C 0.3222(15) 0.298(5) 0.3928(12)
H4 H 0.3429 0.2597 0.3471
C6 C 0.3493(5) 0.4610(16) 0.4349(6)
H5 H 0.3882 0.5466 0.4221
C7 C 0.3106(5) 0.4767(19) 0.4972(5)
H6 H 0.3207 0.5755 0.5350
S1 S 0.24417(15) 0.3088(5) 0.50239(17)
C8 C 0.1533(7) -0.2704(18) 0.2382(8)
H7 H 0.1439 -0.1541 0.2043
H8 H 0.1100 -0.3487 0.2471
H9 H 0.1884 -0.3640 0.2165
N3 N 0.5249(3) 0.5092(11) 0.6052(4)
N4 N 0.5715(5) 0.2927(12) 0.6849(5)
C10 C 0.5372(5) 0.4751(15) 0.6782(5)
H12 H 0.517(4) 0.583(13) 0.722(4)
C11 C 0.5564(5) 0.3460(16) 0.5650(6)
H13 H 0.5573 0.3314 0.5128
C12 C 0.5850(6) 0.2137(15) 0.6148(7)
H14 H 0.6100 0.0888 0.6039
C13 C 0.4868(5) 0.6841(14) 0.5761(5)
C14 C 0.4269(5) 0.7873(13) 0.6151(6)
H15 H 0.4075 0.7521 0.6617
C15 C 0.4050(5) 0.9548(16) 0.5650(6)
H16 H 0.3668 1.0447 0.5763
C16 C 0.4423(5) 0.9751(17) 0.5013(6)
H17 H 0.4321 1.0773 0.4647
S3 S 0.50889(15) 0.7990(4) 0.49361(16)
C17 C 0.5975(8) 0.2063(18) 0.7550(7)
H18 H 0.6485 0.2227 0.7574
H19 H 0.5855 0.0571 0.7581
H20 H 0.5759 0.2816 0.7963
C9? C 0.24417(15) 0.3088(5) 0.50239(17)
H10? H 0.2083 0.2851 0.5377
H11? H 0.3882 0.5518 0.4280
S2? S 0.3306(12) 0.292(4) 0.3723(10)
loop_
_geom_bond_atom_site_label_1
_geom_bond_atom_site_label_2
_geom_bond_site_symmetry_1
_geom_bond_site_symmetry_2
N1 C1 1_555 1_555
N2 C1 1_555 1_555
C1 H1 1_555 1_555
C2 N1 1_555 1_555
H2 C2 1_555 1_555
C3 N2 1_555 1_555
H3 C3 1_555 1_555
C4 N1 1_555 1_555
C5 C4 1_555 1_555
H4 C5 1_555 1_555
C6 C5 1_555 1_555
H5 C6 1_555 1_555
C7 C6 1_555 1_555
H6 C7 1_555 1_555
S1 C4 1_555 1_555
C8 N2 1_555 1_555
H7 C8 1_555 1_555
H8 C8 1_555 1_555
H9 C8 1_555 1_555
N3 C10 1_555 1_555
N4 C10 1_555 1_555
C10 H12 1_555 1_555
C11 N3 1_555 1_555
H13 C11 1_555 1_555
C12 N4 1_555 1_555
H14 C12 1_555 1_555
C13 N3 1_555 1_555
C14 C13 1_555 1_555
H15 C14 1_555 1_555
C15 C14 1_555 1_555
H16 C15 1_555 1_555
C16 C15 1_555 1_555
H17 C16 1_555 1_555
S3 C13 1_555 1_555
C17 N4 1_555 1_555
H18 C17 1_555 1_555
H19 C17 1_555 1_555
H20 C17 1_555 1_555
C2 C3 1_555 1_555
C7 S1 1_555 1_555
C11 C12 1_555 1_555
C16 S3 1_555 1_555

#END
