
#######################################################################
#
#                 Cambridge Crystallographic Data Centre
#                                CCDC 
#
#######################################################################
#
# If this CIF has been generated from an entry in the Cambridge 
# Structural Database, then it will include bibliographic, chemical, 
# crystal, experimental, refinement or atomic coordinate data resulting 
# from the CCDC's data processing and validation procedures.
#
#######################################################################

data_GAYQEC
_chemical_formula_moiety         'C17 H12 Cl4 O5'
_chemical_name_systematic        
'(1\a,2\a,3\b,6\b,7\a,8\a)-3,4,5,6-tetrachloro-13,13-dimethoxytetracyclo(6.2.2.1^3,6^.0^2,7^)trideca-4,9,11-triene-9,10-dicarboxylic anhydride'
_symmetry_cell_setting           triclinic
_symmetry_space_group_name_H-M   'P -1'
_symmetry_Int_Tables_number      2
_space_group_name_Hall           '-P 1'
loop_
_symmetry_equiv_pos_site_id
_symmetry_equiv_pos_as_xyz
1 x,y,z
2 -x,-y,-z
_cell_length_a                   8.293(2)
_cell_length_b                   10.018(2)
_cell_length_c                   11.137(2)
_cell_angle_alpha                79.940(10)
_cell_angle_beta                 86.570(10)
_cell_angle_gamma                73.360(10)
_cell_volume                     872.83
_exptl_crystal_colour            colorless
_chemical_melting_point          '178-183 deg.C'
_cell_formula_units_Z            2
_exptl_crystal_recrystallization_method benzene/hexane
loop_
_atom_site_label
_atom_site_type_symbol
_atom_site_fract_x
_atom_site_fract_y
_atom_site_fract_z
Cl1 Cl 0.5026(1) 0.5547(1) 0.1508(1)
Cl2 Cl 0.3777(1) 0.4085(1) 0.4113(1)
Cl3 Cl 0.7139(1) 0.1969(1) 0.5736(1)
Cl4 Cl 1.0599(1) 0.2061(1) 0.4183(1)
O1 O 0.5934(3) 0.0775(2) -0.1129(2)
O2 O 1.0458(3) -0.1956(2) 0.0951(2)
O3 O 0.8283(2) -0.0828(2) -0.0306(2)
O4 O 0.8279(2) 0.5104(1) 0.3424(1)
O5 O 0.9045(2) 0.4369(2) 0.1560(1)
C1 C 0.6968(2) 0.2766(2) 0.1686(2)
C2 C 0.6413(2) 0.4053(2) 0.2365(2)
C3 C 0.5813(2) 0.3645(2) 0.3645(2)
C4 C 0.7130(2) 0.2819(2) 0.4276(2)
C5 C 0.8645(2) 0.2649(2) 0.3425(2)
C6 C 0.8525(2) 0.1789(2) 0.2425(2)
C7 C 0.8331(3) 0.0260(2) 0.2791(2)
C8 C 0.6631(3) 0.0332(2) 0.3420(2)
C9 C 0.5313(3) 0.1151(2) 0.2793(2)
C10 C 0.5703(3) 0.1898(2) 0.1543(2)
C11 C 0.6808(3) 0.0741(2) 0.0925(2)
C12 C 0.8134(3) -0.0089(2) 0.1555(2)
C13 C 0.8194(2) 0.4181(2) 0.2661(2)
C14 C 0.6846(3) 0.0325(3) -0.0280(2)
C15 C 0.9144(3) -0.1086(2) 0.0789(2)
C16 C 1.0772(3) 0.4376(4) 0.1613(3)
C17 C 0.7721(5) 0.6589(3) 0.2936(3)
H1 H 0.7305(23) 0.3128(19) 0.0918(18)
H2 H 0.9500(27) 0.1744(21) 0.1932(19)
H3 H 0.4743(28) 0.2441(22) 0.1057(19)
H4 H 0.6554(28) -0.0154(24) 0.4189(22)
H5 H 0.9294(29) -0.0346(23) 0.3208(20)
H6 H 0.7829(36) 0.6806(29) 0.2045(29)
H7 H 0.4185(32) 0.1339(26) 0.3067(22)
H8 H 1.0899(41) 0.4918(36) 0.2151(32)
H9 H 1.0996(41) 0.4885(35) 0.0799(32)
H10 H 0.8471(43) 0.6973(35) 0.3288(30)
H11 H 1.1418(41) 0.3459(37) 0.1793(29)
H12 H 0.6473(51) 0.6990(41) 0.3146(36)
loop_
_geom_bond_atom_site_label_1
_geom_bond_atom_site_label_2
_geom_bond_site_symmetry_1
_geom_bond_site_symmetry_2
Cl1 C2 1_555 1_555
Cl2 C3 1_555 1_555
Cl3 C4 1_555 1_555
Cl4 C5 1_555 1_555
O1 C14 1_555 1_555
O2 C15 1_555 1_555
O3 C14 1_555 1_555
O4 C13 1_555 1_555
O5 C13 1_555 1_555
C1 C2 1_555 1_555
C2 C3 1_555 1_555
C3 C4 1_555 1_555
C4 C5 1_555 1_555
C5 C6 1_555 1_555
C6 C1 1_555 1_555
C7 C6 1_555 1_555
C8 C7 1_555 1_555
C9 C8 1_555 1_555
C10 C1 1_555 1_555
C11 C10 1_555 1_555
C12 C7 1_555 1_555
C13 C2 1_555 1_555
C14 C11 1_555 1_555
C15 O3 1_555 1_555
C16 O5 1_555 1_555
C17 O4 1_555 1_555
H1 C1 1_555 1_555
H2 C6 1_555 1_555
H3 C10 1_555 1_555
H4 C8 1_555 1_555
H5 C7 1_555 1_555
H6 C17 1_555 1_555
H7 C9 1_555 1_555
H8 C16 1_555 1_555
H9 C16 1_555 1_555
H10 C17 1_555 1_555
H11 C16 1_555 1_555
H12 C17 1_555 1_555
C5 C13 1_555 1_555
C9 C10 1_555 1_555
C11 C12 1_555 1_555
C12 C15 1_555 1_555

#END
