
#######################################################################
#
#                 Cambridge Crystallographic Data Centre
#                                CCDC 
#
#######################################################################
#
# If this CIF has been generated from an entry in the Cambridge 
# Structural Database, then it will include bibliographic, chemical, 
# crystal, experimental, refinement or atomic coordinate data resulting 
# from the CCDC's data processing and validation procedures.
#
#######################################################################

data_GAYQOM
_chemical_formula_moiety         'C23 H20 Cl4 O5'
_chemical_name_systematic        
'syn-exo-(1\a,2\b,3\b,6\b,7\b,8\a,9\a,10\b,13\b,14\a)-10,11,12,13-Tetrachloro-19,19-dimethoxyhexacyclo(6.6.2.2^3,6^.1^10,13^.0^2,7^.0^9,14^)nonadeca-4,11,15-triene-2,7-dicarboxylic anhydride'
_symmetry_cell_setting           monoclinic
_symmetry_space_group_name_H-M   'P 21/n'
_symmetry_Int_Tables_number      14
_space_group_name_Hall           '-P 2yn'
loop_
_symmetry_equiv_pos_site_id
_symmetry_equiv_pos_as_xyz
1 x,y,z
2 1/2-x,1/2+y,1/2-z
3 -x,-y,-z
4 1/2+x,1/2-y,1/2+z
_cell_length_a                   14.822(4)
_cell_length_b                   11.593(2)
_cell_length_c                   14.960(3)
_cell_angle_alpha                90
_cell_angle_beta                 119.60(3)
_cell_angle_gamma                90
_cell_volume                     2235.12
_exptl_crystal_colour            colorless
_chemical_melting_point          '230 deg.C(dec.)'
_cell_formula_units_Z            4
loop_
_atom_site_label
_atom_site_type_symbol
_atom_site_fract_x
_atom_site_fract_y
_atom_site_fract_z
Cl1 Cl 0.5629(1) 0.1625(1) 0.1586(1)
Cl2 Cl 0.3354(1) 0.0215(1) 0.3462(1)
Cl3 Cl 0.3219(1) 0.1153(1) -0.0188(1)
Cl4 Cl 0.1813(1) 0.0409(1) 0.0945(1)
O1 O 0.4428(2) 0.2363(2) 0.2705(2)
O2 O 0.5572(2) 0.0993(2) 0.3807(2)
C1 C 0.3885(3) 0.0275(3) 0.2632(3)
C2 C 0.3348(3) -0.1878(3) 0.1122(3)
C3 C 0.5156(2) -0.0454(3) 0.2188(2)
C4 C 0.6563(3) -0.2255(3) 0.2831(3)
C5 C 0.3126(3) 0.0568(3) 0.1522(3)
C6 C 0.4877(3) -0.2882(3) 0.2494(2)
O3 O 0.5566(2) -0.3062(3) 0.4350(2)
O4 O 0.6620(2) -0.2470(2) 0.3767(2)
O5 O 0.7308(2) -0.1929(3) 0.2796(2)
C7 C 0.3987(2) -0.1991(3) 0.2266(2)
C8 C 0.3862(3) -0.1552(3) 0.0660(3)
C9 C 0.3669(3) 0.0880(3) 0.1084(3)
C10 C 0.4533(2) -0.0835(3) 0.2726(2)
C11 C 0.3946(4) -0.4290(4) 0.1055(4)
C12 C 0.5481(3) -0.2494(3) 0.1954(3)
C13 C 0.5001(3) -0.1340(3) 0.1355(2)
C14 C 0.4727(3) 0.1223(3) 0.2845(3)
C15 C 0.4525(3) -0.4161(3) 0.2198(3)
C16 C 0.4803(3) 0.0813(3) 0.1888(3)
C17 C 0.5664(3) -0.2837(3) 0.3627(3)
C18 C 0.6123(4) -0.4522(3) 0.2064(3)
C19 C 0.4176(5) 0.2870(4) 0.3433(5)
C20 C 0.4469(4) -0.3959(4) 0.0609(4)
C21 C 0.5502(4) -0.4915(3) 0.2580(4)
C22 C 0.5543(3) -0.3521(3) 0.1310(3)
C23 C 0.6460(4) 0.1744(4) 0.4152(4)
H1 H 0.5894 -0.0448 0.2707
H2 H 0.3564 -0.2241 0.2568
H3 H 0.5029 -0.0959 0.3456
H4 H 0.5340 -0.1092 0.0967
H5 H 0.4101 -0.4416 0.2497
H6 H 0.6206 -0.5162 0.1694
H7 H 0.6807 -0.4266 0.2583
H8 H 0.3981 0.3662 0.3254
H9 H 0.4769 0.2830 0.4110
H10 H 0.3609 0.2456 0.3421
H11 H 0.5927 -0.4847 0.3321
H12 H 0.5303 -0.5718 0.2415
H13 H 0.5892 -0.3294 0.0926
H14 H 0.6992 0.1504 0.4821
H15 H 0.6258 0.2522 0.4187
H16 H 0.6719 0.1704 0.3678
H17 H 0.2671(27) -0.2047(26) 0.0791(25)
H18 H 0.3573(29) -0.1448(30) -0.0117(32)
H19 H 0.4148(38) -0.3932(41) -0.0086(45)
H20 H 0.3187(41) -0.4604(43) 0.0762(40)
loop_
_geom_bond_atom_site_label_1
_geom_bond_atom_site_label_2
_geom_bond_site_symmetry_1
_geom_bond_site_symmetry_2
Cl1 C16 1_555 1_555
Cl2 C1 1_555 1_555
Cl3 C9 1_555 1_555
Cl4 C5 1_555 1_555
O1 C14 1_555 1_555
O2 C14 1_555 1_555
C1 C5 1_555 1_555
C2 C7 1_555 1_555
C3 C10 1_555 1_555
C4 O4 1_555 1_555
C5 C9 1_555 1_555
C6 C7 1_555 1_555
O3 C17 1_555 1_555
O4 C17 1_555 1_555
O5 C4 1_555 1_555
C7 C10 1_555 1_555
C8 C2 1_555 1_555
C9 C16 1_555 1_555
C10 C1 1_555 1_555
C11 C15 1_555 1_555
C12 C4 1_555 1_555
C13 C3 1_555 1_555
C14 C1 1_555 1_555
C15 C6 1_555 1_555
C16 C3 1_555 1_555
C17 C6 1_555 1_555
C18 C21 1_555 1_555
C19 O1 1_555 1_555
C20 C11 1_555 1_555
C21 C15 1_555 1_555
C22 C12 1_555 1_555
C23 O2 1_555 1_555
H1 C3 1_555 1_555
H2 C7 1_555 1_555
H3 C10 1_555 1_555
H4 C13 1_555 1_555
H5 C15 1_555 1_555
H6 C18 1_555 1_555
H7 C18 1_555 1_555
H8 C19 1_555 1_555
H9 C19 1_555 1_555
H10 C19 1_555 1_555
H11 C21 1_555 1_555
H12 C21 1_555 1_555
H13 C22 1_555 1_555
H14 C23 1_555 1_555
H15 C23 1_555 1_555
H16 C23 1_555 1_555
H17 C2 1_555 1_555
H18 C8 1_555 1_555
H19 C20 1_555 1_555
H20 C11 1_555 1_555
C6 C12 1_555 1_555
C8 C13 1_555 1_555
C12 C13 1_555 1_555
C14 C16 1_555 1_555
C18 C22 1_555 1_555
C20 C22 1_555 1_555

#END
