
#######################################################################
#
#                 Cambridge Crystallographic Data Centre
#                                CCDC 
#
#######################################################################
#
# If this CIF has been generated from an entry in the Cambridge 
# Structural Database, then it will include bibliographic, chemical, 
# crystal, experimental, refinement or atomic coordinate data resulting 
# from the CCDC's data processing and validation procedures.
#
#######################################################################

data_GAYQIG
_chemical_formula_moiety         'C22 H18 Cl4 O5'
_chemical_name_systematic        
'syn-exo-(1\a,2\b,3\b,6\b,7\b,8\a,9\a,10\b,13\b,14\a)-10,11,12,13-Tetrachloro-18,18-dimethoxyhexacyclo(6.6.2.1^3,6^.1^10,13^.0^2,7^.0^9,14^)octadeca-4,11,15-triene-2,7-dicarboxylic anhydride'
_symmetry_cell_setting           monoclinic
_symmetry_space_group_name_H-M   'P 21/c'
_symmetry_Int_Tables_number      14
_space_group_name_Hall           '-P 2ybc'
loop_
_symmetry_equiv_pos_site_id
_symmetry_equiv_pos_as_xyz
1 x,y,z
2 -x,1/2+y,1/2-z
3 -x,-y,-z
4 x,1/2-y,1/2+z
_cell_length_a                   14.616(3)
_cell_length_b                   10.989(3)
_cell_length_c                   15.194(3)
_cell_angle_alpha                90
_cell_angle_beta                 118.440(10)
_cell_angle_gamma                90
_cell_volume                     2145.87
_exptl_crystal_colour            colorless
_chemical_melting_point          '203 deg.C'
_cell_formula_units_Z            4
loop_
_atom_site_label
_atom_site_type_symbol
_atom_site_fract_x
_atom_site_fract_y
_atom_site_fract_z
Cl1 Cl 0.40486 0.66143 0.06803
Cl2 Cl 0.34439 0.64669 -0.16774
Cl3 Cl -0.01121 0.52204 -0.15411
Cl4 Cl 0.08745 0.56925 -0.30549
O1 O 0.17631 0.58439 0.06369
O2 O 0.17195 0.74443 -0.03855
O3 O 0.11832 0.14393 0.02680
O4 O 0.44887 0.26228 0.19673
O5 O 0.28051 0.20843 0.12947
C1 C 0.16847 0.29424 -0.11978
C2 C 0.23418 0.19245 -0.04282
C3 C 0.24164 0.06032 -0.08222
C4 C 0.28550 0.07065 -0.15361
C5 C 0.38339 0.10442 -0.10265
C6 C 0.40980 0.11716 0.00559
C7 C 0.34941 0.23172 0.01600
C8 C 0.36354 0.35968 -0.01995
C9 C 0.29557 0.44463 0.00549
C10 C 0.29214 0.58243 -0.01692
C11 C 0.16145 0.57343 -0.17866
C12 C 0.25911 0.60445 -0.12731
C13 C 0.12506 0.52919 -0.10753
C14 C 0.17879 0.40634 -0.05486
C15 C 0.22147 0.32040 -0.18115
C16 C 0.31903 0.35448 -0.13191
C17 C 0.33880 0.01286 0.01046
C18 C 0.18689 0.62070 -0.01805
C19 C 0.19916 0.17697 0.03570
C20 C 0.37136 0.23757 0.12431
C21 C 0.22922 0.65627 0.15249
C22 C 0.07511 0.79382 -0.05355
H1 H 0.09483 0.26948 -0.16176
H2 H 0.17983 0.00818 -0.10444
H3 H 0.24783 0.05676 -0.22664
H4 H 0.43123 0.11689 -0.13057
H5 H 0.48397 0.11053 0.05538
H6 H 0.43694 0.38535 0.01403
H7 H 0.31786 0.43448 0.07762
H8 H 0.15282 0.38426 -0.00807
H9 H 0.18581 0.31128 -0.25506
H10 H 0.35926 0.37637 -0.16692
H11 H 0.33245 0.01556 0.07179
H12 H 0.36090 -0.06833 0.00491
H13 H 0.21821 0.62423 0.20717
H14 H 0.30415 0.65793 0.17750
H15 H 0.20530 0.74034 0.14231
H16 H 0.07048 0.88107 -0.06821
H17 H 0.01600 0.75533 -0.10909
H18 H 0.06621 0.78431 0.00557
loop_
_geom_bond_atom_site_label_1
_geom_bond_atom_site_label_2
_geom_bond_site_symmetry_1
_geom_bond_site_symmetry_2
Cl1 C10 1_555 1_555
Cl2 C12 1_555 1_555
Cl3 C13 1_555 1_555
Cl4 C11 1_555 1_555
O1 C18 1_555 1_555
O2 C18 1_555 1_555
O3 C19 1_555 1_555
O4 C20 1_555 1_555
O5 C19 1_555 1_555
C1 C2 1_555 1_555
C2 C3 1_555 1_555
C3 C4 1_555 1_555
C4 C5 1_555 1_555
C5 C6 1_555 1_555
C6 C7 1_555 1_555
C7 C2 1_555 1_555
C8 C7 1_555 1_555
C9 C8 1_555 1_555
C10 C9 1_555 1_555
C11 C12 1_555 1_555
C12 C10 1_555 1_555
C13 C11 1_555 1_555
C14 C1 1_555 1_555
C15 C1 1_555 1_555
C16 C8 1_555 1_555
C17 C3 1_555 1_555
C18 C10 1_555 1_555
C19 C2 1_555 1_555
C20 O5 1_555 1_555
C21 O1 1_555 1_555
C22 O2 1_555 1_555
H1 C1 1_555 1_555
H2 C3 1_555 1_555
H3 C4 1_555 1_555
H4 C5 1_555 1_555
H5 C6 1_555 1_555
H6 C8 1_555 1_555
H7 C9 1_555 1_555
H8 C14 1_555 1_555
H9 C15 1_555 1_555
H10 C16 1_555 1_555
H11 C17 1_555 1_555
H12 C17 1_555 1_555
H13 C21 1_555 1_555
H14 C21 1_555 1_555
H15 C21 1_555 1_555
H16 C22 1_555 1_555
H17 C22 1_555 1_555
H18 C22 1_555 1_555
C6 C17 1_555 1_555
C7 C20 1_555 1_555
C9 C14 1_555 1_555
C13 C14 1_555 1_555
C13 C18 1_555 1_555
C15 C16 1_555 1_555

#END
