
#######################################################################
#
#                 Cambridge Crystallographic Data Centre
#                                CCDC 
#
#######################################################################
#
# If this CIF has been generated from an entry in the Cambridge 
# Structural Database, then it will include bibliographic, chemical, 
# crystal, experimental, refinement or atomic coordinate data resulting 
# from the CCDC's data processing and validation procedures.
#
#######################################################################

data_GAYQUS
_chemical_formula_moiety         'C9 H18 N1 O1 1+,C6 H4 Cl1 O3 S1 1-'
_chemical_name_systematic        
'anti-(2,3-Epoxycyclohexyl)trimethylammonium p-chlorobenzenesulfonate'
_symmetry_cell_setting           monoclinic
_symmetry_space_group_name_H-M   'P 21/c'
_symmetry_Int_Tables_number      14
_space_group_name_Hall           '-P 2ybc'
loop_
_symmetry_equiv_pos_site_id
_symmetry_equiv_pos_as_xyz
1 x,y,z
2 -x,1/2+y,1/2-z
3 -x,-y,-z
4 x,1/2-y,1/2+z
_cell_length_a                   17.458(5)
_cell_length_b                   5.9313(7)
_cell_length_c                   18.009(2)
_cell_angle_alpha                90
_cell_angle_beta                 116.48(2)
_cell_angle_gamma                90
_cell_volume                     1669.17
_cell_formula_units_Z            4
_exptl_crystal_recrystallization_method acetonitrile
loop_
_atom_site_label
_atom_site_type_symbol
_atom_site_fract_x
_atom_site_fract_y
_atom_site_fract_z
Cl1 Cl 0.4736(1) -0.4386(2) 0.3464(1)
S1 S 0.1352(1) 0.1217(1) 0.1767(1)
O1 O 0.1372(1) 0.2600(3) 0.2435(1)
O2 O 0.1393(1) 0.2524(4) 0.1111(1)
O3 O 0.0666(1) -0.0389(3) 0.1472(1)
C1 C 0.2310(1) -0.0394(4) 0.2206(1)
C2 C 0.2296(2) -0.2541(4) 0.2504(1)
C3 C 0.3043(2) -0.3753(5) 0.2903(2)
C4 C 0.3797(2) -0.2843(5) 0.2974(2)
C5 C 0.3822(2) -0.0736(5) 0.2667(2)
C6 C 0.3079(2) 0.0489(4) 0.2281(2)
H1 H 0.1759(2) -0.3176(4) 0.2425(1)
H2 H 0.3046(2) -0.5206(5) 0.3139(2)
H3 H 0.4357(2) -0.0139(5) 0.2725(2)
H4 H 0.3084(2) 0.1956(4) 0.2058(2)
O4 O -0.3025(1) 0.7896(3) 0.0275(1)
N1 N -0.1234(1) 0.3946(3) 0.0572(1)
C7 C -0.2129(1) 0.4981(4) 0.0075(1)
C8 C -0.2431(2) 0.6080(4) 0.0651(2)
C9 C -0.3324(2) 0.5895(5) 0.0503(2)
C10 C -0.3950(2) 0.4505(6) -0.0198(2)
C11 C -0.3670(2) 0.4194(6) -0.0874(2)
C12 C -0.2763(2) 0.3279(5) -0.0514(2)
C13 C -0.0969(2) 0.2717(5) -0.0005(2)
C14 C -0.1185(2) 0.2359(5) 0.1233(2)
C15 C -0.0604(2) 0.5819(5) 0.0965(2)
H5 H -0.2073(1) 0.6156(4) -0.0265(1)
H6 H -0.2011(2) 0.6288(4) 0.1215(2)
H7 H -0.3428(2) 0.6021(5) 0.0982(2)
H8 H -0.4500(2) 0.5224(6) -0.0419(2)
H9 H -0.4003(2) 0.3047(6) 0.0006(2)
H10 H -0.3681(2) 0.5629(6) -0.1125(2)
H11 H -0.4058(2) 0.3202(6) -0.1295(2)
H12 H -0.2736(2) 0.1931(5) -0.0207(2)
H13 H -0.2614(2) 0.2900(5) -0.0951(2)
H14 H -0.0376(2) 0.2302(5) 0.0286(2)
H15 H -0.1051(2) 0.3677(5) -0.0464(2)
H16 H -0.1311(2) 0.1383(5) -0.0208(2)
H17 H -0.0651(2) 0.1561(5) 0.1447(2)
H18 H -0.1650(2) 0.1302(5) 0.1006(2)
H19 H -0.1223(2) 0.3195(5) 0.1672(2)
H20 H -0.0040(2) 0.5198(5) 0.1257(2)
H21 H -0.0750(2) 0.6620(5) 0.1348(2)
H22 H -0.0620(2) 0.6837(5) 0.0544(2)
loop_
_geom_bond_atom_site_label_1
_geom_bond_atom_site_label_2
_geom_bond_site_symmetry_1
_geom_bond_site_symmetry_2
Cl1 C4 1_555 1_555
S1 O1 1_555 1_555
O2 S1 1_555 1_555
O3 S1 1_555 1_555
C1 S1 1_555 1_555
C2 C1 1_555 1_555
C3 C2 1_555 1_555
C4 C3 1_555 1_555
C5 C4 1_555 1_555
C6 C1 1_555 1_555
O4 C8 1_555 1_555
N1 C7 1_555 1_555
C7 C8 1_555 1_555
C8 C9 1_555 1_555
C9 O4 1_555 1_555
C10 C9 1_555 1_555
C11 C10 1_555 1_555
C12 C7 1_555 1_555
C13 N1 1_555 1_555
C14 N1 1_555 1_555
C15 N1 1_555 1_555
H1 C2 1_555 1_555
H2 C3 1_555 1_555
H3 C5 1_555 1_555
H4 C6 1_555 1_555
H5 C7 1_555 1_555
H6 C8 1_555 1_555
H7 C9 1_555 1_555
H8 C10 1_555 1_555
H9 C10 1_555 1_555
H10 C11 1_555 1_555
H11 C11 1_555 1_555
H12 C12 1_555 1_555
H13 C12 1_555 1_555
H14 C13 1_555 1_555
H15 C13 1_555 1_555
H16 C13 1_555 1_555
H17 C14 1_555 1_555
H18 C14 1_555 1_555
H19 C14 1_555 1_555
H20 C15 1_555 1_555
H21 C15 1_555 1_555
H22 C15 1_555 1_555
C5 C6 1_555 1_555
C11 C12 1_555 1_555

#END
