
#######################################################################
#
#                 Cambridge Crystallographic Data Centre
#                                CCDC 
#
#######################################################################
#
# If this CIF has been generated from an entry in the Cambridge 
# Structural Database, then it will include bibliographic, chemical, 
# crystal, experimental, refinement or atomic coordinate data resulting 
# from the CCDC's data processing and validation procedures.
#
#######################################################################

data_GAYREF
_chemical_formula_moiety         'C25 H22 N2 O2 S1'
_chemical_name_systematic        
(3,5-Dimethyl-1H-pyrazol-1-yl)(4-hydroxy-2-(2-naphthyl)-3,4-dihydro-2H-thiochromen-3-yl)methanone
_symmetry_cell_setting           orthorhombic
_symmetry_space_group_name_H-M   'P 21 21 21'
_symmetry_Int_Tables_number      19
_space_group_name_Hall           'P 2ac 2ab'
loop_
_symmetry_equiv_pos_site_id
_symmetry_equiv_pos_as_xyz
1 x,y,z
2 1/2-x,-y,1/2+z
3 -x,1/2+y,1/2-z
4 1/2+x,1/2-y,-z
_cell_length_a                   5.8585(10)
_cell_length_b                   11.5282(19)
_cell_length_c                   30.948(5)
_cell_angle_alpha                90
_cell_angle_beta                 90
_cell_angle_gamma                90
_cell_volume                     2090.16
_exptl_crystal_description       block
_cell_formula_units_Z            4
loop_
_atom_site_label
_atom_site_type_symbol
_atom_site_fract_x
_atom_site_fract_y
_atom_site_fract_z
C1 C 1.0720(6) 0.4376(2) 0.11541(10)
H1 H 1.2150 0.4118 0.1066
C2 C 0.9259(6) 0.3621(2) 0.13428(10)
H2 H 0.9685 0.2849 0.1377
C3 C 0.7106(6) 0.3992(3) 0.14880(10)
H3 H 0.6111 0.3468 0.1617
C4 C 0.6487(5) 0.5119(2) 0.14386(10)
H4 H 0.5073 0.5361 0.1541
C5 C 0.7944(5) 0.5935(2) 0.12352(9)
C6 C 0.7270(5) 0.7080(2) 0.11513(9)
H5 H 0.5846 0.7330 0.1246
C7 C 0.8649(5) 0.7842(2) 0.09331(9)
C8 C 1.0820(5) 0.7455(2) 0.07976(9)
H6 H 1.1793 0.7966 0.0656
C9 C 1.1508(5) 0.6352(2) 0.08700(10)
H7 H 1.2939 0.6119 0.0773
C10 C 1.0114(5) 0.5548(2) 0.10882(10)
C11 C 0.7814(5) 0.9044(2) 0.08086(8)
H8 H 0.9138 0.9527 0.0738
C12 C 0.6417(5) 0.9655(2) 0.11583(8)
H9 H 0.5129 0.9163 0.1244
C13 C 0.5538(5) 1.0848(2) 0.10187(9)
H10 H 0.6871 1.1323 0.0946
C14 C 0.4030(5) 1.0803(2) 0.06221(9)
C15 C 0.4207(5) 0.9954(2) 0.03058(9)
C16 C 0.2366(6) 1.1657(2) 0.05709(10)
H11 H 0.2236 1.2238 0.0778
C17 C 0.0908(6) 1.1659(3) 0.02207(11)
H12 H -0.0185 1.2239 0.0193
C18 C 0.1074(6) 1.0808(3) -0.00842(11)
H13 H 0.0085 1.0806 -0.0319
C19 C 0.2704(5) 0.9952(3) -0.00448(9)
H14 H 0.2803 0.9370 -0.0252
C20 C 0.7980(5) 0.9841(2) 0.15420(9)
C21 C 0.5681(6) 0.8120(3) 0.23431(10)
C22 C 0.7499(6) 0.8592(3) 0.25795(10)
H15 H 0.7876 0.8417 0.2864
C23 C 0.8601(5) 0.9345(3) 0.23210(10)
C24 C 1.0629(6) 1.0087(3) 0.24034(11)
H16 H 1.1042 1.0038 0.2703
H17 H 1.0273 1.0877 0.2332
H18 H 1.1881 0.9827 0.2228
C25 C 0.3987(7) 0.7220(3) 0.24738(12)
H19 H 0.2658 0.7278 0.2293
H20 H 0.3558 0.7339 0.2770
H21 H 0.4653 0.6464 0.2442
N1 N 0.7440(4) 0.93111(19) 0.19315(7)
N2 N 0.5601(4) 0.85462(19) 0.19488(8)
O1 O 0.4431(4) 1.13843(15) 0.13765(6)
H22 H 0.3274 1.1019 0.1438
O2 O 0.9675(4) 1.04555(18) 0.15167(7)
S1 S 0.61651(14) 0.88019(6) 0.03181(2)
loop_
_geom_bond_atom_site_label_1
_geom_bond_atom_site_label_2
_geom_bond_site_symmetry_1
_geom_bond_site_symmetry_2
C1 H1 1_555 1_555
C2 C1 1_555 1_555
H2 C2 1_555 1_555
C3 C2 1_555 1_555
H3 C3 1_555 1_555
C4 C3 1_555 1_555
H4 C4 1_555 1_555
C5 C4 1_555 1_555
C6 C5 1_555 1_555
H5 C6 1_555 1_555
C7 C6 1_555 1_555
C8 C7 1_555 1_555
H6 C8 1_555 1_555
C9 C8 1_555 1_555
H7 C9 1_555 1_555
C10 C1 1_555 1_555
C11 C7 1_555 1_555
H8 C11 1_555 1_555
C12 C11 1_555 1_555
H9 C12 1_555 1_555
C13 C12 1_555 1_555
H10 C13 1_555 1_555
C14 C13 1_555 1_555
C15 C14 1_555 1_555
C16 C14 1_555 1_555
H11 C16 1_555 1_555
C17 C16 1_555 1_555
H12 C17 1_555 1_555
C18 C17 1_555 1_555
H13 C18 1_555 1_555
C19 C15 1_555 1_555
H14 C19 1_555 1_555
C20 C12 1_555 1_555
C21 C22 1_555 1_555
C22 H15 1_555 1_555
C23 C22 1_555 1_555
C24 C23 1_555 1_555
H16 C24 1_555 1_555
H17 C24 1_555 1_555
H18 C24 1_555 1_555
C25 C21 1_555 1_555
H19 C25 1_555 1_555
H20 C25 1_555 1_555
H21 C25 1_555 1_555
N1 C20 1_555 1_555
N2 C21 1_555 1_555
O1 C13 1_555 1_555
H22 O1 1_555 1_555
O2 C20 1_555 1_555
S1 C11 1_555 1_555
C5 C10 1_555 1_555
C9 C10 1_555 1_555
C15 S1 1_555 1_555
C18 C19 1_555 1_555
C23 N1 1_555 1_555
N1 N2 1_555 1_555

#END
