
#######################################################################
#
#                 Cambridge Crystallographic Data Centre
#                                CCDC 
#
#######################################################################
#
# If this CIF has been generated from an entry in the Cambridge 
# Structural Database, then it will include bibliographic, chemical, 
# crystal, experimental, refinement or atomic coordinate data resulting 
# from the CCDC's data processing and validation procedures.
#
#######################################################################

data_GAYWIP
_chemical_formula_moiety         'C20 H38 S2 Si4'
_chemical_name_systematic        
(disulfanediylbis(but-1-en-3-yne-1,1,4-triyl))tetrakis(trimethylsilane)
_symmetry_cell_setting           orthorhombic
_symmetry_space_group_name_H-M   'P b c a'
_symmetry_Int_Tables_number      61
_space_group_name_Hall           '-P 2ac 2ab'
loop_
_symmetry_equiv_pos_site_id
_symmetry_equiv_pos_as_xyz
1 x,y,z
2 1/2-x,-y,1/2+z
3 -x,1/2+y,1/2-z
4 1/2+x,1/2-y,-z
5 -x,-y,-z
6 1/2+x,y,1/2-z
7 x,1/2-y,1/2+z
8 1/2-x,1/2+y,z
_cell_length_a                   13.0804(7)
_cell_length_b                   20.2601(11)
_cell_length_c                   22.1465(11)
_cell_angle_alpha                90
_cell_angle_beta                 90
_cell_angle_gamma                90
_cell_volume                     5869.05
_exptl_crystal_colour            colorless
_exptl_crystal_description       needle
_cell_formula_units_Z            8
loop_
_atom_site_label
_atom_site_type_symbol
_atom_site_fract_x
_atom_site_fract_y
_atom_site_fract_z
S1 S 0.33993(4) 0.38374(3) 0.25586(2)
S2 S 0.32072(5) 0.37353(3) 0.34690(2)
Si1 Si 0.52569(5) 0.28481(3) 0.28696(3)
Si2 Si 0.35784(5) 0.53056(3) 0.33848(3)
Si3 Si 0.33531(6) 0.52037(4) 0.07687(3)
Si4 Si 0.41205(6) 0.25613(4) 0.54200(3)
C1 C 0.46437(16) 0.35280(9) 0.24058(9)
C2 C 0.36831(16) 0.44818(10) 0.37840(9)
C3 C 0.50579(18) 0.37497(10) 0.18891(9)
H1 H 0.5700 0.3592 0.1782
C4 C 0.45788(19) 0.42105(11) 0.14939(9)
C5 C 0.4045(2) 0.38369(12) 0.47011(10)
C6 C 0.6240(2) 0.24496(12) 0.23828(12)
H2 H 0.5924 0.2290 0.2020
H3 H 0.6544 0.2087 0.2596
H4 H 0.6758 0.2766 0.2282
C7 C 0.5904(2) 0.31938(15) 0.35433(11)
H5 H 0.6411 0.3507 0.3418
H6 H 0.6226 0.2844 0.3765
H7 H 0.5409 0.3409 0.3796
C8 C 0.4136(2) 0.45919(12) 0.11728(10)
C9 C 0.40108(19) 0.44331(11) 0.43564(10)
H8 H 0.4233 0.4818 0.4544
C10 C 0.4069(2) 0.33416(13) 0.49946(11)
C11 C 0.4275(2) 0.22183(12) 0.30587(13)
H9 H 0.3870 0.2371 0.3392
H10 H 0.4605 0.1812 0.3167
H11 H 0.3842 0.2146 0.2715
C12 C 0.5451(3) 0.22526(15) 0.54038(14)
H12 H 0.5677 0.2217 0.4993
H13 H 0.5480 0.1827 0.5593
H14 H 0.5886 0.2554 0.5617
C13 C 0.3698(3) 0.59565(13) 0.39743(13)
H15 H 0.3202 0.5880 0.4286
H16 H 0.3582 0.6382 0.3796
H17 H 0.4373 0.5943 0.4145
C14 C 0.2300(2) 0.53692(16) 0.30304(15)
H18 H 0.2263 0.5075 0.2691
H19 H 0.2188 0.5814 0.2896
H20 H 0.1785 0.5252 0.3320
C15 C 0.4641(2) 0.54123(13) 0.28382(11)
H21 H 0.5281 0.5334 0.3038
H22 H 0.4630 0.5854 0.2681
H23 H 0.4561 0.5104 0.2512
C16 C 0.3714(3) 0.27419(17) 0.62031(14)
H24 H 0.4164 0.3064 0.6377
H25 H 0.3739 0.2344 0.6438
H26 H 0.3028 0.2911 0.6201
C17 C 0.3565(3) 0.5145(2) -0.00537(13)
H27 H 0.4255 0.5271 -0.0146
H28 H 0.3100 0.5435 -0.0259
H29 H 0.3449 0.4700 -0.0184
C18 C 0.2002(3) 0.5031(2) 0.09489(17)
H30 H 0.1812 0.4611 0.0782
H31 H 0.1578 0.5370 0.0779
H32 H 0.1914 0.5021 0.1379
C19 C 0.3241(3) 0.1962(2) 0.5069(2)
H33 H 0.2559 0.2136 0.5073
H34 H 0.3260 0.1555 0.5291
H35 H 0.3448 0.1883 0.4659
C20 C 0.3758(4) 0.60254(17) 0.1033(2)
H36 H 0.3550 0.6085 0.1445
H37 H 0.3447 0.6359 0.0786
H38 H 0.4488 0.6061 0.1005
loop_
_geom_bond_atom_site_label_1
_geom_bond_atom_site_label_2
_geom_bond_site_symmetry_1
_geom_bond_site_symmetry_2
S1 S2 1_555 1_555
S2 C2 1_555 1_555
Si1 C1 1_555 1_555
Si2 C2 1_555 1_555
Si3 C8 1_555 1_555
Si4 C10 1_555 1_555
C1 S1 1_555 1_555
C2 C9 1_555 1_555
C3 C1 1_555 1_555
H1 C3 1_555 1_555
C4 C3 1_555 1_555
C5 C9 1_555 1_555
C6 Si1 1_555 1_555
H2 C6 1_555 1_555
H3 C6 1_555 1_555
H4 C6 1_555 1_555
C7 Si1 1_555 1_555
H5 C7 1_555 1_555
H6 C7 1_555 1_555
H7 C7 1_555 1_555
C8 C4 1_555 1_555
C9 H8 1_555 1_555
C10 C5 1_555 1_555
C11 Si1 1_555 1_555
H9 C11 1_555 1_555
H10 C11 1_555 1_555
H11 C11 1_555 1_555
C12 Si4 1_555 1_555
H12 C12 1_555 1_555
H13 C12 1_555 1_555
H14 C12 1_555 1_555
C13 Si2 1_555 1_555
H15 C13 1_555 1_555
H16 C13 1_555 1_555
H17 C13 1_555 1_555
C14 Si2 1_555 1_555
H18 C14 1_555 1_555
H19 C14 1_555 1_555
H20 C14 1_555 1_555
C15 Si2 1_555 1_555
H21 C15 1_555 1_555
H22 C15 1_555 1_555
H23 C15 1_555 1_555
C16 Si4 1_555 1_555
H24 C16 1_555 1_555
H25 C16 1_555 1_555
H26 C16 1_555 1_555
C17 Si3 1_555 1_555
H27 C17 1_555 1_555
H28 C17 1_555 1_555
H29 C17 1_555 1_555
C18 Si3 1_555 1_555
H30 C18 1_555 1_555
H31 C18 1_555 1_555
H32 C18 1_555 1_555
C19 Si4 1_555 1_555
H33 C19 1_555 1_555
H34 C19 1_555 1_555
H35 C19 1_555 1_555
C20 Si3 1_555 1_555
H36 C20 1_555 1_555
H37 C20 1_555 1_555
H38 C20 1_555 1_555

#END
