
#######################################################################
#
#                 Cambridge Crystallographic Data Centre
#                                CCDC 
#
#######################################################################
#
# If this CIF has been generated from an entry in the Cambridge 
# Structural Database, then it will include bibliographic, chemical, 
# crystal, experimental, refinement or atomic coordinate data resulting 
# from the CCDC's data processing and validation procedures.
#
#######################################################################

data_GAYXOV
_chemical_formula_moiety         'C30 H28 N2 O7'
_chemical_name_systematic        
'Methyl 3-isobutoxy-4-((3-(2-naphthylmethoxy)-4-nitrobenzoyl)amino)benzoate'
_symmetry_cell_setting           monoclinic
_symmetry_space_group_name_H-M   'P 21/n'
_symmetry_Int_Tables_number      14
_space_group_name_Hall           '-P 2yn'
loop_
_symmetry_equiv_pos_site_id
_symmetry_equiv_pos_as_xyz
1 x,y,z
2 1/2-x,1/2+y,1/2-z
3 -x,-y,-z
4 1/2+x,1/2-y,1/2+z
_cell_length_a                   7.7976(7)
_cell_length_b                   30.135(3)
_cell_length_c                   11.4892(9)
_cell_angle_alpha                90
_cell_angle_beta                 102.069(4)
_cell_angle_gamma                90
_cell_volume                     2640.07
_exptl_crystal_colour            colorless
_exptl_crystal_description       rod
_cell_formula_units_Z            4
loop_
_atom_site_label
_atom_site_type_symbol
_atom_site_fract_x
_atom_site_fract_y
_atom_site_fract_z
O1 O 0.28458(18) -0.07068(4) -0.02377(10)
O2 O 0.81993(19) 0.05619(4) 0.41880(10)
O3 O 1.16840(17) 0.13821(4) 0.77182(11)
O4 O 0.2580(2) -0.13233(5) 0.08445(11)
O5 O 0.59055(17) -0.08746(4) 0.50684(10)
N1 N 0.7179(2) -0.00789(5) 0.48904(12)
H1 H 0.7204 -0.0232 0.5546
C1 C 0.9925(2) 0.08333(6) 0.64298(15)
H2 H 0.9777 0.1029 0.5769
C2 C 0.3116(2) -0.09458(7) 0.07872(15)
N2 N 1.2072(2) 0.07890(6) 0.97204(13)
C3 C 0.4141(2) -0.06924(6) 0.18289(14)
C4 C 0.4496(2) -0.09123(6) 0.29428(14)
H3 H 0.4068 -0.1204 0.3014
C5 C 0.7332(3) 0.25669(6) 0.56009(14)
C6 C 1.0910(2) 0.09732(6) 0.75348(15)
C7 C 0.9152(2) 0.04096(6) 0.62784(14)
C8 C 1.0158(3) 0.19620(6) 0.63335(15)
C9 C 0.8801(2) 0.19753(6) 0.69403(14)
H4 H 0.8822 0.1780 0.7592
C10 C 0.5745(2) -0.00425(6) 0.27258(15)
H5 H 0.6145 0.0252 0.2653
C11 C 0.7366(2) 0.22784(6) 0.66028(14)
C12 C 1.1073(2) 0.06735(6) 0.85082(14)
C13 C 1.0304(3) 0.02517(6) 0.83609(15)
H6 H 1.0427 0.0057 0.9023
C14 C 0.8140(2) 0.03067(6) 0.50220(15)
C15 C 0.6148(2) -0.02624(6) 0.38301(14)
C16 C 0.4998(3) -0.12763(6) 0.53160(15)
H7 H 0.5350 -0.1531 0.4873
H8 H 0.3714 -0.1236 0.5066
C17 C 0.5481(2) -0.06963(6) 0.39338(14)
O6 O 1.1789(2) 0.05653(5) 1.05640(12)
C18 C 0.5967(3) 0.23032(6) 0.72321(15)
H9 H 0.5993 0.2120 0.7909
O7 O 1.3148(2) 0.10946(6) 0.98434(12)
C19 C 0.4513(3) 0.28649(6) 0.58416(16)
H10 H 0.3534 0.3054 0.5576
C20 C 0.9358(3) 0.01159(6) 0.72500(15)
H11 H 0.8857 -0.0173 0.7150
C21 C 0.4748(3) -0.02611(6) 0.17347(15)
H12 H 0.4481 -0.0114 0.0988
C22 C 0.5861(3) 0.28561(6) 0.52398(15)
H13 H 0.5815 0.3045 0.4572
C23 C 1.0139(3) 0.22584(7) 0.53549(16)
H14 H 1.1077 0.2253 0.4944
C24 C 0.4574(3) 0.25915(6) 0.68643(16)
H15 H 0.3659 0.2607 0.7294
C25 C 0.8772(3) 0.25519(7) 0.50051(15)
H16 H 0.8785 0.2747 0.4358
C26 C 0.5504(3) -0.13628(6) 0.66587(15)
H17 H 0.5166 -0.1097 0.7081
C27 C 1.1742(3) 0.16557(7) 0.66901(16)
H18 H 1.1813 0.1461 0.6009
H19 H 1.2820 0.1839 0.6863
C28 C 0.1973(3) -0.09496(7) -0.13019(15)
H20 H 0.1833 -0.0754 -0.1997
H21 H 0.0817 -0.1050 -0.1201
H22 H 0.2684 -0.1207 -0.1420
C29 C 0.7479(3) -0.14333(8) 0.70648(18)
H23 H 0.8103 -0.1178 0.6824
H24 H 0.7823 -0.1703 0.6697
H25 H 0.7777 -0.1463 0.7933
C30 C 0.4459(3) -0.17650(7) 0.69631(17)
H26 H 0.4790 -0.2030 0.6568
H27 H 0.3201 -0.1709 0.6689
H28 H 0.4722 -0.1811 0.7826
loop_
_geom_bond_atom_site_label_1
_geom_bond_atom_site_label_2
_geom_bond_site_symmetry_1
_geom_bond_site_symmetry_2
O1 C2 1_555 1_555
O2 C14 1_555 1_555
O3 C6 1_555 1_555
O4 C2 1_555 1_555
O5 C16 1_555 1_555
N1 H1 1_555 1_555
C1 H2 1_555 1_555
C2 C3 1_555 1_555
N2 C12 1_555 1_555
C3 C4 1_555 1_555
C4 H3 1_555 1_555
C5 C11 1_555 1_555
C6 C1 1_555 1_555
C7 C1 1_555 1_555
C8 C9 1_555 1_555
C9 H4 1_555 1_555
C10 H5 1_555 1_555
C11 C9 1_555 1_555
C12 C6 1_555 1_555
C13 C12 1_555 1_555
H6 C13 1_555 1_555
C14 N1 1_555 1_555
C15 N1 1_555 1_555
C16 H7 1_555 1_555
H8 C16 1_555 1_555
C17 O5 1_555 1_555
O6 N2 1_555 1_555
C18 C11 1_555 1_555
H9 C18 1_555 1_555
O7 N2 1_555 1_555
C19 H10 1_555 1_555
C20 C7 1_555 1_555
H11 C20 1_555 1_555
C21 C3 1_555 1_555
H12 C21 1_555 1_555
C22 C5 1_555 1_555
H13 C22 1_555 1_555
C23 C8 1_555 1_555
H14 C23 1_555 1_555
C24 C18 1_555 1_555
H15 C24 1_555 1_555
C25 C5 1_555 1_555
H16 C25 1_555 1_555
C26 C16 1_555 1_555
H17 C26 1_555 1_555
C27 O3 1_555 1_555
H18 C27 1_555 1_555
H19 C27 1_555 1_555
C28 O1 1_555 1_555
H20 C28 1_555 1_555
H21 C28 1_555 1_555
H22 C28 1_555 1_555
C29 C26 1_555 1_555
H23 C29 1_555 1_555
H24 C29 1_555 1_555
H25 C29 1_555 1_555
C30 C26 1_555 1_555
H26 C30 1_555 1_555
H27 C30 1_555 1_555
H28 C30 1_555 1_555
C4 C17 1_555 1_555
C7 C14 1_555 1_555
C8 C27 1_555 1_555
C10 C15 1_555 1_555
C10 C21 1_555 1_555
C13 C20 1_555 1_555
C15 C17 1_555 1_555
C19 C22 1_555 1_555
C19 C24 1_555 1_555
C23 C25 1_555 1_555

#END
