
#######################################################################
#
#                 Cambridge Crystallographic Data Centre
#                                CCDC 
#
#######################################################################
#
# If this CIF has been generated from an entry in the Cambridge 
# Structural Database, then it will include bibliographic, chemical, 
# crystal, experimental, refinement or atomic coordinate data resulting 
# from the CCDC's data processing and validation procedures.
#
#######################################################################

data_GAYXIP
_chemical_formula_moiety         'C29 H24 N2 O7'
_chemical_name_systematic        
'Methyl 3-(benzyloxy)-4-((3-(benzyloxy)-4-nitrobenzoyl)amino)benzoate'
_symmetry_cell_setting           triclinic
_symmetry_space_group_name_H-M   'P -1'
_symmetry_Int_Tables_number      2
_space_group_name_Hall           '-P 1'
loop_
_symmetry_equiv_pos_site_id
_symmetry_equiv_pos_as_xyz
1 x,y,z
2 -x,-y,-z
_cell_length_a                   7.1879(10)
_cell_length_b                   12.1852(15)
_cell_length_c                   15.8896(19)
_cell_angle_alpha                69.944(5)
_cell_angle_beta                 86.962(6)
_cell_angle_gamma                82.412(6)
_cell_volume                     1295.82
_exptl_crystal_colour            colorless
_exptl_crystal_description       needle
_cell_formula_units_Z            2
loop_
_atom_site_label
_atom_site_type_symbol
_atom_site_fract_x
_atom_site_fract_y
_atom_site_fract_z
O1 O 0.3659(3) 1.56618(16) -0.26023(11)
N1 N 0.2778(3) 1.02929(18) -0.02897(11)
C1 C 0.3839(5) 1.6915(3) -0.29684(18)
H1 H 0.3060 1.7325 -0.2617
H2 H 0.3423 1.7229 -0.3593
H3 H 0.5154 1.7033 -0.2942
O2 O 0.4473(2) 1.56654(16) -0.12344(11)
N2 N 0.1091(3) 0.48824(19) 0.17218(13)
C2 C 0.4014(3) 1.5138(2) -0.17093(15)
O3 O 0.3378(2) 1.13950(15) 0.07913(10)
C3 C 0.3747(3) 1.3862(2) -0.13807(14)
O4 O 0.1659(2) 0.98722(15) -0.14662(10)
C4 C 0.3488(3) 1.3262(2) -0.19762(14)
H4 H 0.3509 1.3665 -0.2605
O5 O 0.1282(2) 0.66932(15) 0.24420(10)
C5 C 0.3200(3) 1.2071(2) -0.16394(14)
H5 H 0.3051 1.1664 -0.2041
O6 O 0.1892(3) 0.44671(17) 0.24611(11)
C6 C 0.3129(3) 1.1478(2) -0.07064(14)
O7 O 0.0138(3) 0.43095(16) 0.14293(12)
C7 C 0.3426(3) 1.2084(2) -0.01052(14)
C8 C 0.3751(3) 1.3260(2) -0.04392(14)
H6 H 0.3973 1.3657 -0.0040
C9 C 0.2042(3) 0.9568(2) -0.06542(14)
C10 C 0.1761(3) 0.8370(2) -0.00045(14)
C11 C 0.1584(3) 0.7473(2) -0.03561(14)
H7 H 0.1620 0.7639 -0.0986
C12 C 0.1355(3) 0.6343(2) 0.02186(15)
H8 H 0.1234 0.5738 -0.0018
C13 C 0.1304(3) 0.6102(2) 0.11502(14)
C14 C 0.1447(3) 0.6989(2) 0.15267(14)
C15 C 0.1671(3) 0.8117(2) 0.09388(14)
H9 H 0.1766 0.8727 0.1173
C16 C 0.3508(4) 1.1977(2) 0.14520(14)
H10 H 0.2535 1.2666 0.1334
H11 H 0.4754 1.2255 0.1409
C17 C 0.3222(4) 1.1098(2) 0.23855(15)
C18 C 0.1449(4) 1.1037(3) 0.27762(19)
H12 H 0.0405 1.1526 0.2446
C19 C 0.1165(5) 1.0270(4) 0.3649(2)
H13 H -0.0063 1.0241 0.3901
C20 C 0.2668(5) 0.9555(3) 0.41409(18)
H14 H 0.2482 0.9036 0.4733
C21 C 0.4445(6) 0.9603(3) 0.3762(2)
H15 H 0.5483 0.9115 0.4098
C22 C 0.4737(4) 1.0361(3) 0.28877(18)
H16 H 0.5965 1.0376 0.2635
C23 C 0.1392(4) 0.7618(2) 0.28251(15)
H17 H 0.0383 0.8276 0.2583
H18 H 0.2618 0.7929 0.2678
C24 C 0.1165(4) 0.7059(2) 0.38305(15)
C25 C -0.0535(5) 0.7156(4) 0.4245(2)
H19 H -0.1597 0.7594 0.3900
C26 C -0.0727(5) 0.6609(4) 0.5185(2)
H20 H -0.1915 0.6682 0.5466
C27 C 0.0806(5) 0.5972(3) 0.56921(19)
H21 H 0.0677 0.5595 0.6320
C28 C 0.2513(6) 0.5888(3) 0.52816(19)
H22 H 0.3582 0.5473 0.5630
C29 C 0.2701(5) 0.6408(3) 0.43530(18)
H23 H 0.3886 0.6317 0.4075
H24 H 0.2865 1.0007 0.0332
loop_
_geom_bond_atom_site_label_1
_geom_bond_atom_site_label_2
_geom_bond_site_symmetry_1
_geom_bond_site_symmetry_2
O1 C1 1_555 1_555
N1 C6 1_555 1_555
C1 H1 1_555 1_555
H2 C1 1_555 1_555
H3 C1 1_555 1_555
O2 C2 1_555 1_555
N2 O6 1_555 1_555
C2 O1 1_555 1_555
O3 C7 1_555 1_555
C3 C2 1_555 1_555
O4 C9 1_555 1_555
C4 C3 1_555 1_555
H4 C4 1_555 1_555
O5 C14 1_555 1_555
C5 C4 1_555 1_555
H5 C5 1_555 1_555
C6 C5 1_555 1_555
O7 N2 1_555 1_555
C7 C6 1_555 1_555
C8 C3 1_555 1_555
H6 C8 1_555 1_555
C9 N1 1_555 1_555
C10 C9 1_555 1_555
C11 C10 1_555 1_555
H7 C11 1_555 1_555
C12 C11 1_555 1_555
H8 C12 1_555 1_555
C13 N2 1_555 1_555
C14 C13 1_555 1_555
C15 C10 1_555 1_555
H9 C15 1_555 1_555
C16 O3 1_555 1_555
H10 C16 1_555 1_555
H11 C16 1_555 1_555
C17 C16 1_555 1_555
C18 C17 1_555 1_555
H12 C18 1_555 1_555
C19 C18 1_555 1_555
H13 C19 1_555 1_555
C20 C19 1_555 1_555
H14 C20 1_555 1_555
C21 C20 1_555 1_555
H15 C21 1_555 1_555
C22 C17 1_555 1_555
H16 C22 1_555 1_555
C23 O5 1_555 1_555
H17 C23 1_555 1_555
H18 C23 1_555 1_555
C24 C23 1_555 1_555
C25 C24 1_555 1_555
H19 C25 1_555 1_555
C26 C25 1_555 1_555
H20 C26 1_555 1_555
C27 C26 1_555 1_555
H21 C27 1_555 1_555
C28 C27 1_555 1_555
H22 C28 1_555 1_555
C29 C24 1_555 1_555
H23 C29 1_555 1_555
H24 N1 1_555 1_555
C7 C8 1_555 1_555
C12 C13 1_555 1_555
C14 C15 1_555 1_555
C21 C22 1_555 1_555
C28 C29 1_555 1_555

#END
