
#######################################################################
#
#                 Cambridge Crystallographic Data Centre
#                                CCDC 
#
#######################################################################
#
# If this CIF has been generated from an entry in the Cambridge 
# Structural Database, then it will include bibliographic, chemical, 
# crystal, experimental, refinement or atomic coordinate data resulting 
# from the CCDC's data processing and validation procedures.
#
#######################################################################

data_GAYXAH
_chemical_formula_moiety         
'C100 H101 F7 N14 O16,4(C6 H5 Cl1),x(C6 H14),x(H2 O1)'
_chemical_name_systematic        
't-Butyl (3-(((8-((3-(((8-((3-(((8-((3-((t-butoxycarbonyl)amino)-2-fluorophenyl)carbamoyl)-4,6-bis(2-methylpropoxy)pyrido(3,2-g)quinolin-2-yl)carbonyl)amino)-2-fluorophenyl)carbamoyl)-10-fluoro-4,6-bis(2-methylpropoxy)pyrido(3,2-g)quinolin-2-yl)carbonyl)amino)-2-fluorophenyl)carbamoyl)-10-fluoro-4,6-bis(2-methylpropoxy)pyrido(3,2-g)quinolin-2-yl)carbonyl)amino)-2-fluorophenyl)carbamate chlorobenzene n-hexane solvate hydrate'
_symmetry_cell_setting           triclinic
_symmetry_space_group_name_H-M   'P -1'
_symmetry_Int_Tables_number      2
_space_group_name_Hall           '-P 1'
loop_
_symmetry_equiv_pos_site_id
_symmetry_equiv_pos_as_xyz
1 x,y,z
2 -x,-y,-z
_cell_length_a                   21.404(4)
_cell_length_b                   21.827(4)
_cell_length_c                   31.385(6)
_cell_angle_alpha                94.18(3)
_cell_angle_beta                 108.49(3)
_cell_angle_gamma                111.08(3)
_cell_volume                     12682.2
_cell_formula_units_Z            4
loop_
_atom_site_label
_atom_site_type_symbol
_atom_site_fract_x
_atom_site_fract_y
_atom_site_fract_z
Cl1 Cl 0.58175(18) 0.84453(17) 0.07668(14)
C88 C 0.7097(7) 0.8411(7) 0.0846(5)
H42 H 0.7309 0.8812 0.1062
C112 C 0.6029(8) 0.7491(7) 0.0317(5)
H58 H 0.5530 0.7277 0.0181
C125 C 0.7234(9) 0.7520(9) 0.0443(5)
H74 H 0.7528 0.7319 0.0393
C131 C 0.6369(7) 0.8100(7) 0.0632(5)
C160 C 0.6481(9) 0.7215(8) 0.0216(6)
H114 H 0.6276 0.6822 -0.0007
C185 C 0.7512(8) 0.8118(8) 0.0737(5)
H151 H 0.8011 0.8343 0.0872
Cl2 Cl 0.3119(2) 0.8662(2) 0.39446(16)
C184 C 0.2181(9) 0.7792(9) 0.4249(6)
H150 H 0.2520 0.7607 0.4337
C203 C 0.1777(12) 0.8596(8) 0.3872(6)
H183 H 0.1824 0.8941 0.3711
C205 C 0.1134(10) 0.8264(13) 0.3989(8)
H184 H 0.0797 0.8449 0.3892
C216 C 0.2308(10) 0.8347(8) 0.4025(7)
C217 C 0.1528(12) 0.7521(9) 0.4338(7)
H204 H 0.1465 0.7170 0.4493
C224 C 0.0930(17) 0.7776(12) 0.4195(8)
H216 H 0.0500 0.7611 0.4245
Cl3 Cl 0.5777(3) 0.5099(3) 0.3277(2)
C204 C 0.5950(10) 0.5585(10) 0.3818(6)
C206 C 0.6483(11) 0.6609(11) 0.4330(8)
H185 H 0.6731 0.7074 0.4403
C210 C 0.5577(15) 0.5284(12) 0.4063(9)
H194 H 0.5240 0.4841 0.3963
C215 C 0.6424(9) 0.6268(12) 0.3943(10)
H203 H 0.6681 0.6468 0.3764
C234 C 0.6217(18) 0.6329(13) 0.4600(7)
H239 H 0.6357 0.6572 0.4895
C236 C 0.5720(19) 0.5670(14) 0.4475(12)
H241 H 0.5485 0.5489 0.4669
F1 F 0.8804(3) 0.7467(3) 0.1229(2)
F2 F 0.9190(3) 0.9740(3) 0.31226(18)
F4 F 0.7359(3) 1.0217(3) 0.11372(19)
F6 F 0.9054(3) 0.9596(3) 0.0890(2)
F7 F 1.1214(3) 0.9536(3) 0.3027(2)
F9 F 0.8177(3) 0.7749(3) 0.2512(2)
O1 O 1.0997(3) 1.2146(3) 0.0597(3)
O2 O 1.2815(4) 1.2305(3) 0.2836(2)
O4 O 1.0381(4) 0.7754(4) 0.0351(3)
O6 O 1.1526(4) 1.0237(4) 0.0265(2)
O7 O 1.3667(4) 1.0704(3) 0.2389(3)
O8 O 1.0831(4) 1.2116(4) 0.3492(3)
F14 F 1.1121(4) 0.7432(3) 0.3100(2)
O12 O 0.5568(4) 0.6706(4) 0.2996(3)
O13 O 0.9207(4) 1.2434(4) 0.1287(3)
O14 O 0.5929(4) 0.4990(4) 0.2159(3)
O18 O 0.7871(4) 0.5145(4) 0.1454(3)
O20 O 0.5195(4) 0.9327(4) 0.1271(3)
O21 O 0.7078(4) 0.9302(3) 0.3551(2)
O23 O 0.5470(4) 1.0384(4) 0.1653(3)
N2 N 0.9851(4) 0.9032(4) 0.0636(3)
N3 N 1.2152(4) 0.9199(4) 0.2742(3)
N5 N 1.0226(4) 1.0982(4) 0.3328(3)
H3 H 1.0256 1.0619 0.3229
N6 N 1.1220(4) 1.0782(4) 0.3110(3)
O29 O 1.2967(4) 0.8197(4) 0.2419(3)
N8 N 0.8464(4) 1.1329(4) 0.1220(3)
H4 H 0.8420 1.0926 0.1137
O31 O 1.0311(6) 0.5834(4) 0.3834(3)
N10 N 0.8274(4) 0.6276(4) 0.1450(3)
H6 H 0.8270 0.6640 0.1571
N11 N 0.7982(4) 0.9396(4) 0.3282(3)
H7 H 0.8095 0.9152 0.3118
N15 N 0.6235(5) 1.0148(5) 0.1376(3)
H9 H 0.6288 0.9812 0.1256
N16 N 0.9606(4) 0.7771(4) 0.0706(3)
H10 H 0.9440 0.8031 0.0807
N18 N 0.9313(4) 1.0924(4) 0.0958(3)
N21 N 0.7459(4) 0.8128(4) 0.2963(3)
N22 N 0.7722(4) 0.6467(4) 0.2054(3)
C1 C 1.0323(5) 1.1097(5) 0.0685(3)
N26 N 1.2107(5) 0.7980(4) 0.2734(3)
H14 H 1.1847 0.8163 0.2802
N27 N 1.0852(7) 0.6271(5) 0.3368(3)
H15 H 1.0667 0.6556 0.3392
C2 C 1.0256(5) 0.8784(5) 0.0507(3)
C4 C 1.2271(5) 1.1174(5) 0.2858(4)
C5 C 1.0772(5) 1.1562(5) 0.3356(3)
C6 C 1.1709(5) 1.0677(5) 0.2963(3)
C7 C 0.9595(5) 0.9986(5) 0.0772(3)
O32 O 1.0723(7) 0.5212(5) 0.3469(4)
C13 C 1.0990(5) 0.9803(6) 0.0387(3)
C14 C 0.7356(6) 1.0796(5) 0.1331(4)
C17 C 0.9476(5) 1.1578(5) 0.0992(3)
C18 C 0.6184(5) 0.7211(5) 0.3010(3)
C19 C 1.2716(5) 1.0383(5) 0.2659(3)
C21 C 0.6415(6) 0.7869(6) 0.3185(4)
H20 H 0.6156 0.8024 0.3320
C22 C 1.0084(5) 0.8051(5) 0.0495(3)
C23 C 0.6931(5) 0.5304(5) 0.1898(3)
H21 H 0.6830 0.4863 0.1775
C25 C 1.0467(5) 1.1785(5) 0.0738(3)
C28 C 1.0037(5) 1.2021(5) 0.0884(3)
H22 H 1.0119 1.2473 0.0911
C29 C 1.0828(5) 0.9131(5) 0.0374(3)
H23 H 1.1085 0.8920 0.0282
C30 C 1.2747(5) 1.1025(5) 0.2708(3)
H24 H 1.3092 1.1361 0.2640
C33 C 0.9725(5) 1.0669(5) 0.0799(3)
C35 C 0.7527(6) 0.5852(5) 0.1865(4)
C36 C 0.4012(6) 0.9447(7) 0.0977(4)
H25 H 0.4202 0.9893 0.1156
H26 H 0.3509 0.9225 0.0926
H27 H 0.4070 0.9471 0.0686
C37 C 0.9072(6) 1.1853(6) 0.1188(4)
C38 C 1.2195(5) 0.9847(5) 0.2773(4)
C40 C 0.8880(6) 1.1239(5) 0.3756(3)
H28 H 0.8807 1.1583 0.3897
C42 C 1.1815(5) 1.1959(5) 0.3105(3)
H29 H 1.1827 1.2389 0.3157
C46 C 1.1301(5) 1.1405(5) 0.3183(3)
C47 C 0.7931(5) 1.1383(5) 0.1366(4)
C50 C 0.8669(5) 0.6338(5) 0.1159(3)
C51 C 1.3193(5) 1.0196(6) 0.2497(3)
C53 C 0.9086(6) 1.0244(5) 0.3342(3)
C54 C 1.0585(5) 1.0127(5) 0.0522(3)
C57 C 1.0019(5) 0.9706(4) 0.0646(3)
C58 C 0.6804(6) 1.0760(6) 0.1459(3)
C59 C 1.0699(5) 1.0773(5) 0.0537(3)
H34 H 1.1060 1.1030 0.0441
C63 C 0.7601(5) 0.7289(5) 0.2536(4)
C64 C 1.2291(5) 1.1836(5) 0.2949(4)
C65 C 1.1694(5) 1.0020(6) 0.2911(4)
C67 C 0.8937(5) 0.6955(5) 0.1038(3)
C68 C 0.9604(6) 1.0887(5) 0.3442(4)
C73 C 0.7896(5) 0.5699(6) 0.1562(3)
C74 C 0.7223(5) 0.7477(6) 0.2772(4)
C76 C 0.6822(5) 1.1375(5) 0.1652(3)
H40 H 0.6443 1.1375 0.1736
C81 C 0.8453(4) 1.0073(5) 0.3428(3)
C84 C 0.9481(5) 1.1384(5) 0.3665(3)
H41 H 0.9824 1.1824 0.3754
C86 C 0.9354(6) 0.7099(5) 0.0777(4)
C93 C 0.8828(6) 0.5833(5) 0.0982(4)
H47 H 0.8665 0.5409 0.1049
C95 C 0.7364(6) 0.6612(5) 0.2318(4)
C97 C 1.4944(6) 1.1813(6) 0.2577(4)
H50 H 1.5217 1.2223 0.2508
H51 H 1.5251 1.1722 0.2839
H52 H 1.4553 1.1858 0.2644
C103 C 0.7065(6) 0.8320(5) 0.3158(4)
C104 C 1.2609(5) 0.9069(5) 0.2597(3)
C109 C 0.6503(6) 0.5443(6) 0.2117(4)
C110 C 0.6356(6) 0.6327(6) 0.2586(4)
H57 H 0.5943 0.6005 0.2602
C111 C 1.2580(6) 0.8365(6) 0.2569(4)
C113 C 0.6734(6) 0.6113(5) 0.2346(4)
C116 C 1.3131(7) 1.0311(6) -0.0010(4)
H60 H 1.2878 0.9905 -0.0243
H61 H 1.3396 1.0222 0.0270
H62 H 1.3458 1.0646 -0.0108
C117 C 1.3130(5) 0.9545(6) 0.2478(4)
H63 H 1.3444 0.9418 0.2383
C118 C 0.5602(6) 0.9978(7) 0.1451(4)
C119 C 0.7376(6) 0.9069(6) 0.3361(4)
C120 C 0.8359(5) 1.0581(5) 0.3641(3)
H64 H 0.7947 1.0490 0.3710
C121 C 0.5132(6) 0.6899(6) 0.3202(4)
H65 H 0.4977 0.7220 0.3049
H66 H 0.5405 0.7105 0.3525
C123 C 0.4551(10) 0.3223(10) 0.1646(7)
H70 H 0.4114 0.2964 0.1688
H71 H 0.4882 0.3011 0.1734
H72 H 0.4445 0.3249 0.1328
C127 C 1.2033(5) 0.9999(5) 0.0189(4)
H75 H 1.1786 0.9609 -0.0063
H76 H 1.2274 0.9870 0.0462
C129 C 1.2587(6) 1.0567(5) 0.0071(4)
H77 H 1.2329 1.0656 -0.0220
C132 C 0.9241(6) 0.5972(5) 0.0699(4)
H79 H 0.9348 0.5636 0.0581
C136 C 1.2870(6) 1.2984(6) 0.2891(4)
H83 H 1.2993 1.3169 0.3212
H84 H 1.2415 1.2997 0.2712
C137 C 0.4888(8) 0.3928(7) 0.1941(5)
H85 H 0.4988 0.3907 0.2266
C139 C 0.6566(6) 0.6965(5) 0.2790(3)
C142 C 0.7389(7) 1.1970(6) 0.1716(4)
H89 H 0.7405 1.2367 0.1858
C146 C 0.7948(6) 1.1982(6) 0.1568(4)
H94 H 0.8327 1.2388 0.1604
C147 C 1.1190(6) 1.2853(6) 0.0661(4)
H95 H 1.1296 1.3046 0.0977
H96 H 1.0803 1.2950 0.0461
C151 C 1.2159(8) 0.6318(7) 0.2825(4)
H101 H 1.2372 0.6045 0.2748
C153 C 1.3464(6) 1.3390(6) 0.2723(4)
H103 H 1.3336 1.3225 0.2395
C154 C 0.4416(7) 0.9060(7) 0.1726(4)
H104 H 0.4569 0.9516 0.1878
H105 H 0.4736 0.8873 0.1895
H106 H 0.3936 0.8801 0.1709
C155 C 0.4473(7) 0.6251(7) 0.3143(4)
H107 H 0.4626 0.5902 0.3256
C156 C 1.4211(6) 1.0589(6) 0.2261(4)
H108 H 1.3994 1.0251 0.1980
H109 H 1.4503 1.0445 0.2503
C166 C 0.9486(6) 0.6594(6) 0.0598(4)
H122 H 0.9745 0.6671 0.0404
C167 C 0.4425(7) 0.9046(8) 0.1238(5)
C168 C 1.1963(7) 0.7339(6) 0.2813(4)
C169 C 1.2944(6) 1.1200(6) 0.0415(4)
H123 H 1.3268 1.1535 0.0315
H124 H 1.3210 1.1131 0.0704
H125 H 1.2588 1.1347 0.0451
C170 C 1.1336(7) 0.6441(7) 0.3130(5)
C172 C 1.2481(8) 1.2977(8) 0.0803(5)
H129 H 1.2335 1.2499 0.0746
H130 H 1.2619 1.3146 0.1125
H131 H 1.2882 1.3182 0.0711
C174 C 1.1690(9) 0.6070(7) 0.3058(5)
H135 H 1.1627 0.5668 0.3157
C175 C 0.9980(13) 0.5319(9) 0.4069(6)
C177 C 1.1478(7) 0.7062(6) 0.2999(4)
C178 C 1.4666(6) 1.1276(6) 0.2192(4)
H139 H 1.5088 1.1229 0.2161
C179 C 1.3552(7) 1.4103(7) 0.2819(5)
H140 H 1.3908 1.4378 0.2711
H141 H 1.3703 1.4258 0.3144
H142 H 1.3100 1.4131 0.2664
C181 C 1.2099(9) 1.3926(9) 0.0611(6)
H144 H 1.1700 1.4018 0.0431
H145 H 1.2499 1.4128 0.0518
H146 H 1.2234 1.4109 0.0930
C187 C 0.5599(7) 0.4328(7) 0.1872(5)
H153 H 0.5922 0.4101 0.1954
H154 H 0.5498 0.4358 0.1552
C188 C 1.1871(8) 1.3137(7) 0.0536(5)
H155 H 1.1734 1.2959 0.0209
C190 C 1.2330(7) 0.6935(7) 0.2700(4)
H159 H 1.2657 0.7084 0.2555
C191 C 1.0618(9) 0.5716(9) 0.3572(5)
C192 C 1.4236(8) 1.1366(7) 0.1713(5)
H160 H 1.4081 1.0971 0.1484
H161 H 1.4540 1.1748 0.1634
H162 H 1.3823 1.1434 0.1726
C193 C 0.4177(6) 0.8331(7) 0.0981(5)
H163 H 0.4458 0.8117 0.1161
H164 H 0.4241 0.8341 0.0692
H165 H 0.3678 0.8084 0.0928
C202 C 1.4150(10) 1.3355(9) 0.3006(6)
H180 H 1.4523 1.3593 0.2897
H181 H 1.4086 1.2894 0.2981
H182 H 1.4283 1.3556 0.3321
C207 C 0.4077(8) 0.6451(8) 0.3428(5)
H186 H 0.4379 0.6579 0.3748
H187 H 0.3636 0.6076 0.3381
H188 H 0.3972 0.6823 0.3332
C208 C 0.4372(9) 0.4299(8) 0.1784(6)
H189 H 0.4586 0.4739 0.1977
H190 H 0.3918 0.4046 0.1808
H191 H 0.4298 0.4339 0.1471
C211 C 0.9655(15) 0.5685(9) 0.4333(6)
H195 H 1.0039 0.6057 0.4566
H196 H 0.9379 0.5375 0.4474
H197 H 0.9348 0.5846 0.4121
C218 C 0.9322(10) 0.4721(7) 0.3697(6)
H205 H 0.9492 0.4482 0.3524
H206 H 0.9018 0.4894 0.3493
H207 H 0.9051 0.4422 0.3845
C223 C 1.0539(12) 0.5108(11) 0.4364(8)
H213 H 1.0921 0.5492 0.4588
H214 H 1.0729 0.4921 0.4174
H215 H 1.0323 0.4776 0.4517
C225 C 0.4016(9) 0.6028(8) 0.2633(5)
H217 H 0.4269 0.5887 0.2471
H218 H 0.3921 0.6396 0.2522
H219 H 0.3569 0.5661 0.2586
F3 F 0.0688(3) 0.9512(3) 0.17772(19)
F5 F 0.0261(3) 0.7517(3) 0.19890(19)
F8 F -0.3236(3) 0.7228(3) 0.1394(2)
F10 F 0.0726(3) 0.9553(3) 0.3950(2)
F11 F -0.1565(3) 0.9373(3) 0.1861(2)
F12 F 0.2981(3) 1.0247(3) 0.3905(2)
F13 F -0.0587(3) 0.7336(3) 0.3190(2)
O3 O 0.1037(4) 1.1885(3) 0.1986(3)
O5 O 0.2430(4) 0.9119(3) 0.1192(3)
O9 O -0.0725(3) 1.2242(3) 0.2653(2)
O10 O -0.4603(4) 0.4800(4) 0.0816(3)
O11 O 0.4961(4) 1.0430(4) 0.3384(3)
O15 O -0.2937(4) 1.0744(3) 0.2755(2)
O16 O 0.0633(4) 0.4958(3) 0.1817(3)
O17 O 0.4381(4) 0.9400(5) 0.3503(3)
O19 O -0.4451(4) 0.8203(4) 0.2154(3)
O22 O -0.1099(4) 0.4995(4) 0.2655(3)
N1 N 0.0693(4) 1.0756(4) 0.1879(3)
H1 H 0.0362 1.0399 0.1893
O24 O -0.1308(4) 1.0077(4) 0.4699(2)
N4 N 0.1597(4) 0.9180(4) 0.1503(3)
H2 H 0.1255 0.8924 0.1579
O25 O -0.2130(4) 0.7587(4) 0.3990(3)
O26 O 0.0842(4) 1.2057(4) 0.4909(3)
O27 O -0.3640(4) 0.5245(4) 0.0591(3)
O28 O 0.2013(4) 0.6619(3) 0.1177(3)
N7 N -0.2766(4) 0.9137(4) 0.2063(3)
N9 N -0.3749(4) 0.7893(4) 0.1839(3)
H5 H -0.3350 0.8060 0.1796
O30 O 0.2980(5) 1.2390(5) 0.4398(3)
N12 N -0.0479(4) 1.0614(4) 0.2048(3)
N13 N 0.4016(4) 1.0188(5) 0.3641(3)
H8 H 0.3689 0.9854 0.3681
N14 N 0.1213(4) 0.7933(4) 0.1576(3)
N17 N -0.0562(5) 0.8910(4) 0.4052(3)
N19 N -0.0164(4) 0.6296(4) 0.2196(3)
N20 N -0.1247(5) 0.7632(4) 0.3716(3)
H11 H -0.0857 0.7907 0.3695
N23 N 0.1571(5) 1.0886(5) 0.4262(3)
N24 N -0.0920(4) 0.6096(4) 0.2728(3)
H12 H -0.0720 0.6453 0.2637
N25 N 0.2762(5) 1.1327(4) 0.4111(3)
H13 H 0.2461 1.0919 0.4068
C3 C -0.2310(5) 1.0330(5) 0.2402(3)
C8 C -0.0168(5) 0.9591(6) 0.4215(3)
C9 C 0.2233(5) 1.1008(4) 0.1505(3)
H16 H 0.2594 1.1351 0.1452
C10 C -0.1773(5) 1.0973(5) 0.2501(3)
H17 H -0.1812 1.1332 0.2652
C11 C -0.1651(6) 0.9878(5) 0.2058(4)
N28 N -0.3883(5) 0.5934(5) 0.1000(3)
H18 H -0.3509 0.6219 0.0968
C12 C 0.1985(5) 0.8872(5) 0.1357(4)
C15 C 0.0519(5) 0.7100(4) 0.1852(3)
C16 C 0.3446(5) 1.0823(5) 0.3866(3)
C20 C 0.1033(5) 0.6192(5) 0.1586(4)
H19 H 0.1200 0.5890 0.1488
C24 C 0.1259(5) 0.6838(5) 0.1500(3)
C26 C 0.1109(6) 1.1708(6) 0.4697(4)
C27 C -0.1099(5) 1.0523(5) 0.2152(3)
C31 C 0.1193(5) 1.0010(5) 0.1687(3)
C32 C 0.0633(6) 1.1338(6) 0.1992(3)
C34 C -0.2248(6) 0.9774(5) 0.2185(4)
C39 C -0.1086(6) 0.9681(5) 0.4484(3)
C41 C 0.1704(5) 0.8136(5) 0.1390(3)
C43 C -0.0619(5) 1.1741(5) 0.2452(3)
C44 C 0.0666(6) 1.1016(5) 0.4548(3)
C45 C -0.0825(6) 0.5551(6) 0.2579(4)
C48 C -0.1181(5) 1.1087(5) 0.2376(3)
C49 C -0.4519(7) 0.4376(7) -0.0092(5)
H30 H -0.4885 0.4263 0.0038
H31 H -0.4594 0.3986 -0.0297
H32 H -0.4543 0.4724 -0.0259
C52 C 0.1754(5) 1.1161(5) 0.1642(3)
H33 H 0.1781 1.1598 0.1668
C55 C 0.0292(5) 0.6462(5) 0.1962(3)
C56 C 0.1693(5) 0.9839(4) 0.1542(3)
C60 C 0.2203(5) 1.0364(5) 0.1440(3)
H35 H 0.2523 1.0277 0.1329
C61 C -0.0020(5) 1.1239(5) 0.2120(3)
C62 C -0.0426(6) 1.3362(5) 0.3011(3)
H36 H -0.0063 1.3825 0.3091
C66 C 0.1934(5) 1.1533(6) 0.4415(4)
C69 C 0.0921(6) 1.0606(6) 0.4320(4)
C70 C -0.0124(6) 0.5203(5) 0.2170(4)
H37 H -0.0288 0.4784 0.2244
C71 C -0.1457(6) 0.9007(6) 0.4324(3)
H38 H -0.1903 0.8788 0.4347
C72 C 0.1736(6) 1.1971(6) 0.4630(4)
H39 H 0.2026 1.2428 0.4725
C75 C -0.4107(7) 0.5275(7) 0.0804(4)
C77 C 0.0553(6) 0.5993(5) 0.1820(4)
C78 C -0.0407(7) 1.0020(6) 0.4441(3)
C79 C -0.4140(6) 0.7225(6) 0.1677(4)
C80 C 0.2605(6) 1.1799(6) 0.4301(4)
C82 C -0.1563(7) 0.7918(6) 0.3942(4)
C83 C -0.3892(5) 0.6835(6) 0.1438(4)
C85 C 0.0989(5) 0.7300(5) 0.1641(3)
C87 C -0.1305(6) 0.6168(5) 0.3013(4)
C89 C -0.1994(6) 0.9811(6) 0.4735(4)
H43 H -0.2025 0.9453 0.4903
H44 H -0.2366 0.9624 0.4430
C90 C -0.0196(6) 1.2917(6) 0.2754(4)
H45 H -0.0171 1.3059 0.2472
H46 H 0.0275 1.2946 0.2942
C91 C 0.4501(6) 1.0044(7) 0.3499(4)
C92 C -0.1154(6) 0.8637(6) 0.4119(4)
C94 C -0.0052(5) 1.1820(5) 0.2317(3)
H48 H 0.0300 1.2244 0.2355
C96 C -0.3428(6) 0.9584(6) 0.2415(4)
H49 H -0.3841 0.9493 0.2483
C98 C -0.1121(5) 0.6809(5) 0.3240(4)
C99 C 0.3991(5) 1.0797(5) 0.3725(4)
C100 C 0.0002(6) 1.0702(6) 0.4612(3)
H53 H -0.0157 1.0956 0.4769
C101 C -0.0360(6) 0.5700(6) 0.2294(4)
C102 C -0.2916(5) 1.0211(5) 0.2533(4)
C105 C -0.1467(6) 0.6956(6) 0.3515(4)
C106 C 0.0484(6) 0.9912(6) 0.4173(4)
C107 C -0.3575(6) 1.0637(6) 0.2863(4)
H54 H -0.3640 1.0306 0.3053
H55 H -0.4000 1.0483 0.2584
C108 C 0.2008(6) 0.7738(5) 0.1241(4)
H56 H 0.2350 0.7914 0.1110
C114 C -0.3329(6) 0.9062(5) 0.2185(4)
C115 C 0.1075(6) 0.4073(6) 0.1872(4)
H59 H 0.0918 0.3972 0.1536
C122 C 0.5631(7) 0.9508(7) 0.3774(4)
H67 H 0.5826 0.9952 0.3720
H68 H 0.5942 0.9287 0.3764
H69 H 0.5592 0.9536 0.4071
C124 C -0.2198(6) 0.5773(6) 0.3334(4)
H73 H -0.2584 0.5423 0.3357
C126 C -0.3923(6) 0.8334(6) 0.2066(4)
C128 C -0.4209(6) 0.6184(6) 0.1247(4)
C130 C -0.1838(6) 0.5632(5) 0.3069(4)
H78 H -0.1950 0.5193 0.2935
C133 C 0.1871(7) 0.4598(7) 0.2064(5)
H80 H 0.1897 0.5002 0.1954
H81 H 0.2161 0.4419 0.1962
H82 H 0.2047 0.4697 0.2394
C134 C 0.1212(5) 1.0657(4) 0.1745(3)
C135 C 0.0340(6) 0.5347(6) 0.1944(4)
C138 C -0.4841(6) 0.5825(6) 0.1309(4)
H86 H -0.5092 0.5367 0.1185
C140 C 0.1794(6) 0.7071(5) 0.1290(4)
C141 C 0.0576(6) 0.4347(6) 0.1990(4)
H87 H 0.0083 0.4014 0.1854
H88 H 0.0708 0.4443 0.2321
C143 C -0.3761(9) 0.4095(7) 0.0587(5)
H90 H -0.4160 0.3977 0.0688
H91 H -0.3318 0.4276 0.0849
H92 H -0.3791 0.3701 0.0408
C144 C 0.3353(6) 1.1404(6) 0.3972(4)
C145 C 0.4436(6) 1.1411(6) 0.3687(4)
H93 H 0.4807 1.1427 0.3589
C149 C -0.3285(7) 1.1843(6) 0.2877(4)
H98 H -0.3191 1.2259 0.3062
H99 H -0.3690 1.1739 0.2597
H100 H -0.2870 1.1882 0.2806
C150 C 0.4867(7) 0.9099(8) 0.3395(5)
C152 C -0.1999(7) 0.6423(7) 0.3566(4)
H102 H -0.2232 0.6494 0.3757
C157 C -0.5093(6) 0.6156(6) 0.1559(4)
H110 H -0.5508 0.5902 0.1607
C158 C 0.2610(6) 0.6858(6) 0.1006(4)
H111 H 0.3037 0.7205 0.1239
H112 H 0.2475 0.7032 0.0732
C159 C -0.3440(6) 1.1321(6) 0.3123(4)
H113 H -0.3890 1.1272 0.3163
C162 C 0.2748(9) 0.6188(9) 0.0894(6)
H116 H 0.2356 0.5858 0.0625
C163 C -0.2115(6) 1.0353(6) 0.4979(4)
H117 H -0.1712 1.0561 0.5275
C164 C -0.4786(6) 0.6814(6) 0.1737(4)
H118 H -0.4991 0.7005 0.1899
C165 C 0.4823(7) 0.9088(8) 0.2912(4)
H119 H 0.5035 0.9539 0.2873
H120 H 0.4328 0.8879 0.2708
H121 H 0.5079 0.8837 0.2842
C171 C 0.1001(6) 0.3432(6) 0.2026(4)
H126 H 0.1322 0.3268 0.1951
H127 H 0.0514 0.3106 0.1875
H128 H 0.1121 0.3507 0.2353
C173 C -0.1149(6) 1.3353(6) 0.2717(4)
H132 H -0.1119 1.3501 0.2441
H133 H -0.1272 1.3647 0.2885
H134 H -0.1513 1.2904 0.2638
C176 C 0.4556(8) 0.8403(7) 0.3471(4)
H136 H 0.4600 0.8423 0.3787
H137 H 0.4811 0.8152 0.3401
H138 H 0.4056 0.8186 0.3276
C180 C 0.3827(6) 1.2008(6) 0.3920(4)
H143 H 0.3772 1.2405 0.3978
C182 C 0.1254(9) 1.2760(8) 0.5099(6)
H147 H 0.1177 1.2884 0.5376
H148 H 0.1763 1.2865 0.5180
C183 C 0.4365(6) 1.2002(6) 0.3783(4)
H149 H 0.4689 1.2401 0.3754
C189 C -0.2805(6) 1.0057(6) 0.5072(4)
H156 H -0.2771 0.9738 0.5264
H157 H -0.3204 0.9836 0.4787
H158 H -0.2875 1.0410 0.5226
C194 C 0.2911(9) 0.5916(9) 0.1264(6)
H166 H 0.2979 0.5520 0.1180
H167 H 0.2524 0.5800 0.1377
H168 H 0.3346 0.6236 0.1500
C195 C -0.2129(7) 1.0880(7) 0.4709(5)
H169 H -0.2178 1.1233 0.4877
H170 H -0.2529 1.0688 0.4421
H171 H -0.1688 1.1058 0.4653
C197 C -0.3782(7) 0.4623(7) 0.0291(5)
C198 C -0.0463(8) 1.3139(7) 0.3451(5)
H173 H -0.0002 1.3154 0.3636
H174 H -0.0821 1.2688 0.3378
H175 H -0.0589 1.3433 0.3617
C199 C -0.2859(8) 1.1522(8) 0.3608(5)
H176 H -0.2977 1.1165 0.3768
H177 H -0.2838 1.1922 0.3772
H178 H -0.2400 1.1605 0.3585
C220 C -0.3135(9) 0.4826(9) 0.0143(6)
H209 H -0.2699 0.4990 0.0411
H210 H -0.3134 0.5173 -0.0028
H211 H -0.3163 0.4443 -0.0046
C229 C 0.0212(12) 1.2969(11) 0.4737(7)
H226 H 0.0050 1.3258 0.4558
H227 H 0.0200 1.3056 0.5038
H228 H -0.0097 1.2508 0.4589
C232 C 0.3512(18) 0.6567(17) 0.0793(12)
H233 H 0.3407 0.6749 0.0523
H234 H 0.3706 0.6244 0.0749
H235 H 0.3857 0.6923 0.1052
C233 C 0.154(2) 1.3929(19) 0.5093(12)
H236 H 0.1370 1.4225 0.4927
H237 H 0.2040 1.4052 0.5138
H238 H 0.1491 1.3962 0.5386
C235 C 0.104(2) 1.3111(19) 0.4781(13)
H240 H 0.1104 1.3017 0.4490
Cl4 Cl 0.3951(3) 0.4076(3) 0.4246(2)
C148 C 0.1899(9) 0.3749(8) 0.3779(5)
H97 H 0.1470 0.3407 0.3758
C161 C 0.2508(9) 0.3669(6) 0.3973(5)
H115 H 0.2484 0.3267 0.4062
C186 C 0.3175(11) 0.4774(8) 0.3891(6)
H152 H 0.3613 0.5126 0.3939
C200 C 0.1861(9) 0.4325(8) 0.3602(6)
H179 H 0.1431 0.4363 0.3451
C222 C 0.3150(8) 0.4151(12) 0.4043(6)
C227 C 0.2542(14) 0.4826(10) 0.3678(8)
H222 H 0.2560 0.5219 0.3577
Cl5 Cl 0.7161(5) 0.3701(4) 0.2870(3)
C196 C 0.6503(13) 0.3049(11) 0.1359(8)
H172 H 0.6395 0.2970 0.1043
C201 C 0.6891(13) 0.3391(11) 0.2264(6)
C212 C 0.7349(9) 0.3791(7) 0.2084(9)
H198 H 0.7762 0.4169 0.2260
C213 C 0.6041(19) 0.2647(15) 0.1484(16)
H199 H 0.5629 0.2289 0.1283
C219 C 0.7142(13) 0.3583(10) 0.1608(10)
H208 H 0.7440 0.3811 0.1460
C221 C 0.6208(9) 0.2794(10) 0.1950(11)
H212 H 0.5899 0.2525 0.2077
Cl6 Cl 0.8380(7) 0.3837(4) 0.0957(4)
C243 C 0.8540(10) 0.2420(11) 0.0060(8)
H247 H 0.8847 0.2363 -0.0077
C244 C 0.7894(10) 0.1887(7) -0.0005(5)
H248 H 0.7769 0.1474 -0.0186
C245 C 0.7435(7) 0.1973(8) 0.0200(5)
H249 H 0.7003 0.1617 0.0156
C246 C 0.7621(11) 0.2591(10) 0.0471(5)
H250 H 0.7314 0.2648 0.0608
C247 C 0.8267(14) 0.3123(8) 0.0537(7)
C248 C 0.8726(11) 0.3038(10) 0.0331(10)
H251 H 0.9158 0.3394 0.0375
C209 C 0.5584(12) 0.8058(11) 0.4689(8)
H192 H 0.5147 0.7799 0.4426
H193 H 0.5606 0.7775 0.4913
C214 C 0.3986(10) 0.8772(10) 0.5320(7)
H200 H 0.3809 0.9090 0.5405
H201 H 0.4146 0.8583 0.5579
H202 H 0.3608 0.8421 0.5071
C226 C 0.4622(11) 0.9131(10) 0.5170(8)
H220 H 0.5020 0.9485 0.5416
H221 H 0.4476 0.9314 0.4901
C228 C 0.6248(10) 0.8130(9) 0.4519(6)
H223 H 0.6201 0.7692 0.4399
H224 H 0.6697 0.8353 0.4775
H225 H 0.6236 0.8387 0.4284
C230 C 0.4812(13) 0.8517(11) 0.5058(9)
H229 H 0.4906 0.8330 0.5330
H230 H 0.4388 0.8175 0.4820
C231 C 0.5459(12) 0.8645(11) 0.4898(8)
H231 H 0.5893 0.8911 0.5162
H232 H 0.5419 0.8925 0.4674
C237 C 0.6282(9) 0.2961(13) 0.4040(11)
H242 H 0.5890 0.2607 0.4053
C238 C 0.6978(12) 0.3022(10) 0.4279(8)
H243 H 0.7051 0.2710 0.4453
C239 C 0.7564(8) 0.3551(11) 0.4259(7)
C240 C 0.7455(15) 0.4018(12) 0.3998(11)
H244 H 0.7848 0.4371 0.3985
C241 C 0.676(2) 0.3956(19) 0.3759(12)
H245 H 0.6687 0.4269 0.3585
C242 C 0.6173(12) 0.343(2) 0.3780(11)
H246 H 0.5707 0.3386 0.3619
Cl7 Cl 0.8480(7) 0.3434(8) 0.4470(4)
O33 O 1.0247(8) 0.4739(8) 0.0370(6)
O34 O 0.2519(8) 0.6267(6) 0.4326(4)
O35 O 0.5449(7) 0.3801(7) 0.4814(5)
O36 O 0.5246(13) 0.0594(12) 0.0195(8)
O37 O 0.6259(9) 0.3577(9) 0.5293(6)
O38 O 0.3025(9) 0.5592(9) 0.4853(6)
loop_
_geom_bond_atom_site_label_1
_geom_bond_atom_site_label_2
_geom_bond_site_symmetry_1
_geom_bond_site_symmetry_2
Cl1 C131 1_555 1_555
Cl2 C216 1_555 1_555
Cl3 C204 1_555 1_555
F1 C67 1_555 1_555
F2 C53 1_555 1_555
F3 C31 1_555 1_555
F4 C14 1_555 1_555
F5 C15 1_555 1_555
Cl4 C222 1_555 1_555
F6 C7 1_555 1_555
F7 C65 1_555 1_555
F8 C83 1_555 1_555
F9 C63 1_555 1_555
F10 C106 1_555 1_555
F11 C11 1_555 1_555
F12 C16 1_555 1_555
O1 C25 1_555 1_555
O2 C64 1_555 1_555
F13 C98 1_555 1_555
O3 C32 1_555 1_555
O4 C22 1_555 1_555
Cl5 C201 1_555 1_555
O5 C12 1_555 1_555
O6 C13 1_555 1_555
O7 C51 1_555 1_555
O8 C5 1_555 1_555
O9 C43 1_555 1_555
O10 C75 1_555 1_555
F14 C177 1_555 1_555
O11 C91 1_555 1_555
O12 C18 1_555 1_555
O13 C37 1_555 1_555
O14 C109 1_555 1_555
O15 C102 1_555 1_555
O16 C135 1_555 1_555
O17 C91 1_555 1_555
O18 C73 1_555 1_555
O19 C126 1_555 1_555
O20 C118 1_555 1_555
O21 C119 1_555 1_555
O22 C45 1_555 1_555
N1 H1 1_555 1_555
O23 C118 1_555 1_555
N2 C2 1_555 1_555
O24 C39 1_555 1_555
N3 C38 1_555 1_555
N4 H2 1_555 1_555
N5 H3 1_555 1_555
O25 C82 1_555 1_555
O26 C26 1_555 1_555
O27 C75 1_555 1_555
O28 C140 1_555 1_555
N6 C6 1_555 1_555
N7 C34 1_555 1_555
O29 C111 1_555 1_555
N8 H4 1_555 1_555
N9 H5 1_555 1_555
O30 C80 1_555 1_555
O31 C175 1_555 1_555
N10 H6 1_555 1_555
N11 H7 1_555 1_555
N12 C27 1_555 1_555
N13 H8 1_555 1_555
N14 C41 1_555 1_555
N15 H9 1_555 1_555
N16 H10 1_555 1_555
N17 C8 1_555 1_555
N18 C17 1_555 1_555
N19 C55 1_555 1_555
N20 H11 1_555 1_555
N21 C74 1_555 1_555
N22 C35 1_555 1_555
N23 C66 1_555 1_555
C1 C25 1_555 1_555
N24 H12 1_555 1_555
N25 H13 1_555 1_555
N26 H14 1_555 1_555
N27 H15 1_555 1_555
C2 C22 1_555 1_555
C3 C10 1_555 1_555
C4 C6 1_555 1_555
C5 N5 1_555 1_555
C6 C65 1_555 1_555
C7 C33 1_555 1_555
O32 C191 1_555 1_555
C8 C78 1_555 1_555
C9 H16 1_555 1_555
C10 H17 1_555 1_555
C11 C27 1_555 1_555
N28 H18 1_555 1_555
C12 N4 1_555 1_555
C13 C29 1_555 1_555
C14 C47 1_555 1_555
C15 C55 1_555 1_555
C16 C99 1_555 1_555
C17 C28 1_555 1_555
C18 C21 1_555 1_555
C19 C30 1_555 1_555
C20 H19 1_555 1_555
C21 H20 1_555 1_555
C22 N16 1_555 1_555
C23 H21 1_555 1_555
C24 C20 1_555 1_555
C25 C28 1_555 1_555
C26 C44 1_555 1_555
C27 C48 1_555 1_555
C28 H22 1_555 1_555
C29 C2 1_555 1_555
H23 C29 1_555 1_555
C30 C4 1_555 1_555
H24 C30 1_555 1_555
C31 C56 1_555 1_555
C32 N1 1_555 1_555
C33 N18 1_555 1_555
C34 C3 1_555 1_555
C35 C23 1_555 1_555
C36 H25 1_555 1_555
H26 C36 1_555 1_555
H27 C36 1_555 1_555
C37 N8 1_555 1_555
C38 C19 1_555 1_555
C39 C71 1_555 1_555
C40 H28 1_555 1_555
C41 C12 1_555 1_555
C42 H29 1_555 1_555
C43 C48 1_555 1_555
C44 C69 1_555 1_555
C45 N24 1_555 1_555
C46 N6 1_555 1_555
C47 N8 1_555 1_555
C48 C10 1_555 1_555
C49 H30 1_555 1_555
H31 C49 1_555 1_555
H32 C49 1_555 1_555
C50 N10 1_555 1_555
C51 C19 1_555 1_555
C52 C9 1_555 1_555
H33 C52 1_555 1_555
C53 C68 1_555 1_555
C54 C13 1_555 1_555
C55 C77 1_555 1_555
C56 N4 1_555 1_555
C57 N2 1_555 1_555
C58 N15 1_555 1_555
C59 C1 1_555 1_555
H34 C59 1_555 1_555
C60 C9 1_555 1_555
H35 C60 1_555 1_555
C61 N12 1_555 1_555
C62 H36 1_555 1_555
C63 C74 1_555 1_555
C64 C4 1_555 1_555
C65 C38 1_555 1_555
C66 C72 1_555 1_555
C67 C50 1_555 1_555
C68 N5 1_555 1_555
C69 N23 1_555 1_555
C70 H37 1_555 1_555
C71 H38 1_555 1_555
C72 C26 1_555 1_555
H39 C72 1_555 1_555
C73 N10 1_555 1_555
C74 C139 1_555 1_555
C75 N28 1_555 1_555
C76 C58 1_555 1_555
H40 C76 1_555 1_555
C77 C20 1_555 1_555
C78 C39 1_555 1_555
C79 N9 1_555 1_555
C80 N25 1_555 1_555
C81 N11 1_555 1_555
C82 N20 1_555 1_555
C83 C79 1_555 1_555
C84 C40 1_555 1_555
H41 C84 1_555 1_555
C85 N14 1_555 1_555
C86 N16 1_555 1_555
C87 N24 1_555 1_555
C88 H42 1_555 1_555
C89 O24 1_555 1_555
H43 C89 1_555 1_555
H44 C89 1_555 1_555
C90 O9 1_555 1_555
H45 C90 1_555 1_555
H46 C90 1_555 1_555
C91 N13 1_555 1_555
C92 N17 1_555 1_555
C93 C50 1_555 1_555
H47 C93 1_555 1_555
C94 C43 1_555 1_555
H48 C94 1_555 1_555
C95 N22 1_555 1_555
C96 H49 1_555 1_555
C97 H50 1_555 1_555
H51 C97 1_555 1_555
H52 C97 1_555 1_555
C98 C87 1_555 1_555
C99 N13 1_555 1_555
C100 C44 1_555 1_555
H53 C100 1_555 1_555
C101 N19 1_555 1_555
C102 C3 1_555 1_555
C103 N21 1_555 1_555
C104 N3 1_555 1_555
C105 N20 1_555 1_555
C106 C8 1_555 1_555
C107 O15 1_555 1_555
H54 C107 1_555 1_555
H55 C107 1_555 1_555
C108 C41 1_555 1_555
H56 C108 1_555 1_555
C109 C23 1_555 1_555
C110 H57 1_555 1_555
C111 N26 1_555 1_555
C112 H58 1_555 1_555
C113 C95 1_555 1_555
C114 N7 1_555 1_555
C115 H59 1_555 1_555
C116 H60 1_555 1_555
H61 C116 1_555 1_555
H62 C116 1_555 1_555
C117 C51 1_555 1_555
H63 C117 1_555 1_555
C118 N15 1_555 1_555
C119 N11 1_555 1_555
C120 C40 1_555 1_555
H64 C120 1_555 1_555
C121 O12 1_555 1_555
H65 C121 1_555 1_555
H66 C121 1_555 1_555
C122 H67 1_555 1_555
H68 C122 1_555 1_555
H69 C122 1_555 1_555
C123 H70 1_555 1_555
H71 C123 1_555 1_555
H72 C123 1_555 1_555
C124 H73 1_555 1_555
C125 H74 1_555 1_555
C126 N9 1_555 1_555
C127 O6 1_555 1_555
H75 C127 1_555 1_555
H76 C127 1_555 1_555
C128 N28 1_555 1_555
C129 C116 1_555 1_555
H77 C129 1_555 1_555
C130 C87 1_555 1_555
H78 C130 1_555 1_555
C131 C88 1_555 1_555
C132 C93 1_555 1_555
H79 C132 1_555 1_555
C133 C115 1_555 1_555
H80 C133 1_555 1_555
H81 C133 1_555 1_555
H82 C133 1_555 1_555
C134 N1 1_555 1_555
C135 C70 1_555 1_555
C136 O2 1_555 1_555
H83 C136 1_555 1_555
H84 C136 1_555 1_555
C137 C123 1_555 1_555
H85 C137 1_555 1_555
C138 C128 1_555 1_555
H86 C138 1_555 1_555
C139 C18 1_555 1_555
C140 C24 1_555 1_555
C141 O16 1_555 1_555
H87 C141 1_555 1_555
H88 C141 1_555 1_555
C142 C76 1_555 1_555
H89 C142 1_555 1_555
C143 H90 1_555 1_555
H91 C143 1_555 1_555
H92 C143 1_555 1_555
C144 N25 1_555 1_555
C145 C99 1_555 1_555
H93 C145 1_555 1_555
C146 C47 1_555 1_555
H94 C146 1_555 1_555
C147 O1 1_555 1_555
H95 C147 1_555 1_555
H96 C147 1_555 1_555
C148 H97 1_555 1_555
C149 H98 1_555 1_555
H99 C149 1_555 1_555
H100 C149 1_555 1_555
C150 O17 1_555 1_555
C151 H101 1_555 1_555
C152 C105 1_555 1_555
H102 C152 1_555 1_555
C153 C136 1_555 1_555
H103 C153 1_555 1_555
C154 H104 1_555 1_555
H105 C154 1_555 1_555
H106 C154 1_555 1_555
C155 C121 1_555 1_555
H107 C155 1_555 1_555
C156 O7 1_555 1_555
H108 C156 1_555 1_555
H109 C156 1_555 1_555
C157 C138 1_555 1_555
H110 C157 1_555 1_555
C158 O28 1_555 1_555
H111 C158 1_555 1_555
H112 C158 1_555 1_555
C159 C107 1_555 1_555
H113 C159 1_555 1_555
C160 C112 1_555 1_555
H114 C160 1_555 1_555
C161 C148 1_555 1_555
H115 C161 1_555 1_555
C162 C158 1_555 1_555
H116 C162 1_555 1_555
C163 C89 1_555 1_555
H117 C163 1_555 1_555
C164 C79 1_555 1_555
H118 C164 1_555 1_555
C165 C150 1_555 1_555
H119 C165 1_555 1_555
H120 C165 1_555 1_555
H121 C165 1_555 1_555
C166 C86 1_555 1_555
H122 C166 1_555 1_555
C167 O20 1_555 1_555
C168 N26 1_555 1_555
C169 C129 1_555 1_555
H123 C169 1_555 1_555
H124 C169 1_555 1_555
H125 C169 1_555 1_555
C170 N27 1_555 1_555
Cl6 C247 1_555 1_555
C171 C115 1_555 1_555
H126 C171 1_555 1_555
H127 C171 1_555 1_555
H128 C171 1_555 1_555
C172 H129 1_555 1_555
H130 C172 1_555 1_555
H131 C172 1_555 1_555
C173 C62 1_555 1_555
H132 C173 1_555 1_555
H133 C173 1_555 1_555
H134 C173 1_555 1_555
C174 C151 1_555 1_555
H135 C174 1_555 1_555
C175 C211 1_555 1_555
C176 C150 1_555 1_555
H136 C176 1_555 1_555
H137 C176 1_555 1_555
H138 C176 1_555 1_555
C177 C168 1_555 1_555
C178 C97 1_555 1_555
H139 C178 1_555 1_555
C179 C153 1_555 1_555
H140 C179 1_555 1_555
H141 C179 1_555 1_555
H142 C179 1_555 1_555
C180 C144 1_555 1_555
H143 C180 1_555 1_555
C181 H144 1_555 1_555
H145 C181 1_555 1_555
H146 C181 1_555 1_555
C182 O26 1_555 1_555
H147 C182 1_555 1_555
H148 C182 1_555 1_555
C183 C145 1_555 1_555
H149 C183 1_555 1_555
C184 H150 1_555 1_555
C185 C88 1_555 1_555
H151 C185 1_555 1_555
C186 H152 1_555 1_555
C187 O14 1_555 1_555
H153 C187 1_555 1_555
H154 C187 1_555 1_555
C188 C147 1_555 1_555
H155 C188 1_555 1_555
C189 C163 1_555 1_555
H156 C189 1_555 1_555
H157 C189 1_555 1_555
H158 C189 1_555 1_555
C190 C151 1_555 1_555
H159 C190 1_555 1_555
C191 O31 1_555 1_555
C192 C178 1_555 1_555
H160 C192 1_555 1_555
H161 C192 1_555 1_555
H162 C192 1_555 1_555
C193 C167 1_555 1_555
H163 C193 1_555 1_555
H164 C193 1_555 1_555
H165 C193 1_555 1_555
C194 C162 1_555 1_555
H166 C194 1_555 1_555
H167 C194 1_555 1_555
H168 C194 1_555 1_555
C195 C163 1_555 1_555
H169 C195 1_555 1_555
H170 C195 1_555 1_555
H171 C195 1_555 1_555
C196 H172 1_555 1_555
C197 O27 1_555 1_555
C198 C62 1_555 1_555
H173 C198 1_555 1_555
H174 C198 1_555 1_555
H175 C198 1_555 1_555
C199 C159 1_555 1_555
H176 C199 1_555 1_555
H177 C199 1_555 1_555
H178 C199 1_555 1_555
C200 C148 1_555 1_555
H179 C200 1_555 1_555
C201 C212 1_555 1_555
C202 C153 1_555 1_555
H180 C202 1_555 1_555
H181 C202 1_555 1_555
H182 C202 1_555 1_555
C203 H183 1_555 1_555
C204 C210 1_555 1_555
C205 C203 1_555 1_555
H184 C205 1_555 1_555
C206 H185 1_555 1_555
C207 C155 1_555 1_555
H186 C207 1_555 1_555
H187 C207 1_555 1_555
H188 C207 1_555 1_555
C208 C137 1_555 1_555
H189 C208 1_555 1_555
H190 C208 1_555 1_555
H191 C208 1_555 1_555
C209 H192 1_555 1_555
H193 C209 1_555 1_555
C210 H194 1_555 1_555
C211 H195 1_555 1_555
H196 C211 1_555 1_555
H197 C211 1_555 1_555
C212 H198 1_555 1_555
C213 C196 1_555 1_555
H199 C213 1_555 1_555
C214 H200 1_555 1_555
H201 C214 1_555 1_555
H202 C214 1_555 1_555
C215 C204 1_555 1_555
H203 C215 1_555 1_555
C216 C184 1_555 1_555
C217 C184 1_555 1_555
H204 C217 1_555 1_555
C218 C175 1_555 1_555
H205 C218 1_555 1_555
H206 C218 1_555 1_555
H207 C218 1_555 1_555
C219 C196 1_555 1_555
H208 C219 1_555 1_555
C220 C197 1_555 1_555
H209 C220 1_555 1_555
H210 C220 1_555 1_555
H211 C220 1_555 1_555
C221 C201 1_555 1_555
H212 C221 1_555 1_555
C222 C161 1_555 1_555
C223 C175 1_555 1_555
H213 C223 1_555 1_555
H214 C223 1_555 1_555
H215 C223 1_555 1_555
C224 C205 1_555 1_555
H216 C224 1_555 1_555
C225 C155 1_555 1_555
H217 C225 1_555 1_555
H218 C225 1_555 1_555
H219 C225 1_555 1_555
C226 C214 1_555 1_555
H220 C226 1_555 1_555
H221 C226 1_555 1_555
C227 C186 1_555 1_555
H222 C227 1_555 1_555
C228 C209 1_555 1_555
H223 C228 1_555 1_555
H224 C228 1_555 1_555
H225 C228 1_555 1_555
C229 H226 1_555 1_555
H227 C229 1_555 1_555
H228 C229 1_555 1_555
C230 C226 1_555 1_555
H229 C230 1_555 1_555
H230 C230 1_555 1_555
C231 C209 1_555 1_555
H231 C231 1_555 1_555
H232 C231 1_555 1_555
C232 C162 1_555 1_555
H233 C232 1_555 1_555
H234 C232 1_555 1_555
H235 C232 1_555 1_555
C233 H236 1_555 1_555
H237 C233 1_555 1_555
H238 C233 1_555 1_555
C234 C206 1_555 1_555
H239 C234 1_555 1_555
C235 C182 1_555 1_555
H240 C235 1_555 1_555
C236 C210 1_555 1_555
H241 C236 1_555 1_555
C237 H242 1_555 1_555
C238 C237 1_555 1_555
H243 C238 1_555 1_555
C239 C238 1_555 1_555
C240 C239 1_555 1_555
H244 C240 1_555 1_555
C241 C240 1_555 1_555
H245 C241 1_555 1_555
C242 C237 1_555 1_555
H246 C242 1_555 1_555
Cl7 C239 1_555 1_555
C243 H247 1_555 1_555
C244 C243 1_555 1_555
H248 C244 1_555 1_555
C245 C244 1_555 1_555
H249 C245 1_555 1_555
C246 C245 1_555 1_555
H250 C246 1_555 1_555
C247 C246 1_555 1_555
C248 C243 1_555 1_555
H251 C248 1_555 1_555
C1 C33 1_555 1_555
N27 C191 1_555 1_555
C5 C46 1_555 1_555
C7 C57 1_555 1_555
C11 C34 1_555 1_555
C14 C58 1_555 1_555
C15 C85 1_555 1_555
C16 C144 1_555 1_555
C17 C37 1_555 1_555
C21 C103 1_555 1_555
C24 C85 1_555 1_555
C31 C134 1_555 1_555
C32 C61 1_555 1_555
C35 C73 1_555 1_555
C36 C167 1_555 1_555
C42 C46 1_555 1_555
C42 C64 1_555 1_555
C45 C101 1_555 1_555
C49 C197 1_555 1_555
C52 C134 1_555 1_555
C53 C81 1_555 1_555
C54 C57 1_555 1_555
C54 C59 1_555 1_555
C56 C60 1_555 1_555
C61 C94 1_555 1_555
C62 C90 1_555 1_555
C63 C95 1_555 1_555
C66 C80 1_555 1_555
C67 C86 1_555 1_555
C68 C84 1_555 1_555
C69 C106 1_555 1_555
C70 C101 1_555 1_555
C71 C92 1_555 1_555
C77 C135 1_555 1_555
C78 C100 1_555 1_555
C81 C120 1_555 1_555
C82 C92 1_555 1_555
C83 C128 1_555 1_555
C96 C102 1_555 1_555
C96 C114 1_555 1_555
C98 C105 1_555 1_555
C103 C119 1_555 1_555
C104 C111 1_555 1_555
C104 C117 1_555 1_555
C108 C140 1_555 1_555
C109 C113 1_555 1_555
C110 C113 1_555 1_555
C110 C139 1_555 1_555
C112 C131 1_555 1_555
C114 C126 1_555 1_555
C115 C141 1_555 1_555
C122 C150 1_555 1_555
C124 C130 1_555 1_555
C124 C152 1_555 1_555
C125 C160 1_555 1_555
C125 C185 1_555 1_555
C127 C129 1_555 1_555
C132 C166 1_555 1_555
C137 C187 1_555 1_555
C142 C146 1_555 1_555
C143 C197 1_555 1_555
C149 C159 1_555 1_555
C154 C167 1_555 1_555
C156 C178 1_555 1_555
C157 C164 1_555 1_555
C168 C190 1_555 1_555
C170 C174 1_555 1_555
C170 C177 1_555 1_555
C172 C188 1_555 1_555
C180 C183 1_555 1_555
C181 C188 1_555 1_555
C186 C222 1_555 1_555
C200 C227 1_555 1_555
C203 C216 1_555 1_555
C206 C215 1_555 1_555
C212 C219 1_555 1_555
C213 C221 1_555 1_555
C217 C224 1_555 1_555
C229 C235 1_555 1_555
C230 C231 1_555 1_555
C233 C235 1_555 1_555
C234 C236 1_555 1_555
C241 C242 1_555 1_555
C247 C248 1_555 1_555

#END
