
#######################################################################
#
#                 Cambridge Crystallographic Data Centre
#                                CCDC 
#
#######################################################################
#
# If this CIF has been generated from an entry in the Cambridge 
# Structural Database, then it will include bibliographic, chemical, 
# crystal, experimental, refinement or atomic coordinate data resulting 
# from the CCDC's data processing and validation procedures.
#
#######################################################################

data_GAZBOY01
_chemical_formula_moiety         'C24 H56 N2 Si4'
_chemical_name_systematic        
1,4-Di-t-butyl-1,4-bis(trimethylsilylimino)-2,3-bis(trimethylsilyl)butane
_symmetry_cell_setting           triclinic
_symmetry_space_group_name_H-M   'P -1'
_symmetry_Int_Tables_number      2
_space_group_name_Hall           '-P 1'
loop_
_symmetry_equiv_pos_site_id
_symmetry_equiv_pos_as_xyz
1 x,y,z
2 -x,-y,-z
_cell_length_a                   8.9431(14)
_cell_length_b                   9.7070(15)
_cell_length_c                   10.2357(16)
_cell_angle_alpha                94.650(3)
_cell_angle_beta                 100.630(3)
_cell_angle_gamma                114.551(2)
_cell_volume                     781.905
_exptl_crystal_colour            colorless
_exptl_crystal_description       block
_cell_formula_units_Z            1
loop_
_atom_site_label
_atom_site_type_symbol
_atom_site_fract_x
_atom_site_fract_y
_atom_site_fract_z
Si1 Si 0.25050(7) 0.13680(6) -0.06699(6)
Si2 Si 0.16597(8) 0.38086(7) 0.29622(6)
N1 N 0.1437(2) 0.2161(2) 0.20573(18)
C1 C 0.1636(2) 0.0974(2) 0.17662(19)
C2 C 0.0931(2) 0.0125(2) 0.03020(19)
H1 H 0.0948 -0.0880 0.0261
C3 C 0.4763(3) 0.2227(3) 0.0320(2)
H2 H 0.5493 0.2762 -0.0235
H3 H 0.5038 0.1424 0.0602
H4 H 0.4915 0.2935 0.1100
C4 C 0.2449(3) 0.0212(3) -0.2243(2)
H5 H 0.1335 -0.0213 -0.2830
H6 H 0.2728 -0.0607 -0.2015
H7 H 0.3257 0.0861 -0.2692
C5 C 0.2089(3) 0.3048(3) -0.1041(2)
H8 H 0.2825 0.3614 -0.1580
H9 H 0.2298 0.3705 -0.0209
H10 H 0.0931 0.2688 -0.1525
C6 C 0.2610(3) 0.0385(3) 0.2835(2)
C7 C 0.2959(3) -0.0916(3) 0.2240(2)
H11 H 0.3636 -0.1160 0.2939
H12 H 0.3555 -0.0595 0.1547
H13 H 0.1906 -0.1808 0.1860
C8 C 0.1533(3) -0.0201(3) 0.3856(2)
H14 H 0.0457 -0.1028 0.3396
H15 H 0.1362 0.0622 0.4282
H16 H 0.2108 -0.0564 0.4529
C9 C 0.4305(3) 0.1721(3) 0.3618(2)
H17 H 0.4805 0.1386 0.4363
H18 H 0.4109 0.2569 0.3952
H19 H 0.5057 0.2040 0.3028
C10 C 0.1535(4) 0.3736(3) 0.4757(3)
H20 H 0.0434 0.2981 0.4786
H21 H 0.1722 0.4726 0.5194
H22 H 0.2384 0.3463 0.5214
C11 C 0.3742(4) 0.5355(3) 0.2887(3)
H23 H 0.4634 0.5107 0.3294
H24 H 0.3901 0.6316 0.3368
H25 H 0.3763 0.5440 0.1962
C12 C -0.0053(4) 0.4291(4) 0.2148(4)
H26 H -0.0042 0.4335 0.1216
H27 H 0.0125 0.5272 0.2600
H28 H -0.1128 0.3516 0.2208
Si1A Si -0.25050(7) -0.13680(6) 0.06699(6)
Si2A Si -0.16597(8) -0.38086(7) -0.29622(6)
N1A N -0.1437(2) -0.2161(2) -0.20573(18)
C1A C -0.1636(2) -0.0974(2) -0.17662(19)
C2A C -0.0931(2) -0.0125(2) -0.03020(19)
H1A H -0.0948 0.0880 -0.0261
C3A C -0.4763(3) -0.2227(3) -0.0320(2)
H2A H -0.5493 -0.2762 0.0235
H3A H -0.5038 -0.1424 -0.0602
H4A H -0.4915 -0.2935 -0.1100
C4A C -0.2449(3) -0.0212(3) 0.2243(2)
H5A H -0.1335 0.0213 0.2830
H6A H -0.2728 0.0607 0.2015
H7A H -0.3257 -0.0861 0.2692
C5A C -0.2089(3) -0.3048(3) 0.1041(2)
H8A H -0.2825 -0.3614 0.1580
H9A H -0.2298 -0.3705 0.0209
H10A H -0.0931 -0.2688 0.1525
C6A C -0.2610(3) -0.0385(3) -0.2835(2)
C7A C -0.2959(3) 0.0916(3) -0.2240(2)
H11A H -0.3636 0.1160 -0.2939
H12A H -0.3555 0.0595 -0.1547
H13A H -0.1906 0.1808 -0.1860
C8A C -0.1533(3) 0.0201(3) -0.3856(2)
H14A H -0.0457 0.1028 -0.3396
H15A H -0.1362 -0.0622 -0.4282
H16A H -0.2108 0.0564 -0.4529
C9A C -0.4305(3) -0.1721(3) -0.3618(2)
H17A H -0.4805 -0.1386 -0.4363
H18A H -0.4109 -0.2569 -0.3952
H19A H -0.5057 -0.2040 -0.3028
C10A C -0.1535(4) -0.3736(3) -0.4757(3)
H20A H -0.0434 -0.2981 -0.4786
H21A H -0.1722 -0.4726 -0.5194
H22A H -0.2384 -0.3463 -0.5214
C11A C -0.3742(4) -0.5355(3) -0.2887(3)
H23A H -0.4634 -0.5107 -0.3294
H24A H -0.3901 -0.6316 -0.3368
H25A H -0.3763 -0.5440 -0.1962
C12A C 0.0053(4) -0.4291(4) -0.2148(4)
H26A H 0.0042 -0.4335 -0.1216
H27A H -0.0125 -0.5272 -0.2600
H28A H 0.1128 -0.3516 -0.2208
loop_
_geom_bond_atom_site_label_1
_geom_bond_atom_site_label_2
_geom_bond_site_symmetry_1
_geom_bond_site_symmetry_2
Si1 C2 1_555 1_555
Si2 N1 1_555 1_555
N1 C1 1_555 1_555
C1 C2 1_555 1_555
C2 H1 1_555 1_555
C3 Si1 1_555 1_555
H2 C3 1_555 1_555
H3 C3 1_555 1_555
H4 C3 1_555 1_555
C4 Si1 1_555 1_555
H5 C4 1_555 1_555
H6 C4 1_555 1_555
H7 C4 1_555 1_555
C5 Si1 1_555 1_555
H8 C5 1_555 1_555
H9 C5 1_555 1_555
H10 C5 1_555 1_555
C6 C1 1_555 1_555
C7 C6 1_555 1_555
H11 C7 1_555 1_555
H12 C7 1_555 1_555
H13 C7 1_555 1_555
C8 C6 1_555 1_555
H14 C8 1_555 1_555
H15 C8 1_555 1_555
H16 C8 1_555 1_555
C9 C6 1_555 1_555
H17 C9 1_555 1_555
H18 C9 1_555 1_555
H19 C9 1_555 1_555
C10 Si2 1_555 1_555
H20 C10 1_555 1_555
H21 C10 1_555 1_555
H22 C10 1_555 1_555
C11 Si2 1_555 1_555
H23 C11 1_555 1_555
H24 C11 1_555 1_555
H25 C11 1_555 1_555
C12 Si2 1_555 1_555
H26 C12 1_555 1_555
H27 C12 1_555 1_555
H28 C12 1_555 1_555
Si1A C2A 1_555 1_555
Si2A N1A 1_555 1_555
N1A C1A 1_555 1_555
C1A C2A 1_555 1_555
C2A C2 1_555 1_555
H1A C2A 1_555 1_555
C3A Si1A 1_555 1_555
H2A C3A 1_555 1_555
H3A C3A 1_555 1_555
H4A C3A 1_555 1_555
C4A Si1A 1_555 1_555
H5A C4A 1_555 1_555
H6A C4A 1_555 1_555
H7A C4A 1_555 1_555
C5A Si1A 1_555 1_555
H8A C5A 1_555 1_555
H9A C5A 1_555 1_555
H10A C5A 1_555 1_555
C6A C1A 1_555 1_555
C7A C6A 1_555 1_555
H11A C7A 1_555 1_555
H12A C7A 1_555 1_555
H13A C7A 1_555 1_555
C8A C6A 1_555 1_555
H14A C8A 1_555 1_555
H15A C8A 1_555 1_555
H16A C8A 1_555 1_555
C9A C6A 1_555 1_555
H17A C9A 1_555 1_555
H18A C9A 1_555 1_555
H19A C9A 1_555 1_555
C10A Si2A 1_555 1_555
H20A C10A 1_555 1_555
H21A C10A 1_555 1_555
H22A C10A 1_555 1_555
C11A Si2A 1_555 1_555
H23A C11A 1_555 1_555
H24A C11A 1_555 1_555
H25A C11A 1_555 1_555
C12A Si2A 1_555 1_555
H26A C12A 1_555 1_555
H27A C12A 1_555 1_555
H28A C12A 1_555 1_555

#END
