
#######################################################################
#
#                 Cambridge Crystallographic Data Centre
#                                CCDC 
#
#######################################################################
#
# If this CIF has been generated from an entry in the Cambridge 
# Structural Database, then it will include bibliographic, chemical, 
# crystal, experimental, refinement or atomic coordinate data resulting 
# from the CCDC's data processing and validation procedures.
#
#######################################################################

data_GAZMIF
_chemical_formula_moiety         'C8 H14 Br1 N1 O1'
_chemical_name_systematic        
(S)-2-Amino-1-(2-bromocyclohex-1-en-1-yl)ethanol
_symmetry_cell_setting           monoclinic
_symmetry_space_group_name_H-M   'P 21'
_symmetry_Int_Tables_number      4
_space_group_name_Hall           'P 2yb'
loop_
_symmetry_equiv_pos_site_id
_symmetry_equiv_pos_as_xyz
1 x,y,z
2 -x,1/2+y,-z
_cell_length_a                   5.3503(12)
_cell_length_b                   6.1638(15)
_cell_length_c                   14.102(3)
_cell_angle_alpha                90
_cell_angle_beta                 90.613(4)
_cell_angle_gamma                90
_cell_volume                     465.032
_exptl_crystal_colour            colorless
_exptl_crystal_description       block
_chemical_melting_point          114-116deg.C
_cell_formula_units_Z            2
loop_
_atom_site_label
_atom_site_type_symbol
_atom_site_fract_x
_atom_site_fract_y
_atom_site_fract_z
Br1 Br 0.36532(13) 0.6368(2) 0.25649(5)
C1 C 0.6999(12) 0.2842(11) 0.2296(5)
C2 C 0.6018(12) 0.4146(12) 0.2942(5)
C3 C 0.6512(15) 0.4086(16) 0.3975(6)
H1 H 0.5058 0.3509 0.4293
H2 H 0.6788 0.5551 0.4204
C4 C 0.776(4) 0.202(3) 0.4268(14)
H5 H 0.8466 0.2202 0.4899
H6 H 0.6506 0.0882 0.4300
C5 C 0.975(3) 0.133(4) 0.3618(8)
H7 H 1.0426 -0.0045 0.3832
H8 H 1.1089 0.2392 0.3638
C6 C 0.8835(13) 0.110(3) 0.2617(5)
H9 H 1.0533 0.1589 0.2513
H10 H 0.8566 -0.0212 0.2249
C7 C 0.6435(11) 0.2933(11) 0.1234(4)
H11 H 0.4724 0.3457 0.1131
C8 C 0.8275(11) 0.4484(12) 0.0764(5)
H12 H 0.8009 0.5946 0.0996
H13 H 0.9974 0.4060 0.0923
N1 N 0.7909(11) 0.4429(11) -0.0274(4)
H14 H 0.745(16) 0.311(5) -0.038(6)
H15 H 0.914(12) 0.500(14) -0.057(7)
O1 O 0.6704(8) 0.0872(7) 0.0813(4)
H16 H 0.545(9) 0.021(12) 0.065(6)
H3? H 0.5063 0.3475 0.4285
H4? H 0.6754 0.5544 0.4217
C9? C 0.875(3) 0.272(3) 0.4218(14)
C10? C 0.847(4) 0.061(3) 0.3670(11)
H17? H 0.8812 0.2429 0.4894
H18? H 1.0273 0.3457 0.4041
H19? H 0.6829 -0.0001 0.3770
H20? H 0.9716 -0.0426 0.3887
H21? H 1.0527 0.1588 0.2499
H22? H 0.8552 -0.0216 0.2254
loop_
_geom_bond_atom_site_label_1
_geom_bond_atom_site_label_2
_geom_bond_site_symmetry_1
_geom_bond_site_symmetry_2
Br1 C2 1_555 1_555
C1 C2 1_555 1_555
C2 C3 1_555 1_555
C3 H1 1_555 1_555
H2 C3 1_555 1_555
C4 C3 1_555 1_555
H5 C4 1_555 1_555
H6 C4 1_555 1_555
C5 C4 1_555 1_555
H7 C5 1_555 1_555
H8 C5 1_555 1_555
C6 C1 1_555 1_555
H9 C6 1_555 1_555
H10 C6 1_555 1_555
C7 C1 1_555 1_555
H11 C7 1_555 1_555
C8 C7 1_555 1_555
H12 C8 1_555 1_555
H13 C8 1_555 1_555
N1 C8 1_555 1_555
H14 N1 1_555 1_555
H15 N1 1_555 1_555
O1 C7 1_555 1_555
H16 O1 1_555 1_555
C5 C6 1_555 1_555

#END
