
#######################################################################
#
#                 Cambridge Crystallographic Data Centre
#                                CCDC 
#
#######################################################################
#
# If this CIF has been generated from an entry in the Cambridge 
# Structural Database, then it will include bibliographic, chemical, 
# crystal, experimental, refinement or atomic coordinate data resulting 
# from the CCDC's data processing and validation procedures.
#
#######################################################################

data_GAZTEJ
_chemical_name_common            
'hemikis(trioxatriangulenium) 1$5!,4$5!,7$5!,10$5!,13$5!-penta-t-butyl-2,5,8,11,14-pentacyano-1,4,7,10,13(1,3)-pentabenzenacyclopentadecaphane-2,5,8,11,14-penta-ene hemikis(tetrafluoroborate) unknown solvate'
_chemical_formula_moiety         '0.5(C19 H9 O3 1+),C65 H65 N5,0.5(B1 F4 1-)'
_chemical_name_systematic        
'hemikis(12cH-4,8,12-trioxadibenzo[cd,mn]pyren-12c-ylium) 6,13,20,27,34-penta-t-butylhexacyclo[30.3.1.1^4,8^.1^11,15^.1^18,22^.1^25,29^]tetraconta-1(36),2,4(40),5,7,9,11(39),12,14,16,18(38),19,21,23,25(37),26,28,30,32,34-icosaene-2,9,16,23,30-pentacarbonitrile hemikis(tetrafluoroborate) unknown solvate'
_symmetry_cell_setting           triclinic
_symmetry_space_group_name_H-M   'P -1'
_symmetry_Int_Tables_number      2
_space_group_name_Hall           '-P 1'
loop_
_symmetry_equiv_pos_site_id
_symmetry_equiv_pos_as_xyz
1 x,y,z
2 -x,-y,-z
_cell_length_a                   13.9719(7)
_cell_length_b                   14.3789(8)
_cell_length_c                   19.5190(9)
_cell_angle_alpha                111.2652(10)
_cell_angle_beta                 91.6445(11)
_cell_angle_gamma                97.0299(12)
_cell_volume                     3615.56
_exptl_crystal_colour            orange
_exptl_crystal_description       plate
_cell_formula_units_Z            2
loop_
_atom_site_label
_atom_site_type_symbol
_atom_site_fract_x
_atom_site_fract_y
_atom_site_fract_z
N1 N 0.0812(12) -0.0153(11) 0.0884(6)
N2 N 0.4250(9) -0.3189(9) 0.3184(6)
N3 N 0.3931(8) -0.0059(10) 0.8103(7)
N4 N 0.0279(11) 0.4893(9) 0.8829(5)
N5 N -0.1204(8) 0.5090(6) 0.4461(4)
C1 C 0.0831(6) -0.0162(6) 0.1475(4)
C2 C 0.0752(6) -0.0271(6) 0.2166(3)
C3 C 0.1380(4) -0.1043(4) 0.2213(2)
C4 C 0.1596(5) -0.1123(4) 0.2893(2)
C5 C 0.2136(5) -0.1828(4) 0.2961(2)
C6 C 0.2488(4) -0.2524(4) 0.2330(3)
C7 C 0.2259(5) -0.2461(5) 0.1633(3)
C8 C 0.1737(5) -0.1717(5) 0.1618(3)
C9 C 0.2597(6) -0.3170(6) 0.0934(5)
C10 C 0.3306(10) -0.2572(13) 0.0610(11)
C11 C 0.1723(9) -0.3651(11) 0.0374(8)
C12 C 0.3091(10) -0.4021(11) 0.1015(9)
C13 C 0.2353(6) -0.1804(6) 0.3704(3)
C14 C 0.3706(4) -0.2754(5) 0.3561(2)
C15 C 0.3027(5) -0.2153(6) 0.3963(2)
C16 C 0.3148(4) -0.2036(4) 0.4767(2)
C17 C 0.2762(4) -0.1270(4) 0.5308(3)
C18 C 0.2864(5) -0.1124(4) 0.6043(3)
C19 C 0.3366(5) -0.1767(5) 0.6284(3)
C20 C 0.3775(5) -0.2540(5) 0.5739(3)
C21 C 0.3648(5) -0.2625(4) 0.5019(3)
C22 C 0.4338(3) -0.3261(3) 0.5971(3)
C23 C 0.5177(7) -0.3504(9) 0.5485(6)
C24 C 0.3651(7) -0.4240(7) 0.5808(6)
C25 C 0.4745(8) -0.2901(9) 0.6771(4)
C26 C 0.2432(7) -0.0297(6) 0.6555(3)
C27 C 0.3309(5) -0.0002(5) 0.7723(4)
C28 C 0.2615(7) 0.0184(6) 0.7260(3)
C29 C 0.2111(6) 0.1060(5) 0.7717(2)
C30 C 0.1523(6) 0.1508(6) 0.7368(2)
C31 C 0.1005(5) 0.2259(5) 0.7756(3)
C32 C 0.1046(6) 0.2613(7) 0.8539(3)
C33 C 0.1692(8) 0.2211(8) 0.8902(3)
C34 C 0.2171(7) 0.1453(6) 0.8473(3)
C35 C 0.1818(6) 0.2584(6) 0.9738(4)
C36 C 0.1639(10) 0.1695(8) 0.9993(8)
C37 C 0.2871(7) 0.3071(10) 0.9974(9)
C38 C 0.1171(9) 0.3359(9) 1.0150(8)
C39 C 0.0454(6) 0.2696(6) 0.7333(4)
C40 C 0.0228(5) 0.4312(6) 0.8231(3)
C41 C 0.0073(6) 0.3522(5) 0.7524(3)
C42 C -0.0455(5) 0.3874(5) 0.6990(2)
C43 C -0.0460(6) 0.3357(5) 0.6227(3)
C44 C -0.0929(5) 0.3645(5) 0.5723(2)
C45 C -0.1485(7) 0.4453(6) 0.5962(3)
C46 C -0.1509(8) 0.4967(7) 0.6738(3)
C47 C -0.0978(7) 0.4665(6) 0.7202(3)
C48 C -0.2004(8) 0.5916(7) 0.6999(5)
C49 C -0.2923(11) 0.5612(15) 0.7318(10)
C50 C -0.2300(13) 0.6339(14) 0.6423(8)
C51 C -0.1381(10) 0.6766(11) 0.7620(7)
C52 C -0.0852(6) 0.3068(6) 0.4944(3)
C53 C -0.1104(5) 0.4263(4) 0.4377(2)
C54 C -0.0950(7) 0.3303(4) 0.4374(3)
C55 C -0.0834(4) 0.2606(4) 0.3589(2)
C56 C -0.0346(4) 0.1773(4) 0.3462(2)
C57 C -0.0247(4) 0.1107(4) 0.2765(3)
C58 C -0.0677(5) 0.1221(5) 0.2135(2)
C59 C -0.1179(5) 0.2064(5) 0.2256(3)
C60 C -0.1218(5) 0.2710(4) 0.2969(3)
C61 C -0.1639(4) 0.2217(4) 0.1592(3)
C62 C -0.1110(10) 0.3222(8) 0.1604(9)
C63 C -0.2703(6) 0.2334(10) 0.1696(8)
C64 C -0.1583(11) 0.1424(10) 0.0827(6)
C65 C 0.0323(6) 0.0297(6) 0.2703(4)
H1 H 0.1358 -0.0677 0.3322
H2 H 0.2862 -0.3011 0.2375
H3 H 0.1602 -0.1672 0.1152
H4 H 0.3516 -0.3020 0.0168
H5 H 0.3851 -0.2225 0.0948
H6 H 0.2973 -0.2098 0.0502
H7 H 0.1917 -0.4094 -0.0076
H8 H 0.1288 -0.4023 0.0578
H9 H 0.1411 -0.3151 0.0285
H10 H 0.3285 -0.4423 0.0550
H11 H 0.3645 -0.3723 0.1353
H12 H 0.2667 -0.4431 0.1197
H13 H 0.1913 -0.1502 0.4052
H14 H 0.2409 -0.0840 0.5162
H15 H 0.3436 -0.1669 0.6792
H16 H 0.3918 -0.3149 0.4660
H17 H 0.5531 -0.3949 0.5613
H18 H 0.5593 -0.2898 0.5550
H19 H 0.4926 -0.3815 0.4985
H20 H 0.3985 -0.4700 0.5934
H21 H 0.3113 -0.4102 0.6096
H22 H 0.3432 -0.4526 0.5300
H23 H 0.5080 -0.3396 0.6846
H24 H 0.4235 -0.2773 0.7089
H25 H 0.5180 -0.2296 0.6875
H26 H 0.1932 -0.0073 0.6341
H27 H 0.1475 0.1280 0.6845
H28 H 0.0672 0.3113 0.8809
H29 H 0.2596 0.1186 0.8719
H30 H 0.1702 0.1935 1.0517
H31 H 0.2120 0.1278 0.9802
H32 H 0.1016 0.1317 0.9818
H33 H 0.2970 0.3292 1.0496
H34 H 0.3319 0.2626 0.9753
H35 H 0.2963 0.3637 0.9829
H36 H 0.1269 0.3528 1.0667
H37 H 0.0525 0.3043 0.9986
H38 H 0.1285 0.3955 1.0042
H39 H 0.0312 0.2278 0.6828
H40 H -0.0113 0.2799 0.6050
H41 H -0.1858 0.4615 0.5617
H42 H -0.0992 0.5016 0.7718
H43 H -0.3258 0.6178 0.7501
H44 H -0.2735 0.5418 0.7713
H45 H -0.3334 0.5068 0.6959
H46 H -0.2613 0.6911 0.6656
H47 H -0.1749 0.6529 0.6204
H48 H -0.2736 0.5836 0.6053
H49 H -0.1695 0.7348 0.7804
H50 H -0.1234 0.6548 0.8011
H51 H -0.0800 0.6924 0.7420
H52 H -0.0703 0.2406 0.4839
H53 H -0.0068 0.1666 0.3872
H54 H -0.0620 0.0754 0.1652
H55 H -0.1554 0.3271 0.3044
H56 H -0.1351 0.3385 0.1208
H57 H -0.1186 0.3743 0.2059
H58 H -0.0444 0.3156 0.1562
H59 H -0.3001 0.2438 0.1291
H60 H -0.2714 0.2909 0.2133
H61 H -0.3045 0.1758 0.1754
H62 H -0.1895 0.1641 0.0484
H63 H -0.1917 0.0794 0.0802
H64 H -0.0934 0.1351 0.0710
H65 H 0.0405 0.0167 0.3143
N6? N 0.1304(15) 0.0051(16) 0.0973(8)
N7? N 0.4339(11) -0.3229(13) 0.3493(9)
N8? N 0.4204(14) 0.0317(13) 0.8113(9)
N9? N -0.0174(13) 0.4726(13) 0.8810(7)
N10? N -0.1186(12) 0.4861(12) 0.4122(9)
C66? C 0.1083(9) 0.0081(12) 0.1543(6)
C67? C 0.0688(10) 0.0076(9) 0.2204(6)
C68? C 0.1534(5) -0.1205(5) 0.2477(4)
C69? C 0.1876(5) -0.1381(6) 0.3080(4)
C70? C 0.2547(5) -0.2047(5) 0.3032(3)
C71? C 0.2837(6) -0.2519(6) 0.2340(4)
C72? C 0.2532(6) -0.2389(6) 0.1710(4)
C73? C 0.1850(6) -0.1709(7) 0.1766(4)
C74? C 0.2922(8) -0.2966(8) 0.0968(7)
C75? C 0.3597(17) -0.2195(19) 0.0772(18)
C76? C 0.2157(16) -0.3497(17) 0.0321(12)
C77? C 0.3517(17) -0.3755(16) 0.1038(15)
C78? C 0.2662(13) -0.1769(11) 0.4388(5)
C79? C 0.2897(9) -0.2219(12) 0.3718(4)
C80? C 0.2995(6) -0.1773(6) 0.5102(4)
C81? C 0.2802(6) -0.0996(6) 0.5721(5)
C82? C 0.3088(6) -0.0918(6) 0.6435(4)
C83? C 0.3574(6) -0.1669(7) 0.6479(5)
C84? C 0.3805(6) -0.2466(6) 0.5891(6)
C85? C 0.3499(7) -0.2543(6) 0.5167(5)
C86? C 0.5387(6) -0.3041(12) 0.5796(8)
C87? C 0.3945(11) -0.4352(7) 0.5479(7)
C88? C 0.4356(11) -0.3189(12) 0.6770(5)
C89? C 0.2096(11) 0.0419(9) 0.7077(5)
C90? C 0.3586(10) 0.0212(8) 0.7679(5)
C91? C 0.2843(8) -0.0050(11) 0.7101(5)
C92? C 0.1712(9) 0.1220(8) 0.7650(4)
C93? C 0.1212(12) 0.1845(9) 0.7431(3)
C94? C 0.0857(8) 0.2675(7) 0.7935(3)
C95? C 0.1050(12) 0.2832(9) 0.8663(4)
C96? C 0.1489(13) 0.2211(10) 0.8928(4)
C97? C 0.1859(12) 0.1377(9) 0.8411(5)
C98? C 0.1504(10) 0.2367(9) 0.9739(6)
C99? C 0.1286(15) 0.1455(11) 0.9964(12)
C100? C 0.2529(10) 0.2886(14) 1.0063(12)
C101? C 0.0799(12) 0.3102(12) 1.0099(11)
C102? C 0.0003(11) 0.3147(10) 0.6987(5)
C103? C -0.0037(8) 0.4086(8) 0.8276(5)
C104? C 0.0250(11) 0.3303(9) 0.7662(4)
C105? C -0.0551(8) 0.3653(8) 0.6618(4)
C106? C -0.0525(11) 0.3356(9) 0.5865(4)
C107? C -0.0969(7) 0.3837(6) 0.5459(3)
C108? C -0.1391(12) 0.4654(9) 0.5865(4)
C109? C -0.1463(16) 0.4990(12) 0.6614(4)
C110? C -0.1060(11) 0.4456(10) 0.7015(4)
C111? C -0.2108(10) 0.5811(11) 0.7039(8)
C112? C -0.2454(18) 0.593(2) 0.7797(9)
C113? C -0.2990(13) 0.5735(17) 0.6531(10)
C114? C -0.1433(15) 0.6775(19) 0.7122(13)
C115? C -0.0798(10) 0.2527(10) 0.4222(5)
C116? C -0.0914(12) 0.3480(5) 0.4625(3)
C117? C -0.0738(6) 0.2062(6) 0.3429(4)
C118? C -0.0152(6) 0.1324(6) 0.3186(4)
C119? C -0.0009(5) 0.0848(6) 0.2439(4)
C120? C -0.0497(7) 0.1163(7) 0.1963(4)
C121? C -0.1107(6) 0.1882(7) 0.2156(5)
C122? C -0.1244(6) 0.2361(6) 0.2919(5)
C123? C -0.0826(13) 0.2358(18) 0.1115(12)
C124? C -0.2143(17) 0.3156(13) 0.1815(16)
C125? C -0.2375(14) 0.1318(14) 0.1111(12)
C126? C 0.0880(10) -0.0453(10) 0.2605(6)
H66? H 0.1631 -0.1051 0.3542
H67? H 0.3286 -0.2979 0.2299
H68? H 0.1618 -0.1592 0.1346
H69? H 0.3881 -0.2503 0.0323
H70? H 0.4088 -0.1930 0.1167
H71? H 0.3275 -0.1666 0.0741
H72? H 0.2496 -0.3824 -0.0094
H73? H 0.1688 -0.3979 0.0399
H74? H 0.1844 -0.2995 0.0235
H75? H 0.3770 -0.4104 0.0583
H76? H 0.4033 -0.3449 0.1410
H77? H 0.3091 -0.4217 0.1172
H78? H 0.2156 -0.1376 0.4410
H79? H 0.2458 -0.0495 0.5663
H80? H 0.3778 -0.1631 0.6958
H81? H 0.3623 -0.3085 0.4740
H82? H 0.5744 -0.3538 0.5845
H83? H 0.5676 -0.2393 0.6124
H84? H 0.5388 -0.3064 0.5304
H85? H 0.4340 -0.4791 0.5576
H86? H 0.3303 -0.4504 0.5595
H87? H 0.3943 -0.4440 0.4973
H88? H 0.4696 -0.3688 0.6836
H89? H 0.4674 -0.2538 0.7071
H90? H 0.3713 -0.3275 0.6905
H91? H 0.1773 0.0212 0.6600
H92? H 0.1120 0.1719 0.6919
H93? H 0.0836 0.3406 0.9015
H94? H 0.2213 0.0954 0.8565
H95? H 0.1317 0.1681 1.0487
H96? H 0.1769 0.1034 0.9785
H97? H 0.0666 0.1084 0.9765
H98? H 0.2582 0.3022 1.0577
H99? H 0.3012 0.2493 0.9834
H100? H 0.2615 0.3504 0.9983
H101? H 0.0797 0.3227 1.0611
H102? H 0.0956 0.3722 1.0030
H103? H 0.0178 0.2785 0.9863
H104? H 0.0199 0.2550 0.6651
H105? H -0.0174 0.2822 0.5617
H106? H -0.1675 0.5003 0.5600
H107? H -0.1123 0.4631 0.7528
H108? H -0.2821 0.6474 0.7945
H109? H -0.1910 0.6073 0.8140
H110? H -0.2846 0.5331 0.7780
H111? H -0.3361 0.6250 0.6781
H112? H -0.3377 0.5095 0.6397
H113? H -0.2776 0.5828 0.6100
H114? H -0.1715 0.7367 0.7362
H115? H -0.0859 0.6790 0.7401
H116? H -0.1281 0.6744 0.6643
H117? H -0.0774 0.2097 0.4493
H118? H 0.0161 0.1128 0.3541
H119? H -0.0393 0.0860 0.1455
H120? H -0.1665 0.2856 0.3080
H121? H -0.1089 0.2571 0.0752
H122? H -0.0379 0.2892 0.1450
H123? H -0.0504 0.1792 0.0883
H124? H -0.2393 0.3230 0.1383
H125? H -0.2664 0.2983 0.2069
H126? H -0.1772 0.3773 0.2127
H127? H -0.2725 0.1460 0.0744
H128? H -0.2816 0.1057 0.1381
H129? H -0.1963 0.0834 0.0882
H130? H 0.0569 -0.0303 0.3051
F1? F -0.1122(13) -0.0218(13) 0.5272(9)
F2? F 0.0150(14) 0.0500(15) 0.5714(9)
F3? F 0.0240(13) -0.0908(10) 0.4743(11)
F4? F -0.0168(13) 0.0476(14) 0.4584(10)
B1? B -0.0189(14) -0.0004(15) 0.5039(11)
O1? O -0.2519(5) -0.1647(6) 0.5732(5)
O2? O -0.3777(6) -0.1973(6) 0.3276(4)
O3? O -0.5052(5) 0.0321(6) 0.5463(4)
C127? C -0.2601(5) -0.2173(5) 0.4919(5)
C128? C -0.2061(6) -0.2869(6) 0.4634(6)
C129? C -0.2039(6) -0.3256(6) 0.3899(6)
C130? C -0.2579(7) -0.2975(6) 0.3468(5)
C131? C -0.3155(6) -0.2284(6) 0.3777(4)
C132? C -0.3186(5) -0.1889(6) 0.4490(4)
C133? C -0.3823(5) -0.1147(5) 0.4818(3)
C134? C -0.4419(5) -0.0815(6) 0.4351(3)
C135? C -0.4412(6) -0.1198(6) 0.3632(4)
C136? C -0.5079(8) 0.1049(8) 0.6925(10)
C137? C -0.4468(5) 0.0339(5) 0.6645(4)
C138? C -0.3892(6) 0.0037(7) 0.7071(4)
C139? C -0.3319(6) -0.0636(7) 0.6780(4)
C140? C -0.3272(5) -0.0983(6) 0.6054(4)
C141? C -0.3848(5) -0.0719(6) 0.5617(3)
C142? C -0.4443(4) -0.0056(5) 0.5928(3)
C143? C -0.5024(5) -0.0152(7) 0.4642(4)
H131? H -0.5151 0.1376 0.7436
H132? H -0.3914 0.0319 0.7592
H133? H -0.2927 -0.0843 0.7089
H134? H -0.4070 0.0155 0.6963
H135? H -0.4033 -0.0551 0.5721
H136? H -0.4883 0.0827 0.6856
H137? H -0.1662 -0.3073 0.4940
H138? H -0.1623 -0.3742 0.3686
H139? H -0.2569 -0.3262 0.2947
loop_
_geom_bond_atom_site_label_1
_geom_bond_atom_site_label_2
_geom_bond_site_symmetry_1
_geom_bond_site_symmetry_2
N1 C1 1_555 1_555
N2 C14 1_555 1_555
N3 C27 1_555 1_555
N4 C40 1_555 1_555
N5 C53 1_555 1_555
C1 C2 1_555 1_555
C2 C3 1_555 1_555
C3 C4 1_555 1_555
C4 C5 1_555 1_555
C5 C6 1_555 1_555
C6 C7 1_555 1_555
C7 C8 1_555 1_555
C8 C3 1_555 1_555
C9 C7 1_555 1_555
C10 C9 1_555 1_555
C11 C9 1_555 1_555
C12 C9 1_555 1_555
C13 C5 1_555 1_555
C14 C15 1_555 1_555
C15 C13 1_555 1_555
C16 C15 1_555 1_555
C17 C16 1_555 1_555
C18 C17 1_555 1_555
C19 C18 1_555 1_555
C20 C19 1_555 1_555
C21 C16 1_555 1_555
C22 C20 1_555 1_555
C23 C22 1_555 1_555
C24 C22 1_555 1_555
C25 C22 1_555 1_555
C26 C18 1_555 1_555
C27 C28 1_555 1_555
C28 C26 1_555 1_555
C29 C28 1_555 1_555
C30 C29 1_555 1_555
C31 C30 1_555 1_555
C32 C31 1_555 1_555
C33 C32 1_555 1_555
C34 C29 1_555 1_555
C35 C33 1_555 1_555
C36 C35 1_555 1_555
C37 C35 1_555 1_555
C38 C35 1_555 1_555
C39 C31 1_555 1_555
C40 C41 1_555 1_555
C41 C39 1_555 1_555
C42 C41 1_555 1_555
C43 C42 1_555 1_555
C44 C43 1_555 1_555
C45 C44 1_555 1_555
C46 C45 1_555 1_555
C47 C42 1_555 1_555
C48 C46 1_555 1_555
C49 C48 1_555 1_555
C50 C48 1_555 1_555
C51 C48 1_555 1_555
C52 C44 1_555 1_555
C53 C54 1_555 1_555
C54 C52 1_555 1_555
C55 C54 1_555 1_555
C56 C55 1_555 1_555
C57 C56 1_555 1_555
C58 C57 1_555 1_555
C59 C58 1_555 1_555
C60 C55 1_555 1_555
C61 C59 1_555 1_555
C62 C61 1_555 1_555
C63 C61 1_555 1_555
C64 C61 1_555 1_555
C65 C2 1_555 1_555
H1 C4 1_555 1_555
H2 C6 1_555 1_555
H3 C8 1_555 1_555
H4 C10 1_555 1_555
H5 C10 1_555 1_555
H6 C10 1_555 1_555
H7 C11 1_555 1_555
H8 C11 1_555 1_555
H9 C11 1_555 1_555
H10 C12 1_555 1_555
H11 C12 1_555 1_555
H12 C12 1_555 1_555
H13 C13 1_555 1_555
H14 C17 1_555 1_555
H15 C19 1_555 1_555
H16 C21 1_555 1_555
H17 C23 1_555 1_555
H18 C23 1_555 1_555
H19 C23 1_555 1_555
H20 C24 1_555 1_555
H21 C24 1_555 1_555
H22 C24 1_555 1_555
H23 C25 1_555 1_555
H24 C25 1_555 1_555
H25 C25 1_555 1_555
H26 C26 1_555 1_555
H27 C30 1_555 1_555
H28 C32 1_555 1_555
H29 C34 1_555 1_555
H30 C36 1_555 1_555
H31 C36 1_555 1_555
H32 C36 1_555 1_555
H33 C37 1_555 1_555
H34 C37 1_555 1_555
H35 C37 1_555 1_555
H36 C38 1_555 1_555
H37 C38 1_555 1_555
H38 C38 1_555 1_555
H39 C39 1_555 1_555
H40 C43 1_555 1_555
H41 C45 1_555 1_555
H42 C47 1_555 1_555
H43 C49 1_555 1_555
H44 C49 1_555 1_555
H45 C49 1_555 1_555
H46 C50 1_555 1_555
H47 C50 1_555 1_555
H48 C50 1_555 1_555
H49 C51 1_555 1_555
H50 C51 1_555 1_555
H51 C51 1_555 1_555
H52 C52 1_555 1_555
H53 C56 1_555 1_555
H54 C58 1_555 1_555
H55 C60 1_555 1_555
H56 C62 1_555 1_555
H57 C62 1_555 1_555
H58 C62 1_555 1_555
H59 C63 1_555 1_555
H60 C63 1_555 1_555
H61 C63 1_555 1_555
H62 C64 1_555 1_555
H63 C64 1_555 1_555
H64 C64 1_555 1_555
H65 C65 1_555 1_555
C20 C21 1_555 1_555
C33 C34 1_555 1_555
C46 C47 1_555 1_555
C57 C65 1_555 1_555
C59 C60 1_555 1_555

#END
