
#######################################################################
#
#                 Cambridge Crystallographic Data Centre
#                                CCDC 
#
#######################################################################
#
# If this CIF has been generated from an entry in the Cambridge 
# Structural Database, then it will include bibliographic, chemical, 
# crystal, experimental, refinement or atomic coordinate data resulting 
# from the CCDC's data processing and validation procedures.
#
#######################################################################

data_GAZXEM
_chemical_formula_moiety         'C12 H24 O6,C6 H6 N1 O2 1+,B1 F4 1-,2(H2 O1)'
_chemical_name_systematic        
'4-Carboxypyridinium tetrafluoroborate 18-crown-6 dihydrate clathrate'
_symmetry_cell_setting           orthorhombic
_symmetry_space_group_name_H-M   'P n a 21'
_symmetry_Int_Tables_number      33
_space_group_name_Hall           'P 2c -2n'
loop_
_symmetry_equiv_pos_site_id
_symmetry_equiv_pos_as_xyz
1 x,y,z
2 -x,-y,1/2+z
3 1/2+x,1/2-y,z
4 1/2-x,1/2+y,1/2+z
_cell_length_a                   14.634(3)
_cell_length_b                   10.177(2)
_cell_length_c                   17.116(3)
_cell_angle_alpha                90
_cell_angle_beta                 90
_cell_angle_gamma                90
_cell_volume                     2549.09
_exptl_crystal_colour            colorless
_exptl_crystal_description       prism
_cell_formula_units_Z            4
loop_
_atom_site_label
_atom_site_type_symbol
_atom_site_fract_x
_atom_site_fract_y
_atom_site_fract_z
O1 O 0.4346(2) 0.5011(3) 0.4664(2)
O2 O 0.41824(18) 0.6402(3) 0.60953(18)
O3 O 0.4727(2) 0.9051(3) 0.58982(17)
O4 O 0.6166(2) 0.9773(3) 0.4836(2)
O5 O 0.67492(19) 0.8111(3) 0.35842(19)
O6 O 0.5516(2) 0.6007(3) 0.35511(16)
C1 C 0.5343(5) 1.0123(6) 0.6002(3)
H7 H 0.5886 0.9825 0.6274
H8 H 0.5055 1.0802 0.6315
C2 C 0.5597(5) 1.0660(5) 0.5228(4)
H9 H 0.5049 1.0815 0.4922
H10 H 0.5910 1.1492 0.5294
C3 C 0.6383(5) 1.0300(5) 0.4088(4)
H11 H 0.6629 1.1180 0.4144
H12 H 0.5836 1.0348 0.3769
C4 C 0.7065(4) 0.9433(5) 0.3713(4)
H13 H 0.7240 0.9812 0.3215
H14 H 0.7607 0.9403 0.4039
C5 C 0.6101(3) 0.7982(6) 0.2991(3)
H15 H 0.6332 0.8373 0.2513
H16 H 0.5545 0.8440 0.3137
C6 C 0.5896(3) 0.6562(6) 0.2856(2)
H17 H 0.5466 0.6472 0.2428
H18 H 0.6452 0.6100 0.2718
C7 C 0.5107(4) 0.4772(5) 0.3451(3)
H19 H 0.5514 0.4203 0.3159
H20 H 0.4544 0.4866 0.3157
C8 C 0.4910(4) 0.4181(4) 0.4216(3)
H21 H 0.4609 0.3341 0.4142
H22 H 0.5478 0.4027 0.4493
C9 C 0.4062(4) 0.4442(6) 0.5396(4)
H23 H 0.4593 0.4141 0.5684
H24 H 0.3669 0.3692 0.5299
C10 C 0.3569(3) 0.5432(6) 0.5852(3)
H25 H 0.3091 0.5823 0.5536
H26 H 0.3286 0.5023 0.6304
C11 C 0.3749(4) 0.7479(7) 0.6464(3)
H27 H 0.3468 0.7190 0.6948
H28 H 0.3273 0.7823 0.6127
C12 C 0.4414(4) 0.8505(6) 0.6628(3)
H29 H 0.4136 0.9188 0.6945
H30 H 0.4926 0.8141 0.6916
O7 O 0.7490(3) 0.2534(3) 0.6356(2)
O8 O 0.6401(2) 0.3497(3) 0.70310(19)
H1 H 0.636(4) 0.276(3) 0.725(3)
N1 N 0.6742(2) 0.6547(3) 0.48667(18)
H6 H 0.668(3) 0.706(3) 0.4468(18)
C13 C 0.6280(2) 0.6632(4) 0.5532(2)
H31 H 0.5906 0.7353 0.5628
C14 C 0.6357(2) 0.5652(3) 0.6072(2)
H32 H 0.6044 0.5707 0.6543
C15 C 0.6906(2) 0.4575(3) 0.59130(18)
C16 C 0.7371(2) 0.4532(4) 0.5207(2)
H33 H 0.7743 0.3819 0.5087
C17 C 0.7277(3) 0.5544(4) 0.4691(2)
H34 H 0.7588 0.5528 0.4217
C18 C 0.6968(3) 0.3433(3) 0.6457(2)
O9 O 0.8747(3) 0.6550(3) 0.29266(19)
H2 H 0.856(4) 0.580(3) 0.280(3)
H3 H 0.881(4) 0.662(6) 0.3419(14)
O10 O 0.5882(3) 0.2162(3) 0.94255(18)
H4 H 0.575(4) 0.187(5) 0.9886(19)
H5 H 0.561(4) 0.292(3) 0.940(3)
B1 B 0.8147(6) 0.3179(7) 0.3091(5)
F1 F 0.8668(4) 0.3632(6) 0.3710(3)
F2 F 0.8018(5) 0.4174(6) 0.2544(4)
F3 F 0.8247(5) 0.1966(5) 0.2762(4)
F4 F 0.7286(5) 0.3040(7) 0.3391(4)
B2? B 0.8189(9) 0.3195(14) 0.3124(8)
F5? F 0.9052(8) 0.3660(12) 0.3307(7)
F6? F 0.7652(9) 0.4211(13) 0.2915(9)
F7? F 0.8639(10) 0.2458(11) 0.2601(8)
F8? F 0.7994(9) 0.2651(14) 0.3820(7)
loop_
_geom_bond_atom_site_label_1
_geom_bond_atom_site_label_2
_geom_bond_site_symmetry_1
_geom_bond_site_symmetry_2
O1 C8 1_555 1_555
O2 C10 1_555 1_555
O3 C1 1_555 1_555
O4 C2 1_555 1_555
O5 C4 1_555 1_555
O6 C6 1_555 1_555
O7 C18 1_555 1_555
O8 H1 1_555 1_555
O9 H2 1_555 1_555
H3 O9 1_555 1_555
O10 H4 1_555 1_555
H5 O10 1_555 1_555
N1 H6 1_555 1_555
C1 H7 1_555 1_555
H8 C1 1_555 1_555
C2 C1 1_555 1_555
H9 C2 1_555 1_555
H10 C2 1_555 1_555
C3 O4 1_555 1_555
H11 C3 1_555 1_555
H12 C3 1_555 1_555
C4 C3 1_555 1_555
H13 C4 1_555 1_555
H14 C4 1_555 1_555
C5 O5 1_555 1_555
H15 C5 1_555 1_555
H16 C5 1_555 1_555
C6 C5 1_555 1_555
H17 C6 1_555 1_555
H18 C6 1_555 1_555
C7 O6 1_555 1_555
H19 C7 1_555 1_555
H20 C7 1_555 1_555
C8 C7 1_555 1_555
H21 C8 1_555 1_555
H22 C8 1_555 1_555
C9 O1 1_555 1_555
H23 C9 1_555 1_555
H24 C9 1_555 1_555
C10 C9 1_555 1_555
H25 C10 1_555 1_555
H26 C10 1_555 1_555
C11 O2 1_555 1_555
H27 C11 1_555 1_555
H28 C11 1_555 1_555
C12 O3 1_555 1_555
H29 C12 1_555 1_555
H30 C12 1_555 1_555
C13 N1 1_555 1_555
H31 C13 1_555 1_555
C14 C13 1_555 1_555
H32 C14 1_555 1_555
C15 C14 1_555 1_555
C16 C15 1_555 1_555
H33 C16 1_555 1_555
C17 N1 1_555 1_555
H34 C17 1_555 1_555
C18 O8 1_555 1_555
B1 F1 1_555 1_555
F2 B1 1_555 1_555
F3 B1 1_555 1_555
F4 B1 1_555 1_555
C11 C12 1_555 1_555
C15 C18 1_555 1_555
C16 C17 1_555 1_555

#END
