
#######################################################################
#
#                 Cambridge Crystallographic Data Centre
#                                CCDC 
#
#######################################################################
#
# If this CIF has been generated from an entry in the Cambridge 
# Structural Database, then it will include bibliographic, chemical, 
# crystal, experimental, refinement or atomic coordinate data resulting 
# from the CCDC's data processing and validation procedures.
#
#######################################################################

data_GAZXOX
_chemical_formula_moiety         'C29 H29 N1'
_chemical_name_systematic        
3-(cyclohex-2-en-1-yl)-2-(1,2-diphenylethyl)-1-methyl-1H-indole
_symmetry_cell_setting           trigonal
_symmetry_space_group_name_H-M   'P 32'
_symmetry_Int_Tables_number      145
_space_group_name_Hall           'P 32'
loop_
_symmetry_equiv_pos_site_id
_symmetry_equiv_pos_as_xyz
1 x,y,z
2 -y,x-y,2/3+z
3 -x+y,-x,1/3+z
_cell_length_a                   10.8165(4)
_cell_length_b                   10.8165(4)
_cell_length_c                   16.2708(5)
_cell_angle_alpha                90
_cell_angle_beta                 90
_cell_angle_gamma                120
_cell_volume                     1648.59
_exptl_crystal_colour            colorless
_exptl_crystal_description       prism
_cell_formula_units_Z            3
loop_
_atom_site_label
_atom_site_type_symbol
_atom_site_fract_x
_atom_site_fract_y
_atom_site_fract_z
C1 C 0.4476(2) 0.3603(2) 0.52698(13)
C2 C 0.3610(2) 0.2686(2) 0.58703(12)
C3 C 0.4215(2) 0.1821(2) 0.61080(13)
C4 C 0.3812(3) 0.0693(2) 0.66612(14)
H1 H 0.2985 0.0377 0.6992
C5 C 0.4628(3) 0.0044(3) 0.67211(17)
H2 H 0.4351 -0.0730 0.7091
C6 C 0.5859(3) 0.0512(3) 0.62445(19)
H3 H 0.6406 0.0051 0.6299
C7 C 0.6297(3) 0.1629(3) 0.56956(18)
H4 H 0.7137 0.1946 0.5375
C8 C 0.5456(2) 0.2276(2) 0.56297(14)
C9 C 0.4340(3) 0.4777(2) 0.48540(13)
H5 H 0.3425 0.4680 0.5061
C10 C 0.5522(3) 0.6273(3) 0.51334(15)
H6 H 0.6457 0.6438 0.4934
H7 H 0.5348 0.7006 0.4883
C11 C 0.5575(3) 0.6434(2) 0.60559(14)
C12 C 0.6641(3) 0.6379(3) 0.65084(17)
H8 H 0.7347 0.6258 0.6232
C13 C 0.6682(4) 0.6500(3) 0.73583(18)
H9 H 0.7421 0.6473 0.7658
C14 C 0.5662(4) 0.6658(3) 0.77691(16)
H10 H 0.5684 0.6727 0.8352
C15 C 0.4600(4) 0.6717(3) 0.73269(17)
H11 H 0.3894 0.6832 0.7608
C16 C 0.4557(3) 0.6609(3) 0.64766(16)
H12 H 0.3825 0.6656 0.6180
C17 C 0.4166(3) 0.4597(3) 0.39212(14)
C18 C 0.3029(3) 0.3366(3) 0.36008(16)
H13 H 0.2371 0.2657 0.3966
C19 C 0.2827(3) 0.3145(4) 0.27598(18)
H14 H 0.2039 0.2291 0.2557
C20 C 0.3765(3) 0.4158(3) 0.22177(15)
H15 H 0.3631 0.4007 0.1642
C21 C 0.4901(4) 0.5396(3) 0.25231(17)
H16 H 0.5558 0.6101 0.2155
C22 C 0.5089(4) 0.5619(3) 0.33674(17)
H17 H 0.5864 0.6485 0.3568
C23 C 0.2278(2) 0.2577(2) 0.62299(13)
C24 C 0.2349(3) 0.2657(3) 0.71581(14)
H18 H 0.3221 0.3346 0.7405
C25 C 0.1278(4) 0.1834(3) 0.76453(15)
H19 H 0.1437 0.1937 0.8222
C26 C -0.0174(4) 0.0746(4) 0.73482(19)
H20 H -0.0903 0.0838 0.7667
H21 H -0.0319 -0.0221 0.7447
C27 C -0.0378(3) 0.0912(4) 0.64409(18)
H22 H -0.0575 0.1705 0.6365
H23 H -0.1212 0.0026 0.6235
C28 C 0.0938(3) 0.1215(3) 0.59462(16)
H24 H 0.0765 0.1311 0.5358
H25 H 0.1102 0.0396 0.5999
C29 C 0.6702(3) 0.3995(3) 0.44899(19)
H26 H 0.7645 0.4497 0.4749
H27 H 0.6553 0.4671 0.4164
H28 H 0.6645 0.3241 0.4131
N1 N 0.5605(2) 0.3362(2) 0.51225(12)
H29 H 0.219(3) 0.340(3) 0.6063(18)
loop_
_geom_bond_atom_site_label_1
_geom_bond_atom_site_label_2
_geom_bond_site_symmetry_1
_geom_bond_site_symmetry_2
C1 C2 1_555 1_555
C2 C3 1_555 1_555
C3 C4 1_555 1_555
C4 H1 1_555 1_555
C5 C4 1_555 1_555
H2 C5 1_555 1_555
C6 C5 1_555 1_555
H3 C6 1_555 1_555
C7 C6 1_555 1_555
H4 C7 1_555 1_555
C8 C3 1_555 1_555
C9 C1 1_555 1_555
H5 C9 1_555 1_555
C10 C9 1_555 1_555
H6 C10 1_555 1_555
H7 C10 1_555 1_555
C11 C10 1_555 1_555
C12 C11 1_555 1_555
H8 C12 1_555 1_555
C13 C12 1_555 1_555
H9 C13 1_555 1_555
C14 C13 1_555 1_555
H10 C14 1_555 1_555
C15 C14 1_555 1_555
H11 C15 1_555 1_555
C16 C11 1_555 1_555
H12 C16 1_555 1_555
C17 C9 1_555 1_555
C18 C17 1_555 1_555
H13 C18 1_555 1_555
C19 C18 1_555 1_555
H14 C19 1_555 1_555
C20 C19 1_555 1_555
H15 C20 1_555 1_555
C21 C20 1_555 1_555
H16 C21 1_555 1_555
C22 C17 1_555 1_555
H17 C22 1_555 1_555
C23 C2 1_555 1_555
C24 C23 1_555 1_555
H18 C24 1_555 1_555
C25 C24 1_555 1_555
H19 C25 1_555 1_555
C26 C25 1_555 1_555
H20 C26 1_555 1_555
H21 C26 1_555 1_555
C27 C26 1_555 1_555
H22 C27 1_555 1_555
H23 C27 1_555 1_555
C28 C23 1_555 1_555
H24 C28 1_555 1_555
H25 C28 1_555 1_555
C29 H26 1_555 1_555
H27 C29 1_555 1_555
H28 C29 1_555 1_555
N1 C1 1_555 1_555
H29 C23 1_555 1_555
C7 C8 1_555 1_555
C8 N1 1_555 1_555
C15 C16 1_555 1_555
C21 C22 1_555 1_555
C27 C28 1_555 1_555
C29 N1 1_555 1_555

#END
