
#######################################################################
#
#                 Cambridge Crystallographic Data Centre
#                                CCDC 
#
#######################################################################
#
# If this CIF has been generated from an entry in the Cambridge 
# Structural Database, then it will include bibliographic, chemical, 
# crystal, experimental, refinement or atomic coordinate data resulting 
# from the CCDC's data processing and validation procedures.
#
#######################################################################

data_GAZXAI
_chemical_formula_moiety         'C12 H24 O6,C6 H6 N1 O2 1+,Cl1 O4 1-,2(H2 O1)'
_chemical_name_systematic        
'4-Carboxypyridinium perchlorate 18-crown-6 dihydrate clathrate'
_symmetry_cell_setting           orthorhombic
_symmetry_space_group_name_H-M   'P n a 21'
_symmetry_Int_Tables_number      33
_space_group_name_Hall           'P 2c -2n'
loop_
_symmetry_equiv_pos_site_id
_symmetry_equiv_pos_as_xyz
1 x,y,z
2 -x,-y,1/2+z
3 1/2+x,1/2-y,z
4 1/2-x,1/2+y,1/2+z
_cell_length_a                   14.668(3)
_cell_length_b                   10.242(2)
_cell_length_c                   17.191(3)
_cell_angle_alpha                90
_cell_angle_beta                 90
_cell_angle_gamma                90
_cell_volume                     2582.6
_exptl_crystal_colour            colorless
_exptl_crystal_description       prism
_chemical_melting_point          '470 K'
_cell_formula_units_Z            4
loop_
_atom_site_label
_atom_site_type_symbol
_atom_site_fract_x
_atom_site_fract_y
_atom_site_fract_z
O1 O 0.67441(16) 0.8131(3) 0.93376(17)
O2 O 0.4708(2) 0.9027(3) 0.70453(16)
O3 O 0.55387(18) 0.6027(3) 0.93773(14)
O4 O 0.43690(19) 0.5007(3) 0.82712(18)
O6 O 0.41844(16) 0.6386(3) 0.68586(17)
O8 O 0.6157(2) 0.9755(3) 0.8090(2)
C7 C 0.6086(3) 0.7995(5) 0.9934(3)
H7 H 0.5527 0.8433 0.9784
H8 H 0.6308 0.8395 1.0409
C8 C 0.5902(3) 0.6578(5) 1.0070(2)
H9 H 0.6462 0.6135 1.0211
H10 H 0.5471 0.6475 1.0493
C9 C 0.4954(3) 0.4200(4) 0.8719(3)
H11 H 0.5522 0.4069 0.8442
H12 H 0.4671 0.3354 0.8794
C10 C 0.3735(3) 0.7447(7) 0.6490(3)
H13 H 0.3260 0.7784 0.6827
H14 H 0.3453 0.7153 0.6010
C11 C 0.5142(3) 0.4790(4) 0.9477(3)
H15 H 0.4579 0.4874 0.9769
H16 H 0.5552 0.4234 0.9770
C12 C 0.4085(4) 0.4422(5) 0.7558(3)
H17 H 0.3702 0.3672 0.7666
H18 H 0.4614 0.4126 0.7269
C13 C 0.6375(4) 1.0283(5) 0.8833(4)
H19 H 0.5832 1.0318 0.9154
H20 H 0.6609 1.1164 0.8775
C14 C 0.4384(4) 0.8457(6) 0.6325(3)
H21 H 0.4102 0.9127 0.6007
H22 H 0.4894 0.8096 0.6037
C15 C 0.7065(3) 0.9451(5) 0.9201(4)
H23 H 0.7601 0.9419 0.8871
H24 H 0.7243 0.9837 0.9694
C16 C 0.5573(4) 1.0632(5) 0.7697(4)
H25 H 0.5879 1.1463 0.7626
H26 H 0.5029 1.0780 0.8006
C17 C 0.5319(4) 1.0088(5) 0.6938(3)
H27 H 0.5031 1.0758 0.6623
H28 H 0.5861 0.9790 0.6667
C18 C 0.3574(3) 0.5384(6) 0.7094(3)
H29 H 0.3311 0.4965 0.6641
H30 H 0.3084 0.5753 0.7402
N1 N 0.17397(19) 0.8423(3) 0.80658(17)
H1 H 0.166(2) 0.794(3) 0.8463(17)
C1 C 0.19121(17) 1.0380(3) 0.70225(17)
C2 C 0.1977(2) 1.1524(3) 0.6472(2)
C3 C 0.1343(2) 0.9330(3) 0.68718(18)
H2 H 0.1014 0.9288 0.6410
C4 C 0.2298(2) 0.9409(4) 0.8230(2)
H3 H 0.2624 0.9417 0.8694
O5 O 0.1399(2) 1.1455(3) 0.59110(18)
H4 H 0.148(4) 1.213(3) 0.564(3)
C5 C 0.2389(2) 1.0409(3) 0.77092(19)
H5 H 0.2773 1.1107 0.7820
O7 O 0.2502(2) 1.2393(3) 0.65744(19)
C6 C 0.1271(2) 0.8352(3) 0.7415(2)
H6 H 0.0892 0.7641 0.7322
O9 O 0.4119(2) 0.7797(3) 0.85185(17)
H31 H 0.423(4) 0.813(4) 0.8092(19)
H32 H 0.425(4) 0.700(2) 0.849(3)
O10 O 0.3751(3) 0.8381(3) 1.00170(16)
H33 H 0.382(4) 0.825(5) 0.9536(14)
H34 H 0.341(3) 0.906(4) 1.003(3)
Cl1 Cl 0.6838(4) 0.8203(7) 0.4845(3)
O11 O 0.6719(5) 0.6969(6) 0.5168(4)
O12 O 0.6986(5) 0.9221(7) 0.5398(4)
O13 O 0.6269(4) 0.8669(5) 0.4227(3)
O14 O 0.7724(4) 0.8082(7) 0.4504(4)
Cl2? Cl 0.6797(8) 0.8193(14) 0.4803(8)
O15? O 0.6342(11) 0.7462(13) 0.5359(10)
O16? O 0.7337(11) 0.9254(15) 0.5039(9)
O17? O 0.5902(8) 0.8656(12) 0.4637(7)
O18? O 0.7045(9) 0.7600(15) 0.4097(8)
loop_
_geom_bond_atom_site_label_1
_geom_bond_atom_site_label_2
_geom_bond_site_symmetry_1
_geom_bond_site_symmetry_2
O1 C7 1_555 1_555
N1 H1 1_555 1_555
C1 C2 1_555 1_555
C2 O5 1_555 1_555
O2 C14 1_555 1_555
O3 C8 1_555 1_555
C3 C1 1_555 1_555
H2 C3 1_555 1_555
O4 C9 1_555 1_555
C4 N1 1_555 1_555
H3 C4 1_555 1_555
O5 H4 1_555 1_555
C5 C1 1_555 1_555
H5 C5 1_555 1_555
O6 C10 1_555 1_555
O7 C2 1_555 1_555
O8 C13 1_555 1_555
C6 N1 1_555 1_555
H6 C6 1_555 1_555
C7 H7 1_555 1_555
H8 C7 1_555 1_555
C8 C7 1_555 1_555
H9 C8 1_555 1_555
H10 C8 1_555 1_555
C9 H11 1_555 1_555
H12 C9 1_555 1_555
C10 H13 1_555 1_555
H14 C10 1_555 1_555
C11 O3 1_555 1_555
H15 C11 1_555 1_555
H16 C11 1_555 1_555
C12 O4 1_555 1_555
H17 C12 1_555 1_555
H18 C12 1_555 1_555
C13 H19 1_555 1_555
H20 C13 1_555 1_555
C14 C10 1_555 1_555
H21 C14 1_555 1_555
H22 C14 1_555 1_555
C15 O1 1_555 1_555
H23 C15 1_555 1_555
H24 C15 1_555 1_555
C16 O8 1_555 1_555
H25 C16 1_555 1_555
H26 C16 1_555 1_555
C17 O2 1_555 1_555
H27 C17 1_555 1_555
H28 C17 1_555 1_555
C18 O6 1_555 1_555
H29 C18 1_555 1_555
H30 C18 1_555 1_555
O9 H31 1_555 1_555
H32 O9 1_555 1_555
O10 H33 1_555 1_555
H34 O10 1_555 1_555
Cl1 O11 1_555 1_555
O12 Cl1 1_555 1_555
O13 Cl1 1_555 1_555
O14 Cl1 1_555 1_555
C3 C6 1_555 1_555
C4 C5 1_555 1_555
C9 C11 1_555 1_555
C12 C18 1_555 1_555
C13 C15 1_555 1_555
C16 C17 1_555 1_555

#END
