
#######################################################################
#
#                 Cambridge Crystallographic Data Centre
#                                CCDC 
#
#######################################################################
#
# If this CIF has been generated from an entry in the Cambridge 
# Structural Database, then it will include bibliographic, chemical, 
# crystal, experimental, refinement or atomic coordinate data resulting 
# from the CCDC's data processing and validation procedures.
#
#######################################################################

data_GEBBAT
_chemical_formula_moiety         'C8 H8 B1 N1'
_chemical_name_systematic        1H-pyrido[2,1-f][1,2]azaborinine
_symmetry_cell_setting           monoclinic
_symmetry_space_group_name_H-M   'P 21/c'
_symmetry_Int_Tables_number      14
_space_group_name_Hall           '-P 2ybc'
loop_
_symmetry_equiv_pos_site_id
_symmetry_equiv_pos_as_xyz
1 x,y,z
2 -x,1/2+y,1/2-z
3 -x,-y,-z
4 x,1/2-y,1/2+z
_cell_length_a                   7.850(2)
_cell_length_b                   6.0119(16)
_cell_length_c                   7.995(2)
_cell_angle_alpha                90
_cell_angle_beta                 112.370(4)
_cell_angle_gamma                90
_cell_volume                     348.917
_exptl_crystal_colour            colorless
_exptl_crystal_description       prism
_cell_formula_units_Z            2
loop_
_atom_site_label
_atom_site_type_symbol
_atom_site_fract_x
_atom_site_fract_y
_atom_site_fract_z
C1 C 0.57185(12) 0.74569(14) 0.64895(11)
C2 C 0.75035(12) 0.69244(15) 0.76112(11)
C3 C 0.82893(12) 0.48912(16) 0.73977(12)
B1 B 0.72259(12) 0.33985(15) 0.60194(12)
H1 H 0.5127(17) 0.887(2) 0.6603(16)
H2 H 0.8224(18) 0.803(2) 0.8564(19)
H3 H 0.9561(19) 0.452(2) 0.8222(18)
H4 H 0.7683(18) 0.186(2) 0.5778(17)
N1 N 0.46283(10) 0.60131(12) 0.51225(9)
C1B C 0.42815(12) 0.25431(14) 0.35105(11)
C2B C 0.24965(12) 0.30756(15) 0.23888(11)
C3B C 0.17107(12) 0.51088(16) 0.26023(12)
B1B B 0.27741(12) 0.66015(15) 0.39806(12)
H1B H 0.4873(17) 0.113(2) 0.3397(16)
H2B H 0.1776(18) 0.197(2) 0.1436(19)
H3B H 0.0439(19) 0.548(2) 0.1778(18)
H4B H 0.2317(18) 0.814(2) 0.4222(17)
N1B N 0.53717(10) 0.39869(12) 0.48775(9)
C4? C 0.72259(12) 0.33985(15) 0.60194(12)
C5? C 0.46283(10) 0.60131(12) 0.51225(9)
loop_
_geom_bond_atom_site_label_1
_geom_bond_atom_site_label_2
_geom_bond_site_symmetry_1
_geom_bond_site_symmetry_2
C1 C2 1_555 1_555
C2 C3 1_555 1_555
C3 B1 1_555 1_555
B1 H4 1_555 1_555
H1 C1 1_555 1_555
H2 C2 1_555 1_555
H3 C3 1_555 1_555
N1 C1 1_555 1_555
C1B C2B 1_555 1_555
C2B C3B 1_555 1_555
C3B B1B 1_555 1_555
B1B N1 1_555 1_555
H1B C1B 1_555 1_555
H2B C2B 1_555 1_555
H3B C3B 1_555 1_555
H4B B1B 1_555 1_555
N1B B1 1_555 1_555
N1 N1B 1_555 1_555
C1B N1B 1_555 1_555

#END
