
#######################################################################
#
#                 Cambridge Crystallographic Data Centre
#                                CCDC 
#
#######################################################################
#
# If this CIF has been generated from an entry in the Cambridge 
# Structural Database, then it will include bibliographic, chemical, 
# crystal, experimental, refinement or atomic coordinate data resulting 
# from the CCDC's data processing and validation procedures.
#
#######################################################################

data_GEBBEX
_chemical_formula_moiety         'C8 H7 B1 F1 N1'
_chemical_name_systematic        7-fluoro-1H-pyrido[2,1-f][1,2]azaborinine
_symmetry_cell_setting           monoclinic
_symmetry_space_group_name_H-M   'P c'
_symmetry_Int_Tables_number      7
_space_group_name_Hall           'P -2yc'
loop_
_symmetry_equiv_pos_site_id
_symmetry_equiv_pos_as_xyz
1 x,y,z
2 x,-y,1/2+z
_cell_length_a                   7.465(3)
_cell_length_b                   14.687(6)
_cell_length_c                   6.709(3)
_cell_angle_alpha                90
_cell_angle_beta                 103.790(7)
_cell_angle_gamma                90
_cell_volume                     714.362
_exptl_crystal_colour            colorless
_exptl_crystal_description       block
_cell_formula_units_Z            4
loop_
_atom_site_label
_atom_site_type_symbol
_atom_site_fract_x
_atom_site_fract_y
_atom_site_fract_z
F1 F 0.1900(2) 0.21405(8) 0.3030(3)
N1 N 0.3683(3) 0.44354(12) 0.3468(3)
B1 B 0.5475(4) 0.48793(18) 0.3932(4)
H1 H 0.671(4) 0.4395(18) 0.420(5)
C1 C 0.3580(3) 0.34925(15) 0.3422(3)
H2 H 0.4682 0.3144 0.3657
C2 C 0.1955(4) 0.30696(14) 0.3052(4)
C3 C 0.0249(3) 0.35400(16) 0.2669(4)
H3 H -0.0894 0.3225 0.2427
C4 C 0.0333(3) 0.44661(16) 0.2664(4)
H4 H -0.0782 0.4806 0.2378
C5 C 0.2050(3) 0.49395(15) 0.3078(3)
C6 C 0.2135(3) 0.58850(15) 0.3109(4)
H5 H 0.1022 0.6226 0.2830
C7 C 0.3819(4) 0.63426(14) 0.3540(4)
H6 H 0.3819 0.6989 0.3548
C8 C 0.5485(4) 0.58905(16) 0.3954(4)
H7 H 0.6615 0.6218 0.4248
F2 F 0.6518(2) -0.21509(8) 0.6544(3)
N2 N 0.8033(3) 0.01885(12) 0.6906(3)
B2 B 0.9776(4) 0.06810(19) 0.7348(5)
H8 H 1.107(4) 0.0212(19) 0.763(5)
C9 C 0.8054(3) -0.07629(14) 0.6928(3)
H9 H 0.9195 -0.1081 0.7235
C10 C 0.6455(4) -0.12281(14) 0.6515(4)
C11 C 0.4721(3) -0.08046(16) 0.6039(4)
H10 H 0.3612 -0.1150 0.5740
C12 C 0.4693(3) 0.01216(16) 0.6023(4)
H11 H 0.3542 0.0430 0.5707
C13 C 0.6357(3) 0.06385(14) 0.6471(3)
C14 C 0.6324(4) 0.15894(15) 0.6454(4)
H12 H 0.5170 0.1896 0.6165
C15 C 0.7946(4) 0.20982(14) 0.6851(4)
H13 H 0.7870 0.2744 0.6816
C16 C 0.9656(4) 0.16907(16) 0.7294(5)
H14 H 1.0745 0.2050 0.7561
loop_
_geom_bond_atom_site_label_1
_geom_bond_atom_site_label_2
_geom_bond_site_symmetry_1
_geom_bond_site_symmetry_2
F1 C2 1_555 1_555
N1 B1 1_555 1_555
B1 H1 1_555 1_555
C1 N1 1_555 1_555
H2 C1 1_555 1_555
C2 C1 1_555 1_555
C3 C2 1_555 1_555
H3 C3 1_555 1_555
C4 C3 1_555 1_555
H4 C4 1_555 1_555
C5 N1 1_555 1_555
C6 C5 1_555 1_555
H5 C6 1_555 1_555
C7 C6 1_555 1_555
H6 C7 1_555 1_555
C8 B1 1_555 1_555
H7 C8 1_555 1_555
F2 C10 1_555 1_555
N2 B2 1_555 1_555
B2 H8 1_555 1_555
C9 N2 1_555 1_555
H9 C9 1_555 1_555
C10 C9 1_555 1_555
C11 C10 1_555 1_555
H10 C11 1_555 1_555
C12 C11 1_555 1_555
H11 C12 1_555 1_555
C13 N2 1_555 1_555
C14 C13 1_555 1_555
H12 C14 1_555 1_555
C15 C14 1_555 1_555
H13 C15 1_555 1_555
C16 B2 1_555 1_555
H14 C16 1_555 1_555
C4 C5 1_555 1_555
C7 C8 1_555 1_555
C12 C13 1_555 1_555
C15 C16 1_555 1_555

#END
