
#######################################################################
#
#                 Cambridge Crystallographic Data Centre
#                                CCDC 
#
#######################################################################
#
# If this CIF has been generated from an entry in the Cambridge 
# Structural Database, then it will include bibliographic, chemical, 
# crystal, experimental, refinement or atomic coordinate data resulting 
# from the CCDC's data processing and validation procedures.
#
#######################################################################

data_GEBGEC
_chemical_formula_moiety         'C30 H54 O6 Si2'
_chemical_name_systematic        
6-({[t-butyl(dimethyl)silyl]oxy}methyl)-6-methyl-9a-(3-methylbut-3-en-1-yl)-8a-[(triethylsilyl)oxy]octahydro-2H-cyclohepta[1,2-b:5,6-c']difuran-2,8(3H)-dione
_symmetry_cell_setting           orthorhombic
_symmetry_space_group_name_H-M   'P 21 21 21'
_symmetry_Int_Tables_number      19
_space_group_name_Hall           'P 2ac 2ab'
loop_
_symmetry_equiv_pos_site_id
_symmetry_equiv_pos_as_xyz
1 x,y,z
2 1/2-x,-y,1/2+z
3 1/2+x,1/2-y,-z
4 -x,1/2+y,1/2-z
_cell_length_a                   9.47108(12)
_cell_length_b                   11.24253(17)
_cell_length_c                   30.7140(4)
_cell_angle_alpha                90
_cell_angle_beta                 90
_cell_angle_gamma                90
_cell_volume                     3270.39
_exptl_crystal_colour            colorless
_exptl_crystal_description       block
_cell_formula_units_Z            4
loop_
_atom_site_label
_atom_site_type_symbol
_atom_site_fract_x
_atom_site_fract_y
_atom_site_fract_z
Si1 Si 0.98982(5) 0.50563(5) 0.37987(2)
Si2 Si 0.78268(6) 0.93090(5) 0.29609(2)
O1 O 0.85724(15) 0.55130(13) 0.41084(4)
O2 O 0.91140(14) 0.84855(12) 0.42978(4)
O3 O 0.77307(15) 0.39435(12) 0.47534(5)
O4 O 1.07269(15) 0.71302(13) 0.44669(5)
O5 O 0.79424(17) 0.88070(14) 0.34657(4)
O6 O 0.7142(2) 0.22299(14) 0.44339(6)
C1 C 0.9519(2) 0.73740(17) 0.43868(6)
C2 C 0.8005(2) 0.60725(17) 0.48428(6)
H1 H 0.8917 0.5881 0.4968
H2 H 0.7632 0.6741 0.5006
C3 C 0.7099(2) 0.72766(17) 0.41696(6)
H3 H 0.7126 0.7130 0.3855
C4 C 0.7580(2) 0.85792(18) 0.42381(6)
C5 C 0.7026(2) 0.50069(17) 0.49260(6)
C6 C 0.8263(2) 0.65041(17) 0.43725(6)
C7 C 0.7349(2) 0.93587(19) 0.38398(6)
H4 H 0.6345 0.9482 0.3796
H5 H 0.7787 1.0129 0.3885
C8 C 0.6778(3) 0.3164(2) 0.45910(7)
C9 C 0.5600(2) 0.69886(19) 0.43193(7)
H6 H 0.4929 0.7414 0.4139
H7 H 0.5475 0.7253 0.4617
C10 C 0.5532(2) 0.49868(19) 0.47197(7)
H8 H 0.4845 0.5271 0.4934
C11 C 1.0477(3) 0.6277(2) 0.34156(7)
H9 H 1.0342 0.5996 0.3120
H10 H 0.9851 0.6951 0.3457
C12 C 0.9041(2) 0.38109(19) 0.34961(7)
H11 H 0.9744 0.3431 0.3313
H12 H 0.8713 0.3224 0.3704
C13 C 0.7007(2) 0.92184(18) 0.46377(6)
H13 H 0.7189 0.8748 0.4893
H14 H 0.6008 0.9333 0.4606
H15 H 0.7463 0.9977 0.4667
C14 C 0.8252(2) 0.4709(2) 0.56771(7)
H16 H 0.8896 0.4205 0.5515
H17 H 0.8681 0.5489 0.5701
C15 C 1.1442(2) 0.4471(2) 0.41122(7)
H18 H 1.2123 0.4152 0.3907
H19 H 1.1888 0.5130 0.4262
C16 C 0.6874(2) 0.48204(19) 0.54219(6)
H20 H 0.6343 0.5483 0.5540
H21 H 0.6322 0.4106 0.5470
C17 C 0.5304(2) 0.56518(19) 0.42911(7)
H22 H 0.4335 0.5536 0.4198
H23 H 0.5913 0.5308 0.4071
C18 C 0.6278(3) 0.8584(2) 0.26803(7)
C19 C 0.5309(2) 0.3647(2) 0.46474(8)
H24 H 0.4847 0.3286 0.4897
H25 H 0.4743 0.3503 0.4390
C20 C 0.8070(3) 0.4198(2) 0.61302(7)
C21 C 0.7625(3) 1.0955(2) 0.29638(8)
H26 H 0.6722 1.1161 0.3084
H27 H 0.7689 1.1251 0.2671
H28 H 0.8359 1.1303 0.3137
C22 C 0.6153(3) 0.9058(3) 0.22131(8)
H29 H 0.5993 0.9901 0.2220
H30 H 0.5377 0.8675 0.2069
H31 H 0.7011 0.8896 0.2058
C23 C 0.9506(3) 0.8882(3) 0.26936(8)
H32 H 1.0283 0.9237 0.2847
H33 H 0.9502 0.9155 0.2398
H34 H 0.9603 0.8032 0.2698
C24 C 0.7795(3) 0.4191(2) 0.32109(8)
H35 H 0.8099 0.4793 0.3010
H36 H 0.7056 0.4504 0.3392
H37 H 0.7448 0.3516 0.3052
C25 C 1.1996(3) 0.6723(3) 0.34576(9)
H38 H 1.2161 0.7341 0.3248
H39 H 1.2637 0.6077 0.3405
H40 H 1.2145 0.7029 0.3746
C26 C 1.1095(3) 0.3507(2) 0.44465(9)
H41 H 1.0593 0.2872 0.4307
H42 H 1.0521 0.3840 0.4673
H43 H 1.1955 0.3205 0.4570
C27 C 0.6490(4) 0.7234(3) 0.26637(11)
H44 H 0.7364 0.7057 0.2519
H45 H 0.5723 0.6875 0.2507
H46 H 0.6514 0.6922 0.2955
C28 C 0.8997(3) 0.3421(2) 0.62908(8)
H47 H 0.8893 0.3138 0.6573
H48 H 0.9748 0.3162 0.6120
C29 C 0.6856(3) 0.4637(3) 0.63901(8)
H49 H 0.6893 0.5489 0.6407
H50 H 0.6900 0.4307 0.6678
H51 H 0.5990 0.4399 0.6253
C30 C 0.4899(3) 0.8864(3) 0.29230(10)
H52 H 0.4921 0.8501 0.3206
H53 H 0.4113 0.8556 0.2761
H54 H 0.4800 0.9709 0.2954
loop_
_geom_bond_atom_site_label_1
_geom_bond_atom_site_label_2
_geom_bond_site_symmetry_1
_geom_bond_site_symmetry_2
Si1 O1 1_555 1_555
Si2 O5 1_555 1_555
O1 C6 1_555 1_555
O2 C1 1_555 1_555
O3 C5 1_555 1_555
O4 C1 1_555 1_555
O5 C7 1_555 1_555
O6 C8 1_555 1_555
C1 C6 1_555 1_555
C2 H1 1_555 1_555
H2 C2 1_555 1_555
C3 H3 1_555 1_555
C4 O2 1_555 1_555
C5 C2 1_555 1_555
C6 C2 1_555 1_555
C7 C4 1_555 1_555
H4 C7 1_555 1_555
H5 C7 1_555 1_555
C8 O3 1_555 1_555
C9 C3 1_555 1_555
H6 C9 1_555 1_555
H7 C9 1_555 1_555
C10 C5 1_555 1_555
H8 C10 1_555 1_555
C11 Si1 1_555 1_555
H9 C11 1_555 1_555
H10 C11 1_555 1_555
C12 Si1 1_555 1_555
H11 C12 1_555 1_555
H12 C12 1_555 1_555
C13 C4 1_555 1_555
H13 C13 1_555 1_555
H14 C13 1_555 1_555
H15 C13 1_555 1_555
C14 H16 1_555 1_555
H17 C14 1_555 1_555
C15 Si1 1_555 1_555
H18 C15 1_555 1_555
H19 C15 1_555 1_555
C16 C5 1_555 1_555
H20 C16 1_555 1_555
H21 C16 1_555 1_555
C17 C9 1_555 1_555
H22 C17 1_555 1_555
H23 C17 1_555 1_555
C18 Si2 1_555 1_555
C19 C8 1_555 1_555
H24 C19 1_555 1_555
H25 C19 1_555 1_555
C20 C14 1_555 1_555
C21 Si2 1_555 1_555
H26 C21 1_555 1_555
H27 C21 1_555 1_555
H28 C21 1_555 1_555
C22 C18 1_555 1_555
H29 C22 1_555 1_555
H30 C22 1_555 1_555
H31 C22 1_555 1_555
C23 Si2 1_555 1_555
H32 C23 1_555 1_555
H33 C23 1_555 1_555
H34 C23 1_555 1_555
C24 C12 1_555 1_555
H35 C24 1_555 1_555
H36 C24 1_555 1_555
H37 C24 1_555 1_555
C25 C11 1_555 1_555
H38 C25 1_555 1_555
H39 C25 1_555 1_555
H40 C25 1_555 1_555
C26 C15 1_555 1_555
H41 C26 1_555 1_555
H42 C26 1_555 1_555
H43 C26 1_555 1_555
C27 C18 1_555 1_555
H44 C27 1_555 1_555
H45 C27 1_555 1_555
H46 C27 1_555 1_555
C28 C20 1_555 1_555
H47 C28 1_555 1_555
H48 C28 1_555 1_555
C29 C20 1_555 1_555
H49 C29 1_555 1_555
H50 C29 1_555 1_555
H51 C29 1_555 1_555
C30 C18 1_555 1_555
H52 C30 1_555 1_555
H53 C30 1_555 1_555
H54 C30 1_555 1_555
C3 C4 1_555 1_555
C3 C6 1_555 1_555
C10 C17 1_555 1_555
C10 C19 1_555 1_555
C14 C16 1_555 1_555

#END
