
#######################################################################
#
#                 Cambridge Crystallographic Data Centre
#                                CCDC 
#
#######################################################################
#
# If this CIF has been generated from an entry in the Cambridge 
# Structural Database, then it will include bibliographic, chemical, 
# crystal, experimental, refinement or atomic coordinate data resulting 
# from the CCDC's data processing and validation procedures.
#
#######################################################################

data_GEBJUS01
_chemical_formula_moiety         'C17 H17 N1 O3'
_chemical_name_systematic        
3,4,5,8,9,14b-hexahydro-6H-cyclopenta[a][1,3]dioxolo[4,5-h]pyrrolo[2,1-b][3]benzazepin-6-one
_symmetry_cell_setting           triclinic
_symmetry_space_group_name_H-M   'P -1'
_symmetry_Int_Tables_number      2
_space_group_name_Hall           '-P 1'
loop_
_symmetry_equiv_pos_site_id
_symmetry_equiv_pos_as_xyz
1 x,y,z
2 -x,-y,-z
_cell_length_a                   6.9035(6)
_cell_length_b                   11.1060(11)
_cell_length_c                   17.6090(16)
_cell_angle_alpha                90.297(2)
_cell_angle_beta                 91.552(2)
_cell_angle_gamma                91.987(2)
_cell_volume                     1348.75
_exptl_crystal_colour            colorless
_exptl_crystal_description       prismatic
_cell_formula_units_Z            4
loop_
_atom_site_label
_atom_site_type_symbol
_atom_site_fract_x
_atom_site_fract_y
_atom_site_fract_z
N1 N 0.0292(2) 0.86569(14) 0.05806(9)
O1 O 0.2532(2) 1.01602(13) 0.08880(9)
O2 O 0.5604(2) 0.66561(17) 0.29158(10)
O3 O 0.4034(3) 0.80657(18) 0.36225(9)
C1 C 0.2079(3) 0.92014(18) 0.05771(11)
C2 C 0.3382(3) 0.8426(2) 0.01367(13)
H1 H 0.4286 0.8023 0.0472
H2 H 0.4105 0.8898 -0.0229
C3 C 0.1995(3) 0.7526(2) -0.02597(12)
H3 H 0.2582 0.6750 -0.0311
H4 H 0.1615 0.7808 -0.0761
C4 C 0.0250(3) 0.74365(17) 0.02561(11)
C5 C -0.1665(3) 0.7098(2) -0.01675(14)
H5 H -0.2435 0.7804 -0.0243
H6 H -0.1420 0.6745 -0.0659
C6 C -0.2669(4) 0.6224(2) 0.03159(15)
H7 H -0.3938 0.5943 0.0222
C7 C -0.1583(4) 0.5875(2) 0.09002(15)
H8 H -0.2006 0.5340 0.1270
C8 C 0.0425(3) 0.64546(18) 0.08920(12)
H9 H 0.1292 0.5846 0.0705
C9 C 0.1282(3) 0.69131(17) 0.16438(11)
C10 C 0.0365(3) 0.77789(18) 0.20681(11)
C11 C -0.1485(3) 0.83191(19) 0.17779(12)
H10 H -0.2001 0.8814 0.2175
H11 H -0.2433 0.7676 0.1660
C12 C -0.1190(3) 0.90886(18) 0.10681(12)
H12 H -0.2406 0.9105 0.0780
H13 H -0.0843 0.9908 0.1225
C13 C 0.3073(3) 0.6484(2) 0.18942(13)
H14 H 0.3704 0.5910 0.1615
C14 C 0.1215(3) 0.82092(19) 0.27524(12)
H15 H 0.0609 0.8778 0.3045
C15 C 0.2949(3) 0.7772(2) 0.29761(12)
C16 C 0.3870(3) 0.6934(2) 0.25639(13)
C17 C 0.5781(4) 0.7443(3) 0.35656(16)
H16 H 0.6011 0.6978 0.4022
H17 H 0.6864 0.8012 0.3509
N2 N 0.1688(2) 0.15492(15) 0.32728(9)
O4 O -0.0816(2) 0.05945(18) 0.38603(10)
O5 O 0.2486(2) 0.62905(15) 0.49216(9)
O6 O -0.0507(2) 0.64810(16) 0.43216(10)
C18 C 0.0898(3) 0.0913(2) 0.38368(12)
C19 C 0.2458(4) 0.0634(3) 0.44062(14)
H18 H 0.2110 0.0889 0.4910
H19 H 0.2676 -0.0225 0.4414
C20 C 0.4221(3) 0.1313(2) 0.41579(13)
H20 H 0.5335 0.0804 0.4180
H21 H 0.4488 0.2009 0.4484
C21 C 0.3808(3) 0.17118(19) 0.33385(11)
C22 C 0.4791(3) 0.1003(2) 0.27081(14)
H22 H 0.5973 0.0650 0.2900
H23 H 0.3928 0.0367 0.2503
C23 C 0.5219(3) 0.1925(2) 0.21241(13)
H24 H 0.5585 0.1743 0.1633
C24 C 0.5024(3) 0.3026(2) 0.23765(13)
H25 H 0.5209 0.3713 0.2084
C25 C 0.4465(3) 0.30425(18) 0.31955(11)
H26 H 0.5662 0.3194 0.3498
C26 C 0.3038(3) 0.39475(18) 0.34531(11)
C27 C 0.1210(3) 0.40450(19) 0.31021(11)
C28 C 0.0635(3) 0.3244(2) 0.24359(12)
H27 H 0.1548 0.3392 0.2035
H28 H -0.0632 0.3470 0.2245
C29 C 0.0556(3) 0.1894(2) 0.26056(13)
H29 H -0.0786 0.1638 0.2674
H30 H 0.1015 0.1465 0.2168
C30 C 0.3565(3) 0.46824(19) 0.40796(11)
H31 H 0.4767 0.4620 0.4325
C31 C -0.0076(3) 0.4889(2) 0.33619(12)
H32 H -0.1289 0.4967 0.3128
C32 C 0.0499(3) 0.55988(19) 0.39708(12)
C33 C 0.2269(3) 0.54923(19) 0.43211(12)
C34 C 0.0763(4) 0.6959(2) 0.49088(14)
H33 H 0.1075 0.7802 0.4813
H34 H 0.0142 0.6898 0.5395
loop_
_geom_bond_atom_site_label_1
_geom_bond_atom_site_label_2
_geom_bond_site_symmetry_1
_geom_bond_site_symmetry_2
N1 C1 1_555 1_555
O1 C1 1_555 1_555
O2 C16 1_555 1_555
O3 C15 1_555 1_555
C1 C2 1_555 1_555
C2 H1 1_555 1_555
H2 C2 1_555 1_555
C3 C2 1_555 1_555
H3 C3 1_555 1_555
H4 C3 1_555 1_555
C4 N1 1_555 1_555
C5 C4 1_555 1_555
H5 C5 1_555 1_555
H6 C5 1_555 1_555
C6 C5 1_555 1_555
H7 C6 1_555 1_555
C7 C6 1_555 1_555
H8 C7 1_555 1_555
C8 C4 1_555 1_555
H9 C8 1_555 1_555
C9 C8 1_555 1_555
C10 C9 1_555 1_555
C11 C10 1_555 1_555
H10 C11 1_555 1_555
H11 C11 1_555 1_555
C12 N1 1_555 1_555
H12 C12 1_555 1_555
H13 C12 1_555 1_555
C13 C9 1_555 1_555
H14 C13 1_555 1_555
C14 C10 1_555 1_555
H15 C14 1_555 1_555
C15 C14 1_555 1_555
C16 C13 1_555 1_555
C17 O2 1_555 1_555
H16 C17 1_555 1_555
H17 C17 1_555 1_555
N2 C18 1_555 1_555
O4 C18 1_555 1_555
O5 C33 1_555 1_555
O6 C32 1_555 1_555
C18 C19 1_555 1_555
C19 H18 1_555 1_555
H19 C19 1_555 1_555
C20 C19 1_555 1_555
H20 C20 1_555 1_555
H21 C20 1_555 1_555
C21 N2 1_555 1_555
C22 C21 1_555 1_555
H22 C22 1_555 1_555
H23 C22 1_555 1_555
C23 C22 1_555 1_555
H24 C23 1_555 1_555
C24 C23 1_555 1_555
H25 C24 1_555 1_555
C25 C21 1_555 1_555
H26 C25 1_555 1_555
C26 C25 1_555 1_555
C27 C26 1_555 1_555
C28 C27 1_555 1_555
H27 C28 1_555 1_555
H28 C28 1_555 1_555
C29 N2 1_555 1_555
H29 C29 1_555 1_555
H30 C29 1_555 1_555
C30 C26 1_555 1_555
H31 C30 1_555 1_555
C31 C27 1_555 1_555
H32 C31 1_555 1_555
C32 C31 1_555 1_555
C33 C30 1_555 1_555
C34 O5 1_555 1_555
H33 C34 1_555 1_555
H34 C34 1_555 1_555
O3 C17 1_555 1_555
C3 C4 1_555 1_555
C7 C8 1_555 1_555
C11 C12 1_555 1_555
C15 C16 1_555 1_555
O6 C34 1_555 1_555
C20 C21 1_555 1_555
C24 C25 1_555 1_555
C28 C29 1_555 1_555
C32 C33 1_555 1_555

#END
