
#######################################################################
#
#                 Cambridge Crystallographic Data Centre
#                                CCDC 
#
#######################################################################
#
# If this CIF has been generated from an entry in the Cambridge 
# Structural Database, then it will include bibliographic, chemical, 
# crystal, experimental, refinement or atomic coordinate data resulting 
# from the CCDC's data processing and validation procedures.
#
#######################################################################

data_GEBKAZ
_chemical_formula_moiety         'C26 H35 Cl1 O4'
_chemical_name_systematic        
'(20R,23R)-3\b-Acetoxy-23-chloro-20-hydroxy-5,16-choladien-24-oic acid lactone'
_symmetry_cell_setting           orthorhombic
_symmetry_space_group_name_H-M   'P 21 21 21'
_symmetry_Int_Tables_number      19
_space_group_name_Hall           'P 2ac 2ab'
loop_
_symmetry_equiv_pos_site_id
_symmetry_equiv_pos_as_xyz
1 x,y,z
2 1/2+x,1/2-y,-z
3 -x,1/2+y,1/2-z
4 1/2-x,-y,1/2+z
_cell_length_a                   7.672(2)
_cell_length_b                   8.332(2)
_cell_length_c                   38.046(9)
_cell_angle_alpha                90
_cell_angle_beta                 90
_cell_angle_gamma                90
_cell_volume                     2432.02
_exptl_crystal_colour            colorless
_chemical_melting_point          210-212deg.C
_cell_formula_units_Z            4
loop_
_atom_site_label
_atom_site_type_symbol
_atom_site_fract_x
_atom_site_fract_y
_atom_site_fract_z
Cl1 Cl 0.3602(2) 0.8553(2) 0.68276(4)
O1 O 0.6187(5) 0.5133(4) 0.72269(7)
O2 O 0.3418(4) 0.5699(5) 0.73468(8)
O3 O 0.5740(5) -0.1108(4) 0.45783(7)
O4 O 0.8132(6) -0.0450(5) 0.4283(1)
C1 C 0.5007(7) 0.1422(7) 0.5379(1)
C2 C 0.4581(7) 0.0317(7) 0.5067(1)
C3 C 0.6228(7) -0.0043(6) 0.4865(1)
C4 C 0.7584(7) -0.0832(7) 0.5104(1)
C5 C 0.7977(7) 0.0227(6) 0.5419(1)
C6 C 0.9586(7) 0.0629(6) 0.5495(1)
C7 C 1.0152(7) 0.1619(7) 0.5809(1)
C8 C 0.8668(6) 0.1795(6) 0.6077(1)
C9 C 0.6930(6) 0.2121(6) 0.5886(1)
C10 C 0.6389(7) 0.0766(6) 0.5636(1)
C11 C 0.5462(6) 0.2613(6) 0.6143(1)
C12 C 0.5976(6) 0.3957(6) 0.6402(1)
C13 C 0.7637(6) 0.3497(6) 0.6603(1)
C14 C 0.9038(6) 0.3177(6) 0.6327(1)
C15 C 1.0755(7) 0.3254(7) 0.6532(1)
C16 C 1.0308(7) 0.4496(7) 0.6802(1)
C17 C 0.8588(6) 0.4717(6) 0.6834(1)
C18 C 0.7257(7) 0.2001(6) 0.6838(1)
C19 C 0.5671(8) -0.0698(6) 0.5834(1)
C20 C 0.7748(7) 0.5916(6) 0.7073(1)
C21 C 0.8866(7) 0.6417(8) 0.7385(1)
C22 C 0.6972(7) 0.7352(6) 0.6874(1)
C23 C 0.5319(7) 0.7721(6) 0.7081(1)
C24 C 0.4816(6) 0.6110(6) 0.7231(1)
C25 C 0.6798(8) -0.1156(7) 0.4301(1)
C26 C 0.6072(9) -0.2239(6) 0.4018(1)
H1 H 0.543 0.241 0.529
H2 H 0.397 0.161 0.551
H3 H 0.410 -0.066 0.515
H4 H 0.376 0.083 0.492
H5 H 0.674 0.092 0.478
H6 H 0.715 -0.184 0.518
H7 H 0.862 -0.099 0.497
H8 H 1.048 0.029 0.534
H9 H 1.111 0.110 0.592
H10 H 1.050 0.265 0.573
H11 H 0.860 0.083 0.621
H12 H 0.712 0.303 0.574
H13 H 0.450 0.298 0.601
H14 H 0.513 0.169 0.627
H15 H 0.617 0.493 0.628
H16 H 0.506 0.411 0.657
H17 H 0.909 0.397 0.615
H18 H 1.102 0.225 0.664
H19 H 1.171 0.358 0.639
H20 H 1.115 0.507 0.693
H21 H 0.829 0.171 0.696
H22 H 0.689 0.113 0.669
H23 H 0.636 0.225 0.700
H24 H 0.653 -0.110 0.599
H25 H 0.536 -0.152 0.567
H26 H 0.467 -0.038 0.596
H27 H 0.824 0.717 0.752
H28 H 0.991 0.690 0.730
H29 H 0.915 0.551 0.752
H30 H 0.775 0.824 0.688
H31 H 0.671 0.708 0.664
H32 H 0.554 0.853 0.725
H33 H 0.685 -0.225 0.382
H34 H 0.496 -0.185 0.394
H35 H 0.595 -0.330 0.411
loop_
_geom_bond_atom_site_label_1
_geom_bond_atom_site_label_2
_geom_bond_site_symmetry_1
_geom_bond_site_symmetry_2
Cl1 C23 1_555 1_555
O1 C20 1_555 1_555
O2 C24 1_555 1_555
O3 C3 1_555 1_555
O4 C25 1_555 1_555
C1 C2 1_555 1_555
C2 C3 1_555 1_555
C3 C4 1_555 1_555
C4 C5 1_555 1_555
C5 C6 1_555 1_555
C6 C7 1_555 1_555
C7 C8 1_555 1_555
C8 C9 1_555 1_555
C9 C10 1_555 1_555
C10 C1 1_555 1_555
C11 C9 1_555 1_555
C12 C11 1_555 1_555
C13 C12 1_555 1_555
C14 C8 1_555 1_555
C15 C14 1_555 1_555
C16 C15 1_555 1_555
C17 C13 1_555 1_555
C18 C13 1_555 1_555
C19 C10 1_555 1_555
C20 C17 1_555 1_555
C21 C20 1_555 1_555
C22 C20 1_555 1_555
C23 C22 1_555 1_555
C24 O1 1_555 1_555
C25 O3 1_555 1_555
C26 C25 1_555 1_555
H1 C1 1_555 1_555
H2 C1 1_555 1_555
H3 C2 1_555 1_555
H4 C2 1_555 1_555
H5 C3 1_555 1_555
H6 C4 1_555 1_555
H7 C4 1_555 1_555
H8 C6 1_555 1_555
H9 C7 1_555 1_555
H10 C7 1_555 1_555
H11 C8 1_555 1_555
H12 C9 1_555 1_555
H13 C11 1_555 1_555
H14 C11 1_555 1_555
H15 C12 1_555 1_555
H16 C12 1_555 1_555
H17 C14 1_555 1_555
H18 C15 1_555 1_555
H19 C15 1_555 1_555
H20 C16 1_555 1_555
H21 C18 1_555 1_555
H22 C18 1_555 1_555
H23 C18 1_555 1_555
H24 C19 1_555 1_555
H25 C19 1_555 1_555
H26 C19 1_555 1_555
H27 C21 1_555 1_555
H28 C21 1_555 1_555
H29 C21 1_555 1_555
H30 C22 1_555 1_555
H31 C22 1_555 1_555
H32 C23 1_555 1_555
H33 C26 1_555 1_555
H34 C26 1_555 1_555
H35 C26 1_555 1_555
C5 C10 1_555 1_555
C13 C14 1_555 1_555
C16 C17 1_555 1_555
C23 C24 1_555 1_555

#END
