
#######################################################################
#
#                 Cambridge Crystallographic Data Centre
#                                CCDC 
#
#######################################################################
#
# If this CIF has been generated from an entry in the Cambridge 
# Structural Database, then it will include bibliographic, chemical, 
# crystal, experimental, refinement or atomic coordinate data resulting 
# from the CCDC's data processing and validation procedures.
#
#######################################################################

data_GEBKEF
_chemical_formula_moiety         'C20 H19 Cl1 O6'
_chemical_name_systematic        
'Dimethyl 5-(4-chlorophenyl)-2-(4-methylphenyl)-1,3-dioxolane-4,4-dicarboxylate'
_symmetry_cell_setting           triclinic
_symmetry_space_group_name_H-M   'P -1'
_symmetry_Int_Tables_number      2
_space_group_name_Hall           '-P 1'
loop_
_symmetry_equiv_pos_site_id
_symmetry_equiv_pos_as_xyz
1 x,y,z
2 -x,-y,-z
_cell_length_a                   8.8019(5)
_cell_length_b                   10.1972(5)
_cell_length_c                   12.0482(5)
_cell_angle_alpha                104.8220(10)
_cell_angle_beta                 101.6580(10)
_cell_angle_gamma                103.9180(10)
_cell_volume                     973.846
_exptl_crystal_colour            colorless
_exptl_crystal_description       block
_cell_formula_units_Z            2
loop_
_atom_site_label
_atom_site_type_symbol
_atom_site_fract_x
_atom_site_fract_y
_atom_site_fract_z
Cl1 Cl 0.12697(8) 0.47790(7) 0.62391(5)
O1 O 0.66967(15) 0.78235(13) 1.15278(11)
O2 O 0.61040(16) 0.90616(14) 1.31178(11)
O3 O 0.4237(2) 1.00454(17) 1.16770(17)
O4 O 0.20540(18) 0.81984(15) 1.13763(12)
O5 O 0.2892(3) 0.61149(17) 1.27197(16)
O6 O 0.37356(17) 0.82472(14) 1.40894(12)
C1 C 0.4534(2) 0.7185(2) 0.93298(18)
H1 H 0.5445 0.7990 0.9597
C2 C 0.3653(3) 0.6664(2) 0.81395(18)
H2 H 0.3972 0.7110 0.7603
C3 C 0.2306(2) 0.5485(2) 0.77548(16)
C4 C 0.1784(3) 0.4843(2) 0.85402(18)
H3 H 0.0837 0.4072 0.8278
C5 C 0.2687(3) 0.5358(2) 0.97234(18)
H4 H 0.2356 0.4915 1.0258
C6 C 0.4075(2) 0.65204(17) 1.01278(15)
C7 C 0.5080(2) 0.70282(18) 1.14120(16)
H5 H 0.5109 0.6197 1.1672
C8 C 0.4587(2) 0.81004(18) 1.23559(15)
C9 C 0.7370(2) 0.8560(2) 1.27594(17)
H6 H 0.7626 0.7904 1.3183
C10 C 0.8858(2) 0.97740(19) 1.30048(15)
C11 C 1.0350(2) 0.9773(2) 1.36398(17)
H7 H 1.0419 0.9006 1.3909
C12 C 1.1736(3) 1.0893(2) 1.38799(19)
H8 H 1.2731 1.0872 1.4307
C13 C 1.1668(3) 1.2044(2) 1.34960(19)
C14 C 1.0169(3) 1.2031(2) 1.2848(2)
H9 H 1.0102 1.2794 1.2572
C15 C 0.8780(2) 1.0916(2) 1.26033(19)
H10 H 0.7787 1.0930 1.2167
C16 C 1.3196(3) 1.3292(3) 1.3780(3)
H11 H 1.2923 1.3996 1.3449
H12 H 1.3984 1.2961 1.3438
H13 H 1.3646 1.3708 1.4631
C17 C 0.3633(3) 0.89278(19) 1.17746(17)
C18 C 0.1017(3) 0.8785(3) 1.0688(2)
H14 H -0.0092 0.8179 1.0448
H15 H 0.1361 0.8844 0.9991
H16 H 0.1091 0.9720 1.1169
C19 C 0.3638(2) 0.73507(19) 1.30682(16)
C20 C 0.2963(3) 0.7685(2) 1.48911(19)
H17 H 0.3128 0.8446 1.5608
H18 H 0.3432 0.6988 1.5090
H19 H 0.1816 0.7247 1.4509
loop_
_geom_bond_atom_site_label_1
_geom_bond_atom_site_label_2
_geom_bond_site_symmetry_1
_geom_bond_site_symmetry_2
Cl1 C3 1_555 1_555
O1 C7 1_555 1_555
O2 C8 1_555 1_555
O3 C17 1_555 1_555
O4 C17 1_555 1_555
O5 C19 1_555 1_555
O6 C19 1_555 1_555
C1 H1 1_555 1_555
C2 C1 1_555 1_555
H2 C2 1_555 1_555
C3 C2 1_555 1_555
C4 C3 1_555 1_555
H3 C4 1_555 1_555
C5 C4 1_555 1_555
H4 C5 1_555 1_555
C6 C1 1_555 1_555
C7 C6 1_555 1_555
H5 C7 1_555 1_555
C8 C7 1_555 1_555
C9 O1 1_555 1_555
H6 C9 1_555 1_555
C10 C9 1_555 1_555
C11 C10 1_555 1_555
H7 C11 1_555 1_555
C12 C11 1_555 1_555
H8 C12 1_555 1_555
C13 C12 1_555 1_555
C14 C13 1_555 1_555
H9 C14 1_555 1_555
C15 C10 1_555 1_555
H10 C15 1_555 1_555
C16 C13 1_555 1_555
H11 C16 1_555 1_555
H12 C16 1_555 1_555
H13 C16 1_555 1_555
C17 C8 1_555 1_555
C18 O4 1_555 1_555
H14 C18 1_555 1_555
H15 C18 1_555 1_555
H16 C18 1_555 1_555
C19 C8 1_555 1_555
C20 O6 1_555 1_555
H17 C20 1_555 1_555
H18 C20 1_555 1_555
H19 C20 1_555 1_555
O2 C9 1_555 1_555
C5 C6 1_555 1_555
C14 C15 1_555 1_555

#END
