
#######################################################################
#
#                 Cambridge Crystallographic Data Centre
#                                CCDC 
#
#######################################################################
#
# If this CIF has been generated from an entry in the Cambridge 
# Structural Database, then it will include bibliographic, chemical, 
# crystal, experimental, refinement or atomic coordinate data resulting 
# from the CCDC's data processing and validation procedures.
#
#######################################################################

data_GECHUT
_chemical_compound_source        'Aconitum sinomontanum Nakai'
_chemical_name_common            'ranaconitine bromide monohydrate'
_chemical_formula_moiety         'C32 H45 N2 O9 1+,Br1 1-,H2 O1'
_chemical_name_systematic        
'20-Ethyl-7,8,9-trihydroxy-1,14,16-trimethoxyaconitan-20-ium-4-yl 2-acetamidobenzoate bromide monohydrate'
_symmetry_cell_setting           monoclinic
_symmetry_space_group_name_H-M   'P 21'
_symmetry_Int_Tables_number      4
_space_group_name_Hall           'P 2yb'
loop_
_symmetry_equiv_pos_site_id
_symmetry_equiv_pos_as_xyz
1 x,y,z
2 -x,1/2+y,-z
_cell_length_a                   10.6604(12)
_cell_length_b                   12.3674(14)
_cell_length_c                   12.2938(13)
_cell_angle_alpha                90
_cell_angle_beta                 91.056(2)
_cell_angle_gamma                90
_cell_volume                     1620.56
_exptl_crystal_colour            colorless
_exptl_crystal_description       block
_cell_formula_units_Z            2
loop_
_atom_site_label
_atom_site_type_symbol
_atom_site_fract_x
_atom_site_fract_y
_atom_site_fract_z
Br1 Br 0.49280(4) 0.34836(4) 0.38917(3)
O1 O -0.0071(4) 0.2904(3) 0.7122(3)
N1 N 0.0680(3) 0.1640(3) 0.5961(3)
H1 H 0.1208 0.1086 0.5909
C1 C 0.1043(5) 0.1413(4) 0.7870(4)
H2 H 0.0482 0.1412 0.8472
H3 H 0.1831 0.1724 0.8095
H4 H 0.1174 0.0685 0.7629
O2 O 0.2270(2) 0.0422(2) 0.4879(2)
N2 N 0.5916(2) -0.0084(2) 0.3599(2)
H5 H 0.5778 -0.0754 0.3830
C2 C 0.0493(4) 0.2057(4) 0.6973(3)
O3 O 0.2597(2) 0.08212(18) 0.31312(17)
C3 C 0.0340(3) 0.2076(3) 0.4931(3)
O4 O 0.5665(2) -0.21259(18) 0.30943(17)
C4 C -0.0649(4) 0.2811(4) 0.4819(4)
H6 H -0.1077 0.3032 0.5433
O5 O 0.6738(2) 0.18748(18) 0.24627(17)
H7 H 0.6257 0.2204 0.2896
C5 C -0.0996(4) 0.3209(3) 0.3820(4)
H8 H -0.1655 0.3700 0.3763
O6 O 0.6541(2) 0.21031(18) 0.03021(18)
H9 H 0.6422 0.2032 -0.0380
C6 C -0.0378(4) 0.2890(4) 0.2891(4)
H10 H -0.0620 0.3156 0.2211
O7 O 0.4969(2) 0.07428(17) -0.05418(17)
H11 H 0.4592 0.0257 -0.0911
C7 C 0.0600(4) 0.2170(3) 0.2997(3)
H12 H 0.1027 0.1961 0.2379
O8 O 0.9805(3) -0.0191(3) 0.0013(2)
C8 C 0.0969(3) 0.1750(3) 0.3993(3)
O9 O 0.7439(2) 0.05540(19) -0.14981(18)
C9 C 0.1994(3) 0.0941(3) 0.4074(3)
C10 C 0.3623(3) 0.0010(3) 0.3079(3)
C11 C 0.3091(3) -0.1125(3) 0.3310(3)
H15 H 0.3389 -0.1367 0.4019
H16 H 0.2182 -0.1088 0.3324
C12 C 0.3482(3) -0.1930(3) 0.2455(3)
H17 H 0.2982 -0.1812 0.1799
H18 H 0.3306 -0.2655 0.2713
C13 C 0.4856(3) -0.1856(2) 0.2178(3)
H19 H 0.5022 -0.2366 0.1588
C14 C 0.5185(3) -0.0688(2) 0.1778(2)
C15 C 0.4082(3) 0.0119(3) 0.1908(3)
H20 H 0.3405 -0.0021 0.1376
C16 C 0.6215(3) -0.0062(3) 0.2401(2)
H21 H 0.7043 -0.0376 0.2271
C17 C 0.6092(3) 0.1066(2) 0.1866(2)
C18 C 0.4668(3) 0.1242(2) 0.1743(3)
H22 H 0.4374 0.1747 0.2286
H23 H 0.4454 0.1521 0.1026
C19 C 0.4652(3) 0.0386(3) 0.3878(2)
H24 H 0.4702 0.1169 0.3865
H25 H 0.4437 0.0167 0.4609
C20 C 0.6922(3) 0.0357(3) 0.4372(3)
H26 H 0.7104 0.1101 0.4179
H27 H 0.6608 0.0353 0.5107
C21 C 0.8105(4) -0.0290(5) 0.4338(4)
H28 H 0.8447 -0.0250 0.3622
H29 H 0.7926 -0.1030 0.4512
H30 H 0.8701 -0.0005 0.4858
C22 C 0.5583(5) -0.3219(3) 0.3440(4)
H31 H 0.4825 -0.3320 0.3838
H32 H 0.6293 -0.3390 0.3900
H33 H 0.5574 -0.3686 0.2816
C23 C 0.5609(3) -0.0823(2) 0.0593(2)
H34 H 0.4909 -0.1152 0.0184
C24 C 0.6759(3) -0.1596(3) 0.0489(2)
H35 H 0.7101 -0.1776 0.1203
H36 H 0.6511 -0.2261 0.0125
C25 C 0.7737(3) -0.0991(3) -0.0180(3)
H37 H 0.8209 -0.1494 -0.0632
C26 C 0.6886(3) -0.0276(3) -0.0880(3)
H38 H 0.6394 -0.0740 -0.1373
C27 C 0.5998(3) 0.0201(2) -0.0028(2)
C28 C 0.6705(3) 0.1025(3) 0.0723(3)
C29 C 0.8144(3) 0.0809(3) 0.0789(3)
H39 H 0.8544 0.1304 0.0291
H40 H 0.8433 0.1000 0.1517
C30 C 0.8625(3) -0.0324(3) 0.0545(3)
H41 H 0.8768 -0.0709 0.1233
C31 C 0.7944(4) 0.0169(4) -0.2472(3)
H42 H 0.8654 -0.0285 -0.2310
H43 H 0.8205 0.0770 -0.2908
H44 H 0.7319 -0.0240 -0.2865
C32 C 1.0683(7) -0.0981(9) 0.0257(7)
H45 H 1.1449 -0.0823 -0.0110
H46 H 1.0369 -0.1672 0.0022
H47 H 1.0839 -0.0996 0.1028
O10 O 0.6512(3) 0.4246(2) 0.1675(3)
H13 H 0.6700 0.3596 0.1524
H14 H 0.6181 0.4169 0.2294
C33? C 1.0806(12) -0.0072(16) 0.0532(12)
H48? H 1.0705 -0.0320 0.1264
H49? H 1.1033 0.0680 0.0540
H50? H 1.1455 -0.0482 0.0192
loop_
_geom_bond_atom_site_label_1
_geom_bond_atom_site_label_2
_geom_bond_site_symmetry_1
_geom_bond_site_symmetry_2
O1 C2 1_555 1_555
N1 H1 1_555 1_555
C1 H2 1_555 1_555
H3 C1 1_555 1_555
H4 C1 1_555 1_555
O2 C9 1_555 1_555
N2 H5 1_555 1_555
C2 N1 1_555 1_555
O3 C9 1_555 1_555
C3 N1 1_555 1_555
O4 C13 1_555 1_555
C4 C3 1_555 1_555
H6 C4 1_555 1_555
O5 H7 1_555 1_555
C5 C4 1_555 1_555
H8 C5 1_555 1_555
O6 H9 1_555 1_555
C6 C5 1_555 1_555
H10 C6 1_555 1_555
O7 H11 1_555 1_555
C7 C6 1_555 1_555
H12 C7 1_555 1_555
O8 C30 1_555 1_555
C8 C3 1_555 1_555
O9 C26 1_555 1_555
C9 C8 1_555 1_555
O10 H13 1_555 1_555
H14 O10 1_555 1_555
C10 O3 1_555 1_555
C11 C10 1_555 1_555
H15 C11 1_555 1_555
H16 C11 1_555 1_555
C12 C11 1_555 1_555
H17 C12 1_555 1_555
H18 C12 1_555 1_555
C13 C12 1_555 1_555
H19 C13 1_555 1_555
C14 C13 1_555 1_555
C15 C10 1_555 1_555
H20 C15 1_555 1_555
C16 N2 1_555 1_555
H21 C16 1_555 1_555
C17 O5 1_555 1_555
C18 C15 1_555 1_555
H22 C18 1_555 1_555
H23 C18 1_555 1_555
C19 N2 1_555 1_555
H24 C19 1_555 1_555
H25 C19 1_555 1_555
C20 N2 1_555 1_555
H26 C20 1_555 1_555
H27 C20 1_555 1_555
C21 C20 1_555 1_555
H28 C21 1_555 1_555
H29 C21 1_555 1_555
H30 C21 1_555 1_555
C22 O4 1_555 1_555
H31 C22 1_555 1_555
H32 C22 1_555 1_555
H33 C22 1_555 1_555
C23 C14 1_555 1_555
H34 C23 1_555 1_555
C24 C23 1_555 1_555
H35 C24 1_555 1_555
H36 C24 1_555 1_555
C25 C24 1_555 1_555
H37 C25 1_555 1_555
C26 C25 1_555 1_555
H38 C26 1_555 1_555
C27 O7 1_555 1_555
C28 O6 1_555 1_555
C29 C28 1_555 1_555
H39 C29 1_555 1_555
H40 C29 1_555 1_555
C30 C25 1_555 1_555
H41 C30 1_555 1_555
C31 O9 1_555 1_555
H42 C31 1_555 1_555
H43 C31 1_555 1_555
H44 C31 1_555 1_555
C32 O8 1_555 1_555
H45 C32 1_555 1_555
H46 C32 1_555 1_555
H47 C32 1_555 1_555
C1 C2 1_555 1_555
C7 C8 1_555 1_555
C10 C19 1_555 1_555
C14 C15 1_555 1_555
C14 C16 1_555 1_555
C16 C17 1_555 1_555
C17 C18 1_555 1_555
C17 C28 1_555 1_555
C23 C27 1_555 1_555
C26 C27 1_555 1_555
C27 C28 1_555 1_555
C29 C30 1_555 1_555

#END
