
#######################################################################
#
#                 Cambridge Crystallographic Data Centre
#                                CCDC 
#
#######################################################################
#
# If this CIF has been generated from an entry in the Cambridge 
# Structural Database, then it will include bibliographic, chemical, 
# crystal, experimental, refinement or atomic coordinate data resulting 
# from the CCDC's data processing and validation procedures.
#
#######################################################################

data_GECMAC
_chemical_formula_moiety         'C64 H60 O12'
_chemical_name_systematic        'Calix(4)arene bis(dibenzocrown-6)'
_symmetry_cell_setting           monoclinic
_symmetry_space_group_name_H-M   'P 21/a'
_symmetry_Int_Tables_number      14
_space_group_name_Hall           '-P 2yab'
loop_
_symmetry_equiv_pos_site_id
_symmetry_equiv_pos_as_xyz
1 x,y,z
2 1/2-x,1/2+y,-z
3 -x,-y,-z
4 1/2+x,1/2-y,z
_cell_length_a                   26.0714(27)
_cell_length_b                   12.9484(14)
_cell_length_c                   15.8652(51)
_cell_angle_alpha                90
_cell_angle_beta                 99.022(19)
_cell_angle_gamma                90
_cell_volume                     5289.56
_exptl_crystal_colour            colorless
_exptl_crystal_description       block
_chemical_melting_point          228-230deg.C
_cell_formula_units_Z            4
_exptl_crystal_recrystallization_method dichloromethane
loop_
_atom_site_label
_atom_site_type_symbol
_atom_site_fract_x
_atom_site_fract_y
_atom_site_fract_z
O1 O 0.3528(2) 0.4312(4) 0.7987(3)
O2 O 0.4424(2) 0.3550(5) 0.7411(4)
O3 O 0.4524(2) 0.2339(5) 0.6066(4)
O4 O 0.4030(2) 0.0458(5) 0.6052(4)
O5 O 0.3225(2) 0.0353(5) 0.6947(3)
O6 O 0.2343(2) 0.1768(3) 0.6815(3)
O7 O 0.1930(2) 0.4468(4) 0.6626(3)
O8 O 0.0841(2) 0.6133(5) 0.6687(3)
O9 O 0.0325(2) 0.5808(6) 0.7986(4)
O10 O 0.0412(2) 0.4149(5) 0.9204(4)
O11 O 0.1253(2) 0.3709(4) 1.0235(3)
O12 O 0.2251(2) 0.3165(3) 0.8924(3)
C1 C 0.3156(3) 0.2961(6) 0.9358(4)
C2 C 0.3582(3) 0.2309(7) 0.9509(5)
C3 C 0.3536(3) 0.1295(7) 0.9280(5)
C4 C 0.3071(3) 0.0907(6) 0.8882(4)
C5 C 0.2630(3) 0.1502(6) 0.8737(4)
C6 C 0.2110(3) 0.1007(5) 0.8386(4)
C7 C 0.1719(3) 0.1566(5) 0.7749(4)
C8 C 0.1224(3) 0.1706(6) 0.7920(5)
C9 C 0.0840(3) 0.2138(6) 0.7324(6)
C10 C 0.0972(3) 0.2498(6) 0.6576(5)
C11 C 0.1467(3) 0.2400(6) 0.6380(5)
C12 C 0.1578(3) 0.2788(6) 0.5521(4)
C13 C 0.2082(3) 0.3348(6) 0.5506(4)
C14 C 0.2397(4) 0.3080(7) 0.4923(5)
C15 C 0.2860(4) 0.3595(8) 0.4871(6)
C16 C 0.3016(3) 0.4374(7) 0.5436(5)
C17 C 0.2711(3) 0.4700(6) 0.6025(4)
C18 C 0.2910(3) 0.5584(6) 0.6602(4)
C19 C 0.2824(3) 0.5544(6) 0.7531(5)
C20 C 0.2487(3) 0.6264(7) 0.7793(6)
C21 C 0.2389(3) 0.6284(7) 0.8620(7)
C22 C 0.2622(3) 0.5553(7) 0.9184(5)
C23 C 0.2969(3) 0.4856(6) 0.8955(5)
C24 C 0.3226(3) 0.4092(6) 0.9603(4)
C25 C 0.2252(3) 0.4188(6) 0.6039(4)
C26 C 0.1840(3) 0.1912(5) 0.6971(4)
C27 C 0.2682(3) 0.2515(6) 0.9007(4)
C28 C 0.3084(3) 0.4877(6) 0.8121(5)
C29 C 0.3462(3) 0.3494(7) 0.7460(5)
C30 C 0.3980(3) 0.2933(8) 0.7539(5)
C31 C 0.4423(3) 0.3962(9) 0.6618(7)
C32 C 0.4371(4) 0.5020(10) 0.6526(8)
C33 C 0.4366(4) 0.5465(9) 0.5724(9)
C34 C 0.4381(4) 0.4887(11) 0.5007(8)
C35 C 0.4432(3) 0.3823(10) 0.5122(7)
C36 C 0.4458(3) 0.3375(8) 0.5912(7)
C37 C 0.4480(3) 0.1666(8) 0.5354(5)
C38 C 0.4501(3) 0.0582(8) 0.5715(5)
C39 C 0.3955(4) -0.0438(7) 0.6474(5)
C40 C 0.4288(4) -0.1240(8) 0.6480(6)
C41 C 0.4196(5) -0.2114(10) 0.6902(7)
C42 C 0.3786(6) -0.2227(10) 0.7335(8)
C43 C 0.3445(4) -0.1408(9) 0.7308(6)
C44 C 0.3529(3) -0.0519(8) 0.6881(5)
C45 C 0.2952(3) 0.0765(6) 0.6181(5)
C46 C 0.2391(3) 0.0905(6) 0.6283(5)
C47 C 0.1557(3) 0.5205(6) 0.6330(4)
C48 C 0.1205(3) 0.5352(6) 0.7011(4)
C49 C 0.0784(4) 0.6932(10) 0.7239(6)
C50 C 0.0990(4) 0.7895(12) 0.7113(7)
C51 C 0.0882(6) 0.8737(13) 0.7624(11)
C52 C 0.0586(7) 0.8558(14) 0.8224(10)
C53 C 0.0392(5) 0.7624(12) 0.8391(7)
C54 C 0.0496(4) 0.6786(9) 0.7891(6)
C55 C -0.0008(3) 0.5600(9) 0.8603(6)
C56 C -0.0056(3) 0.4472(9) 0.8708(6)
C57 C 0.0440(3) 0.3162(8) 0.9503(5)
C58 C 0.0082(4) 0.2391(11) 0.9294(6)
C59 C 0.0135(5) 0.1444(11) 0.9658(9)
C60 C 0.0584(5) 0.1250(8) 1.0209(8)
C61 C 0.0955(3) 0.1980(7) 1.0407(5)
C62 C 0.0889(3) 0.2930(6) 1.0041(5)
C63 C 0.1552(3) 0.3867(5) 0.9551(4)
C64 C 0.1997(3) 0.3128(6) 0.9653(5)
H1 H 0.3902 0.2566 0.9768
H2 H 0.3823 0.0852 0.9395
H3 H 0.3054 0.0221 0.8705
H4 H 0.2185 0.0356 0.8128
H5 H 0.1940 0.0841 0.8871
H6 H 0.1145 0.1505 0.8447
H7 H 0.0500 0.2184 0.7430
H8 H 0.0719 0.2821 0.6185
H9 H 0.1568 0.2200 0.5141
H10 H 0.1298 0.3246 0.5286
H11 H 0.2297 0.2536 0.4550
H12 H 0.3060 0.3413 0.4458
H13 H 0.3335 0.4692 0.5424
H14 H 0.2750 0.6212 0.6353
H15 H 0.3280 0.5643 0.6599
H16 H 0.2325 0.6742 0.7401
H17 H 0.2170 0.6781 0.8794
H18 H 0.2542 0.5533 0.9734
H19 H 0.3092 0.4199 1.0133
H20 H 0.3595 0.4241 0.9713
H21 H 0.3353 0.3721 0.6877
H22 H 0.3197 0.3038 0.7619
H23 H 0.4052 0.2625 0.8103
H24 H 0.3944 0.2373 0.7128
H25 H 0.4340 0.5433 0.6996
H26 H 0.4351 0.6180 0.5675
H27 H 0.4359 0.5189 0.4470
H28 H 0.4448 0.3405 0.4650
H29 H 0.4764 0.1778 0.5035
H30 H 0.4155 0.1781 0.4977
H31 H 0.4524 0.0077 0.5271
H32 H 0.4799 0.0501 0.6160
H33 H 0.4575 -0.1193 0.6200
H34 H 0.4423 -0.2666 0.6896
H35 H 0.3738 -0.2825 0.7634
H36 H 0.3156 -0.1459 0.7582
H37 H 0.2977 0.0299 0.5711
H38 H 0.3100 0.1424 0.6058
H39 H 0.2182 0.1011 0.5729
H40 H 0.2267 0.0288 0.6535
H41 H 0.1353 0.4978 0.5798
H42 H 0.1723 0.5853 0.6228
H43 H 0.1027 0.4714 0.7102
H44 H 0.1407 0.5568 0.7548
H45 H 0.1199 0.7987 0.6694
H46 H 0.1012 0.9393 0.7545
H47 H 0.0507 0.9116 0.8551
H48 H 0.0195 0.7543 0.8827
H49 H -0.0348 0.5898 0.8416
H50 H 0.0135 0.5911 0.9145
H51 H -0.0349 0.4311 0.8994
H52 H -0.0106 0.4130 0.8157
H53 H -0.0208 0.2525 0.8887
H54 H -0.0122 0.0945 0.9539
H55 H 0.0636 0.0599 1.0454
H56 H 0.1254 0.1833 1.0792
H57 H 0.1680 0.4570 0.9566
H58 H 0.1333 0.3755 0.9005
H59 H 0.2241 0.3306 1.0159
H60 H 0.1871 0.2433 0.9726
loop_
_geom_bond_atom_site_label_1
_geom_bond_atom_site_label_2
_geom_bond_site_symmetry_1
_geom_bond_site_symmetry_2
O1 C28 1_555 1_555
O2 C30 1_555 1_555
O3 C36 1_555 1_555
O4 C38 1_555 1_555
O5 C44 1_555 1_555
O6 C26 1_555 1_555
O7 C25 1_555 1_555
O8 C48 1_555 1_555
O9 C54 1_555 1_555
O10 C56 1_555 1_555
O11 C62 1_555 1_555
O12 C27 1_555 1_555
C1 C2 1_555 1_555
C2 C3 1_555 1_555
C3 C4 1_555 1_555
C4 C5 1_555 1_555
C5 C6 1_555 1_555
C6 C7 1_555 1_555
C7 C8 1_555 1_555
C8 C9 1_555 1_555
C9 C10 1_555 1_555
C10 C11 1_555 1_555
C11 C12 1_555 1_555
C12 C13 1_555 1_555
C13 C14 1_555 1_555
C14 C15 1_555 1_555
C15 C16 1_555 1_555
C16 C17 1_555 1_555
C17 C18 1_555 1_555
C18 C19 1_555 1_555
C19 C20 1_555 1_555
C20 C21 1_555 1_555
C21 C22 1_555 1_555
C22 C23 1_555 1_555
C23 C24 1_555 1_555
C24 C1 1_555 1_555
C25 C13 1_555 1_555
C26 C7 1_555 1_555
C27 C1 1_555 1_555
C28 C19 1_555 1_555
C29 O1 1_555 1_555
C30 C29 1_555 1_555
C31 O2 1_555 1_555
C32 C31 1_555 1_555
C33 C32 1_555 1_555
C34 C33 1_555 1_555
C35 C34 1_555 1_555
C36 C31 1_555 1_555
C37 O3 1_555 1_555
C38 C37 1_555 1_555
C39 O4 1_555 1_555
C40 C39 1_555 1_555
C41 C40 1_555 1_555
C42 C41 1_555 1_555
C43 C42 1_555 1_555
C44 C39 1_555 1_555
C45 O5 1_555 1_555
C46 O6 1_555 1_555
C47 O7 1_555 1_555
C48 C47 1_555 1_555
C49 O8 1_555 1_555
C50 C49 1_555 1_555
C51 C50 1_555 1_555
C52 C51 1_555 1_555
C53 C52 1_555 1_555
C54 C49 1_555 1_555
C55 O9 1_555 1_555
C56 C55 1_555 1_555
C57 O10 1_555 1_555
C58 C57 1_555 1_555
C59 C58 1_555 1_555
C60 C59 1_555 1_555
C61 C60 1_555 1_555
C62 C57 1_555 1_555
C63 O11 1_555 1_555
C64 O12 1_555 1_555
H1 C2 1_555 1_555
H2 C3 1_555 1_555
H3 C4 1_555 1_555
H4 C6 1_555 1_555
H5 C6 1_555 1_555
H6 C8 1_555 1_555
H7 C9 1_555 1_555
H8 C10 1_555 1_555
H9 C12 1_555 1_555
H10 C12 1_555 1_555
H11 C14 1_555 1_555
H12 C15 1_555 1_555
H13 C16 1_555 1_555
H14 C18 1_555 1_555
H15 C18 1_555 1_555
H16 C20 1_555 1_555
H17 C21 1_555 1_555
H18 C22 1_555 1_555
H19 C24 1_555 1_555
H20 C24 1_555 1_555
H21 C29 1_555 1_555
H22 C29 1_555 1_555
H23 C30 1_555 1_555
H24 C30 1_555 1_555
H25 C32 1_555 1_555
H26 C33 1_555 1_555
H27 C34 1_555 1_555
H28 C35 1_555 1_555
H29 C37 1_555 1_555
H30 C37 1_555 1_555
H31 C38 1_555 1_555
H32 C38 1_555 1_555
H33 C40 1_555 1_555
H34 C41 1_555 1_555
H35 C42 1_555 1_555
H36 C43 1_555 1_555
H37 C45 1_555 1_555
H38 C45 1_555 1_555
H39 C46 1_555 1_555
H40 C46 1_555 1_555
H41 C47 1_555 1_555
H42 C47 1_555 1_555
H43 C48 1_555 1_555
H44 C48 1_555 1_555
H45 C50 1_555 1_555
H46 C51 1_555 1_555
H47 C52 1_555 1_555
H48 C53 1_555 1_555
H49 C55 1_555 1_555
H50 C55 1_555 1_555
H51 C56 1_555 1_555
H52 C56 1_555 1_555
H53 C58 1_555 1_555
H54 C59 1_555 1_555
H55 C60 1_555 1_555
H56 C61 1_555 1_555
H57 C63 1_555 1_555
H58 C63 1_555 1_555
H59 C64 1_555 1_555
H60 C64 1_555 1_555
C5 C27 1_555 1_555
C11 C26 1_555 1_555
C17 C25 1_555 1_555
C23 C28 1_555 1_555
C35 C36 1_555 1_555
C43 C44 1_555 1_555
C45 C46 1_555 1_555
C53 C54 1_555 1_555
C61 C62 1_555 1_555
C63 C64 1_555 1_555

#END
