
#######################################################################
#
#                 Cambridge Crystallographic Data Centre
#                                CCDC 
#
#######################################################################
#
# If this CIF has been generated from an entry in the Cambridge 
# Structural Database, then it will include bibliographic, chemical, 
# crystal, experimental, refinement or atomic coordinate data resulting 
# from the CCDC's data processing and validation procedures.
#
#######################################################################

data_GECNIN
_chemical_formula_moiety         'C20 H14 B1 F2 N3'
_chemical_name_systematic        
5,5-Difluoro-2,3-diphenyl-5H-imidazo[1',2':3,4][1,3,2]diazaborolo[1,5-a]pyridine
_symmetry_cell_setting           monoclinic
_symmetry_space_group_name_H-M   'P 21/n'
_symmetry_Int_Tables_number      14
_space_group_name_Hall           '-P 2yn'
loop_
_symmetry_equiv_pos_site_id
_symmetry_equiv_pos_as_xyz
1 x,y,z
2 1/2-x,1/2+y,1/2-z
3 -x,-y,-z
4 1/2+x,1/2-y,1/2+z
_cell_length_a                   8.6696(5)
_cell_length_b                   18.1755(10)
_cell_length_c                   10.0396(6)
_cell_angle_alpha                90
_cell_angle_beta                 95.641(3)
_cell_angle_gamma                90
_cell_volume                     1574.32
_exptl_crystal_colour            yellow
_exptl_crystal_description       block
_cell_formula_units_Z            4
loop_
_atom_site_label
_atom_site_type_symbol
_atom_site_fract_x
_atom_site_fract_y
_atom_site_fract_z
B1 B 0.31311(15) 0.15498(7) 0.28363(13)
F1 F 0.26206(8) 0.15060(4) 0.40859(7)
F2 F 0.40643(8) 0.21458(4) 0.27230(7)
N1 N 0.37662(11) 0.08155(5) 0.23533(9)
N2 N 0.16516(11) 0.15901(5) 0.17329(9)
C1 C 0.28120(13) 0.05001(6) 0.13686(11)
C2 C 0.06349(14) 0.21404(7) 0.15472(12)
H1 H 0.0727 0.2557 0.2122
C3 C -0.05458(14) 0.21088(7) 0.05287(12)
H2 H -0.1271 0.2500 0.0397
C4 C -0.06636(14) 0.15007(7) -0.03016(12)
H3 H -0.1472 0.1475 -0.1011
C5 C 0.03874(14) 0.09301(7) -0.01060(12)
H4 H 0.0317 0.0511 -0.0674
C6 C 0.15394(13) 0.09858(6) 0.09347(11)
N3 N 0.32794(11) -0.01432(5) 0.09702(10)
C7 C 0.46673(13) -0.02538(6) 0.17416(11)
C8 C 0.49964(13) 0.03461(6) 0.25855(11)
C9 C 0.55036(13) -0.09515(6) 0.16327(11)
C10 C 0.50652(14) -0.14262(7) 0.05652(12)
H5 H 0.4241 -0.1291 -0.0083
C11 C 0.58178(14) -0.20916(7) 0.04411(12)
H6 H 0.5493 -0.2411 -0.0282
C12 C 0.70376(14) -0.22956(7) 0.13592(12)
H7 H 0.7567 -0.2747 0.1260
C13 C 0.74744(14) -0.18328(7) 0.24225(12)
H8 H 0.8310 -0.1969 0.3059
C14 C 0.67088(14) -0.11729(6) 0.25723(12)
H9 H 0.7007 -0.0868 0.3322
C15 C 0.63578(13) 0.05479(6) 0.35066(12)
C16 C 0.78311(14) 0.05330(7) 0.30609(13)
H10 H 0.7951 0.0397 0.2163
C17 C 0.91165(15) 0.07147(7) 0.39198(14)
H11 H 1.0119 0.0699 0.3614
C18 C 0.89492(15) 0.09193(7) 0.52221(14)
H12 H 0.9837 0.1038 0.5814
C19 C 0.74928(16) 0.09518(7) 0.56639(13)
H13 H 0.7379 0.1100 0.6556
C20 C 0.61947(14) 0.07689(7) 0.48099(12)
H14 H 0.5194 0.0795 0.5116
loop_
_geom_bond_atom_site_label_1
_geom_bond_atom_site_label_2
_geom_bond_site_symmetry_1
_geom_bond_site_symmetry_2
B1 F1 1_555 1_555
F2 B1 1_555 1_555
N1 B1 1_555 1_555
N2 B1 1_555 1_555
C1 N1 1_555 1_555
C2 N2 1_555 1_555
H1 C2 1_555 1_555
C3 C2 1_555 1_555
H2 C3 1_555 1_555
C4 C3 1_555 1_555
H3 C4 1_555 1_555
C5 C4 1_555 1_555
H4 C5 1_555 1_555
C6 N2 1_555 1_555
N3 C1 1_555 1_555
C7 N3 1_555 1_555
C8 N1 1_555 1_555
C9 C7 1_555 1_555
C10 C9 1_555 1_555
H5 C10 1_555 1_555
C11 C10 1_555 1_555
H6 C11 1_555 1_555
C12 C11 1_555 1_555
H7 C12 1_555 1_555
C13 C12 1_555 1_555
H8 C13 1_555 1_555
C14 C9 1_555 1_555
H9 C14 1_555 1_555
C15 C8 1_555 1_555
C16 C15 1_555 1_555
H10 C16 1_555 1_555
C17 C16 1_555 1_555
H11 C17 1_555 1_555
C18 C17 1_555 1_555
H12 C18 1_555 1_555
C19 C18 1_555 1_555
H13 C19 1_555 1_555
C20 C15 1_555 1_555
H14 C20 1_555 1_555
C1 C6 1_555 1_555
C5 C6 1_555 1_555
C7 C8 1_555 1_555
C13 C14 1_555 1_555
C19 C20 1_555 1_555

#END
