
#######################################################################
#
#                 Cambridge Crystallographic Data Centre
#                                CCDC 
#
#######################################################################
#
# If this CIF has been generated from an entry in the Cambridge 
# Structural Database, then it will include bibliographic, chemical, 
# crystal, experimental, refinement or atomic coordinate data resulting 
# from the CCDC's data processing and validation procedures.
#
#######################################################################

data_GECNOT
_chemical_formula_moiety         'C14 H10 B1 F2 N3'
_chemical_name_systematic        
5,5-Difluoro-3-phenyl-5H-imidazo[1',2':3,4][1,3,2]diazaborolo[1,5-a]pyridine
_symmetry_cell_setting           monoclinic
_symmetry_space_group_name_H-M   'P 21/m'
_symmetry_Int_Tables_number      11
_space_group_name_Hall           '-P 2yb'
loop_
_symmetry_equiv_pos_site_id
_symmetry_equiv_pos_as_xyz
1 x,y,z
2 -x,1/2+y,-z
3 -x,-y,-z
4 x,1/2-y,z
_cell_length_a                   7.570(7)
_cell_length_b                   6.671(5)
_cell_length_c                   12.928(12)
_cell_angle_alpha                90
_cell_angle_beta                 103.630(13)
_cell_angle_gamma                90
_cell_volume                     634.471
_cell_formula_units_Z            2
loop_
_atom_site_label
_atom_site_type_symbol
_atom_site_fract_x
_atom_site_fract_y
_atom_site_fract_z
F1 F 0.7236(2) 0.4201(3) 0.79942(15)
N1 N 0.4464(5) 0.2500 0.8194(3)
C1 C 0.5533(6) 0.2500 1.0029(3)
N2 N 0.7043(5) 0.2500 0.9633(3)
C2 C 0.2767(6) 0.2500 0.6269(3)
C3 C 0.2861(5) 0.2500 0.7416(3)
C4 C 0.3951(6) 0.2500 0.9133(4)
N3 N 0.2185(5) 0.2500 0.9043(3)
C5 C 0.5647(7) 0.2500 1.1117(4)
H1 H 0.4613 0.2500 1.1388
B1 B 0.6569(6) 0.2500 0.8357(4)
C6 C 0.1507(6) 0.2500 0.7953(4)
H2 H 0.0274 0.2500 0.7624
C7 C 0.7394(9) 0.2500 1.1786(4)
H3 H 0.7526 0.2500 1.2520
C8 C 0.8711(7) 0.2500 1.0292(4)
H4 H 0.9734 0.2500 1.0011
C9 C 0.8914(8) 0.2500 1.1384(4)
H5 H 1.0067 0.2500 1.1838
C10 C 0.3939(10) 0.3676(13) 0.5842(5)
H6 H 0.4849 0.4465 0.6310
C11 C 0.2532(9) 0.2500 0.4078(4)
H7 H 0.2500 0.2500 0.3332
C12 C 0.1451(9) 0.1399(14) 0.5573(6)
H8 H 0.0599 0.0615 0.5846
C13 C 0.3829(11) 0.3715(15) 0.4754(6)
H9 H 0.4633 0.4550 0.4469
C14 C 0.1359(11) 0.1446(16) 0.4478(6)
H10 H 0.0429 0.0693 0.4002
F1C F 0.7236(2) 0.0799(3) 0.79942(15)
C10C C 0.3939(10) 0.1324(13) 0.5842(5)
H6C H 0.4849 0.0535 0.6310
C12C C 0.1451(9) 0.3601(14) 0.5573(6)
H8C H 0.0599 0.4385 0.5846
C13C C 0.3829(11) 0.1285(15) 0.4754(6)
H9C H 0.4633 0.0450 0.4469
C14C C 0.1359(11) 0.3554(16) 0.4478(6)
H10C H 0.0429 0.4307 0.4002
loop_
_geom_bond_atom_site_label_1
_geom_bond_atom_site_label_2
_geom_bond_site_symmetry_1
_geom_bond_site_symmetry_2
F1 B1 1_555 1_555
N1 C3 1_555 1_555
C1 N2 1_555 1_555
N2 B1 1_555 1_555
C2 C3 1_555 1_555
C3 C6 1_555 1_555
C4 N1 1_555 1_555
N3 C4 1_555 1_555
C5 C1 1_555 1_555
H1 C5 1_555 1_555
B1 N1 1_555 1_555
C6 N3 1_555 1_555
H2 C6 1_555 1_555
C7 C5 1_555 1_555
H3 C7 1_555 1_555
C8 N2 1_555 1_555
H4 C8 1_555 1_555
C9 C7 1_555 1_555
H5 C9 1_555 1_555
C10 C2 1_555 1_555
H6 C10 1_555 1_555
C11 H7 1_555 1_555
C12 C2 1_555 1_555
H8 C12 1_555 1_555
C13 C10 1_555 1_555
H9 C13 1_555 1_555
C14 C11 1_555 1_555
H10 C14 1_555 1_555
F1C B1 1_555 1_555
C10C C2 1_555 1_555
H6C C10C 1_555 1_555
C12C C2 1_555 1_555
H8C C12C 1_555 1_555
C13C C11 1_555 1_555
H9C C13C 1_555 1_555
C14C C11 1_555 1_555
H10C C14C 1_555 1_555
C1 C4 1_555 1_555
C8 C9 1_555 1_555
C10 C10C 1_555 1_555
C11 C13 1_555 1_555
C12 C14 1_555 1_555
C12 C12C 1_555 1_555
C13 C13C 1_555 1_555
C14 C14C 1_555 1_555
C10C C13C 1_555 1_555
C12C C14C 1_555 1_555

#END
