
#######################################################################
#
#                 Cambridge Crystallographic Data Centre
#                                CCDC 
#
#######################################################################
#
# If this CIF has been generated from an entry in the Cambridge 
# Structural Database, then it will include bibliographic, chemical, 
# crystal, experimental, refinement or atomic coordinate data resulting 
# from the CCDC's data processing and validation procedures.
#
#######################################################################

data_GECNEJ
_chemical_formula_moiety         'C23 H31 N1 O5'
_chemical_name_systematic        
11-Ethyl-5,7-dimethoxy-14-methyl-16-oxa-11-azaheptacyclo[12.2.2.1^3,6^.1^9,12^.0^2,10^.0^2,13^.0^4,9^]icosane-15,19-dione
_symmetry_cell_setting           monoclinic
_symmetry_space_group_name_H-M   'P 21'
_symmetry_Int_Tables_number      4
_space_group_name_Hall           'P 2yb'
loop_
_symmetry_equiv_pos_site_id
_symmetry_equiv_pos_as_xyz
1 x,y,z
2 -x,1/2+y,-z
_cell_length_a                   14.763(3)
_cell_length_b                   8.2713(17)
_cell_length_c                   17.841(4)
_cell_angle_alpha                90
_cell_angle_beta                 109.71(3)
_cell_angle_gamma                90
_cell_volume                     2050.91
_cell_formula_units_Z            4
loop_
_atom_site_label
_atom_site_type_symbol
_atom_site_fract_x
_atom_site_fract_y
_atom_site_fract_z
N1 N 0.2422(3) 0.8692(5) 0.1617(2)
O1 O 0.1773(3) 1.1815(4) 0.0864(2)
O2 O 0.0809(3) 1.0243(5) -0.0058(2)
O3 O 0.2252(3) 0.6300(5) 0.3067(2)
O4 O 0.3629(3) 0.9251(5) 0.4956(2)
O5 O 0.5505(3) 0.9329(5) 0.4499(2)
C1 C 0.1927(4) 1.2444(6) 0.1660(3)
H1 H 0.2475 1.3189 0.1811
C2 C 0.1019(4) 1.3348(6) 0.1634(3)
H2 H 0.0909 1.4248 0.1266
H3 H 0.1089 1.3770 0.2158
C3 C 0.0157(4) 1.2155(6) 0.1360(3)
H4 H -0.0140 1.2073 0.1768
H5 H -0.0322 1.2556 0.0877
C4 C 0.0509(4) 1.0467(6) 0.1203(3)
C5 C 0.1222(3) 0.9877(6) 0.2001(3)
H6 H 0.0917 0.9864 0.2411
C6 C 0.1669(3) 0.8197(6) 0.1943(3)
H7 H 0.1211 0.7402 0.1618
C7 C 0.2301(4) 0.7575(6) 0.2765(3)
C8 C 0.3048(3) 0.8908(6) 0.3073(3)
C9 C 0.2632(3) 1.0021(6) 0.3593(3)
H8 H 0.2040 0.9585 0.3648
C10 C 0.2461(4) 1.1584(6) 0.3123(3)
H9 H 0.1980 1.2271 0.3234
C11 C 0.2135(3) 1.1013(5) 0.2258(3)
C12 C 0.3499(4) 1.2354(6) 0.3432(3)
H10 H 0.3764 1.2409 0.3003
H11 H 0.3472 1.3440 0.3628
C13 C 0.4137(4) 1.1251(6) 0.4116(3)
H12 H 0.4579 1.1907 0.4541
C14 C 0.3363(3) 1.0518(6) 0.4390(3)
H13 H 0.3079 1.1387 0.4612
C15 C 0.4086(3) 0.8428(7) 0.3518(3)
H14 H 0.4346 0.7861 0.3160
H15 H 0.4109 0.7704 0.3951
C16 C 0.4692(3) 0.9926(6) 0.3847(3)
H16 H 0.4925 1.0371 0.3436
C17 C 0.2905(3) 0.9795(6) 0.2258(3)
H17 H 0.3493 1.0277 0.2217
C18 C -0.0347(4) 0.9332(7) 0.0853(3)
H18 H -0.0805 0.9827 0.0394
H19 H -0.0647 0.9125 0.1245
H20 H -0.0128 0.8332 0.0701
C19 C 0.1035(4) 1.0760(7) 0.0606(3)
C20 C 0.3011(4) 0.7388(7) 0.1461(3)
H21 H 0.3202 0.6649 0.1909
H22 H 0.3590 0.7845 0.1405
C21 C 0.2463(5) 0.6468(7) 0.0711(3)
H23 H 0.1907 0.5969 0.0776
H24 H 0.2871 0.5650 0.0613
H25 H 0.2264 0.7202 0.0268
C22 C 0.4162(5) 0.9802(8) 0.5747(3)
H26 H 0.4802 1.0094 0.5774
H27 H 0.4193 0.8953 0.6122
H28 H 0.3847 1.0726 0.5872
C23 C 0.6349(4) 1.0273(8) 0.4698(4)
H29 H 0.6551 1.0369 0.4242
H30 H 0.6849 0.9762 0.5124
H31 H 0.6223 1.1328 0.4864
N2 N 0.6642(3) 0.8270(6) 0.2076(2)
O6 O 0.5808(3) 0.5175(5) 0.1410(2)
O7 O 0.4876(3) 0.6856(6) 0.0523(3)
O8 O 0.8582(3) 1.0558(5) 0.2366(3)
O9 O 0.9409(3) 0.7279(7) 0.5069(2)
O10 O 1.0531(3) 0.7538(5) 0.3884(2)
C24 C 0.6775(4) 0.4529(7) 0.1689(3)
H32 H 0.6834 0.3760 0.2121
C25 C 0.6933(5) 0.3634(7) 0.0994(3)
H33 H 0.6483 0.2744 0.0823
H34 H 0.7582 0.3202 0.1154
C26 C 0.6775(4) 0.4858(7) 0.0312(3)
H35 H 0.6252 0.4493 -0.0151
H36 H 0.7352 0.4924 0.0168
C27 C 0.6535(4) 0.6545(6) 0.0561(3)
C28 C 0.7407(4) 0.7097(6) 0.1278(3)
H37 H 0.7997 0.7091 0.1143
C29 C 0.7260(4) 0.8740(6) 0.1614(3)
H38 H 0.6983 0.9571 0.1210
C30 C 0.8148(4) 0.9302(6) 0.2316(3)
C31 C 0.8334(4) 0.7952(6) 0.2926(3)
C32 C 0.9089(4) 0.6843(7) 0.2754(3)
H39 H 0.9334 0.7308 0.2354
C33 C 0.8521(4) 0.5285(7) 0.2462(3)
H40 H 0.8790 0.4628 0.2131
C34 C 0.7498(4) 0.5894(6) 0.2003(3)
C35 C 0.8615(5) 0.4460(7) 0.3265(3)
H41 H 0.7989 0.4380 0.3328
H42 H 0.8875 0.3378 0.3280
C36 C 0.9297(4) 0.5498(7) 0.3941(4)
H43 H 0.9702 0.4805 0.4369
C37 C 0.9895(4) 0.6279(7) 0.3492(3)
H44 H 1.0264 0.5436 0.3337
C38 C 0.8609(4) 0.8368(7) 0.3794(3)
H45 H 0.8093 0.8973 0.3887
H46 H 0.9182 0.9038 0.3953
C39 C 0.8799(4) 0.6822(8) 0.4285(3)
H47 H 0.8189 0.6400 0.4310
C40 C 0.7312(4) 0.7076(7) 0.2585(3)
H48 H 0.7091 0.6576 0.2991
C41 C 0.6305(5) 0.7737(8) -0.0127(3)
H49 H 0.5843 0.7266 -0.0591
H50 H 0.6883 0.7988 -0.0237
H51 H 0.6045 0.8709 0.0012
C42 C 0.5665(4) 0.6297(7) 0.0827(3)
C43 C 0.6298(4) 0.9563(8) 0.2479(3)
H52 H 0.6827 1.0280 0.2750
H53 H 0.6060 0.9095 0.2876
C44 C 0.5508(5) 1.0507(8) 0.1885(4)
H54 H 0.5735 1.0921 0.1477
H55 H 0.5320 1.1391 0.2149
H56 H 0.4965 0.9814 0.1648
C45 C 0.9185(5) 0.6613(11) 0.5673(4)
H57 H 0.8526 0.6847 0.5609
H58 H 0.9595 0.7054 0.6169
H59 H 0.9274 0.5464 0.5673
C46 C 1.1329(4) 0.6959(9) 0.4535(4)
H60 H 1.1118 0.6701 0.4975
H61 H 1.1817 0.7779 0.4694
H62 H 1.1587 0.6007 0.4374
loop_
_geom_bond_atom_site_label_1
_geom_bond_atom_site_label_2
_geom_bond_site_symmetry_1
_geom_bond_site_symmetry_2
N1 C6 1_555 1_555
N2 C29 1_555 1_555
O1 C1 1_555 1_555
O2 C19 1_555 1_555
O3 C7 1_555 1_555
O4 C14 1_555 1_555
O5 C16 1_555 1_555
O6 C24 1_555 1_555
O7 C42 1_555 1_555
O8 C30 1_555 1_555
O9 C39 1_555 1_555
O10 C37 1_555 1_555
C1 H1 1_555 1_555
C2 C1 1_555 1_555
H2 C2 1_555 1_555
H3 C2 1_555 1_555
C3 C2 1_555 1_555
H4 C3 1_555 1_555
H5 C3 1_555 1_555
C4 C3 1_555 1_555
C5 C4 1_555 1_555
H6 C5 1_555 1_555
C6 C5 1_555 1_555
H7 C6 1_555 1_555
C7 C6 1_555 1_555
C8 C7 1_555 1_555
C9 C8 1_555 1_555
H8 C9 1_555 1_555
C10 C9 1_555 1_555
H9 C10 1_555 1_555
C11 C1 1_555 1_555
C12 C10 1_555 1_555
H10 C12 1_555 1_555
H11 C12 1_555 1_555
C13 C12 1_555 1_555
H12 C13 1_555 1_555
C14 C9 1_555 1_555
H13 C14 1_555 1_555
C15 C8 1_555 1_555
H14 C15 1_555 1_555
H15 C15 1_555 1_555
C16 C13 1_555 1_555
H16 C16 1_555 1_555
C17 N1 1_555 1_555
H17 C17 1_555 1_555
C18 C4 1_555 1_555
H18 C18 1_555 1_555
H19 C18 1_555 1_555
H20 C18 1_555 1_555
C19 O1 1_555 1_555
C20 N1 1_555 1_555
H21 C20 1_555 1_555
H22 C20 1_555 1_555
C21 C20 1_555 1_555
H23 C21 1_555 1_555
H24 C21 1_555 1_555
H25 C21 1_555 1_555
C22 O4 1_555 1_555
H26 C22 1_555 1_555
H27 C22 1_555 1_555
H28 C22 1_555 1_555
C23 O5 1_555 1_555
H29 C23 1_555 1_555
H30 C23 1_555 1_555
H31 C23 1_555 1_555
C24 H32 1_555 1_555
C25 C24 1_555 1_555
H33 C25 1_555 1_555
H34 C25 1_555 1_555
C26 C25 1_555 1_555
H35 C26 1_555 1_555
H36 C26 1_555 1_555
C27 C26 1_555 1_555
C28 C27 1_555 1_555
H37 C28 1_555 1_555
C29 C28 1_555 1_555
H38 C29 1_555 1_555
C30 C29 1_555 1_555
C31 C30 1_555 1_555
C32 C31 1_555 1_555
H39 C32 1_555 1_555
C33 C32 1_555 1_555
H40 C33 1_555 1_555
C34 C24 1_555 1_555
C35 C33 1_555 1_555
H41 C35 1_555 1_555
H42 C35 1_555 1_555
C36 C35 1_555 1_555
H43 C36 1_555 1_555
C37 C32 1_555 1_555
H44 C37 1_555 1_555
C38 C31 1_555 1_555
H45 C38 1_555 1_555
H46 C38 1_555 1_555
C39 C36 1_555 1_555
H47 C39 1_555 1_555
C40 N2 1_555 1_555
H48 C40 1_555 1_555
C41 C27 1_555 1_555
H49 C41 1_555 1_555
H50 C41 1_555 1_555
H51 C41 1_555 1_555
C42 O6 1_555 1_555
C43 N2 1_555 1_555
H52 C43 1_555 1_555
H53 C43 1_555 1_555
C44 C43 1_555 1_555
H54 C44 1_555 1_555
H55 C44 1_555 1_555
H56 C44 1_555 1_555
C45 O9 1_555 1_555
H57 C45 1_555 1_555
H58 C45 1_555 1_555
H59 C45 1_555 1_555
C46 O10 1_555 1_555
H60 C46 1_555 1_555
H61 C46 1_555 1_555
H62 C46 1_555 1_555
C4 C19 1_555 1_555
C5 C11 1_555 1_555
C8 C17 1_555 1_555
C10 C11 1_555 1_555
C11 C17 1_555 1_555
C13 C14 1_555 1_555
C15 C16 1_555 1_555
C27 C42 1_555 1_555
C28 C34 1_555 1_555
C31 C40 1_555 1_555
C33 C34 1_555 1_555
C34 C40 1_555 1_555
C36 C37 1_555 1_555
C38 C39 1_555 1_555

#END
