
#######################################################################
#
#                 Cambridge Crystallographic Data Centre
#                                CCDC 
#
#######################################################################
#
# If this CIF has been generated from an entry in the Cambridge 
# Structural Database, then it will include bibliographic, chemical, 
# crystal, experimental, refinement or atomic coordinate data resulting 
# from the CCDC's data processing and validation procedures.
#
#######################################################################

data_GECNIO
_chemical_compound_source        
'Isolated from the aerial parts of Isodon scoparius.'
_chemical_name_common            '3-epi-isodopharicin A'
_chemical_formula_moiety         'C22 H32 O5'
_chemical_name_systematic        '3,13-dihydroxy-15-oxokaur-16-en-11-yl acetate'
_chemical_properties_biological  
'Active against five human tumor cell lines (HL-60, SMMC-7721, A-549, MCF-7, and SW-480), and also inhibited NO production in LPS-stimulated RAW264.7 cells.'
_symmetry_cell_setting           orthorhombic
_symmetry_space_group_name_H-M   'P 21 21 21'
_symmetry_Int_Tables_number      19
_space_group_name_Hall           'P 2ac 2ab'
loop_
_symmetry_equiv_pos_site_id
_symmetry_equiv_pos_as_xyz
1 x,y,z
2 1/2+x,1/2-y,-z
3 -x,1/2+y,1/2-z
4 1/2-x,-y,1/2+z
_cell_length_a                   6.5935(2)
_cell_length_b                   17.1424(4)
_cell_length_c                   17.2244(4)
_cell_angle_alpha                90
_cell_angle_beta                 90
_cell_angle_gamma                90
_cell_volume                     1946.85
_exptl_crystal_colour            colorless
_exptl_crystal_description       prism
_cell_formula_units_Z            4
loop_
_atom_site_label
_atom_site_type_symbol
_atom_site_fract_x
_atom_site_fract_y
_atom_site_fract_z
O1 O 0.1557(3) 0.07035(11) 1.17075(10)
O2 O 0.0369(3) 0.02752(9) 1.05573(9)
O3 O -0.1023(4) 0.29799(13) 0.85291(14)
H1 H -0.1626 0.3379 0.8365
O4 O 0.4865(3) -0.14002(11) 0.98154(11)
H2 H 0.6013 -0.1262 0.9655
O5 O -0.1808(3) -0.06785(10) 0.91536(10)
C1 C 0.0307(4) 0.03551(13) 1.13288(13)
C2 C 0.2200(4) 0.05403(13) 1.01468(13)
H3 H 0.2722 0.1029 1.0393
C3 C 0.1430(4) 0.07195(13) 0.93163(12)
H4 H -0.0029 0.0863 0.9386
C4 C 0.2421(4) 0.14520(13) 0.89246(13)
C5 C 0.1253(4) 0.15600(13) 0.81419(13)
H5 H -0.0211 0.1553 0.8294
C6 C 0.1525(4) 0.23479(14) 0.77112(14)
C7 C 0.1073(5) 0.30081(16) 0.82969(16)
H6 H 0.1354 0.3523 0.8045
C8 C 0.1503(4) 0.08406(13) 0.76253(13)
H7 H 0.0856 0.0936 0.7115
H8 H 0.2963 0.0739 0.7537
C9 C 0.0528(4) 0.01328(13) 0.80121(13)
H9 H -0.0949 0.0224 0.8059
H10 H 0.0729 -0.0329 0.7676
C10 C 0.1388(3) -0.00393(13) 0.88111(13)
C11 C 0.0023(4) -0.06257(12) 0.92420(13)
C12 C 0.1313(4) -0.11202(13) 0.97483(14)
C13 C 0.0712(4) -0.17460(15) 1.01399(15)
H11 H -0.0660 -0.1913 1.0110
H12 H 0.1653 -0.2027 1.0450
C14 C 0.3442(4) -0.08012(13) 0.96685(13)
C15 C 0.3792(3) -0.01052(14) 1.02160(13)
H13 H 0.3805 -0.0298 1.0758
H14 H 0.5144 0.0120 1.0106
C16 C -0.1512(4) -0.00492(17) 1.16591(15)
H15 H -0.1374 -0.0614 1.1586
H16 H -0.2736 0.0134 1.1393
H17 H -0.1617 0.0067 1.2215
C17 C 0.4741(4) 0.13795(14) 0.88367(14)
H18 H 0.5328 0.1898 0.8750
H19 H 0.5055 0.1042 0.8394
H20 H 0.5315 0.1153 0.9311
C18 C 0.1940(5) 0.21609(13) 0.94414(14)
H21 H 0.0499 0.2138 0.9601
H22 H 0.2781 0.2134 0.9917
C19 C 0.2335(5) 0.29394(15) 0.90311(15)
H23 H 0.1996 0.3374 0.9386
H24 H 0.3791 0.2980 0.8898
C20 C 0.3413(3) -0.04893(13) 0.88302(13)
H25 H 0.3423 -0.0920 0.8448
H26 H 0.4578 -0.0139 0.8729
C21 C 0.3639(5) 0.24754(15) 0.73500(15)
H27 H 0.4011 0.2019 0.7039
H28 H 0.4640 0.2550 0.7764
H29 H 0.3610 0.2939 0.7017
C22 C -0.0030(5) 0.24083(17) 0.70493(15)
H30 H -0.0088 0.2948 0.6862
H31 H -0.1369 0.2252 0.7241
H32 H 0.0376 0.2064 0.6623
loop_
_geom_bond_atom_site_label_1
_geom_bond_atom_site_label_2
_geom_bond_site_symmetry_1
_geom_bond_site_symmetry_2
O1 C1 1_555 1_555
O2 C1 1_555 1_555
O3 H1 1_555 1_555
O4 H2 1_555 1_555
O5 C11 1_555 1_555
C1 C16 1_555 1_555
C2 O2 1_555 1_555
H3 C2 1_555 1_555
C3 C2 1_555 1_555
H4 C3 1_555 1_555
C4 C3 1_555 1_555
C5 C4 1_555 1_555
H5 C5 1_555 1_555
C6 C5 1_555 1_555
C7 O3 1_555 1_555
H6 C7 1_555 1_555
C8 C5 1_555 1_555
H7 C8 1_555 1_555
H8 C8 1_555 1_555
C9 C8 1_555 1_555
H9 C9 1_555 1_555
H10 C9 1_555 1_555
C10 C3 1_555 1_555
C11 C10 1_555 1_555
C12 C11 1_555 1_555
C13 C12 1_555 1_555
H11 C13 1_555 1_555
H12 C13 1_555 1_555
C14 O4 1_555 1_555
C15 C2 1_555 1_555
H13 C15 1_555 1_555
H14 C15 1_555 1_555
C16 H15 1_555 1_555
H16 C16 1_555 1_555
H17 C16 1_555 1_555
C17 C4 1_555 1_555
H18 C17 1_555 1_555
H19 C17 1_555 1_555
H20 C17 1_555 1_555
C18 C4 1_555 1_555
H21 C18 1_555 1_555
H22 C18 1_555 1_555
C19 C7 1_555 1_555
H23 C19 1_555 1_555
H24 C19 1_555 1_555
C20 C10 1_555 1_555
H25 C20 1_555 1_555
H26 C20 1_555 1_555
C21 C6 1_555 1_555
H27 C21 1_555 1_555
H28 C21 1_555 1_555
H29 C21 1_555 1_555
C22 C6 1_555 1_555
H30 C22 1_555 1_555
H31 C22 1_555 1_555
H32 C22 1_555 1_555
C6 C7 1_555 1_555
C9 C10 1_555 1_555
C12 C14 1_555 1_555
C14 C15 1_555 1_555
C14 C20 1_555 1_555
C18 C19 1_555 1_555

#END
