
#######################################################################
#
#                 Cambridge Crystallographic Data Centre
#                                CCDC 
#
#######################################################################
#
# If this CIF has been generated from an entry in the Cambridge 
# Structural Database, then it will include bibliographic, chemical, 
# crystal, experimental, refinement or atomic coordinate data resulting 
# from the CCDC's data processing and validation procedures.
#
#######################################################################

data_GECQEM
_chemical_formula_moiety         'C21 H18'
_chemical_name_systematic        
10-Phenyl-10,11-dihydro-5H-dibenzo[a,d][7]annulene
_symmetry_cell_setting           monoclinic
_symmetry_space_group_name_H-M   'P 21/n'
_symmetry_Int_Tables_number      14
_space_group_name_Hall           '-P 2yn'
loop_
_symmetry_equiv_pos_site_id
_symmetry_equiv_pos_as_xyz
1 x,y,z
2 1/2-x,1/2+y,1/2-z
3 -x,-y,-z
4 1/2+x,1/2-y,1/2+z
_cell_length_a                   9.27(2)
_cell_length_b                   6.320(14)
_cell_length_c                   28.61(7)
_cell_angle_alpha                90
_cell_angle_beta                 92.41(5)
_cell_angle_gamma                90
_cell_volume                     1674.67
_exptl_crystal_colour            colorless
_exptl_crystal_description       block
_cell_formula_units_Z            4
loop_
_atom_site_label
_atom_site_type_symbol
_atom_site_fract_x
_atom_site_fract_y
_atom_site_fract_z
C1 C 0.9244(14) 0.610(2) 0.1093(4)
H1 H 0.8934 0.4959 0.0879
C2 C 0.8405(12) 0.812(2) 0.0909(4)
C3 C 0.8524(15) 0.854(3) 0.0416(4)
H2 H 0.9095 0.7667 0.0239
C4 C 0.7785(17) 1.029(3) 0.0193(5)
H3 H 0.7862 1.0525 -0.0126
C5 C 0.6948(15) 1.162(2) 0.0460(5)
H4 H 0.6452 1.2740 0.0317
C6 C 0.6846(13) 1.127(2) 0.0951(4)
H5 H 0.6279 1.2174 0.1122
C7 C 0.7600(12) 0.955(2) 0.1191(4)
C8 C 0.7335(13) 0.929(2) 0.1726(4)
H6 H 0.6628 0.8172 0.1760
H7 H 0.6908 1.0587 0.1835
C9 C 0.8695(12) 0.8753(19) 0.2063(4)
C10 C 0.9183(17) 1.019(2) 0.2423(5)
H8 H 0.8744 1.1503 0.2449
C11 C 1.0362(18) 0.960(3) 0.2747(5)
H9 H 1.0662 1.0535 0.2982
C12 C 1.1050(16) 0.764(3) 0.2711(5)
H10 H 1.1804 0.7275 0.2920
C13 C 1.0585(14) 0.621(2) 0.2351(5)
H11 H 1.1037 0.4902 0.2326
C14 C 0.9409(13) 0.6770(19) 0.2021(4)
C15 C 0.8886(14) 0.525(2) 0.1611(4)
H12 H 0.7851 0.5055 0.1625
H13 H 0.9338 0.3880 0.1659
C16 C 1.0946(12) 0.626(2) 0.1045(4)
C17 C 1.1738(15) 0.808(2) 0.1194(4)
H14 H 1.1261 0.9195 0.1333
C18 C 1.3267(14) 0.822(2) 0.1133(4)
H15 H 1.3781 0.9409 0.1237
C19 C 1.3982(16) 0.653(3) 0.0913(5)
H16 H 1.4962 0.6622 0.0859
C20 C 1.3191(19) 0.471(3) 0.0776(5)
H17 H 1.3667 0.3576 0.0642
C21 C 1.1670(15) 0.456(2) 0.0839(5)
H18 H 1.1164 0.3355 0.0745
loop_
_geom_bond_atom_site_label_1
_geom_bond_atom_site_label_2
_geom_bond_site_symmetry_1
_geom_bond_site_symmetry_2
C1 H1 1_555 1_555
C2 C1 1_555 1_555
C3 C2 1_555 1_555
H2 C3 1_555 1_555
C4 C3 1_555 1_555
H3 C4 1_555 1_555
C5 C4 1_555 1_555
H4 C5 1_555 1_555
C6 C5 1_555 1_555
H5 C6 1_555 1_555
C7 C2 1_555 1_555
C8 C7 1_555 1_555
H6 C8 1_555 1_555
H7 C8 1_555 1_555
C9 C8 1_555 1_555
C10 C9 1_555 1_555
H8 C10 1_555 1_555
C11 C10 1_555 1_555
H9 C11 1_555 1_555
C12 C11 1_555 1_555
H10 C12 1_555 1_555
C13 C12 1_555 1_555
H11 C13 1_555 1_555
C14 C9 1_555 1_555
C15 C1 1_555 1_555
H12 C15 1_555 1_555
H13 C15 1_555 1_555
C16 C1 1_555 1_555
C17 C16 1_555 1_555
H14 C17 1_555 1_555
C18 C17 1_555 1_555
H15 C18 1_555 1_555
C19 C18 1_555 1_555
H16 C19 1_555 1_555
C20 C19 1_555 1_555
H17 C20 1_555 1_555
C21 C16 1_555 1_555
H18 C21 1_555 1_555
C6 C7 1_555 1_555
C13 C14 1_555 1_555
C14 C15 1_555 1_555
C20 C21 1_555 1_555

#END
