
#######################################################################
#
#                 Cambridge Crystallographic Data Centre
#                                CCDC 
#
#######################################################################
#
# If this CIF has been generated from an entry in the Cambridge 
# Structural Database, then it will include bibliographic, chemical, 
# crystal, experimental, refinement or atomic coordinate data resulting 
# from the CCDC's data processing and validation procedures.
#
#######################################################################

data_GECQIQ01
_chemical_formula_moiety         'C10 H18 B10'
_chemical_name_systematic        
3,4-dihydronaphtho(1,2)-1,2-dicarba-closo-dodecaborane
_symmetry_cell_setting           monoclinic
_symmetry_space_group_name_H-M   'P 21/c'
_symmetry_Int_Tables_number      14
_space_group_name_Hall           '-P 2ybc'
loop_
_symmetry_equiv_pos_site_id
_symmetry_equiv_pos_as_xyz
1 x,y,z
2 -x,1/2+y,1/2-z
3 -x,-y,-z
4 x,1/2-y,1/2+z
_cell_length_a                   7.1338(4)
_cell_length_b                   9.5485(6)
_cell_length_c                   20.6391(12)
_cell_angle_alpha                90
_cell_angle_beta                 91.489(3)
_cell_angle_gamma                90
_cell_volume                     1405.4
_exptl_crystal_colour            colorless
_exptl_crystal_description       block
_cell_formula_units_Z            4
loop_
_atom_site_label
_atom_site_type_symbol
_atom_site_fract_x
_atom_site_fract_y
_atom_site_fract_z
C1 C 0.2099(2) 0.23338(18) 0.16661(8)
C2 C 0.2691(2) 0.18997(17) 0.09294(7)
C3 C 0.1451(3) 0.38274(19) 0.17645(9)
H1 H 0.1685 0.4088 0.2214
H2 H 0.0109 0.3876 0.1680
C4 C 0.2421(3) 0.4878(2) 0.13305(10)
H3 H 0.1784 0.5772 0.1360
H4 H 0.3700 0.5008 0.1490
C5 C 0.2457(2) 0.44476(19) 0.06303(9)
C6 C 0.2411(3) 0.5472(2) 0.01475(11)
H5 H 0.2322 0.6410 0.0265
C7 C 0.2493(3) 0.5130(3) -0.04942(11)
H6 H 0.2468 0.5833 -0.0806
C8 C 0.2613(3) 0.3759(3) -0.06804(10)
H7 H 0.2662 0.3532 -0.1118
C9 C 0.2660(3) 0.2710(2) -0.02180(9)
H8 H 0.2738 0.1777 -0.0344
C10 C 0.2590(2) 0.30552(18) 0.04360(8)
B1 B 0.4436(3) 0.2055(2) 0.15198(9)
H9 H 0.5518 0.2875 0.1528
B2 B 0.3412(3) 0.1442(3) 0.22349(10)
H10 H 0.3832 0.1864 0.2713
B3 B 0.1056(3) 0.0977(2) 0.20493(11)
H11 H -0.0050 0.1103 0.2406
B4 B 0.0598(3) 0.1275(2) 0.12161(10)
H12 H -0.0795 0.1590 0.1027
B5 B 0.4442(3) 0.0674(2) 0.09521(10)
H13 H 0.5533 0.0592 0.0587
B6 B 0.4896(3) 0.0343(3) 0.17876(11)
H14 H 0.6294 0.0030 0.1973
B7 B 0.2808(3) -0.0334(3) 0.21216(12)
H15 H 0.2845 -0.1086 0.2526
B8 B 0.1073(3) -0.0434(2) 0.14918(12)
H16 H -0.0015 -0.1251 0.1486
B9 B 0.2089(3) 0.0189(2) 0.07692(11)
H17 H 0.1665 -0.0209 0.0287
B10 B 0.3453(3) -0.0816(2) 0.13267(12)
H18 H 0.3915 -0.1885 0.1212
loop_
_geom_bond_atom_site_label_1
_geom_bond_atom_site_label_2
_geom_bond_site_symmetry_1
_geom_bond_site_symmetry_2
C1 C2 1_555 1_555
C2 C10 1_555 1_555
C3 C1 1_555 1_555
H1 C3 1_555 1_555
H2 C3 1_555 1_555
C4 C3 1_555 1_555
H3 C4 1_555 1_555
H4 C4 1_555 1_555
C5 C4 1_555 1_555
C6 C5 1_555 1_555
H5 C6 1_555 1_555
C7 C6 1_555 1_555
H6 C7 1_555 1_555
C8 C7 1_555 1_555
H7 C8 1_555 1_555
C9 C8 1_555 1_555
H8 C9 1_555 1_555
C10 C5 1_555 1_555
B1 C1 1_555 1_555
H9 B1 1_555 1_555
B2 C1 1_555 1_555
H10 B2 1_555 1_555
B3 C1 1_555 1_555
H11 B3 1_555 1_555
B4 C1 1_555 1_555
H12 B4 1_555 1_555
B5 C2 1_555 1_555
H13 B5 1_555 1_555
B6 B1 1_555 1_555
H14 B6 1_555 1_555
B7 B2 1_555 1_555
H15 B7 1_555 1_555
B8 B3 1_555 1_555
H16 B8 1_555 1_555
B9 C2 1_555 1_555
H17 B9 1_555 1_555
B10 B5 1_555 1_555
H18 B10 1_555 1_555
C2 B1 1_555 1_555
C2 B4 1_555 1_555
C9 C10 1_555 1_555
B1 B2 1_555 1_555
B1 B5 1_555 1_555
B2 B3 1_555 1_555
B2 B6 1_555 1_555
B3 B4 1_555 1_555
B3 B7 1_555 1_555
B4 B8 1_555 1_555
B4 B9 1_555 1_555
B5 B6 1_555 1_555
B5 B9 1_555 1_555
B6 B7 1_555 1_555
B6 B10 1_555 1_555
B7 B8 1_555 1_555
B7 B10 1_555 1_555
B8 B9 1_555 1_555
B8 B10 1_555 1_555
B9 B10 1_555 1_555

#END
