
#######################################################################
#
#                 Cambridge Crystallographic Data Centre
#                                CCDC 
#
#######################################################################
#
# If this CIF has been generated from an entry in the Cambridge 
# Structural Database, then it will include bibliographic, chemical, 
# crystal, experimental, refinement or atomic coordinate data resulting 
# from the CCDC's data processing and validation procedures.
#
#######################################################################

data_GECQOW
_chemical_formula_moiety         'C11 H20 B10'
_chemical_name_systematic        
7-methyl-3,4-dihydronaphtho(1,2)-1,2-dicarba-closo-dodecaborane
_symmetry_cell_setting           orthorhombic
_symmetry_space_group_name_H-M   'P b c a'
_symmetry_Int_Tables_number      61
_space_group_name_Hall           '-P 2ac 2ab'
loop_
_symmetry_equiv_pos_site_id
_symmetry_equiv_pos_as_xyz
1 x,y,z
2 1/2-x,-y,1/2+z
3 -x,1/2+y,1/2-z
4 1/2+x,1/2-y,-z
5 -x,-y,-z
6 1/2+x,y,1/2-z
7 x,1/2-y,1/2+z
8 1/2-x,1/2+y,z
_cell_length_a                   11.3693(7)
_cell_length_b                   14.3567(9)
_cell_length_c                   18.8163(11)
_cell_angle_alpha                90
_cell_angle_beta                 90
_cell_angle_gamma                90
_cell_volume                     3071.3
_exptl_crystal_colour            colorless
_exptl_crystal_description       block
_cell_formula_units_Z            8
loop_
_atom_site_label
_atom_site_type_symbol
_atom_site_fract_x
_atom_site_fract_y
_atom_site_fract_z
C1 C -0.1201(2) 0.96244(17) 0.14538(15)
C2 C -0.00355(19) 0.89838(16) 0.13017(12)
C3 C -0.1016(2) 1.06667(19) 0.1448(2)
H1 H -0.1160 1.0894 0.0971
H2 H -0.1597 1.0950 0.1758
C4 C 0.0159(3) 1.0980(2) 0.1674(2)
H3 H 0.0193 1.0955 0.2188
H4 H 0.0251 1.1627 0.1535
C5 C 0.1179(2) 1.04415(18) 0.13845(14)
C6 C 0.2267(2) 1.08682(19) 0.13010(16)
H5 H 0.2341 1.1498 0.1408
C7 C 0.3234(2) 1.0389(2) 0.10661(17)
H6 H 0.3950 1.0697 0.1020
C8 C 0.3161(2) 0.9455(2) 0.08970(15)
C9 C 0.4224(2) 0.8918(2) 0.0647(2)
H7 H 0.4007 0.8281 0.0561
H8 H 0.4825 0.8941 0.1004
H9 H 0.4515 0.9189 0.0215
C10 C 0.2082(2) 0.90256(18) 0.09743(14)
H10 H 0.2013 0.8398 0.0860
C11 C 0.11052(19) 0.94979(16) 0.12147(12)
B1 B -0.0639(3) 0.8987(3) 0.21423(17)
H11 H -0.0209 0.9284 0.2615
B2 B -0.2168(3) 0.9074(2) 0.2002(2)
H12 H -0.2742 0.9430 0.2386
B3 B -0.2420(3) 0.9148(2) 0.1081(2)
H13 H -0.3155 0.9557 0.0863
B4 B -0.1054(3) 0.9093(3) 0.06376(18)
H14 H -0.0896 0.9458 0.0132
B5 B -0.0144(3) 0.7958(2) 0.1749(2)
H15 H 0.0614 0.7578 0.1967
B6 B -0.1524(3) 0.7990(3) 0.2179(2)
H16 H -0.1683 0.7619 0.2682
B7 B -0.2634(3) 0.8087(2) 0.1526(2)
H17 H -0.3516 0.7787 0.1598
B8 B -0.1940(3) 0.8094(3) 0.0694(2)
H18 H -0.2371 0.7794 0.0223
B9 B -0.0395(3) 0.8016(2) 0.0832(2)
H19 H 0.0199 0.7671 0.0452
B10 B -0.1370(3) 0.7388(2) 0.1377(3)
H20 H -0.1423 0.6623 0.1354
loop_
_geom_bond_atom_site_label_1
_geom_bond_atom_site_label_2
_geom_bond_site_symmetry_1
_geom_bond_site_symmetry_2
C1 C2 1_555 1_555
C2 C11 1_555 1_555
C3 C1 1_555 1_555
H1 C3 1_555 1_555
H2 C3 1_555 1_555
C4 C3 1_555 1_555
H3 C4 1_555 1_555
H4 C4 1_555 1_555
C5 C4 1_555 1_555
C6 C5 1_555 1_555
H5 C6 1_555 1_555
C7 C6 1_555 1_555
H6 C7 1_555 1_555
C8 C7 1_555 1_555
C9 C8 1_555 1_555
H7 C9 1_555 1_555
H8 C9 1_555 1_555
H9 C9 1_555 1_555
C10 C8 1_555 1_555
H10 C10 1_555 1_555
C11 C5 1_555 1_555
B1 C1 1_555 1_555
H11 B1 1_555 1_555
B2 C1 1_555 1_555
H12 B2 1_555 1_555
B3 C1 1_555 1_555
H13 B3 1_555 1_555
B4 C1 1_555 1_555
H14 B4 1_555 1_555
B5 C2 1_555 1_555
H15 B5 1_555 1_555
B6 B1 1_555 1_555
H16 B6 1_555 1_555
B7 B2 1_555 1_555
H17 B7 1_555 1_555
B8 B3 1_555 1_555
H18 B8 1_555 1_555
B9 C2 1_555 1_555
H19 B9 1_555 1_555
B10 B5 1_555 1_555
H20 B10 1_555 1_555
C2 B1 1_555 1_555
C2 B4 1_555 1_555
C10 C11 1_555 1_555
B1 B2 1_555 1_555
B1 B5 1_555 1_555
B2 B3 1_555 1_555
B2 B6 1_555 1_555
B3 B4 1_555 1_555
B3 B7 1_555 1_555
B4 B8 1_555 1_555
B4 B9 1_555 1_555
B5 B6 1_555 1_555
B5 B9 1_555 1_555
B6 B7 1_555 1_555
B6 B10 1_555 1_555
B7 B8 1_555 1_555
B7 B10 1_555 1_555
B8 B9 1_555 1_555
B8 B10 1_555 1_555
B9 B10 1_555 1_555

#END
