
#######################################################################
#
#                 Cambridge Crystallographic Data Centre
#                                CCDC 
#
#######################################################################
#
# If this CIF has been generated from an entry in the Cambridge 
# Structural Database, then it will include bibliographic, chemical, 
# crystal, experimental, refinement or atomic coordinate data resulting 
# from the CCDC's data processing and validation procedures.
#
#######################################################################

data_GECRUD
_chemical_formula_moiety         'C14 H20 B10'
_chemical_name_systematic        
1,2-dihydrophenanthreno(3,4)-1,2-dicarba-closo-dodecaborane
_symmetry_cell_setting           orthorhombic
_symmetry_space_group_name_H-M   'P b c a'
_symmetry_Int_Tables_number      61
_space_group_name_Hall           '-P 2ac 2ab'
loop_
_symmetry_equiv_pos_site_id
_symmetry_equiv_pos_as_xyz
1 x,y,z
2 1/2-x,-y,1/2+z
3 -x,1/2+y,1/2-z
4 1/2+x,1/2-y,-z
5 -x,-y,-z
6 1/2+x,y,1/2-z
7 x,1/2-y,1/2+z
8 1/2-x,1/2+y,z
_cell_length_a                   10.4143(9)
_cell_length_b                   17.6130(14)
_cell_length_c                   18.1629(15)
_cell_angle_alpha                90
_cell_angle_beta                 90
_cell_angle_gamma                90
_cell_volume                     3331.57
_exptl_crystal_colour            colorless
_exptl_crystal_description       block
_cell_formula_units_Z            8
loop_
_atom_site_label
_atom_site_type_symbol
_atom_site_fract_x
_atom_site_fract_y
_atom_site_fract_z
C1 C 0.30119(17) 0.12452(10) 0.65108(11)
C2 C 0.44986(16) 0.11217(10) 0.61659(10)
C3 C 0.2435(2) 0.05915(12) 0.69369(12)
H1 H 0.2664 0.0641 0.7452
H2 H 0.1506 0.0616 0.6901
C4 C 0.28861(19) -0.01713(11) 0.66571(13)
H3 H 0.2600 -0.0562 0.6996
H4 H 0.2484 -0.0269 0.6185
C5 C 0.43231(19) -0.02321(11) 0.65689(11)
C6 C 0.4874(2) -0.09395(11) 0.67579(11)
H5 H 0.4351 -0.1322 0.6944
C7 C 0.6144(2) -0.10718(12) 0.66735(11)
H6 H 0.6485 -0.1536 0.6819
C8 C 0.69547(19) -0.05168(11) 0.63693(11)
C9 C 0.8277(2) -0.06727(14) 0.62657(13)
H7 H 0.8605 -0.1137 0.6421
C10 C 0.9071(2) -0.01629(14) 0.59470(15)
H8 H 0.9941 -0.0270 0.5893
C11 C 0.8570(2) 0.05280(13) 0.56991(14)
H9 H 0.9108 0.0874 0.5465
C12 C 0.73022(18) 0.07030(12) 0.57959(12)
H10 H 0.6996 0.1165 0.5621
C13 C 0.64392(18) 0.02018(10) 0.61542(10)
C14 C 0.50975(18) 0.03460(10) 0.62978(10)
B1 B 0.3194(2) 0.11504(12) 0.55689(12)
H11 H 0.2866 0.0659 0.5246
B2 B 0.2103(2) 0.18066(14) 0.59562(14)
H12 H 0.1061 0.1741 0.5882
B3 B 0.2758(2) 0.21529(13) 0.67892(14)
H13 H 0.2139 0.2314 0.7254
B4 B 0.4265(2) 0.17070(13) 0.69303(12)
H14 H 0.4631 0.1571 0.7483
B5 B 0.4639(2) 0.16324(12) 0.53667(12)
H15 H 0.5257 0.1456 0.4906
B6 B 0.3131(2) 0.20852(13) 0.52240(14)
H16 H 0.2763 0.2211 0.4670
B7 B 0.2859(2) 0.27106(14) 0.59788(15)
H17 H 0.2315 0.3242 0.5913
B8 B 0.4195(2) 0.26407(13) 0.65869(14)
H18 H 0.4516 0.3128 0.6918
B9 B 0.5291(2) 0.19843(12) 0.62093(12)
H19 H 0.6332 0.2040 0.6296
B10 B 0.4438(2) 0.25989(13) 0.56164(13)
H20 H 0.4923 0.3057 0.5314
loop_
_geom_bond_atom_site_label_1
_geom_bond_atom_site_label_2
_geom_bond_site_symmetry_1
_geom_bond_site_symmetry_2
C1 C2 1_555 1_555
C2 C14 1_555 1_555
C3 C1 1_555 1_555
H1 C3 1_555 1_555
H2 C3 1_555 1_555
C4 C3 1_555 1_555
H3 C4 1_555 1_555
H4 C4 1_555 1_555
C5 C4 1_555 1_555
C6 C5 1_555 1_555
H5 C6 1_555 1_555
C7 C6 1_555 1_555
H6 C7 1_555 1_555
C8 C7 1_555 1_555
C9 C8 1_555 1_555
H7 C9 1_555 1_555
C10 C9 1_555 1_555
H8 C10 1_555 1_555
C11 C10 1_555 1_555
H9 C11 1_555 1_555
C12 C11 1_555 1_555
H10 C12 1_555 1_555
C13 C8 1_555 1_555
C14 C5 1_555 1_555
B1 C1 1_555 1_555
H11 B1 1_555 1_555
B2 C1 1_555 1_555
H12 B2 1_555 1_555
B3 C1 1_555 1_555
H13 B3 1_555 1_555
B4 C1 1_555 1_555
H14 B4 1_555 1_555
B5 C2 1_555 1_555
H15 B5 1_555 1_555
B6 B1 1_555 1_555
H16 B6 1_555 1_555
B7 B2 1_555 1_555
H17 B7 1_555 1_555
B8 B3 1_555 1_555
H18 B8 1_555 1_555
B9 C2 1_555 1_555
H19 B9 1_555 1_555
B10 B5 1_555 1_555
H20 B10 1_555 1_555
C2 B1 1_555 1_555
C2 B4 1_555 1_555
C12 C13 1_555 1_555
C13 C14 1_555 1_555
B1 B2 1_555 1_555
B1 B5 1_555 1_555
B2 B3 1_555 1_555
B2 B6 1_555 1_555
B3 B4 1_555 1_555
B3 B7 1_555 1_555
B4 B8 1_555 1_555
B4 B9 1_555 1_555
B5 B6 1_555 1_555
B5 B9 1_555 1_555
B6 B7 1_555 1_555
B6 B10 1_555 1_555
B7 B8 1_555 1_555
B7 B10 1_555 1_555
B8 B9 1_555 1_555
B8 B10 1_555 1_555
B9 B10 1_555 1_555

#END
