
#######################################################################
#
#                 Cambridge Crystallographic Data Centre
#                                CCDC 
#
#######################################################################
#
# If this CIF has been generated from an entry in the Cambridge 
# Structural Database, then it will include bibliographic, chemical, 
# crystal, experimental, refinement or atomic coordinate data resulting 
# from the CCDC's data processing and validation procedures.
#
#######################################################################

data_GECSEO
_chemical_formula_moiety         'C11 H18 B10'
_chemical_name_systematic        
3-methylnaphtho(1,2)-1,2-dicarba-closo-dodecaborane
_symmetry_cell_setting           monoclinic
_symmetry_space_group_name_H-M   'P 21/n'
_symmetry_Int_Tables_number      14
_space_group_name_Hall           '-P 2yn'
loop_
_symmetry_equiv_pos_site_id
_symmetry_equiv_pos_as_xyz
1 x,y,z
2 1/2-x,1/2+y,1/2-z
3 -x,-y,-z
4 1/2+x,1/2-y,1/2+z
_cell_length_a                   7.2771(5)
_cell_length_b                   24.0089(18)
_cell_length_c                   8.7688(7)
_cell_angle_alpha                90
_cell_angle_beta                 102.8350(10)
_cell_angle_gamma                90
_cell_volume                     1493.76
_exptl_crystal_colour            colorless
_exptl_crystal_description       block
_cell_formula_units_Z            4
loop_
_atom_site_label
_atom_site_type_symbol
_atom_site_fract_x
_atom_site_fract_y
_atom_site_fract_z
C1 C 0.6438(2) 0.15478(7) 0.7087(2)
C2 C 0.7834(2) 0.10974(7) 0.64721(19)
C3 C 0.6882(3) 0.16671(9) 0.8797(2)
C4 C 0.5602(4) 0.20560(11) 0.9403(3)
H1 H 0.6041 0.2099 1.0512
H2 H 0.4347 0.1906 0.9181
H3 H 0.5597 0.2412 0.8903
C5 C 0.8363(3) 0.14246(9) 0.9724(2)
H4 H 0.8615 0.1520 1.0778
C6 C 0.9621(3) 0.10256(8) 0.9247(2)
C7 C 1.1094(3) 0.07896(10) 1.0359(2)
H5 H 1.1298 0.0907 1.1394
C8 C 1.2244(3) 0.03892(10) 0.9954(3)
H6 H 1.3204 0.0234 1.0714
C9 C 1.1976(3) 0.02178(10) 0.8423(3)
H7 H 1.2753 -0.0055 0.8150
C10 C 1.0554(3) 0.04496(8) 0.7290(2)
H8 H 1.0385 0.0335 0.6255
C11 C 0.9375(2) 0.08525(7) 0.7692(2)
B1 B 0.5555(3) 0.08910(9) 0.6508(2)
H9 H 0.5197 0.0574 0.7300
B2 B 0.4173(3) 0.14954(10) 0.5989(3)
H10 H 0.2905 0.1572 0.6446
B3 B 0.5688(3) 0.20505(10) 0.5698(3)
H11 H 0.5394 0.2485 0.5967
B4 B 0.8026(3) 0.17960(9) 0.6036(2)
H12 H 0.9250 0.2060 0.6526
B5 B 0.6597(3) 0.07159(9) 0.4934(2)
H13 H 0.6916 0.0280 0.4700
B6 B 0.4258(3) 0.09741(10) 0.4579(3)
H14 H 0.3034 0.0709 0.4097
B7 B 0.4327(3) 0.16891(10) 0.4068(3)
H15 H 0.3143 0.1890 0.3254
B8 B 0.6705(3) 0.18706(10) 0.4108(3)
H16 H 0.7068 0.2188 0.3318
B9 B 0.8110(3) 0.12694(10) 0.4640(2)
H17 H 0.9401 0.1192 0.4216
B10 B 0.5823(3) 0.12050(10) 0.3414(3)
H18 H 0.5614 0.1089 0.2174
loop_
_geom_bond_atom_site_label_1
_geom_bond_atom_site_label_2
_geom_bond_site_symmetry_1
_geom_bond_site_symmetry_2
C1 C2 1_555 1_555
C2 C11 1_555 1_555
C3 C1 1_555 1_555
C4 C3 1_555 1_555
H1 C4 1_555 1_555
H2 C4 1_555 1_555
H3 C4 1_555 1_555
C5 C3 1_555 1_555
H4 C5 1_555 1_555
C6 C5 1_555 1_555
C7 C6 1_555 1_555
H5 C7 1_555 1_555
C8 C7 1_555 1_555
H6 C8 1_555 1_555
C9 C8 1_555 1_555
H7 C9 1_555 1_555
C10 C9 1_555 1_555
H8 C10 1_555 1_555
C11 C6 1_555 1_555
B1 C1 1_555 1_555
H9 B1 1_555 1_555
B2 C1 1_555 1_555
H10 B2 1_555 1_555
B3 C1 1_555 1_555
H11 B3 1_555 1_555
B4 C1 1_555 1_555
H12 B4 1_555 1_555
B5 C2 1_555 1_555
H13 B5 1_555 1_555
B6 B1 1_555 1_555
H14 B6 1_555 1_555
B7 B2 1_555 1_555
H15 B7 1_555 1_555
B8 B3 1_555 1_555
H16 B8 1_555 1_555
B9 C2 1_555 1_555
H17 B9 1_555 1_555
B10 B5 1_555 1_555
H18 B10 1_555 1_555
C2 B1 1_555 1_555
C2 B4 1_555 1_555
C10 C11 1_555 1_555
B1 B2 1_555 1_555
B1 B5 1_555 1_555
B2 B3 1_555 1_555
B2 B6 1_555 1_555
B3 B4 1_555 1_555
B3 B7 1_555 1_555
B4 B8 1_555 1_555
B4 B9 1_555 1_555
B5 B6 1_555 1_555
B5 B9 1_555 1_555
B6 B7 1_555 1_555
B6 B10 1_555 1_555
B7 B8 1_555 1_555
B7 B10 1_555 1_555
B8 B9 1_555 1_555
B8 B10 1_555 1_555
B9 B10 1_555 1_555

#END
