
#######################################################################
#
#                 Cambridge Crystallographic Data Centre
#                                CCDC 
#
#######################################################################
#
# If this CIF has been generated from an entry in the Cambridge 
# Structural Database, then it will include bibliographic, chemical, 
# crystal, experimental, refinement or atomic coordinate data resulting 
# from the CCDC's data processing and validation procedures.
#
#######################################################################

data_GECSAK
_chemical_formula_moiety         'C11 H18 B10'
_chemical_name_systematic        
4-methylene-3,4-dihydronaphtho(1,2)-1,2-dicarba-closo-dodecaborane
_symmetry_cell_setting           orthorhombic
_symmetry_space_group_name_H-M   'P c a 21'
_symmetry_Int_Tables_number      29
_space_group_name_Hall           'P 2c -2ac'
loop_
_symmetry_equiv_pos_site_id
_symmetry_equiv_pos_as_xyz
1 x,y,z
2 -x,-y,1/2+z
3 1/2+x,-y,z
4 1/2-x,y,1/2+z
_cell_length_a                   15.369(2)
_cell_length_b                   7.5140(11)
_cell_length_c                   13.1362(15)
_cell_angle_alpha                90
_cell_angle_beta                 90
_cell_angle_gamma                90
_cell_volume                     1517
_exptl_crystal_colour            colorless
_exptl_crystal_description       block
_cell_formula_units_Z            4
loop_
_atom_site_label
_atom_site_type_symbol
_atom_site_fract_x
_atom_site_fract_y
_atom_site_fract_z
C1 C 0.7120(2) 0.3971(7) 0.0320(3)
C2 C 0.62185(19) 0.3358(4) 0.0852(2)
C3 C 0.7930(3) 0.3144(12) 0.0774(6)
H1 H 0.8350 0.2998 0.0228
H2 H 0.8175 0.3993 0.1250
C4 C 0.7858(3) 0.1509(6) 0.1278(3)
C5 C 0.8577(3) 0.0403(9) 0.1282(5)
H3 H 0.9087 0.0755 0.0958
H4 H 0.8552 -0.0693 0.1610
C6 C 0.7075(2) 0.1124(5) 0.1871(3)
C7 C 0.7074(3) -0.0160(6) 0.2652(3)
H5 H 0.7583 -0.0784 0.2792
C8 C 0.6341(4) -0.0510(7) 0.3210(4)
H6 H 0.6359 -0.1361 0.3724
C9 C 0.5593(4) 0.0370(6) 0.3021(3)
H7 H 0.5096 0.0125 0.3400
C10 C 0.5570(3) 0.1618(6) 0.2270(3)
H8 H 0.5052 0.2220 0.2143
C11 C 0.6293(2) 0.2013(5) 0.1695(2)
B1 B 0.6578(4) 0.5464(7) 0.1105(4)
H9 H 0.6801 0.5937 0.1854
B2 B 0.7075(4) 0.6125(9) -0.0045(5)
H10 H 0.7635 0.7038 -0.0034
B3 B 0.7009(4) 0.4428(9) -0.0922(4)
H11 H 0.7527 0.4234 -0.1490
B4 B 0.6465(4) 0.2631(8) -0.0351(3)
H12 H 0.6610 0.1237 -0.0542
B5 B 0.5488(4) 0.5015(8) 0.0841(4)
H13 H 0.4984 0.5187 0.1428
B6 B 0.6015(5) 0.6827(8) 0.0241(5)
H14 H 0.5862 0.8221 0.0425
B7 B 0.6282(3) 0.6187(8) -0.1013(4)
H15 H 0.6301 0.7145 -0.1646
B8 B 0.5929(4) 0.4024(8) -0.1187(4)
H16 H 0.5717 0.3563 -0.1943
B9 B 0.5426(3) 0.3275(8) -0.0045(4)
H17 H 0.4887 0.2313 -0.0040
B10 B 0.5298(4) 0.5515(9) -0.0444(5)
H18 H 0.4667 0.6038 -0.0701
loop_
_geom_bond_atom_site_label_1
_geom_bond_atom_site_label_2
_geom_bond_site_symmetry_1
_geom_bond_site_symmetry_2
C1 C2 1_555 1_555
C2 C11 1_555 1_555
C3 C1 1_555 1_555
H1 C3 1_555 1_555
H2 C3 1_555 1_555
C4 C3 1_555 1_555
C5 C4 1_555 1_555
H3 C5 1_555 1_555
H4 C5 1_555 1_555
C6 C4 1_555 1_555
C7 C6 1_555 1_555
H5 C7 1_555 1_555
C8 C7 1_555 1_555
H6 C8 1_555 1_555
C9 C8 1_555 1_555
H7 C9 1_555 1_555
C10 C9 1_555 1_555
H8 C10 1_555 1_555
C11 C6 1_555 1_555
B1 C1 1_555 1_555
H9 B1 1_555 1_555
B2 C1 1_555 1_555
H10 B2 1_555 1_555
B3 C1 1_555 1_555
H11 B3 1_555 1_555
B4 C1 1_555 1_555
H12 B4 1_555 1_555
B5 C2 1_555 1_555
H13 B5 1_555 1_555
B6 B1 1_555 1_555
H14 B6 1_555 1_555
B7 B2 1_555 1_555
H15 B7 1_555 1_555
B8 B3 1_555 1_555
H16 B8 1_555 1_555
B9 C2 1_555 1_555
H17 B9 1_555 1_555
B10 B5 1_555 1_555
H18 B10 1_555 1_555
C2 B1 1_555 1_555
C2 B4 1_555 1_555
C10 C11 1_555 1_555
B1 B2 1_555 1_555
B1 B5 1_555 1_555
B2 B3 1_555 1_555
B2 B6 1_555 1_555
B3 B4 1_555 1_555
B3 B7 1_555 1_555
B4 B8 1_555 1_555
B4 B9 1_555 1_555
B5 B6 1_555 1_555
B5 B9 1_555 1_555
B6 B7 1_555 1_555
B6 B10 1_555 1_555
B7 B8 1_555 1_555
B7 B10 1_555 1_555
B8 B9 1_555 1_555
B8 B10 1_555 1_555
B9 B10 1_555 1_555

#END
