
#######################################################################
#
#                 Cambridge Crystallographic Data Centre
#                                CCDC 
#
#######################################################################
#
# If this CIF has been generated from an entry in the Cambridge 
# Structural Database, then it will include bibliographic, chemical, 
# crystal, experimental, refinement or atomic coordinate data resulting 
# from the CCDC's data processing and validation procedures.
#
#######################################################################

data_GECTOZ
_chemical_formula_moiety         'C24 H14 O2 S3'
_chemical_name_systematic        
'S-(3-Benzoylthieno[2,3-b][1]benzothiophen-2-yl) benzenecarbothioate'
_symmetry_cell_setting           monoclinic
_symmetry_space_group_name_H-M   'P 21/c'
_symmetry_Int_Tables_number      14
_space_group_name_Hall           '-P 2ybc'
loop_
_symmetry_equiv_pos_site_id
_symmetry_equiv_pos_as_xyz
1 x,y,z
2 -x,1/2+y,1/2-z
3 -x,-y,-z
4 x,1/2-y,1/2+z
_cell_length_a                   12.720(3)
_cell_length_b                   13.868(3)
_cell_length_c                   12.060(2)
_cell_angle_alpha                90
_cell_angle_beta                 107.20(3)
_cell_angle_gamma                90
_cell_volume                     2032.25
_cell_formula_units_Z            4
loop_
_atom_site_label
_atom_site_type_symbol
_atom_site_fract_x
_atom_site_fract_y
_atom_site_fract_z
C1 C 0.8650(3) 0.1731(3) 0.7393(4)
C2 C 0.9840(3) 0.2042(3) 0.6146(4)
C3 C 1.0499(4) 0.2042(4) 0.5397(4)
H1 H 1.0682 0.1456 0.5090
C4 C 1.0873(4) 0.2912(4) 0.5119(4)
H2 H 1.1325 0.2926 0.4617
C5 C 1.0602(4) 0.3772(4) 0.5559(4)
H3 H 1.0883 0.4363 0.5367
C6 C 0.9922(4) 0.3781(3) 0.6279(4)
H4 H 0.9726 0.4372 0.6563
C7 C 0.9532(3) 0.2902(3) 0.6576(4)
C8 C 0.8812(3) 0.2710(3) 0.7298(4)
C9 C 0.8240(3) 0.3265(3) 0.7932(3)
C10 C 0.7687(4) 0.2697(3) 0.8490(4)
C11 C 0.8227(4) 0.4337(3) 0.7990(4)
C12 C 0.7549(3) 0.4875(3) 0.6957(4)
C13 C 0.6960(4) 0.4399(4) 0.5950(4)
H5 H 0.6984 0.3715 0.5911
C14 C 0.6337(4) 0.4922(5) 0.5002(5)
H6 H 0.5950 0.4597 0.4307
C15 C 0.6281(4) 0.5905(4) 0.5068(5)
H7 H 0.5843 0.6260 0.4421
C16 C 0.6854(4) 0.6387(4) 0.6064(5)
H8 H 0.6812 0.7069 0.6101
C17 C 0.7489(4) 0.5873(3) 0.7010(5)
H9 H 0.7885 0.6204 0.7696
C18 C 0.5586(4) 0.3210(3) 0.8411(4)
C19 C 0.4752(4) 0.3559(3) 0.8944(4)
C20 C 0.3764(4) 0.3868(4) 0.8218(5)
H10 H 0.3635 0.3862 0.7401
C21 C 0.2961(4) 0.4187(4) 0.8681(5)
H11 H 0.2276 0.4403 0.8179
C22 C 0.3136(5) 0.4198(4) 0.9867(6)
H12 H 0.2575 0.4421 1.0176
C23 C 0.4117(4) 0.3886(4) 1.0594(5)
H13 H 0.4240 0.3884 1.1410
C24 C 0.4924(4) 0.3576(4) 1.0131(4)
H14 H 0.5612 0.3369 1.0635
O1 O 0.8750(3) 0.4748(2) 0.8879(3)
O2 O 0.5419(3) 0.3042(3) 0.7402(3)
S1 S 0.93164(10) 0.10119(8) 0.66397(11)
S2 S 0.78320(10) 0.14724(9) 0.82498(11)
S3 S 0.69455(10) 0.30713(9) 0.94217(10)
loop_
_geom_bond_atom_site_label_1
_geom_bond_atom_site_label_2
_geom_bond_site_symmetry_1
_geom_bond_site_symmetry_2
C1 C8 1_555 1_555
C2 C3 1_555 1_555
C3 H1 1_555 1_555
C4 C3 1_555 1_555
H2 C4 1_555 1_555
C5 C4 1_555 1_555
H3 C5 1_555 1_555
C6 C5 1_555 1_555
H4 C6 1_555 1_555
C7 C2 1_555 1_555
C8 C7 1_555 1_555
C9 C8 1_555 1_555
C10 C9 1_555 1_555
C11 C9 1_555 1_555
C12 C11 1_555 1_555
C13 C12 1_555 1_555
H5 C13 1_555 1_555
C14 C13 1_555 1_555
H6 C14 1_555 1_555
C15 C14 1_555 1_555
H7 C15 1_555 1_555
C16 C15 1_555 1_555
H8 C16 1_555 1_555
C17 C12 1_555 1_555
H9 C17 1_555 1_555
C18 C19 1_555 1_555
C19 C20 1_555 1_555
C20 H10 1_555 1_555
C21 C20 1_555 1_555
H11 C21 1_555 1_555
C22 C21 1_555 1_555
H12 C22 1_555 1_555
C23 C22 1_555 1_555
H13 C23 1_555 1_555
C24 C19 1_555 1_555
H14 C24 1_555 1_555
O1 C11 1_555 1_555
O2 C18 1_555 1_555
S1 C1 1_555 1_555
S2 C1 1_555 1_555
S3 C10 1_555 1_555
C2 S1 1_555 1_555
C6 C7 1_555 1_555
C10 S2 1_555 1_555
C16 C17 1_555 1_555
C18 S3 1_555 1_555
C23 C24 1_555 1_555

#END
