
#######################################################################
#
#                 Cambridge Crystallographic Data Centre
#                                CCDC 
#
#######################################################################
#
# If this CIF has been generated from an entry in the Cambridge 
# Structural Database, then it will include bibliographic, chemical, 
# crystal, experimental, refinement or atomic coordinate data resulting 
# from the CCDC's data processing and validation procedures.
#
#######################################################################

data_GECWET
_chemical_formula_moiety         'C16 H18 N4 O1'
_chemical_name_systematic        
4-dimethylamino-N-methyl-N'-(pyridin-2-ylmethylene)benzohydrazide
_symmetry_cell_setting           orthorhombic
_symmetry_space_group_name_H-M   'P n a 21'
_symmetry_Int_Tables_number      33
_space_group_name_Hall           'P 2c -2n'
loop_
_symmetry_equiv_pos_site_id
_symmetry_equiv_pos_as_xyz
1 x,y,z
2 -x,-y,1/2+z
3 1/2-x,1/2+y,1/2+z
4 1/2+x,1/2-y,z
_cell_length_a                   19.3241(6)
_cell_length_b                   6.2200(2)
_cell_length_c                   12.2421(5)
_cell_angle_alpha                90
_cell_angle_beta                 90
_cell_angle_gamma                90
_cell_volume                     1471.45
_exptl_crystal_colour            colorless
_exptl_crystal_description       prism
_cell_formula_units_Z            4
loop_
_atom_site_label
_atom_site_type_symbol
_atom_site_fract_x
_atom_site_fract_y
_atom_site_fract_z
C1 C 0.66609(16) 1.1644(4) 0.6622(3)
H1 H 0.7068 1.2360 0.6863
C2 C 0.63278(16) 1.2443(4) 0.5724(3)
H2 H 0.6490 1.3705 0.5370
C3 C 0.57472(16) 1.1371(4) 0.5341(3)
H3 H 0.5512 1.1859 0.4707
C4 C 0.55203(13) 0.9596(4) 0.5896(2)
H4 H 0.5121 0.8839 0.5657
C5 C 0.58827(12) 0.8917(4) 0.6813(2)
C6 C 0.56694(12) 0.7050(4) 0.7460(2)
H5 H 0.5909 0.6693 0.8113
C7 C 0.53864(15) 0.3444(4) 0.8681(2)
H6 H 0.5871 0.3294 0.8459
H7 H 0.5214 0.2057 0.8947
H8 H 0.5351 0.4517 0.9264
C8 C 0.44487(11) 0.2835(4) 0.73470(19)
C9 C 0.39898(11) 0.3657(3) 0.6473(2)
C10 C 0.37247(12) 0.5746(3) 0.6427(2)
H9 H 0.3885 0.6791 0.6933
C11 C 0.32368(11) 0.6319(3) 0.5662(2)
H10 H 0.3052 0.7734 0.5673
C12 C 0.30044(11) 0.4855(3) 0.4864(2)
C13 C 0.32782(11) 0.2752(3) 0.4905(2)
H11 H 0.3140 0.1720 0.4377
C14 C 0.37452(11) 0.2186(3) 0.5706(2)
H12 H 0.3906 0.0743 0.5737
C15 C 0.21692(14) 0.7455(3) 0.4159(3)
H13 H 0.1933 0.7519 0.4866
H14 H 0.1827 0.7560 0.3570
H15 H 0.2497 0.8652 0.4102
C16 C 0.22905(13) 0.3903(4) 0.3274(3)
H16 H 0.2684 0.3310 0.2869
H17 H 0.1974 0.4617 0.2765
H18 H 0.2046 0.2737 0.3651
N1 N 0.64506(11) 0.9923(4) 0.7180(2)
N2 N 0.51561(10) 0.5898(3) 0.71395(17)
N3 N 0.49755(10) 0.4131(3) 0.77493(19)
N4 N 0.25378(10) 0.5443(3) 0.4068(2)
O1 O 0.43632(9) 0.1036(3) 0.77373(16)
loop_
_geom_bond_atom_site_label_1
_geom_bond_atom_site_label_2
_geom_bond_site_symmetry_1
_geom_bond_site_symmetry_2
C1 H1 1_555 1_555
C2 C1 1_555 1_555
H2 C2 1_555 1_555
C3 C2 1_555 1_555
H3 C3 1_555 1_555
C4 C3 1_555 1_555
H4 C4 1_555 1_555
C5 C4 1_555 1_555
C6 C5 1_555 1_555
H5 C6 1_555 1_555
C7 H6 1_555 1_555
H7 C7 1_555 1_555
H8 C7 1_555 1_555
C8 C9 1_555 1_555
C9 C10 1_555 1_555
C10 H9 1_555 1_555
C11 C10 1_555 1_555
H10 C11 1_555 1_555
C12 C11 1_555 1_555
C13 C12 1_555 1_555
H11 C13 1_555 1_555
C14 C9 1_555 1_555
H12 C14 1_555 1_555
C15 H13 1_555 1_555
H14 C15 1_555 1_555
H15 C15 1_555 1_555
C16 H16 1_555 1_555
H17 C16 1_555 1_555
H18 C16 1_555 1_555
N1 C1 1_555 1_555
N2 C6 1_555 1_555
N3 C7 1_555 1_555
N4 C12 1_555 1_555
O1 C8 1_555 1_555
C5 N1 1_555 1_555
C8 N3 1_555 1_555
C13 C14 1_555 1_555
C15 N4 1_555 1_555
C16 N4 1_555 1_555
N2 N3 1_555 1_555

#END
