
#######################################################################
#
#                 Cambridge Crystallographic Data Centre
#                                CCDC 
#
#######################################################################
#
# If this CIF has been generated from an entry in the Cambridge 
# Structural Database, then it will include bibliographic, chemical, 
# crystal, experimental, refinement or atomic coordinate data resulting 
# from the CCDC's data processing and validation procedures.
#
#######################################################################

data_GECXIW
_chemical_compound_source        'stems of Dendrobium chrysanthum'
_chemical_name_common            'Dendrochrysanene acetone solvate'
_chemical_formula_moiety         'C30 H20 O8,C3 H6 O1'
_chemical_name_systematic        
"2-Hydro-7,7',10'-trihydroxy-4,4'-dimethoxyspiro((1H)-cyclopenta(a)naphthalene-3,3'-(2'H)-phenathro(2,1-b)furan)-1',2-dione acetone solvate"
_chemical_properties_biological  
'inhibitory effect on proinflammatory cytokines and iNOS'
_symmetry_cell_setting           monoclinic
_symmetry_space_group_name_H-M   'C 2/c'
_symmetry_Int_Tables_number      15
_space_group_name_Hall           '-C 2yn'
loop_
_symmetry_equiv_pos_site_id
_symmetry_equiv_pos_as_xyz
1 x,y,z
2 1/2+x,1/2+y,z
3 -x,y,1/2-z
4 1/2-x,1/2+y,1/2-z
5 -x,-y,-z
6 1/2-x,1/2-y,-z
7 x,-y,1/2+z
8 1/2+x,1/2-y,1/2+z
_cell_length_a                   28.696(5)
_cell_length_b                   12.005(2)
_cell_length_c                   19.001(4)
_cell_angle_alpha                90
_cell_angle_beta                 123.010(11)
_cell_angle_gamma                90
_cell_volume                     5489.11
_exptl_crystal_colour            yellow
_exptl_crystal_description       needle
_cell_formula_units_Z            8
_exptl_crystal_recrystallization_method 'acetone/petroleum ether'
loop_
_atom_site_label
_atom_site_type_symbol
_atom_site_fract_x
_atom_site_fract_y
_atom_site_fract_z
C1 C 0.12598(13) 0.4411(3) 0.23304(19)
C2 C 0.15890(13) 0.5487(3) 0.2514(2)
O1 O 0.19156(9) 0.5912(2) 0.31825(13)
O2 O 0.14658(9) 0.59949(19) 0.17887(12)
C3 C 0.10869(12) 0.5292(3) 0.11228(19)
C4 C 0.09058(12) 0.5588(3) 0.03119(18)
H1 H 0.1016 0.6265 0.0185
C5 C 0.05547(13) 0.4844(3) -0.03034(18)
O3 O 0.03709(9) 0.5101(2) -0.11182(12)
H2 H 0.0532 0.5680 -0.1128
C6 C 0.03725(12) 0.3850(3) -0.01290(18)
C7 C -0.00074(13) 0.3062(3) -0.07880(19)
C8 C -0.01823(14) 0.3131(3) -0.1639(2)
H3 H -0.0036 0.3708 -0.1806
C9 C -0.05543(16) 0.2400(3) -0.2234(2)
H4 H -0.0660 0.2477 -0.2800
C10 C -0.07801(15) 0.1541(3) -0.2012(2)
O4 O -0.11629(12) 0.0802(2) -0.25887(15)
H5 H -0.1223 0.0943 -0.3064
C11 C -0.06068(14) 0.1417(3) -0.1188(2)
H6 H -0.0751 0.0822 -0.1031
C12 C -0.02175(14) 0.2157(3) -0.0567(2)
C13 C -0.00316(14) 0.1971(3) 0.0290(2)
H7 H -0.0175 0.1359 0.0433
C14 C 0.03471(14) 0.2658(3) 0.0900(2)
O5 O 0.05486(10) 0.2488(2) 0.17312(13)
C15 C 0.03731(18) 0.1513(3) 0.1953(2)
H8 H -0.0030 0.1539 0.1691
H9 H 0.0559 0.1478 0.2564
H10 H 0.0470 0.0852 0.1756
C16 C 0.05634(12) 0.3623(3) 0.07346(19)
C17 C 0.09417(13) 0.4375(3) 0.13665(18)
C18 C 0.09197(12) 0.4440(3) 0.27434(18)
H11 H 0.0979 0.5154 0.3042
H12 H 0.0518 0.4358 0.2313
C19 C 0.11245(13) 0.3478(3) 0.33533(17)
O6 O 0.09238(9) 0.3206(2) 0.37569(12)
C20 C 0.15865(12) 0.2944(3) 0.33714(18)
C21 C 0.19320(12) 0.2049(3) 0.38848(18)
C22 C 0.18868(14) 0.1516(3) 0.45131(19)
H13 H 0.1602 0.1733 0.4596
C23 C 0.22477(13) 0.0698(3) 0.49945(19)
H14 H 0.2216 0.0357 0.5417
C24 C 0.26693(13) 0.0348(3) 0.48766(19)
O7 O 0.30372(10) -0.0468(2) 0.53513(14)
H15 H 0.3000 -0.0633 0.5748
C25 C 0.27191(13) 0.0847(3) 0.42759(19)
H16 H 0.3002 0.0604 0.4195
C26 C 0.23607(13) 0.1714(3) 0.37720(18)
C27 C 0.24432(14) 0.2276(3) 0.3192(2)
H17 H 0.2735 0.2040 0.3130
C28 C 0.21145(14) 0.3147(3) 0.27210(19)
O8 O 0.21790(10) 0.3789(2) 0.21904(15)
C29 C 0.26872(17) 0.3623(4) 0.2220(3)
H18 H 0.3005 0.3673 0.2803
H19 H 0.2720 0.4198 0.1884
H20 H 0.2682 0.2886 0.1994
C30 C 0.16721(12) 0.3469(3) 0.28052(18)
loop_
_geom_bond_atom_site_label_1
_geom_bond_atom_site_label_2
_geom_bond_site_symmetry_1
_geom_bond_site_symmetry_2
C1 C2 1_555 1_555
C2 O1 1_555 1_555
O2 C2 1_555 1_555
C3 O2 1_555 1_555
C4 C3 1_555 1_555
H1 C4 1_555 1_555
C5 C4 1_555 1_555
O3 C5 1_555 1_555
H2 O3 1_555 1_555
C6 C5 1_555 1_555
C7 C6 1_555 1_555
C8 C7 1_555 1_555
H3 C8 1_555 1_555
C9 C8 1_555 1_555
H4 C9 1_555 1_555
C10 C9 1_555 1_555
O4 C10 1_555 1_555
H5 O4 1_555 1_555
C11 C10 1_555 1_555
H6 C11 1_555 1_555
C12 C7 1_555 1_555
C13 C12 1_555 1_555
H7 C13 1_555 1_555
C14 C13 1_555 1_555
O5 C14 1_555 1_555
C15 O5 1_555 1_555
H8 C15 1_555 1_555
H9 C15 1_555 1_555
H10 C15 1_555 1_555
C16 C6 1_555 1_555
C17 C1 1_555 1_555
C18 C1 1_555 1_555
H11 C18 1_555 1_555
H12 C18 1_555 1_555
C19 C18 1_555 1_555
O6 C19 1_555 1_555
C20 C19 1_555 1_555
C21 C20 1_555 1_555
C22 C21 1_555 1_555
H13 C22 1_555 1_555
C23 C22 1_555 1_555
H14 C23 1_555 1_555
C24 C23 1_555 1_555
O7 C24 1_555 1_555
H15 O7 1_555 1_555
C25 C24 1_555 1_555
H16 C25 1_555 1_555
C26 C21 1_555 1_555
C27 C26 1_555 1_555
H17 C27 1_555 1_555
C28 C27 1_555 1_555
O8 C28 1_555 1_555
C29 O8 1_555 1_555
H18 C29 1_555 1_555
H19 C29 1_555 1_555
H20 C29 1_555 1_555
C30 C1 1_555 1_555
C3 C17 1_555 1_555
C11 C12 1_555 1_555
C14 C16 1_555 1_555
C16 C17 1_555 1_555
C20 C30 1_555 1_555
C25 C26 1_555 1_555
C28 C30 1_555 1_555

#END
