
#######################################################################
#
#                 Cambridge Crystallographic Data Centre
#                                CCDC 
#
#######################################################################
#
# If this CIF has been generated from an entry in the Cambridge 
# Structural Database, then it will include bibliographic, chemical, 
# crystal, experimental, refinement or atomic coordinate data resulting 
# from the CCDC's data processing and validation procedures.
#
#######################################################################

data_GECYUK
_chemical_formula_moiety         'C10 H8 O2'
_chemical_name_systematic        3-Methyl-1H-isochromen-1-one
_symmetry_cell_setting           monoclinic
_symmetry_space_group_name_H-M   'P 21'
_symmetry_Int_Tables_number      4
_space_group_name_Hall           'P 2yb'
loop_
_symmetry_equiv_pos_site_id
_symmetry_equiv_pos_as_xyz
1 x,y,z
2 -x,1/2+y,-z
_cell_length_a                   4.099(4)
_cell_length_b                   16.172(16)
_cell_length_c                   5.964(6)
_cell_angle_alpha                90
_cell_angle_beta                 93.847(11)
_cell_angle_gamma                90
_cell_volume                     394.457
_exptl_crystal_colour            colorless
_exptl_crystal_description       block
_cell_formula_units_Z            2
loop_
_atom_site_label
_atom_site_type_symbol
_atom_site_fract_x
_atom_site_fract_y
_atom_site_fract_z
C1 C 0.2520(5) 0.38424(12) 0.7323(4)
C2 C 0.1831(6) 0.30069(13) 0.7657(4)
H1 H 0.0744 0.2846 0.8906
C3 C 0.2743(7) 0.24218(15) 0.6159(5)
H2 H 0.2261 0.1868 0.6399
C4 C 0.4369(7) 0.26445(13) 0.4295(4)
H3 H 0.4958 0.2243 0.3282
C5 C 0.5114(6) 0.34582(14) 0.3939(4)
H4 H 0.6226 0.3609 0.2693
C6 C 0.4199(5) 0.40584(13) 0.5450(4)
C7 C 0.5098(5) 0.49176(13) 0.5080(3)
C8 C 0.2244(5) 0.52743(13) 0.8358(3)
C9 C 0.1559(5) 0.44915(15) 0.8773(3)
H5 H 0.0433 0.4361 1.0028
C10 C 0.1355(6) 0.60083(15) 0.9658(4)
H6 H 0.0013 0.5842 1.0838
H7 H 0.0168 0.6391 0.8682
H8 H 0.3305 0.6268 1.0300
O1 O 0.6718(4) 0.51720(10) 0.3615(2)
O2 O 0.4004(3) 0.54912(7) 0.6560(2)
loop_
_geom_bond_atom_site_label_1
_geom_bond_atom_site_label_2
_geom_bond_site_symmetry_1
_geom_bond_site_symmetry_2
C1 C2 1_555 1_555
C2 H1 1_555 1_555
C3 C2 1_555 1_555
H2 C3 1_555 1_555
C4 C3 1_555 1_555
H3 C4 1_555 1_555
C5 C4 1_555 1_555
H4 C5 1_555 1_555
C6 C1 1_555 1_555
C7 C6 1_555 1_555
C8 C9 1_555 1_555
C9 C1 1_555 1_555
H5 C9 1_555 1_555
C10 C8 1_555 1_555
H6 C10 1_555 1_555
H7 C10 1_555 1_555
H8 C10 1_555 1_555
O1 C7 1_555 1_555
O2 C7 1_555 1_555
C5 C6 1_555 1_555
C8 O2 1_555 1_555

#END
