
#######################################################################
#
#                 Cambridge Crystallographic Data Centre
#                                CCDC 
#
#######################################################################
#
# If this CIF has been generated from an entry in the Cambridge 
# Structural Database, then it will include bibliographic, chemical, 
# crystal, experimental, refinement or atomic coordinate data resulting 
# from the CCDC's data processing and validation procedures.
#
#######################################################################

data_GECYUK01
_chemical_formula_moiety         'C10 H8 O2'
_chemical_name_systematic        3-Methyl-1H-isochromen-1-one
_symmetry_cell_setting           monoclinic
_symmetry_space_group_name_H-M   'P 21'
_symmetry_Int_Tables_number      4
_space_group_name_Hall           'P 2yb'
loop_
_symmetry_equiv_pos_site_id
_symmetry_equiv_pos_as_xyz
1 x,y,z
2 -x,1/2+y,-z
_cell_length_a                   4.0500(13)
_cell_length_b                   16.162(5)
_cell_length_c                   5.946(2)
_cell_angle_alpha                90
_cell_angle_beta                 94.298(18)
_cell_angle_gamma                90
_cell_volume                     388.107
_exptl_crystal_colour            colorless
_exptl_crystal_description       prism
_chemical_melting_point          '70-72 deg.C'
_cell_formula_units_Z            2
loop_
_atom_site_label
_atom_site_type_symbol
_atom_site_fract_x
_atom_site_fract_y
_atom_site_fract_z
C1 C -0.0129(9) 0.6865(3) 0.4932(7)
C2 C 0.0783(11) 0.5997(3) 0.4579(8)
C3 C -0.0124(10) 0.5397(3) 0.6103(8)
H1 H -0.1264 0.5552 0.7378
C4 C 0.0643(12) 0.4580(3) 0.5748(9)
H2 H 0.0061 0.4169 0.6790
C5 C 0.2289(12) 0.4355(3) 0.3843(9)
H3 H 0.2811 0.3791 0.3594
C6 C 0.3138(11) 0.4944(3) 0.2351(8)
H4 H 0.4202 0.4779 0.1053
C7 C 0.2485(10) 0.5792(3) 0.2675(8)
C8 C 0.3412(10) 0.6448(3) 0.1208(7)
H5 H 0.4569 0.6319 -0.0079
C9 C 0.2687(9) 0.7212(3) 0.1622(7)
C10 C 0.3645(11) 0.7961(3) 0.0339(8)
H6 H 0.2792 0.8458 0.1040
H7 H 0.2706 0.7921 -0.1225
H8 H 0.6063 0.7994 0.0362
O1 O -0.1785(7) 0.7111(2) 0.6431(5)
O2 O 0.0924(7) 0.74432(16) 0.3466(5)
loop_
_geom_bond_atom_site_label_1
_geom_bond_atom_site_label_2
_geom_bond_site_symmetry_1
_geom_bond_site_symmetry_2
C1 C2 1_555 1_555
C2 C3 1_555 1_555
C3 H1 1_555 1_555
C4 C3 1_555 1_555
H2 C4 1_555 1_555
C5 C4 1_555 1_555
H3 C5 1_555 1_555
C6 C5 1_555 1_555
H4 C6 1_555 1_555
C7 C2 1_555 1_555
C8 C7 1_555 1_555
H5 C8 1_555 1_555
C9 C8 1_555 1_555
C10 C9 1_555 1_555
H6 C10 1_555 1_555
H7 C10 1_555 1_555
H8 C10 1_555 1_555
O1 C1 1_555 1_555
O2 C1 1_555 1_555
C6 C7 1_555 1_555
C9 O2 1_555 1_555

#END
