
#######################################################################
#
#                 Cambridge Crystallographic Data Centre
#                                CCDC 
#
#######################################################################
#
# If this CIF has been generated from an entry in the Cambridge 
# Structural Database, then it will include bibliographic, chemical, 
# crystal, experimental, refinement or atomic coordinate data resulting 
# from the CCDC's data processing and validation procedures.
#
#######################################################################

data_GECZAR
_chemical_formula_moiety         'C21 H18 N2 O4'
_chemical_name_systematic        
3,3-Dimethyl-5-(3-nitrophenyl)-3,4-dihydrophenanthridine-1,6(2H,5H)-dione
_symmetry_cell_setting           monoclinic
_symmetry_space_group_name_H-M   'P 21/c'
_symmetry_Int_Tables_number      14
_space_group_name_Hall           '-P 2ybc'
loop_
_symmetry_equiv_pos_site_id
_symmetry_equiv_pos_as_xyz
1 x,y,z
2 -x,1/2+y,1/2-z
3 -x,-y,-z
4 x,1/2-y,1/2+z
_cell_length_a                   10.215(9)
_cell_length_b                   8.866(7)
_cell_length_c                   20.081(16)
_cell_angle_alpha                90
_cell_angle_beta                 99.716(9)
_cell_angle_gamma                90
_cell_volume                     1792.57
_exptl_crystal_colour            colorless
_exptl_crystal_description       block
_cell_formula_units_Z            4
loop_
_atom_site_label
_atom_site_type_symbol
_atom_site_fract_x
_atom_site_fract_y
_atom_site_fract_z
C1 C 0.6126(8) 0.3773(7) 0.1746(3)
C2 C 0.6737(7) 0.3207(7) 0.1200(3)
C3 C 0.7691(7) 0.2208(7) 0.2505(3)
C4 C 0.6235(8) 0.3745(9) 0.0549(4)
H1 H 0.5560 0.4461 0.0489
C5 C 0.6735(9) 0.3220(10) 0.0002(4)
H2 H 0.6419 0.3594 -0.0428
C6 C 0.7691(10) 0.2155(10) 0.0092(4)
H3 H 0.7998 0.1772 -0.0284
C7 C 0.8234(8) 0.1608(8) 0.0729(4)
H4 H 0.8914 0.0898 0.0776
C8 C 0.7743(7) 0.2143(7) 0.1303(3)
C9 C 0.8266(7) 0.1661(7) 0.1991(3)
C10 C 0.9392(8) 0.0640(8) 0.2151(4)
C11 C 1.0034(8) 0.0524(9) 0.2870(4)
H5 H 1.0596 0.1399 0.2987
H6 H 1.0596 -0.0364 0.2927
C12 C 0.9043(8) 0.0427(8) 0.3345(4)
C13 C 0.8160(8) 0.1806(7) 0.3233(3)
H7 H 0.7389 0.1637 0.3447
H8 H 0.8642 0.2659 0.3457
C14 C 0.8222(10) -0.1004(9) 0.3211(4)
H9 H 0.7740 -0.0985 0.2757
H10 H 0.7608 -0.1065 0.3523
H11 H 0.8799 -0.1865 0.3268
C15 C 0.9773(9) 0.0417(11) 0.4077(4)
H12 H 1.0412 -0.0387 0.4136
H13 H 0.9145 0.0268 0.4377
H14 H 1.0220 0.1363 0.4177
C16 C 0.6120(7) 0.3890(7) 0.2945(3)
C17 C 0.6692(8) 0.5123(8) 0.3275(4)
H15 H 0.7418 0.5578 0.3133
C18 C 0.6204(9) 0.5697(9) 0.3816(4)
H16 H 0.6601 0.6538 0.4043
C19 C 0.5135(8) 0.5041(8) 0.4024(4)
H17 H 0.4806 0.5414 0.4396
C20 C 0.4567(7) 0.3841(8) 0.3681(4)
C21 C 0.5024(7) 0.3227(7) 0.3134(3)
H18 H 0.4609 0.2401 0.2902
N1 N 0.6676(6) 0.3251(6) 0.2389(3)
N2 N 0.3480(9) 0.3071(9) 0.3915(5)
O1 O 0.5204(6) 0.4675(6) 0.1685(3)
O2 O 0.9888(7) -0.0042(7) 0.1729(3)
O3 O 0.3296(8) 0.3281(9) 0.4504(4)
O4 O 0.2771(8) 0.2206(10) 0.3541(4)
loop_
_geom_bond_atom_site_label_1
_geom_bond_atom_site_label_2
_geom_bond_site_symmetry_1
_geom_bond_site_symmetry_2
C1 C2 1_555 1_555
C2 C4 1_555 1_555
C3 C9 1_555 1_555
C4 H1 1_555 1_555
C5 C4 1_555 1_555
H2 C5 1_555 1_555
C6 C5 1_555 1_555
H3 C6 1_555 1_555
C7 C6 1_555 1_555
H4 C7 1_555 1_555
C8 C2 1_555 1_555
C9 C8 1_555 1_555
C10 C9 1_555 1_555
C11 C10 1_555 1_555
H5 C11 1_555 1_555
H6 C11 1_555 1_555
C12 C11 1_555 1_555
C13 C3 1_555 1_555
H7 C13 1_555 1_555
H8 C13 1_555 1_555
C14 C12 1_555 1_555
H9 C14 1_555 1_555
H10 C14 1_555 1_555
H11 C14 1_555 1_555
C15 C12 1_555 1_555
H12 C15 1_555 1_555
H13 C15 1_555 1_555
H14 C15 1_555 1_555
C16 C17 1_555 1_555
C17 H15 1_555 1_555
C18 C17 1_555 1_555
H16 C18 1_555 1_555
C19 C18 1_555 1_555
H17 C19 1_555 1_555
C20 C19 1_555 1_555
C21 C16 1_555 1_555
H18 C21 1_555 1_555
N1 C1 1_555 1_555
N2 C20 1_555 1_555
O1 C1 1_555 1_555
O2 C10 1_555 1_555
O3 N2 1_555 1_555
O4 N2 1_555 1_555
C3 N1 1_555 1_555
C7 C8 1_555 1_555
C12 C13 1_555 1_555
C16 N1 1_555 1_555
C20 C21 1_555 1_555

#END
