
#######################################################################
#
#                 Cambridge Crystallographic Data Centre
#                                CCDC 
#
#######################################################################
#
# If this CIF has been generated from an entry in the Cambridge 
# Structural Database, then it will include bibliographic, chemical, 
# crystal, experimental, refinement or atomic coordinate data resulting 
# from the CCDC's data processing and validation procedures.
#
#######################################################################

data_GEDFIH
_chemical_formula_moiety         'C22 H25 F3 N4 O4 S1'
_chemical_name_systematic        
(5E,3R)-3-(Hydroxymethyl)-N-(pyridin-3-yl)-9-((trifluoromethane)sulfonyl)-1,2,3,4,7,8,9,10-octahydro-2,9-benzodiazacyclododecine-2-carboxamide
_symmetry_cell_setting           tetragonal
_symmetry_space_group_name_H-M   'P 41'
_symmetry_Int_Tables_number      76
_space_group_name_Hall           'P 4w'
loop_
_symmetry_equiv_pos_site_id
_symmetry_equiv_pos_as_xyz
1 x,y,z
2 -y,x,1/4+z
3 -x,-y,1/2+z
4 y,-x,3/4+z
_cell_length_a                   11.6528(4)
_cell_length_b                   11.6528(4)
_cell_length_c                   17.6255(6)
_cell_angle_alpha                90
_cell_angle_beta                 90
_cell_angle_gamma                90
_cell_volume                     2393.33
_exptl_crystal_colour            colorless
_exptl_crystal_description       needle
_chemical_melting_point          '78.9-81.2 deg.C'
_cell_formula_units_Z            4
loop_
_atom_site_label
_atom_site_type_symbol
_atom_site_fract_x
_atom_site_fract_y
_atom_site_fract_z
N1 N -0.27753(13) 0.58062(13) 0.20548(9)
C1 C -0.20856(16) 0.53051(16) 0.14486(11)
H1 H -0.2579 0.4790 0.1143
H2 H -0.1473 0.4830 0.1679
C2 C -0.15352(15) 0.61819(16) 0.09229(11)
C3 C -0.17702(17) 0.73468(17) 0.09871(13)
H3 H -0.2307 0.7602 0.1356
C4 C -0.12307(19) 0.81498(19) 0.05181(14)
H4 H -0.1395 0.8944 0.0572
C5 C -0.04612(18) 0.77846(19) -0.00226(14)
H5 H -0.0086 0.8326 -0.0340
C6 C -0.02358(17) 0.66182(18) -0.01013(12)
H6 H 0.0287 0.6369 -0.0480
C7 C -0.07613(15) 0.58069(17) 0.03644(12)
C8 C -0.05001(17) 0.45536(17) 0.02317(12)
H7 H -0.1231 0.4126 0.0184
H8 H -0.0078 0.4472 -0.0253
N2 N 0.01970(13) 0.40351(14) 0.08563(10)
C9 C 0.13598(15) 0.45433(17) 0.09909(13)
H9 H 0.1486 0.5166 0.0618
H10 H 0.1946 0.3945 0.0897
C10 C 0.15396(18) 0.50256(18) 0.17855(13)
H11 H 0.1555 0.4380 0.2150
H12 H 0.2299 0.5405 0.1805
C11 C 0.06480(17) 0.58653(18) 0.20349(13)
H13 H 0.0610 0.6585 0.1783
C12 C -0.00946(17) 0.56585(18) 0.25898(13)
H14 H -0.0015 0.4955 0.2857
C13 C -0.10487(17) 0.64412(17) 0.28309(12)
H15 H -0.1038 0.7123 0.2496
H16 H -0.0882 0.6710 0.3352
C14 C -0.22801(16) 0.59376(17) 0.28226(11)
H17 H -0.2782 0.6486 0.3106
C15 C -0.23576(18) 0.4790(2) 0.32264(13)
H18 H -0.3171 0.4555 0.3272
H19 H -0.1946 0.4197 0.2930
O1 O -0.18602(14) 0.48879(17) 0.39603(10)
H20 H -0.2291 0.4573 0.4281
O2 O -0.44708(11) 0.65772(11) 0.24544(8)
C16 C -0.38804(15) 0.61416(16) 0.19478(11)
N3 N -0.43219(13) 0.59702(14) 0.12297(9)
H21 H -0.3911 0.5557 0.0912
C17 C -0.53754(15) 0.64034(16) 0.09654(11)
C18 C -0.59516(18) 0.73314(18) 0.12837(12)
H22 H -0.5670 0.7694 0.1729
C19 C -0.69442(18) 0.77125(19) 0.09354(13)
H23 H -0.7353 0.8345 0.1142
C20 C -0.73386(17) 0.71803(18) 0.02938(12)
H24 H -0.8013 0.7466 0.0057
N4 N -0.68103(14) 0.62744(15) -0.00119(10)
C21 C -0.58547(17) 0.59025(17) 0.03265(12)
H25 H -0.5479 0.5253 0.0116
S1 S -0.00517(4) 0.27371(5) 0.10998(3)
O3 O 0.06086(15) 0.24591(14) 0.17498(11)
F1 F 0.00578(19) 0.20541(16) -0.03175(11)
O4 O -0.12513(12) 0.25175(13) 0.10640(11)
C22 C 0.0555(3) 0.1829(2) 0.0347(2)
F2 F 0.03729(18) 0.07281(13) 0.05009(14)
F3 F 0.16586(16) 0.19923(17) 0.02763(15)
loop_
_geom_bond_atom_site_label_1
_geom_bond_atom_site_label_2
_geom_bond_site_symmetry_1
_geom_bond_site_symmetry_2
N1 C1 1_555 1_555
C1 H1 1_555 1_555
H2 C1 1_555 1_555
C2 C1 1_555 1_555
C3 C2 1_555 1_555
H3 C3 1_555 1_555
C4 C3 1_555 1_555
H4 C4 1_555 1_555
C5 C4 1_555 1_555
H5 C5 1_555 1_555
C6 C5 1_555 1_555
H6 C6 1_555 1_555
C7 C2 1_555 1_555
C8 C7 1_555 1_555
H7 C8 1_555 1_555
H8 C8 1_555 1_555
N2 C8 1_555 1_555
C9 N2 1_555 1_555
H9 C9 1_555 1_555
H10 C9 1_555 1_555
C10 C9 1_555 1_555
H11 C10 1_555 1_555
H12 C10 1_555 1_555
C11 C10 1_555 1_555
H13 C11 1_555 1_555
C12 C11 1_555 1_555
H14 C12 1_555 1_555
C13 C12 1_555 1_555
H15 C13 1_555 1_555
H16 C13 1_555 1_555
C14 N1 1_555 1_555
H17 C14 1_555 1_555
C15 C14 1_555 1_555
H18 C15 1_555 1_555
H19 C15 1_555 1_555
O1 C15 1_555 1_555
H20 O1 1_555 1_555
O2 C16 1_555 1_555
C16 N1 1_555 1_555
N3 C16 1_555 1_555
H21 N3 1_555 1_555
C17 N3 1_555 1_555
C18 C17 1_555 1_555
H22 C18 1_555 1_555
C19 C18 1_555 1_555
H23 C19 1_555 1_555
C20 C19 1_555 1_555
H24 C20 1_555 1_555
N4 C20 1_555 1_555
C21 C17 1_555 1_555
H25 C21 1_555 1_555
S1 N2 1_555 1_555
O3 S1 1_555 1_555
F1 C22 1_555 1_555
O4 S1 1_555 1_555
C22 S1 1_555 1_555
F2 C22 1_555 1_555
F3 C22 1_555 1_555
C6 C7 1_555 1_555
C13 C14 1_555 1_555
N4 C21 1_555 1_555

#END
