
#######################################################################
#
#                 Cambridge Crystallographic Data Centre
#                                CCDC 
#
#######################################################################
#
# If this CIF has been generated from an entry in the Cambridge 
# Structural Database, then it will include bibliographic, chemical, 
# crystal, experimental, refinement or atomic coordinate data resulting 
# from the CCDC's data processing and validation procedures.
#
#######################################################################

data_GEDLEH
_chemical_formula_moiety         'C6 H10 N3 O2 1+,C1 F3 O3 S1 1-'
_chemical_name_systematic        
'1-Ethyl-3-methyl-4-nitroimidazolium trifluoromethanesulfonate'
_symmetry_cell_setting           monoclinic
_symmetry_space_group_name_H-M   'P 21/c'
_symmetry_Int_Tables_number      14
_space_group_name_Hall           '-P 2ybc'
loop_
_symmetry_equiv_pos_site_id
_symmetry_equiv_pos_as_xyz
1 x,y,z
2 -x,1/2+y,1/2-z
3 -x,-y,-z
4 x,1/2-y,1/2+z
_cell_length_a                   9.872(2)
_cell_length_b                   12.839(3)
_cell_length_c                   9.5949(19)
_cell_angle_alpha                90
_cell_angle_beta                 96.630(4)
_cell_angle_gamma                90
_cell_volume                     1207.99
_exptl_crystal_colour            colorless
_exptl_crystal_description       needle
_chemical_melting_point          '114-117 deg.C'
_cell_formula_units_Z            4
_exptl_crystal_recrystallization_method 'methanol/diethyl ether'
loop_
_atom_site_label
_atom_site_type_symbol
_atom_site_fract_x
_atom_site_fract_y
_atom_site_fract_z
S1 S 0.29912(4) 0.52677(3) 0.22786(4)
F1 F 0.18418(11) 0.40660(9) 0.39881(11)
F2 F 0.38884(12) 0.36262(8) 0.36985(12)
F3 F 0.35345(11) 0.49412(8) 0.49908(10)
O3 O 0.43910(12) 0.55381(10) 0.21967(13)
O4 O 0.23887(13) 0.45892(10) 0.11863(12)
O5 O 0.21502(11) 0.61251(9) 0.26062(12)
C7 C 0.30718(17) 0.44375(13) 0.38259(17)
O1 O 0.96694(14) 0.21775(12) -0.02272(15)
O2 O 0.75099(14) 0.18906(10) -0.07722(13)
N1 N 0.83329(13) 0.46750(10) 0.18809(13)
N2 N 0.68957(13) 0.35142(10) 0.09765(13)
N3 N 0.84671(16) 0.23648(11) -0.01561(15)
C1 C 0.70302(16) 0.43937(13) 0.16972(16)
H1 H 0.6323(18) 0.4723(13) 0.2007(17)
C2 C 0.81855(16) 0.32336(12) 0.07015(16)
C3 C 0.90789(17) 0.39539(13) 0.12644(16)
H2 H 1.001(2) 0.4019(14) 0.1253(18)
C4 C 0.88766(19) 0.56162(15) 0.2646(2)
H3 H 0.8994(19) 0.5451(15) 0.361(2)
H4 H 0.973(2) 0.5703(15) 0.236(2)
C5 C 0.7964(2) 0.65392(16) 0.2346(3)
H5 H 0.707(3) 0.6413(19) 0.266(2)
H6 H 0.781(2) 0.6676(17) 0.139(3)
H7 H 0.838(2) 0.7130(18) 0.281(2)
C6 C 0.55788(19) 0.29746(16) 0.0632(2)
H8 H 0.490(2) 0.3368(17) 0.103(2)
H9 H 0.5607(19) 0.2293(17) 0.103(2)
H10 H 0.537(2) 0.2938(15) -0.036(2)
loop_
_geom_bond_atom_site_label_1
_geom_bond_atom_site_label_2
_geom_bond_site_symmetry_1
_geom_bond_site_symmetry_2
S1 O3 1_555 1_555
F1 C7 1_555 1_555
F2 C7 1_555 1_555
F3 C7 1_555 1_555
O1 N3 1_555 1_555
O2 N3 1_555 1_555
O4 S1 1_555 1_555
O5 S1 1_555 1_555
N1 C1 1_555 1_555
N2 C1 1_555 1_555
N3 C2 1_555 1_555
C1 H1 1_555 1_555
C2 N2 1_555 1_555
C3 N1 1_555 1_555
H2 C3 1_555 1_555
C4 N1 1_555 1_555
H3 C4 1_555 1_555
H4 C4 1_555 1_555
C5 C4 1_555 1_555
H5 C5 1_555 1_555
H6 C5 1_555 1_555
H7 C5 1_555 1_555
C6 N2 1_555 1_555
H8 C6 1_555 1_555
H9 C6 1_555 1_555
H10 C6 1_555 1_555
C7 S1 1_555 1_555
C2 C3 1_555 1_555

#END
