
#######################################################################
#
#                 Cambridge Crystallographic Data Centre
#                                CCDC 
#
#######################################################################
#
# If this CIF has been generated from an entry in the Cambridge 
# Structural Database, then it will include bibliographic, chemical, 
# crystal, experimental, refinement or atomic coordinate data resulting 
# from the CCDC's data processing and validation procedures.
#
#######################################################################

data_GEDLUX
_chemical_formula_moiety         'C7 H7 N4 1+,C1 H3 O4 S1 1-'
_chemical_name_systematic        
'1,3-Dimethyl-4,5-dicyanoimidazolium methyl sulfate'
_symmetry_cell_setting           monoclinic
_symmetry_space_group_name_H-M   'P 21'
_symmetry_Int_Tables_number      4
_space_group_name_Hall           'P 2yb'
loop_
_symmetry_equiv_pos_site_id
_symmetry_equiv_pos_as_xyz
1 x,y,z
2 -x,1/2+y,-z
_cell_length_a                   8.4703(14)
_cell_length_b                   7.9000(13)
_cell_length_c                   8.9145(15)
_cell_angle_alpha                90
_cell_angle_beta                 111.568(3)
_cell_angle_gamma                90
_cell_volume                     554.75
_exptl_crystal_colour            colorless
_exptl_crystal_description       platelet
_chemical_melting_point          '134-139 deg.C'
_cell_formula_units_Z            2
_exptl_crystal_recrystallization_method 'methanol/diethyl ether'
loop_
_atom_site_label
_atom_site_type_symbol
_atom_site_fract_x
_atom_site_fract_y
_atom_site_fract_z
S1 S 0.26141(8) 1.37136(11) 0.35585(9)
O1 O 0.3120(6) 1.5210(6) 0.4298(6)
O2 O 0.2197(7) 1.2348(6) 0.4506(6)
O3 O 0.4300(6) 1.2779(6) 0.3394(6)
O7 O 0.1395(3) 1.3553(5) 0.1968(3)
C8 C 0.5035(4) 1.3554(8) 0.2468(4)
N1 N 0.1415(3) 0.8615(4) 0.3195(3)
N2 N 0.3299(3) 0.8523(4) 0.2099(3)
N3 N 0.2039(5) 0.6009(5) -0.1347(5)
N4 N -0.2140(5) 0.6174(5) 0.1078(4)
C1 C 0.2965(4) 0.9100(4) 0.3335(4)
H1 H 0.376(4) 0.982(4) 0.418(4)
C2 C 0.1918(4) 0.7600(4) 0.1118(4)
C3 C 0.0746(4) 0.7653(4) 0.1817(4)
C4 C 0.0653(6) 0.8886(8) 0.4412(5)
H2 H -0.032(5) 0.909(5) 0.395(5)
H3 H 0.114(6) 0.805(6) 0.520(6)
H4 H 0.138(8) 0.986(10) 0.495(8)
C5 C 0.4892(4) 0.8792(8) 0.1823(5)
H5 H 0.564(5) 0.938(5) 0.265(5)
H6 H 0.534(7) 0.767(7) 0.175(6)
H7 H 0.462(5) 0.936(5) 0.080(6)
C6 C 0.1938(4) 0.6727(5) -0.0277(4)
C7 C -0.0871(5) 0.6837(5) 0.1371(4)
O4? O 0.2200(6) 1.5283(7) 0.4345(6)
O5? O 0.3303(7) 1.2451(6) 0.4715(6)
O6? O 0.4213(6) 1.4594(6) 0.3223(5)
loop_
_geom_bond_atom_site_label_1
_geom_bond_atom_site_label_2
_geom_bond_site_symmetry_1
_geom_bond_site_symmetry_2
S1 O1 1_555 1_555
O2 S1 1_555 1_555
O3 S1 1_555 1_555
O7 S1 1_555 1_555
N1 C1 1_555 1_555
N2 C1 1_555 1_555
N3 C6 1_555 1_555
N4 C7 1_555 1_555
C1 H1 1_555 1_555
C2 N2 1_555 1_555
C3 N1 1_555 1_555
C4 N1 1_555 1_555
H2 C4 1_555 1_555
H3 C4 1_555 1_555
H4 C4 1_555 1_555
C5 N2 1_555 1_555
H5 C5 1_555 1_555
H6 C5 1_555 1_555
H7 C5 1_555 1_555
C6 C2 1_555 1_555
C7 C3 1_555 1_555
C8 O3 1_555 1_555
C2 C3 1_555 1_555

#END
