
#######################################################################
#
#                 Cambridge Crystallographic Data Centre
#                                CCDC 
#
#######################################################################
#
# If this CIF has been generated from an entry in the Cambridge 
# Structural Database, then it will include bibliographic, chemical, 
# crystal, experimental, refinement or atomic coordinate data resulting 
# from the CCDC's data processing and validation procedures.
#
#######################################################################

data_GEDZEV
_chemical_formula_moiety         'C10 H11 F1 O4'
_chemical_name_systematic        
'anti-7-Fluoro-cis-5-norbornene-exo-2,3-dicarboxylic acid monomethyl ester'
_symmetry_cell_setting           monoclinic
_symmetry_space_group_name_H-M   'P 21/n'
_symmetry_Int_Tables_number      14
_space_group_name_Hall           '-P 2yn'
loop_
_symmetry_equiv_pos_site_id
_symmetry_equiv_pos_as_xyz
1 x,y,z
2 1/2-x,1/2+y,1/2-z
3 -x,-y,-z
4 1/2+x,1/2-y,1/2+z
_cell_length_a                   9.666(3)
_cell_length_b                   9.265(3)
_cell_length_c                   11.881(3)
_cell_angle_alpha                90
_cell_angle_beta                 111.38(2)
_cell_angle_gamma                90
_cell_volume                     990.787
_exptl_crystal_colour            colorless
_exptl_crystal_description       block
_chemical_melting_point          '407-408 K'
_cell_formula_units_Z            4
loop_
_atom_site_label
_atom_site_type_symbol
_atom_site_fract_x
_atom_site_fract_y
_atom_site_fract_z
F1 F 0.90478(16) 0.24083(16) 0.02521(12)
O1 O 1.0146(2) 0.3038(2) 0.51707(15)
O2 O 1.0294(2) 0.45549(18) 0.37497(16)
O3 O 0.7214(2) 0.23994(19) 0.29481(17)
O4 O 0.76695(18) 0.05242(17) 0.42100(16)
C1 C 1.0830(2) 0.2308(2) 0.2327(2)
C2 C 1.0601(2) 0.1997(2) 0.35346(19)
C3 C 0.9304(2) 0.0850(2) 0.31612(18)
C4 C 0.8984(3) 0.0677(2) 0.1776(2)
C5 C 1.0351(3) -0.0037(3) 0.1688(2)
C6 C 1.1425(3) 0.0924(3) 0.1997(2)
C7 C 0.9216(2) 0.2235(2) 0.14722(18)
C8 C 1.0313(2) 0.3335(2) 0.41428(19)
C9 C 0.7947(2) 0.1362(2) 0.34018(19)
C10 C 0.6459(4) 0.1014(4) 0.4550(4)
H1 H 0.995(5) 0.379(5) 0.546(4)
H2 H 1.133(2) 0.318(2) 0.2326(19)
H3 H 1.146(3) 0.157(3) 0.410(2)
H4 H 0.965(2) -0.004(3) 0.3619(19)
H5 H 0.805(3) 0.022(2) 0.1362(19)
H6 H 1.042(3) -0.103(3) 0.149(2)
H7 H 1.239(3) 0.082(3) 0.207(2)
H8 H 0.856(3) 0.288(3) 0.158(2)
H9 H 0.666(4) 0.201(4) 0.488(3)
H10 H 0.557(4) 0.099(4) 0.384(4)
H11 H 0.642(4) 0.038(4) 0.520(3)
loop_
_geom_bond_atom_site_label_1
_geom_bond_atom_site_label_2
_geom_bond_site_symmetry_1
_geom_bond_site_symmetry_2
F1 C7 1_555 1_555
O1 C8 1_555 1_555
O2 C8 1_555 1_555
O3 C9 1_555 1_555
O4 C9 1_555 1_555
C1 C2 1_555 1_555
C2 C3 1_555 1_555
C3 C4 1_555 1_555
C4 C5 1_555 1_555
C5 C6 1_555 1_555
C6 C1 1_555 1_555
C7 C1 1_555 1_555
C8 C2 1_555 1_555
C9 C3 1_555 1_555
C10 O4 1_555 1_555
H1 O1 1_555 1_555
H2 C1 1_555 1_555
H3 C2 1_555 1_555
H4 C3 1_555 1_555
H5 C4 1_555 1_555
H6 C5 1_555 1_555
H7 C6 1_555 1_555
H8 C7 1_555 1_555
H9 C10 1_555 1_555
H10 C10 1_555 1_555
H11 C10 1_555 1_555
C4 C7 1_555 1_555

#END
