
#######################################################################
#
#                 Cambridge Crystallographic Data Centre
#                                CCDC 
#
#######################################################################
#
# If this CIF has been generated from an entry in the Cambridge 
# Structural Database, then it will include bibliographic, chemical, 
# crystal, experimental, refinement or atomic coordinate data resulting 
# from the CCDC's data processing and validation procedures.
#
#######################################################################

data_GEFBUQ
_chemical_formula_moiety         'C8 H10 F3 N1 O2'
_chemical_name_systematic        
3-(4,4-Dimethyl-1,3-oxazolidin-2-ylidene)-1,1,1-trifluoroacetone
_symmetry_cell_setting           triclinic
_symmetry_space_group_name_H-M   'P -1'
_symmetry_Int_Tables_number      2
_space_group_name_Hall           '-P 1'
loop_
_symmetry_equiv_pos_site_id
_symmetry_equiv_pos_as_xyz
1 x,y,z
2 -x,-y,-z
_cell_length_a                   5.7961(5)
_cell_length_b                   8.9633(8)
_cell_length_c                   9.2557(8)
_cell_angle_alpha                100.021(6)
_cell_angle_beta                 102.099(6)
_cell_angle_gamma                91.884(6)
_cell_volume                     461.797
_cell_formula_units_Z            2
loop_
_atom_site_label
_atom_site_type_symbol
_atom_site_fract_x
_atom_site_fract_y
_atom_site_fract_z
F1 F 1.46866(18) 0.34362(13) 0.33531(13)
F2 F 1.2092(2) 0.44496(12) 0.18695(12)
F3 F 1.1823(2) 0.45222(13) 0.41629(13)
O1 O 1.1256(2) 0.13112(15) 0.12824(13)
O2 O 0.6676(2) 0.00427(15) 0.39255(13)
N1 N 0.7728(3) -0.06745(17) 0.17723(16)
H1 H 0.8401 -0.0601 0.1016
C1 C 1.2363(3) 0.3632(2) 0.2977(2)
C2 C 1.0906(3) 0.2102(2) 0.24605(19)
C3 C 0.9396(3) 0.1755(2) 0.33607(19)
H2 H 0.9321 0.2454 0.4245
C4 C 0.7987(3) 0.0387(2) 0.29770(19)
C5 C 0.6187(3) -0.2007(2) 0.18175(19)
C6 C 0.7694(4) -0.3346(2) 0.2019(2)
H3 H 0.8387 -0.3629 0.1140
H4 H 0.6703 -0.4211 0.2125
H5 H 0.8961 -0.3061 0.2923
C7 C 0.5253(4) -0.1373(2) 0.3225(2)
H6 H 0.3561 -0.1180 0.2942
H7 H 0.5428 -0.2101 0.3925
C8 C 0.4199(3) -0.2364(2) 0.0419(2)
H8 H 0.3265 -0.1478 0.0342
H9 H 0.3179 -0.3232 0.0486
H10 H 0.4873 -0.2613 -0.0473
loop_
_geom_bond_atom_site_label_1
_geom_bond_atom_site_label_2
_geom_bond_site_symmetry_1
_geom_bond_site_symmetry_2
F1 C1 1_555 1_555
F2 C1 1_555 1_555
F3 C1 1_555 1_555
O1 C2 1_555 1_555
O2 C4 1_555 1_555
N1 H1 1_555 1_555
C1 C2 1_555 1_555
C2 C3 1_555 1_555
C3 H2 1_555 1_555
C4 N1 1_555 1_555
C5 N1 1_555 1_555
C6 C5 1_555 1_555
H3 C6 1_555 1_555
H4 C6 1_555 1_555
H5 C6 1_555 1_555
C7 O2 1_555 1_555
H6 C7 1_555 1_555
H7 C7 1_555 1_555
C8 C5 1_555 1_555
H8 C8 1_555 1_555
H9 C8 1_555 1_555
H10 C8 1_555 1_555
C3 C4 1_555 1_555
C5 C7 1_555 1_555

#END
