
#######################################################################
#
#                 Cambridge Crystallographic Data Centre
#                                CCDC 
#
#######################################################################
#
# If this CIF has been generated from an entry in the Cambridge 
# Structural Database, then it will include bibliographic, chemical, 
# crystal, experimental, refinement or atomic coordinate data resulting 
# from the CCDC's data processing and validation procedures.
#
#######################################################################

data_GEFCEB
_chemical_formula_moiety         'C9 H7 F6 N1 O3'
_chemical_name_systematic        
1,1,1,5,5,5-Hexafluoro-3-(3-methyl-1,3-oxazolidin-2-ylidene)pentane-2,4-dione
_symmetry_cell_setting           monoclinic
_symmetry_space_group_name_H-M   'P 21'
_symmetry_Int_Tables_number      4
_space_group_name_Hall           'P 2yb'
loop_
_symmetry_equiv_pos_site_id
_symmetry_equiv_pos_as_xyz
1 x,y,z
2 -x,1/2+y,-z
_cell_length_a                   7.9468(14)
_cell_length_b                   9.3410(17)
_cell_length_c                   8.2382(15)
_cell_angle_alpha                90
_cell_angle_beta                 115.729(2)
_cell_angle_gamma                90
_cell_volume                     550.902
_cell_formula_units_Z            2
loop_
_atom_site_label
_atom_site_type_symbol
_atom_site_fract_x
_atom_site_fract_y
_atom_site_fract_z
F1 F 0.42516(14) 0.39465(12) -0.32024(13)
F2 F 0.28772(14) 0.52703(14) -0.20034(15)
F3 F 0.46375(14) 0.35194(11) -0.05035(13)
F4 F 0.91510(14) 0.81769(10) -0.04416(14)
F5 F 0.98615(16) 0.60940(11) -0.11392(14)
F6 F 1.18381(14) 0.72542(13) 0.11418(16)
O1 O 0.61711(17) 0.63551(14) -0.22562(15)
O2 O 1.03947(17) 0.63121(14) 0.31276(15)
O3 O 0.53010(15) 0.55474(13) 0.20817(15)
N1 N 0.78208(18) 0.42522(16) 0.35366(17)
C1 C 0.6844(2) 0.4149(2) 0.4705(2)
H1 H 0.7481 0.4718 0.5821
H2 H 0.6730 0.3143 0.5023
C2 C 0.6923(2) 0.50911(17) 0.2169(2)
C3 C 0.7487(2) 0.56024(18) 0.0827(2)
C4 C 0.6138(2) 0.56264(18) -0.1033(2)
C5 C 0.4467(2) 0.45805(19) -0.1665(2)
C6 C 0.9301(2) 0.62472(18) 0.1518(2)
C7 C 1.0026(2) 0.69345(19) 0.0235(2)
C8 C 0.4952(2) 0.47837(19) 0.3474(2)
H3 H 0.4006 0.4022 0.2931
H4 H 0.4517 0.5452 0.4145
C9 C 0.9546(2) 0.3478(2) 0.3934(2)
H5 H 0.9849 0.3549 0.2903
H6 H 0.9388 0.2470 0.4164
H7 H 1.0563 0.3896 0.5000
loop_
_geom_bond_atom_site_label_1
_geom_bond_atom_site_label_2
_geom_bond_site_symmetry_1
_geom_bond_site_symmetry_2
F1 C5 1_555 1_555
F2 C5 1_555 1_555
F3 C5 1_555 1_555
F4 C7 1_555 1_555
F5 C7 1_555 1_555
F6 C7 1_555 1_555
O1 C4 1_555 1_555
O2 C6 1_555 1_555
O3 C2 1_555 1_555
N1 C1 1_555 1_555
C1 H1 1_555 1_555
H2 C1 1_555 1_555
C2 N1 1_555 1_555
C3 C2 1_555 1_555
C4 C3 1_555 1_555
C5 C4 1_555 1_555
C6 C3 1_555 1_555
C7 C6 1_555 1_555
C8 O3 1_555 1_555
H3 C8 1_555 1_555
H4 C8 1_555 1_555
C9 N1 1_555 1_555
H5 C9 1_555 1_555
H6 C9 1_555 1_555
H7 C9 1_555 1_555
C1 C8 1_555 1_555

#END
