
#######################################################################
#
#                 Cambridge Crystallographic Data Centre
#                                CCDC 
#
#######################################################################
#
# If this CIF has been generated from an entry in the Cambridge 
# Structural Database, then it will include bibliographic, chemical, 
# crystal, experimental, refinement or atomic coordinate data resulting 
# from the CCDC's data processing and validation procedures.
#
#######################################################################

data_GEFCAX
_chemical_formula_moiety         'C9 H7 F6 N1 O3'
_chemical_name_systematic        
1,1,1,5,5,5-Hexafluoro-3-(1,3-oxazinan-2-ylidene)pentane-2,4-dione
_symmetry_cell_setting           monoclinic
_symmetry_space_group_name_H-M   'C 2/c'
_symmetry_Int_Tables_number      15
_space_group_name_Hall           '-C 2yn'
loop_
_symmetry_equiv_pos_site_id
_symmetry_equiv_pos_as_xyz
1 x,y,z
2 -x,y,1/2-z
3 1/2+x,1/2+y,z
4 1/2-x,1/2+y,1/2-z
5 -x,-y,-z
6 x,-y,1/2+z
7 1/2-x,1/2-y,-z
8 1/2+x,1/2-y,1/2+z
_cell_length_a                   24.6408(13)
_cell_length_b                   6.3422(3)
_cell_length_c                   14.3582(8)
_cell_angle_alpha                90
_cell_angle_beta                 108.9360(10)
_cell_angle_gamma                90
_cell_volume                     2122.42
_exptl_crystal_colour            colorless
_cell_formula_units_Z            8
loop_
_atom_site_label
_atom_site_type_symbol
_atom_site_fract_x
_atom_site_fract_y
_atom_site_fract_z
F1 F 0.40608(4) 0.54251(12) 0.73324(5)
F2 F 0.21941(3) 0.23641(12) 0.82588(6)
F3 F 0.28508(3) 0.28790(11) 0.76008(5)
F4 F 0.40254(3) 0.79881(10) 0.82841(5)
F5 F 0.47739(3) 0.59959(12) 0.86512(6)
F6 F 0.29990(3) 0.07379(10) 0.88300(5)
O1 O 0.43242(3) 0.72626(12) 1.02140(5)
O2 O 0.26460(3) 0.51482(13) 0.95779(6)
O3 O 0.40197(3) 0.25643(12) 0.86816(6)
N1 N 0.34670(4) 0.78993(14) 1.04814(6)
H1 H 0.3101 0.7576 1.0325
C1 C 0.42012(5) 0.60025(17) 0.82821(8)
C2 C 0.39268(4) 0.43979(16) 0.88176(7)
C3 C 0.35527(4) 0.51895(16) 0.93509(7)
C4 C 0.37690(4) 0.68724(15) 1.00326(7)
C5 C 0.45533(4) 0.92118(17) 1.07338(8)
H2 H 0.4430 1.0427 1.0281
H3 H 0.4978 0.9163 1.0969
C6 C 0.43379(4) 0.94772(17) 1.15971(7)
H4 H 0.4491 1.0799 1.1952
H5 H 0.4471 0.8285 1.2060
C7 C 0.27578(5) 0.25751(17) 0.84631(8)
C8 C 0.29889(4) 0.44202(16) 0.91949(7)
C9 C 0.36870(4) 0.95482(17) 1.12255(8)
H6 H 0.3538 0.9325 1.1781
H7 H 0.3556 1.0948 1.0934
loop_
_geom_bond_atom_site_label_1
_geom_bond_atom_site_label_2
_geom_bond_site_symmetry_1
_geom_bond_site_symmetry_2
F1 C1 1_555 1_555
F2 C7 1_555 1_555
F3 C7 1_555 1_555
F4 C1 1_555 1_555
F5 C1 1_555 1_555
F6 C7 1_555 1_555
O1 C4 1_555 1_555
O2 C8 1_555 1_555
O3 C2 1_555 1_555
N1 H1 1_555 1_555
C1 C2 1_555 1_555
C2 C3 1_555 1_555
C3 C4 1_555 1_555
C4 N1 1_555 1_555
C5 O1 1_555 1_555
H2 C5 1_555 1_555
H3 C5 1_555 1_555
C6 C5 1_555 1_555
H4 C6 1_555 1_555
H5 C6 1_555 1_555
C7 C8 1_555 1_555
C8 C3 1_555 1_555
C9 N1 1_555 1_555
H6 C9 1_555 1_555
H7 C9 1_555 1_555
C6 C9 1_555 1_555

#END
