
#######################################################################
#
#                 Cambridge Crystallographic Data Centre
#                                CCDC 
#
#######################################################################
#
# If this CIF has been generated from an entry in the Cambridge 
# Structural Database, then it will include bibliographic, chemical, 
# crystal, experimental, refinement or atomic coordinate data resulting 
# from the CCDC's data processing and validation procedures.
#
#######################################################################

data_GEFCEA
_chemical_formula_moiety         'C24 H38 N2 O3 S1 Si2'
_chemical_name_systematic        
(R)-N-((1E)-2-Methoxy-1-methyl-4-(triethylsilyl)-2-((trimethylsilyl)ethynyl)but-3-yn-1-ylidene)-4-methylbenzenesulfonohydrazide
_symmetry_cell_setting           triclinic
_symmetry_space_group_name_H-M   'P 1'
_symmetry_Int_Tables_number      1
_space_group_name_Hall           'P 1'
loop_
_symmetry_equiv_pos_site_id
_symmetry_equiv_pos_as_xyz
1 x,y,z
_cell_length_a                   11.2537(2)
_cell_length_b                   13.9426(2)
_cell_length_c                   28.9064(5)
_cell_angle_alpha                83.0511(6)
_cell_angle_beta                 88.3274(5)
_cell_angle_gamma                82.8675(9)
_cell_volume                     4466.96
_exptl_crystal_colour            colorless
_exptl_crystal_description       plate
_cell_formula_units_Z            6
loop_
_atom_site_label
_atom_site_type_symbol
_atom_site_fract_x
_atom_site_fract_y
_atom_site_fract_z
S1 S -1.14610(10) -0.41216(8) 1.15981(4)
Si1 Si -1.3866(3) 0.15993(14) 1.06487(10)
Si2 Si -0.79671(12) -0.15147(12) 1.05545(6)
O1 O -1.0733(3) -0.3597(2) 1.18475(12)
O2 O -1.2207(3) -0.4789(2) 1.18523(12)
O3 O -1.2150(3) -0.1534(2) 0.99042(11)
N1 N -1.1892(3) -0.2636(3) 1.09918(13)
N2 N -1.2440(3) -0.3330(3) 1.12910(14)
C1 C -1.1959(4) -0.1329(3) 1.03636(16)
C2 C -1.2551(4) -0.2122(3) 1.06875(16)
C3 C -1.3849(4) -0.2189(4) 1.0593(2)
C4 C -1.0671(4) -0.1384(3) 1.04557(17)
C5 C -0.9599(4) -0.1420(4) 1.04946(17)
C6 C -0.7500(6) -0.0265(5) 1.0468(2)
C7 C -0.8032(8) 0.0420(6) 1.0801(3)
C8 C -0.7556(5) -0.2152(4) 1.1143(2)
C9 C -0.8399(6) -0.1848(6) 1.1540(2)
C10 C -0.7244(5) -0.2234(6) 1.0096(2)
C11 C -0.7701(7) -0.1950(7) 0.9599(3)
C12 C -1.1693(5) -0.0890(4) 0.95468(18)
C13 C -1.2566(4) -0.0366(4) 1.04486(18)
C14 C -1.3099(6) 0.0397(4) 1.0526(2)
C15 C -1.2391(17) 0.1974(14) 1.1077(7)
C17 C -1.5011(17) 0.1998(10) 1.0141(6)
C18 C -1.4840(7) 0.1480(5) 1.1146(3)
C19 C -1.0559(4) -0.4744(3) 1.11938(15)
C20 C -0.9418(4) -0.4480(4) 1.10844(19)
C21 C -0.8711(4) -0.4993(5) 1.0777(2)
C22 C -0.9093(4) -0.5734(4) 1.05735(18)
C23 C -1.0240(5) -0.5972(4) 1.0685(2)
C24 C -1.0970(4) -0.5484(3) 1.09950(18)
C25 C -0.8300(6) -0.6299(5) 1.0252(2)
H2 H -0.6634 -0.0324 1.0489
H3 H -0.7708 0.0024 1.0154
H4 H -0.6392 -0.2183 1.0093
H5 H -0.7343 -0.2913 1.0186
H6 H -1.1721 0.2112 1.0877
H7 H -1.2147 0.1435 1.1307
H8 H -1.2674 0.2536 1.1229
H25 H -1.4089 -0.1689 1.0343
H26 H -1.4301 -0.2051 1.0871
H27 H -1.3918 -0.2805 1.0517
H28 H -0.7714 0.1042 1.0723
H29 H -0.7782 0.0166 1.1113
H30 H -0.8866 0.0509 1.0780
H31 H -0.7531 -0.2839 1.1146
H32 H -0.6746 -0.2020 1.1224
H33 H -0.8111 -0.2209 1.1839
H34 H -0.9180 -0.1983 1.1491
H35 H -0.8395 -0.1165 1.1569
H36 H -0.7231 -0.2364 0.9399
H37 H -0.7561 -0.1285 0.9503
H38 H -0.8505 -0.2025 0.9598
H39 H -1.1825 -0.1061 0.9252
H40 H -1.0811 -0.0908 0.9587
H41 H -1.2030 -0.0226 0.9575
H42 H -1.5598 0.2521 1.0183
H43 H -1.5666 0.1404 1.0186
H44 H -1.4443 0.2119 0.9870
H45 H -1.5223 0.2128 1.1197
H46 H -1.4390 0.1213 1.1418
H47 H -1.5432 0.1086 1.1091
H48 H -0.9119 -0.3939 1.1222
H49 H -0.7879 -0.4841 1.0717
H50 H -1.0510 -0.6477 1.0551
H51 H -1.1734 -0.5657 1.1069
H52 H -0.8682 -0.6762 1.0139
H53 H -0.7562 -0.6588 1.0413
H54 H -0.8040 -0.5834 0.9993
H232 H -1.3271 -0.3379 1.1333
S2 S -1.18728(10) -0.20229(8) 0.79978(4)
Si3 Si -1.49646(16) -0.49150(15) 0.91740(8)
Si4 Si -0.94628(17) -0.77062(10) 0.88922(6)
O4 O -1.2481(3) -0.2672(2) 0.77672(12)
O5 O -1.1240(3) -0.1314(2) 0.77250(11)
O6 O -1.0649(3) -0.4645(2) 0.97138(12)
N3 N -1.1281(3) -0.3423(2) 0.86315(13)
N4 N -1.0839(3) -0.2686(2) 0.83229(13)
C26 C -1.1014(4) -0.4732(3) 0.92530(16)
C27 C -1.0523(4) -0.3924(3) 0.89129(17)
C28 C -0.9210(4) -0.3825(4) 0.8930(2)
C29 C -1.0419(4) -0.5701(4) 0.91396(18)
C30 C -0.9986(5) -0.6481(3) 0.90486(19)
C31 C -1.0614(10) -0.7982(5) 0.8497(3)
C32 C -1.1872(11) -0.7844(6) 0.8668(5)
C33 C -0.9238(7) -0.8552(5) 0.9429(3)
C34 C -1.0267(8) -0.8486(6) 0.9798(3)
C35 C -0.8008(10) -0.7664(5) 0.8553(4)
C37 C -0.7712(14) -0.6866(11) 0.8283(6)
C38 C -1.1192(6) -0.3773(4) 0.9890(2)
C39 C -1.2312(5) -0.4724(3) 0.92190(18)
C40 C -1.3374(5) -0.4771(4) 0.9205(2)
C41 C -1.5019(11) -0.6206(8) 0.9082(6)
C42 C -1.5633(6) -0.4050(8) 0.8704(4)
C43 C -1.5681(9) -0.4665(11) 0.9750(4)
C44 C -1.2919(4) -0.1412(3) 0.83674(15)
C45 C -1.3611(4) -0.1941(4) 0.86871(19)
C46 C -1.4406(5) -0.1451(4) 0.8973(2)
C47 C -1.4518(4) -0.0434(4) 0.8952(2)
C48 C -1.3822(5) 0.0057(4) 0.8630(2)
C49 C -1.3011(4) -0.0396(4) 0.83441(19)
C50 C -1.5388(6) 0.0087(6) 0.9276(3)
H1 H -1.0097 -0.2593 0.8307
H12 H -0.7693 -0.8329 0.8514
H17 H -0.6946 -0.7017 0.8137
H18 H -0.7674 -0.6351 0.8473
H19 H -0.8307 -0.6663 0.8048
H55 H -0.8814 -0.4283 0.9173
H56 H -0.9078 -0.3176 0.8987
H57 H -0.8815 -0.3951 0.8635
H58 H -1.2420 -0.8007 0.8452
H59 H -1.2114 -0.7183 0.8736
H60 H -1.1972 -0.8268 0.8966
H61 H -0.9065 -0.9206 0.9352
H62 H -0.8488 -0.8417 0.9582
H63 H -1.0088 -0.8956 1.0077
H64 H -1.0999 -0.8639 0.9671
H65 H -1.0422 -0.7850 0.9902
H66 H -1.0896 -0.3746 1.0205
H67 H -1.2030 -0.3766 0.9906
H68 H -1.0975 -0.3208 0.9696
H69 H -1.5744 -0.6396 0.9065
H70 H -1.4551 -0.6664 0.9344
H71 H -1.4506 -0.6375 0.8803
H72 H -1.6428 -0.4093 0.8671
H73 H -1.5186 -0.4165 0.8409
H74 H -1.5501 -0.3382 0.8754
H75 H -1.6519 -0.4667 0.9761
H76 H -1.5582 -0.3942 0.9807
H77 H -1.5309 -0.5036 1.0016
H78 H -1.3513 -0.2640 0.8706
H79 H -1.4886 -0.1789 0.9195
H80 H -1.3890 0.0768 0.8607
H81 H -1.2481 -0.0034 0.8137
H82 H -1.5325 0.0775 0.9238
H83 H -1.5148 -0.0148 0.9609
H84 H -1.6160 -0.0046 0.9238
H233 H -1.0593 -0.7549 0.8209
H234 H -1.0464 -0.8636 0.8435
S3 S -0.84999(10) -0.07612(8) 0.83130(4)
Si5 Si -1.08351(15) 0.48462(10) 0.74239(6)
Si6 Si -0.50555(13) 0.19110(12) 0.70674(6)
O7 O -0.9288(3) -0.1358(2) 0.85828(11)
O8 O -0.7861(3) -0.0143(2) 0.85398(12)
O9 O -0.9385(3) 0.1954(2) 0.65466(11)
N5 N -0.8878(3) 0.0613(3) 0.76323(14)
N6 N -0.9400(3) -0.0083(2) 0.79353(13)
C51 C -0.9070(4) 0.1961(3) 0.70225(17)
C52 C -0.9565(4) 0.1127(3) 0.73380(16)
C53 C -1.0885(4) 0.1047(4) 0.7284(2)
C54 C -0.9661(4) 0.2886(3) 0.71501(16)
C55 C -1.0159(5) 0.3646(4) 0.72665(19)
C56 C -0.9566(7) 0.5436(7) 0.7625(5)
C57 C -1.1548(11) 0.5538(6) 0.6896(3)
C58 C -1.1967(5) 0.4672(4) 0.7881(2)
C59 C -0.7738(4) 0.1914(4) 0.70696(18)
C60 C -0.6689(5) 0.1930(4) 0.70841(18)
C61 C -0.4682(6) 0.2523(5) 0.6471(3)
C62 C -0.3402(7) 0.2655(7) 0.6395(3)
C63 C -0.4376(5) 0.0615(5) 0.7152(2)
C64 C -0.4709(7) 0.0001(5) 0.6788(3)
C65 C -0.4619(6) 0.2579(6) 0.7546(3)
C66 C -0.5087(9) 0.3635(6) 0.7502(4)
C67 C -0.8813(6) 0.1121(4) 0.6346(2)
C68 C -0.7472(4) -0.1504(3) 0.80009(16)
C69 C -0.6322(4) -0.1287(3) 0.79382(17)
C70 C -0.5506(4) -0.1886(4) 0.76934(19)
C71 C -0.5839(4) -0.2721(4) 0.75324(18)
C72 C -0.7021(4) -0.2914(3) 0.76047(18)
C73 C -0.7820(4) -0.2319(3) 0.78352(17)
C74 C -0.4956(5) -0.3366(5) 0.7259(3)
H85 H -1.1194 0.1522 0.7041
H86 H -1.1290 0.1166 0.7575
H87 H -1.0966 0.0408 0.7219
H88 H -0.9843 0.6052 0.7730
H89 H -0.8949 0.5490 0.7402
H90 H -0.9197 0.5018 0.7910
H91 H -1.1929 0.6172 0.6968
H92 H -1.2178 0.5191 0.6798
H93 H -1.0989 0.5630 0.6648
H94 H -1.2312 0.5300 0.7969
H95 H -1.1597 0.4300 0.8160
H96 H -1.2572 0.4342 0.7779
H97 H -0.4883 0.2146 0.6238
H98 H -0.5111 0.3166 0.6423
H99 H -0.3254 0.2952 0.6094
H100 H -0.2921 0.2012 0.6443
H101 H -0.3148 0.3031 0.6627
H102 H -0.3484 0.0578 0.7158
H103 H -0.4596 0.0307 0.7463
H104 H -0.4333 -0.0650 0.6849
H105 H -0.4448 0.0290 0.6488
H106 H -0.5560 0.0019 0.6793
H107 H -0.4870 0.2263 0.7852
H108 H -0.3720 0.2515 0.7568
H109 H -0.4845 0.3980 0.7757
H110 H -0.5956 0.3737 0.7498
H111 H -0.4805 0.3988 0.7214
H112 H -0.9029 0.1163 0.6025
H113 H -0.9002 0.0531 0.6513
H114 H -0.7928 0.1113 0.6351
H115 H -0.6064 -0.0720 0.8062
H116 H -0.4670 -0.1721 0.7640
H117 H -0.7246 -0.3479 0.7503
H118 H -0.8616 -0.2443 0.7883
H119 H -0.5307 -0.3901 0.7181
H120 H -0.4237 -0.3612 0.7448
H121 H -0.4678 -0.2993 0.6982
H220 H -1.0225 -0.0166 0.7941
S4 S -0.78399(10) 0.15887(8) 0.45107(4)
Si7 Si -1.14584(12) -0.08915(11) 0.57568(6)
Si8 Si -0.58423(16) -0.41959(12) 0.56853(7)
O10 O -0.8576(3) 0.1082(2) 0.42593(13)
O11 O -0.7072(3) 0.2230(2) 0.42605(12)
O12 O -0.7152(3) -0.0803(2) 0.62390(11)
N7 N -0.7464(3) 0.0146(3) 0.51419(13)
N8 N -0.6881(3) 0.0776(3) 0.48218(14)
C75 C -0.7437(4) -0.1073(3) 0.57986(16)
C76 C -0.6806(4) -0.0386(3) 0.54477(17)
C77 C -0.5489(5) -0.0388(4) 0.5496(2)
C78 C -0.8738(4) -0.0996(3) 0.57355(16)
C79 C -0.9806(4) -0.0954(3) 0.57406(18)
C80 C -1.1883(7) -0.1622(6) 0.6296(3)
C81 C -1.2083(5) 0.0391(5) 0.5724(3)
C82 C -1.1938(7) -0.1414(6) 0.5244(3)
C83 C -0.7598(5) -0.1371(4) 0.6631(2)
C84 C -0.6908(4) -0.2093(3) 0.57534(18)
C85 C -0.6476(5) -0.2925(4) 0.5733(2)
C86 C -0.5665(13) -0.4310(10) 0.5055(5)
C87 C -0.6886(9) -0.4376(7) 0.4852(4)
C88 C -0.6862(11) -0.4999(7) 0.5997(5)
C89 C -0.7251(14) -0.4863(9) 0.6462(6)
C90 C -0.4389(7) -0.4409(5) 0.5985(3)
C91 C -0.3546(8) -0.3641(8) 0.5844(5)
C92 C -0.8722(4) 0.2225(3) 0.49101(16)
C93 C -0.9946(4) 0.2144(4) 0.4962(2)
C94 C -1.0615(4) 0.2668(4) 0.5279(2)
C95 C -1.0101(5) 0.3255(4) 0.5547(2)
C96 C -0.8886(5) 0.3287(4) 0.5506(2)
C97 C -0.8167(4) 0.2791(4) 0.5197(2)
C98 C -1.0842(6) 0.3821(5) 0.5901(2)
H122 H -0.5168 -0.0845 0.5758
H123 H -0.5302 0.0258 0.5556
H124 H -0.5055 -0.0547 0.5219
H125 H -1.2685 -0.1609 0.6342
H126 H -1.1542 -0.1356 0.6576
H127 H -1.1468 -0.2284 0.6315
H128 H -1.2923 0.0467 0.5731
H129 H -1.1802 0.0753 0.5436
H130 H -1.1793 0.0699 0.5981
H131 H -1.2779 -0.1380 0.5241
H132 H -1.1574 -0.2078 0.5247
H133 H -1.1661 -0.1045 0.4959
H134 H -0.7321 -0.1141 0.6918
H135 H -0.7220 -0.2040 0.6636
H136 H -0.8411 -0.1325 0.6629
H137 H -0.5272 -0.3724 0.4911
H138 H -0.5054 -0.4861 0.5016
H139 H -0.6838 -0.4412 0.4540
H140 H -0.7419 -0.3787 0.4923
H141 H -0.7201 -0.4924 0.5028
H142 H -0.7771 -0.5317 0.6599
H143 H -0.7628 -0.4209 0.6486
H144 H -0.6536 -0.4951 0.6672
H145 H -0.4510 -0.4412 0.6342
H146 H -0.3941 -0.5039 0.5958
H147 H -0.2799 -0.3727 0.6008
H148 H -0.3944 -0.2980 0.5897
H149 H -0.3375 -0.3608 0.5514
H150 H -1.0282 0.1710 0.4789
H151 H -1.1441 0.2639 0.5307
H152 H -0.8468 0.3673 0.5703
H153 H -0.7274 0.2820 0.5170
H154 H -1.0309 0.4189 0.6057
H155 H -1.1179 0.3386 0.6130
H156 H -1.1441 0.4273 0.5744
H221 H -0.7622 -0.4933 0.5844
H222 H -0.6530 -0.5674 0.6030
H223 H -0.6014 0.0790 0.4778
S5 S -0.43212(10) -0.73358(9) 0.48537(5)
Si9 Si -0.6569(2) -0.15638(13) 0.39201(8)
Si10 Si -0.09636(16) -0.43607(14) 0.42168(9)
O13 O -0.5059(3) -0.8025(3) 0.50908(14)
O14 O -0.3697(3) -0.6755(2) 0.51117(12)
O15 O -0.4708(7) -0.4555(3) 0.31673(17)
N9 N -0.4732(4) -0.5850(3) 0.42518(15)
N10 N -0.5274(3) -0.6594(3) 0.45113(15)
C99 C -0.4694(6) -0.4512(4) 0.3651(2)
C100 C -0.5309(6) -0.5352(4) 0.3918(2)
C101 C -0.6482(8) -0.5511(5) 0.3733(4)
C102 C -0.5389(6) -0.3574(4) 0.3724(2)
C103 C -0.5905(6) -0.2792(4) 0.3785(2)
C104 C -0.5310(9) -0.1031(7) 0.4141(5)
C105 C -0.7769(6) -0.1654(6) 0.4384(4)
C106 C -0.7236(15) -0.0915(8) 0.3397(5)
C107 C -0.3989(15) -0.5363(6) 0.3009(3)
C108 C -0.3464(6) -0.4515(4) 0.3823(2)
C109 C -0.2467(7) -0.4479(5) 0.3966(3)
C110 C -0.0399(7) -0.3271(5) 0.3861(4)
C111 C -0.1143(11) -0.2342(6) 0.3943(4)
C112 C 0.0044(7) -0.5488(7) 0.4169(4)
C113 C 0.0275(8) -0.5742(7) 0.3687(4)
C114 C -0.1261(7) -0.4172(8) 0.4839(3)
C115 C -0.0149(11) -0.3987(8) 0.5083(5)
C116 C -0.3316(4) -0.7951(4) 0.44845(18)
C117 C -0.2495(4) -0.7435(4) 0.4206(2)
C118 C -0.1755(5) -0.7905(4) 0.3897(2)
C119 C -0.1756(5) -0.8899(4) 0.3876(2)
C120 C -0.2532(5) -0.9398(4) 0.4162(2)
C121 C -0.3337(5) -0.8924(4) 0.4454(2)
C122 C -0.0907(7) -0.9416(6) 0.3530(3)
H20 H -0.1874 -0.3622 0.4854
H21 H -0.1567 -0.4743 0.5001
H157 H -0.6699 -0.5029 0.3483
H158 H -0.7063 -0.5454 0.3988
H159 H -0.6418 -0.6147 0.3645
H160 H -0.5438 -0.0386 0.4223
H161 H -0.4586 -0.1003 0.3902
H162 H -0.4866 -0.1437 0.4414
H163 H -0.8086 -0.0986 0.4446
H164 H -0.7434 -0.1984 0.4672
H165 H -0.8389 -0.1961 0.4286
H166 H -0.7574 -0.0240 0.3435
H167 H -0.7824 -0.1224 0.3267
H168 H -0.6604 -0.0816 0.3139
H169 H -0.3880 -0.5352 0.2684
H170 H -0.4007 -0.5969 0.3169
H171 H -0.3029 -0.5255 0.3091
H172 H 0.0435 -0.3214 0.3935
H173 H -0.0405 -0.3344 0.3530
H174 H -0.0868 -0.1794 0.3757
H175 H -0.1124 -0.2253 0.4267
H176 H -0.1964 -0.2382 0.3861
H177 H 0.0775 -0.6347 0.3697
H178 H 0.0595 -0.5242 0.3500
H179 H -0.0508 -0.5833 0.3563
H180 H -0.0374 -0.3816 0.5441
H181 H 0.0252 -0.3408 0.4980
H182 H 0.0440 -0.4527 0.5151
H183 H -0.2443 -0.6746 0.4239
H184 H -0.1189 -0.7539 0.3701
H185 H -0.2514 -1.0085 0.4167
H186 H -0.3873 -0.9282 0.4635
H187 H -0.0971 -1.0078 0.3563
H188 H -0.0061 -0.9333 0.3614
H189 H -0.1041 -0.9101 0.3228
H224 H -0.6078 -0.6698 0.4514
H225 H 0.0830 -0.5428 0.4287
H226 H -0.0273 -0.6019 0.4350
S6 S -0.49460(10) -0.52250(9) 0.12977(4)
Si11 Si -0.84360(14) -0.79299(14) 0.22659(8)
Si12 Si -0.29752(16) -1.09720(10) 0.22686(6)
O16 O -0.5649(3) -0.5745(2) 0.10340(12)
O17 O -0.4241(3) -0.4523(2) 0.10536(12)
O18 O -0.4353(3) -0.7688(2) 0.29911(11)
N11 N -0.4510(3) -0.6689(3) 0.18979(13)
N12 N -0.3947(3) -0.6009(3) 0.15949(14)
C123 C -0.4516(4) -0.7945(3) 0.25335(17)
C124 C -0.3870(4) -0.7205(3) 0.22189(16)
C125 C -0.2571(4) -0.7188(4) 0.2297(2)
C126 C -0.5789(4) -0.7889(3) 0.24230(16)
C127 C -0.6868(5) -0.7891(4) 0.23587(19)
C128 C -0.8772(9) -0.9177(8) 0.2350(4)
C129 C -0.9259(8) -0.7269(12) 0.2694(9)
C130 C -0.8894(12) -0.7303(14) 0.1727(7)
C131 C -0.4927(6) -0.8283(5) 0.33560(19)
C132 C -0.3934(4) -0.8934(3) 0.24842(18)
C133 C -0.3488(5) -0.9749(4) 0.24206(19)
C134 C -0.4058(8) -1.1180(6) 0.1814(4)
C135 C -0.5346(9) -1.0926(7) 0.1923(5)
C136 C -0.3145(11) -1.1842(6) 0.2797(3)
C137 C -0.2717(15) -1.2873(6) 0.2755(4)
C138 C -0.1429(9) -1.1007(6) 0.2059(4)
C139 C -0.1272(11) -1.0159(17) 0.1679(8)
C140 C -0.5881(4) -0.4683(3) 0.17123(17)
C141 C -0.6966(5) -0.5019(4) 0.1840(2)
C142 C -0.7665(5) -0.4592(5) 0.2186(3)
C143 C -0.7306(5) -0.3879(5) 0.2404(2)
C144 C -0.6187(6) -0.3563(4) 0.2280(2)
C145 C -0.5490(5) -0.3941(4) 0.1939(2)
C146 C -0.8069(4) -0.3405(4) 0.27698(18)
H22 H -0.7657 -0.2919 0.2884
H23 H -0.8221 -0.3888 0.3023
H24 H -0.8815 -0.3104 0.2636
H190 H -0.2274 -0.7644 0.2561
H191 H -0.2411 -0.6540 0.2360
H192 H -0.2089 -0.7342 0.2025
H193 H -0.9586 -0.9221 0.2318
H194 H -0.8548 -0.9477 0.2679
H195 H -0.8286 -0.9575 0.2150
H196 H -1.0068 -0.7283 0.2666
H197 H -0.9043 -0.6618 0.2668
H198 H -0.8995 -0.7587 0.3009
H199 H -0.9732 -0.7250 0.1687
H200 H -0.8447 -0.7482 0.1473
H201 H -0.8759 -0.6555 0.1732
H202 H -0.4766 -0.8079 0.3660
H203 H -0.4571 -0.8953 0.3361
H204 H -0.5748 -0.8220 0.3309
H205 H -0.5808 -1.1054 0.1668
H206 H -0.5494 -1.0257 0.1967
H207 H -0.5540 -1.1327 0.2200
H208 H -0.2767 -1.3263 0.3054
H209 H -0.1804 -1.2924 0.2689
H210 H -0.3061 -1.3105 0.2522
H211 H -0.0892 -1.0903 0.2333
H212 H -0.1112 -1.1586 0.1959
H213 H -0.0435 -1.0103 0.1563
H214 H -0.1521 -0.9481 0.1779
H215 H -0.1741 -1.0164 0.1405
H216 H -0.7204 -0.5547 0.1698
H217 H -0.8428 -0.4789 0.2279
H218 H -0.5879 -0.3045 0.2435
H219 H -0.4682 -0.3718 0.1855
H227 H -0.2689 -1.1639 0.3054
H228 H -0.3947 -1.1820 0.2887
H229 H -0.3880 -1.0775 0.1522
H230 H -0.3926 -1.1845 0.1755
H231 H -0.3083 -0.5956 0.1547
C16? C -1.3101(14) 0.2504(11) 1.0508(6)
C36? C -0.718(2) -0.7275(19) 0.8705(9)
H9? H -1.2634 0.2397 1.0231
H10? H -1.2579 0.2554 1.0758
H11? H -1.3638 0.3095 1.0450
H13? H -0.8198 -0.7332 0.8245
H14? H -0.6594 -0.7169 0.8463
H15? H -0.6814 -0.7694 0.8963
H16? H -0.7500 -0.6662 0.8806
loop_
_geom_bond_atom_site_label_1
_geom_bond_atom_site_label_2
_geom_bond_site_symmetry_1
_geom_bond_site_symmetry_2
S1 O1 1_555 1_555
S2 O4 1_555 1_555
S3 O7 1_555 1_555
S4 O10 1_555 1_555
S5 O13 1_555 1_555
S6 O16 1_555 1_555
Si1 C14 1_555 1_555
Si2 C5 1_555 1_555
Si3 C40 1_555 1_555
Si4 C30 1_555 1_555
Si5 C55 1_555 1_555
Si6 C60 1_555 1_555
Si7 C79 1_555 1_555
Si8 C85 1_555 1_555
Si9 C103 1_555 1_555
Si10 C109 1_555 1_555
Si11 C127 1_555 1_555
Si12 C133 1_555 1_555
O2 S1 1_555 1_555
O3 C1 1_555 1_555
O5 S2 1_555 1_555
O6 C26 1_555 1_555
O8 S3 1_555 1_555
O9 C51 1_555 1_555
O11 S4 1_555 1_555
O12 C75 1_555 1_555
O14 S5 1_555 1_555
O15 C99 1_555 1_555
O17 S6 1_555 1_555
O18 C123 1_555 1_555
N1 N2 1_555 1_555
N2 S1 1_555 1_555
N3 N4 1_555 1_555
N4 S2 1_555 1_555
N5 N6 1_555 1_555
N6 S3 1_555 1_555
N7 N8 1_555 1_555
N8 S4 1_555 1_555
N9 N10 1_555 1_555
N10 S5 1_555 1_555
N11 N12 1_555 1_555
N12 S6 1_555 1_555
C1 C2 1_555 1_555
C2 N1 1_555 1_555
C3 C2 1_555 1_555
C4 C1 1_555 1_555
C5 C4 1_555 1_555
C6 Si2 1_555 1_555
C7 C6 1_555 1_555
C8 Si2 1_555 1_555
C9 C8 1_555 1_555
C10 Si2 1_555 1_555
C11 C10 1_555 1_555
C12 O3 1_555 1_555
C13 C1 1_555 1_555
C14 C13 1_555 1_555
C15 Si1 1_555 1_555
C17 Si1 1_555 1_555
C18 Si1 1_555 1_555
C19 S1 1_555 1_555
C20 C19 1_555 1_555
C21 C20 1_555 1_555
C22 C21 1_555 1_555
C23 C22 1_555 1_555
C24 C19 1_555 1_555
C25 C22 1_555 1_555
C26 C27 1_555 1_555
C27 N3 1_555 1_555
C28 C27 1_555 1_555
C29 C26 1_555 1_555
C30 C29 1_555 1_555
C31 Si4 1_555 1_555
C32 C31 1_555 1_555
C33 Si4 1_555 1_555
C34 C33 1_555 1_555
C35 Si4 1_555 1_555
C37 C35 1_555 1_555
C38 O6 1_555 1_555
C39 C26 1_555 1_555
C40 C39 1_555 1_555
C41 Si3 1_555 1_555
C42 Si3 1_555 1_555
C43 Si3 1_555 1_555
C44 S2 1_555 1_555
C45 C44 1_555 1_555
C46 C45 1_555 1_555
C47 C46 1_555 1_555
C48 C47 1_555 1_555
C49 C44 1_555 1_555
C50 C47 1_555 1_555
C51 C52 1_555 1_555
C52 N5 1_555 1_555
C53 C52 1_555 1_555
C54 C51 1_555 1_555
C55 C54 1_555 1_555
C56 Si5 1_555 1_555
C57 Si5 1_555 1_555
C58 Si5 1_555 1_555
C59 C51 1_555 1_555
C60 C59 1_555 1_555
C61 Si6 1_555 1_555
C62 C61 1_555 1_555
C63 Si6 1_555 1_555
C64 C63 1_555 1_555
C65 Si6 1_555 1_555
C66 C65 1_555 1_555
C67 O9 1_555 1_555
C68 S3 1_555 1_555
C69 C68 1_555 1_555
C70 C69 1_555 1_555
C71 C70 1_555 1_555
C72 C71 1_555 1_555
C73 C68 1_555 1_555
C74 C71 1_555 1_555
C75 C76 1_555 1_555
C76 N7 1_555 1_555
C77 C76 1_555 1_555
C78 C75 1_555 1_555
C79 C78 1_555 1_555
C80 Si7 1_555 1_555
C81 Si7 1_555 1_555
C82 Si7 1_555 1_555
C83 O12 1_555 1_555
C84 C75 1_555 1_555
C85 C84 1_555 1_555
C86 Si8 1_555 1_555
C87 C86 1_555 1_555
C88 Si8 1_555 1_555
C89 C88 1_555 1_555
C90 Si8 1_555 1_555
C91 C90 1_555 1_555
C92 S4 1_555 1_555
C93 C92 1_555 1_555
C94 C93 1_555 1_555
C95 C94 1_555 1_555
C96 C95 1_555 1_555
C97 C92 1_555 1_555
C98 C95 1_555 1_555
C99 C100 1_555 1_555
C100 N9 1_555 1_555
C101 C100 1_555 1_555
C102 C99 1_555 1_555
C103 C102 1_555 1_555
C104 Si9 1_555 1_555
C105 Si9 1_555 1_555
C106 Si9 1_555 1_555
C107 O15 1_555 1_555
C108 C99 1_555 1_555
C109 C108 1_555 1_555
C110 Si10 1_555 1_555
C111 C110 1_555 1_555
C112 Si10 1_555 1_555
C113 C112 1_555 1_555
C114 Si10 1_555 1_555
C115 C114 1_555 1_555
C116 S5 1_555 1_555
C117 C116 1_555 1_555
C118 C117 1_555 1_555
C119 C118 1_555 1_555
C120 C119 1_555 1_555
C121 C116 1_555 1_555
C122 C119 1_555 1_555
C123 C124 1_555 1_555
C124 N11 1_555 1_555
C125 C124 1_555 1_555
C126 C123 1_555 1_555
C127 C126 1_555 1_555
C128 Si11 1_555 1_555
C129 Si11 1_555 1_555
C130 Si11 1_555 1_555
C131 O18 1_555 1_555
C132 C123 1_555 1_555
C133 C132 1_555 1_555
C134 Si12 1_555 1_555
C135 C134 1_555 1_555
C136 Si12 1_555 1_555
C137 C136 1_555 1_555
C138 Si12 1_555 1_555
C139 C138 1_555 1_555
C140 S6 1_555 1_555
C141 C140 1_555 1_555
C142 C141 1_555 1_555
C143 C142 1_555 1_555
C144 C143 1_555 1_555
C145 C140 1_555 1_555
C146 C143 1_555 1_555
H1 N4 1_555 1_555
H2 C6 1_555 1_555
H3 C6 1_555 1_555
H4 C10 1_555 1_555
H5 C10 1_555 1_555
H6 C15 1_555 1_555
H7 C15 1_555 1_555
H8 C15 1_555 1_555
H12 C35 1_555 1_555
H17 C37 1_555 1_555
H18 C37 1_555 1_555
H19 C37 1_555 1_555
H20 C114 1_555 1_555
H21 C114 1_555 1_555
H22 C146 1_555 1_555
H23 C146 1_555 1_555
H24 C146 1_555 1_555
H25 C3 1_555 1_555
H26 C3 1_555 1_555
H27 C3 1_555 1_555
H28 C7 1_555 1_555
H29 C7 1_555 1_555
H30 C7 1_555 1_555
H31 C8 1_555 1_555
H32 C8 1_555 1_555
H33 C9 1_555 1_555
H34 C9 1_555 1_555
H35 C9 1_555 1_555
H36 C11 1_555 1_555
H37 C11 1_555 1_555
H38 C11 1_555 1_555
H39 C12 1_555 1_555
H40 C12 1_555 1_555
H41 C12 1_555 1_555
H42 C17 1_555 1_555
H43 C17 1_555 1_555
H44 C17 1_555 1_555
H45 C18 1_555 1_555
H46 C18 1_555 1_555
H47 C18 1_555 1_555
H48 C20 1_555 1_555
H49 C21 1_555 1_555
H50 C23 1_555 1_555
H51 C24 1_555 1_555
H52 C25 1_555 1_555
H53 C25 1_555 1_555
H54 C25 1_555 1_555
H55 C28 1_555 1_555
H56 C28 1_555 1_555
H57 C28 1_555 1_555
H58 C32 1_555 1_555
H59 C32 1_555 1_555
H60 C32 1_555 1_555
H61 C33 1_555 1_555
H62 C33 1_555 1_555
H63 C34 1_555 1_555
H64 C34 1_555 1_555
H65 C34 1_555 1_555
H66 C38 1_555 1_555
H67 C38 1_555 1_555
H68 C38 1_555 1_555
H69 C41 1_555 1_555
H70 C41 1_555 1_555
H71 C41 1_555 1_555
H72 C42 1_555 1_555
H73 C42 1_555 1_555
H74 C42 1_555 1_555
H75 C43 1_555 1_555
H76 C43 1_555 1_555
H77 C43 1_555 1_555
H78 C45 1_555 1_555
H79 C46 1_555 1_555
H80 C48 1_555 1_555
H81 C49 1_555 1_555
H82 C50 1_555 1_555
H83 C50 1_555 1_555
H84 C50 1_555 1_555
H85 C53 1_555 1_555
H86 C53 1_555 1_555
H87 C53 1_555 1_555
H88 C56 1_555 1_555
H89 C56 1_555 1_555
H90 C56 1_555 1_555
H91 C57 1_555 1_555
H92 C57 1_555 1_555
H93 C57 1_555 1_555
H94 C58 1_555 1_555
H95 C58 1_555 1_555
H96 C58 1_555 1_555
H97 C61 1_555 1_555
H98 C61 1_555 1_555
H99 C62 1_555 1_555
H100 C62 1_555 1_555
H101 C62 1_555 1_555
H102 C63 1_555 1_555
H103 C63 1_555 1_555
H104 C64 1_555 1_555
H105 C64 1_555 1_555
H106 C64 1_555 1_555
H107 C65 1_555 1_555
H108 C65 1_555 1_555
H109 C66 1_555 1_555
H110 C66 1_555 1_555
H111 C66 1_555 1_555
H112 C67 1_555 1_555
H113 C67 1_555 1_555
H114 C67 1_555 1_555
H115 C69 1_555 1_555
H116 C70 1_555 1_555
H117 C72 1_555 1_555
H118 C73 1_555 1_555
H119 C74 1_555 1_555
H120 C74 1_555 1_555
H121 C74 1_555 1_555
H122 C77 1_555 1_555
H123 C77 1_555 1_555
H124 C77 1_555 1_555
H125 C80 1_555 1_555
H126 C80 1_555 1_555
H127 C80 1_555 1_555
H128 C81 1_555 1_555
H129 C81 1_555 1_555
H130 C81 1_555 1_555
H131 C82 1_555 1_555
H132 C82 1_555 1_555
H133 C82 1_555 1_555
H134 C83 1_555 1_555
H135 C83 1_555 1_555
H136 C83 1_555 1_555
H137 C86 1_555 1_555
H138 C86 1_555 1_555
H139 C87 1_555 1_555
H140 C87 1_555 1_555
H141 C87 1_555 1_555
H142 C89 1_555 1_555
H143 C89 1_555 1_555
H144 C89 1_555 1_555
H145 C90 1_555 1_555
H146 C90 1_555 1_555
H147 C91 1_555 1_555
H148 C91 1_555 1_555
H149 C91 1_555 1_555
H150 C93 1_555 1_555
H151 C94 1_555 1_555
H152 C96 1_555 1_555
H153 C97 1_555 1_555
H154 C98 1_555 1_555
H155 C98 1_555 1_555
H156 C98 1_555 1_555
H157 C101 1_555 1_555
H158 C101 1_555 1_555
H159 C101 1_555 1_555
H160 C104 1_555 1_555
H161 C104 1_555 1_555
H162 C104 1_555 1_555
H163 C105 1_555 1_555
H164 C105 1_555 1_555
H165 C105 1_555 1_555
H166 C106 1_555 1_555
H167 C106 1_555 1_555
H168 C106 1_555 1_555
H169 C107 1_555 1_555
H170 C107 1_555 1_555
H171 C107 1_555 1_555
H172 C110 1_555 1_555
H173 C110 1_555 1_555
H174 C111 1_555 1_555
H175 C111 1_555 1_555
H176 C111 1_555 1_555
H177 C113 1_555 1_555
H178 C113 1_555 1_555
H179 C113 1_555 1_555
H180 C115 1_555 1_555
H181 C115 1_555 1_555
H182 C115 1_555 1_555
H183 C117 1_555 1_555
H184 C118 1_555 1_555
H185 C120 1_555 1_555
H186 C121 1_555 1_555
H187 C122 1_555 1_555
H188 C122 1_555 1_555
H189 C122 1_555 1_555
H190 C125 1_555 1_555
H191 C125 1_555 1_555
H192 C125 1_555 1_555
H193 C128 1_555 1_555
H194 C128 1_555 1_555
H195 C128 1_555 1_555
H196 C129 1_555 1_555
H197 C129 1_555 1_555
H198 C129 1_555 1_555
H199 C130 1_555 1_555
H200 C130 1_555 1_555
H201 C130 1_555 1_555
H202 C131 1_555 1_555
H203 C131 1_555 1_555
H204 C131 1_555 1_555
H205 C135 1_555 1_555
H206 C135 1_555 1_555
H207 C135 1_555 1_555
H208 C137 1_555 1_555
H209 C137 1_555 1_555
H210 C137 1_555 1_555
H211 C138 1_555 1_555
H212 C138 1_555 1_555
H213 C139 1_555 1_555
H214 C139 1_555 1_555
H215 C139 1_555 1_555
H216 C141 1_555 1_555
H217 C142 1_555 1_555
H218 C144 1_555 1_555
H219 C145 1_555 1_555
H220 N6 1_555 1_555
H221 C88 1_555 1_555
H222 C88 1_555 1_555
H223 N8 1_555 1_555
H224 N10 1_555 1_555
H225 C112 1_555 1_555
H226 C112 1_555 1_555
H227 C136 1_555 1_555
H228 C136 1_555 1_555
H229 C134 1_555 1_555
H230 C134 1_555 1_555
H231 N12 1_555 1_555
H232 N2 1_555 1_555
H233 C31 1_555 1_555
H234 C31 1_555 1_555
C23 C24 1_555 1_555
C48 C49 1_555 1_555
C72 C73 1_555 1_555
C96 C97 1_555 1_555
C120 C121 1_555 1_555
C144 C145 1_555 1_555

#END
