
#######################################################################
#
#                 Cambridge Crystallographic Data Centre
#                                CCDC 
#
#######################################################################
#
# If this CIF has been generated from an entry in the Cambridge 
# Structural Database, then it will include bibliographic, chemical, 
# crystal, experimental, refinement or atomic coordinate data resulting 
# from the CCDC's data processing and validation procedures.
#
#######################################################################

data_GEFDIG
_chemical_formula_moiety         'C21 H18 Cl1 N1 O1 S1'
_chemical_name_systematic        
4-Chloro-4-((4-methylphenyl)sulfinyl)-3-(1-naphthyl)butanenitrile
_symmetry_cell_setting           monoclinic
_symmetry_space_group_name_H-M   'P 21/n'
_symmetry_Int_Tables_number      14
_space_group_name_Hall           '-P 2yn'
loop_
_symmetry_equiv_pos_site_id
_symmetry_equiv_pos_as_xyz
1 x,y,z
2 1/2-x,1/2+y,1/2-z
3 -x,-y,-z
4 1/2+x,1/2-y,1/2+z
_cell_length_a                   10.3451(9)
_cell_length_b                   19.2321(16)
_cell_length_c                   10.3783(9)
_cell_angle_alpha                90
_cell_angle_beta                 117.357(2)
_cell_angle_gamma                90
_cell_volume                     1833.91
_exptl_crystal_colour            colorless
_exptl_crystal_description       block
_cell_formula_units_Z            4
loop_
_atom_site_label
_atom_site_type_symbol
_atom_site_fract_x
_atom_site_fract_y
_atom_site_fract_z
S1 S 0.23430(5) 0.24311(3) 0.40390(5)
Cl1 Cl 0.00209(6) 0.32586(3) 0.40829(6)
C1 C -0.1189(2) 0.16940(10) 0.4589(2)
O1 O 0.34584(15) 0.25125(8) 0.55803(15)
C2 C 0.2396(2) 0.15426(10) 0.3550(2)
C3 C 0.0528(2) 0.23781(10) 0.3969(2)
H1 H -0.0164 0.2199 0.2986
C4 C -0.2051(2) 0.20379(11) 0.5063(2)
H2 H -0.1650 0.2412 0.5728
C5 C 0.0394(2) 0.19034(10) 0.5093(2)
H3 H 0.0938 0.1467 0.5137
C6 C -0.1790(2) 0.11272(10) 0.3590(2)
C7 C -0.4118(2) 0.13278(12) 0.3620(2)
H4 H -0.5114 0.1214 0.3284
C8 C -0.0986(2) 0.07241(11) 0.3063(2)
H5 H 0.0006 0.0835 0.3362
C9 C 0.1791(2) 0.06794(11) 0.1704(2)
H6 H 0.1344 0.0557 0.0706
C10 C 0.2484(2) 0.01671(11) 0.2748(2)
C11 C -0.3283(2) 0.09477(11) 0.3100(2)
C12 C 0.3109(2) 0.10432(11) 0.4614(2)
H7 H 0.3570 0.1169 0.5611
C13 C 0.3136(2) 0.03652(12) 0.4202(2)
H8 H 0.3613 0.0023 0.4929
C14 C 0.1009(2) 0.17687(11) 0.7695(2)
C15 C -0.3521(2) 0.18512(11) 0.4588(2)
H9 H -0.4090 0.2092 0.4948
C16 C -0.1606(3) 0.01808(12) 0.2136(3)
H10 H -0.1037 -0.0083 0.1808
C17 C 0.2537(3) -0.05757(12) 0.2310(3)
H11 H 0.1754 -0.0842 0.2361
H12 H 0.3479 -0.0781 0.2969
H13 H 0.2413 -0.0587 0.1316
C18 C 0.1741(2) 0.13639(11) 0.2096(2)
H14 H 0.1263 0.1707 0.1373
C19 C -0.3073(3) 0.00062(13) 0.1659(3)
H15 H -0.3497 -0.0372 0.1012
C20 C -0.3881(2) 0.03830(12) 0.2132(2)
H16 H -0.4875 0.0264 0.1804
C21 C 0.1129(2) 0.22236(11) 0.6622(2)
H17 H 0.2170 0.2308 0.6909
H18 H 0.0669 0.2677 0.6607
N1 N 0.0915(2) 0.14244(11) 0.8540(2)
loop_
_geom_bond_atom_site_label_1
_geom_bond_atom_site_label_2
_geom_bond_site_symmetry_1
_geom_bond_site_symmetry_2
S1 O1 1_555 1_555
Cl1 C3 1_555 1_555
C1 C4 1_555 1_555
C2 S1 1_555 1_555
C3 S1 1_555 1_555
H1 C3 1_555 1_555
C4 H2 1_555 1_555
C5 C1 1_555 1_555
H3 C5 1_555 1_555
C6 C1 1_555 1_555
C7 H4 1_555 1_555
C8 C6 1_555 1_555
H5 C8 1_555 1_555
C9 H6 1_555 1_555
C10 C9 1_555 1_555
C11 C6 1_555 1_555
C12 C2 1_555 1_555
H7 C12 1_555 1_555
C13 C10 1_555 1_555
H8 C13 1_555 1_555
C14 C21 1_555 1_555
C15 C4 1_555 1_555
H9 C15 1_555 1_555
C16 C8 1_555 1_555
H10 C16 1_555 1_555
C17 C10 1_555 1_555
H11 C17 1_555 1_555
H12 C17 1_555 1_555
H13 C17 1_555 1_555
C18 C2 1_555 1_555
H14 C18 1_555 1_555
C19 C16 1_555 1_555
H15 C19 1_555 1_555
C20 C11 1_555 1_555
H16 C20 1_555 1_555
C21 C5 1_555 1_555
H17 C21 1_555 1_555
H18 C21 1_555 1_555
N1 C14 1_555 1_555
C3 C5 1_555 1_555
C7 C11 1_555 1_555
C7 C15 1_555 1_555
C9 C18 1_555 1_555
C12 C13 1_555 1_555
C19 C20 1_555 1_555

#END
