
#######################################################################
#
#                 Cambridge Crystallographic Data Centre
#                                CCDC 
#
#######################################################################
#
# If this CIF has been generated from an entry in the Cambridge 
# Structural Database, then it will include bibliographic, chemical, 
# crystal, experimental, refinement or atomic coordinate data resulting 
# from the CCDC's data processing and validation procedures.
#
#######################################################################

data_GEFGIK
_chemical_name_common            'Palhinine D'
_chemical_formula_moiety         'C16 H23 N1 O3'
_chemical_name_systematic        
2,10-dihydroxy-5-azapentacyclo[10.4.1.0^1,9^.0^5,10^.0^9,14^]heptadecan-16-one
_symmetry_cell_setting           monoclinic
_symmetry_space_group_name_H-M   'P 21/c'
_symmetry_Int_Tables_number      14
_space_group_name_Hall           '-P 2ybc'
loop_
_symmetry_equiv_pos_site_id
_symmetry_equiv_pos_as_xyz
1 x,y,z
2 -x,1/2+y,1/2-z
3 -x,-y,-z
4 x,1/2-y,1/2+z
_cell_length_a                   11.4214(14)
_cell_length_b                   8.8776(10)
_cell_length_c                   13.2732(13)
_cell_angle_alpha                90
_cell_angle_beta                 95.132(10)
_cell_angle_gamma                90
_cell_volume                     1340.44
_exptl_crystal_colour            colorless
_exptl_crystal_description       block
_chemical_melting_point          '429 K'
_cell_formula_units_Z            4
_exptl_crystal_recrystallization_method 'petroleum ether/dichloromethane'
loop_
_atom_site_label
_atom_site_type_symbol
_atom_site_fract_x
_atom_site_fract_y
_atom_site_fract_z
O1 O 0.51488(14) 0.0212(2) 0.14381(12)
H1 H 0.4687 0.0330 0.0934
O2 O 1.03089(15) -0.0576(2) 0.14518(14)
H2 H 1.0593 -0.0325 0.2016
O3 O 0.99774(16) 0.0224(2) 0.33949(14)
N1 N 0.64408(17) -0.0875(2) 0.03944(14)
C1 C 0.63123(19) 0.0310(2) 0.11641(16)
C2 C 0.71165(19) 0.0015(2) 0.21365(16)
C3 C 0.6835(2) -0.1545(3) 0.25551(18)
H3 H 0.7433 -0.1791 0.3095
H4 H 0.6090 -0.1483 0.2850
C4 C 0.6764(3) -0.2830(3) 0.1793(2)
H5 H 0.6353 -0.3673 0.2066
H6 H 0.7553 -0.3161 0.1686
C5 C 0.6125(2) -0.2363(3) 0.0777(2)
H7 H 0.6281 -0.3115 0.0276
H8 H 0.5286 -0.2374 0.0843
C6 C 0.7548(2) -0.0876(3) -0.00905(17)
H9 H 0.7722 0.0164 -0.0245
H10 H 0.7397 -0.1393 -0.0733
C7 C 0.8670(2) -0.1554(3) 0.04385(18)
H11 H 0.9298 -0.1377 0.0006
H12 H 0.8556 -0.2635 0.0467
C8 C 0.9111(2) -0.1031(3) 0.15048(17)
H13 H 0.9113 -0.1908 0.1953
C9 C 0.84421(19) 0.0244(2) 0.19914(16)
C10 C 0.8964(2) 0.0448(3) 0.30922(18)
C11 C 0.8026(2) 0.0978(3) 0.37193(18)
H14 H 0.8259 0.1903 0.4071
H15 H 0.7853 0.0222 0.4212
C12 C 0.6964(2) 0.1242(3) 0.29504(17)
H16 H 0.6227 0.1098 0.3263
C13 C 0.7012(2) 0.2819(3) 0.24717(19)
H17 H 0.6233 0.3263 0.2411
H18 H 0.7527 0.3465 0.2902
C14 C 0.7465(2) 0.2703(2) 0.14328(18)
H19 H 0.7594 0.3714 0.1168
C15 C 0.6531(2) 0.1895(2) 0.07475(17)
H20 H 0.6786 0.1814 0.0072
H21 H 0.5806 0.2470 0.0706
C16 C 0.8600(2) 0.1805(2) 0.14736(17)
H22 H 0.9223 0.2364 0.1851
H23 H 0.8822 0.1651 0.0793
loop_
_geom_bond_atom_site_label_1
_geom_bond_atom_site_label_2
_geom_bond_site_symmetry_1
_geom_bond_site_symmetry_2
O1 H1 1_555 1_555
O2 H2 1_555 1_555
O3 C10 1_555 1_555
N1 C1 1_555 1_555
C1 O1 1_555 1_555
C2 C1 1_555 1_555
C3 C2 1_555 1_555
H3 C3 1_555 1_555
H4 C3 1_555 1_555
C4 C3 1_555 1_555
H5 C4 1_555 1_555
H6 C4 1_555 1_555
C5 N1 1_555 1_555
H7 C5 1_555 1_555
H8 C5 1_555 1_555
C6 N1 1_555 1_555
H9 C6 1_555 1_555
H10 C6 1_555 1_555
C7 C6 1_555 1_555
H11 C7 1_555 1_555
H12 C7 1_555 1_555
C8 O2 1_555 1_555
H13 C8 1_555 1_555
C9 C2 1_555 1_555
C10 C9 1_555 1_555
C11 C10 1_555 1_555
H14 C11 1_555 1_555
H15 C11 1_555 1_555
C12 C2 1_555 1_555
H16 C12 1_555 1_555
C13 C12 1_555 1_555
H17 C13 1_555 1_555
H18 C13 1_555 1_555
C14 C13 1_555 1_555
H19 C14 1_555 1_555
C15 C1 1_555 1_555
H20 C15 1_555 1_555
H21 C15 1_555 1_555
C16 C9 1_555 1_555
H22 C16 1_555 1_555
H23 C16 1_555 1_555
C4 C5 1_555 1_555
C7 C8 1_555 1_555
C8 C9 1_555 1_555
C11 C12 1_555 1_555
C14 C15 1_555 1_555
C14 C16 1_555 1_555

#END
