
#######################################################################
#
#                 Cambridge Crystallographic Data Centre
#                                CCDC 
#
#######################################################################
#
# If this CIF has been generated from an entry in the Cambridge 
# Structural Database, then it will include bibliographic, chemical, 
# crystal, experimental, refinement or atomic coordinate data resulting 
# from the CCDC's data processing and validation procedures.
#
#######################################################################

data_GEFMUB
_chemical_name_common            'Resformicol B hexamethyl ether'
_chemical_formula_moiety         'C34 H36 O6'
_chemical_name_systematic        
2-(3,5-Dimethoxyphenyl)-6,8-dimethoxy-1,3-bis(4-methoxyphenyl)-1,2,3,4-tetrahydronaphthalene
_symmetry_cell_setting           monoclinic
_symmetry_space_group_name_H-M   'P 21/c'
_symmetry_Int_Tables_number      14
_space_group_name_Hall           '-P 2ybc'
loop_
_symmetry_equiv_pos_site_id
_symmetry_equiv_pos_as_xyz
1 x,y,z
2 -x,1/2+y,1/2-z
3 -x,-y,-z
4 x,1/2-y,1/2+z
_cell_length_a                   18.5789(8)
_cell_length_b                   6.9976(3)
_cell_length_c                   23.0985(10)
_cell_angle_alpha                90
_cell_angle_beta                 103.3830(10)
_cell_angle_gamma                90
_cell_volume                     2921.44
_exptl_crystal_colour            colorless
_exptl_crystal_description       platelet
_chemical_melting_point          '427 K'
_cell_formula_units_Z            4
loop_
_atom_site_label
_atom_site_type_symbol
_atom_site_fract_x
_atom_site_fract_y
_atom_site_fract_z
O1 O -0.12383(7) 0.9033(2) 0.01667(6)
O2 O 0.38746(7) 0.6762(2) -0.07152(6)
O3 O 0.45471(7) 1.1792(2) 0.11176(7)
O4 O 0.40611(8) 1.0988(3) 0.30359(6)
O5 O 0.09299(8) 0.8962(2) 0.25937(6)
O6 O 0.19749(9) 0.3239(2) 0.35241(6)
C1 C -0.16536(12) 0.7356(4) 0.00063(11)
H1 H -0.1399 0.6532 -0.0212
H2 H -0.2130 0.7680 -0.0237
H3 H -0.1715 0.6713 0.0359
C2 C -0.05518(9) 0.8856(3) 0.05426(8)
C3 C -0.02323(9) 0.7151(3) 0.07571(8)
H4 H -0.0482 0.6007 0.0649
C4 C 0.04697(9) 0.7145(3) 0.11384(8)
H5 H 0.0679 0.5986 0.1286
C5 C 0.08608(8) 0.8800(2) 0.13021(7)
C6 C 0.16405(8) 0.8817(2) 0.17000(7)
H6 H 0.1705 1.0042 0.1911
C7 C 0.22211(8) 0.8737(2) 0.13140(7)
H7 H 0.2012 0.9442 0.0947
C8 C 0.23129(8) 0.6629(2) 0.11310(7)
H8 H 0.1813 0.6136 0.0969
C9 C 0.27202(8) 0.6515(2) 0.06319(7)
C10 C 0.23952(9) 0.7340(3) 0.00860(7)
H9 H 0.1918 0.7827 0.0028
C11 C 0.27561(9) 0.7461(3) -0.03733(7)
H10 H 0.2527 0.8039 -0.0731
C12 C 0.34592(9) 0.6716(3) -0.02957(7)
C13 C 0.36011(12) 0.7861(4) -0.12355(9)
H11 H 0.3135 0.7348 -0.1448
H12 H 0.3948 0.7818 -0.1485
H13 H 0.3535 0.9161 -0.1126
C14 C -0.01698(10) 1.0536(3) 0.07041(8)
H14 H -0.0383 1.1696 0.0561
C15 C 0.05266(9) 1.0502(3) 0.10775(8)
H15 H 0.0778 1.1647 0.1181
C16 C 0.29578(8) 0.9671(2) 0.15939(7)
C17 C 0.34001(9) 1.0322(2) 0.12176(8)
H16 H 0.3237 1.0184 0.0808
C18 C 0.40744(9) 1.1164(2) 0.14535(8)
C19 C 0.44130(13) 1.1148(3) 0.05209(10)
H17 H 0.4382 0.9779 0.0513
H18 H 0.4810 1.1552 0.0348
H19 H 0.3956 1.1678 0.0298
C20 C 0.43204(10) 1.1445(3) 0.20628(9)
H20 H 0.4769 1.2051 0.2219
C21 C 0.38848(10) 1.0807(3) 0.24306(8)
C22 C 0.47312(15) 1.1877(5) 0.33143(12)
H21 H 0.5135 1.1225 0.3206
H22 H 0.4793 1.1825 0.3738
H23 H 0.4723 1.3186 0.3189
C23 C 0.32126(9) 0.9902(3) 0.21986(7)
H24 H 0.2933 0.9448 0.2455
C24 C 0.26355(9) 0.5451(2) 0.16813(7)
H25 H 0.3145 0.5833 0.1839
H26 H 0.2635 0.4114 0.1571
C25 C 0.22065(9) 0.5684(2) 0.21617(7)
C26 C 0.22893(10) 0.4296(3) 0.26086(7)
H27 H 0.2596 0.3250 0.2604
C27 C 0.19160(10) 0.4481(3) 0.30550(8)
C28 C 0.14464(10) 0.6017(3) 0.30630(7)
H28 H 0.1187 0.6122 0.3361
C29 C 0.13699(9) 0.7382(3) 0.26243(7)
C30 C 0.17525(8) 0.7258(2) 0.21660(7)
C31 C 0.05055(16) 0.9182(5) 0.30272(11)
H29 H 0.0170 0.8126 0.3002
H30 H 0.0230 1.0353 0.2956
H31 H 0.0830 0.9217 0.3417
C32 C 0.24412(17) 0.1640(4) 0.35433(11)
H32 H 0.2268 0.0872 0.3194
H33 H 0.2437 0.0895 0.3892
H34 H 0.2936 0.2063 0.3557
C33 C 0.34181(9) 0.5738(2) 0.06938(7)
H35 H 0.3646 0.5140 0.1049
C34 C 0.37838(10) 0.5836(3) 0.02358(8)
H36 H 0.4253 0.5303 0.0287
loop_
_geom_bond_atom_site_label_1
_geom_bond_atom_site_label_2
_geom_bond_site_symmetry_1
_geom_bond_site_symmetry_2
O1 C1 1_555 1_555
O2 C12 1_555 1_555
O3 C18 1_555 1_555
O4 C21 1_555 1_555
O5 C29 1_555 1_555
O6 C27 1_555 1_555
C1 H1 1_555 1_555
H2 C1 1_555 1_555
H3 C1 1_555 1_555
C2 O1 1_555 1_555
C3 C2 1_555 1_555
H4 C3 1_555 1_555
C4 C3 1_555 1_555
H5 C4 1_555 1_555
C5 C4 1_555 1_555
C6 C5 1_555 1_555
H6 C6 1_555 1_555
C7 C6 1_555 1_555
H7 C7 1_555 1_555
C8 C7 1_555 1_555
H8 C8 1_555 1_555
C9 C8 1_555 1_555
C10 C9 1_555 1_555
H9 C10 1_555 1_555
C11 C10 1_555 1_555
H10 C11 1_555 1_555
C12 C11 1_555 1_555
C13 O2 1_555 1_555
H11 C13 1_555 1_555
H12 C13 1_555 1_555
H13 C13 1_555 1_555
C14 C2 1_555 1_555
H14 C14 1_555 1_555
C15 C5 1_555 1_555
H15 C15 1_555 1_555
C16 C7 1_555 1_555
C17 C16 1_555 1_555
H16 C17 1_555 1_555
C18 C17 1_555 1_555
C19 O3 1_555 1_555
H17 C19 1_555 1_555
H18 C19 1_555 1_555
H19 C19 1_555 1_555
C20 C18 1_555 1_555
H20 C20 1_555 1_555
C21 C20 1_555 1_555
C22 O4 1_555 1_555
H21 C22 1_555 1_555
H22 C22 1_555 1_555
H23 C22 1_555 1_555
C23 C16 1_555 1_555
H24 C23 1_555 1_555
C24 C8 1_555 1_555
H25 C24 1_555 1_555
H26 C24 1_555 1_555
C25 C24 1_555 1_555
C26 C25 1_555 1_555
H27 C26 1_555 1_555
C27 C26 1_555 1_555
C28 C27 1_555 1_555
H28 C28 1_555 1_555
C29 C28 1_555 1_555
C30 C6 1_555 1_555
C31 O5 1_555 1_555
H29 C31 1_555 1_555
H30 C31 1_555 1_555
H31 C31 1_555 1_555
C32 O6 1_555 1_555
H32 C32 1_555 1_555
H33 C32 1_555 1_555
H34 C32 1_555 1_555
C33 C9 1_555 1_555
H35 C33 1_555 1_555
C34 C12 1_555 1_555
H36 C34 1_555 1_555
C14 C15 1_555 1_555
C21 C23 1_555 1_555
C25 C30 1_555 1_555
C29 C30 1_555 1_555
C33 C34 1_555 1_555

#END
