
#######################################################################
#
#                 Cambridge Crystallographic Data Centre
#                                CCDC 
#
#######################################################################
#
# If this CIF has been generated from an entry in the Cambridge 
# Structural Database, then it will include bibliographic, chemical, 
# crystal, experimental, refinement or atomic coordinate data resulting 
# from the CCDC's data processing and validation procedures.
#
#######################################################################

data_GEFQAL
_chemical_formula_moiety         'C41 H46 N4 O3,2(C1 H4 O1)'
_chemical_name_systematic        
'Methyl 15-(17,18-didehydro-14,15-dihydroeburnamenin-14-yl)-16-methoxy-2,3,6,7-tetradehydroaspidospermidine-3-carboxylate methanol solvate'
_symmetry_cell_setting           monoclinic
_symmetry_space_group_name_H-M   'P 21'
_symmetry_Int_Tables_number      4
_space_group_name_Hall           'P 2yb'
loop_
_symmetry_equiv_pos_site_id
_symmetry_equiv_pos_as_xyz
1 x,y,z
2 -x,1/2+y,-z
_cell_length_a                   11.58860(10)
_cell_length_b                   15.5424(2)
_cell_length_c                   11.8428(2)
_cell_angle_alpha                90
_cell_angle_beta                 118.80
_cell_angle_gamma                90
_cell_volume                     1869.22
_exptl_crystal_colour            yellow
_exptl_crystal_description       block
_cell_formula_units_Z            2
loop_
_atom_site_label
_atom_site_type_symbol
_atom_site_fract_x
_atom_site_fract_y
_atom_site_fract_z
O1 O 0.4309(2) 0.78280(14) 0.9274(2)
O2 O 0.3625(3) 0.90002(15) 0.8022(2)
O3 O 0.9016(2) 0.44123(15) 1.0634(2)
N1 N 0.9703(2) 0.47865(17) 0.7590(3)
N2 N 0.4604(2) 0.69620(16) 0.4514(2)
N3 N 0.5399(2) 0.65016(16) 0.8687(2)
H1 H 0.5108 0.6537 0.9248
N4 N 1.1173(3) 0.29809(18) 0.6725(3)
C1 C 1.1292(4) 0.3398(2) 0.5672(4)
H2 H 1.0475 0.3287 0.4855
H3 H 1.2027 0.3124 0.5603
C2 C 1.1534(4) 0.4384(2) 0.5811(4)
H4 H 1.2492 0.4501 0.6294
H5 H 1.1181 0.4649 0.4947
C3 C 1.0866(3) 0.4774(2) 0.6516(3)
C4 C 1.0167(3) 0.4290(2) 0.6927(3)
C5 C 0.9257(3) 0.4395(2) 0.8449(3)
H6 H 1.0028 0.4356 0.9335
C6 C 0.8199(3) 0.49209(19) 0.8518(3)
C7 C 0.7306(3) 0.54179(19) 0.7481(3)
H7 H 0.7317 0.5401 0.6685
C8 C 0.6408(3) 0.59337(19) 0.7610(3)
C9 C 0.5339(3) 0.65401(19) 0.6691(3)
C10 C 0.4983(3) 0.70091(19) 0.7613(3)
C11 C 0.4447(3) 0.7805(2) 0.7364(3)
C12 C 0.4094(3) 0.8280(2) 0.8211(3)
C13 C 0.3966(3) 0.8252(2) 1.0148(3)
H8 H 0.4301 0.8843 1.0293
H9 H 0.4357 0.7941 1.0969
H10 H 0.3006 0.8261 0.9778
C14 C 0.4396(4) 0.8280(2) 0.6226(3)
H11 H 0.4332 0.8906 0.6341
H12 H 0.3599 0.8102 0.5430
C15 C 0.5630(4) 0.8097(2) 0.6078(3)
C16 C 0.5550(4) 0.8585(2) 0.4945(4)
H13 H 0.5758 0.9181 0.5051
C17 C 0.5208(4) 0.8232(2) 0.3806(3)
H14 H 0.5179 0.8588 0.3140
C18 C 0.4868(3) 0.7310(2) 0.3525(3)
H15 H 0.4082 0.7245 0.2668
H16 H 0.5608 0.6995 0.3519
C19 C 0.5640(3) 0.71390(19) 0.5813(3)
H17 H 0.6510 0.6979 0.5889
C20 C 0.8118(3) 0.49276(19) 0.9663(3)
C21 C 0.9197(3) 0.4557(2) 1.1912(3)
H18 H 0.9365 0.5170 1.2125
H19 H 0.9949 0.4219 1.2534
H20 H 0.8401 0.4382 1.1944
C22 C 0.7180(3) 0.5413(2) 0.9794(3)
H21 H 0.7112 0.5396 1.0562
C23 C 0.6349(3) 0.59215(19) 0.8760(3)
C24 C 1.0169(3) 0.5626(2) 0.7651(3)
C25 C 1.0014(3) 0.6354(2) 0.8236(3)
H22 H 0.9559 0.6333 0.8722
C26 C 1.0552(3) 0.7124(2) 0.8085(4)
H23 H 1.0462 0.7635 0.8475
C27 C 1.1223(3) 0.7152(2) 0.7367(4)
H24 H 1.1570 0.7683 0.7271
C28 C 1.1388(3) 0.6422(2) 0.6800(3)
H25 H 1.1845 0.6450 0.6316
C29 C 1.0873(3) 0.5638(2) 0.6944(3)
C30 C 1.0009(3) 0.3334(2) 0.6774(3)
H26 H 0.9223 0.3221 0.5918
C31 C 0.9755(3) 0.2904(2) 0.7797(3)
C32 C 1.1042(3) 0.2847(2) 0.9034(3)
H27 H 1.1014 0.2752 0.9813
C33 C 1.2200(3) 0.2923(2) 0.9093(3)
H28 H 1.2962 0.2870 0.9913
C34 C 1.2390(3) 0.3089(2) 0.7945(4)
H29 H 1.2721 0.3683 0.7995
H30 H 1.3065 0.2688 0.7967
C35 C 0.8766(3) 0.34782(19) 0.7971(3)
H31 H 0.7946 0.3517 0.7135
H32 H 0.8545 0.3197 0.8592
C36 C 0.9160(3) 0.2002(2) 0.7324(3)
H33 H 0.8258 0.2070 0.6594
H34 H 0.9691 0.1700 0.6997
C37 C 0.9094(3) 0.1441(2) 0.8350(4)
H35 H 0.9988 0.1328 0.9046
H36 H 0.8662 0.0895 0.7964
H37 H 0.8591 0.1740 0.8700
C38 C 0.4141(3) 0.5988(2) 0.5683(3)
H38 H 0.4205 0.5383 0.5969
H39 H 0.3290 0.6232 0.5534
C39 C 0.4298(3) 0.60564(19) 0.4484(3)
H40 H 0.5025 0.5689 0.4547
H41 H 0.3474 0.5904 0.3696
C40 C 0.6967(4) 0.8299(3) 0.7314(4)
H42 H 0.7105 0.7863 0.7976
H43 H 0.7687 0.8231 0.7096
C41 C 0.7091(5) 0.9173(3) 0.7899(5)
H44 H 0.6658 0.9600 0.7212
H45 H 0.8024 0.9321 0.8420
H46 H 0.6672 0.9170 0.8446
O4 O 0.4891(3) 0.13354(18) 0.9048(2)
H47 H 0.4265 0.1074 0.8442
C43 C 0.6054(6) 0.0826(3) 0.9528(6)
H52 H 0.6762 0.1105 1.0288
H53 H 0.6318 0.0768 0.8860
H54 H 0.5881 0.0255 0.9764
O5 O 0.3377(4) 0.0508(3) 0.6763(4)
H48 H 0.3441 0.0248 0.7413
C42 C 0.2017(5) 0.0750(3) 0.5934(5)
H49 H 0.1733 0.1146 0.6396
H50 H 0.1462 0.0234 0.5685
H51 H 0.1937 0.1034 0.5160
loop_
_geom_bond_atom_site_label_1
_geom_bond_atom_site_label_2
_geom_bond_site_symmetry_1
_geom_bond_site_symmetry_2
O1 C12 1_555 1_555
O2 C12 1_555 1_555
O3 C20 1_555 1_555
N1 C4 1_555 1_555
N2 C18 1_555 1_555
N3 H1 1_555 1_555
N4 C1 1_555 1_555
C1 H2 1_555 1_555
H3 C1 1_555 1_555
C2 C1 1_555 1_555
H4 C2 1_555 1_555
H5 C2 1_555 1_555
C3 C2 1_555 1_555
C4 C3 1_555 1_555
C5 N1 1_555 1_555
H6 C5 1_555 1_555
C6 C5 1_555 1_555
C7 C6 1_555 1_555
H7 C7 1_555 1_555
C8 C7 1_555 1_555
C9 C8 1_555 1_555
C10 N3 1_555 1_555
C11 C10 1_555 1_555
C12 C11 1_555 1_555
C13 O1 1_555 1_555
H8 C13 1_555 1_555
H9 C13 1_555 1_555
H10 C13 1_555 1_555
C14 C11 1_555 1_555
H11 C14 1_555 1_555
H12 C14 1_555 1_555
C15 C14 1_555 1_555
C16 C15 1_555 1_555
H13 C16 1_555 1_555
C17 C16 1_555 1_555
H14 C17 1_555 1_555
C18 C17 1_555 1_555
H15 C18 1_555 1_555
H16 C18 1_555 1_555
C19 N2 1_555 1_555
H17 C19 1_555 1_555
C20 C6 1_555 1_555
C21 O3 1_555 1_555
H18 C21 1_555 1_555
H19 C21 1_555 1_555
H20 C21 1_555 1_555
C22 C20 1_555 1_555
H21 C22 1_555 1_555
C23 N3 1_555 1_555
C24 N1 1_555 1_555
C25 C24 1_555 1_555
H22 C25 1_555 1_555
C26 C25 1_555 1_555
H23 C26 1_555 1_555
C27 C26 1_555 1_555
H24 C27 1_555 1_555
C28 C27 1_555 1_555
H25 C28 1_555 1_555
C29 C3 1_555 1_555
C30 N4 1_555 1_555
H26 C30 1_555 1_555
C31 C30 1_555 1_555
C32 C31 1_555 1_555
H27 C32 1_555 1_555
C33 C32 1_555 1_555
H28 C33 1_555 1_555
C34 N4 1_555 1_555
H29 C34 1_555 1_555
H30 C34 1_555 1_555
C35 C5 1_555 1_555
H31 C35 1_555 1_555
H32 C35 1_555 1_555
C36 C31 1_555 1_555
H33 C36 1_555 1_555
H34 C36 1_555 1_555
C37 C36 1_555 1_555
H35 C37 1_555 1_555
H36 C37 1_555 1_555
H37 C37 1_555 1_555
C38 C9 1_555 1_555
H38 C38 1_555 1_555
H39 C38 1_555 1_555
C39 N2 1_555 1_555
H40 C39 1_555 1_555
H41 C39 1_555 1_555
C40 C15 1_555 1_555
H42 C40 1_555 1_555
H43 C40 1_555 1_555
C41 C40 1_555 1_555
H44 C41 1_555 1_555
H45 C41 1_555 1_555
H46 C41 1_555 1_555
O4 H47 1_555 1_555
O5 H48 1_555 1_555
C42 O5 1_555 1_555
H49 C42 1_555 1_555
H50 C42 1_555 1_555
H51 C42 1_555 1_555
C43 O4 1_555 1_555
H52 C43 1_555 1_555
H53 C43 1_555 1_555
H54 C43 1_555 1_555
C4 C30 1_555 1_555
C8 C23 1_555 1_555
C9 C10 1_555 1_555
C9 C19 1_555 1_555
C15 C19 1_555 1_555
C22 C23 1_555 1_555
C24 C29 1_555 1_555
C28 C29 1_555 1_555
C31 C35 1_555 1_555
C33 C34 1_555 1_555
C38 C39 1_555 1_555

#END
