
#######################################################################
#
#                 Cambridge Crystallographic Data Centre
#                                CCDC 
#
#######################################################################
#
# If this CIF has been generated from an entry in the Cambridge 
# Structural Database, then it will include bibliographic, chemical, 
# crystal, experimental, refinement or atomic coordinate data resulting 
# from the CCDC's data processing and validation procedures.
#
#######################################################################

data_GEFVEV
_chemical_formula_moiety         'C9 H7 N3 O2'
_chemical_name_systematic        '4-(1H-1,2,3-triazol-1-yl)benzoic acid'
_symmetry_cell_setting           monoclinic
_symmetry_space_group_name_H-M   'P 21/c'
_symmetry_Int_Tables_number      14
_space_group_name_Hall           '-P 2ybc'
loop_
_symmetry_equiv_pos_site_id
_symmetry_equiv_pos_as_xyz
1 x,y,z
2 -x,1/2+y,1/2-z
3 -x,-y,-z
4 x,1/2-y,1/2+z
_cell_length_a                   4.8058(2)
_cell_length_b                   5.4704(3)
_cell_length_c                   31.7944(16)
_cell_angle_alpha                90
_cell_angle_beta                 90.687(4)
_cell_angle_gamma                90
_cell_volume                     835.804
_exptl_crystal_colour            yellow
_exptl_crystal_description       flake
_cell_formula_units_Z            4
_chemical_properties_physical    ', Photo-sensitive'
_exptl_crystal_preparation       ', Luminescent'
loop_
_atom_site_label
_atom_site_type_symbol
_atom_site_fract_x
_atom_site_fract_y
_atom_site_fract_z
O1 O 0.1328(2) -0.1191(2) 0.45349(4)
H1 H 0.0207 -0.1344 0.4725
O2 O 0.2416(2) 0.2169(2) 0.48987(3)
N1 N 1.0296(2) 0.3356(2) 0.33088(4)
C1 C 1.1322(4) 0.2002(3) 0.29941(5)
H2 H 1.0957 0.0365 0.2936
C2 C 1.3004(4) 0.3537(3) 0.27789(5)
H3 H 1.4020 0.3129 0.2542
C3 C 0.2704(3) 0.0787(3) 0.45874(5)
C4 C 0.4722(3) 0.1439(3) 0.42574(4)
C5 C 0.5029(3) -0.0051(3) 0.39070(5)
H4 H 0.3981 -0.1474 0.3883
C6 C 0.6873(3) 0.0561(3) 0.35951(5)
H5 H 0.7077 -0.0441 0.3361
C7 C 0.8418(3) 0.2691(3) 0.36350(5)
C8 C 0.8168(3) 0.4175(3) 0.39847(5)
H6 H 0.9241 0.5582 0.4011
C9 C 0.6306(3) 0.3545(3) 0.42945(5)
H7 H 0.6116 0.4542 0.4529
N2 N 1.1313(4) 0.5650(3) 0.32891(5)
N3 N 1.2960(4) 0.5747(3) 0.29646(5)
loop_
_geom_bond_atom_site_label_1
_geom_bond_atom_site_label_2
_geom_bond_site_symmetry_1
_geom_bond_site_symmetry_2
O1 H1 1_555 1_555
O2 C3 1_555 1_555
N1 C1 1_555 1_555
C1 H2 1_555 1_555
C2 C1 1_555 1_555
H3 C2 1_555 1_555
C3 O1 1_555 1_555
C4 C3 1_555 1_555
C5 C4 1_555 1_555
H4 C5 1_555 1_555
C6 C5 1_555 1_555
H5 C6 1_555 1_555
C7 N1 1_555 1_555
C8 C7 1_555 1_555
H6 C8 1_555 1_555
C9 C4 1_555 1_555
H7 C9 1_555 1_555
N2 N1 1_555 1_555
N3 C2 1_555 1_555
C6 C7 1_555 1_555
C8 C9 1_555 1_555
N2 N3 1_555 1_555

#END
