
#######################################################################
#
#                 Cambridge Crystallographic Data Centre
#                                CCDC 
#
#######################################################################
#
# If this CIF has been generated from an entry in the Cambridge 
# Structural Database, then it will include bibliographic, chemical, 
# crystal, experimental, refinement or atomic coordinate data resulting 
# from the CCDC's data processing and validation procedures.
#
#######################################################################

data_GEFVUL
_chemical_name_common            1-acetyl-4-(1H-1,2,3-triazol-1-yl)benzene
_chemical_formula_moiety         'C10 H9 N3 O1'
_chemical_name_systematic        
1-(4-(1H-1,2,3-triazol-1-yl)phenyl)ethan-1-one
_symmetry_cell_setting           monoclinic
_symmetry_space_group_name_H-M   'P 21/c'
_symmetry_Int_Tables_number      14
_space_group_name_Hall           '-P 2ybc'
loop_
_symmetry_equiv_pos_site_id
_symmetry_equiv_pos_as_xyz
1 x,y,z
2 -x,1/2+y,1/2-z
3 -x,-y,-z
4 x,1/2-y,1/2+z
_cell_length_a                   4.0343(6)
_cell_length_b                   20.902(3)
_cell_length_c                   10.871(2)
_cell_angle_alpha                90
_cell_angle_beta                 96.641(17)
_cell_angle_gamma                90
_cell_volume                     910.546
_exptl_crystal_colour            yellow
_exptl_crystal_description       flake
_chemical_melting_point          '156 deg.C'
_cell_formula_units_Z            4
loop_
_atom_site_label
_atom_site_type_symbol
_atom_site_fract_x
_atom_site_fract_y
_atom_site_fract_z
O1 O 0.7359(16) 0.6779(3) -0.3986(7)
N1 N 0.0410(18) 0.5842(4) 0.2845(8)
N2 N 0.1341(19) 0.5722(3) 0.1840(7)
N3 N 0.1925(12) 0.62736(19) 0.1183(6)
C1 C 0.031(2) 0.6536(4) 0.2950(7)
H1 H -0.0207 0.6762 0.3639
C2 C 0.107(2) 0.6793(3) 0.1914(8)
H2 H 0.1052 0.7225 0.1707
C3 C 0.3009(14) 0.6285(2) 0.0047(6)
C4 C 0.2941(14) 0.5718(2) -0.0614(7)
H3 H 0.2178 0.5341 -0.0289
C5 C 0.4047(14) 0.5729(3) -0.1778(7)
H4 H 0.3966 0.5348 -0.2223
C6 C 0.5277(12) 0.6273(2) -0.2329(6)
C7 C 0.5250(18) 0.6841(3) -0.1584(9)
H5 H 0.5964 0.7225 -0.1895
C8 C 0.4208(17) 0.6832(3) -0.0436(8)
H6 H 0.4314 0.7206 0.0030
C9 C 0.6398(16) 0.6307(3) -0.3500(8)
C10 C 0.651(2) 0.5730(4) -0.4246(9)
H7 H 0.5714 0.5374 -0.3808
H8 H 0.8769 0.5651 -0.4403
H9 H 0.5128 0.5786 -0.5018
loop_
_geom_bond_atom_site_label_1
_geom_bond_atom_site_label_2
_geom_bond_site_symmetry_1
_geom_bond_site_symmetry_2
O1 C9 1_555 1_555
N1 N2 1_555 1_555
N2 N3 1_555 1_555
N3 C2 1_555 1_555
C1 N1 1_555 1_555
H1 C1 1_555 1_555
C2 C1 1_555 1_555
H2 C2 1_555 1_555
C3 N3 1_555 1_555
C4 C3 1_555 1_555
H3 C4 1_555 1_555
C5 C4 1_555 1_555
H4 C5 1_555 1_555
C6 C5 1_555 1_555
C7 C6 1_555 1_555
H5 C7 1_555 1_555
C8 C3 1_555 1_555
H6 C8 1_555 1_555
C9 C6 1_555 1_555
C10 C9 1_555 1_555
H7 C10 1_555 1_555
H8 C10 1_555 1_555
H9 C10 1_555 1_555
C7 C8 1_555 1_555

#END
