
#######################################################################
#
#                 Cambridge Crystallographic Data Centre
#                                CCDC 
#
#######################################################################
#
# If this CIF has been generated from an entry in the Cambridge 
# Structural Database, then it will include bibliographic, chemical, 
# crystal, experimental, refinement or atomic coordinate data resulting 
# from the CCDC's data processing and validation procedures.
#
#######################################################################

data_GEFVOE
_chemical_formula_moiety         'C15 H12 Br1 N3 O4'
_chemical_name_systematic        
N'-(5-Bromo-2-methoxybenzylidene)-4-nitrobenzohydrazide
_symmetry_cell_setting           monoclinic
_symmetry_space_group_name_H-M   'P 21/c'
_symmetry_Int_Tables_number      14
_space_group_name_Hall           '-P 2ybc'
loop_
_symmetry_equiv_pos_site_id
_symmetry_equiv_pos_as_xyz
1 x,y,z
2 -x,1/2+y,1/2-z
3 -x,-y,-z
4 x,1/2-y,1/2+z
_cell_length_a                   12.472(2)
_cell_length_b                   15.034(3)
_cell_length_c                   8.535(2)
_cell_angle_alpha                90
_cell_angle_beta                 107.117(2)
_cell_angle_gamma                90
_cell_volume                     1529.46
_exptl_crystal_colour            yellow
_exptl_crystal_description       block
_cell_formula_units_Z            4
loop_
_atom_site_label
_atom_site_type_symbol
_atom_site_fract_x
_atom_site_fract_y
_atom_site_fract_z
Br1 Br 1.24349(4) 0.20998(3) -0.05252(7)
N1 N 0.8422(2) 0.21873(19) 0.0797(4)
N2 N 0.7495(3) 0.2503(2) 0.1209(4)
N3 N 0.3302(3) 0.4722(2) 0.2167(5)
O1 O 0.9757(2) -0.00541(16) 0.2880(3)
O2 O 0.6889(2) 0.32791(17) -0.1166(3)
O3 O 0.2387(3) 0.4764(2) 0.1150(4)
O4 O 0.3515(3) 0.5034(2) 0.3530(4)
C1 C 0.9989(3) 0.1217(2) 0.1479(4)
C2 C 1.0396(3) 0.0385(2) 0.2112(4)
C3 C 1.1378(3) 0.0061(2) 0.1886(4)
H1 H 1.1639 -0.0500 0.2280
C4 C 1.1969(3) 0.0563(3) 0.1081(4)
H2 H 1.2632 0.0346 0.0940
C5 C 1.1577(3) 0.1386(2) 0.0486(5)
C6 C 1.0597(3) 0.1714(2) 0.0673(4)
H3 H 1.0340 0.2272 0.0256
C7 C 0.8943(3) 0.1555(2) 0.1694(4)
H4 H 0.8657 0.1307 0.2487
C8 C 0.6802(3) 0.3069(2) 0.0177(4)
C9 C 0.5887(3) 0.3462(2) 0.0761(4)
C10 C 0.6037(3) 0.3664(2) 0.2403(4)
H5 H 0.6707 0.3520 0.3188
C11 C 0.5188(3) 0.4078(2) 0.2863(4)
H6 H 0.5283 0.4224 0.3955
C12 C 0.4199(3) 0.4270(2) 0.1680(5)
C13 C 0.4032(3) 0.4060(3) 0.0063(5)
H7 H 0.3350 0.4184 -0.0712
C14 C 0.4880(3) 0.3668(2) -0.0397(4)
H8 H 0.4781 0.3538 -0.1496
C15 C 1.0136(3) -0.0898(2) 0.3600(5)
H9 H 1.0211 -0.1301 0.2765
H10 H 0.9602 -0.1133 0.4104
H11 H 1.0850 -0.0829 0.4414
H12 H 0.730(4) 0.231(3) 0.209(4)
loop_
_geom_bond_atom_site_label_1
_geom_bond_atom_site_label_2
_geom_bond_site_symmetry_1
_geom_bond_site_symmetry_2
Br1 C5 1_555 1_555
N1 N2 1_555 1_555
N2 C8 1_555 1_555
N3 O3 1_555 1_555
O1 C2 1_555 1_555
O2 C8 1_555 1_555
O4 N3 1_555 1_555
C1 C2 1_555 1_555
C2 C3 1_555 1_555
C3 H1 1_555 1_555
C4 C3 1_555 1_555
H2 C4 1_555 1_555
C5 C4 1_555 1_555
C6 C1 1_555 1_555
H3 C6 1_555 1_555
C7 N1 1_555 1_555
H4 C7 1_555 1_555
C8 C9 1_555 1_555
C9 C10 1_555 1_555
C10 H5 1_555 1_555
C11 C10 1_555 1_555
H6 C11 1_555 1_555
C12 N3 1_555 1_555
C13 C12 1_555 1_555
H7 C13 1_555 1_555
C14 C9 1_555 1_555
H8 C14 1_555 1_555
C15 O1 1_555 1_555
H9 C15 1_555 1_555
H10 C15 1_555 1_555
H11 C15 1_555 1_555
H12 N2 1_555 1_555
C1 C7 1_555 1_555
C5 C6 1_555 1_555
C11 C12 1_555 1_555
C13 C14 1_555 1_555

#END
