
#######################################################################
#
#                 Cambridge Crystallographic Data Centre
#                                CCDC 
#
#######################################################################
#
# If this CIF has been generated from an entry in the Cambridge 
# Structural Database, then it will include bibliographic, chemical, 
# crystal, experimental, refinement or atomic coordinate data resulting 
# from the CCDC's data processing and validation procedures.
#
#######################################################################

data_GEFWAR
_chemical_formula_moiety         'C16 H15 Br1 N2 O2'
_chemical_name_systematic        
N'-(5-Bromo-2-methoxybenzylidene)-4-methylbenzohydrazide
_symmetry_cell_setting           monoclinic
_symmetry_space_group_name_H-M   'P 21/c'
_symmetry_Int_Tables_number      14
_space_group_name_Hall           '-P 2ybc'
loop_
_symmetry_equiv_pos_site_id
_symmetry_equiv_pos_as_xyz
1 x,y,z
2 -x,1/2+y,1/2-z
3 -x,-y,-z
4 x,1/2-y,1/2+z
_cell_length_a                   12.488(3)
_cell_length_b                   15.831(3)
_cell_length_c                   8.3260(17)
_cell_angle_alpha                90
_cell_angle_beta                 108.114(3)
_cell_angle_gamma                90
_cell_volume                     1564.45
_exptl_crystal_colour            colorless
_exptl_crystal_description       block
_cell_formula_units_Z            4
loop_
_atom_site_label
_atom_site_type_symbol
_atom_site_fract_x
_atom_site_fract_y
_atom_site_fract_z
Br1 Br 0.22806(4) 0.21460(3) 0.96922(7)
N1 N 0.6412(2) 0.22667(19) 0.8801(4)
N2 N 0.7338(3) 0.2570(2) 0.8419(4)
O1 O 0.5368(2) -0.00371(16) 0.7199(3)
O2 O 0.7879(2) 0.33489(16) 1.0818(3)
C1 C 0.4944(3) 0.1250(2) 0.8210(4)
C2 C 0.4645(3) 0.0407(2) 0.7786(4)
C3 C 0.3676(3) 0.0090(3) 0.8015(5)
H1 H 0.3482 -0.0472 0.7755
C4 C 0.2991(4) 0.0593(3) 0.8621(5)
H2 H 0.2343 0.0370 0.8781
C5 C 0.3267(3) 0.1432(3) 0.8991(5)
C6 C 0.4236(3) 0.1749(2) 0.8806(5)
H3 H 0.4426 0.2310 0.9083
C7 C 0.5974(3) 0.1601(2) 0.8004(5)
H4 H 0.6312 0.1337 0.7288
C8 C 0.8017(3) 0.3143(2) 0.9467(5)
C9 C 0.8939(3) 0.3484(2) 0.8906(5)
C10 C 0.9913(4) 0.3735(3) 1.0113(6)
H5 H 0.9985 0.3663 1.1250
C11 C 1.0782(4) 0.4092(3) 0.9661(7)
H6 H 1.1431 0.4257 1.0505
C12 C 1.0721(4) 0.4211(2) 0.8012(7)
C13 C 0.9757(4) 0.3960(3) 0.6817(6)
H7 H 0.9693 0.4032 0.5683
C14 C 0.8864(3) 0.3599(2) 0.7235(5)
H8 H 0.8216 0.3435 0.6387
C15 C 1.1681(4) 0.4607(3) 0.7559(7)
H9 H 1.2285 0.4206 0.7742
H10 H 1.1943 0.5095 0.8253
H11 H 1.1431 0.4772 0.6392
C16 C 0.5067(4) -0.0888(2) 0.6651(5)
H12 H 0.5035 -0.1224 0.7595
H13 H 0.5622 -0.1118 0.6194
H14 H 0.4344 -0.0892 0.5798
H15 H 0.749(3) 0.236(2) 0.754(5)
loop_
_geom_bond_atom_site_label_1
_geom_bond_atom_site_label_2
_geom_bond_site_symmetry_1
_geom_bond_site_symmetry_2
Br1 C5 1_555 1_555
N1 N2 1_555 1_555
N2 C8 1_555 1_555
O1 C2 1_555 1_555
O2 C8 1_555 1_555
C1 C2 1_555 1_555
C2 C3 1_555 1_555
C3 H1 1_555 1_555
C4 C3 1_555 1_555
H2 C4 1_555 1_555
C5 C4 1_555 1_555
C6 C1 1_555 1_555
H3 C6 1_555 1_555
C7 N1 1_555 1_555
H4 C7 1_555 1_555
C8 C9 1_555 1_555
C9 C10 1_555 1_555
C10 H5 1_555 1_555
C11 C10 1_555 1_555
H6 C11 1_555 1_555
C12 C11 1_555 1_555
C13 C12 1_555 1_555
H7 C13 1_555 1_555
C14 C9 1_555 1_555
H8 C14 1_555 1_555
C15 C12 1_555 1_555
H9 C15 1_555 1_555
H10 C15 1_555 1_555
H11 C15 1_555 1_555
C16 O1 1_555 1_555
H12 C16 1_555 1_555
H13 C16 1_555 1_555
H14 C16 1_555 1_555
H15 N2 1_555 1_555
C1 C7 1_555 1_555
C5 C6 1_555 1_555
C13 C14 1_555 1_555

#END
