
#######################################################################
#
#                 Cambridge Crystallographic Data Centre
#                                CCDC 
#
#######################################################################
#
# If this CIF has been generated from an entry in the Cambridge 
# Structural Database, then it will include bibliographic, chemical, 
# crystal, experimental, refinement or atomic coordinate data resulting 
# from the CCDC's data processing and validation procedures.
#
#######################################################################

data_GEFYOH
_chemical_formula_moiety         'C49 H39 N3'
_chemical_name_systematic        
4'-(1-(4-t-Butylphenyl)-1H-phenanthro[9,10-d]imidazol-2-yl)-N,N-diphenylbiphenyl-4-amine
_symmetry_cell_setting           triclinic
_symmetry_space_group_name_H-M   'P -1'
_symmetry_Int_Tables_number      2
_space_group_name_Hall           '-P 1'
loop_
_symmetry_equiv_pos_site_id
_symmetry_equiv_pos_as_xyz
1 x,y,z
2 -x,-y,-z
_cell_length_a                   9.2677(4)
_cell_length_b                   10.9653(4)
_cell_length_c                   19.0829(7)
_cell_angle_alpha                82.027(3)
_cell_angle_beta                 76.142(3)
_cell_angle_gamma                81.632(3)
_cell_volume                     1851.85
_cell_formula_units_Z            2
loop_
_atom_site_label
_atom_site_type_symbol
_atom_site_fract_x
_atom_site_fract_y
_atom_site_fract_z
N1 N 0.31996(17) 0.09373(14) 0.01144(8)
N2 N 0.45542(17) 0.16946(14) 0.07462(8)
C1 C 0.4281(2) 0.16308(17) 0.00715(10)
C2 C 0.5022(2) 0.22789(17) -0.06213(10)
C3 C 0.6848(2) 0.35336(19) -0.13822(11)
H1 H 0.7680 0.3946 -0.1430
C4 C 0.1600(2) -0.02374(17) 0.11726(11)
C5 C 0.6238(2) 0.35662(18) -0.19817(10)
C6 C 0.2762(2) 0.05286(17) 0.08396(10)
C7 C 0.3573(2) 0.09770(17) 0.12448(10)
C8 C 0.4451(2) 0.22598(19) -0.12313(11)
H2 H 0.3654 0.1808 -0.1191
C9 C 0.0771(2) -0.06903(18) 0.07615(12)
H3 H 0.0997 -0.0521 0.0259
C10 C 0.3330(2) 0.07175(18) 0.20225(11)
C11 C 0.2195(2) -0.00565(19) 0.23588(11)
C12 C 0.5710(2) 0.22626(17) 0.09166(10)
C13 C 0.8363(2) 0.43976(19) -0.29162(11)
H4 H 0.9024 0.3909 -0.2666
C14 C 0.5030(2) 0.2889(2) -0.18915(11)
H5 H 0.4609 0.2862 -0.2284
C15 C 0.6831(2) 0.43281(18) -0.26670(11)
C16 C 0.1305(2) -0.05127(18) 0.19334(11)
C17 C 0.7021(2) 0.15500(19) 0.09984(11)
H6 H 0.7158 0.0711 0.0936
C18 C 0.6269(2) 0.29147(19) -0.07215(11)
H7 H 0.6714 0.2919 -0.0334
C19 C 0.5509(2) 0.35057(19) 0.10079(11)
H8 H 0.4619 0.3988 0.0959
C20 C 0.6640(2) 0.40314(19) 0.11722(12)
H9 H 0.6501 0.4873 0.1227
N3 N 0.8545(2) 0.67654(19) -0.45076(9)
C21 C 0.7971(2) 0.5935(2) -0.39046(11)
C22 C 0.8128(2) 0.2078(2) 0.11725(12)
H10 H 0.9002 0.1583 0.1235
C23 C 0.5895(2) 0.5072(2) -0.30649(12)
H11 H 0.4869 0.5035 -0.2920
C24 C 0.7822(2) 0.7094(2) -0.50947(11)
C25 C 0.7980(2) 0.33372(19) 0.12587(11)
C26 C 0.8919(2) 0.5169(2) -0.35218(11)
H12 H 0.9949 0.5180 -0.3678
C27 C 0.9972(3) 0.7163(2) -0.45785(12)
C28 C -0.0370(2) -0.1380(2) 0.10946(13)
H13 H -0.0918 -0.1681 0.0820
C29 C 0.0104(3) -0.1212(2) 0.22500(13)
H14 H -0.0144 -0.1394 0.2752
C30 C 0.6440(2) 0.5862(2) -0.36681(12)
H15 H 0.5779 0.6351 -0.3919
C31 C 0.4110(3) 0.1175(2) 0.24609(12)
H16 H 0.4832 0.1703 0.2246
C32 C -0.0702(3) -0.1626(2) 0.18408(14)
H17 H -0.1489 -0.2083 0.2068
C33 C 0.9237(3) 0.3890(2) 0.14457(14)
C34 C 0.1969(3) -0.0369(2) 0.31140(12)
H18 H 0.1252 -0.0892 0.3345
C35 C 0.3827(3) 0.0859(2) 0.31947(13)
H19 H 0.4347 0.1175 0.3476
C36 C 0.2769(4) 0.0072(3) 0.35170(13)
H20 H 0.2600 -0.0162 0.4015
C37 C 0.7716(3) 0.8309(3) -0.54096(13)
H21 H 0.8104 0.8905 -0.5229
C38 C 0.7254(3) 0.6225(2) -0.53766(13)
H22 H 0.7332 0.5400 -0.5180
C39 C 1.0303(3) 0.7653(2) -0.40197(14)
H23 H 0.9579 0.7762 -0.3595
C40 C 1.1058(3) 0.7042(2) -0.52142(14)
H24 H 1.0843 0.6724 -0.5600
C41 C 0.6464(3) 0.7798(3) -0.62595(14)
H25 H 0.6006 0.8036 -0.6649
C42 C 0.8900(4) 0.5241(3) 0.1500(3)
H26 H 0.8696 0.5656 0.1051
H27 H 0.9744 0.5547 0.1596
H28 H 0.8042 0.5394 0.1887
C43 C 0.6563(3) 0.6590(3) -0.59568(15)
H29 H 0.6163 0.6006 -0.6141
C44 C 1.2449(3) 0.7393(3) -0.52751(19)
H30 H 1.3167 0.7317 -0.5706
C45 C 1.1726(4) 0.7984(3) -0.40917(19)
H31 H 1.1957 0.8303 -0.3710
C46 C 0.7044(3) 0.8641(3) -0.59838(15)
H32 H 0.6983 0.9462 -0.6189
C47 C 0.9656(6) 0.3163(4) 0.2109(3)
H33 H 0.8849 0.3288 0.2524
H34 H 1.0539 0.3438 0.2185
H35 H 0.9849 0.2297 0.2043
C48 C 1.2793(4) 0.7844(3) -0.4722(2)
H36 H 1.3748 0.8059 -0.4766
C49 C 1.0668(3) 0.3680(4) 0.0846(2)
H37 H 1.0879 0.2815 0.0779
H38 H 1.1493 0.3944 0.0985
H39 H 1.0524 0.4151 0.0400
loop_
_geom_bond_atom_site_label_1
_geom_bond_atom_site_label_2
_geom_bond_site_symmetry_1
_geom_bond_site_symmetry_2
N1 C1 1_555 1_555
N2 C1 1_555 1_555
C1 C2 1_555 1_555
C2 C8 1_555 1_555
C3 H1 1_555 1_555
C4 C6 1_555 1_555
C5 C3 1_555 1_555
C6 N1 1_555 1_555
C7 N2 1_555 1_555
C8 H2 1_555 1_555
C9 C4 1_555 1_555
H3 C9 1_555 1_555
C10 C7 1_555 1_555
C11 C10 1_555 1_555
C12 N2 1_555 1_555
C13 H4 1_555 1_555
C14 C5 1_555 1_555
H5 C14 1_555 1_555
C15 C5 1_555 1_555
C16 C4 1_555 1_555
C17 C12 1_555 1_555
H6 C17 1_555 1_555
C18 C2 1_555 1_555
H7 C18 1_555 1_555
C19 C12 1_555 1_555
H8 C19 1_555 1_555
C20 C19 1_555 1_555
H9 C20 1_555 1_555
N3 C21 1_555 1_555
C21 C26 1_555 1_555
C22 C17 1_555 1_555
H10 C22 1_555 1_555
C23 C15 1_555 1_555
H11 C23 1_555 1_555
C24 N3 1_555 1_555
C25 C20 1_555 1_555
C26 C13 1_555 1_555
H12 C26 1_555 1_555
C27 N3 1_555 1_555
C28 C9 1_555 1_555
H13 C28 1_555 1_555
C29 C16 1_555 1_555
H14 C29 1_555 1_555
C30 C21 1_555 1_555
H15 C30 1_555 1_555
C31 C10 1_555 1_555
H16 C31 1_555 1_555
C32 C28 1_555 1_555
H17 C32 1_555 1_555
C33 C25 1_555 1_555
C34 C11 1_555 1_555
H18 C34 1_555 1_555
C35 C31 1_555 1_555
H19 C35 1_555 1_555
C36 C34 1_555 1_555
H20 C36 1_555 1_555
C37 C24 1_555 1_555
H21 C37 1_555 1_555
C38 C24 1_555 1_555
H22 C38 1_555 1_555
C39 C27 1_555 1_555
H23 C39 1_555 1_555
C40 C27 1_555 1_555
H24 C40 1_555 1_555
C41 H25 1_555 1_555
C42 C33 1_555 1_555
H26 C42 1_555 1_555
H27 C42 1_555 1_555
H28 C42 1_555 1_555
C43 C38 1_555 1_555
H29 C43 1_555 1_555
C44 C40 1_555 1_555
H30 C44 1_555 1_555
C45 C39 1_555 1_555
H31 C45 1_555 1_555
C46 C37 1_555 1_555
H32 C46 1_555 1_555
C47 C33 1_555 1_555
H33 C47 1_555 1_555
H34 C47 1_555 1_555
H35 C47 1_555 1_555
C48 C44 1_555 1_555
H36 C48 1_555 1_555
C49 C33 1_555 1_555
H37 C49 1_555 1_555
H38 C49 1_555 1_555
H39 C49 1_555 1_555
C3 C18 1_555 1_555
C6 C7 1_555 1_555
C8 C14 1_555 1_555
C11 C16 1_555 1_555
C13 C15 1_555 1_555
C22 C25 1_555 1_555
C23 C30 1_555 1_555
C29 C32 1_555 1_555
C35 C36 1_555 1_555
C41 C43 1_555 1_555
C41 C46 1_555 1_555
C45 C48 1_555 1_555

#END
