
#######################################################################
#
#                 Cambridge Crystallographic Data Centre
#                                CCDC 
#
#######################################################################
#
# If this CIF has been generated from an entry in the Cambridge 
# Structural Database, then it will include bibliographic, chemical, 
# crystal, experimental, refinement or atomic coordinate data resulting 
# from the CCDC's data processing and validation procedures.
#
#######################################################################

data_GEFYIB
_chemical_formula_moiety         'C39 H27 N3'
_chemical_name_systematic        
N,N-Diphenyl-4-(1-phenyl-1H-phenanthro[9,10-d]imidazol-2-yl)aniline
_symmetry_cell_setting           monoclinic
_symmetry_space_group_name_H-M   'P 21/c'
_symmetry_Int_Tables_number      14
_space_group_name_Hall           '-P 2ybc'
loop_
_symmetry_equiv_pos_site_id
_symmetry_equiv_pos_as_xyz
1 x,y,z
2 -x,1/2+y,1/2-z
3 -x,-y,-z
4 x,1/2-y,1/2+z
_cell_length_a                   17.6500(14)
_cell_length_b                   7.9259(7)
_cell_length_c                   21.0834(18)
_cell_angle_alpha                90
_cell_angle_beta                 105.958(8)
_cell_angle_gamma                90
_cell_volume                     2835.74
_cell_formula_units_Z            4
loop_
_atom_site_label
_atom_site_type_symbol
_atom_site_fract_x
_atom_site_fract_y
_atom_site_fract_z
N1 N 0.44412(11) 0.7263(2) 0.44560(9)
N2 N 0.47331(11) 0.7677(2) 0.55468(9)
N3 N 0.82327(11) 0.7618(2) 0.49580(9)
C1 C 0.68693(13) 0.6665(3) 0.45135(12)
H1 H 0.7015 0.6042 0.4192
C2 C 0.37580(13) 0.7315(3) 0.46529(11)
C3 C 0.60950(13) 0.6660(3) 0.45342(11)
H2 H 0.5725 0.6048 0.4219
C4 C 0.29645(14) 0.7234(3) 0.42363(12)
C5 C 0.39165(13) 0.7562(3) 0.53206(11)
C6 C 0.25235(14) 0.7477(3) 0.52598(12)
C7 C 0.71919(14) 0.8507(3) 0.54414(12)
H3 H 0.7558 0.9150 0.5748
C8 C 0.64185(13) 0.8477(3) 0.54646(12)
H4 H 0.6273 0.9092 0.5788
C9 C 0.84583(14) 0.7263(3) 0.43783(12)
C10 C 0.88385(14) 0.7921(3) 0.55528(12)
C11 C 0.58530(13) 0.7542(3) 0.50119(12)
C12 C 0.23508(14) 0.7354(3) 0.45411(11)
C13 C 0.50177(13) 0.7487(3) 0.50022(12)
C14 C 0.33143(14) 0.7595(3) 0.56599(11)
C15 C 0.74343(13) 0.7596(3) 0.49700(11)
C16 C 0.19261(15) 0.7441(3) 0.55795(13)
H5 H 0.1404 0.7391 0.5325
C17 C 0.34566(15) 0.7633(3) 0.63496(12)
H6 H 0.3972 0.7711 0.6615
C18 C 0.20806(16) 0.7477(3) 0.62531(14)
H7 H 0.1669 0.7447 0.6450
C19 C 0.51908(13) 0.7883(3) 0.62202(12)
C20 C 0.28517(16) 0.7557(3) 0.66381(13)
H8 H 0.2960 0.7560 0.7095
C21 C 0.91109(16) 0.6261(3) 0.44162(14)
H9 H 0.9399 0.5846 0.4824
C22 C 0.15763(15) 0.7400(3) 0.41293(14)
H10 H 0.1159 0.7473 0.4317
C23 C 0.27967(16) 0.7145(4) 0.35519(13)
H11 H 0.3206 0.7048 0.3355
C24 C 0.88468(16) 0.7090(3) 0.61325(13)
H12 H 0.8451 0.6324 0.6142
C25 C 0.94338(14) 0.9044(3) 0.55472(13)
H13 H 0.9431 0.9605 0.5159
C26 C 0.52015(15) 0.9438(3) 0.65163(13)
H14 H 0.4928 1.0344 0.6279
C27 C 0.20352(18) 0.7198(5) 0.31675(14)
H15 H 0.1927 0.7138 0.2711
C28 C 1.00400(18) 0.8543(5) 0.66872(15)
H16 H 1.0438 0.8761 0.7071
C29 C 0.80393(16) 0.7892(4) 0.37734(14)
H17 H 0.7608 0.8595 0.3740
C30 C 1.00368(16) 0.9341(4) 0.61153(15)
H18 H 1.0440 1.0088 0.6105
C31 C 0.55962(15) 0.6537(4) 0.65578(13)
H19 H 0.5590 0.5498 0.6351
C32 C 0.14231(17) 0.7341(4) 0.34596(14)
H20 H 0.0905 0.7397 0.3197
C33 C 0.60147(18) 0.6751(5) 0.72102(16)
H21 H 0.6293 0.5851 0.7447
C34 C 0.8271(2) 0.7459(4) 0.32120(15)
H22 H 0.7988 0.7865 0.2801
C35 C 0.94474(19) 0.7405(4) 0.66965(14)
H23 H 0.9454 0.6848 0.7086
C36 C 0.93397(19) 0.5869(4) 0.38626(17)
H24 H 0.9787 0.5213 0.3899
C37 C 0.56220(19) 0.9634(5) 0.71678(15)
H25 H 0.5634 1.0676 0.7373
C38 C 0.6020(2) 0.8300(6) 0.75115(16)
H26 H 0.6297 0.8433 0.7953
C39 C 0.8917(2) 0.6433(5) 0.32617(18)
H27 H 0.9062 0.6130 0.2885
loop_
_geom_bond_atom_site_label_1
_geom_bond_atom_site_label_2
_geom_bond_site_symmetry_1
_geom_bond_site_symmetry_2
N1 C2 1_555 1_555
N2 C5 1_555 1_555
N3 C9 1_555 1_555
C1 H1 1_555 1_555
C2 C4 1_555 1_555
C3 C1 1_555 1_555
H2 C3 1_555 1_555
C4 C12 1_555 1_555
C5 C2 1_555 1_555
C6 C12 1_555 1_555
C7 H3 1_555 1_555
C8 C7 1_555 1_555
H4 C8 1_555 1_555
C9 C21 1_555 1_555
C10 N3 1_555 1_555
C11 C3 1_555 1_555
C12 C22 1_555 1_555
C13 N1 1_555 1_555
C14 C5 1_555 1_555
C15 N3 1_555 1_555
C16 C6 1_555 1_555
H5 C16 1_555 1_555
C17 C14 1_555 1_555
H6 C17 1_555 1_555
C18 C16 1_555 1_555
H7 C18 1_555 1_555
C19 N2 1_555 1_555
C20 C17 1_555 1_555
H8 C20 1_555 1_555
C21 H9 1_555 1_555
C22 H10 1_555 1_555
C23 C4 1_555 1_555
H11 C23 1_555 1_555
C24 C10 1_555 1_555
H12 C24 1_555 1_555
C25 C10 1_555 1_555
H13 C25 1_555 1_555
C26 C19 1_555 1_555
H14 C26 1_555 1_555
C27 C23 1_555 1_555
H15 C27 1_555 1_555
C28 H16 1_555 1_555
C29 C9 1_555 1_555
H17 C29 1_555 1_555
C30 C25 1_555 1_555
H18 C30 1_555 1_555
C31 C19 1_555 1_555
H19 C31 1_555 1_555
C32 C22 1_555 1_555
H20 C32 1_555 1_555
C33 C31 1_555 1_555
H21 C33 1_555 1_555
C34 C29 1_555 1_555
H22 C34 1_555 1_555
C35 C24 1_555 1_555
H23 C35 1_555 1_555
C36 C21 1_555 1_555
H24 C36 1_555 1_555
C37 C26 1_555 1_555
H25 C37 1_555 1_555
C38 C33 1_555 1_555
H26 C38 1_555 1_555
C39 C34 1_555 1_555
H27 C39 1_555 1_555
N2 C13 1_555 1_555
C1 C15 1_555 1_555
C6 C14 1_555 1_555
C7 C15 1_555 1_555
C8 C11 1_555 1_555
C11 C13 1_555 1_555
C18 C20 1_555 1_555
C27 C32 1_555 1_555
C28 C30 1_555 1_555
C28 C35 1_555 1_555
C36 C39 1_555 1_555
C37 C38 1_555 1_555

#END
