
#######################################################################
#
#                 Cambridge Crystallographic Data Centre
#                                CCDC 
#
#######################################################################
#
# If this CIF has been generated from an entry in the Cambridge 
# Structural Database, then it will include bibliographic, chemical, 
# crystal, experimental, refinement or atomic coordinate data resulting 
# from the CCDC's data processing and validation procedures.
#
#######################################################################

data_GEGCEB
_chemical_formula_moiety         'C27 H22 O1 S2'
_chemical_name_systematic        
3,3-bis(4-(Methylthio)phenyl)-3H-naphtho(2,1-b)pyran
_symmetry_cell_setting           monoclinic
_symmetry_space_group_name_H-M   'P 21'
_symmetry_Int_Tables_number      4
_space_group_name_Hall           'P 2yb'
loop_
_symmetry_equiv_pos_site_id
_symmetry_equiv_pos_as_xyz
1 x,y,z
2 -x,1/2+y,-z
_cell_length_a                   10.7471(17)
_cell_length_b                   20.113(3)
_cell_length_c                   11.5299(18)
_cell_angle_alpha                90
_cell_angle_beta                 117.688(2)
_cell_angle_gamma                90
_cell_volume                     2206.88
_exptl_crystal_colour            colorless
_exptl_crystal_description       Block
_chemical_melting_point          142-143deg.C
_cell_formula_units_Z            4
_chemical_properties_physical    light-sensitive
_exptl_crystal_preparation       photochromic
loop_
_atom_site_label
_atom_site_type_symbol
_atom_site_fract_x
_atom_site_fract_y
_atom_site_fract_z
S1 S 0.3579(2) 0.54173(14) -0.20043(17)
S2 S 1.3650(2) 0.50948(16) 0.4582(3)
O1 O 0.7397(4) 0.51466(18) 0.4432(3)
C1 C 0.9198(6) 0.6392(4) 0.8530(6)
H1 H 0.9077 0.6799 0.8108
C2 C 0.9703(8) 0.6382(5) 0.9842(8)
H2 H 0.9909 0.6780 1.0304
C3 C 0.9923(9) 0.5779(6) 1.0516(7)
H3 H 1.0302 0.5774 1.1424
C4 C 0.9578(8) 0.5207(5) 0.9838(7)
H4 H 0.9691 0.4809 1.0287
C5 C 0.9048(6) 0.5189(4) 0.8461(6)
C6 C 0.8722(7) 0.4595(4) 0.7759(7)
H5 H 0.8867 0.4194 0.8205
C7 C 0.8198(6) 0.4591(3) 0.6439(6)
H6 H 0.7972 0.4191 0.5984
C8 C 0.8001(5) 0.5184(3) 0.5770(5)
C9 C 0.8306(5) 0.5789(3) 0.6406(5)
C10 C 0.8846(5) 0.5804(3) 0.7782(5)
C11 C 0.7909(5) 0.6385(3) 0.5566(6)
H7 H 0.7865 0.6798 0.5908
C12 C 0.7615(5) 0.6328(3) 0.4326(6)
H8 H 0.7327 0.6700 0.3786
C13 C 0.7739(5) 0.5676(3) 0.3780(5)
C14 C 0.6663(5) 0.5604(3) 0.2339(5)
C15 C 0.6938(6) 0.5845(4) 0.1365(6)
H9 H 0.7798 0.6048 0.1591
C16 C 0.5959(7) 0.5794(5) 0.0048(6)
H10 H 0.6169 0.5966 -0.0589
C17 C 0.4687(6) 0.5492(4) -0.0318(6)
C18 C 0.4379(6) 0.5263(4) 0.0662(6)
H11 H 0.3516 0.5065 0.0441
C19 C 0.5365(5) 0.5330(3) 0.1964(5)
H12 H 0.5137 0.5185 0.2607
C20 C 0.2082(8) 0.5013(5) -0.2116(8)
H13 H 0.1793 0.5221 -0.1530
H14 H 0.2296 0.4554 -0.1881
H15 H 0.1337 0.5044 -0.2997
C21 C 0.9236(5) 0.5554(3) 0.3985(5)
C22 C 0.9700(6) 0.4912(3) 0.4007(6)
H16 H 0.9098 0.4558 0.3894
C23 C 1.1043(7) 0.4789(4) 0.4195(7)
H17 H 1.1341 0.4353 0.4216
C24 C 1.1945(6) 0.5306(4) 0.4352(6)
C25 C 1.1496(6) 0.5938(4) 0.4319(6)
H18 H 1.2102 0.6291 0.4430
C26 C 1.0139(6) 0.6068(3) 0.4121(6)
H19 H 0.9840 0.6505 0.4080
C27 C 1.4625(9) 0.5735(5) 0.5422(9)
H20 H 1.4648 0.5754 0.6264
H21 H 1.4228 0.6139 0.4952
H22 H 1.5563 0.5683 0.5536
S3 S 0.79164(19) 0.81101(11) 0.7236(2)
S4 S -0.20024(18) 0.79372(16) 0.08886(16)
O2 O 0.1732(4) 0.83770(19) 0.7339(3)
C28 C 0.3466(7) 0.7144(5) 1.1433(7)
H23 H 0.3236 0.6736 1.1005
C29 C 0.4109(9) 0.7172(7) 1.2801(9)
H24 H 0.4272 0.6782 1.3282
C30 C 0.4506(10) 0.7782(6) 1.3449(9)
H25 H 0.4995 0.7787 1.4359
C31 C 0.4197(8) 0.8366(7) 1.2786(8)
H26 H 0.4412 0.8768 1.3236
C32 C 0.3531(7) 0.8354(5) 1.1381(6)
C33 C 0.3272(7) 0.8945(5) 1.0687(7)
H27 H 0.3501 0.9346 1.1141
C34 C 0.2689(6) 0.8953(4) 0.9353(6)
H28 H 0.2514 0.9352 0.8898
C35 C 0.2362(5) 0.8343(3) 0.8687(5)
C36 C 0.2548(5) 0.7743(3) 0.9301(5)
C37 C 0.3171(6) 0.7739(4) 1.0709(6)
C38 C 0.2096(6) 0.7158(3) 0.8511(6)
H29 H 0.2002 0.6759 0.8870
C39 C 0.1812(5) 0.7186(3) 0.7265(5)
H30 H 0.1465 0.6815 0.6729
C40 C 0.2058(5) 0.7827(3) 0.6728(5)
C41 C 0.3581(4) 0.7900(3) 0.6961(4)
C42 C 0.4434(6) 0.7356(3) 0.7154(5)
H31 H 0.4114 0.6933 0.7205
C43 C 0.5755(6) 0.7438(3) 0.7270(6)
H32 H 0.6310 0.7065 0.7385
C44 C 0.6277(5) 0.8044(3) 0.7223(5)
C45 C 0.5433(6) 0.8594(3) 0.7053(6)
H33 H 0.5763 0.9016 0.7017
C46 C 0.4102(5) 0.8518(3) 0.6938(5)
H34 H 0.3554 0.8891 0.6843
C47 C 0.8734(8) 0.8767(5) 0.8301(8)
H35 H 0.8758 0.8679 0.9130
H36 H 0.8219 0.9170 0.7938
H37 H 0.9676 0.8816 0.8424
C48 C 0.1029(5) 0.7885(3) 0.5252(5)
C49 C -0.0379(5) 0.7994(3) 0.4851(5)
H38 H -0.0692 0.8047 0.5474
C50 C -0.1330(5) 0.8024(4) 0.3534(5)
H39 H -0.2274 0.8105 0.3279
C51 C -0.0890(5) 0.7935(3) 0.2592(5)
C52 C 0.0509(5) 0.7815(3) 0.2996(5)
H40 H 0.0818 0.7750 0.2373
C53 C 0.1462(5) 0.7789(3) 0.4304(5)
H41 H 0.2404 0.7706 0.4555
C54 C -0.3698(6) 0.7938(5) 0.0719(6)
H42 H -0.3898 0.8367 0.0961
H43 H -0.3773 0.7604 0.1278
H44 H -0.4358 0.7845 -0.0175
loop_
_geom_bond_atom_site_label_1
_geom_bond_atom_site_label_2
_geom_bond_site_symmetry_1
_geom_bond_site_symmetry_2
S1 C17 1_555 1_555
S2 C24 1_555 1_555
S3 C44 1_555 1_555
S4 C51 1_555 1_555
O1 C8 1_555 1_555
O2 C35 1_555 1_555
C1 H1 1_555 1_555
C2 C1 1_555 1_555
H2 C2 1_555 1_555
C3 C2 1_555 1_555
H3 C3 1_555 1_555
C4 C3 1_555 1_555
H4 C4 1_555 1_555
C5 C4 1_555 1_555
C6 C5 1_555 1_555
H5 C6 1_555 1_555
C7 C6 1_555 1_555
H6 C7 1_555 1_555
C8 C7 1_555 1_555
C9 C8 1_555 1_555
C10 C1 1_555 1_555
C11 C9 1_555 1_555
H7 C11 1_555 1_555
C12 C11 1_555 1_555
H8 C12 1_555 1_555
C13 O1 1_555 1_555
C14 C13 1_555 1_555
C15 C14 1_555 1_555
H9 C15 1_555 1_555
C16 C15 1_555 1_555
H10 C16 1_555 1_555
C17 C16 1_555 1_555
C18 C17 1_555 1_555
H11 C18 1_555 1_555
C19 C14 1_555 1_555
H12 C19 1_555 1_555
C20 S1 1_555 1_555
H13 C20 1_555 1_555
H14 C20 1_555 1_555
H15 C20 1_555 1_555
C21 C13 1_555 1_555
C22 C21 1_555 1_555
H16 C22 1_555 1_555
C23 C22 1_555 1_555
H17 C23 1_555 1_555
C24 C23 1_555 1_555
C25 C24 1_555 1_555
H18 C25 1_555 1_555
C26 C21 1_555 1_555
H19 C26 1_555 1_555
C27 S2 1_555 1_555
H20 C27 1_555 1_555
H21 C27 1_555 1_555
H22 C27 1_555 1_555
C28 H23 1_555 1_555
C29 C28 1_555 1_555
H24 C29 1_555 1_555
C30 C29 1_555 1_555
H25 C30 1_555 1_555
C31 C30 1_555 1_555
H26 C31 1_555 1_555
C32 C31 1_555 1_555
C33 C32 1_555 1_555
H27 C33 1_555 1_555
C34 C33 1_555 1_555
H28 C34 1_555 1_555
C35 C34 1_555 1_555
C36 C35 1_555 1_555
C37 C28 1_555 1_555
C38 C36 1_555 1_555
H29 C38 1_555 1_555
C39 C38 1_555 1_555
H30 C39 1_555 1_555
C40 O2 1_555 1_555
C41 C40 1_555 1_555
C42 C41 1_555 1_555
H31 C42 1_555 1_555
C43 C42 1_555 1_555
H32 C43 1_555 1_555
C44 C43 1_555 1_555
C45 C44 1_555 1_555
H33 C45 1_555 1_555
C46 C41 1_555 1_555
H34 C46 1_555 1_555
C47 S3 1_555 1_555
H35 C47 1_555 1_555
H36 C47 1_555 1_555
H37 C47 1_555 1_555
C48 C40 1_555 1_555
C49 C48 1_555 1_555
H38 C49 1_555 1_555
C50 C49 1_555 1_555
H39 C50 1_555 1_555
C51 C50 1_555 1_555
C52 C51 1_555 1_555
H40 C52 1_555 1_555
C53 C48 1_555 1_555
H41 C53 1_555 1_555
C54 S4 1_555 1_555
H42 C54 1_555 1_555
H43 C54 1_555 1_555
H44 C54 1_555 1_555
C5 C10 1_555 1_555
C9 C10 1_555 1_555
C12 C13 1_555 1_555
C18 C19 1_555 1_555
C25 C26 1_555 1_555
C32 C37 1_555 1_555
C36 C37 1_555 1_555
C39 C40 1_555 1_555
C45 C46 1_555 1_555
C52 C53 1_555 1_555

#END
