
#######################################################################
#
#                 Cambridge Crystallographic Data Centre
#                                CCDC 
#
#######################################################################
#
# If this CIF has been generated from an entry in the Cambridge 
# Structural Database, then it will include bibliographic, chemical, 
# crystal, experimental, refinement or atomic coordinate data resulting 
# from the CCDC's data processing and validation procedures.
#
#######################################################################

data_GEGCIF
_chemical_formula_moiety         '4(C27 H20 Cl2 O3),C14 H13 Cl1 O2'
_chemical_name_systematic        
"tetrakis(3,3-bis(3-Chloro-4-methoxyphenyl)-3H-naphtho(2,1-b)pyran) 3-chloro-4,4'-dimethoxybiphenyl clathrate"
_symmetry_cell_setting           monoclinic
_symmetry_space_group_name_H-M   'C 2/c'
_symmetry_Int_Tables_number      15
_space_group_name_Hall           '-C 2yn'
loop_
_symmetry_equiv_pos_site_id
_symmetry_equiv_pos_as_xyz
1 x,y,z
2 1/2+x,1/2+y,z
3 -x,y,1/2-z
4 1/2-x,1/2+y,1/2-z
5 -x,-y,-z
6 1/2-x,1/2-y,-z
7 x,-y,1/2+z
8 1/2+x,1/2-y,1/2+z
_cell_length_a                   23.414(11)
_cell_length_b                   8.624(4)
_cell_length_c                   27.276(12)
_cell_angle_alpha                90
_cell_angle_beta                 109.192(8)
_cell_angle_gamma                90
_cell_volume                     5201.53
_exptl_crystal_colour            colorless
_exptl_crystal_description       block
_cell_formula_units_Z            2
_chemical_properties_physical    light-sensitive
_exptl_crystal_recrystallization_method ethanol
_exptl_crystal_preparation       photochromic
loop_
_atom_site_label
_atom_site_type_symbol
_atom_site_fract_x
_atom_site_fract_y
_atom_site_fract_z
O4 O 0.4937(5) 0.1840(13) 0.4837(5)
C28 C 0.4833(12) 0.114(2) 0.4346(8)
H21 H 0.4806 0.0038 0.4378
H22 H 0.4463 0.1525 0.4102
H23 H 0.5164 0.1387 0.4225
C29 C 0.4953(4) 0.3449(11) 0.4835(4)
C30 C 0.4817(3) 0.4162(10) 0.5241(3)
C31 C 0.5180(3) 0.4230(11) 0.4723(3)
H25 H 0.5274 0.3738 0.4444
C32 C 0.5040(4) 0.3335(10) 0.5092(4)
C33 C 0.4904(6) 0.4048(14) 0.5497(4)
H26 H 0.4807 0.3430 0.5752
C34 C 0.5093(6) 0.4344(14) 0.4466(4)
H27 H 0.5187 0.3852 0.4187
Cl3 Cl 0.4652(4) 0.3028(11) 0.5673(3)
O5 O 0.4895(6) 0.3194(14) 0.5053(5)
C35 C 0.4740(15) 0.396(2) 0.5444(9)
H28 H 0.4724 0.5058 0.5386
H29 H 0.4347 0.3592 0.5429
H30 H 0.5026 0.3733 0.5779
C36 C 0.4915(5) 0.1595(12) 0.5067(5)
C37 C 0.5030(6) -0.0678(14) 0.4501(5)
H31 H 0.5003 -0.1154 0.4176
C38 C 0.5014(6) 0.0927(14) 0.4539(5)
H32 H 0.4976 0.1560 0.4241
C39 C 0.5053(4) 0.1616(12) 0.5010(6)
C40 C 0.4892(5) -0.0699(12) 0.4558(5)
H33 H 0.4866 -0.1175 0.4233
C41 C 0.4876(5) 0.0907(12) 0.4596(5)
H34 H 0.4839 0.1540 0.4298
C30D C 0.5183(3) 0.5838(10) 0.4759(3)
C31D C 0.4820(3) 0.5770(11) 0.5277(3)
C33D C 0.5096(6) 0.5952(14) 0.4503(4)
C34D C 0.4907(6) 0.5656(14) 0.5534(4)
C35D C 0.5260(15) 0.604(2) 0.4556(9)
H28D H 0.5276 0.4942 0.4614
C36D C 0.5085(5) -0.1595(12) 0.4933(5)
C37D C 0.4970(6) 0.0678(14) 0.5499(5)
C39D C 0.4947(4) -0.1616(12) 0.4990(6)
C40D C 0.5108(5) 0.0699(12) 0.5442(5)
Cl1 Cl 0.44501(6) 1.43124(13) 0.67214(6)
Cl2 Cl 0.30535(10) 0.40380(18) 0.51447(6)
O1 O 0.36998(12) 0.7329(3) 0.67941(10)
O2 O 0.55990(14) 1.2754(3) 0.69870(13)
O3 O 0.33035(17) 0.6228(4) 0.44488(12)
C1 C 0.36070(18) 0.7461(4) 0.72648(15)
C2 C 0.3950(2) 0.6470(5) 0.76577(16)
H1 H 0.4237 0.5815 0.7599
C3 C 0.3861(2) 0.6471(5) 0.81289(18)
H2 H 0.4093 0.5821 0.8391
C4 C 0.3422(2) 0.7443(5) 0.82250(17)
C5 C 0.3310(3) 0.7443(6) 0.87121(19)
H3 H 0.3539 0.6811 0.8981
C6 C 0.2872(3) 0.8361(7) 0.8783(2)
H4 H 0.2802 0.8346 0.9099
C7 C 0.2530(3) 0.9320(7) 0.8387(2)
H5 H 0.2231 0.9938 0.8442
C8 C 0.2621(2) 0.9374(6) 0.7921(2)
H6 H 0.2388 1.0037 0.7664
C9 C 0.30696(19) 0.8428(5) 0.78199(16)
C10 C 0.31719(18) 0.8428(5) 0.73283(15)
C11 C 0.2825(2) 0.9345(5) 0.68797(17)
H7 H 0.2479 0.9861 0.6885
C12 C 0.29967(19) 0.9452(5) 0.64665(17)
H8 H 0.2761 1.0013 0.6180
C13 C 0.35650(19) 0.8683(5) 0.64507(15)
C14 C 0.41147(18) 0.9759(4) 0.66266(14)
C15 C 0.4050(2) 1.1361(5) 0.66157(15)
H9 H 0.3665 1.1793 0.6521
C16 C 0.4550(2) 1.2324(5) 0.67437(16)
C17 C 0.51365(19) 1.1714(5) 0.68830(15)
C18 C 0.5203(2) 1.0109(5) 0.69029(16)
H10 H 0.5587 0.9672 0.7004
C19 C 0.4699(2) 0.9165(5) 0.67732(16)
H11 H 0.4752 0.8095 0.6784
C20 C 0.6186(2) 1.2161(6) 0.7133(2)
H12 H 0.6263 1.1557 0.7444
H13 H 0.6470 1.3001 0.7196
H14 H 0.6228 1.1517 0.6860
C21 C 0.34783(19) 0.8053(5) 0.59092(15)
C22 C 0.3548(3) 0.8992(5) 0.55230(17)
H15 H 0.3645 1.0031 0.5596
C23 C 0.3479(2) 0.8439(6) 0.50306(17)
H16 H 0.3526 0.9108 0.4779
C24 C 0.3341(2) 0.6896(6) 0.49107(16)
C25 C 0.3247(2) 0.5966(5) 0.52881(18)
C26 C 0.3317(2) 0.6515(5) 0.57784(16)
H17 H 0.3257 0.5851 0.6025
C27 C 0.3484(3) 0.7112(8) 0.4089(2)
H18 H 0.3224 0.7997 0.3982
H19 H 0.3458 0.6486 0.3791
H20 H 0.3894 0.7454 0.4248
H24? H 0.4721 0.3544 0.5495
Cl4? Cl 0.4811(8) 1.211(2) 0.4095(7)
loop_
_geom_bond_atom_site_label_1
_geom_bond_atom_site_label_2
_geom_bond_site_symmetry_1
_geom_bond_site_symmetry_2
Cl1 C16 1_555 1_555
Cl2 C25 1_555 1_555
O1 C1 1_555 1_555
O2 C17 1_555 1_555
O3 C24 1_555 1_555
C1 C2 1_555 1_555
C2 H1 1_555 1_555
C3 C2 1_555 1_555
H2 C3 1_555 1_555
C4 C3 1_555 1_555
C5 C4 1_555 1_555
H3 C5 1_555 1_555
C6 C5 1_555 1_555
H4 C6 1_555 1_555
C7 C6 1_555 1_555
H5 C7 1_555 1_555
C8 C7 1_555 1_555
H6 C8 1_555 1_555
C9 C4 1_555 1_555
C10 C1 1_555 1_555
C11 C10 1_555 1_555
H7 C11 1_555 1_555
C12 C11 1_555 1_555
H8 C12 1_555 1_555
C13 O1 1_555 1_555
C14 C13 1_555 1_555
C15 C14 1_555 1_555
H9 C15 1_555 1_555
C16 C15 1_555 1_555
C17 C16 1_555 1_555
C18 C17 1_555 1_555
H10 C18 1_555 1_555
C19 C14 1_555 1_555
H11 C19 1_555 1_555
C20 O2 1_555 1_555
H12 C20 1_555 1_555
H13 C20 1_555 1_555
H14 C20 1_555 1_555
C21 C13 1_555 1_555
C22 C21 1_555 1_555
H15 C22 1_555 1_555
C23 C22 1_555 1_555
H16 C23 1_555 1_555
C24 C23 1_555 1_555
C25 C24 1_555 1_555
C26 C21 1_555 1_555
H17 C26 1_555 1_555
C27 O3 1_555 1_555
H18 C27 1_555 1_555
H19 C27 1_555 1_555
H20 C27 1_555 1_555
O4 C28 1_555 1_555
C28 H21 1_555 1_555
H21 C37 1_555 1_555
H22 C28 1_555 1_555
H23 C28 1_555 1_555
C29 O4 1_555 1_555
C30 C29 1_555 1_555
C31 C29 1_555 1_555
H25 C31 1_555 1_555
C32 O4 1_555 1_555
C33 C30 1_555 1_555
H26 C33 1_555 1_555
C34 C29 1_555 1_555
H27 H25 1_555 1_555
Cl3 C30 1_555 1_555
O5 O4 1_555 1_555
C35 C30 1_555 1_555
H28 C30 1_555 1_555
H29 Cl3 1_555 1_555
H30 C33 1_555 1_555
C36 O4 1_555 1_555
C37 C28 1_555 1_555
H31 C37 1_555 1_555
C38 O4 1_555 1_555
H32 C28 1_555 1_555
C39 O4 1_555 1_555
C40 C28 1_555 1_555
H33 C37 1_555 1_555
C41 O4 1_555 1_555
H34 C28 1_555 1_555
C30D C31 1_555 1_555
C31D C30 1_555 1_555
C33D C31 1_555 1_555
C34D C30 1_555 1_555
C35D C31 1_555 1_555
H28D C31 1_555 1_555
C36D C37 1_555 1_555
C37D C36 1_555 1_555
C39D C37 1_555 1_555
C40D C36 1_555 1_555
C8 C9 1_555 1_555
C9 C10 1_555 1_555
C12 C13 1_555 1_555
C18 C19 1_555 1_555
C25 C26 1_555 1_555
C28 C38 1_555 1_555
C28 C41 1_555 1_555
H21 C38 1_555 1_555
H21 C40 1_555 1_555
H21 C41 1_555 1_555
H23 C38 1_555 1_555
H23 H32 1_555 1_555
H23 H34 1_555 1_555
C29 C32 1_555 1_555
C29 O5 1_555 1_555
C29 C36 1_555 1_555
C29 C39 1_555 1_555
C30 C32 1_555 1_555
C30 O5 1_555 1_555
C31 C32 1_555 1_555
C31 C34 1_555 1_555
C31 O5 1_555 1_555
H25 C34 1_555 1_555
C32 C33 1_555 1_555
C32 O5 1_555 1_555
C32 C35 1_555 1_555
C32 C36 1_555 1_555
C32 C39 1_555 1_555
C33 Cl3 1_555 1_555
C33 O5 1_555 1_555
C33 C35 1_555 1_555
C33 H28 1_555 1_555
C33 C31D 1_555 1_555
C33 C34D 1_555 1_555
H26 Cl3 1_555 1_555
H26 C35 1_555 1_555
H26 H30 1_555 1_555
C34 H27 1_555 1_555
C34 C30D 1_555 1_555
C34 C33D 1_555 1_555
C34 C35D 1_555 1_555
C34 H28D 1_555 1_555
Cl3 O5 1_555 1_555
Cl3 C35 1_555 1_555
Cl3 H30 1_555 1_555
O5 C35 1_555 1_555
O5 C36 1_555 1_555
O5 C39 1_555 1_555
C35 H28 1_555 1_555
C35 H29 1_555 1_555
C35 H30 1_555 1_555
C35 C31D 1_555 1_555
C35 C34D 1_555 1_555
H28 C31D 1_555 1_555
H28 C34D 1_555 1_555
C36 C38 1_555 1_555
C36 C39 1_555 1_555
C36 C41 1_555 1_555
C37 C38 1_555 1_555
C37 C40 1_555 1_555
C37 C41 1_555 1_555
H31 C40 1_555 1_555
H31 H33 1_555 1_555
C38 H32 1_555 1_555
C38 C39 1_555 1_555
C38 C40 1_555 1_555
C38 C41 1_555 1_555
C38 H34 1_555 1_555
H32 C41 1_555 1_555
H32 H34 1_555 1_555
C39 C41 1_555 1_555
C39 C37D 1_555 1_555
C39 C40D 1_555 1_555
C40 H33 1_555 1_555
C40 C41 1_555 1_555
C40 C36D 1_555 1_555
C40 C39D 1_555 1_555
C41 H34 1_555 1_555
C30D C33D 1_555 1_555
C30D C35D 1_555 1_555
C30D H28D 1_555 1_555
C31D C34D 1_555 1_555
C33D C35D 1_555 1_555
C33D H28D 1_555 1_555
C35D H28D 1_555 1_555
C36D C39D 1_555 1_555
C37D C40D 1_555 1_555

#END
