
#######################################################################
#
#                 Cambridge Crystallographic Data Centre
#                                CCDC 
#
#######################################################################
#
# If this CIF has been generated from an entry in the Cambridge 
# Structural Database, then it will include bibliographic, chemical, 
# crystal, experimental, refinement or atomic coordinate data resulting 
# from the CCDC's data processing and validation procedures.
#
#######################################################################

data_GEGFOP
_chemical_formula_moiety         'C36 H29 N1 O4'
_chemical_name_systematic        
9-n-Butyl-7,11-bis(4-methoxyphenyl)-8H-acenaphtho[1,2-f]isoindole-8,10(9H)-dione
_symmetry_cell_setting           monoclinic
_symmetry_space_group_name_H-M   'P 21/c'
_symmetry_Int_Tables_number      14
_space_group_name_Hall           '-P 2ybc'
loop_
_symmetry_equiv_pos_site_id
_symmetry_equiv_pos_as_xyz
1 x,y,z
2 -x,1/2+y,1/2-z
3 -x,-y,-z
4 x,1/2-y,1/2+z
_cell_length_a                   12.466(3)
_cell_length_b                   14.607(3)
_cell_length_c                   17.777(6)
_cell_angle_alpha                90
_cell_angle_beta                 122.27(2)
_cell_angle_gamma                90
_cell_volume                     2737.04
_exptl_crystal_colour            yellow
_exptl_crystal_description       line
_cell_formula_units_Z            4
loop_
_atom_site_label
_atom_site_type_symbol
_atom_site_fract_x
_atom_site_fract_y
_atom_site_fract_z
O1 O 0.1871(3) -0.43358(17) 0.19611(19)
O2 O 0.6518(2) 0.13975(18) 0.47852(18)
O3 O 0.5569(2) -0.16272(18) 0.41847(17)
O4 O 0.4990(2) 0.50914(18) 0.38858(18)
N1 N 0.6309(3) -0.0167(2) 0.4681(2)
C1 C 0.7577(3) -0.0378(3) 0.5439(3)
H1 H 0.7564 -0.0993 0.5669
H2 H 0.7801 0.0071 0.5919
C2 C 0.8714(4) -0.2070(3) 0.5031(3)
H3 H 0.8644 -0.2533 0.4608
H4 H 0.8067 -0.2183 0.5173
H5 H 0.9559 -0.2104 0.5576
C3 C 0.8596(4) -0.0360(3) 0.5212(3)
H6 H 0.8531 0.0226 0.4910
H7 H 0.9439 -0.0375 0.5773
C4 C -0.1221(4) 0.2088(3) 0.0662(3)
H8 H -0.2060 0.2283 0.0239
C5 C -0.0009(4) -0.0685(3) 0.1123(3)
H9 H 0.0270 -0.1303 0.1244
C6 C 0.1298(3) 0.1570(2) 0.1906(3)
C7 C 0.5873(4) 0.0723(3) 0.4422(3)
C8 C 0.2377(4) -0.3061(3) 0.2985(3)
H10 H 0.2306 -0.3432 0.3395
C9 C 0.4670(3) 0.4191(2) 0.3664(3)
C10 C 0.0356(3) 0.0921(3) 0.1362(3)
C11 C 0.2300(4) -0.2890(3) 0.1618(3)
H11 H 0.2181 -0.3145 0.1087
C12 C 0.0942(4) 0.2473(3) 0.1821(3)
H12 H 0.1543 0.2929 0.2181
C13 C 0.1600(4) -0.4878(3) 0.2511(3)
H13 H 0.1394 -0.5505 0.2279
H14 H 0.0876 -0.4614 0.2509
H15 H 0.2343 -0.4887 0.3120
C14 C -0.0907(4) 0.1148(3) 0.0736(3)
C15 C 0.4014(3) 0.2342(2) 0.3339(2)
C16 C 0.2782(3) -0.1588(2) 0.2579(2)
C17 C 0.4482(3) 0.3774(2) 0.2903(3)
H16 H 0.4581 0.4117 0.2490
C18 C 0.4212(4) 0.2772(3) 0.4106(3)
H17 H 0.4121 0.2430 0.4523
C19 C 0.4246(3) -0.0276(2) 0.3477(2)
C20 C 0.8520(4) -0.1138(3) 0.4626(3)
H18 H 0.7678 -0.1121 0.4064
H19 H 0.9168 -0.1039 0.4473
C21 C 0.4529(3) 0.0650(2) 0.3651(2)
C22 C 0.2178(3) -0.3438(2) 0.2202(3)
C23 C 0.5395(3) -0.0808(2) 0.4123(2)
C24 C 0.3675(3) 0.1348(2) 0.3160(2)
C25 C 0.4151(4) 0.2864(3) 0.2744(3)
H20 H 0.4014 0.2588 0.2216
C26 C -0.1734(4) 0.0399(3) 0.0291(3)
H21 H -0.2603 0.0509 -0.0144
C27 C -0.1292(4) -0.0472(3) 0.0484(3)
H22 H -0.1867 -0.0960 0.0176
C28 C 0.2592(4) -0.1978(3) 0.1804(3)
H23 H 0.2666 -0.1607 0.1395
C29 C 0.2176(3) 0.0096(3) 0.2288(2)
C30 C -0.0325(4) 0.2712(3) 0.1194(3)
H24 H -0.0564 0.3337 0.1139
C31 C 0.0821(4) 0.0019(3) 0.1564(3)
C32 C 0.2678(4) -0.2145(3) 0.3163(3)
H25 H 0.2816 -0.1892 0.3700
C33 C 0.4537(4) 0.3684(3) 0.4265(3)
H26 H 0.4670 0.3965 0.4791
C34 C 0.2469(3) 0.1046(2) 0.2489(2)
C35 C 0.3075(3) -0.0592(2) 0.2777(2)
C36 C 0.5212(4) 0.5634(3) 0.3314(3)
H27 H 0.5424 0.6261 0.3544
H28 H 0.4446 0.5641 0.2715
H29 H 0.5918 0.5372 0.3291
loop_
_geom_bond_atom_site_label_1
_geom_bond_atom_site_label_2
_geom_bond_site_symmetry_1
_geom_bond_site_symmetry_2
O1 C13 1_555 1_555
O2 C7 1_555 1_555
O3 C23 1_555 1_555
O4 C9 1_555 1_555
N1 C1 1_555 1_555
C1 H1 1_555 1_555
H2 C1 1_555 1_555
C2 H3 1_555 1_555
H4 C2 1_555 1_555
H5 C2 1_555 1_555
C3 C1 1_555 1_555
H6 C3 1_555 1_555
H7 C3 1_555 1_555
C4 H8 1_555 1_555
C5 H9 1_555 1_555
C6 C10 1_555 1_555
C7 N1 1_555 1_555
C8 H10 1_555 1_555
C9 C17 1_555 1_555
C10 C14 1_555 1_555
C11 H11 1_555 1_555
C12 C6 1_555 1_555
H12 C12 1_555 1_555
C13 H13 1_555 1_555
H14 C13 1_555 1_555
H15 C13 1_555 1_555
C14 C4 1_555 1_555
C15 C18 1_555 1_555
C16 C28 1_555 1_555
C17 H16 1_555 1_555
C18 H17 1_555 1_555
C19 C21 1_555 1_555
C20 C2 1_555 1_555
H18 C20 1_555 1_555
H19 C20 1_555 1_555
C21 C7 1_555 1_555
C22 O1 1_555 1_555
C23 N1 1_555 1_555
C24 C15 1_555 1_555
C25 C15 1_555 1_555
H20 C25 1_555 1_555
C26 C14 1_555 1_555
H21 C26 1_555 1_555
C27 C5 1_555 1_555
H22 C27 1_555 1_555
C28 C11 1_555 1_555
H23 C28 1_555 1_555
C29 C31 1_555 1_555
C30 C4 1_555 1_555
H24 C30 1_555 1_555
C31 C5 1_555 1_555
C32 C8 1_555 1_555
H25 C32 1_555 1_555
C33 C9 1_555 1_555
H26 C33 1_555 1_555
C34 C6 1_555 1_555
C35 C16 1_555 1_555
C36 O4 1_555 1_555
H27 C36 1_555 1_555
H28 C36 1_555 1_555
H29 C36 1_555 1_555
C3 C20 1_555 1_555
C8 C22 1_555 1_555
C10 C31 1_555 1_555
C11 C22 1_555 1_555
C12 C30 1_555 1_555
C16 C32 1_555 1_555
C17 C25 1_555 1_555
C18 C33 1_555 1_555
C19 C23 1_555 1_555
C19 C35 1_555 1_555
C21 C24 1_555 1_555
C24 C34 1_555 1_555
C26 C27 1_555 1_555
C29 C34 1_555 1_555
C29 C35 1_555 1_555

#END
