
#######################################################################
#
#                 Cambridge Crystallographic Data Centre
#                                CCDC 
#
#######################################################################
#
# If this CIF has been generated from an entry in the Cambridge 
# Structural Database, then it will include bibliographic, chemical, 
# crystal, experimental, refinement or atomic coordinate data resulting 
# from the CCDC's data processing and validation procedures.
#
#######################################################################

data_GEGHUX
_chemical_formula_moiety         'C50 H64 N2 O2 S2'
_chemical_name_systematic        
2,5-Dihexyl-3,6-bis(4-(5-hexyl-2-thienyl)phenyl)-2,5-dihydropyrrolo[3,4-c]pyrrole-1,4-dione
_symmetry_cell_setting           monoclinic
_symmetry_space_group_name_H-M   'P 21/c'
_symmetry_Int_Tables_number      14
_space_group_name_Hall           '-P 2ybc'
loop_
_symmetry_equiv_pos_site_id
_symmetry_equiv_pos_as_xyz
1 x,y,z
2 -x,1/2+y,1/2-z
3 -x,-y,-z
4 x,1/2-y,1/2+z
_cell_length_a                   15.215(3)
_cell_length_b                   14.797(3)
_cell_length_c                   10.103(2)
_cell_angle_alpha                90
_cell_angle_beta                 101.369(4)
_cell_angle_gamma                90
_cell_volume                     2229.92
_exptl_crystal_colour            red
_exptl_crystal_description       plate
_cell_formula_units_Z            2
loop_
_atom_site_label
_atom_site_type_symbol
_atom_site_fract_x
_atom_site_fract_y
_atom_site_fract_z
C1 C 0.03540(15) 0.88526(16) -0.02255(18)
C2 C 0.10987(15) 0.81274(15) 0.19282(19)
H1 H 0.0741 0.7588 0.1581
H2 H 0.1076 0.8195 0.2896
C3 C 0.20649(16) 0.79855(16) 0.1787(2)
H3 H 0.2408 0.8544 0.2075
H4 H 0.2078 0.7886 0.0822
C4 C 0.25315(19) 0.7194(2) 0.2603(2)
H5 H 0.2168 0.6641 0.2365
H6 H 0.2564 0.7314 0.3575
C5 C 0.3484(2) 0.7022(3) 0.2359(3)
H7 H 0.3436 0.6883 0.1389
H8 H 0.3824 0.7595 0.2538
C6 C 0.4021(2) 0.6307(3) 0.3136(3)
H9 H 0.4592 0.6249 0.2812
H10 H 0.3695 0.5728 0.2951
C7 C 0.4233(2) 0.6457(2) 0.4636(2)
H11 H 0.4498 0.7058 0.4829
H12 H 0.4659 0.5997 0.5063
H13 H 0.3681 0.6415 0.4993
C8 C 0.05089(14) 0.97746(16) 0.16793(18)
C9 C 0.00501(14) 1.02713(16) 0.05954(18)
C10 C 0.07744(15) 1.00714(16) 0.30957(17)
C11 C 0.02658(15) 1.07537(15) 0.35636(18)
H14 H -0.0236 1.1003 0.2966
C12 C 0.04845(15) 1.10674(15) 0.48787(18)
H15 H 0.0129 1.1524 0.5174
C13 C 0.12289(15) 1.07147(16) 0.57808(18)
C14 C 0.17422(15) 1.00549(17) 0.53067(19)
H16 H 0.2255 0.9821 0.5900
C15 C 0.15283(15) 0.97285(17) 0.39955(18)
H17 H 0.1889 0.9275 0.3704
C16 C 0.14436(15) 1.10477(16) 0.71883(18)
C17 C 0.12158(16) 1.18352(16) 0.77191(19)
H18 H 0.0868 1.2292 0.7200
C18 C 0.15514(16) 1.19067(18) 0.9135(2)
H19 H 0.1454 1.2421 0.9650
C19 C 0.20192(16) 1.11783(18) 0.96774(19)
C20 C 0.24238(17) 1.0993(2) 1.11380(19)
H20 H 0.2339 1.1534 1.1676
H21 H 0.2091 1.0488 1.1455
C21 C 0.33963(18) 1.0759(2) 1.1411(2)
H22 H 0.3740 1.1288 1.1193
H23 H 0.3494 1.0258 1.0807
C22 C 0.37620(18) 1.0474(2) 1.2898(2)
H24 H 0.3446 0.9919 1.3090
H25 H 0.4406 1.0324 1.2999
C23 C 0.36598(19) 1.1181(2) 1.3935(2)
H26 H 0.3014 1.1287 1.3907
H27 H 0.3925 1.1756 1.3702
C24 C 0.4114(2) 1.0903(2) 1.5382(2)
H28 H 0.3900 1.0293 1.5569
H29 H 0.4769 1.0863 1.5429
C25 C 0.3941(2) 1.1542(2) 1.6468(3)
H30 H 0.4158 1.2146 1.6301
H31 H 0.4257 1.1326 1.7352
H32 H 0.3296 1.1567 1.6457
N1 N 0.07006(12) 0.89306(13) 0.11895(14)
O1 O 0.04184(11) 0.81560(11) -0.08527(13)
S1 S 0.20767(4) 1.03751(4) 0.84452(5)
C1B C -0.03540(15) 1.11474(16) 0.02255(18)
C2B C -0.10987(15) 1.18726(15) -0.19282(19)
H1B H -0.0741 1.2412 -0.1581
H2B H -0.1076 1.1805 -0.2896
C3B C -0.20649(16) 1.20145(16) -0.1787(2)
H3B H -0.2408 1.1456 -0.2075
H4B H -0.2078 1.2114 -0.0822
C4B C -0.25315(19) 1.2806(2) -0.2603(2)
H5B H -0.2168 1.3359 -0.2365
H6B H -0.2564 1.2686 -0.3575
C5B C -0.3484(2) 1.2978(3) -0.2359(3)
H7B H -0.3436 1.3117 -0.1389
H8B H -0.3824 1.2405 -0.2538
C6B C -0.4021(2) 1.3693(3) -0.3136(3)
H9B H -0.4592 1.3751 -0.2812
H10B H -0.3695 1.4272 -0.2951
C7B C -0.4233(2) 1.3543(2) -0.4636(2)
H11B H -0.4498 1.2942 -0.4829
H12B H -0.4659 1.4003 -0.5063
H13B H -0.3681 1.3585 -0.4993
C8B C -0.05089(14) 1.02254(16) -0.16793(18)
C9B C -0.00501(14) 0.97287(16) -0.05954(18)
C10B C -0.07744(15) 0.99286(16) -0.30957(17)
C11B C -0.02658(15) 0.92463(15) -0.35636(18)
H14B H 0.0236 0.8997 -0.2966
C12B C -0.04845(15) 0.89326(15) -0.48787(18)
H15B H -0.0129 0.8476 -0.5174
C13B C -0.12289(15) 0.92853(16) -0.57808(18)
C14B C -0.17422(15) 0.99451(17) -0.53067(19)
H16B H -0.2255 1.0179 -0.5900
C15B C -0.15283(15) 1.02715(17) -0.39955(18)
H17B H -0.1889 1.0725 -0.3704
C16B C -0.14436(15) 0.89523(16) -0.71883(18)
C17B C -0.12158(16) 0.81648(16) -0.77191(19)
H18B H -0.0868 0.7708 -0.7200
C18B C -0.15514(16) 0.80933(18) -0.9135(2)
H19B H -0.1454 0.7579 -0.9650
C19B C -0.20192(16) 0.88217(18) -0.96774(19)
C20B C -0.24238(17) 0.9007(2) -1.11380(19)
H20B H -0.2339 0.8466 -1.1676
H21B H -0.2091 0.9512 -1.1455
C21B C -0.33963(18) 0.9241(2) -1.1411(2)
H22B H -0.3740 0.8712 -1.1193
H23B H -0.3494 0.9742 -1.0807
C22B C -0.37620(18) 0.9526(2) -1.2898(2)
H24B H -0.3446 1.0081 -1.3090
H25B H -0.4406 0.9676 -1.2999
C23B C -0.36598(19) 0.8819(2) -1.3935(2)
H26B H -0.3014 0.8713 -1.3907
H27B H -0.3925 0.8244 -1.3702
C24B C -0.4114(2) 0.9097(2) -1.5382(2)
H28B H -0.3900 0.9707 -1.5569
H29B H -0.4769 0.9137 -1.5429
C25B C -0.3941(2) 0.8458(2) -1.6468(3)
H30B H -0.4158 0.7854 -1.6301
H31B H -0.4257 0.8674 -1.7352
H32B H -0.3296 0.8433 -1.6457
N1B N -0.07006(12) 1.10694(13) -0.11895(14)
O1B O -0.04184(11) 1.18440(11) 0.08527(13)
S1B S -0.20767(4) 0.96249(4) -0.84452(5)
loop_
_geom_bond_atom_site_label_1
_geom_bond_atom_site_label_2
_geom_bond_site_symmetry_1
_geom_bond_site_symmetry_2
C1 N1 1_555 1_555
C2 H1 1_555 1_555
H2 C2 1_555 1_555
C3 C2 1_555 1_555
H3 C3 1_555 1_555
H4 C3 1_555 1_555
C4 C3 1_555 1_555
H5 C4 1_555 1_555
H6 C4 1_555 1_555
C5 C4 1_555 1_555
H7 C5 1_555 1_555
H8 C5 1_555 1_555
C6 C5 1_555 1_555
H9 C6 1_555 1_555
H10 C6 1_555 1_555
C7 C6 1_555 1_555
H11 C7 1_555 1_555
H12 C7 1_555 1_555
H13 C7 1_555 1_555
C8 C9 1_555 1_555
C9 C1B 1_555 1_555
C10 C8 1_555 1_555
C11 C10 1_555 1_555
H14 C11 1_555 1_555
C12 C11 1_555 1_555
H15 C12 1_555 1_555
C13 C12 1_555 1_555
C14 C13 1_555 1_555
H16 C14 1_555 1_555
C15 C10 1_555 1_555
H17 C15 1_555 1_555
C16 C13 1_555 1_555
C17 C16 1_555 1_555
H18 C17 1_555 1_555
C18 C17 1_555 1_555
H19 C18 1_555 1_555
C19 C18 1_555 1_555
C20 C19 1_555 1_555
H20 C20 1_555 1_555
H21 C20 1_555 1_555
C21 C20 1_555 1_555
H22 C21 1_555 1_555
H23 C21 1_555 1_555
C22 C21 1_555 1_555
H24 C22 1_555 1_555
H25 C22 1_555 1_555
C23 C22 1_555 1_555
H26 C23 1_555 1_555
H27 C23 1_555 1_555
C24 C23 1_555 1_555
H28 C24 1_555 1_555
H29 C24 1_555 1_555
C25 C24 1_555 1_555
H30 C25 1_555 1_555
H31 C25 1_555 1_555
H32 C25 1_555 1_555
N1 C2 1_555 1_555
O1 C1 1_555 1_555
S1 C16 1_555 1_555
C1B N1B 1_555 1_555
C2B H1B 1_555 1_555
H2B C2B 1_555 1_555
C3B C2B 1_555 1_555
H3B C3B 1_555 1_555
H4B C3B 1_555 1_555
C4B C3B 1_555 1_555
H5B C4B 1_555 1_555
H6B C4B 1_555 1_555
C5B C4B 1_555 1_555
H7B C5B 1_555 1_555
H8B C5B 1_555 1_555
C6B C5B 1_555 1_555
H9B C6B 1_555 1_555
H10B C6B 1_555 1_555
C7B C6B 1_555 1_555
H11B C7B 1_555 1_555
H12B C7B 1_555 1_555
H13B C7B 1_555 1_555
C8B C9B 1_555 1_555
C9B C1 1_555 1_555
C10B C8B 1_555 1_555
C11B C10B 1_555 1_555
H14B C11B 1_555 1_555
C12B C11B 1_555 1_555
H15B C12B 1_555 1_555
C13B C12B 1_555 1_555
C14B C13B 1_555 1_555
H16B C14B 1_555 1_555
C15B C10B 1_555 1_555
H17B C15B 1_555 1_555
C16B C13B 1_555 1_555
C17B C16B 1_555 1_555
H18B C17B 1_555 1_555
C18B C17B 1_555 1_555
H19B C18B 1_555 1_555
C19B C18B 1_555 1_555
C20B C19B 1_555 1_555
H20B C20B 1_555 1_555
H21B C20B 1_555 1_555
C21B C20B 1_555 1_555
H22B C21B 1_555 1_555
H23B C21B 1_555 1_555
C22B C21B 1_555 1_555
H24B C22B 1_555 1_555
H25B C22B 1_555 1_555
C23B C22B 1_555 1_555
H26B C23B 1_555 1_555
H27B C23B 1_555 1_555
C24B C23B 1_555 1_555
H28B C24B 1_555 1_555
H29B C24B 1_555 1_555
C25B C24B 1_555 1_555
H30B C25B 1_555 1_555
H31B C25B 1_555 1_555
H32B C25B 1_555 1_555
N1B C2B 1_555 1_555
O1B C1B 1_555 1_555
S1B C16B 1_555 1_555
C8 N1 1_555 1_555
C9 C9B 1_555 1_555
C14 C15 1_555 1_555
C19 S1 1_555 1_555
C8B N1B 1_555 1_555
C14B C15B 1_555 1_555
C19B S1B 1_555 1_555

#END
