
#######################################################################
#
#                 Cambridge Crystallographic Data Centre
#                                CCDC 
#
#######################################################################
#
# If this CIF has been generated from an entry in the Cambridge 
# Structural Database, then it will include bibliographic, chemical, 
# crystal, experimental, refinement or atomic coordinate data resulting 
# from the CCDC's data processing and validation procedures.
#
#######################################################################

data_GEGJOT
_chemical_formula_moiety         'C46 H44 N2 O2 S4'
_chemical_name_systematic        
3,6-bis(4-(2,2'-Bithiophen-5-yl)phenyl)-2,5-dihexyl-2,5-dihydropyrrolo[3,4-c]pyrrole-1,4-dione
_symmetry_cell_setting           monoclinic
_symmetry_space_group_name_H-M   'P 21/c'
_symmetry_Int_Tables_number      14
_space_group_name_Hall           '-P 2ybc'
loop_
_symmetry_equiv_pos_site_id
_symmetry_equiv_pos_as_xyz
1 x,y,z
2 -x,1/2+y,1/2-z
3 -x,-y,-z
4 x,1/2-y,1/2+z
_cell_length_a                   13.414(2)
_cell_length_b                   14.427(2)
_cell_length_c                   10.0793(15)
_cell_angle_alpha                90
_cell_angle_beta                 92.804(9)
_cell_angle_gamma                90
_cell_volume                     1948.25
_exptl_crystal_colour            'dark red'
_exptl_crystal_description       plate
_cell_formula_units_Z            2
loop_
_atom_site_label
_atom_site_type_symbol
_atom_site_fract_x
_atom_site_fract_y
_atom_site_fract_z
C1 C 0.70749(19) 0.6094(2) 1.5057(2)
C2 C 0.76871(18) 0.6194(2) 1.3917(2)
C3 C 0.84376(19) 0.6802(2) 1.3721(2)
H1 H 0.8661 0.7243 1.4369
C4 C 0.88581(19) 0.6720(2) 1.2465(2)
H2 H 0.9390 0.7097 1.2189
C5 C 0.84194(17) 0.60420(18) 1.1694(2)
C6 C 0.86339(18) 0.57634(17) 1.0333(2)
C7 C 0.79756(18) 0.51933(18) 0.9592(2)
H3 H 0.7363 0.5014 0.9952
C8 C 0.82014(18) 0.48848(18) 0.8342(2)
H4 H 0.7747 0.4489 0.7862
C9 C 0.90907(17) 0.51477(17) 0.7776(2)
C10 C 0.97269(17) 0.57570(17) 0.8485(2)
H5 H 1.0318 0.5968 0.8100
C11 C 0.95059(17) 0.60568(18) 0.9738(2)
H6 H 0.9951 0.6468 1.0206
C12 C 0.93740(17) 0.48271(17) 0.6464(2)
C13 C 0.99607(18) 0.52806(18) 0.5577(2)
C14 C 0.95029(17) 0.38688(18) 0.4626(2)
C15 C 0.86277(18) 0.31798(18) 0.6499(2)
H7 H 0.8639 0.3274 0.7473
H8 H 0.9038 0.2627 0.6326
C16 C 0.75580(18) 0.29953(19) 0.5995(2)
H9 H 0.7509 0.3054 0.5015
H10 H 0.7110 0.3462 0.6369
C17 C 0.72261(19) 0.2027(2) 0.6391(2)
H11 H 0.7309 0.1968 0.7368
H12 H 0.7673 0.1567 0.5996
C18 C 0.61508(19) 0.1787(2) 0.5967(2)
H13 H 0.6005 0.1152 0.6275
H14 H 0.5700 0.2217 0.6413
C19 C 0.59213(19) 0.1837(2) 0.4473(2)
H15 H 0.6440 0.1493 0.4010
H16 H 0.5944 0.2493 0.4183
C20 C 0.4900(2) 0.1434(2) 0.4078(3)
H17 H 0.4872 0.0787 0.4370
H18 H 0.4790 0.1463 0.3111
H19 H 0.4382 0.1792 0.4500
C21 C 0.6467(4) 0.6452(4) 1.7144(5)
C22 C 0.5811(4) 0.5795(4) 1.6679(4)
C23 C 0.7213(7) 0.6592(8) 1.6215(9)
N1 N 0.90773(14) 0.39878(14) 0.58852(17)
O1 O 0.93918(13) 0.31529(12) 0.39769(15)
S1 S 0.74946(5) 0.54876(5) 1.25366(6)
S2 S 0.61025(18) 0.5439(3) 1.51023(19)
C1B C 1.29251(19) 0.3906(2) -0.5057(2)
C2B C 1.23129(18) 0.3806(2) -0.3917(2)
C3B C 1.15624(19) 0.3198(2) -0.3721(2)
H1B H 1.1339 0.2757 -0.4369
C4B C 1.11419(19) 0.3280(2) -0.2465(2)
H2B H 1.0610 0.2903 -0.2189
C5B C 1.15806(17) 0.39580(18) -0.1694(2)
C6B C 1.13661(18) 0.42366(17) -0.0333(2)
C7B C 1.20244(18) 0.48067(18) 0.0408(2)
H3B H 1.2637 0.4986 0.0048
C8B C 1.17986(18) 0.51152(18) 0.1658(2)
H4B H 1.2253 0.5511 0.2138
C9B C 1.09093(17) 0.48523(17) 0.2224(2)
C10B C 1.02731(17) 0.42430(17) 0.1515(2)
H5B H 0.9682 0.4032 0.1900
C11B C 1.04941(17) 0.39432(18) 0.0262(2)
H6B H 1.0049 0.3532 -0.0206
C12B C 1.06260(17) 0.51729(17) 0.3536(2)
C13B C 1.00393(18) 0.47194(18) 0.4423(2)
C14B C 1.04971(17) 0.61312(18) 0.5374(2)
C15B C 1.13723(18) 0.68202(18) 0.3501(2)
H7B H 1.1361 0.6726 0.2527
H8B H 1.0962 0.7373 0.3674
C16B C 1.24420(18) 0.70047(19) 0.4005(2)
H9B H 1.2491 0.6946 0.4985
H10B H 1.2890 0.6538 0.3631
C17B C 1.27739(19) 0.7973(2) 0.3609(2)
H11B H 1.2691 0.8032 0.2632
H12B H 1.2327 0.8433 0.4004
C18B C 1.38492(19) 0.8213(2) 0.4033(2)
H13B H 1.3995 0.8848 0.3725
H14B H 1.4300 0.7783 0.3587
C19B C 1.40787(19) 0.8163(2) 0.5527(2)
H15B H 1.3560 0.8507 0.5990
H16B H 1.4056 0.7507 0.5817
C20B C 1.5100(2) 0.8566(2) 0.5922(3)
H17B H 1.5128 0.9213 0.5630
H18B H 1.5210 0.8537 0.6889
H19B H 1.5618 0.8208 0.5500
C21B C 1.3533(4) 0.3548(4) -0.7144(5)
C22B C 1.4189(4) 0.4205(4) -0.6679(4)
C23B C 1.2787(7) 0.3408(8) -0.6215(9)
N1B N 1.09227(14) 0.60122(14) 0.41148(17)
O1B O 1.06082(13) 0.68471(12) 0.60231(15)
S1B S 1.25054(5) 0.45124(5) -0.25366(6)
S2B S 1.38975(18) 0.4561(3) -0.51023(19)
C24? C 0.6161(6) 0.6117(6) 1.7174(9)
C25? C 0.5882(6) 0.5293(6) 1.6514(7)
C26? C 0.6361(16) 0.5433(17) 1.5275(14)
S3? S 0.7029(3) 0.6742(3) 1.6350(4)
loop_
_geom_bond_atom_site_label_1
_geom_bond_atom_site_label_2
_geom_bond_site_symmetry_1
_geom_bond_site_symmetry_2
C1 C2 1_555 1_555
C2 C3 1_555 1_555
C3 H1 1_555 1_555
C4 C3 1_555 1_555
H2 C4 1_555 1_555
C5 C4 1_555 1_555
C6 C5 1_555 1_555
C7 C6 1_555 1_555
H3 C7 1_555 1_555
C8 C7 1_555 1_555
H4 C8 1_555 1_555
C9 C8 1_555 1_555
C10 C9 1_555 1_555
H5 C10 1_555 1_555
C11 C6 1_555 1_555
H6 C11 1_555 1_555
C12 C9 1_555 1_555
C13 C12 1_555 1_555
C14 N1 1_555 1_555
C15 H7 1_555 1_555
H8 C15 1_555 1_555
C16 C15 1_555 1_555
H9 C16 1_555 1_555
H10 C16 1_555 1_555
C17 C16 1_555 1_555
H11 C17 1_555 1_555
H12 C17 1_555 1_555
C18 C17 1_555 1_555
H13 C18 1_555 1_555
H14 C18 1_555 1_555
C19 C18 1_555 1_555
H15 C19 1_555 1_555
H16 C19 1_555 1_555
C20 C19 1_555 1_555
H17 C20 1_555 1_555
H18 C20 1_555 1_555
H19 C20 1_555 1_555
C21 C22 1_555 1_555
C22 S2 1_555 1_555
C23 C1 1_555 1_555
N1 C12 1_555 1_555
O1 C14 1_555 1_555
S1 C2 1_555 1_555
S2 C1 1_555 1_555
C1B C2B 1_555 1_555
C2B C3B 1_555 1_555
C3B H1B 1_555 1_555
C4B C3B 1_555 1_555
H2B C4B 1_555 1_555
C5B C4B 1_555 1_555
C6B C5B 1_555 1_555
C7B C6B 1_555 1_555
H3B C7B 1_555 1_555
C8B C7B 1_555 1_555
H4B C8B 1_555 1_555
C9B C8B 1_555 1_555
C10B C9B 1_555 1_555
H5B C10B 1_555 1_555
C11B C6B 1_555 1_555
H6B C11B 1_555 1_555
C12B C9B 1_555 1_555
C13B C13 1_555 1_555
C14B C13 1_555 1_555
C15B H7B 1_555 1_555
H8B C15B 1_555 1_555
C16B C15B 1_555 1_555
H9B C16B 1_555 1_555
H10B C16B 1_555 1_555
C17B C16B 1_555 1_555
H11B C17B 1_555 1_555
H12B C17B 1_555 1_555
C18B C17B 1_555 1_555
H13B C18B 1_555 1_555
H14B C18B 1_555 1_555
C19B C18B 1_555 1_555
H15B C19B 1_555 1_555
H16B C19B 1_555 1_555
C20B C19B 1_555 1_555
H17B C20B 1_555 1_555
H18B C20B 1_555 1_555
H19B C20B 1_555 1_555
C21B C22B 1_555 1_555
C22B S2B 1_555 1_555
C23B C1B 1_555 1_555
N1B C12B 1_555 1_555
O1B C14B 1_555 1_555
S1B C2B 1_555 1_555
S2B C1B 1_555 1_555
C5 S1 1_555 1_555
C10 C11 1_555 1_555
C14 C13B 1_555 1_555
C15 N1 1_555 1_555
C21 C23 1_555 1_555
C5B S1B 1_555 1_555
C10B C11B 1_555 1_555
C12B C13B 1_555 1_555
C14B N1B 1_555 1_555
C15B N1B 1_555 1_555
C21B C23B 1_555 1_555

#END
