
#######################################################################
#
#                 Cambridge Crystallographic Data Centre
#                                CCDC 
#
#######################################################################
#
# If this CIF has been generated from an entry in the Cambridge 
# Structural Database, then it will include bibliographic, chemical, 
# crystal, experimental, refinement or atomic coordinate data resulting 
# from the CCDC's data processing and validation procedures.
#
#######################################################################

data_GEGKIN
_chemical_formula_moiety         'C17 H14 N4 O2,H2 O1'
_chemical_name_systematic        
"N,N'-Diphenyl-1H-pyrazole-3,5-dicarboxamide monohydrate"
_symmetry_cell_setting           triclinic
_symmetry_space_group_name_H-M   'P -1'
_symmetry_Int_Tables_number      2
_space_group_name_Hall           '-P 1'
loop_
_symmetry_equiv_pos_site_id
_symmetry_equiv_pos_as_xyz
1 x,y,z
2 -x,-y,-z
_cell_length_a                   4.554(1)
_cell_length_b                   12.421(2)
_cell_length_c                   28.252(5)
_cell_angle_alpha                78.100(6)
_cell_angle_beta                 86.730(6)
_cell_angle_gamma                81.530(8)
_cell_volume                     1546.09
_exptl_crystal_colour            white
_chemical_melting_point          273-280deg.C
_cell_formula_units_Z            4
_exptl_crystal_recrystallization_method methanol
loop_
_atom_site_label
_atom_site_type_symbol
_atom_site_fract_x
_atom_site_fract_y
_atom_site_fract_z
N1 N 0.070(2) 0.3443(10) 0.5548(5)
N2 N -0.133(2) 0.3838(9) 0.5205(4)
H1 H -0.2456 0.4505 0.5176
C1 C -0.152(3) 0.3126(12) 0.4906(6)
C2 C 0.050(3) 0.2189(11) 0.5058(6)
H2 H 0.0943 0.1538 0.4920
C3 C 0.184(3) 0.2436(12) 0.5449(6)
C4 C -0.372(3) 0.3488(13) 0.4495(6)
O1 O -0.5293(18) 0.4411(7) 0.4474(4)
N3 N -0.385(2) 0.2802(8) 0.4203(5)
H3 H -0.2700 0.2158 0.4268
C5 C -0.569(3) 0.2988(13) 0.3789(6)
C6 C -0.543(3) 0.2172(11) 0.3522(6)
H4 H -0.4017 0.1523 0.3625
C7 C -0.698(3) 0.2225(13) 0.3123(6)
H5 H -0.6689 0.1621 0.2954
C8 C -0.903(3) 0.3195(12) 0.2960(6)
H6 H -1.0213 0.3282 0.2680
C9 C -0.927(3) 0.3998(11) 0.3255(6)
H7 H -1.0633 0.4659 0.3150
C10 C -0.774(3) 0.3953(12) 0.3660(6)
H8 H -0.8064 0.4529 0.3845
C11 C 0.424(3) 0.1744(14) 0.5773(6)
O2 O 0.5049(18) 0.0780(7) 0.5728(4)
N4 N 0.514(2) 0.2278(9) 0.6094(5)
H9 H 0.4292 0.2971 0.6065
C12 C 0.720(3) 0.1934(13) 0.6453(7)
C13 C 0.786(3) 0.2707(11) 0.6704(6)
H10 H 0.6901 0.3459 0.6616
C14 C 0.983(3) 0.2428(13) 0.7077(6)
H11 H 1.0229 0.2967 0.7255
C15 C 1.121(3) 0.1324(15) 0.7196(6)
H12 H 1.2678 0.1120 0.7441
C16 C 1.052(3) 0.0547(12) 0.6953(6)
H13 H 1.1481 -0.0204 0.7045
C17 C 0.854(3) 0.0809(12) 0.6589(6)
H14 H 0.8049 0.0247 0.6432
N5 N 0.316(2) 0.1129(8) 1.0109(5)
N6 N 0.510(2) 0.1224(9) 0.9739(4)
H15 H 0.5997 0.0634 0.9622
C18 C 0.561(3) 0.2271(11) 0.9560(5)
C19 C 0.369(3) 0.2925(11) 0.9805(5)
H16 H 0.3457 0.3721 0.9752
C20 C 0.221(3) 0.2206(12) 1.0136(5)
C21 C 0.786(3) 0.2314(13) 0.9178(5)
O3 O 0.9133(18) 0.1477(6) 0.9041(4)
N7 N 0.853(2) 0.3374(9) 0.8965(4)
H17 H 0.7538 0.3925 0.9085
C22 C 1.057(3) 0.3676(11) 0.8588(5)
C23 C 1.120(3) 0.4782(11) 0.8490(6)
H18 H 1.0185 0.5287 0.8680
C24 C 1.321(3) 0.5158(11) 0.8126(6)
H19 H 1.3627 0.5910 0.8067
C25 C 1.461(3) 0.4408(12) 0.7856(5)
H20 H 1.5970 0.4646 0.7597
C26 C 1.412(3) 0.3307(12) 0.7957(6)
H21 H 1.5128 0.2796 0.7769
C27 C 1.217(3) 0.2943(11) 0.8325(5)
H22 H 1.1884 0.2175 0.8403
C28 C -0.008(3) 0.2450(13) 1.0513(6)
O4 O -0.0912(17) 0.3427(7) 1.0575(4)
N8 N -0.121(2) 0.1543(9) 1.0778(5)
H23 H -0.0432 0.0910 1.0699
C29 C -0.338(3) 0.1433(12) 1.1154(5)
C30 C -0.434(3) 0.0400(11) 1.1324(5)
H24 H -0.3531 -0.0201 1.1169
C31 C -0.640(3) 0.0250(11) 1.1689(5)
H25 H -0.7071 -0.0463 1.1786
C32 C -0.752(3) 0.1097(12) 1.1917(6)
H26 H -0.8933 0.0990 1.2183
C33 C -0.660(3) 0.2123(12) 1.1755(5)
H27 H -0.7384 0.2722 1.1914
C34 C -0.454(3) 0.2307(10) 1.1370(5)
H28 H -0.3937 0.3028 1.1260
O5 O -0.0753(17) 0.0563(6) 0.4382(3)
H29 H -0.1975 0.0184 0.4351
H30 H 0.0821 0.0198 0.4352
O6 O 0.6546(16) 0.5182(6) 0.9449(3)
H31 H 0.7799 0.5574 0.9442
H32 H 0.4969 0.5566 0.9442
loop_
_geom_bond_atom_site_label_1
_geom_bond_atom_site_label_2
_geom_bond_site_symmetry_1
_geom_bond_site_symmetry_2
N1 N2 1_555 1_555
N2 H1 1_555 1_555
C1 N2 1_555 1_555
C2 C1 1_555 1_555
H2 C2 1_555 1_555
C3 N1 1_555 1_555
C4 C1 1_555 1_555
O1 C4 1_555 1_555
N3 C4 1_555 1_555
H3 N3 1_555 1_555
C5 N3 1_555 1_555
C6 C5 1_555 1_555
H4 C6 1_555 1_555
C7 C6 1_555 1_555
H5 C7 1_555 1_555
C8 C7 1_555 1_555
H6 C8 1_555 1_555
C9 C8 1_555 1_555
H7 C9 1_555 1_555
C10 C5 1_555 1_555
H8 C10 1_555 1_555
C11 C3 1_555 1_555
O2 C11 1_555 1_555
N4 C11 1_555 1_555
H9 N4 1_555 1_555
C12 N4 1_555 1_555
C13 C12 1_555 1_555
H10 C13 1_555 1_555
C14 C13 1_555 1_555
H11 C14 1_555 1_555
C15 C14 1_555 1_555
H12 C15 1_555 1_555
C16 C15 1_555 1_555
H13 C16 1_555 1_555
C17 C12 1_555 1_555
H14 C17 1_555 1_555
N5 N6 1_555 1_555
N6 H15 1_555 1_555
C18 N6 1_555 1_555
C19 C18 1_555 1_555
H16 C19 1_555 1_555
C20 N5 1_555 1_555
C21 C18 1_555 1_555
O3 C21 1_555 1_555
N7 C21 1_555 1_555
H17 N7 1_555 1_555
C22 N7 1_555 1_555
C23 C22 1_555 1_555
H18 C23 1_555 1_555
C24 C23 1_555 1_555
H19 C24 1_555 1_555
C25 C24 1_555 1_555
H20 C25 1_555 1_555
C26 C25 1_555 1_555
H21 C26 1_555 1_555
C27 C22 1_555 1_555
H22 C27 1_555 1_555
C28 C20 1_555 1_555
O4 C28 1_555 1_555
N8 C28 1_555 1_555
H23 N8 1_555 1_555
C29 N8 1_555 1_555
C30 C29 1_555 1_555
H24 C30 1_555 1_555
C31 C30 1_555 1_555
H25 C31 1_555 1_555
C32 C31 1_555 1_555
H26 C32 1_555 1_555
C33 C32 1_555 1_555
H27 C33 1_555 1_555
C34 C29 1_555 1_555
H28 C34 1_555 1_555
O5 H29 1_555 1_555
H30 O5 1_555 1_555
O6 H31 1_555 1_555
H32 O6 1_555 1_555
C2 C3 1_555 1_555
C9 C10 1_555 1_555
C16 C17 1_555 1_555
C19 C20 1_555 1_555
C26 C27 1_555 1_555
C33 C34 1_555 1_555

#END
