
#######################################################################
#
#                 Cambridge Crystallographic Data Centre
#                                CCDC 
#
#######################################################################
#
# If this CIF has been generated from an entry in the Cambridge 
# Structural Database, then it will include bibliographic, chemical, 
# crystal, experimental, refinement or atomic coordinate data resulting 
# from the CCDC's data processing and validation procedures.
#
#######################################################################

data_GEGKIP
_chemical_formula_moiety         'C18 H15 N1 O1'
_chemical_name_systematic        2-(4'-methoxybiphenyl-2-yl)pyridine
_symmetry_cell_setting           orthorhombic
_symmetry_space_group_name_H-M   'P c c n'
_symmetry_Int_Tables_number      56
_space_group_name_Hall           '-P 2ab 2ac'
loop_
_symmetry_equiv_pos_site_id
_symmetry_equiv_pos_as_xyz
1 x,y,z
2 1/2-x,1/2-y,z
3 -x,1/2+y,1/2-z
4 1/2+x,-y,1/2-z
5 -x,-y,-z
6 1/2+x,1/2+y,-z
7 x,1/2-y,1/2+z
8 1/2-x,y,1/2+z
_cell_length_a                   13.878(3)
_cell_length_b                   25.213(5)
_cell_length_c                   8.1698(16)
_cell_angle_alpha                90
_cell_angle_beta                 90
_cell_angle_gamma                90
_cell_volume                     2858.66
_exptl_crystal_colour            colorless
_exptl_crystal_description       block
_cell_formula_units_Z            8
loop_
_atom_site_label
_atom_site_type_symbol
_atom_site_fract_x
_atom_site_fract_y
_atom_site_fract_z
O1 O 0.62153(15) 0.48105(8) 1.0150(2)
C1 C 0.59538(16) 0.38452(9) 0.6023(3)
C2 C 0.50326(17) 0.33093(9) 0.3911(3)
C3 C 0.64820(18) 0.43153(11) 0.6032(3)
H1 H 0.6793 0.4423 0.5080
C4 C 0.55222(19) 0.36970(10) 0.7490(3)
H2 H 0.5172 0.3383 0.7529
C5 C 0.58974(17) 0.35125(9) 0.4527(3)
C6 C 0.55961(18) 0.40017(11) 0.8896(3)
H3 H 0.5305 0.3891 0.9863
C7 C 0.61074(18) 0.44719(10) 0.8849(3)
C8 C 0.67551(18) 0.33841(10) 0.3701(3)
H4 H 0.7335 0.3521 0.4086
C9 C 0.65553(18) 0.46239(11) 0.7410(3)
H5 H 0.6908 0.4937 0.7377
N1 N 0.3835(2) 0.39958(11) 0.4755(4)
C10 C 0.5056(2) 0.29695(10) 0.2567(4)
H6 H 0.4484 0.2821 0.2186
C11 C 0.40675(18) 0.34667(10) 0.4560(3)
C12 C 0.6765(2) 0.30649(11) 0.2349(4)
H7 H 0.7341 0.2994 0.1812
C13 C 0.34298(19) 0.30848(11) 0.4809(4)
H8 H 0.3601 0.2730 0.4682
C14 C 0.5915(2) 0.28486(11) 0.1785(4)
H9 H 0.5919 0.2623 0.0885
C15 C 0.2900(2) 0.41226(14) 0.5223(4)
H10 H 0.2722 0.4475 0.5362
C16 C 0.5804(2) 0.46607(13) 1.1674(4)
H11 H 0.5127 0.4596 1.1533
H12 H 0.5895 0.4941 1.2454
H13 H 0.6111 0.4344 1.2064
C17 C 0.2251(3) 0.37330(16) 0.5476(6)
H14 H 0.1625 0.3812 0.5799
C18 C 0.2533(3) 0.32198(17) 0.5246(6)
H15 H 0.2082 0.2952 0.5401
loop_
_geom_bond_atom_site_label_1
_geom_bond_atom_site_label_2
_geom_bond_site_symmetry_1
_geom_bond_site_symmetry_2
O1 C7 1_555 1_555
C1 C3 1_555 1_555
C2 C5 1_555 1_555
C3 H1 1_555 1_555
C4 C1 1_555 1_555
H2 C4 1_555 1_555
C5 C1 1_555 1_555
C6 C4 1_555 1_555
H3 C6 1_555 1_555
C7 C6 1_555 1_555
C8 C5 1_555 1_555
H4 C8 1_555 1_555
C9 C3 1_555 1_555
H5 C9 1_555 1_555
N1 C11 1_555 1_555
C10 C2 1_555 1_555
H6 C10 1_555 1_555
C11 C2 1_555 1_555
C12 C8 1_555 1_555
H7 C12 1_555 1_555
C13 C11 1_555 1_555
H8 C13 1_555 1_555
C14 C10 1_555 1_555
H9 C14 1_555 1_555
C15 N1 1_555 1_555
H10 C15 1_555 1_555
C16 O1 1_555 1_555
H11 C16 1_555 1_555
H12 C16 1_555 1_555
H13 C16 1_555 1_555
C17 C15 1_555 1_555
H14 C17 1_555 1_555
C18 C13 1_555 1_555
H15 C18 1_555 1_555
C7 C9 1_555 1_555
C12 C14 1_555 1_555
C17 C18 1_555 1_555

#END
