
#######################################################################
#
#                 Cambridge Crystallographic Data Centre
#                                CCDC 
#
#######################################################################
#
# If this CIF has been generated from an entry in the Cambridge 
# Structural Database, then it will include bibliographic, chemical, 
# crystal, experimental, refinement or atomic coordinate data resulting 
# from the CCDC's data processing and validation procedures.
#
#######################################################################

data_GEGKEJ
_chemical_formula_moiety         'C13 H18 N4 O2'
_chemical_name_systematic        
N,N'-bis(Tetramethylene)-1H-pyrazole-3,5-dicarboxamide
_symmetry_cell_setting           orthorhombic
_symmetry_space_group_name_H-M   'P b c a'
_symmetry_Int_Tables_number      61
_space_group_name_Hall           '-P 2ac 2ab'
loop_
_symmetry_equiv_pos_site_id
_symmetry_equiv_pos_as_xyz
1 x,y,z
2 1/2-x,-y,1/2+z
3 1/2+x,1/2-y,-z
4 -x,1/2+y,1/2-z
5 -x,-y,-z
6 1/2+x,y,1/2-z
7 1/2-x,1/2+y,z
8 x,1/2-y,1/2+z
_cell_length_a                   7.799(5)
_cell_length_b                   12.284(5)
_cell_length_c                   27.001(5)
_cell_angle_alpha                90
_cell_angle_beta                 90
_cell_angle_gamma                90
_cell_volume                     2586.77
_exptl_crystal_colour            white
_chemical_melting_point          196-200deg.C
_cell_formula_units_Z            8
_exptl_crystal_recrystallization_method acetonitrile
loop_
_atom_site_label
_atom_site_type_symbol
_atom_site_fract_x
_atom_site_fract_y
_atom_site_fract_z
C1 C 0.7202(6) 0.2911(3) 0.46653(11)
C2 C 0.7030(6) 0.2065(3) 0.42595(12)
C3 C 0.7708(6) 0.1018(2) 0.45015(12)
C4 C 0.7051(6) 0.1099(2) 0.50310(12)
C5 C 0.7241(4) 0.2783(2) 0.55661(11)
C6 C 0.7050(4) 0.2163(2) 0.60249(10)
C7 C 0.6342(4) 0.1164(2) 0.61632(11)
C8 C 0.6464(4) 0.1137(2) 0.66832(10)
C9 C 0.5931(4) 0.0189(2) 0.69817(11)
C10 C 0.6494(6) 0.1096(3) 0.78087(12)
C11 C 0.6146(6) 0.0644(3) 0.83269(13)
C12 C 0.6106(7) -0.0579(3) 0.82642(14)
C13 C 0.5501(6) -0.0794(3) 0.77484(13)
N1 N 0.7096(4) 0.22782(16) 0.51283(8)
N2 N 0.7536(4) 0.2653(2) 0.64577(8)
N3 N 0.7214(3) 0.20411(17) 0.68638(8)
N4 N 0.5972(3) 0.01962(16) 0.74730(8)
O1 O 0.7506(3) 0.37827(14) 0.55902(7)
O2 O 0.5432(3) -0.06407(15) 0.67514(7)
H1 H 0.634(4) 0.353(2) 0.4662(10)
H2 H 0.826(5) 0.325(2) 0.4661(10)
H3 H 0.810(5) 0.342(3) 0.6491(13)
H4 H 0.580(4) 0.196(2) 0.4203(11)
H5 H 0.765(4) 0.230(2) 0.3928(10)
H6 H 0.909(5) 0.102(3) 0.4511(13)
H7 H 0.723(4) 0.032(2) 0.4345(10)
H8 H 0.580(5) 0.084(2) 0.5083(11)
H9 H 0.778(4) 0.071(2) 0.5264(11)
H10 H 0.583(4) 0.051(3) 0.5945(11)
H11 H 0.759(5) 0.122(2) 0.7758(12)
H12 H 0.575(4) 0.178(2) 0.7718(10)
H13 H 0.491(5) 0.082(3) 0.8413(12)
H14 H 0.702(5) 0.090(3) 0.8565(13)
H15 H 0.541(4) -0.092(2) 0.8490(12)
H16 H 0.735(6) -0.094(3) 0.8278(14)
H17 H 0.608(4) -0.146(2) 0.7574(10)
H18 H 0.431(5) -0.085(2) 0.7752(12)
loop_
_geom_bond_atom_site_label_1
_geom_bond_atom_site_label_2
_geom_bond_site_symmetry_1
_geom_bond_site_symmetry_2
C1 C2 1_555 1_555
C2 C3 1_555 1_555
C3 C4 1_555 1_555
C4 N1 1_555 1_555
C5 C6 1_555 1_555
C6 C7 1_555 1_555
C7 C8 1_555 1_555
C8 C9 1_555 1_555
C9 N4 1_555 1_555
C10 C11 1_555 1_555
C11 C12 1_555 1_555
C12 C13 1_555 1_555
C13 N4 1_555 1_555
N1 C1 1_555 1_555
N2 C6 1_555 1_555
N3 C8 1_555 1_555
N4 C10 1_555 1_555
O1 C5 1_555 1_555
O2 C9 1_555 1_555
H1 C1 1_555 1_555
H2 C1 1_555 1_555
H3 N2 1_555 1_555
H4 C2 1_555 1_555
H5 C2 1_555 1_555
H6 C3 1_555 1_555
H7 C3 1_555 1_555
H8 C4 1_555 1_555
H9 C4 1_555 1_555
H10 C7 1_555 1_555
H11 C10 1_555 1_555
H12 C10 1_555 1_555
H13 C11 1_555 1_555
H14 C11 1_555 1_555
H15 C12 1_555 1_555
H16 C12 1_555 1_555
H17 C13 1_555 1_555
H18 C13 1_555 1_555
C5 N1 1_555 1_555
N2 N3 1_555 1_555

#END
