
#######################################################################
#
#                 Cambridge Crystallographic Data Centre
#                                CCDC 
#
#######################################################################
#
# If this CIF has been generated from an entry in the Cambridge 
# Structural Database, then it will include bibliographic, chemical, 
# crystal, experimental, refinement or atomic coordinate data resulting 
# from the CCDC's data processing and validation procedures.
#
#######################################################################

data_GEGKAF
_chemical_formula_moiety         'C13 H22 N4 O2'
_chemical_name_systematic        N,N'-Dibutyl-1H-pyrazole-3,5-dicarboxamide
_symmetry_cell_setting           monoclinic
_symmetry_space_group_name_H-M   'P 21/c'
_symmetry_Int_Tables_number      14
_space_group_name_Hall           '-P 2ybc'
loop_
_symmetry_equiv_pos_site_id
_symmetry_equiv_pos_as_xyz
1 x,y,z
2 -x,1/2+y,1/2-z
3 -x,-y,-z
4 x,1/2-y,1/2+z
_cell_length_a                   20.7327(9)
_cell_length_b                   9.0253(5)
_cell_length_c                   16.9704(13)
_cell_angle_alpha                90
_cell_angle_beta                 109.001(3)
_cell_angle_gamma                90
_cell_volume                     3002.46
_exptl_crystal_colour            colorless
_exptl_crystal_description       laths
_chemical_melting_point          202-205deg.C
_cell_formula_units_Z            8
loop_
_atom_site_label
_atom_site_type_symbol
_atom_site_fract_x
_atom_site_fract_y
_atom_site_fract_z
N1 N 0.19870(13) 0.5754(4) 0.56928(17)
N2 N 0.19457(15) 0.6543(4) 0.63437(19)
C1 C 0.13133(15) 0.6565(5) 0.6410(2)
C2 C 0.09128(16) 0.5710(5) 0.5754(2)
H1 H 0.0436 0.5492 0.5620
C3 C 0.13510(16) 0.5241(4) 0.5329(2)
C4 C 0.11832(17) 0.4315(5) 0.4567(2)
O1 O 0.06163(11) 0.3707(3) 0.42958(14)
N3 N 0.16659(15) 0.4191(4) 0.42131(18)
C5 C 0.15759(18) 0.3343(5) 0.3452(2)
H2 H 0.1820 0.3827 0.3131
H3 H 0.1101 0.3342 0.3126
C6 C 0.1840(2) 0.1791(5) 0.3607(3)
H4 H 0.1702 0.1252 0.3092
H5 H 0.1629 0.1333 0.3972
C7 C 0.2598(2) 0.1640(6) 0.4000(3)
H6 H 0.2742 0.2135 0.4529
H7 H 0.2816 0.2110 0.3646
C8 C 0.2837(3) 0.0011(6) 0.4113(4)
H8 H 0.3323 -0.0071 0.4360
H9 H 0.2619 -0.0449 0.4470
H10 H 0.2694 -0.0474 0.3580
C9 C 0.11820(17) 0.7422(5) 0.7079(2)
O2 O 0.16630(11) 0.8014(3) 0.76298(14)
N4 N 0.05333(14) 0.7528(4) 0.70488(19)
C10 C 0.03190(17) 0.8387(5) 0.7650(2)
H11 H -0.0075 0.8967 0.7360
H12 H 0.0683 0.9060 0.7917
C11 C 0.01792(18) 0.7473(5) 0.8324(2)
H13 H -0.0175 0.6774 0.8063
H14 H 0.0019 0.8111 0.8673
C12 C 0.0788(2) 0.6633(5) 0.8872(2)
H15 H 0.1135 0.7325 0.9163
H16 H 0.0964 0.6025 0.8524
C13 C 0.0606(3) 0.5679(7) 0.9516(3)
H17 H 0.0998 0.5146 0.9858
H18 H 0.0432 0.6297 0.9861
H19 H 0.0260 0.4989 0.9218
H39 H 0.2289(17) 0.693(4) 0.666(2)
H40 H 0.2015(18) 0.476(4) 0.440(2)
H41 H 0.021(2) 0.710(5) 0.658(3)
N5 N 0.29806(13) 0.5671(4) 0.43728(17)
N6 N 0.29876(14) 0.6295(4) 0.36557(18)
C14 C 0.36187(16) 0.6314(5) 0.3581(2)
C15 C 0.40471(16) 0.5671(5) 0.4290(2)
H20 H 0.4529 0.5511 0.4434
C16 C 0.36325(16) 0.5279(4) 0.4762(2)
C17 C 0.38484(17) 0.4560(5) 0.5590(2)
O3 O 0.44314(11) 0.4059(3) 0.58890(14)
N7 N 0.33838(16) 0.4505(4) 0.59800(18)
C18 C 0.35153(18) 0.3828(6) 0.6798(2)
H21 H 0.3320 0.4430 0.7128
H22 H 0.4000 0.3810 0.7069
C19 C 0.3240(3) 0.2314(7) 0.6769(3)
H23 H 0.3386 0.1908 0.7322
H24 H 0.3436 0.1719 0.6436
C20 C 0.2490(3) 0.2139(7) 0.6429(4)
H25 H 0.2351 0.2436 0.5855
H26 H 0.2296 0.2832 0.6718
C21 C 0.2183(3) 0.0725(8) 0.6463(3)
H27 H 0.1695 0.0768 0.6223
H28 H 0.2360 0.0023 0.6161
H29 H 0.2304 0.0424 0.7036
C22 C 0.37254(17) 0.6932(5) 0.2832(2)
O4 O 0.32342(11) 0.7429(4) 0.22518(15)
N8 N 0.43587(14) 0.6917(4) 0.28089(19)
C23 C 0.45269(18) 0.7345(5) 0.2071(2)
H30 H 0.4965 0.7819 0.2227
H31 H 0.4190 0.8034 0.1751
C24 C 0.4529(2) 0.5965(7) 0.1520(3)
H32 H 0.4091 0.5496 0.1375
H33 H 0.4862 0.5279 0.1850
C25 C 0.4710(3) 0.6285(7) 0.0772(3)
H34 H 0.4409 0.7051 0.0470
H35 H 0.4632 0.5420 0.0424
C26 C 0.5418(2) 0.6804(7) 0.0924(3)
H36 H 0.5503 0.7018 0.0412
H37 H 0.5495 0.7680 0.1263
H38 H 0.5720 0.6033 0.1216
H42 H 0.2604(17) 0.654(4) 0.332(2)
H43 H 0.299(2) 0.487(5) 0.577(2)
H44 H 0.4694(15) 0.661(4) 0.3246(18)
loop_
_geom_bond_atom_site_label_1
_geom_bond_atom_site_label_2
_geom_bond_site_symmetry_1
_geom_bond_site_symmetry_2
N1 N2 1_555 1_555
N2 C1 1_555 1_555
C1 C2 1_555 1_555
C2 H1 1_555 1_555
C3 N1 1_555 1_555
C4 C3 1_555 1_555
O1 C4 1_555 1_555
N3 C4 1_555 1_555
C5 N3 1_555 1_555
H2 C5 1_555 1_555
H3 C5 1_555 1_555
C6 C5 1_555 1_555
H4 C6 1_555 1_555
H5 C6 1_555 1_555
C7 C6 1_555 1_555
H6 C7 1_555 1_555
H7 C7 1_555 1_555
C8 C7 1_555 1_555
H8 C8 1_555 1_555
H9 C8 1_555 1_555
H10 C8 1_555 1_555
C9 C1 1_555 1_555
O2 C9 1_555 1_555
N4 C9 1_555 1_555
C10 N4 1_555 1_555
H11 C10 1_555 1_555
H12 C10 1_555 1_555
C11 C10 1_555 1_555
H13 C11 1_555 1_555
H14 C11 1_555 1_555
C12 C11 1_555 1_555
H15 C12 1_555 1_555
H16 C12 1_555 1_555
C13 C12 1_555 1_555
H17 C13 1_555 1_555
H18 C13 1_555 1_555
H19 C13 1_555 1_555
N5 N6 1_555 1_555
N6 C14 1_555 1_555
C14 C15 1_555 1_555
C15 H20 1_555 1_555
C16 N5 1_555 1_555
C17 C16 1_555 1_555
O3 C17 1_555 1_555
N7 C17 1_555 1_555
C18 N7 1_555 1_555
H21 C18 1_555 1_555
H22 C18 1_555 1_555
C19 C18 1_555 1_555
H23 C19 1_555 1_555
H24 C19 1_555 1_555
C20 C19 1_555 1_555
H25 C20 1_555 1_555
H26 C20 1_555 1_555
C21 C20 1_555 1_555
H27 C21 1_555 1_555
H28 C21 1_555 1_555
H29 C21 1_555 1_555
C22 C14 1_555 1_555
O4 C22 1_555 1_555
N8 C22 1_555 1_555
C23 N8 1_555 1_555
H30 C23 1_555 1_555
H31 C23 1_555 1_555
C24 C23 1_555 1_555
H32 C24 1_555 1_555
H33 C24 1_555 1_555
C25 C24 1_555 1_555
H34 C25 1_555 1_555
H35 C25 1_555 1_555
C26 C25 1_555 1_555
H36 C26 1_555 1_555
H37 C26 1_555 1_555
H38 C26 1_555 1_555
H39 N2 1_555 1_555
H40 N3 1_555 1_555
H41 N4 1_555 1_555
H42 N6 1_555 1_555
H43 N7 1_555 1_555
H44 N8 1_555 1_555
C2 C3 1_555 1_555
C15 C16 1_555 1_555

#END
