
#######################################################################
#
#                 Cambridge Crystallographic Data Centre
#                                CCDC 
#
#######################################################################
#
# If this CIF has been generated from an entry in the Cambridge 
# Structural Database, then it will include bibliographic, chemical, 
# crystal, experimental, refinement or atomic coordinate data resulting 
# from the CCDC's data processing and validation procedures.
#
#######################################################################

data_GEGKOV
_chemical_formula_moiety         'C21 H15 N1'
_chemical_name_systematic        2-(biphenyl-2-yl)quinoline
_symmetry_cell_setting           monoclinic
_symmetry_space_group_name_H-M   'P 21/c'
_symmetry_Int_Tables_number      14
_space_group_name_Hall           '-P 2ybc'
loop_
_symmetry_equiv_pos_site_id
_symmetry_equiv_pos_as_xyz
1 x,y,z
2 -x,1/2+y,1/2-z
3 -x,-y,-z
4 x,1/2-y,1/2+z
_cell_length_a                   11.561(3)
_cell_length_b                   11.591(3)
_cell_length_c                   12.484(3)
_cell_angle_alpha                90
_cell_angle_beta                 114.158(4)
_cell_angle_gamma                90
_cell_volume                     1526.39
_exptl_crystal_colour            colorless
_exptl_crystal_description       block
_cell_formula_units_Z            4
loop_
_atom_site_label
_atom_site_type_symbol
_atom_site_fract_x
_atom_site_fract_y
_atom_site_fract_z
N1 N 0.57789(13) 0.15080(11) 0.20819(11)
C1 C 0.69067(17) 0.06260(15) 0.55829(15)
H1 H 0.6339 0.1177 0.5117
C2 C 0.6562(2) -0.00815(18) 0.62914(17)
H2 H 0.5767 -0.0003 0.6303
C3 C 0.7390(3) -0.08997(19) 0.69782(18)
H3 H 0.7158 -0.1375 0.7457
C4 C 0.8556(2) -0.10152(17) 0.69586(18)
H4 H 0.9114 -0.1575 0.7420
C5 C 0.89120(18) -0.03043(16) 0.62563(15)
H5 H 0.9712 -0.0384 0.6254
C6 C 0.80874(16) 0.05254(14) 0.55562(13)
C7 C 0.85026(15) 0.13457(14) 0.48638(14)
C8 C 0.95887(18) 0.19895(17) 0.54648(16)
H6 H 1.0059 0.1843 0.6258
C9 C 0.9994(2) 0.28384(18) 0.49257(18)
H7 H 1.0725 0.3257 0.5351
C10 C 0.93057(19) 0.30592(17) 0.37539(19)
H8 H 0.9560 0.3640 0.3384
C11 C 0.82415(17) 0.24206(15) 0.31308(16)
H9 H 0.7789 0.2569 0.2335
C12 C 0.78209(15) 0.15535(13) 0.36607(14)
C13 C 0.66734(15) 0.08922(13) 0.28947(13)
C14 C 0.65824(18) -0.03167(14) 0.29868(14)
H10 H 0.7231 -0.0725 0.3566
C15 C 0.55404(18) -0.08747(15) 0.22231(15)
H11 H 0.5465 -0.1668 0.2286
C16 C 0.45744(17) -0.02558(15) 0.13375(15)
C17 C 0.3463(2) -0.0762(2) 0.04892(18)
H12 H 0.3335 -0.1553 0.0509
C18 C 0.2579(2) -0.0105(2) -0.0356(2)
H13 H 0.1853 -0.0448 -0.0908
C19 C 0.27595(19) 0.1074(2) -0.03951(18)
H14 H 0.2155 0.1514 -0.0981
C20 C 0.38033(17) 0.15964(17) 0.04077(16)
H15 H 0.3904 0.2390 0.0373
C21 C 0.47382(16) 0.09441(15) 0.12960(14)
loop_
_geom_bond_atom_site_label_1
_geom_bond_atom_site_label_2
_geom_bond_site_symmetry_1
_geom_bond_site_symmetry_2
N1 C13 1_555 1_555
C1 H1 1_555 1_555
C2 C1 1_555 1_555
H2 C2 1_555 1_555
C3 C2 1_555 1_555
H3 C3 1_555 1_555
C4 C3 1_555 1_555
H4 C4 1_555 1_555
C5 C4 1_555 1_555
H5 C5 1_555 1_555
C6 C1 1_555 1_555
C7 C6 1_555 1_555
C8 C7 1_555 1_555
H6 C8 1_555 1_555
C9 C8 1_555 1_555
H7 C9 1_555 1_555
C10 C9 1_555 1_555
H8 C10 1_555 1_555
C11 C10 1_555 1_555
H9 C11 1_555 1_555
C12 C7 1_555 1_555
C13 C12 1_555 1_555
C14 C13 1_555 1_555
H10 C14 1_555 1_555
C15 C14 1_555 1_555
H11 C15 1_555 1_555
C16 C15 1_555 1_555
C17 C16 1_555 1_555
H12 C17 1_555 1_555
C18 C17 1_555 1_555
H13 C18 1_555 1_555
C19 C18 1_555 1_555
H14 C19 1_555 1_555
C20 C19 1_555 1_555
H15 C20 1_555 1_555
C21 N1 1_555 1_555
C5 C6 1_555 1_555
C11 C12 1_555 1_555
C16 C21 1_555 1_555
C20 C21 1_555 1_555

#END
