
#######################################################################
#
#                 Cambridge Crystallographic Data Centre
#                                CCDC 
#
#######################################################################
#
# If this CIF has been generated from an entry in the Cambridge 
# Structural Database, then it will include bibliographic, chemical, 
# crystal, experimental, refinement or atomic coordinate data resulting 
# from the CCDC's data processing and validation procedures.
#
#######################################################################

data_GEGKOU
_chemical_formula_moiety         'C27 H21 N1'
_chemical_name_systematic        
3-(1-Naphthyl)-9-phenyl-2,3-dihydro-1H-pyrrolo[1,2-a]indole
_symmetry_cell_setting           orthorhombic
_symmetry_space_group_name_H-M   'P b c a'
_symmetry_Int_Tables_number      61
_space_group_name_Hall           '-P 2ac 2ab'
loop_
_symmetry_equiv_pos_site_id
_symmetry_equiv_pos_as_xyz
1 x,y,z
2 1/2-x,-y,1/2+z
3 -x,1/2+y,1/2-z
4 1/2+x,1/2-y,-z
5 -x,-y,-z
6 1/2+x,y,1/2-z
7 x,1/2-y,1/2+z
8 1/2-x,1/2+y,z
_cell_length_a                   16.2578(8)
_cell_length_b                   8.2615(4)
_cell_length_c                   28.7208(15)
_cell_angle_alpha                90
_cell_angle_beta                 90
_cell_angle_gamma                90
_cell_volume                     3857.6
_exptl_crystal_colour            colorless
_exptl_crystal_description       prismatic
_cell_formula_units_Z            8
loop_
_atom_site_label
_atom_site_type_symbol
_atom_site_fract_x
_atom_site_fract_y
_atom_site_fract_z
N1 N 0.06566(7) 0.39782(14) 0.43035(4)
C1 C 0.10247(8) 0.54658(17) 0.42614(5)
C2 C 0.10420(10) 0.6517(2) 0.38873(6)
H1 H 0.0806 0.6241 0.3603
C3 C 0.14230(11) 0.7991(2) 0.39510(6)
H2 H 0.1437 0.8735 0.3708
C4 C 0.17874(10) 0.8375(2) 0.43756(7)
H3 H 0.2043 0.9375 0.4410
C5 C 0.17798(9) 0.73222(18) 0.47436(6)
H4 H 0.2033 0.7602 0.5022
C6 C 0.13870(8) 0.58157(16) 0.46977(5)
C7 C 0.12143(8) 0.44652(17) 0.50041(5)
C8 C 0.07580(9) 0.33987(16) 0.47436(5)
C9 C 0.03397(10) 0.17990(18) 0.47837(5)
H5 H -0.0009 0.1760 0.5057
H6 H 0.0737 0.0926 0.4800
C10 C -0.01720(11) 0.1689(2) 0.43374(5)
H7 H -0.0748 0.1887 0.4406
H8 H -0.0121 0.0619 0.4201
C11 C 0.01564(9) 0.29839(18) 0.39958(5)
H9 H -0.0305 0.3628 0.3878
C12 C 0.14484(9) 0.42586(18) 0.54950(5)
C13 C 0.21398(11) 0.5012(2) 0.56861(7)
H10 H 0.2474 0.5651 0.5498
C14 C 0.23300(15) 0.4816(3) 0.61507(8)
H11 H 0.2791 0.5331 0.6273
C15 C 0.18527(16) 0.3877(3) 0.64360(7)
H12 H 0.1986 0.3759 0.6749
C16 C 0.11795(13) 0.3117(3) 0.62564(7)
H13 H 0.0852 0.2474 0.6447
C17 C 0.09835(10) 0.3302(2) 0.57917(6)
H14 H 0.0525 0.2768 0.5674
C18 C 0.06247(9) 0.22723(16) 0.35903(5)
C19 C 0.14638(9) 0.22986(18) 0.35703(5)
H15 H 0.1758 0.2808 0.3806
C20 C 0.18892(10) 0.1571(2) 0.32006(6)
H16 H 0.2461 0.1602 0.3195
C21 C 0.14782(11) 0.0831(2) 0.28544(6)
H17 H 0.1770 0.0341 0.2614
C22 C 0.06092(10) 0.0787(2) 0.28508(5)
C23 C 0.01733(9) 0.15135(17) 0.32235(5)
C24 C -0.06941(10) 0.1457(2) 0.32118(5)
H18 H -0.0995 0.1916 0.3453
C25 C -0.10949(12) 0.0736(2) 0.28501(6)
H19 H -0.1667 0.0717 0.2847
C26 C -0.06629(13) 0.0028(3) 0.24849(6)
H20 H -0.0945 -0.0461 0.2241
C27 C 0.01667(13) 0.0052(2) 0.24854(6)
H21 H 0.0452 -0.0425 0.2240
loop_
_geom_bond_atom_site_label_1
_geom_bond_atom_site_label_2
_geom_bond_site_symmetry_1
_geom_bond_site_symmetry_2
N1 C1 1_555 1_555
C1 C2 1_555 1_555
C2 H1 1_555 1_555
C3 C2 1_555 1_555
H2 C3 1_555 1_555
C4 C3 1_555 1_555
H3 C4 1_555 1_555
C5 C4 1_555 1_555
H4 C5 1_555 1_555
C6 C1 1_555 1_555
C7 C6 1_555 1_555
C8 N1 1_555 1_555
C9 C8 1_555 1_555
H5 C9 1_555 1_555
H6 C9 1_555 1_555
C10 C9 1_555 1_555
H7 C10 1_555 1_555
H8 C10 1_555 1_555
C11 N1 1_555 1_555
H9 C11 1_555 1_555
C12 C7 1_555 1_555
C13 C12 1_555 1_555
H10 C13 1_555 1_555
C14 C13 1_555 1_555
H11 C14 1_555 1_555
C15 C14 1_555 1_555
H12 C15 1_555 1_555
C16 C15 1_555 1_555
H13 C16 1_555 1_555
C17 C12 1_555 1_555
H14 C17 1_555 1_555
C18 C11 1_555 1_555
C19 C18 1_555 1_555
H15 C19 1_555 1_555
C20 C19 1_555 1_555
H16 C20 1_555 1_555
C21 C20 1_555 1_555
H17 C21 1_555 1_555
C22 C21 1_555 1_555
C23 C18 1_555 1_555
C24 C23 1_555 1_555
H18 C24 1_555 1_555
C25 C24 1_555 1_555
H19 C25 1_555 1_555
C26 C25 1_555 1_555
H20 C26 1_555 1_555
C27 C22 1_555 1_555
H21 C27 1_555 1_555
C5 C6 1_555 1_555
C7 C8 1_555 1_555
C10 C11 1_555 1_555
C16 C17 1_555 1_555
C22 C23 1_555 1_555
C26 C27 1_555 1_555

#END
