
#######################################################################
#
#                 Cambridge Crystallographic Data Centre
#                                CCDC 
#
#######################################################################
#
# If this CIF has been generated from an entry in the Cambridge 
# Structural Database, then it will include bibliographic, chemical, 
# crystal, experimental, refinement or atomic coordinate data resulting 
# from the CCDC's data processing and validation procedures.
#
#######################################################################

data_GEGMIR
_chemical_name_common            
1-benzyl-4-oxo-3-phenyl-1,4-dihydrocinnoline-2-oxide
_chemical_formula_moiety         'C21 H16 N2 O2'
_chemical_name_systematic        1-benzyl-3-phenylcinnoline-2,4(1H)-diol
_symmetry_cell_setting           triclinic
_symmetry_space_group_name_H-M   'P -1'
_symmetry_Int_Tables_number      2
_space_group_name_Hall           '-P 1'
loop_
_symmetry_equiv_pos_site_id
_symmetry_equiv_pos_as_xyz
1 x,y,z
2 -x,-y,-z
_cell_length_a                   8.7503(9)
_cell_length_b                   9.6953(12)
_cell_length_c                   11.4579(11)
_cell_angle_alpha                110.873(10)
_cell_angle_beta                 100.607(9)
_cell_angle_gamma                108.497(10)
_cell_volume                     811.477
_exptl_crystal_colour            yellow
_exptl_crystal_description       parallelepiped
_cell_formula_units_Z            2
loop_
_atom_site_label
_atom_site_type_symbol
_atom_site_fract_x
_atom_site_fract_y
_atom_site_fract_z
O1 O 0.02910(17) 0.35349(19) 0.50582(14)
O2 O 0.3223(2) 0.0393(2) 0.37215(16)
N1 N 0.3113(2) 0.4602(2) 0.60542(15)
N2 N 0.1631(2) 0.3293(2) 0.51140(15)
C1 C 0.4657(2) 0.4456(3) 0.62658(18)
C2 C 0.6154(3) 0.5761(3) 0.7249(2)
H1 H 0.6119 0.6731 0.7769
C3 C 0.7666(3) 0.5591(3) 0.7436(2)
H2 H 0.8662 0.6463 0.8072
C4 C 0.7735(3) 0.4149(3) 0.6697(2)
H3 H 0.8767 0.4049 0.6846
C5 C 0.6285(3) 0.2869(3) 0.5745(2)
H4 H 0.6333 0.1895 0.5254
C6 C 0.4728(2) 0.3011(3) 0.55045(18)
C7 C 0.3202(3) 0.1668(3) 0.4455(2)
C8 C 0.1628(2) 0.1887(3) 0.43208(18)
C9 C 0.2956(3) 0.6122(3) 0.67151(18)
H5 H 0.1974 0.6105 0.6146
H6 H 0.3963 0.7012 0.6818
C10 C 0.2760(2) 0.6456(2) 0.80517(18)
C11 C 0.2961(3) 0.7997(3) 0.8849(2)
H7 H 0.3247 0.8798 0.8562
C12 C 0.2742(3) 0.8364(3) 1.0067(2)
H8 H 0.2888 0.9412 1.0593
C13 C 0.2316(3) 0.7211(3) 1.0506(2)
H9 H 0.2163 0.7462 1.1327
C14 C 0.2115(3) 0.5677(3) 0.9726(2)
H10 H 0.1823 0.4881 1.0019
C15 C 0.2343(3) 0.5298(3) 0.8503(2)
H11 H 0.2212 0.4253 0.7985
C16 C -0.0018(3) 0.0607(3) 0.3308(2)
C17 C -0.1514(3) 0.0123(3) 0.3589(2)
H12 H -0.1510 0.0605 0.4452
C18 C -0.3016(3) -0.1074(3) 0.2595(3)
H13 H -0.4016 -0.1390 0.2794
C19 C -0.3041(3) -0.1801(3) 0.1313(3)
H14 H -0.4054 -0.2603 0.0645
C20 C -0.1562(3) -0.1330(3) 0.1032(2)
H15 H -0.1570 -0.1822 0.0169
C21 C -0.0061(3) -0.0134(3) 0.2017(2)
H16 H 0.0934 0.0179 0.1811
loop_
_geom_bond_atom_site_label_1
_geom_bond_atom_site_label_2
_geom_bond_site_symmetry_1
_geom_bond_site_symmetry_2
O1 N2 1_555 1_555
O2 C7 1_555 1_555
N1 N2 1_555 1_555
N2 C8 1_555 1_555
C1 N1 1_555 1_555
C2 C1 1_555 1_555
H1 C2 1_555 1_555
C3 C2 1_555 1_555
H2 C3 1_555 1_555
C4 C3 1_555 1_555
H3 C4 1_555 1_555
C5 C4 1_555 1_555
H4 C5 1_555 1_555
C6 C1 1_555 1_555
C7 C6 1_555 1_555
C8 C7 1_555 1_555
C9 N1 1_555 1_555
H5 C9 1_555 1_555
H6 C9 1_555 1_555
C10 C9 1_555 1_555
C11 C10 1_555 1_555
H7 C11 1_555 1_555
C12 C11 1_555 1_555
H8 C12 1_555 1_555
C13 C12 1_555 1_555
H9 C13 1_555 1_555
C14 C13 1_555 1_555
H10 C14 1_555 1_555
C15 C10 1_555 1_555
H11 C15 1_555 1_555
C16 C8 1_555 1_555
C17 C16 1_555 1_555
H12 C17 1_555 1_555
C18 C17 1_555 1_555
H13 C18 1_555 1_555
C19 C18 1_555 1_555
H14 C19 1_555 1_555
C20 C19 1_555 1_555
H15 C20 1_555 1_555
C21 C16 1_555 1_555
H16 C21 1_555 1_555
C5 C6 1_555 1_555
C14 C15 1_555 1_555
C20 C21 1_555 1_555

#END
