
#######################################################################
#
#                 Cambridge Crystallographic Data Centre
#                                CCDC 
#
#######################################################################
#
# If this CIF has been generated from an entry in the Cambridge 
# Structural Database, then it will include bibliographic, chemical, 
# crystal, experimental, refinement or atomic coordinate data resulting 
# from the CCDC's data processing and validation procedures.
#
#######################################################################

data_GEGMEN
_chemical_name_common            
3-benzoyl-1-(2-bromobenzyl)-1H-indazole-2-oxide
_chemical_formula_moiety         'C21 H15 Br1 N2 O2'
_chemical_name_systematic        
{1-[(2-bromophenyl)methyl]-2-oxo-1H-2-indazol-3-yl}(phenyl)methanone
_symmetry_cell_setting           triclinic
_symmetry_space_group_name_H-M   'P -1'
_symmetry_Int_Tables_number      2
_space_group_name_Hall           '-P 1'
loop_
_symmetry_equiv_pos_site_id
_symmetry_equiv_pos_as_xyz
1 x,y,z
2 -x,-y,-z
_cell_length_a                   8.7992(6)
_cell_length_b                   10.9133(9)
_cell_length_c                   10.9900(11)
_cell_angle_alpha                94.759(8)
_cell_angle_beta                 111.587(7)
_cell_angle_gamma                113.194(7)
_cell_volume                     869.368
_exptl_crystal_colour            brown
_exptl_crystal_description       parallelepiped
_cell_formula_units_Z            2
loop_
_atom_site_label
_atom_site_type_symbol
_atom_site_fract_x
_atom_site_fract_y
_atom_site_fract_z
Br1 Br -0.30610(5) 0.42306(4) 0.08428(5)
O1 O 0.1154(3) 0.6558(3) 0.4559(3)
O2 O 0.5808(3) 0.8106(3) 0.8193(3)
N1 N 0.2726(4) 0.6684(3) 0.4737(3)
N2 N 0.2884(4) 0.6058(3) 0.3688(3)
C1 C 0.4692(4) 0.6271(3) 0.4148(4)
C2 C 0.5506(5) 0.5844(4) 0.3450(4)
H1 H 0.4851 0.5339 0.2543
C3 C 0.7365(5) 0.6218(4) 0.4189(4)
H2 H 0.7971 0.5952 0.3767
C4 C 0.8330(5) 0.6977(4) 0.5540(4)
H3 H 0.9569 0.7208 0.5999
C5 C 0.7509(4) 0.7400(4) 0.6225(4)
H4 H 0.8172 0.7905 0.7132
C6 C 0.5630(4) 0.7039(3) 0.5502(4)
C7 C 0.4359(4) 0.7308(4) 0.5842(4)
C8 C 0.1270(4) 0.5288(4) 0.2413(4)
H5 H 0.0270 0.4667 0.2584
H6 H 0.1527 0.4732 0.1858
C9 C 0.0686(5) 0.6243(4) 0.1650(4)
C10 C 0.1979(5) 0.7474(4) 0.1644(4)
H7 H 0.3220 0.7712 0.2113
C11 C 0.1484(5) 0.8369(4) 0.0960(4)
H8 H 0.2382 0.9188 0.0963
C12 C -0.0350(5) 0.8037(4) 0.0277(4)
H9 H -0.0689 0.8642 -0.0167
C13 C -0.1680(5) 0.6810(4) 0.0249(4)
H10 H -0.2917 0.6581 -0.0220
C14 C -0.1165(4) 0.5918(4) 0.0925(4)
C15 C 0.4661(5) 0.8094(4) 0.7121(4)
C16 C 0.3680(4) 0.8950(4) 0.7125(4)
C17 C 0.3431(5) 0.9269(4) 0.8260(4)
H11 H 0.3779 0.8890 0.8978
C18 C 0.2666(5) 1.0153(4) 0.8336(4)
H12 H 0.2509 1.0375 0.9102
C19 C 0.2137(5) 1.0700(4) 0.7247(4)
H13 H 0.1610 1.1284 0.7284
C20 C 0.2382(5) 1.0392(4) 0.6123(4)
H14 H 0.2030 1.0772 0.5405
C21 C 0.3154(5) 0.9514(4) 0.6050(4)
H15 H 0.3319 0.9303 0.5285
loop_
_geom_bond_atom_site_label_1
_geom_bond_atom_site_label_2
_geom_bond_site_symmetry_1
_geom_bond_site_symmetry_2
Br1 C14 1_555 1_555
O1 N1 1_555 1_555
O2 C15 1_555 1_555
N1 N2 1_555 1_555
N2 C1 1_555 1_555
C1 C2 1_555 1_555
C2 H1 1_555 1_555
C3 C2 1_555 1_555
H2 C3 1_555 1_555
C4 C3 1_555 1_555
H3 C4 1_555 1_555
C5 C4 1_555 1_555
H4 C5 1_555 1_555
C6 C1 1_555 1_555
C7 N1 1_555 1_555
C8 N2 1_555 1_555
H5 C8 1_555 1_555
H6 C8 1_555 1_555
C9 C8 1_555 1_555
C10 C9 1_555 1_555
H7 C10 1_555 1_555
C11 C10 1_555 1_555
H8 C11 1_555 1_555
C12 C11 1_555 1_555
H9 C12 1_555 1_555
C13 C12 1_555 1_555
H10 C13 1_555 1_555
C14 C9 1_555 1_555
C15 C7 1_555 1_555
C16 C15 1_555 1_555
C17 C16 1_555 1_555
H11 C17 1_555 1_555
C18 C17 1_555 1_555
H12 C18 1_555 1_555
C19 C18 1_555 1_555
H13 C19 1_555 1_555
C20 C19 1_555 1_555
H14 C20 1_555 1_555
C21 C16 1_555 1_555
H15 C21 1_555 1_555
C5 C6 1_555 1_555
C6 C7 1_555 1_555
C13 C14 1_555 1_555
C20 C21 1_555 1_555

#END
