
#######################################################################
#
#                 Cambridge Crystallographic Data Centre
#                                CCDC 
#
#######################################################################
#
# If this CIF has been generated from an entry in the Cambridge 
# Structural Database, then it will include bibliographic, chemical, 
# crystal, experimental, refinement or atomic coordinate data resulting 
# from the CCDC's data processing and validation procedures.
#
#######################################################################

data_GEGNAK
_chemical_formula_moiety         'C35 H26 B1 F2 N3 O3,C1 H2 Cl2'
_chemical_name_systematic        
'difluoro(2-(4-methoxyphenyl)-5-{[5-(4-methoxyphenyl)-3-phenyl-2H-pyrrol-2-ylidene]amino}-4-phenyl-1H-pyrrole-3-carbaldehydato)boron dichloromethane solvate'
_symmetry_cell_setting           triclinic
_symmetry_space_group_name_H-M   'P -1'
_symmetry_Int_Tables_number      2
_space_group_name_Hall           '-P 1'
loop_
_symmetry_equiv_pos_site_id
_symmetry_equiv_pos_as_xyz
1 x,y,z
2 -x,-y,-z
_cell_length_a                   10.5005(14)
_cell_length_b                   10.9651(14)
_cell_length_c                   14.8670(19)
_cell_angle_alpha                90.158(2)
_cell_angle_beta                 104.4160(10)
_cell_angle_gamma                102.641(2)
_cell_volume                     1614.72
_exptl_crystal_colour            colorless
_exptl_crystal_description       block
_cell_formula_units_Z            2
loop_
_atom_site_label
_atom_site_type_symbol
_atom_site_fract_x
_atom_site_fract_y
_atom_site_fract_z
B1 B 0.6985(2) 0.04548(19) 0.36653(14)
C1 C 0.87854(18) 0.22045(16) 0.31133(12)
C2 C 0.99516(18) 0.31306(17) 0.35712(13)
H1 H 1.0479 0.3702 0.3275
C3 C 1.01746(17) 0.30512(16) 0.45054(13)
C4 C 0.91599(17) 0.19702(16) 0.46314(12)
C5 C 0.82123(17) 0.03591(15) 0.53948(12)
C6 C 0.81354(17) -0.03996(16) 0.61465(12)
C7 C 0.70604(18) -0.14385(16) 0.57874(13)
C8 C 0.64983(17) -0.12566(15) 0.48488(13)
C9 C 0.82175(19) 0.21000(17) 0.21136(13)
C10 C 0.6848(2) 0.1703(2) 0.16777(14)
H2 H 0.6241 0.1437 0.2036
C11 C 0.6376(2) 0.1696(2) 0.07274(15)
H3 H 0.5457 0.1423 0.0451
C12 C 0.7254(2) 0.2093(2) 0.01829(14)
C13 C 0.8624(3) 0.2472(3) 0.05994(15)
H4 H 0.9225 0.2723 0.0233
C14 C 0.9102(2) 0.2479(2) 0.15446(14)
H5 H 1.0025 0.2739 0.1814
C15 C 0.5497(3) 0.1779(4) -0.12270(19)
H6 H 0.5181 0.0901 -0.1163
H7 H 0.5380 0.1933 -0.1874
H8 H 0.4990 0.2245 -0.0963
C16 C 1.11773(17) 0.39057(17) 0.52319(13)
C17 C 1.1425(2) 0.3690(2) 0.61720(15)
H9 H 1.0962 0.2958 0.6367
C18 C 1.2359(2) 0.4558(2) 0.68216(17)
H10 H 1.2518 0.4400 0.7449
C19 C 1.3053(2) 0.5650(2) 0.65537(18)
H11 H 1.3679 0.6228 0.6995
C20 C 1.2810(2) 0.58734(19) 0.56275(17)
H12 H 1.3275 0.6608 0.5438
C21 C 1.18870(19) 0.50233(18) 0.49795(15)
H13 H 1.1729 0.5196 0.4354
C22 C 0.8934(2) -0.00386(17) 0.71061(13)
C23 C 1.0298(2) 0.05396(19) 0.72971(15)
H14 H 1.0730 0.0634 0.6818
C24 C 1.1018(3) 0.0977(2) 0.81962(19)
H15 H 1.1933 0.1352 0.8317
C25 C 1.0393(4) 0.0859(3) 0.89047(19)
H16 H 1.0875 0.1168 0.9504
C26 C 0.9044(4) 0.0279(3) 0.87277(17)
H17 H 0.8622 0.0195 0.9212
C27 C 0.8310(3) -0.0179(2) 0.78391(15)
H18 H 0.7403 -0.0579 0.7729
C28 C 0.6580(2) -0.25476(19) 0.62499(15)
H19 H 0.5783 -0.3091 0.5929
C29 C 0.52949(17) -0.20513(16) 0.42061(12)
C30 C 0.52386(19) -0.33016(17) 0.39907(15)
H20 H 0.5982 -0.3637 0.4240
C31 C 0.4104(2) -0.40443(17) 0.34169(15)
H21 H 0.4089 -0.4874 0.3273
C32 C 0.29758(18) -0.35637(17) 0.30490(13)
C33 C 0.30097(19) -0.23327(17) 0.32625(14)
H22 H 0.2255 -0.2007 0.3026
C34 C 0.41640(18) -0.15811(17) 0.38274(14)
H23 H 0.4185 -0.0746 0.3957
C35 C 0.0768(2) -0.3888(2) 0.20294(19)
H24 H 0.0377 -0.3578 0.2476
H25 H 0.0103 -0.4537 0.1628
H26 H 0.1072 -0.3218 0.1665
F1 F 0.58973(11) 0.10139(11) 0.35375(8)
F2 F 0.68080(12) -0.04067(11) 0.29492(8)
N1 N 0.83042(15) 0.15081(13) 0.37565(10)
N2 N 0.91128(14) 0.14377(13) 0.54062(10)
N3 N 0.72102(14) -0.01695(13) 0.46099(10)
O1 O 0.68848(19) 0.2157(2) -0.07558(11)
O2 O 0.18801(14) -0.43813(13) 0.25005(11)
O3 O 0.71165(19) -0.28277(15) 0.70084(12)
C37 C 0.6990(8) 0.5939(10) 0.8969(4)
H29 H 0.7542 0.6336 0.8569
H30 H 0.6452 0.5150 0.8652
Cl3 Cl 0.8008(3) 0.5623(3) 0.99251(17)
Cl4 Cl 0.5971(7) 0.6813(8) 0.9057(2)
C36? C 0.6787(13) 0.543(2) 0.9130(18)
H27? H 0.6952 0.4597 0.9193
H28? H 0.7001 0.5733 0.8560
Cl1? Cl 0.7784(11) 0.6299(16) 0.9965(10)
Cl2? Cl 0.5200(4) 0.5335(7) 0.9020(4)
loop_
_geom_bond_atom_site_label_1
_geom_bond_atom_site_label_2
_geom_bond_site_symmetry_1
_geom_bond_site_symmetry_2
B1 F1 1_555 1_555
C1 C2 1_555 1_555
C2 H1 1_555 1_555
C3 C2 1_555 1_555
C4 C3 1_555 1_555
C5 C6 1_555 1_555
C6 C7 1_555 1_555
C7 C8 1_555 1_555
C8 C29 1_555 1_555
C9 C1 1_555 1_555
C10 C9 1_555 1_555
H2 C10 1_555 1_555
C11 C10 1_555 1_555
H3 C11 1_555 1_555
C12 C11 1_555 1_555
C13 C12 1_555 1_555
H4 C13 1_555 1_555
C14 C9 1_555 1_555
H5 C14 1_555 1_555
C15 H6 1_555 1_555
H7 C15 1_555 1_555
H8 C15 1_555 1_555
C16 C3 1_555 1_555
C17 C16 1_555 1_555
H9 C17 1_555 1_555
C18 C17 1_555 1_555
H10 C18 1_555 1_555
C19 C18 1_555 1_555
H11 C19 1_555 1_555
C20 C19 1_555 1_555
H12 C20 1_555 1_555
C21 C16 1_555 1_555
H13 C21 1_555 1_555
C22 C6 1_555 1_555
C23 C22 1_555 1_555
H14 C23 1_555 1_555
C24 C23 1_555 1_555
H15 C24 1_555 1_555
C25 C24 1_555 1_555
H16 C25 1_555 1_555
C26 C25 1_555 1_555
H17 C26 1_555 1_555
C27 C22 1_555 1_555
H18 C27 1_555 1_555
C28 C7 1_555 1_555
H19 C28 1_555 1_555
C29 C30 1_555 1_555
C30 H20 1_555 1_555
C31 C30 1_555 1_555
H21 C31 1_555 1_555
C32 C31 1_555 1_555
C33 C32 1_555 1_555
H22 C33 1_555 1_555
C34 C29 1_555 1_555
H23 C34 1_555 1_555
C35 H24 1_555 1_555
H25 C35 1_555 1_555
H26 C35 1_555 1_555
F2 B1 1_555 1_555
N1 B1 1_555 1_555
N2 C4 1_555 1_555
N3 B1 1_555 1_555
O1 C12 1_555 1_555
O2 C32 1_555 1_555
O3 C28 1_555 1_555
C37 H29 1_555 1_555
H30 C37 1_555 1_555
Cl3 C37 1_555 1_555
Cl4 C37 1_555 1_555
C1 N1 1_555 1_555
C4 N1 1_555 1_555
C5 N2 1_555 1_555
C5 N3 1_555 1_555
C8 N3 1_555 1_555
C13 C14 1_555 1_555
C15 O1 1_555 1_555
C20 C21 1_555 1_555
C26 C27 1_555 1_555
C33 C34 1_555 1_555
C35 O2 1_555 1_555

#END
