
#######################################################################
#
#                 Cambridge Crystallographic Data Centre
#                                CCDC 
#
#######################################################################
#
# If this CIF has been generated from an entry in the Cambridge 
# Structural Database, then it will include bibliographic, chemical, 
# crystal, experimental, refinement or atomic coordinate data resulting 
# from the CCDC's data processing and validation procedures.
#
#######################################################################

data_GEGNEN
_chemical_formula_moiety         'C28 H38 O12,C5 H5 N1'
_chemical_name_systematic        
'13-(1,2-Dihydroxy-5-oxo-4,9,12-trioxatetracyclo[6.4.0.0^2,6^.0^3,10^]dodec-6-yl)-6,7,14-trihydroxy-7,17-epoxypodocarpan-1-yl acetate pyridine solvate'
_symmetry_cell_setting           tetragonal
_symmetry_space_group_name_H-M   'P 41 21 2'
_symmetry_Int_Tables_number      92
_space_group_name_Hall           'P 4abw 2nw'
loop_
_symmetry_equiv_pos_site_id
_symmetry_equiv_pos_as_xyz
1 x,y,z
2 1/2-y,1/2+x,1/4+z
3 1/2+y,1/2-x,3/4+z
4 1/2+x,1/2-y,3/4-z
5 1/2-x,1/2+y,1/4-z
6 -x,-y,1/2+z
7 y,x,-z
8 -y,-x,1/2-z
_cell_length_a                   11.6541(2)
_cell_length_b                   11.6541(2)
_cell_length_c                   43.9234(8)
_cell_angle_alpha                90
_cell_angle_beta                 90
_cell_angle_gamma                90
_cell_volume                     5965.59
_exptl_crystal_colour            colorless
_exptl_crystal_description       block
_cell_formula_units_Z            8
loop_
_atom_site_label
_atom_site_type_symbol
_atom_site_fract_x
_atom_site_fract_y
_atom_site_fract_z
O1 O 0.38755(9) 1.15187(9) 0.03110(2)
O2 O 0.26876(9) 1.05769(9) -0.00051(2)
O3 O 0.88157(9) 1.10048(9) 0.00432(2)
H1 H 0.9487 1.1266 0.0034
O4 O 0.71360(8) 1.26349(8) 0.05946(2)
O5 O 0.84234(9) 0.90537(8) 0.03598(2)
H2 H 0.8644 0.9605 0.0251
O6 O 0.60603(9) 0.70043(9) 0.12177(2)
O7 O 0.66916(9) 0.56311(9) 0.09107(2)
O8 O 0.99488(9) 0.56205(9) 0.05317(2)
O9 O 1.00334(9) 0.75381(9) 0.05804(2)
H3 H 0.9605 0.7952 0.0473
O10 O 0.89793(9) 0.54554(8) 0.11271(2)
O11 O 0.78158(10) 0.68171(9) 0.03119(2)
H4 H 0.7930 0.7509 0.0268
O12 O 0.89385(8) 1.18693(8) 0.06481(2)
H5 H 0.8859 1.1804 0.0837
C6 C 0.95537(14) 0.45452(13) 0.06564(3)
H11 H 1.0191 0.4155 0.0764
H12 H 0.9286 0.4038 0.0490
C7 C 0.85809(14) 0.47728(12) 0.08765(3)
H13 H 0.8265 0.4030 0.0953
C8 C 0.76540(13) 0.54330(13) 0.07101(3)
H14 H 0.7400 0.4998 0.0526
C9 C 0.81270(13) 0.66216(12) 0.06168(3)
C10 C 0.76426(12) 0.74289(12) 0.08694(3)
C11 C 0.71135(12) 0.86041(12) 0.07821(3)
H15 H 0.6862 0.8952 0.0979
C12 C 0.79507(12) 0.94899(12) 0.06413(3)
H16 H 0.8589 0.9643 0.0788
C13 C 0.72687(12) 1.05852(12) 0.05929(3)
H17 H 0.6888 1.0746 0.0792
C14 C 0.62821(12) 1.03889(12) 0.03644(3)
H18 H 0.6610 0.9945 0.0190
C15 C 0.59303(12) 1.15788(12) 0.02374(3)
C16 C 0.47724(12) 1.15518(13) 0.00749(3)
H19 H 0.4722 1.0843 -0.0053
C17 C 0.28783(13) 1.10195(13) 0.02392(3)
C18 C 0.20324(14) 1.10760(15) 0.04949(4)
H20 H 0.1661 1.1830 0.0496
H21 H 0.2431 1.0957 0.0689
H22 H 0.1451 1.0477 0.0468
C19 C 0.45650(14) 1.25958(13) -0.01238(3)
H23 H 0.4520 1.3287 0.0007
H24 H 0.3820 1.2510 -0.0230
C20 C 0.55121(14) 1.27589(13) -0.03589(3)
H25 H 0.5334 1.3441 -0.0485
H26 H 0.5531 1.2082 -0.0495
C21 C 0.66954(13) 1.29154(12) -0.02137(3)
C22 C 0.68922(12) 1.18658(12) 0.00007(3)
H27 H 0.6920 1.1186 -0.0138
C23 C 0.80591(12) 1.18695(12) 0.01650(3)
H28 H 0.8424 1.2636 0.0132
C24 C 0.78897(12) 1.16996(12) 0.05067(3)
C25 C 0.59635(12) 1.24232(12) 0.05068(3)
H29 H 0.5592 1.3154 0.0448
H30 H 0.5535 1.2098 0.0681
C26 C 0.67159(12) 0.67031(12) 0.10199(3)
C27 C 0.94347(13) 0.65798(12) 0.06750(3)
C28 C 0.94519(12) 0.65369(12) 0.10235(3)
H31 H 1.0241 0.6668 0.1106
C29 C 0.86451(12) 0.75158(12) 0.11055(3)
H32 H 0.9041 0.8265 0.1088
H33 H 0.8353 0.7427 0.1316
C30 C 0.60006(12) 0.84706(12) 0.05926(3)
H34 H 0.6189 0.8077 0.0399
H35 H 0.5459 0.7976 0.0706
C31 C 0.54066(12) 0.96099(12) 0.05195(3)
H36 H 0.4744 0.9477 0.0383
H37 H 0.5124 0.9972 0.0709
C32 C 0.76004(14) 1.28650(13) -0.04670(3)
H38 H 0.7549 1.2125 -0.0572
H39 H 0.8367 1.2951 -0.0378
H40 H 0.7463 1.3487 -0.0613
C33 C 0.67840(14) 1.40980(13) -0.00608(3)
H41 H 0.6652 1.4699 -0.0213
H42 H 0.7551 1.4191 0.0027
H43 H 0.6206 1.4158 0.0100
N1 N 0.25187(16) 1.03241(15) 0.12288(4)
C1 C 0.31789(17) 0.93918(18) 0.12529(4)
H6 H 0.3951 0.9439 0.1185
C2 C 0.27997(17) 0.83676(18) 0.13711(5)
H7 H 0.3302 0.7727 0.1385
C3 C 0.16776(17) 0.82836(16) 0.14701(4)
H8 H 0.1394 0.7589 0.1555
C4 C 0.09843(16) 0.92257(16) 0.14434(4)
H9 H 0.0206 0.9196 0.1508
C5 C 0.14325(18) 1.02154(18) 0.13225(4)
H10 H 0.0941 1.0862 0.1304
loop_
_geom_bond_atom_site_label_1
_geom_bond_atom_site_label_2
_geom_bond_site_symmetry_1
_geom_bond_site_symmetry_2
O1 C16 1_555 1_555
O2 C17 1_555 1_555
O3 H1 1_555 1_555
O4 C24 1_555 1_555
O5 H2 1_555 1_555
O6 C26 1_555 1_555
O7 C8 1_555 1_555
O8 C6 1_555 1_555
O9 H3 1_555 1_555
O10 C7 1_555 1_555
O11 H4 1_555 1_555
O12 H5 1_555 1_555
N1 C1 1_555 1_555
C1 H6 1_555 1_555
C2 C1 1_555 1_555
H7 C2 1_555 1_555
C3 C2 1_555 1_555
H8 C3 1_555 1_555
C4 C3 1_555 1_555
H9 C4 1_555 1_555
C5 N1 1_555 1_555
H10 C5 1_555 1_555
C6 H11 1_555 1_555
H12 C6 1_555 1_555
C7 C6 1_555 1_555
H13 C7 1_555 1_555
C8 C7 1_555 1_555
H14 C8 1_555 1_555
C9 O11 1_555 1_555
C10 C9 1_555 1_555
C11 C10 1_555 1_555
H15 C11 1_555 1_555
C12 O5 1_555 1_555
H16 C12 1_555 1_555
C13 C12 1_555 1_555
H17 C13 1_555 1_555
C14 C13 1_555 1_555
H18 C14 1_555 1_555
C15 C14 1_555 1_555
C16 C15 1_555 1_555
H19 C16 1_555 1_555
C17 O1 1_555 1_555
C18 C17 1_555 1_555
H20 C18 1_555 1_555
H21 C18 1_555 1_555
H22 C18 1_555 1_555
C19 C16 1_555 1_555
H23 C19 1_555 1_555
H24 C19 1_555 1_555
C20 C19 1_555 1_555
H25 C20 1_555 1_555
H26 C20 1_555 1_555
C21 C20 1_555 1_555
C22 C15 1_555 1_555
H27 C22 1_555 1_555
C23 O3 1_555 1_555
H28 C23 1_555 1_555
C24 O12 1_555 1_555
C25 O4 1_555 1_555
H29 C25 1_555 1_555
H30 C25 1_555 1_555
C26 O7 1_555 1_555
C27 O8 1_555 1_555
C28 O10 1_555 1_555
H31 C28 1_555 1_555
C29 C10 1_555 1_555
H32 C29 1_555 1_555
H33 C29 1_555 1_555
C30 C11 1_555 1_555
H34 C30 1_555 1_555
H35 C30 1_555 1_555
C31 C14 1_555 1_555
H36 C31 1_555 1_555
H37 C31 1_555 1_555
C32 C21 1_555 1_555
H38 C32 1_555 1_555
H39 C32 1_555 1_555
H40 C32 1_555 1_555
C33 C21 1_555 1_555
H41 C33 1_555 1_555
H42 C33 1_555 1_555
H43 C33 1_555 1_555
O9 C27 1_555 1_555
C4 C5 1_555 1_555
C8 C9 1_555 1_555
C9 C27 1_555 1_555
C10 C26 1_555 1_555
C11 C12 1_555 1_555
C13 C24 1_555 1_555
C15 C25 1_555 1_555
C21 C22 1_555 1_555
C22 C23 1_555 1_555
C23 C24 1_555 1_555
C27 C28 1_555 1_555
C28 C29 1_555 1_555
C30 C31 1_555 1_555

#END
