
#######################################################################
#
#                 Cambridge Crystallographic Data Centre
#                                CCDC 
#
#######################################################################
#
# If this CIF has been generated from an entry in the Cambridge 
# Structural Database, then it will include bibliographic, chemical, 
# crystal, experimental, refinement or atomic coordinate data resulting 
# from the CCDC's data processing and validation procedures.
#
#######################################################################

data_GEGPEP
_chemical_formula_moiety         'C24 H31 N5 O7 Si1'
_chemical_name_systematic        
1-((4-((t-Butyl(dimethyl)silyl)oxy)-3-nitro-2-phenylcyclopentyl)methylene)-2-(2,4-dinitrophenyl)hydrazine
_symmetry_cell_setting           monoclinic
_symmetry_space_group_name_H-M   'P 21'
_symmetry_Int_Tables_number      4
_space_group_name_Hall           'P 2yb'
loop_
_symmetry_equiv_pos_site_id
_symmetry_equiv_pos_as_xyz
1 x,y,z
2 -x,1/2+y,-z
_cell_length_a                   7.4101(2)
_cell_length_b                   46.0552(14)
_cell_length_c                   7.7207(2)
_cell_angle_alpha                90
_cell_angle_beta                 90.2100(8)
_cell_angle_gamma                90
_cell_volume                     2634.85
_exptl_crystal_colour            yellow
_exptl_crystal_description       needle
_cell_formula_units_Z            4
loop_
_atom_site_label
_atom_site_type_symbol
_atom_site_fract_x
_atom_site_fract_y
_atom_site_fract_z
Si1 Si 0.32107(9) 0.495807(15) 0.43102(10)
O1 O -0.1133(3) 0.50990(5) 0.7778(3)
O2 O -0.2954(2) 0.54450(4) 0.7130(2)
O3 O 0.1336(2) 0.71333(4) 0.6932(2)
O4 O 0.2968(2) 0.75191(4) 0.7232(2)
O5 O 0.8762(2) 0.76133(4) 0.4811(3)
O6 O 0.9834(3) 0.72767(4) 0.3156(3)
O7 O 0.2849(2) 0.53007(3) 0.4866(2)
N1 N 0.2809(3) 0.63689(4) 0.5129(3)
N2 N 0.2727(3) 0.66603(4) 0.5605(3)
H1 H 0.1776 0.6728 0.6153
N3 N -0.1501(3) 0.53232(5) 0.7016(3)
N4 N 0.2747(3) 0.72720(5) 0.6675(3)
N5 N 0.8667(3) 0.73728(5) 0.4123(3)
C1 C -0.0126(3) 0.54415(5) 0.5744(3)
H2 H -0.0299 0.5339 0.4615
C2 C -0.0370(3) 0.57690(5) 0.5421(3)
H3 H -0.1044 0.5854 0.6420
C3 C 0.1578(3) 0.58885(5) 0.5457(3)
H4 H 0.2160 0.5852 0.4311
C4 C 0.2470(3) 0.56963(5) 0.6834(3)
H5 H 0.3802 0.5712 0.6788
H6 H 0.2056 0.5749 0.8011
C5 C 0.1843(3) 0.53939(5) 0.6336(3)
H7 H 0.1935 0.5254 0.7323
C6 C 0.1644(3) 0.62057(5) 0.5849(3)
H8 H 0.0807 0.6287 0.6644
C7 C 0.4110(3) 0.68380(5) 0.5224(3)
C8 C 0.4181(3) 0.71367(5) 0.5711(3)
C9 C 0.5681(3) 0.73084(5) 0.5352(3)
H9 H 0.5711 0.7506 0.5708
C10 C 0.7114(3) 0.71903(6) 0.4481(3)
C11 C 0.7111(3) 0.68992(6) 0.3969(3)
H10 H 0.8114 0.6821 0.3365
C12 C 0.5665(3) 0.67290(5) 0.4341(3)
H11 H 0.5686 0.6531 0.4004
C13 C -0.1429(3) 0.58287(5) 0.3779(3)
C14 C -0.3175(3) 0.59361(5) 0.3828(3)
H12 H -0.3686 0.5990 0.4907
C15 C -0.4190(4) 0.59659(6) 0.2321(3)
H13 H -0.5381 0.6041 0.2374
C16 C -0.3466(4) 0.58857(6) 0.0748(4)
H14 H -0.4174 0.5897 -0.0277
C17 C -0.1707(4) 0.57886(6) 0.0674(3)
H15 H -0.1183 0.5743 -0.0414
C18 C -0.0708(4) 0.57569(6) 0.2166(3)
H16 H 0.0491 0.5685 0.2098
C19 C 0.1039(4) 0.47660(6) 0.3888(5)
H17 H 0.0284 0.4774 0.4927
H18 H 0.1283 0.4563 0.3594
H19 H 0.0407 0.4860 0.2922
C20 C 0.4390(4) 0.47686(6) 0.6109(4)
H20 H 0.5514 0.4871 0.6384
H21 H 0.4666 0.4569 0.5760
H22 H 0.3612 0.4766 0.7133
C21 C 0.4592(3) 0.49835(6) 0.2295(3)
C22 C 0.4850(4) 0.46777(6) 0.1522(4)
H23 H 0.3681 0.4601 0.1138
H24 H 0.5364 0.4549 0.2404
H25 H 0.5671 0.4689 0.0531
C23 C 0.6441(4) 0.51118(7) 0.2713(4)
H26 H 0.7139 0.5132 0.1644
H27 H 0.7083 0.4983 0.3517
H28 H 0.6289 0.5303 0.3248
C24 C 0.3676(4) 0.51776(7) 0.0945(4)
H29 H 0.4434 0.5189 -0.0090
H30 H 0.3510 0.5373 0.1427
H31 H 0.2499 0.5095 0.0635
Si2 Si 1.01546(10) 0.892038(15) 0.07482(10)
O8 O 0.5802(3) 0.87824(5) -0.2744(4)
O9 O 0.4012(3) 0.84315(4) -0.2186(3)
O10 O 0.9010(2) 0.67378(4) -0.2030(2)
O11 O 0.7380(2) 0.63503(4) -0.2316(2)
O12 O 0.1716(3) 0.62481(5) 0.0239(3)
O13 O 0.0432(3) 0.66041(4) 0.1601(3)
O14 O 0.9787(2) 0.85796(3) 0.0161(2)
N6 N 0.7356(3) 0.75110(4) -0.0500(3)
N7 N 0.7591(3) 0.72158(4) -0.0771(3)
H32 H 0.8615 0.7148 -0.1179
N8 N 0.5453(3) 0.85544(5) -0.2038(3)
N9 N 0.7597(3) 0.65969(5) -0.1784(3)
N10 N 0.1694(3) 0.64998(5) 0.0766(3)
C25 C 0.6829(3) 0.84357(5) -0.0763(3)
H33 H 0.6643 0.8537 0.0368
C26 C 0.6591(3) 0.81072(5) -0.0444(3)
H34 H 0.5941 0.8023 -0.1465
C27 C 0.8552(3) 0.79932(5) -0.0471(4)
H35 H 0.9111 0.8039 0.0678
C28 C 0.9456(3) 0.81864(5) -0.1827(3)
H36 H 1.0787 0.8172 -0.1757
H37 H 0.9057 0.8135 -0.3013
C29 C 0.8802(3) 0.84874(6) -0.1315(3)
H38 H 0.8893 0.8629 -0.2292
C30 C 0.8708(4) 0.76735(5) -0.0747(4)
H39 H 0.9823 0.7592 -0.1109
C31 C 0.6215(3) 0.70354(5) -0.0393(3)
C32 C 0.6161(3) 0.67390(5) -0.0837(3)
C33 C 0.4682(3) 0.65667(5) -0.0457(3)
H40 H 0.4677 0.6367 -0.0776
C34 C 0.3232(3) 0.66836(6) 0.0376(3)
C35 C 0.3216(3) 0.69754(5) 0.0854(3)
H41 H 0.2205 0.7053 0.1446
C36 C 0.4656(3) 0.71493(6) 0.0470(3)
H42 H 0.4624 0.7349 0.0780
C37 C 0.5493(3) 0.80430(5) 0.1152(3)
C38 C 0.3773(4) 0.79236(6) 0.1013(4)
H43 H 0.3315 0.7872 -0.0095
C39 C 0.2718(4) 0.78796(6) 0.2471(4)
H44 H 0.1550 0.7797 0.2357
C40 C 0.3362(5) 0.79556(7) 0.4076(5)
H45 H 0.2632 0.7931 0.5074
C41 C 0.5089(5) 0.80680(7) 0.4223(4)
H46 H 0.5552 0.8116 0.5336
C42 C 0.6145(4) 0.81116(6) 0.2788(4)
H47 H 0.7326 0.8189 0.2916
C43 C 0.7994(4) 0.91075(6) 0.1212(5)
H48 H 0.7216 0.9100 0.0184
H49 H 0.8234 0.9310 0.1516
H50 H 0.7390 0.9011 0.2181
C44 C 1.1301(4) 0.91158(6) -0.1039(4)
H51 H 1.2423 0.9015 -0.1333
H52 H 1.1579 0.9314 -0.0670
H53 H 1.0507 0.9121 -0.2056
C45 C 1.1557(3) 0.88899(6) 0.2757(4)
C46 C 1.1865(5) 0.91919(7) 0.3549(5)
H54 H 1.0710 0.9272 0.3940
H55 H 1.2388 0.9321 0.2675
H56 H 1.2693 0.9176 0.4537
C47 C 1.3399(4) 0.87557(7) 0.2298(4)
H57 H 1.4105 0.8727 0.3359
H58 H 1.4051 0.8887 0.1520
H59 H 1.3211 0.8568 0.1722
C48 C 1.0646(4) 0.86917(7) 0.4081(4)
H60 H 1.0469 0.8499 0.3574
H61 H 0.9475 0.8774 0.4404
H62 H 1.1412 0.8676 0.5114
loop_
_geom_bond_atom_site_label_1
_geom_bond_atom_site_label_2
_geom_bond_site_symmetry_1
_geom_bond_site_symmetry_2
Si1 O7 1_555 1_555
O1 N3 1_555 1_555
O2 N3 1_555 1_555
O3 N4 1_555 1_555
O4 N4 1_555 1_555
O5 N5 1_555 1_555
O6 N5 1_555 1_555
O7 C5 1_555 1_555
N1 N2 1_555 1_555
N2 H1 1_555 1_555
N3 C1 1_555 1_555
N4 C8 1_555 1_555
N5 C10 1_555 1_555
C1 H2 1_555 1_555
C2 C1 1_555 1_555
H3 C2 1_555 1_555
C3 C2 1_555 1_555
H4 C3 1_555 1_555
C4 C3 1_555 1_555
H5 C4 1_555 1_555
H6 C4 1_555 1_555
C5 C1 1_555 1_555
H7 C5 1_555 1_555
C6 N1 1_555 1_555
H8 C6 1_555 1_555
C7 N2 1_555 1_555
C8 C7 1_555 1_555
C9 C8 1_555 1_555
H9 C9 1_555 1_555
C10 C9 1_555 1_555
C11 C10 1_555 1_555
H10 C11 1_555 1_555
C12 C7 1_555 1_555
H11 C12 1_555 1_555
C13 C2 1_555 1_555
C14 C13 1_555 1_555
H12 C14 1_555 1_555
C15 C14 1_555 1_555
H13 C15 1_555 1_555
C16 C15 1_555 1_555
H14 C16 1_555 1_555
C17 C16 1_555 1_555
H15 C17 1_555 1_555
C18 C13 1_555 1_555
H16 C18 1_555 1_555
C19 Si1 1_555 1_555
H17 C19 1_555 1_555
H18 C19 1_555 1_555
H19 C19 1_555 1_555
C20 Si1 1_555 1_555
H20 C20 1_555 1_555
H21 C20 1_555 1_555
H22 C20 1_555 1_555
C21 Si1 1_555 1_555
C22 C21 1_555 1_555
H23 C22 1_555 1_555
H24 C22 1_555 1_555
H25 C22 1_555 1_555
C23 C21 1_555 1_555
H26 C23 1_555 1_555
H27 C23 1_555 1_555
H28 C23 1_555 1_555
C24 C21 1_555 1_555
H29 C24 1_555 1_555
H30 C24 1_555 1_555
H31 C24 1_555 1_555
Si2 O14 1_555 1_555
O8 N8 1_555 1_555
O9 N8 1_555 1_555
O10 N9 1_555 1_555
O11 N9 1_555 1_555
O12 N10 1_555 1_555
O13 N10 1_555 1_555
O14 C29 1_555 1_555
N6 N7 1_555 1_555
N7 H32 1_555 1_555
N8 C25 1_555 1_555
N9 C32 1_555 1_555
N10 C34 1_555 1_555
C25 H33 1_555 1_555
C26 C25 1_555 1_555
H34 C26 1_555 1_555
C27 C26 1_555 1_555
H35 C27 1_555 1_555
C28 C27 1_555 1_555
H36 C28 1_555 1_555
H37 C28 1_555 1_555
C29 C25 1_555 1_555
H38 C29 1_555 1_555
C30 N6 1_555 1_555
H39 C30 1_555 1_555
C31 N7 1_555 1_555
C32 C31 1_555 1_555
C33 C32 1_555 1_555
H40 C33 1_555 1_555
C34 C33 1_555 1_555
C35 C34 1_555 1_555
H41 C35 1_555 1_555
C36 C31 1_555 1_555
H42 C36 1_555 1_555
C37 C26 1_555 1_555
C38 C37 1_555 1_555
H43 C38 1_555 1_555
C39 C38 1_555 1_555
H44 C39 1_555 1_555
C40 C39 1_555 1_555
H45 C40 1_555 1_555
C41 C40 1_555 1_555
H46 C41 1_555 1_555
C42 C37 1_555 1_555
H47 C42 1_555 1_555
C43 Si2 1_555 1_555
H48 C43 1_555 1_555
H49 C43 1_555 1_555
H50 C43 1_555 1_555
C44 Si2 1_555 1_555
H51 C44 1_555 1_555
H52 C44 1_555 1_555
H53 C44 1_555 1_555
C45 Si2 1_555 1_555
C46 C45 1_555 1_555
H54 C46 1_555 1_555
H55 C46 1_555 1_555
H56 C46 1_555 1_555
C47 C45 1_555 1_555
H57 C47 1_555 1_555
H58 C47 1_555 1_555
H59 C47 1_555 1_555
C48 C45 1_555 1_555
H60 C48 1_555 1_555
H61 C48 1_555 1_555
H62 C48 1_555 1_555
C3 C6 1_555 1_555
C4 C5 1_555 1_555
C11 C12 1_555 1_555
C17 C18 1_555 1_555
C27 C30 1_555 1_555
C28 C29 1_555 1_555
C35 C36 1_555 1_555
C41 C42 1_555 1_555

#END
