
#######################################################################
#
#                 Cambridge Crystallographic Data Centre
#                                CCDC 
#
#######################################################################
#
# If this CIF has been generated from an entry in the Cambridge 
# Structural Database, then it will include bibliographic, chemical, 
# crystal, experimental, refinement or atomic coordinate data resulting 
# from the CCDC's data processing and validation procedures.
#
#######################################################################

data_GEGQUF
_chemical_name_common            
8,16-Diphenyldiindeno[1,2,3-de:1',2',3'-mn]tetracene
_chemical_formula_moiety         'C42 H24'
_chemical_name_systematic        
5,11-Diphenyl-1,12:6,7-bis(o-phenylene)tetracene
_symmetry_cell_setting           triclinic
_symmetry_space_group_name_H-M   'P -1'
_symmetry_Int_Tables_number      2
_space_group_name_Hall           '-P 1'
loop_
_symmetry_equiv_pos_site_id
_symmetry_equiv_pos_as_xyz
1 x,y,z
2 -x,-y,-z
_cell_length_a                   6.2886(9)
_cell_length_b                   7.7305(11)
_cell_length_c                   13.2639(19)
_cell_angle_alpha                93.099(2)
_cell_angle_beta                 98.409(2)
_cell_angle_gamma                100.014(2)
_cell_volume                     626.067
_exptl_crystal_colour            black
_exptl_crystal_description       rod
_cell_formula_units_Z            1
_chemical_properties_physical    'air- and light-sensitive'
loop_
_atom_site_label
_atom_site_type_symbol
_atom_site_fract_x
_atom_site_fract_y
_atom_site_fract_z
C1 C 0.5389(2) 0.49013(18) 0.55495(10)
C2 C 0.7476(2) 0.58541(18) 0.60566(11)
C3 C 0.8009(2) 0.61664(17) 0.71896(11)
C4 C 0.6560(2) 0.68830(18) 0.77256(11)
H1 H 0.521(3) 0.711(2) 0.7331(12)
C5 C 0.7035(2) 0.72481(19) 0.87767(12)
H2 H 0.600(3) 0.775(2) 0.9155(13)
C6 C 0.8973(3) 0.6926(2) 0.93217(12)
H3 H 0.928(3) 0.717(2) 1.0078(13)
C7 C 1.0440(2) 0.62315(19) 0.87979(12)
H4 H 1.178(3) 0.598(2) 0.9176(13)
C8 C 0.9969(2) 0.58581(18) 0.77492(11)
H5 H 1.096(3) 0.530(2) 0.7388(12)
C9 C 0.8966(2) 0.67452(17) 0.54730(11)
C10 C 1.1153(2) 0.76751(18) 0.58535(11)
H6 H 1.178(3) 0.771(2) 0.6592(13)
C11 C 1.2392(2) 0.85890(19) 0.52241(11)
H7 H 1.387(3) 0.920(2) 0.5517(12)
C12 C 1.1565(2) 0.87581(19) 0.41848(11)
H8 H 1.243(3) 0.952(2) 0.3755(12)
C13 C 0.9460(2) 0.79572(18) 0.38071(11)
C14 C 0.7990(2) 0.80835(18) 0.28676(11)
C15 C 0.8364(2) 0.90879(19) 0.20515(11)
H9 H 0.986(3) 0.976(2) 0.2026(12)
C16 C 0.6607(3) 0.92232(19) 0.13099(11)
H10 H 0.684(3) 0.993(2) 0.0716(12)
C17 C 0.4505(2) 0.8382(2) 0.14091(11)
H11 H 0.329(3) 0.851(2) 0.0891(12)
C18 C 0.4123(2) 0.73630(18) 0.22177(11)
H12 H 0.259(3) 0.683(2) 0.2264(12)
C19 C 0.5869(2) 0.71427(18) 0.29516(11)
C20 C 0.3960(2) 0.37358(18) 0.60671(11)
C21 C 0.8187(2) 0.68978(17) 0.44362(11)
C1A C 0.4611(2) 0.50987(18) 0.44505(10)
C2A C 0.2524(2) 0.41459(18) 0.39434(11)
C3A C 0.1991(2) 0.38336(17) 0.28104(11)
C4A C 0.3440(2) 0.31170(18) 0.22744(11)
H1A H 0.479(3) 0.289(2) 0.2669(12)
C5A C 0.2965(2) 0.27519(19) 0.12233(12)
H2A H 0.400(3) 0.225(2) 0.0845(13)
C6A C 0.1027(3) 0.3074(2) 0.06783(12)
H3A H 0.072(3) 0.283(2) -0.0078(13)
C7A C -0.0440(2) 0.37685(19) 0.12021(12)
H4A H -0.178(3) 0.402(2) 0.0824(13)
C8A C 0.0031(2) 0.41419(18) 0.22508(11)
H5A H -0.096(3) 0.470(2) 0.2612(12)
C9A C 0.1034(2) 0.32548(17) 0.45270(11)
C10A C -0.1153(2) 0.23249(18) 0.41465(11)
H6A H -0.178(3) 0.229(2) 0.3408(13)
C11A C -0.2392(2) 0.14110(19) 0.47759(11)
H7A H -0.387(3) 0.080(2) 0.4483(12)
C12A C -0.1565(2) 0.12419(19) 0.58152(11)
H8A H -0.243(3) 0.048(2) 0.6245(12)
C13A C 0.0540(2) 0.20428(18) 0.61929(11)
C14A C 0.2010(2) 0.19165(18) 0.71324(11)
C15A C 0.1636(2) 0.09121(19) 0.79485(11)
H9A H 0.014(3) 0.024(2) 0.7974(12)
C16A C 0.3393(3) 0.07768(19) 0.86901(11)
H10A H 0.316(3) 0.007(2) 0.9284(12)
C17A C 0.5495(2) 0.1618(2) 0.85909(11)
H11A H 0.671(3) 0.149(2) 0.9109(12)
C18A C 0.5877(2) 0.26370(18) 0.77823(11)
H12A H 0.741(3) 0.317(2) 0.7736(12)
C19A C 0.4131(2) 0.28573(18) 0.70484(11)
C20A C 0.6040(2) 0.62642(18) 0.39329(11)
C21A C 0.1813(2) 0.31022(17) 0.55638(11)
loop_
_geom_bond_atom_site_label_1
_geom_bond_atom_site_label_2
_geom_bond_site_symmetry_1
_geom_bond_site_symmetry_2
C1 C2 1_555 1_555
C2 C3 1_555 1_555
C3 C4 1_555 1_555
C4 H1 1_555 1_555
C5 C4 1_555 1_555
H2 C5 1_555 1_555
C6 C5 1_555 1_555
H3 C6 1_555 1_555
C7 C6 1_555 1_555
H4 C7 1_555 1_555
C8 C3 1_555 1_555
H5 C8 1_555 1_555
C9 C2 1_555 1_555
C10 C9 1_555 1_555
H6 C10 1_555 1_555
C11 C10 1_555 1_555
H7 C11 1_555 1_555
C12 C11 1_555 1_555
H8 C12 1_555 1_555
C13 C12 1_555 1_555
C14 C13 1_555 1_555
C15 C14 1_555 1_555
H9 C15 1_555 1_555
C16 C15 1_555 1_555
H10 C16 1_555 1_555
C17 C16 1_555 1_555
H11 C17 1_555 1_555
C18 C17 1_555 1_555
H12 C18 1_555 1_555
C19 C14 1_555 1_555
C20 C1 1_555 1_555
C21 C9 1_555 1_555
C1A C1 1_555 1_555
C2A C1A 1_555 1_555
C3A C2A 1_555 1_555
C4A C3A 1_555 1_555
H1A C4A 1_555 1_555
C5A C4A 1_555 1_555
H2A C5A 1_555 1_555
C6A C5A 1_555 1_555
H3A C6A 1_555 1_555
C7A C6A 1_555 1_555
H4A C7A 1_555 1_555
C8A C3A 1_555 1_555
H5A C8A 1_555 1_555
C9A C2A 1_555 1_555
C10A C9A 1_555 1_555
H6A C10A 1_555 1_555
C11A C10A 1_555 1_555
H7A C11A 1_555 1_555
C12A C11A 1_555 1_555
H8A C12A 1_555 1_555
C13A C12A 1_555 1_555
C14A C13A 1_555 1_555
C15A C14A 1_555 1_555
H9A C15A 1_555 1_555
C16A C15A 1_555 1_555
H10A C16A 1_555 1_555
C17A C16A 1_555 1_555
H11A C17A 1_555 1_555
C18A C17A 1_555 1_555
H12A C18A 1_555 1_555
C19A C20 1_555 1_555
C20A C19 1_555 1_555
C21A C20 1_555 1_555
C7 C8 1_555 1_555
C13 C21 1_555 1_555
C18 C19 1_555 1_555
C21 C20A 1_555 1_555
C1A C20A 1_555 1_555
C7A C8A 1_555 1_555
C9A C21A 1_555 1_555
C13A C21A 1_555 1_555
C14A C19A 1_555 1_555
C18A C19A 1_555 1_555

#END
