
#######################################################################
#
#                 Cambridge Crystallographic Data Centre
#                                CCDC 
#
#######################################################################
#
# If this CIF has been generated from an entry in the Cambridge 
# Structural Database, then it will include bibliographic, chemical, 
# crystal, experimental, refinement or atomic coordinate data resulting 
# from the CCDC's data processing and validation procedures.
#
#######################################################################

data_GEGQOA
_chemical_formula_moiety         'C16 H14 N6 O4,C1 H4 O1'
_chemical_name_systematic        
'3,17-Dioxa-4,6,14,16,23,24-hexaazatricyclo[17.3.1.1^8,12^]tetracosa-1(23),4,8(24),9,11,15,19,21-octaene-7,13-dione methanol solvate'
_symmetry_cell_setting           monoclinic
_symmetry_space_group_name_H-M   'P 21/n'
_symmetry_Int_Tables_number      14
_space_group_name_Hall           '-P 2yn'
loop_
_symmetry_equiv_pos_site_id
_symmetry_equiv_pos_as_xyz
1 x,y,z
2 1/2-x,1/2+y,1/2-z
3 -x,-y,-z
4 1/2+x,1/2-y,1/2+z
_cell_length_a                   7.5319(8)
_cell_length_b                   15.1775(19)
_cell_length_c                   15.610(2)
_cell_angle_alpha                90
_cell_angle_beta                 98.919(3)
_cell_angle_gamma                90
_cell_volume                     1762.89
_exptl_crystal_colour            colorless
_exptl_crystal_description       block
_cell_formula_units_Z            4
loop_
_atom_site_label
_atom_site_type_symbol
_atom_site_fract_x
_atom_site_fract_y
_atom_site_fract_z
O1 O 0.32916(18) 0.69985(8) 0.01567(9)
O2 O 0.04457(18) 0.64735(7) 0.26149(8)
O3 O -0.06905(18) 0.35079(7) 0.25815(8)
O4 O 0.12956(19) 0.24809(8) 0.00301(9)
N1 N 0.21338(18) 0.47588(9) 0.04082(9)
N2 N 0.20234(19) 0.63491(9) 0.12285(9)
H2 H 0.1747 0.5852 0.1465
N3 N 0.1023(2) 0.72806(9) 0.22910(11)
N4 N -0.07577(19) 0.50543(9) 0.34115(10)
N5 N -0.0745(2) 0.26441(9) 0.22256(11)
N6 N 0.08071(19) 0.33219(9) 0.11743(10)
H3 H 0.0942 0.3838 0.1433
C1 C 0.2082(2) 0.39898(12) -0.00192(12)
C2 C 0.2544(2) 0.39086(13) -0.08404(13)
H4 H 0.2488 0.3352 -0.1121
C3 C 0.3085(3) 0.46440(14) -0.12449(13)
H5 H 0.3395 0.4605 -0.1811
C4 C 0.3169(2) 0.54425(13) -0.08109(13)
H6 H 0.3546 0.5962 -0.1071
C5 C 0.2693(2) 0.54676(11) 0.00089(12)
C6 C 0.2718(2) 0.63360(12) 0.04727(12)
C7 C 0.1753(2) 0.71413(11) 0.16229(13)
H7 H 0.2168 0.7650 0.1360
C8 C 0.0050(3) 0.66252(12) 0.34553(12)
H8 H -0.0707 0.7159 0.3451
H9 H 0.1181 0.6731 0.3858
C9 C -0.0918(2) 0.58536(11) 0.37711(11)
C10 C -0.1893(3) 0.59916(12) 0.44338(12)
H10 H -0.1970 0.6564 0.4672
C11 C -0.2759(3) 0.52883(13) 0.47484(13)
H11 H -0.3427 0.5367 0.5211
C12 C -0.2637(3) 0.44701(12) 0.43784(12)
H12 H -0.3237 0.3977 0.4576
C13 C -0.1635(2) 0.43776(11) 0.37191(11)
C14 C -0.1488(3) 0.34696(12) 0.33454(13)
H13 H -0.0753 0.3090 0.3779
H14 H -0.2700 0.3205 0.3210
C15 C 0.0014(3) 0.26384(11) 0.15525(13)
H15 H 0.0037 0.2084 0.1272
C16 C 0.1385(2) 0.31982(11) 0.03962(12)
O5 O 0.17160(18) 0.48094(8) 0.22428(9)
H1 H 0.086(4) 0.4881(16) 0.2582(17)
C17 C 0.3408(3) 0.46954(14) 0.27629(14)
H16 H 0.3788 0.5252 0.3053
H17 H 0.4291 0.4515 0.2398
H18 H 0.3319 0.4240 0.3199
loop_
_geom_bond_atom_site_label_1
_geom_bond_atom_site_label_2
_geom_bond_site_symmetry_1
_geom_bond_site_symmetry_2
O1 C6 1_555 1_555
O2 N3 1_555 1_555
O3 N5 1_555 1_555
O4 C16 1_555 1_555
O5 H1 1_555 1_555
N1 C1 1_555 1_555
N2 H2 1_555 1_555
N3 C7 1_555 1_555
N4 C9 1_555 1_555
N5 C15 1_555 1_555
N6 H3 1_555 1_555
C1 C2 1_555 1_555
C2 H4 1_555 1_555
C3 C2 1_555 1_555
H5 C3 1_555 1_555
C4 C3 1_555 1_555
H6 C4 1_555 1_555
C5 N1 1_555 1_555
C6 N2 1_555 1_555
C7 N2 1_555 1_555
H7 C7 1_555 1_555
C8 O2 1_555 1_555
H8 C8 1_555 1_555
H9 C8 1_555 1_555
C9 C8 1_555 1_555
C10 C9 1_555 1_555
H10 C10 1_555 1_555
C11 C10 1_555 1_555
H11 C11 1_555 1_555
C12 C11 1_555 1_555
H12 C12 1_555 1_555
C13 N4 1_555 1_555
C14 O3 1_555 1_555
H13 C14 1_555 1_555
H14 C14 1_555 1_555
C15 N6 1_555 1_555
H15 C15 1_555 1_555
C16 N6 1_555 1_555
C17 O5 1_555 1_555
H16 C17 1_555 1_555
H17 C17 1_555 1_555
H18 C17 1_555 1_555
C1 C16 1_555 1_555
C4 C5 1_555 1_555
C5 C6 1_555 1_555
C12 C13 1_555 1_555
C13 C14 1_555 1_555

#END
