
#######################################################################
#
#                 Cambridge Crystallographic Data Centre
#                                CCDC 
#
#######################################################################
#
# If this CIF has been generated from an entry in the Cambridge 
# Structural Database, then it will include bibliographic, chemical, 
# crystal, experimental, refinement or atomic coordinate data resulting 
# from the CCDC's data processing and validation procedures.
#
#######################################################################

data_GEGQAL
_chemical_formula_moiety         'C42 H28,0.5(C4 H10 O1)'
_chemical_name_systematic        
'1,2-bis(Fluoren-9-ylidene)-3,4-diphenylcyclobutane diethyl ether solvate'
_symmetry_cell_setting           orthorhombic
_symmetry_space_group_name_H-M   'P b c n'
_symmetry_Int_Tables_number      60
_space_group_name_Hall           '-P 2n 2ab'
loop_
_symmetry_equiv_pos_site_id
_symmetry_equiv_pos_as_xyz
1 x,y,z
2 1/2-x,1/2-y,1/2+z
3 -x,y,1/2-z
4 1/2+x,1/2-y,-z
5 -x,-y,-z
6 1/2+x,1/2+y,1/2-z
7 x,-y,1/2+z
8 1/2-x,1/2+y,z
_cell_length_a                   38.173(3)
_cell_length_b                   16.7503(11)
_cell_length_c                   28.754(2)
_cell_angle_alpha                90
_cell_angle_beta                 90
_cell_angle_gamma                90
_cell_volume                     18385.6
_exptl_crystal_colour            yellow
_exptl_crystal_description       plate
_cell_formula_units_Z            24
_exptl_crystal_recrystallization_method 'dichloromethane/diethyl ether/hexane'
loop_
_atom_site_label
_atom_site_type_symbol
_atom_site_fract_x
_atom_site_fract_y
_atom_site_fract_z
C43 C 0.19380(5) 0.53777(11) 0.33336(6)
C44 C 0.21687(5) 0.49218(11) 0.36384(6)
C45 C 0.24671(5) 0.49702(12) 0.32845(6)
H29 H 0.2576 0.4438 0.3222
C46 C 0.21721(5) 0.51934(11) 0.29147(6)
H30 H 0.2232 0.5682 0.2731
C47 C 0.16806(5) 0.59229(11) 0.33838(6)
C48 C 0.15408(5) 0.62874(12) 0.38125(7)
C49 C 0.16225(5) 0.61605(12) 0.42776(7)
H31 H 0.1797 0.5784 0.4363
C50 C 0.14445(5) 0.65943(13) 0.46161(7)
H32 H 0.1497 0.6509 0.4935
C51 C 0.11921(6) 0.71480(15) 0.44937(8)
H33 H 0.1072 0.7436 0.4729
C52 C 0.11130(6) 0.72861(14) 0.40290(8)
H34 H 0.0941 0.7670 0.3946
C53 C 0.12877(5) 0.68596(12) 0.36901(7)
C54 C 0.12496(5) 0.68632(12) 0.31819(7)
C55 C 0.10151(5) 0.72568(13) 0.28932(8)
H35 H 0.0858 0.7643 0.3016
C56 C 0.10137(6) 0.70769(13) 0.24202(8)
H36 H 0.0851 0.7332 0.2220
C57 C 0.12473(5) 0.65311(13) 0.22411(7)
H37 H 0.1244 0.6419 0.1917
C58 C 0.14870(5) 0.61421(12) 0.25227(7)
H38 H 0.1649 0.5771 0.2395
C59 C 0.14862(5) 0.63066(11) 0.29979(7)
C60 C 0.21214(5) 0.44108(11) 0.39979(6)
C61 C 0.23955(5) 0.39156(11) 0.42163(6)
C62 C 0.27548(5) 0.39003(12) 0.41555(6)
H39 H 0.2866 0.4271 0.3954
C63 C 0.29512(6) 0.33348(13) 0.43939(7)
H40 H 0.3198 0.3316 0.4353
C64 C 0.27898(6) 0.27961(13) 0.46925(7)
H41 H 0.2927 0.2404 0.4847
C65 C 0.24333(6) 0.28218(12) 0.47680(6)
H42 H 0.2325 0.2461 0.4979
C66 C 0.22350(5) 0.33833(11) 0.45314(6)
C67 C 0.18575(5) 0.35177(11) 0.45215(6)
C68 C 0.15865(6) 0.31169(12) 0.47398(7)
H43 H 0.1635 0.2707 0.4959
C69 C 0.12457(6) 0.33191(13) 0.46351(7)
H44 H 0.1058 0.3054 0.4788
C70 C 0.11739(5) 0.39059(13) 0.43093(7)
H45 H 0.0937 0.4025 0.4234
C71 C 0.14415(5) 0.43218(12) 0.40918(6)
H46 H 0.1390 0.4729 0.3872
C72 C 0.17856(5) 0.41353(11) 0.41996(6)
C73 C 0.27365(5) 0.56167(11) 0.33490(6)
C74 C 0.26897(5) 0.62507(12) 0.36544(6)
H47 H 0.2487 0.6267 0.3846
C75 C 0.29336(5) 0.68579(13) 0.36824(7)
H48 H 0.2896 0.7290 0.3891
C76 C 0.32310(6) 0.68443(13) 0.34118(7)
H49 H 0.3398 0.7264 0.3433
C77 C 0.32844(6) 0.62153(13) 0.31102(7)
H50 H 0.3490 0.6197 0.2925
C78 C 0.30387(5) 0.56113(12) 0.30769(7)
H51 H 0.3077 0.5185 0.2865
C79 C 0.20726(5) 0.45020(11) 0.26108(6)
C80 C 0.22486(5) 0.43800(12) 0.21918(6)
H52 H 0.2424 0.4748 0.2097
C81 C 0.21713(5) 0.37309(12) 0.19132(7)
H53 H 0.2293 0.3657 0.1628
C82 C 0.19192(5) 0.31911(12) 0.20468(7)
H54 H 0.1867 0.2745 0.1855
C83 C 0.17432(5) 0.33011(12) 0.24593(7)
H55 H 0.1569 0.2928 0.2553
C84 C 0.18179(5) 0.39510(12) 0.27378(7)
H56 H 0.1693 0.4022 0.3021
C85 C 0.04691(5) 0.36194(12) 0.13892(6)
C86 C 0.07600(5) 0.31406(12) 0.12212(6)
C87 C 0.10209(5) 0.36626(12) 0.14834(6)
H57 H 0.1188 0.3340 0.1675
C88 C 0.06964(5) 0.39709(12) 0.17784(6)
H58 H 0.0684 0.4567 0.1789
C89 C 0.01743(5) 0.39181(12) 0.11959(7)
C90 C 0.00453(5) 0.38376(13) 0.07122(7)
C91 C 0.01588(6) 0.33788(14) 0.03392(7)
H59 H 0.0341 0.2999 0.0378
C92 C 0.00015(6) 0.34834(15) -0.00910(7)
H60 H 0.0077 0.3170 -0.0347
C93 C -0.02632(6) 0.40357(16) -0.01530(8)
H61 H -0.0369 0.4093 -0.0450
C94 C -0.03760(6) 0.45035(15) 0.02095(8)
H62 H -0.0555 0.4889 0.0164
C95 C -0.02224(5) 0.44019(13) 0.06433(7)
C96 C -0.02842(5) 0.48293(13) 0.10798(7)
C97 C -0.05181(6) 0.54221(15) 0.11951(9)
H63 H -0.0675 0.5631 0.0970
C98 C -0.05189(6) 0.57061(17) 0.16462(9)
H64 H -0.0677 0.6119 0.1730
C99 C -0.02943(6) 0.54021(15) 0.19770(8)
H65 H -0.0303 0.5604 0.2286
C100 C -0.00558(5) 0.48091(14) 0.18684(7)
H66 H 0.0098 0.4600 0.2098
C101 C -0.00484(5) 0.45284(13) 0.14135(7)
C102 C 0.08011(5) 0.24254(12) 0.10152(6)
C103 C 0.11365(5) 0.20780(12) 0.08677(6)
C104 C 0.14726(5) 0.23897(13) 0.08636(6)
H67 H 0.1515 0.2916 0.0974
C105 C 0.17463(6) 0.19293(13) 0.06973(7)
H68 H 0.1978 0.2137 0.0700
C106 C 0.16857(7) 0.11721(15) 0.05274(8)
H69 H 0.1876 0.0865 0.0412
C107 C 0.13514(7) 0.08543(14) 0.05222(8)
H70 H 0.1311 0.0333 0.0403
C108 C 0.10764(6) 0.13044(12) 0.06930(7)
C109 C 0.07036(6) 0.11292(13) 0.07415(8)
C110 C 0.05152(8) 0.04397(15) 0.06510(9)
H71 H 0.0627 -0.0011 0.0515
C111 C 0.01632(8) 0.04162(17) 0.07606(11)
H72 H 0.0032 -0.0056 0.0702
C112 C -0.00013(7) 0.10730(17) 0.09555(10)
H73 H -0.0243 0.1042 0.1033
C113 C 0.01811(6) 0.17769(15) 0.10396(8)
H74 H 0.0066 0.2229 0.1168
C114 C 0.05351(5) 0.18022(13) 0.09315(7)
C115 C 0.12037(5) 0.43114(11) 0.12151(6)
C116 C 0.11373(5) 0.44617(12) 0.07493(7)
H75 H 0.0969 0.4149 0.0589
C117 C 0.13128(5) 0.50597(13) 0.05156(7)
H76 H 0.1266 0.5152 0.0196
C118 C 0.15575(5) 0.55251(13) 0.07451(7)
H77 H 0.1678 0.5938 0.0585
C119 C 0.16247(5) 0.53833(13) 0.12120(7)
H78 H 0.1791 0.5701 0.1373
C120 C 0.14498(5) 0.47804(12) 0.14417(7)
H79 H 0.1499 0.4685 0.1761
C121 C 0.06734(5) 0.36027(13) 0.22554(7)
C122 C 0.08578(6) 0.39429(16) 0.26190(7)
H80 H 0.0989 0.4417 0.2567
C123 C 0.08540(6) 0.36017(19) 0.30576(8)
H81 H 0.0983 0.3842 0.3303
C124 C 0.06660(7) 0.29226(18) 0.31394(8)
H82 H 0.0663 0.2692 0.3441
C125 C 0.04808(7) 0.25742(16) 0.27826(8)
H83 H 0.0350 0.2100 0.2837
C126 C 0.04855(6) 0.29173(14) 0.23436(7)
H84 H 0.0356 0.2675 0.2099
C1 C 0.35667(5) 0.64594(11) 0.60557(6)
C2 C 0.34331(5) 0.65211(11) 0.65316(6)
C3 C 0.37678(5) 0.61472(12) 0.67224(6)
H1 H 0.3873 0.6468 0.6980
C4 C 0.39389(5) 0.63464(12) 0.62311(6)
H2 H 0.4055 0.5870 0.6089
C5 C 0.34249(5) 0.62931(12) 0.56338(7)
C6 C 0.30637(6) 0.60602(11) 0.55195(7)
C7 C 0.27680(5) 0.59683(12) 0.57963(7)
H3 H 0.2776 0.6104 0.6117
C8 C 0.24628(6) 0.56777(13) 0.56008(7)
H4 H 0.2261 0.5613 0.5789
C9 C 0.24482(7) 0.54796(13) 0.51324(8)
H5 H 0.2236 0.5286 0.5003
C10 C 0.27396(7) 0.55613(13) 0.48546(8)
H6 H 0.2728 0.5425 0.4534
C11 C 0.30487(6) 0.58424(12) 0.50442(7)
C12 C 0.33984(6) 0.59448(13) 0.48462(7)
C13 C 0.35217(8) 0.58319(15) 0.43971(8)
H7 H 0.3370 0.5647 0.4158
C14 C 0.38702(8) 0.59943(18) 0.43057(8)
H8 H 0.3957 0.5919 0.3999
C15 C 0.40954(7) 0.62631(16) 0.46484(8)
H9 H 0.4333 0.6370 0.4574
C16 C 0.39758(6) 0.63779(13) 0.51023(7)
H10 H 0.4129 0.6565 0.5339
C17 C 0.36264(6) 0.62099(12) 0.51983(7)
C18 C 0.31764(5) 0.69429(11) 0.67434(6)
C19 C 0.31070(5) 0.69539(11) 0.72507(6)
C20 C 0.32579(5) 0.65312(11) 0.76143(6)
H11 H 0.3442 0.6162 0.7558
C21 C 0.31343(5) 0.66592(12) 0.80621(6)
H12 H 0.3241 0.6387 0.8315
C22 C 0.28589(5) 0.71765(12) 0.81452(7)
H13 H 0.2777 0.7249 0.8454
C23 C 0.27009(5) 0.75908(11) 0.77848(6)
H14 H 0.2508 0.7935 0.7842
C24 C 0.28308(5) 0.74913(11) 0.73393(6)
C25 C 0.27295(5) 0.78680(11) 0.68995(6)
C26 C 0.24911(5) 0.84677(11) 0.68110(7)
H15 H 0.2355 0.8690 0.7056
C27 C 0.24526(5) 0.87422(12) 0.63580(7)
H16 H 0.2290 0.9157 0.6292
C28 C 0.26498(5) 0.84146(12) 0.60012(7)
H17 H 0.2621 0.8607 0.5693
C29 C 0.28894(5) 0.78097(11) 0.60873(6)
H18 H 0.3023 0.7588 0.5840
C30 C 0.29324(5) 0.75309(11) 0.65409(6)
C31 C 0.37673(5) 0.52680(12) 0.68255(6)
C32 C 0.34752(5) 0.47953(13) 0.67804(7)
H19 H 0.3258 0.5031 0.6695
C33 C 0.34925(6) 0.39824(13) 0.68575(8)
H20 H 0.3287 0.3666 0.6824
C34 C 0.38004(6) 0.36283(13) 0.69803(7)
H21 H 0.3810 0.3070 0.7037
C35 C 0.40943(6) 0.40849(14) 0.70201(9)
H22 H 0.4312 0.3843 0.7098
C36 C 0.40769(6) 0.48968(14) 0.69473(9)
H23 H 0.4283 0.5209 0.6982
C37 C 0.41778(5) 0.70635(12) 0.62428(7)
C38 C 0.45261(6) 0.69618(15) 0.63679(8)
H24 H 0.4614 0.6440 0.6422
C39 C 0.47458(6) 0.76104(16) 0.64142(9)
H25 H 0.4984 0.7533 0.6499
C40 C 0.46203(6) 0.83722(15) 0.63370(8)
H26 H 0.4770 0.8821 0.6376
C41 C 0.42772(6) 0.84763(13) 0.62029(7)
H27 H 0.4191 0.8998 0.6143
C42 C 0.40582(6) 0.78294(12) 0.61544(7)
H28 H 0.3822 0.7909 0.6059
loop_
_geom_bond_atom_site_label_1
_geom_bond_atom_site_label_2
_geom_bond_site_symmetry_1
_geom_bond_site_symmetry_2
C1 C2 1_555 1_555
C2 C3 1_555 1_555
C3 H1 1_555 1_555
C4 C1 1_555 1_555
H2 C4 1_555 1_555
C5 C1 1_555 1_555
C6 C5 1_555 1_555
C7 C6 1_555 1_555
H3 C7 1_555 1_555
C8 C7 1_555 1_555
H4 C8 1_555 1_555
C9 C8 1_555 1_555
H5 C9 1_555 1_555
C10 C9 1_555 1_555
H6 C10 1_555 1_555
C11 C6 1_555 1_555
C12 C11 1_555 1_555
C13 C12 1_555 1_555
H7 C13 1_555 1_555
C14 C13 1_555 1_555
H8 C14 1_555 1_555
C15 C14 1_555 1_555
H9 C15 1_555 1_555
C16 C15 1_555 1_555
H10 C16 1_555 1_555
C17 C5 1_555 1_555
C18 C2 1_555 1_555
C19 C18 1_555 1_555
C20 C19 1_555 1_555
H11 C20 1_555 1_555
C21 C20 1_555 1_555
H12 C21 1_555 1_555
C22 C21 1_555 1_555
H13 C22 1_555 1_555
C23 C22 1_555 1_555
H14 C23 1_555 1_555
C24 C19 1_555 1_555
C25 C24 1_555 1_555
C26 C25 1_555 1_555
H15 C26 1_555 1_555
C27 C26 1_555 1_555
H16 C27 1_555 1_555
C28 C27 1_555 1_555
H17 C28 1_555 1_555
C29 C28 1_555 1_555
H18 C29 1_555 1_555
C30 C18 1_555 1_555
C31 C3 1_555 1_555
C32 C31 1_555 1_555
H19 C32 1_555 1_555
C33 C32 1_555 1_555
H20 C33 1_555 1_555
C34 C33 1_555 1_555
H21 C34 1_555 1_555
C35 C34 1_555 1_555
H22 C35 1_555 1_555
C36 C31 1_555 1_555
H23 C36 1_555 1_555
C37 C4 1_555 1_555
C38 C37 1_555 1_555
H24 C38 1_555 1_555
C39 C38 1_555 1_555
H25 C39 1_555 1_555
C40 C39 1_555 1_555
H26 C40 1_555 1_555
C41 C40 1_555 1_555
H27 C41 1_555 1_555
C42 C37 1_555 1_555
H28 C42 1_555 1_555
C43 C44 1_555 1_555
C44 C45 1_555 1_555
C45 H29 1_555 1_555
C46 C43 1_555 1_555
H30 C46 1_555 1_555
C47 C43 1_555 1_555
C48 C47 1_555 1_555
C49 C48 1_555 1_555
H31 C49 1_555 1_555
C50 C49 1_555 1_555
H32 C50 1_555 1_555
C51 C50 1_555 1_555
H33 C51 1_555 1_555
C52 C51 1_555 1_555
H34 C52 1_555 1_555
C53 C48 1_555 1_555
C54 C53 1_555 1_555
C55 C54 1_555 1_555
H35 C55 1_555 1_555
C56 C55 1_555 1_555
H36 C56 1_555 1_555
C57 C56 1_555 1_555
H37 C57 1_555 1_555
C58 C57 1_555 1_555
H38 C58 1_555 1_555
C59 C47 1_555 1_555
C60 C44 1_555 1_555
C61 C60 1_555 1_555
C62 C61 1_555 1_555
H39 C62 1_555 1_555
C63 C62 1_555 1_555
H40 C63 1_555 1_555
C64 C63 1_555 1_555
H41 C64 1_555 1_555
C65 C64 1_555 1_555
H42 C65 1_555 1_555
C66 C61 1_555 1_555
C67 C66 1_555 1_555
C68 C67 1_555 1_555
H43 C68 1_555 1_555
C69 C68 1_555 1_555
H44 C69 1_555 1_555
C70 C69 1_555 1_555
H45 C70 1_555 1_555
C71 C70 1_555 1_555
H46 C71 1_555 1_555
C72 C60 1_555 1_555
C73 C45 1_555 1_555
C74 C73 1_555 1_555
H47 C74 1_555 1_555
C75 C74 1_555 1_555
H48 C75 1_555 1_555
C76 C75 1_555 1_555
H49 C76 1_555 1_555
C77 C76 1_555 1_555
H50 C77 1_555 1_555
C78 C73 1_555 1_555
H51 C78 1_555 1_555
C79 C46 1_555 1_555
C80 C79 1_555 1_555
H52 C80 1_555 1_555
C81 C80 1_555 1_555
H53 C81 1_555 1_555
C82 C81 1_555 1_555
H54 C82 1_555 1_555
C83 C82 1_555 1_555
H55 C83 1_555 1_555
C84 C79 1_555 1_555
H56 C84 1_555 1_555
C85 C86 1_555 1_555
C86 C87 1_555 1_555
C87 H57 1_555 1_555
C88 C85 1_555 1_555
H58 C88 1_555 1_555
C89 C85 1_555 1_555
C90 C89 1_555 1_555
C91 C90 1_555 1_555
H59 C91 1_555 1_555
C92 C91 1_555 1_555
H60 C92 1_555 1_555
C93 C92 1_555 1_555
H61 C93 1_555 1_555
C94 C93 1_555 1_555
H62 C94 1_555 1_555
C95 C90 1_555 1_555
C96 C95 1_555 1_555
C97 C96 1_555 1_555
H63 C97 1_555 1_555
C98 C97 1_555 1_555
H64 C98 1_555 1_555
C99 C98 1_555 1_555
H65 C99 1_555 1_555
C100 C99 1_555 1_555
H66 C100 1_555 1_555
C101 C89 1_555 1_555
C102 C86 1_555 1_555
C103 C102 1_555 1_555
C104 C103 1_555 1_555
H67 C104 1_555 1_555
C105 C104 1_555 1_555
H68 C105 1_555 1_555
C106 C105 1_555 1_555
H69 C106 1_555 1_555
C107 C106 1_555 1_555
H70 C107 1_555 1_555
C108 C103 1_555 1_555
C109 C108 1_555 1_555
C110 C109 1_555 1_555
H71 C110 1_555 1_555
C111 C110 1_555 1_555
H72 C111 1_555 1_555
C112 C111 1_555 1_555
H73 C112 1_555 1_555
C113 C112 1_555 1_555
H74 C113 1_555 1_555
C114 C102 1_555 1_555
C115 C87 1_555 1_555
C116 C115 1_555 1_555
H75 C116 1_555 1_555
C117 C116 1_555 1_555
H76 C117 1_555 1_555
C118 C117 1_555 1_555
H77 C118 1_555 1_555
C119 C118 1_555 1_555
H78 C119 1_555 1_555
C120 C115 1_555 1_555
H79 C120 1_555 1_555
C121 C88 1_555 1_555
C122 C121 1_555 1_555
H80 C122 1_555 1_555
C123 C122 1_555 1_555
H81 C123 1_555 1_555
C124 C123 1_555 1_555
H82 C124 1_555 1_555
C125 C124 1_555 1_555
H83 C125 1_555 1_555
C126 C121 1_555 1_555
H84 C126 1_555 1_555
C3 C4 1_555 1_555
C10 C11 1_555 1_555
C12 C17 1_555 1_555
C16 C17 1_555 1_555
C23 C24 1_555 1_555
C25 C30 1_555 1_555
C29 C30 1_555 1_555
C35 C36 1_555 1_555
C41 C42 1_555 1_555
C45 C46 1_555 1_555
C52 C53 1_555 1_555
C54 C59 1_555 1_555
C58 C59 1_555 1_555
C65 C66 1_555 1_555
C67 C72 1_555 1_555
C71 C72 1_555 1_555
C77 C78 1_555 1_555
C83 C84 1_555 1_555
C87 C88 1_555 1_555
C94 C95 1_555 1_555
C96 C101 1_555 1_555
C100 C101 1_555 1_555
C107 C108 1_555 1_555
C109 C114 1_555 1_555
C113 C114 1_555 1_555
C119 C120 1_555 1_555
C125 C126 1_555 1_555

#END
