
#######################################################################
#
#                 Cambridge Crystallographic Data Centre
#                                CCDC 
#
#######################################################################
#
# If this CIF has been generated from an entry in the Cambridge 
# Structural Database, then it will include bibliographic, chemical, 
# crystal, experimental, refinement or atomic coordinate data resulting 
# from the CCDC's data processing and validation procedures.
#
#######################################################################

data_GEGSEQ04
_chemical_formula_moiety         'C17 H13 N1'
_chemical_name_systematic        
'1-(2-naphthyl)-N-phenylmethanimine 2-(2-phenylvinyl)quinoline'
_symmetry_cell_setting           monoclinic
_symmetry_space_group_name_H-M   'P 21/c'
_symmetry_Int_Tables_number      14
_space_group_name_Hall           '-P 2ybc'
loop_
_symmetry_equiv_pos_site_id
_symmetry_equiv_pos_as_xyz
1 x,y,z
2 -x,1/2+y,1/2-z
3 -x,-y,-z
4 x,1/2-y,1/2+z
_cell_length_a                   6.5882(3)
_cell_length_b                   19.6254(8)
_cell_length_c                   14.7997(6)
_cell_angle_alpha                90
_cell_angle_beta                 94.733(5)
_cell_angle_gamma                90
_cell_volume                     1907.02
_exptl_crystal_colour            colorless
_exptl_crystal_description       block
_cell_formula_units_Z            6
_exptl_crystal_recrystallization_method 'dichloromethane/petroleum ether'
loop_
_atom_site_label
_atom_site_type_symbol
_atom_site_fract_x
_atom_site_fract_y
_atom_site_fract_z
N1 N 0.6054(3) 0.39532(9) 0.75418(12)
C1 C 0.1245(4) 0.48885(13) 0.78095(18)
H1 H -0.0102 0.4906 0.7567
C2 C 0.1886(5) 0.53109(14) 0.8496(2)
H2 H 0.0978 0.5618 0.8721
C3 C 0.3903(4) 0.52894(14) 0.88677(19)
H3 H 0.4327 0.5584 0.9338
C4 C 0.5247(4) 0.48450(12) 0.85531(17)
H4 H 0.6584 0.4837 0.8809
C5 C 0.4639(3) 0.43939(11) 0.78403(14)
C6 C 0.2604(3) 0.44205(11) 0.74580(15)
C7 C 0.2081(4) 0.39780(12) 0.67339(16)
H5 H 0.0756 0.3976 0.6463
C8 C 0.3485(4) 0.35550(12) 0.64272(16)
H6 H 0.3137 0.3271 0.5936
C9 C 0.5480(3) 0.35440(11) 0.68512(15)
C10 C 0.7037(4) 0.30821(11) 0.65626(16)
H7 H 0.8262 0.3071 0.6923
C11 C 0.6902(4) 0.26776(11) 0.58475(16)
H8 H 0.5680 0.2691 0.5486
C12 C 0.8454(3) 0.22098(11) 0.55578(15)
C13 C 1.0295(4) 0.20919(12) 0.60605(17)
H9 H 1.0554 0.2305 0.6619
C14 C 1.1747(4) 0.16658(13) 0.5749(2)
H10 H 1.2979 0.1599 0.6091
C15 C 1.1365(4) 0.13384(13) 0.4924(2)
H11 H 1.2338 0.1051 0.4708
C16 C 0.9547(4) 0.14411(13) 0.44285(18)
H12 H 0.9283 0.1222 0.3874
C17 C 0.8116(4) 0.18634(12) 0.47439(16)
H13 H 0.6879 0.1920 0.4402
C18? C 0.2810(9) 0.5138(3) 0.4571(4)
H14? H 0.3093 0.5580 0.4771
C19? C 0.4251(8) 0.4790(3) 0.4128(4)
H15? H 0.5529 0.4980 0.4073
C20? C 0.0520(4) 0.42075(13) 0.44780(16)
C21? C 0.5159(5) 0.3762(2) 0.3323(2)
H16? H 0.6333 0.3965 0.3142
C22? C 0.4826(6) 0.3094(2) 0.3157(2)
H17? H 0.5779 0.2839 0.2873
C23? C 0.3097(7) 0.27932(16) 0.3405(2)
H18? H 0.2878 0.2333 0.3286
C24? C 0.1685(5) 0.31552(15) 0.38228(19)
H19? H 0.0509 0.2941 0.3984
C25? C 0.1991(4) 0.38492(14) 0.40121(16)
C26? C 0.3773(5) 0.41500(15) 0.3761(2)
C27? C 0.0806(4) 0.48254(14) 0.47402(17)
N2? N 0.0520(4) 0.42075(13) 0.44780(16)
loop_
_geom_bond_atom_site_label_1
_geom_bond_atom_site_label_2
_geom_bond_site_symmetry_1
_geom_bond_site_symmetry_2
N1 C5 1_555 1_555
C1 H1 1_555 1_555
C2 C1 1_555 1_555
H2 C2 1_555 1_555
C3 C2 1_555 1_555
H3 C3 1_555 1_555
C4 C3 1_555 1_555
H4 C4 1_555 1_555
C5 C4 1_555 1_555
C6 C1 1_555 1_555
C7 C6 1_555 1_555
H5 C7 1_555 1_555
C8 C7 1_555 1_555
H6 C8 1_555 1_555
C9 N1 1_555 1_555
C10 C9 1_555 1_555
H7 C10 1_555 1_555
C11 C10 1_555 1_555
H8 C11 1_555 1_555
C12 C11 1_555 1_555
C13 C12 1_555 1_555
H9 C13 1_555 1_555
C14 C13 1_555 1_555
H10 C14 1_555 1_555
C15 C14 1_555 1_555
H11 C15 1_555 1_555
C16 C15 1_555 1_555
H12 C16 1_555 1_555
C17 C12 1_555 1_555
H13 C17 1_555 1_555
C5 C6 1_555 1_555
C8 C9 1_555 1_555
C16 C17 1_555 1_555

#END
