
#######################################################################
#
#                 Cambridge Crystallographic Data Centre
#                                CCDC 
#
#######################################################################
#
# If this CIF has been generated from an entry in the Cambridge 
# Structural Database, then it will include bibliographic, chemical, 
# crystal, experimental, refinement or atomic coordinate data resulting 
# from the CCDC's data processing and validation procedures.
#
#######################################################################

data_GEGVOF
_chemical_formula_moiety         'C13 H13 N1 O2'
_chemical_name_systematic        3-Butyrylquinolin-2(1H)-one
_symmetry_cell_setting           triclinic
_symmetry_space_group_name_H-M   'P -1'
_symmetry_Int_Tables_number      2
_space_group_name_Hall           '-P 1'
loop_
_symmetry_equiv_pos_site_id
_symmetry_equiv_pos_as_xyz
1 x,y,z
2 -x,-y,-z
_cell_length_a                   5.5086(4)
_cell_length_b                   8.9755(7)
_cell_length_c                   11.5642(9)
_cell_angle_alpha                103.510(1)
_cell_angle_beta                 95.810(1)
_cell_angle_gamma                101.073(1)
_cell_volume                     539.159
_cell_formula_units_Z            2
loop_
_atom_site_label
_atom_site_type_symbol
_atom_site_fract_x
_atom_site_fract_y
_atom_site_fract_z
C1 C -0.1912(2) 0.17887(15) 0.02495(11)
C2 C 0.0426(2) 0.29495(15) 0.03652(12)
C3 C 0.1918(2) 0.27412(15) -0.05007(12)
H1 H 0.3455 0.3485 -0.0400
C4 C 0.1279(2) 0.14576(15) -0.15525(12)
C5 C 0.2753(3) 0.12619(16) -0.24776(12)
H2 H 0.4300 0.1986 -0.2404
C6 C 0.1966(3) 0.00306(17) -0.34845(13)
H3 H 0.2963 -0.0095 -0.4109
C7 C -0.0314(3) -0.10457(17) -0.35924(13)
H4 H -0.0851 -0.1892 -0.4296
C8 C -0.1784(3) -0.08976(16) -0.26987(13)
H5 H -0.3313 -0.1640 -0.2777
C9 C -0.0996(2) 0.03647(15) -0.16707(12)
C10 C 0.1255(2) 0.43942(15) 0.14028(12)
C11 C -0.0329(2) 0.47361(15) 0.23737(12)
H6 H -0.0691 0.3815 0.2712
H7 H -0.1944 0.4882 0.2011
C12 C 0.0884(3) 0.61890(16) 0.33947(13)
H8 H 0.1531 0.7066 0.3045
H9 H -0.0410 0.6498 0.3877
C13 C 0.3008(3) 0.5945(2) 0.42189(14)
H10 H 0.2378 0.5091 0.4581
H11 H 0.3696 0.6915 0.4855
H12 H 0.4323 0.5671 0.3753
N1 N -0.24272(19) 0.05664(12) -0.07657(9)
H13 H -0.3824 -0.0169 -0.0820
O1 O -0.33956(17) 0.18353(11) 0.09898(9)
O2 O 0.3218(2) 0.52991(12) 0.14199(10)
loop_
_geom_bond_atom_site_label_1
_geom_bond_atom_site_label_2
_geom_bond_site_symmetry_1
_geom_bond_site_symmetry_2
C1 C2 1_555 1_555
C2 C3 1_555 1_555
C3 H1 1_555 1_555
C4 C3 1_555 1_555
C5 C4 1_555 1_555
H2 C5 1_555 1_555
C6 C5 1_555 1_555
H3 C6 1_555 1_555
C7 C6 1_555 1_555
H4 C7 1_555 1_555
C8 C7 1_555 1_555
H5 C8 1_555 1_555
C9 C4 1_555 1_555
C10 C2 1_555 1_555
C11 C10 1_555 1_555
H6 C11 1_555 1_555
H7 C11 1_555 1_555
C12 C11 1_555 1_555
H8 C12 1_555 1_555
H9 C12 1_555 1_555
C13 C12 1_555 1_555
H10 C13 1_555 1_555
H11 C13 1_555 1_555
H12 C13 1_555 1_555
N1 C1 1_555 1_555
H13 N1 1_555 1_555
O1 C1 1_555 1_555
O2 C10 1_555 1_555
C8 C9 1_555 1_555
C9 N1 1_555 1_555

#END
