
#######################################################################
#
#                 Cambridge Crystallographic Data Centre
#                                CCDC 
#
#######################################################################
#
# If this CIF has been generated from an entry in the Cambridge 
# Structural Database, then it will include bibliographic, chemical, 
# crystal, experimental, refinement or atomic coordinate data resulting 
# from the CCDC's data processing and validation procedures.
#
#######################################################################

data_GEGZIE
_chemical_formula_moiety         'C144 H156,4(C1 H1 Cl3)'
_chemical_name_systematic        
'1^2^,1^4^,1^6^,8^2^,8^4^,8^6^,15^2^,15^4^,15^6^,22^2^,22^4^,22^6^-dodecathyl-1,8,15,22(1,3,5)-3,6,10,13,17,20,24,27,30,33,36,39(1,4)-hexadecabenzenatricyclo[13.13.6.6^8,22^]tetracontane chloroform solvate'
_symmetry_cell_setting           rhombohedral
_symmetry_space_group_name_H-M   'R -3'
_symmetry_Int_Tables_number      148
_space_group_name_Hall           '-R 3'
loop_
_symmetry_equiv_pos_site_id
_symmetry_equiv_pos_as_xyz
1 x,y,z
2 -y,x-y,z
3 -x+y,-x,z
4 2/3+x,1/3+y,1/3+z
5 2/3-y,1/3+x-y,1/3+z
6 2/3-x+y,1/3-x,1/3+z
7 1/3+x,2/3+y,2/3+z
8 1/3-y,2/3+x-y,2/3+z
9 1/3-x+y,2/3-x,2/3+z
10 -x,-y,-z
11 y,-x+y,-z
12 x-y,x,-z
13 1/3-x,2/3-y,2/3-z
14 1/3+y,2/3-x+y,2/3-z
15 1/3+x-y,2/3+x,2/3-z
16 2/3-x,1/3-y,1/3-z
17 2/3+y,1/3-x+y,1/3-z
18 2/3+x-y,1/3+x,1/3-z
_cell_length_a                   25.0005(10)
_cell_length_b                   25.0005(10)
_cell_length_c                   48.793(2)
_cell_angle_alpha                90
_cell_angle_beta                 90
_cell_angle_gamma                120
_cell_volume                     26411
_exptl_crystal_colour            colorless
_exptl_crystal_description       prism
_cell_formula_units_Z            6
_exptl_crystal_recrystallization_method chloroform/methanol
loop_
_atom_site_label
_atom_site_type_symbol
_atom_site_fract_x
_atom_site_fract_y
_atom_site_fract_z
C1 C 0.36604(12) 0.30853(11) 0.56655(5)
C2 C 0.30387(11) 0.28465(11) 0.57431(5)
C3 C 0.28968(11) 0.29300(11) 0.60116(5)
C4 C 0.33730(11) 0.32918(11) 0.61973(5)
C5 C 0.39924(11) 0.35632(11) 0.61129(5)
C6 C 0.41364(11) 0.34494(11) 0.58496(5)
C7 C 0.38115(13) 0.29378(13) 0.53848(5)
H1 H 0.4205 0.2936 0.5400
H2 H 0.3487 0.2513 0.5337
C8 C 0.38707(17) 0.33557(14) 0.51484(6)
C9 C 0.3720(2) 0.31065(14) 0.48862(7)
H3 H 0.3547 0.2675 0.4860
C10 C 0.3822(2) 0.34895(19) 0.46622(5)
H4 H 0.3719 0.3319 0.4483
C11 C 0.4075(2) 0.41215(18) 0.47004(6)
C12 C 0.42261(18) 0.43707(13) 0.49626(8)
H5 H 0.4399 0.4803 0.4989
C13 C 0.41239(17) 0.39877(15) 0.51866(6)
H6 H 0.4227 0.4158 0.5366
C14 C 0.4192(3) 0.4561(4) 0.44569(15)
H7 H 0.4515 0.4986 0.4506
H8 H 0.4339 0.4428 0.4296
C15 C 0.3592(4) 0.4553(8) 0.4385(3)
H9 H 0.3251 0.4118 0.4383
H10 H 0.3502 0.4771 0.4531
C16 C 0.35980(13) 0.48439(14) 0.41128(6)
C17 C 0.38263(13) 0.47282(13) 0.38713(6)
H11 H 0.4017 0.4482 0.3878
C18 C 0.37769(12) 0.49692(12) 0.36225(6)
H12 H 0.3933 0.4884 0.3461
C19 C 0.35014(11) 0.53340(11) 0.36063(5)
C20 C 0.32974(12) 0.54703(13) 0.38476(6)
H13 H 0.3123 0.5732 0.3842
C21 C 0.33462(13) 0.52279(14) 0.40953(6)
H14 H 0.3204 0.5327 0.4258
C22 C 0.25232(13) 0.25030(13) 0.55352(6)
H15 H 0.2683 0.2669 0.5350
H16 H 0.2184 0.2587 0.5576
C23 C 0.22594(14) 0.18028(14) 0.55315(7)
H17 H 0.1923 0.1614 0.5397
H18 H 0.2100 0.1633 0.5714
H19 H 0.2586 0.1713 0.5481
C24 C 0.22303(12) 0.26383(12) 0.61026(6)
H20 H 0.2202 0.2502 0.6295
H21 H 0.1980 0.2265 0.5990
C25 C 0.19485(12) 0.30542(13) 0.60830(6)
C26 C 0.13140(14) 0.27914(15) 0.60957(8)
H22 H 0.1064 0.2355 0.6107
C27 C 0.10349(15) 0.31491(17) 0.60926(8)
H23 H 0.0598 0.2953 0.6104
C28 C 0.13721(15) 0.37778(17) 0.60728(7)
C29 C 0.20201(16) 0.40573(17) 0.60641(8)
H24 H 0.2267 0.4494 0.6055
C30 C 0.23009(14) 0.36951(15) 0.60687(7)
H25 H 0.2738 0.3889 0.6062
C31 C 0.10493(18) 0.4154(2) 0.60720(9)
H26 H 0.0638 0.3903 0.6157
H27 H 0.0983 0.4230 0.5879
C32 C 0.13841(18) 0.47711(18) 0.62192(9)
H28 H 0.1517 0.4715 0.6403
H29 H 0.1757 0.5061 0.6114
C33 C 0.09600(16) 0.50366(16) 0.62477(8)
C34 C 0.06668(14) 0.49943(14) 0.64950(7)
H30 H 0.0774 0.4844 0.6653
C35 C 0.02196(13) 0.51679(13) 0.65163(6)
H31 H 0.0025 0.5136 0.6688
C36 C 0.00530(12) 0.53901(12) 0.62871(6)
C37 C 0.03760(14) 0.54699(14) 0.60433(6)
H32 H 0.0294 0.5650 0.5889
C38 C 0.08169(16) 0.52881(17) 0.60234(8)
H33 H 0.1024 0.5336 0.5854
C39 C -0.04892(12) 0.55039(12) 0.63054(5)
H34 H -0.0874 0.5116 0.6262
H35 H -0.0523 0.5620 0.6496
C40 C 0.32290(13) 0.33818(12) 0.64911(6)
H36 H 0.2809 0.3328 0.6499
H37 H 0.3526 0.3808 0.6550
C41 C 0.32646(15) 0.29243(14) 0.66888(6)
H38 H 0.3199 0.3018 0.6877
H39 H 0.3672 0.2960 0.6675
H40 H 0.2945 0.2503 0.6641
C42 C 0.48070(12) 0.37178(12) 0.57649(6)
H41 H 0.5058 0.4127 0.5853
H42 H 0.4841 0.3780 0.5564
C43 C 0.50682(13) 0.33008(14) 0.58451(7)
H43 H 0.5501 0.3493 0.5787
H44 H 0.4829 0.2899 0.5755
H45 H 0.5042 0.3243 0.6044
C44 C 0.34020(12) 0.55354(11) 0.33256(5)
H46 H 0.3746 0.5599 0.3204
H47 H 0.3016 0.5197 0.3246
C45 C 0.33623(11) 0.61213(11) 0.33272(5)
C46 C 0.39090(11) 0.66953(11) 0.33306(5)
C47 C 0.45253(12) 0.67190(12) 0.33319(6)
H48 H 0.4483 0.6353 0.3430
H49 H 0.4830 0.7092 0.3432
C48 C 0.47636(13) 0.67332(14) 0.30406(7)
H50 H 0.5155 0.6732 0.3050
H51 H 0.4829 0.7108 0.2947
H52 H 0.4459 0.6369 0.2939
C1A C 0.69147(11) 1.05751(16) 0.56655(5)
C2A C 0.71535(11) 1.01922(16) 0.57431(5)
C3A C 0.70700(11) 0.99668(16) 0.60116(5)
C4A C 0.67082(11) 1.00812(16) 0.61973(5)
C5A C 0.64368(11) 1.04292(16) 0.61129(5)
C6A C 0.65506(11) 1.06870(16) 0.58496(5)
C7A C 0.70622(13) 1.08737(18) 0.53848(5)
H1A H 0.7064 1.1269 0.5400
H2A H 0.7487 1.0974 0.5337
C8A C 0.66443(14) 1.05150(22) 0.51484(6)
C9A C 0.68935(14) 1.06135(24) 0.48862(7)
H3A H 0.7325 1.0872 0.4860
C10A C 0.65105(19) 1.03325(28) 0.46622(5)
H4A H 0.6681 1.0400 0.4483
C11A C 0.58785(18) 0.99535(27) 0.47004(6)
C12A C 0.56293(13) 0.98554(22) 0.49626(8)
H5A H 0.5197 0.9596 0.4989
C13A C 0.60123(15) 1.01362(23) 0.51866(6)
H6A H 0.5842 1.0069 0.5366
C14A C 0.5439(4) 0.9631(5) 0.44569(15)
H7A H 0.5014 0.9529 0.4506
H8A H 0.5572 0.9911 0.4296
C15A C 0.5447(8) 0.9039(9) 0.4385(3)
H9A H 0.5882 0.9133 0.4383
H10A H 0.5229 0.8731 0.4531
C16A C 0.51561(14) 0.87541(19) 0.41128(6)
C17A C 0.52718(13) 0.90981(18) 0.38713(6)
H11A H 0.5518 0.9535 0.3878
C18A C 0.50308(12) 0.88077(17) 0.36225(6)
H12A H 0.5116 0.9049 0.3461
C19A C 0.46660(11) 0.81674(16) 0.36063(5)
C20A C 0.45297(13) 0.78271(18) 0.38476(6)
H13A H 0.4268 0.7391 0.3842
C21A C 0.47721(14) 0.81183(19) 0.40953(6)
H14A H 0.4673 0.7877 0.4258
C22A C 0.74970(13) 1.00202(18) 0.55352(6)
H15A H 0.7331 1.0014 0.5350
H16A H 0.7413 0.9597 0.5576
C23A C 0.81972(14) 1.04566(20) 0.55315(7)
H17A H 0.8386 1.0309 0.5397
H18A H 0.8367 1.0467 0.5714
H19A H 0.8287 1.0873 0.5481
C24A C 0.73617(12) 0.95920(17) 0.61026(6)
H20A H 0.7498 0.9700 0.6295
H21A H 0.7735 0.9715 0.5990
C25A C 0.69458(13) 0.88943(18) 0.60830(6)
C26A C 0.72086(15) 0.85226(21) 0.60957(8)
H22A H 0.7645 0.8709 0.6107
C27A C 0.68509(17) 0.78858(23) 0.60926(8)
H23A H 0.7047 0.7645 0.6104
C28A C 0.62222(17) 0.75943(23) 0.60728(7)
C29A C 0.59427(17) 0.79628(23) 0.60641(8)
H24A H 0.5506 0.7773 0.6055
C30A C 0.63049(15) 0.86058(21) 0.60687(7)
H25A H 0.6111 0.8849 0.6062
C31A C 0.5846(2) 0.68953(27) 0.60720(9)
H26A H 0.6097 0.6735 0.6157
H27A H 0.5770 0.6753 0.5879
C32A C 0.52289(18) 0.66130(25) 0.62192(9)
H28A H 0.5285 0.6802 0.6403
H29A H 0.4939 0.6696 0.6114
C33A C 0.49634(16) 0.59234(23) 0.62477(8)
C34A C 0.50057(14) 0.56725(20) 0.64950(7)
H30A H 0.5156 0.5930 0.6653
C35A C 0.48321(13) 0.50517(18) 0.65163(6)
H31A H 0.4864 0.4889 0.6688
C36A C 0.46099(12) 0.46629(17) 0.62871(6)
C37A C 0.45301(14) 0.49061(20) 0.60433(6)
H32A H 0.4350 0.4644 0.5889
C38A C 0.47119(17) 0.55288(23) 0.60234(8)
H33A H 0.4664 0.5688 0.5854
C39A C 0.44961(12) 0.40069(17) 0.63054(5)
H34A H 0.4884 0.4010 0.6262
H35A H 0.4380 0.3857 0.6496
C40A C 0.66182(12) 0.98472(18) 0.64911(6)
H36A H 0.6672 0.9481 0.6499
H37A H 0.6192 0.9718 0.6550
C41A C 0.70757(14) 1.03403(21) 0.66888(6)
H38A H 0.6982 1.0181 0.6877
H39A H 0.7040 1.0712 0.6675
H40A H 0.7497 1.0442 0.6641
C42A C 0.62822(12) 1.10892(17) 0.57649(6)
H41A H 0.5873 1.0931 0.5853
H42A H 0.6220 1.1061 0.5564
C43A C 0.66992(14) 1.17674(19) 0.58451(7)
H43A H 0.6507 1.2008 0.5787
H44A H 0.7101 1.1930 0.5755
H45A H 0.6757 1.1799 0.6044
C44A C 0.44646(11) 0.78666(16) 0.33256(5)
H46A H 0.4401 0.8147 0.3204
H47A H 0.4803 0.7819 0.3246
C45A C 0.38787(11) 0.72410(16) 0.33272(5)
C46A C 0.33047(11) 0.72137(16) 0.33306(5)
C47A C 0.32810(12) 0.78063(17) 0.33319(6)
H48A H 0.3647 0.8130 0.3430
H49A H 0.2908 0.7738 0.3432
C48A C 0.32668(14) 0.80304(19) 0.30406(7)
H50A H 0.3268 0.8423 0.3050
H51A H 0.2892 0.7721 0.2947
H52A H 0.3631 0.8090 0.2939
C1B C -0.05751(16) 0.63396(12) 0.56655(5)
C2B C -0.01922(16) 0.69613(11) 0.57431(5)
C3B C 0.00332(16) 0.71032(11) 0.60116(5)
C4B C -0.00812(16) 0.66270(11) 0.61973(5)
C5B C -0.04292(16) 0.60076(11) 0.61129(5)
C6B C -0.06870(16) 0.58636(11) 0.58496(5)
C7B C -0.08737(18) 0.61885(13) 0.53848(5)
H1B H -0.1269 0.5795 0.5400
H2B H -0.0974 0.6513 0.5337
C8B C -0.05150(22) 0.61293(17) 0.51484(6)
C9B C -0.06135(24) 0.6280(2) 0.48862(7)
H3B H -0.0872 0.6453 0.4860
C10B C -0.03325(28) 0.6178(2) 0.46622(5)
H4B H -0.0400 0.6281 0.4483
C11B C 0.00465(27) 0.5925(2) 0.47004(6)
C12B C 0.01446(22) 0.57739(18) 0.49626(8)
H5B H 0.0404 0.5601 0.4989
C13B C -0.01362(23) 0.58761(17) 0.51866(6)
H6B H -0.0069 0.5773 0.5366
C14B C 0.0369(5) 0.5808(3) 0.44569(15)
H7B H 0.0471 0.5485 0.4506
H8B H 0.0089 0.5661 0.4296
C15B C 0.0961(9) 0.6408(4) 0.4385(3)
H9B H 0.0867 0.6749 0.4383
H10B H 0.1269 0.6498 0.4531
C16B C 0.12459(19) 0.64020(13) 0.41128(6)
C17B C 0.09019(18) 0.61737(13) 0.38713(6)
H11B H 0.0465 0.5983 0.3878
C18B C 0.11923(17) 0.62231(12) 0.36225(6)
H12B H 0.0951 0.6067 0.3461
C19B C 0.18326(16) 0.64986(11) 0.36063(5)
C20B C 0.21729(18) 0.67026(12) 0.38476(6)
H13B H 0.2609 0.6877 0.3842
C21B C 0.18817(19) 0.66538(13) 0.40953(6)
H14B H 0.2123 0.6796 0.4258
C22B C -0.00202(18) 0.74768(13) 0.55352(6)
H15B H -0.0014 0.7317 0.5350
H16B H 0.0403 0.7816 0.5576
C23B C -0.04566(20) 0.77406(14) 0.55315(7)
H17B H -0.0309 0.8077 0.5397
H18B H -0.0467 0.7900 0.5714
H19B H -0.0873 0.7414 0.5481
C24B C 0.04080(17) 0.77697(12) 0.61026(6)
H20B H 0.0300 0.7798 0.6295
H21B H 0.0285 0.8020 0.5990
C25B C 0.11057(18) 0.80515(12) 0.60830(6)
C26B C 0.14774(21) 0.86860(14) 0.60957(8)
H22B H 0.1291 0.8936 0.6107
C27B C 0.21142(23) 0.89651(15) 0.60926(8)
H23B H 0.2355 0.9402 0.6104
C28B C 0.24057(23) 0.86279(15) 0.60728(7)
C29B C 0.20372(23) 0.79799(16) 0.60641(8)
H24B H 0.2227 0.7733 0.6055
C30B C 0.13942(21) 0.76991(14) 0.60687(7)
H25B H 0.1151 0.7262 0.6062
C31B C 0.31047(27) 0.89507(18) 0.60720(9)
H26B H 0.3265 0.9362 0.6157
H27B H 0.3247 0.9017 0.5879
C32B C 0.33870(25) 0.86159(18) 0.62192(9)
H28B H 0.3198 0.8483 0.6403
H29B H 0.3304 0.8243 0.6114
C33B C 0.40766(23) 0.90400(16) 0.62477(8)
C34B C 0.43275(20) 0.93332(14) 0.64950(7)
H30B H 0.4070 0.9226 0.6653
C35B C 0.49483(18) 0.97804(13) 0.65163(6)
H31B H 0.5111 0.9975 0.6688
C36B C 0.53371(17) 0.99470(12) 0.62871(6)
C37B C 0.50939(20) 0.96240(14) 0.60433(6)
H32B H 0.5356 0.9706 0.5889
C38B C 0.44712(23) 0.91831(16) 0.60234(8)
H33B H 0.4312 0.8976 0.5854
C39B C 0.59931(17) 1.04892(12) 0.63054(5)
H34B H 0.5990 1.0874 0.6262
H35B H 0.6143 1.0523 0.6496
C40B C 0.01528(18) 0.67710(13) 0.64911(6)
H36B H 0.0519 0.7191 0.6499
H37B H 0.0282 0.6474 0.6550
C41B C -0.03403(21) 0.67354(15) 0.66888(6)
H38B H -0.0181 0.6801 0.6877
H39B H -0.0712 0.6328 0.6675
H40B H -0.0442 0.7055 0.6641
C42B C -0.10892(17) 0.51930(12) 0.57649(6)
H41B H -0.0931 0.4942 0.5853
H42B H -0.1061 0.5159 0.5564
C43B C -0.17674(19) 0.49318(13) 0.58451(7)
H43B H -0.2008 0.4499 0.5787
H44B H -0.1930 0.5171 0.5755
H45B H -0.1799 0.4958 0.6044
C44B C 0.21334(16) 0.65980(12) 0.33256(5)
H46B H 0.1853 0.6254 0.3204
H47B H 0.2181 0.6984 0.3246
C45B C 0.27590(16) 0.66377(11) 0.33272(5)
C46B C 0.27863(16) 0.60910(11) 0.33306(5)
C47B C 0.21937(17) 0.54747(12) 0.33319(6)
H48B H 0.1870 0.5517 0.3430
H49B H 0.2262 0.5170 0.3432
C48B C 0.19696(19) 0.52364(13) 0.30406(7)
H50B H 0.1577 0.4845 0.3050
H51B H 0.2279 0.5171 0.2947
H52B H 0.1910 0.5541 0.2939
C57 C 0.6667 0.3333 0.73689(12)
H63 H 0.6667 0.3333 0.7164
Cl1 Cl 0.66931(6) 0.40129(5) 0.74824(2)
Cl1A Cl 0.59871(5) 0.26802(8) 0.74824(2)
Cl1B Cl 0.73198(8) 0.33069(6) 0.74824(2)
C58 C 0.82311(12) 0.67973(12) 0.72263(6)
H64 H 0.7863 0.6843 0.7265
Cl2 Cl 0.86589(4) 0.69397(4) 0.75319(2)
Cl3 Cl 0.86740(4) 0.73310(4) 0.69730(2)
Cl4 Cl 0.79687(4) 0.60395(3) 0.71123(2)
H53? H 0.3456 0.2552 0.5315
H54? H 0.4171 0.2874 0.5398
C49? C 0.3965(5) 0.3492(4) 0.51793(14)
C50? C 0.4181(5) 0.3453(4) 0.49219(16)
H55? H 0.4266 0.3130 0.4883
C51? C 0.4274(4) 0.3886(4) 0.47215(12)
H56? H 0.4422 0.3859 0.4546
C52? C 0.4150(4) 0.4358(4) 0.47784(14)
C53? C 0.3934(4) 0.4398(3) 0.50358(16)
H57? H 0.3850 0.4720 0.5075
C54? C 0.3842(5) 0.3964(4) 0.52363(12)
H58? H 0.3694 0.3991 0.5412
C55? C 0.4185(5) 0.4798(6) 0.4545(2)
H59? H 0.4242 0.5186 0.4626
H60? H 0.4547 0.4903 0.4428
C56? C 0.3602(7) 0.4505(17) 0.4370(6)
H61? H 0.3518 0.4089 0.4315
H62? H 0.3253 0.4447 0.4487
loop_
_geom_bond_atom_site_label_1
_geom_bond_atom_site_label_2
_geom_bond_site_symmetry_1
_geom_bond_site_symmetry_2
C1 C2 1_555 1_555
C2 C3 1_555 1_555
C3 C4 1_555 1_555
C4 C5 1_555 1_555
C5 C6 1_555 1_555
C6 C1 1_555 1_555
C7 C1 1_555 1_555
H1 C7 1_555 1_555
H2 C7 1_555 1_555
C8 C7 1_555 1_555
C9 C8 1_555 1_555
H3 C9 1_555 1_555
C10 C9 1_555 1_555
H4 C10 1_555 1_555
C11 C10 1_555 1_555
C12 C11 1_555 1_555
H5 C12 1_555 1_555
C13 C8 1_555 1_555
H6 C13 1_555 1_555
C14 C11 1_555 1_555
H7 C14 1_555 1_555
H8 C14 1_555 1_555
C15 C14 1_555 1_555
H9 C15 1_555 1_555
H10 C15 1_555 1_555
C16 C15 1_555 1_555
C17 C16 1_555 1_555
H11 C17 1_555 1_555
C18 C17 1_555 1_555
H12 C18 1_555 1_555
C19 C18 1_555 1_555
C20 C19 1_555 1_555
H13 C20 1_555 1_555
C21 C16 1_555 1_555
H14 C21 1_555 1_555
C22 C2 1_555 1_555
H15 C22 1_555 1_555
H16 C22 1_555 1_555
C23 C22 1_555 1_555
H17 C23 1_555 1_555
H18 C23 1_555 1_555
H19 C23 1_555 1_555
C24 C3 1_555 1_555
H20 C24 1_555 1_555
H21 C24 1_555 1_555
C25 C24 1_555 1_555
C26 C25 1_555 1_555
H22 C26 1_555 1_555
C27 C26 1_555 1_555
H23 C27 1_555 1_555
C28 C27 1_555 1_555
C29 C28 1_555 1_555
H24 C29 1_555 1_555
C30 C25 1_555 1_555
H25 C30 1_555 1_555
C31 C28 1_555 1_555
H26 C31 1_555 1_555
H27 C31 1_555 1_555
C32 C31 1_555 1_555
H28 C32 1_555 1_555
H29 C32 1_555 1_555
C33 C32 1_555 1_555
C34 C33 1_555 1_555
H30 C34 1_555 1_555
C35 C34 1_555 1_555
H31 C35 1_555 1_555
C36 C35 1_555 1_555
C37 C36 1_555 1_555
H32 C37 1_555 1_555
C38 C33 1_555 1_555
H33 C38 1_555 1_555
C39 C36 1_555 1_555
H34 C39 1_555 1_555
H35 C39 1_555 1_555
C40 C4 1_555 1_555
H36 C40 1_555 1_555
H37 C40 1_555 1_555
C41 C40 1_555 1_555
H38 C41 1_555 1_555
H39 C41 1_555 1_555
H40 C41 1_555 1_555
C42 C6 1_555 1_555
H41 C42 1_555 1_555
H42 C42 1_555 1_555
C43 C42 1_555 1_555
H43 C43 1_555 1_555
H44 C43 1_555 1_555
H45 C43 1_555 1_555
C44 C19 1_555 1_555
H46 C44 1_555 1_555
H47 C44 1_555 1_555
C45 C44 1_555 1_555
C46 C45 1_555 1_555
C47 C46 1_555 1_555
H48 C47 1_555 1_555
H49 C47 1_555 1_555
C48 C47 1_555 1_555
H50 C48 1_555 1_555
H51 C48 1_555 1_555
H52 C48 1_555 1_555
C57 H63 1_555 1_555
Cl1 C57 1_555 1_555
C58 H64 1_555 1_555
Cl2 C58 1_555 1_555
Cl3 C58 1_555 1_555
Cl4 C58 1_555 1_555
C1A C2A 1_555 1_555
C2A C3A 1_555 1_555
C3A C4A 1_555 1_555
C4A C5A 1_555 1_555
C5A C6A 1_555 1_555
C6A C1A 1_555 1_555
C7A C1A 1_555 1_555
H1A C7A 1_555 1_555
H2A C7A 1_555 1_555
C8A C7A 1_555 1_555
C9A C8A 1_555 1_555
H3A C9A 1_555 1_555
C10A C9A 1_555 1_555
H4A C10A 1_555 1_555
C11A C10A 1_555 1_555
C12A C11A 1_555 1_555
H5A C12A 1_555 1_555
C13A C8A 1_555 1_555
H6A C13A 1_555 1_555
C14A C11A 1_555 1_555
H7A C14A 1_555 1_555
H8A C14A 1_555 1_555
C15A C14A 1_555 1_555
H9A C15A 1_555 1_555
H10A C15A 1_555 1_555
C16A C15A 1_555 1_555
C17A C16A 1_555 1_555
H11A C17A 1_555 1_555
C18A C17A 1_555 1_555
H12A C18A 1_555 1_555
C19A C18A 1_555 1_555
C20A C19A 1_555 1_555
H13A C20A 1_555 1_555
C21A C16A 1_555 1_555
H14A C21A 1_555 1_555
C22A C2A 1_555 1_555
H15A C22A 1_555 1_555
H16A C22A 1_555 1_555
C23A C22A 1_555 1_555
H17A C23A 1_555 1_555
H18A C23A 1_555 1_555
H19A C23A 1_555 1_555
C24A C3A 1_555 1_555
H20A C24A 1_555 1_555
H21A C24A 1_555 1_555
C25A C24A 1_555 1_555
C26A C25A 1_555 1_555
H22A C26A 1_555 1_555
C27A C26A 1_555 1_555
H23A C27A 1_555 1_555
C28A C27A 1_555 1_555
C29A C28A 1_555 1_555
H24A C29A 1_555 1_555
C30A C25A 1_555 1_555
H25A C30A 1_555 1_555
C31A C28A 1_555 1_555
H26A C31A 1_555 1_555
H27A C31A 1_555 1_555
C32A C31A 1_555 1_555
H28A C32A 1_555 1_555
H29A C32A 1_555 1_555
C33A C32A 1_555 1_555
C34A C33A 1_555 1_555
H30A C34A 1_555 1_555
C35A C34A 1_555 1_555
H31A C35A 1_555 1_555
C36A C35A 1_555 1_555
C37A C36A 1_555 1_555
H32A C37A 1_555 1_555
C38A C33A 1_555 1_555
H33A C38A 1_555 1_555
C39A C5 1_555 1_555
H34A C39A 1_555 1_555
H35A C39A 1_555 1_555
C40A C4A 1_555 1_555
H36A C40A 1_555 1_555
H37A C40A 1_555 1_555
C41A C40A 1_555 1_555
H38A C41A 1_555 1_555
H39A C41A 1_555 1_555
H40A C41A 1_555 1_555
C42A C6A 1_555 1_555
H41A C42A 1_555 1_555
H42A C42A 1_555 1_555
C43A C42A 1_555 1_555
H43A C43A 1_555 1_555
H44A C43A 1_555 1_555
H45A C43A 1_555 1_555
C44A C19A 1_555 1_555
H46A C44A 1_555 1_555
H47A C44A 1_555 1_555
C45A C46 1_555 1_555
C46A C45A 1_555 1_555
C47A C46A 1_555 1_555
H48A C47A 1_555 1_555
H49A C47A 1_555 1_555
C48A C47A 1_555 1_555
H50A C48A 1_555 1_555
H51A C48A 1_555 1_555
H52A C48A 1_555 1_555
C1B C2B 1_555 1_555
C2B C3B 1_555 1_555
C3B C4B 1_555 1_555
C4B C5B 1_555 1_555
C5B C39 1_555 1_555
C6B C1B 1_555 1_555
C7B C1B 1_555 1_555
H1B C7B 1_555 1_555
H2B C7B 1_555 1_555
C8B C7B 1_555 1_555
C9B C8B 1_555 1_555
H3B C9B 1_555 1_555
C10B C9B 1_555 1_555
H4B C10B 1_555 1_555
C11B C10B 1_555 1_555
C12B C11B 1_555 1_555
H5B C12B 1_555 1_555
C13B C8B 1_555 1_555
H6B C13B 1_555 1_555
C14B C11B 1_555 1_555
H7B C14B 1_555 1_555
H8B C14B 1_555 1_555
C15B C14B 1_555 1_555
H9B C15B 1_555 1_555
H10B C15B 1_555 1_555
C16B C15B 1_555 1_555
C17B C16B 1_555 1_555
H11B C17B 1_555 1_555
C18B C17B 1_555 1_555
H12B C18B 1_555 1_555
C19B C18B 1_555 1_555
C20B C19B 1_555 1_555
H13B C20B 1_555 1_555
C21B C16B 1_555 1_555
H14B C21B 1_555 1_555
C22B C2B 1_555 1_555
H15B C22B 1_555 1_555
H16B C22B 1_555 1_555
C23B C22B 1_555 1_555
H17B C23B 1_555 1_555
H18B C23B 1_555 1_555
H19B C23B 1_555 1_555
C24B C3B 1_555 1_555
H20B C24B 1_555 1_555
H21B C24B 1_555 1_555
C25B C24B 1_555 1_555
C26B C25B 1_555 1_555
H22B C26B 1_555 1_555
C27B C26B 1_555 1_555
H23B C27B 1_555 1_555
C28B C27B 1_555 1_555
C29B C28B 1_555 1_555
H24B C29B 1_555 1_555
C30B C25B 1_555 1_555
H25B C30B 1_555 1_555
C31B C28B 1_555 1_555
H26B C31B 1_555 1_555
H27B C31B 1_555 1_555
C32B C31B 1_555 1_555
H28B C32B 1_555 1_555
H29B C32B 1_555 1_555
C33B C32B 1_555 1_555
C34B C33B 1_555 1_555
H30B C34B 1_555 1_555
C35B C34B 1_555 1_555
H31B C35B 1_555 1_555
C36B C35B 1_555 1_555
C37B C36B 1_555 1_555
H32B C37B 1_555 1_555
C38B C33B 1_555 1_555
H33B C38B 1_555 1_555
C39B C5A 1_555 1_555
H34B C39B 1_555 1_555
H35B C39B 1_555 1_555
C40B C4B 1_555 1_555
H36B C40B 1_555 1_555
H37B C40B 1_555 1_555
C41B C40B 1_555 1_555
H38B C41B 1_555 1_555
H39B C41B 1_555 1_555
H40B C41B 1_555 1_555
C42B C6B 1_555 1_555
H41B C42B 1_555 1_555
H42B C42B 1_555 1_555
C43B C42B 1_555 1_555
H43B C43B 1_555 1_555
H44B C43B 1_555 1_555
H45B C43B 1_555 1_555
C44B C19B 1_555 1_555
H46B C44B 1_555 1_555
H47B C44B 1_555 1_555
C45B C46A 1_555 1_555
C46B C45 1_555 1_555
C47B C46B 1_555 1_555
H48B C47B 1_555 1_555
H49B C47B 1_555 1_555
C48B C47B 1_555 1_555
H50B C48B 1_555 1_555
H51B C48B 1_555 1_555
H52B C48B 1_555 1_555
Cl1A C57 1_555 1_555
Cl1B C57 1_555 1_555
C12 C13 1_555 1_555
C20 C21 1_555 1_555
C29 C30 1_555 1_555
C37 C38 1_555 1_555
C12A C13A 1_555 1_555
C20A C21A 1_555 1_555
C29A C30A 1_555 1_555
C36A C39A 1_555 1_555
C37A C38A 1_555 1_555
C44A C45A 1_555 1_555
C5B C6B 1_555 1_555
C12B C13B 1_555 1_555
C20B C21B 1_555 1_555
C29B C30B 1_555 1_555
C36B C39B 1_555 1_555
C37B C38B 1_555 1_555
C44B C45B 1_555 1_555
C45B C46B 1_555 1_555

#END
