
#######################################################################
#
#                 Cambridge Crystallographic Data Centre
#                                CCDC 
#
#######################################################################
#
# If this CIF has been generated from an entry in the Cambridge 
# Structural Database, then it will include bibliographic, chemical, 
# crystal, experimental, refinement or atomic coordinate data resulting 
# from the CCDC's data processing and validation procedures.
#
#######################################################################

data_GEHDOP01
_chemical_formula_moiety         'C34 H40 N2 O4 S2'
_chemical_name_systematic        
5,12-dioctylbisthieno[2,3-e:2,3-e']benzo[1,2-c:4,5-c']bisazepine-4,6,11,13(5H,12H)-tetrone
_symmetry_cell_setting           triclinic
_symmetry_space_group_name_H-M   'P -1'
_symmetry_Int_Tables_number      2
_space_group_name_Hall           '-P 1'
loop_
_symmetry_equiv_pos_site_id
_symmetry_equiv_pos_as_xyz
1 x,y,z
2 -x,-y,-z
_cell_length_a                   9.6144(5)
_cell_length_b                   11.7084(6)
_cell_length_c                   22.2418(11)
_cell_angle_alpha                76.927(2)
_cell_angle_beta                 81.752(2)
_cell_angle_gamma                88.069(2)
_cell_volume                     2413.62
_cell_formula_units_Z            3
loop_
_atom_site_label
_atom_site_type_symbol
_atom_site_fract_x
_atom_site_fract_y
_atom_site_fract_z
S1 S 0.87183(8) 0.40631(8) 0.55498(4)
O1 O 0.2567(2) 0.3037(2) 0.60666(11)
O2 O 0.5488(3) 0.3033(3) 0.74484(12)
N1 N 0.4198(3) 0.2971(2) 0.66871(12)
C1 C 0.5925(3) 0.4480(3) 0.54272(14)
C2 C 0.6950(3) 0.3990(3) 0.58359(15)
C3 C 0.3618(3) 0.4756(3) 0.51370(14)
H1 H 0.2662 0.4589 0.5233
C4 C 0.4485(3) 0.4223(2) 0.55689(14)
C5 C 0.6761(3) 0.3493(3) 0.64590(15)
C6 C 0.3726(3) 0.3370(3) 0.61205(15)
C7 C 0.8060(3) 0.3204(3) 0.66978(17)
H2 H 0.8120 0.2879 0.7115
C8 C 0.5462(3) 0.3200(3) 0.68950(16)
C9 C 0.9175(3) 0.3449(3) 0.62613(18)
H3 H 1.0098 0.3300 0.6337
C10 C 0.3179(4) 0.2232(3) 0.71805(17)
H4 H 0.3695 0.1709 0.7475
H5 H 0.2651 0.1754 0.6989
C11 C 0.2171(4) 0.2948(3) 0.75267(18)
H6 H 0.1716 0.3517 0.7228
H7 H 0.2696 0.3376 0.7745
C12 C 0.1054(5) 0.2222(4) 0.7992(2)
H8 H 0.0536 0.1789 0.7772
H9 H 0.1512 0.1655 0.8290
C13 C 0.0033(6) 0.2918(5) 0.8339(3)
H10 H 0.0560 0.3319 0.8570
H11 H -0.0367 0.3516 0.8034
C14 C -0.1126(7) 0.2301(7) 0.8774(3)
H12 H -0.0757 0.1731 0.9102
H13 H -0.1669 0.1884 0.8556
C15 C -0.2115(11) 0.3214(10) 0.9072(5)
H14 H -0.1766 0.3950 0.9062
C16 C -0.3981(13) 0.3907(12) 0.9616(6)
H15 H -0.4187 0.3600 1.0058
H16 H -0.4836 0.4163 0.9451
H17 H -0.3348 0.4558 0.9536
C17 C -0.3310(14) 0.2965(12) 0.9309(6)
H18 H -0.3759 0.2277 0.9303
S1A S 0.12817(8) 0.59369(8) 0.44502(4)
O1A O 0.7433(2) 0.6963(2) 0.39334(11)
O2A O 0.4512(3) 0.6967(3) 0.25516(12)
N1A N 0.5802(3) 0.7029(2) 0.33129(12)
C1A C 0.4075(3) 0.5520(3) 0.45728(14)
C2A C 0.3050(3) 0.6010(3) 0.41641(15)
C3A C 0.6382(3) 0.5244(3) 0.48630(14)
H1A H 0.7338 0.5411 0.4767
C4A C 0.5515(3) 0.5777(2) 0.44311(14)
C5A C 0.3239(3) 0.6507(3) 0.35410(15)
C6A C 0.6274(3) 0.6630(3) 0.38795(15)
C7A C 0.1940(3) 0.6796(3) 0.33022(17)
H2A H 0.1880 0.7121 0.2885
C8A C 0.4538(3) 0.6800(3) 0.31050(16)
C9A C 0.0825(3) 0.6551(3) 0.37387(18)
H3A H -0.0098 0.6700 0.3663
C10A C 0.6821(4) 0.7768(3) 0.28195(17)
H4A H 0.6305 0.8291 0.2525
H5A H 0.7349 0.8246 0.3011
C11A C 0.7829(4) 0.7052(3) 0.24733(18)
H6A H 0.8284 0.6483 0.2772
H7A H 0.7304 0.6624 0.2255
C12A C 0.8946(5) 0.7778(4) 0.2008(2)
H8A H 0.9464 0.8211 0.2228
H9A H 0.8488 0.8345 0.1710
C13A C 0.9967(6) 0.7082(5) 0.1661(3)
H10A H 0.9440 0.6681 0.1430
H11A H 1.0367 0.6484 0.1966
C14A C 1.1126(7) 0.7699(7) 0.1226(3)
H12A H 1.0757 0.8269 0.0898
H13A H 1.1669 0.8116 0.1444
C15A C 1.2115(11) 0.6786(10) 0.0928(5)
H14A H 1.1766 0.6050 0.0938
C16A C 1.3981(13) 0.6093(12) 0.0384(6)
H15A H 1.4187 0.6400 -0.0058
H16A H 1.4836 0.5837 0.0549
H17A H 1.3348 0.5442 0.0464
C17A C 1.3310(14) 0.7035(12) 0.0691(6)
H18A H 1.3759 0.7723 0.0697
S2 S 1.06430(8) 0.64648(8) 0.61066(4)
S3 S 0.34361(8) 0.84270(8) 0.48280(4)
O3 O 0.4529(2) 0.5845(2) 0.65960(11)
N2 N 0.8021(3) 0.9990(2) 0.39053(12)
O4 O 0.7343(3) 0.6308(3) 0.79723(13)
N3 N 0.6014(3) 0.6101(2) 0.72448(13)
C18 C 0.6166(3) 0.8298(2) 0.50755(14)
C19 C 0.5196(3) 0.8813(3) 0.46448(14)
C20 C 0.6455(3) 0.7010(2) 0.60871(14)
C21 C 0.7920(3) 0.7161(3) 0.59499(14)
C22 C 0.5637(3) 0.7577(3) 0.56455(14)
H19 H 0.4669 0.7469 0.5736
C23 C 0.8446(3) 0.7873(3) 0.53806(15)
H20 H 0.9416 0.7968 0.5288
C24 C 0.8885(3) 0.6618(3) 0.63761(16)
C25 C 0.7631(3) 0.8452(3) 0.49407(14)
C26 C 0.5642(3) 0.6256(3) 0.66528(15)
C27 C 0.8642(3) 0.6272(3) 0.70079(16)
C28 C 0.4159(4) 0.9817(3) 0.37936(17)
H21 H 0.4126 1.0314 0.3405
C29 C 0.7318(4) 0.6267(3) 0.74374(18)
C30 C 0.5421(3) 0.9572(3) 0.40720(15)
C31 C 0.9901(4) 0.5916(3) 0.72715(19)
H22 H 0.9928 0.5672 0.7698
O5 O 0.9747(3) 0.8997(4) 0.43396(16)
C32 C 0.3037(4) 0.9263(3) 0.41447(18)
H23 H 0.2140 0.9326 0.4030
C33 C 1.1038(4) 0.5968(3) 0.68418(19)
H24 H 1.1938 0.5757 0.6934
C34 C 0.8492(3) 0.9153(4) 0.43792(17)
C35 C 0.9157(4) 1.0706(3) 0.34741(17)
H25 H 0.9857 1.0878 0.3715
H26 H 0.8762 1.1446 0.3277
C36 C 0.6681(4) 1.0190(3) 0.37337(18)
C37 C 0.9859(4) 1.0123(3) 0.29800(18)
H27 H 0.9225 1.0120 0.2678
H28 H 1.0067 0.9315 0.3167
O6 O 0.6572(3) 1.0930(4) 0.3276(2)
C38 C 0.3906(4) 0.6614(4) 0.7917(2)
H29 H 0.3542 0.7024 0.7541
H30 H 0.4428 0.7174 0.8058
C39 C 1.1217(4) 1.0745(4) 0.26471(19)
H31 H 1.0986 1.1519 0.2417
H32 H 1.1787 1.0847 0.2957
C40 C 0.4871(4) 0.5660(3) 0.77695(17)
H33 H 0.4332 0.5069 0.7660
H34 H 0.5288 0.5290 0.8138
C41 C 1.3455(5) 1.0659(5) 0.1899(2)
H35 H 1.4027 1.0706 0.2218
H36 H 1.3295 1.1452 0.1673
C42 C 0.2684(5) 0.6137(5) 0.8418(2)
H37 H 0.2187 0.5558 0.8279
H38 H 0.3057 0.5740 0.8794
C43 C 1.2058(5) 1.0116(4) 0.2210(2)
H39 H 1.1501 1.0057 0.1888
H40 H 1.2228 0.9324 0.2437
C44 C 1.4265(6) 0.9991(6) 0.1452(3)
H41 H 1.4371 0.9184 0.1671
H42 H 1.3718 0.9987 0.1118
C45 C 0.1654(6) 0.7055(6) 0.8575(3)
H43 H 0.1289 0.7456 0.8199
H44 H 0.2151 0.7630 0.8718
C46 C 1.5668(7) 1.0475(7) 0.1176(4)
H45 H 1.5565 1.1278 0.0950
H46 H 1.6215 1.0486 0.1509
C47 C 0.0437(7) 0.6590(8) 0.9066(3)
H47 H -0.0099 0.6059 0.8910
H48 H 0.0804 0.6139 0.9432
C48 C 1.6419(10) 0.9817(10) 0.0759(5)
H49 H 1.6276 0.8994 0.0932
H50 H 1.7404 0.9992 0.0705
H51 H 1.6080 1.0027 0.0363
C49 C -0.0529(9) 0.7507(10) 0.9256(4)
H52 H -0.0940 0.7954 0.8901
H53 H -0.0023 0.8042 0.9421
C50 C -0.1725(13) 0.6841(13) 0.9777(7)
H54 H -0.2449 0.6515 0.9604
H55 H -0.1352 0.6240 1.0090
C51 C -0.216(2) 0.7797(18) 0.9988(9)
H56 H -0.1720 0.8515 0.9807
H57 H -0.2889 0.7744 1.0315
loop_
_geom_bond_atom_site_label_1
_geom_bond_atom_site_label_2
_geom_bond_site_symmetry_1
_geom_bond_site_symmetry_2
S1 C2 1_555 1_555
O1 C6 1_555 1_555
O2 C8 1_555 1_555
N1 C6 1_555 1_555
C1 C2 1_555 1_555
C2 C5 1_555 1_555
C3 H1 1_555 1_555
C4 C1 1_555 1_555
C5 C7 1_555 1_555
C6 C4 1_555 1_555
C7 H2 1_555 1_555
C8 N1 1_555 1_555
C9 S1 1_555 1_555
H3 C9 1_555 1_555
C10 N1 1_555 1_555
H4 C10 1_555 1_555
H5 C10 1_555 1_555
C11 C10 1_555 1_555
H6 C11 1_555 1_555
H7 C11 1_555 1_555
C12 C11 1_555 1_555
H8 C12 1_555 1_555
H9 C12 1_555 1_555
C13 C12 1_555 1_555
H10 C13 1_555 1_555
H11 C13 1_555 1_555
C14 C13 1_555 1_555
H12 C14 1_555 1_555
H13 C14 1_555 1_555
C15 C14 1_555 1_555
H14 C15 1_555 1_555
C16 H15 1_555 1_555
H16 C16 1_555 1_555
H17 C16 1_555 1_555
C17 C15 1_555 1_555
H18 C17 1_555 1_555
S2 C24 1_555 1_555
S3 C19 1_555 1_555
O3 C26 1_555 1_555
N2 C34 1_555 1_555
O4 C29 1_555 1_555
N3 C26 1_555 1_555
C18 C19 1_555 1_555
C19 C30 1_555 1_555
C20 C21 1_555 1_555
C21 C23 1_555 1_555
C22 C18 1_555 1_555
H19 C22 1_555 1_555
C23 H20 1_555 1_555
C24 C21 1_555 1_555
C25 C18 1_555 1_555
C26 C20 1_555 1_555
C27 C24 1_555 1_555
C28 H21 1_555 1_555
C29 N3 1_555 1_555
C30 C28 1_555 1_555
C31 C27 1_555 1_555
H22 C31 1_555 1_555
O5 C34 1_555 1_555
C32 S3 1_555 1_555
H23 C32 1_555 1_555
C33 S2 1_555 1_555
H24 C33 1_555 1_555
C34 C25 1_555 1_555
C35 N2 1_555 1_555
H25 C35 1_555 1_555
H26 C35 1_555 1_555
C36 N2 1_555 1_555
C37 C35 1_555 1_555
H27 C37 1_555 1_555
H28 C37 1_555 1_555
O6 C36 1_555 1_555
C38 H29 1_555 1_555
H30 C38 1_555 1_555
C39 C37 1_555 1_555
H31 C39 1_555 1_555
H32 C39 1_555 1_555
C40 N3 1_555 1_555
H33 C40 1_555 1_555
H34 C40 1_555 1_555
C41 H35 1_555 1_555
H36 C41 1_555 1_555
C42 C38 1_555 1_555
H37 C42 1_555 1_555
H38 C42 1_555 1_555
C43 C39 1_555 1_555
H39 C43 1_555 1_555
H40 C43 1_555 1_555
C44 C41 1_555 1_555
H41 C44 1_555 1_555
H42 C44 1_555 1_555
C45 C42 1_555 1_555
H43 C45 1_555 1_555
H44 C45 1_555 1_555
C46 C44 1_555 1_555
H45 C46 1_555 1_555
H46 C46 1_555 1_555
C47 C45 1_555 1_555
H47 C47 1_555 1_555
H48 C47 1_555 1_555
C48 C46 1_555 1_555
H49 C48 1_555 1_555
H50 C48 1_555 1_555
H51 C48 1_555 1_555
C49 C47 1_555 1_555
H52 C49 1_555 1_555
H53 C49 1_555 1_555
C50 C49 1_555 1_555
H54 C50 1_555 1_555
H55 C50 1_555 1_555
C51 C50 1_555 1_555
H56 C51 1_555 1_555
H57 C51 1_555 1_555
S1A C2A 1_555 1_555
O1A C6A 1_555 1_555
O2A C8A 1_555 1_555
N1A C6A 1_555 1_555
C1A C3 1_555 1_555
C2A C1A 1_555 1_555
C3A C1 1_555 1_555
H1A C3A 1_555 1_555
C4A C1A 1_555 1_555
C5A C2A 1_555 1_555
C6A C4A 1_555 1_555
C7A C5A 1_555 1_555
H2A C7A 1_555 1_555
C8A N1A 1_555 1_555
C9A S1A 1_555 1_555
H3A C9A 1_555 1_555
C10A N1A 1_555 1_555
H4A C10A 1_555 1_555
H5A C10A 1_555 1_555
C11A C10A 1_555 1_555
H6A C11A 1_555 1_555
H7A C11A 1_555 1_555
C12A C11A 1_555 1_555
H8A C12A 1_555 1_555
H9A C12A 1_555 1_555
C13A C12A 1_555 1_555
H10A C13A 1_555 1_555
H11A C13A 1_555 1_555
C14A C13A 1_555 1_555
H12A C14A 1_555 1_555
H13A C14A 1_555 1_555
C15A C14A 1_555 1_555
H14A C15A 1_555 1_555
C16A H15A 1_555 1_555
H16A C16A 1_555 1_555
H17A C16A 1_555 1_555
C17A C15A 1_555 1_555
H18A C17A 1_555 1_555
C3 C4 1_555 1_555
C5 C8 1_555 1_555
C7 C9 1_555 1_555
C16 C17 1_555 1_555
C20 C22 1_555 1_555
C23 C25 1_555 1_555
C27 C29 1_555 1_555
C28 C32 1_555 1_555
C30 C36 1_555 1_555
C31 C33 1_555 1_555
C38 C40 1_555 1_555
C41 C43 1_555 1_555
C3A C4A 1_555 1_555
C5A C8A 1_555 1_555
C7A C9A 1_555 1_555
C16A C17A 1_555 1_555

#END
