
#######################################################################
#
#                 Cambridge Crystallographic Data Centre
#                                CCDC 
#
#######################################################################
#
# If this CIF has been generated from an entry in the Cambridge 
# Structural Database, then it will include bibliographic, chemical, 
# crystal, experimental, refinement or atomic coordinate data resulting 
# from the CCDC's data processing and validation procedures.
#
#######################################################################

data_GEHFIL
_chemical_formula_moiety         'C9 H8 Br1 N4 1+,C9 H7 Br1 N4,Cl1 O4 1-'
_chemical_name_systematic        
'4-{[(4-bromophenyl)methylidene]amino}-4H-1,2,4-triazol-1-ium perchlorate 1-(4-bromophenyl)-N-(4H-1,2,4-triazol-4-yl)methanimine'
_symmetry_cell_setting           triclinic
_symmetry_space_group_name_H-M   'P -1'
_symmetry_Int_Tables_number      2
_space_group_name_Hall           '-P 1'
loop_
_symmetry_equiv_pos_site_id
_symmetry_equiv_pos_as_xyz
1 x,y,z
2 -x,-y,-z
_cell_length_a                   8.0000(16)
_cell_length_b                   9.886(2)
_cell_length_c                   14.320(3)
_cell_angle_alpha                95.05(3)
_cell_angle_beta                 97.80(3)
_cell_angle_gamma                105.59(3)
_cell_volume                     1071.54
_cell_formula_units_Z            2
loop_
_atom_site_label
_atom_site_type_symbol
_atom_site_fract_x
_atom_site_fract_y
_atom_site_fract_z
Br1 Br 0.11276(15) 0.32918(13) -0.09718(10)
N1 N 0.6343(10) 0.9760(8) 0.1326(6)
N2 N 0.7510(11) 1.1063(8) 0.1540(6)
N3 N 0.9577(12) 1.3048(9) 0.1580(8)
N4 N 0.8759(12) 1.3080(10) 0.2340(6)
H1 H 0.9015 1.3789 0.2780
C1 C 0.2726(15) 0.5078(12) -0.0472(8)
C2 C 0.3836(14) 0.5627(11) -0.1006(7)
H2 H 0.3838 0.5150 -0.1595
C3 C 0.5063(15) 0.6987(13) -0.0670(8)
H3 H 0.5878 0.7405 -0.1040
C4 C 0.5029(12) 0.7678(10) 0.0214(7)
C5 C 0.3779(15) 0.7023(12) 0.0748(8)
H4 H 0.3718 0.7462 0.1339
C6 C 0.2671(14) 0.5751(12) 0.0392(8)
H5 H 0.1836 0.5313 0.0746
C7 C 0.6300(14) 0.9115(12) 0.0548(9)
H6 H 0.7074 0.9525 0.0155
C8 C 0.8739(12) 1.1750(9) 0.1128(8)
H7 H 0.9020 1.1382 0.0569
C9 C 0.7574(14) 1.1936(10) 0.2325(8)
H8 H 0.6859 1.1731 0.2784
Br2 Br 0.36580(17) 0.47976(14) 0.30461(9)
N5 N 0.8989(11) 1.1499(8) 0.4800(6)
N6 N 0.9831(10) 1.2719(8) 0.5369(6)
N7 N 1.1714(10) 1.4857(9) 0.5690(7)
N8 N 1.0692(11) 1.4568(8) 0.6402(7)
C10 C 0.4985(14) 0.6584(11) 0.3684(8)
C11 C 0.6172(13) 0.7487(11) 0.3240(8)
H9 H 0.6309 0.7233 0.2620
C12 C 0.7115(14) 0.8736(11) 0.3727(7)
H10 H 0.7910 0.9341 0.3426
C13 C 0.6990(15) 0.9188(13) 0.4647(8)
C14 C 0.5812(14) 0.8311(11) 0.5079(7)
H11 H 0.5676 0.8588 0.5695
C15 C 0.4808(14) 0.6997(12) 0.4604(8)
H12 H 0.4012 0.6393 0.4906
C16 C 0.7908(13) 1.0543(10) 0.5174(8)
H13 H 0.7731 1.0746 0.5793
C17 C 1.1043(11) 1.3654(8) 0.5081(8)
H14 H 1.1421 1.3510 0.4504
C18 C 0.9664(15) 1.3396(11) 0.6214(8)
H15 H 0.8858 1.3002 0.6596
Cl1 Cl 0.2016(4) 0.0117(3) 0.22015(19)
O1 O 0.2487(13) -0.1096(9) 0.2508(7)
O2 O 0.0679(13) 0.0307(13) 0.2658(7)
O3 O 0.3404(11) 0.1290(9) 0.2415(7)
O4 O 0.1506(12) -0.0110(10) 0.1202(6)
loop_
_geom_bond_atom_site_label_1
_geom_bond_atom_site_label_2
_geom_bond_site_symmetry_1
_geom_bond_site_symmetry_2
Br1 C1 1_555 1_555
N1 N2 1_555 1_555
N2 C8 1_555 1_555
N3 N4 1_555 1_555
N4 H1 1_555 1_555
C1 C2 1_555 1_555
C2 H2 1_555 1_555
C3 C2 1_555 1_555
H3 C3 1_555 1_555
C4 C3 1_555 1_555
C5 C4 1_555 1_555
H4 C5 1_555 1_555
C6 C1 1_555 1_555
H5 C6 1_555 1_555
C7 N1 1_555 1_555
H6 C7 1_555 1_555
C8 N3 1_555 1_555
H7 C8 1_555 1_555
C9 N2 1_555 1_555
H8 C9 1_555 1_555
Br2 C10 1_555 1_555
N5 N6 1_555 1_555
N6 C17 1_555 1_555
N7 N8 1_555 1_555
N8 C18 1_555 1_555
C10 C11 1_555 1_555
C11 H9 1_555 1_555
C12 C11 1_555 1_555
H10 C12 1_555 1_555
C13 C12 1_555 1_555
C14 C13 1_555 1_555
H11 C14 1_555 1_555
C15 C10 1_555 1_555
H12 C15 1_555 1_555
C16 N5 1_555 1_555
H13 C16 1_555 1_555
C17 N7 1_555 1_555
H14 C17 1_555 1_555
C18 N6 1_555 1_555
H15 C18 1_555 1_555
Cl1 O1 1_555 1_555
O2 Cl1 1_555 1_555
O3 Cl1 1_555 1_555
O4 Cl1 1_555 1_555
N4 C9 1_555 1_555
C4 C7 1_555 1_555
C5 C6 1_555 1_555
C13 C16 1_555 1_555
C14 C15 1_555 1_555

#END
