
#######################################################################
#
#                 Cambridge Crystallographic Data Centre
#                                CCDC 
#
#######################################################################
#
# If this CIF has been generated from an entry in the Cambridge 
# Structural Database, then it will include bibliographic, chemical, 
# crystal, experimental, refinement or atomic coordinate data resulting 
# from the CCDC's data processing and validation procedures.
#
#######################################################################

data_GEHHUZ
_chemical_formula_moiety         'C82 H58 N4 S9,2(C1 H2 Cl2)'
_chemical_name_systematic        
'6,16,26,36-tetramesityl-8,11,14,28,31,34,42,45,48-nonathia-52,55,56,59-tetra-azapentadecacyclo[19.19.9.1^2,5^.1^7,10^.1^12,15^.1^17,20^.1^22,25^.1^27,30^.1^32,35^.1^37,40^.1^41,44^.1^46,49^.0^9,13^.0^29,33^.0^43,47^]nonapentaconta-1(41),2(59),3,5,7(58),9,12,15(57),16,18,20(56),21(49),22(55),23,25,27(54),29,32,35(53),36,38,40(52),43(47),44(51),46(50)-pentacosaene dichloromethane solvate'
_symmetry_cell_setting           orthorhombic
_symmetry_space_group_name_H-M   'P c a 21'
_symmetry_Int_Tables_number      29
_space_group_name_Hall           'P 2c -2ac'
loop_
_symmetry_equiv_pos_site_id
_symmetry_equiv_pos_as_xyz
1 x,y,z
2 -x,-y,1/2+z
3 1/2-x,y,1/2+z
4 1/2+x,-y,z
_cell_length_a                   38.0854(8)
_cell_length_b                   13.6768(3)
_cell_length_c                   14.8701(4)
_cell_angle_alpha                90
_cell_angle_beta                 90
_cell_angle_gamma                90
_cell_volume                     7745.63
_exptl_crystal_colour            black
_exptl_crystal_description       needle
_cell_formula_units_Z            4
loop_
_atom_site_label
_atom_site_type_symbol
_atom_site_fract_x
_atom_site_fract_y
_atom_site_fract_z
C1 C 0.4206(3) 0.6258(7) 0.9702(9)
C2 C 0.4364(3) 0.5424(8) 1.0148(10)
H1 H 0.4336 0.5226 1.0756
C3 C 0.4563(3) 0.4986(9) 0.9494(10)
H2 H 0.4702 0.4413 0.9560
C4 C 0.4523(3) 0.5566(8) 0.8678(10)
C5 C 0.4672(3) 0.5437(8) 0.7850(9)
C6 C 0.4637(3) 0.6140(7) 0.7136(9)
C7 C 0.4762(3) 0.6020(8) 0.6279(9)
H3 H 0.4888 0.5459 0.6084
C8 C 0.4685(3) 0.6808(7) 0.5729(9)
C9 C 0.4499(2) 0.7536(6) 0.6156(8)
C10 C 0.4414(2) 0.8323(6) 0.5563(7)
C11 C 0.4544(3) 0.8171(7) 0.4701(8)
C12 C 0.4469(3) 0.8951(8) 0.4118(8)
H4 H 0.4544 0.8977 0.3510
C13 C 0.4272(2) 0.9680(6) 0.4529(7)
C14 C 0.4159(2) 1.0568(7) 0.4092(7)
C15 C 0.3965(2) 1.1277(6) 0.4528(8)
C16 C 0.3848(2) 1.2229(6) 0.4212(7)
H5 H 0.3894 1.2514 0.3642
C17 C 0.3662(3) 1.2624(6) 0.4886(7)
H6 H 0.3552 1.3248 0.4880
C18 C 0.3657(2) 1.1920(6) 0.5641(8)
C19 C 0.3483(2) 1.1919(6) 0.6507(7)
C20 C 0.3122(3) 1.2188(6) 0.6577(8)
C21 C 0.2904(3) 1.2643(7) 0.5872(9)
H7 H 0.2979 1.2849 0.5292
C22 C 0.2580(3) 1.2709(6) 0.6217(8)
H8 H 0.2383 1.3006 0.5937
C23 C 0.2583(2) 1.2252(6) 0.7079(8)
C24 C 0.2291(3) 1.2033(7) 0.7610(8)
C25 C 0.2286(2) 1.1396(6) 0.8350(8)
C26 C 0.1989(2) 1.1122(7) 0.8861(8)
H9 H 0.1763 1.1404 0.8787
C27 C 0.2066(2) 1.0384(7) 0.9492(8)
C28 C 0.2423(2) 1.0114(6) 0.9455(8)
C29 C 0.2502(3) 0.9348(6) 1.0031(8)
C30 C 0.2207(2) 0.9019(6) 1.0515(7)
C31 C 0.2279(2) 0.8222(7) 1.1056(7)
H10 H 0.2111 0.7919 1.1437
C32 C 0.2635(2) 0.7906(7) 1.0979(8)
C33 C 0.2786(3) 0.7078(7) 1.1381(7)
C34 C 0.3137(3) 0.6777(7) 1.1192(7)
C35 C 0.3275(3) 0.5814(7) 1.1428(9)
H11 H 0.3166 0.5330 1.1790
C36 C 0.3592(3) 0.5757(8) 1.1021(9)
H12 H 0.3745 0.5208 1.1020
C37 C 0.3656(3) 0.6701(7) 1.0583(8)
C38 C 0.3955(3) 0.6983(7) 1.0073(8)
C39 C 0.3998(2) 0.7953(7) 0.9736(8)
C40 C 0.4303(3) 0.8318(7) 0.9293(8)
H13 H 0.4521 0.7980 0.9267
C41 C 0.4247(2) 0.9202(7) 0.8916(8)
C42 C 0.3904(2) 0.9564(7) 0.9042(7)
C43 C 0.3831(2) 1.0351(7) 0.8464(7)
C44 C 0.4115(2) 1.0593(6) 0.7900(7)
C45 C 0.4030(2) 1.1209(6) 0.7227(8)
H14 H 0.4195 1.1458 0.6807
C46 C 0.3664(2) 1.1448(6) 0.7213(8)
C47 C 0.2563(3) 0.6494(7) 1.2018(8)
C48 C 0.2373(3) 0.5669(7) 1.1676(8)
C49 C 0.2168(3) 0.5146(9) 1.2300(9)
H15 H 0.2047 0.4581 1.2099
C50 C 0.2137(3) 0.5409(10) 1.3167(10)
C51 C 0.2314(3) 0.6213(9) 1.3466(9)
H16 H 0.2287 0.6404 1.4077
C52 C 0.2537(3) 0.6776(9) 1.2897(9)
C53 C 0.2379(3) 0.5388(8) 1.0731(9)
H17 H 0.2226 0.4820 1.0639
H18 H 0.2620 0.5221 1.0555
H19 H 0.2295 0.5934 1.0362
C54 C 0.2724(4) 0.7655(10) 1.3243(10)
H20 H 0.2964 0.7665 1.3007
H21 H 0.2731 0.7634 1.3902
H22 H 0.2600 0.8246 1.3049
C55 C 0.1910(5) 0.4844(14) 1.3821(12)
H23 H 0.1707 0.4573 1.3502
H24 H 0.1829 0.5283 1.4298
H25 H 0.2047 0.4311 1.4085
C56 C 0.1940(2) 1.2408(6) 0.7297(8)
C57 C 0.1755(3) 1.1876(7) 0.6648(9)
C58 C 0.1417(3) 1.2210(8) 0.6387(10)
H26 H 0.1284 1.1843 0.5965
C59 C 0.1277(3) 1.3071(8) 0.6744(9)
C60 C 0.1469(3) 1.3585(7) 0.7368(8)
H27 H 0.1372 1.4162 0.7621
C61 C 0.1807(2) 1.3281(6) 0.7646(8)
C62 C 0.2003(3) 1.3877(7) 0.8298(8)
H28 H 0.2083 1.3462 0.8794
H29 H 0.1850 1.4394 0.8533
H30 H 0.2207 1.4174 0.8001
C63 C 0.1902(3) 1.0947(8) 0.6228(10)
H31 H 0.2100 1.1112 0.5837
H32 H 0.1718 1.0626 0.5873
H33 H 0.1981 1.0504 0.6704
C64 C 0.0915(3) 1.3385(10) 0.6445(13)
H34 H 0.0740 1.2931 0.6687
H35 H 0.0904 1.3382 0.5787
H36 H 0.0867 1.4046 0.6668
C65 C 0.4266(2) 1.0687(7) 0.3137(8)
C66 C 0.4075(3) 1.0227(7) 0.2447(8)
C67 C 0.4190(3) 1.0318(7) 0.1575(8)
H37 H 0.4062 1.0003 0.1109
C68 C 0.4488(3) 1.0859(8) 0.1350(9)
C69 C 0.4670(3) 1.1302(8) 0.2073(8)
H38 H 0.4876 1.1668 0.1942
C70 C 0.4566(3) 1.1230(7) 0.2940(8)
C71 C 0.4770(3) 1.1709(9) 0.3679(9)
H39 H 0.4976 1.2041 0.3424
H40 H 0.4848 1.1212 0.4110
H41 H 0.4621 1.2188 0.3986
C72 C 0.3745(3) 0.9637(8) 0.2644(9)
H42 H 0.3685 0.9240 0.2118
H43 H 0.3551 1.0084 0.2779
H44 H 0.3787 0.9209 0.3162
C73 C 0.4609(4) 1.0947(11) 0.0396(10)
H45 H 0.4831 1.0592 0.0322
H46 H 0.4645 1.1638 0.0247
H47 H 0.4432 1.0668 -0.0007
N1 N 0.4306(2) 0.6345(6) 0.8866(7)
N2 N 0.3848(2) 1.1133(5) 0.5401(6)
N3 N 0.29230(19) 1.1961(5) 0.7288(6)
N4 N 0.3372(2) 0.7302(6) 1.0704(7)
S1 S 0.44138(6) 0.72498(15) 0.7258(3)
S2 S 0.47701(9) 0.7073(2) 0.4588(4)
S3 S 0.41839(6) 0.94031(15) 0.5669(3)
S4 S 0.26625(6) 1.07570(17) 0.8686(4)
S5 S 0.18293(6) 0.97011(17) 1.0275(4)
S6 S 0.28681(6) 0.86444(16) 1.0234(3)
S7 S 0.36539(6) 0.88083(16) 0.9691(3)
S8 S 0.44894(6) 0.98770(17) 0.8116(3)
S9 S 0.34520(6) 1.09512(15) 0.8143(3)
C74 C 0.4834(5) 0.4472(12) 0.7544(9)
C75 C 0.5194(5) 0.4380(13) 0.7708(7)
C76 C 0.5360(5) 0.3515(13) 0.7404(9)
H48 H 0.5605 0.3449 0.7515
C77 C 0.5207(6) 0.2818(13) 0.6991(10)
C78 C 0.4855(5) 0.2893(13) 0.6827(11)
H49 H 0.4738 0.2376 0.6522
C79 C 0.4659(6) 0.3731(15) 0.7103(11)
C80 C 0.5392(5) 0.5147(15) 0.8177(12)
H50 H 0.5638 0.4952 0.8228
H51 H 0.5375 0.5759 0.7836
H52 H 0.5293 0.5243 0.8779
C81 C 0.5388(6) 0.1887(15) 0.6668(14)
H53 H 0.5216 0.1463 0.6372
H54 H 0.5574 0.2058 0.6242
H55 H 0.5490 0.1544 0.7184
C82 C 0.4271(6) 0.3772(15) 0.6895(15)
H56 H 0.4200 0.3174 0.6581
H57 H 0.4138 0.3830 0.7457
H58 H 0.4222 0.4340 0.6513
C92 C 0.3545(4) 0.7121(10) 0.7674(12)
H70 H 0.3314 0.7045 0.7971
H71 H 0.3729 0.7075 0.8142
Cl1 Cl 0.35668(8) 0.8257(3) 0.7168(4)
Cl2 Cl 0.36045(12) 0.6156(4) 0.6880(5)
C93 C 0.3734(8) 0.6559(18) 0.463(2)
H72 H 0.3527 0.6756 0.4992
H73 H 0.3937 0.6958 0.4828
Cl3 Cl 0.3825(2) 0.5287(4) 0.4800(7)
Cl4 Cl 0.3654(3) 0.6739(9) 0.3516(10)
C83? C 0.4980(7) 0.4702(18) 0.782(2)
C84? C 0.5331(7) 0.488(2) 0.804(3)
C85? C 0.5579(7) 0.4144(17) 0.782(2)
H59? H 0.5818 0.4271 0.7969
C86? C 0.5508(6) 0.3327(19) 0.745(2)
C87? C 0.5167(7) 0.3123(19) 0.727(3)
H60? H 0.5108 0.2496 0.7040
C88? C 0.4892(7) 0.3823(18) 0.742(2)
C89? C 0.5441(7) 0.580(2) 0.844(2)
H61? H 0.5694 0.5792 0.8550
H62? H 0.5383 0.6343 0.8036
H63? H 0.5317 0.5896 0.9016
C90? C 0.5784(8) 0.254(2) 0.727(3)
H64? H 0.5672 0.1978 0.6978
H65? H 0.5965 0.2808 0.6866
H66? H 0.5892 0.2337 0.7834
C91? C 0.4548(9) 0.366(3) 0.693(3)
H67? H 0.4539 0.2992 0.6701
H68? H 0.4354 0.3765 0.7355
H69? H 0.4528 0.4125 0.6434
loop_
_geom_bond_atom_site_label_1
_geom_bond_atom_site_label_2
_geom_bond_site_symmetry_1
_geom_bond_site_symmetry_2
C1 C2 1_555 1_555
C2 H1 1_555 1_555
C3 C2 1_555 1_555
H2 C3 1_555 1_555
C4 C3 1_555 1_555
C5 C4 1_555 1_555
C6 C5 1_555 1_555
C7 C6 1_555 1_555
H3 C7 1_555 1_555
C8 C7 1_555 1_555
C9 C8 1_555 1_555
C10 C9 1_555 1_555
C11 C10 1_555 1_555
C12 C11 1_555 1_555
H4 C12 1_555 1_555
C13 C12 1_555 1_555
C14 C13 1_555 1_555
C15 C14 1_555 1_555
C16 C15 1_555 1_555
H5 C16 1_555 1_555
C17 C16 1_555 1_555
H6 C17 1_555 1_555
C18 C17 1_555 1_555
C19 C18 1_555 1_555
C20 C19 1_555 1_555
C21 C20 1_555 1_555
H7 C21 1_555 1_555
C22 C21 1_555 1_555
H8 C22 1_555 1_555
C23 C22 1_555 1_555
C24 C23 1_555 1_555
C25 C24 1_555 1_555
C26 C25 1_555 1_555
H9 C26 1_555 1_555
C27 C26 1_555 1_555
C28 C27 1_555 1_555
C29 C28 1_555 1_555
C30 C29 1_555 1_555
C31 C30 1_555 1_555
H10 C31 1_555 1_555
C32 C31 1_555 1_555
C33 C32 1_555 1_555
C34 C33 1_555 1_555
C35 C34 1_555 1_555
H11 C35 1_555 1_555
C36 C35 1_555 1_555
H12 C36 1_555 1_555
C37 C36 1_555 1_555
C38 C1 1_555 1_555
C39 C38 1_555 1_555
C40 C39 1_555 1_555
H13 C40 1_555 1_555
C41 C40 1_555 1_555
C42 C41 1_555 1_555
C43 C42 1_555 1_555
C44 C43 1_555 1_555
C45 C44 1_555 1_555
H14 C45 1_555 1_555
C46 C19 1_555 1_555
C47 C33 1_555 1_555
C48 C47 1_555 1_555
C49 C48 1_555 1_555
H15 C49 1_555 1_555
C50 C49 1_555 1_555
C51 C50 1_555 1_555
H16 C51 1_555 1_555
C52 C47 1_555 1_555
C53 C48 1_555 1_555
H17 C53 1_555 1_555
H18 C53 1_555 1_555
H19 C53 1_555 1_555
C54 C52 1_555 1_555
H20 C54 1_555 1_555
H21 C54 1_555 1_555
H22 C54 1_555 1_555
C55 C50 1_555 1_555
H23 C55 1_555 1_555
H24 C55 1_555 1_555
H25 C55 1_555 1_555
C56 C24 1_555 1_555
C57 C56 1_555 1_555
C58 C57 1_555 1_555
H26 C58 1_555 1_555
C59 C58 1_555 1_555
C60 C59 1_555 1_555
H27 C60 1_555 1_555
C61 C56 1_555 1_555
C62 C61 1_555 1_555
H28 C62 1_555 1_555
H29 C62 1_555 1_555
H30 C62 1_555 1_555
C63 C57 1_555 1_555
H31 C63 1_555 1_555
H32 C63 1_555 1_555
H33 C63 1_555 1_555
C64 C59 1_555 1_555
H34 C64 1_555 1_555
H35 C64 1_555 1_555
H36 C64 1_555 1_555
C65 C14 1_555 1_555
C66 C65 1_555 1_555
C67 C66 1_555 1_555
H37 C67 1_555 1_555
C68 C67 1_555 1_555
C69 C68 1_555 1_555
H38 C69 1_555 1_555
C70 C65 1_555 1_555
C71 C70 1_555 1_555
H39 C71 1_555 1_555
H40 C71 1_555 1_555
H41 C71 1_555 1_555
C72 C66 1_555 1_555
H42 C72 1_555 1_555
H43 C72 1_555 1_555
H44 C72 1_555 1_555
C73 C68 1_555 1_555
H45 C73 1_555 1_555
H46 C73 1_555 1_555
H47 C73 1_555 1_555
N1 C1 1_555 1_555
N2 C15 1_555 1_555
N3 C20 1_555 1_555
N4 C34 1_555 1_555
S1 C6 1_555 1_555
S2 C8 1_555 1_555
S3 C10 1_555 1_555
S4 C25 1_555 1_555
S5 C27 1_555 1_555
S6 C29 1_555 1_555
S7 C39 1_555 1_555
S8 C41 1_555 1_555
S9 C43 1_555 1_555
C74 C5 1_555 1_555
C75 C74 1_555 1_555
C76 C75 1_555 1_555
H48 C76 1_555 1_555
C77 C76 1_555 1_555
C78 C77 1_555 1_555
H49 C78 1_555 1_555
C79 C74 1_555 1_555
C80 C75 1_555 1_555
H50 C80 1_555 1_555
H51 C80 1_555 1_555
H52 C80 1_555 1_555
C81 C77 1_555 1_555
H53 C81 1_555 1_555
H54 C81 1_555 1_555
H55 C81 1_555 1_555
C82 C79 1_555 1_555
H56 C82 1_555 1_555
H57 C82 1_555 1_555
H58 C82 1_555 1_555
C92 H70 1_555 1_555
H71 C92 1_555 1_555
Cl1 C92 1_555 1_555
Cl2 C92 1_555 1_555
C93 H72 1_555 1_555
H73 C93 1_555 1_555
Cl3 C93 1_555 1_555
Cl4 C93 1_555 1_555
C4 N1 1_555 1_555
C9 S1 1_555 1_555
C11 S2 1_555 1_555
C13 S3 1_555 1_555
C18 N2 1_555 1_555
C23 N3 1_555 1_555
C28 S4 1_555 1_555
C30 S5 1_555 1_555
C32 S6 1_555 1_555
C37 C38 1_555 1_555
C37 N4 1_555 1_555
C42 S7 1_555 1_555
C44 S8 1_555 1_555
C45 C46 1_555 1_555
C46 S9 1_555 1_555
C51 C52 1_555 1_555
C60 C61 1_555 1_555
C69 C70 1_555 1_555
C78 C79 1_555 1_555

#END
