
#######################################################################
#
#                 Cambridge Crystallographic Data Centre
#                                CCDC 
#
#######################################################################
#
# If this CIF has been generated from an entry in the Cambridge 
# Structural Database, then it will include bibliographic, chemical, 
# crystal, experimental, refinement or atomic coordinate data resulting 
# from the CCDC's data processing and validation procedures.
#
#######################################################################

data_GEHLAJ
_chemical_compound_source        
'fungus Xylaria sp. isolated from the Chinese medicinal plant Sophora tonkinensis'
_chemical_name_common            'Xylapeptide B methanol solvate monohydrate'
_chemical_formula_moiety         'C29 H43 N5 O5,C1 H4 O1,H2 O1'
_chemical_name_systematic        
'3-benzyl-2,9-dimethyl-12-isobutyl-6-isopropyldodecahydro-1H-pyrrolo[2,1-l][1,4,7,10,13]pentaazacyclopentadecine-1,4,7,10,13-pentone methanol solvate monohydrate'
_chemical_properties_biological  'antibacterial and antifungal activity'
_symmetry_cell_setting           orthorhombic
_symmetry_space_group_name_H-M   'P 21 21 21'
_symmetry_Int_Tables_number      19
_space_group_name_Hall           'P 2ac 2ab'
loop_
_symmetry_equiv_pos_site_id
_symmetry_equiv_pos_as_xyz
1 x,y,z
2 1/2-x,-y,1/2+z
3 -x,1/2+y,1/2-z
4 1/2+x,1/2-y,-z
_cell_length_a                   9.9670(5)
_cell_length_b                   12.5923(7)
_cell_length_c                   26.2574(14)
_cell_angle_alpha                90
_cell_angle_beta                 90
_cell_angle_gamma                90
_cell_volume                     3295.5
_exptl_crystal_colour            colorless
_exptl_crystal_description       block
_cell_formula_units_Z            4
loop_
_atom_site_label
_atom_site_type_symbol
_atom_site_fract_x
_atom_site_fract_y
_atom_site_fract_z
N1 N -0.92176(18) -0.69239(16) -0.09261(7)
O1 O -1.26335(17) -0.81346(14) -0.27191(6)
N2 N -0.85494(18) -0.68398(15) -0.28114(7)
H1 H -0.8822 -0.7467 -0.2889
N3 N -1.25046(17) -0.71079(13) -0.14479(7)
O2 O -0.97496(16) -0.60233(14) -0.16292(6)
C1 C -0.9433(2) -0.60379(18) -0.28162(8)
N4 N -1.13783(18) -0.67854(15) -0.24041(7)
H2 H -1.1124 -0.6469 -0.2130
N5 N -0.71343(19) -0.57392(15) -0.18601(7)
H3 H -0.6961 -0.5161 -0.2021
O3 O -1.19026(19) -0.61629(15) -0.07584(7)
O4 O -0.90970(17) -0.51131(13) -0.27515(7)
O5 O -0.6959(2) -0.75143(14) -0.18509(7)
C2 C -0.7046(2) -0.66913(18) -0.20939(9)
C3 C -1.2177(2) -0.76389(17) -0.23583(8)
C4 C -0.8923(2) -0.62412(18) -0.12978(8)
C5 C -1.3686(2) -0.87080(18) -0.17763(8)
H4 H -1.4473 -0.8281 -0.1850
H5 H -1.3624 -0.9253 -0.2036
C6 C -1.0444(2) -0.75755(19) -0.09587(8)
C7 C -1.3868(2) -0.92321(17) -0.12675(8)
C8 C -0.7126(2) -0.66861(19) -0.26776(8)
H6 H -0.6814 -0.6000 -0.2809
C9 C -0.7532(2) -0.57230(18) -0.13270(8)
H7 H -0.6895 -0.6148 -0.1129
C10 C -1.2437(2) -0.79991(16) -0.18076(8)
C11 C -0.8334(3) -0.7267(2) -0.05085(9)
H8 H -0.8225 -0.6706 -0.0259
H9 H -0.7458 -0.7468 -0.0637
C12 C -1.2992(3) -1.0029(2) -0.11097(10)
H10 H -1.2269 -1.0218 -0.1315
C13 C -1.3621(3) -0.6372(2) -0.15203(12)
H11 H -1.3998 -0.6472 -0.1853
H12 H -1.3302 -0.5655 -0.1488
H13 H -1.4295 -0.6504 -0.1267
C14 C -1.1672(2) -0.68940(18) -0.10559(8)
C15 C -1.0916(2) -0.6362(2) -0.28914(9)
H14 H -1.0967 -0.6922 -0.3150
C16 C -1.4918(3) -0.8970(2) -0.09521(10)
H15 H -1.5514 -0.8442 -0.1053
C17 C -1.0480(3) -0.8114(3) -0.04387(10)
H16 H -1.0981 -0.7688 -0.0197
H17 H -1.0897 -0.8809 -0.0463
C18 C -0.6291(3) -0.7572(2) -0.29035(11)
H18 H -0.6654 -0.8245 -0.2801
H19 H -0.5383 -0.7512 -0.2785
H20 H -0.6305 -0.7521 -0.3268
C19 C -0.7565(3) -0.4599(2) -0.11133(10)
H21 H -0.8028 -0.4145 -0.1355
H22 H -0.8087 -0.4604 -0.0801
C20 C -1.5112(4) -0.9468(3) -0.04927(12)
H23 H -1.5818 -0.9263 -0.0283
C21 C -1.1761(3) -0.5387(3) -0.30729(12)
H24 H -1.1513 -0.4774 -0.2863
C22 C -0.6202(3) -0.4116(3) -0.10003(11)
H25 H -0.5632 -0.4199 -0.1302
C23 C -1.3191(4) -1.0543(3) -0.06481(12)
H26 H -1.2601 -1.1074 -0.0544
C24 C -1.3252(3) -0.5565(3) -0.30174(15)
H27 H -1.3524 -0.6142 -0.3233
H28 H -1.3723 -0.4932 -0.3115
H29 H -1.3456 -0.5734 -0.2669
C25 C -1.1385(4) -0.5143(4) -0.36227(16)
H30 H -1.0473 -0.4899 -0.3637
H31 H -1.1969 -0.4601 -0.3753
H32 H -1.1476 -0.5774 -0.3825
C26 C -0.9046(3) -0.8214(3) -0.02772(12)
H33 H -0.8662 -0.8872 -0.0402
H34 H -0.8974 -0.8202 0.0091
C27 C -1.4262(4) -1.0268(3) -0.03440(11)
H35 H -1.4409 -1.0623 -0.0039
C28 C -0.5519(4) -0.4649(4) -0.05535(13)
H36 H -0.6106 -0.4636 -0.0264
H37 H -0.4705 -0.4277 -0.0474
H38 H -0.5313 -0.5372 -0.0640
C29 C -0.6380(6) -0.2936(3) -0.0895(2)
H39 H -0.6739 -0.2594 -0.1192
H40 H -0.5526 -0.2627 -0.0812
H41 H -0.6985 -0.2841 -0.0614
H42 H -1.173(2) -0.8392(16) -0.1722(7)
H43 H -1.032(3) -0.804(2) -0.1220(10)
O6 O -1.0583(3) -0.3888(2) -0.19851(12)
H44 H -0.9955 -0.4312 -0.2067
H45 H -1.0725 -0.3928 -0.1667
C30 C -0.1591(8) -0.3393(5) -0.0699(3)
H46 H -0.2436 -0.3358 -0.0874
H47 H -0.1126 -0.2730 -0.0737
H48 H -0.1744 -0.3531 -0.0345
O7 O -0.0871(5) -0.4151(3) -0.08917(17)
H49 H -0.0949 -0.4686 -0.0716
loop_
_geom_bond_atom_site_label_1
_geom_bond_atom_site_label_2
_geom_bond_site_symmetry_1
_geom_bond_site_symmetry_2
N1 C4 1_555 1_555
O1 C3 1_555 1_555
N2 H1 1_555 1_555
N3 C10 1_555 1_555
O2 C4 1_555 1_555
C1 N2 1_555 1_555
N4 H2 1_555 1_555
N5 H3 1_555 1_555
O3 C14 1_555 1_555
O4 C1 1_555 1_555
O5 C2 1_555 1_555
C2 N5 1_555 1_555
C3 N4 1_555 1_555
C4 C9 1_555 1_555
C5 H4 1_555 1_555
H5 C5 1_555 1_555
C6 N1 1_555 1_555
C7 C5 1_555 1_555
C8 N2 1_555 1_555
H6 C8 1_555 1_555
C9 N5 1_555 1_555
H7 C9 1_555 1_555
C10 C3 1_555 1_555
C11 N1 1_555 1_555
H8 C11 1_555 1_555
H9 C11 1_555 1_555
C12 C7 1_555 1_555
H10 C12 1_555 1_555
C13 N3 1_555 1_555
H11 C13 1_555 1_555
H12 C13 1_555 1_555
H13 C13 1_555 1_555
C14 N3 1_555 1_555
C15 C1 1_555 1_555
H14 C15 1_555 1_555
C16 C7 1_555 1_555
H15 C16 1_555 1_555
C17 C6 1_555 1_555
H16 C17 1_555 1_555
H17 C17 1_555 1_555
C18 C8 1_555 1_555
H18 C18 1_555 1_555
H19 C18 1_555 1_555
H20 C18 1_555 1_555
C19 C9 1_555 1_555
H21 C19 1_555 1_555
H22 C19 1_555 1_555
C20 C16 1_555 1_555
H23 C20 1_555 1_555
C21 C15 1_555 1_555
H24 C21 1_555 1_555
C22 C19 1_555 1_555
H25 C22 1_555 1_555
C23 C12 1_555 1_555
H26 C23 1_555 1_555
C24 C21 1_555 1_555
H27 C24 1_555 1_555
H28 C24 1_555 1_555
H29 C24 1_555 1_555
C25 C21 1_555 1_555
H30 C25 1_555 1_555
H31 C25 1_555 1_555
H32 C25 1_555 1_555
C26 C11 1_555 1_555
H33 C26 1_555 1_555
H34 C26 1_555 1_555
C27 C20 1_555 1_555
H35 C27 1_555 1_555
C28 C22 1_555 1_555
H36 C28 1_555 1_555
H37 C28 1_555 1_555
H38 C28 1_555 1_555
C29 C22 1_555 1_555
H39 C29 1_555 1_555
H40 C29 1_555 1_555
H41 C29 1_555 1_555
H42 C10 1_555 1_555
H43 C6 1_555 1_555
O6 H44 1_555 1_555
H45 O6 1_555 1_555
C30 H46 1_555 1_555
H47 C30 1_555 1_555
H48 C30 1_555 1_555
O7 C30 1_555 1_555
H49 O7 1_555 1_555
N4 C15 1_555 1_555
C2 C8 1_555 1_555
C5 C10 1_555 1_555
C6 C14 1_555 1_555
C17 C26 1_555 1_555
C23 C27 1_555 1_555

#END
