
#######################################################################
#
#                 Cambridge Crystallographic Data Centre
#                                CCDC 
#
#######################################################################
#
# If this CIF has been generated from an entry in the Cambridge 
# Structural Database, then it will include bibliographic, chemical, 
# crystal, experimental, refinement or atomic coordinate data resulting 
# from the CCDC's data processing and validation procedures.
#
#######################################################################

data_GEHLOX
_chemical_formula_moiety         'C31 H24 F6 N4 O3,C2 H3 N1'
_chemical_name_systematic        
'1-cyclopropyl-6-fluoro-4-oxo-7-{4-[N-(pentafluorophenyl)-2-phenylethanimidoyl]piperazin-1-yl}-1,4-dihydroquinoline-3-carboxylic acid acetonitrile solvate'
_chemical_properties_biological  'antibacterial activity'
_symmetry_cell_setting           triclinic
_symmetry_space_group_name_H-M   'P -1'
_symmetry_Int_Tables_number      2
_space_group_name_Hall           '-P 1'
loop_
_symmetry_equiv_pos_site_id
_symmetry_equiv_pos_as_xyz
1 x,y,z
2 -x,-y,-z
_cell_length_a                   9.3260(4)
_cell_length_b                   11.5455(5)
_cell_length_c                   16.0417(7)
_cell_angle_alpha                70.1960(10)
_cell_angle_beta                 89.7810(10)
_cell_angle_gamma                69.3060(10)
_cell_volume                     1507.02
_exptl_crystal_description       prism
_cell_formula_units_Z            2
loop_
_atom_site_label
_atom_site_type_symbol
_atom_site_fract_x
_atom_site_fract_y
_atom_site_fract_z
F1 F 0.24673(18) -0.18672(17) 0.14201(13)
F2 F 0.14452(19) 0.07824(18) 0.04740(9)
F3 F 0.14155(15) 0.24737(13) 0.12774(8)
F4 F 0.35429(17) -0.11044(13) 0.39898(8)
F5 F 0.34797(19) -0.27817(13) 0.31918(13)
F6 F 0.27590(14) 0.62019(11) 0.51256(7)
O1 O 0.43857(18) 0.46761(14) 0.84220(9)
O2 O 0.5007(2) 0.32944(16) 1.00697(10)
H1 H 0.4942 0.3868 0.9584
O3 O 0.46564(17) 0.13968(15) 1.05736(9)
N1 N 0.22640(17) 0.16108(15) 0.31173(10)
N2 N 0.22927(16) 0.34808(15) 0.32720(10)
N3 N 0.21848(16) 0.41942(14) 0.48102(9)
N4 N 0.29973(16) 0.18894(14) 0.80347(9)
C1 C 0.2510(3) -0.1026(3) 0.18213(19)
C2 C 0.1992(2) 0.0306(3) 0.13424(14)
C3 C 0.1994(2) 0.1165(2) 0.17590(13)
C4 C 0.25040(19) 0.07476(18) 0.26585(12)
C5 C 0.3034(2) -0.0617(2) 0.31154(14)
C6 C 0.3022(3) -0.1482(2) 0.27095(18)
C7 C 0.28525(18) 0.25191(17) 0.29274(10)
C8 C 0.41556(19) 0.25378(18) 0.23724(11)
H2 H 0.3965 0.3451 0.2001
H3 H 0.4148 0.2062 0.1978
C9 C 0.57498(19) 0.19347(17) 0.29037(11)
C10 C 0.6078(2) 0.1089(2) 0.37828(13)
H4 H 0.5299 0.0865 0.4078
C11 C 0.7570(3) 0.0565(2) 0.42330(15)
H5 H 0.7785 -0.0009 0.4826
C12 C 0.8725(3) 0.0895(3) 0.38024(18)
H6 H 0.9719 0.0552 0.4104
C13 C 0.8404(2) 0.1728(2) 0.29308(17)
H7 H 0.9184 0.1953 0.2639
C14 C 0.6939(2) 0.22380(19) 0.24805(13)
H8 H 0.6742 0.2794 0.1883
C15 C 0.2983(2) 0.44164(19) 0.33096(12)
H9 H 0.2238 0.5317 0.3030
H10 H 0.3871 0.4318 0.2984
C16 C 0.3485(2) 0.41627(19) 0.42747(11)
H11 H 0.4320 0.3303 0.4530
H12 H 0.3868 0.4833 0.4296
C17 C 0.0976(2) 0.3582(2) 0.37704(12)
H13 H 0.0522 0.2964 0.3726
H14 H 0.0197 0.4472 0.3519
C18 C 0.1490(2) 0.32705(19) 0.47379(12)
H15 H 0.0608 0.3343 0.5068
H16 H 0.2238 0.2367 0.4996
C19 C 0.25563(19) 0.40944(17) 0.56876(11)
C20 C 0.2576(2) 0.30454(18) 0.64313(11)
H17 H 0.2327 0.2370 0.6359
C21 C 0.29623(19) 0.29753(17) 0.72956(11)
C22 C 0.33763(19) 0.39611(17) 0.74193(11)
C23 C 0.3287(2) 0.50594(18) 0.66648(12)
H18 H 0.3507 0.5751 0.6732
C24 C 0.2882(2) 0.51145(17) 0.58397(12)
C25 C 0.3940(2) 0.38226(18) 0.83052(12)
C26 C 0.4003(2) 0.26530(18) 0.90165(11)
C27 C 0.3528(2) 0.17543(18) 0.88499(12)
H19 H 0.3575 0.1005 0.9330
C28 C 0.2501(2) 0.08880(18) 0.79144(12)
H20 H 0.3246 0.0250 0.7696
C29 C 0.1508(3) 0.0372(2) 0.85320(14)
H21 H 0.1211 0.0725 0.9003
H22 H 0.1667 -0.0558 0.8694
C30 C 0.0849(2) 0.1270(2) 0.75978(14)
H23 H 0.0609 0.0887 0.7190
H24 H 0.0153 0.2171 0.7499
C31 C 0.4578(2) 0.2376(2) 0.99512(13)
N5 N 0.0050(4) 0.5995(4) 0.1448(3)
C32 C 0.0789(4) 0.5947(3) 0.0913(2)
C33 C 0.1727(4) 0.5870(4) 0.0223(3)
H25 H 0.1369 0.5492 -0.0143
H26 H 0.2779 0.5321 0.0480
H27 H 0.1667 0.6744 -0.0138
loop_
_geom_bond_atom_site_label_1
_geom_bond_atom_site_label_2
_geom_bond_site_symmetry_1
_geom_bond_site_symmetry_2
F1 C1 1_555 1_555
F2 C2 1_555 1_555
F3 C3 1_555 1_555
F4 C5 1_555 1_555
F5 C6 1_555 1_555
F6 C24 1_555 1_555
O1 C25 1_555 1_555
O2 H1 1_555 1_555
O3 C31 1_555 1_555
N1 C4 1_555 1_555
N2 C7 1_555 1_555
N3 C16 1_555 1_555
N4 C21 1_555 1_555
C1 C2 1_555 1_555
C2 C3 1_555 1_555
C3 C4 1_555 1_555
C4 C5 1_555 1_555
C5 C6 1_555 1_555
C6 C1 1_555 1_555
C7 N1 1_555 1_555
C8 C7 1_555 1_555
H2 C8 1_555 1_555
H3 C8 1_555 1_555
C9 C8 1_555 1_555
C10 C9 1_555 1_555
H4 C10 1_555 1_555
C11 C10 1_555 1_555
H5 C11 1_555 1_555
C12 C11 1_555 1_555
H6 C12 1_555 1_555
C13 C12 1_555 1_555
H7 C13 1_555 1_555
C14 C9 1_555 1_555
H8 C14 1_555 1_555
C15 N2 1_555 1_555
H9 C15 1_555 1_555
H10 C15 1_555 1_555
C16 C15 1_555 1_555
H11 C16 1_555 1_555
H12 C16 1_555 1_555
C17 N2 1_555 1_555
H13 C17 1_555 1_555
H14 C17 1_555 1_555
C18 N3 1_555 1_555
H15 C18 1_555 1_555
H16 C18 1_555 1_555
C19 N3 1_555 1_555
C20 C19 1_555 1_555
H17 C20 1_555 1_555
C21 C20 1_555 1_555
C22 C21 1_555 1_555
C23 C22 1_555 1_555
H18 C23 1_555 1_555
C24 C19 1_555 1_555
C25 C22 1_555 1_555
C26 C25 1_555 1_555
C27 N4 1_555 1_555
H19 C27 1_555 1_555
C28 N4 1_555 1_555
H20 C28 1_555 1_555
C29 C28 1_555 1_555
H21 C29 1_555 1_555
H22 C29 1_555 1_555
C30 C28 1_555 1_555
H23 C30 1_555 1_555
H24 C30 1_555 1_555
C31 O2 1_555 1_555
N5 C32 1_555 1_555
C32 C33 1_555 1_555
C33 H25 1_555 1_555
H26 C33 1_555 1_555
H27 C33 1_555 1_555
C13 C14 1_555 1_555
C17 C18 1_555 1_555
C23 C24 1_555 1_555
C26 C27 1_555 1_555
C26 C31 1_555 1_555
C29 C30 1_555 1_555

#END
