
#######################################################################
#
#                 Cambridge Crystallographic Data Centre
#                                CCDC 
#
#######################################################################
#
# If this CIF has been generated from an entry in the Cambridge 
# Structural Database, then it will include bibliographic, chemical, 
# crystal, experimental, refinement or atomic coordinate data resulting 
# from the CCDC's data processing and validation procedures.
#
#######################################################################

data_GEHNIT
_chemical_formula_moiety         'C8 H20 Ca2 N28 O8,6(H2 O1)'
_chemical_name_systematic        
'bis(\m-aqua)-bis(\m-5-((6-((tetrazolid-5-yl)amino)-1,2,4,5-tetrazin-3-yl)amino)tetrazolyl)-hexa-aqua-di-calcium(ii) hexahydrate'
_symmetry_cell_setting           triclinic
_symmetry_space_group_name_H-M   'P -1'
_symmetry_Int_Tables_number      2
_space_group_name_Hall           '-P 1'
loop_
_symmetry_equiv_pos_site_id
_symmetry_equiv_pos_as_xyz
1 x,y,z
2 -x,-y,-z
_cell_length_a                   8.573(2)
_cell_length_b                   10.009(2)
_cell_length_c                   10.820(4)
_cell_angle_alpha                111.024(5)
_cell_angle_beta                 94.856(6)
_cell_angle_gamma                111.484(4)
_cell_volume                     781.07
_cell_formula_units_Z            1
loop_
_atom_site_label
_atom_site_type_symbol
_atom_site_fract_x
_atom_site_fract_y
_atom_site_fract_z
Ca1 Ca 0.34966(13) 0.52111(12) 0.12040(10)
N1 N 0.6812(5) 0.7146(5) 0.2131(4)
N2 N 0.7900(5) 0.6992(5) 0.1300(4)
N3 N 0.9501(6) 0.7969(6) 0.1987(4)
N4 N 0.9529(5) 0.8813(5) 0.3299(4)
N5 N 0.7403(5) 0.8855(5) 0.4541(4)
H1 H 0.8227 0.9568 0.5247
N6 N 0.4399(5) 0.7366(5) 0.3687(4)
N7 N 0.2825(6) 0.7003(6) 0.3934(4)
N8 N 0.4147(6) 0.8817(5) 0.6265(4)
N9 N 0.5673(6) 0.9169(5) 0.6025(4)
N10 N 0.1193(5) 0.7396(5) 0.5537(4)
H2 H 0.1213 0.7928 0.6368
N11 N -0.0748(6) 0.5426(5) 0.3326(4)
N12 N -0.2478(6) 0.4558(6) 0.2954(4)
N13 N -0.3110(6) 0.4914(6) 0.4029(4)
N14 N -0.1828(6) 0.6016(6) 0.5138(4)
O1 O 0.4667(4) 0.6220(4) -0.0487(3)
H3 H 0.4958 0.7236 -0.0331
H4 H 0.4799 0.5563 -0.1252
O2 O 0.2239(5) 0.7038(5) 0.1066(4)
H5 H 0.1995 0.7619 0.1808
H6 H 0.2027 0.7120 0.0274
O3 O 0.0490(5) 0.3970(5) 0.1252(4)
H7 H 0.0134 0.4385 0.1997
H8 H -0.0266 0.3094 0.0525
O4 O 0.3446(5) 0.3843(5) 0.2696(4)
H9 H 0.3263 0.4229 0.3532
H10 H 0.3608 0.2953 0.2403
C1 C 0.7864(6) 0.8275(6) 0.3340(5)
C2 C 0.5760(6) 0.8406(6) 0.4717(5)
C3 C 0.2726(7) 0.7712(6) 0.5203(5)
C4 C -0.0429(7) 0.6282(6) 0.4657(5)
Ca1A Ca 0.65034(13) 0.47889(12) -0.12040(10)
N1A N 0.3188(5) 0.2854(5) -0.2131(4)
N2A N 0.2100(5) 0.3008(5) -0.1300(4)
N3A N 0.0499(6) 0.2031(6) -0.1987(4)
N4A N 0.0471(5) 0.1187(5) -0.3299(4)
N5A N 0.2597(5) 0.1145(5) -0.4541(4)
H1A H 0.1773 0.0432 -0.5247
N6A N 0.5601(5) 0.2634(5) -0.3687(4)
N7A N 0.7175(6) 0.2997(6) -0.3934(4)
N8A N 0.5853(6) 0.1183(5) -0.6265(4)
N9A N 0.4327(6) 0.0831(5) -0.6025(4)
N10A N 0.8807(5) 0.2604(5) -0.5537(4)
H2A H 0.8787 0.2072 -0.6368
N11A N 1.0748(6) 0.4574(5) -0.3326(4)
N12A N 1.2478(6) 0.5442(6) -0.2954(4)
N13A N 1.3110(6) 0.5086(6) -0.4029(4)
N14A N 1.1828(6) 0.3984(6) -0.5138(4)
O1A O 0.5333(4) 0.3780(4) 0.0487(3)
H3A H 0.5042 0.2764 0.0331
H4A H 0.5201 0.4437 0.1252
O2A O 0.7761(5) 0.2962(5) -0.1066(4)
H5A H 0.8005 0.2381 -0.1808
H6A H 0.7973 0.2880 -0.0274
O3A O 0.9510(5) 0.6030(5) -0.1252(4)
H7A H 0.9866 0.5615 -0.1997
H8A H 1.0266 0.6906 -0.0525
O4A O 0.6554(5) 0.6157(5) -0.2696(4)
H9A H 0.6737 0.5771 -0.3532
H10A H 0.6392 0.7047 -0.2403
C1A C 0.2136(6) 0.1725(6) -0.3340(5)
C2A C 0.4240(6) 0.1594(6) -0.4717(5)
C3A C 0.7274(7) 0.2288(6) -0.5203(5)
C4A C 1.0429(7) 0.3718(6) -0.4657(5)
O5 O 0.5467(11) -0.0642(6) 0.0819(6)
H11 H 0.54(3) -0.061(18) 0.007(7)
H12 H 0.550(11) -0.021(9) 0.164(3)
O6 O 0.7865(14) 0.9477(11) 0.8734(9)
H13 H 0.8618 0.9036 0.8679
H14 H 0.7726 1.0005 0.9555
O7 O 0.0749(7) 0.8815(7) 0.8287(5)
H15 H 0.051(18) 0.815(11) 0.859(12)
H16 H 0.160(10) 0.966(7) 0.874(10)
loop_
_geom_bond_atom_site_label_1
_geom_bond_atom_site_label_2
_geom_bond_site_symmetry_1
_geom_bond_site_symmetry_2
Ca1 N1 1_555 1_555
N1 N2 1_555 1_555
N2 N3 1_555 1_555
N3 N4 1_555 1_555
N4 C1 1_555 1_555
N5 H1 1_555 1_555
N6 Ca1 1_555 1_555
N7 N6 1_555 1_555
N8 N9 1_555 1_555
N9 C2 1_555 1_555
N10 H2 1_555 1_555
N11 N12 1_555 1_555
N12 N13 1_555 1_555
N13 N14 1_555 1_555
N14 C4 1_555 1_555
O1 Ca1 1_555 1_555
H3 O1 1_555 1_555
H4 O1 1_555 1_555
O2 Ca1 1_555 1_555
H5 O2 1_555 1_555
H6 O2 1_555 1_555
O3 Ca1 1_555 1_555
H7 O3 1_555 1_555
H8 O3 1_555 1_555
O4 Ca1 1_555 1_555
H9 O4 1_555 1_555
H10 O4 1_555 1_555
C1 N1 1_555 1_555
C2 N5 1_555 1_555
C3 N7 1_555 1_555
C4 N10 1_555 1_555
O5 H11 1_555 1_555
H12 O5 1_555 1_555
O6 H13 1_555 1_555
H14 O6 1_555 1_555
O7 H15 1_555 1_555
H16 O7 1_555 1_555
Ca1A N2 1_555 1_555
N1A Ca1A 1_555 1_555
N2A Ca1 1_555 1_555
N3A N2A 1_555 1_555
N4A N3A 1_555 1_555
N5A H1A 1_555 1_555
N6A Ca1A 1_555 1_555
N7A N6A 1_555 1_555
N8A N9A 1_555 1_555
N9A C2A 1_555 1_555
N10A H2A 1_555 1_555
N11A N12A 1_555 1_555
N12A N13A 1_555 1_555
N13A N14A 1_555 1_555
N14A C4A 1_555 1_555
O1A Ca1 1_555 1_555
H3A O1A 1_555 1_555
H4A O1A 1_555 1_555
O2A Ca1A 1_555 1_555
H5A O2A 1_555 1_555
H6A O2A 1_555 1_555
O3A Ca1A 1_555 1_555
H7A O3A 1_555 1_555
H8A O3A 1_555 1_555
O4A Ca1A 1_555 1_555
H9A O4A 1_555 1_555
H10A O4A 1_555 1_555
C1A N1A 1_555 1_555
C2A N5A 1_555 1_555
C3A N7A 1_555 1_555
C4A N10A 1_555 1_555
N5 C1 1_555 1_555
N6 C2 1_555 1_555
N8 C3 1_555 1_555
N10 C3 1_555 1_555
N11 C4 1_555 1_555
O1 Ca1A 1_555 1_555
Ca1A O1A 1_555 1_555
N1A N2A 1_555 1_555
N4A C1A 1_555 1_555
N5A C1A 1_555 1_555
N6A C2A 1_555 1_555
N8A C3A 1_555 1_555
N10A C3A 1_555 1_555
N11A C4A 1_555 1_555

#END
