
#######################################################################
#
#                 Cambridge Crystallographic Data Centre
#                                CCDC 
#
#######################################################################
#
# If this CIF has been generated from an entry in the Cambridge 
# Structural Database, then it will include bibliographic, chemical, 
# crystal, experimental, refinement or atomic coordinate data resulting 
# from the CCDC's data processing and validation procedures.
#
#######################################################################

data_GEHVIB
_chemical_formula_moiety         'C15 H16 F1 N1 O3'
_chemical_name_systematic        
(3R,5aS,6S,6aR,6bS)-5a-fluoro-3-(4-methoxyphenyl)-6-methyltetrahydro-3H-cyclopropa[3,4]pyrrolo[1,2-c][1,3]oxazol-5(1H)-one
_symmetry_cell_setting           orthorhombic
_symmetry_space_group_name_H-M   'P 21 21 21'
_symmetry_Int_Tables_number      19
_space_group_name_Hall           'P 2ac 2ab'
loop_
_symmetry_equiv_pos_site_id
_symmetry_equiv_pos_as_xyz
1 x,y,z
2 1/2-x,-y,1/2+z
3 -x,1/2+y,1/2-z
4 1/2+x,1/2-y,-z
_cell_length_a                   7.87280(10)
_cell_length_b                   12.84720(10)
_cell_length_c                   13.74210(10)
_cell_angle_alpha                90
_cell_angle_beta                 90
_cell_angle_gamma                90
_cell_volume                     1389.92
_exptl_crystal_description       needle
_cell_formula_units_Z            4
loop_
_atom_site_label
_atom_site_type_symbol
_atom_site_fract_x
_atom_site_fract_y
_atom_site_fract_z
C1 C 0.5877(3) 0.80124(19) 0.80398(18)
H1 H 0.6419 0.7678 0.8582
H2 H 0.6498 0.8629 0.7869
H3 H 0.5856 0.7546 0.7494
C2 C 0.2325(2) 0.57566(12) 0.89294(14)
H4 H 0.2613 0.5055 0.8949
C3 C 0.3517(2) 0.64678(13) 0.86080(15)
H5 H 0.4581 0.6244 0.8403
C4 C 0.3112(2) 0.75109(13) 0.85947(11)
C5 C 0.1522(2) 0.78303(12) 0.89022(12)
H6 H 0.1252 0.8535 0.8903
C6 C 0.0335(2) 0.71143(12) 0.92079(11)
H7 H -0.0733 0.7339 0.9407
C7 C 0.0721(2) 0.60576(11) 0.92216(11)
C8 C -0.0604(2) 0.53042(12) 0.95822(13)
H8 H -0.0794 0.5414 1.0279
C9 C -0.2728(2) 0.45430(13) 0.86326(14)
H9 H -0.3210 0.4672 0.7994
H10 H -0.3583 0.4214 0.9037
C10 C -0.1165(2) 0.38607(12) 0.85544(11)
H11 H -0.0545 0.4005 0.7951
C11 C -0.1359(2) 0.27010(12) 0.87075(12)
H12 H -0.2395 0.2346 0.8493
C12 C -0.0636(2) 0.24794(11) 0.96950(11)
C13 C -0.0191(2) 0.34974(12) 1.01426(11)
C14 C 0.0274(2) 0.20994(12) 0.88089(12)
H13 H 0.1315 0.2474 0.8635
C15 C 0.0262(3) 0.09489(15) 0.85949(17)
H14 H 0.1136 0.0612 0.8967
H15 H 0.0467 0.0839 0.7914
H16 H -0.0823 0.0662 0.8767
F1 F -0.13083(13) 0.17696(8) 1.03284(8)
N1 N -0.01927(17) 0.42179(9) 0.94071(9)
O1 O 0.41817(19) 0.82874(10) 0.82987(9)
O2 O -0.21641(17) 0.54807(10) 0.90586(14)
O3 O 0.00609(18) 0.36698(10) 1.09988(8)
loop_
_geom_bond_atom_site_label_1
_geom_bond_atom_site_label_2
_geom_bond_site_symmetry_1
_geom_bond_site_symmetry_2
C1 H1 1_555 1_555
H2 C1 1_555 1_555
H3 C1 1_555 1_555
C2 H4 1_555 1_555
C3 C2 1_555 1_555
H5 C3 1_555 1_555
C4 C3 1_555 1_555
C5 C4 1_555 1_555
H6 C5 1_555 1_555
C6 C5 1_555 1_555
H7 C6 1_555 1_555
C7 C2 1_555 1_555
C8 C7 1_555 1_555
H8 C8 1_555 1_555
C9 H9 1_555 1_555
H10 C9 1_555 1_555
C10 C9 1_555 1_555
H11 C10 1_555 1_555
C11 C10 1_555 1_555
H12 C11 1_555 1_555
C12 C11 1_555 1_555
C13 C12 1_555 1_555
C14 C11 1_555 1_555
H13 C14 1_555 1_555
C15 C14 1_555 1_555
H14 C15 1_555 1_555
H15 C15 1_555 1_555
H16 C15 1_555 1_555
F1 C12 1_555 1_555
N1 C8 1_555 1_555
O1 C1 1_555 1_555
O2 C8 1_555 1_555
O3 C13 1_555 1_555
C4 O1 1_555 1_555
C6 C7 1_555 1_555
C9 O2 1_555 1_555
C10 N1 1_555 1_555
C12 C14 1_555 1_555
C13 N1 1_555 1_555

#END
