
#######################################################################
#
#                 Cambridge Crystallographic Data Centre
#                                CCDC 
#
#######################################################################
#
# If this CIF has been generated from an entry in the Cambridge 
# Structural Database, then it will include bibliographic, chemical, 
# crystal, experimental, refinement or atomic coordinate data resulting 
# from the CCDC's data processing and validation procedures.
#
#######################################################################

data_GEHVUL
_chemical_formula_moiety         'H5 N2 1+,C7 H4 N1 O3 S1 1-'
_chemical_name_systematic        'Hydrazinium saccharinate'
_symmetry_cell_setting           triclinic
_symmetry_space_group_name_H-M   'P -1'
_symmetry_Int_Tables_number      2
_space_group_name_Hall           '-P 1'
loop_
_symmetry_equiv_pos_site_id
_symmetry_equiv_pos_as_xyz
1 x,y,z
2 -x,-y,-z
_cell_length_a                   7.8647(18)
_cell_length_b                   11.776(3)
_cell_length_c                   15.904(4)
_cell_angle_alpha                70.095(3)
_cell_angle_beta                 87.137(4)
_cell_angle_gamma                78.855(4)
_cell_volume                     1358.63
_exptl_crystal_colour            colorless
_exptl_crystal_description       Plate
_cell_formula_units_Z            6
_exptl_crystal_recrystallization_method methanol
loop_
_atom_site_label
_atom_site_type_symbol
_atom_site_fract_x
_atom_site_fract_y
_atom_site_fract_z
S1 S 0.43721(11) 0.51577(7) 0.37136(6)
O1 O 0.5183(3) 0.1926(2) 0.38993(15)
O2 O 0.2960(3) 0.5642(2) 0.41817(15)
O3 O 0.5790(3) 0.5812(2) 0.35422(16)
N1 N 0.5010(4) 0.3699(2) 0.42089(19)
C1 C 0.4787(4) 0.3064(3) 0.3674(2)
C2 C 0.3953(4) 0.3856(3) 0.2788(2)
C3 C 0.3476(4) 0.3507(3) 0.2105(2)
H1 H 0.3728 0.2669 0.2141
C4 C 0.2616(5) 0.4410(3) 0.1360(2)
H2 H 0.2271 0.4183 0.0885
C5 C 0.2251(5) 0.5641(3) 0.1300(2)
H3 H 0.1652 0.6242 0.0788
C6 C 0.2757(4) 0.5994(3) 0.1984(2)
H4 H 0.2523 0.6830 0.1951
C7 C 0.3616(4) 0.5079(3) 0.2714(2)
S2 S 1.01651(11) 0.15255(7) 0.33852(6)
O4 O 0.9872(3) 0.4238(2) 0.40252(16)
O5 O 1.1805(3) 0.1060(2) 0.30606(16)
O6 O 0.9140(3) 0.0580(2) 0.37705(17)
N2 N 1.0392(4) 0.2241(2) 0.40554(19)
C8 C 0.9780(4) 0.3469(3) 0.3665(2)
C9 C 0.8977(4) 0.3809(3) 0.2766(2)
C10 C 0.8223(4) 0.4959(3) 0.2191(2)
H5 H 0.8170 0.5674 0.2349
C11 C 0.7549(5) 0.5037(3) 0.1380(2)
H6 H 0.7043 0.5819 0.0974
C12 C 0.7600(5) 0.3997(3) 0.1152(2)
H7 H 0.7099 0.4075 0.0599
C13 C 0.8364(5) 0.2847(3) 0.1712(2)
H8 H 0.8428 0.2134 0.1551
C14 C 0.9030(4) 0.2782(3) 0.2518(2)
S3 S 0.82108(11) 0.91636(8) 0.15239(6)
O7 O 0.3872(3) 0.8515(2) 0.21589(16)
O8 O 0.9742(3) 0.8300(2) 0.19372(16)
O9 O 0.8415(3) 1.0427(2) 0.11867(16)
N3 N 0.6570(4) 0.8982(2) 0.21801(18)
C15 C 0.5282(5) 0.8675(3) 0.1812(2)
C16 C 0.5749(4) 0.8540(3) 0.0920(2)
C17 C 0.4753(5) 0.8281(3) 0.0343(2)
H9 H 0.3610 0.8142 0.0495
C18 C 0.5460(5) 0.8229(3) -0.0464(2)
H10 H 0.4795 0.8040 -0.0864
C19 C 0.7121(5) 0.8449(3) -0.0697(2)
H11 H 0.7574 0.8413 -0.1254
C20 C 0.8126(4) 0.8722(3) -0.0126(2)
H12 H 0.9265 0.8872 -0.0278
C21 C 0.7397(4) 0.8765(3) 0.0674(2)
N4 N 0.2596(4) 0.8238(3) 0.4320(2)
H13 H 0.306(4) 0.7463(19) 0.455(2)
H14 H 0.183(4) 0.836(4) 0.472(2)
N5 N 0.1543(4) 0.8380(3) 0.3556(2)
H15 H 0.086(4) 0.911(2) 0.343(2)
H16 H 0.085(4) 0.783(3) 0.365(2)
H17 H 0.223(4) 0.839(3) 0.3088(17)
N6 N 0.8035(4) 0.6511(3) 0.4494(2)
H18 H 0.738(4) 0.721(2) 0.452(2)
H19 H 0.732(4) 0.606(3) 0.442(3)
H20 H 0.872(4) 0.620(3) 0.4985(17)
N7 N 0.9106(4) 0.6846(3) 0.3721(2)
H21 H 0.838(4) 0.723(3) 0.3252(19)
H22 H 0.946(4) 0.619(2) 0.358(2)
N8 N 0.5255(4) 0.9718(3) 0.3678(2)
H23 H 0.514(5) 1.049(2) 0.366(3)
H24 H 0.431(3) 0.939(3) 0.383(2)
H25 H 0.557(5) 0.962(3) 0.3149(16)
N9 N 0.6507(4) 0.8980(3) 0.4386(2)
H26 H 0.723(4) 0.946(3) 0.439(2)
H27 H 0.604(5) 0.891(4) 0.4906(17)
loop_
_geom_bond_atom_site_label_1
_geom_bond_atom_site_label_2
_geom_bond_site_symmetry_1
_geom_bond_site_symmetry_2
S1 O2 1_555 1_555
O1 C1 1_555 1_555
O3 S1 1_555 1_555
N1 S1 1_555 1_555
C1 N1 1_555 1_555
C2 C1 1_555 1_555
C3 C2 1_555 1_555
H1 C3 1_555 1_555
C4 C3 1_555 1_555
H2 C4 1_555 1_555
C5 C4 1_555 1_555
H3 C5 1_555 1_555
C6 C5 1_555 1_555
H4 C6 1_555 1_555
C7 S1 1_555 1_555
S2 O5 1_555 1_555
O4 C8 1_555 1_555
O6 S2 1_555 1_555
N2 S2 1_555 1_555
C8 N2 1_555 1_555
C9 C8 1_555 1_555
C10 C9 1_555 1_555
H5 C10 1_555 1_555
C11 C10 1_555 1_555
H6 C11 1_555 1_555
C12 C11 1_555 1_555
H7 C12 1_555 1_555
C13 C12 1_555 1_555
H8 C13 1_555 1_555
C14 S2 1_555 1_555
S3 O8 1_555 1_555
O7 C15 1_555 1_555
O9 S3 1_555 1_555
N3 S3 1_555 1_555
C15 N3 1_555 1_555
C16 C15 1_555 1_555
C17 C16 1_555 1_555
H9 C17 1_555 1_555
C18 C17 1_555 1_555
H10 C18 1_555 1_555
C19 C18 1_555 1_555
H11 C19 1_555 1_555
C20 C19 1_555 1_555
H12 C20 1_555 1_555
C21 S3 1_555 1_555
N4 H13 1_555 1_555
H14 N4 1_555 1_555
N5 N4 1_555 1_555
H15 N5 1_555 1_555
H16 N5 1_555 1_555
H17 N5 1_555 1_555
N6 H18 1_555 1_555
H19 N6 1_555 1_555
H20 N6 1_555 1_555
N7 N6 1_555 1_555
H21 N7 1_555 1_555
H22 N7 1_555 1_555
N8 H23 1_555 1_555
H24 N8 1_555 1_555
H25 N8 1_555 1_555
N9 N8 1_555 1_555
H26 N9 1_555 1_555
H27 N9 1_555 1_555
C2 C7 1_555 1_555
C6 C7 1_555 1_555
C9 C14 1_555 1_555
C13 C14 1_555 1_555
C16 C21 1_555 1_555
C20 C21 1_555 1_555

#END
