
#######################################################################
#
#                 Cambridge Crystallographic Data Centre
#                                CCDC 
#
#######################################################################
#
# If this CIF has been generated from an entry in the Cambridge 
# Structural Database, then it will include bibliographic, chemical, 
# crystal, experimental, refinement or atomic coordinate data resulting 
# from the CCDC's data processing and validation procedures.
#
#######################################################################

data_GEHWEX
_chemical_formula_moiety         'C52 H60 N4 O4 S2,2(C1 H1 Cl3)'
_chemical_name_systematic        
'5,10-bis((4-t-butylphenyl)sulfanyl)-2,7-dioctyl-1,3,6,8-tetraoxo-1,2,3,6,7,8-hexahydrobenzo[lmn][3,8]phenanthroline-4,9-dicarbonitrile chloroform solvate'
_symmetry_cell_setting           triclinic
_symmetry_space_group_name_H-M   'P -1'
_symmetry_Int_Tables_number      2
_space_group_name_Hall           '-P 1'
loop_
_symmetry_equiv_pos_site_id
_symmetry_equiv_pos_as_xyz
1 x,y,z
2 -x,-y,-z
_cell_length_a                   5.8840(10)
_cell_length_b                   14.260(3)
_cell_length_c                   17.526(3)
_cell_angle_alpha                70.967(2)
_cell_angle_beta                 82.158(2)
_cell_angle_gamma                86.783(2)
_cell_volume                     1377.03
_exptl_crystal_colour            'dark purple'
_exptl_crystal_description       rod
_cell_formula_units_Z            1
loop_
_atom_site_label
_atom_site_type_symbol
_atom_site_fract_x
_atom_site_fract_y
_atom_site_fract_z
S1 S 0.90644(13) 0.74739(5) 0.34802(4)
O1 O 0.6109(3) 0.79885(13) 0.46536(11)
O2 O 1.0552(3) 0.35338(13) 0.40887(11)
N1 N 0.2663(4) 0.72548(15) 0.51925(13)
N2 N 1.2874(4) 0.55223(17) 0.33676(14)
C1 C 0.4927(5) 0.72612(19) 0.48266(15)
C2 C 0.5798(5) 0.63385(18) 0.46575(15)
C3 C 0.4587(5) 0.54495(19) 0.50540(15)
C4 C 0.7746(5) 0.63547(19) 0.41127(15)
C5 C 0.8698(5) 0.54254(19) 0.40691(15)
C6 C 0.7565(5) 0.45449(19) 0.44657(15)
C7 C 0.8625(5) 0.35830(19) 0.44327(15)
C8 C 1.1006(5) 0.54358(19) 0.36564(16)
C9 C 0.1632(5) 0.82159(19) 0.52302(16)
H1 H -0.0021 0.8225 0.5174
H2 H 0.2368 0.8761 0.4768
C10 C 0.1906(5) 0.8396(2) 0.60191(17)
H3 H 0.3555 0.8439 0.6061
H4 H 0.1252 0.7835 0.6486
C11 C 0.0676(6) 0.9361(2) 0.60451(18)
H5 H 0.1472 0.9922 0.5616
H6 H -0.0907 0.9349 0.5916
C12 C 0.0557(6) 0.9547(2) 0.68537(19)
H7 H -0.0481 1.0121 0.6844
H8 H -0.0123 0.8961 0.7290
C13 C 0.2836(6) 0.9749(2) 0.70599(18)
H9 H 0.3537 1.0331 0.6625
H10 H 0.3873 0.9171 0.7087
C14 C 0.2589(6) 0.9949(2) 0.78748(19)
H11 H 0.1515 1.0515 0.7846
H12 H 0.1897 0.9361 0.8306
C15 C 0.4786(7) 1.0173(3) 0.8114(2)
H13 H 0.5478 1.0764 0.7688
H14 H 0.5867 0.9608 0.8144
C16 C 0.4468(7) 1.0363(3) 0.8931(2)
H15 H 0.3503 1.0955 0.8892
H16 H 0.5968 1.0464 0.9073
H17 H 0.3729 0.9790 0.9352
C17 C 0.9339(5) 0.72707(19) 0.25183(16)
C18 C 1.1272(5) 0.7599(2) 0.19694(16)
H18 H 1.2519 0.7859 0.2126
C19 C 1.1388(5) 0.7548(2) 0.11861(16)
H19 H 1.2723 0.7779 0.0812
C20 C 0.9604(5) 0.71684(19) 0.09353(16)
C21 C 0.7689(5) 0.6829(2) 0.15082(17)
H20 H 0.6457 0.6550 0.1360
C22 C 0.7537(5) 0.6889(2) 0.22848(16)
H21 H 0.6197 0.6667 0.2658
C23 C 0.9643(5) 0.7150(2) 0.00647(16)
C24 C 0.8275(6) 0.8058(2) -0.03957(18)
H22 H 0.8988 0.8664 -0.0399
H23 H 0.6695 0.8023 -0.0126
H24 H 0.8268 0.8066 -0.0957
C25 C 1.2080(5) 0.7199(3) -0.03785(19)
H25 H 1.2788 0.7821 -0.0415
H26 H 1.2026 0.7172 -0.0927
H27 H 1.2987 0.6636 -0.0078
C26 C 0.8525(6) 0.6209(2) 0.00575(19)
H28 H 0.8650 0.6196 -0.0502
H29 H 0.6903 0.6204 0.0280
H30 H 0.9306 0.5624 0.0391
S1A S 0.09356(13) 0.25261(5) 0.65198(4)
O1A O 0.3891(3) 0.20115(13) 0.53464(11)
O2A O -0.0552(3) 0.64662(13) 0.59113(11)
N1A N 0.7337(4) 0.27452(15) 0.48075(13)
N2A N -0.2874(4) 0.44777(17) 0.66324(14)
C1A C 0.5073(5) 0.27388(19) 0.51734(15)
C2A C 0.4202(5) 0.36615(18) 0.53425(15)
C3A C 0.5413(5) 0.45505(19) 0.49460(15)
C4A C 0.2254(5) 0.36453(19) 0.58873(15)
C5A C 0.1302(5) 0.45746(19) 0.59309(15)
C6A C 0.2435(5) 0.54551(19) 0.55343(15)
C7A C 0.1375(5) 0.64170(19) 0.55673(15)
C8A C -0.1006(5) 0.45642(19) 0.63436(16)
C9A C 0.8368(5) 0.17841(19) 0.47698(16)
H1A H 1.0021 0.1775 0.4826
H2A H 0.7632 0.1239 0.5232
C10A C 0.8094(5) 0.1604(2) 0.39809(17)
H3A H 0.6445 0.1561 0.3939
H4A H 0.8748 0.2165 0.3514
C11A C 0.9324(6) 0.0639(2) 0.39549(18)
H5A H 0.8528 0.0078 0.4384
H6A H 1.0907 0.0651 0.4084
C12A C 0.9443(6) 0.0453(2) 0.31463(19)
H7A H 1.0481 -0.0121 0.3156
H8A H 1.0123 0.1039 0.2710
C13A C 0.7164(6) 0.0251(2) 0.29401(18)
H9A H 0.6463 -0.0331 0.3375
H10A H 0.6127 0.0829 0.2913
C14A C 0.7411(6) 0.0051(2) 0.21252(19)
H11A H 0.8485 -0.0515 0.2154
H12A H 0.8103 0.0639 0.1694
C15A C 0.5214(7) -0.0173(3) 0.1886(2)
H13A H 0.4522 -0.0764 0.2312
H14A H 0.4133 0.0392 0.1856
C16A C 0.5532(7) -0.0363(3) 0.1069(2)
H15A H 0.6497 -0.0955 0.1108
H16A H 0.4032 -0.0464 0.0927
H17A H 0.6271 0.0210 0.0648
C17A C 0.0661(5) 0.27293(19) 0.74817(16)
C18A C -0.1272(5) 0.2401(2) 0.80306(16)
H18A H -0.2519 0.2141 0.7874
C19A C -0.1388(5) 0.2452(2) 0.88139(16)
H19A H -0.2723 0.2221 0.9188
C20A C 0.0396(5) 0.28316(19) 0.90647(16)
C21A C 0.2311(5) 0.3171(2) 0.84918(17)
H20A H 0.3543 0.3450 0.8640
C22A C 0.2463(5) 0.3111(2) 0.77152(16)
H21A H 0.3803 0.3333 0.7342
C23A C 0.0357(5) 0.2850(2) 0.99353(16)
C24A C 0.1725(6) 0.1942(2) 1.03957(18)
H22A H 0.1012 0.1336 1.0399
H23A H 0.3305 0.1977 1.0126
H24A H 0.1732 0.1934 1.0957
C25A C -0.2080(5) 0.2801(3) 1.03785(19)
H25A H -0.2788 0.2179 1.0415
H26A H -0.2026 0.2828 1.0927
H27A H -0.2987 0.3364 1.0078
C26A C 0.1475(6) 0.3791(2) 0.99425(19)
H28A H 0.1350 0.3804 1.0502
H29A H 0.3097 0.3796 0.9720
H30A H 0.0694 0.4376 0.9609
C27 C 0.4022(5) 0.3923(2) 0.24255(18)
H31 H 0.3307 0.3938 0.2973
Cl1 Cl 0.34896(15) 0.27569(6) 0.23437(5)
Cl2 Cl 0.69873(13) 0.41056(6) 0.23421(5)
Cl3 Cl 0.27776(14) 0.48762(6) 0.16794(5)
loop_
_geom_bond_atom_site_label_1
_geom_bond_atom_site_label_2
_geom_bond_site_symmetry_1
_geom_bond_site_symmetry_2
S1 C4 1_555 1_555
O1 C1 1_555 1_555
O2 C7 1_555 1_555
N1 C1 1_555 1_555
N2 C8 1_555 1_555
C1 C2 1_555 1_555
C2 C3 1_555 1_555
C3 C3A 1_555 1_555
C4 C2 1_555 1_555
C5 C4 1_555 1_555
C6 C5 1_555 1_555
C7 C6 1_555 1_555
C8 C5 1_555 1_555
C9 N1 1_555 1_555
H1 C9 1_555 1_555
H2 C9 1_555 1_555
C10 C9 1_555 1_555
H3 C10 1_555 1_555
H4 C10 1_555 1_555
C11 C10 1_555 1_555
H5 C11 1_555 1_555
H6 C11 1_555 1_555
C12 C11 1_555 1_555
H7 C12 1_555 1_555
H8 C12 1_555 1_555
C13 C12 1_555 1_555
H9 C13 1_555 1_555
H10 C13 1_555 1_555
C14 C13 1_555 1_555
H11 C14 1_555 1_555
H12 C14 1_555 1_555
C15 C14 1_555 1_555
H13 C15 1_555 1_555
H14 C15 1_555 1_555
C16 C15 1_555 1_555
H15 C16 1_555 1_555
H16 C16 1_555 1_555
H17 C16 1_555 1_555
C17 S1 1_555 1_555
C18 C17 1_555 1_555
H18 C18 1_555 1_555
C19 C18 1_555 1_555
H19 C19 1_555 1_555
C20 C19 1_555 1_555
C21 C20 1_555 1_555
H20 C21 1_555 1_555
C22 C17 1_555 1_555
H21 C22 1_555 1_555
C23 C20 1_555 1_555
C24 C23 1_555 1_555
H22 C24 1_555 1_555
H23 C24 1_555 1_555
H24 C24 1_555 1_555
C25 C23 1_555 1_555
H25 C25 1_555 1_555
H26 C25 1_555 1_555
H27 C25 1_555 1_555
C26 C23 1_555 1_555
H28 C26 1_555 1_555
H29 C26 1_555 1_555
H30 C26 1_555 1_555
C27 H31 1_555 1_555
Cl1 C27 1_555 1_555
Cl2 C27 1_555 1_555
Cl3 C27 1_555 1_555
S1A C4A 1_555 1_555
O1A C1A 1_555 1_555
O2A C7A 1_555 1_555
N1A C7 1_555 1_555
N2A C8A 1_555 1_555
C1A N1A 1_555 1_555
C2A C1A 1_555 1_555
C3A C6 1_555 1_555
C4A C2A 1_555 1_555
C5A C4A 1_555 1_555
C6A C3 1_555 1_555
C7A N1 1_555 1_555
C8A C5A 1_555 1_555
C9A N1A 1_555 1_555
H1A C9A 1_555 1_555
H2A C9A 1_555 1_555
C10A C9A 1_555 1_555
H3A C10A 1_555 1_555
H4A C10A 1_555 1_555
C11A C10A 1_555 1_555
H5A C11A 1_555 1_555
H6A C11A 1_555 1_555
C12A C11A 1_555 1_555
H7A C12A 1_555 1_555
H8A C12A 1_555 1_555
C13A C12A 1_555 1_555
H9A C13A 1_555 1_555
H10A C13A 1_555 1_555
C14A C13A 1_555 1_555
H11A C14A 1_555 1_555
H12A C14A 1_555 1_555
C15A C14A 1_555 1_555
H13A C15A 1_555 1_555
H14A C15A 1_555 1_555
C16A C15A 1_555 1_555
H15A C16A 1_555 1_555
H16A C16A 1_555 1_555
H17A C16A 1_555 1_555
C17A S1A 1_555 1_555
C18A C17A 1_555 1_555
H18A C18A 1_555 1_555
C19A C18A 1_555 1_555
H19A C19A 1_555 1_555
C20A C19A 1_555 1_555
C21A C20A 1_555 1_555
H20A C21A 1_555 1_555
C22A C17A 1_555 1_555
H21A C22A 1_555 1_555
C23A C20A 1_555 1_555
C24A C23A 1_555 1_555
H22A C24A 1_555 1_555
H23A C24A 1_555 1_555
H24A C24A 1_555 1_555
C25A C23A 1_555 1_555
H25A C25A 1_555 1_555
H26A C25A 1_555 1_555
H27A C25A 1_555 1_555
C26A C23A 1_555 1_555
H28A C26A 1_555 1_555
H29A C26A 1_555 1_555
H30A C26A 1_555 1_555
C21 C22 1_555 1_555
C2A C3A 1_555 1_555
C5A C6A 1_555 1_555
C6A C7A 1_555 1_555
C21A C22A 1_555 1_555

#END
