
#######################################################################
#
#                 Cambridge Crystallographic Data Centre
#                                CCDC 
#
#######################################################################
#
# If this CIF has been generated from an entry in the Cambridge 
# Structural Database, then it will include bibliographic, chemical, 
# crystal, experimental, refinement or atomic coordinate data resulting 
# from the CCDC's data processing and validation procedures.
#
#######################################################################

data_GEHYEZ
_chemical_name_common            iodosodilactone
_chemical_formula_moiety         'C8 H3 I1 O4'
_chemical_name_systematic        
2H,6H-8-[1,2]Iodoxolo[4,5,1-hi][1,2]benziodoxole-2,6-dione
_symmetry_cell_setting           monoclinic
_symmetry_space_group_name_H-M   'P 21/c'
_symmetry_Int_Tables_number      14
_space_group_name_Hall           '-P 2ybc'
loop_
_symmetry_equiv_pos_site_id
_symmetry_equiv_pos_as_xyz
1 x,y,z
2 -x,1/2+y,1/2-z
3 -x,-y,-z
4 x,1/2-y,1/2+z
_cell_length_a                   13.447(3)
_cell_length_b                   8.1328(16)
_cell_length_c                   6.7939(14)
_cell_angle_alpha                90
_cell_angle_beta                 98.88(3)
_cell_angle_gamma                90
_cell_volume                     734.087
_exptl_crystal_colour            colorless
_exptl_crystal_description       platelet
_cell_formula_units_Z            4
loop_
_atom_site_label
_atom_site_type_symbol
_atom_site_fract_x
_atom_site_fract_y
_atom_site_fract_z
I1 I 0.38158(2) 0.42328(4) 0.15108(5)
O1 O 0.4115(3) 0.9299(4) 0.1816(6)
C1 C 0.1774(4) 0.3145(6) -0.0373(8)
O2 O 0.1081(3) 0.2288(5) -0.1086(6)
C2 C 0.0949(4) 0.6023(6) -0.1018(8)
H1 H 0.0317 0.5576 -0.1589
O3 O 0.4448(3) 0.6635(4) 0.2070(5)
O4 O 0.2662(3) 0.2516(4) 0.0466(5)
C3 C 0.1988(4) 0.8431(6) -0.0062(7)
H2 H 0.2057 0.9592 0.0025
C4 C 0.2801(4) 0.7401(6) 0.0606(7)
C5 C 0.2640(4) 0.5738(6) 0.0452(7)
C6 C 0.1080(4) 0.7723(6) -0.0853(7)
H3 H 0.0524 0.8419 -0.1301
C7 C 0.3837(4) 0.7867(7) 0.1538(6)
C8 C 0.1753(4) 0.4994(6) -0.0337(7)
loop_
_geom_bond_atom_site_label_1
_geom_bond_atom_site_label_2
_geom_bond_site_symmetry_1
_geom_bond_site_symmetry_2
I1 O3 1_555 1_555
O1 C7 1_555 1_555
C1 O2 1_555 1_555
C2 H1 1_555 1_555
O3 C7 1_555 1_555
O4 I1 1_555 1_555
C3 H2 1_555 1_555
C4 C3 1_555 1_555
C5 I1 1_555 1_555
C6 C2 1_555 1_555
H3 C6 1_555 1_555
C7 C4 1_555 1_555
C8 C1 1_555 1_555
C1 O4 1_555 1_555
C2 C8 1_555 1_555
C3 C6 1_555 1_555
C4 C5 1_555 1_555
C5 C8 1_555 1_555

#END
