
#######################################################################
#
#                 Cambridge Crystallographic Data Centre
#                                CCDC 
#
#######################################################################
#
# If this CIF has been generated from an entry in the Cambridge 
# Structural Database, then it will include bibliographic, chemical, 
# crystal, experimental, refinement or atomic coordinate data resulting 
# from the CCDC's data processing and validation procedures.
#
#######################################################################

data_GEHYUO
_chemical_formula_moiety         'C16 H19 Cl1 N1 O2 1+,Cl1 1-,C4 H8 O2'
_chemical_name_systematic        
'N-((S)-1-(5-Chloro-2-hydroxyphenyl)ethyl)-N-((R)-2-hydroxy-1-phenylethyl)ammonium chloride ethyl acetate solvate'
_symmetry_cell_setting           monoclinic
_symmetry_space_group_name_H-M   'P 21'
_symmetry_Int_Tables_number      4
_space_group_name_Hall           'P 2yb'
loop_
_symmetry_equiv_pos_site_id
_symmetry_equiv_pos_as_xyz
1 x,y,z
2 -x,1/2+y,-z
_cell_length_a                   11.912(3)
_cell_length_b                   7.7221(18)
_cell_length_c                   12.312(3)
_cell_angle_alpha                90
_cell_angle_beta                 103.993(3)
_cell_angle_gamma                90
_cell_volume                     1098.92
_exptl_crystal_colour            colorless
_exptl_crystal_description       block
_cell_formula_units_Z            2
_exptl_crystal_recrystallization_method 'isopropanol/ethyl acetate'
loop_
_atom_site_label
_atom_site_type_symbol
_atom_site_fract_x
_atom_site_fract_y
_atom_site_fract_z
C1 C 0.6610(4) -0.0959(6) 0.1409(3)
H1 H 0.7352 -0.0586 0.1408
C2 C 0.5941(5) -0.1785(7) 0.0487(4)
C3 C 0.4853(6) -0.2350(8) 0.0464(4)
H2 H 0.4417 -0.2914 -0.0165
C4 C 0.4404(5) -0.2079(8) 0.1381(4)
H3 H 0.3661 -0.2457 0.1372
C5 C 0.5052(4) -0.1253(6) 0.2302(3)
C6 C 0.6170(4) -0.0687(5) 0.2338(3)
C7 C 0.6956(3) 0.0040(5) 0.3387(3)
H4 H 0.7638 0.0541 0.3194
C8 C 0.7359(4) -0.1351(6) 0.4279(4)
H5 H 0.7864 -0.0841 0.4927
H6 H 0.7766 -0.2241 0.3986
H7 H 0.6700 -0.1845 0.4483
C9 C 0.6258(3) 0.3153(5) 0.3292(3)
H8 H 0.5839 0.2968 0.2512
C10 C 0.5528(4) 0.4321(6) 0.3839(5)
H9 H 0.5938 0.4568 0.4604
H10 H 0.5379 0.5408 0.3435
C11 C 0.7411(4) 0.3918(5) 0.3297(4)
C12 C 0.8310(4) 0.3977(6) 0.4243(4)
H11 H 0.8224 0.3472 0.4904
C13 C 0.9331(4) 0.4778(7) 0.4214(6)
H12 H 0.9932 0.4809 0.4857
C14 C 0.9475(5) 0.5524(9) 0.3264(8)
H13 H 1.0173 0.6058 0.3256
C15 C 0.8588(6) 0.5495(9) 0.2305(6)
H14 H 0.8684 0.6014 0.1651
C16 C 0.7567(5) 0.4694(7) 0.2323(5)
H15 H 0.6970 0.4668 0.1677
N1 N 0.6353(2) 0.1448(4) 0.3886(2)
H24 H 0.5636 0.1080 0.3888
H25 H 0.6739 0.1609 0.4604
O1 O 0.4650(3) -0.0948(5) 0.3240(3)
H26 H 0.4082 -0.1556 0.3223
O2 O 0.4481(3) 0.3491(5) 0.3827(4)
H27 H 0.3962 0.4211 0.3739
Cl1 Cl 0.6497(2) -0.2121(3) -0.06806(13)
C17 C 1.1496(8) 0.1596(17) 0.2869(6)
H16 H 1.1477 0.1861 0.3626
H17 H 1.1794 0.2573 0.2545
H18 H 1.1987 0.0611 0.2863
C18 C 1.0315(10) 0.1200(18) 0.2212(8)
C19 C 0.9137(11) 0.126(3) 0.0510(11)
H19 H 0.8536 0.1698 0.0846
H20 H 0.9053 0.0017 0.0415
C20 C 0.9118(10) 0.214(4) -0.0567(11)
H21 H 0.8639 0.3155 -0.0636
H22 H 0.8813 0.1368 -0.1176
H23 H 0.9891 0.2474 -0.0583
O3 O 0.9439(8) 0.0464(14) 0.2347(9)
O4 O 1.0259(6) 0.1716(15) 0.1154(4)
Cl2 Cl 0.27524(8) 0.66531(15) 0.34878(8)
loop_
_geom_bond_atom_site_label_1
_geom_bond_atom_site_label_2
_geom_bond_site_symmetry_1
_geom_bond_site_symmetry_2
C1 H1 1_555 1_555
C2 C1 1_555 1_555
C3 C2 1_555 1_555
H2 C3 1_555 1_555
C4 C3 1_555 1_555
H3 C4 1_555 1_555
C5 C4 1_555 1_555
C6 C1 1_555 1_555
C7 C6 1_555 1_555
H4 C7 1_555 1_555
C8 C7 1_555 1_555
H5 C8 1_555 1_555
H6 C8 1_555 1_555
H7 C8 1_555 1_555
C9 H8 1_555 1_555
C10 C9 1_555 1_555
H9 C10 1_555 1_555
H10 C10 1_555 1_555
C11 C9 1_555 1_555
C12 C11 1_555 1_555
H11 C12 1_555 1_555
C13 C12 1_555 1_555
H12 C13 1_555 1_555
C14 C13 1_555 1_555
H13 C14 1_555 1_555
C15 C14 1_555 1_555
H14 C15 1_555 1_555
C16 C11 1_555 1_555
H15 C16 1_555 1_555
C17 H16 1_555 1_555
H17 C17 1_555 1_555
H18 C17 1_555 1_555
C18 C17 1_555 1_555
C19 H19 1_555 1_555
H20 C19 1_555 1_555
C20 C19 1_555 1_555
H21 C20 1_555 1_555
H22 C20 1_555 1_555
H23 C20 1_555 1_555
N1 C7 1_555 1_555
H24 N1 1_555 1_555
H25 N1 1_555 1_555
O1 C5 1_555 1_555
H26 O1 1_555 1_555
O2 C10 1_555 1_555
H27 O2 1_555 1_555
O3 C18 1_555 1_555
O4 C18 1_555 1_555
Cl1 C2 1_555 1_555
C5 C6 1_555 1_555
C9 N1 1_555 1_555
C15 C16 1_555 1_555
C19 O4 1_555 1_555

#END
