
#######################################################################
#
#                 Cambridge Crystallographic Data Centre
#                                CCDC 
#
#######################################################################
#
# If this CIF has been generated from an entry in the Cambridge 
# Structural Database, then it will include bibliographic, chemical, 
# crystal, experimental, refinement or atomic coordinate data resulting 
# from the CCDC's data processing and validation procedures.
#
#######################################################################

data_GEHZID
_chemical_formula_moiety         'C14 H13 N2 1+,N1 O3 1-'
_chemical_name_systematic        '2,9-Dimethyl-1,10-phenanthrolinium nitrate'
_symmetry_cell_setting           triclinic
_symmetry_space_group_name_H-M   'P -1'
_symmetry_Int_Tables_number      2
_space_group_name_Hall           '-P 1'
loop_
_symmetry_equiv_pos_site_id
_symmetry_equiv_pos_as_xyz
1 x,y,z
2 -x,-y,-z
_cell_length_a                   6.8971(10)
_cell_length_b                   9.8366(14)
_cell_length_c                   10.1800(14)
_cell_angle_alpha                64.443(2)
_cell_angle_beta                 86.796(2)
_cell_angle_gamma                87.896(2)
_cell_volume                     622.041
_exptl_crystal_colour            'pale yellow'
_exptl_crystal_description       plate
_cell_formula_units_Z            2
loop_
_atom_site_label
_atom_site_type_symbol
_atom_site_fract_x
_atom_site_fract_y
_atom_site_fract_z
O1 O 0.3978(2) 0.15715(18) 0.30079(19)
O2 O 0.2283(3) 0.20327(16) 0.11479(14)
O3 O 0.1038(2) 0.23548(15) 0.29714(15)
N3 N 0.2446(2) 0.19900(15) 0.23652(16)
N1 N 0.26108(18) 0.54812(14) 0.24159(13)
N2 N 0.20949(18) 0.32448(14) 0.51710(14)
C1 C 0.2657(4) 0.6152(3) -0.0164(2)
C2 C 0.2827(2) 0.65645(18) 0.10747(17)
C3 C 0.3178(3) 0.8069(2) 0.0816(2)
C4 C 0.3276(2) 0.8451(2) 0.1939(2)
C5 C 0.3029(2) 0.73240(18) 0.33830(18)
C6 C 0.3104(2) 0.7606(2) 0.4643(2)
C7 C 0.2833(2) 0.6488(2) 0.5989(2)
C8 C 0.2471(2) 0.49813(18) 0.62129(17)
C9 C 0.2171(2) 0.3772(2) 0.75899(18)
C10 C 0.1880(2) 0.2356(2) 0.77153(18)
C11 C 0.1851(2) 0.20789(18) 0.64803(17)
C12 C 0.2421(2) 0.46769(16) 0.49858(16)
C13 C 0.2695(2) 0.58573(16) 0.35403(16)
C14 C 0.1591(4) 0.0562(2) 0.6545(2)
H1 H 0.351(2) 0.947(2) 0.1726(19)
H2 H 0.167(3) 0.153(2) 0.863(2)
H3 H 0.204(3) 0.309(2) 0.436(2)
H4 H 0.339(3) 0.881(2) -0.014(2)
H5 H 0.337(3) 0.863(2) 0.451(2)
H6 H 0.215(3) 0.395(2) 0.847(2)
H7 H 0.101(4) 0.057(3) 0.573(3)
H8 H 0.285(3) 0.668(2) 0.679(2)
H9 H 0.083(4) -0.006(3) 0.738(3)
H10 H 0.156(4) 0.660(3) -0.068(3)
H11 H 0.245(3) 0.506(3) 0.017(3)
H12 H 0.274(4) 0.003(3) 0.665(3)
H13 H 0.367(4) 0.651(3) -0.083(3)
loop_
_geom_bond_atom_site_label_1
_geom_bond_atom_site_label_2
_geom_bond_site_symmetry_1
_geom_bond_site_symmetry_2
O1 N3 1_555 1_555
O2 N3 1_555 1_555
O3 N3 1_555 1_555
N1 C2 1_555 1_555
N2 C11 1_555 1_555
C1 C2 1_555 1_555
C2 C3 1_555 1_555
C3 C4 1_555 1_555
C4 C5 1_555 1_555
C5 C6 1_555 1_555
C6 C7 1_555 1_555
C7 C8 1_555 1_555
C8 C9 1_555 1_555
C9 C10 1_555 1_555
C10 C11 1_555 1_555
C11 C14 1_555 1_555
C12 N2 1_555 1_555
C13 N1 1_555 1_555
C14 H7 1_555 1_555
H1 C4 1_555 1_555
H2 C10 1_555 1_555
H3 N2 1_555 1_555
H4 C3 1_555 1_555
H5 C6 1_555 1_555
H6 C9 1_555 1_555
H8 C7 1_555 1_555
H9 C14 1_555 1_555
H10 C1 1_555 1_555
H11 C1 1_555 1_555
H12 C14 1_555 1_555
H13 C1 1_555 1_555
C5 C13 1_555 1_555
C8 C12 1_555 1_555
C12 C13 1_555 1_555

#END
