
#######################################################################
#
#                 Cambridge Crystallographic Data Centre
#                                CCDC 
#
#######################################################################
#
# If this CIF has been generated from an entry in the Cambridge 
# Structural Database, then it will include bibliographic, chemical, 
# crystal, experimental, refinement or atomic coordinate data resulting 
# from the CCDC's data processing and validation procedures.
#
#######################################################################

data_GEHZAW
_chemical_formula_moiety         'C17 H25 N1 O5 S1'
_chemical_name_systematic        
'Isopropyl 2-((t-butylsulfonyl)amino)-4-oxo-4-phenylbutanoate'
_symmetry_cell_setting           monoclinic
_symmetry_space_group_name_H-M   'P 21'
_symmetry_Int_Tables_number      4
_space_group_name_Hall           'P 2yb'
loop_
_symmetry_equiv_pos_site_id
_symmetry_equiv_pos_as_xyz
1 x,y,z
2 -x,1/2+y,-z
_cell_length_a                   9.5206(4)
_cell_length_b                   10.0215(4)
_cell_length_c                   10.2741(4)
_cell_angle_alpha                90
_cell_angle_beta                 101.890(4)
_cell_angle_gamma                90
_cell_volume                     959.228
_cell_formula_units_Z            2
loop_
_atom_site_label
_atom_site_type_symbol
_atom_site_fract_x
_atom_site_fract_y
_atom_site_fract_z
S1 S 0.94009(8) 0.56575(9) 0.19890(7)
O1 O 0.8752(4) 0.4367(3) 0.1768(3)
O2 O 1.0683(3) 0.5111(3) 0.6390(2)
N1 N 1.0211(3) 0.5742(3) 0.3546(2)
O3 O 0.7804(3) 0.6096(3) 0.4508(3)
C1 C 1.3019(3) 0.5812(4) 0.7406(3)
C2 C 1.1634(3) 0.5918(3) 0.6416(3)
C3 C 1.0814(4) 0.5736(5) 0.1052(3)
O4 O 0.8521(4) 0.6819(4) 0.1674(3)
C4 C 0.8773(4) 0.7029(4) 0.4928(3)
O5 O 0.8613(3) 0.7939(3) 0.5651(3)
C5 C 1.0110(4) 0.6922(3) 0.4345(3)
H1 H 1.0099 0.7692 0.3755
C6 C 1.1445(4) 0.7070(3) 0.5450(3)
H2 H 1.2285 0.7132 0.5055
H3 H 1.1376 0.7893 0.5929
C7 C 1.3383(5) 0.4571(5) 0.7983(4)
H4 H 1.2740 0.3867 0.7774
C8 C 1.4681(5) 0.4353(7) 0.8865(5)
H5 H 1.4945 0.3507 0.9199
C9 C 1.1776(6) 0.4529(6) 0.1397(6)
H6 H 1.2165 0.4520 0.2337
H7 H 1.2545 0.4572 0.0924
H8 H 1.1227 0.3732 0.1150
C10 C 1.0046(7) 0.5755(7) -0.0413(4)
H9 H 0.9607 0.4902 -0.0651
H10 H 1.0728 0.5939 -0.0960
H11 H 0.9320 0.6435 -0.0547
C11 C 1.3923(5) 0.6855(5) 0.7736(5)
H12 H 1.3710 0.7692 0.7354
C12 C 1.1622(7) 0.7014(6) 0.1394(7)
H13 H 1.0979 0.7755 0.1169
H14 H 1.2375 0.7074 0.0903
H15 H 1.2030 0.7031 0.2330
C13 C 0.6454(5) 0.6097(5) 0.5014(7)
H16 H 0.6336 0.6946 0.5454
C14 C 0.5322(9) 0.5921(10) 0.3845(8)
H17 H 0.5150 0.6751 0.3373
H18 H 0.4459 0.5638 0.4111
H19 H 0.5606 0.5257 0.3277
C15 C 0.6543(10) 0.4994(9) 0.5947(9)
H20 H 0.6023 0.5216 0.6625
H21 H 0.7531 0.4830 0.6350
H22 H 0.6136 0.4208 0.5483
C16 C 1.5554(6) 0.5433(7) 0.9220(6)
H23 H 1.6400 0.5314 0.9848
C17 C 1.5257(6) 0.6616(7) 0.8721(6)
H24 H 1.5892 0.7316 0.8988
H25 H 1.019(6) 0.489(3) 0.382(5)
loop_
_geom_bond_atom_site_label_1
_geom_bond_atom_site_label_2
_geom_bond_site_symmetry_1
_geom_bond_site_symmetry_2
S1 O1 1_555 1_555
O2 C2 1_555 1_555
N1 S1 1_555 1_555
O3 C4 1_555 1_555
C1 C2 1_555 1_555
C2 C6 1_555 1_555
C3 S1 1_555 1_555
O4 S1 1_555 1_555
C4 O5 1_555 1_555
C5 N1 1_555 1_555
H1 C5 1_555 1_555
C6 C5 1_555 1_555
H2 C6 1_555 1_555
H3 C6 1_555 1_555
C7 C1 1_555 1_555
H4 C7 1_555 1_555
C8 C7 1_555 1_555
H5 C8 1_555 1_555
C9 C3 1_555 1_555
H6 C9 1_555 1_555
H7 C9 1_555 1_555
H8 C9 1_555 1_555
C10 C3 1_555 1_555
H9 C10 1_555 1_555
H10 C10 1_555 1_555
H11 C10 1_555 1_555
C11 C1 1_555 1_555
H12 C11 1_555 1_555
C12 C3 1_555 1_555
H13 C12 1_555 1_555
H14 C12 1_555 1_555
H15 C12 1_555 1_555
C13 O3 1_555 1_555
H16 C13 1_555 1_555
C14 C13 1_555 1_555
H17 C14 1_555 1_555
H18 C14 1_555 1_555
H19 C14 1_555 1_555
C15 C13 1_555 1_555
H20 C15 1_555 1_555
H21 C15 1_555 1_555
H22 C15 1_555 1_555
C16 C8 1_555 1_555
H23 C16 1_555 1_555
C17 C11 1_555 1_555
H24 C17 1_555 1_555
H25 N1 1_555 1_555
C4 C5 1_555 1_555
C16 C17 1_555 1_555

#END
