
#######################################################################
#
#                 Cambridge Crystallographic Data Centre
#                                CCDC 
#
#######################################################################
#
# If this CIF has been generated from an entry in the Cambridge 
# Structural Database, then it will include bibliographic, chemical, 
# crystal, experimental, refinement or atomic coordinate data resulting 
# from the CCDC's data processing and validation procedures.
#
#######################################################################

data_GEJBON
_chemical_formula_moiety         'C8 H7 N3 O3'
_chemical_name_systematic        'Glyoxal 2-nitrophenylhydrazone'
_symmetry_cell_setting           monoclinic
_symmetry_space_group_name_H-M   'C 2/c'
_symmetry_Int_Tables_number      15
_space_group_name_Hall           '-C 2yn'
loop_
_symmetry_equiv_pos_site_id
_symmetry_equiv_pos_as_xyz
1 x,y,z
2 1/2+x,1/2+y,z
3 -x,y,1/2-z
4 1/2-x,1/2+y,1/2-z
5 -x,-y,-z
6 1/2-x,1/2-y,-z
7 x,-y,1/2+z
8 1/2+x,1/2-y,1/2+z
_cell_length_a                   18.670(4)
_cell_length_b                   3.7723(4)
_cell_length_c                   23.896(5)
_cell_angle_alpha                90
_cell_angle_beta                 96.429(6)
_cell_angle_gamma                90
_cell_volume                     1672.38
_exptl_crystal_colour            orange
_exptl_crystal_description       needle
_chemical_melting_point          '442-444 K'
_cell_formula_units_Z            8
_exptl_crystal_recrystallization_method ethanol
loop_
_atom_site_label
_atom_site_type_symbol
_atom_site_fract_x
_atom_site_fract_y
_atom_site_fract_z
C1 C 0.5988(2) 0.9186(11) 0.61085(19)
N1 N 0.53270(19) 0.7496(9) 0.60542(16)
N2 N 0.49995(19) 0.6830(9) 0.65175(15)
C2 C 0.4415(2) 0.5000(11) 0.6465(2)
C3 C 0.4100(2) 0.4244(11) 0.6978(2)
O1 O 0.35891(17) 0.2276(8) 0.70018(14)
C4 C 0.6383(2) 0.9861(11) 0.56497(19)
N3 N 0.6123(2) 0.8881(10) 0.50804(17)
O2 O 0.55688(17) 0.7048(9) 0.49938(14)
O3 O 0.6451(2) 0.9858(10) 0.46949(16)
C5 C 0.7059(2) 1.1489(12) 0.5732(2)
C6 C 0.7350(2) 1.2471(12) 0.6258(2)
C7 C 0.6964(2) 1.1903(11) 0.6707(2)
C8 C 0.6299(2) 1.0281(11) 0.6637(2)
H1 H 0.5122 0.6861 0.5720
H2 H 0.4202 0.4188 0.6109
H3 H 0.4304 0.5350 0.7316
H4 H 0.7318 1.1915 0.5419
H5 H 0.7814 1.3534 0.6314
H6 H 0.7159 1.2642 0.7073
H7 H 0.6047 0.9902 0.6955
loop_
_geom_bond_atom_site_label_1
_geom_bond_atom_site_label_2
_geom_bond_site_symmetry_1
_geom_bond_site_symmetry_2
C1 N1 1_555 1_555
N1 N2 1_555 1_555
N2 C2 1_555 1_555
C2 C3 1_555 1_555
C3 O1 1_555 1_555
C4 C1 1_555 1_555
N3 C4 1_555 1_555
O2 N3 1_555 1_555
O3 N3 1_555 1_555
C5 C4 1_555 1_555
C6 C5 1_555 1_555
C7 C6 1_555 1_555
C8 C1 1_555 1_555
H1 N1 1_555 1_555
H2 C2 1_555 1_555
H3 C3 1_555 1_555
H4 C5 1_555 1_555
H5 C6 1_555 1_555
H6 C7 1_555 1_555
H7 C8 1_555 1_555
C7 C8 1_555 1_555

#END
