
#######################################################################
#
#                 Cambridge Crystallographic Data Centre
#                                CCDC 
#
#######################################################################
#
# If this CIF has been generated from an entry in the Cambridge 
# Structural Database, then it will include bibliographic, chemical, 
# crystal, experimental, refinement or atomic coordinate data resulting 
# from the CCDC's data processing and validation procedures.
#
#######################################################################

data_GEJCAZ
_chemical_formula_moiety         'C15 H28 B1 N1'
_chemical_name_systematic        N-(9-Borabicyclo(3.3.1)nonyl)quinuclidine
_symmetry_cell_setting           monoclinic
_symmetry_space_group_name_H-M   'P 21/c'
_symmetry_Int_Tables_number      14
_space_group_name_Hall           '-P 2ybc'
loop_
_symmetry_equiv_pos_site_id
_symmetry_equiv_pos_as_xyz
1 x,y,z
2 -x,1/2+y,1/2-z
3 -x,-y,-z
4 x,1/2-y,1/2+z
_cell_length_a                   10.216(2)
_cell_length_b                   12.689(3)
_cell_length_c                   11.517(2)
_cell_angle_alpha                90
_cell_angle_beta                 110.81(1)
_cell_angle_gamma                90
_cell_volume                     1395.56
_exptl_crystal_colour            colorless
_chemical_melting_point          165-166deg.C
_cell_formula_units_Z            4
loop_
_atom_site_label
_atom_site_type_symbol
_atom_site_fract_x
_atom_site_fract_y
_atom_site_fract_z
N1 N 0.4274(2) 0.8943(1) 0.1789(1)
B1 B 0.6004(3) 0.9102(2) 0.2167(2)
C1 C 0.6697(2) 1.0063(2) 0.3100(2)
C2 C 0.6798(3) 0.9866(2) 0.4435(2)
C3 C 0.7500(3) 0.8844(2) 0.5006(2)
C4 C 0.7143(3) 0.7874(2) 0.4151(2)
C5 C 0.6938(2) 0.8082(2) 0.2770(2)
C6 C 0.8350(3) 0.8273(2) 0.2609(3)
C7 C 0.9083(3) 0.9278(2) 0.3214(3)
C8 C 0.8143(3) 1.0248(2) 0.3000(2)
C9 C 0.3824(2) 0.8374(2) 0.2723(2)
C10 C 0.2243(3) 0.8377(2) 0.2375(2)
C11 C 0.1564(3) 0.8736(2) 0.1040(2)
C12 C 0.2166(3) 0.8080(2) 0.0249(2)
C13 C 0.3719(2) 0.8325(2) 0.0600(2)
C14 C 0.3553(2) 0.9994(2) 0.1538(2)
C15 C 0.1966(3) 0.9872(2) 0.0943(3)
H1 H 0.6187 1.0706 0.2824
H2 H 0.5867 0.9818 0.4453
H3 H 0.7289 1.0433 0.4962
H4 H 0.8492 0.8958 0.5312
H5 H 0.7194 0.8722 0.5693
H6 H 0.6311 0.7547 0.4188
H7 H 0.7921 0.7405 0.4486
H8 H 0.6592 0.7420 0.2378
H9 H 0.8137 0.8325 0.1729
H10 H 0.8949 0.7677 0.2928
H11 H 0.9490 0.9149 0.4091
H12 H 0.9806 0.9468 0.2902
H13 H 0.8679 1.0765 0.3585
H14 H 0.7920 1.0513 0.2171
H15 H 0.4153 0.7662 0.2747
H16 H 0.4317 0.8714 0.3500
H17 H 0.2005 0.8882 0.2888
H18 H 0.1907 0.7694 0.2494
H19 H 0.0566 0.8654 0.0768
H20 H 0.2039 0.7348 0.0394
H21 H 0.1665 0.8244 -0.0609
H22 H 0.3921 0.8776 0.0015
H23 H 0.4301 0.7709 0.0744
H24 H 0.3808 1.0310 0.2346
H25 H 0.3981 1.0379 0.1049
H26 H 0.1554 1.0303 0.1407
H27 H 0.1693 1.0132 0.0107
H28 H 0.6049(20) 0.9296(15) 0.1196(19)
loop_
_geom_bond_atom_site_label_1
_geom_bond_atom_site_label_2
_geom_bond_site_symmetry_1
_geom_bond_site_symmetry_2
N1 B1 1_555 1_555
B1 C1 1_555 1_555
C1 C2 1_555 1_555
C2 C3 1_555 1_555
C3 C4 1_555 1_555
C4 C5 1_555 1_555
C5 B1 1_555 1_555
C6 C5 1_555 1_555
C7 C6 1_555 1_555
C8 C1 1_555 1_555
C9 N1 1_555 1_555
C10 C9 1_555 1_555
C11 C10 1_555 1_555
C12 C11 1_555 1_555
C13 N1 1_555 1_555
C14 N1 1_555 1_555
C15 C11 1_555 1_555
H1 C1 1_555 1_555
H2 C2 1_555 1_555
H3 C2 1_555 1_555
H4 C3 1_555 1_555
H5 C3 1_555 1_555
H6 C4 1_555 1_555
H7 C4 1_555 1_555
H8 C5 1_555 1_555
H9 C6 1_555 1_555
H10 C6 1_555 1_555
H11 C7 1_555 1_555
H12 C7 1_555 1_555
H13 C8 1_555 1_555
H14 C8 1_555 1_555
H15 C9 1_555 1_555
H16 C9 1_555 1_555
H17 C10 1_555 1_555
H18 C10 1_555 1_555
H19 C11 1_555 1_555
H20 C12 1_555 1_555
H21 C12 1_555 1_555
H22 C13 1_555 1_555
H23 C13 1_555 1_555
H24 C14 1_555 1_555
H25 C14 1_555 1_555
H26 C15 1_555 1_555
H27 C15 1_555 1_555
H28 B1 1_555 1_555
C7 C8 1_555 1_555
C12 C13 1_555 1_555
C14 C15 1_555 1_555

#END
