
#######################################################################
#
#                 Cambridge Crystallographic Data Centre
#                                CCDC 
#
#######################################################################
#
# If this CIF has been generated from an entry in the Cambridge 
# Structural Database, then it will include bibliographic, chemical, 
# crystal, experimental, refinement or atomic coordinate data resulting 
# from the CCDC's data processing and validation procedures.
#
#######################################################################

data_GEJCUV
_chemical_formula_moiety         'C78 H88 K1 N4 O9 1+,Cl1 1-,3(C1 H4 O1)'
_chemical_name_systematic        
'(1,57,62,62,71,71-hexamethyl-6,9,23,26,29,32,35,49,52-nonaoxa-76,77,78,79-tetra-azatetradecacyclo-[55.9.9.22,5.253,56.111,37.121,47.158,61.163,66.167,70.172,75.010,15.017,22.-036,41.043,48]-pentaoctaconta-2,4,10,12,14,17,19,21,36,38,40,43,45,47,53,55,58,60,63,65,67,69,72,74,80,84-hexacosaene)-potassium chloride methanol solvate'
_symmetry_cell_setting           orthorhombic
_symmetry_space_group_name_H-M   'P n m a'
_symmetry_Int_Tables_number      62
_space_group_name_Hall           '-P 2ac 2n'
loop_
_symmetry_equiv_pos_site_id
_symmetry_equiv_pos_as_xyz
1 x,y,z
2 1/2-x,-y,1/2+z
3 1/2+x,1/2-y,1/2-z
4 -x,1/2+y,-z
5 -x,-y,-z
6 1/2+x,y,1/2-z
7 1/2-x,1/2+y,1/2+z
8 x,1/2-y,z
_cell_length_a                   36.554(4)
_cell_length_b                   15.5755(8)
_cell_length_c                   12.4572(6)
_cell_angle_alpha                90
_cell_angle_beta                 90
_cell_angle_gamma                90
_cell_volume                     7092.47
_exptl_crystal_colour            colorless
_exptl_crystal_description       prisms
_cell_formula_units_Z            4
loop_
_atom_site_label
_atom_site_type_symbol
_atom_site_fract_x
_atom_site_fract_y
_atom_site_fract_z
K1 K 0.65116(4) 0.2500 0.58615(13)
O1 O 0.5090(2) 0.2500 1.0759(9)
O2 O 0.56752(18) 0.2500 0.8910(6)
O3 O 0.61815(13) 0.4079(3) 0.6171(4)
O4 O 0.69192(13) 0.4075(3) 0.5806(4)
O5 O 0.72558(17) 0.2500 0.5255(5)
O6 O 0.53088(18) 0.2500 0.4651(5)
O7 O 0.4542(2) 0.2500 0.4654(7)
N1 N 0.32068(14) 0.1446(3) 0.7677(4)
H1 H 0.3386 0.1753 0.7950
N2 N 0.34420(13) 0.1425(3) 1.0174(4)
H2 H 0.3575 0.1703 0.9698
C1 C 0.29910(16) 0.1700(4) 0.6831(4)
C2 C 0.27472(18) 0.1051(4) 0.6661(5)
H3 H 0.2563 0.1040 0.6123
C3 C 0.2816(2) 0.0396(4) 0.7427(6)
H4 H 0.2683 -0.0126 0.7499
C4 C 0.31042(19) 0.0645(4) 0.8041(5)
C5 C 0.3313(2) 0.0196(4) 0.8927(6)
C6 C 0.32705(17) 0.0665(4) 0.9999(5)
C7 C 0.30905(17) 0.0447(4) 1.0910(6)
H5 H 0.2947 -0.0055 1.1018
C8 C 0.31549(16) 0.1107(4) 1.1675(5)
H6 H 0.3059 0.1129 1.2383
C9 C 0.33763(15) 0.1697(4) 1.1218(5)
C10 C 0.3556(2) 0.2500 1.1663(6)
C11 C 0.3074(2) 0.2500 0.6211(7)
C12 C 0.2830(2) 0.2500 0.5198(6)
H7 H 0.2577 0.2500 0.5408
H8 H 0.2880 0.1997 0.4778
C13 C 0.3154(3) -0.0719(5) 0.9045(6)
H9 H 0.2902 -0.0685 0.9311
H10 H 0.3304 -0.1047 0.9555
H11 H 0.3157 -0.1007 0.8346
C14 C 0.3721(2) 0.0144(5) 0.8621(6)
H12 H 0.3747 -0.0172 0.7945
H13 H 0.3856 -0.0156 0.9189
H14 H 0.3819 0.0725 0.8535
C15 C 0.3492(3) 0.2500 1.2880(7)
H15 H 0.3234 0.2500 1.3026
H16 H 0.3602 0.1997 1.3189
C16 C 0.3970(2) 0.2500 1.1468(7)
C17 C 0.41661(17) 0.3252(4) 1.1377(5)
H17 H 0.4041 0.3783 1.1457
C18 C 0.45358(18) 0.3259(4) 1.1175(6)
H18 H 0.4662 0.3790 1.1120
C19 C 0.4723(3) 0.2500 1.1053(8)
C20 C 0.5275(6) 0.3076(15) 1.0460(19)
H19 H 0.5328 0.3505 1.1002
H20 H 0.5164 0.3349 0.9840
C21 C 0.5650(4) 0.2500 1.0042(14)
C22 C 0.6036(3) 0.2500 0.8603(7)
C23 C 0.62141(18) 0.3283(5) 0.8450(5)
C24 C 0.65860(17) 0.3264(5) 0.8261(5)
H21 H 0.6715 0.3789 0.8172
C25 C 0.6774(2) 0.2500 0.8198(7)
H22 H 0.7032 0.2500 0.8111
C26 C 0.6004(2) 0.4112(5) 0.8442(7)
H23 H 0.6181 0.4591 0.8371
H24 H 0.5880 0.4177 0.9143
C27 C 0.5721(2) 0.4196(5) 0.7562(8)
C28 C 0.5817(2) 0.4157(4) 0.6483(8)
C29 C 0.5561(2) 0.4171(5) 0.5663(8)
C30 C 0.5200(3) 0.4234(7) 0.5936(10)
H25 H 0.5020 0.4238 0.5384
C31 C 0.5089(3) 0.4293(7) 0.6998(11)
H26 H 0.4838 0.4354 0.7176
C32 C 0.5355(2) 0.4262(5) 0.7801(8)
H27 H 0.5282 0.4287 0.8532
C33 C 0.5671(3) 0.4112(7) 0.4497(8)
H28 H 0.5844 0.4584 0.4340
H29 H 0.5451 0.4204 0.4049
C34 C 0.5847(2) 0.3274(7) 0.4165(6)
C35 C 0.6194(3) 0.3262(8) 0.3689(7)
H30 H 0.6316 0.3787 0.3536
C36 C 0.6358(5) 0.2500 0.3445(11)
H31 H 0.6590 0.2500 0.3099
C37 C 0.5669(3) 0.2500 0.4322(8)
C38 C 0.6398(2) 0.4858(5) 0.6262(8)
H32 H 0.6484 0.4928 0.7010
H33 H 0.6246 0.5363 0.6074
C39 C 0.6713(2) 0.4800(6) 0.5527(8)
H34 H 0.6627 0.4750 0.4776
H35 H 0.6866 0.5323 0.5587
C40 C 0.7246(2) 0.4040(6) 0.5189(8)
H36 H 0.7394 0.4562 0.5314
H37 H 0.7186 0.4006 0.4415
C41 C 0.74609(19) 0.3241(6) 0.5534(6)
H38 H 0.7701 0.3229 0.5168
H39 H 0.7504 0.3254 0.6318
C42 C 0.5067(3) 0.2500 0.3721(10)
C43 C 0.4695(4) 0.2034(10) 0.4114(12)
H40 H 0.4538 0.1868 0.3530
H41 H 0.4758 0.1539 0.4535
C44 C 0.4195(3) 0.2500 0.5046(8)
C45 C 0.40197(19) 0.3257(5) 0.5251(6)
H42 H 0.4140 0.3788 0.5121
C46 C 0.36658(18) 0.3248(5) 0.5647(5)
H43 H 0.3549 0.3782 0.5786
C47 C 0.3475(3) 0.2500 0.5851(7)
O3G O 0.61815(13) 0.0921(3) 0.6171(4)
O4G O 0.69192(13) 0.0925(3) 0.5806(4)
N1G N 0.32068(14) 0.3554(3) 0.7677(4)
H1G H 0.3386 0.3247 0.7950
N2G N 0.34420(13) 0.3575(3) 1.0174(4)
H2G H 0.3575 0.3297 0.9698
C1G C 0.29910(16) 0.3300(4) 0.6831(4)
C2G C 0.27472(18) 0.3949(4) 0.6661(5)
H3G H 0.2563 0.3960 0.6123
C3G C 0.2816(2) 0.4604(4) 0.7427(6)
H4G H 0.2683 0.5126 0.7499
C4G C 0.31042(19) 0.4355(4) 0.8041(5)
C5G C 0.3313(2) 0.4804(4) 0.8927(6)
C6G C 0.32705(17) 0.4335(4) 0.9999(5)
C7G C 0.30905(17) 0.4553(4) 1.0910(6)
H5G H 0.2947 0.5055 1.1018
C8G C 0.31549(16) 0.3893(4) 1.1675(5)
H6G H 0.3059 0.3871 1.2383
C9G C 0.33763(15) 0.3303(4) 1.1218(5)
H8G H 0.2880 0.3003 0.4778
C13G C 0.3154(3) 0.5719(5) 0.9045(6)
H9G H 0.2902 0.5685 0.9311
H10G H 0.3304 0.6047 0.9555
H11G H 0.3157 0.6007 0.8346
C14G C 0.3721(2) 0.4856(5) 0.8621(6)
H12G H 0.3747 0.5172 0.7945
H13G H 0.3856 0.5156 0.9189
H14G H 0.3819 0.4275 0.8535
H16G H 0.3602 0.3003 1.3189
C17G C 0.41661(17) 0.1748(4) 1.1377(5)
H17G H 0.4041 0.1217 1.1457
C18G C 0.45358(18) 0.1741(4) 1.1175(6)
H18G H 0.4662 0.1210 1.1120
C20G C 0.5275(6) 0.1924(15) 1.0460(19)
H19G H 0.5328 0.1495 1.1002
H20G H 0.5164 0.1651 0.9840
C23G C 0.62141(18) 0.1717(5) 0.8450(5)
C24G C 0.65860(17) 0.1736(5) 0.8261(5)
H21G H 0.6715 0.1211 0.8172
C26G C 0.6004(2) 0.0888(5) 0.8442(7)
H23G H 0.6181 0.0409 0.8371
H24G H 0.5880 0.0823 0.9143
C27G C 0.5721(2) 0.0804(5) 0.7562(8)
C28G C 0.5817(2) 0.0843(4) 0.6483(8)
C29G C 0.5561(2) 0.0829(5) 0.5663(8)
C30G C 0.5200(3) 0.0766(7) 0.5936(10)
H25G H 0.5020 0.0762 0.5384
C31G C 0.5089(3) 0.0707(7) 0.6998(11)
H26G H 0.4838 0.0646 0.7176
C32G C 0.5355(2) 0.0738(5) 0.7801(8)
H27G H 0.5282 0.0713 0.8532
C33G C 0.5671(3) 0.0888(7) 0.4497(8)
H28G H 0.5844 0.0416 0.4340
H29G H 0.5451 0.0796 0.4049
C34G C 0.5847(2) 0.1726(7) 0.4165(6)
C35G C 0.6194(3) 0.1738(8) 0.3689(7)
H30G H 0.6316 0.1213 0.3536
C38G C 0.6398(2) 0.0142(5) 0.6262(8)
H32G H 0.6484 0.0072 0.7010
H33G H 0.6246 -0.0363 0.6074
C39G C 0.6713(2) 0.0200(6) 0.5527(8)
H34G H 0.6627 0.0250 0.4776
H35G H 0.6866 -0.0323 0.5587
C40G C 0.7246(2) 0.0960(6) 0.5189(8)
H36G H 0.7394 0.0438 0.5314
H37G H 0.7186 0.0994 0.4415
C41G C 0.74609(19) 0.1759(6) 0.5534(6)
H38G H 0.7701 0.1771 0.5168
H39G H 0.7504 0.1746 0.6318
C43G C 0.4695(4) 0.2966(10) 0.4114(12)
H40G H 0.4538 0.3132 0.3530
H41G H 0.4758 0.3461 0.4535
C45G C 0.40197(19) 0.1743(5) 0.5251(6)
H42G H 0.4140 0.1212 0.5121
C46G C 0.36658(18) 0.1752(5) 0.5647(5)
H43G H 0.3549 0.1218 0.5786
O8 O 0.4384(3) 0.1740(7) 0.8351(8)
C48 C 0.4595(3) 0.2500 0.7953(12)
O8G O 0.4384(3) 0.3260(7) 0.8351(8)
F1? F 0.37307(13) 0.2500 0.8631(4)
H44? H 0.5860 0.2785 1.0339
H45? H 0.5634 0.1929 1.0329
H46? H 0.5182 0.2217 0.3125
H47? H 0.5004 0.3075 0.3514
loop_
_geom_bond_atom_site_label_1
_geom_bond_atom_site_label_2
_geom_bond_site_symmetry_1
_geom_bond_site_symmetry_2
K1 O3 1_555 1_555
O1 C19 1_555 1_555
O2 C21 1_555 1_555
O3 C28 1_555 1_555
O4 K1 1_555 1_555
O5 K1 1_555 1_555
O6 C37 1_555 1_555
O7 C43 1_555 1_555
N1 H1 1_555 1_555
N2 H2 1_555 1_555
C1 N1 1_555 1_555
C2 C1 1_555 1_555
H3 C2 1_555 1_555
C3 C2 1_555 1_555
H4 C3 1_555 1_555
C4 N1 1_555 1_555
C5 C4 1_555 1_555
C6 N2 1_555 1_555
C7 C6 1_555 1_555
H5 C7 1_555 1_555
C8 C7 1_555 1_555
H6 C8 1_555 1_555
C9 N2 1_555 1_555
C10 C9 1_555 1_555
C11 C1 1_555 1_555
C12 C11 1_555 1_555
H7 C12 1_555 1_555
H8 C12 1_555 1_555
C13 C5 1_555 1_555
H9 C13 1_555 1_555
H10 C13 1_555 1_555
H11 C13 1_555 1_555
C14 C5 1_555 1_555
H12 C14 1_555 1_555
H13 C14 1_555 1_555
H14 C14 1_555 1_555
C15 C10 1_555 1_555
H15 C15 1_555 1_555
H16 C15 1_555 1_555
C16 C10 1_555 1_555
C17 C16 1_555 1_555
H17 C17 1_555 1_555
C18 C17 1_555 1_555
H18 C18 1_555 1_555
C19 C18 1_555 1_555
C20 O1 1_555 1_555
H19 C20 1_555 1_555
H20 C20 1_555 1_555
C21 C20 1_555 1_555
C22 O2 1_555 1_555
C23 C22 1_555 1_555
C24 C23 1_555 1_555
H21 C24 1_555 1_555
C25 K1 1_555 1_555
H22 C25 1_555 1_555
C26 C23 1_555 1_555
H23 C26 1_555 1_555
H24 C26 1_555 1_555
C27 C26 1_555 1_555
C28 C27 1_555 1_555
C29 C28 1_555 1_555
C30 C29 1_555 1_555
H25 C30 1_555 1_555
C31 C30 1_555 1_555
H26 C31 1_555 1_555
C32 C27 1_555 1_555
H27 C32 1_555 1_555
C33 C29 1_555 1_555
H28 C33 1_555 1_555
H29 C33 1_555 1_555
C34 C33 1_555 1_555
C35 C34 1_555 1_555
H30 C35 1_555 1_555
C36 K1 1_555 1_555
H31 C36 1_555 1_555
C37 C34 1_555 1_555
C38 O3 1_555 1_555
H32 C38 1_555 1_555
H33 C38 1_555 1_555
C39 O4 1_555 1_555
H34 C39 1_555 1_555
H35 C39 1_555 1_555
C40 O4 1_555 1_555
H36 C40 1_555 1_555
H37 C40 1_555 1_555
C41 O5 1_555 1_555
H38 C41 1_555 1_555
H39 C41 1_555 1_555
C42 O6 1_555 1_555
C43 C42 1_555 1_555
H40 C43 1_555 1_555
H41 C43 1_555 1_555
C44 O7 1_555 1_555
C45 C44 1_555 1_555
H42 C45 1_555 1_555
C46 C45 1_555 1_555
H43 C46 1_555 1_555
C47 C11 1_555 1_555
O8 C48 1_555 1_555
C48 O8G 1_555 1_555
O3G K1 1_555 1_555
O4G K1 1_555 1_555
N1G H1G 1_555 1_555
N2G H2G 1_555 1_555
C1G C11 1_555 1_555
C2G C1G 1_555 1_555
H3G C2G 1_555 1_555
C3G C2G 1_555 1_555
H4G C3G 1_555 1_555
C4G N1G 1_555 1_555
C5G C4G 1_555 1_555
C6G N2G 1_555 1_555
C7G C6G 1_555 1_555
H5G C7G 1_555 1_555
C8G C7G 1_555 1_555
H6G C8G 1_555 1_555
C9G C10 1_555 1_555
H8G C12 1_555 1_555
C13G C5G 1_555 1_555
H9G C13G 1_555 1_555
H10G C13G 1_555 1_555
H11G C13G 1_555 1_555
C14G C5G 1_555 1_555
H12G C14G 1_555 1_555
H13G C14G 1_555 1_555
H14G C14G 1_555 1_555
H16G C15 1_555 1_555
C17G C16 1_555 1_555
H17G C17G 1_555 1_555
C18G C19 1_555 1_555
H18G C18G 1_555 1_555
C20G O1 1_555 1_555
H19G C20G 1_555 1_555
H20G C20G 1_555 1_555
C23G C22 1_555 1_555
C24G C25 1_555 1_555
H21G C24G 1_555 1_555
C26G C23G 1_555 1_555
H23G C26G 1_555 1_555
H24G C26G 1_555 1_555
C27G C26G 1_555 1_555
C28G O3G 1_555 1_555
C29G C28G 1_555 1_555
C30G C29G 1_555 1_555
H25G C30G 1_555 1_555
C31G C30G 1_555 1_555
H26G C31G 1_555 1_555
C32G C27G 1_555 1_555
H27G C32G 1_555 1_555
C33G C29G 1_555 1_555
H28G C33G 1_555 1_555
H29G C33G 1_555 1_555
C34G C37 1_555 1_555
C35G C36 1_555 1_555
H30G C35G 1_555 1_555
C38G O3G 1_555 1_555
H32G C38G 1_555 1_555
H33G C38G 1_555 1_555
C39G O4G 1_555 1_555
H34G C39G 1_555 1_555
H35G C39G 1_555 1_555
C40G O4G 1_555 1_555
H36G C40G 1_555 1_555
H37G C40G 1_555 1_555
C41G O5 1_555 1_555
H38G C41G 1_555 1_555
H39G C41G 1_555 1_555
C43G O7 1_555 1_555
H40G C43G 1_555 1_555
H41G C43G 1_555 1_555
C45G C44 1_555 1_555
H42G C45G 1_555 1_555
C46G C47 1_555 1_555
H43G C46G 1_555 1_555
C3 C4 1_555 1_555
C5 C6 1_555 1_555
C8 C9 1_555 1_555
C21 C20G 1_555 1_555
C24 C25 1_555 1_555
C31 C32 1_555 1_555
C35 C36 1_555 1_555
C38 C39 1_555 1_555
C40 C41 1_555 1_555
C42 C43G 1_555 1_555
C43 C43G 1_555 1_555
C46 C47 1_555 1_555
N1G C1G 1_555 1_555
N2G C9G 1_555 1_555
C3G C4G 1_555 1_555
C5G C6G 1_555 1_555
C8G C9G 1_555 1_555
C17G C18G 1_555 1_555
C23G C24G 1_555 1_555
C27G C28G 1_555 1_555
C31G C32G 1_555 1_555
C33G C34G 1_555 1_555
C34G C35G 1_555 1_555
C38G C39G 1_555 1_555
C40G C41G 1_555 1_555
C45G C46G 1_555 1_555

#END
