
#######################################################################
#
#                 Cambridge Crystallographic Data Centre
#                                CCDC 
#
#######################################################################
#
# If this CIF has been generated from an entry in the Cambridge 
# Structural Database, then it will include bibliographic, chemical, 
# crystal, experimental, refinement or atomic coordinate data resulting 
# from the CCDC's data processing and validation procedures.
#
#######################################################################

data_GEJFUX
_chemical_formula_moiety         'C21 H15 Cl1 N4 O3'
_chemical_name_systematic        
'2-(1H-1,2,3-Benzotriazol-1-ylmethyl)-1-(4-chlorobenzoyl)ethyl nicotinate'
_symmetry_cell_setting           orthorhombic
_symmetry_space_group_name_H-M   'P c a 21'
_symmetry_Int_Tables_number      29
_space_group_name_Hall           'P 2c -2ac'
loop_
_symmetry_equiv_pos_site_id
_symmetry_equiv_pos_as_xyz
1 x,y,z
2 -x,-y,1/2+z
3 1/2+x,-y,z
4 1/2-x,y,1/2+z
_cell_length_a                   18.820(2)
_cell_length_b                   5.3367(6)
_cell_length_c                   19.027(2)
_cell_angle_alpha                90
_cell_angle_beta                 90
_cell_angle_gamma                90
_cell_volume                     1911.01
_exptl_crystal_colour            colorless
_exptl_crystal_description       column
_cell_formula_units_Z            4
_exptl_crystal_recrystallization_method 'petroleum ether/ethyl acetate'
loop_
_atom_site_label
_atom_site_type_symbol
_atom_site_fract_x
_atom_site_fract_y
_atom_site_fract_z
Cl1 Cl 0.51070(4) 0.93581(18) 0.95559(5)
O1 O 0.31226(10) 1.4545(3) 0.70681(11)
O2 O 0.25989(9) 1.1709(3) 0.60809(9)
O3 O 0.37208(10) 1.1997(4) 0.56904(10)
N1 N 0.17014(11) 1.1145(4) 0.72733(11)
N2 N 0.18000(12) 1.2249(5) 0.79117(12)
N3 N 0.13520(15) 1.4095(5) 0.79787(13)
N4 N 0.19053(14) 1.7362(5) 0.48168(16)
C1 C 0.37176(15) 1.2972(5) 0.83571(14)
H1 H 0.3449 1.4433 0.8382
C2 C 0.41532(16) 1.2347(6) 0.89093(14)
H2 H 0.4179 1.3366 0.9305
C3 C 0.45516(14) 1.0186(5) 0.88679(14)
C4 C 0.45198(14) 0.8681(5) 0.82843(14)
H3 H 0.4799 0.7247 0.8258
C5 C 0.40721(13) 0.9298(5) 0.77361(14)
H4 H 0.4041 0.8248 0.7347
C6 C 0.36682(13) 1.1471(4) 0.77608(13)
C7 C 0.32237(12) 1.2328(5) 0.71655(13)
C8 C 0.28554(14) 1.0428(4) 0.66950(14)
H5 H 0.3190 0.9108 0.6559
C9 C 0.22054(14) 0.9275(4) 0.70473(15)
H6 H 0.1975 0.8143 0.6720
H7 H 0.2357 0.8302 0.7451
C10 C 0.11743(13) 1.2353(5) 0.69191(13)
C11 C 0.08611(16) 1.1973(6) 0.62688(15)
H8 H 0.1002 1.0690 0.5969
C12 C 0.03236(17) 1.3633(8) 0.60948(19)
H9 H 0.0093 1.3451 0.5665
C13 C 0.01171(18) 1.5566(7) 0.6543(2)
H10 H -0.0239 1.6659 0.6400
C14 C 0.04209(16) 1.5893(6) 0.7179(2)
H11 H 0.0276 1.7175 0.7477
C15 C 0.09607(15) 1.4234(5) 0.73711(15)
C16 C 0.31146(14) 1.2647(5) 0.56581(13)
C17 C 0.28422(14) 1.4591(5) 0.51739(13)
C18 C 0.32881(16) 1.5671(6) 0.46915(16)
H12 H 0.3754 1.5115 0.4647
C19 C 0.3041(2) 1.7579(7) 0.42753(18)
H13 H 0.3333 1.8325 0.3941
C20 C 0.23668(19) 1.8347(6) 0.43612(17)
H14 H 0.2210 1.9666 0.4082
C21 C 0.21599(17) 1.5499(6) 0.52124(17)
H15 H 0.1854 1.4766 0.5537
loop_
_geom_bond_atom_site_label_1
_geom_bond_atom_site_label_2
_geom_bond_site_symmetry_1
_geom_bond_site_symmetry_2
Cl1 C3 1_555 1_555
O1 C7 1_555 1_555
O2 C8 1_555 1_555
O3 C16 1_555 1_555
N1 N2 1_555 1_555
N2 N3 1_555 1_555
N3 C15 1_555 1_555
N4 C20 1_555 1_555
C1 H1 1_555 1_555
C2 C1 1_555 1_555
H2 C2 1_555 1_555
C3 C2 1_555 1_555
C4 C3 1_555 1_555
H3 C4 1_555 1_555
C5 C4 1_555 1_555
H4 C5 1_555 1_555
C6 C1 1_555 1_555
C7 C6 1_555 1_555
C8 C7 1_555 1_555
H5 C8 1_555 1_555
C9 N1 1_555 1_555
H6 C9 1_555 1_555
H7 C9 1_555 1_555
C10 N1 1_555 1_555
C11 C10 1_555 1_555
H8 C11 1_555 1_555
C12 C11 1_555 1_555
H9 C12 1_555 1_555
C13 C12 1_555 1_555
H10 C13 1_555 1_555
C14 C13 1_555 1_555
H11 C14 1_555 1_555
C15 C10 1_555 1_555
C16 O2 1_555 1_555
C17 C16 1_555 1_555
C18 C17 1_555 1_555
H12 C18 1_555 1_555
C19 C18 1_555 1_555
H13 C19 1_555 1_555
C20 C19 1_555 1_555
H14 C20 1_555 1_555
C21 N4 1_555 1_555
H15 C21 1_555 1_555
C5 C6 1_555 1_555
C8 C9 1_555 1_555
C14 C15 1_555 1_555
C17 C21 1_555 1_555

#END
