
#######################################################################
#
#                 Cambridge Crystallographic Data Centre
#                                CCDC 
#
#######################################################################
#
# If this CIF has been generated from an entry in the Cambridge 
# Structural Database, then it will include bibliographic, chemical, 
# crystal, experimental, refinement or atomic coordinate data resulting 
# from the CCDC's data processing and validation procedures.
#
#######################################################################

data_GEJGAG
_chemical_formula_moiety         'C35 H33 F2 N5 O2,C3 H6 O1'
_chemical_name_systematic        
'2-(2-fluorophenyl)-3-(2-{4-[2-(2-fluorophenyl)-4-oxo-1,4-dihydroquinazolin-3(2H)-yl]piperidin-1-yl}ethyl)-2,3-dihydroquinazolin-4(1H)-one acetone unknown solvate'
_symmetry_cell_setting           monoclinic
_symmetry_space_group_name_H-M   'P 21'
_symmetry_Int_Tables_number      4
_space_group_name_Hall           'P 2yb'
loop_
_symmetry_equiv_pos_site_id
_symmetry_equiv_pos_as_xyz
1 x,y,z
2 -x,1/2+y,-z
_cell_length_a                   12.1734(5)
_cell_length_b                   11.7178(4)
_cell_length_c                   15.5279(6)
_cell_angle_alpha                90
_cell_angle_beta                 110.903(2)
_cell_angle_gamma                90
_cell_volume                     2069.21
_exptl_crystal_colour            colorless
_exptl_crystal_description       block
_cell_formula_units_Z            2
_exptl_crystal_recrystallization_method acetone/hexane
loop_
_atom_site_label
_atom_site_type_symbol
_atom_site_fract_x
_atom_site_fract_y
_atom_site_fract_z
O1 O 0.6924(3) 0.1577(4) -0.3139(3)
O2 O 0.8061(3) 0.3757(4) 0.3141(3)
F1 F 0.2547(4) 0.1141(5) -0.1895(3)
F2 F 1.2398(4) 0.4197(5) 0.1859(3)
N1 N 0.5579(4) 0.1347(5) -0.2441(3)
N2 N 0.4197(4) -0.0163(5) -0.2914(3)
H1 H 0.361(6) -0.070(6) -0.289(4)
N3 N 0.7782(5) 0.2373(6) -0.0191(4)
N4 N 0.9395(4) 0.3999(5) 0.2451(3)
N5 N 1.0765(4) 0.5528(5) 0.2916(3)
H2 H 1.132(4) 0.567(4) 0.282(3)
C1 C 0.5998(4) 0.1144(5) -0.3146(4)
C2 C 0.4472(5) 0.0916(5) -0.2467(4)
H3 H 0.4542 0.0791 -0.1812
C3 C 0.4427(5) -0.0288(6) -0.3723(4)
C4 C 0.3798(5) -0.1106(6) -0.4381(5)
H4 H 0.3198 -0.1556 -0.4291
C5 C 0.4088(5) -0.1230(6) -0.5166(4)
H5 H 0.3666 -0.1770 -0.5621
C6 C 0.4940(6) -0.0619(6) -0.5306(4)
H6 H 0.5109 -0.0727 -0.5853
C7 C 0.5586(6) 0.0183(6) -0.4645(4)
H7 H 0.6191 0.0615 -0.4745
C8 C 0.5337(5) 0.0346(6) -0.3841(4)
C9 C 0.6187(5) 0.2183(6) -0.1751(4)
H8 H 0.5608 0.2634 -0.1580
H9 H 0.6626 0.2713 -0.2007
C10 C 0.7027(6) 0.1606(7) -0.0907(5)
H10 H 0.6566 0.1129 -0.0632
H11 H 0.7537 0.1088 -0.1102
C11 C 0.7107(6) 0.3074(8) 0.0189(5)
H12 H 0.6667 0.2578 0.0468
H13 H 0.6526 0.3509 -0.0317
C12 C 0.7834(6) 0.3895(8) 0.0902(5)
H14 H 0.8257 0.4419 0.0628
H15 H 0.7321 0.4355 0.1139
C13 C 0.8691(6) 0.3236(7) 0.1669(5)
H16 H 0.8220 0.2722 0.1917
C14 C 0.9386(6) 0.2478(8) 0.1273(6)
H17 H 0.9926 0.1996 0.1768
H18 H 0.9865 0.2952 0.1013
C15 C 0.8568(7) 0.1722(8) 0.0522(6)
H19 H 0.9040 0.1230 0.0268
H20 H 0.8120 0.1221 0.0791
C16 C 0.8958(5) 0.4212(6) 0.3123(4)
C17 C 0.9694(5) 0.5001(6) 0.3866(4)
C18 C 0.9404(5) 0.5157(6) 0.4644(4)
H21 H 0.8790 0.4721 0.4726
C19 C 0.9992(6) 0.5925(8) 0.5278(5)
H22 H 0.9801 0.6014 0.5817
C20 C 1.0889(6) 0.6608(7) 0.5170(5)
H23 H 1.1279 0.7174 0.5611
C21 C 1.1177(5) 0.6427(6) 0.4407(4)
H24 H 1.1802 0.6856 0.4337
C22 C 1.0595(4) 0.5645(5) 0.3734(4)
C23 C 1.0533(5) 0.4405(6) 0.2438(4)
H25 H 1.0464 0.4520 0.1783
C24 C 0.3467(5) 0.1799(5) -0.2879(3)
C25 C 0.2528(6) 0.1892(7) -0.2619(5)
C26 C 0.1624(6) 0.2627(8) -0.2965(6)
H26 H 0.0993 0.2619 -0.2740
C27 C 0.1612(7) 0.3352(9) -0.3611(7)
H27 H 0.1003 0.3903 -0.3832
C28 C 0.2497(7) 0.3297(8) -0.3960(5)
H28 H 0.2454 0.3768 -0.4469
C29 C 0.3468(6) 0.2563(7) -0.3587(4)
H29 H 0.4106 0.2580 -0.3804
C30 C 1.1485(5) 0.3537(6) 0.2873(4)
C31 C 1.2410(6) 0.3500(6) 0.2521(4)
C32 C 1.3341(7) 0.2774(8) 0.2838(6)
H30 H 1.3939 0.2742 0.2579
C33 C 1.3354(7) 0.2040(7) 0.3615(5)
H31 H 1.3999 0.1542 0.3895
C34 C 1.2440(8) 0.2072(8) 0.3932(5)
H32 H 1.2422 0.1562 0.4403
C35 C 1.1565(6) 0.2834(7) 0.3574(4)
H33 H 1.0968 0.2875 0.3834
C36 C 0.3694(11) 0.6232(12) 0.7146(9)
H34 H 0.4121 0.6956 0.7221
H35 H 0.2943 0.6359 0.7229
H36 H 0.3548 0.5929 0.6527
C37 C 0.4380(10) 0.5435(12) 0.7817(8)
C38 C 0.3951(18) 0.4786(17) 0.8405(15)
H37 H 0.3190 0.4449 0.8041
H38 H 0.3856 0.5285 0.8880
H39 H 0.4513 0.4178 0.8699
O3 O 0.5299(7) 0.5056(9) 0.7721(6)
loop_
_geom_bond_atom_site_label_1
_geom_bond_atom_site_label_2
_geom_bond_site_symmetry_1
_geom_bond_site_symmetry_2
O1 C1 1_555 1_555
O2 C16 1_555 1_555
F1 C25 1_555 1_555
F2 C31 1_555 1_555
N1 C1 1_555 1_555
N2 H1 1_555 1_555
N3 C10 1_555 1_555
N4 C13 1_555 1_555
N5 H2 1_555 1_555
C1 C8 1_555 1_555
C2 N1 1_555 1_555
H3 C2 1_555 1_555
C3 N2 1_555 1_555
C4 C3 1_555 1_555
H4 C4 1_555 1_555
C5 C4 1_555 1_555
H5 C5 1_555 1_555
C6 C5 1_555 1_555
H6 C6 1_555 1_555
C7 C6 1_555 1_555
H7 C7 1_555 1_555
C8 C3 1_555 1_555
C9 N1 1_555 1_555
H8 C9 1_555 1_555
H9 C9 1_555 1_555
C10 C9 1_555 1_555
H10 C10 1_555 1_555
H11 C10 1_555 1_555
C11 N3 1_555 1_555
H12 C11 1_555 1_555
H13 C11 1_555 1_555
C12 C11 1_555 1_555
H14 C12 1_555 1_555
H15 C12 1_555 1_555
C13 C12 1_555 1_555
H16 C13 1_555 1_555
C14 C13 1_555 1_555
H17 C14 1_555 1_555
H18 C14 1_555 1_555
C15 N3 1_555 1_555
H19 C15 1_555 1_555
H20 C15 1_555 1_555
C16 N4 1_555 1_555
C17 C16 1_555 1_555
C18 C17 1_555 1_555
H21 C18 1_555 1_555
C19 C18 1_555 1_555
H22 C19 1_555 1_555
C20 C19 1_555 1_555
H23 C20 1_555 1_555
C21 C20 1_555 1_555
H24 C21 1_555 1_555
C22 N5 1_555 1_555
C23 N4 1_555 1_555
H25 C23 1_555 1_555
C24 C2 1_555 1_555
C25 C24 1_555 1_555
C26 C25 1_555 1_555
H26 C26 1_555 1_555
C27 C26 1_555 1_555
H27 C27 1_555 1_555
C28 C27 1_555 1_555
H28 C28 1_555 1_555
C29 C24 1_555 1_555
H29 C29 1_555 1_555
C30 C23 1_555 1_555
C31 C30 1_555 1_555
C32 C31 1_555 1_555
H30 C32 1_555 1_555
C33 C32 1_555 1_555
H31 C33 1_555 1_555
C34 C33 1_555 1_555
H32 C34 1_555 1_555
C35 C30 1_555 1_555
H33 C35 1_555 1_555
C36 H34 1_555 1_555
H35 C36 1_555 1_555
H36 C36 1_555 1_555
C37 C36 1_555 1_555
C38 C37 1_555 1_555
H37 C38 1_555 1_555
H38 C38 1_555 1_555
H39 C38 1_555 1_555
O3 C37 1_555 1_555
N2 C2 1_555 1_555
N5 C23 1_555 1_555
C7 C8 1_555 1_555
C14 C15 1_555 1_555
C17 C22 1_555 1_555
C21 C22 1_555 1_555
C28 C29 1_555 1_555
C34 C35 1_555 1_555

#END
