
#######################################################################
#
#                 Cambridge Crystallographic Data Centre
#                                CCDC 
#
#######################################################################
#
# If this CIF has been generated from an entry in the Cambridge 
# Structural Database, then it will include bibliographic, chemical, 
# crystal, experimental, refinement or atomic coordinate data resulting 
# from the CCDC's data processing and validation procedures.
#
#######################################################################

data_GEJHUZ
_chemical_formula_moiety         'C17 H11 N1 O2 S1'
_chemical_name_systematic        N-(3-Thienylmethyl)-1,8-naphthalimide
_symmetry_cell_setting           monoclinic
_symmetry_space_group_name_H-M   'P 21/n'
_symmetry_Int_Tables_number      14
_space_group_name_Hall           '-P 2yn'
loop_
_symmetry_equiv_pos_site_id
_symmetry_equiv_pos_as_xyz
1 x,y,z
2 1/2-x,1/2+y,1/2-z
3 -x,-y,-z
4 1/2+x,1/2-y,1/2+z
_cell_length_a                   8.6904(15)
_cell_length_b                   13.096(2)
_cell_length_c                   11.590(2)
_cell_angle_alpha                90
_cell_angle_beta                 93.961(3)
_cell_angle_gamma                90
_cell_volume                     1315.9
_exptl_crystal_colour            colorless
_exptl_crystal_description       plate
_chemical_melting_point          '481 K'
_cell_formula_units_Z            4
_exptl_crystal_recrystallization_method 'ethyl acetate/petroleum ether'
loop_
_atom_site_label
_atom_site_type_symbol
_atom_site_fract_x
_atom_site_fract_y
_atom_site_fract_z
N1 N 0.38352(15) 0.49169(10) 0.63417(11)
O1 O 0.47786(16) 0.65349(10) 0.62644(11)
O2 O 0.28806(16) 0.33128(10) 0.64428(11)
C1 C 0.39254(19) 0.58804(13) 0.58248(14)
C2 C 0.29556(18) 0.60530(12) 0.47488(13)
C3 C 0.2986(2) 0.69861(14) 0.42031(15)
H1 H 0.3650 0.7494 0.4498
C4 C 0.2021(2) 0.71768(15) 0.32053(16)
H2 H 0.2033 0.7814 0.2853
C5 C 0.1061(2) 0.64302(15) 0.27489(15)
H3 H 0.0420 0.6569 0.2092
C6 C 0.10303(19) 0.54524(14) 0.32598(14)
C7 C 0.00857(19) 0.46519(15) 0.28029(15)
H4 H -0.0534 0.4759 0.2127
C8 C 0.0068(2) 0.37251(15) 0.33356(16)
H5 H -0.0554 0.3205 0.3016
C9 C 0.0981(2) 0.35486(14) 0.43624(15)
H6 H 0.0943 0.2918 0.4728
C10 C 0.19339(18) 0.43048(13) 0.48328(13)
C11 C 0.19808(18) 0.52668(12) 0.42835(13)
C12 C 0.28892(19) 0.41171(13) 0.59180(14)
C13 C 0.47342(19) 0.47508(14) 0.74615(13)
H7 H 0.5648 0.5164 0.7474
H8 H 0.5056 0.4050 0.7501
C14 C 0.3896(11) 0.4993(12) 0.8522(8)
C15 C 0.3312(14) 0.4283(11) 0.9180(11)
H11 H 0.3509 0.3591 0.9083
C16 C 0.334(2) 0.6012(12) 0.8800(13)
H12 H 0.3533 0.6611 0.8403
S1 S 0.2185(3) 0.47190(12) 1.02099(13)
C17 C 0.2515(11) 0.5931(6) 0.9729(7)
H13 H 0.2140 0.6502 1.0094
H9? H 0.5606 0.5202 0.7535
H10? H 0.5098 0.4059 0.7520
C18? C 0.365(2) 0.497(2) 0.8386(14)
C19? C 0.300(3) 0.4197(18) 0.9140(18)
H14? H 0.3043 0.3492 0.9049
C20? C 0.347(3) 0.5889(19) 0.883(2)
H15? H 0.3973 0.6452 0.8542
S2? S 0.2305(4) 0.6013(2) 0.9937(3)
C21? C 0.2337(17) 0.4703(7) 0.9983(10)
H16? H 0.1904 0.4352 1.0578
loop_
_geom_bond_atom_site_label_1
_geom_bond_atom_site_label_2
_geom_bond_site_symmetry_1
_geom_bond_site_symmetry_2
N1 C1 1_555 1_555
O1 C1 1_555 1_555
O2 C12 1_555 1_555
C1 C2 1_555 1_555
C2 C3 1_555 1_555
C3 H1 1_555 1_555
C4 C3 1_555 1_555
H2 C4 1_555 1_555
C5 C4 1_555 1_555
H3 C5 1_555 1_555
C6 C5 1_555 1_555
C7 C6 1_555 1_555
H4 C7 1_555 1_555
C8 C7 1_555 1_555
H5 C8 1_555 1_555
C9 C8 1_555 1_555
H6 C9 1_555 1_555
C10 C9 1_555 1_555
C11 C2 1_555 1_555
C12 N1 1_555 1_555
C13 N1 1_555 1_555
H7 C13 1_555 1_555
H8 C13 1_555 1_555
C14 C13 1_555 1_555
C15 C14 1_555 1_555
H11 C15 1_555 1_555
C16 C14 1_555 1_555
H12 C16 1_555 1_555
S1 C15 1_555 1_555
C17 C16 1_555 1_555
H13 C17 1_555 1_555
C6 C11 1_555 1_555
C10 C11 1_555 1_555
C10 C12 1_555 1_555
S1 C17 1_555 1_555

#END
