
#######################################################################
#
#                 Cambridge Crystallographic Data Centre
#                                CCDC 
#
#######################################################################
#
# If this CIF has been generated from an entry in the Cambridge 
# Structural Database, then it will include bibliographic, chemical, 
# crystal, experimental, refinement or atomic coordinate data resulting 
# from the CCDC's data processing and validation procedures.
#
#######################################################################

data_GEJJAH
_chemical_formula_moiety         'C14 H12 N2 O2'
_chemical_name_systematic        N,N'-Diphenyloxalamide
_symmetry_cell_setting           monoclinic
_symmetry_space_group_name_H-M   'P 21/c'
_symmetry_Int_Tables_number      14
_space_group_name_Hall           '-P 2ybc'
loop_
_symmetry_equiv_pos_site_id
_symmetry_equiv_pos_as_xyz
1 x,y,z
2 -x,1/2+y,1/2-z
3 -x,-y,-z
4 x,1/2-y,1/2+z
_cell_length_a                   5.3207(7)
_cell_length_b                   5.3723(7)
_cell_length_c                   20.5227(19)
_cell_angle_alpha                90
_cell_angle_beta                 101.437(3)
_cell_angle_gamma                90
_cell_volume                     574.98
_exptl_crystal_colour            colorless
_exptl_crystal_description       block
_cell_formula_units_Z            2
_exptl_crystal_recrystallization_method dimethylformamide
loop_
_atom_site_label
_atom_site_type_symbol
_atom_site_fract_x
_atom_site_fract_y
_atom_site_fract_z
O1 O 1.22647(16) -0.88346(19) -0.04334(5)
N1 N 0.8048(2) -0.77849(19) -0.05075(5)
H1 H 0.6735 -0.8134 -0.0339
C1 C 0.5715(2) -0.4231(2) -0.10229(7)
H2 H 0.4673 -0.4334 -0.0710
C2 C 0.5288(3) -0.2394(2) -0.15016(7)
H3 H 0.3968 -0.1255 -0.1507
C3 C 0.6809(3) -0.2236(2) -0.19729(7)
H4 H 0.6520 -0.0997 -0.2296
C4 C 0.8756(3) -0.3932(3) -0.19598(7)
H5 H 0.9779 -0.3830 -0.2277
C5 C 0.9222(2) -0.5787(2) -0.14827(6)
H6 H 1.0540 -0.6926 -0.1480
C6 C 0.7696(2) -0.5925(2) -0.10077(6)
C7 C 1.0193(2) -0.9056(2) -0.02690(6)
O1B O 0.77353(16) -1.11654(19) 0.04334(5)
N1B N 1.1952(2) -1.22151(19) 0.05075(5)
H1B H 1.3265 -1.1866 0.0339
C1B C 1.4285(2) -1.5769(2) 0.10229(7)
H2B H 1.5327 -1.5666 0.0710
C2B C 1.4712(3) -1.7606(2) 0.15016(7)
H3B H 1.6032 -1.8745 0.1507
C3B C 1.3191(3) -1.7764(2) 0.19729(7)
H4B H 1.3480 -1.9003 0.2296
C4B C 1.1244(3) -1.6068(3) 0.19598(7)
H5B H 1.0221 -1.6170 0.2277
C5B C 1.0778(2) -1.4213(2) 0.14827(6)
H6B H 0.9460 -1.3074 0.1480
C6B C 1.2304(2) -1.4075(2) 0.10077(6)
C7B C 0.9807(2) -1.0944(2) 0.02690(6)
loop_
_geom_bond_atom_site_label_1
_geom_bond_atom_site_label_2
_geom_bond_site_symmetry_1
_geom_bond_site_symmetry_2
O1 C7 1_555 1_555
N1 H1 1_555 1_555
C1 H2 1_555 1_555
C2 C1 1_555 1_555
H3 C2 1_555 1_555
C3 C2 1_555 1_555
H4 C3 1_555 1_555
C4 C3 1_555 1_555
H5 C4 1_555 1_555
C5 C4 1_555 1_555
H6 C5 1_555 1_555
C6 N1 1_555 1_555
C7 N1 1_555 1_555
O1B C7B 1_555 1_555
N1B H1B 1_555 1_555
C1B H2B 1_555 1_555
C2B C1B 1_555 1_555
H3B C2B 1_555 1_555
C3B C2B 1_555 1_555
H4B C3B 1_555 1_555
C4B C3B 1_555 1_555
H5B C4B 1_555 1_555
C5B C4B 1_555 1_555
H6B C5B 1_555 1_555
C6B N1B 1_555 1_555
C7B C7 1_555 1_555
C1 C6 1_555 1_555
C5 C6 1_555 1_555
N1B C7B 1_555 1_555
C1B C6B 1_555 1_555
C5B C6B 1_555 1_555

#END
