
#######################################################################
#
#                 Cambridge Crystallographic Data Centre
#                                CCDC 
#
#######################################################################
#
# If this CIF has been generated from an entry in the Cambridge 
# Structural Database, then it will include bibliographic, chemical, 
# crystal, experimental, refinement or atomic coordinate data resulting 
# from the CCDC's data processing and validation procedures.
#
#######################################################################

data_GEJKUD
_chemical_compound_source        'Acanthus ilicifolius Linn'
_chemical_name_common            'Viridicatol N,N-dimethylformamide solvate'
_chemical_formula_moiety         'C15 H11 N1 O3,C3 H7 N1 O1'
_chemical_name_systematic        
'3-Hydroxy-4-(3-hydroxyphenyl)quinolin-2(1H)-one N,N-dimethylformamide solvate'
_chemical_properties_biological  'cytotoxic activity'
_symmetry_cell_setting           triclinic
_symmetry_space_group_name_H-M   'P -1'
_symmetry_Int_Tables_number      2
_space_group_name_Hall           '-P 1'
loop_
_symmetry_equiv_pos_site_id
_symmetry_equiv_pos_as_xyz
1 x,y,z
2 -x,-y,-z
_cell_length_a                   9.0294(15)
_cell_length_b                   9.7857(16)
_cell_length_c                   10.649(3)
_cell_angle_alpha                102.402(3)
_cell_angle_beta                 103.878(3)
_cell_angle_gamma                109.372(2)
_cell_volume                     816.038
_exptl_crystal_colour            colorless
_exptl_crystal_description       block
_cell_formula_units_Z            2
loop_
_atom_site_label
_atom_site_type_symbol
_atom_site_fract_x
_atom_site_fract_y
_atom_site_fract_z
O1 O 0.0459(2) 0.43772(19) 1.13216(17)
O2 O 0.1410(2) 0.4027(2) 0.90603(17)
H1 H 0.0964 0.4575 0.9344
O3 O 0.1932(3) -0.0866(2) 0.51574(17)
H2 H 0.1162 -0.1483 0.5289
N1 N 0.1307(2) 0.2598(2) 1.19022(17)
C1 C 0.4263(3) 0.3135(3) 0.8392(2)
H3 H 0.4807 0.4049 0.9115
C2 C 0.4828(3) 0.2939(3) 0.7299(2)
H4 H 0.5754 0.3723 0.7295
C3 C 0.4044(3) 0.1604(2) 0.6219(2)
H5 H 0.4432 0.1480 0.5486
C4 C 0.2675(3) 0.0449(2) 0.6235(2)
C5 C 0.2115(3) 0.0641(2) 0.7334(2)
H6 H 0.1197 -0.0149 0.7341
C6 C 0.2892(3) 0.1981(2) 0.8418(2)
C7 C 0.2292(2) 0.2158(2) 0.9613(2)
C8 C 0.1608(3) 0.3178(2) 0.9885(2)
C9 C 0.1063(3) 0.3428(2) 1.1065(2)
C10 C 0.1947(2) 0.1489(2) 1.1653(2)
C11 C 0.2101(3) 0.0661(3) 1.2549(2)
H7 H 0.1800 0.0861 1.3323
C12 C 0.2696(3) -0.0450(3) 1.2290(3)
H8 H 0.2772 -0.1023 1.2877
C13 C 0.3186(3) -0.0722(3) 1.1151(2)
H9 H 0.3593 -0.1475 1.0979
C14 C 0.3072(3) 0.0113(3) 1.0285(2)
H10 H 0.3421 -0.0071 0.9535
C15 C 0.2441(2) 0.1242(2) 1.04969(19)
O4 O 0.0682(2) 0.30566(18) 0.46067(16)
N2 N 0.2428(3) 0.5416(2) 0.6073(2)
C16 C 0.3030(4) 0.6524(3) 0.7426(3)
H11 H 0.2930 0.7452 0.7348
H12 H 0.4179 0.6737 0.7869
H13 H 0.2380 0.6116 0.7955
C17 C 0.3109(5) 0.5910(4) 0.5071(4)
H14 H 0.4108 0.5738 0.5137
H15 H 0.3366 0.6981 0.5238
H16 H 0.2307 0.5340 0.4173
C18 C 0.1287(3) 0.4048(3) 0.5742(2)
H17 H 0.0888 0.3790 0.6423
loop_
_geom_bond_atom_site_label_1
_geom_bond_atom_site_label_2
_geom_bond_site_symmetry_1
_geom_bond_site_symmetry_2
O1 C9 1_555 1_555
O2 H1 1_555 1_555
O3 H2 1_555 1_555
N1 C9 1_555 1_555
C1 H3 1_555 1_555
C2 C1 1_555 1_555
H4 C2 1_555 1_555
C3 C2 1_555 1_555
H5 C3 1_555 1_555
C4 O3 1_555 1_555
C5 C4 1_555 1_555
H6 C5 1_555 1_555
C6 C1 1_555 1_555
C7 C6 1_555 1_555
C8 O2 1_555 1_555
C9 C8 1_555 1_555
C10 N1 1_555 1_555
C11 C10 1_555 1_555
H7 C11 1_555 1_555
C12 C11 1_555 1_555
H8 C12 1_555 1_555
C13 C12 1_555 1_555
H9 C13 1_555 1_555
C14 C13 1_555 1_555
H10 C14 1_555 1_555
C15 C7 1_555 1_555
O4 C18 1_555 1_555
N2 C16 1_555 1_555
C16 H11 1_555 1_555
H12 C16 1_555 1_555
H13 C16 1_555 1_555
C17 N2 1_555 1_555
H14 C17 1_555 1_555
H15 C17 1_555 1_555
H16 C17 1_555 1_555
C18 N2 1_555 1_555
H17 C18 1_555 1_555
C3 C4 1_555 1_555
C5 C6 1_555 1_555
C7 C8 1_555 1_555
C10 C15 1_555 1_555
C14 C15 1_555 1_555

#END
