
#######################################################################
#
#                 Cambridge Crystallographic Data Centre
#                                CCDC 
#
#######################################################################
#
# If this CIF has been generated from an entry in the Cambridge 
# Structural Database, then it will include bibliographic, chemical, 
# crystal, experimental, refinement or atomic coordinate data resulting 
# from the CCDC's data processing and validation procedures.
#
#######################################################################

data_GEJKAI
_chemical_formula_moiety         'C18 H16 O5'
_chemical_name_systematic        
1-(2-(4-Hydroxyphenyl)-4,6-dimethoxy-1-benzofuran-3-yl)ethanone
_symmetry_cell_setting           monoclinic
_symmetry_space_group_name_H-M   'P 21/a'
_symmetry_Int_Tables_number      14
_space_group_name_Hall           '-P 2yab'
loop_
_symmetry_equiv_pos_site_id
_symmetry_equiv_pos_as_xyz
1 x,y,z
2 1/2-x,1/2+y,-z
3 -x,-y,-z
4 1/2+x,1/2-y,z
_cell_length_a                   7.8442(12)
_cell_length_b                   18.365(3)
_cell_length_c                   10.7516(18)
_cell_angle_alpha                90
_cell_angle_beta                 105.781(7)
_cell_angle_gamma                90
_cell_volume                     1490.48
_exptl_crystal_colour            colorless
_exptl_crystal_description       block
_chemical_melting_point          '446 K'
_cell_formula_units_Z            4
_exptl_crystal_recrystallization_method 'ethyl acetate/hexane'
loop_
_atom_site_label
_atom_site_type_symbol
_atom_site_fract_x
_atom_site_fract_y
_atom_site_fract_z
O1 O 0.06237(15) 0.34041(6) 0.09951(10)
O2 O 0.3160(2) 0.65123(7) 0.30923(16)
H1 H 0.378(4) 0.6507(15) 0.398(3)
O3 O 0.49617(18) 0.33356(8) 0.43245(13)
O4 O -0.17940(19) 0.11923(7) -0.12270(13)
O5 O 0.27885(16) 0.11544(7) 0.26779(12)
C1 C 0.1902(2) 0.35238(9) 0.21353(16)
C2 C 0.2566(2) 0.28712(9) 0.27017(15)
C3 C 0.1613(2) 0.23011(9) 0.18406(15)
C4 C 0.0457(2) 0.26642(9) 0.08197(15)
C5 C -0.0721(2) 0.23581(10) -0.02554(15)
H2 H -0.1458 0.2637 -0.0905
C6 C -0.0712(2) 0.16098(10) -0.02834(16)
C7 C 0.0446(2) 0.12027(10) 0.06927(16)
H3 H 0.0428 0.0697 0.0634
C8 C 0.1616(2) 0.15328(9) 0.17406(15)
C9 C 0.2198(2) 0.42969(9) 0.24337(15)
C10 C 0.2648(2) 0.45773(10) 0.36872(16)
H4 H 0.2742 0.4263 0.4380
C11 C 0.2953(2) 0.53074(10) 0.39200(16)
H5 H 0.3250 0.5481 0.4764
C12 C 0.2820(2) 0.57862(10) 0.29026(17)
C13 C 0.2297(2) 0.55274(10) 0.16481(17)
H6 H 0.2146 0.5849 0.0958
C14 C 0.2000(2) 0.47933(10) 0.14195(16)
H7 H 0.1660 0.4625 0.0572
C15 C 0.3968(2) 0.28167(10) 0.39254(16)
C16 C 0.4238(3) 0.21487(12) 0.4729(2)
H8 H 0.5219 0.2219 0.5479
H9 H 0.4483 0.1746 0.4235
H10 H 0.3187 0.2048 0.4993
C17 C -0.2939(3) 0.15712(12) -0.2296(2)
H11 H -0.3638 0.1226 -0.2891
H12 H -0.2239 0.1853 -0.2727
H13 H -0.3707 0.1889 -0.1988
C18 C 0.2729(3) 0.03830(11) 0.26189(19)
H14 H 0.3621 0.0186 0.3335
H15 H 0.2942 0.0223 0.1824
H16 H 0.1583 0.0218 0.2657
loop_
_geom_bond_atom_site_label_1
_geom_bond_atom_site_label_2
_geom_bond_site_symmetry_1
_geom_bond_site_symmetry_2
O1 C1 1_555 1_555
O2 H1 1_555 1_555
O3 C15 1_555 1_555
O4 C6 1_555 1_555
O5 C8 1_555 1_555
C1 C2 1_555 1_555
C2 C3 1_555 1_555
C3 C4 1_555 1_555
C4 O1 1_555 1_555
C5 C4 1_555 1_555
H2 C5 1_555 1_555
C6 C5 1_555 1_555
C7 C6 1_555 1_555
H3 C7 1_555 1_555
C8 C3 1_555 1_555
C9 C1 1_555 1_555
C10 C9 1_555 1_555
H4 C10 1_555 1_555
C11 C10 1_555 1_555
H5 C11 1_555 1_555
C12 O2 1_555 1_555
C13 C12 1_555 1_555
H6 C13 1_555 1_555
C14 C9 1_555 1_555
H7 C14 1_555 1_555
C15 C2 1_555 1_555
C16 C15 1_555 1_555
H8 C16 1_555 1_555
H9 C16 1_555 1_555
H10 C16 1_555 1_555
C17 O4 1_555 1_555
H11 C17 1_555 1_555
H12 C17 1_555 1_555
H13 C17 1_555 1_555
C18 O5 1_555 1_555
H14 C18 1_555 1_555
H15 C18 1_555 1_555
H16 C18 1_555 1_555
C7 C8 1_555 1_555
C11 C12 1_555 1_555
C13 C14 1_555 1_555

#END
