
#######################################################################
#
#                 Cambridge Crystallographic Data Centre
#                                CCDC 
#
#######################################################################
#
# If this CIF has been generated from an entry in the Cambridge 
# Structural Database, then it will include bibliographic, chemical, 
# crystal, experimental, refinement or atomic coordinate data resulting 
# from the CCDC's data processing and validation procedures.
#
#######################################################################

data_GEJROF
_chemical_formula_moiety         'C35 H30 N1 O1 1+,B1 F4 1-,C1 H2 Cl2'
_chemical_name_systematic        
'6-(4-methoxynaphthalen-1-yl)-3,4-diphenyl-2-propylisoquinolin-2-ium tetrafluoroborate dichloromethane solvate'
_symmetry_cell_setting           monoclinic
_symmetry_space_group_name_H-M   'P 21'
_symmetry_Int_Tables_number      4
_space_group_name_Hall           'P 2yb'
loop_
_symmetry_equiv_pos_site_id
_symmetry_equiv_pos_as_xyz
1 x,y,z
2 -x,1/2+y,-z
_cell_length_a                   14.0373(3)
_cell_length_b                   7.82360(12)
_cell_length_c                   15.1597(3)
_cell_angle_alpha                90
_cell_angle_beta                 108.186(2)
_cell_angle_gamma                90
_cell_volume                     1581.71
_exptl_crystal_colour            colorless
_exptl_crystal_description       needle
_chemical_melting_point          '523 K'
_cell_formula_units_Z            2
_exptl_crystal_preparation       ', Luminescent'
loop_
_atom_site_label
_atom_site_type_symbol
_atom_site_fract_x
_atom_site_fract_y
_atom_site_fract_z
O1 O -0.20568(19) 0.3603(4) -0.04670(18)
N1 N 0.5333(2) 0.1597(4) 0.38999(18)
C1 C 0.5248(2) 0.1720(5) 0.2958(2)
C2 C 0.4313(2) 0.1921(5) 0.2321(2)
C3 C 0.3445(3) 0.2073(5) 0.2618(2)
C4 C 0.2460(3) 0.2321(5) 0.2001(2)
H1 H 0.2353 0.2333 0.1351
C5 C 0.1657(3) 0.2546(5) 0.2330(2)
C6 C 0.1817(3) 0.2526(5) 0.3309(2)
H2 H 0.1266 0.2701 0.3537
C7 C 0.2746(3) 0.2260(5) 0.3917(2)
H3 H 0.2840 0.2225 0.4565
C8 C 0.3577(3) 0.2035(5) 0.3581(2)
C9 C 0.4545(2) 0.1755(5) 0.4192(2)
H4 H 0.4636 0.1676 0.4839
C10 C 0.6328(2) 0.1373(5) 0.4624(2)
H5 H 0.6764 0.0661 0.4370
H6 H 0.6237 0.0768 0.5165
C11 C 0.6830(3) 0.3068(6) 0.4934(3)
H7 H 0.6375 0.3823 0.5139
H8 H 0.6986 0.3629 0.4410
C12 C 0.7797(3) 0.2782(6) 0.5734(3)
H9 H 0.8243 0.2023 0.5530
H10 H 0.7638 0.2259 0.6258
H11 H 0.8132 0.3881 0.5928
C13 C 0.6190(2) 0.1718(5) 0.2697(2)
C14 C 0.6526(3) 0.3270(5) 0.2439(2)
H12 H 0.6153 0.4289 0.2423
C15 C 0.7407(3) 0.3309(6) 0.2206(2)
H13 H 0.7638 0.4359 0.2032
C16 C 0.7953(2) 0.1820(6) 0.2227(2)
H14 H 0.8555 0.1850 0.2066
C17 C 0.7617(3) 0.0300(6) 0.2481(3)
H15 H 0.7995 -0.0714 0.2502
C18 C 0.6730(3) 0.0234(5) 0.2708(2)
H16 H 0.6497 -0.0825 0.2870
C19 C 0.4189(2) 0.2001(5) 0.1303(2)
C20 C 0.3949(3) 0.3545(6) 0.0832(2)
H17 H 0.3898 0.4555 0.1162
C21 C 0.3783(3) 0.3618(6) -0.0127(3)
H18 H 0.3620 0.4671 -0.0452
C22 C 0.3860(3) 0.2120(7) -0.0599(2)
H19 H 0.3745 0.2154 -0.1250
C23 C 0.4098(3) 0.0609(7) -0.0137(2)
H20 H 0.4151 -0.0400 -0.0468
C24 C 0.4267(2) 0.0529(6) 0.0824(2)
H21 H 0.4434 -0.0527 0.1144
C25 C 0.0640(2) 0.2781(5) 0.1645(2)
C26 C 0.0262(2) 0.1544(6) 0.1000(2)
H22 H 0.0628 0.0512 0.1032
C27 C -0.0662(3) 0.1747(6) 0.0281(2)
H23 H -0.0911 0.0852 -0.0154
C28 C -0.1190(3) 0.3221(5) 0.0214(2)
C29 C -0.0829(2) 0.4570(5) 0.0874(2)
C30 C -0.1351(3) 0.6148(6) 0.0791(2)
H24 H -0.1971 0.6294 0.0312
C31 C -0.0967(3) 0.7455(6) 0.1394(3)
H25 H -0.1315 0.8513 0.1328
C32 C -0.0058(3) 0.7236(6) 0.2113(3)
H26 H 0.0205 0.8151 0.2530
C33 C 0.0450(3) 0.5735(6) 0.2219(2)
H27 H 0.1057 0.5613 0.2716
C34 C 0.0093(3) 0.4344(5) 0.1603(2)
C35 C -0.2404(3) 0.2387(8) -0.1199(3)
H28 H -0.3050 0.2765 -0.1625
H29 H -0.2487 0.1272 -0.0937
H30 H -0.1915 0.2290 -0.1537
C36 C 0.0701(5) 0.0438(13) 0.5750(5)
H31 H 0.0356 0.0831 0.6192
H32 H 0.0880 -0.0780 0.5884
Cl1 Cl -0.01411(11) 0.0618(3) 0.45946(11)
Cl2 Cl 0.17857(9) 0.1612(2) 0.59230(8)
B1 B 0.4917(3) 0.6946(6) 0.3282(3)
F1 F 0.4732(2) 0.5381(3) 0.36077(16)
F2 F 0.49672(17) 0.6829(3) 0.23825(13)
F3 F 0.58283(18) 0.7585(4) 0.38689(15)
F4 F 0.4164(2) 0.8081(4) 0.33041(19)
loop_
_geom_bond_atom_site_label_1
_geom_bond_atom_site_label_2
_geom_bond_site_symmetry_1
_geom_bond_site_symmetry_2
O1 C28 1_555 1_555
N1 C1 1_555 1_555
C1 C2 1_555 1_555
C2 C3 1_555 1_555
C3 C4 1_555 1_555
C4 H1 1_555 1_555
C5 C4 1_555 1_555
C6 C5 1_555 1_555
H2 C6 1_555 1_555
C7 C6 1_555 1_555
H3 C7 1_555 1_555
C8 C3 1_555 1_555
C9 N1 1_555 1_555
H4 C9 1_555 1_555
C10 N1 1_555 1_555
H5 C10 1_555 1_555
H6 C10 1_555 1_555
C11 C10 1_555 1_555
H7 C11 1_555 1_555
H8 C11 1_555 1_555
C12 C11 1_555 1_555
H9 C12 1_555 1_555
H10 C12 1_555 1_555
H11 C12 1_555 1_555
C13 C1 1_555 1_555
C14 C13 1_555 1_555
H12 C14 1_555 1_555
C15 C14 1_555 1_555
H13 C15 1_555 1_555
C16 C15 1_555 1_555
H14 C16 1_555 1_555
C17 C16 1_555 1_555
H15 C17 1_555 1_555
C18 C13 1_555 1_555
H16 C18 1_555 1_555
C19 C2 1_555 1_555
C20 C19 1_555 1_555
H17 C20 1_555 1_555
C21 C20 1_555 1_555
H18 C21 1_555 1_555
C22 C21 1_555 1_555
H19 C22 1_555 1_555
C23 C22 1_555 1_555
H20 C23 1_555 1_555
C24 C19 1_555 1_555
H21 C24 1_555 1_555
C25 C5 1_555 1_555
C26 C25 1_555 1_555
H22 C26 1_555 1_555
C27 C26 1_555 1_555
H23 C27 1_555 1_555
C28 C27 1_555 1_555
C29 C28 1_555 1_555
C30 C29 1_555 1_555
H24 C30 1_555 1_555
C31 C30 1_555 1_555
H25 C31 1_555 1_555
C32 C31 1_555 1_555
H26 C32 1_555 1_555
C33 C32 1_555 1_555
H27 C33 1_555 1_555
C34 C25 1_555 1_555
C35 O1 1_555 1_555
H28 C35 1_555 1_555
H29 C35 1_555 1_555
H30 C35 1_555 1_555
C36 H31 1_555 1_555
H32 C36 1_555 1_555
Cl1 C36 1_555 1_555
Cl2 C36 1_555 1_555
B1 F1 1_555 1_555
F2 B1 1_555 1_555
F3 B1 1_555 1_555
F4 B1 1_555 1_555
C7 C8 1_555 1_555
C8 C9 1_555 1_555
C17 C18 1_555 1_555
C23 C24 1_555 1_555
C29 C34 1_555 1_555
C33 C34 1_555 1_555

#END
