
#######################################################################
#
#                 Cambridge Crystallographic Data Centre
#                                CCDC 
#
#######################################################################
#
# If this CIF has been generated from an entry in the Cambridge 
# Structural Database, then it will include bibliographic, chemical, 
# crystal, experimental, refinement or atomic coordinate data resulting 
# from the CCDC's data processing and validation procedures.
#
#######################################################################

data_GEJRIZ
_chemical_formula_moiety         'C36 H31 N2 1+,F6 P1 1-'
_chemical_name_systematic        
'6-diphenylamino-3,4-diphenyl-2-propylisoquinolin-2-ium hexafluorophosphate'
_symmetry_cell_setting           monoclinic
_symmetry_space_group_name_H-M   'P 21/n'
_symmetry_Int_Tables_number      14
_space_group_name_Hall           '-P 2yn'
loop_
_symmetry_equiv_pos_site_id
_symmetry_equiv_pos_as_xyz
1 x,y,z
2 1/2-x,1/2+y,1/2-z
3 -x,-y,-z
4 1/2+x,1/2-y,1/2+z
_cell_length_a                   12.54520(14)
_cell_length_b                   10.87745(13)
_cell_length_c                   22.4545(2)
_cell_angle_alpha                90
_cell_angle_beta                 90.0403(10)
_cell_angle_gamma                90
_cell_volume                     3064.14
_exptl_crystal_colour            yellow
_exptl_crystal_description       block
_cell_formula_units_Z            4
_exptl_crystal_recrystallization_method hexane/tetrahydrofuran
_exptl_crystal_preparation       ', Luminescent'
loop_
_atom_site_label
_atom_site_type_symbol
_atom_site_fract_x
_atom_site_fract_y
_atom_site_fract_z
N1 N 0.7926(2) 0.5710(3) 0.41261(15)
N2 N 0.56934(9) 0.20257(10) 0.59651(5)
C1 C 0.7200(4) 0.5013(5) 0.3813(3)
C2 C 0.65850(10) 0.41483(11) 0.41009(5)
C3 C 0.67111(9) 0.39484(11) 0.47277(5)
C4 C 0.61076(10) 0.30842(11) 0.50416(5)
H1 H 0.5586 0.2635 0.4843
C5 C 0.62768(10) 0.28869(11) 0.56449(5)
C6 C 0.70726(10) 0.35969(12) 0.59458(5)
H2 H 0.7181 0.3483 0.6352
C7 C 0.76722(10) 0.44340(12) 0.56478(6)
H3 H 0.8189 0.4883 0.5850
C8 C 0.75148(10) 0.46271(12) 0.50279(5)
C9 C 0.8087(3) 0.5513(4) 0.4711(2)
H4 H 0.8595 0.5980 0.4911
C10 C 0.85477(15) 0.67107(18) 0.38434(8)
H5 H 0.8520 0.7429 0.4099
H6 H 0.8211 0.6926 0.3469
C11 C 0.97002(17) 0.6399(2) 0.37258(9)
H7 H 0.9745 0.5781 0.3416
H8 H 1.0022 0.6067 0.4084
C12 C 1.0299(4) 0.7551(7) 0.3533(2)
H9 H 0.9946 0.7913 0.3196
H10 H 1.1016 0.7337 0.3425
H11 H 1.0312 0.8131 0.3855
C13 C 0.71414(12) 0.51531(14) 0.31532(6)
C14 C 0.62655(14) 0.57920(14) 0.29344(7)
H12 H 0.5783 0.6151 0.3196
C15 C 0.61108(15) 0.58947(16) 0.23231(7)
H13 H 0.5527 0.6326 0.2176
C16 C 0.68276(13) 0.53529(15) 0.19338(6)
H14 H 0.6724 0.5421 0.1525
C17 C 0.76915(12) 0.47153(17) 0.21507(7)
H15 H 0.8168 0.4349 0.1888
C18 C 0.78546(12) 0.46164(17) 0.27618(6)
H16 H 0.8442 0.4190 0.2907
C19 C 0.57295(10) 0.34858(11) 0.37711(5)
C20 C 0.46633(10) 0.37065(13) 0.39154(6)
H17 H 0.4495 0.4269 0.4213
C21 C 0.38544(11) 0.30900(14) 0.36174(6)
H18 H 0.3146 0.3238 0.3716
C22 C 0.41008(12) 0.22557(14) 0.31734(7)
H19 H 0.3558 0.1854 0.2968
C23 C 0.51551(13) 0.20199(13) 0.30347(6)
H20 H 0.5319 0.1448 0.2741
C24 C 0.59717(11) 0.26296(12) 0.33308(6)
H21 H 0.6679 0.2466 0.3235
C25 C 0.47229(10) 0.15099(12) 0.57416(5)
C26 C 0.45028(11) 0.02648(12) 0.58232(6)
H22 H 0.4991 -0.0238 0.6018
C27 C 0.35486(11) -0.02220(12) 0.56126(6)
H23 H 0.3389 -0.1043 0.5686
C28 C 0.28334(11) 0.04921(14) 0.52966(6)
H24 H 0.2209 0.0152 0.5146
C29 C 0.30650(11) 0.17273(14) 0.52074(6)
H25 H 0.2600 0.2212 0.4986
C30 C 0.39805(10) 0.22465(13) 0.54447(6)
H26 H 0.4101 0.3086 0.5406
C31 C 0.61995(11) 0.14542(12) 0.64717(6)
C32 C 0.57382(13) 0.15416(13) 0.70316(6)
H27 H 0.5082 0.1926 0.7080
C33 C 0.62698(15) 0.10474(15) 0.75210(6)
H28 H 0.5969 0.1105 0.7898
C34 C 0.72432(14) 0.04708(14) 0.74475(7)
H29 H 0.7601 0.0157 0.7777
C35 C 0.76875(13) 0.03579(14) 0.68865(8)
H30 H 0.8335 -0.0045 0.6838
C36 C 0.71620(11) 0.08497(13) 0.63957(6)
H31 H 0.7456 0.0773 0.6017
P1 P 0.99781(3) 0.24119(3) 0.42656(2)
F1 F 0.98032(8) 0.37132(10) 0.45928(5)
F2 F 1.01712(9) 0.11465(10) 0.39373(5)
F3 F 0.88185(8) 0.19944(11) 0.44516(5)
F4 F 0.95111(10) 0.29895(10) 0.36656(5)
F5 F 1.11499(8) 0.28727(11) 0.40795(5)
F6 F 1.04666(9) 0.18790(11) 0.48658(4)
N3? N 0.8194(5) 0.5352(6) 0.4116(3)
C37? C 0.7388(13) 0.4747(13) 0.3792(9)
C38? C 0.8300(10) 0.5219(10) 0.4694(7)
H32? H 0.8905 0.5522 0.4883
C39? C 0.9131(4) 0.5959(5) 0.3810(2)
H33? H 0.9754 0.5893 0.4064
H34? H 0.9282 0.5524 0.3442
C40? C 0.8934(5) 0.7287(6) 0.3671(3)
H35? H 0.8607 0.7686 0.4012
H36? H 0.8449 0.7354 0.3336
C41? C 0.9990(15) 0.7923(13) 0.3521(6)
H37? H 0.9859 0.8772 0.3430
H38? H 1.0309 0.7529 0.3183
H39? H 1.0463 0.7867 0.3856
loop_
_geom_bond_atom_site_label_1
_geom_bond_atom_site_label_2
_geom_bond_site_symmetry_1
_geom_bond_site_symmetry_2
N1 C1 1_555 1_555
N2 C5 1_555 1_555
C1 C2 1_555 1_555
C2 C3 1_555 1_555
C3 C4 1_555 1_555
C4 H1 1_555 1_555
C5 C4 1_555 1_555
C6 C5 1_555 1_555
H2 C6 1_555 1_555
C7 C6 1_555 1_555
H3 C7 1_555 1_555
C8 C3 1_555 1_555
C9 N1 1_555 1_555
H4 C9 1_555 1_555
C10 N1 1_555 1_555
H5 C10 1_555 1_555
H6 C10 1_555 1_555
C11 C10 1_555 1_555
H7 C11 1_555 1_555
H8 C11 1_555 1_555
C12 C11 1_555 1_555
H9 C12 1_555 1_555
H10 C12 1_555 1_555
H11 C12 1_555 1_555
C13 C1 1_555 1_555
C14 C13 1_555 1_555
H12 C14 1_555 1_555
C15 C14 1_555 1_555
H13 C15 1_555 1_555
C16 C15 1_555 1_555
H14 C16 1_555 1_555
C17 C16 1_555 1_555
H15 C17 1_555 1_555
C18 C13 1_555 1_555
H16 C18 1_555 1_555
C19 C2 1_555 1_555
C20 C19 1_555 1_555
H17 C20 1_555 1_555
C21 C20 1_555 1_555
H18 C21 1_555 1_555
C22 C21 1_555 1_555
H19 C22 1_555 1_555
C23 C22 1_555 1_555
H20 C23 1_555 1_555
C24 C19 1_555 1_555
H21 C24 1_555 1_555
C25 N2 1_555 1_555
C26 C25 1_555 1_555
H22 C26 1_555 1_555
C27 C26 1_555 1_555
H23 C27 1_555 1_555
C28 C27 1_555 1_555
H24 C28 1_555 1_555
C29 C28 1_555 1_555
H25 C29 1_555 1_555
C30 C25 1_555 1_555
H26 C30 1_555 1_555
C31 N2 1_555 1_555
C32 C31 1_555 1_555
H27 C32 1_555 1_555
C33 C32 1_555 1_555
H28 C33 1_555 1_555
C34 C33 1_555 1_555
H29 C34 1_555 1_555
C35 C34 1_555 1_555
H30 C35 1_555 1_555
C36 C31 1_555 1_555
H31 C36 1_555 1_555
P1 F1 1_555 1_555
F2 P1 1_555 1_555
F3 P1 1_555 1_555
F4 P1 1_555 1_555
F5 P1 1_555 1_555
F6 P1 1_555 1_555
C7 C8 1_555 1_555
C8 C9 1_555 1_555
C17 C18 1_555 1_555
C23 C24 1_555 1_555
C29 C30 1_555 1_555
C35 C36 1_555 1_555

#END
