
#######################################################################
#
#                 Cambridge Crystallographic Data Centre
#                                CCDC 
#
#######################################################################
#
# If this CIF has been generated from an entry in the Cambridge 
# Structural Database, then it will include bibliographic, chemical, 
# crystal, experimental, refinement or atomic coordinate data resulting 
# from the CCDC's data processing and validation procedures.
#
#######################################################################

data_GEJTUL
_chemical_formula_moiety         'C29 H29 N3 O4'
_chemical_name_systematic        
1,4-bis(p-Methylstyryl)-2-(piperidine-1-yl)-3,5-dinitrobenzene
_symmetry_cell_setting           triclinic
_symmetry_space_group_name_H-M   'P -1'
_symmetry_Int_Tables_number      2
_space_group_name_Hall           '-P 1'
loop_
_symmetry_equiv_pos_site_id
_symmetry_equiv_pos_as_xyz
1 x,y,z
2 -x,-y,-z
_cell_length_a                   8.226(1)
_cell_length_b                   10.613(1)
_cell_length_c                   14.889(2)
_cell_angle_alpha                91.89(1)
_cell_angle_beta                 102.42(1)
_cell_angle_gamma                94.58(1)
_cell_volume                     1263.69
_cell_formula_units_Z            2
loop_
_atom_site_label
_atom_site_type_symbol
_atom_site_fract_x
_atom_site_fract_y
_atom_site_fract_z
O1 O 0.1966(2) 0.15478(18) 0.30286(11)
O2 O 0.3184(2) 0.02706(16) 0.40051(12)
O3 O 0.9356(2) 0.43027(17) 0.39641(11)
O4 O 0.73481(19) 0.48097(15) 0.28875(11)
N1 N 0.3034(2) 0.1312(2) 0.36859(13)
N2 N 0.7868(2) 0.42967(17) 0.35992(13)
N3 N 0.32472(18) 0.22283(15) 0.55761(10)
C1 C 0.4283(2) 0.23514(18) 0.41404(13)
C2 C 0.4415(2) 0.26695(17) 0.50751(13)
C3 C 0.5793(2) 0.35181(18) 0.55228(13)
C4 C 0.6909(2) 0.39898(18) 0.50057(13)
H1 H 0.7828 0.4537 0.5291
C5 C 0.6679(2) 0.36630(18) 0.40850(13)
C6 C 0.5366(2) 0.28294(18) 0.36025(13)
C7 C 0.5271(3) 0.24075(19) 0.26369(13)
H2 H 0.4290 0.2480 0.2202
C8 C 0.6536(3) 0.19292(19) 0.23689(13)
H3 H 0.7456 0.1802 0.2833
C9 C 0.6661(3) 0.15777(19) 0.14313(13)
C10 C 0.5587(3) 0.1966(2) 0.06564(15)
H4 H 0.4729 0.2453 0.0732
C11 C 0.5761(3) 0.1647(2) -0.02185(15)
H5 H 0.5024 0.1928 -0.0721
C12 C 0.7004(3) 0.0922(2) -0.03671(15)
C13 C 0.8050(3) 0.0511(2) 0.03999(16)
H6 H 0.8873 -0.0008 0.0321
C14 C 0.7910(3) 0.0849(2) 0.12811(14)
H7 H 0.8666 0.0583 0.1782
C15 C 0.7213(3) 0.0600(3) -0.13303(15)
H8 H 0.6135 0.0475 -0.1741
H9 H 0.7770 -0.0161 -0.1331
H10 H 0.7868 0.1281 -0.1530
C16 C 0.6005(2) 0.39636(18) 0.64883(13)
H11 H 0.5090 0.3819 0.6757
C17 C 0.7383(2) 0.4554(2) 0.70115(14)
H12 H 0.8297 0.4677 0.6740
C18 C 0.7625(2) 0.5033(2) 0.79671(13)
C19 C 0.6661(3) 0.4595(2) 0.85607(15)
H13 H 0.5792 0.3969 0.8351
C20 C 0.6961(3) 0.5070(2) 0.94606(16)
H14 H 0.6301 0.4741 0.9847
C21 C 0.8204(3) 0.6014(2) 0.98032(15)
C22 C 0.9176(3) 0.6441(2) 0.92182(16)
H15 H 1.0037 0.7073 0.9430
C23 C 0.8909(3) 0.5959(2) 0.83227(15)
H16 H 0.9608 0.6262 0.7948
C24 C 0.8498(4) 0.6537(3) 1.07868(16)
H17 H 0.9678 0.6696 1.1035
H18 H 0.8027 0.5935 1.1148
H19 H 0.7977 0.7313 1.0802
C25 C 0.1478(2) 0.1948(2) 0.51483(14)
H20 H 0.1280 0.1081 0.4896
H21 H 0.1162 0.2502 0.4647
C26 C 0.0427(3) 0.2134(2) 0.58552(15)
H22 H 0.0540 0.3021 0.6057
H23 H -0.0739 0.1899 0.5573
C27 C 0.0952(3) 0.1345(2) 0.66811(15)
H24 H 0.0695 0.0454 0.6497
H25 H 0.0335 0.1545 0.7146
C28 C 0.2814(3) 0.1613(2) 0.70786(14)
H26 H 0.3046 0.2476 0.7337
H27 H 0.3158 0.1050 0.7571
C29 C 0.3793(2) 0.1427(2) 0.63439(13)
H28 H 0.4974 0.1636 0.6604
H29 H 0.3635 0.0546 0.6122
loop_
_geom_bond_atom_site_label_1
_geom_bond_atom_site_label_2
_geom_bond_site_symmetry_1
_geom_bond_site_symmetry_2
O1 N1 1_555 1_555
O2 N1 1_555 1_555
O3 N2 1_555 1_555
O4 N2 1_555 1_555
N1 C1 1_555 1_555
N2 C5 1_555 1_555
N3 C2 1_555 1_555
C1 C2 1_555 1_555
C2 C3 1_555 1_555
C3 C4 1_555 1_555
C4 H1 1_555 1_555
C5 C4 1_555 1_555
C6 C1 1_555 1_555
C7 C6 1_555 1_555
H2 C7 1_555 1_555
C8 C7 1_555 1_555
H3 C8 1_555 1_555
C9 C8 1_555 1_555
C10 C9 1_555 1_555
H4 C10 1_555 1_555
C11 C10 1_555 1_555
H5 C11 1_555 1_555
C12 C11 1_555 1_555
C13 C12 1_555 1_555
H6 C13 1_555 1_555
C14 C9 1_555 1_555
H7 C14 1_555 1_555
C15 C12 1_555 1_555
H8 C15 1_555 1_555
H9 C15 1_555 1_555
H10 C15 1_555 1_555
C16 C3 1_555 1_555
H11 C16 1_555 1_555
C17 C16 1_555 1_555
H12 C17 1_555 1_555
C18 C17 1_555 1_555
C19 C18 1_555 1_555
H13 C19 1_555 1_555
C20 C19 1_555 1_555
H14 C20 1_555 1_555
C21 C20 1_555 1_555
C22 C21 1_555 1_555
H15 C22 1_555 1_555
C23 C18 1_555 1_555
H16 C23 1_555 1_555
C24 C21 1_555 1_555
H17 C24 1_555 1_555
H18 C24 1_555 1_555
H19 C24 1_555 1_555
C25 N3 1_555 1_555
H20 C25 1_555 1_555
H21 C25 1_555 1_555
C26 C25 1_555 1_555
H22 C26 1_555 1_555
H23 C26 1_555 1_555
C27 C26 1_555 1_555
H24 C27 1_555 1_555
H25 C27 1_555 1_555
C28 C27 1_555 1_555
H26 C28 1_555 1_555
H27 C28 1_555 1_555
C29 N3 1_555 1_555
H28 C29 1_555 1_555
H29 C29 1_555 1_555
C5 C6 1_555 1_555
C13 C14 1_555 1_555
C22 C23 1_555 1_555
C28 C29 1_555 1_555

#END
