
#######################################################################
#
#                 Cambridge Crystallographic Data Centre
#                                CCDC 
#
#######################################################################
#
# If this CIF has been generated from an entry in the Cambridge 
# Structural Database, then it will include bibliographic, chemical, 
# crystal, experimental, refinement or atomic coordinate data resulting 
# from the CCDC's data processing and validation procedures.
#
#######################################################################

data_GEJVAT
_chemical_formula_moiety         'C24 H19 N3 O6'
_chemical_name_systematic        1,4-bis(p-Methylstyryl)-2,3,5-trinitrobenzene
_symmetry_cell_setting           triclinic
_symmetry_space_group_name_H-M   'P -1'
_symmetry_Int_Tables_number      2
_space_group_name_Hall           '-P 1'
loop_
_symmetry_equiv_pos_site_id
_symmetry_equiv_pos_as_xyz
1 x,y,z
2 -x,-y,-z
_cell_length_a                   8.312(2)
_cell_length_b                   8.537(2)
_cell_length_c                   16.733(4)
_cell_angle_alpha                89.12(2)
_cell_angle_beta                 87.11(2)
_cell_angle_gamma                66.10(2)
_cell_volume                     1084.16
_exptl_crystal_colour            'pale yellow'
_cell_formula_units_Z            2
_exptl_crystal_recrystallization_method acetone
loop_
_atom_site_label
_atom_site_type_symbol
_atom_site_fract_x
_atom_site_fract_y
_atom_site_fract_z
O1 O 0.7213(2) 0.15279(19) 0.58148(10)
O2 O 0.8221(2) 0.1996(2) 0.69086(10)
O3 O 0.4558(2) 0.2864(2) 0.73835(11)
O4 O 0.4796(3) 0.4683(2) 0.82018(11)
O5 O 0.3905(3) 1.0506(2) 0.59155(13)
O6 O 0.1625(2) 0.9932(2) 0.58986(11)
N1 N 0.7310(2) 0.2463(2) 0.63333(12)
N2 N 0.4759(3) 0.4163(3) 0.75378(12)
N3 N 0.3172(3) 0.9535(2) 0.59808(11)
C1 C 1.3086(3) 0.2360(4) 0.15641(15)
H1 H 1.3770 0.1154 0.1624
H2 H 1.3862 0.2936 0.1483
H3 H 1.2367 0.2548 0.1111
C2 C 1.1923(3) 0.3056(3) 0.23099(14)
C3 C 1.1915(3) 0.2000(3) 0.29509(14)
H7 H 1.2691 0.0852 0.2932
C4 C 1.0789(3) 0.2615(3) 0.36096(13)
H8 H 1.0812 0.1875 0.4027
C5 C 0.9611(3) 0.4327(3) 0.36644(12)
C6 C 0.9668(3) 0.5390(3) 0.30341(14)
H9 H 0.8924 0.6548 0.3058
C7 C 1.0802(3) 0.4763(3) 0.23769(14)
H10 H 1.0814 0.5509 0.1968
C8 C 0.8321(3) 0.5056(3) 0.43284(13)
H11 H 0.7636 0.6226 0.4296
C9 C 0.7988(3) 0.4296(3) 0.49679(12)
H12 H 0.8669 0.3131 0.5027
C10 C 0.6622(3) 0.5153(2) 0.55910(12)
C11 C 0.6258(3) 0.4315(2) 0.62508(12)
C12 C 0.4999(3) 0.5167(3) 0.68486(12)
C13 C 0.3954(3) 0.6928(3) 0.68269(12)
C14 C 0.4292(3) 0.7709(2) 0.61384(12)
C15 C 0.5570(3) 0.6919(2) 0.55618(12)
H13 H 0.5750 0.7560 0.5140
C16 C 0.2640(3) 0.7868(3) 0.74639(13)
H14 H 0.1851 0.7421 0.7665
C17 C 0.2554(3) 0.9342(3) 0.77600(13)
H15 H 0.3362 0.9750 0.7543
C18 C 0.1309(3) 1.0393(3) 0.83970(13)
C19 C 0.1733(4) 1.1518(3) 0.88385(14)
H16 H 0.2798 1.1615 0.8732
C20 C 0.0565(5) 1.2505(3) 0.94419(16)
H17 H 0.0877 1.3243 0.9739
C21 C -0.1043(4) 1.2427(3) 0.96148(16)
C22 C -0.1439(4) 1.1322(4) 0.91641(17)
H18 H -0.2517 1.1247 0.9262
C23 C -0.0303(3) 1.0317(3) 0.85719(15)
H19 H -0.0622 0.9572 0.8284
C24 C -0.2281(5) 1.3532(4) 1.02556(18)
H20 H -0.1755 1.4210 1.0499
H21 H -0.2521 1.2823 1.0653
H22 H -0.3361 1.4274 1.0026
H4? H 1.2896 0.3271 0.1188
H5? H 1.2804 0.1489 0.1330
H6? H 1.4299 0.1877 0.1701
H23? H -0.3336 1.3328 1.0286
H24? H -0.2570 1.4715 1.0132
H25? H -0.1731 1.3264 1.0760
loop_
_geom_bond_atom_site_label_1
_geom_bond_atom_site_label_2
_geom_bond_site_symmetry_1
_geom_bond_site_symmetry_2
O1 N1 1_555 1_555
O2 N1 1_555 1_555
O3 N2 1_555 1_555
O4 N2 1_555 1_555
O5 N3 1_555 1_555
O6 N3 1_555 1_555
N1 C11 1_555 1_555
N2 C12 1_555 1_555
N3 C14 1_555 1_555
C1 H1 1_555 1_555
H2 C1 1_555 1_555
H3 C1 1_555 1_555
C2 C1 1_555 1_555
C3 C2 1_555 1_555
H7 C3 1_555 1_555
C4 C3 1_555 1_555
H8 C4 1_555 1_555
C5 C4 1_555 1_555
C6 C5 1_555 1_555
H9 C6 1_555 1_555
C7 C2 1_555 1_555
H10 C7 1_555 1_555
C8 C5 1_555 1_555
H11 C8 1_555 1_555
C9 C8 1_555 1_555
H12 C9 1_555 1_555
C10 C9 1_555 1_555
C11 C10 1_555 1_555
C12 C11 1_555 1_555
C13 C12 1_555 1_555
C14 C13 1_555 1_555
C15 C10 1_555 1_555
H13 C15 1_555 1_555
C16 C13 1_555 1_555
H14 C16 1_555 1_555
C17 C16 1_555 1_555
H15 C17 1_555 1_555
C18 C17 1_555 1_555
C19 C18 1_555 1_555
H16 C19 1_555 1_555
C20 C19 1_555 1_555
H17 C20 1_555 1_555
C21 C20 1_555 1_555
C22 C21 1_555 1_555
H18 C22 1_555 1_555
C23 C18 1_555 1_555
H19 C23 1_555 1_555
C24 C21 1_555 1_555
H20 C24 1_555 1_555
H21 C24 1_555 1_555
H22 C24 1_555 1_555
C6 C7 1_555 1_555
C14 C15 1_555 1_555
C22 C23 1_555 1_555

#END
