
#######################################################################
#
#                 Cambridge Crystallographic Data Centre
#                                CCDC 
#
#######################################################################
#
# If this CIF has been generated from an entry in the Cambridge 
# Structural Database, then it will include bibliographic, chemical, 
# crystal, experimental, refinement or atomic coordinate data resulting 
# from the CCDC's data processing and validation procedures.
#
#######################################################################

data_GEJYAW
_chemical_formula_moiety         'C22 H28 N8 O2,4(H2 O1)'
_chemical_name_systematic        
'29,30-Dioxo-3,6,9,17,20,23,29,40-octa-azapentacyclo(23.3.1.1^11,15^.0^2,6^.0^16,20^)triaconta-1(28),9,11(12),13,15(30),23,25(29),26-octaene tetrahydrate'
_symmetry_cell_setting           triclinic
_symmetry_space_group_name_H-M   'P -1'
_symmetry_Int_Tables_number      2
_space_group_name_Hall           '-P 1'
loop_
_symmetry_equiv_pos_site_id
_symmetry_equiv_pos_as_xyz
1 x,y,z
2 -x,-y,-z
_cell_length_a                   8.6969(2)
_cell_length_b                   9.07890(10)
_cell_length_c                   9.08280(10)
_cell_angle_alpha                114.1670(10)
_cell_angle_beta                 104.229(2)
_cell_angle_gamma                93.760(2)
_cell_volume                     622.932
_exptl_crystal_colour            colorless
_exptl_crystal_description       block
_cell_formula_units_Z            1
loop_
_atom_site_label
_atom_site_type_symbol
_atom_site_fract_x
_atom_site_fract_y
_atom_site_fract_z
O1 O 0.2371(2) 0.3890(2) 0.4463(2)
N1 N 0.3562(2) 0.4404(2) 0.5845(2)
N2 N 0.0747(2) 0.5625(2) 0.7202(2)
H1 H -0.0201(2) 0.5659(2) 0.6505(2)
N3 N 0.2445(2) 0.8250(2) 0.8434(2)
N4 N 0.4034(2) 0.8532(2) 0.5794(2)
C1 C 0.4838(2) 0.3593(2) 0.5880(2)
C2 C 0.6085(2) 0.4136(3) 0.7359(3)
H2 H 0.6988(2) 0.3496(3) 0.7348(3)
C3 C 0.6080(2) 0.5464(3) 0.8787(3)
H3 H 0.6896(2) 0.5842(3) 0.9818(3)
C4 C 0.4797(2) 0.6279(2) 0.8705(2)
H4 H 0.4748(2) 0.7187(2) 0.9603(2)
C5 C 0.3546(2) 0.5761(2) 0.7245(2)
C6 C 0.2101(2) 0.6569(2) 0.7062(3)
H5 H 0.1822(2) 0.6558(2) 0.5959(3)
C7 C 0.0706(3) 0.6579(3) 0.8938(3)
H6 H 0.1480(3) 0.6297(3) 0.9708(3)
H7 H -0.0509(3) 0.6411(3) 0.9202(3)
C8 C 0.1180(3) 0.8332(3) 0.9269(3)
H8 H 0.0211(3) 0.8697(3) 0.8697(3)
H9 H 0.1606(3) 0.8993(3) 1.0413(3)
C9 C 0.2553(3) 0.9546(2) 0.7888(3)
H10 H 0.1628(3) 0.9356(2) 0.6938(3)
H11 H 0.2559(3) 1.0526(2) 0.8812(3)
C10 C 0.4073(3) 0.9803(3) 0.7439(3)
H12 H 0.5012(3) 0.9920(3) 0.8359(3)
H13 H 0.4159(3) 1.0856(3) 0.7356(3)
C11 C 0.4810(2) 0.2236(2) 0.4287(3)
H14 H 0.3904(2) 0.2004(2) 0.3340(3)
O1A O 0.7629(2) 0.6110(2) 0.5537(2)
N1A N 0.6438(2) 0.5596(2) 0.4155(2)
N2A N 0.9253(2) 0.4375(2) 0.2798(2)
H1A H 1.0201(2) 0.4341(2) 0.3495(2)
N3A N 0.7555(2) 0.1750(2) 0.1566(2)
N4A N 0.5966(2) 0.1468(2) 0.4206(2)
C1A C 0.5162(2) 0.6407(2) 0.4120(2)
C2A C 0.3915(2) 0.5864(3) 0.2641(3)
H2A H 0.3012(2) 0.6504(3) 0.2652(3)
C3A C 0.3920(2) 0.4536(3) 0.1213(3)
H3A H 0.3104(2) 0.4158(3) 0.0182(3)
C4A C 0.5203(2) 0.3721(2) 0.1295(2)
H4A H 0.5252(2) 0.2813(2) 0.0397(2)
C5A C 0.6454(2) 0.4239(2) 0.2755(2)
C6A C 0.7899(2) 0.3431(2) 0.2938(3)
H5A H 0.8178(2) 0.3442(2) 0.4041(3)
C7A C 0.9294(3) 0.3421(3) 0.1062(3)
H6A H 0.8520(3) 0.3703(3) 0.0292(3)
H7A H 1.0509(3) 0.3589(3) 0.0798(3)
C8A C 0.8820(3) 0.1668(3) 0.0731(3)
H8A H 0.9789(3) 0.1303(3) 0.1303(3)
H9A H 0.8394(3) 0.1007(3) -0.0413(3)
C9A C 0.7447(3) 0.0454(2) 0.2112(3)
H10A H 0.8372(3) 0.0644(2) 0.3062(3)
H11A H 0.7441(3) -0.0526(2) 0.1188(3)
C10A C 0.5927(3) 0.0197(3) 0.2561(3)
H12A H 0.4988(3) 0.0080(3) 0.1641(3)
H13A H 0.5841(3) -0.0856(3) 0.2644(3)
C11A C 0.5190(2) 0.7764(2) 0.5713(3)
H14A H 0.6096(2) 0.7996(2) 0.6660(3)
O2 O 0.8791(2) -0.2375(2) 0.3227(3)
H15 H 0.8947(2) -0.3277(2) 0.3339(3)
H16 H 0.8640(2) -0.1450(2) 0.4389(3)
O3 O 1.1670(2) -0.0335(2) 0.3726(2)
H17 H 1.2531(2) -0.0812(2) 0.4372(2)
H18 H 1.0973(2) -0.0846(2) 0.3568(2)
loop_
_geom_bond_atom_site_label_1
_geom_bond_atom_site_label_2
_geom_bond_site_symmetry_1
_geom_bond_site_symmetry_2
O1 N1 1_555 1_555
N1 C1 1_555 1_555
N2 H1 1_555 1_555
N3 C6 1_555 1_555
N4 C10 1_555 1_555
C1 C2 1_555 1_555
C2 H2 1_555 1_555
C3 C2 1_555 1_555
H3 C3 1_555 1_555
C4 C3 1_555 1_555
H4 C4 1_555 1_555
C5 N1 1_555 1_555
C6 N2 1_555 1_555
H5 C6 1_555 1_555
C7 N2 1_555 1_555
H6 C7 1_555 1_555
H7 C7 1_555 1_555
C8 N3 1_555 1_555
H8 C8 1_555 1_555
H9 C8 1_555 1_555
C9 N3 1_555 1_555
H10 C9 1_555 1_555
H11 C9 1_555 1_555
C10 C9 1_555 1_555
H12 C10 1_555 1_555
H13 C10 1_555 1_555
C11 C1 1_555 1_555
H14 C11 1_555 1_555
O2 H15 1_555 1_555
H16 O2 1_555 1_555
O3 H17 1_555 1_555
H18 O3 1_555 1_555
O1A N1A 1_555 1_555
N1A C1A 1_555 1_555
N2A H1A 1_555 1_555
N3A C6A 1_555 1_555
N4A C11 1_555 1_555
C1A C2A 1_555 1_555
C2A H2A 1_555 1_555
C3A C2A 1_555 1_555
H3A C3A 1_555 1_555
C4A C3A 1_555 1_555
H4A C4A 1_555 1_555
C5A N1A 1_555 1_555
C6A N2A 1_555 1_555
H5A C6A 1_555 1_555
C7A N2A 1_555 1_555
H6A C7A 1_555 1_555
H7A C7A 1_555 1_555
C8A N3A 1_555 1_555
H8A C8A 1_555 1_555
H9A C8A 1_555 1_555
C9A N3A 1_555 1_555
H10A C9A 1_555 1_555
H11A C9A 1_555 1_555
C10A N4A 1_555 1_555
H12A C10A 1_555 1_555
H13A C10A 1_555 1_555
C11A N4 1_555 1_555
H14A C11A 1_555 1_555
C4 C5 1_555 1_555
C5 C6 1_555 1_555
C7 C8 1_555 1_555
C1A C11A 1_555 1_555
C4A C5A 1_555 1_555
C5A C6A 1_555 1_555
C7A C8A 1_555 1_555
C9A C10A 1_555 1_555

#END
