
#######################################################################
#
#                 Cambridge Crystallographic Data Centre
#                                CCDC 
#
#######################################################################
#
# If this CIF has been generated from an entry in the Cambridge 
# Structural Database, then it will include bibliographic, chemical, 
# crystal, experimental, refinement or atomic coordinate data resulting 
# from the CCDC's data processing and validation procedures.
#
#######################################################################

data_GEJZEB
_chemical_formula_moiety         'C24 H16 N6'
_chemical_name_systematic        
1,1'-bis(3-(Pyridin-2-yl)H-imidazo(1,5-a)pyridine)
_symmetry_cell_setting           monoclinic
_symmetry_space_group_name_H-M   'P 2/c'
_symmetry_Int_Tables_number      13
_space_group_name_Hall           '-P 2yc'
loop_
_symmetry_equiv_pos_site_id
_symmetry_equiv_pos_as_xyz
1 x,y,z
2 -x,y,1/2-z
3 -x,-y,-z
4 x,-y,1/2+z
_cell_length_a                   12.059(2)
_cell_length_b                   5.1639(10)
_cell_length_c                   15.236(3)
_cell_angle_alpha                90
_cell_angle_beta                 106.64(3)
_cell_angle_gamma                90
_cell_volume                     909.036
_exptl_crystal_colour            yellow
_exptl_crystal_description       plate
_cell_formula_units_Z            2
loop_
_atom_site_label
_atom_site_type_symbol
_atom_site_fract_x
_atom_site_fract_y
_atom_site_fract_z
C1 C 0.1382(2) 0.6411(4) 0.65571(15)
C2 C 0.2097(2) 0.8209(4) 0.70938(15)
H1 H 0.174(2) 0.948(4) 0.7420(16)
C3 C 0.3255(2) 0.8152(5) 0.71409(15)
H2 H 0.374(2) 0.940(5) 0.7519(17)
C4 C 0.3635(2) 0.6326(4) 0.66429(14)
H3 H 0.442(2) 0.619(4) 0.6650(14)
C5 C 0.28516(17) 0.4564(4) 0.61148(13)
C6 C 0.32665(16) 0.2640(4) 0.55875(13)
C7 C 0.44522(17) 0.0406(4) 0.50599(13)
C8 C 0.33632(16) -0.0593(4) 0.46383(13)
C9 C 0.29124(19) -0.2635(4) 0.40265(13)
H4 H 0.3426(18) -0.357(4) 0.3815(14)
C10 C 0.17618(19) -0.3074(4) 0.37665(14)
H5 H 0.1457(18) -0.449(4) 0.3363(14)
C11 C 0.10157(19) -0.1472(5) 0.40980(14)
H6 H 0.019(2) -0.175(4) 0.3915(15)
C12 C 0.14261(16) 0.0455(4) 0.46915(14)
H7 H 0.0959(16) 0.166(4) 0.4956(13)
N1 N 0.17296(14) 0.4585(3) 0.60745(12)
N2 N 0.43736(14) 0.2357(3) 0.56346(11)
N3 N 0.26029(13) 0.0885(3) 0.49794(10)
H8 H 0.055(2) 0.638(4) 0.6520(14)
C1B C 0.8618(2) -0.6411(4) 0.34429(15)
C2B C 0.7903(2) -0.8209(4) 0.29062(15)
H1B H 0.826(2) -0.948(4) 0.2580(16)
C3B C 0.6745(2) -0.8152(5) 0.28591(15)
H2B H 0.626(2) -0.940(5) 0.2481(17)
C4B C 0.6365(2) -0.6326(4) 0.33571(14)
H3B H 0.558(2) -0.619(4) 0.3350(14)
C5B C 0.71484(17) -0.4564(4) 0.38852(13)
C6B C 0.67335(16) -0.2640(4) 0.44125(13)
C7B C 0.55478(17) -0.0406(4) 0.49401(13)
C8B C 0.66368(16) 0.0593(4) 0.53617(13)
C9B C 0.70876(19) 0.2635(4) 0.59735(13)
H4B H 0.6574(18) 0.357(4) 0.6185(14)
C10B C 0.82382(19) 0.3074(4) 0.62335(14)
H5B H 0.8543(18) 0.449(4) 0.6637(14)
C11B C 0.89843(19) 0.1472(5) 0.59020(14)
H6B H 0.981(2) 0.175(4) 0.6085(15)
C12B C 0.85739(16) -0.0455(4) 0.53085(14)
H7B H 0.9041(16) -0.166(4) 0.5044(13)
N1B N 0.82704(14) -0.4585(3) 0.39255(12)
N2B N 0.56264(14) -0.2357(3) 0.43654(11)
N3B N 0.73971(13) -0.0885(3) 0.50206(10)
H8B H 0.945(2) -0.638(4) 0.3480(14)
loop_
_geom_bond_atom_site_label_1
_geom_bond_atom_site_label_2
_geom_bond_site_symmetry_1
_geom_bond_site_symmetry_2
C1 C2 1_555 1_555
C2 H1 1_555 1_555
C3 C2 1_555 1_555
H2 C3 1_555 1_555
C4 C3 1_555 1_555
H3 C4 1_555 1_555
C5 C4 1_555 1_555
C6 C5 1_555 1_555
C7 C8 1_555 1_555
C8 C9 1_555 1_555
C9 H4 1_555 1_555
C10 C9 1_555 1_555
H5 C10 1_555 1_555
C11 C10 1_555 1_555
H6 C11 1_555 1_555
C12 C11 1_555 1_555
H7 C12 1_555 1_555
N1 C1 1_555 1_555
N2 C6 1_555 1_555
N3 C6 1_555 1_555
H8 C1 1_555 1_555
C1B C2B 1_555 1_555
C2B H1B 1_555 1_555
C3B C2B 1_555 1_555
H2B C3B 1_555 1_555
C4B C3B 1_555 1_555
H3B C4B 1_555 1_555
C5B C4B 1_555 1_555
C6B C5B 1_555 1_555
C7B C7 1_555 1_555
C8B C7B 1_555 1_555
C9B C8B 1_555 1_555
H4B C9B 1_555 1_555
C10B C9B 1_555 1_555
H5B C10B 1_555 1_555
C11B C10B 1_555 1_555
H6B C11B 1_555 1_555
C12B C11B 1_555 1_555
H7B C12B 1_555 1_555
N1B C1B 1_555 1_555
N2B C6B 1_555 1_555
N3B C6B 1_555 1_555
H8B C1B 1_555 1_555
C5 N1 1_555 1_555
C7 N2 1_555 1_555
C8 N3 1_555 1_555
C12 N3 1_555 1_555
C5B N1B 1_555 1_555
C7B N2B 1_555 1_555
C8B N3B 1_555 1_555
C12B N3B 1_555 1_555

#END
