
#######################################################################
#
#                 Cambridge Crystallographic Data Centre
#                                CCDC 
#
#######################################################################
#
# If this CIF has been generated from an entry in the Cambridge 
# Structural Database, then it will include bibliographic, chemical, 
# crystal, experimental, refinement or atomic coordinate data resulting 
# from the CCDC's data processing and validation procedures.
#
#######################################################################

data_GEKDAB
_chemical_formula_moiety         'C28 H24 N4 O6 Te1'
_chemical_name_systematic        
Dimethyl-bis(2-(4-nitrobenzylideneimino)phenoxy)-tellurium
_symmetry_cell_setting           monoclinic
_symmetry_space_group_name_H-M   'P 21/c'
_symmetry_Int_Tables_number      14
_space_group_name_Hall           '-P 2ybc'
loop_
_symmetry_equiv_pos_site_id
_symmetry_equiv_pos_as_xyz
1 x,y,z
2 -x,1/2+y,1/2-z
3 -x,-y,-z
4 x,1/2-y,1/2+z
_cell_length_a                   7.557(1)
_cell_length_b                   27.002(5)
_cell_length_c                   13.176(2)
_cell_angle_alpha                90
_cell_angle_beta                 100.21(1)
_cell_angle_gamma                90
_cell_volume                     2646.04
_chemical_melting_point          182deg.C
_cell_formula_units_Z            4
loop_
_atom_site_label
_atom_site_type_symbol
_atom_site_fract_x
_atom_site_fract_y
_atom_site_fract_z
Te1 Te 0.50253(2) 0.29639(1) 0.30237(2)
O1 O 0.7172(3) 0.2710(1) 0.4176(2)
O2 O 0.2661(3) 0.3024(1) 0.1921(2)
O3 O 0.4512(4) 0.4558(1) -0.1843(2)
O4 O 0.4292(4) 0.3774(1) -0.2073(2)
O5 O 0.9763(4) 0.4911(1) 0.7075(2)
O6 O 0.8396(4) 0.4305(1) 0.7634(2)
N1 N 0.8495(3) 0.3439(1) 0.3008(2)
N2 N 0.3473(3) 0.3971(1) 0.2700(2)
N3 N 0.4826(4) 0.4128(1) -0.1543(2)
N4 N 0.8669(4) 0.4585(1) 0.6962(2)
C1 C 0.8494(4) 0.3012(1) 0.4614(2)
C2 C 0.9228(5) 0.2948(1) 0.5655(3)
C3 C 1.0555(4) 0.3259(2) 0.6144(2)
C4 C 1.1228(4) 0.3630(2) 0.5630(2)
C5 C 1.0567(4) 0.3694(1) 0.4585(2)
C6 C 0.9211(3) 0.3395(1) 0.4070(2)
C7 C 0.8535(3) 0.3851(1) 0.2550(2)
C8 C 0.7692(3) 0.3914(1) 0.1465(2)
C9 C 0.7078(4) 0.3513(1) 0.0846(2)
C10 C 0.6172(4) 0.3578(1) -0.0146(2)
C11 C 0.5861(4) 0.4054(1) -0.0506(2)
C12 C 0.6508(4) 0.4461(1) 0.0078(2)
C13 C 0.7413(4) 0.4388(1) 0.1059(2)
C14 C 0.2241(3) 0.3421(1) 0.1323(2)
C15 C 0.1397(4) 0.3351(1) 0.0298(2)
C16 C 0.0910(4) 0.3743(2) -0.0349(2)
C17 C 0.1237(4) 0.4217(1) -0.0012(2)
C18 C 0.2074(4) 0.4301(1) 0.0990(2)
C19 C 0.2604(3) 0.3906(1) 0.1665(2)
C20 C 0.4490(4) 0.4342(1) 0.2949(2)
C21 C 0.5507(3) 0.4403(1) 0.3998(2)
C22 C 0.5379(4) 0.4066(1) 0.4780(2)
C23 C 0.6402(4) 0.4119(1) 0.5750(2)
C24 C 0.7566(4) 0.4516(1) 0.5926(2)
C25 C 0.7719(4) 0.4863(1) 0.5172(2)
C26 C 0.6693(4) 0.4803(1) 0.4212(2)
C27 C 0.5536(5) 0.2328(2) 0.2203(3)
C28 C 0.3329(5) 0.2627(1) 0.3913(3)
H1 H 0.876(5) 0.270(1) 0.601(3)
H2 H 1.090(4) 0.320(1) 0.679(2)
H3 H 1.212(4) 0.377(1) 0.589(2)
H4 H 1.108(4) 0.393(1) 0.422(2)
H5 H 0.898(4) 0.415(1) 0.289(2)
H6 H 0.742(4) 0.318(1) 0.112(2)
H7 H 0.576(4) 0.333(1) -0.048(2)
H8 H 0.629(3) 0.474(1) -0.017(2)
H9 H 0.781(4) 0.469(1) 0.150(2)
H10 H 0.121(4) 0.304(1) 0.016(2)
H11 H 0.043(5) 0.366(1) -0.102(3)
H12 H 0.097(4) 0.444(1) -0.047(2)
H13 H 0.218(4) 0.456(1) 0.120(2)
H14 H 0.463(3) 0.459(1) 0.248(2)
H15 H 0.570(4) 0.382(1) 0.471(2)
H16 H 0.638(5) 0.388(1) 0.623(2)
H17 H 0.834(4) 0.509(1) 0.530(2)
H18 H 0.685(4) 0.500(1) 0.377(2)
H19 H 0.547(5) 0.246(1) 0.153(3)
H20 H 0.449(6) 0.215(2) 0.199(3)
H21 H 0.649(6) 0.224(2) 0.255(3)
H22 H 0.283(5) 0.272(2) 0.430(3)
H23 H 0.376(6) 0.241(2) 0.424(3)
H24 H 0.256(6) 0.247(2) 0.356(3)
loop_
_geom_bond_atom_site_label_1
_geom_bond_atom_site_label_2
_geom_bond_site_symmetry_1
_geom_bond_site_symmetry_2
Te1 O1 1_555 1_555
O1 C1 1_555 1_555
O2 Te1 1_555 1_555
O3 N3 1_555 1_555
O4 N3 1_555 1_555
O5 N4 1_555 1_555
O6 N4 1_555 1_555
N1 C6 1_555 1_555
N2 C19 1_555 1_555
N3 C11 1_555 1_555
N4 C24 1_555 1_555
C1 C2 1_555 1_555
C2 C3 1_555 1_555
C3 C4 1_555 1_555
C4 C5 1_555 1_555
C5 C6 1_555 1_555
C6 C1 1_555 1_555
C7 N1 1_555 1_555
C8 C7 1_555 1_555
C9 C8 1_555 1_555
C10 C9 1_555 1_555
C11 C10 1_555 1_555
C12 C11 1_555 1_555
C13 C8 1_555 1_555
C14 O2 1_555 1_555
C15 C14 1_555 1_555
C16 C15 1_555 1_555
C17 C16 1_555 1_555
C18 C17 1_555 1_555
C19 C14 1_555 1_555
C20 N2 1_555 1_555
C21 C20 1_555 1_555
C22 C21 1_555 1_555
C23 C22 1_555 1_555
C24 C23 1_555 1_555
C25 C24 1_555 1_555
C26 C21 1_555 1_555
C27 Te1 1_555 1_555
C28 Te1 1_555 1_555
H1 C2 1_555 1_555
H2 C3 1_555 1_555
H3 C4 1_555 1_555
H4 C5 1_555 1_555
H5 C7 1_555 1_555
H6 C9 1_555 1_555
H7 C10 1_555 1_555
H8 C12 1_555 1_555
H9 C13 1_555 1_555
H10 C15 1_555 1_555
H11 C16 1_555 1_555
H12 C17 1_555 1_555
H13 C18 1_555 1_555
H14 C20 1_555 1_555
H15 C22 1_555 1_555
H16 C23 1_555 1_555
H17 C25 1_555 1_555
H18 C26 1_555 1_555
H19 C27 1_555 1_555
H20 C27 1_555 1_555
H21 C27 1_555 1_555
H22 C28 1_555 1_555
H23 C28 1_555 1_555
H24 C28 1_555 1_555
C12 C13 1_555 1_555
C18 C19 1_555 1_555
C25 C26 1_555 1_555

#END
