
#######################################################################
#
#                 Cambridge Crystallographic Data Centre
#                                CCDC 
#
#######################################################################
#
# If this CIF has been generated from an entry in the Cambridge 
# Structural Database, then it will include bibliographic, chemical, 
# crystal, experimental, refinement or atomic coordinate data resulting 
# from the CCDC's data processing and validation procedures.
#
#######################################################################

data_GEKGAH
_chemical_formula_moiety         'C34 H18 N6,C1 H1 Cl3'
_chemical_name_systematic        
"4,4',4'',4'''-(pyrrolo[3,2-b]pyrrole-1,2,4,5-tetrayl)tetrabenzonitrile chloroform solvate"
_symmetry_cell_setting           triclinic
_symmetry_space_group_name_H-M   'P -1'
_symmetry_Int_Tables_number      2
_space_group_name_Hall           '-P 1'
loop_
_symmetry_equiv_pos_site_id
_symmetry_equiv_pos_as_xyz
1 x,y,z
2 -x,-y,-z
_cell_length_a                   10.8133(3)
_cell_length_b                   11.1062(3)
_cell_length_c                   13.6436(4)
_cell_angle_alpha                102.7990(10)
_cell_angle_beta                 102.6940(10)
_cell_angle_gamma                103.0420(10)
_cell_volume                     1492.53
_exptl_crystal_colour            green
_exptl_crystal_description       block
_cell_formula_units_Z            2
loop_
_atom_site_label
_atom_site_type_symbol
_atom_site_fract_x
_atom_site_fract_y
_atom_site_fract_z
N1 N 1.0578(3) 0.6183(3) 0.9329(2)
N2 N 0.0489(3) 0.5610(3) 0.6697(2)
N3 N 0.52812(19) 0.14162(18) 0.59744(15)
C1 C 0.4056(2) 0.1456(2) 0.53776(19)
C2 C 0.3353(2) 0.2385(2) 0.57055(19)
C3 C 0.5519(2) 0.0306(2) 0.54478(18)
C4 C 0.3545(2) 0.0399(2) 0.44985(19)
C5 C 0.7251(2) 0.2130(2) 0.74446(18)
H1 H 0.7140 0.1279 0.7455
C6 C 0.2759(2) 0.3795(2) 0.7033(2)
H2 H 0.2849 0.4170 0.7736
C7 C 0.7535(2) 0.4683(2) 0.74461(19)
H3 H 0.7623 0.5539 0.7460
C8 C 0.8345(2) 0.3088(2) 0.81256(19)
H4 H 0.8980 0.2881 0.8586
C9 C 0.6451(2) 0.3721(2) 0.67563(19)
H5 H 0.5811 0.3930 0.6301
C10 C 0.3475(2) 0.2953(2) 0.67616(19)
H6 H 0.4043 0.2761 0.7284
C11 C 0.1900(2) 0.4082(2) 0.6253(2)
C12 C 0.1757(2) 0.3509(2) 0.5201(2)
H7 H 0.1176 0.3689 0.4679
C13 C 0.6314(2) 0.2440(2) 0.67404(18)
C14 C 0.2477(2) 0.2677(2) 0.4934(2)
H8 H 0.2381 0.2302 0.4230
C15 C 0.8495(2) 0.4367(2) 0.81214(19)
C16 C 0.9655(3) 0.5377(3) 0.8803(2)
C17 C 0.1130(3) 0.4945(3) 0.6521(2)
N1A N -0.0578(3) -0.6183(3) 0.0671(2)
N2A N 0.9511(3) -0.5610(3) 0.3303(2)
N3A N 0.47188(19) -0.14162(18) 0.40256(15)
C1A C 0.5944(2) -0.1456(2) 0.46224(19)
C2A C 0.6647(2) -0.2385(2) 0.42945(19)
C3A C 0.4481(2) -0.0306(2) 0.45522(18)
C4A C 0.6455(2) -0.0399(2) 0.55015(19)
C5A C 0.2749(2) -0.2130(2) 0.25554(18)
H1A H 0.2860 -0.1279 0.2545
C6A C 0.7241(2) -0.3795(2) 0.2967(2)
H2A H 0.7151 -0.4170 0.2264
C7A C 0.2465(2) -0.4683(2) 0.25539(19)
H3A H 0.2377 -0.5539 0.2540
C8A C 0.1655(2) -0.3088(2) 0.18744(19)
H4A H 0.1020 -0.2881 0.1414
C9A C 0.3549(2) -0.3721(2) 0.32437(19)
H5A H 0.4189 -0.3930 0.3699
C10A C 0.6525(2) -0.2953(2) 0.32384(19)
H6A H 0.5957 -0.2761 0.2716
C11A C 0.8100(2) -0.4082(2) 0.3747(2)
C12A C 0.8243(2) -0.3509(2) 0.4799(2)
H7A H 0.8824 -0.3689 0.5321
C13A C 0.3686(2) -0.2440(2) 0.32596(18)
C14A C 0.7523(2) -0.2677(2) 0.5066(2)
H8A H 0.7619 -0.2302 0.5770
C15A C 0.1505(2) -0.4367(2) 0.18786(19)
C16A C 0.0345(3) -0.5377(3) 0.1197(2)
C17A C 0.8870(3) -0.4945(3) 0.3479(2)
N4 N 0.5593(3) 0.6213(3) 0.6405(2)
N5 N 0.2263(3) 1.0598(3) 1.1849(2)
N6 N 0.0992(2) 0.9446(2) 0.58688(16)
C18 C 0.0331(2) 0.9546(2) 0.4902(2)
C19 C 0.1979(2) 0.8791(2) 0.59839(19)
C20 C 0.3176(2) 0.9352(2) 0.67741(19)
H9 H 0.3335 1.0163 0.7232
C21 C 0.1755(3) 0.7597(2) 0.5285(2)
H10 H 0.0969 0.7238 0.4745
C22 C 0.0128(2) 0.9061(2) 0.3816(2)
C23 C 0.3879(3) 0.7486(3) 0.6190(2)
C24 C 0.2692(3) 0.6941(2) 0.5389(2)
H11 H 0.2534 0.6135 0.4925
C25 C 0.4123(3) 0.8702(3) 0.6875(2)
H12 H 0.4921 0.9075 0.7400
C26 C 0.1370(3) 0.9317(3) 0.9135(2)
H13 H 0.1368 0.8576 0.9347
C27 C 0.4839(3) 0.6785(3) 0.6309(2)
C28 C 0.0697(2) 1.0291(2) 0.6644(2)
C29 C 0.1071(3) 0.9236(3) 0.8085(2)
H14 H 0.0868 0.8442 0.7590
C30 C 0.1070(2) 1.0350(3) 0.7757(2)
C31 C 0.1368(3) 1.1523(3) 0.8519(2)
H15 H 0.1369 1.2266 0.8311
C32 C 0.1661(3) 1.1611(3) 0.9571(2)
H16 H 0.1848 1.2401 1.0066
C33 C 0.1674(3) 1.0499(3) 0.9884(2)
C34 C 0.1998(3) 1.0562(3) 1.0987(2)
N4A N -0.5593(3) 1.3787(3) 0.3595(2)
N5A N -0.2263(3) 0.9402(3) -0.1849(2)
N6A N -0.0992(2) 1.0554(2) 0.41312(16)
C18A C -0.0331(2) 1.0454(2) 0.5098(2)
C19A C -0.1979(2) 1.1209(2) 0.40161(19)
C20A C -0.3176(2) 1.0648(2) 0.32259(19)
H9A H -0.3335 0.9837 0.2768
C21A C -0.1755(3) 1.2403(2) 0.4715(2)
H10A H -0.0969 1.2762 0.5255
C22A C -0.0128(2) 1.0939(2) 0.6184(2)
C23A C -0.3879(3) 1.2514(3) 0.3810(2)
C24A C -0.2692(3) 1.3059(2) 0.4611(2)
H11A H -0.2534 1.3865 0.5075
C25A C -0.4123(3) 1.1298(3) 0.3125(2)
H12A H -0.4921 1.0925 0.2600
C26A C -0.1370(3) 1.0683(3) 0.0865(2)
H13A H -0.1368 1.1424 0.0653
C27A C -0.4839(3) 1.3215(3) 0.3691(2)
C28A C -0.0697(2) 0.9709(2) 0.3356(2)
C29A C -0.1071(3) 1.0764(3) 0.1915(2)
H14A H -0.0868 1.1558 0.2410
C30A C -0.1070(2) 0.9650(3) 0.2243(2)
C31A C -0.1368(3) 0.8477(3) 0.1481(2)
H15A H -0.1369 0.7734 0.1689
C32A C -0.1661(3) 0.8389(3) 0.0429(2)
H16A H -0.1848 0.7599 -0.0066
C33A C -0.1674(3) 0.9501(3) 0.0116(2)
C34A C -0.1998(3) 0.9438(3) -0.0987(2)
Cl1 Cl 0.40452(12) 0.59900(11) 1.04584(9)
Cl2 Cl 0.46751(12) 0.87176(10) 1.07107(9)
Cl3 Cl 0.47244(17) 0.68945(16) 0.88119(11)
C35 C 0.3840(4) 0.7176(3) 0.9855(3)
Cl4? Cl 0.3784(5) 0.7185(3) 0.8715(2)
loop_
_geom_bond_atom_site_label_1
_geom_bond_atom_site_label_2
_geom_bond_site_symmetry_1
_geom_bond_site_symmetry_2
N1 C16 1_555 1_555
N2 C17 1_555 1_555
N3 C1 1_555 1_555
C1 C2 1_555 1_555
C2 C10 1_555 1_555
C3 N3 1_555 1_555
C4 C1 1_555 1_555
C5 H1 1_555 1_555
C6 H2 1_555 1_555
C7 H3 1_555 1_555
C8 C5 1_555 1_555
H4 C8 1_555 1_555
C9 C7 1_555 1_555
H5 C9 1_555 1_555
C10 C6 1_555 1_555
H6 C10 1_555 1_555
C11 C6 1_555 1_555
C12 C11 1_555 1_555
H7 C12 1_555 1_555
C13 N3 1_555 1_555
C14 C2 1_555 1_555
H8 C14 1_555 1_555
C15 C7 1_555 1_555
C16 C15 1_555 1_555
C17 C11 1_555 1_555
N4 C27 1_555 1_555
N5 C34 1_555 1_555
N6 C18 1_555 1_555
C18 C22 1_555 1_555
C19 N6 1_555 1_555
C20 C19 1_555 1_555
H9 C20 1_555 1_555
C21 C19 1_555 1_555
H10 C21 1_555 1_555
C22 C28A 1_555 1_555
C23 C24 1_555 1_555
C24 C21 1_555 1_555
H11 C24 1_555 1_555
C25 C20 1_555 1_555
H12 C25 1_555 1_555
C26 H13 1_555 1_555
C27 C23 1_555 1_555
C28 N6 1_555 1_555
C29 C26 1_555 1_555
H14 C29 1_555 1_555
C30 C28 1_555 1_555
C31 C30 1_555 1_555
H15 C31 1_555 1_555
C32 C31 1_555 1_555
H16 C32 1_555 1_555
C33 C26 1_555 1_555
C34 C33 1_555 1_555
Cl1 C35 1_555 1_555
Cl2 C35 1_555 1_555
Cl3 C35 1_555 1_555
N1A C16A 1_555 1_555
N2A C17A 1_555 1_555
N3A C1A 1_555 1_555
C1A C2A 1_555 1_555
C2A C10A 1_555 1_555
C3A C3 1_555 1_555
C4A C3 1_555 1_555
C5A H1A 1_555 1_555
C6A H2A 1_555 1_555
C7A H3A 1_555 1_555
C8A C5A 1_555 1_555
H4A C8A 1_555 1_555
C9A C7A 1_555 1_555
H5A C9A 1_555 1_555
C10A C6A 1_555 1_555
H6A C10A 1_555 1_555
C11A C6A 1_555 1_555
C12A C11A 1_555 1_555
H7A C12A 1_555 1_555
C13A N3A 1_555 1_555
C14A C2A 1_555 1_555
H8A C14A 1_555 1_555
C15A C7A 1_555 1_555
C16A C15A 1_555 1_555
C17A C11A 1_555 1_555
N4A C27A 1_555 1_555
N5A C34A 1_555 1_555
N6A C18A 1_555 1_555
C18A C18 1_555 1_555
C19A N6A 1_555 1_555
C20A C19A 1_555 1_555
H9A C20A 1_555 1_555
C21A C19A 1_555 1_555
H10A C21A 1_555 1_555
C22A C28 1_555 1_555
C23A C24A 1_555 1_555
C24A C21A 1_555 1_555
H11A C24A 1_555 1_555
C25A C20A 1_555 1_555
H12A C25A 1_555 1_555
C26A H13A 1_555 1_555
C27A C23A 1_555 1_555
C28A N6A 1_555 1_555
C29A C26A 1_555 1_555
H14A C29A 1_555 1_555
C30A C28A 1_555 1_555
C31A C30A 1_555 1_555
H15A C31A 1_555 1_555
C32A C31A 1_555 1_555
H16A C32A 1_555 1_555
C33A C26A 1_555 1_555
C34A C33A 1_555 1_555
C4 C3A 1_555 1_555
C5 C13 1_555 1_555
C8 C15 1_555 1_555
C9 C13 1_555 1_555
C12 C14 1_555 1_555
C23 C25 1_555 1_555
C29 C30 1_555 1_555
C32 C33 1_555 1_555
N3A C3A 1_555 1_555
C1A C4A 1_555 1_555
C5A C13A 1_555 1_555
C8A C15A 1_555 1_555
C9A C13A 1_555 1_555
C12A C14A 1_555 1_555
C18A C22A 1_555 1_555
C23A C25A 1_555 1_555
C29A C30A 1_555 1_555
C32A C33A 1_555 1_555

#END
