
#######################################################################
#
#                 Cambridge Crystallographic Data Centre
#                                CCDC 
#
#######################################################################
#
# If this CIF has been generated from an entry in the Cambridge 
# Structural Database, then it will include bibliographic, chemical, 
# crystal, experimental, refinement or atomic coordinate data resulting 
# from the CCDC's data processing and validation procedures.
#
#######################################################################

data_GEKLUF
_chemical_formula_moiety         'C14 H14 N1 O1 1+,Cl1 O4 1-'
_chemical_name_systematic        
'4-((E)-2-(4-Methoxyphenyl)-1-ethenyl)pyridinium perchlorate'
_symmetry_cell_setting           triclinic
_symmetry_space_group_name_H-M   'P -1'
_symmetry_Int_Tables_number      2
_space_group_name_Hall           '-P 1'
loop_
_symmetry_equiv_pos_site_id
_symmetry_equiv_pos_as_xyz
1 x,y,z
2 -x,-y,-z
_cell_length_a                   8.4042(14)
_cell_length_b                   8.8189(15)
_cell_length_c                   10.4718(19)
_cell_angle_alpha                77.185(2)
_cell_angle_beta                 87.499(3)
_cell_angle_gamma                66.431(2)
_cell_volume                     692.779
_exptl_crystal_colour            'pale yellow'
_exptl_crystal_description       plate
_chemical_melting_point          '228-231 deg.C.(dec.)'
_cell_formula_units_Z            2
loop_
_atom_site_label
_atom_site_type_symbol
_atom_site_fract_x
_atom_site_fract_y
_atom_site_fract_z
Cl1 Cl 0.16259(5) 0.64037(5) 0.12023(4)
O1 O 0.32698(16) 0.56975(15) 0.06162(13)
O2 O 0.1335(14) 0.7979(15) 0.1437(9)
O3 O 0.1550(11) 0.5305(15) 0.2399(12)
O4 O 0.0272(18) 0.6504(15) 0.0365(11)
O5 O 0.76545(17) -0.11248(15) 0.47621(12)
N1 N 0.5003(2) 1.1988(2) 0.11052(16)
C1 C 0.3732(3) 1.1690(3) 0.1775(2)
C2 C 0.3882(3) 1.0054(2) 0.22486(19)
C3 C 0.5383(2) 0.8683(2) 0.20468(16)
C4 C 0.6669(2) 0.9067(2) 0.13401(17)
C5 C 0.6454(3) 1.0724(2) 0.08855(18)
C6 C 0.5532(2) 0.6955(2) 0.25777(17)
C7 C 0.6863(2) 0.5544(2) 0.24344(17)
C8 C 0.7042(2) 0.3809(2) 0.30028(16)
C9 C 0.5809(2) 0.3444(2) 0.38090(17)
C10 C 0.6052(2) 0.1795(2) 0.43673(17)
C11 C 0.7545(2) 0.0449(2) 0.41395(16)
C12 C 0.8773(2) 0.0770(2) 0.33302(17)
C13 C 0.8510(2) 0.2445(2) 0.27706(18)
C14 C 0.9123(3) -0.2570(2) 0.4539(2)
H1 H 0.493(3) 1.295(4) 0.087(3)
H2 H 0.275(3) 1.253(3) 0.191(2)
H3 H 0.302(3) 0.984(3) 0.271(2)
H4 H 0.771(2) 0.819(2) 0.1161(18)
H5 H 0.728(2) 1.101(2) 0.0449(17)
H6 H 0.456(3) 0.689(2) 0.3063(19)
H7 H 0.776(3) 0.559(2) 0.1956(19)
H8 H 0.476(3) 0.431(3) 0.3965(19)
H9 H 0.520(2) 0.158(2) 0.4903(19)
H10 H 0.975(3) -0.004(3) 0.309(2)
H11 H 0.933(3) 0.269(2) 0.2231(19)
H12 H 0.882(3) -0.344(3) 0.513(2)
H13 H 1.031(3) -0.257(3) 0.476(2)
H14 H 0.914(2) -0.262(2) 0.363(2)
O6? O 0.048(3) 0.5892(18) 0.061(2)
O7? O 0.098(2) 0.815(2) 0.1029(13)
O8? O 0.206(2) 0.545(3) 0.258(2)
O9? O 0.1830(16) 0.7615(17) 0.1940(12)
O10? O 0.1005(19) 0.532(2) 0.2033(16)
O11? O 0.0314(12) 0.7476(12) 0.0147(9)
loop_
_geom_bond_atom_site_label_1
_geom_bond_atom_site_label_2
_geom_bond_site_symmetry_1
_geom_bond_site_symmetry_2
Cl1 O1 1_555 1_555
O2 Cl1 1_555 1_555
O3 Cl1 1_555 1_555
O4 Cl1 1_555 1_555
O5 C11 1_555 1_555
N1 C1 1_555 1_555
C1 C2 1_555 1_555
C2 C3 1_555 1_555
C3 C4 1_555 1_555
C4 C5 1_555 1_555
C5 N1 1_555 1_555
C6 C3 1_555 1_555
C7 C6 1_555 1_555
C8 C7 1_555 1_555
C9 C8 1_555 1_555
C10 C9 1_555 1_555
C11 C10 1_555 1_555
C12 C11 1_555 1_555
C13 C8 1_555 1_555
C14 O5 1_555 1_555
H1 N1 1_555 1_555
H2 C1 1_555 1_555
H3 C2 1_555 1_555
H4 C4 1_555 1_555
H5 C5 1_555 1_555
H6 C6 1_555 1_555
H7 C7 1_555 1_555
H8 C9 1_555 1_555
H9 C10 1_555 1_555
H10 C12 1_555 1_555
H11 C13 1_555 1_555
H12 C14 1_555 1_555
H13 C14 1_555 1_555
H14 C14 1_555 1_555
C12 C13 1_555 1_555

#END
