
#######################################################################
#
#                 Cambridge Crystallographic Data Centre
#                                CCDC 
#
#######################################################################
#
# If this CIF has been generated from an entry in the Cambridge 
# Structural Database, then it will include bibliographic, chemical, 
# crystal, experimental, refinement or atomic coordinate data resulting 
# from the CCDC's data processing and validation procedures.
#
#######################################################################

data_GEKLOZ
_chemical_formula_moiety         'C15 H17 N2 1+,Cl1 O4 1-,0.5(C6 H6)'
_chemical_name_systematic        
'4-((E)-2-(4-(N,N-Dimethylamino)phenyl)-1-ethenyl)pyridinium perchlorate benzene solvate'
_symmetry_cell_setting           triclinic
_symmetry_space_group_name_H-M   'P -1'
_symmetry_Int_Tables_number      2
_space_group_name_Hall           '-P 1'
loop_
_symmetry_equiv_pos_site_id
_symmetry_equiv_pos_as_xyz
1 x,y,z
2 -x,-y,-z
_cell_length_a                   6.8729(2)
_cell_length_b                   15.7931(4)
_cell_length_c                   18.0432(5)
_cell_angle_alpha                67.812(1)
_cell_angle_beta                 79.356(1)
_cell_angle_gamma                88.463(1)
_cell_volume                     1780.27
_exptl_crystal_colour            red-brown
_exptl_crystal_description       block
_cell_formula_units_Z            4
loop_
_atom_site_label
_atom_site_type_symbol
_atom_site_fract_x
_atom_site_fract_y
_atom_site_fract_z
Cl1 Cl 0.43283(7) 0.49126(4) 0.66809(3)
O1 O 0.4759(2) 0.49546(11) 0.58456(9)
O2 O 0.3921(3) 0.39730(12) 0.72320(11)
O3 O 0.6007(3) 0.52874(17) 0.68413(12)
O4 O 0.2606(3) 0.54225(15) 0.67785(12)
Cl2 Cl 0.55679(9) 0.04613(5) 0.82599(3)
O5 O 0.5176(3) 0.02832(13) 0.91259(10)
O9 O 0.7422(15) 0.0851(9) 0.7853(6)
O10 O 0.4081(16) 0.0937(7) 0.7885(6)
O11 O 0.5478(15) -0.0507(6) 0.8268(5)
N1 N -0.1410(3) 0.59591(13) 0.43545(13)
H1 H -0.243(5) 0.571(2) 0.436(2)
N2 N 1.1786(3) 0.92549(14) 0.46419(12)
C1 C -0.0145(4) 0.62843(17) 0.36320(16)
H2 H -0.0489 0.6225 0.3167
C2 C 0.1625(3) 0.66977(16) 0.35674(15)
H3 H 0.2504 0.6925 0.3055
C3 C 0.2178(3) 0.67951(14) 0.42466(14)
C4 C 0.0818(3) 0.64264(15) 0.49914(15)
H4 H 0.1136 0.6457 0.5471
C5 C -0.0960(3) 0.60245(15) 0.50268(15)
H5 H -0.1878 0.5791 0.5528
C6 C 0.4055(3) 0.72689(15) 0.41415(14)
H6 H 0.4854 0.7510 0.3612
C7 C 0.4723(3) 0.73852(14) 0.47556(14)
H7 H 0.3924 0.7116 0.5283
C8 C 0.6540(3) 0.78792(14) 0.46950(14)
C9 C 0.7071(3) 0.78804(15) 0.54085(14)
H8 H 0.6219 0.7564 0.5916
C10 C 0.8785(3) 0.83238(15) 0.54018(13)
H9 H 0.9089 0.8304 0.5900
C11 C 1.0097(3) 0.88085(14) 0.46556(13)
C12 C 0.9573(3) 0.88147(15) 0.39288(13)
H10 H 1.0418 0.9130 0.3419
C13 C 0.7842(3) 0.83664(15) 0.39536(14)
H11 H 0.7521 0.8387 0.3457
C14 C 1.2366(4) 0.91937(18) 0.53950(15)
H12 H 1.1323 0.8855 0.5858
H13 H 1.2562 0.9811 0.5384
H14 H 1.3604 0.8873 0.5451
C15 C 1.3153(3) 0.97342(17) 0.38801(14)
H15 H 1.2587 0.9725 0.3423
H16 H 1.4416 0.9431 0.3887
H17 H 1.3378 1.0370 0.3818
N3 N 1.1843(3) 0.43808(14) 0.95534(12)
N4 N -0.1586(18) 0.0999(11) 0.9597(6)
H18 H -0.259(8) 0.076(4) 0.960(3)
C16 C -0.0987(15) 0.0757(7) 1.0312(5)
H19 H -0.1787 0.0333 1.0790
C17 C 0.0719(10) 0.1102(4) 1.0365(4)
H20 H 0.1108 0.0914 1.0881
C18 C 0.1956(7) 0.1739(3) 0.9671(4)
C19 C 0.1303(9) 0.2003(4) 0.8920(4)
H21 H 0.2075 0.2426 0.8433
C20 C -0.0527(14) 0.1623(6) 0.8913(5)
H22 H -0.1017 0.1810 0.8419
C21 C 0.3747(5) 0.2103(2) 0.9788(2)
H23 H 0.4094 0.1843 1.0312
C22 C 0.4950(5) 0.2786(2) 0.9203(2)
H24 H 0.4623 0.3022 0.8676
C23 C 0.6694(6) 0.3187(3) 0.9310(4)
C24 C 0.7897(7) 0.3850(3) 0.8635(3)
H25 H 0.7522 0.4038 0.8118
C25 C 0.9615(10) 0.4240(4) 0.8698(4)
H26 H 1.0419 0.4672 0.8228
C26 C 0.8954(16) 0.3341(7) 1.0148(5)
H27 H 0.9274 0.3164 1.0675
C27 C 0.7294(7) 0.2952(4) 1.0067(4)
H28 H 0.6516 0.2507 1.0538
C40 C 1.0175(3) 0.39766(15) 0.94998(15)
C41 C 1.3120(4) 0.50232(17) 0.88367(15)
H40 H 1.2536 0.5129 0.8355
H41 H 1.4428 0.4770 0.8766
H42 H 1.3259 0.5604 0.8906
C42 C 1.2475(4) 0.41359(19) 1.03311(15)
H43 H 1.1493 0.3702 1.0763
H44 H 1.2598 0.4688 1.0448
H45 H 1.3760 0.3853 1.0307
C43 C -0.0280(9) 0.8419(4) 0.7689(4)
H46 H -0.1315 0.8794 0.7793
C44 C -0.0725(7) 0.7621(4) 0.7587(3)
H47 H -0.2063 0.7450 0.7620
C45 C 0.0789(8) 0.7073(3) 0.7435(3)
H48 H 0.0485 0.6528 0.7365
C46 C 0.2747(7) 0.7323(3) 0.7386(3)
H49 H 0.3782 0.6948 0.7282
C47 C 0.3191(7) 0.8120(4) 0.7488(3)
H50 H 0.4530 0.8291 0.7454
C48 C 0.1678(11) 0.8669(3) 0.7640(3)
H51 H 0.1982 0.9214 0.7710
O6? O 0.7402(13) 0.0072(7) 0.8047(4)
O7? O 0.5843(12) 0.1561(5) 0.7895(4)
O8? O 0.3999(11) 0.0243(7) 0.7982(4)
O12? O 0.4373(15) -0.0223(8) 0.8114(6)
O13? O 0.5362(16) 0.1313(7) 0.7787(6)
O14? O 0.7698(11) 0.0372(8) 0.8003(5)
O15? O 0.650(3) -0.0245(11) 0.8108(8)
O16? O 0.3609(12) 0.0615(8) 0.7976(5)
O17? O 0.6722(19) 0.1306(9) 0.7772(7)
N5? N -0.152(6) 0.112(3) 0.9410(17)
H29? H -0.2734 0.0949 0.9415
C28? C -0.094(5) 0.0946(19) 1.0120(14)
H30? H -0.1749 0.0578 1.0624
C29? C 0.099(3) 0.1350(12) 1.0092(11)
H31? H 0.1526 0.1242 1.0568
C30? C 0.198(2) 0.1898(9) 0.9319(11)
C31? C 0.118(3) 0.1954(14) 0.8658(14)
H32? H 0.1846 0.2347 0.8134
C32? C -0.031(5) 0.1542(18) 0.8694(13)
H33? H -0.0630 0.1518 0.8211
C33? C 0.3855(12) 0.2414(5) 0.9190(6)
H34? H 0.4446 0.2770 0.8643
C34? C 0.4803(13) 0.2428(6) 0.9773(6)
H35? H 0.4233 0.2042 1.0315
C35? C 0.6600(15) 0.2961(8) 0.9678(10)
C36? C 0.7630(18) 0.3542(11) 0.8951(9)
H36? H 0.7174 0.3614 0.8465
C37? C 0.934(3) 0.4036(13) 0.8899(11)
H37? H 0.9949 0.4453 0.8373
C38? C 0.906(4) 0.3302(17) 1.0353(12)
H38? H 0.9560 0.3208 1.0833
C39? C 0.727(2) 0.2836(9) 1.0394(9)
H39? H 0.6545 0.2441 1.0906
C49? C 0.1616(16) 0.7198(8) 0.7319(7)
C50? C 0.1928(16) 0.7991(8) 0.7451(8)
C51? C 0.032(2) 0.8453(7) 0.7676(8)
C52? C -0.2863(15) 0.7966(8) 0.7793(7)
C53? C -0.3198(17) 0.7177(8) 0.7657(6)
C54? C -0.161(2) 0.6684(7) 0.7469(7)
C55? C 0.0318(19) 0.6981(8) 0.7416(8)
C56? C 0.0653(14) 0.7770(8) 0.7551(7)
C57? C -0.0937(18) 0.8263(7) 0.7740(7)
C58? C -0.1599(17) 0.8122(8) 0.7768(7)
C59? C -0.1911(15) 0.7328(8) 0.7636(7)
C60? C -0.0303(19) 0.6866(6) 0.7411(7)
H52? H 0.2715 0.6882 0.7165
H53? H 0.3240 0.8218 0.7388
H54? H 0.0534 0.8996 0.7766
H55? H -0.3949 0.8303 0.7921
H56? H -0.4514 0.6975 0.7693
H57? H -0.1837 0.6145 0.7376
H58? H 0.1404 0.6644 0.7287
H59? H 0.1969 0.7973 0.7515
H60? H -0.0708 0.8802 0.7832
H61? H -0.0516 0.6324 0.7321
H62? H -0.2698 0.8438 0.7922
H63? H -0.3223 0.7102 0.7699
loop_
_geom_bond_atom_site_label_1
_geom_bond_atom_site_label_2
_geom_bond_site_symmetry_1
_geom_bond_site_symmetry_2
Cl1 O1 1_555 1_555
O2 Cl1 1_555 1_555
O3 Cl1 1_555 1_555
O4 Cl1 1_555 1_555
Cl2 O5 1_555 1_555
O9 Cl2 1_555 1_555
O10 Cl2 1_555 1_555
O11 Cl2 1_555 1_555
N1 H1 1_555 1_555
N2 C11 1_555 1_555
C1 N1 1_555 1_555
H2 C1 1_555 1_555
C2 C1 1_555 1_555
H3 C2 1_555 1_555
C3 C2 1_555 1_555
C4 C3 1_555 1_555
H4 C4 1_555 1_555
C5 N1 1_555 1_555
H5 C5 1_555 1_555
C6 C3 1_555 1_555
H6 C6 1_555 1_555
C7 C6 1_555 1_555
H7 C7 1_555 1_555
C8 C7 1_555 1_555
C9 C8 1_555 1_555
H8 C9 1_555 1_555
C10 C9 1_555 1_555
H9 C10 1_555 1_555
C11 C10 1_555 1_555
C12 C11 1_555 1_555
H10 C12 1_555 1_555
C13 C8 1_555 1_555
H11 C13 1_555 1_555
C14 N2 1_555 1_555
H12 C14 1_555 1_555
H13 C14 1_555 1_555
H14 C14 1_555 1_555
C15 N2 1_555 1_555
H15 C15 1_555 1_555
H16 C15 1_555 1_555
H17 C15 1_555 1_555
N3 C40 1_555 1_555
N4 H18 1_555 1_555
C16 N4 1_555 1_555
H19 C16 1_555 1_555
C17 C16 1_555 1_555
H20 C17 1_555 1_555
C18 C17 1_555 1_555
C19 C18 1_555 1_555
H21 C19 1_555 1_555
C20 N4 1_555 1_555
H22 C20 1_555 1_555
C21 C18 1_555 1_555
H23 C21 1_555 1_555
C22 C21 1_555 1_555
H24 C22 1_555 1_555
C23 C22 1_555 1_555
C24 C23 1_555 1_555
H25 C24 1_555 1_555
C25 C24 1_555 1_555
H26 C25 1_555 1_555
C26 H27 1_555 1_555
C27 C23 1_555 1_555
H28 C27 1_555 1_555
C40 C25 1_555 1_555
C41 N3 1_555 1_555
H40 C41 1_555 1_555
H41 C41 1_555 1_555
H42 C41 1_555 1_555
C42 N3 1_555 1_555
H43 C42 1_555 1_555
H44 C42 1_555 1_555
H45 C42 1_555 1_555
C43 H46 1_555 1_555
C44 C43 1_555 1_555
H47 C44 1_555 1_555
C45 C44 1_555 1_555
H48 C45 1_555 1_555
C46 C45 1_555 1_555
H49 C46 1_555 1_555
C47 C46 1_555 1_555
H50 C47 1_555 1_555
C48 C43 1_555 1_555
H51 C48 1_555 1_555
C4 C5 1_555 1_555
C12 C13 1_555 1_555
C19 C20 1_555 1_555
C26 C27 1_555 1_555
C26 C40 1_555 1_555
C47 C48 1_555 1_555

#END
