
#######################################################################
#
#                 Cambridge Crystallographic Data Centre
#                                CCDC 
#
#######################################################################
#
# If this CIF has been generated from an entry in the Cambridge 
# Structural Database, then it will include bibliographic, chemical, 
# crystal, experimental, refinement or atomic coordinate data resulting 
# from the CCDC's data processing and validation procedures.
#
#######################################################################

data_GEKLIT
_chemical_formula_moiety         
'0.8(C13 H11 N2 O2 1+),0.6(C26 H22 N4 O4 2+),2(Cl1 O4 1-)'
_chemical_name_systematic        
'1,3-bis(Pyridin-4-ium-1-yl)-2,4-bis(4-nitrophenyl)cyclobutane 4-((E)-2-(4-nitrophenyl)-1-ethenyl)pyridinium diperchlorate'
_symmetry_cell_setting           monoclinic
_symmetry_space_group_name_H-M   'P 21/n'
_symmetry_Int_Tables_number      14
_space_group_name_Hall           '-P 2yn'
loop_
_symmetry_equiv_pos_site_id
_symmetry_equiv_pos_as_xyz
1 x,y,z
2 1/2-x,1/2+y,1/2-z
3 -x,-y,-z
4 1/2+x,1/2-y,1/2+z
_cell_length_a                   7.684(3)
_cell_length_b                   14.157(5)
_cell_length_c                   13.004(4)
_cell_angle_alpha                90
_cell_angle_beta                 102.453(6)
_cell_angle_gamma                90
_cell_volume                     1381.33
_exptl_crystal_colour            colorless
_exptl_crystal_description       plate
_cell_formula_units_Z            2
loop_
_atom_site_label
_atom_site_type_symbol
_atom_site_fract_x
_atom_site_fract_y
_atom_site_fract_z
N1 N 0.6593(14) 1.0103(9) 0.3915(9)
H1 H 0.7094 1.0208 0.4580
N2 N -0.2252(19) 0.8795(9) -0.3156(13)
O5 O -0.3017(15) 0.9368(8) -0.3873(8)
O6 O -0.2609(14) 0.7949(10) -0.3193(9)
C1 C 0.6240(19) 0.9235(13) 0.3615(12)
H2 H 0.6464 0.8733 0.4110
C2 C 0.555(3) 0.9059(10) 0.2589(15)
H3 H 0.5217 0.8431 0.2378
C3 C 0.5308(15) 0.9770(10) 0.1826(10)
C4 C 0.560(2) 1.0705(10) 0.2246(13)
H4 H 0.5340 1.1237 0.1793
C5 C 0.6241(16) 1.0829(10) 0.3278(12)
H5 H 0.6442 1.1450 0.3553
C6 C 0.4846(12) 0.9545(6) 0.0686(7)
H6 H 0.4457 0.8872 0.0568
C7 C 0.3583(12) 1.0211(6) -0.0072(7)
H7 H 0.3307 1.0780 0.0319
C8 C 0.1874(13) 0.9826(7) -0.0771(8)
C9 C 0.0913(16) 1.0475(9) -0.1524(10)
H8 H 0.1226 1.1125 -0.1493
C10 C -0.0448(19) 1.0153(10) -0.2282(13)
H9 H -0.1093 1.0576 -0.2793
C11 C -0.0892(17) 0.9215(10) -0.2309(10)
C12 C -0.0121(18) 0.8584(9) -0.1471(11)
H10 H -0.0575 0.7965 -0.1426
C13 C 0.1319(14) 0.8922(9) -0.0727(8)
H11 H 0.1920 0.8516 -0.0183
N1B N 0.3407(14) 0.9897(9) -0.3915(9)
H1B H 0.2906 0.9792 -0.4580
N2B N 1.2252(19) 1.1205(9) 0.3156(13)
O5B O 1.3017(15) 1.0632(8) 0.3873(8)
O6B O 1.2609(14) 1.2051(10) 0.3193(9)
C1B C 0.3760(19) 1.0765(13) -0.3615(12)
H2B H 0.3536 1.1267 -0.4110
C2B C 0.445(3) 1.0941(10) -0.2589(15)
H3B H 0.4783 1.1569 -0.2378
C3B C 0.4692(15) 1.0230(10) -0.1826(10)
C4B C 0.440(2) 0.9295(10) -0.2246(13)
H4B H 0.4660 0.8763 -0.1793
C5B C 0.3759(16) 0.9171(10) -0.3278(12)
H5B H 0.3558 0.8550 -0.3553
C6B C 0.5154(12) 1.0455(6) -0.0686(7)
H6B H 0.5543 1.1128 -0.0568
C7B C 0.6417(12) 0.9789(6) 0.0072(7)
H7B H 0.6693 0.9220 -0.0319
C8B C 0.8126(13) 1.0174(7) 0.0771(8)
C9B C 0.9087(16) 0.9525(9) 0.1524(10)
H8B H 0.8774 0.8875 0.1493
C10B C 1.0448(19) 0.9847(10) 0.2282(13)
H9B H 1.1093 0.9424 0.2793
C11B C 1.0892(17) 1.0785(10) 0.2309(10)
C12B C 1.0121(18) 1.1416(9) 0.1471(11)
H10B H 1.0575 1.2035 0.1426
C13B C 0.8681(14) 1.1078(9) 0.0727(8)
H11B H 0.8080 1.1484 0.0183
Cl1 Cl 0.0941(3) 0.80368(13) 0.46885(15)
O1 O 0.244(2) 0.8173(15) 0.4224(15)
O2 O -0.0438(19) 0.7575(9) 0.4070(14)
O3 O 0.0420(15) 0.8999(6) 0.4976(8)
O4 O 0.1571(16) 0.7561(9) 0.5706(10)
N3? N 0.7066(19) 0.9952(11) 0.3492(12)
H12? H 0.7834 1.0097 0.4076
N4? N -0.255(3) 0.8575(16) -0.3661(17)
O7? O -0.321(3) 0.9182(15) -0.4354(16)
O8? O -0.283(3) 0.7712(12) -0.3741(16)
C14? C 0.662(3) 0.9066(14) 0.3306(16)
H13? H 0.7103 0.8607 0.3821
C15? C 0.549(3) 0.8774(14) 0.2410(17)
H14? H 0.5255 0.8123 0.2269
C16? C 0.465(2) 0.9504(11) 0.1670(13)
C17? C 0.524(2) 1.0440(13) 0.1931(14)
H15? H 0.4806 1.0937 0.1454
C18? C 0.639(3) 1.0642(13) 0.2822(19)
H16? H 0.6734 1.1279 0.2984
C19? C 0.3272(19) 0.9214(10) 0.0711(10)
H17? H 0.3088 0.8557 0.0583
C20? C 0.2318(19) 0.9795(11) 0.0049(12)
H18? H 0.2522 1.0453 0.0159
C21? C 0.091(2) 0.9490(12) -0.0882(12)
C22? C 0.033(3) 1.0153(13) -0.1665(15)
H19? H 0.0751 1.0785 -0.1588
C23? C -0.087(2) 0.9870(14) -0.2555(14)
H20? H -0.1356 1.0312 -0.3089
C24? C -0.135(3) 0.8916(14) -0.2656(18)
C25? C -0.088(2) 0.8271(13) -0.1848(15)
H21? H -0.1310 0.7640 -0.1903
C26? C 0.028(3) 0.8613(13) -0.0941(17)
H22? H 0.0621 0.8206 -0.0351
O9? O 0.1524(15) 0.7116(8) 0.5105(11)
O10? O -0.0107(14) 0.8498(13) 0.5252(9)
O11? O 0.2324(17) 0.8528(9) 0.4398(9)
O12? O -0.0278(19) 0.7765(11) 0.3639(10)
loop_
_geom_bond_atom_site_label_1
_geom_bond_atom_site_label_2
_geom_bond_site_symmetry_1
_geom_bond_site_symmetry_2
Cl1 O1 1_555 1_555
O2 Cl1 1_555 1_555
O3 Cl1 1_555 1_555
O4 Cl1 1_555 1_555
N1 H1 1_555 1_555
N2 O5 1_555 1_555
O6 N2 1_555 1_555
C1 N1 1_555 1_555
H2 C1 1_555 1_555
C2 C1 1_555 1_555
H3 C2 1_555 1_555
C3 C2 1_555 1_555
C4 C3 1_555 1_555
H4 C4 1_555 1_555
C5 N1 1_555 1_555
H5 C5 1_555 1_555
C6 C3 1_555 1_555
H6 C6 1_555 1_555
C7 C6 1_555 1_555
H7 C7 1_555 1_555
C8 C7 1_555 1_555
C9 C8 1_555 1_555
H8 C9 1_555 1_555
C10 C9 1_555 1_555
H9 C10 1_555 1_555
C11 N2 1_555 1_555
C12 C11 1_555 1_555
H10 C12 1_555 1_555
C13 C8 1_555 1_555
H11 C13 1_555 1_555
N1B H1B 1_555 1_555
N2B O5B 1_555 1_555
O6B N2B 1_555 1_555
C1B N1B 1_555 1_555
H2B C1B 1_555 1_555
C2B C1B 1_555 1_555
H3B C2B 1_555 1_555
C3B C2B 1_555 1_555
C4B C3B 1_555 1_555
H4B C4B 1_555 1_555
C5B N1B 1_555 1_555
H5B C5B 1_555 1_555
C6B C7 1_555 1_555
H6B C6B 1_555 1_555
C7B C6 1_555 1_555
H7B C7B 1_555 1_555
C8B C7B 1_555 1_555
C9B C8B 1_555 1_555
H8B C9B 1_555 1_555
C10B C9B 1_555 1_555
H9B C10B 1_555 1_555
C11B N2B 1_555 1_555
C12B C11B 1_555 1_555
H10B C12B 1_555 1_555
C13B C8B 1_555 1_555
H11B C13B 1_555 1_555
C4 C5 1_555 1_555
C10 C11 1_555 1_555
C12 C13 1_555 1_555
C3B C6B 1_555 1_555
C4B C5B 1_555 1_555
C6B C7B 1_555 1_555
C10B C11B 1_555 1_555
C12B C13B 1_555 1_555

#END
