
#######################################################################
#
#                 Cambridge Crystallographic Data Centre
#                                CCDC 
#
#######################################################################
#
# If this CIF has been generated from an entry in the Cambridge 
# Structural Database, then it will include bibliographic, chemical, 
# crystal, experimental, refinement or atomic coordinate data resulting 
# from the CCDC's data processing and validation procedures.
#
#######################################################################

data_GEKMIU
_chemical_formula_moiety         
'C14 H14 N1 S1 1+,Cl1 O4 1-,0.76(C6 H6),0.14(H2 O1)'
_chemical_name_systematic        
'4-((E)-2-(4-Methylsulfanylphenyl)-1-ethenyl)pyridinium perchlorate benzene solvate hydrate'
_symmetry_cell_setting           triclinic
_symmetry_space_group_name_H-M   'P -1'
_symmetry_Int_Tables_number      2
_space_group_name_Hall           '-P 1'
loop_
_symmetry_equiv_pos_site_id
_symmetry_equiv_pos_as_xyz
1 x,y,z
2 -x,-y,-z
_cell_length_a                   14.764(4)
_cell_length_b                   25.923(6)
_cell_length_c                   27.154(7)
_cell_angle_alpha                81.782(9)
_cell_angle_beta                 77.770(11)
_cell_angle_gamma                86.951(10)
_cell_volume                     10049.6
_exptl_crystal_colour            yellow
_exptl_crystal_description       needle
_cell_formula_units_Z            21
loop_
_atom_site_label
_atom_site_type_symbol
_atom_site_fract_x
_atom_site_fract_y
_atom_site_fract_z
Cl1 Cl 0.0592(3) 0.16052(19) 0.04214(18)
O1 O -0.0250(9) 0.1526(5) 0.0785(5)
O2 O 0.0956(12) 0.1129(7) 0.0289(7)
O3 O 0.1257(10) 0.1874(6) 0.0639(5)
O4 O 0.0497(16) 0.1892(9) -0.0029(8)
Cl2 Cl 0.7685(4) 0.1228(2) 0.2210(2)
O5 O 0.7320(12) 0.1742(7) 0.2296(7)
O6 O 0.8468(10) 0.1334(6) 0.1804(6)
O7 O 0.6978(11) 0.1006(6) 0.2010(6)
O8 O 0.7847(13) 0.0943(8) 0.2641(7)
Cl3 Cl 0.4034(4) 0.6765(2) 0.7611(2)
O9 O 0.4814(10) 0.6879(6) 0.7195(6)
O10 O 0.3692(12) 0.7303(7) 0.7773(6)
O11 O 0.3316(9) 0.6555(5) 0.7391(5)
O12 O 0.4181(16) 0.6508(9) 0.8073(9)
Cl4 Cl 0.8990(3) 0.43717(19) 0.31510(18)
O13 O 0.7979(9) 0.4373(5) 0.3366(5)
O14 O 0.9131(11) 0.4620(6) 0.2672(6)
O15 O 0.9313(9) 0.3808(5) 0.3117(5)
O16 O 0.9498(13) 0.4610(7) 0.3460(7)
Cl5 Cl 0.5881(3) 0.40070(17) 0.48795(16)
O17 O 0.5203(9) 0.3775(5) 0.4692(5)
O18 O 0.6671(8) 0.4152(5) 0.4476(4)
O19 O 0.5555(9) 0.4457(5) 0.5113(5)
O20 O 0.6215(10) 0.3603(5) 0.5226(5)
Cl6 Cl 0.4575(3) 0.01604(18) 0.13262(17)
O21 O 0.5557(10) 0.0137(6) 0.1247(5)
O22 O 0.4151(12) -0.0083(7) 0.0983(6)
O23 O 0.4142(8) 0.0001(5) 0.1808(4)
O24 O 0.4332(11) 0.0694(6) 0.1208(6)
Cl7 Cl 0.2302(3) 0.95925(17) 0.02866(16)
O25 O 0.1958(9) 1.0102(5) 0.0373(5)
O26 O 0.1595(9) 0.9356(5) 0.0076(5)
O27 O 0.3143(8) 0.9656(5) -0.0101(4)
O28 O 0.2431(9) 0.9253(5) 0.0718(5)
Cl8 Cl 0.9393(3) 0.77293(18) 0.70768(17)
O29 O 0.8566(10) 0.7672(6) 0.7494(5)
O30 O 1.0189(10) 0.7859(6) 0.7289(5)
O31 O 0.9648(8) 0.7222(5) 0.6861(4)
O32 O 0.9167(9) 0.8101(5) 0.6654(5)
Cl9 Cl 0.6547(7) 0.7452(4) 0.8606(3)
O33 O 0.6079(14) 0.7379(9) 0.9078(6)
O34 O 0.6644(19) 0.7944(6) 0.8454(10)
O35 O 0.6011(15) 0.7272(10) 0.8333(8)
O36 O 0.7324(12) 0.7199(9) 0.8538(8)
Cl10 Cl 0.2731(3) 0.29218(18) 0.40697(18)
O37 O 0.3725(9) 0.2871(5) 0.3836(5)
O38 O 0.2487(8) 0.3486(5) 0.4055(4)
O39 O 0.2478(10) 0.2667(5) 0.4588(5)
O40 O 0.2262(8) 0.2684(5) 0.3758(4)
S1 S 0.5134(4) 0.2995(3) 0.8767(2)
N1 N 0.0683(8) -0.0418(4) 0.9094(5)
H1 H 0.0364 -0.0696 0.9097
C1 C 0.0271(6) -0.0011(4) 0.9350(4)
H2 H -0.0356 -0.0032 0.9528
C2 C 0.0776(8) 0.0428(4) 0.9345(4)
H3 H 0.0494 0.0707 0.9520
C3 C 0.1693(7) 0.0460(4) 0.9084(5)
C4 C 0.2106(6) 0.0052(5) 0.8828(4)
H4 H 0.2733 0.0074 0.8650
C5 C 0.1601(8) -0.0387(4) 0.8833(4)
H5 H 0.1883 -0.0665 0.8658
C6 C 0.2117(13) 0.0998(6) 0.9093(8)
H6 H 0.1738 0.1277 0.9220
C7 C 0.2969(15) 0.1050(8) 0.8928(11)
H7 H 0.3350 0.0763 0.8822
C8 C 0.3385(9) 0.1579(4) 0.8902(6)
C9 C 0.4310(10) 0.1571(4) 0.8653(5)
H8 H 0.4575 0.1269 0.8512
C10 C 0.4848(6) 0.2006(5) 0.8609(5)
H9 H 0.5480 0.2001 0.8439
C11 C 0.4460(8) 0.2448(4) 0.8815(5)
C12 C 0.3535(8) 0.2456(4) 0.9065(4)
H10 H 0.3270 0.2758 0.9205
C13 C 0.2998(6) 0.2021(5) 0.9108(5)
H11 H 0.2366 0.2026 0.9278
C14 C 0.4481(17) 0.3396(9) 0.9204(8)
H12 H 0.4837 0.3705 0.9205
H13 H 0.4354 0.3199 0.9546
H14 H 0.3895 0.3506 0.9102
S2 S 0.6744(4) 1.0236(2) 0.6094(2)
N2 N 0.2320(7) 0.6774(4) 0.6438(4)
H15 H 0.1996 0.6497 0.6443
C15 C 0.1937(5) 0.7168(4) 0.6721(4)
H16 H 0.1326 0.7138 0.6921
C16 C 0.2449(7) 0.7605(4) 0.6713(4)
H17 H 0.2188 0.7874 0.6907
C17 C 0.3344(7) 0.7648(4) 0.6421(5)
C18 C 0.3726(6) 0.7255(4) 0.6137(4)
H18 H 0.4338 0.7285 0.5938
C19 C 0.3215(8) 0.6818(4) 0.6146(4)
H19 H 0.3476 0.6549 0.5952
C20 C 0.3800(15) 0.8165(7) 0.6428(11)
H20 H 0.3435 0.8407 0.6623
C21 C 0.4614(14) 0.8304(7) 0.6202(9)
H21 H 0.4992 0.8081 0.5990
C22 C 0.4995(9) 0.8822(4) 0.6264(5)
C23 C 0.5878(9) 0.8872(4) 0.5959(5)
H22 H 0.6145 0.8597 0.5773
C24 C 0.6370(6) 0.9322(5) 0.5925(4)
H23 H 0.6973 0.9356 0.5716
C25 C 0.5980(7) 0.9723(4) 0.6196(5)
C26 C 0.5097(7) 0.9674(4) 0.6502(4)
H24 H 0.4830 0.9948 0.6687
C27 C 0.4605(6) 0.9223(5) 0.6536(4)
H25 H 0.4002 0.9189 0.6745
C28 C 0.6181(13) 1.0569(7) 0.6605(6)
H26 H 0.6517 1.0886 0.6601
H27 H 0.6170 1.0343 0.6927
H28 H 0.5545 1.0663 0.6568
S3 S 0.6570(4) 0.4171(2) 0.8516(2)
N3 N 1.0970(7) 0.7557(3) 0.8246(4)
H29 H 1.1270 0.7840 0.8249
C29 C 1.1433(5) 0.7146(4) 0.8012(4)
H30 H 1.2071 0.7172 0.7857
C30 C 1.0960(7) 0.6698(3) 0.8007(4)
H31 H 1.1276 0.6418 0.7847
C31 C 1.0025(7) 0.6661(4) 0.8234(5)
C32 C 0.9563(5) 0.7071(5) 0.8468(4)
H32 H 0.8924 0.7046 0.8623
C33 C 1.0035(7) 0.7519(4) 0.8473(4)
H33 H 0.9720 0.7800 0.8633
C34 C 0.9580(13) 0.6147(7) 0.8204(9)
H34 H 0.9928 0.5876 0.8044
C35 C 0.8736(11) 0.6104(6) 0.8402(7)
H35 H 0.8393 0.6374 0.8567
C36 C 0.8284(7) 0.5601(3) 0.8367(5)
C37 C 0.7363(7) 0.5589(3) 0.8624(4)
H36 H 0.7084 0.5884 0.8773
C38 C 0.6850(5) 0.5145(4) 0.8662(4)
H37 H 0.6221 0.5137 0.8837
C39 C 0.7258(7) 0.4714(3) 0.8444(4)
C40 C 0.8179(7) 0.4726(3) 0.8187(4)
H38 H 0.8459 0.4431 0.8038
C41 C 0.8692(5) 0.5170(4) 0.8149(4)
H39 H 0.9322 0.5178 0.7974
C42 C 0.7372(14) 0.3696(8) 0.8241(8)
H40 H 0.7054 0.3367 0.8268
H41 H 0.7884 0.3638 0.8423
H42 H 0.7618 0.3822 0.7882
S4 S 0.8274(4) 0.7572(2) 0.34449(19)
N4 N 0.4105(7) 0.4057(4) 0.3740(4)
H43 H 0.3740 0.3791 0.3775
C43 C 0.5029(8) 0.4020(4) 0.3496(4)
H44 H 0.5267 0.3708 0.3366
C44 C 0.5605(6) 0.4441(5) 0.3442(4)
H45 H 0.6236 0.4416 0.3274
C45 C 0.5257(7) 0.4898(4) 0.3632(5)
C46 C 0.4333(8) 0.4934(4) 0.3876(4)
H46 H 0.4095 0.5247 0.4007
C47 C 0.3756(6) 0.4514(5) 0.3931(4)
H47 H 0.3125 0.4539 0.4098
C48 C 0.6017(12) 0.5303(6) 0.3517(8)
H48 H 0.6635 0.5236 0.3347
C49 C 0.5749(11) 0.5731(6) 0.3670(7)
H49 H 0.5119 0.5795 0.3822
C50 C 0.6485(9) 0.6145(5) 0.3597(6)
C51 C 0.6144(7) 0.6579(6) 0.3831(5)
H50 H 0.5526 0.6585 0.4023
C52 C 0.6705(10) 0.7005(5) 0.3784(5)
H51 H 0.6472 0.7301 0.3944
C53 C 0.7608(9) 0.6996(5) 0.3503(6)
C54 C 0.7950(7) 0.6562(6) 0.3269(5)
H52 H 0.8567 0.6556 0.3077
C55 C 0.7388(10) 0.6137(5) 0.3316(5)
H53 H 0.7622 0.5840 0.3156
C56 C 0.7739(14) 0.7941(8) 0.4003(7)
H54 H 0.8093 0.8255 0.3984
H55 H 0.7754 0.7717 0.4324
H56 H 0.7095 0.8041 0.3988
S5 S 0.8142(4) 0.1509(2) 0.5895(2)
N5 N 1.2878(8) 0.4842(4) 0.5489(5)
H57 H 1.3221 0.5107 0.5497
C57 C 1.3262(6) 0.4433(5) 0.5228(4)
H58 H 1.3894 0.4439 0.5057
C58 C 1.2720(8) 0.4014(4) 0.5216(4)
H59 H 1.2982 0.3734 0.5037
C59 C 1.1795(8) 0.4005(4) 0.5466(5)
C60 C 1.1412(6) 0.4414(5) 0.5727(4)
H60 H 1.0779 0.4407 0.5898
C61 C 1.1953(8) 0.4832(4) 0.5739(4)
H61 H 1.1692 0.5112 0.5918
C62 C 1.1275(9) 0.3505(5) 0.5466(6)
H62 H 1.1597 0.3244 0.5280
C63 C 1.0437(10) 0.3418(6) 0.5701(7)
H63 H 1.0119 0.3679 0.5889
C64 C 0.9919(7) 0.2931(4) 0.5702(5)
C65 C 0.9012(8) 0.2925(4) 0.5979(4)
H64 H 0.8757 0.3219 0.6138
C66 C 0.8477(6) 0.2489(4) 0.6023(4)
H65 H 0.7857 0.2484 0.6212
C67 C 0.8850(7) 0.2059(4) 0.5790(4)
C68 C 0.9757(7) 0.2066(3) 0.5513(4)
H66 H 1.0012 0.1772 0.5354
C69 C 1.0292(5) 0.2502(4) 0.5469(4)
H67 H 1.0912 0.2506 0.5280
C70 C 0.8877(12) 0.1017(7) 0.5533(6)
H68 H 0.8530 0.0697 0.5572
H69 H 0.9443 0.0938 0.5667
H70 H 0.9043 0.1159 0.5172
S6 S 0.0173(4) 0.5106(2) 0.9162(2)
N6 N 0.3889(7) 0.8750(3) 0.9047(4)
H71 H 0.4174 0.9043 0.9032
C71 C 0.2954(7) 0.8709(4) 0.9273(4)
H72 H 0.2622 0.8997 0.9411
C72 C 0.2504(6) 0.8246(5) 0.9296(4)
H73 H 0.1865 0.8218 0.9450
C73 C 0.2989(8) 0.7824(4) 0.9093(5)
C74 C 0.3924(8) 0.7865(4) 0.8868(4)
H74 H 0.4256 0.7577 0.8729
C75 C 0.4375(5) 0.8328(4) 0.8845(4)
H75 H 0.5014 0.8357 0.8690
C76 C 0.2684(12) 0.7281(6) 0.9028(7)
H76 H 0.3094 0.7067 0.8820
C77 C 0.1898(13) 0.7126(6) 0.9249(8)
H77 H 0.1484 0.7345 0.9449
C78 C 0.1606(10) 0.6594(4) 0.9199(6)
C79 C 0.2070(6) 0.6209(5) 0.8929(5)
H78 H 0.2689 0.6260 0.8744
C80 C 0.1630(7) 0.5748(4) 0.8929(4)
H79 H 0.1947 0.5484 0.8745
C81 C 0.0725(7) 0.5673(4) 0.9200(5)
C82 C 0.0261(6) 0.6059(5) 0.9470(4)
H80 H -0.0357 0.6007 0.9655
C83 C 0.0701(9) 0.6520(4) 0.9470(5)
H81 H 0.0384 0.6783 0.9654
C84 C -0.0985(18) 0.5151(11) 0.9511(10)
H82 H -0.1317 0.4838 0.9496
H83 H -0.1298 0.5459 0.9364
H84 H -0.0980 0.5180 0.9867
S7 S 1.0308(4) 1.1160(2) 0.6679(2)
N7 N 0.5367(7) 0.7940(3) 0.7319(4)
H85 H 0.5017 0.7672 0.7332
C85 C 0.4996(5) 0.8371(4) 0.7550(4)
H86 H 0.4364 0.8376 0.7722
C86 C 0.5548(7) 0.8794(3) 0.7530(4)
H87 H 0.5294 0.9088 0.7689
C87 C 0.6472(7) 0.8786(4) 0.7279(5)
C88 C 0.6843(5) 0.8356(5) 0.7047(4)
H88 H 0.7474 0.8350 0.6876
C89 C 0.6290(7) 0.7932(4) 0.7067(4)
H89 H 0.6544 0.7638 0.6909
C90 C 0.7074(11) 0.9252(7) 0.7270(8)
H90 H 0.6833 0.9531 0.7454
C91 C 0.7905(10) 0.9260(6) 0.7011(7)
H91 H 0.8150 0.8970 0.6842
C92 C 0.8493(7) 0.9721(4) 0.6973(4)
C93 C 0.9389(8) 0.9712(4) 0.6682(4)
H92 H 0.9631 0.9406 0.6541
C94 C 0.9931(6) 1.0150(5) 0.6599(4)
H93 H 1.0543 1.0144 0.6401
C95 C 0.9577(7) 1.0598(4) 0.6806(5)
C96 C 0.8681(8) 1.0607(4) 0.7096(4)
H94 H 0.8439 1.0913 0.7238
C97 C 0.8139(6) 1.0168(4) 0.7180(4)
H95 H 0.7526 1.0174 0.7378
C98 C 0.9630(12) 1.1699(7) 0.6981(7)
H96 H 1.0014 1.2008 0.6918
H97 H 0.9442 1.1591 0.7348
H98 H 0.9078 1.1781 0.6836
S8 S 1.1479(8) 0.2204(4) 0.8128(5)
N8 N 0.8184(13) -0.1527(6) 0.8194(7)
H99 H 0.7974 -0.1836 0.8182
C99 C 0.7593(11) -0.1154(8) 0.8421(8)
H100 H 0.6962 -0.1231 0.8564
C100 C 0.7925(15) -0.0667(7) 0.8440(8)
H101 H 0.7521 -0.0411 0.8595
C101 C 0.8848(16) -0.0553(6) 0.8231(9)
C102 C 0.9439(12) -0.0926(9) 0.8004(10)
H102 H 1.0070 -0.0849 0.7862
C103 C 0.9107(13) -0.1414(8) 0.7986(9)
H103 H 0.9511 -0.1669 0.7830
C104 C 0.8997(18) 0.0002(9) 0.8330(13)
H104 H 0.8547 0.0190 0.8544
C105 C 0.9761(15) 0.0181(8) 0.8104(10)
H105 H 1.0131 -0.0037 0.7883
C106 C 1.0185(12) 0.0677(6) 0.8124(9)
C107 C 1.1064(12) 0.0787(6) 0.7833(8)
H106 H 1.1390 0.0541 0.7629
C108 C 1.1467(10) 0.1258(6) 0.7841(8)
H107 H 1.2068 0.1333 0.7642
C109 C 1.0991(12) 0.1618(6) 0.8141(9)
C110 C 1.0112(11) 0.1508(6) 0.8432(8)
H108 H 0.9786 0.1754 0.8636
C111 C 0.9709(10) 0.1038(6) 0.8424(7)
H109 H 0.9108 0.0962 0.8623
C112 C 1.113(3) 0.2511(15) 0.8653(11)
H110 H 1.1441 0.2844 0.8601
H111 H 1.1287 0.2291 0.8949
H112 H 1.0456 0.2573 0.8712
S9 S 0.2842(4) 0.9853(3) 0.5938(2)
N9 N 0.0326(7) 0.6047(3) 0.5388(4)
H113 H 0.0148 0.5740 0.5345
C113 C -0.0302(5) 0.6379(5) 0.5653(4)
H114 H -0.0923 0.6276 0.5788
C114 C -0.0021(7) 0.6863(4) 0.5721(4)
H115 H -0.0450 0.7091 0.5902
C115 C 0.0888(8) 0.7014(3) 0.5524(5)
C116 C 0.1516(5) 0.6681(4) 0.5259(4)
H116 H 0.2137 0.6784 0.5124
C117 C 0.1235(7) 0.6197(4) 0.5191(4)
H117 H 0.1664 0.5970 0.5010
C118 C 0.1044(18) 0.7545(7) 0.5685(10)
H118 H 0.0594 0.7685 0.5939
C119 C 0.1772(18) 0.7792(8) 0.5476(11)
H119 H 0.2243 0.7649 0.5234
C120 C 0.1868(9) 0.8330(4) 0.5626(5)
C121 C 0.2644(9) 0.8560(5) 0.5304(4)
H120 H 0.2966 0.8395 0.5024
C122 C 0.2949(6) 0.9030(4) 0.5390(4)
H121 H 0.3479 0.9187 0.5170
C123 C 0.2478(8) 0.9271(4) 0.5799(4)
C124 C 0.1702(7) 0.9041(4) 0.6122(4)
H122 H 0.1380 0.9206 0.6401
C125 C 0.1397(7) 0.8571(4) 0.6035(4)
H123 H 0.0867 0.8413 0.6255
C126 C 0.3868(14) 1.0001(8) 0.5453(7)
H124 H 0.4125 1.0327 0.5500
H125 H 0.3707 1.0039 0.5117
H126 H 0.4329 0.9718 0.5477
S10 S 0.5581(10) 0.2774(5) 0.6648(5)
N10 N 0.7827(13) 0.6555(6) 0.7366(7)
H127 H 0.8024 0.6857 0.7407
C127 C 0.8413(9) 0.6228(8) 0.7071(7)
H128 H 0.9026 0.6331 0.6913
C128 C 0.8102(15) 0.5750(7) 0.7006(8)
H129 H 0.8502 0.5526 0.6804
C129 C 0.7205(17) 0.5599(7) 0.7237(10)
C130 C 0.6619(11) 0.5926(9) 0.7533(9)
H130 H 0.6006 0.5823 0.7691
C131 C 0.6931(12) 0.6404(8) 0.7597(7)
H131 H 0.6530 0.6627 0.7799
C132 C 0.675(3) 0.5081(12) 0.722(2)
H132 H 0.6143 0.5008 0.7414
C133 C 0.717(3) 0.4755(14) 0.694(2)
H133 H 0.7782 0.4816 0.6744
C134 C 0.6672(16) 0.4266(7) 0.6936(10)
C135 C 0.5937(17) 0.4054(8) 0.7306(8)
H134 H 0.5703 0.4222 0.7597
C136 C 0.5543(14) 0.3597(8) 0.7249(8)
H135 H 0.5040 0.3452 0.7501
C137 C 0.5885(14) 0.3351(7) 0.6822(9)
C138 C 0.6620(14) 0.3563(8) 0.6452(7)
H136 H 0.6854 0.3395 0.6161
C139 C 0.7014(13) 0.4020(8) 0.6509(8)
H137 H 0.7517 0.4165 0.6256
C140 C 0.473(3) 0.261(2) 0.7201(13)
H138 H 0.4452 0.2281 0.7183
H139 H 0.4251 0.2886 0.7229
H140 H 0.5017 0.2573 0.7499
C141 C 0.7023(18) 0.4910(9) 0.2210(9)
H141 H 0.7228 0.4574 0.2338
C142 C 0.6243(18) 0.4965(10) 0.1996(11)
H142 H 0.5915 0.4666 0.1976
C143 C 0.5942(17) 0.5457(12) 0.1810(10)
H143 H 0.5409 0.5495 0.1663
C144 C 0.642(2) 0.5895(9) 0.1838(11)
H144 H 0.6217 0.6232 0.1711
C145 C 0.720(2) 0.5841(10) 0.2053(13)
H145 H 0.7530 0.6140 0.2073
C146 C 0.7503(16) 0.5348(13) 0.2239(11)
H146 H 0.8036 0.5311 0.2386
O41 O 0.8882(17) 0.5198(8) 0.5866(10)
N11 N -0.6576(7) 0.0801(4) 1.0085(4)
H147 H -0.7033 0.0582 1.0141
C147 C -0.6722(6) 0.1279(5) 1.0269(4)
H148 H -0.7316 0.1369 1.0455
C148 C -0.5999(8) 0.1624(4) 1.0182(4)
H149 H -0.6099 0.1951 1.0307
C149 C -0.5130(7) 0.1492(4) 0.9910(5)
C150 C -0.4984(6) 0.1015(4) 0.9726(4)
H150 H -0.4390 0.0924 0.9541
C151 C -0.5707(8) 0.0669(4) 0.9814(4)
H151 H -0.5607 0.0342 0.9688
C152 C -0.4554(12) 0.1980(7) 0.9845(8)
H152 H -0.4860 0.2287 0.9956
C153 C -0.3712(12) 0.1999(9) 0.9654(10)
H153 H -0.3607 0.1689 0.9499
S11 S -0.0226(6) 0.3207(4) 0.9204(4)
C154 C -0.2768(12) 0.2226(9) 0.9528(11)
C155 C -0.1879(15) 0.2008(6) 0.9489(10)
H154 H -0.1790 0.1640 0.9526
C156 C -0.1120(10) 0.2329(9) 0.9397(10)
H155 H -0.0513 0.2181 0.9371
C157 C -0.1251(12) 0.2868(8) 0.9344(10)
C158 C -0.2140(15) 0.3085(6) 0.9383(10)
H156 H -0.2229 0.3453 0.9346
C159 C -0.2899(10) 0.2764(9) 0.9474(10)
H157 H -0.3507 0.2913 0.9501
C160 C -0.053(4) 0.3881(9) 0.914(2)
H158 H 0.0038 0.4085 0.9072
H159 H -0.0928 0.3962 0.9460
H160 H -0.0855 0.3968 0.8863
C161 C 0.1736(11) 0.3653(7) -0.0488(5)
H161 H 0.1428 0.3690 -0.0764
C162 C 0.1740(9) 0.3177(5) -0.0178(5)
H162 H 0.1434 0.2889 -0.0244
C163 C 0.2192(10) 0.3123(5) 0.0227(5)
H163 H 0.2194 0.2798 0.0438
C164 C 0.2640(10) 0.3545(7) 0.0323(5)
H164 H 0.2948 0.3508 0.0600
C165 C 0.2636(12) 0.4021(6) 0.0014(8)
H165 H 0.2942 0.4309 0.0079
C166 C 0.2184(13) 0.4075(5) -0.0392(7)
H166 H 0.2182 0.4400 -0.0603
C167 C 0.1774(8) 0.0918(5) 0.5180(4)
H167 H 0.2060 0.0866 0.5466
C168 C 0.1824(8) 0.1398(4) 0.4875(5)
H168 H 0.2144 0.1675 0.4952
C169 C 0.1405(9) 0.1474(4) 0.4456(4)
H169 H 0.1439 0.1802 0.4248
C170 C 0.0935(9) 0.1070(6) 0.4344(4)
H170 H 0.0649 0.1121 0.4058
C171 C 0.0886(9) 0.0589(5) 0.4649(5)
H171 H 0.0565 0.0313 0.4572
C172 C 0.1305(9) 0.0513(4) 0.5067(5)
H172 H 0.1271 0.0185 0.5276
C173 C 0.4902(9) 0.2431(3) 0.5141(5)
H173 H 0.4872 0.2784 0.4992
C174 C 0.5492(8) 0.2281(5) 0.5476(5)
H174 H 0.5864 0.2532 0.5556
C175 C 0.5537(8) 0.1764(5) 0.5694(4)
H175 H 0.5940 0.1662 0.5922
C176 C 0.4992(8) 0.1396(4) 0.5577(4)
H176 H 0.5023 0.1043 0.5725
C177 C 0.4403(7) 0.1546(4) 0.5242(4)
H177 H 0.4030 0.1294 0.5162
C178 C 0.4358(8) 0.2063(5) 0.5024(4)
H178 H 0.3955 0.2165 0.4796
C179 C 0.9271(9) 0.3776(6) 0.6982(4)
H179 H 0.9009 0.3858 0.6688
C180 C 0.9708(9) 0.4159(4) 0.7149(5)
H180 H 0.9745 0.4503 0.6971
C181 C 1.0091(9) 0.4039(5) 0.7579(5)
H181 H 1.0389 0.4301 0.7693
C182 C 1.0037(10) 0.3536(6) 0.7840(4)
H182 H 1.0298 0.3455 0.8134
C183 C 0.9600(11) 0.3153(4) 0.7673(6)
H183 H 0.9563 0.2810 0.7851
C184 C 0.9217(9) 0.3273(5) 0.7243(6)
H184 H 0.8918 0.3011 0.7129
C185 C 0.6727(7) 0.1729(4) 0.7393(3)
H185 H 0.6494 0.1761 0.7089
C186 C 0.6608(7) 0.1271(3) 0.7732(4)
H186 H 0.6295 0.0989 0.7660
C187 C 0.6949(7) 0.1225(3) 0.8176(4)
H187 H 0.6868 0.0912 0.8408
C188 C 0.7407(7) 0.1638(4) 0.8282(3)
H188 H 0.7640 0.1606 0.8585
C189 C 0.7526(7) 0.2096(4) 0.7943(4)
H189 H 0.7839 0.2378 0.8015
C190 C 0.7185(7) 0.2142(3) 0.7498(4)
H190 H 0.7266 0.2456 0.7267
C191 C 0.6389(9) 0.9701(4) 0.2481(5)
H191 H 0.6409 1.0034 0.2281
C192 C 0.5850(8) 0.9314(5) 0.2394(4)
H192 H 0.5501 0.9381 0.2135
C193 C 0.5821(9) 0.8827(4) 0.2688(5)
H193 H 0.5452 0.8562 0.2628
C194 C 0.6331(11) 0.8728(5) 0.3068(5)
H194 H 0.6311 0.8395 0.3268
C195 C 0.6870(10) 0.9115(7) 0.3155(5)
H195 H 0.7219 0.9047 0.3415
C196 C 0.6899(9) 0.9602(6) 0.2862(6)
H196 H 0.7268 0.9867 0.2921
C197 C 0.5195(10) 0.3860(7) 0.0858(7)
H197 H 0.4834 0.3640 0.1131
C198 C 0.5595(12) 0.4300(8) 0.0953(6)
H198 H 0.5507 0.4380 0.1290
C199 C 0.6124(12) 0.4621(6) 0.0553(9)
H199 H 0.6397 0.4921 0.0618
C200 C 0.6252(12) 0.4503(8) 0.0059(7)
H200 H 0.6613 0.4723 -0.0214
C201 C 0.5852(15) 0.4063(10) -0.0035(6)
H201 H 0.5940 0.3983 -0.0373
C202 C 0.5324(13) 0.3742(7) 0.0364(9)
H202 H 0.5050 0.3441 0.0300
C203? C 0.419(2) 0.8003(16) 0.630(2)
H203? H 0.4766 0.7870 0.6128
C204? C 0.418(2) 0.8461(15) 0.642(2)
H204? H 0.3621 0.8585 0.6617
O42? O 0.899(2) -0.1188(15) 0.8026(13)
O43? O 0.934(2) -0.0232(12) 0.8168(11)
O44? O 1.016(3) 0.1008(17) 0.8215(17)
O45? O 1.118(4) 0.235(2) 0.847(2)
C205? C 0.150(3) 0.7499(13) 0.547(2)
H205? H 0.2098 0.7505 0.5251
C206? C 0.121(2) 0.7885(12) 0.5701(17)
H206? H 0.0614 0.7893 0.5914
Cl11? Cl 0.8850(6) 0.4949(4) 0.5584(3)
O46? O 0.9079(17) 0.4651(9) 0.5968(7)
O47? O 0.8151(17) 0.4765(11) 0.5433(11)
O48? O 0.9573(14) 0.4986(10) 0.5189(8)
O49? O 0.8629(15) 0.5429(6) 0.5681(8)
C207? C 0.709(4) 0.5113(15) 0.699(2)
C208? C 0.646(4) 0.4780(13) 0.714(2)
Cl12? Cl 0.8407(5) 0.4780(3) 0.5896(3)
O50? O 0.7847(14) 0.4680(9) 0.6340(6)
O51? O 0.8988(14) 0.4373(7) 0.5823(8)
O52? O 0.7929(17) 0.4836(11) 0.5526(8)
S12? S 0.1894(8) 0.4101(5) 0.8140(5)
N12? N 0.8286(16) 0.6399(10) 0.7148(11)
H207? H 0.8750 0.6613 0.7094
C209? C 0.8441(12) 0.5899(11) 0.7014(11)
H208? H 0.9048 0.5789 0.6864
C210? C 0.7708(15) 0.5561(8) 0.7099(11)
H209? H 0.7814 0.5219 0.7007
C211? C 0.6820(13) 0.5722(8) 0.7318(11)
C212? C 0.6664(15) 0.6222(9) 0.7453(10)
H210? H 0.6057 0.6332 0.7602
C213? C 0.740(2) 0.6560(7) 0.7367(11)
H211? H 0.7291 0.6902 0.7459
C214? C 0.6065(15) 0.5316(11) 0.7517(15)
H212? H 0.6233 0.4955 0.7548
C215? C 0.5225(14) 0.5452(9) 0.7640(12)
H213? H 0.5081 0.5815 0.7628
C216? C 0.4434(10) 0.5083(7) 0.7806(11)
C217? C 0.3530(12) 0.5281(7) 0.7894(10)
H214? H 0.3417 0.5646 0.7886
C218? C 0.2789(10) 0.4946(10) 0.7995(10)
H215? H 0.2171 0.5082 0.8055
C219? C 0.2953(13) 0.4412(9) 0.8007(11)
C220? C 0.3858(16) 0.4213(7) 0.7919(12)
H216? H 0.3970 0.3848 0.7928
C221? C 0.4598(12) 0.4548(7) 0.7818(11)
H217? H 0.5216 0.4412 0.7758
C222? C 0.241(4) 0.3455(13) 0.816(2)
H218? H 0.1918 0.3197 0.8253
H219? H 0.2791 0.3406 0.8423
H220? H 0.2796 0.3411 0.7832
C223? C 0.595(3) 0.3003(14) 0.6487(10)
H221? H 0.6003 0.2864 0.6176
C224? C 0.531(2) 0.2794(10) 0.6916(14)
H222? H 0.4939 0.2513 0.6899
C225? C 0.5228(18) 0.2998(12) 0.7371(11)
H223? H 0.4796 0.2855 0.7664
C226? C 0.5775(19) 0.3409(11) 0.7397(8)
H224? H 0.5717 0.3548 0.7708
C227? C 0.6407(17) 0.3617(9) 0.6968(11)
H225? H 0.6781 0.3898 0.6986
C228? C 0.649(2) 0.3414(14) 0.6513(9)
H226? H 0.6924 0.3556 0.6220
S13? S -0.1334(12) 0.3886(6) 0.9276(7)
C229? C -0.316(2) 0.2482(9) 0.9642(12)
C230? C -0.228(2) 0.2419(9) 0.9346(12)
H227? H -0.2092 0.2091 0.9235
C231? C -0.1683(16) 0.2835(12) 0.9212(12)
H228? H -0.1081 0.2791 0.9010
C232? C -0.196(2) 0.3314(10) 0.9375(13)
C233? C -0.284(2) 0.3377(7) 0.9671(12)
H229? H -0.3032 0.3705 0.9782
C234? C -0.3442(15) 0.2962(11) 0.9804(10)
H230? H -0.4043 0.3005 1.0006
C235? C -0.213(4) 0.4352(19) 0.954(2)
H231? H -0.1815 0.4683 0.9511
H232? H -0.2366 0.4230 0.9905
H233? H -0.2644 0.4404 0.9365
loop_
_geom_bond_atom_site_label_1
_geom_bond_atom_site_label_2
_geom_bond_site_symmetry_1
_geom_bond_site_symmetry_2
Cl1 O1 1_555 1_555
O2 Cl1 1_555 1_555
O3 Cl1 1_555 1_555
O4 Cl1 1_555 1_555
Cl2 O5 1_555 1_555
O6 Cl2 1_555 1_555
O7 Cl2 1_555 1_555
O8 Cl2 1_555 1_555
Cl3 O9 1_555 1_555
O10 Cl3 1_555 1_555
O11 Cl3 1_555 1_555
O12 Cl3 1_555 1_555
Cl4 O13 1_555 1_555
O14 Cl4 1_555 1_555
O15 Cl4 1_555 1_555
O16 Cl4 1_555 1_555
Cl5 O17 1_555 1_555
O18 Cl5 1_555 1_555
O19 Cl5 1_555 1_555
O20 Cl5 1_555 1_555
Cl6 O21 1_555 1_555
O22 Cl6 1_555 1_555
O23 Cl6 1_555 1_555
O24 Cl6 1_555 1_555
Cl7 O25 1_555 1_555
O26 Cl7 1_555 1_555
O27 Cl7 1_555 1_555
O28 Cl7 1_555 1_555
Cl8 O29 1_555 1_555
O30 Cl8 1_555 1_555
O31 Cl8 1_555 1_555
O32 Cl8 1_555 1_555
Cl9 O33 1_555 1_555
O34 Cl9 1_555 1_555
O35 Cl9 1_555 1_555
O36 Cl9 1_555 1_555
Cl10 O37 1_555 1_555
O38 Cl10 1_555 1_555
O39 Cl10 1_555 1_555
O40 Cl10 1_555 1_555
S1 C11 1_555 1_555
N1 H1 1_555 1_555
C1 N1 1_555 1_555
H2 C1 1_555 1_555
C2 C1 1_555 1_555
H3 C2 1_555 1_555
C3 C2 1_555 1_555
C4 C3 1_555 1_555
H4 C4 1_555 1_555
C5 N1 1_555 1_555
H5 C5 1_555 1_555
C6 C3 1_555 1_555
H6 C6 1_555 1_555
C7 C6 1_555 1_555
H7 C7 1_555 1_555
C8 C7 1_555 1_555
C9 C8 1_555 1_555
H8 C9 1_555 1_555
C10 C9 1_555 1_555
H9 C10 1_555 1_555
C11 C10 1_555 1_555
C12 C11 1_555 1_555
H10 C12 1_555 1_555
C13 C8 1_555 1_555
H11 C13 1_555 1_555
C14 S1 1_555 1_555
H12 C14 1_555 1_555
H13 C14 1_555 1_555
H14 C14 1_555 1_555
S2 C25 1_555 1_555
N2 H15 1_555 1_555
C15 N2 1_555 1_555
H16 C15 1_555 1_555
C16 C15 1_555 1_555
H17 C16 1_555 1_555
C17 C16 1_555 1_555
C18 C17 1_555 1_555
H18 C18 1_555 1_555
C19 N2 1_555 1_555
H19 C19 1_555 1_555
C20 C17 1_555 1_555
H20 C20 1_555 1_555
C21 C20 1_555 1_555
H21 C21 1_555 1_555
C22 C21 1_555 1_555
C23 C22 1_555 1_555
H22 C23 1_555 1_555
C24 C23 1_555 1_555
H23 C24 1_555 1_555
C25 C24 1_555 1_555
C26 C25 1_555 1_555
H24 C26 1_555 1_555
C27 C22 1_555 1_555
H25 C27 1_555 1_555
C28 S2 1_555 1_555
H26 C28 1_555 1_555
H27 C28 1_555 1_555
H28 C28 1_555 1_555
S3 C39 1_555 1_555
N3 H29 1_555 1_555
C29 N3 1_555 1_555
H30 C29 1_555 1_555
C30 C29 1_555 1_555
H31 C30 1_555 1_555
C31 C30 1_555 1_555
C32 C31 1_555 1_555
H32 C32 1_555 1_555
C33 N3 1_555 1_555
H33 C33 1_555 1_555
C34 C31 1_555 1_555
H34 C34 1_555 1_555
C35 C34 1_555 1_555
H35 C35 1_555 1_555
C36 C35 1_555 1_555
C37 C36 1_555 1_555
H36 C37 1_555 1_555
C38 C37 1_555 1_555
H37 C38 1_555 1_555
C39 C38 1_555 1_555
C40 C39 1_555 1_555
H38 C40 1_555 1_555
C41 C36 1_555 1_555
H39 C41 1_555 1_555
C42 S3 1_555 1_555
H40 C42 1_555 1_555
H41 C42 1_555 1_555
H42 C42 1_555 1_555
S4 C53 1_555 1_555
N4 H43 1_555 1_555
C43 N4 1_555 1_555
H44 C43 1_555 1_555
C44 C43 1_555 1_555
H45 C44 1_555 1_555
C45 C44 1_555 1_555
C46 C45 1_555 1_555
H46 C46 1_555 1_555
C47 N4 1_555 1_555
H47 C47 1_555 1_555
C48 C45 1_555 1_555
H48 C48 1_555 1_555
C49 C48 1_555 1_555
H49 C49 1_555 1_555
C50 C49 1_555 1_555
C51 C50 1_555 1_555
H50 C51 1_555 1_555
C52 C51 1_555 1_555
H51 C52 1_555 1_555
C53 C52 1_555 1_555
C54 C53 1_555 1_555
H52 C54 1_555 1_555
C55 C50 1_555 1_555
H53 C55 1_555 1_555
C56 S4 1_555 1_555
H54 C56 1_555 1_555
H55 C56 1_555 1_555
H56 C56 1_555 1_555
S5 C67 1_555 1_555
N5 H57 1_555 1_555
C57 N5 1_555 1_555
H58 C57 1_555 1_555
C58 C57 1_555 1_555
H59 C58 1_555 1_555
C59 C58 1_555 1_555
C60 C59 1_555 1_555
H60 C60 1_555 1_555
C61 N5 1_555 1_555
H61 C61 1_555 1_555
C62 C59 1_555 1_555
H62 C62 1_555 1_555
C63 C62 1_555 1_555
H63 C63 1_555 1_555
C64 C63 1_555 1_555
C65 C64 1_555 1_555
H64 C65 1_555 1_555
C66 C65 1_555 1_555
H65 C66 1_555 1_555
C67 C66 1_555 1_555
C68 C67 1_555 1_555
H66 C68 1_555 1_555
C69 C64 1_555 1_555
H67 C69 1_555 1_555
C70 S5 1_555 1_555
H68 C70 1_555 1_555
H69 C70 1_555 1_555
H70 C70 1_555 1_555
S6 C81 1_555 1_555
N6 H71 1_555 1_555
C71 N6 1_555 1_555
H72 C71 1_555 1_555
C72 C71 1_555 1_555
H73 C72 1_555 1_555
C73 C72 1_555 1_555
C74 C73 1_555 1_555
H74 C74 1_555 1_555
C75 N6 1_555 1_555
H75 C75 1_555 1_555
C76 C73 1_555 1_555
H76 C76 1_555 1_555
C77 C76 1_555 1_555
H77 C77 1_555 1_555
C78 C77 1_555 1_555
C79 C78 1_555 1_555
H78 C79 1_555 1_555
C80 C79 1_555 1_555
H79 C80 1_555 1_555
C81 C80 1_555 1_555
C82 C81 1_555 1_555
H80 C82 1_555 1_555
C83 C78 1_555 1_555
H81 C83 1_555 1_555
C84 S6 1_555 1_555
H82 C84 1_555 1_555
H83 C84 1_555 1_555
H84 C84 1_555 1_555
S7 C95 1_555 1_555
N7 H85 1_555 1_555
C85 N7 1_555 1_555
H86 C85 1_555 1_555
C86 C85 1_555 1_555
H87 C86 1_555 1_555
C87 C86 1_555 1_555
C88 C87 1_555 1_555
H88 C88 1_555 1_555
C89 N7 1_555 1_555
H89 C89 1_555 1_555
C90 C87 1_555 1_555
H90 C90 1_555 1_555
C91 C90 1_555 1_555
H91 C91 1_555 1_555
C92 C91 1_555 1_555
C93 C92 1_555 1_555
H92 C93 1_555 1_555
C94 C93 1_555 1_555
H93 C94 1_555 1_555
C95 C94 1_555 1_555
C96 C95 1_555 1_555
H94 C96 1_555 1_555
C97 C92 1_555 1_555
H95 C97 1_555 1_555
C98 S7 1_555 1_555
H96 C98 1_555 1_555
H97 C98 1_555 1_555
H98 C98 1_555 1_555
S8 C109 1_555 1_555
N8 H99 1_555 1_555
C99 N8 1_555 1_555
H100 C99 1_555 1_555
C100 C99 1_555 1_555
H101 C100 1_555 1_555
C101 C100 1_555 1_555
C102 C101 1_555 1_555
H102 C102 1_555 1_555
C103 N8 1_555 1_555
H103 C103 1_555 1_555
C104 C101 1_555 1_555
H104 C104 1_555 1_555
C105 C104 1_555 1_555
H105 C105 1_555 1_555
C106 C105 1_555 1_555
C107 C106 1_555 1_555
H106 C107 1_555 1_555
C108 C107 1_555 1_555
H107 C108 1_555 1_555
C109 C108 1_555 1_555
C110 C109 1_555 1_555
H108 C110 1_555 1_555
C111 C106 1_555 1_555
H109 C111 1_555 1_555
C112 S8 1_555 1_555
H110 C112 1_555 1_555
H111 C112 1_555 1_555
H112 C112 1_555 1_555
S9 C123 1_555 1_555
N9 H113 1_555 1_555
C113 N9 1_555 1_555
H114 C113 1_555 1_555
C114 C113 1_555 1_555
H115 C114 1_555 1_555
C115 C114 1_555 1_555
C116 C115 1_555 1_555
H116 C116 1_555 1_555
C117 N9 1_555 1_555
H117 C117 1_555 1_555
C118 C115 1_555 1_555
H118 C118 1_555 1_555
C119 C118 1_555 1_555
H119 C119 1_555 1_555
C120 C119 1_555 1_555
C121 C120 1_555 1_555
H120 C121 1_555 1_555
C122 C121 1_555 1_555
H121 C122 1_555 1_555
C123 C122 1_555 1_555
C124 C123 1_555 1_555
H122 C124 1_555 1_555
C125 C120 1_555 1_555
H123 C125 1_555 1_555
C126 S9 1_555 1_555
H124 C126 1_555 1_555
H125 C126 1_555 1_555
H126 C126 1_555 1_555
S10 C137 1_555 1_555
N10 H127 1_555 1_555
C127 N10 1_555 1_555
H128 C127 1_555 1_555
C128 C127 1_555 1_555
H129 C128 1_555 1_555
C129 C128 1_555 1_555
C130 C129 1_555 1_555
H130 C130 1_555 1_555
C131 N10 1_555 1_555
H131 C131 1_555 1_555
C132 C129 1_555 1_555
H132 C132 1_555 1_555
C133 C132 1_555 1_555
H133 C133 1_555 1_555
C134 C133 1_555 1_555
C135 C134 1_555 1_555
H134 C135 1_555 1_555
C136 C135 1_555 1_555
H135 C136 1_555 1_555
C137 C136 1_555 1_555
C138 C137 1_555 1_555
H136 C138 1_555 1_555
C139 C134 1_555 1_555
H137 C139 1_555 1_555
C140 S10 1_555 1_555
H138 C140 1_555 1_555
H139 C140 1_555 1_555
H140 C140 1_555 1_555
C141 H141 1_555 1_555
C142 C141 1_555 1_555
H142 C142 1_555 1_555
C143 C142 1_555 1_555
H143 C143 1_555 1_555
C144 C143 1_555 1_555
H144 C144 1_555 1_555
C145 C144 1_555 1_555
H145 C145 1_555 1_555
C146 C141 1_555 1_555
H146 C146 1_555 1_555
N11 H147 1_555 1_555
C147 N11 1_555 1_555
H148 C147 1_555 1_555
C148 C147 1_555 1_555
H149 C148 1_555 1_555
C149 C148 1_555 1_555
C150 C149 1_555 1_555
H150 C150 1_555 1_555
C151 N11 1_555 1_555
H151 C151 1_555 1_555
C152 C149 1_555 1_555
H152 C152 1_555 1_555
C153 C152 1_555 1_555
H153 C153 1_555 1_555
S11 C157 1_555 1_555
C154 C153 1_555 1_555
C155 C154 1_555 1_555
H154 C155 1_555 1_555
C156 C155 1_555 1_555
H155 C156 1_555 1_555
C157 C156 1_555 1_555
C158 C157 1_555 1_555
H156 C158 1_555 1_555
C159 C154 1_555 1_555
H157 C159 1_555 1_555
C160 S11 1_555 1_555
H158 C160 1_555 1_555
H159 C160 1_555 1_555
H160 C160 1_555 1_555
C161 H161 1_555 1_555
C162 C161 1_555 1_555
H162 C162 1_555 1_555
C163 C162 1_555 1_555
H163 C163 1_555 1_555
C164 C163 1_555 1_555
H164 C164 1_555 1_555
C165 C164 1_555 1_555
H165 C165 1_555 1_555
C166 C161 1_555 1_555
H166 C166 1_555 1_555
C167 H167 1_555 1_555
C168 C167 1_555 1_555
H168 C168 1_555 1_555
C169 C168 1_555 1_555
H169 C169 1_555 1_555
C170 C169 1_555 1_555
H170 C170 1_555 1_555
C171 C170 1_555 1_555
H171 C171 1_555 1_555
C172 C167 1_555 1_555
H172 C172 1_555 1_555
C173 H173 1_555 1_555
C174 C173 1_555 1_555
H174 C174 1_555 1_555
C175 C174 1_555 1_555
H175 C175 1_555 1_555
C176 C175 1_555 1_555
H176 C176 1_555 1_555
C177 C176 1_555 1_555
H177 C177 1_555 1_555
C178 C173 1_555 1_555
H178 C178 1_555 1_555
C179 H179 1_555 1_555
C180 C179 1_555 1_555
H180 C180 1_555 1_555
C181 C180 1_555 1_555
H181 C181 1_555 1_555
C182 C181 1_555 1_555
H182 C182 1_555 1_555
C183 C182 1_555 1_555
H183 C183 1_555 1_555
C184 C179 1_555 1_555
H184 C184 1_555 1_555
C185 H185 1_555 1_555
C186 C185 1_555 1_555
H186 C186 1_555 1_555
C187 C186 1_555 1_555
H187 C187 1_555 1_555
C188 C187 1_555 1_555
H188 C188 1_555 1_555
C189 C188 1_555 1_555
H189 C189 1_555 1_555
C190 C185 1_555 1_555
H190 C190 1_555 1_555
C191 H191 1_555 1_555
C192 C191 1_555 1_555
H192 C192 1_555 1_555
C193 C192 1_555 1_555
H193 C193 1_555 1_555
C194 C193 1_555 1_555
H194 C194 1_555 1_555
C195 C194 1_555 1_555
H195 C195 1_555 1_555
C196 C191 1_555 1_555
H196 C196 1_555 1_555
C197 H197 1_555 1_555
C198 C197 1_555 1_555
H198 C198 1_555 1_555
C199 C198 1_555 1_555
H199 C199 1_555 1_555
C200 C199 1_555 1_555
H200 C200 1_555 1_555
C201 C200 1_555 1_555
H201 C201 1_555 1_555
C202 C197 1_555 1_555
H202 C202 1_555 1_555
C4 C5 1_555 1_555
C12 C13 1_555 1_555
C18 C19 1_555 1_555
C26 C27 1_555 1_555
C32 C33 1_555 1_555
C40 C41 1_555 1_555
C46 C47 1_555 1_555
C54 C55 1_555 1_555
C60 C61 1_555 1_555
C68 C69 1_555 1_555
C74 C75 1_555 1_555
C82 C83 1_555 1_555
C88 C89 1_555 1_555
C96 C97 1_555 1_555
C102 C103 1_555 1_555
C110 C111 1_555 1_555
C116 C117 1_555 1_555
C124 C125 1_555 1_555
C130 C131 1_555 1_555
C138 C139 1_555 1_555
C145 C146 1_555 1_555
C150 C151 1_555 1_555
C158 C159 1_555 1_555
C165 C166 1_555 1_555
C171 C172 1_555 1_555
C177 C178 1_555 1_555
C183 C184 1_555 1_555
C189 C190 1_555 1_555
C195 C196 1_555 1_555
C201 C202 1_555 1_555

#END
