
#######################################################################
#
#                 Cambridge Crystallographic Data Centre
#                                CCDC 
#
#######################################################################
#
# If this CIF has been generated from an entry in the Cambridge 
# Structural Database, then it will include bibliographic, chemical, 
# crystal, experimental, refinement or atomic coordinate data resulting 
# from the CCDC's data processing and validation procedures.
#
#######################################################################

data_GEKMAM
_chemical_formula_moiety         'C14 H14 N1 O1 1+,Cl1 O4 1-,0.5(C6 H6)'
_chemical_name_systematic        
'4-((E)-2-(4-Methoxyphenyl)-1-ethenyl)pyridinium perchlorate benzene solvate'
_symmetry_cell_setting           triclinic
_symmetry_space_group_name_H-M   'P -1'
_symmetry_Int_Tables_number      2
_space_group_name_Hall           '-P 1'
loop_
_symmetry_equiv_pos_site_id
_symmetry_equiv_pos_as_xyz
1 x,y,z
2 -x,-y,-z
_cell_length_a                   6.7884(2)
_cell_length_b                   9.1562(3)
_cell_length_c                   13.4368(4)
_cell_angle_alpha                79.200(1)
_cell_angle_beta                 89.703(1)
_cell_angle_gamma                81.691(1)
_cell_volume                     811.566
_exptl_crystal_colour            yellow
_exptl_crystal_description       block
_cell_formula_units_Z            2
loop_
_atom_site_label
_atom_site_type_symbol
_atom_site_fract_x
_atom_site_fract_y
_atom_site_fract_z
Cl1 Cl 0.98052(4) 0.69137(3) 0.153121(17)
O1 O 0.99562(12) 0.59302(9) 0.07917(6)
O2 O 1.1732(9) 0.6846(10) 0.1977(6)
O3 O 0.9144(10) 0.8412(7) 0.0997(6)
O4 O 0.8407(17) 0.6433(8) 0.2264(8)
O5 O 0.79172(11) 0.01711(9) 0.42035(6)
N1 N -0.6340(6) 0.3447(4) 0.0459(3)
H1 H -0.7552 0.3791 0.0213
C1 C -0.5227(5) 0.2367(4) 0.0053(3)
H2 H -0.5763 0.1990 -0.0484
C2 C -0.3328(3) 0.1816(3) 0.04135(18)
H3 H -0.2546 0.1063 0.0123
C3 C -0.2537(3) 0.2360(2) 0.12125(16)
C4 C -0.3763(4) 0.3486(3) 0.1593(3)
H4 H -0.3260 0.3895 0.2123
C5 C -0.5667(8) 0.4020(7) 0.1227(4)
H5 H -0.6486 0.4768 0.1505
C6 C -0.0542(2) 0.17333(14) 0.16055(10)
H6 H 0.0194 0.0988 0.1291
C7 C 0.0324(2) 0.21415(14) 0.23854(10)
H7 H -0.0424 0.2911 0.2674
C8 C 0.2285(3) 0.1534(2) 0.28371(13)
C9 C 0.3012(4) 0.2240(2) 0.35790(16)
H8 H 0.2199 0.3067 0.3778
C10 C 0.4879(4) 0.1752(4) 0.4021(3)
H9 H 0.5336 0.2242 0.4520
C11 C 0.6094(8) 0.0546(7) 0.3739(4)
C12 C 0.5381(5) -0.0192(2) 0.3024(3)
H10 H 0.6183 -0.1039 0.2844
C13 C 0.3506(3) 0.0308(2) 0.25741(15)
H11 H 0.3049 -0.0192 0.2081
C14 C 0.91913(18) -0.11339(13) 0.40201(10)
H12 H 0.854(2) -0.1989(17) 0.4225(11)
H13 H 1.028(2) -0.1206(16) 0.4431(11)
H14 H 0.956(2) -0.1003(16) 0.3338(12)
C15 C 0.4901(2) 0.43241(13) 0.60091(9)
C16 C 0.6738(2) 0.43883(13) 0.55581(9)
C17 C 0.3171(2) 0.49335(13) 0.54538(10)
H15 H 0.484(2) 0.3884(18) 0.6695(12)
H16 H 0.796(2) 0.3934(17) 0.5950(11)
H17 H 0.189(2) 0.4864(17) 0.5762(11)
C15A C 0.5099(2) 0.56759(13) 0.39909(9)
C16A C 0.3262(2) 0.56117(13) 0.44419(9)
C17A C 0.6829(2) 0.50665(13) 0.45462(10)
H15A H 0.516(2) 0.6116(18) 0.3305(12)
H16A H 0.204(2) 0.6066(17) 0.4050(11)
H17A H 0.811(2) 0.5136(17) 0.4238(11)
C18? C -0.4680(17) 0.2197(17) 0.0146(11)
C19? C 0.474(2) 0.1564(18) 0.3853(11)
C20? C 0.611(3) 0.039(3) 0.3662(18)
C21? C 0.5772(16) -0.0457(12) 0.2958(10)
C22? C 0.3998(13) -0.0123(10) 0.2469(7)
C23? C -0.2953(14) 0.1972(9) 0.0704(7)
C24? C -0.2670(13) 0.2755(9) 0.1450(6)
C25? C -0.416(2) 0.3817(14) 0.1655(12)
C26? C -0.584(2) 0.394(2) 0.1079(15)
C27? C -0.0776(9) 0.2475(6) 0.2035(4)
C28? C 0.0701(8) 0.1403(6) 0.2012(4)
C29? C 0.2612(10) 0.1051(10) 0.2614(5)
C30? C 0.2954(12) 0.1915(9) 0.3332(6)
H18? H -0.4793 0.1663 -0.0388
H19? H 0.5039 0.2130 0.4343
H20? H 0.6749 -0.1244 0.2820
H21? H 0.3695 -0.0728 0.2005
H22? H -0.1900 0.1237 0.0569
H23? H -0.7366 0.3296 0.0044
H24? H -0.4036 0.4413 0.2152
H25? H -0.6908 0.4676 0.1203
H26? H -0.0616 0.3149 0.2476
H27? H 0.0542 0.0757 0.1551
H28? H 0.1984 0.2714 0.3456
N2? N -0.620(3) 0.3167(17) 0.0356(15)
O6? O 0.873(5) 0.836(2) 0.114(2)
O7? O 1.1718(18) 0.708(2) 0.1862(12)
O8? O 0.879(4) 0.631(2) 0.2405(16)
loop_
_geom_bond_atom_site_label_1
_geom_bond_atom_site_label_2
_geom_bond_site_symmetry_1
_geom_bond_site_symmetry_2
Cl1 O1 1_555 1_555
O2 Cl1 1_555 1_555
O3 Cl1 1_555 1_555
O4 Cl1 1_555 1_555
O5 C11 1_555 1_555
N1 H1 1_555 1_555
C1 N1 1_555 1_555
H2 C1 1_555 1_555
C2 C1 1_555 1_555
H3 C2 1_555 1_555
C3 C2 1_555 1_555
C4 C3 1_555 1_555
H4 C4 1_555 1_555
C5 N1 1_555 1_555
H5 C5 1_555 1_555
C6 C3 1_555 1_555
H6 C6 1_555 1_555
C7 C6 1_555 1_555
H7 C7 1_555 1_555
C8 C7 1_555 1_555
C9 C8 1_555 1_555
H8 C9 1_555 1_555
C10 C9 1_555 1_555
H9 C10 1_555 1_555
C11 C10 1_555 1_555
C12 C11 1_555 1_555
H10 C12 1_555 1_555
C13 C8 1_555 1_555
H11 C13 1_555 1_555
C14 O5 1_555 1_555
C15 C16 1_555 1_555
C16 H16 1_555 1_555
C17 C15 1_555 1_555
H12 C14 1_555 1_555
H13 C14 1_555 1_555
H14 C14 1_555 1_555
H15 C15 1_555 1_555
H17 C17 1_555 1_555
C15A C16A 1_555 1_555
C16A C17 1_555 1_555
C17A C16 1_555 1_555
H15A C15A 1_555 1_555
H16A C16A 1_555 1_555
H17A C17A 1_555 1_555
C4 C5 1_555 1_555
C12 C13 1_555 1_555
C15A C17A 1_555 1_555

#END
