
#######################################################################
#
#                 Cambridge Crystallographic Data Centre
#                                CCDC 
#
#######################################################################
#
# If this CIF has been generated from an entry in the Cambridge 
# Structural Database, then it will include bibliographic, chemical, 
# crystal, experimental, refinement or atomic coordinate data resulting 
# from the CCDC's data processing and validation procedures.
#
#######################################################################

data_GEKNAN
_chemical_formula_moiety         
'C21 H26 N1 O5 1+,Cl1 O4 1-,0.5(C6 H6),0.13(H2 O1)'
_chemical_name_systematic        
'4-((E)-2-(2,3,5,6,8,9,11,12-Octahydro-1,4,7,10,13-benzopentaoxacyclopentadecen-15-yl)-1-ethenyl)pyridinium perchlorate benzene solvate hydrate'
_symmetry_cell_setting           triclinic
_symmetry_space_group_name_H-M   'P -1'
_symmetry_Int_Tables_number      2
_space_group_name_Hall           '-P 1'
loop_
_symmetry_equiv_pos_site_id
_symmetry_equiv_pos_as_xyz
1 x,y,z
2 -x,-y,-z
_cell_length_a                   11.9327(16)
_cell_length_b                   12.7937(16)
_cell_length_c                   16.551(2)
_cell_angle_alpha                79.986(7)
_cell_angle_beta                 88.423(6)
_cell_angle_gamma                77.531(6)
_cell_volume                     2429.42
_exptl_crystal_colour            yellow
_exptl_crystal_description       needle
_cell_formula_units_Z            4
_chemical_properties_physical    light-sensitive
loop_
_atom_site_label
_atom_site_type_symbol
_atom_site_fract_x
_atom_site_fract_y
_atom_site_fract_z
O5 O 0.1570(3) 0.9012(3) 0.0773(2)
O6 O 0.1839(4) 0.9223(3) -0.0981(3)
O7 O 0.0781(4) 0.7597(4) -0.1247(3)
O8 O -0.0115(4) 0.6424(3) 0.0196(3)
O9 O 0.0604(3) 0.7450(3) 0.1367(2)
N1 N 0.6620(4) 0.2786(3) 0.5202(3)
H1 H 0.6997 0.2207 0.5531
C1 C 0.7121(5) 0.3631(5) 0.4956(3)
H2 H 0.7864 0.3615 0.5156
C2 C 0.6560(4) 0.4517(4) 0.4417(3)
H3 H 0.6919 0.5113 0.4248
C3 C 0.5485(5) 0.4554(4) 0.4118(3)
C4 C 0.4968(5) 0.3673(4) 0.4418(3)
H4 H 0.4213 0.3678 0.4249
C5 C 0.5565(5) 0.2813(4) 0.4956(3)
H5 H 0.5216 0.2220 0.5159
C6 C 0.4897(5) 0.5512(4) 0.3531(3)
H6 H 0.5310 0.6069 0.3368
C7 C 0.3873(5) 0.5674(4) 0.3215(3)
H7 H 0.3466 0.5115 0.3389
C8 C 0.3261(5) 0.6605(4) 0.2623(3)
C9 C 0.3765(5) 0.7487(4) 0.2315(3)
H8 H 0.4493 0.7519 0.2516
C10 C 0.3190(5) 0.8319(5) 0.1710(3)
H9 H 0.3523 0.8925 0.1512
C11 C 0.2167(5) 0.8272(4) 0.1404(3)
C12 C 0.1628(5) 0.7417(4) 0.1708(3)
C13 C 0.2200(5) 0.6593(4) 0.2324(3)
H10 H 0.1844 0.6009 0.2542
C14 C 0.2192(5) 0.9751(5) 0.0284(3)
H11 H 0.3001 0.9381 0.0225
H12 H 0.2178 1.0389 0.0551
C15 C 0.1609(5) 1.0105(4) -0.0544(3)
H13 H 0.0771 1.0342 -0.0476
H14 H 0.1898 1.0726 -0.0855
C16 C 0.1094(7) 0.9335(5) -0.1656(4)
H15 H 0.1552 0.9133 -0.2135
H16 H 0.0688 1.0105 -0.1802
C17 C 0.0248(7) 0.8651(7) -0.1473(5)
H17 H -0.0255 0.8891 -0.1025
H18 H -0.0237 0.8730 -0.1965
C18 C 0.0065(6) 0.6827(7) -0.1251(5)
H19 H 0.0564 0.6096 -0.1233
H20 H -0.0370 0.7012 -0.1776
C19 C -0.0774(6) 0.6774(6) -0.0556(4)
H21 H -0.1280 0.7498 -0.0556
H22 H -0.1259 0.6254 -0.0615
C20 C -0.0767(5) 0.6609(5) 0.0902(4)
H23 H -0.1235 0.6053 0.1050
H24 H -0.1288 0.7335 0.0802
C21 C 0.0079(5) 0.6540(5) 0.1587(4)
H25 H -0.0323 0.6571 0.2116
H26 H 0.0664 0.5852 0.1640
O10 O 0.9164(3) 0.1941(3) 0.4001(2)
O11 O 0.9278(3) 0.1951(3) 0.5733(2)
O12 O 0.7467(3) 0.0934(3) 0.6349(2)
O13 O 0.6335(3) 0.0371(3) 0.5039(3)
O14 O 0.7446(3) 0.1230(3) 0.3636(2)
N2 N 0.2891(15) 0.7057(14) -0.0250(13)
H27 H 0.2293 0.7474 -0.0528
C22 C 0.3888(13) 0.7356(14) -0.0360(10)
H28 H 0.3966 0.7943 -0.0781
C23 C 0.4798(14) 0.6819(13) 0.0132(10)
H29 H 0.5505 0.7051 0.0085
C24 C 0.4669(11) 0.5911(13) 0.0714(8)
C25 C 0.3616(12) 0.5569(13) 0.0764(9)
H30 H 0.3523 0.4942 0.1140
C26 C 0.2730(14) 0.6163(13) 0.0256(10)
H31 H 0.2016 0.5947 0.0263
C27 C 0.5690(11) 0.5360(11) 0.1293(8)
H32 H 0.6308 0.5714 0.1319
C28 C 0.5720(16) 0.4412(13) 0.1749(12)
H33 H 0.5120 0.4034 0.1734
C29 C 0.6774(5) 0.3942(5) 0.2309(3)
C30 C 0.7734(6) 0.4299(5) 0.2505(3)
H34 H 0.7822 0.5004 0.2258
C31 C 0.8574(5) 0.3652(5) 0.3056(3)
H35 H 0.9227 0.3912 0.3178
C32 C 0.8442(5) 0.2618(5) 0.3425(3)
C33 C 0.7481(5) 0.2252(5) 0.3227(3)
C34 C 0.6673(5) 0.2898(5) 0.2675(3)
H36 H 0.6033 0.2629 0.2540
C35 C 0.9990(4) 0.2348(4) 0.4399(3)
H37 H 0.9678 0.3116 0.4450
H38 H 1.0699 0.2312 0.4072
C36 C 1.0252(4) 0.1669(5) 0.5235(3)
H39 H 1.0398 0.0887 0.5199
H40 H 1.0942 0.1819 0.5473
C37 C 0.9341(5) 0.1206(5) 0.6505(3)
H41 H 0.9075 0.1617 0.6954
H42 H 1.0147 0.0819 0.6624
C38 C 0.8614(5) 0.0403(5) 0.6467(4)
H43 H 0.8868 0.0004 0.6009
H44 H 0.8700 -0.0131 0.6984
C39 C 0.6680(5) 0.0219(4) 0.6471(4)
H45 H 0.5896 0.0649 0.6531
H46 H 0.6886 -0.0307 0.6985
C40 C 0.6689(5) -0.0394(4) 0.5766(4)
H47 H 0.7470 -0.0825 0.5698
H48 H 0.6159 -0.0899 0.5880
C41 C 0.6451(5) -0.0081(4) 0.4303(4)
H49 H 0.5819 -0.0457 0.4255
H50 H 0.7189 -0.0615 0.4311
C42 C 0.6412(4) 0.0846(5) 0.3579(4)
H51 H 0.6380 0.0582 0.3053
H52 H 0.5729 0.1435 0.3611
H53 H 0.5396 -0.1081 -0.1985
O15 O 0.506(4) -0.089(3) -0.147(3)
C43 C -0.0372(9) 0.4777(10) 0.5644(7)
H54 H -0.0843 0.4797 0.6116
C44 C -0.0761(7) 0.5440(8) 0.4904(9)
H55 H -0.1497 0.5913 0.4871
C45 C 0.0073(11) 0.4590(8) 0.5786(6)
H56 H 0.0338 0.4137 0.6291
C46 C -0.1004(9) 0.5283(9) 0.5738(7)
H57 H -0.1474 0.5303 0.6210
C47 C -0.1393(6) 0.5946(7) 0.4998(9)
H58 H -0.2128 0.6419 0.4965
C48 C 0.0704(10) 0.4084(7) 0.5692(6)
H59 H 0.0970 0.3630 0.6197
C43A C 0.0372(9) 0.5223(10) 0.4356(7)
H54A H 0.0843 0.5203 0.3884
C44A C 0.0761(7) 0.4560(8) 0.5096(9)
H55A H 0.1497 0.4087 0.5129
C45A C -0.0073(11) 0.5410(8) 0.4214(6)
H56A H -0.0338 0.5863 0.3709
C46A C 0.1004(9) 0.4717(9) 0.4262(7)
H57A H 0.1474 0.4697 0.3790
C47A C 0.1393(6) 0.4054(7) 0.5002(9)
H58A H 0.2128 0.3581 0.5035
C48A C -0.0704(10) 0.5916(7) 0.4308(6)
H59A H -0.0970 0.6370 0.3803
O16 O 0.2104(4) 0.4001(3) 0.2197(3)
O17 O 0.1995(4) 0.2233(3) 0.2735(3)
Cl2 Cl 0.2547(5) 0.3125(5) 0.2779(4)
O18 O 0.3747(6) 0.2751(10) 0.2680(9)
O19 O 0.2377(10) 0.3475(9) 0.3549(5)
Cl1 Cl 0.70399(18) 0.78380(18) 0.27842(14)
O1 O 0.8002(4) 0.8258(4) 0.2846(3)
O2 O 0.7065(7) 0.7206(7) 0.2195(6)
O3 O 0.6672(9) 0.7366(9) 0.3530(5)
O4 O 0.6072(6) 0.8834(7) 0.2539(7)
C49? C 0.4556(10) 0.1042(11) 0.1419(6)
C50? C 0.6144(9) -0.1880(8) -0.0894(8)
H60? H 0.6575 -0.2491 -0.1100
C51? C 0.3786(8) 0.1823(7) 0.0066(7)
H61? H 0.3307 0.2395 -0.0293
C52? C 0.5583(10) -0.0929(9) 0.0236(6)
H62? H 0.5631 -0.0890 0.0802
C53? C 0.5117(10) 0.0091(7) 0.0289(8)
H63? H 0.4452 0.0520 -0.0082
C54? C 0.4813(9) -0.0148(9) -0.1117(7)
H64? H 0.4335 0.0425 -0.1476
O20? O 0.526(3) -0.059(3) -0.060(2)
C55? C 0.3602(14) 0.7110(13) -0.0067(11)
C56? C 0.4420(15) 0.6445(12) 0.0475(12)
C57? C 0.4241(12) 0.5403(11) 0.0862(8)
C58? C 0.3236(11) 0.5131(13) 0.0657(9)
C59? C 0.2447(14) 0.5815(13) 0.0136(11)
C60? C 0.5056(12) 0.4619(10) 0.1411(8)
C61? C 0.6042(14) 0.4770(14) 0.1727(12)
Cl3? Cl 0.2763(7) 0.2932(6) 0.2480(5)
H65? H 0.3708 0.7808 -0.0319
H66? H 0.5094 0.6676 0.0590
H67? H 0.2157 0.7190 -0.0608
H68? H 0.3097 0.4439 0.0892
H69? H 0.1746 0.5619 0.0036
H70? H 0.4888 0.3920 0.1569
H71? H 0.6258 0.5447 0.1560
N3? N 0.2652(14) 0.6773(13) -0.0241(13)
O21? O 0.3420(11) 0.2548(10) 0.1824(7)
O22? O 0.3495(12) 0.2907(11) 0.3122(8)
O23? O 0.6090(11) 0.8243(19) 0.3096(15)
O24? O 0.7460(19) 0.6634(11) 0.3144(18)
O25? O 0.690(2) 0.775(2) 0.1913(11)
loop_
_geom_bond_atom_site_label_1
_geom_bond_atom_site_label_2
_geom_bond_site_symmetry_1
_geom_bond_site_symmetry_2
Cl1 O1 1_555 1_555
O2 Cl1 1_555 1_555
O3 Cl1 1_555 1_555
O4 Cl1 1_555 1_555
O5 C11 1_555 1_555
O6 C15 1_555 1_555
O7 C17 1_555 1_555
O8 C19 1_555 1_555
O9 C12 1_555 1_555
N1 H1 1_555 1_555
C1 N1 1_555 1_555
H2 C1 1_555 1_555
C2 C1 1_555 1_555
H3 C2 1_555 1_555
C3 C2 1_555 1_555
C4 C3 1_555 1_555
H4 C4 1_555 1_555
C5 N1 1_555 1_555
H5 C5 1_555 1_555
C6 C3 1_555 1_555
H6 C6 1_555 1_555
C7 C6 1_555 1_555
H7 C7 1_555 1_555
C8 C7 1_555 1_555
C9 C8 1_555 1_555
H8 C9 1_555 1_555
C10 C9 1_555 1_555
H9 C10 1_555 1_555
C11 C10 1_555 1_555
C12 C11 1_555 1_555
C13 C8 1_555 1_555
H10 C13 1_555 1_555
C14 O5 1_555 1_555
H11 C14 1_555 1_555
H12 C14 1_555 1_555
C15 C14 1_555 1_555
H13 C15 1_555 1_555
H14 C15 1_555 1_555
C16 O6 1_555 1_555
H15 C16 1_555 1_555
H16 C16 1_555 1_555
C17 C16 1_555 1_555
H17 C17 1_555 1_555
H18 C17 1_555 1_555
C18 O7 1_555 1_555
H19 C18 1_555 1_555
H20 C18 1_555 1_555
C19 C18 1_555 1_555
H21 C19 1_555 1_555
H22 C19 1_555 1_555
C20 O8 1_555 1_555
H23 C20 1_555 1_555
H24 C20 1_555 1_555
C21 O9 1_555 1_555
H25 C21 1_555 1_555
H26 C21 1_555 1_555
O10 C32 1_555 1_555
O11 C36 1_555 1_555
O12 C38 1_555 1_555
O13 C40 1_555 1_555
O14 C33 1_555 1_555
N2 H27 1_555 1_555
C22 N2 1_555 1_555
H28 C22 1_555 1_555
C23 C22 1_555 1_555
H29 C23 1_555 1_555
C24 C23 1_555 1_555
C25 C24 1_555 1_555
H30 C25 1_555 1_555
C26 N2 1_555 1_555
H31 C26 1_555 1_555
C27 C24 1_555 1_555
H32 C27 1_555 1_555
C28 C27 1_555 1_555
H33 C28 1_555 1_555
C29 C28 1_555 1_555
C30 C29 1_555 1_555
H34 C30 1_555 1_555
C31 C30 1_555 1_555
H35 C31 1_555 1_555
C32 C31 1_555 1_555
C33 C32 1_555 1_555
C34 C29 1_555 1_555
H36 C34 1_555 1_555
C35 O10 1_555 1_555
H37 C35 1_555 1_555
H38 C35 1_555 1_555
C36 C35 1_555 1_555
H39 C36 1_555 1_555
H40 C36 1_555 1_555
C37 O11 1_555 1_555
H41 C37 1_555 1_555
H42 C37 1_555 1_555
C38 C37 1_555 1_555
H43 C38 1_555 1_555
H44 C38 1_555 1_555
C39 O12 1_555 1_555
H45 C39 1_555 1_555
H46 C39 1_555 1_555
C40 C39 1_555 1_555
H47 C40 1_555 1_555
H48 C40 1_555 1_555
C41 O13 1_555 1_555
H49 C41 1_555 1_555
H50 C41 1_555 1_555
C42 O14 1_555 1_555
H51 C42 1_555 1_555
H52 C42 1_555 1_555
H53 O15 1_555 1_555
C43 H54 1_555 1_555
H54 C45 1_555 1_555
C44 C43 1_555 1_555
H55 C44 1_555 1_555
C45 C43 1_555 1_555
H56 C45 1_555 1_555
C46 C43 1_555 1_555
H57 C46 1_555 1_555
C47 C44 1_555 1_555
H58 C47 1_555 1_555
C48 C43 1_555 1_555
H59 C48 1_555 1_555
O16 Cl2 1_555 1_555
O17 Cl2 1_555 1_555
Cl2 O18 1_555 1_555
O19 Cl2 1_555 1_555
C43A C44 1_555 1_555
H54A C43A 1_555 1_555
C44A C43 1_555 1_555
H55A C48 1_555 1_555
C45A C44 1_555 1_555
H56A C45A 1_555 1_555
C46A C43A 1_555 1_555
H57A C46A 1_555 1_555
C47A C48 1_555 1_555
H58A C47A 1_555 1_555
C48A C44 1_555 1_555
H59A C48A 1_555 1_555
C4 C5 1_555 1_555
C12 C13 1_555 1_555
C20 C21 1_555 1_555
C25 C26 1_555 1_555
C33 C34 1_555 1_555
C41 C42 1_555 1_555
H54 C46 1_555 1_555
C44 C46 1_555 1_555
H55 C47 1_555 1_555
H55 C48A 1_555 1_555
C45 C46 1_555 1_555
C45 C48 1_555 1_555
C45 C44A 1_555 1_555
H56 C48 1_555 1_555
C46 C47 1_555 1_555
C47 C48A 1_555 1_555
C48 C44A 1_555 1_555
C43A C44A 1_555 1_555
C43A C45A 1_555 1_555
C43A C48A 1_555 1_555
H54A C45A 1_555 1_555
H54A C46A 1_555 1_555
C44A H55A 1_555 1_555
C44A C46A 1_555 1_555
C44A C47A 1_555 1_555
H55A C47A 1_555 1_555
C45A C46A 1_555 1_555
C45A C48A 1_555 1_555
H56A C48A 1_555 1_555
C46A C47A 1_555 1_555

#END
