
#######################################################################
#
#                 Cambridge Crystallographic Data Centre
#                                CCDC 
#
#######################################################################
#
# If this CIF has been generated from an entry in the Cambridge 
# Structural Database, then it will include bibliographic, chemical, 
# crystal, experimental, refinement or atomic coordinate data resulting 
# from the CCDC's data processing and validation procedures.
#
#######################################################################

data_GEKNUH
_chemical_formula_moiety         
'2(H4 N1 1+),C46 H60 N2 O12 2+,4(Cl1 O4 1-),H2 O1'
_chemical_name_systematic        
'Diammonium 4-(2,4-bis(2,3,5,6,8,9,11,12,14,15-decahydro-1,4,7,10,13,16-hexaoxabenzocyclo-octadecen-18-yl)-3-(pyridin-1-ium-4-yl)cyclobutyl)pyridinium tetraperchlorate monohydrate'
_symmetry_cell_setting           monoclinic
_symmetry_space_group_name_H-M   'P 2/c'
_symmetry_Int_Tables_number      13
_space_group_name_Hall           '-P 2yc'
loop_
_symmetry_equiv_pos_site_id
_symmetry_equiv_pos_as_xyz
1 x,y,z
2 -x,y,1/2-z
3 -x,-y,-z
4 x,-y,1/2+z
_cell_length_a                   11.5375(4)
_cell_length_b                   10.8660(4)
_cell_length_c                   22.8582(8)
_cell_angle_alpha                90
_cell_angle_beta                 99.578(1)
_cell_angle_gamma                90
_cell_volume                     2825.7
_exptl_crystal_colour            'pale yellow'
_exptl_crystal_description       plate
_cell_formula_units_Z            2
loop_
_atom_site_label
_atom_site_type_symbol
_atom_site_fract_x
_atom_site_fract_y
_atom_site_fract_z
O17 O 1.0344(10) 0.4000(10) 0.8241(4)
O18 O 1.179(3) 0.424(2) 0.9393(11)
O19 O 1.1801(19) 0.6024(16) 1.0144(8)
O20 O 0.981(2) 0.757(2) 0.9751(6)
O21 O 0.9180(7) 0.8089(8) 0.8511(4)
O22 O 0.8841(6) 0.5764(6) 0.7961(3)
N1 N 0.6111(8) 0.0990(11) 0.9632(4)
H1 H 0.6365 0.0651 0.9979
C1 C 0.5936(10) 0.0250(10) 0.9165(6)
H3 H 0.6077 -0.0610 0.9203
C2 C 0.554(2) 0.0785(15) 0.8622(7)
H4 H 0.5401 0.0275 0.8280
C3 C 0.5332(15) 0.2056(10) 0.8554(6)
C4 C 0.5512(9) 0.2724(9) 0.9077(5)
H5 H 0.5334 0.3579 0.9060
C5 C 0.5934(11) 0.2213(14) 0.9622(5)
H6 H 0.6092 0.2698 0.9972
C6 C 0.4729(5) 0.2625(6) 0.8000(2)
H7 H 0.4271 0.3366 0.8086
C7 C 0.5508(5) 0.2919(6) 0.7511(2)
C8 C 0.6816(6) 0.3112(7) 0.7682(3)
C9 C 0.7615(9) 0.2169(14) 0.7804(6)
H9 H 0.7352 0.1340 0.7770
C10 C 0.8817(6) 0.2422(6) 0.7979(3)
H10 H 0.9363 0.1763 0.8052
C11 C 0.9214(8) 0.3632(8) 0.8047(3)
C12 C 0.8410(7) 0.4599(10) 0.7909(3)
C13 C 0.7218(5) 0.4334(6) 0.7735(3)
H11 H 0.6671 0.4990 0.7652
C14 C 1.1129(9) 0.3002(11) 0.8457(5)
H12 H 1.1363 0.2552 0.8118
H13 H 1.0727 0.2418 0.8689
C15 C 1.2207(18) 0.3531(19) 0.8845(7)
H14 H 1.2614 0.4109 0.8613
H15 H 1.2761 0.2862 0.8994
C16 C 1.2774(17) 0.4186(16) 0.9866(9)
H16 H 1.3468 0.4626 0.9768
H17 H 1.2991 0.3329 0.9984
C17 C 1.2231(12) 0.4842(12) 1.0322(7)
H18 H 1.1574 0.4339 1.0420
H19 H 1.2823 0.4923 1.0687
C18 C 1.1232(12) 0.6662(17) 1.0521(7)
H20 H 1.1789 0.6861 1.0887
H21 H 1.0596 0.6146 1.0633
C19 C 1.0730(14) 0.7802(16) 1.0245(7)
H22 H 1.0409 0.8298 1.0545
H23 H 1.1359 0.8288 1.0108
C20 C 0.9237(11) 0.8690(12) 0.9534(5)
H24 H 0.9824 0.9306 0.9455
H25 H 0.8793 0.9034 0.9832
C21 C 0.8396(11) 0.8381(11) 0.8959(6)
H26 H 0.7899 0.7663 0.9018
H27 H 0.7880 0.9090 0.8827
C22 C 0.8520(12) 0.7893(13) 0.7916(8)
H28 H 0.7937 0.8562 0.7818
H29 H 0.9065 0.7923 0.7624
C23 C 0.7943(12) 0.6765(12) 0.7873(7)
H30 H 0.7445 0.6683 0.7478
H31 H 0.7430 0.6708 0.8179
O17A O -0.0344(10) 0.4000(10) 0.6759(4)
O18A O -0.179(3) 0.424(2) 0.5607(11)
O19A O -0.1801(19) 0.6024(16) 0.4856(8)
O20A O 0.019(2) 0.757(2) 0.5249(6)
O21A O 0.0820(7) 0.8089(8) 0.6489(4)
O22A O 0.1159(6) 0.5764(6) 0.7039(3)
N1A N 0.3889(8) 0.0990(11) 0.5368(4)
H1A H 0.3635 0.0651 0.5021
C1A C 0.4064(10) 0.0250(10) 0.5835(6)
H3A H 0.3923 -0.0610 0.5797
C2A C 0.446(2) 0.0785(15) 0.6378(7)
H4A H 0.4599 0.0275 0.6720
C3A C 0.4668(15) 0.2056(10) 0.6446(6)
C4A C 0.4488(9) 0.2724(9) 0.5923(5)
H5A H 0.4666 0.3579 0.5940
C5A C 0.4066(11) 0.2213(14) 0.5378(5)
H6A H 0.3908 0.2698 0.5028
C6A C 0.5271(5) 0.2625(6) 0.7000(2)
H7A H 0.5729 0.3366 0.6914
C7A C 0.4492(5) 0.2919(6) 0.7489(2)
C8A C 0.3184(6) 0.3112(7) 0.7318(3)
C9A C 0.2385(9) 0.2169(14) 0.7196(6)
H9A H 0.2648 0.1340 0.7230
C10A C 0.1183(6) 0.2422(6) 0.7021(3)
H10A H 0.0637 0.1763 0.6948
C11A C 0.0786(8) 0.3632(8) 0.6953(3)
C12A C 0.1590(7) 0.4599(10) 0.7091(3)
C13A C 0.2782(5) 0.4334(6) 0.7265(3)
H11A H 0.3329 0.4990 0.7348
C14A C -0.1129(9) 0.3002(11) 0.6543(5)
H12A H -0.1363 0.2552 0.6882
H13A H -0.0727 0.2418 0.6311
C15A C -0.2207(18) 0.3531(19) 0.6155(7)
H14A H -0.2614 0.4109 0.6387
H15A H -0.2761 0.2862 0.6006
C16A C -0.2774(17) 0.4186(16) 0.5134(9)
H16A H -0.3468 0.4626 0.5232
H17A H -0.2991 0.3329 0.5016
C17A C -0.2231(12) 0.4842(12) 0.4678(7)
H18A H -0.1574 0.4339 0.4580
H19A H -0.2823 0.4923 0.4313
C18A C -0.1232(12) 0.6662(17) 0.4479(7)
H20A H -0.1789 0.6861 0.4113
H21A H -0.0596 0.6146 0.4367
C19A C -0.0730(14) 0.7802(16) 0.4755(7)
H22A H -0.0409 0.8298 0.4455
H23A H -0.1359 0.8288 0.4892
C20A C 0.0763(11) 0.8690(12) 0.5466(5)
H24A H 0.0176 0.9306 0.5545
H25A H 0.1207 0.9034 0.5168
C21A C 0.1604(11) 0.8381(11) 0.6041(6)
H26A H 0.2101 0.7663 0.5982
H27A H 0.2120 0.9090 0.6173
C22A C 0.1480(12) 0.7893(13) 0.7084(8)
H28A H 0.2063 0.8562 0.7182
H29A H 0.0935 0.7923 0.7376
C23A C 0.2057(12) 0.6765(12) 0.7127(7)
H30A H 0.2555 0.6683 0.7522
H31A H 0.2570 0.6708 0.6821
O29 O 0.5578(9) 0.1192(6) 0.2487(5)
O29A O 0.4422(9) 0.1192(6) 0.2513(5)
N3 N -0.1045(3) 0.6379(4) 0.61790(15)
H62 H -0.170(4) 0.669(4) 0.627(2)
H63 H -0.077(4) 0.580(5) 0.642(2)
H64 H -0.044(4) 0.691(4) 0.6280(19)
H65 H -0.116(6) 0.616(7) 0.584(4)
Cl1 Cl 0.24194(7) 0.02257(9) 0.39390(4)
O1 O 0.3096(3) -0.0549(3) 0.43688(13)
O2 O 0.2568(3) 0.1466(3) 0.41477(13)
O3 O 0.2803(3) 0.0080(4) 0.33935(12)
O4 O 0.1220(3) -0.0084(5) 0.3877(2)
Cl2? Cl 0.47130(7) 0.34573(7) 0.37326(4)
O5? O 0.5434(8) 0.4252(8) 0.3447(4)
O6? O 0.3521(6) 0.3325(7) 0.3394(3)
O7? O 0.5289(7) 0.2380(7) 0.3917(5)
O8? O 0.4607(7) 0.4146(7) 0.4285(3)
O9? O 0.5613(9) 0.4336(9) 0.3693(5)
O10? O 0.4369(9) 0.2751(9) 0.3186(4)
O11? O 0.5272(8) 0.2537(9) 0.4179(5)
O12? O 0.3760(9) 0.3877(9) 0.3941(5)
O13? O 0.5052(15) 0.4490(15) 0.3381(7)
O14? O 0.3499(10) 0.3745(12) 0.3584(6)
O15? O 0.5182(12) 0.2351(12) 0.3573(7)
O16? O 0.4750(18) 0.333(2) 0.4344(9)
O23? O -0.0527(9) 0.3686(9) 0.6623(5)
O24? O -0.190(3) 0.396(2) 0.5600(13)
O25? O -0.1651(19) 0.6304(17) 0.4956(8)
O26? O 0.035(2) 0.770(2) 0.5421(6)
O27? O 0.1056(10) 0.7724(9) 0.6634(6)
O28? O 0.1187(6) 0.5220(7) 0.6940(3)
N2? N 0.4069(8) 0.1648(12) 0.5302(4)
H2? H 0.6143 0.1617 1.0086
H8? H 0.4831 0.3657 0.7717
C24? C 0.4072(9) 0.0591(9) 0.5624(5)
H32? H 0.6149 -0.0164 0.9572
C25? C 0.439(2) 0.0610(14) 0.6225(6)
H33? H 0.5640 -0.0116 0.8546
C26? C 0.4753(15) 0.1726(10) 0.6495(7)
C27? C 0.4696(9) 0.2803(11) 0.6163(5)
H34? H 0.4871 0.3579 0.6348
C28? C 0.4377(9) 0.2712(11) 0.5556(5)
H35? H 0.4378 0.3428 0.5318
C29? C 0.5008(5) 0.1759(6) 0.7171(2)
H36? H 0.4462 0.1052 0.7689
C30? C 0.3970(5) 0.1765(6) 0.7542(2)
H37? H 0.3878 0.0936 0.7719
C31? C 0.2785(8) 0.2284(16) 0.7266(6)
C32? C 0.1863(6) 0.1468(7) 0.7106(3)
H38? H 0.1995 0.0606 0.7145
C33? C 0.0745(5) 0.1914(7) 0.6887(3)
H39? H 0.0117 0.1351 0.6779
C34? C 0.0535(7) 0.3147(9) 0.6827(3)
C35? C 0.1468(8) 0.3989(11) 0.6996(3)
C36? C 0.2589(6) 0.3560(8) 0.7201(3)
H40? H 0.6777 0.4122 0.7702
C37? C -0.1434(9) 0.2841(14) 0.6369(4)
H41? H 1.1760 0.2414 0.8312
H42? H 1.1104 0.2215 0.8871
C38? C -0.2367(19) 0.354(2) 0.5992(8)
H43? H 1.3027 0.2991 0.9172
H44? H 1.2670 0.4203 0.8778
C39? C -0.2619(18) 0.4457(16) 0.5031(8)
H45? H 1.2992 0.3751 1.0201
H46? H 1.3258 0.4976 0.9863
C40? C -0.1968(13) 0.5192(14) 0.4640(8)
H47? H 1.1258 0.4745 1.0434
H48? H 1.2473 0.5364 1.0745
C41? C -0.0932(15) 0.6995(17) 0.4583(7)
H49? H 1.0296 0.6461 1.0515
H50? H 1.1430 0.7249 1.0793
C42? C -0.0424(14) 0.8087(14) 0.4908(7)
H51? H 0.9991 0.8585 1.0348
H52? H 1.1057 0.8603 0.9977
C43? C 0.1107(12) 0.8607(12) 0.5704(6)
H53? H 0.9352 0.9333 0.9208
H54? H 0.8333 0.8870 0.9556
C44? C 0.1778(12) 0.8057(13) 0.6284(6)
H55? H 0.2238 0.7334 0.6191
H56? H 0.7665 0.8675 0.8514
C45? C 0.1556(10) 0.7196(14) 0.7224(6)
H57? H 0.7857 0.7776 0.7565
H58? H 0.0919 0.7104 0.7462
C46? C 0.2092(7) 0.6050(10) 0.7181(5)
H59? H 0.2479 0.5768 0.7577
H60? H 0.7308 0.6107 0.8081
H61? H 0.469(8) 0.146(7) 0.230(3)
loop_
_geom_bond_atom_site_label_1
_geom_bond_atom_site_label_2
_geom_bond_site_symmetry_1
_geom_bond_site_symmetry_2
Cl1 O1 1_555 1_555
O2 Cl1 1_555 1_555
O3 Cl1 1_555 1_555
O4 Cl1 1_555 1_555
O17 C11 1_555 1_555
O18 C15 1_555 1_555
O19 C17 1_555 1_555
O20 C19 1_555 1_555
O21 C21 1_555 1_555
O22 C12 1_555 1_555
N1 H1 1_555 1_555
C1 N1 1_555 1_555
H3 C1 1_555 1_555
C2 C1 1_555 1_555
H4 C2 1_555 1_555
C3 C2 1_555 1_555
C4 C3 1_555 1_555
H5 C4 1_555 1_555
C5 N1 1_555 1_555
H6 C5 1_555 1_555
C6 C3 1_555 1_555
H7 C6 1_555 1_555
C7 C6 1_555 1_555
C8 C7 1_555 1_555
C9 C8 1_555 1_555
H9 C9 1_555 1_555
C10 C9 1_555 1_555
H10 C10 1_555 1_555
C11 C10 1_555 1_555
C12 C11 1_555 1_555
C13 C8 1_555 1_555
H11 C13 1_555 1_555
C14 O17 1_555 1_555
H12 C14 1_555 1_555
H13 C14 1_555 1_555
C15 C14 1_555 1_555
H14 C15 1_555 1_555
H15 C15 1_555 1_555
C16 O18 1_555 1_555
H16 C16 1_555 1_555
H17 C16 1_555 1_555
C17 C16 1_555 1_555
H18 C17 1_555 1_555
H19 C17 1_555 1_555
C18 O19 1_555 1_555
H20 C18 1_555 1_555
H21 C18 1_555 1_555
C19 C18 1_555 1_555
H22 C19 1_555 1_555
H23 C19 1_555 1_555
C20 O20 1_555 1_555
H24 C20 1_555 1_555
H25 C20 1_555 1_555
C21 C20 1_555 1_555
H26 C21 1_555 1_555
H27 C21 1_555 1_555
C22 O21 1_555 1_555
H28 C22 1_555 1_555
H29 C22 1_555 1_555
C23 O22 1_555 1_555
H30 C23 1_555 1_555
H31 C23 1_555 1_555
O29 O29A 1_555 1_555
N3 H62 1_555 1_555
H63 N3 1_555 1_555
H64 N3 1_555 1_555
H65 N3 1_555 1_555
O17A C11A 1_555 1_555
O18A C15A 1_555 1_555
O19A C17A 1_555 1_555
O20A C19A 1_555 1_555
O21A C21A 1_555 1_555
O22A C12A 1_555 1_555
N1A H1A 1_555 1_555
C1A N1A 1_555 1_555
H3A C1A 1_555 1_555
C2A C1A 1_555 1_555
H4A C2A 1_555 1_555
C3A C2A 1_555 1_555
C4A C3A 1_555 1_555
H5A C4A 1_555 1_555
C5A N1A 1_555 1_555
H6A C5A 1_555 1_555
C6A C7 1_555 1_555
H7A C6A 1_555 1_555
C7A C6 1_555 1_555
C8A C7A 1_555 1_555
C9A C8A 1_555 1_555
H9A C9A 1_555 1_555
C10A C9A 1_555 1_555
H10A C10A 1_555 1_555
C11A C10A 1_555 1_555
C12A C11A 1_555 1_555
C13A C8A 1_555 1_555
H11A C13A 1_555 1_555
C14A O17A 1_555 1_555
H12A C14A 1_555 1_555
H13A C14A 1_555 1_555
C15A C14A 1_555 1_555
H14A C15A 1_555 1_555
H15A C15A 1_555 1_555
C16A O18A 1_555 1_555
H16A C16A 1_555 1_555
H17A C16A 1_555 1_555
C17A C16A 1_555 1_555
H18A C17A 1_555 1_555
H19A C17A 1_555 1_555
C18A O19A 1_555 1_555
H20A C18A 1_555 1_555
H21A C18A 1_555 1_555
C19A C18A 1_555 1_555
H22A C19A 1_555 1_555
H23A C19A 1_555 1_555
C20A O20A 1_555 1_555
H24A C20A 1_555 1_555
H25A C20A 1_555 1_555
C21A C20A 1_555 1_555
H26A C21A 1_555 1_555
H27A C21A 1_555 1_555
C22A O21A 1_555 1_555
H28A C22A 1_555 1_555
H29A C22A 1_555 1_555
C23A O22A 1_555 1_555
H30A C23A 1_555 1_555
H31A C23A 1_555 1_555
C4 C5 1_555 1_555
C12 C13 1_555 1_555
C22 C23 1_555 1_555
C3A C6A 1_555 1_555
C4A C5A 1_555 1_555
C6A C7A 1_555 1_555
C12A C13A 1_555 1_555
C22A C23A 1_555 1_555

#END
