
#######################################################################
#
#                 Cambridge Crystallographic Data Centre
#                                CCDC 
#
#######################################################################
#
# If this CIF has been generated from an entry in the Cambridge 
# Structural Database, then it will include bibliographic, chemical, 
# crystal, experimental, refinement or atomic coordinate data resulting 
# from the CCDC's data processing and validation procedures.
#
#######################################################################

data_GEKRUK
_chemical_compound_source        
'endophytic fungus Myrothecium roridum IFB-E009 residing on Trachelospermum jasminoides (Apocynaceae)'
_chemical_formula_moiety         'C29 H36 O11,H2 O1'
_chemical_name_systematic        
"(2R,4R,5S,6R,9S,10S,11R,12R,6'S,12'R,13'R)-Myrothecine C monohydrate"
_chemical_properties_biological  
'cytotoxic activity against the human tumour cell line nasopharyngeal epidermoid KB'
_symmetry_cell_setting           monoclinic
_symmetry_space_group_name_H-M   'P 21'
_symmetry_Int_Tables_number      4
_space_group_name_Hall           'P 2yb'
loop_
_symmetry_equiv_pos_site_id
_symmetry_equiv_pos_as_xyz
1 x,y,z
2 -x,1/2+y,-z
_cell_length_a                   7.1237(14)
_cell_length_b                   25.752(5)
_cell_length_c                   8.2833(17)
_cell_angle_alpha                90.00
_cell_angle_beta                 112.89(3)
_cell_angle_gamma                90.00
_cell_volume                     1399.91
_exptl_crystal_colour            colorless
_chemical_melting_point          '220-223 deg.C'
_cell_formula_units_Z            2
_exptl_crystal_recrystallization_method chloroform/methanol
loop_
_atom_site_label
_atom_site_type_symbol
_atom_site_fract_x
_atom_site_fract_y
_atom_site_fract_z
O1 O 1.4824(2) 0.41831(7) 0.7879(2)
O2 O 1.1041(3) 0.47351(7) 0.3897(2)
H1 H 0.9935 0.4878 0.3650
O3 O 1.3330(3) 0.48287(8) 1.1706(2)
H2 H 1.2744 0.4867 1.2376
O4 O 1.0103(3) 0.31395(7) 0.7728(2)
O5 O 1.1688(3) 0.24003(8) 0.8905(3)
O6 O 0.9808(3) 0.36091(7) 0.3209(2)
O7 O 1.0490(4) 0.27571(8) 0.3299(3)
O8 O 0.7431(3) 0.13456(7) 0.3326(2)
O9 O 0.4936(3) 0.13116(7) 0.5309(2)
O10 O 0.3132(3) 0.06501(8) 0.3775(3)
O11 O 0.2102(3) 0.16598(8) 0.1681(3)
H3 H 0.2015 0.1845 0.0850
C1 C 1.3891(3) 0.43286(10) 0.6058(3)
H4 H 1.4777 0.4557 0.5722
C2 C 1.3365(4) 0.38361(10) 0.4961(4)
H5 H 1.4399 0.3572 0.5469
H6 H 1.3240 0.3906 0.3773
C3 C 1.1316(4) 0.36628(9) 0.4988(3)
H7 H 1.1479 0.3332 0.5615
C4 C 1.0639(3) 0.41002(8) 0.5979(3)
C5 C 1.1541(3) 0.39968(8) 0.8053(3)
C6 C 1.0161(4) 0.41703(10) 0.9024(3)
H8 H 0.8798 0.4039 0.8370
H9 H 1.0659 0.4002 1.0161
C7 C 0.9995(4) 0.47476(10) 0.9312(3)
H10 H 0.9365 0.4796 1.0150
H11 H 0.9115 0.4906 0.8216
C8 C 1.2045(4) 0.50219(9) 0.9981(3)
C9 C 1.3181(3) 0.48794(9) 0.8812(3)
H12 H 1.4500 0.5058 0.9258
C10 C 1.3566(3) 0.42960(9) 0.8838(3)
H13 H 1.4288 0.4186 1.0057
C11 C 1.1820(3) 0.45785(8) 0.5688(3)
C12 C 1.2018(4) 0.50393(8) 0.6879(3)
H14 H 1.0674 0.5166 0.6715
H15 H 1.2745 0.5317 0.6581
C13 C 0.8327(3) 0.41651(10) 0.5206(3)
H16 H 0.7962 0.4455 0.5755
H17 H 0.7703 0.3855 0.5410
H18 H 0.7862 0.4226 0.3969
C14 C 1.2004(4) 0.34250(9) 0.8521(3)
H19 H 1.2994 0.3298 0.8077
H20 H 1.2560 0.3380 0.9783
C15 C 1.1795(5) 0.56070(11) 1.0093(4)
H21 H 1.1067 0.5679 1.0829
H22 H 1.1048 0.5743 0.8941
H23 H 1.3114 0.5768 1.0580
C16 C 1.0167(4) 0.26267(9) 0.7982(3)
C17 C 0.8148(4) 0.24011(9) 0.6953(3)
H24 H 0.7017 0.2613 0.6732
C18 C 0.7807(4) 0.19193(9) 0.6313(3)
C19 C 0.9356(4) 0.15163(10) 0.6428(4)
H25 H 0.8985 0.1186 0.6781
H26 H 1.0684 0.1617 0.7279
C20 C 0.9405(4) 0.14727(10) 0.4606(4)
H27 H 0.9855 0.1800 0.4297
H28 H 1.0371 0.1206 0.4614
C21 C 0.5858(3) 0.17086(9) 0.3144(3)
C22 C 0.6037(4) 0.22239(9) 0.2323(3)
H29 H 0.6961 0.2446 0.3230
H30 H 0.4711 0.2390 0.1874
C23 C 0.6799(4) 0.21813(9) 0.0833(3)
H31 H 0.8185 0.2050 0.1282
H32 H 0.5945 0.1943 -0.0056
C24 C 0.6725(4) 0.27149(10) 0.0047(3)
H33 H 0.5777 0.2760 -0.1092
C25 C 0.7851(4) 0.31241(10) 0.0790(3)
H34 H 0.7567 0.3433 0.0159
C26 C 0.9520(4) 0.31289(10) 0.2539(3)
C27 C 0.5731(4) 0.18007(8) 0.4947(3)
H35 H 0.4785 0.2085 0.4870
C28 C 0.3943(4) 0.13787(10) 0.2243(3)
H36 H 0.4043 0.1161 0.1311
C29 C 0.3933(4) 0.10567(10) 0.3798(3)
O12 O 0.2643(3) 0.03013(10) 0.7032(3)
H37 H 0.362(3) 0.0100(10) 0.753(4)
H38 H 0.280(5) 0.0445(11) 0.618(3)
loop_
_geom_bond_atom_site_label_1
_geom_bond_atom_site_label_2
_geom_bond_site_symmetry_1
_geom_bond_site_symmetry_2
O1 C1 1_555 1_555
O2 H1 1_555 1_555
O3 H2 1_555 1_555
O4 C14 1_555 1_555
O5 C16 1_555 1_555
O6 C3 1_555 1_555
O7 C26 1_555 1_555
O8 C20 1_555 1_555
O9 C27 1_555 1_555
O10 C29 1_555 1_555
O11 H3 1_555 1_555
O12 H37 1_555 1_555
C1 H4 1_555 1_555
C2 C1 1_555 1_555
H5 C2 1_555 1_555
H6 C2 1_555 1_555
C3 C2 1_555 1_555
H7 C3 1_555 1_555
C4 C3 1_555 1_555
C5 C4 1_555 1_555
C6 C5 1_555 1_555
H8 C6 1_555 1_555
H9 C6 1_555 1_555
C7 C6 1_555 1_555
H10 C7 1_555 1_555
H11 C7 1_555 1_555
C8 O3 1_555 1_555
C9 C8 1_555 1_555
H12 C9 1_555 1_555
C10 O1 1_555 1_555
H13 C10 1_555 1_555
C11 O2 1_555 1_555
C12 C9 1_555 1_555
H14 C12 1_555 1_555
H15 C12 1_555 1_555
C13 C4 1_555 1_555
H16 C13 1_555 1_555
H17 C13 1_555 1_555
H18 C13 1_555 1_555
C14 C5 1_555 1_555
H19 C14 1_555 1_555
H20 C14 1_555 1_555
C15 C8 1_555 1_555
H21 C15 1_555 1_555
H22 C15 1_555 1_555
H23 C15 1_555 1_555
C16 O4 1_555 1_555
C17 C16 1_555 1_555
H24 C17 1_555 1_555
C18 C17 1_555 1_555
C19 C18 1_555 1_555
H25 C19 1_555 1_555
H26 C19 1_555 1_555
C20 C19 1_555 1_555
H27 C20 1_555 1_555
H28 C20 1_555 1_555
C21 O8 1_555 1_555
C22 C21 1_555 1_555
H29 C22 1_555 1_555
H30 C22 1_555 1_555
C23 C22 1_555 1_555
H31 C23 1_555 1_555
H32 C23 1_555 1_555
C24 C23 1_555 1_555
H33 C24 1_555 1_555
C25 C24 1_555 1_555
H34 C25 1_555 1_555
C26 O6 1_555 1_555
C27 C18 1_555 1_555
H35 C27 1_555 1_555
C28 O11 1_555 1_555
H36 C28 1_555 1_555
C29 O9 1_555 1_555
H38 O12 1_555 1_555
C1 C11 1_555 1_555
C4 C11 1_555 1_555
C5 C10 1_555 1_555
C7 C8 1_555 1_555
C9 C10 1_555 1_555
C11 C12 1_555 1_555
C21 C27 1_555 1_555
C21 C28 1_555 1_555
C25 C26 1_555 1_555
C28 C29 1_555 1_555

#END
