
#######################################################################
#
#                 Cambridge Crystallographic Data Centre
#                                CCDC 
#
#######################################################################
#
# If this CIF has been generated from an entry in the Cambridge 
# Structural Database, then it will include bibliographic, chemical, 
# crystal, experimental, refinement or atomic coordinate data resulting 
# from the CCDC's data processing and validation procedures.
#
#######################################################################

data_GEKSAR
_chemical_compound_source        
'endophytic fungus Myrothecium roridum IFB-E012 residing on Artemisia annua (Asteraceae)'
_chemical_formula_moiety         'C29 H38 O10,0.25(H2 O1)'
_chemical_name_systematic        
"(2R,4R,5S,6R,9S,10S,11R,12R,6'S,12'R)-Myrothecine A hydrate"
_chemical_properties_biological  
'cytotoxic activity against the human tumour cell line nasopharyngeal epidermoid KB'
_symmetry_cell_setting           orthorhombic
_symmetry_space_group_name_H-M   'P 21 21 2'
_symmetry_Int_Tables_number      18
_space_group_name_Hall           'P 2 2ab'
loop_
_symmetry_equiv_pos_site_id
_symmetry_equiv_pos_as_xyz
1 x,y,z
2 -x,-y,z
3 1/2-x,1/2+y,-z
4 1/2+x,1/2-y,-z
_cell_length_a                   11.1431(10)
_cell_length_b                   26.628(2)
_cell_length_c                   9.5951(9)
_cell_angle_alpha                90
_cell_angle_beta                 90
_cell_angle_gamma                90
_cell_volume                     2847.04
_exptl_crystal_colour            colorless
_chemical_melting_point          '252-254 deg.C'
_cell_formula_units_Z            4
loop_
_atom_site_label
_atom_site_type_symbol
_atom_site_fract_x
_atom_site_fract_y
_atom_site_fract_z
O1 O -0.03307(19) 0.39592(9) 0.3468(2)
O2 O 0.0174(2) 0.37449(9) -0.0269(2)
H1 H -0.0235 0.3976 -0.0576
O3 O 0.2853(2) 0.46847(8) 0.4552(2)
H2 H 0.2547 0.4953 0.4775
O4 O 0.2039(2) 0.27151(8) 0.4073(2)
O5 O 0.10192(19) 0.05974(8) 0.3054(2)
O6 O 0.0198(2) 0.26929(8) 0.0527(2)
O7 O 0.1151(4) 0.23143(10) 0.5832(3)
O8 O 0.3260(2) 0.06082(7) 0.4510(2)
H3 H 0.3687 0.0717 0.5136
O9 O -0.0227(3) 0.19841(9) 0.1695(3)
O10 O 0.3649(2) 0.04123(9) 0.1127(3)
C1 C -0.0640(3) 0.38126(13) 0.2047(4)
H4 H -0.1282 0.4025 0.1674
C2 C -0.0990(3) 0.32602(13) 0.1996(4)
H5 H -0.1524 0.3195 0.1220
H6 H -0.1384 0.3160 0.2853
C3 C 0.0199(3) 0.29807(11) 0.1813(3)
H7 H 0.0343 0.2759 0.2610
C4 C 0.1205(3) 0.33912(11) 0.1726(3)
C5 C 0.1638(3) 0.35518(11) 0.3259(3)
C6 C 0.2996(3) 0.36699(11) 0.3402(3)
H8 H 0.3187 0.3685 0.4388
H9 H 0.3441 0.3390 0.3011
C7 C 0.3449(3) 0.41508(11) 0.2722(4)
H10 H 0.4267 0.4213 0.3022
H11 H 0.3457 0.4107 0.1718
C8 C 0.2684(3) 0.46024(11) 0.3081(3)
C9 C 0.1361(3) 0.44789(11) 0.2804(3)
H12 H 0.0877 0.4771 0.3066
C10 C 0.0942(3) 0.40308(11) 0.3664(3)
H13 H 0.1092 0.4102 0.4650
C11 C 0.0484(3) 0.38466(11) 0.1149(3)
C12 C 0.1096(3) 0.43516(11) 0.1260(3)
H14 H 0.0585 0.4609 0.0861
H15 H 0.1841 0.4346 0.0738
C13 C 0.2233(3) 0.32186(12) 0.0780(4)
H16 H 0.2567 0.2912 0.1138
H17 H 0.2843 0.3473 0.0755
H18 H 0.1932 0.3162 -0.0144
C14 C 0.1361(3) 0.31633(11) 0.4385(3)
H19 H 0.1586 0.3292 0.5294
H20 H 0.0509 0.3088 0.4395
C15 C 0.3081(3) 0.50704(13) 0.2284(4)
H21 H 0.2605 0.5352 0.2573
H22 H 0.2975 0.5016 0.1302
H23 H 0.3911 0.5137 0.2475
C16 C 0.1825(4) 0.23106(12) 0.4863(3)
C17 C 0.2542(3) 0.18843(11) 0.4326(3)
H24 H 0.3280 0.1957 0.3919
C18 C 0.2207(3) 0.14060(11) 0.4382(3)
C19 C 0.1067(3) 0.11980(13) 0.4988(3)
H25 H 0.0606 0.1466 0.5414
H26 H 0.1256 0.0953 0.5703
C20 C 0.0333(3) 0.09510(13) 0.3833(4)
H27 H -0.0353 0.0782 0.4242
H28 H 0.0033 0.1209 0.3209
C21 C 0.2096(3) 0.07890(11) 0.2454(3)
C22 C 0.1870(3) 0.11946(12) 0.1334(3)
H29 H 0.1705 0.1511 0.1798
H30 H 0.2599 0.1238 0.0795
C23 C 0.0838(3) 0.10807(12) 0.0331(3)
H31 H 0.0960 0.0753 -0.0085
H32 H 0.0088 0.1072 0.0845
C24 C 0.0760(3) 0.14718(13) -0.0802(3)
H33 H 0.0964 0.1366 -0.1695
C25 C 0.0437(3) 0.19470(13) -0.0676(3)
H34 H 0.0430 0.2142 -0.1479
C26 C 0.0086(3) 0.21917(12) 0.0643(3)
C27 C 0.2911(3) 0.10133(10) 0.3605(3)
H35 H 0.3625 0.1166 0.3183
C28 C 0.2749(3) 0.03367(12) 0.1806(3)
C29 C 0.2247(5) -0.01746(13) 0.2008(4)
H36 H 0.1479 -0.0197 0.1561
H37 H 0.2158 -0.0240 0.2987
H38 H 0.2782 -0.0418 0.1608
O11 O 0.5001(10) 0.1887(4) 0.2617(10)
H39 H 0.533(11) 0.217(2) 0.267(19)
H40 H 0.553(9) 0.166(4) 0.26(2)
loop_
_geom_bond_atom_site_label_1
_geom_bond_atom_site_label_2
_geom_bond_site_symmetry_1
_geom_bond_site_symmetry_2
O1 C1 1_555 1_555
O2 H1 1_555 1_555
O3 H2 1_555 1_555
O4 C14 1_555 1_555
O5 C20 1_555 1_555
O6 C3 1_555 1_555
O7 C16 1_555 1_555
O8 H3 1_555 1_555
O9 C26 1_555 1_555
O10 C28 1_555 1_555
C1 H4 1_555 1_555
C2 C1 1_555 1_555
H5 C2 1_555 1_555
H6 C2 1_555 1_555
C3 C2 1_555 1_555
H7 C3 1_555 1_555
C4 C3 1_555 1_555
C5 C4 1_555 1_555
C6 C5 1_555 1_555
H8 C6 1_555 1_555
H9 C6 1_555 1_555
C7 C6 1_555 1_555
H10 C7 1_555 1_555
H11 C7 1_555 1_555
C8 O3 1_555 1_555
C9 C8 1_555 1_555
H12 C9 1_555 1_555
C10 O1 1_555 1_555
H13 C10 1_555 1_555
C11 O2 1_555 1_555
C12 C9 1_555 1_555
H14 C12 1_555 1_555
H15 C12 1_555 1_555
C13 C4 1_555 1_555
H16 C13 1_555 1_555
H17 C13 1_555 1_555
H18 C13 1_555 1_555
C14 C5 1_555 1_555
H19 C14 1_555 1_555
H20 C14 1_555 1_555
C15 C8 1_555 1_555
H21 C15 1_555 1_555
H22 C15 1_555 1_555
H23 C15 1_555 1_555
C16 O4 1_555 1_555
C17 C16 1_555 1_555
H24 C17 1_555 1_555
C18 C17 1_555 1_555
C19 C18 1_555 1_555
H25 C19 1_555 1_555
H26 C19 1_555 1_555
C20 C19 1_555 1_555
H27 C20 1_555 1_555
H28 C20 1_555 1_555
C21 O5 1_555 1_555
C22 C21 1_555 1_555
H29 C22 1_555 1_555
H30 C22 1_555 1_555
C23 C22 1_555 1_555
H31 C23 1_555 1_555
H32 C23 1_555 1_555
C24 C23 1_555 1_555
H33 C24 1_555 1_555
C25 C24 1_555 1_555
H34 C25 1_555 1_555
C26 O6 1_555 1_555
C27 O8 1_555 1_555
H35 C27 1_555 1_555
C28 C21 1_555 1_555
C29 C28 1_555 1_555
H36 C29 1_555 1_555
H37 C29 1_555 1_555
H38 C29 1_555 1_555
O11 H39 1_555 1_555
H40 O11 1_555 1_555
C1 C11 1_555 1_555
C4 C11 1_555 1_555
C5 C10 1_555 1_555
C7 C8 1_555 1_555
C9 C10 1_555 1_555
C11 C12 1_555 1_555
C18 C27 1_555 1_555
C21 C27 1_555 1_555
C25 C26 1_555 1_555

#END
