
#######################################################################
#
#                 Cambridge Crystallographic Data Centre
#                                CCDC 
#
#######################################################################
#
# If this CIF has been generated from an entry in the Cambridge 
# Structural Database, then it will include bibliographic, chemical, 
# crystal, experimental, refinement or atomic coordinate data resulting 
# from the CCDC's data processing and validation procedures.
#
#######################################################################

data_GEKXOL
_chemical_formula_moiety         'C10 H9 I1 N1 S2 1+,I3 1-'
_chemical_name_systematic        
'2-Iodomethyl-2,3-dihydro(1,3)thiazolo(2,3-b)benozthiazolium tri-iodide'
_symmetry_cell_setting           monoclinic
_symmetry_space_group_name_H-M   'P 21/c'
_symmetry_Int_Tables_number      14
_space_group_name_Hall           '-P 2ybc'
loop_
_symmetry_equiv_pos_site_id
_symmetry_equiv_pos_as_xyz
1 x,y,z
2 -x,1/2+y,1/2-z
3 -x,-y,-z
4 x,1/2-y,1/2+z
_cell_length_a                   14.955(2)
_cell_length_b                   7.6846(11)
_cell_length_c                   15.426(2)
_cell_angle_alpha                90
_cell_angle_beta                 96.999(11)
_cell_angle_gamma                90
_cell_volume                     1759.59
_exptl_crystal_colour            brown
_exptl_crystal_description       prism
_chemical_melting_point          '150 deg.C'
_cell_formula_units_Z            4
_exptl_crystal_recrystallization_method ethanol
loop_
_atom_site_label
_atom_site_type_symbol
_atom_site_fract_x
_atom_site_fract_y
_atom_site_fract_z
I1 I 0.10304(3) 0.27702(6) 0.49932(3)
I2 I 0.23079(3) 0.16611(5) 0.37950(3)
I3 I 0.35361(3) 0.07204(7) 0.25166(3)
S1 S -0.40286(12) 0.4500(2) 0.84728(11)
N1 N -0.2616(3) 0.3106(6) 0.9264(3)
C1 C -0.2908(4) 0.4132(8) 0.8576(4)
S2 S -0.20819(12) 0.4836(2) 0.79660(11)
C2 C -0.3299(4) 0.2560(8) 0.9756(4)
C3 C -0.3188(5) 0.1536(8) 1.0508(4)
H1 H -0.2627 0.1108 1.0738
I4 I -0.04029(3) 0.25298(6) 0.68968(3)
C4 C -0.3949(5) 0.1197(8) 1.0889(4)
H2 H -0.3911 0.0510 1.1389
C5 C -0.4782(5) 0.1872(9) 1.0535(5)
H3 H -0.5283 0.1639 1.0818
C6 C -0.4897(5) 0.2867(8) 0.9784(4)
H4 H -0.5461 0.3276 0.9550
C7 C -0.4126(4) 0.3226(8) 0.9397(4)
C8 C -0.1627(4) 0.2828(8) 0.9423(4)
H5 H -0.1496 0.1614 0.9557
H6 H -0.1367 0.3530 0.9912
C9 C -0.1226(4) 0.3369(8) 0.8573(4)
H7 H -0.0672 0.4032 0.8737
C10 C -0.1012(5) 0.1823(8) 0.8029(4)
H8 H -0.1564 0.1189 0.7848
H9 H -0.0609 0.1049 0.8388
loop_
_geom_bond_atom_site_label_1
_geom_bond_atom_site_label_2
_geom_bond_site_symmetry_1
_geom_bond_site_symmetry_2
I1 I2 1_555 1_555
S1 C1 1_555 1_555
N1 C1 1_555 1_555
C1 S2 1_555 1_555
I2 I3 1_555 1_555
S2 C9 1_555 1_555
C2 N1 1_555 1_555
C3 C2 1_555 1_555
H1 C3 1_555 1_555
I4 C10 1_555 1_555
C4 C3 1_555 1_555
H2 C4 1_555 1_555
C5 C4 1_555 1_555
H3 C5 1_555 1_555
C6 C5 1_555 1_555
H4 C6 1_555 1_555
C7 S1 1_555 1_555
C8 N1 1_555 1_555
H5 C8 1_555 1_555
H6 C8 1_555 1_555
C9 C8 1_555 1_555
H7 C9 1_555 1_555
C10 C9 1_555 1_555
H8 C10 1_555 1_555
H9 C10 1_555 1_555
C2 C7 1_555 1_555
C6 C7 1_555 1_555

#END
