
#######################################################################
#
#                 Cambridge Crystallographic Data Centre
#                                CCDC 
#
#######################################################################
#
# If this CIF has been generated from an entry in the Cambridge 
# Structural Database, then it will include bibliographic, chemical, 
# crystal, experimental, refinement or atomic coordinate data resulting 
# from the CCDC's data processing and validation procedures.
#
#######################################################################

data_GEKXOM
_chemical_formula_moiety         'C19 H20 O4'
_chemical_name_systematic        
11-methoxy-2-propyl-6,7-dihydro-10H-6,12a-methanodibenzo[e,g][1,4]dioxocin-10-one
_symmetry_cell_setting           monoclinic
_symmetry_space_group_name_H-M   'P 21/c'
_symmetry_Int_Tables_number      14
_space_group_name_Hall           '-P 2ybc'
loop_
_symmetry_equiv_pos_site_id
_symmetry_equiv_pos_as_xyz
1 x,y,z
2 -x,1/2+y,1/2-z
3 -x,-y,-z
4 x,1/2-y,1/2+z
_cell_length_a                   5.8007(4)
_cell_length_b                   14.3745(10)
_cell_length_c                   19.4066(16)
_cell_angle_alpha                90
_cell_angle_beta                 94.923(7)
_cell_angle_gamma                90
_cell_volume                     1612.19
_exptl_crystal_colour            white
_exptl_crystal_description       block
_cell_formula_units_Z            4
loop_
_atom_site_label
_atom_site_type_symbol
_atom_site_fract_x
_atom_site_fract_y
_atom_site_fract_z
O1 O 0.72278(19) 0.54049(8) 0.16055(6)
O2 O 0.4367(2) 0.70076(9) -0.09019(6)
C1 C 0.6540(2) 0.58359(10) 0.10000(8)
C2 C 0.6920(3) 0.60430(11) -0.02211(8)
O3 O 0.7907(2) 0.58727(9) -0.07424(6)
C3 C 0.4911(2) 0.66463(11) 0.10345(8)
C4 C 0.4101(3) 0.69987(11) 0.03293(8)
H1 H 0.2905 0.7431 0.0291
C5 C 0.7503(3) 0.55848(11) 0.04295(8)
H2 H 0.8576 0.5103 0.0452
C6 C 0.6256(3) 0.73868(11) 0.14787(8)
C7 C 0.4999(3) 0.67269(11) -0.02443(8)
O4 O 0.4961(2) 0.67294(10) 0.25327(6)
C8 C 0.2852(3) 0.63486(13) 0.14296(9)
H3 H 0.1831 0.6873 0.1484
H4 H 0.1979 0.5862 0.1179
C9 C 0.3817(3) 0.59982(14) 0.21251(9)
H5 H 0.2520 0.5774 0.2372
C10 C 0.6218(3) 0.73623(12) 0.21908(9)
C11 C 0.5417(3) 0.51986(14) 0.20461(10)
H6 H 0.6113 0.5020 0.2499
H7 H 0.4529 0.4673 0.1856
C12 C 0.7596(3) 0.80572(13) 0.11965(10)
H8 H 0.7615 0.8086 0.0718
C13 C 0.7501(3) 0.79981(13) 0.26054(10)
H9 H 0.7454 0.7983 0.3083
C14 C 0.8913(5) 0.86896(16) 0.16013(12)
C15 C 0.8829(4) 0.86437(15) 0.23093(12)
H10 H 0.9697 0.9062 0.2590
C16 C 0.2408(3) 0.75965(16) -0.09984(11)
H11 H 0.1089 0.7288 -0.0837
H12 H 0.2106 0.7739 -0.1481
H13 H 0.2701 0.8162 -0.0743
C17 C 1.2988(15) 1.0309(7) 0.0754(5)
H14 H 1.4398 1.0142 0.0560
H15 H 1.3325 1.0733 0.1131
H16 H 1.1956 1.0601 0.0406
C18 C 1.1839(13) 0.9427(5) 0.1019(4)
H17 H 1.1527 0.8996 0.0638
H18 H 1.2898 0.9127 0.1363
C19 C 0.9637(10) 0.9642(4) 0.1327(2)
H19 H 0.8481 0.9881 0.0982
H20 H 0.9883 1.0091 0.1700
C20? C 1.2402(14) 1.0762(5) 0.0884(5)
H21? H 1.2008 1.1410 0.0888
H22? H 1.2484 1.0560 0.0415
H23? H 1.3874 1.0668 0.1139
C21? C 1.1071(11) 0.9174(4) 0.1240(4)
H24? H 1.2519 0.9050 0.1513
H25? H 1.1172 0.8925 0.0779
C22? C 1.0602(8) 1.0215(4) 0.1206(3)
H26? H 0.9122 1.0318 0.0946
H27? H 1.0483 1.0444 0.1672
loop_
_geom_bond_atom_site_label_1
_geom_bond_atom_site_label_2
_geom_bond_site_symmetry_1
_geom_bond_site_symmetry_2
O1 C1 1_555 1_555
O2 C7 1_555 1_555
C1 C3 1_555 1_555
C2 O3 1_555 1_555
C3 C4 1_555 1_555
C4 H1 1_555 1_555
C5 C1 1_555 1_555
H2 C5 1_555 1_555
C6 C3 1_555 1_555
C7 C2 1_555 1_555
O4 C9 1_555 1_555
C8 C3 1_555 1_555
H3 C8 1_555 1_555
H4 C8 1_555 1_555
C9 C8 1_555 1_555
H5 C9 1_555 1_555
C10 C6 1_555 1_555
C11 O1 1_555 1_555
H6 C11 1_555 1_555
H7 C11 1_555 1_555
C12 C6 1_555 1_555
H8 C12 1_555 1_555
C13 C10 1_555 1_555
H9 C13 1_555 1_555
C14 C12 1_555 1_555
C15 C13 1_555 1_555
H10 C15 1_555 1_555
C16 O2 1_555 1_555
H11 C16 1_555 1_555
H12 C16 1_555 1_555
H13 C16 1_555 1_555
C17 H14 1_555 1_555
H15 C17 1_555 1_555
H16 C17 1_555 1_555
C18 C17 1_555 1_555
H17 C18 1_555 1_555
H18 C18 1_555 1_555
C19 C14 1_555 1_555
H19 C19 1_555 1_555
H20 C19 1_555 1_555
C2 C5 1_555 1_555
C4 C7 1_555 1_555
O4 C10 1_555 1_555
C9 C11 1_555 1_555
C14 C15 1_555 1_555
C18 C19 1_555 1_555

#END
