
#######################################################################
#
#                 Cambridge Crystallographic Data Centre
#                                CCDC 
#
#######################################################################
#
# If this CIF has been generated from an entry in the Cambridge 
# Structural Database, then it will include bibliographic, chemical, 
# crystal, experimental, refinement or atomic coordinate data resulting 
# from the CCDC's data processing and validation procedures.
#
#######################################################################

data_GELFUB
_chemical_formula_moiety         'C12 H9 F3 O2'
_chemical_name_systematic        
4-hydroxy-3-phenyl-4-(trifluoromethyl)cyclopent-2-en-1-one
_symmetry_cell_setting           triclinic
_symmetry_space_group_name_H-M   'P -1'
_symmetry_Int_Tables_number      2
_space_group_name_Hall           '-P 1'
loop_
_symmetry_equiv_pos_site_id
_symmetry_equiv_pos_as_xyz
1 x,y,z
2 -x,-y,-z
_cell_length_a                   9.1479(6)
_cell_length_b                   10.7709(8)
_cell_length_c                   11.3143(5)
_cell_angle_alpha                106.270(5)
_cell_angle_beta                 92.281(5)
_cell_angle_gamma                106.304(6)
_cell_volume                     1018.6
_exptl_crystal_colour            colorless
_exptl_crystal_description       prism
_chemical_melting_point          '390.8-392.3 K'
_cell_formula_units_Z            4
_exptl_crystal_recrystallization_method Sublimation
loop_
_atom_site_label
_atom_site_type_symbol
_atom_site_fract_x
_atom_site_fract_y
_atom_site_fract_z
F1 F 0.9100(2) 0.87626(17) 1.11638(15)
F2 F 0.7445(2) 0.91619(17) 1.00206(17)
F3 F 0.9240(2) 0.84265(19) 0.92074(17)
O1 O 0.6299(2) 0.6482(2) 0.86294(18)
H1 H 0.6679 0.6041 0.8056
O2 O 0.8826(2) 0.5082(2) 1.15052(19)
C1 C 0.8251(4) 0.8308(3) 1.0040(3)
C2 C 0.6239(3) 0.6704(3) 1.0818(2)
C3 C 0.8028(3) 0.5598(3) 1.1020(3)
C4 C 0.4998(3) 0.7309(3) 1.1092(3)
C5 C 0.4587(3) 0.7603(3) 1.2292(3)
H2 H 0.5121 0.7409 1.2921
C6 C 0.7240(3) 0.6837(3) 0.9769(2)
C7 C 0.2988(4) 0.8149(3) 1.0465(3)
H3 H 0.2434 0.8331 0.9838
C8 C 0.6728(3) 0.6007(3) 1.1493(3)
H4 H 0.6278 0.5810 1.2188
C9 C 0.8262(4) 0.5929(3) 0.9815(3)
H5 H 0.7940 0.5092 0.9097
H6 H 0.9352 0.6419 0.9810
C10 C 0.2600(4) 0.8437(3) 1.1660(3)
H7 H 0.1783 0.8812 1.1852
C11 C 0.4179(4) 0.7598(3) 1.0172(3)
H8 H 0.4443 0.7415 0.9351
C12 C 0.3417(4) 0.8172(3) 1.2582(3)
H9 H 0.3169 0.8383 1.3407
F4 F 0.5540(2) 0.14265(18) 0.23432(16)
F5 F 0.7301(2) 0.06348(17) 0.28505(16)
F6 F 0.5853(2) 0.12874(19) 0.41986(16)
O3 O 0.8523(3) 0.3172(2) 0.26732(18)
H10 H 0.8459 0.3872 0.2513
O4 O 0.6503(3) 0.5053(2) 0.63192(19)
C13 C 1.0001(4) 0.2485(3) 0.4815(3)
C14 C 0.7742(3) 0.3024(3) 0.3695(2)
C15 C 0.6612(4) 0.1581(3) 0.3263(3)
C16 C 0.7193(4) 0.4442(3) 0.5582(3)
C17 C 1.0374(4) 0.2127(3) 0.5865(3)
H11 H 0.9858 0.2331 0.6574
C18 C 1.0798(4) 0.2197(3) 0.3795(3)
H12 H 1.0554 0.2421 0.3072
C19 C 1.1941(4) 0.1590(3) 0.3829(3)
H13 H 1.2495 0.1420 0.3140
C20 C 0.8818(3) 0.3175(3) 0.4843(2)
C21 C 1.1485(4) 0.1481(3) 0.5879(3)
H14 H 1.1701 0.1212 0.6581
C22 C 0.8466(3) 0.3970(3) 0.5874(3)
H15 H 0.8981 0.4192 0.6686
C23 C 1.2279(4) 0.1228(3) 0.4869(3)
H16 H 1.3058 0.0805 0.4886
C24 C 0.6865(4) 0.4050(3) 0.4180(3)
H17 H 0.7239 0.4854 0.3887
H18 H 0.5750 0.3632 0.3900
loop_
_geom_bond_atom_site_label_1
_geom_bond_atom_site_label_2
_geom_bond_site_symmetry_1
_geom_bond_site_symmetry_2
F1 C1 1_555 1_555
F2 C1 1_555 1_555
F3 C1 1_555 1_555
O1 H1 1_555 1_555
O2 C3 1_555 1_555
C1 C6 1_555 1_555
C2 C4 1_555 1_555
C3 C8 1_555 1_555
C4 C5 1_555 1_555
C5 H2 1_555 1_555
C6 O1 1_555 1_555
C7 H3 1_555 1_555
C8 C2 1_555 1_555
H4 C8 1_555 1_555
C9 C3 1_555 1_555
H5 C9 1_555 1_555
H6 C9 1_555 1_555
C10 C7 1_555 1_555
H7 C10 1_555 1_555
C11 C4 1_555 1_555
H8 C11 1_555 1_555
C12 C5 1_555 1_555
H9 C12 1_555 1_555
F4 C15 1_555 1_555
F5 C15 1_555 1_555
F6 C15 1_555 1_555
O3 H10 1_555 1_555
O4 C16 1_555 1_555
C13 C17 1_555 1_555
C14 O3 1_555 1_555
C15 C14 1_555 1_555
C16 C22 1_555 1_555
C17 H11 1_555 1_555
C18 C13 1_555 1_555
H12 C18 1_555 1_555
C19 C18 1_555 1_555
H13 C19 1_555 1_555
C20 C13 1_555 1_555
C21 C17 1_555 1_555
H14 C21 1_555 1_555
C22 C20 1_555 1_555
H15 C22 1_555 1_555
C23 C19 1_555 1_555
H16 C23 1_555 1_555
C24 C14 1_555 1_555
H17 C24 1_555 1_555
H18 C24 1_555 1_555
C2 C6 1_555 1_555
C6 C9 1_555 1_555
C7 C11 1_555 1_555
C10 C12 1_555 1_555
C14 C20 1_555 1_555
C16 C24 1_555 1_555
C21 C23 1_555 1_555

#END
