
#######################################################################
#
#                 Cambridge Crystallographic Data Centre
#                                CCDC 
#
#######################################################################
#
# If this CIF has been generated from an entry in the Cambridge 
# Structural Database, then it will include bibliographic, chemical, 
# crystal, experimental, refinement or atomic coordinate data resulting 
# from the CCDC's data processing and validation procedures.
#
#######################################################################

data_GELKOA
_chemical_formula_moiety         'C19 H15 Cl2 N1 O1'
_chemical_name_systematic        
(6R,6aR,10aS)-1,3-dichloro-6-phenyl-6,6a,10,10a-tetrahydrophenanthridin-9(5H)-one
_symmetry_cell_setting           monoclinic
_symmetry_space_group_name_H-M   'C 2'
_symmetry_Int_Tables_number      5
_space_group_name_Hall           'C 2y'
loop_
_symmetry_equiv_pos_site_id
_symmetry_equiv_pos_as_xyz
1 x,y,z
2 -x,y,-z
3 1/2+x,1/2+y,z
4 1/2-x,1/2+y,-z
_cell_length_a                   16.6590(4)
_cell_length_b                   6.6352(2)
_cell_length_c                   14.5744(4)
_cell_angle_alpha                90
_cell_angle_beta                 93.2430(10)
_cell_angle_gamma                90
_cell_volume                     1608.41
_exptl_crystal_colour            yellow
_exptl_crystal_description       block
_chemical_melting_point          '124.5-125.8 deg.C'
_cell_formula_units_Z            4
loop_
_atom_site_label
_atom_site_type_symbol
_atom_site_fract_x
_atom_site_fract_y
_atom_site_fract_z
Cl1 Cl 0.91010(3) 1.01269(12) 0.93792(4)
N1 N 0.73056(10) 0.5389(4) 0.74236(14)
O1 O 0.39850(10) 0.8986(3) 0.70256(13)
C1 C 0.73534(13) 0.6939(4) 0.80600(16)
Cl2 Cl 0.59017(3) 1.03263(11) 0.95287(5)
C2 C 0.81126(14) 0.7660(4) 0.83738(16)
H1 H 0.8587 0.7089 0.8152
C3 C 0.81626(14) 0.9201(4) 0.90057(16)
C4 C 0.74867(13) 1.0064(5) 0.93616(16)
H2 H 0.7530 1.1135 0.9794
C5 C 0.66482(13) 0.7755(4) 0.84024(16)
C6 C 0.67459(14) 0.9287(4) 0.90542(17)
C7 C 0.58753(12) 0.4933(4) 0.75892(15)
H3 H 0.6018 0.3887 0.8065
C8 C 0.58254(13) 0.6987(4) 0.80750(16)
H4 H 0.5506 0.6794 0.8629
C9 C 0.65530(12) 0.4993(4) 0.68998(15)
H5 H 0.6444 0.6147 0.6469
C10 C 0.50780(13) 0.4375(4) 0.71213(17)
H6 H 0.4996 0.3003 0.6954
C11 C 0.44778(13) 0.5662(4) 0.69234(17)
H7 H 0.3990 0.5168 0.6639
C12 C 0.45517(13) 0.7821(4) 0.71335(17)
C13 C 0.53795(14) 0.8540(4) 0.74503(18)
H8 H 0.5333 0.9823 0.7789
H9 H 0.5695 0.8801 0.6908
C14 C 0.66245(13) 0.3096(4) 0.63334(16)
C15 C 0.61971(16) 0.2977(5) 0.54813(19)
H10 H 0.5860 0.4062 0.5278
C16 C 0.62609(18) 0.1293(5) 0.4932(2)
H11 H 0.5960 0.1218 0.4359
C17 C 0.67612(16) -0.0283(4) 0.52109(19)
H12 H 0.6813 -0.1426 0.4826
C18 C 0.71864(15) -0.0181(4) 0.60575(18)
H13 H 0.7530 -0.1259 0.6253
C19 C 0.71114(14) 0.1492(4) 0.66202(18)
H14 H 0.7395 0.1538 0.7204
loop_
_geom_bond_atom_site_label_1
_geom_bond_atom_site_label_2
_geom_bond_site_symmetry_1
_geom_bond_site_symmetry_2
Cl1 C3 1_555 1_555
N1 C1 1_555 1_555
O1 C12 1_555 1_555
C1 C2 1_555 1_555
Cl2 C6 1_555 1_555
C2 H1 1_555 1_555
C3 C2 1_555 1_555
C4 C3 1_555 1_555
H2 C4 1_555 1_555
C5 C1 1_555 1_555
C6 C4 1_555 1_555
C7 H3 1_555 1_555
C8 C5 1_555 1_555
H4 C8 1_555 1_555
C9 N1 1_555 1_555
H5 C9 1_555 1_555
C10 C7 1_555 1_555
H6 C10 1_555 1_555
C11 C10 1_555 1_555
H7 C11 1_555 1_555
C12 C11 1_555 1_555
C13 C8 1_555 1_555
H8 C13 1_555 1_555
H9 C13 1_555 1_555
C14 C9 1_555 1_555
C15 C14 1_555 1_555
H10 C15 1_555 1_555
C16 C15 1_555 1_555
H11 C16 1_555 1_555
C17 C16 1_555 1_555
H12 C17 1_555 1_555
C18 C17 1_555 1_555
H13 C18 1_555 1_555
C19 C14 1_555 1_555
H14 C19 1_555 1_555
C5 C6 1_555 1_555
C7 C8 1_555 1_555
C7 C9 1_555 1_555
C12 C13 1_555 1_555
C18 C19 1_555 1_555

#END
