
#######################################################################
#
#                 Cambridge Crystallographic Data Centre
#                                CCDC 
#
#######################################################################
#
# If this CIF has been generated from an entry in the Cambridge 
# Structural Database, then it will include bibliographic, chemical, 
# crystal, experimental, refinement or atomic coordinate data resulting 
# from the CCDC's data processing and validation procedures.
#
#######################################################################

data_GELNOD
_chemical_formula_moiety         'C15 H10 F4 N2 O1 S1'
_chemical_name_systematic        
3-fluoro-N-((4-(trifluoromethyl)phenyl)carbamothioyl)benzamide
_symmetry_cell_setting           monoclinic
_symmetry_space_group_name_H-M   'C 2/c'
_symmetry_Int_Tables_number      15
_space_group_name_Hall           '-C 2yn'
loop_
_symmetry_equiv_pos_site_id
_symmetry_equiv_pos_as_xyz
1 x,y,z
2 -x,y,1/2-z
3 1/2+x,1/2+y,z
4 1/2-x,1/2+y,1/2-z
5 -x,-y,-z
6 x,-y,1/2+z
7 1/2-x,1/2-y,-z
8 1/2+x,1/2-y,1/2+z
_cell_length_a                   31.87(3)
_cell_length_b                   7.705(9)
_cell_length_c                   12.591(14)
_cell_angle_alpha                90
_cell_angle_beta                 106.06(2)
_cell_angle_gamma                90
_cell_volume                     2971.16
_exptl_crystal_colour            white
_exptl_crystal_description       block
_cell_formula_units_Z            8
loop_
_atom_site_label
_atom_site_type_symbol
_atom_site_fract_x
_atom_site_fract_y
_atom_site_fract_z
S1 S 0.43405(6) 0.1786(3) 0.69120(13)
F1 F 0.22811(18) -0.2069(10) 0.3762(6)
F2 F 0.21040(16) 0.0512(9) 0.3639(6)
F3 F 0.22139(15) -0.0771(10) 0.2307(5)
F4 F 0.62145(14) 0.3079(6) 0.3238(3)
N1 N 0.41435(15) 0.1358(7) 0.4719(4)
H1 H 0.4250 0.1398 0.4161
N2 N 0.48393(15) 0.2250(6) 0.5607(4)
H2 H 0.5028 0.2459 0.6229
O1 O 0.47476(13) 0.2081(7) 0.3757(3)
C1 C 0.2366(3) -0.0624(15) 0.3365(8)
C2 C 0.2835(2) -0.0100(9) 0.3753(6)
C3 C 0.3003(2) 0.0684(11) 0.4756(6)
H3 H 0.2820 0.0890 0.5202
C4 C 0.3432(2) 0.1174(10) 0.5125(6)
H4 H 0.3540 0.1708 0.5809
C5 C 0.36990(18) 0.0858(8) 0.4458(5)
C6 C 0.3535(2) 0.0100(9) 0.3448(5)
H5 H 0.3716 -0.0080 0.2993
C7 C 0.3115(2) -0.0386(9) 0.3106(6)
H6 H 0.3010 -0.0924 0.2423
C8 C 0.44226(19) 0.1774(8) 0.5672(5)
C9 C 0.4990(2) 0.2433(8) 0.4676(5)
C10 C 0.54438(18) 0.3082(8) 0.4842(5)
C11 C 0.5689(2) 0.3920(8) 0.5787(5)
H7 H 0.5569 0.4133 0.6367
C12 C 0.6111(2) 0.4437(9) 0.5869(6)
H8 H 0.6273 0.4996 0.6505
C13 C 0.6293(2) 0.4132(10) 0.5017(6)
H9 H 0.6580 0.4454 0.5073
C14 C 0.6045(2) 0.3350(9) 0.4096(6)
C15 C 0.5627(2) 0.2807(9) 0.3974(5)
H10 H 0.5468 0.2265 0.3327
loop_
_geom_bond_atom_site_label_1
_geom_bond_atom_site_label_2
_geom_bond_site_symmetry_1
_geom_bond_site_symmetry_2
S1 C8 1_555 1_555
F1 C1 1_555 1_555
F2 C1 1_555 1_555
F3 C1 1_555 1_555
F4 C14 1_555 1_555
N1 H1 1_555 1_555
N2 H2 1_555 1_555
O1 C9 1_555 1_555
C1 C2 1_555 1_555
C2 C3 1_555 1_555
C3 H3 1_555 1_555
C4 C3 1_555 1_555
H4 C4 1_555 1_555
C5 N1 1_555 1_555
C6 C5 1_555 1_555
H5 C6 1_555 1_555
C7 C2 1_555 1_555
H6 C7 1_555 1_555
C8 N1 1_555 1_555
C9 N2 1_555 1_555
C10 C9 1_555 1_555
C11 C10 1_555 1_555
H7 C11 1_555 1_555
C12 C11 1_555 1_555
H8 C12 1_555 1_555
C13 C12 1_555 1_555
H9 C13 1_555 1_555
C14 C13 1_555 1_555
C15 C10 1_555 1_555
H10 C15 1_555 1_555
N2 C8 1_555 1_555
C4 C5 1_555 1_555
C6 C7 1_555 1_555
C14 C15 1_555 1_555

#END
