
#######################################################################
#
#                 Cambridge Crystallographic Data Centre
#                                CCDC 
#
#######################################################################
#
# If this CIF has been generated from an entry in the Cambridge 
# Structural Database, then it will include bibliographic, chemical, 
# crystal, experimental, refinement or atomic coordinate data resulting 
# from the CCDC's data processing and validation procedures.
#
#######################################################################

data_GELQIA
_chemical_formula_moiety         'C12 H17 N1 O5,H2 O1'
_chemical_name_systematic        
'2-(((1,3-dihydroxy-2-(hydroxymethyl)propan-2-yl)iminio)methyl)-5-methoxyphenolate monohydrate'
_symmetry_cell_setting           monoclinic
_symmetry_space_group_name_H-M   'P 21/c'
_symmetry_Int_Tables_number      14
_space_group_name_Hall           '-P 2ybc'
loop_
_symmetry_equiv_pos_site_id
_symmetry_equiv_pos_as_xyz
1 x,y,z
2 -x,1/2+y,1/2-z
3 -x,-y,-z
4 x,1/2-y,1/2+z
_cell_length_a                   13.124(4)
_cell_length_b                   9.857(3)
_cell_length_c                   11.499(4)
_cell_angle_alpha                90
_cell_angle_beta                 112.423(3)
_cell_angle_gamma                90
_cell_volume                     1375.08
_exptl_crystal_description       block
_cell_formula_units_Z            4
loop_
_atom_site_label
_atom_site_type_symbol
_atom_site_fract_x
_atom_site_fract_y
_atom_site_fract_z
O1 O -0.16701(7) 0.08955(10) -0.07770(9)
O2 O -0.22867(9) -0.42593(10) -0.01752(8)
H1 H -0.1979 -0.5000 -0.0058
O3 O 0.02949(8) -0.15031(12) 0.19256(10)
H2 H 0.0677 -0.1413 0.1509
O4 O -0.47365(8) 0.22769(11) -0.44653(9)
O5 O -0.27124(9) -0.14297(13) 0.22942(10)
H3 H -0.2765 -0.1197 0.2954
N1 N -0.19528(8) -0.13996(10) 0.03207(9)
H4 H -0.1501 -0.0775 0.0305
C1 C -0.29336(10) -0.13706(12) -0.05541(11)
H5 H -0.3420 -0.2053 -0.0544
C2 C -0.31508(11) 0.16521(13) -0.26092(12)
H6 H -0.2748 0.2397 -0.2691
C3 C -0.44081(11) -0.05538(14) -0.24250(12)
H7 H -0.4826 -0.1293 -0.2366
C4 C -0.42079(11) 0.14527(13) -0.34689(12)
C5 C -0.15446(10) -0.24100(13) 0.13395(11)
C6 C -0.33247(10) -0.03953(12) -0.15169(11)
C7 C -0.26704(10) 0.07319(12) -0.16009(11)
C8 C -0.48525(11) 0.03457(14) -0.33794(12)
H8 H -0.5569 0.0233 -0.3963
C9 C -0.22248(11) -0.37159(13) 0.09943(12)
H9 H -0.1897 -0.4385 0.1650
H10 H -0.2964 -0.3530 0.0951
C10 C -0.16131(11) -0.18050(16) 0.25341(12)
H11 H -0.1365 -0.2467 0.3209
H12 H -0.1138 -0.1016 0.2794
C11 C -0.03440(11) -0.27094(15) 0.15487(13)
H13 H -0.0053 -0.3398 0.2194
H14 H -0.0303 -0.3052 0.0777
C12 C -0.41252(16) 0.3323(2) -0.47641(19)
H15 H -0.4584 0.3761 -0.5531
H16 H -0.3494 0.2935 -0.4868
H17 H -0.3886 0.3976 -0.4094
O6 O 0.87718(13) 0.33921(13) 0.04265(11)
H18 H 0.8579 0.2615 0.0094
H19 H 0.8989 0.3325 0.1222
loop_
_geom_bond_atom_site_label_1
_geom_bond_atom_site_label_2
_geom_bond_site_symmetry_1
_geom_bond_site_symmetry_2
O1 C7 1_555 1_555
O2 H1 1_555 1_555
O3 H2 1_555 1_555
O4 C4 1_555 1_555
O5 H3 1_555 1_555
N1 H4 1_555 1_555
C1 N1 1_555 1_555
H5 C1 1_555 1_555
C2 H6 1_555 1_555
C3 H7 1_555 1_555
C4 C2 1_555 1_555
C5 N1 1_555 1_555
C6 C1 1_555 1_555
C7 C2 1_555 1_555
C8 C3 1_555 1_555
H8 C8 1_555 1_555
C9 O2 1_555 1_555
H9 C9 1_555 1_555
H10 C9 1_555 1_555
C10 O5 1_555 1_555
H11 C10 1_555 1_555
H12 C10 1_555 1_555
C11 O3 1_555 1_555
H13 C11 1_555 1_555
H14 C11 1_555 1_555
C12 O4 1_555 1_555
H15 C12 1_555 1_555
H16 C12 1_555 1_555
H17 C12 1_555 1_555
O6 H18 1_555 1_555
H19 O6 1_555 1_555
C3 C6 1_555 1_555
C4 C8 1_555 1_555
C5 C9 1_555 1_555
C5 C10 1_555 1_555
C5 C11 1_555 1_555
C6 C7 1_555 1_555

#END
