
#######################################################################
#
#                 Cambridge Crystallographic Data Centre
#                                CCDC 
#
#######################################################################
#
# If this CIF has been generated from an entry in the Cambridge 
# Structural Database, then it will include bibliographic, chemical, 
# crystal, experimental, refinement or atomic coordinate data resulting 
# from the CCDC's data processing and validation procedures.
#
#######################################################################

data_GELROE01
_chemical_formula_moiety         'C24 H25 N1 O1'
_chemical_name_systematic        ((S)-1-benzylpyrrolidin-2-yl)diphenylmethanol
_symmetry_cell_setting           orthorhombic
_symmetry_space_group_name_H-M   'P 21 21 21'
_symmetry_Int_Tables_number      19
_space_group_name_Hall           'P 2ac 2ab'
loop_
_symmetry_equiv_pos_site_id
_symmetry_equiv_pos_as_xyz
1 x,y,z
2 1/2-x,-y,1/2+z
3 -x,1/2+y,1/2-z
4 1/2+x,1/2-y,-z
_cell_length_a                   10.1626(17)
_cell_length_b                   10.2129(17)
_cell_length_c                   18.423(3)
_cell_angle_alpha                90
_cell_angle_beta                 90
_cell_angle_gamma                90
_cell_volume                     1912.12
_exptl_crystal_colour            colorless
_exptl_crystal_description       prism
_chemical_melting_point          '389-391 K'
_cell_formula_units_Z            4
loop_
_atom_site_label
_atom_site_type_symbol
_atom_site_fract_x
_atom_site_fract_y
_atom_site_fract_z
N1 N 0.29978(17) 0.29754(18) 0.16505(9)
O1 O 0.06147(13) 0.27273(15) 0.23453(8)
H1 H 0.0823 0.3182 0.1997
C1 C 0.17565(18) 0.24341(19) 0.27646(12)
C2 C 0.21986(19) 0.3647(2) 0.31868(11)
C3 C 0.1543(2) 0.4827(2) 0.31284(12)
H2 H 0.0800 0.4885 0.2836
C4 C 0.1976(3) 0.5927(2) 0.34994(14)
H3 H 0.1528 0.6716 0.3450
C5 C 0.3066(3) 0.5854(2) 0.39401(14)
H4 H 0.3356 0.6592 0.4189
C6 C 0.3722(2) 0.4690(2) 0.40101(13)
H5 H 0.4456 0.4636 0.4310
C7 C 0.3299(2) 0.3597(2) 0.36375(12)
H6 H 0.3756 0.2814 0.3688
C8 C 0.13630(19) 0.1361(2) 0.32955(12)
C9 C 0.2264(2) 0.0479(2) 0.35771(13)
H7 H 0.3143 0.0539 0.3441
C10 C 0.1878(3) -0.0487(2) 0.40571(14)
H8 H 0.2498 -0.1071 0.4239
C11 C 0.0593(3) -0.0592(2) 0.42659(14)
H9 H 0.0334 -0.1251 0.4583
C12 C -0.0310(2) 0.0286(3) 0.40028(13)
H10 H -0.1184 0.0229 0.4150
C13 C 0.0067(2) 0.1253(2) 0.35211(12)
H11 H -0.0557 0.1840 0.3346
C14 C 0.2843(2) 0.1976(2) 0.22236(12)
H12 H 0.3678 0.1865 0.2483
C15 C 0.2494(3) 0.0707(2) 0.18258(14)
H13 H 0.3250 0.0127 0.1802
H14 H 0.1780 0.0255 0.2069
C16 C 0.2081(3) 0.1140(3) 0.10713(15)
H15 H 0.2246 0.0461 0.0715
H16 H 0.1157 0.1378 0.1058
C17 C 0.2948(3) 0.2311(3) 0.09470(13)
H17 H 0.3821 0.2043 0.0795
H18 H 0.2576 0.2881 0.0579
C18 C 0.4159(2) 0.3829(2) 0.17246(13)
H19 H 0.4940 0.3339 0.1592
H20 H 0.4249 0.4091 0.2228
C19 C 0.4072(2) 0.5025(2) 0.12615(13)
C20 C 0.4480(2) 0.5030(3) 0.05421(15)
H21 H 0.4866 0.4281 0.0349
C21 C 0.4328(3) 0.6115(4) 0.01094(17)
H22 H 0.4617 0.6092 -0.0369
C22 C 0.3760(3) 0.7220(3) 0.0372(2)
H23 H 0.3639 0.7945 0.0074
C23 C 0.3371(3) 0.7253(3) 0.1079(2)
H24 H 0.2996 0.8012 0.1266
C24 C 0.3526(2) 0.6161(3) 0.15283(16)
H25 H 0.3258 0.6202 0.2011
loop_
_geom_bond_atom_site_label_1
_geom_bond_atom_site_label_2
_geom_bond_site_symmetry_1
_geom_bond_site_symmetry_2
N1 C14 1_555 1_555
O1 H1 1_555 1_555
C1 O1 1_555 1_555
C2 C1 1_555 1_555
C3 C2 1_555 1_555
H2 C3 1_555 1_555
C4 C3 1_555 1_555
H3 C4 1_555 1_555
C5 C4 1_555 1_555
H4 C5 1_555 1_555
C6 C5 1_555 1_555
H5 C6 1_555 1_555
C7 C2 1_555 1_555
H6 C7 1_555 1_555
C8 C1 1_555 1_555
C9 C8 1_555 1_555
H7 C9 1_555 1_555
C10 C9 1_555 1_555
H8 C10 1_555 1_555
C11 C10 1_555 1_555
H9 C11 1_555 1_555
C12 C11 1_555 1_555
H10 C12 1_555 1_555
C13 C8 1_555 1_555
H11 C13 1_555 1_555
C14 C1 1_555 1_555
H12 C14 1_555 1_555
C15 C14 1_555 1_555
H13 C15 1_555 1_555
H14 C15 1_555 1_555
C16 C15 1_555 1_555
H15 C16 1_555 1_555
H16 C16 1_555 1_555
C17 N1 1_555 1_555
H17 C17 1_555 1_555
H18 C17 1_555 1_555
C18 N1 1_555 1_555
H19 C18 1_555 1_555
H20 C18 1_555 1_555
C19 C18 1_555 1_555
C20 C19 1_555 1_555
H21 C20 1_555 1_555
C21 C20 1_555 1_555
H22 C21 1_555 1_555
C22 C21 1_555 1_555
H23 C22 1_555 1_555
C23 C22 1_555 1_555
H24 C23 1_555 1_555
C24 C19 1_555 1_555
H25 C24 1_555 1_555
C6 C7 1_555 1_555
C12 C13 1_555 1_555
C16 C17 1_555 1_555
C23 C24 1_555 1_555

#END
