
#######################################################################
#
#                 Cambridge Crystallographic Data Centre
#                                CCDC 
#
#######################################################################
#
# If this CIF has been generated from an entry in the Cambridge 
# Structural Database, then it will include bibliographic, chemical, 
# crystal, experimental, refinement or atomic coordinate data resulting 
# from the CCDC's data processing and validation procedures.
#
#######################################################################

data_GELSIA
_chemical_formula_moiety         'C14 H22 B1 O4 P1,0.4(C1 H1 Cl3)'
_chemical_name_systematic        
"(3aS,4aS,7aS,7bS)-4-Boryl-4-cyclohexylperhydrofuro(2',3':4,5)phospholo(3,2-b)furan-2,6-dione chloroform solvate"
_symmetry_cell_setting           orthorhombic
_symmetry_space_group_name_H-M   'P 21 21 21'
_symmetry_Int_Tables_number      19
_space_group_name_Hall           'P 2ac 2ab'
loop_
_symmetry_equiv_pos_site_id
_symmetry_equiv_pos_as_xyz
1 x,y,z
2 1/2-x,-y,1/2+z
3 -x,1/2+y,1/2-z
4 1/2+x,1/2-y,-z
_cell_length_a                   6.9433(14)
_cell_length_b                   15.812(3)
_cell_length_c                   31.454(6)
_cell_angle_alpha                90
_cell_angle_beta                 90
_cell_angle_gamma                90
_cell_volume                     3453.25
_exptl_crystal_colour            colorless
_exptl_crystal_description       prism
_cell_formula_units_Z            8
loop_
_atom_site_label
_atom_site_type_symbol
_atom_site_fract_x
_atom_site_fract_y
_atom_site_fract_z
P1 P -0.28503(9) -0.30840(4) -0.12750(2)
O1 O -0.0063(2) -0.26704(12) -0.04369(6)
O2 O 0.2252(3) -0.18778(13) -0.07182(6)
O3 O -0.4006(3) -0.39132(12) -0.01573(5)
O4 O -0.7131(3) -0.41908(14) -0.00832(7)
B1 B -0.0383(4) -0.3334(2) -0.15213(12)
H1 H 0.043(5) -0.356(2) -0.1248(11)
H2 H -0.062(5) -0.374(2) -0.1794(10)
H3 H 0.017(5) -0.281(2) -0.1687(12)
C1 C -0.2654(4) -0.36976(17) -0.04866(8)
H7 H -0.1463 -0.4048 -0.0456
C2 C -0.2138(4) -0.27552(16) -0.04577(8)
H8 H -0.2747 -0.2497 -0.0201
C3 C -0.2731(3) -0.22675(15) -0.08590(7)
H9 H -0.4001 -0.1978 -0.0821
C4 C -0.1102(4) -0.16320(16) -0.09131(8)
H10 H -0.0819 -0.1534 -0.1218
H11 H -0.1427 -0.1085 -0.0777
C5 C 0.0570(3) -0.20448(17) -0.06944(8)
C6 C -0.3664(3) -0.39103(16) -0.09097(8)
H12 H -0.3263 -0.4481 -0.1014
C7 C -0.5792(4) -0.39092(19) -0.07852(8)
H13 H -0.6405 -0.3366 -0.0863
H14 H -0.6487 -0.4375 -0.0929
C8 C -0.5815(4) -0.40299(16) -0.03159(9)
C9 C -0.4718(4) -0.28229(17) -0.16604(8)
H15 H -0.5971 -0.2755 -0.1507
C10 C -0.4211(4) -0.19847(17) -0.18818(8)
H16 H -0.4183 -0.1523 -0.1669
H17 H -0.2915 -0.2028 -0.2011
C11 C -0.5697(5) -0.1779(2) -0.22271(9)
H18 H -0.6978 -0.1696 -0.2095
H19 H -0.5333 -0.1247 -0.2372
C12 C -0.5804(5) -0.2495(2) -0.25504(9)
H20 H -0.6792 -0.2359 -0.2767
H21 H -0.4548 -0.2549 -0.2697
C13 C -0.6301(4) -0.3323(2) -0.23399(9)
H22 H -0.6277 -0.3780 -0.2555
H23 H -0.7623 -0.3290 -0.2223
C14 C -0.4912(4) -0.35400(19) -0.19846(9)
H24 H -0.3631 -0.3664 -0.2108
H25 H -0.5367 -0.4056 -0.1838
P2 P -0.60282(8) -0.91613(4) -0.098501(19)
O5 O -0.2977(3) -0.80619(12) -0.03422(6)
O6 O -0.0702(3) -0.76731(13) -0.07985(7)
O7 O -0.6638(3) -0.90129(13) 0.02307(6)
O8 O -0.9698(3) -0.91341(15) 0.04235(7)
B2 B -0.3652(4) -0.9643(2) -0.11761(11)
H4 H -0.259(4) -0.9510(19) -0.0916(9)
H5 H -0.393(5) -1.039(2) -0.1202(11)
H6 H -0.336(5) -0.933(2) -0.1477(10)
C15 C -0.5484(4) -0.90696(18) -0.01512(8)
H26 H -0.4259 -0.9381 -0.0093
C16 C -0.5050(3) -0.81788(17) -0.03255(8)
H27 H -0.5653 -0.7738 -0.0140
C17 C -0.5740(3) -0.80733(16) -0.07912(7)
H28 H -0.6979 -0.7752 -0.0807
C18 C -0.4093(4) -0.75832(16) -0.09995(8)
H29 H -0.3869 -0.7782 -0.1294
H30 H -0.4375 -0.6970 -0.1006
C19 C -0.2395(4) -0.77647(17) -0.07245(9)
C20 C -0.6746(3) -0.95677(16) -0.04680(7)
H31 H -0.6493 -1.0189 -0.0447
C21 C -0.8773(4) -0.93550(17) -0.03169(8)
H32 H -0.9289 -0.8857 -0.0470
H33 H -0.9655 -0.9840 -0.0360
C22 C -0.8522(4) -0.91672(19) 0.01463(9)
C23 C -0.7986(3) -0.92342(16) -0.13676(7)
H34 H -0.9232 -0.9129 -0.1217
C24 C -0.7731(4) -0.85656(17) -0.17168(8)
H35 H -0.6452 -0.8633 -0.1852
H36 H -0.7798 -0.7993 -0.1590
C25 C -0.9316(4) -0.86640(19) -0.20535(9)
H37 H -1.0582 -0.8539 -0.1923
H38 H -0.9098 -0.8250 -0.2285
C26 C -0.9346(4) -0.95487(19) -0.22378(9)
H39 H -1.0416 -0.9596 -0.2444
H40 H -0.8126 -0.9654 -0.2392
C27 C -0.9594(4) -1.02065(18) -0.18944(9)
H41 H -0.9542 -1.0778 -0.2023
H42 H -1.0872 -1.0137 -0.1759
C28 C -0.8022(4) -1.01258(17) -0.15573(8)
H43 H -0.6755 -1.0253 -0.1687
H44 H -0.8255 -1.0543 -0.1328
C29 C 0.5954(2) 0.06079(6) 0.16266(3)
H45 H 0.5698 0.0011 0.1714
Cl1 Cl 0.5417(2) 0.07417(6) 0.10973(3)
Cl2 Cl 0.8633(2) 0.08420(6) 0.16543(3)
Cl3 Cl 0.4894(2) 0.12836(6) 0.19685(3)
H46? H 0.6105 -0.0016 0.1667
Cl4? Cl 0.7020(2) 0.11101(6) 0.20157(3)
Cl5? Cl 0.3325(2) 0.09039(6) 0.16676(3)
Cl6? Cl 0.6705(2) 0.08853(6) 0.11299(3)
loop_
_geom_bond_atom_site_label_1
_geom_bond_atom_site_label_2
_geom_bond_site_symmetry_1
_geom_bond_site_symmetry_2
P1 B1 1_555 1_555
P2 B2 1_555 1_555
O1 C2 1_555 1_555
O2 C5 1_555 1_555
O3 C1 1_555 1_555
O4 C8 1_555 1_555
O5 C16 1_555 1_555
O6 C19 1_555 1_555
O7 C15 1_555 1_555
O8 C22 1_555 1_555
B1 H1 1_555 1_555
H2 B1 1_555 1_555
H3 B1 1_555 1_555
B2 H4 1_555 1_555
H5 B2 1_555 1_555
H6 B2 1_555 1_555
C1 H7 1_555 1_555
C2 C1 1_555 1_555
H8 C2 1_555 1_555
C3 P1 1_555 1_555
H9 C3 1_555 1_555
C4 C3 1_555 1_555
H10 C4 1_555 1_555
H11 C4 1_555 1_555
C5 O1 1_555 1_555
C6 P1 1_555 1_555
H12 C6 1_555 1_555
C7 C6 1_555 1_555
H13 C7 1_555 1_555
H14 C7 1_555 1_555
C8 O3 1_555 1_555
C9 P1 1_555 1_555
H15 C9 1_555 1_555
C10 C9 1_555 1_555
H16 C10 1_555 1_555
H17 C10 1_555 1_555
C11 C10 1_555 1_555
H18 C11 1_555 1_555
H19 C11 1_555 1_555
C12 C11 1_555 1_555
H20 C12 1_555 1_555
H21 C12 1_555 1_555
C13 C12 1_555 1_555
H22 C13 1_555 1_555
H23 C13 1_555 1_555
C14 C9 1_555 1_555
H24 C14 1_555 1_555
H25 C14 1_555 1_555
C15 H26 1_555 1_555
C16 C15 1_555 1_555
H27 C16 1_555 1_555
C17 P2 1_555 1_555
H28 C17 1_555 1_555
C18 C17 1_555 1_555
H29 C18 1_555 1_555
H30 C18 1_555 1_555
C19 O5 1_555 1_555
C20 P2 1_555 1_555
H31 C20 1_555 1_555
C21 C20 1_555 1_555
H32 C21 1_555 1_555
H33 C21 1_555 1_555
C22 O7 1_555 1_555
C23 P2 1_555 1_555
H34 C23 1_555 1_555
C24 C23 1_555 1_555
H35 C24 1_555 1_555
H36 C24 1_555 1_555
C25 C24 1_555 1_555
H37 C25 1_555 1_555
H38 C25 1_555 1_555
C26 C25 1_555 1_555
H39 C26 1_555 1_555
H40 C26 1_555 1_555
C27 C26 1_555 1_555
H41 C27 1_555 1_555
H42 C27 1_555 1_555
C28 C23 1_555 1_555
H43 C28 1_555 1_555
H44 C28 1_555 1_555
C29 H45 1_555 1_555
Cl1 C29 1_555 1_555
Cl2 C29 1_555 1_555
Cl3 C29 1_555 1_555
C1 C6 1_555 1_555
C2 C3 1_555 1_555
C4 C5 1_555 1_555
C7 C8 1_555 1_555
C13 C14 1_555 1_555
C15 C20 1_555 1_555
C16 C17 1_555 1_555
C18 C19 1_555 1_555
C21 C22 1_555 1_555
C27 C28 1_555 1_555

#END
