
#######################################################################
#
#                 Cambridge Crystallographic Data Centre
#                                CCDC 
#
#######################################################################
#
# If this CIF has been generated from an entry in the Cambridge 
# Structural Database, then it will include bibliographic, chemical, 
# crystal, experimental, refinement or atomic coordinate data resulting 
# from the CCDC's data processing and validation procedures.
#
#######################################################################

data_GELVUO
_chemical_formula_moiety         'C17 H26 N2 O4'
_chemical_name_systematic        
dl-1,3-bis(5,6-Dihydro-3,5,5-trimethyl-1,4-oxazin-2-on-6-yl)propane
_symmetry_cell_setting           monoclinic
_symmetry_space_group_name_H-M   'P 21/c'
_symmetry_Int_Tables_number      14
_space_group_name_Hall           '-P 2ybc'
loop_
_symmetry_equiv_pos_site_id
_symmetry_equiv_pos_as_xyz
1 x,y,z
2 -x,1/2+y,1/2-z
3 -x,-y,-z
4 x,1/2-y,1/2+z
_cell_length_a                   9.374(5)
_cell_length_b                   11.430(6)
_cell_length_c                   16.541(9)
_cell_angle_alpha                90
_cell_angle_beta                 100.87(4)
_cell_angle_gamma                90
_cell_volume                     1740.48
_exptl_crystal_colour            colorless
_chemical_melting_point          141-142deg.C
_cell_formula_units_Z            4
loop_
_atom_site_label
_atom_site_type_symbol
_atom_site_fract_x
_atom_site_fract_y
_atom_site_fract_z
O1 O -0.4869(2) 0.3351(2) -0.0610(1)
O2 O -0.4947(2) 0.3377(2) -0.1948(1)
O3 O -0.1946(2) 0.3109(2) 0.2617(1)
O4 O -0.1944(2) 0.3057(2) 0.3947(1)
N1 N -0.6408(3) 0.1220(2) -0.0851(1)
N2 N -0.0600(3) 0.0886(2) 0.2807(1)
C1 C -0.4739(4) 0.3380(3) 0.0835(2)
C2 C -0.3284(4) 0.4004(3) 0.1024(2)
C3 C -0.1921(4) 0.3246(3) 0.1196(2)
C4 C -0.5147(3) 0.2846(3) -0.1354(2)
C5 C -0.5775(3) 0.1636(2) -0.1400(2)
C6 C -0.6381(3) 0.1907(2) -0.0087(2)
C7 C -0.4968(3) 0.2600(2) 0.0095(2)
C8 C -0.5741(4) 0.0970(3) -0.2174(2)
C9 C -0.7754(3) 0.2651(3) -0.0222(2)
C10 C -0.6427(4) 0.1013(3) 0.0592(2)
C11 C -0.1756(3) 0.2553(3) 0.3340(2)
C12 C -0.1239(3) 0.1312(3) 0.3353(2)
C13 C -0.0503(3) 0.1616(2) 0.2080(2)
C14 C -0.1845(3) 0.2406(2) 0.1892(2)
C15 C -0.1402(4) 0.0608(3) 0.4088(2)
C16 C 0.0920(3) 0.2275(3) 0.2272(2)
C17 C -0.0495(4) 0.0768(3) 0.1367(2)
loop_
_geom_bond_atom_site_label_1
_geom_bond_atom_site_label_2
_geom_bond_site_symmetry_1
_geom_bond_site_symmetry_2
O1 C4 1_555 1_555
O2 C4 1_555 1_555
O3 C11 1_555 1_555
O4 C11 1_555 1_555
N1 C5 1_555 1_555
N2 C12 1_555 1_555
C1 C2 1_555 1_555
C2 C3 1_555 1_555
C3 C14 1_555 1_555
C4 C5 1_555 1_555
C5 C8 1_555 1_555
C6 N1 1_555 1_555
C7 O1 1_555 1_555
C9 C6 1_555 1_555
C10 C6 1_555 1_555
C11 C12 1_555 1_555
C12 C15 1_555 1_555
C13 N2 1_555 1_555
C14 O3 1_555 1_555
C16 C13 1_555 1_555
C17 C13 1_555 1_555
C1 C7 1_555 1_555
C6 C7 1_555 1_555
C13 C14 1_555 1_555

#END
