
#######################################################################
#
#                 Cambridge Crystallographic Data Centre
#                                CCDC 
#
#######################################################################
#
# If this CIF has been generated from an entry in the Cambridge 
# Structural Database, then it will include bibliographic, chemical, 
# crystal, experimental, refinement or atomic coordinate data resulting 
# from the CCDC's data processing and validation procedures.
#
#######################################################################

data_GELVIF
_chemical_formula_moiety         'C17 H21 Cl1 N6 O2'
_chemical_name_systematic        
"(E)-N'-(4-chlorobenzylidene)-2-(((Z)-(3,3-dimethyl-1-(1H-1,2,4-triazol-1-yl)- butan-2-ylidene)amino)oxy)acetohydrazide"
_chemical_properties_biological  
'influenza neuraminidase NA inhibition activity'
_symmetry_cell_setting           triclinic
_symmetry_space_group_name_H-M   'P -1'
_symmetry_Int_Tables_number      2
_space_group_name_Hall           '-P 1'
loop_
_symmetry_equiv_pos_site_id
_symmetry_equiv_pos_as_xyz
1 x,y,z
2 -x,-y,-z
_cell_length_a                   7.4754(5)
_cell_length_b                   9.4586(5)
_cell_length_c                   14.1040(8)
_cell_angle_alpha                85.338(4)
_cell_angle_beta                 83.333(5)
_cell_angle_gamma                73.545(5)
_cell_volume                     948.71
_exptl_crystal_colour            colorless
_exptl_crystal_description       block
_chemical_melting_point          '207-209 deg.C'
_cell_formula_units_Z            2
_exptl_crystal_recrystallization_method ethanol
loop_
_atom_site_label
_atom_site_type_symbol
_atom_site_fract_x
_atom_site_fract_y
_atom_site_fract_z
C1 C 0.5207(3) 0.0243(2) 0.62050(13)
H1 H 0.5280 0.0893 0.5661
C2 C 0.4923(3) -0.16080(19) 0.70366(13)
H2 H 0.4754 -0.2544 0.7252
C3 C 0.5431(2) -0.08120(18) 0.86224(11)
H3 H 0.5363 -0.1809 0.8867
H4 H 0.4395 -0.0078 0.8966
C4 C 0.7281(2) -0.06026(17) 0.88157(11)
C5 C 0.9034(3) -0.19120(19) 0.88184(14)
C6 C 0.9192(4) -0.2822(3) 0.7954(2)
H5 H 0.9244 -0.2198 0.7368
H6 H 0.8098 -0.3207 0.7987
H7 H 1.0334 -0.3647 0.7953
C7 C 0.8858(4) -0.2862(3) 0.9742(2)
H8 H 0.9987 -0.3695 0.9769
H9 H 0.7759 -0.3235 0.9751
H10 H 0.8716 -0.2262 1.0295
C8 C 1.0801(3) -0.1411(2) 0.88069(18)
H11 H 1.1899 -0.2275 0.8793
H12 H 1.0732 -0.0875 0.9382
H13 H 1.0909 -0.0761 0.8238
C9 C 0.6138(3) 0.31475(17) 0.91444(13)
H14 H 0.7510 0.3007 0.9083
H15 H 0.5636 0.3467 0.9797
C10 C 0.5263(2) 0.43320(18) 0.84242(12)
C11 C 0.3515(3) 0.43580(19) 0.62519(13)
H16 H 0.3799 0.3315 0.6234
C12 C 0.2674(2) 0.52682(19) 0.54457(12)
C13 C 0.2416(3) 0.4586(2) 0.46579(13)
H17 H 0.2803 0.3540 0.4652
C14 C 0.1611(3) 0.5396(2) 0.38849(14)
H18 H 0.1448 0.4915 0.3349
C15 C 0.1047(3) 0.6900(2) 0.38987(14)
C16 C 0.1299(3) 0.7612(2) 0.46614(16)
H19 H 0.0915 0.8659 0.4657
C17 C 0.2113(3) 0.6799(2) 0.54358(14)
H20 H 0.2289 0.7290 0.5964
Cl1 Cl 0.00059(10) 0.79258(9) 0.29291(5)
N1 N 0.5201(2) -0.06428(14) 0.75988(10)
N2 N 0.5386(2) 0.05839(16) 0.70660(10)
N3 N 0.4914(3) -0.10909(17) 0.61413(11)
N4 N 0.7484(2) 0.06344(15) 0.90063(10)
N5 N 0.4671(2) 0.38774(16) 0.76733(10)
H21 H 0.488(3) 0.294(2) 0.7598(14)
N6 N 0.3883(2) 0.48958(15) 0.69725(10)
O1 O 0.5151(2) 0.56205(13) 0.85506(10)
O2 O 0.57718(17) 0.17792(12) 0.90138(8)
loop_
_geom_bond_atom_site_label_1
_geom_bond_atom_site_label_2
_geom_bond_site_symmetry_1
_geom_bond_site_symmetry_2
C1 H1 1_555 1_555
C2 H2 1_555 1_555
C3 H3 1_555 1_555
H4 C3 1_555 1_555
C4 C3 1_555 1_555
C5 C4 1_555 1_555
C6 C5 1_555 1_555
H5 C6 1_555 1_555
H6 C6 1_555 1_555
H7 C6 1_555 1_555
C7 C5 1_555 1_555
H8 C7 1_555 1_555
H9 C7 1_555 1_555
H10 C7 1_555 1_555
C8 C5 1_555 1_555
H11 C8 1_555 1_555
H12 C8 1_555 1_555
H13 C8 1_555 1_555
C9 H14 1_555 1_555
H15 C9 1_555 1_555
C10 C9 1_555 1_555
C11 H16 1_555 1_555
C12 C11 1_555 1_555
C13 C12 1_555 1_555
H17 C13 1_555 1_555
C14 C13 1_555 1_555
H18 C14 1_555 1_555
C15 C14 1_555 1_555
C16 C15 1_555 1_555
H19 C16 1_555 1_555
C17 C12 1_555 1_555
H20 C17 1_555 1_555
Cl1 C15 1_555 1_555
N1 C2 1_555 1_555
N2 C1 1_555 1_555
N3 C1 1_555 1_555
N4 C4 1_555 1_555
N5 C10 1_555 1_555
H21 N5 1_555 1_555
N6 C11 1_555 1_555
O1 C10 1_555 1_555
O2 C9 1_555 1_555
C2 N3 1_555 1_555
C3 N1 1_555 1_555
C16 C17 1_555 1_555
N1 N2 1_555 1_555
N4 O2 1_555 1_555
N5 N6 1_555 1_555

#END
