
#######################################################################
#
#                 Cambridge Crystallographic Data Centre
#                                CCDC 
#
#######################################################################
#
# If this CIF has been generated from an entry in the Cambridge 
# Structural Database, then it will include bibliographic, chemical, 
# crystal, experimental, refinement or atomic coordinate data resulting 
# from the CCDC's data processing and validation procedures.
#
#######################################################################

data_GELYEE
_chemical_formula_moiety         'C42 H47 N1 O4'
_chemical_name_systematic        
't-butyl 3-[3-(3,5-di-t-butyl-4-hydroxyphenyl)-1,3-diphenylpropylidene]-2-oxo-2,3-dihydro-1H-indole-1-carboxylate'
_symmetry_cell_setting           monoclinic
_symmetry_space_group_name_H-M   'P 21/c'
_symmetry_Int_Tables_number      14
_space_group_name_Hall           '-P 2ybc'
loop_
_symmetry_equiv_pos_site_id
_symmetry_equiv_pos_as_xyz
1 x,y,z
2 -x,1/2+y,1/2-z
3 -x,-y,-z
4 x,1/2-y,1/2+z
_cell_length_a                   13.2247(4)
_cell_length_b                   14.1845(4)
_cell_length_c                   18.8892(5)
_cell_angle_alpha                90
_cell_angle_beta                 91.688(2)
_cell_angle_gamma                90
_cell_volume                     3541.81
_exptl_crystal_colour            colorless
_exptl_crystal_description       prism
_cell_formula_units_Z            4
loop_
_atom_site_label
_atom_site_type_symbol
_atom_site_fract_x
_atom_site_fract_y
_atom_site_fract_z
O1 O 0.60643(7) 0.31883(8) 0.04046(5)
H1 H 0.6409 0.2956 0.0081
O2 O 0.11688(8) 0.38753(6) 0.15740(5)
O3 O 0.14179(8) 0.67705(7) 0.17599(5)
O4 O 0.17199(8) 0.53752(7) 0.23054(5)
N1 N 0.14290(8) 0.53905(7) 0.11317(5)
C1 C 0.31720(10) 0.20293(9) 0.04023(6)
C2 C 0.38849(10) 0.16922(9) -0.00621(6)
H2 H 0.3693 0.1199 -0.0379
C3 C 0.48668(10) 0.20441(9) -0.00842(6)
C4 C 0.51240(10) 0.27731(9) 0.03964(6)
C5 C 0.44397(10) 0.31239(9) 0.08907(6)
C6 C 0.34676(10) 0.27332(9) 0.08782(6)
H3 H 0.2992 0.2956 0.1206
C7 C 0.56210(10) 0.16544(10) -0.06158(7)
C8 C 0.51528(11) 0.08565(11) -0.10691(8)
H4 H 0.5658 0.0616 -0.1393
H5 H 0.4569 0.1100 -0.1344
H6 H 0.4933 0.0346 -0.0760
C9 C 0.59523(12) 0.24236(11) -0.11377(7)
H7 H 0.6277 0.2941 -0.0874
H8 H 0.5358 0.2663 -0.1403
H9 H 0.6432 0.2155 -0.1468
C10 C 0.65448(11) 0.12207(11) -0.02213(8)
H10 H 0.7015 0.0971 -0.0566
H11 H 0.6321 0.0709 0.0086
H12 H 0.6886 0.1706 0.0067
C11 C 0.47482(10) 0.39124(10) 0.14161(7)
C12 C 0.49882(15) 0.48254(11) 0.10156(9)
H13 H 0.4390 0.5025 0.0736
H14 H 0.5550 0.4713 0.0700
H15 H 0.5177 0.5321 0.1356
C13 C 0.56678(12) 0.36139(13) 0.18769(8)
H16 H 0.5829 0.4111 0.2223
H17 H 0.6249 0.3512 0.1576
H18 H 0.5512 0.3028 0.2127
C14 C 0.38975(12) 0.41340(13) 0.19211(8)
H19 H 0.4127 0.4616 0.2261
H20 H 0.3714 0.3560 0.2176
H21 H 0.3307 0.4368 0.1650
C15 C 0.21017(9) 0.16470(9) 0.03372(6)
H22 H 0.1997 0.1439 -0.0166
C16 C 0.18901(10) 0.07919(9) 0.07969(7)
C17 C 0.23426(11) 0.06524(10) 0.14591(7)
H23 H 0.2832 0.1091 0.1634
C18 C 0.20907(12) -0.01229(11) 0.18721(8)
H24 H 0.2402 -0.0204 0.2328
C19 C 0.13880(12) -0.07755(11) 0.16204(9)
H25 H 0.1221 -0.1308 0.1899
C20 C 0.09337(12) -0.06444(10) 0.09612(9)
H26 H 0.0448 -0.1087 0.0786
C21 C 0.11813(11) 0.01290(10) 0.05529(8)
H27 H 0.0863 0.0209 0.0099
C22 C 0.12841(10) 0.24008(9) 0.04739(6)
H28 H 0.0609 0.2126 0.0366
H29 H 0.1312 0.2571 0.0982
C23 C 0.14031(9) 0.32861(9) 0.00393(6)
C24 C 0.16169(10) 0.31255(9) -0.07226(6)
C25 C 0.25660(11) 0.33292(10) -0.09833(7)
H30 H 0.3069 0.3609 -0.0682
C26 C 0.27796(12) 0.31244(11) -0.16818(8)
H31 H 0.3429 0.3265 -0.1857
C27 C 0.20506(12) 0.27160(11) -0.21241(7)
H32 H 0.2203 0.2567 -0.2600
C28 C 0.11008(12) 0.25253(10) -0.18735(7)
H33 H 0.0596 0.2257 -0.2180
C29 C 0.08829(11) 0.27260(9) -0.11745(7)
H34 H 0.0230 0.2590 -0.1004
C30 C 0.13336(10) 0.41697(9) 0.03035(6)
C31 C 0.13697(10) 0.50778(9) -0.00658(7)
C32 C 0.13097(11) 0.53176(10) -0.07803(7)
H35 H 0.1248 0.4841 -0.1132
C33 C 0.13406(11) 0.62627(10) -0.09731(7)
H36 H 0.1289 0.6433 -0.1459
C34 C 0.14462(11) 0.69562(10) -0.04628(8)
H37 H 0.1488 0.7597 -0.0606
C35 C 0.14932(10) 0.67403(10) 0.02562(7)
H38 H 0.1561 0.7220 0.0605
C36 C 0.14371(10) 0.57973(9) 0.04433(7)
C37 C 0.12868(10) 0.43928(9) 0.10770(6)
C38 C 0.15107(10) 0.59241(10) 0.17573(7)
C39 C 0.17794(11) 0.57812(10) 0.30294(7)
C40 C 0.26418(12) 0.64831(12) 0.30835(8)
H39 H 0.3259 0.6192 0.2910
H40 H 0.2751 0.6672 0.3579
H41 H 0.2473 0.7040 0.2796
C41 C 0.20060(15) 0.49145(12) 0.34782(8)
H42 H 0.1446 0.4465 0.3425
H43 H 0.2086 0.5100 0.3977
H44 H 0.2632 0.4619 0.3323
C42 C 0.07563(12) 0.61956(12) 0.32022(8)
H45 H 0.0666 0.6799 0.2956
H46 H 0.0724 0.6296 0.3714
H47 H 0.0220 0.5759 0.3048
loop_
_geom_bond_atom_site_label_1
_geom_bond_atom_site_label_2
_geom_bond_site_symmetry_1
_geom_bond_site_symmetry_2
O1 H1 1_555 1_555
O2 C37 1_555 1_555
O3 C38 1_555 1_555
O4 C38 1_555 1_555
N1 C36 1_555 1_555
C1 C2 1_555 1_555
C2 H2 1_555 1_555
C3 C2 1_555 1_555
C4 O1 1_555 1_555
C5 C4 1_555 1_555
C6 C1 1_555 1_555
H3 C6 1_555 1_555
C7 C3 1_555 1_555
C8 C7 1_555 1_555
H4 C8 1_555 1_555
H5 C8 1_555 1_555
H6 C8 1_555 1_555
C9 C7 1_555 1_555
H7 C9 1_555 1_555
H8 C9 1_555 1_555
H9 C9 1_555 1_555
C10 C7 1_555 1_555
H10 C10 1_555 1_555
H11 C10 1_555 1_555
H12 C10 1_555 1_555
C11 C5 1_555 1_555
C12 C11 1_555 1_555
H13 C12 1_555 1_555
H14 C12 1_555 1_555
H15 C12 1_555 1_555
C13 C11 1_555 1_555
H16 C13 1_555 1_555
H17 C13 1_555 1_555
H18 C13 1_555 1_555
C14 C11 1_555 1_555
H19 C14 1_555 1_555
H20 C14 1_555 1_555
H21 C14 1_555 1_555
C15 C1 1_555 1_555
H22 C15 1_555 1_555
C16 C15 1_555 1_555
C17 C16 1_555 1_555
H23 C17 1_555 1_555
C18 C17 1_555 1_555
H24 C18 1_555 1_555
C19 C18 1_555 1_555
H25 C19 1_555 1_555
C20 C19 1_555 1_555
H26 C20 1_555 1_555
C21 C16 1_555 1_555
H27 C21 1_555 1_555
C22 C15 1_555 1_555
H28 C22 1_555 1_555
H29 C22 1_555 1_555
C23 C22 1_555 1_555
C24 C23 1_555 1_555
C25 C24 1_555 1_555
H30 C25 1_555 1_555
C26 C25 1_555 1_555
H31 C26 1_555 1_555
C27 C26 1_555 1_555
H32 C27 1_555 1_555
C28 C27 1_555 1_555
H33 C28 1_555 1_555
C29 C24 1_555 1_555
H34 C29 1_555 1_555
C30 C23 1_555 1_555
C31 C30 1_555 1_555
C32 C31 1_555 1_555
H35 C32 1_555 1_555
C33 C32 1_555 1_555
H36 C33 1_555 1_555
C34 C33 1_555 1_555
H37 C34 1_555 1_555
C35 C34 1_555 1_555
H38 C35 1_555 1_555
C36 C31 1_555 1_555
C37 N1 1_555 1_555
C38 N1 1_555 1_555
C39 O4 1_555 1_555
C40 C39 1_555 1_555
H39 C40 1_555 1_555
H40 C40 1_555 1_555
H41 C40 1_555 1_555
C41 C39 1_555 1_555
H42 C41 1_555 1_555
H43 C41 1_555 1_555
H44 C41 1_555 1_555
C42 C39 1_555 1_555
H45 C42 1_555 1_555
H46 C42 1_555 1_555
H47 C42 1_555 1_555
C3 C4 1_555 1_555
C5 C6 1_555 1_555
C20 C21 1_555 1_555
C28 C29 1_555 1_555
C30 C37 1_555 1_555
C35 C36 1_555 1_555

#END
