
#######################################################################
#
#                 Cambridge Crystallographic Data Centre
#                                CCDC 
#
#######################################################################
#
# If this CIF has been generated from an entry in the Cambridge 
# Structural Database, then it will include bibliographic, chemical, 
# crystal, experimental, refinement or atomic coordinate data resulting 
# from the CCDC's data processing and validation procedures.
#
#######################################################################

data_GEMBAC
_chemical_formula_moiety         'C26 H33 F3 N2 O4 S1'
_chemical_name_systematic        
3,3,3-Trifluoro-2-methoxy-2-phenyl-N-(1-(4-phenyl-1-(propylsulfonyl)piperidin-4-yl)ethyl)propanamide
_symmetry_cell_setting           orthorhombic
_symmetry_space_group_name_H-M   'P 21 21 21'
_symmetry_Int_Tables_number      19
_space_group_name_Hall           'P 2ac 2ab'
loop_
_symmetry_equiv_pos_site_id
_symmetry_equiv_pos_as_xyz
1 x,y,z
2 1/2-x,-y,1/2+z
3 1/2+x,1/2-y,-z
4 -x,1/2+y,1/2-z
_cell_length_a                   10.409(5)
_cell_length_b                   12.989(6)
_cell_length_c                   19.231(9)
_cell_angle_alpha                90
_cell_angle_beta                 90
_cell_angle_gamma                90
_cell_volume                     2600.08
_exptl_crystal_colour            colorless
_cell_formula_units_Z            4
loop_
_atom_site_label
_atom_site_type_symbol
_atom_site_fract_x
_atom_site_fract_y
_atom_site_fract_z
S1 S 0.78700(9) 0.29055(7) 0.23579(5)
F1 F 0.5707(2) 0.78565(17) 0.45561(11)
F2 F 0.6283(2) 0.63302(16) 0.42287(12)
F3 F 0.7297(2) 0.70917(16) 0.50586(11)
O1 O 0.9204(2) 0.26841(18) 0.24918(13)
O2 O 0.6971(2) 0.2756(2) 0.29097(14)
O3 O 0.5938(2) 0.7737(2) 0.31003(12)
O4 O 0.8916(2) 0.72618(17) 0.39688(12)
N1 N 0.7774(3) 0.4099(2) 0.21209(15)
N2 N 0.7952(3) 0.74846(19) 0.26688(14)
H1 H 0.8771 0.7425 0.2776
C1 C 0.8775(3) 0.4553(3) 0.16718(19)
H2 H 0.8570 0.4424 0.1177
H3 H 0.9619 0.4235 0.1775
C2 C 0.8830(3) 0.5714(2) 0.18110(18)
H4 H 0.9490 0.6026 0.1506
H5 H 0.9096 0.5829 0.2299
C3 C 0.7519(3) 0.6264(3) 0.16828(18)
C4 C 0.6520(3) 0.5671(2) 0.21269(18)
H6 H 0.6720 0.5779 0.2625
H7 H 0.5658 0.5966 0.2038
C5 C 0.6477(3) 0.4526(3) 0.19833(19)
H8 H 0.5836 0.4190 0.2288
H9 H 0.6231 0.4400 0.1493
C6 C 0.7390(5) 0.2148(3) 0.1648(3)
H10 H 0.6462 0.2279 0.1577
H11 H 0.7838 0.2424 0.1234
C7 C 0.7573(5) 0.0973(4) 0.1637(3)
H14 H 0.7819 0.0750 0.1163
H15 H 0.8274 0.0778 0.1959
C9 C 0.6362(2) 0.0444(2) 0.18480(14)
H18 H 0.6493 -0.0303 0.1839
H19 H 0.5672 0.0629 0.1524
H20 H 0.6124 0.0660 0.2319
C10 C 0.7562(2) 0.7403(2) 0.19352(14)
H24 H 0.6666 0.7678 0.1902
C11 C 0.8417(3) 0.8109(3) 0.14933(18)
H25 H 0.8398 0.8808 0.1685
H26 H 0.8099 0.8120 0.1014
H27 H 0.9302 0.7849 0.1499
C12 C 0.7096(3) 0.7648(3) 0.31816(18)
C13 C 0.7688(3) 0.7731(2) 0.39194(17)
C14 C 0.8988(4) 0.6146(3) 0.3955(2)
H28 H 0.9887 0.5930 0.3994
H29 H 0.8630 0.5891 0.3516
H30 H 0.8495 0.5863 0.4345
C15 C 0.6726(4) 0.7255(3) 0.4446(2)
C16 C 0.7904(3) 0.8862(2) 0.41260(17)
C17 C 0.8676(3) 0.9057(3) 0.46985(18)
H31 H 0.9076 0.8505 0.4939
C18 C 0.8861(4) 1.0063(3) 0.4920(2)
H32 H 0.9384 1.0194 0.5315
C19 C 0.8293(4) 1.0874(3) 0.4572(2)
H33 H 0.8416 1.1560 0.4729
C20 C 0.7545(3) 1.0676(3) 0.3993(2)
H34 H 0.7166 1.1233 0.3747
C21 C 0.7338(3) 0.9669(3) 0.37665(19)
H35 H 0.6815 0.9538 0.3371
C22 C 0.7128(3) 0.6263(2) 0.09171(17)
C23 C 0.8022(4) 0.6183(3) 0.03789(18)
H36 H 0.8904 0.6099 0.0492
C24 C 0.7667(4) 0.6223(3) -0.0317(2)
H37 H 0.8298 0.6161 -0.0671
C25 C 0.6383(4) 0.6354(3) -0.0492(2)
H38 H 0.6130 0.6379 -0.0966
C26 C 0.5486(4) 0.6446(3) 0.0022(2)
H39 H 0.4606 0.6532 -0.0096
C27 C 0.5852(3) 0.6413(3) 0.07185(19)
H40 H 0.5215 0.6495 0.1068
H12? H 0.6599 0.2402 0.1419
H13? H 0.8081 0.2037 0.1303
C8? C 0.7148(10) 0.1170(6) 0.2146(5)
H16? H 0.7984 0.0849 0.2260
H17? H 0.6756 0.1409 0.2586
H21? H 0.5480 0.0707 0.1830
H22? H 0.6384 -0.0188 0.2126
H23? H 0.6661 0.0295 0.1375
loop_
_geom_bond_atom_site_label_1
_geom_bond_atom_site_label_2
_geom_bond_site_symmetry_1
_geom_bond_site_symmetry_2
S1 O1 1_555 1_555
F1 C15 1_555 1_555
F2 C15 1_555 1_555
F3 C15 1_555 1_555
O2 S1 1_555 1_555
O3 C12 1_555 1_555
O4 C13 1_555 1_555
N1 S1 1_555 1_555
N2 H1 1_555 1_555
C1 N1 1_555 1_555
H2 C1 1_555 1_555
H3 C1 1_555 1_555
C2 C1 1_555 1_555
H4 C2 1_555 1_555
H5 C2 1_555 1_555
C3 C2 1_555 1_555
C4 C3 1_555 1_555
H6 C4 1_555 1_555
H7 C4 1_555 1_555
C5 N1 1_555 1_555
H8 C5 1_555 1_555
H9 C5 1_555 1_555
C6 S1 1_555 1_555
H10 C6 1_555 1_555
H11 C6 1_555 1_555
C7 C6 1_555 1_555
H14 C7 1_555 1_555
H15 C7 1_555 1_555
C9 C7 1_555 1_555
H18 C9 1_555 1_555
H19 C9 1_555 1_555
H20 C9 1_555 1_555
C10 N2 1_555 1_555
H24 C10 1_555 1_555
C11 C10 1_555 1_555
H25 C11 1_555 1_555
H26 C11 1_555 1_555
H27 C11 1_555 1_555
C12 N2 1_555 1_555
C13 C12 1_555 1_555
C14 O4 1_555 1_555
H28 C14 1_555 1_555
H29 C14 1_555 1_555
H30 C14 1_555 1_555
C15 C13 1_555 1_555
C16 C13 1_555 1_555
C17 C16 1_555 1_555
H31 C17 1_555 1_555
C18 C17 1_555 1_555
H32 C18 1_555 1_555
C19 C18 1_555 1_555
H33 C19 1_555 1_555
C20 C19 1_555 1_555
H34 C20 1_555 1_555
C21 C16 1_555 1_555
H35 C21 1_555 1_555
C22 C3 1_555 1_555
C23 C22 1_555 1_555
H36 C23 1_555 1_555
C24 C23 1_555 1_555
H37 C24 1_555 1_555
C25 C24 1_555 1_555
H38 C25 1_555 1_555
C26 C25 1_555 1_555
H39 C26 1_555 1_555
C27 C22 1_555 1_555
H40 C27 1_555 1_555
C3 C10 1_555 1_555
C4 C5 1_555 1_555
C20 C21 1_555 1_555
C26 C27 1_555 1_555

#END
