
#######################################################################
#
#                 Cambridge Crystallographic Data Centre
#                                CCDC 
#
#######################################################################
#
# If this CIF has been generated from an entry in the Cambridge 
# Structural Database, then it will include bibliographic, chemical, 
# crystal, experimental, refinement or atomic coordinate data resulting 
# from the CCDC's data processing and validation procedures.
#
#######################################################################

data_GEMBOS
_chemical_formula_moiety         'C7 H14 N1 O2 1+,C7 H13 N1 O2,Br1 1-'
_chemical_name_systematic        
'(1-methylpyrrolidin-1-ium-1-yl)acetic acid (1-methylpyrrolidin-1-ium-1-yl)acetate bromide'
_symmetry_cell_setting           monoclinic
_symmetry_space_group_name_H-M   'C 2/c'
_symmetry_Int_Tables_number      15
_space_group_name_Hall           '-C 2yn'
loop_
_symmetry_equiv_pos_site_id
_symmetry_equiv_pos_as_xyz
1 x,y,z
2 -x,y,1/2-z
3 1/2+x,1/2+y,z
4 1/2-x,1/2+y,1/2-z
5 -x,-y,-z
6 x,-y,1/2+z
7 1/2-x,1/2-y,-z
8 1/2+x,1/2-y,1/2+z
_cell_length_a                   11.867(10)
_cell_length_b                   6.767(6)
_cell_length_c                   21.007(18)
_cell_angle_alpha                90
_cell_angle_beta                 94.602(13)
_cell_angle_gamma                90
_cell_volume                     1681.51
_exptl_crystal_colour            purple
_exptl_crystal_description       block
_cell_formula_units_Z            4
loop_
_atom_site_label
_atom_site_type_symbol
_atom_site_fract_x
_atom_site_fract_y
_atom_site_fract_z
Br1 Br 0.5000 0.58339(16) 0.7500
N1 N 0.6623(10) -0.012(2) 0.8803(6)
O1 O 0.4888(9) -0.3771(16) 0.9588(5)
O2 O 0.6588(9) -0.2550(15) 0.9923(4)
C1 C 0.6932(15) 0.154(3) 0.9312(8)
H1 H 0.6285 0.1865 0.9547
H2 H 0.7549 0.1119 0.9613
C2 C 0.7268(13) 0.323(2) 0.8941(7)
H3 H 0.6732 0.4294 0.8990
H4 H 0.8001 0.3687 0.9121
C3 C 0.7335(17) 0.290(3) 0.8290(9)
H5 H 0.8050 0.2328 0.8192
H6 H 0.7168 0.4067 0.8031
C4 C 0.5588(11) -0.1144(19) 0.8984(5)
H7 H 0.5239 -0.1805 0.8609
H8 H 0.5059 -0.0158 0.9113
C5 C 0.6297(12) 0.1296(19) 0.8250(6)
H9 H 0.5580 0.1938 0.8305
H10 H 0.6244 0.0603 0.7844
C6 C 0.7494(11) -0.157(2) 0.8627(6)
H11 H 0.7742 -0.2347 0.8995
H12 H 0.8128 -0.0881 0.8477
H13 H 0.7172 -0.2428 0.8295
C7 C 0.5781(15) -0.272(2) 0.9540(7)
N2? N 0.6369(10) 0.003(2) 0.8817(6)
O3? O 0.5621(10) -0.4422(16) 0.9591(5)
O4? O 0.5412(9) -0.1390(17) 0.9929(5)
C8? C 0.7101(16) 0.123(3) 0.9304(8)
H14? H 0.7614 0.0368 0.9555
H15? H 0.6628 0.1907 0.9591
C9? C 0.7772(14) 0.274(2) 0.8948(7)
H16? H 0.8579 0.2502 0.9016
H17? H 0.7612 0.4082 0.9080
C10? C 0.7329(17) 0.237(3) 0.8236(9)
H18? H 0.6656 0.3140 0.8116
H19? H 0.7903 0.2659 0.7946
C11? C 0.7094(13) 0.037(2) 0.8256(6)
H20? H 0.7790 -0.0383 0.8317
H21? H 0.6688 -0.0048 0.7860
C12? C 0.6416(12) -0.1963(19) 0.8989(6)
H22? H 0.7198 -0.2337 0.9094
H23? H 0.6125 -0.2758 0.8628
C13? C 0.5192(12) 0.0770(17) 0.8627(7)
H24? H 0.4907 0.0139 0.8237
H25? H 0.5212 0.2174 0.8564
H26? H 0.4708 0.0469 0.8958
C14? C 0.5719(15) -0.240(2) 0.9570(8)
H27? H 0.5000 -0.5000 1.0000
loop_
_geom_bond_atom_site_label_1
_geom_bond_atom_site_label_2
_geom_bond_site_symmetry_1
_geom_bond_site_symmetry_2
N1 C1 1_555 1_555
O1 C7 1_555 1_555
O2 C7 1_555 1_555
C1 H1 1_555 1_555
H2 C1 1_555 1_555
C2 C1 1_555 1_555
H3 C2 1_555 1_555
H4 C2 1_555 1_555
C3 C2 1_555 1_555
H5 C3 1_555 1_555
H6 C3 1_555 1_555
C4 N1 1_555 1_555
H7 C4 1_555 1_555
H8 C4 1_555 1_555
C5 N1 1_555 1_555
H9 C5 1_555 1_555
H10 C5 1_555 1_555
C6 N1 1_555 1_555
H11 C6 1_555 1_555
H12 C6 1_555 1_555
H13 C6 1_555 1_555
C7 C4 1_555 1_555
C3 C5 1_555 1_555

#END
