
#######################################################################
#
#                 Cambridge Crystallographic Data Centre
#                                CCDC 
#
#######################################################################
#
# If this CIF has been generated from an entry in the Cambridge 
# Structural Database, then it will include bibliographic, chemical, 
# crystal, experimental, refinement or atomic coordinate data resulting 
# from the CCDC's data processing and validation procedures.
#
#######################################################################

data_GEMBIM
_chemical_formula_moiety         'C7 H14 N1 O2 1+,Br1 1-'
_chemical_name_systematic        
'1-(carboxymethyl)-1-methylpyrrolidin-1-ium bromide'
_symmetry_cell_setting           orthorhombic
_symmetry_space_group_name_H-M   'P 21 21 21'
_symmetry_Int_Tables_number      19
_space_group_name_Hall           'P 2ac 2ab'
loop_
_symmetry_equiv_pos_site_id
_symmetry_equiv_pos_as_xyz
1 x,y,z
2 1/2+x,1/2-y,-z
3 -x,1/2+y,1/2-z
4 1/2-x,-y,1/2+z
_cell_length_a                   7.0124(17)
_cell_length_b                   10.868(3)
_cell_length_c                   12.298(3)
_cell_angle_alpha                90
_cell_angle_beta                 90
_cell_angle_gamma                90
_cell_volume                     937.24
_exptl_crystal_colour            'yellowish colorless'
_exptl_crystal_description       needle
_cell_formula_units_Z            4
loop_
_atom_site_label
_atom_site_type_symbol
_atom_site_fract_x
_atom_site_fract_y
_atom_site_fract_z
O1 O 0.2137(4) 0.3716(3) 0.4228(2)
O2 O 0.2394(4) 0.3513(3) 0.2436(2)
H1 H 0.145(4) 0.307(4) 0.2503(4)
N1 N 0.5702(4) 0.4961(2) 0.4324(2)
C1 C 0.2954(5) 0.3896(3) 0.3399(3)
C2 C 0.4798(5) 0.4592(3) 0.3284(3)
H2 H 0.4561(5) 0.5326(3) 0.2857(3)
H3 H 0.5691(5) 0.4085(3) 0.2882(3)
C3 C 0.8649(7) 0.5519(4) 0.5158(4)
H4 H 1.0007(7) 0.5440(4) 0.5026(4)
H5 H 0.8426(7) 0.6246(4) 0.5598(4)
C4 C 0.7561(7) 0.5595(4) 0.4096(4)
H6 H 0.8250(7) 0.5181(4) 0.3518(4)
H7 H 0.7353(7) 0.6445(4) 0.3888(4)
C5 C 0.6323(7) 0.3879(3) 0.5001(3)
H8 H 0.5273(7) 0.3569(3) 0.5436(3)
H9 H 0.6801(7) 0.3220(3) 0.4545(3)
C6 C 0.7880(8) 0.4387(4) 0.5714(4)
H10 H 0.8884(8) 0.3782(4) 0.5806(4)
H11 H 0.7377(8) 0.4597(4) 0.6425(4)
C7 C 0.4448(7) 0.5796(4) 0.4975(4)
H12 H 0.395(3) 0.6430(16) 0.4513(7)
H13 H 0.341(2) 0.5330(7) 0.528(2)
H14 H 0.5177(12) 0.616(2) 0.5551(15)
Br1 Br -0.15814(5) 0.21948(4) 0.23975(3)
loop_
_geom_bond_atom_site_label_1
_geom_bond_atom_site_label_2
_geom_bond_site_symmetry_1
_geom_bond_site_symmetry_2
O1 C1 1_555 1_555
O2 H1 1_555 1_555
N1 C2 1_555 1_555
C1 O2 1_555 1_555
C2 C1 1_555 1_555
H2 C2 1_555 1_555
H3 C2 1_555 1_555
C3 H4 1_555 1_555
H5 C3 1_555 1_555
C4 N1 1_555 1_555
H6 C4 1_555 1_555
H7 C4 1_555 1_555
C5 N1 1_555 1_555
H8 C5 1_555 1_555
H9 C5 1_555 1_555
C6 C3 1_555 1_555
H10 C6 1_555 1_555
H11 C6 1_555 1_555
C7 N1 1_555 1_555
H12 C7 1_555 1_555
H13 C7 1_555 1_555
H14 C7 1_555 1_555
C3 C4 1_555 1_555
C5 C6 1_555 1_555

#END
