
#######################################################################
#
#                 Cambridge Crystallographic Data Centre
#                                CCDC 
#
#######################################################################
#
# If this CIF has been generated from an entry in the Cambridge 
# Structural Database, then it will include bibliographic, chemical, 
# crystal, experimental, refinement or atomic coordinate data resulting 
# from the CCDC's data processing and validation procedures.
#
#######################################################################

data_GEMJAM
_chemical_formula_moiety         'C2 H2 N8 O2 2-,2(C2 H6 N5 1+),2(H2 O1)'
_chemical_name_systematic        
"bis(4-amino-2,4-dihydro-3H-1,2,4-triazol-3-iminium) 1,1'-dihydroxy-1,1',3,3'-tetrahydro-5,5'-bitetrazol-2-ide dihydrate"
_symmetry_cell_setting           monoclinic
_symmetry_space_group_name_H-M   'P 21/c'
_symmetry_Int_Tables_number      14
_space_group_name_Hall           '-P 2ybc'
loop_
_symmetry_equiv_pos_site_id
_symmetry_equiv_pos_as_xyz
1 x,y,z
2 -x,1/2+y,1/2-z
3 -x,-y,-z
4 x,1/2-y,1/2+z
_cell_length_a                   12.5458(12)
_cell_length_b                   9.5957(8)
_cell_length_c                   6.7082(6)
_cell_angle_alpha                90
_cell_angle_beta                 95.851(3)
_cell_angle_gamma                90
_cell_volume                     803.364
_exptl_crystal_colour            colorless
_exptl_crystal_description       Block
_cell_formula_units_Z            2
loop_
_atom_site_label
_atom_site_type_symbol
_atom_site_fract_x
_atom_site_fract_y
_atom_site_fract_z
C1 C 0.51687(11) 0.07150(14) 0.0090(2)
N1 N 0.45522(10) 0.18349(12) -0.0327(2)
N2 N 0.51917(11) 0.29356(12) 0.0037(2)
N3 N 0.61799(10) 0.25419(13) 0.0674(2)
N4 N 0.61644(9) 0.11484(12) 0.07015(17)
O1 O 0.70262(8) 0.04220(11) 0.12435(17)
C1B C 0.48313(11) -0.07150(14) -0.0090(2)
N1B N 0.54478(10) -0.18349(12) 0.0327(2)
N2B N 0.48083(11) -0.29356(12) -0.0037(2)
N3B N 0.38201(10) -0.25419(13) -0.0674(2)
N4B N 0.38356(9) -0.11484(12) -0.07015(17)
O1B O 0.29738(8) -0.04220(11) -0.12435(17)
C2 C 0.91062(12) 0.68993(14) 0.3660(2)
C3 C 0.75407(10) 0.62850(14) 0.21788(19)
H1 H 0.9798(15) 0.6810(16) 0.432(3)
H2 H 0.6130(15) 0.5904(19) 0.083(3)
H3 H 0.6812(17) 0.464(2) 0.134(3)
H4 H 0.8703(15) 0.397(2) 0.220(3)
H5 H 0.8265(17) 0.404(2) 0.418(3)
H6 H 0.7172(16) 0.828(2) 0.184(3)
N5 N 0.87477(11) 0.43772(13) 0.3421(2)
N6 N 0.67429(10) 0.55091(14) 0.1388(2)
N7 N 0.76260(9) 0.76618(13) 0.22995(18)
N8 N 0.86178(9) 0.80615(12) 0.32184(18)
N9 N 0.84826(9) 0.57850(12) 0.30594(16)
O2 O 0.87720(11) 0.11656(14) 0.4000(2)
H7 H 0.8189(15) 0.115(3) 0.331(3)
H8 H 0.898(2) 0.0361(19) 0.381(4)
loop_
_geom_bond_atom_site_label_1
_geom_bond_atom_site_label_2
_geom_bond_site_symmetry_1
_geom_bond_site_symmetry_2
C1 N1 1_555 1_555
N1 N2 1_555 1_555
N2 N3 1_555 1_555
N3 N4 1_555 1_555
N4 C1 1_555 1_555
O1 N4 1_555 1_555
C2 H1 1_555 1_555
C3 N6 1_555 1_555
H2 N6 1_555 1_555
H3 N6 1_555 1_555
H4 N5 1_555 1_555
H5 N5 1_555 1_555
H6 N7 1_555 1_555
N5 N9 1_555 1_555
N7 C3 1_555 1_555
N8 C2 1_555 1_555
N9 C2 1_555 1_555
O2 H7 1_555 1_555
H8 O2 1_555 1_555
C1B C1 1_555 1_555
N1B C1B 1_555 1_555
N2B N1B 1_555 1_555
N3B N2B 1_555 1_555
N4B C1B 1_555 1_555
O1B N4B 1_555 1_555
C3 N9 1_555 1_555
N7 N8 1_555 1_555
N3B N4B 1_555 1_555

#END
