
#######################################################################
#
#                 Cambridge Crystallographic Data Centre
#                                CCDC 
#
#######################################################################
#
# If this CIF has been generated from an entry in the Cambridge 
# Structural Database, then it will include bibliographic, chemical, 
# crystal, experimental, refinement or atomic coordinate data resulting 
# from the CCDC's data processing and validation procedures.
#
#######################################################################

data_GEMMUI
_chemical_name_common            'N,N-phthaloylglycine chloroform solvate'
_chemical_formula_moiety         'C10 H7 N1 O4,0.35(C1 H1 Cl3)'
_chemical_name_systematic        
'(1,3-dioxo-1,3-dihydro-2H-isoindol-2-yl)acetic acid chloroform solvate'
_symmetry_cell_setting           monoclinic
_symmetry_space_group_name_H-M   'C 2/c'
_symmetry_Int_Tables_number      15
_space_group_name_Hall           '-C 2yn'
loop_
_symmetry_equiv_pos_site_id
_symmetry_equiv_pos_as_xyz
1 x,y,z
2 -x,y,1/2-z
3 1/2+x,1/2+y,z
4 1/2-x,1/2+y,1/2-z
5 -x,-y,-z
6 x,-y,1/2+z
7 1/2-x,1/2-y,-z
8 1/2+x,1/2-y,1/2+z
_cell_length_a                   24.8417(17)
_cell_length_b                   12.2869(9)
_cell_length_c                   7.3240(5)
_cell_angle_alpha                90
_cell_angle_beta                 97.986(6)
_cell_angle_gamma                90
_cell_volume                     2213.81
_exptl_crystal_colour            colorless
_exptl_crystal_description       plate
_cell_formula_units_Z            8
_chemical_properties_physical    air-sensitive
loop_
_atom_site_label
_atom_site_type_symbol
_atom_site_fract_x
_atom_site_fract_y
_atom_site_fract_z
C1 C 0.04620(11) 0.6403(2) -0.0191(4)
C2 C 0.08104(13) 0.6279(3) 0.1610(4)
H1 H 0.0715 0.6840 0.2440
H2 H 0.0734 0.5580 0.2135
C3 C 0.17074(13) 0.7208(3) 0.2294(4)
C4 C 0.22723(12) 0.6887(2) 0.2112(4)
C5 C 0.27529(15) 0.7421(3) 0.2643(4)
H3 H 0.2762 0.8100 0.3209
C6 C 0.32278(14) 0.6903(4) 0.2296(6)
H4 H 0.3561 0.7244 0.2637
C7 C 0.32141(15) 0.5909(4) 0.1470(5)
H5 H 0.3539 0.5589 0.1257
C8 C 0.27303(13) 0.5361(3) 0.0938(4)
H6 H 0.2723 0.4681 0.0375
C9 C 0.22614(12) 0.5866(3) 0.1280(3)
C10 C 0.16914(12) 0.5499(3) 0.0945(4)
N1 N 0.13825(9) 0.6345(2) 0.1511(3)
O1 O -0.00542(9) 0.6368(3) -0.0034(3)
H7 H -0.0234 0.6429 -0.1057
O2 O 0.06428(9) 0.6530(2) -0.1653(3)
O3 O 0.15404(11) 0.8003(2) 0.2958(4)
O4 O 0.15066(10) 0.4644(2) 0.0326(3)
Cl1? Cl 0.5549(6) 0.5846(9) -0.0244(19)
Cl2? Cl 0.4447(4) 0.5812(7) -0.1137(14)
Cl3? Cl 0.4903(13) 0.5922(19) 0.254(4)
C11? C 0.4960(8) 0.548(3) 0.046(3)
H8? H 0.4963 0.4683 0.0536
loop_
_geom_bond_atom_site_label_1
_geom_bond_atom_site_label_2
_geom_bond_site_symmetry_1
_geom_bond_site_symmetry_2
C1 C2 1_555 1_555
C2 H1 1_555 1_555
H2 C2 1_555 1_555
C3 C4 1_555 1_555
C4 C5 1_555 1_555
C5 H3 1_555 1_555
C6 C5 1_555 1_555
H4 C6 1_555 1_555
C7 C6 1_555 1_555
H5 C7 1_555 1_555
C8 C7 1_555 1_555
H6 C8 1_555 1_555
C9 C4 1_555 1_555
C10 C9 1_555 1_555
N1 C2 1_555 1_555
O1 C1 1_555 1_555
H7 O1 1_555 1_555
O2 C1 1_555 1_555
O3 C3 1_555 1_555
O4 C10 1_555 1_555
C3 N1 1_555 1_555
C8 C9 1_555 1_555
C10 N1 1_555 1_555

#END
