
#######################################################################
#
#                 Cambridge Crystallographic Data Centre
#                                CCDC 
#
#######################################################################
#
# If this CIF has been generated from an entry in the Cambridge 
# Structural Database, then it will include bibliographic, chemical, 
# crystal, experimental, refinement or atomic coordinate data resulting 
# from the CCDC's data processing and validation procedures.
#
#######################################################################

data_GEMRUO
_chemical_formula_moiety         'C11 H12 O1'
_chemical_name_systematic        3-ethyl-2,3-dihydro-1H-inden-1-one
_symmetry_cell_setting           monoclinic
_symmetry_space_group_name_H-M   'P 21/c'
_symmetry_Int_Tables_number      14
_space_group_name_Hall           '-P 2ybc'
loop_
_symmetry_equiv_pos_site_id
_symmetry_equiv_pos_as_xyz
1 x,y,z
2 -x,1/2+y,1/2-z
3 -x,-y,-z
4 x,1/2-y,1/2+z
_cell_length_a                   9.0852(2)
_cell_length_b                   6.4314(2)
_cell_length_c                   15.5196(4)
_cell_angle_alpha                90
_cell_angle_beta                 102.6361(10)
_cell_angle_gamma                90
_cell_volume                     884.855
_exptl_crystal_colour            colorless
_exptl_crystal_description       prism
_cell_formula_units_Z            4
loop_
_atom_site_label
_atom_site_type_symbol
_atom_site_fract_x
_atom_site_fract_y
_atom_site_fract_z
C1 C 0.16973(11) 0.67197(17) 0.07020(7)
C2 C 0.24409(13) 0.48447(18) 0.12097(7)
H1 H 0.1796 0.4281 0.1592
H2 H 0.3429 0.5236 0.1586
C3 C 0.26520(12) 0.32138(17) 0.05201(7)
H3 H 0.1920 0.2053 0.0520
C4 C 0.22155(11) 0.43841(17) -0.03458(6)
C5 C 0.22969(13) 0.3713(2) -0.11876(7)
H4 H 0.2658 0.2360 -0.1276
C6 C 0.18401(13) 0.5057(2) -0.18932(7)
H5 H 0.1901 0.4619 -0.2469
C7 C 0.12954(12) 0.7031(2) -0.17778(7)
H6 H 0.0988 0.7921 -0.2273
C8 C 0.11967(12) 0.77122(19) -0.09466(7)
H7 H 0.0818 0.9056 -0.0861
C9 C 0.16722(11) 0.63589(17) -0.02383(6)
C10 C 0.42424(13) 0.2319(2) 0.06797(8)
H8 H 0.4314 0.1386 0.0183
H9 H 0.4967 0.3471 0.0686
C11 C 0.46888(14) 0.1111(2) 0.15406(8)
H10 H 0.4648 0.2033 0.2038
H11 H 0.5716 0.0574 0.1604
H12 H 0.3989 -0.0051 0.1535
O1 O 0.12284(10) 0.82406(14) 0.10197(5)
loop_
_geom_bond_atom_site_label_1
_geom_bond_atom_site_label_2
_geom_bond_site_symmetry_1
_geom_bond_site_symmetry_2
C1 C2 1_555 1_555
C2 H1 1_555 1_555
H2 C2 1_555 1_555
C3 C2 1_555 1_555
H3 C3 1_555 1_555
C4 C3 1_555 1_555
C5 C4 1_555 1_555
H4 C5 1_555 1_555
C6 C5 1_555 1_555
H5 C6 1_555 1_555
C7 C6 1_555 1_555
H6 C7 1_555 1_555
C8 C7 1_555 1_555
H7 C8 1_555 1_555
C9 C1 1_555 1_555
C10 C3 1_555 1_555
H8 C10 1_555 1_555
H9 C10 1_555 1_555
C11 C10 1_555 1_555
H10 C11 1_555 1_555
H11 C11 1_555 1_555
H12 C11 1_555 1_555
O1 C1 1_555 1_555
C4 C9 1_555 1_555
C8 C9 1_555 1_555

#END
