
#######################################################################
#
#                 Cambridge Crystallographic Data Centre
#                                CCDC 
#
#######################################################################
#
# If this CIF has been generated from an entry in the Cambridge 
# Structural Database, then it will include bibliographic, chemical, 
# crystal, experimental, refinement or atomic coordinate data resulting 
# from the CCDC's data processing and validation procedures.
#
#######################################################################

data_GEMSAU
_chemical_formula_moiety         
'2(C21 H26 N1 O5 1+),2(Cl1 O4 1-),C6 H6,0.25(H2 O1)'
_chemical_name_systematic        
'4-((E)-2-(2,3,5,6,8,9,11,12-Octahydro-1,4,7,10,13-pentaoxabenzocyclopentadecen-15-yl)-1-ethenyl)pyridinium perchlorate benzene solvate hydrate'
_symmetry_cell_setting           triclinic
_symmetry_space_group_name_H-M   'P -1'
_symmetry_Int_Tables_number      2
_space_group_name_Hall           '-P 1'
loop_
_symmetry_equiv_pos_site_id
_symmetry_equiv_pos_as_xyz
1 x,y,z
2 -x,-y,-z
_cell_length_a                   11.911(2)
_cell_length_b                   12.921(2)
_cell_length_c                   16.348(3)
_cell_angle_alpha                79.280(9)
_cell_angle_beta                 88.087(8)
_cell_angle_gamma                77.918(8)
_cell_volume                     2417.28
_exptl_crystal_colour            yellow
_exptl_crystal_description       needle
_cell_formula_units_Z            2
_chemical_properties_physical    light-sensitive
loop_
_atom_site_label
_atom_site_type_symbol
_atom_site_fract_x
_atom_site_fract_y
_atom_site_fract_z
O9 O 0.8478(4) 0.0915(5) 0.9207(3)
O10 O 0.8087(5) 0.0783(4) 1.0987(4)
O11 O 0.9146(5) 0.2408(5) 1.1289(3)
O12 O 1.0108(4) 0.3549(4) 0.9841(3)
O13 O 0.9431(4) 0.2510(4) 0.8647(3)
N1 N 0.3447(5) 0.7178(4) 0.4774(3)
H1 H 0.3090 0.7748 0.4428
C1 C 0.2928(5) 0.6365(6) 0.5026(4)
H2 H 0.2192 0.6386 0.4808
C2 C 0.3448(5) 0.5483(5) 0.5606(4)
H3 H 0.3063 0.4907 0.5786
C3 C 0.4530(6) 0.5437(5) 0.5926(4)
C4 C 0.5075(6) 0.6302(5) 0.5611(4)
H4 H 0.5825 0.6299 0.5794
C5 C 0.4506(6) 0.7144(5) 0.5038(5)
H5 H 0.4875 0.7721 0.4822
C6 C 0.5113(11) 0.4512(11) 0.6443(8)
H6 H 0.4735 0.3924 0.6578
C7 C 0.6137(11) 0.4387(9) 0.6757(8)
H7 H 0.6564 0.4924 0.6549
C10 C 0.6729(6) 0.3427(5) 0.7451(4)
C11 C 0.6240(5) 0.2532(5) 0.7725(4)
H10 H 0.5506 0.2514 0.7525
C12 C 0.6831(6) 0.1666(6) 0.8292(4)
H11 H 0.6512 0.1046 0.8465
C13 C 0.7864(6) 0.1706(6) 0.8600(4)
C14 C 0.8396(6) 0.2579(6) 0.8310(4)
C15 C 0.7813(6) 0.3420(5) 0.7724(4)
H12 H 0.8169 0.4005 0.7506
C16 C 0.7850(6) 0.0190(6) 0.9729(5)
H13 H 0.7890 -0.0467 0.9491
H14 H 0.7032 0.0547 0.9760
C17 C 0.8379(6) -0.0101(6) 1.0581(4)
H15 H 0.8098 -0.0722 1.0906
H16 H 0.9224 -0.0309 1.0537
C18 C 0.8776(10) 0.0693(8) 1.1698(6)
H17 H 0.9158 -0.0070 1.1881
H18 H 0.8279 0.0923 1.2157
C19 C 0.9624(9) 0.1334(9) 1.1531(7)
H19 H 1.0096 0.1236 1.2037
H20 H 1.0137 0.1087 1.1086
C20 C 0.9916(7) 0.3182(8) 1.1256(6)
H21 H 0.9430 0.3913 1.1210
H22 H 1.0334 0.3019 1.1793
C21 C 1.0755(8) 0.3210(8) 1.0593(6)
H23 H 1.1248 0.3723 1.0647
H24 H 1.1249 0.2488 1.0607
C22 C 1.0796(7) 0.3365(7) 0.9136(5)
H25 H 1.1314 0.2647 0.9250
H26 H 1.1268 0.3919 0.8988
C23 C 0.9978(6) 0.3429(6) 0.8443(4)
H27 H 0.9393 0.4107 0.8385
H28 H 1.0396 0.3414 0.7911
O14 O 0.0779(4) 0.8039(3) 0.6067(3)
O15 O 0.0726(4) 0.8029(3) 0.4305(3)
O16 O 0.2571(4) 0.9021(3) 0.3635(3)
O17 O 0.3674(3) 0.9574(3) 0.4956(3)
O18 O 0.2548(3) 0.8698(4) 0.6398(3)
C45 C 0.3267(7) 0.5967(8) 0.7637(5)
C46 C 0.2262(8) 0.5626(6) 0.7468(5)
H50 H 0.2176 0.4919 0.7709
C47 C 0.1408(6) 0.6290(6) 0.6967(4)
H51 H 0.0734 0.6049 0.6866
C48 C 0.1536(5) 0.7334(5) 0.6602(4)
C49 C 0.2502(5) 0.7678(6) 0.6784(4)
C50 C 0.3355(5) 0.6999(6) 0.7289(4)
H52 H 0.4020 0.7250 0.7399
C51 C -0.0059(5) 0.7661(5) 0.5639(4)
H53 H -0.0793 0.7731 0.5948
H54 H 0.0221 0.6893 0.5604
C52 C -0.0236(6) 0.8319(5) 0.4796(4)
H55 H -0.0931 0.8202 0.4541
H56 H -0.0351 0.9091 0.4828
C53 C 0.0710(6) 0.8695(6) 0.3516(4)
H57 H -0.0094 0.9045 0.3356
H58 H 0.1026 0.8248 0.3098
C54 C 0.1389(6) 0.9532(5) 0.3514(4)
H59 H 0.1285 1.0043 0.2977
H60 H 0.1127 0.9939 0.3966
C55 C 0.3351(6) 0.9761(5) 0.3523(4)
H61 H 0.3150 1.0290 0.3002
H62 H 0.4144 0.9354 0.3467
C56 C 0.3313(5) 1.0353(5) 0.4238(4)
H63 H 0.3829 1.0872 0.4131
H64 H 0.2522 1.0754 0.4311
C57 C 0.3534(5) 0.9997(5) 0.5709(5)
H65 H 0.2785 1.0506 0.5703
H66 H 0.4151 1.0388 0.5763
C58 C 0.3587(6) 0.9076(6) 0.6423(4)
H67 H 0.4259 0.8496 0.6369
H68 H 0.3653 0.9318 0.6957
O19 O 0.543(2) -0.079(2) -0.0350(19)
C65 C -0.0443(10) 0.4835(11) 0.5646(8)
H75 H -0.0933 0.4846 0.6116
C66 C 0.0624(11) 0.4137(9) 0.5709(8)
H76 H 0.0863 0.3672 0.6222
C67 C -0.1342(8) 0.5879(9) 0.4979(10)
H77 H -0.2071 0.6356 0.4935
C68 C -0.0993(10) 0.5198(11) 0.5729(8)
H78 H -0.1484 0.5209 0.6199
C69 C 0.0074(11) 0.4501(10) 0.5793(7)
H79 H 0.0312 0.4035 0.6306
C70 C -0.0792(8) 0.5516(10) 0.4895(9)
H80 H -0.1521 0.5992 0.4852
C65A C 0.0443(10) 0.5165(11) 0.4354(8)
H75A H 0.0933 0.5154 0.3884
C66A C -0.0624(11) 0.5863(9) 0.4291(8)
H76A H -0.0863 0.6328 0.3778
C67A C 0.1342(8) 0.4121(9) 0.5021(10)
H77A H 0.2071 0.3644 0.5065
C68A C 0.0993(10) 0.4802(11) 0.4271(8)
H78A H 0.1484 0.4791 0.3801
C69A C -0.0074(11) 0.5499(10) 0.4207(7)
H79A H -0.0312 0.5965 0.3694
C70A C 0.0792(8) 0.4484(10) 0.5105(9)
H80A H 0.1521 0.4008 0.5148
Cl2 Cl 0.70000(19) 0.78660(18) 0.28497(14)
O5 O 0.8027(4) 0.8212(4) 0.2927(3)
O6 O 0.6613(8) 0.7363(7) 0.3599(4)
O7 O 0.7062(6) 0.7243(8) 0.2237(6)
O8 O 0.6106(6) 0.8863(7) 0.2585(7)
O1? O 0.7973(4) -0.2185(4) -0.2699(3)
O2? O 0.7910(5) -0.3956(4) -0.2234(4)
Cl1? Cl 0.7214(8) -0.2905(6) -0.2467(7)
O3? O 0.6527(13) -0.2843(10) -0.3183(10)
O4? O 0.6493(11) -0.2609(10) -0.1827(9)
C8? C 0.4869(19) 0.4553(18) 0.6822(13)
H8? H 0.4769 0.3826 0.6750
C9? C 0.6045(18) 0.4448(16) 0.7232(12)
H9? H 0.6491 0.4948 0.6891
N2? N 0.7153(11) 0.2974(12) 1.0386(9)
H29? H 0.7726 0.2608 1.0716
C24? C 0.7300(9) 0.3866(14) 0.9802(9)
H30? H 0.8018 0.4080 0.9759
C25? C 0.6394(12) 0.4443(11) 0.9282(8)
H31? H 0.6494 0.5053 0.8883
C26? C 0.5343(10) 0.4130(11) 0.9345(8)
C27? C 0.5196(11) 0.3238(13) 0.9929(11)
H32? H 0.4478 0.3024 0.9972
C28? C 0.6102(15) 0.2660(11) 1.0449(10)
H33? H 0.6002 0.2051 1.0848
C29? C 0.4401(13) 0.4614(12) 0.8770(9)
H34? H 0.3802 0.4232 0.8760
C30? C 0.4312(14) 0.5547(13) 0.8257(10)
H35? H 0.4879 0.5964 0.8264
N3? N 0.644(4) 0.279(3) 1.0357(19)
H36? H 0.6664 0.2267 1.0781
C31? C 0.718(2) 0.347(3) 1.003(2)
H37? H 0.7919 0.3366 1.0268
C32? C 0.682(3) 0.430(3) 0.936(3)
H38? H 0.7327 0.4765 0.9141
C33? C 0.574(4) 0.446(3) 0.902(2)
C34? C 0.500(3) 0.378(4) 0.934(3)
H39? H 0.4261 0.3883 0.9107
C35? C 0.535(4) 0.295(4) 1.001(3)
H40? H 0.4853 0.2484 1.0234
C36? C 0.491(2) 0.5329(19) 0.8592(15)
H41? H 0.5050 0.6040 0.8480
C37? C 0.396(2) 0.5121(19) 0.8360(16)
H42? H 0.3701 0.4491 0.8613
N4? N 0.7315(9) 0.3278(8) 1.0238(6)
H43? H 0.7778 0.2879 1.0637
C38? C 0.7531(8) 0.4264(8) 0.9838(6)
H44? H 0.8178 0.4507 0.9995
C39? C 0.6799(10) 0.4895(7) 0.9209(6)
H45? H 0.6947 0.5569 0.8936
C40? C 0.5852(9) 0.4540(9) 0.8980(7)
C41? C 0.5636(8) 0.3555(10) 0.9380(8)
H46? H 0.4989 0.3312 0.9223
C42? C 0.6368(10) 0.2923(8) 1.0009(7)
H47? H 0.6220 0.2250 1.0282
C43? C 0.5364(14) 0.5002(14) 0.7971(10)
H48? H 0.5362 0.5790 0.7834
C44? C 0.4239(14) 0.4842(13) 0.7665(11)
H49? H 0.3986 0.4209 0.8011
C59? C 0.4743(10) 0.0019(10) -0.0882(8)
H69? H 0.4252 0.0647 -0.1171
C60? C 0.5260(12) -0.0793(14) -0.1305(6)
H70? H 0.5122 -0.0720 -0.1884
C61? C 0.5980(12) -0.1713(12) -0.0882(10)
H71? H 0.6333 -0.2268 -0.1171
C62? C 0.6182(8) -0.1819(8) -0.0034(10)
H72? H 0.6673 -0.2448 0.0255
C63? C 0.5664(11) -0.1007(10) 0.0389(6)
H73? H 0.5803 -0.1080 0.0968
C64? C 0.4945(12) -0.0088(9) -0.0035(8)
H74? H 0.5408 -0.0468 -0.0255
O20? O 0.464(2) 0.117(2) 0.1506(15)
Cl3? Cl 0.2568(7) 0.3051(7) 0.2791(6)
O21? O 0.3771(8) 0.2728(11) 0.2628(13)
O22? O 0.2448(14) 0.3290(12) 0.3611(6)
O23? O 0.6057(12) 0.832(2) 0.3081(17)
O24? O 0.732(3) 0.6667(16) 0.329(3)
O25? O 0.700(2) 0.766(3) 0.1966(16)
loop_
_geom_bond_atom_site_label_1
_geom_bond_atom_site_label_2
_geom_bond_site_symmetry_1
_geom_bond_site_symmetry_2
Cl2 O5 1_555 1_555
O6 Cl2 1_555 1_555
O7 Cl2 1_555 1_555
O8 Cl2 1_555 1_555
O9 C13 1_555 1_555
O10 C17 1_555 1_555
O11 C19 1_555 1_555
O12 C21 1_555 1_555
O13 C14 1_555 1_555
N1 H1 1_555 1_555
C1 N1 1_555 1_555
H2 C1 1_555 1_555
C2 C1 1_555 1_555
H3 C2 1_555 1_555
C3 C2 1_555 1_555
C4 C3 1_555 1_555
H4 C4 1_555 1_555
C5 N1 1_555 1_555
H5 C5 1_555 1_555
C6 C3 1_555 1_555
H6 C6 1_555 1_555
C7 C6 1_555 1_555
H7 C7 1_555 1_555
C10 C7 1_555 1_555
C11 C10 1_555 1_555
H10 C11 1_555 1_555
C12 C11 1_555 1_555
H11 C12 1_555 1_555
C13 C12 1_555 1_555
C14 C13 1_555 1_555
C15 C10 1_555 1_555
H12 C15 1_555 1_555
C16 O9 1_555 1_555
H13 C16 1_555 1_555
H14 C16 1_555 1_555
C17 C16 1_555 1_555
H15 C17 1_555 1_555
H16 C17 1_555 1_555
C18 O10 1_555 1_555
H17 C18 1_555 1_555
H18 C18 1_555 1_555
C19 C18 1_555 1_555
H19 C19 1_555 1_555
H20 C19 1_555 1_555
C20 O11 1_555 1_555
H21 C20 1_555 1_555
H22 C20 1_555 1_555
C21 C20 1_555 1_555
H23 C21 1_555 1_555
H24 C21 1_555 1_555
C22 O12 1_555 1_555
H25 C22 1_555 1_555
H26 C22 1_555 1_555
C23 O13 1_555 1_555
H27 C23 1_555 1_555
H28 C23 1_555 1_555
O14 C48 1_555 1_555
O15 C52 1_555 1_555
O16 C54 1_555 1_555
O17 C56 1_555 1_555
O18 C49 1_555 1_555
C45 C46 1_555 1_555
C46 H50 1_555 1_555
C47 C46 1_555 1_555
H51 C47 1_555 1_555
C48 C47 1_555 1_555
C49 C48 1_555 1_555
C50 C45 1_555 1_555
H52 C50 1_555 1_555
C51 O14 1_555 1_555
H53 C51 1_555 1_555
H54 C51 1_555 1_555
C52 C51 1_555 1_555
H55 C52 1_555 1_555
H56 C52 1_555 1_555
C53 O15 1_555 1_555
H57 C53 1_555 1_555
H58 C53 1_555 1_555
C54 C53 1_555 1_555
H59 C54 1_555 1_555
H60 C54 1_555 1_555
C55 O16 1_555 1_555
H61 C55 1_555 1_555
H62 C55 1_555 1_555
C56 C55 1_555 1_555
H63 C56 1_555 1_555
H64 C56 1_555 1_555
C57 O17 1_555 1_555
H65 C57 1_555 1_555
H66 C57 1_555 1_555
C58 O18 1_555 1_555
H67 C58 1_555 1_555
H68 C58 1_555 1_555
C65 H75 1_555 1_555
H75 C68 1_555 1_555
C66 C65 1_555 1_555
H76 C66 1_555 1_555
C67 C65 1_555 1_555
H77 C67 1_555 1_555
C68 C65 1_555 1_555
H78 H75 1_555 1_555
C69 C65 1_555 1_555
H79 C66 1_555 1_555
C70 C65 1_555 1_555
H80 C67 1_555 1_555
C65A C70 1_555 1_555
H75A C65A 1_555 1_555
C66A C67 1_555 1_555
H76A C66A 1_555 1_555
C67A C66 1_555 1_555
H77A C67A 1_555 1_555
C68A C65A 1_555 1_555
H78A H75A 1_555 1_555
C69A C70 1_555 1_555
H79A C66A 1_555 1_555
C70A C65 1_555 1_555
H80A C67A 1_555 1_555
C4 C5 1_555 1_555
C14 C15 1_555 1_555
C22 C23 1_555 1_555
C49 C50 1_555 1_555
C57 C58 1_555 1_555
C66 C69 1_555 1_555
C66 C70A 1_555 1_555
H76 H79 1_555 1_555
C67 C68 1_555 1_555
C67 C70 1_555 1_555
H77 H80 1_555 1_555
C68 H78 1_555 1_555
C68 C69 1_555 1_555
C68 C70 1_555 1_555
C69 H79 1_555 1_555
C69 C70A 1_555 1_555
C70 H80 1_555 1_555
C70 C66A 1_555 1_555
C65A C66A 1_555 1_555
C65A C67A 1_555 1_555
C65A C69A 1_555 1_555
C65A C70A 1_555 1_555
H75A C68A 1_555 1_555
C66A C69A 1_555 1_555
H76A H79A 1_555 1_555
C67A C68A 1_555 1_555
C67A C70A 1_555 1_555
H77A H80A 1_555 1_555
C68A H78A 1_555 1_555
C68A C69A 1_555 1_555
C68A C70A 1_555 1_555
C69A H79A 1_555 1_555
C70A H80A 1_555 1_555

#END
