
#######################################################################
#
#                 Cambridge Crystallographic Data Centre
#                                CCDC 
#
#######################################################################
#
# If this CIF has been generated from an entry in the Cambridge 
# Structural Database, then it will include bibliographic, chemical, 
# crystal, experimental, refinement or atomic coordinate data resulting 
# from the CCDC's data processing and validation procedures.
#
#######################################################################

data_GEMVAY
_chemical_formula_moiety         'C108 H124 N4 O10,4(C1 H1 Cl3)'
_chemical_name_systematic        
"28,28'-{diazene-1,2-diylbis[(4,1-phenylene)-1,2-oxazole-3,5-diylmethyleneoxy]}bis[5,11,17,23-tetra-t-butylpentacyclo[19.3.1.1^3,7^.1^9,13^.1^15,19^]octacosa-1(25),3(28),4,6,9(27),10,12,15(26),16,18,21,23-dodecaene-25,26,27-triol] chloroform solvate"
_symmetry_cell_setting           monoclinic
_symmetry_space_group_name_H-M   'C 2/c'
_symmetry_Int_Tables_number      15
_space_group_name_Hall           '-C 2yn'
loop_
_symmetry_equiv_pos_site_id
_symmetry_equiv_pos_as_xyz
1 x,y,z
2 -x,y,1/2-z
3 1/2+x,1/2+y,z
4 1/2-x,1/2+y,1/2-z
5 -x,-y,-z
6 x,-y,1/2+z
7 1/2-x,1/2-y,-z
8 1/2+x,1/2-y,1/2+z
_cell_length_a                   36.231(3)
_cell_length_b                   14.2891(9)
_cell_length_c                   26.170(3)
_cell_angle_alpha                90
_cell_angle_beta                 109.636(11)
_cell_angle_gamma                90
_cell_volume                     12760.5
_exptl_crystal_colour            orange
_exptl_crystal_description       column
_chemical_melting_point          '198-200 deg.C'
_cell_formula_units_Z            4
_exptl_crystal_recrystallization_method chloroform
loop_
_atom_site_label
_atom_site_type_symbol
_atom_site_fract_x
_atom_site_fract_y
_atom_site_fract_z
O1 O -0.0427(2) 0.0331(5) 0.0532(3)
O2 O 0.0427(2) 0.1408(4) 0.1427(2)
O3 O 0.1043(2) -0.0133(5) 0.1669(3)
H1 H 0.0864(8) 0.0277(19) 0.1664(10)
O4 O 0.1027(2) -0.0344(5) 0.2665(3)
H2 H 0.108(3) -0.036(6) 0.235(2)
O5 O 0.05357(19) 0.1080(4) 0.2484(3)
H3 H 0.070956 0.066388 0.257394
N1 N 0.0147(3) -0.4732(6) 0.0102(4)
N2 N -0.0467(3) -0.0604(6) 0.0359(4)
C1 C 0.0053(4) -0.3811(7) 0.0188(4)
C2 C -0.0328(3) -0.3474(7) 0.0099(4)
H4 H -0.054615 -0.388140 -0.004391
C3 C -0.0389(3) -0.2566(7) 0.0218(4)
H5 H -0.064634 -0.233833 0.015687
C4 C -0.0067(4) -0.1984(7) 0.0427(4)
C5 C 0.0316(4) -0.2300(9) 0.0516(5)
H6 H 0.053634 -0.189702 0.065152
C6 C 0.0358(3) -0.3243(8) 0.0396(5)
H7 H 0.061410 -0.348511 0.046491
C7 C -0.0121(3) -0.0971(7) 0.0540(4)
C8 C 0.0145(3) -0.0326(8) 0.0818(4)
H8 H 0.041796 -0.042721 0.099369
C9 C -0.0049(3) 0.0484(7) 0.0799(4)
C10 C 0.0054(3) 0.1431(6) 0.0986(4)
H9 H -0.015056 0.170215 0.111439
H10 H 0.007584 0.182438 0.068592
C11 C 0.0663(3) 0.2200(7) 0.1452(4)
C12 C 0.0600(3) 0.2964(8) 0.1718(4)
C13 C 0.0829(3) 0.3771(7) 0.1743(4)
H11 H 0.080582 0.429563 0.195340
C14 C 0.1091(4) 0.3787(7) 0.1451(4)
C15 C 0.1146(3) 0.2981(8) 0.1214(4)
H12 H 0.134745 0.297224 0.105671
C16 C 0.0934(3) 0.2175(7) 0.1183(4)
C17 C 0.1038(3) 0.1316(7) 0.0948(4)
H13 H 0.082167 0.085859 0.087962
H14 H 0.106727 0.147109 0.059484
C18 C 0.1403(3) 0.0882(7) 0.1301(4)
C19 C 0.1762(4) 0.1146(7) 0.1291(4)
H15 H 0.176907 0.157382 0.101693
C20 C 0.2126(3) 0.0831(9) 0.1660(5)
C21 C 0.2106(3) 0.0200(8) 0.2057(4)
H16 H 0.234129 -0.001242 0.232109
C22 C 0.1754(4) -0.0118(7) 0.2073(4)
C23 C 0.1403(3) 0.0208(8) 0.1702(4)
C24 C 0.1737(3) -0.0825(7) 0.2507(4)
H17 H 0.150152 -0.122118 0.235460
H18 H 0.196965 -0.123780 0.259464
C25 C 0.1725(4) -0.0378(7) 0.3020(4)
C26 C 0.2058(3) -0.0197(7) 0.3469(4)
H19 H 0.230333 -0.039496 0.344906
C27 C 0.2062(3) 0.0228(8) 0.3925(4)
C28 C 0.1699(4) 0.0513(7) 0.3951(5)
H20 H 0.168965 0.083983 0.426287
C29 C 0.1353(3) 0.0328(7) 0.3530(4)
C30 C 0.1376(4) -0.0113(7) 0.3083(4)
C31 C 0.0962(3) 0.0663(8) 0.3578(4)
H21 H 0.075532 0.021544 0.337632
H22 H 0.098321 0.062580 0.396430
C32 C 0.0825(3) 0.1628(8) 0.3379(5)
C33 C 0.0916(3) 0.2381(11) 0.3736(4)
H23 H 0.104637 0.224949 0.410886
C34 C 0.0832(4) 0.3303(8) 0.3591(5)
C35 C 0.0650(3) 0.3444(7) 0.3040(5)
H24 H 0.059725 0.406931 0.291381
C36 C 0.0542(3) 0.2738(8) 0.2668(4)
C37 C 0.0644(3) 0.1811(8) 0.2840(5)
C38 C 0.0329(3) 0.2954(7) 0.2068(4)
H25 H 0.020030 0.357246 0.203878
H26 H 0.012135 0.248059 0.191864
C39 C 0.1351(3) 0.4675(7) 0.1464(5)
C40 C 0.1265(4) 0.5456(8) 0.1768(5)
H27 H 0.130572 0.525881 0.214128
H28 H 0.143933 0.598163 0.177005
H29 H 0.099187 0.565175 0.159472
C41 C 0.1292(4) 0.4953(8) 0.0894(5)
H30 H 0.135080 0.442113 0.069818
H31 H 0.101878 0.514610 0.071642
H32 H 0.146624 0.547598 0.089175
C42 C 0.1774(3) 0.4414(9) 0.1738(5)
H33 H 0.184122 0.389053 0.154405
H34 H 0.194056 0.495261 0.173476
H35 H 0.181547 0.422922 0.211398
C43 C 0.2508(4) 0.1196(9) 0.1607(5)
C44 C 0.2432(4) 0.0399(10) 0.4391(5)
C45 C 0.0910(5) 0.4045(10) 0.3986(5)
C46 C 0.2490(6) 0.2249(13) 0.1509(10)
H36 H 0.226083 0.239774 0.119180
H37 H 0.246816 0.257114 0.182853
H38 H 0.272840 0.245432 0.144490
C47 C 0.2554(6) 0.0785(16) 0.1087(9)
H39 H 0.233239 0.098143 0.077157
H40 H 0.279887 0.101269 0.104914
H41 H 0.256073 0.010069 0.111026
C48 C 0.2852(6) 0.0888(18) 0.2089(10)
H42 H 0.284498 0.020692 0.212687
H43 H 0.309640 0.107086 0.203419
H44 H 0.283615 0.118768 0.241782
C49 C 0.2776(8) 0.005(2) 0.4282(10)
H45 H 0.272855 -0.059309 0.414887
H46 H 0.282734 0.044683 0.400786
H47 H 0.300256 0.006722 0.461738
C50 C 0.2393(7) -0.0249(18) 0.4862(9)
H48 H 0.216526 -0.005250 0.495730
H49 H 0.235950 -0.090104 0.473923
H50 H 0.263044 -0.019376 0.518149
C51 C 0.2463(7) 0.1382(18) 0.4599(10)
H51 H 0.221890 0.155352 0.465944
H52 H 0.268219 0.142863 0.494090
H53 H 0.250696 0.180823 0.433139
C52 C 0.1263(9) 0.397(2) 0.4461(12)
H54 H 0.128156 0.451755 0.469571
H55 H 0.125240 0.340040 0.466124
H56 H 0.149356 0.395282 0.434439
C53 C 0.0519(9) 0.423(2) 0.4098(11)
H57 H 0.056027 0.473744 0.436608
H58 H 0.031547 0.442113 0.376003
H59 H 0.043767 0.366418 0.423847
C54 C 0.0977(11) 0.5027(18) 0.3764(11)
H60 H 0.102738 0.549274 0.405433
H61 H 0.120199 0.499420 0.363756
H62 H 0.074243 0.520621 0.346196
O1D O 0.0427(2) -1.0331(5) -0.0532(3)
O2D O -0.0427(2) -1.1408(4) -0.1427(2)
O3D O -0.1043(2) -0.9867(5) -0.1669(3)
H1D H -0.0864(8) -1.0277(19) -0.1664(10)
O4D O -0.1027(2) -0.9656(5) -0.2665(3)
H2D H -0.108(3) -0.964(6) -0.235(2)
O5D O -0.05357(19) -1.1080(4) -0.2484(3)
H3D H -0.070956 -1.066388 -0.257394
N1D N -0.0147(3) -0.5268(6) -0.0102(4)
N2D N 0.0467(3) -0.9396(6) -0.0359(4)
C1D C -0.0053(4) -0.6189(7) -0.0188(4)
C2D C 0.0328(3) -0.6526(7) -0.0099(4)
H4D H 0.054615 -0.611860 0.004391
C3D C 0.0389(3) -0.7434(7) -0.0218(4)
H5D H 0.064634 -0.766167 -0.015687
C4D C 0.0067(4) -0.8016(7) -0.0427(4)
C5D C -0.0316(4) -0.7700(9) -0.0516(5)
H6D H -0.053634 -0.810298 -0.065152
C6D C -0.0358(3) -0.6757(8) -0.0396(5)
H7D H -0.061410 -0.651489 -0.046491
C7D C 0.0121(3) -0.9029(7) -0.0540(4)
C8D C -0.0145(3) -0.9674(8) -0.0818(4)
H8D H -0.041796 -0.957279 -0.099369
C9D C 0.0049(3) -1.0484(7) -0.0799(4)
C10D C -0.0054(3) -1.1431(6) -0.0986(4)
H9D H 0.015056 -1.170215 -0.111439
H10D H -0.007584 -1.182438 -0.068592
C11D C -0.0663(3) -1.2200(7) -0.1452(4)
C12D C -0.0600(3) -1.2964(8) -0.1718(4)
C13D C -0.0829(3) -1.3771(7) -0.1743(4)
H11D H -0.080582 -1.429563 -0.195340
C14D C -0.1091(4) -1.3787(7) -0.1451(4)
C15D C -0.1146(3) -1.2981(8) -0.1214(4)
H12D H -0.134745 -1.297224 -0.105671
C16D C -0.0934(3) -1.2175(7) -0.1183(4)
C17D C -0.1038(3) -1.1316(7) -0.0948(4)
H13D H -0.082167 -1.085859 -0.087962
H14D H -0.106727 -1.147109 -0.059484
C18D C -0.1403(3) -1.0882(7) -0.1301(4)
C19D C -0.1762(4) -1.1146(7) -0.1291(4)
H15D H -0.176907 -1.157382 -0.101693
C20D C -0.2126(3) -1.0831(9) -0.1660(5)
C21D C -0.2106(3) -1.0200(8) -0.2057(4)
H16D H -0.234129 -0.998758 -0.232109
C22D C -0.1754(4) -0.9882(7) -0.2073(4)
C23D C -0.1403(3) -1.0208(8) -0.1702(4)
C24D C -0.1737(3) -0.9175(7) -0.2507(4)
H17D H -0.150152 -0.877882 -0.235460
H18D H -0.196965 -0.876220 -0.259464
C25D C -0.1725(4) -0.9622(7) -0.3020(4)
C26D C -0.2058(3) -0.9803(7) -0.3469(4)
H19D H -0.230333 -0.960504 -0.344906
C27D C -0.2062(3) -1.0228(8) -0.3925(4)
C28D C -0.1699(4) -1.0513(7) -0.3951(5)
H20D H -0.168965 -1.083983 -0.426287
C29D C -0.1353(3) -1.0328(7) -0.3530(4)
C30D C -0.1376(4) -0.9887(7) -0.3083(4)
C31D C -0.0962(3) -1.0663(8) -0.3578(4)
H21D H -0.075532 -1.021544 -0.337632
H22D H -0.098321 -1.062580 -0.396430
C32D C -0.0825(3) -1.1628(8) -0.3379(5)
C33D C -0.0916(3) -1.2381(11) -0.3736(4)
H23D H -0.104637 -1.224949 -0.410886
C34D C -0.0832(4) -1.3303(8) -0.3591(5)
C35D C -0.0650(3) -1.3444(7) -0.3040(5)
H24D H -0.059725 -1.406931 -0.291381
C36D C -0.0542(3) -1.2738(8) -0.2668(4)
C37D C -0.0644(3) -1.1811(8) -0.2840(5)
C38D C -0.0329(3) -1.2954(7) -0.2068(4)
H25D H -0.020030 -1.357246 -0.203878
H26D H -0.012135 -1.248059 -0.191864
C39D C -0.1351(3) -1.4675(7) -0.1464(5)
C40D C -0.1265(4) -1.5456(8) -0.1768(5)
H27D H -0.130572 -1.525881 -0.214128
H28D H -0.143933 -1.598163 -0.177005
H29D H -0.099187 -1.565175 -0.159472
C41D C -0.1292(4) -1.4953(8) -0.0894(5)
H30D H -0.135080 -1.442113 -0.069818
H31D H -0.101878 -1.514610 -0.071642
H32D H -0.146624 -1.547598 -0.089175
C42D C -0.1774(3) -1.4414(9) -0.1738(5)
H33D H -0.184122 -1.389053 -0.154405
H34D H -0.194056 -1.495261 -0.173476
H35D H -0.181547 -1.422922 -0.211398
C43D C -0.2508(4) -1.1196(9) -0.1607(5)
C44D C -0.2432(4) -1.0399(10) -0.4391(5)
C45D C -0.0910(5) -1.4045(10) -0.3986(5)
C46D C -0.2490(6) -1.2249(13) -0.1509(10)
H36D H -0.226083 -1.239774 -0.119180
H37D H -0.246816 -1.257114 -0.182853
H38D H -0.272840 -1.245432 -0.144490
C47D C -0.2554(6) -1.0785(16) -0.1087(9)
H39D H -0.233239 -1.098143 -0.077157
H40D H -0.279887 -1.101269 -0.104914
H41D H -0.256073 -1.010069 -0.111026
C48D C -0.2852(6) -1.0888(18) -0.2089(10)
H42D H -0.284498 -1.020692 -0.212687
H43D H -0.309640 -1.107086 -0.203419
H44D H -0.283615 -1.118768 -0.241782
C49D C -0.2776(8) -1.005(2) -0.4282(10)
H45D H -0.272855 -0.940691 -0.414887
H46D H -0.282734 -1.044683 -0.400786
H47D H -0.300256 -1.006722 -0.461738
C50D C -0.2393(7) -0.9751(18) -0.4862(9)
H48D H -0.216526 -0.994750 -0.495730
H49D H -0.235950 -0.909896 -0.473923
H50D H -0.263044 -0.980624 -0.518149
C51D C -0.2463(7) -1.1382(18) -0.4599(10)
H51D H -0.221890 -1.155352 -0.465944
H52D H -0.268219 -1.142863 -0.494090
H53D H -0.250696 -1.180823 -0.433139
C52D C -0.1263(9) -1.397(2) -0.4461(12)
H54D H -0.128156 -1.451755 -0.469571
H55D H -0.125240 -1.340040 -0.466124
H56D H -0.149356 -1.395282 -0.434439
C53D C -0.0519(9) -1.423(2) -0.4098(11)
H57D H -0.056027 -1.473744 -0.436608
H58D H -0.031547 -1.442113 -0.376003
H59D H -0.043767 -1.366418 -0.423847
C54D C -0.0977(11) -1.5027(18) -0.3764(11)
H60D H -0.102738 -1.549274 -0.405433
H61D H -0.120199 -1.499420 -0.363756
H62D H -0.074243 -1.520621 -0.346196
Cl1 Cl 0.15891(14) 0.2240(3) 0.25297(17)
Cl2 Cl 0.18725(19) 0.3099(4) 0.3581(3)
Cl3 Cl 0.23872(16) 0.2599(5) 0.3051(2)
C64 C 0.1955(5) 0.2332(14) 0.3146(7)
H90 H 0.198743 0.170120 0.332152
Cl7 Cl 0.11620(12) 0.9066(3) 0.03097(14)
Cl8 Cl 0.14406(13) 0.7760(2) 0.11899(16)
Cl9 Cl 0.19078(15) 0.8251(4) 0.0533(2)
C66 C 0.1578(4) 0.8648(9) 0.0817(6)
H92 H 0.169976 0.917509 0.106906
C55? C 0.2456(9) 0.182(2) 0.1092(14)
H63? H 0.271408 0.201909 0.109004
H64? H 0.232569 0.145011 0.076457
H65? H 0.229689 0.236549 0.110150
C56? C 0.2778(9) 0.036(2) 0.1573(15)
H66? H 0.302151 0.060368 0.153859
H67? H 0.283879 -0.002007 0.190213
H68? H 0.264241 -0.002598 0.125546
C57? C 0.2751(9) 0.157(2) 0.2298(12)
H69? H 0.300830 0.182868 0.233335
H70? H 0.259190 0.204823 0.239413
H71? H 0.278317 0.103136 0.254206
C58? C 0.2659(10) -0.058(2) 0.4578(13)
H72? H 0.266105 -0.093318 0.425710
H73? H 0.292859 -0.046151 0.481275
H74? H 0.252340 -0.095053 0.477755
C59? C 0.2428(10) 0.093(3) 0.4873(13)
H75? H 0.269512 0.097056 0.513360
H76? H 0.232675 0.156098 0.476398
H77? H 0.225962 0.060860 0.504239
C60? C 0.2747(9) 0.088(2) 0.4187(11)
H78? H 0.276047 0.055066 0.386564
H79? H 0.267322 0.153421 0.409449
H80? H 0.300337 0.085549 0.447455
C61? C 0.1065(12) 0.371(3) 0.4588(13)
H81? H 0.110958 0.425906 0.482824
H82? H 0.087082 0.330132 0.465746
H83? H 0.131137 0.337288 0.465645
C62? C 0.0558(13) 0.469(3) 0.3875(14)
H84? H 0.061837 0.518532 0.414881
H85? H 0.049700 0.496624 0.351391
H86? H 0.033229 0.432758 0.389139
C63? C 0.1238(12) 0.466(3) 0.3863(14)
H87? H 0.130964 0.519167 0.411649
H88? H 0.147068 0.427796 0.390688
H89? H 0.113630 0.490093 0.349027
Cl4? Cl 0.1237(2) 0.8607(4) 0.4465(3)
Cl5? Cl 0.1858(2) 0.7322(4) 0.4639(3)
Cl6? Cl 0.1328(2) 0.7469(4) 0.3581(3)
C65? C 0.1544(8) 0.8090(15) 0.4156(10)
H91? H 0.170766 0.859202 0.407279
Cl10? Cl 0.0630(3) 0.7700(6) 0.1985(4)
Cl11? Cl -0.0221(4) 0.7343(11) 0.1644(4)
Cl12? Cl 0.0369(5) 0.5946(8) 0.2217(6)
C67? C 0.0259(9) 0.692(2) 0.1807(13)
H93? H 0.026478 0.667039 0.145181
loop_
_geom_bond_atom_site_label_1
_geom_bond_atom_site_label_2
_geom_bond_site_symmetry_1
_geom_bond_site_symmetry_2
O1 N2 1_555 1_555
O2 C10 1_555 1_555
O3 H1 1_555 1_555
O4 H2 1_555 1_555
O5 H3 1_555 1_555
N1 C1 1_555 1_555
N2 C7 1_555 1_555
C1 C2 1_555 1_555
C2 H4 1_555 1_555
C3 C2 1_555 1_555
H5 C3 1_555 1_555
C4 C3 1_555 1_555
C5 C4 1_555 1_555
H6 C5 1_555 1_555
C6 C1 1_555 1_555
H7 C6 1_555 1_555
C7 C4 1_555 1_555
C8 C7 1_555 1_555
H8 C8 1_555 1_555
C9 O1 1_555 1_555
C10 C9 1_555 1_555
H9 C10 1_555 1_555
H10 C10 1_555 1_555
C11 O2 1_555 1_555
C12 C11 1_555 1_555
C13 C12 1_555 1_555
H11 C13 1_555 1_555
C14 C13 1_555 1_555
C15 C14 1_555 1_555
H12 C15 1_555 1_555
C16 C11 1_555 1_555
C17 C16 1_555 1_555
H13 C17 1_555 1_555
H14 C17 1_555 1_555
C18 C17 1_555 1_555
C19 C18 1_555 1_555
H15 C19 1_555 1_555
C20 C19 1_555 1_555
C21 C20 1_555 1_555
H16 C21 1_555 1_555
C22 C21 1_555 1_555
C23 O3 1_555 1_555
C24 C22 1_555 1_555
H17 C24 1_555 1_555
H18 C24 1_555 1_555
C25 C24 1_555 1_555
C26 C25 1_555 1_555
H19 C26 1_555 1_555
C27 C26 1_555 1_555
C28 C27 1_555 1_555
H20 C28 1_555 1_555
C29 C28 1_555 1_555
C30 O4 1_555 1_555
C31 C29 1_555 1_555
H21 C31 1_555 1_555
H22 C31 1_555 1_555
C32 C31 1_555 1_555
C33 C32 1_555 1_555
H23 C33 1_555 1_555
C34 C33 1_555 1_555
C35 C34 1_555 1_555
H24 C35 1_555 1_555
C36 C35 1_555 1_555
C37 O5 1_555 1_555
C38 C12 1_555 1_555
H25 C38 1_555 1_555
H26 C38 1_555 1_555
C39 C14 1_555 1_555
C40 C39 1_555 1_555
H27 C40 1_555 1_555
H28 C40 1_555 1_555
H29 C40 1_555 1_555
C41 C39 1_555 1_555
H30 C41 1_555 1_555
H31 C41 1_555 1_555
H32 C41 1_555 1_555
C42 C39 1_555 1_555
H33 C42 1_555 1_555
H34 C42 1_555 1_555
H35 C42 1_555 1_555
C43 C20 1_555 1_555
C44 C27 1_555 1_555
C45 C34 1_555 1_555
C46 C43 1_555 1_555
H36 C46 1_555 1_555
H37 C46 1_555 1_555
H38 C46 1_555 1_555
C47 C43 1_555 1_555
H39 C47 1_555 1_555
H40 C47 1_555 1_555
H41 C47 1_555 1_555
C48 C43 1_555 1_555
H42 C48 1_555 1_555
H43 C48 1_555 1_555
H44 C48 1_555 1_555
C49 C44 1_555 1_555
H45 C49 1_555 1_555
H46 C49 1_555 1_555
H47 C49 1_555 1_555
C50 C44 1_555 1_555
H48 C50 1_555 1_555
H49 C50 1_555 1_555
H50 C50 1_555 1_555
C51 C44 1_555 1_555
H51 C51 1_555 1_555
H52 C51 1_555 1_555
H53 C51 1_555 1_555
C52 C45 1_555 1_555
H54 C52 1_555 1_555
H55 C52 1_555 1_555
H56 C52 1_555 1_555
C53 C45 1_555 1_555
H57 C53 1_555 1_555
H58 C53 1_555 1_555
H59 C53 1_555 1_555
C54 C45 1_555 1_555
H60 C54 1_555 1_555
H61 C54 1_555 1_555
H62 C54 1_555 1_555
Cl1 C64 1_555 1_555
Cl2 C64 1_555 1_555
Cl3 C64 1_555 1_555
C64 H90 1_555 1_555
Cl7 C66 1_555 1_555
Cl8 C66 1_555 1_555
Cl9 C66 1_555 1_555
C66 H92 1_555 1_555
O1D N2D 1_555 1_555
O2D C10D 1_555 1_555
O3D H1D 1_555 1_555
O4D H2D 1_555 1_555
O5D H3D 1_555 1_555
N1D N1 1_555 1_555
N2D C7D 1_555 1_555
C1D N1D 1_555 1_555
C2D C1D 1_555 1_555
H4D C2D 1_555 1_555
C3D C2D 1_555 1_555
H5D C3D 1_555 1_555
C4D C3D 1_555 1_555
C5D C4D 1_555 1_555
H6D C5D 1_555 1_555
C6D C1D 1_555 1_555
H7D C6D 1_555 1_555
C7D C4D 1_555 1_555
C8D C7D 1_555 1_555
H8D C8D 1_555 1_555
C9D O1D 1_555 1_555
C10D C9D 1_555 1_555
H9D C10D 1_555 1_555
H10D C10D 1_555 1_555
C11D O2D 1_555 1_555
C12D C11D 1_555 1_555
C13D C12D 1_555 1_555
H11D C13D 1_555 1_555
C14D C13D 1_555 1_555
C15D C14D 1_555 1_555
H12D C15D 1_555 1_555
C16D C11D 1_555 1_555
C17D C16D 1_555 1_555
H13D C17D 1_555 1_555
H14D C17D 1_555 1_555
C18D C17D 1_555 1_555
C19D C18D 1_555 1_555
H15D C19D 1_555 1_555
C20D C19D 1_555 1_555
C21D C20D 1_555 1_555
H16D C21D 1_555 1_555
C22D C21D 1_555 1_555
C23D O3D 1_555 1_555
C24D C22D 1_555 1_555
H17D C24D 1_555 1_555
H18D C24D 1_555 1_555
C25D C24D 1_555 1_555
C26D C25D 1_555 1_555
H19D C26D 1_555 1_555
C27D C26D 1_555 1_555
C28D C27D 1_555 1_555
H20D C28D 1_555 1_555
C29D C28D 1_555 1_555
C30D O4D 1_555 1_555
C31D C29D 1_555 1_555
H21D C31D 1_555 1_555
H22D C31D 1_555 1_555
C32D C31D 1_555 1_555
C33D C32D 1_555 1_555
H23D C33D 1_555 1_555
C34D C33D 1_555 1_555
C35D C34D 1_555 1_555
H24D C35D 1_555 1_555
C36D C35D 1_555 1_555
C37D O5D 1_555 1_555
C38D C12D 1_555 1_555
H25D C38D 1_555 1_555
H26D C38D 1_555 1_555
C39D C14D 1_555 1_555
C40D C39D 1_555 1_555
H27D C40D 1_555 1_555
H28D C40D 1_555 1_555
H29D C40D 1_555 1_555
C41D C39D 1_555 1_555
H30D C41D 1_555 1_555
H31D C41D 1_555 1_555
H32D C41D 1_555 1_555
C42D C39D 1_555 1_555
H33D C42D 1_555 1_555
H34D C42D 1_555 1_555
H35D C42D 1_555 1_555
C43D C20D 1_555 1_555
C44D C27D 1_555 1_555
C45D C34D 1_555 1_555
C46D C43D 1_555 1_555
H36D C46D 1_555 1_555
H37D C46D 1_555 1_555
H38D C46D 1_555 1_555
C47D C43D 1_555 1_555
H39D C47D 1_555 1_555
H40D C47D 1_555 1_555
H41D C47D 1_555 1_555
C48D C43D 1_555 1_555
H42D C48D 1_555 1_555
H43D C48D 1_555 1_555
H44D C48D 1_555 1_555
C49D C44D 1_555 1_555
H45D C49D 1_555 1_555
H46D C49D 1_555 1_555
H47D C49D 1_555 1_555
C50D C44D 1_555 1_555
H48D C50D 1_555 1_555
H49D C50D 1_555 1_555
H50D C50D 1_555 1_555
C51D C44D 1_555 1_555
H51D C51D 1_555 1_555
H52D C51D 1_555 1_555
H53D C51D 1_555 1_555
C52D C45D 1_555 1_555
H54D C52D 1_555 1_555
H55D C52D 1_555 1_555
H56D C52D 1_555 1_555
C53D C45D 1_555 1_555
H57D C53D 1_555 1_555
H58D C53D 1_555 1_555
H59D C53D 1_555 1_555
C54D C45D 1_555 1_555
H60D C54D 1_555 1_555
H61D C54D 1_555 1_555
H62D C54D 1_555 1_555
C5 C6 1_555 1_555
C8 C9 1_555 1_555
C15 C16 1_555 1_555
C18 C23 1_555 1_555
C22 C23 1_555 1_555
C25 C30 1_555 1_555
C29 C30 1_555 1_555
C32 C37 1_555 1_555
C36 C37 1_555 1_555
C36 C38 1_555 1_555
C5D C6D 1_555 1_555
C8D C9D 1_555 1_555
C15D C16D 1_555 1_555
C18D C23D 1_555 1_555
C22D C23D 1_555 1_555
C25D C30D 1_555 1_555
C29D C30D 1_555 1_555
C32D C37D 1_555 1_555
C36D C37D 1_555 1_555
C36D C38D 1_555 1_555

#END
