
#######################################################################
#
#                 Cambridge Crystallographic Data Centre
#                                CCDC 
#
#######################################################################
#
# If this CIF has been generated from an entry in the Cambridge 
# Structural Database, then it will include bibliographic, chemical, 
# crystal, experimental, refinement or atomic coordinate data resulting 
# from the CCDC's data processing and validation procedures.
#
#######################################################################

data_GEMXUS
_chemical_formula_moiety         'C29 H25 O3 P1'
_chemical_name_systematic        
5-(\a-Hydroxybenzyl)-2-phenyl-3-(diphenylphosphoryl)-4,5-dihydrofuran
_symmetry_cell_setting           hexagonal
_symmetry_space_group_name_H-M   'P 61'
_symmetry_Int_Tables_number      169
_space_group_name_Hall           'P 61'
loop_
_symmetry_equiv_pos_site_id
_symmetry_equiv_pos_as_xyz
1 x,y,z
2 -y,x-y,1/3+z
3 -x+y,-x,2/3+z
4 -x,-y,1/2+z
5 y,-x+y,5/6+z
6 x-y,x,1/6+z
_cell_length_a                   11.1634(1)
_cell_length_b                   11.1634(1)
_cell_length_c                   33.8352(5)
_cell_angle_alpha                90
_cell_angle_beta                 90
_cell_angle_gamma                120
_cell_volume                     3651.68
_exptl_crystal_colour            colorless
_exptl_crystal_description       block
_cell_formula_units_Z            6
loop_
_atom_site_label
_atom_site_type_symbol
_atom_site_fract_x
_atom_site_fract_y
_atom_site_fract_z
P1 P 0.91648(14) 0.51850(13) 0.09638(4)
O1 O 0.6298(4) 0.2248(4) 0.02832(12)
C1 C 0.7593(6) 0.3272(5) 0.03811(16)
O2 O 0.9899(4) 0.4636(4) 0.11993(11)
C2 C 0.7663(5) 0.3903(5) 0.07294(14)
O3 O 0.5385(5) 0.4128(4) 0.02192(13)
H1 H 0.5123 0.4286 0.0003
C3 C 0.6210(5) 0.3262(6) 0.08996(15)
H2 H 0.5955 0.3976 0.0956
H3 H 0.6123 0.2741 0.1145
C4 C 0.5313(5) 0.2289(5) 0.05663(17)
H4 H 0.4705 0.1341 0.0676
C5 C 0.8650(6) 0.3458(5) 0.00908(17)
C6 C 0.9878(6) 0.3561(5) 0.0214(2)
H5 H 1.0062 0.3527 0.0486
C7 C 1.0840(7) 0.3715(6) -0.0074(3)
H6 H 1.1679 0.3767 0.0008
C8 C 1.0630(10) 0.3793(6) -0.0461(3)
H7 H 1.1295 0.3882 -0.0651
C9 C 0.9461(9) 0.3743(7) -0.0570(2)
H8 H 0.9316 0.3835 -0.0842
C10 C 0.8457(7) 0.3564(7) -0.03052(19)
H9 H 0.7628 0.3514 -0.0396
C11 C 1.0253(6) 0.6395(5) 0.05849(18)
C12 C 1.1637(7) 0.6966(8) 0.0601(3)
H10 H 1.2070 0.6741 0.0807
C13 C 1.2487(9) 0.7991(9) 0.0274(4)
H11 H 1.3468 0.8460 0.0265
C14 C 1.1704(14) 0.8164(9) 0.0001(3)
H12 H 1.2215 0.8774 -0.0208
C15 C 1.0402(12) 0.7651(8) -0.0024(3)
H13 H 0.9975 0.7871 -0.0232
C16 C 0.9672(8) 0.6757(6) 0.02734(18)
H14 H 0.8694 0.6349 0.0269
C17 C 0.8642(5) 0.6169(5) 0.12709(15)
C18 C 0.7877(11) 0.6732(10) 0.1121(2)
H15 H 0.7582 0.6575 0.0853
C19 C 0.7541(12) 0.7532(12) 0.1364(3)
H16 H 0.6985 0.7888 0.1264
C20 C 0.7999(10) 0.7797(10) 0.1734(3)
H17 H 0.7856 0.8424 0.1890
C21 C 0.8660(10) 0.7183(12) 0.1890(3)
H18 H 0.8898 0.7297 0.2163
C22 C 0.8995(8) 0.6385(9) 0.1653(2)
H19 H 0.9489 0.5978 0.1765
C23 C 0.4440(6) 0.2741(5) 0.03412(16)
H20 H 0.4069 0.2151 0.0100
C24 C 0.3273(6) 0.2599(6) 0.05743(16)
C25 C 0.3311(8) 0.3756(7) 0.07462(18)
H21 H 0.4101 0.4646 0.0711
C26 C 0.2247(9) 0.3619(11) 0.0959(3)
H22 H 0.2288 0.4427 0.1064
C27 C 0.1158(8) 0.2433(10) 0.1028(2)
H23 H 0.0459 0.2388 0.1198
C28 C 0.0985(8) 0.1179(11) 0.0854(3)
H24 H 0.0162 0.0314 0.0887
C29 C 0.2137(6) 0.1321(9) 0.06252(19)
H25 H 0.2107 0.0529 0.0511
loop_
_geom_bond_atom_site_label_1
_geom_bond_atom_site_label_2
_geom_bond_site_symmetry_1
_geom_bond_site_symmetry_2
P1 O2 1_555 1_555
O1 C1 1_555 1_555
C1 C2 1_555 1_555
C2 P1 1_555 1_555
O3 H1 1_555 1_555
C3 C2 1_555 1_555
H2 C3 1_555 1_555
H3 C3 1_555 1_555
C4 O1 1_555 1_555
H4 C4 1_555 1_555
C5 C1 1_555 1_555
C6 C5 1_555 1_555
H5 C6 1_555 1_555
C7 C6 1_555 1_555
H6 C7 1_555 1_555
C8 C7 1_555 1_555
H7 C8 1_555 1_555
C9 C8 1_555 1_555
H8 C9 1_555 1_555
C10 C5 1_555 1_555
H9 C10 1_555 1_555
C11 P1 1_555 1_555
C12 C11 1_555 1_555
H10 C12 1_555 1_555
C13 C12 1_555 1_555
H11 C13 1_555 1_555
C14 C13 1_555 1_555
H12 C14 1_555 1_555
C15 C14 1_555 1_555
H13 C15 1_555 1_555
C16 C11 1_555 1_555
H14 C16 1_555 1_555
C17 P1 1_555 1_555
C18 C17 1_555 1_555
H15 C18 1_555 1_555
C19 C18 1_555 1_555
H16 C19 1_555 1_555
C20 C19 1_555 1_555
H17 C20 1_555 1_555
C21 C20 1_555 1_555
H18 C21 1_555 1_555
C22 C17 1_555 1_555
H19 C22 1_555 1_555
C23 O3 1_555 1_555
H20 C23 1_555 1_555
C24 C23 1_555 1_555
C25 C24 1_555 1_555
H21 C25 1_555 1_555
C26 C25 1_555 1_555
H22 C26 1_555 1_555
C27 C26 1_555 1_555
H23 C27 1_555 1_555
C28 C27 1_555 1_555
H24 C28 1_555 1_555
C29 C24 1_555 1_555
H25 C29 1_555 1_555
C3 C4 1_555 1_555
C4 C23 1_555 1_555
C9 C10 1_555 1_555
C15 C16 1_555 1_555
C21 C22 1_555 1_555
C28 C29 1_555 1_555

#END
