
#######################################################################
#
#                 Cambridge Crystallographic Data Centre
#                                CCDC 
#
#######################################################################
#
# If this CIF has been generated from an entry in the Cambridge 
# Structural Database, then it will include bibliographic, chemical, 
# crystal, experimental, refinement or atomic coordinate data resulting 
# from the CCDC's data processing and validation procedures.
#
#######################################################################

data_GEMYON
_chemical_formula_moiety         'C27 H30 Cl1 O4 P1'
_chemical_name_systematic        
't-Butyl 5-chloro-5-phenyl-4-(diphenylphosphoryloxy)pentanoate'
_symmetry_cell_setting           orthorhombic
_symmetry_space_group_name_H-M   'P 21 21 21'
_symmetry_Int_Tables_number      19
_space_group_name_Hall           'P 2ac 2ab'
loop_
_symmetry_equiv_pos_site_id
_symmetry_equiv_pos_as_xyz
1 x,y,z
2 1/2-x,-y,1/2+z
3 1/2+x,1/2-y,-z
4 -x,1/2+y,1/2-z
_cell_length_a                   5.8203(10)
_cell_length_b                   11.4038(2)
_cell_length_c                   37.8022(9)
_cell_angle_alpha                90
_cell_angle_beta                 90
_cell_angle_gamma                90
_cell_volume                     2509.07
_cell_formula_units_Z            4
loop_
_atom_site_label
_atom_site_type_symbol
_atom_site_fract_x
_atom_site_fract_y
_atom_site_fract_z
Cl1 Cl 1.23027(18) -0.27105(9) 0.65448(3)
P1 P 0.80731(14) 0.06234(8) 0.58716(2)
O1 O 1.3644(8) 0.1120(3) 0.72462(11)
O2 O 1.1870(4) 0.2797(2) 0.71026(7)
O3 O 1.0411(4) 0.0244(2) 0.60592(6)
O4 O 0.6063(4) -0.0132(2) 0.59364(7)
C1 C 1.2294(8) 0.1668(4) 0.70712(10)
C2 C 1.0879(7) 0.1114(4) 0.67826(10)
H1 H 1.0732 0.1674 0.6584
H2 H 0.9317 0.0953 0.6874
C3 C 1.1906(6) -0.0015(3) 0.66465(9)
H3 H 1.2034 -0.0576 0.6845
H4 H 1.3479 0.0146 0.6559
C4 C 1.0535(6) -0.0577(3) 0.63532(9)
H5 H 0.8954 -0.0770 0.6439
C5 C 1.1665(6) -0.1670(3) 0.61949(9)
H6 H 1.3151 -0.1427 0.6084
C6 C 1.0239(6) -0.2275(3) 0.59155(10)
C7 C 0.8097(6) -0.2766(4) 0.60041(11)
H7 H 0.7534 -0.2721 0.6240
C8 C 0.6830(7) -0.3313(4) 0.57447(12)
H8 H 0.5378 -0.3640 0.5804
C9 C 0.7612(8) -0.3397(4) 0.54027(12)
H9 H 0.6726 -0.3788 0.5228
C10 C 0.9727(8) -0.2900(4) 0.53168(11)
H10 H 1.0291 -0.2947 0.5081
C11 C 1.1004(7) -0.2336(4) 0.55746(10)
H11 H 1.2432 -0.1987 0.5514
C12 C 1.3018(7) 0.3536(4) 0.73719(11)
C13 C 1.5622(7) 0.3477(5) 0.73273(13)
H12 H 1.6019 0.3611 0.7079
H13 H 1.6172 0.2701 0.7400
H14 H 1.6345 0.4080 0.7474
C14 C 1.2127(10) 0.4733(4) 0.72863(16)
H15 H 1.2539 0.4935 0.7042
H16 H 1.2807 0.5306 0.7449
H17 H 1.0452 0.4742 0.7312
C15 C 1.2307(10) 0.3134(6) 0.77348(12)
H18 H 1.0628 0.3079 0.7746
H19 H 1.2848 0.3699 0.7911
H20 H 1.2982 0.2363 0.7783
C16 C 0.7577(6) 0.2090(3) 0.60273(9)
C17 C 0.5468(6) 0.2335(4) 0.61887(10)
H21 H 0.4315 0.1747 0.6202
C18 C 0.5065(7) 0.3434(4) 0.63292(11)
H22 H 0.3635 0.3592 0.6441
C19 C 0.6705(7) 0.4307(4) 0.63107(10)
H23 H 0.6410 0.5054 0.6412
C20 C 0.8790(7) 0.4090(4) 0.61429(11)
H24 H 0.9911 0.4692 0.6124
C21 C 0.9212(6) 0.2993(3) 0.60045(10)
H25 H 1.0640 0.2844 0.5891
C22 C 0.8873(6) 0.0736(3) 0.54154(9)
C23 C 0.7262(6) 0.0433(3) 0.51603(9)
H26 H 0.5828 0.0111 0.5231
C24 C 0.7715(7) 0.0593(4) 0.48067(10)
H27 H 0.6609 0.0368 0.4635
C25 C 1.1010(6) 0.1192(3) 0.53053(10)
H28 H 1.2156 0.1376 0.5475
C26 C 1.1430(7) 0.1371(3) 0.49531(10)
H29 H 1.2858 0.1694 0.4880
C27 C 0.9788(6) 0.1083(3) 0.47005(10)
H30 H 1.0082 0.1220 0.4457
loop_
_geom_bond_atom_site_label_1
_geom_bond_atom_site_label_2
_geom_bond_site_symmetry_1
_geom_bond_site_symmetry_2
Cl1 C5 1_555 1_555
P1 O3 1_555 1_555
O1 C1 1_555 1_555
O2 C1 1_555 1_555
O3 C4 1_555 1_555
O4 P1 1_555 1_555
C1 C2 1_555 1_555
C2 H1 1_555 1_555
H2 C2 1_555 1_555
C3 C2 1_555 1_555
H3 C3 1_555 1_555
H4 C3 1_555 1_555
C4 C3 1_555 1_555
H5 C4 1_555 1_555
C5 C4 1_555 1_555
H6 C5 1_555 1_555
C6 C5 1_555 1_555
C7 C6 1_555 1_555
H7 C7 1_555 1_555
C8 C7 1_555 1_555
H8 C8 1_555 1_555
C9 C8 1_555 1_555
H9 C9 1_555 1_555
C10 C9 1_555 1_555
H10 C10 1_555 1_555
C11 C6 1_555 1_555
H11 C11 1_555 1_555
C12 O2 1_555 1_555
C13 C12 1_555 1_555
H12 C13 1_555 1_555
H13 C13 1_555 1_555
H14 C13 1_555 1_555
C14 C12 1_555 1_555
H15 C14 1_555 1_555
H16 C14 1_555 1_555
H17 C14 1_555 1_555
C15 C12 1_555 1_555
H18 C15 1_555 1_555
H19 C15 1_555 1_555
H20 C15 1_555 1_555
C16 P1 1_555 1_555
C17 C16 1_555 1_555
H21 C17 1_555 1_555
C18 C17 1_555 1_555
H22 C18 1_555 1_555
C19 C18 1_555 1_555
H23 C19 1_555 1_555
C20 C19 1_555 1_555
H24 C20 1_555 1_555
C21 C16 1_555 1_555
H25 C21 1_555 1_555
C22 P1 1_555 1_555
C23 C22 1_555 1_555
H26 C23 1_555 1_555
C24 C23 1_555 1_555
H27 C24 1_555 1_555
C25 C22 1_555 1_555
H28 C25 1_555 1_555
C26 C25 1_555 1_555
H29 C26 1_555 1_555
C27 C24 1_555 1_555
H30 C27 1_555 1_555
C10 C11 1_555 1_555
C20 C21 1_555 1_555
C26 C27 1_555 1_555

#END
