
#######################################################################
#
#                 Cambridge Crystallographic Data Centre
#                                CCDC 
#
#######################################################################
#
# If this CIF has been generated from an entry in the Cambridge 
# Structural Database, then it will include bibliographic, chemical, 
# crystal, experimental, refinement or atomic coordinate data resulting 
# from the CCDC's data processing and validation procedures.
#
#######################################################################

data_GEMYAZ
_chemical_formula_moiety         'C29 H27 O3 P1'
_chemical_name_systematic        
5-(\a-Hydroxybenzyl)-2-phenyl-3-(diphenylphosphoryl)-tetrahydrofuran
_symmetry_cell_setting           orthorhombic
_symmetry_space_group_name_H-M   'P 21 21 21'
_symmetry_Int_Tables_number      19
_space_group_name_Hall           'P 2ac 2ab'
loop_
_symmetry_equiv_pos_site_id
_symmetry_equiv_pos_as_xyz
1 x,y,z
2 1/2-x,-y,1/2+z
3 1/2+x,1/2-y,-z
4 -x,1/2+y,1/2-z
_cell_length_a                   5.9419(1)
_cell_length_b                   14.3610(3)
_cell_length_c                   26.6529(7)
_cell_angle_alpha                90
_cell_angle_beta                 90
_cell_angle_gamma                90
_cell_volume                     2274.34
_exptl_crystal_colour            colorless
_exptl_crystal_description       needle
_cell_formula_units_Z            4
loop_
_atom_site_label
_atom_site_type_symbol
_atom_site_fract_x
_atom_site_fract_y
_atom_site_fract_z
P1 P 0.59658(13) 0.64320(5) 0.34358(3)
O1 O 0.6816(4) 0.41314(14) 0.35902(8)
C1 C 0.8405(5) 0.4732(2) 0.33507(12)
H1 H 0.9943 0.4474 0.3414
O2 O 0.3699(3) 0.59908(14) 0.34268(9)
C2 C 0.8199(5) 0.5662(2) 0.36440(12)
H2 H 0.9670 0.6000 0.3633
O3 O 0.3004(4) 0.47905(19) 0.42214(10)
H3 H 0.3424 0.5101 0.3971
C3 C 0.7755(6) 0.5307(2) 0.41878(13)
H4 H 0.9152 0.5328 0.4390
H5 H 0.6594 0.5693 0.4355
C4 C 0.6927(6) 0.4290(2) 0.41246(13)
H6 H 0.8044 0.3854 0.4278
C5 C 0.7994(6) 0.4708(2) 0.27911(12)
C6 C 0.5984(6) 0.4405(2) 0.25957(13)
H7 H 0.4780 0.4254 0.2816
C7 C 0.5687(7) 0.4315(2) 0.20811(14)
H8 H 0.4298 0.4095 0.1951
C8 C 0.7426(7) 0.4548(2) 0.17590(15)
H9 H 0.7238 0.4489 0.1407
C9 C 0.9432(7) 0.4867(3) 0.19535(14)
H10 H 1.0624 0.5033 0.1734
C10 C 0.9724(6) 0.4946(2) 0.24693(14)
H11 H 1.1114 0.5163 0.2601
C11 C 0.6769(5) 0.6884(2) 0.28286(12)
C12 C 0.5191(6) 0.6852(2) 0.24514(13)
H12 H 0.3745 0.6595 0.2514
C13 C 0.5715(6) 0.7198(2) 0.19760(13)
H13 H 0.4620 0.7178 0.1716
C14 C 0.7789(6) 0.7563(2) 0.18829(14)
H14 H 0.8124 0.7805 0.1560
C15 C 0.9408(6) 0.7585(2) 0.22544(14)
H15 H 1.0856 0.7835 0.2186
C16 C 0.8910(6) 0.7240(2) 0.27273(13)
H16 H 1.0025 0.7245 0.2983
C17 C 0.6043(5) 0.7383(2) 0.38860(13)
C18 C 0.4287(6) 0.7466(3) 0.42195(15)
H17 H 0.3055 0.7045 0.4201
C19 C 0.4303(8) 0.8160(3) 0.45834(17)
H18 H 0.3075 0.8217 0.4810
C20 C 0.6094(8) 0.8768(3) 0.46172(16)
H19 H 0.6113 0.9236 0.4869
C21 C 0.7840(7) 0.8692(3) 0.42871(16)
H20 H 0.9066 0.9115 0.4306
C22 C 0.7826(6) 0.7998(2) 0.39241(15)
H21 H 0.9058 0.7945 0.3699
C23 C 0.4601(6) 0.4071(2) 0.43208(13)
H22 H 0.4068 0.3497 0.4144
C24 C 0.4470(5) 0.3881(2) 0.48815(13)
C25 C 0.2517(6) 0.3480(2) 0.50644(14)
H23 H 0.1338 0.3325 0.4839
C26 C 0.2258(7) 0.3301(3) 0.55765(15)
H24 H 0.0892 0.3044 0.5700
C27 C 0.3989(7) 0.3499(3) 0.59004(14)
H25 H 0.3823 0.3374 0.6248
C28 C 0.5954(7) 0.3874(2) 0.57243(14)
H26 H 0.7156 0.4001 0.5949
C29 C 0.6191(6) 0.4072(2) 0.52102(14)
H27 H 0.7549 0.4340 0.5089
loop_
_geom_bond_atom_site_label_1
_geom_bond_atom_site_label_2
_geom_bond_site_symmetry_1
_geom_bond_site_symmetry_2
P1 O2 1_555 1_555
O1 C1 1_555 1_555
C1 H1 1_555 1_555
C2 P1 1_555 1_555
H2 C2 1_555 1_555
O3 H3 1_555 1_555
C3 C2 1_555 1_555
H4 C3 1_555 1_555
H5 C3 1_555 1_555
C4 O1 1_555 1_555
H6 C4 1_555 1_555
C5 C1 1_555 1_555
C6 C5 1_555 1_555
H7 C6 1_555 1_555
C7 C6 1_555 1_555
H8 C7 1_555 1_555
C8 C7 1_555 1_555
H9 C8 1_555 1_555
C9 C8 1_555 1_555
H10 C9 1_555 1_555
C10 C5 1_555 1_555
H11 C10 1_555 1_555
C11 P1 1_555 1_555
C12 C11 1_555 1_555
H12 C12 1_555 1_555
C13 C12 1_555 1_555
H13 C13 1_555 1_555
C14 C13 1_555 1_555
H14 C14 1_555 1_555
C15 C14 1_555 1_555
H15 C15 1_555 1_555
C16 C11 1_555 1_555
H16 C16 1_555 1_555
C17 P1 1_555 1_555
C18 C17 1_555 1_555
H17 C18 1_555 1_555
C19 C18 1_555 1_555
H18 C19 1_555 1_555
C20 C19 1_555 1_555
H19 C20 1_555 1_555
C21 C20 1_555 1_555
H20 C21 1_555 1_555
C22 C17 1_555 1_555
H21 C22 1_555 1_555
C23 O3 1_555 1_555
H22 C23 1_555 1_555
C24 C23 1_555 1_555
C25 C24 1_555 1_555
H23 C25 1_555 1_555
C26 C25 1_555 1_555
H24 C26 1_555 1_555
C27 C26 1_555 1_555
H25 C27 1_555 1_555
C28 C27 1_555 1_555
H26 C28 1_555 1_555
C29 C24 1_555 1_555
H27 C29 1_555 1_555
C1 C2 1_555 1_555
C3 C4 1_555 1_555
C4 C23 1_555 1_555
C9 C10 1_555 1_555
C15 C16 1_555 1_555
C21 C22 1_555 1_555
C28 C29 1_555 1_555

#END
