
#######################################################################
#
#                 Cambridge Crystallographic Data Centre
#                                CCDC 
#
#######################################################################
#
# If this CIF has been generated from an entry in the Cambridge 
# Structural Database, then it will include bibliographic, chemical, 
# crystal, experimental, refinement or atomic coordinate data resulting 
# from the CCDC's data processing and validation procedures.
#
#######################################################################

data_GEMYIH
_chemical_formula_moiety         'C23 H29 O4 P1'
_chemical_name_systematic        
't-Butyl 2-(1-(diphenylphosphoryloxy)propyl)cyclopropane-1-carboxylate'
_symmetry_cell_setting           triclinic
_symmetry_space_group_name_H-M   'P 1'
_symmetry_Int_Tables_number      1
_space_group_name_Hall           'P 1'
loop_
_symmetry_equiv_pos_site_id
_symmetry_equiv_pos_as_xyz
1 x,y,z
_cell_length_a                   5.8939(2)
_cell_length_b                   8.5144(3)
_cell_length_c                   11.3355(4)
_cell_angle_alpha                82.108(2)
_cell_angle_beta                 87.448(2)
_cell_angle_gamma                82.337(2)
_cell_volume                     558.231
_exptl_crystal_colour            colorless
_exptl_crystal_description       block
_cell_formula_units_Z            1
loop_
_atom_site_label
_atom_site_type_symbol
_atom_site_fract_x
_atom_site_fract_y
_atom_site_fract_z
P1 P 0.27378(6) 0.25996(5) 0.74306(4)
O1 O 0.9852(3) 0.6434(3) 0.40524(19)
O2 O 0.7425(3) 0.7352(2) 0.25475(15)
O3 O 0.4797(2) 0.24963(19) 0.64827(13)
O4 O 0.0800(2) 0.38322(17) 0.70718(14)
C1 C 0.7985(4) 0.6600(3) 0.3641(2)
C2 C 0.5938(4) 0.6015(3) 0.4265(2)
H1 H 0.4513 0.6141 0.3795
C3 C 0.6337(4) 0.4558(3) 0.5190(2)
H2 H 0.7977 0.4110 0.5318
C4 C 0.4690(4) 0.3350(3) 0.52725(19)
H3 H 0.3102 0.3888 0.5103
C5 C 0.5414(6) 0.2098(4) 0.4423(3)
H4 H 0.5527 0.2656 0.3601
H5 H 0.6956 0.1547 0.4638
C6 C 0.3784(8) 0.0855(5) 0.4446(4)
H6 H 0.4273 0.0159 0.3837
H7 H 0.2232 0.1392 0.4285
H8 H 0.3797 0.0211 0.5233
C7 C 0.5636(6) 0.6123(4) 0.5585(3)
H9 H 0.6797 0.6611 0.5967
H10 H 0.4055 0.6340 0.5910
C8 C 0.9150(5) 0.8061(3) 0.1740(2)
C9 C 1.0044(8) 0.9363(4) 0.2288(3)
H11 H 1.0933 0.8890 0.2988
H12 H 0.8756 1.0115 0.2527
H13 H 1.1027 0.9931 0.1704
C10 C 0.7788(5) 0.8729(4) 0.0636(3)
H14 H 0.6480 0.9484 0.0850
H15 H 0.7234 0.7852 0.0302
H16 H 0.8771 0.9282 0.0043
C11 C 1.1038(5) 0.6771(4) 0.1446(3)
H17 H 1.1792 0.6260 0.2180
H18 H 1.2162 0.7250 0.0895
H19 H 1.0380 0.5969 0.1073
C12 C 0.4118(3) 0.2900(3) 0.87553(19)
C13 C 0.3055(4) 0.2554(3) 0.9860(2)
H20 H 0.1703 0.2050 0.9921
C14 C 0.3957(5) 0.2938(3) 1.0874(2)
H21 H 0.3229 0.2695 1.1630
C15 C 0.5928(5) 0.3682(3) 1.0785(2)
H22 H 0.6537 0.3961 1.1478
C16 C 0.7000(4) 0.4015(3) 0.9692(2)
H23 H 0.8357 0.4513 0.9637
C17 C 0.6115(3) 0.3629(3) 0.8672(2)
H24 H 0.6863 0.3859 0.7921
C18 C 0.1927(3) 0.0619(3) 0.76627(19)
C19 C 0.3389(4) -0.0682(3) 0.8192(2)
H25 H 0.4764 -0.0520 0.8538
C20 C 0.2827(5) -0.2216(3) 0.8211(3)
H26 H 0.3828 -0.3106 0.8566
C21 C 0.0821(5) -0.2460(3) 0.7718(3)
H27 H 0.0456 -0.3514 0.7723
C22 C -0.0641(5) -0.1175(3) 0.7221(3)
H28 H -0.2031 -0.1345 0.6894
C23 C -0.0109(4) 0.0375(3) 0.7191(2)
H29 H -0.1135 0.1260 0.6850
loop_
_geom_bond_atom_site_label_1
_geom_bond_atom_site_label_2
_geom_bond_site_symmetry_1
_geom_bond_site_symmetry_2
P1 O3 1_555 1_555
O1 C1 1_555 1_555
O2 C1 1_555 1_555
O3 C4 1_555 1_555
O4 P1 1_555 1_555
C1 C2 1_555 1_555
C2 H1 1_555 1_555
C3 C2 1_555 1_555
H2 C3 1_555 1_555
C4 C3 1_555 1_555
H3 C4 1_555 1_555
C5 C4 1_555 1_555
H4 C5 1_555 1_555
H5 C5 1_555 1_555
C6 C5 1_555 1_555
H6 C6 1_555 1_555
H7 C6 1_555 1_555
H8 C6 1_555 1_555
C7 C2 1_555 1_555
H9 C7 1_555 1_555
H10 C7 1_555 1_555
C8 O2 1_555 1_555
C9 C8 1_555 1_555
H11 C9 1_555 1_555
H12 C9 1_555 1_555
H13 C9 1_555 1_555
C10 C8 1_555 1_555
H14 C10 1_555 1_555
H15 C10 1_555 1_555
H16 C10 1_555 1_555
C11 C8 1_555 1_555
H17 C11 1_555 1_555
H18 C11 1_555 1_555
H19 C11 1_555 1_555
C12 P1 1_555 1_555
C13 C12 1_555 1_555
H20 C13 1_555 1_555
C14 C13 1_555 1_555
H21 C14 1_555 1_555
C15 C14 1_555 1_555
H22 C15 1_555 1_555
C16 C15 1_555 1_555
H23 C16 1_555 1_555
C17 C12 1_555 1_555
H24 C17 1_555 1_555
C18 P1 1_555 1_555
C19 C18 1_555 1_555
H25 C19 1_555 1_555
C20 C19 1_555 1_555
H26 C20 1_555 1_555
C21 C20 1_555 1_555
H27 C21 1_555 1_555
C22 C21 1_555 1_555
H28 C22 1_555 1_555
C23 C18 1_555 1_555
H29 C23 1_555 1_555
C3 C7 1_555 1_555
C16 C17 1_555 1_555
C22 C23 1_555 1_555

#END
