
#######################################################################
#
#                 Cambridge Crystallographic Data Centre
#                                CCDC 
#
#######################################################################
#
# If this CIF has been generated from an entry in the Cambridge 
# Structural Database, then it will include bibliographic, chemical, 
# crystal, experimental, refinement or atomic coordinate data resulting 
# from the CCDC's data processing and validation procedures.
#
#######################################################################

data_GENCEI
_chemical_formula_moiety         'C10 H21 N3 2+,2(Br1 1-)'
_chemical_name_systematic        
'3-methyl-1-((2S)-ammonio-4-methylpentyl)imidazolium bromide'
_symmetry_cell_setting           monoclinic
_symmetry_space_group_name_H-M   'P 21'
_symmetry_Int_Tables_number      4
_space_group_name_Hall           'P 2yb'
loop_
_symmetry_equiv_pos_site_id
_symmetry_equiv_pos_as_xyz
1 x,y,z
2 -x,1/2+y,-z
_cell_length_a                   12.794(3)
_cell_length_b                   15.102(3)
_cell_length_c                   14.982(4)
_cell_angle_alpha                90
_cell_angle_beta                 90.377(10)
_cell_angle_gamma                90
_cell_volume                     2894.68
_exptl_crystal_colour            colorless
_exptl_crystal_description       platelet
_cell_formula_units_Z            8
loop_
_atom_site_label
_atom_site_type_symbol
_atom_site_fract_x
_atom_site_fract_y
_atom_site_fract_z
Br1 Br 0.65522(5) 0.14303(5) 1.04478(4)
Br2 Br 0.53623(4) 0.37205(5) 0.71997(4)
Br3 Br 0.54044(5) 0.81765(5) 0.75947(4)
Br4 Br 0.72582(5) 0.61066(5) 0.97595(4)
Br5 Br 0.16911(5) 0.15156(5) 0.52749(4)
Br6 Br 0.08711(4) 0.37577(5) 0.26059(4)
Br7 Br 0.07142(5) 0.82486(5) 0.24726(4)
Br8 Br 0.21315(4) 0.61124(5) 0.45808(4)
N1 N 0.4521(3) 0.2700(2) 1.0297(2)
N2 N 0.6256(3) 0.3943(2) 1.0103(3)
N3 N 0.7833(3) 0.3597(3) 1.0445(3)
C1 C 0.4378(4) 0.3568(3) 0.9839(3)
C2 C 0.5179(4) 0.4226(3) 1.0203(4)
C3 C 0.6896(4) 0.3790(4) 1.0771(3)
C4 C 0.7768(4) 0.3605(3) 0.9544(3)
C5 C 0.6784(4) 0.3806(3) 0.9323(3)
C6 C 0.3273(4) 0.3907(3) 1.0017(3)
C7 C 0.2403(4) 0.3484(3) 0.9455(3)
C8 C 0.1342(4) 0.3753(5) 0.9825(4)
C9 C 0.2471(4) 0.3740(5) 0.8481(4)
C10 C 0.8740(5) 0.3365(5) 1.0990(5)
H1 H 0.4477 0.3494 0.9195
H2 H 0.6724 0.3813 1.1373
H3 H 0.8310 0.3492 0.9150
H4 H 0.6509 0.3845 0.8748
H5 H 0.2468 0.2839 0.9500
H21 H 0.4958 0.2382 1.0004
H22 H 0.3930 0.2430 1.0324
H23 H 0.4757 0.2787 1.0829
H24 H 0.5046 0.4314 1.0833
H25 H 0.5090 0.4783 0.9889
H26 H 0.3265 0.4540 0.9904
H27 H 0.3118 0.3799 1.0641
H28 H 0.1128 0.3332 1.0268
H29 H 0.0836 0.3766 0.9349
H30 H 0.1394 0.4330 1.0091
H31 H 0.2195 0.3270 0.8118
H32 H 0.2074 0.4270 0.8378
H33 H 0.3189 0.3843 0.8328
H34 H 0.9129 0.3891 1.1130
H35 H 0.9177 0.2962 1.0666
H36 H 0.8512 0.3090 1.1532
N4 N 0.7650(3) 0.7043(2) 0.7769(3)
N5 N 0.6078(3) 0.5881(2) 0.6863(3)
N6 N 0.4412(3) 0.6100(3) 0.6744(3)
C11 C 0.7950(4) 0.6246(2) 0.7238(3)
C12 C 0.7058(4) 0.5587(3) 0.7235(4)
C13 C 0.5184(4) 0.5929(3) 0.7316(4)
C14 C 0.4823(4) 0.6172(3) 0.5911(4)
C15 C 0.5848(4) 0.6030(4) 0.5980(3)
C16 C 0.8892(3) 0.5805(3) 0.7632(3)
C17 C 0.9912(4) 0.6346(3) 0.7715(4)
C18 C 1.0672(4) 0.5869(4) 0.8315(4)
C19 C 1.0386(4) 0.6548(4) 0.6817(4)
C20 C 0.3313(4) 0.6236(4) 0.6991(4)
H6 H 0.8100 0.6424 0.6623
H7 H 0.5113 0.5856 0.7929
H8 H 0.4455 0.6298 0.5389
H9 H 0.6323 0.6031 0.5513
H10 H 0.9740 0.6912 0.7999
H37 H 0.7355 0.7425 0.7424
H38 H 0.8200 0.7273 0.8007
H39 H 0.7222 0.6890 0.8182
H40 H 0.7281 0.5074 0.6896
H41 H 0.6934 0.5415 0.7849
H42 H 0.8707 0.5611 0.8227
H43 H 0.9044 0.5292 0.7264
H44 H 1.0567 0.5242 0.8262
H45 H 1.1373 0.6014 0.8145
H46 H 1.0560 0.6047 0.8922
H47 H 0.9843 0.6573 0.6373
H48 H 1.0740 0.7108 0.6843
H49 H 1.0875 0.6092 0.6665
H50 H 0.2951 0.5679 0.6975
H51 H 0.3280 0.6479 0.7583
H52 H 0.2990 0.6639 0.6577
N7 N -0.0387(3) 0.2746(2) 0.5429(2)
N8 N 0.1235(3) 0.4054(2) 0.5465(3)
N9 N 0.2861(3) 0.3763(3) 0.5251(3)
C21 C -0.0532(4) 0.3582(3) 0.4919(3)
C22 C 0.0153(4) 0.4305(3) 0.5314(4)
C23 C 0.1951(4) 0.3911(3) 0.4850(3)
C24 C 0.2738(4) 0.3797(4) 0.6146(4)
C25 C 0.1712(4) 0.3982(3) 0.6289(3)
C26 C -0.1663(3) 0.3865(3) 0.4936(4)
C27 C -0.2390(4) 0.3423(3) 0.4285(4)
C28 C -0.2204(4) 0.3746(4) 0.3332(4)
C29 C -0.3535(4) 0.3540(4) 0.4543(4)
C30 C 0.3840(4) 0.3549(4) 0.4797(4)
H11 H -0.0326 0.3482 0.4298
H12 H 0.1835 0.3914 0.4236
H13 H 0.3253 0.3711 0.6578
H14 H 0.1392 0.4047 0.6841
H15 H -0.2237 0.2787 0.4298
H53 H 0.0111 0.2443 0.5196
H54 H -0.0956 0.2443 0.5411
H55 H -0.0232 0.2868 0.5975
H56 H -0.0143 0.4480 0.5882
H57 H 0.0142 0.4805 0.4908
H58 H -0.1925 0.3750 0.5531
H59 H -0.1686 0.4496 0.4819
H60 H -0.2360 0.3277 0.2919
H61 H -0.2649 0.4244 0.3209
H62 H -0.1487 0.3919 0.3269
H63 H -0.3965 0.3523 0.4015
H64 H -0.3737 0.3071 0.4938
H65 H -0.3623 0.4100 0.4837
H66 H 0.3894 0.2919 0.4726
H67 H 0.4420 0.3760 0.5147
H68 H 0.3847 0.3827 0.4221
N10 N 0.2900(3) 0.7088(2) 0.2765(3)
N11 N 0.1384(3) 0.5956(2) 0.1781(3)
N12 N -0.0269(3) 0.6149(3) 0.1841(3)
C31 C 0.3212(4) 0.6389(4) 0.2097(4)
C32 C 0.2414(5) 0.5668(3) 0.2055(5)
C33 C 0.0537(5) 0.5955(3) 0.2295(4)
C34 C 0.0023(4) 0.6275(4) 0.0948(4)
C35 C 0.1053(4) 0.6151(3) 0.0933(4)
C36 C 0.4104(5) 0.5803(5) 0.2493(6)
C37 C 0.5121(5) 0.6259(6) 0.2699(5)
C38 C 0.5659(9) 0.6421(10) 0.1865(8)
C39 C 0.5875(11) 0.5705(7) 0.3190(11)
C40 C -0.1350(5) 0.6248(5) 0.2167(5)
H16 H 0.3381 0.6634 0.1510
H17 H 0.0538 0.5829 0.2903
H18 H -0.0412 0.6416 0.0469
H19 H 0.1475 0.6190 0.0432
H20 H 0.4999 0.6816 0.3017
H69 H 0.2531 0.7487 0.2502
H70 H 0.3452 0.7327 0.2990
H71 H 0.2540 0.6848 0.3183
H72 H 0.2652 0.5225 0.1634
H73 H 0.2360 0.5405 0.2644
H74 H 0.3850 0.5545 0.3044
H75 H 0.4246 0.5335 0.2067
H76 H 0.5155 0.6531 0.1401
H77 H 0.6107 0.6927 0.1930
H78 H 0.6070 0.5912 0.1712
H79 H 0.6573 0.5887 0.3046
H80 H 0.5779 0.5096 0.3024
H81 H 0.5765 0.5770 0.3820
H82 H -0.1336 0.6445 0.2776
H83 H -0.1704 0.5689 0.2130
H84 H -0.1714 0.6676 0.1806
loop_
_geom_bond_atom_site_label_1
_geom_bond_atom_site_label_2
_geom_bond_site_symmetry_1
_geom_bond_site_symmetry_2
N1 C1 1_555 1_555
N2 C2 1_555 1_555
N3 C3 1_555 1_555
N4 C11 1_555 1_555
N5 C12 1_555 1_555
N6 C13 1_555 1_555
N7 C21 1_555 1_555
N8 C22 1_555 1_555
N9 C23 1_555 1_555
N10 C31 1_555 1_555
N11 C32 1_555 1_555
N12 C33 1_555 1_555
C1 C2 1_555 1_555
C2 H24 1_555 1_555
C3 N2 1_555 1_555
C4 N3 1_555 1_555
C5 N2 1_555 1_555
C6 C1 1_555 1_555
C7 C6 1_555 1_555
C8 C7 1_555 1_555
C9 C7 1_555 1_555
C10 N3 1_555 1_555
C11 C12 1_555 1_555
C12 H40 1_555 1_555
C13 N5 1_555 1_555
C14 N6 1_555 1_555
C15 N5 1_555 1_555
C16 C11 1_555 1_555
C17 C16 1_555 1_555
C18 C17 1_555 1_555
C19 C17 1_555 1_555
C20 N6 1_555 1_555
C21 C22 1_555 1_555
C22 H56 1_555 1_555
C23 N8 1_555 1_555
C24 N9 1_555 1_555
C25 N8 1_555 1_555
C26 C21 1_555 1_555
C27 C26 1_555 1_555
C28 C27 1_555 1_555
C29 C27 1_555 1_555
C30 N9 1_555 1_555
C31 C32 1_555 1_555
C32 H72 1_555 1_555
C33 N11 1_555 1_555
C34 N12 1_555 1_555
C35 N11 1_555 1_555
C36 C31 1_555 1_555
C37 C36 1_555 1_555
C38 C37 1_555 1_555
C39 C37 1_555 1_555
C40 N12 1_555 1_555
H1 C1 1_555 1_555
H2 C3 1_555 1_555
H3 C4 1_555 1_555
H4 C5 1_555 1_555
H5 C7 1_555 1_555
H6 C11 1_555 1_555
H7 C13 1_555 1_555
H8 C14 1_555 1_555
H9 C15 1_555 1_555
H10 C17 1_555 1_555
H11 C21 1_555 1_555
H12 C23 1_555 1_555
H13 C24 1_555 1_555
H14 C25 1_555 1_555
H15 C27 1_555 1_555
H16 C31 1_555 1_555
H17 C33 1_555 1_555
H18 C34 1_555 1_555
H19 C35 1_555 1_555
H20 C37 1_555 1_555
H21 N1 1_555 1_555
H22 N1 1_555 1_555
H23 N1 1_555 1_555
H25 C2 1_555 1_555
H26 C6 1_555 1_555
H27 C6 1_555 1_555
H28 C8 1_555 1_555
H29 C8 1_555 1_555
H30 C8 1_555 1_555
H31 C9 1_555 1_555
H32 C9 1_555 1_555
H33 C9 1_555 1_555
H34 C10 1_555 1_555
H35 C10 1_555 1_555
H36 C10 1_555 1_555
H37 N4 1_555 1_555
H38 N4 1_555 1_555
H39 N4 1_555 1_555
H41 C12 1_555 1_555
H42 C16 1_555 1_555
H43 C16 1_555 1_555
H44 C18 1_555 1_555
H45 C18 1_555 1_555
H46 C18 1_555 1_555
H47 C19 1_555 1_555
H48 C19 1_555 1_555
H49 C19 1_555 1_555
H50 C20 1_555 1_555
H51 C20 1_555 1_555
H52 C20 1_555 1_555
H53 N7 1_555 1_555
H54 N7 1_555 1_555
H55 N7 1_555 1_555
H57 C22 1_555 1_555
H58 C26 1_555 1_555
H59 C26 1_555 1_555
H60 C28 1_555 1_555
H61 C28 1_555 1_555
H62 C28 1_555 1_555
H63 C29 1_555 1_555
H64 C29 1_555 1_555
H65 C29 1_555 1_555
H66 C30 1_555 1_555
H67 C30 1_555 1_555
H68 C30 1_555 1_555
H69 N10 1_555 1_555
H70 N10 1_555 1_555
H71 N10 1_555 1_555
H73 C32 1_555 1_555
H74 C36 1_555 1_555
H75 C36 1_555 1_555
H76 C38 1_555 1_555
H77 C38 1_555 1_555
H78 C38 1_555 1_555
H79 C39 1_555 1_555
H80 C39 1_555 1_555
H81 C39 1_555 1_555
H82 C40 1_555 1_555
H83 C40 1_555 1_555
H84 C40 1_555 1_555
C4 C5 1_555 1_555
C14 C15 1_555 1_555
C24 C25 1_555 1_555
C34 C35 1_555 1_555

#END
