
#######################################################################
#
#                 Cambridge Crystallographic Data Centre
#                                CCDC 
#
#######################################################################
#
# If this CIF has been generated from an entry in the Cambridge 
# Structural Database, then it will include bibliographic, chemical, 
# crystal, experimental, refinement or atomic coordinate data resulting 
# from the CCDC's data processing and validation procedures.
#
#######################################################################

data_GENDUB
_chemical_formula_moiety         'C54 H72 N7 1+,Cl1 1-'
_chemical_name_systematic        
'2-(3-{1,3-bis[2,6-di-isopropylphenyl]imidazol-2-ylidene}triaz-1-en-1-yl)-1,3-bis[2,6-di-isopropylphenyl]-1H-imidazol-3-ium chloride'
_symmetry_cell_setting           monoclinic
_symmetry_space_group_name_H-M   'P 21/c'
_symmetry_Int_Tables_number      14
_space_group_name_Hall           '-P 2ybc'
loop_
_symmetry_equiv_pos_site_id
_symmetry_equiv_pos_as_xyz
1 x,y,z
2 -x,1/2+y,1/2-z
3 -x,-y,-z
4 x,1/2-y,1/2+z
_cell_length_a                   12.473(2)
_cell_length_b                   32.135(6)
_cell_length_c                   25.904(5)
_cell_angle_alpha                90
_cell_angle_beta                 96.21(3)
_cell_angle_gamma                90
_cell_volume                     10321.9
_exptl_crystal_colour            orange
_exptl_crystal_description       block
_cell_formula_units_Z            8
loop_
_atom_site_label
_atom_site_type_symbol
_atom_site_fract_x
_atom_site_fract_y
_atom_site_fract_z
Cl1 Cl 0.03671(11) 0.12574(4) 0.34955(4)
Cl2 Cl -0.03290(12) 0.12399(4) 0.77827(4)
N1 N 0.2564(3) 0.04314(10) 0.76098(12)
N2 N 0.3825(3) 0.08092(11) 0.73230(12)
N3 N 0.3954(3) 0.00390(10) 0.73233(12)
N4 N 0.4999(3) 0.00146(10) 0.73654(11)
N5 N 0.5262(3) -0.03307(10) 0.71274(11)
N6 N 0.6801(3) -0.06818(10) 0.69026(11)
N7 N 0.6936(3) -0.04520(10) 0.76970(11)
C1 C 0.3538(4) 0.04140(12) 0.74398(13)
C2 C 0.2192(5) 0.08409(15) 0.75825(16)
H1 H 0.1516 0.0939 0.7669
C3 C 0.2985(5) 0.10697(15) 0.74082(16)
H2 H 0.2967 0.1362 0.7353
C4 C 0.1988(3) 0.00642(14) 0.77506(15)
C5 C 0.1457(4) -0.01743(17) 0.73555(17)
C6 C 0.0987(4) -0.05427(18) 0.74961(19)
H3 H 0.0620 -0.0714 0.7235
C7 C 0.1043(4) -0.06636(15) 0.8010(2)
H4 H 0.0731 -0.0920 0.8099
C8 C 0.1546(3) -0.04152(13) 0.83942(17)
H5 H 0.1550 -0.0498 0.8747
C9 C 0.2050(3) -0.00463(12) 0.82794(15)
C10 C 0.1379(5) -0.0032(2) 0.67973(18)
H6 H 0.1901 0.0203 0.6779
C11 C 0.1703(7) -0.0380(3) 0.6430(2)
H7 H 0.1641 -0.0275 0.6073
H8 H 0.2449 -0.0465 0.6535
H9 H 0.1223 -0.0619 0.6450
C12 C 0.0238(6) 0.0144(4) 0.6644(3)
H10 H 0.0177 0.0237 0.6282
H11 H -0.0297 -0.0074 0.6683
H12 H 0.0111 0.0379 0.6870
C13 C 0.2618(4) 0.02252(13) 0.87002(14)
H13 H 0.3259 0.0354 0.8562
C14 C 0.1895(4) 0.05710(14) 0.88491(17)
H14 H 0.2284 0.0741 0.9122
H15 H 0.1680 0.0745 0.8544
H16 H 0.1251 0.0452 0.8978
C15 C 0.3018(4) -0.00200(17) 0.92019(17)
H17 H 0.3491 -0.0247 0.9116
H18 H 0.3417 0.0168 0.9451
H19 H 0.2397 -0.0135 0.9355
C16 C 0.4757(5) 0.09408(14) 0.70759(17)
C17 C 0.5631(6) 0.11298(17) 0.7374(2)
C18 C 0.6486(7) 0.12555(19) 0.7109(2)
H20 H 0.7098 0.1383 0.7294
C19 C 0.6459(7) 0.11976(16) 0.6579(3)
H21 H 0.7048 0.1289 0.6404
C20 C 0.5598(6) 0.10105(16) 0.6303(2)
H22 H 0.5601 0.0974 0.5939
C21 C 0.4716(5) 0.08710(14) 0.65391(17)
C22 C 0.5711(10) 0.1213(2) 0.7968(3)
H23 H 0.6505 0.1178 0.8060
C23 C 0.5321(6) 0.09057(19) 0.8301(2)
H24 H 0.5458 0.0628 0.8167
H25 H 0.5694 0.0936 0.8652
H26 H 0.4544 0.0943 0.8311
C24 C 0.5602(7) 0.1652(2) 0.8084(3)
H27 H 0.5908 0.1818 0.7819
H28 H 0.4837 0.1721 0.8085
H29 H 0.5987 0.1713 0.8426
C25 C 0.3770(5) 0.06575(18) 0.62307(17)
H30 H 0.3262 0.0567 0.6482
C26 C 0.3150(7) 0.0963(2) 0.5842(2)
H31 H 0.2544 0.0818 0.5648
H32 H 0.2877 0.1197 0.6033
H33 H 0.3638 0.1068 0.5600
C27 C 0.4096(5) 0.02707(16) 0.59453(18)
H34 H 0.3455 0.0146 0.5753
H35 H 0.4612 0.0348 0.5702
H36 H 0.4431 0.0069 0.6197
C28 C 0.6296(3) -0.04542(12) 0.72430(14)
C29 C 0.7781(4) -0.08293(13) 0.71459(16)
H37 H 0.8292 -0.0998 0.6996
C30 C 0.7857(3) -0.06855(13) 0.76347(15)
H38 H 0.8441 -0.0734 0.7895
C31 C 0.6324(4) -0.07960(13) 0.63876(14)
C32 C 0.6645(4) -0.05863(14) 0.59601(15)
C33 C 0.6097(5) -0.06863(19) 0.54803(18)
H39 H 0.6285 -0.0549 0.5178
C34 C 0.5298(6) -0.0976(2) 0.54339(19)
H40 H 0.4915 -0.1028 0.5103
C35 C 0.5035(5) -0.11945(19) 0.58617(18)
H41 H 0.4494 -0.1403 0.5819
C36 C 0.5545(4) -0.11141(15) 0.63493(16)
C37 C 0.7558(4) -0.02730(14) 0.60156(16)
H42 H 0.8030 -0.0344 0.6340
C38 C 0.7143(4) 0.01607(16) 0.6080(2)
H43 H 0.7750 0.0356 0.6115
H44 H 0.6645 0.0235 0.5775
H45 H 0.6764 0.0174 0.6392
C39 C 0.8260(4) -0.02963(16) 0.55643(19)
H46 H 0.8519 -0.0582 0.5531
H47 H 0.7831 -0.0214 0.5241
H48 H 0.8877 -0.0108 0.5633
C40 C 0.5322(4) -0.13744(15) 0.68067(18)
H49 H 0.5708 -0.1243 0.7124
C41 C 0.4121(5) -0.1384(2) 0.6880(2)
H50 H 0.4011 -0.1557 0.7182
H51 H 0.3869 -0.1101 0.6937
H52 H 0.3713 -0.1501 0.6569
C42 C 0.5775(5) -0.18112(17) 0.6766(2)
H53 H 0.5620 -0.1975 0.7069
H54 H 0.5441 -0.1944 0.6449
H55 H 0.6557 -0.1796 0.6756
C43 C 0.6693(3) -0.02838(12) 0.81880(13)
C44 C 0.7252(4) 0.00697(13) 0.83826(15)
C45 C 0.7062(4) 0.01993(13) 0.88798(15)
H56 H 0.7446 0.0432 0.9031
C46 C 0.6335(4) -0.00017(14) 0.91568(15)
H57 H 0.6216 0.0095 0.9492
C47 C 0.5772(3) -0.03473(13) 0.89447(14)
H58 H 0.5262 -0.0482 0.9135
C48 C 0.5951(3) -0.04974(12) 0.84575(14)
C49 C 0.8051(4) 0.03217(14) 0.81071(16)
H59 H 0.7988 0.0614 0.8234
C50 C 0.7853(4) 0.03485(16) 0.75191(17)
H60 H 0.8418 0.0518 0.7388
H61 H 0.7865 0.0068 0.7371
H62 H 0.7148 0.0477 0.7419
C51 C 0.9210(4) 0.01904(16) 0.82803(19)
H63 H 0.9319 0.0175 0.8660
H64 H 0.9347 -0.0083 0.8134
H65 H 0.9708 0.0395 0.8158
C52 C 0.5362(3) -0.08881(12) 0.82355(14)
H66 H 0.5393 -0.0887 0.7851
C53 C 0.4199(4) -0.08907(17) 0.8327(3)
H67 H 0.3852 -0.0635 0.8186
H68 H 0.3842 -0.1133 0.8154
H69 H 0.4142 -0.0906 0.8701
C54 C 0.5924(5) -0.12761(16) 0.8447(3)
H70 H 0.6683 -0.1267 0.8383
H71 H 0.5877 -0.1293 0.8822
H72 H 0.5577 -0.1521 0.8276
N8 N 0.0354(2) 0.34274(9) 0.44950(11)
N9 N -0.1228(2) 0.31365(9) 0.44121(11)
N10 N -0.0021(3) 0.30583(9) 0.52344(11)
N11 N -0.0383(3) 0.27010(9) 0.53825(12)
N12 N -0.0268(3) 0.26893(9) 0.58940(12)
N13 N 0.0106(3) 0.19395(10) 0.60129(13)
N14 N -0.0742(3) 0.22737(10) 0.65789(13)
C55 C -0.0298(3) 0.31671(11) 0.47300(13)
C56 C -0.0184(3) 0.35568(12) 0.40230(13)
H73 H 0.0091 0.3739 0.3780
C57 C -0.1145(3) 0.33802(12) 0.39740(13)
H74 H -0.1686 0.3414 0.3689
C58 C 0.1441(3) 0.35478(11) 0.46862(14)
C59 C 0.1568(3) 0.38421(12) 0.50914(14)
C60 C 0.2619(4) 0.39655(14) 0.52507(17)
H75 H 0.2752 0.4163 0.5523
C61 C 0.3475(4) 0.38045(16) 0.50169(18)
H76 H 0.4186 0.3893 0.5134
C62 C 0.3327(3) 0.35222(14) 0.46228(16)
H77 H 0.3931 0.3418 0.4469
C63 C 0.2286(3) 0.33845(12) 0.44440(15)
C64 C 0.0630(3) 0.40293(12) 0.53353(14)
H78 H -0.0007 0.3843 0.5252
C65 C 0.0848(5) 0.4056(2) 0.59177(18)
H79 H 0.1039 0.3780 0.6059
H80 H 0.1447 0.4249 0.6011
H81 H 0.0201 0.4157 0.6062
C66 C 0.0337(6) 0.44512(19) 0.5114(3)
H82 H 0.0196 0.4431 0.4735
H83 H -0.0310 0.4553 0.5257
H84 H 0.0935 0.4645 0.5206
C67 C 0.2128(3) 0.30730(12) 0.40020(15)
H85 H 0.1336 0.3059 0.3889
C68 C 0.2475(8) 0.26516(19) 0.4168(3)
H86 H 0.2117 0.2571 0.4472
H87 H 0.2281 0.2455 0.3885
H88 H 0.3259 0.2649 0.4259
C69 C 0.2664(9) 0.3201(3) 0.3541(3)
H89 H 0.2428 0.3481 0.3434
H90 H 0.3448 0.3199 0.3630
H91 H 0.2471 0.3005 0.3256
C70 C -0.2224(3) 0.29381(12) 0.45190(14)
C71 C -0.2512(3) 0.25659(13) 0.42621(16)
C72 C -0.3515(4) 0.24115(15) 0.4341(2)
H92 H -0.3746 0.2157 0.4180
C73 C -0.4195(4) 0.26135(16) 0.4648(2)
H93 H -0.4880 0.2498 0.4693
C74 C -0.3867(3) 0.29875(14) 0.48910(17)
H94 H -0.4336 0.3127 0.5099
C75 C -0.2878(3) 0.31545(12) 0.48330(15)
C76 C -0.1853(4) 0.23324(14) 0.38936(17)
H95 H -0.2103 0.2037 0.3902
C77 C -0.0632(4) 0.23147(15) 0.40345(19)
H96 H -0.0303 0.2157 0.3769
H97 H -0.0339 0.2598 0.4053
H98 H -0.0470 0.2178 0.4372
C78 C -0.2138(5) 0.24763(18) 0.33266(18)
H99 H -0.1702 0.2321 0.3099
H100 H -0.2905 0.2425 0.3221
H101 H -0.1988 0.2774 0.3300
C79 C -0.2528(3) 0.35670(12) 0.50930(14)
H102 H -0.1805 0.3638 0.4984
C80 C -0.3288(4) 0.39216(15) 0.4915(2)
H103 H -0.3364 0.3938 0.4535
H104 H -0.3996 0.3871 0.5034
H105 H -0.2995 0.4184 0.5061
C81 C -0.2393(5) 0.35329(15) 0.56833(17)
H106 H -0.1901 0.3303 0.5789
H107 H -0.2094 0.3794 0.5834
H108 H -0.3096 0.3480 0.5807
C82 C -0.0345(3) 0.23079(11) 0.61142(15)
C83 C -0.0010(4) 0.16705(13) 0.64270(18)
H109 H 0.0231 0.1390 0.6455
C84 C -0.0522(4) 0.18768(13) 0.67763(18)
H110 H -0.0701 0.1772 0.7099
C85 C 0.0701(4) 0.18378(12) 0.55832(16)
C86 C 0.1705(4) 0.20147(13) 0.55646(17)
C87 C 0.2277(4) 0.19015(15) 0.51473(18)
H111 H 0.2975 0.2014 0.5125
C88 C 0.1838(5) 0.16276(16) 0.47690(19)
H112 H 0.2229 0.1559 0.4486
C89 C 0.0852(6) 0.14571(15) 0.48010(19)
H113 H 0.0570 0.1269 0.4537
C90 C 0.0230(4) 0.15479(13) 0.52113(18)
C91 C 0.2206(4) 0.23150(15) 0.59821(18)
H114 H 0.1591 0.2465 0.6117
C92 C 0.2912(5) 0.26437(19) 0.5783(2)
H115 H 0.3202 0.2823 0.6071
H116 H 0.3509 0.2511 0.5628
H117 H 0.2487 0.2812 0.5519
C93 C 0.2782(5) 0.2075(2) 0.6444(2)
H118 H 0.2293 0.1865 0.6561
H119 H 0.3424 0.1938 0.6336
H120 H 0.2996 0.2269 0.6728
C94 C -0.0837(5) 0.13512(14) 0.5243(2)
H121 H -0.1073 0.1417 0.5591
C95 C -0.1671(7) 0.1524(3) 0.4830(5)
H122 H -0.2369 0.1391 0.4858
H123 H -0.1740 0.1825 0.4879
H124 H -0.1445 0.1470 0.4485
C96 C -0.0813(7) 0.08853(18) 0.5184(3)
H125 H -0.1536 0.0772 0.5208
H126 H -0.0582 0.0814 0.4845
H127 H -0.0307 0.0766 0.5460
C97 C -0.1182(4) 0.26212(12) 0.68430(15)
C98 C -0.2303(4) 0.26706(14) 0.68144(17)
C99 C -0.2669(4) 0.30255(15) 0.70378(17)
H128 H -0.3423 0.3078 0.7009
C100 C -0.1974(5) 0.33063(15) 0.73015(17)
H129 H -0.2252 0.3549 0.7450
C101 C -0.0879(5) 0.32367(14) 0.73506(16)
H130 H -0.0410 0.3428 0.7543
C102 C -0.0445(4) 0.28899(13) 0.71226(15)
C103 C -0.3061(4) 0.23431(15) 0.65508(19)
H131 H -0.2706 0.2066 0.6615
C104 C -0.3249(6) 0.2403(2) 0.5969(2)
H132 H -0.2553 0.2411 0.5826
H133 H -0.3679 0.2171 0.5813
H134 H -0.3635 0.2665 0.5891
C105 C -0.4132(5) 0.2328(2) 0.6785(3)
H135 H -0.3995 0.2290 0.7161
H136 H -0.4522 0.2590 0.6711
H137 H -0.4566 0.2096 0.6633
C106 C 0.0746(4) 0.28069(14) 0.71942(16)
H138 H 0.0893 0.2562 0.6975
C107 C 0.1386(5) 0.31742(17) 0.7022(2)
H139 H 0.2158 0.3109 0.7074
H140 H 0.1172 0.3231 0.6654
H141 H 0.1241 0.3420 0.7227
C108 C 0.1104(5) 0.2697(2) 0.7761(2)
H142 H 0.1882 0.2643 0.7804
H143 H 0.0940 0.2929 0.7984
H144 H 0.0719 0.2448 0.7857
loop_
_geom_bond_atom_site_label_1
_geom_bond_atom_site_label_2
_geom_bond_site_symmetry_1
_geom_bond_site_symmetry_2
N1 C1 1_555 1_555
N2 C1 1_555 1_555
N3 N4 1_555 1_555
N4 N5 1_555 1_555
N5 C28 1_555 1_555
N6 C28 1_555 1_555
N7 C28 1_555 1_555
C1 N3 1_555 1_555
C2 N1 1_555 1_555
H1 C2 1_555 1_555
C3 N2 1_555 1_555
H2 C3 1_555 1_555
C4 N1 1_555 1_555
C5 C4 1_555 1_555
C6 C5 1_555 1_555
H3 C6 1_555 1_555
C7 C6 1_555 1_555
H4 C7 1_555 1_555
C8 C7 1_555 1_555
H5 C8 1_555 1_555
C9 C4 1_555 1_555
C10 C5 1_555 1_555
H6 C10 1_555 1_555
C11 C10 1_555 1_555
H7 C11 1_555 1_555
H8 C11 1_555 1_555
H9 C11 1_555 1_555
C12 C10 1_555 1_555
H10 C12 1_555 1_555
H11 C12 1_555 1_555
H12 C12 1_555 1_555
C13 C9 1_555 1_555
H13 C13 1_555 1_555
C14 C13 1_555 1_555
H14 C14 1_555 1_555
H15 C14 1_555 1_555
H16 C14 1_555 1_555
C15 C13 1_555 1_555
H17 C15 1_555 1_555
H18 C15 1_555 1_555
H19 C15 1_555 1_555
C16 N2 1_555 1_555
C17 C16 1_555 1_555
C18 C17 1_555 1_555
H20 C18 1_555 1_555
C19 C18 1_555 1_555
H21 C19 1_555 1_555
C20 C19 1_555 1_555
H22 C20 1_555 1_555
C21 C16 1_555 1_555
C22 C17 1_555 1_555
H23 C22 1_555 1_555
C23 C22 1_555 1_555
H24 C23 1_555 1_555
H25 C23 1_555 1_555
H26 C23 1_555 1_555
C24 C22 1_555 1_555
H27 C24 1_555 1_555
H28 C24 1_555 1_555
H29 C24 1_555 1_555
C25 C21 1_555 1_555
H30 C25 1_555 1_555
C26 C25 1_555 1_555
H31 C26 1_555 1_555
H32 C26 1_555 1_555
H33 C26 1_555 1_555
C27 C25 1_555 1_555
H34 C27 1_555 1_555
H35 C27 1_555 1_555
H36 C27 1_555 1_555
C29 N6 1_555 1_555
H37 C29 1_555 1_555
C30 N7 1_555 1_555
H38 C30 1_555 1_555
C31 N6 1_555 1_555
C32 C31 1_555 1_555
C33 C32 1_555 1_555
H39 C33 1_555 1_555
C34 C33 1_555 1_555
H40 C34 1_555 1_555
C35 C34 1_555 1_555
H41 C35 1_555 1_555
C36 C31 1_555 1_555
C37 C32 1_555 1_555
H42 C37 1_555 1_555
C38 C37 1_555 1_555
H43 C38 1_555 1_555
H44 C38 1_555 1_555
H45 C38 1_555 1_555
C39 C37 1_555 1_555
H46 C39 1_555 1_555
H47 C39 1_555 1_555
H48 C39 1_555 1_555
C40 C36 1_555 1_555
H49 C40 1_555 1_555
C41 C40 1_555 1_555
H50 C41 1_555 1_555
H51 C41 1_555 1_555
H52 C41 1_555 1_555
C42 C40 1_555 1_555
H53 C42 1_555 1_555
H54 C42 1_555 1_555
H55 C42 1_555 1_555
C43 N7 1_555 1_555
C44 C43 1_555 1_555
C45 C44 1_555 1_555
H56 C45 1_555 1_555
C46 C45 1_555 1_555
H57 C46 1_555 1_555
C47 C46 1_555 1_555
H58 C47 1_555 1_555
C48 C43 1_555 1_555
C49 C44 1_555 1_555
H59 C49 1_555 1_555
C50 C49 1_555 1_555
H60 C50 1_555 1_555
H61 C50 1_555 1_555
H62 C50 1_555 1_555
C51 C49 1_555 1_555
H63 C51 1_555 1_555
H64 C51 1_555 1_555
H65 C51 1_555 1_555
C52 C48 1_555 1_555
H66 C52 1_555 1_555
C53 C52 1_555 1_555
H67 C53 1_555 1_555
H68 C53 1_555 1_555
H69 C53 1_555 1_555
C54 C52 1_555 1_555
H70 C54 1_555 1_555
H71 C54 1_555 1_555
H72 C54 1_555 1_555
N8 C55 1_555 1_555
N9 C55 1_555 1_555
N10 N11 1_555 1_555
N11 N12 1_555 1_555
N12 C82 1_555 1_555
N13 C82 1_555 1_555
N14 C82 1_555 1_555
C55 N10 1_555 1_555
C56 N8 1_555 1_555
H73 C56 1_555 1_555
C57 N9 1_555 1_555
H74 C57 1_555 1_555
C58 N8 1_555 1_555
C59 C58 1_555 1_555
C60 C59 1_555 1_555
H75 C60 1_555 1_555
C61 C60 1_555 1_555
H76 C61 1_555 1_555
C62 C61 1_555 1_555
H77 C62 1_555 1_555
C63 C58 1_555 1_555
C64 C59 1_555 1_555
H78 C64 1_555 1_555
C65 C64 1_555 1_555
H79 C65 1_555 1_555
H80 C65 1_555 1_555
H81 C65 1_555 1_555
C66 C64 1_555 1_555
H82 C66 1_555 1_555
H83 C66 1_555 1_555
H84 C66 1_555 1_555
C67 C63 1_555 1_555
H85 C67 1_555 1_555
C68 C67 1_555 1_555
H86 C68 1_555 1_555
H87 C68 1_555 1_555
H88 C68 1_555 1_555
C69 C67 1_555 1_555
H89 C69 1_555 1_555
H90 C69 1_555 1_555
H91 C69 1_555 1_555
C70 N9 1_555 1_555
C71 C70 1_555 1_555
C72 C71 1_555 1_555
H92 C72 1_555 1_555
C73 C72 1_555 1_555
H93 C73 1_555 1_555
C74 C73 1_555 1_555
H94 C74 1_555 1_555
C75 C70 1_555 1_555
C76 C71 1_555 1_555
H95 C76 1_555 1_555
C77 C76 1_555 1_555
H96 C77 1_555 1_555
H97 C77 1_555 1_555
H98 C77 1_555 1_555
C78 C76 1_555 1_555
H99 C78 1_555 1_555
H100 C78 1_555 1_555
H101 C78 1_555 1_555
C79 C75 1_555 1_555
H102 C79 1_555 1_555
C80 C79 1_555 1_555
H103 C80 1_555 1_555
H104 C80 1_555 1_555
H105 C80 1_555 1_555
C81 C79 1_555 1_555
H106 C81 1_555 1_555
H107 C81 1_555 1_555
H108 C81 1_555 1_555
C83 N13 1_555 1_555
H109 C83 1_555 1_555
C84 N14 1_555 1_555
H110 C84 1_555 1_555
C85 N13 1_555 1_555
C86 C85 1_555 1_555
C87 C86 1_555 1_555
H111 C87 1_555 1_555
C88 C87 1_555 1_555
H112 C88 1_555 1_555
C89 C88 1_555 1_555
H113 C89 1_555 1_555
C90 C85 1_555 1_555
C91 C86 1_555 1_555
H114 C91 1_555 1_555
C92 C91 1_555 1_555
H115 C92 1_555 1_555
H116 C92 1_555 1_555
H117 C92 1_555 1_555
C93 C91 1_555 1_555
H118 C93 1_555 1_555
H119 C93 1_555 1_555
H120 C93 1_555 1_555
C94 C90 1_555 1_555
H121 C94 1_555 1_555
C95 C94 1_555 1_555
H122 C95 1_555 1_555
H123 C95 1_555 1_555
H124 C95 1_555 1_555
C96 C94 1_555 1_555
H125 C96 1_555 1_555
H126 C96 1_555 1_555
H127 C96 1_555 1_555
C97 N14 1_555 1_555
C98 C97 1_555 1_555
C99 C98 1_555 1_555
H128 C99 1_555 1_555
C100 C99 1_555 1_555
H129 C100 1_555 1_555
C101 C100 1_555 1_555
H130 C101 1_555 1_555
C102 C97 1_555 1_555
C103 C98 1_555 1_555
H131 C103 1_555 1_555
C104 C103 1_555 1_555
H132 C104 1_555 1_555
H133 C104 1_555 1_555
H134 C104 1_555 1_555
C105 C103 1_555 1_555
H135 C105 1_555 1_555
H136 C105 1_555 1_555
H137 C105 1_555 1_555
C106 C102 1_555 1_555
H138 C106 1_555 1_555
C107 C106 1_555 1_555
H139 C107 1_555 1_555
H140 C107 1_555 1_555
H141 C107 1_555 1_555
C108 C106 1_555 1_555
H142 C108 1_555 1_555
H143 C108 1_555 1_555
H144 C108 1_555 1_555
C2 C3 1_555 1_555
C8 C9 1_555 1_555
C20 C21 1_555 1_555
C29 C30 1_555 1_555
C35 C36 1_555 1_555
C47 C48 1_555 1_555
C56 C57 1_555 1_555
C62 C63 1_555 1_555
C74 C75 1_555 1_555
C83 C84 1_555 1_555
C89 C90 1_555 1_555
C101 C102 1_555 1_555

#END
