
#######################################################################
#
#                 Cambridge Crystallographic Data Centre
#                                CCDC 
#
#######################################################################
#
# If this CIF has been generated from an entry in the Cambridge 
# Structural Database, then it will include bibliographic, chemical, 
# crystal, experimental, refinement or atomic coordinate data resulting 
# from the CCDC's data processing and validation procedures.
#
#######################################################################

data_GENHOX
_chemical_formula_moiety         'C37 H46 N6 O12'
_chemical_name_systematic        
tris(5-Nitro-2-(butylamidomethoxy)phenyl)methane
_symmetry_cell_setting           monoclinic
_symmetry_space_group_name_H-M   'P 21/n'
_symmetry_Int_Tables_number      14
_space_group_name_Hall           '-P 2yn'
loop_
_symmetry_equiv_pos_site_id
_symmetry_equiv_pos_as_xyz
1 x,y,z
2 1/2-x,1/2+y,1/2-z
3 -x,-y,-z
4 1/2+x,1/2-y,1/2+z
_cell_length_a                   13.1120(7)
_cell_length_b                   16.6088(9)
_cell_length_c                   18.4861(10)
_cell_angle_alpha                90
_cell_angle_beta                 108.5200(10)
_cell_angle_gamma                90
_cell_volume                     3817.32
_exptl_crystal_colour            colorless
_exptl_crystal_description       plate
_cell_formula_units_Z            4
loop_
_atom_site_label
_atom_site_type_symbol
_atom_site_fract_x
_atom_site_fract_y
_atom_site_fract_z
C1 C 0.18562(13) 0.26550(9) 0.48192(9)
H1 H 0.2427 0.2640 0.4574
C2 C 0.17039(13) 0.35367(9) 0.49819(9)
C3 C 0.17634(13) 0.41210(10) 0.44464(9)
C4 C 0.16405(14) 0.49344(10) 0.45710(9)
H2 H 0.1719 0.5318 0.4219
C5 C 0.14028(13) 0.51768(10) 0.52109(9)
H3 H 0.1304 0.5725 0.5296
C6 C 0.13117(13) 0.46029(10) 0.57234(9)
C7 C 0.14793(13) 0.37915(10) 0.56257(9)
H4 H 0.1440 0.3416 0.5997
N1 N 0.10241(12) 0.48533(10) 0.63925(8)
O1 O 0.10707(14) 0.43593(8) 0.68879(8)
O2 O 0.07335(11) 0.55552(8) 0.64219(7)
O3 O 0.19483(10) 0.38246(6) 0.38093(6)
C8 C 0.17582(15) 0.43394(10) 0.31626(9)
H5 H 0.2247 0.4802 0.3295
H6 H 0.1018 0.4542 0.3014
C9 C 0.19328(14) 0.38890(11) 0.25036(10)
O4 O 0.16149(11) 0.42019(7) 0.18655(7)
N2 N 0.24451(12) 0.31914(9) 0.26457(8)
H7 H 0.2591 0.2989 0.3101
C10 C 0.27806(15) 0.27421(11) 0.20781(10)
H8 H 0.2363 0.2928 0.1567
H9 H 0.2624 0.2169 0.2115
C11 C 0.39694(15) 0.28433(12) 0.21859(11)
H10 H 0.4378 0.2783 0.2728
H11 H 0.4097 0.3388 0.2030
C12 C 0.43730(17) 0.22298(14) 0.17241(12)
H12 H 0.5152 0.2296 0.1846
H13 H 0.4244 0.1688 0.1886
C13 C 0.38699(18) 0.22884(14) 0.08826(12)
H14 H 0.3113 0.2152 0.0747
H15 H 0.4224 0.1917 0.0634
H16 H 0.3945 0.2834 0.0718
C14 C 0.22669(14) 0.21552(9) 0.55443(9)
C15 C 0.33708(15) 0.21558(10) 0.59493(10)
C16 C 0.37732(16) 0.16960(12) 0.66077(11)
H17 H 0.4514 0.1702 0.6877
C17 C 0.30953(17) 0.12349(11) 0.68655(11)
H18 H 0.3366 0.0920 0.7308
C18 C 0.20200(15) 0.12394(10) 0.64713(10)
C19 C 0.15995(15) 0.16908(10) 0.58152(9)
H19 H 0.0856 0.1680 0.5554
N3 N 0.12984(16) 0.07457(10) 0.67480(10)
O5 O 0.03391(13) 0.07557(9) 0.63962(9)
O6 O 0.16866(13) 0.03378(9) 0.73215(8)
O7 O 0.39917(9) 0.26230(7) 0.56535(7)
C20 C 0.51161(15) 0.26850(12) 0.60667(11)
H20 H 0.5448 0.2150 0.6128
H21 H 0.5217 0.2909 0.6575
C21 C 0.56412(16) 0.32293(12) 0.56269(12)
O8 O 0.63714(11) 0.36812(8) 0.59829(8)
N4 N 0.52839(14) 0.31550(10) 0.48762(10)
H22 H 0.4839 0.2765 0.4680
C22 C 0.55976(16) 0.36948(13) 0.43586(12)
H23 H 0.5751 0.3379 0.3957
H24 H 0.6253 0.3986 0.4641
C23 C 0.47041(16) 0.42909(12) 0.40010(11)
H25 H 0.4598 0.4629 0.4406
H26 H 0.4036 0.3991 0.3769
C24 C 0.49028(17) 0.48360(13) 0.33976(11)
H27 H 0.4984 0.4503 0.2981
H28 H 0.4275 0.5184 0.3186
C25 C 0.58839(16) 0.53500(12) 0.37067(11)
H29 H 0.5853 0.5627 0.4161
H30 H 0.5913 0.5743 0.3325
H31 H 0.6521 0.5014 0.3834
C26 C 0.08574(13) 0.22908(9) 0.42482(9)
C27 C 0.09887(14) 0.16060(10) 0.38438(10)
C28 C 0.01206(16) 0.12473(11) 0.33023(10)
H32 H 0.0225 0.0785 0.3041
C29 C -0.08897(16) 0.15699(11) 0.31500(10)
H33 H -0.1482 0.1339 0.2778
C30 C -0.10183(14) 0.22370(10) 0.35508(10)
C31 C -0.01638(14) 0.26000(10) 0.40926(9)
H34 H -0.0280 0.3058 0.4355
N5 N -0.20989(13) 0.25744(10) 0.33985(10)
O9 O -0.22381(11) 0.30850(9) 0.38332(9)
O10 O -0.28188(12) 0.23250(10) 0.28468(9)
O11 O 0.20081(10) 0.13144(7) 0.40496(7)
C32 C 0.24066(16) 0.09758(12) 0.34843(12)
H35 H 0.1949 0.1129 0.2972
H36 H 0.2426 0.0387 0.3521
C33 C 0.35282(16) 0.13105(12) 0.36422(11)
O12 O 0.37199(11) 0.20232(8) 0.38258(8)
N6 N 0.4253(3) 0.0794(8) 0.3533(5)
H37 H 0.4062 0.0296 0.3417
C34 C 0.5344(4) 0.1034(6) 0.3601(4)
H38 H 0.5406 0.1621 0.3655
H39 H 0.5503 0.0883 0.3136
C35 C 0.6156(3) 0.0638(3) 0.4286(3)
H40 H 0.6063 0.0053 0.4246
H41 H 0.6020 0.0814 0.4753
C36 C 0.7309(3) 0.0850(3) 0.4338(3)
H42 H 0.7439 0.0680 0.3867
H43 H 0.7400 0.1435 0.4380
C37 C 0.8135(4) 0.0455(4) 0.5013(3)
H44 H 0.8046 0.0652 0.5483
H45 H 0.8853 0.0584 0.5005
H46 H 0.8035 -0.0124 0.4983
N7? N 0.4236(4) 0.0785(15) 0.3573(10)
H47? H 0.3996 0.0317 0.3383
C38? C 0.5397(7) 0.0918(14) 0.3787(7)
H48? H 0.5528 0.1471 0.3655
H49? H 0.5698 0.0554 0.3490
C39? C 0.5975(6) 0.0782(7) 0.4629(5)
H50? H 0.5938 0.0208 0.4739
H51? H 0.5589 0.1075 0.4922
C40? C 0.7144(5) 0.1041(4) 0.4907(5)
H52? H 0.7187 0.1606 0.4768
H53? H 0.7405 0.1007 0.5465
C41? C 0.7877(9) 0.0553(7) 0.4596(6)
H54? H 0.7964 0.0019 0.4820
H55? H 0.8573 0.0815 0.4723
H56? H 0.7568 0.0511 0.4047
loop_
_geom_bond_atom_site_label_1
_geom_bond_atom_site_label_2
_geom_bond_site_symmetry_1
_geom_bond_site_symmetry_2
C1 H1 1_555 1_555
C2 C1 1_555 1_555
C3 C2 1_555 1_555
C4 C3 1_555 1_555
H2 C4 1_555 1_555
C5 C4 1_555 1_555
H3 C5 1_555 1_555
C6 C5 1_555 1_555
C7 C2 1_555 1_555
H4 C7 1_555 1_555
N1 C6 1_555 1_555
O1 N1 1_555 1_555
O2 N1 1_555 1_555
O3 C3 1_555 1_555
C8 O3 1_555 1_555
H5 C8 1_555 1_555
H6 C8 1_555 1_555
C9 C8 1_555 1_555
O4 C9 1_555 1_555
N2 C9 1_555 1_555
H7 N2 1_555 1_555
C10 N2 1_555 1_555
H8 C10 1_555 1_555
H9 C10 1_555 1_555
C11 C10 1_555 1_555
H10 C11 1_555 1_555
H11 C11 1_555 1_555
C12 C11 1_555 1_555
H12 C12 1_555 1_555
H13 C12 1_555 1_555
C13 C12 1_555 1_555
H14 C13 1_555 1_555
H15 C13 1_555 1_555
H16 C13 1_555 1_555
C14 C1 1_555 1_555
C15 C14 1_555 1_555
C16 C15 1_555 1_555
H17 C16 1_555 1_555
C17 C16 1_555 1_555
H18 C17 1_555 1_555
C18 C17 1_555 1_555
C19 C14 1_555 1_555
H19 C19 1_555 1_555
N3 C18 1_555 1_555
O5 N3 1_555 1_555
O6 N3 1_555 1_555
O7 C15 1_555 1_555
C20 O7 1_555 1_555
H20 C20 1_555 1_555
H21 C20 1_555 1_555
C21 C20 1_555 1_555
O8 C21 1_555 1_555
N4 C21 1_555 1_555
H22 N4 1_555 1_555
C22 N4 1_555 1_555
H23 C22 1_555 1_555
H24 C22 1_555 1_555
C23 C22 1_555 1_555
H25 C23 1_555 1_555
H26 C23 1_555 1_555
C24 C23 1_555 1_555
H27 C24 1_555 1_555
H28 C24 1_555 1_555
C25 C24 1_555 1_555
H29 C25 1_555 1_555
H30 C25 1_555 1_555
H31 C25 1_555 1_555
C26 C1 1_555 1_555
C27 C26 1_555 1_555
C28 C27 1_555 1_555
H32 C28 1_555 1_555
C29 C28 1_555 1_555
H33 C29 1_555 1_555
C30 C29 1_555 1_555
C31 C26 1_555 1_555
H34 C31 1_555 1_555
N5 C30 1_555 1_555
O9 N5 1_555 1_555
O10 N5 1_555 1_555
O11 C27 1_555 1_555
C32 O11 1_555 1_555
H35 C32 1_555 1_555
H36 C32 1_555 1_555
C33 C32 1_555 1_555
O12 C33 1_555 1_555
N6 C33 1_555 1_555
H37 N6 1_555 1_555
C34 N6 1_555 1_555
H38 C34 1_555 1_555
H39 C34 1_555 1_555
C35 C34 1_555 1_555
H40 C35 1_555 1_555
H41 C35 1_555 1_555
C36 C35 1_555 1_555
H42 C36 1_555 1_555
H43 C36 1_555 1_555
C37 C36 1_555 1_555
H44 C37 1_555 1_555
H45 C37 1_555 1_555
H46 C37 1_555 1_555
C6 C7 1_555 1_555
C18 C19 1_555 1_555
C30 C31 1_555 1_555

#END
