
#######################################################################
#
#                 Cambridge Crystallographic Data Centre
#                                CCDC 
#
#######################################################################
#
# If this CIF has been generated from an entry in the Cambridge 
# Structural Database, then it will include bibliographic, chemical, 
# crystal, experimental, refinement or atomic coordinate data resulting 
# from the CCDC's data processing and validation procedures.
#
#######################################################################

data_GENLOB
_chemical_formula_moiety         '2(C7 H6 Cl1 N1 O1),C10 H18 O4'
_chemical_name_systematic        'bis(4-Chlorobenzamide) sebacic acid'
_symmetry_cell_setting           triclinic
_symmetry_space_group_name_H-M   'P -1'
_symmetry_Int_Tables_number      2
_space_group_name_Hall           '-P 1'
loop_
_symmetry_equiv_pos_site_id
_symmetry_equiv_pos_as_xyz
1 x,y,z
2 -x,-y,-z
_cell_length_a                   5.0843(3)
_cell_length_b                   8.3131(5)
_cell_length_c                   15.9637(8)
_cell_angle_alpha                77.760(3)
_cell_angle_beta                 89.771(3)
_cell_angle_gamma                74.353(3)
_cell_volume                     633.938
_exptl_crystal_colour            colorless
_cell_formula_units_Z            1
loop_
_atom_site_label
_atom_site_type_symbol
_atom_site_fract_x
_atom_site_fract_y
_atom_site_fract_z
Cl1 Cl 0.64417(11) 0.41824(6) 0.90511(3)
O1 O 0.3513(2) 0.2880(2) 0.52364(7)
N1 N 0.8086(3) 0.2036(2) 0.51817(9)
H1 H 0.7964(3) 0.1779(2) 0.46788(9)
H2 H 0.9703(3) 0.1886(2) 0.54298(9)
C1 C 0.6119(3) 0.3059(2) 0.64198(9)
C2 C 0.8459(3) 0.2318(2) 0.69622(10)
H3 H 1.0002(3) 0.1567(2) 0.67788(10)
C3 C 0.8542(3) 0.2671(2) 0.77685(10)
H4 H 1.0134(3) 0.2154(2) 0.81420(10)
C4 C 0.6316(4) 0.3772(2) 0.80280(10)
C5 C 0.3995(4) 0.4549(2) 0.74935(11)
H5 H 0.2484(4) 0.5329(2) 0.76738(11)
C6 C 0.3895(3) 0.4178(2) 0.66919(11)
H6 H 0.2292(3) 0.4693(2) 0.63236(11)
C7 C 0.5841(3) 0.2648(2) 0.55644(10)
O2 O 0.6337(2) 0.1126(2) 0.35499(7)
O3 O 0.2155(2) 0.2736(2) 0.36997(8)
H7 H 0.2843(40) 0.2741(24) 0.4211(13)
C8 C 0.4000(3) 0.1834(2) 0.32724(10)
C9 C 0.2862(3) 0.1814(2) 0.24128(10)
H8 H 0.2137(3) 0.3012(2) 0.20885(10)
H9 H 0.1305(3) 0.1305(2) 0.25004(10)
C10 C 0.4875(3) 0.0839(2) 0.18709(10)
H10 H 0.5509(3) -0.0379(2) 0.21719(10)
H11 H 0.6488(3) 0.1298(2) 0.18067(10)
C11 C 0.3653(3) 0.0958(2) 0.09873(10)
H12 H 0.3053(3) 0.2177(2) 0.06839(10)
H13 H 0.2012(3) 0.0527(2) 0.10539(10)
C12 C 0.5618(3) -0.0044(2) 0.04387(10)
H14 H 0.7241(3) 0.0404(2) 0.03621(10)
H15 H 0.6248(3) -0.1257(2) 0.07479(10)
O2A O 0.3663(2) -0.1126(2) -0.35499(7)
O3A O 0.7845(2) -0.2736(2) -0.36997(8)
H7A H 0.7157(40) -0.2741(24) -0.4211(13)
C8A C 0.6000(3) -0.1834(2) -0.32724(10)
C9A C 0.7138(3) -0.1814(2) -0.24128(10)
H8A H 0.7863(3) -0.3012(2) -0.20885(10)
H9A H 0.8695(3) -0.1305(2) -0.25004(10)
C10A C 0.5125(3) -0.0839(2) -0.18709(10)
H10A H 0.4491(3) 0.0379(2) -0.21719(10)
H11A H 0.3512(3) -0.1298(2) -0.18067(10)
C11A C 0.6347(3) -0.0958(2) -0.09873(10)
H12A H 0.6947(3) -0.2177(2) -0.06839(10)
H13A H 0.7988(3) -0.0527(2) -0.10539(10)
C12A C 0.4382(3) 0.0044(2) -0.04387(10)
H14A H 0.2759(3) -0.0404(2) -0.03621(10)
H15A H 0.3752(3) 0.1257(2) -0.07479(10)
loop_
_geom_bond_atom_site_label_1
_geom_bond_atom_site_label_2
_geom_bond_site_symmetry_1
_geom_bond_site_symmetry_2
Cl1 C4 1_555 1_555
O1 C7 1_555 1_555
N1 H1 1_555 1_555
H2 N1 1_555 1_555
C1 C2 1_555 1_555
C2 H3 1_555 1_555
C3 C2 1_555 1_555
H4 C3 1_555 1_555
C4 C3 1_555 1_555
C5 C4 1_555 1_555
H5 C5 1_555 1_555
C6 C1 1_555 1_555
H6 C6 1_555 1_555
C7 N1 1_555 1_555
O2 C8 1_555 1_555
O3 H7 1_555 1_555
C8 O3 1_555 1_555
C9 C8 1_555 1_555
H8 C9 1_555 1_555
H9 C9 1_555 1_555
C10 C9 1_555 1_555
H10 C10 1_555 1_555
H11 C10 1_555 1_555
C11 C10 1_555 1_555
H12 C11 1_555 1_555
H13 C11 1_555 1_555
C12 C11 1_555 1_555
H14 C12 1_555 1_555
H15 C12 1_555 1_555
O2A C8A 1_555 1_555
O3A H7A 1_555 1_555
C8A O3A 1_555 1_555
C9A C8A 1_555 1_555
H8A C9A 1_555 1_555
H9A C9A 1_555 1_555
C10A C9A 1_555 1_555
H10A C10A 1_555 1_555
H11A C10A 1_555 1_555
C11A C10A 1_555 1_555
H12A C11A 1_555 1_555
H13A C11A 1_555 1_555
C12A C12 1_555 1_555
H14A C12A 1_555 1_555
H15A C12A 1_555 1_555
C1 C7 1_555 1_555
C5 C6 1_555 1_555
C11A C12A 1_555 1_555

#END
