
#######################################################################
#
#                 Cambridge Crystallographic Data Centre
#                                CCDC 
#
#######################################################################
#
# If this CIF has been generated from an entry in the Cambridge 
# Structural Database, then it will include bibliographic, chemical, 
# crystal, experimental, refinement or atomic coordinate data resulting 
# from the CCDC's data processing and validation procedures.
#
#######################################################################

data_GENLIV
_chemical_formula_moiety         '2(C7 H6 Cl1 N1 O1),C2 H2 O4'
_chemical_name_systematic        'bis(4-Chlorobenzamide) oxalic acid'
_symmetry_cell_setting           triclinic
_symmetry_space_group_name_H-M   'P -1'
_symmetry_Int_Tables_number      2
_space_group_name_Hall           '-P 1'
loop_
_symmetry_equiv_pos_site_id
_symmetry_equiv_pos_as_xyz
1 x,y,z
2 -x,-y,-z
_cell_length_a                   3.7440(10)
_cell_length_b                   6.0320(10)
_cell_length_c                   18.631(2)
_cell_angle_alpha                97.660(10)
_cell_angle_beta                 92.280(10)
_cell_angle_gamma                90.470(10)
_cell_volume                     416.635
_exptl_crystal_colour            colorless
_cell_formula_units_Z            1
loop_
_atom_site_label
_atom_site_type_symbol
_atom_site_fract_x
_atom_site_fract_y
_atom_site_fract_z
Cl1 Cl 0.6343(2) 0.30966(10) 0.05292(3)
N1 N 1.0033(5) -0.0071(3) 0.38115(9)
H1 H 1.0700(5) -0.0671(3) 0.41999(9)
H2 H 0.8875(5) 0.1201(3) 0.38562(9)
C1 C 0.9643(5) -0.0011(3) 0.25167(10)
O1 O 1.2414(4) -0.2889(2) 0.30818(7)
C2 C 0.8162(5) 0.2118(3) 0.25769(11)
H3 H 0.7853(5) 0.2923(3) 0.30439(11)
C3 C 0.7139(5) 0.3072(3) 0.19693(12)
H4 H 0.6122(5) 0.4519(3) 0.20144(12)
C4 C 0.7618(5) 0.1888(3) 0.12957(11)
C5 C 0.9078(5) -0.0230(3) 0.12129(11)
H5 H 0.9380(5) -0.1022(3) 0.07438(11)
C6 C 1.0088(5) -0.1172(3) 0.18289(11)
H6 H 1.1094(5) -0.2622(3) 0.17811(11)
C7 C 1.0765(5) -0.1072(3) 0.31649(11)
O2 O 1.4851(4) -0.4967(2) 0.40646(8)
H7 H 1.3723(62) -0.3985(42) 0.3737(14)
O3 O 1.2420(4) -0.2646(3) 0.49425(8)
C8 C 1.4178(5) -0.4264(3) 0.47318(11)
O2A O 1.5149(4) -0.5033(2) 0.59354(8)
H7A H 1.6277(62) -0.6015(42) 0.6263(14)
O3A O 1.7580(4) -0.7354(3) 0.50575(8)
C8A C 1.5822(5) -0.5736(3) 0.52682(11)
loop_
_geom_bond_atom_site_label_1
_geom_bond_atom_site_label_2
_geom_bond_site_symmetry_1
_geom_bond_site_symmetry_2
Cl1 C4 1_555 1_555
N1 H1 1_555 1_555
H2 N1 1_555 1_555
C1 C2 1_555 1_555
O1 C7 1_555 1_555
C2 H3 1_555 1_555
C3 C2 1_555 1_555
H4 C3 1_555 1_555
C4 C3 1_555 1_555
C5 C4 1_555 1_555
H5 C5 1_555 1_555
C6 C1 1_555 1_555
H6 C6 1_555 1_555
C7 N1 1_555 1_555
O2 H7 1_555 1_555
O3 C8 1_555 1_555
C8 O2 1_555 1_555
O2A H7A 1_555 1_555
O3A C8A 1_555 1_555
C8A C8 1_555 1_555
C1 C7 1_555 1_555
C5 C6 1_555 1_555
O2A C8A 1_555 1_555

#END
