
#######################################################################
#
#                 Cambridge Crystallographic Data Centre
#                                CCDC 
#
#######################################################################
#
# If this CIF has been generated from an entry in the Cambridge 
# Structural Database, then it will include bibliographic, chemical, 
# crystal, experimental, refinement or atomic coordinate data resulting 
# from the CCDC's data processing and validation procedures.
#
#######################################################################

data_GENLUH
_chemical_formula_moiety         '2(C8 H9 N1 O1),C2 H2 O4'
_chemical_name_systematic        'bis(4-Methylbenzamide) oxalic acid'
_symmetry_cell_setting           monoclinic
_symmetry_space_group_name_H-M   'P 21/c'
_symmetry_Int_Tables_number      14
_space_group_name_Hall           '-P 2ybc'
loop_
_symmetry_equiv_pos_site_id
_symmetry_equiv_pos_as_xyz
1 x,y,z
2 -x,1/2+y,1/2-z
3 -x,-y,-z
4 x,1/2-y,1/2+z
_cell_length_a                   9.2224(4)
_cell_length_b                   10.0926(5)
_cell_length_c                   10.0772(5)
_cell_angle_alpha                90
_cell_angle_beta                 113.116(3)
_cell_angle_gamma                90
_cell_volume                     862.658
_exptl_crystal_colour            colorless
_cell_formula_units_Z            2
loop_
_atom_site_label
_atom_site_type_symbol
_atom_site_fract_x
_atom_site_fract_y
_atom_site_fract_z
O1 O 0.17945(14) -0.07128(12) 1.19269(14)
N1 N 0.1279(2) 0.14430(15) 1.1316(2)
H1 H 0.0936(2) 0.15504(15) 1.2010(2)
H2 H 0.1279(2) 0.21157(15) 1.0760(2)
C1 C 0.1789(2) 0.0286(2) 1.1112(2)
C2 C 0.2409(2) 0.0164(2) 0.9892(2)
C3 C 0.3019(2) 0.1246(2) 0.9439(2)
H3 H 0.3047(2) 0.2091(2) 0.9862(2)
C4 C 0.3610(2) 0.1081(2) 0.8324(2)
H4 H 0.4040(2) 0.1834(2) 0.8043(2)
C5 C 0.3589(2) -0.0137(2) 0.7620(2)
C6 C 0.2974(2) -0.1211(2) 0.8076(2)
H5 H 0.2929(2) -0.2053(2) 0.7638(2)
C7 C 0.2399(2) -0.1065(2) 0.9213(2)
H6 H 0.2000(2) -0.1823(2) 0.9515(2)
C8 C 0.4228(2) -0.0285(2) 0.6396(2)
H7 H 0.4191(16) -0.1219(3) 0.6119(11)
H8 H 0.5319(6) 0.0032(13) 0.6748(5)
H9 H 0.3574(10) 0.0240(11) 0.5556(6)
O2 O -0.04699(13) 0.09471(12) 0.63080(14)
H10 H -0.0995(22) 0.0730(21) 0.7104(20)
O3 O -0.08058(14) -0.12150(12) 0.57354(14)
C9 C -0.0373(2) -0.0117(2) 0.5578(2)
O2B O 0.04699(13) -0.09471(12) 0.36920(14)
H10B H 0.0995(22) -0.0730(21) 0.2896(20)
O3B O 0.08058(14) 0.12150(12) 0.42646(14)
C9B C 0.0373(2) 0.0117(2) 0.4422(2)
loop_
_geom_bond_atom_site_label_1
_geom_bond_atom_site_label_2
_geom_bond_site_symmetry_1
_geom_bond_site_symmetry_2
O1 C1 1_555 1_555
N1 H1 1_555 1_555
H2 N1 1_555 1_555
C1 N1 1_555 1_555
C2 C1 1_555 1_555
C3 C2 1_555 1_555
H3 C3 1_555 1_555
C4 C3 1_555 1_555
H4 C4 1_555 1_555
C5 C4 1_555 1_555
C6 C5 1_555 1_555
H5 C6 1_555 1_555
C7 C2 1_555 1_555
H6 C7 1_555 1_555
C8 C5 1_555 1_555
H7 C8 1_555 1_555
H8 C8 1_555 1_555
H9 C8 1_555 1_555
O2 H10 1_555 1_555
O3 C9 1_555 1_555
C9 O2 1_555 1_555
O2B H10B 1_555 1_555
O3B C9B 1_555 1_555
C9B C9 1_555 1_555
C6 C7 1_555 1_555
O2B C9B 1_555 1_555

#END
