
#######################################################################
#
#                 Cambridge Crystallographic Data Centre
#                                CCDC 
#
#######################################################################
#
# If this CIF has been generated from an entry in the Cambridge 
# Structural Database, then it will include bibliographic, chemical, 
# crystal, experimental, refinement or atomic coordinate data resulting 
# from the CCDC's data processing and validation procedures.
#
#######################################################################

data_GENMAO
_chemical_formula_moiety         '2(C8 H9 N1 O1),C10 H18 O4'
_chemical_name_systematic        'bis(4-Methylbenzamide) sebacic acid'
_symmetry_cell_setting           monoclinic
_symmetry_space_group_name_H-M   'C 2/c'
_symmetry_Int_Tables_number      15
_space_group_name_Hall           '-C 2yn'
loop_
_symmetry_equiv_pos_site_id
_symmetry_equiv_pos_as_xyz
1 x,y,z
2 1/2+x,1/2+y,z
3 -x,y,1/2-z
4 1/2-x,1/2+y,1/2-z
5 -x,-y,-z
6 1/2-x,1/2-y,-z
7 x,-y,1/2+z
8 1/2+x,1/2-y,1/2+z
_cell_length_a                   36.856(2)
_cell_length_b                   5.1674(2)
_cell_length_c                   29.4327(18)
_cell_angle_alpha                90
_cell_angle_beta                 112.806(2)
_cell_angle_gamma                90
_cell_volume                     5167.23
_exptl_crystal_colour            colorless
_exptl_crystal_description       needle
_cell_formula_units_Z            8
loop_
_atom_site_label
_atom_site_type_symbol
_atom_site_fract_x
_atom_site_fract_y
_atom_site_fract_z
O1 O 0.55528(6) -0.5526(3) 0.42680(8)
H1 H 0.5286(8) -0.478(5) 0.4017(11)
O2 O 0.57551(5) -0.1847(3) 0.40543(8)
C1 C 0.58319(8) -0.3895(5) 0.42722(11)
C2 C 0.62388(8) -0.4830(4) 0.45689(11)
H2 H 0.6279 -0.6513 0.4435
H3 H 0.6264 -0.5123 0.4912
C3 C 0.65594(8) -0.2983(4) 0.45744(11)
H4 H 0.6524 -0.1319 0.4719
H5 H 0.6528 -0.2642 0.4230
C4 C 0.69738(7) -0.3957(5) 0.48608(10)
H6 H 0.7013 -0.5589 0.4710
H7 H 0.7004 -0.4345 0.5203
C5 C 0.72904(8) -0.2022(5) 0.48731(11)
H8 H 0.7246 -0.1543 0.4530
H9 H 0.7259 -0.0434 0.5042
O1E O 0.94472(6) 0.0526(3) 0.57320(8)
H1E H 0.9714(8) -0.022(5) 0.5983(11)
O2E O 0.92449(5) -0.3153(3) 0.59457(8)
C1E C 0.91681(8) -0.1105(5) 0.57278(11)
C2E C 0.87612(8) -0.0170(4) 0.54311(11)
H2E H 0.8721 0.1513 0.5565
H3E H 0.8736 0.0123 0.5088
C3E C 0.84406(8) -0.2017(4) 0.54256(11)
H4E H 0.8476 -0.3681 0.5281
H5E H 0.8472 -0.2358 0.5770
C4E C 0.80262(7) -0.1043(5) 0.51392(10)
H6E H 0.7987 0.0589 0.5290
H7E H 0.7996 -0.0655 0.4797
C5E C 0.77096(8) -0.2978(5) 0.51269(11)
H8E H 0.7754 -0.3457 0.5470
H9E H 0.7741 -0.4566 0.4958
O3 O 0.67612(5) 0.0912(3) 0.57532(8)
O4 O 0.69405(6) -0.2737(3) 0.61886(8)
H10 H 0.7248(8) -0.214(5) 0.6232(11)
C6 C 0.66750(8) -0.1090(5) 0.59027(10)
C7 C 0.62610(8) -0.1931(4) 0.57957(10)
H11 H 0.6223 -0.1986 0.6110
H12 H 0.6228 -0.3716 0.5664
C8 C 0.59417(7) -0.0257(4) 0.54374(10)
H13 H 0.5976 -0.0188 0.5120
H14 H 0.5967 0.1526 0.5569
C9 C 0.55311(8) -0.1283(5) 0.53475(11)
H15 H 0.5493 -0.2954 0.5170
H16 H 0.5514 -0.1618 0.5670
C10 C 0.52029(7) 0.0535(5) 0.50536(11)
H17 H 0.5234 0.2178 0.5238
H18 H 0.5227 0.0932 0.4738
O3D O 0.32388(5) -0.0912(3) 0.42468(8)
O4D O 0.30595(6) 0.2737(3) 0.38114(8)
H10D H 0.2752(8) 0.214(5) 0.3768(11)
C6D C 0.33250(8) 0.1090(5) 0.40973(10)
C7D C 0.37390(8) 0.1931(4) 0.42043(10)
H11D H 0.3777 0.1986 0.3890
H12D H 0.3772 0.3716 0.4336
C8D C 0.40583(7) 0.0257(4) 0.45626(10)
H13D H 0.4024 0.0188 0.4880
H14D H 0.4033 -0.1526 0.4431
C9D C 0.44689(8) 0.1283(5) 0.46525(11)
H15D H 0.4507 0.2954 0.4830
H16D H 0.4486 0.1618 0.4330
C10D C 0.47971(7) -0.0535(5) 0.49464(11)
H17D H 0.4766 -0.2178 0.4762
H18D H 0.4773 -0.0932 0.5262
O5 O 0.51851(5) 0.4221(3) 0.63147(7)
N1 N 0.50715(7) -0.0028(4) 0.63667(9)
H19 H 0.5173(8) -0.171(4) 0.6393(11)
H20 H 0.4791(6) 0.029(5) 0.6257(11)
C11 C 0.53158(8) 0.1973(4) 0.64328(10)
C12 C 0.57476(8) 0.1496(4) 0.66516(10)
C13 C 0.59166(8) -0.0577(4) 0.69656(10)
H21 H 0.5753 -0.1790 0.7039
C14 C 0.63179(9) -0.0872(5) 0.71691(10)
H22 H 0.6429 -0.2275 0.7388
C15 C 0.65645(8) 0.0827(5) 0.70630(11)
C16 C 0.63946(8) 0.2861(5) 0.67467(11)
H23 H 0.6558 0.4043 0.6666
C17 C 0.59934(8) 0.3201(4) 0.65477(10)
H24 H 0.5884 0.4629 0.6336
C18 C 0.70048(8) 0.0480(5) 0.72950(12)
H25 H 0.7103 0.1044 0.7640
H26 H 0.7128 0.1519 0.7116
H27 H 0.7070 -0.1350 0.7281
O6 O 0.73279(5) -0.3235(3) 0.36478(7)
N2 N 0.74171(7) -0.7510(4) 0.37941(10)
H28 H 0.7693(6) -0.722(5) 0.3940(11)
H29 H 0.7315(8) -0.919(4) 0.3758(11)
C19 C 0.71881(7) -0.5441(4) 0.36424(10)
C20 C 0.67555(7) -0.5776(4) 0.34619(9)
C21 C 0.65130(8) -0.3962(4) 0.31408(10)
H30 H 0.6626 -0.2544 0.3036
C22 C 0.61080(8) -0.4195(5) 0.29704(10)
H31 H 0.5947 -0.2959 0.2742
C23 C 0.59322(8) -0.6199(5) 0.31257(10)
C24 C 0.61767(8) -0.7989(5) 0.34535(11)
H32 H 0.6064 -0.9365 0.3569
C25 C 0.65814(8) -0.7802(4) 0.36140(10)
H33 H 0.6743 -0.9078 0.3831
C26 C 0.54910(8) -0.6396(6) 0.29461(12)
H34 H 0.5418 -0.8156 0.3002
H35 H 0.5373 -0.5998 0.2593
H36 H 0.5395 -0.5161 0.3127
loop_
_geom_bond_atom_site_label_1
_geom_bond_atom_site_label_2
_geom_bond_site_symmetry_1
_geom_bond_site_symmetry_2
O1 H1 1_555 1_555
O2 C1 1_555 1_555
C1 O1 1_555 1_555
C2 C1 1_555 1_555
H2 C2 1_555 1_555
H3 C2 1_555 1_555
C3 C2 1_555 1_555
H4 C3 1_555 1_555
H5 C3 1_555 1_555
C4 C3 1_555 1_555
H6 C4 1_555 1_555
H7 C4 1_555 1_555
C5 C4 1_555 1_555
H8 C5 1_555 1_555
H9 C5 1_555 1_555
O3 C6 1_555 1_555
O4 H10 1_555 1_555
C6 O4 1_555 1_555
C7 C6 1_555 1_555
H11 C7 1_555 1_555
H12 C7 1_555 1_555
C8 C7 1_555 1_555
H13 C8 1_555 1_555
H14 C8 1_555 1_555
C9 C8 1_555 1_555
H15 C9 1_555 1_555
H16 C9 1_555 1_555
C10 C9 1_555 1_555
H17 C10 1_555 1_555
H18 C10 1_555 1_555
O5 C11 1_555 1_555
N1 H19 1_555 1_555
H20 N1 1_555 1_555
C11 N1 1_555 1_555
C12 C11 1_555 1_555
C13 C12 1_555 1_555
H21 C13 1_555 1_555
C14 C13 1_555 1_555
H22 C14 1_555 1_555
C15 C14 1_555 1_555
C16 C15 1_555 1_555
H23 C16 1_555 1_555
C17 C12 1_555 1_555
H24 C17 1_555 1_555
C18 C15 1_555 1_555
H25 C18 1_555 1_555
H26 C18 1_555 1_555
H27 C18 1_555 1_555
O6 C19 1_555 1_555
N2 H28 1_555 1_555
H29 N2 1_555 1_555
C19 N2 1_555 1_555
C20 C19 1_555 1_555
C21 C20 1_555 1_555
H30 C21 1_555 1_555
C22 C21 1_555 1_555
H31 C22 1_555 1_555
C23 C22 1_555 1_555
C24 C23 1_555 1_555
H32 C24 1_555 1_555
C25 C20 1_555 1_555
H33 C25 1_555 1_555
C26 C23 1_555 1_555
H34 C26 1_555 1_555
H35 C26 1_555 1_555
H36 C26 1_555 1_555
O1E H1E 1_555 1_555
O2E C1E 1_555 1_555
C1E O1E 1_555 1_555
C2E C1E 1_555 1_555
H2E C2E 1_555 1_555
H3E C2E 1_555 1_555
C3E C2E 1_555 1_555
H4E C3E 1_555 1_555
H5E C3E 1_555 1_555
C4E C3E 1_555 1_555
H6E C4E 1_555 1_555
H7E C4E 1_555 1_555
C5E C5 1_555 1_555
H8E C5E 1_555 1_555
H9E C5E 1_555 1_555
O3D C6D 1_555 1_555
O4D H10D 1_555 1_555
C6D O4D 1_555 1_555
C7D C6D 1_555 1_555
H11D C7D 1_555 1_555
H12D C7D 1_555 1_555
C8D C7D 1_555 1_555
H13D C8D 1_555 1_555
H14D C8D 1_555 1_555
C9D C8D 1_555 1_555
H15D C9D 1_555 1_555
H16D C9D 1_555 1_555
C10D C10 1_555 1_555
H17D C10D 1_555 1_555
H18D C10D 1_555 1_555
C16 C17 1_555 1_555
C24 C25 1_555 1_555
C4E C5E 1_555 1_555
C9D C10D 1_555 1_555

#END
