
#######################################################################
#
#                 Cambridge Crystallographic Data Centre
#                                CCDC 
#
#######################################################################
#
# If this CIF has been generated from an entry in the Cambridge 
# Structural Database, then it will include bibliographic, chemical, 
# crystal, experimental, refinement or atomic coordinate data resulting 
# from the CCDC's data processing and validation procedures.
#
#######################################################################

data_GENSUN
_chemical_formula_moiety         'C26 H19 Cl1 F1 O1 P1'
_chemical_name_systematic        
1-Chloro-p-fluorophenacylidene-triphenylphosphorane
_symmetry_cell_setting           triclinic
_symmetry_space_group_name_H-M   'P -1'
_symmetry_Int_Tables_number      2
_space_group_name_Hall           '-P 1'
loop_
_symmetry_equiv_pos_site_id
_symmetry_equiv_pos_as_xyz
1 x,y,z
2 -x,-y,-z
_cell_length_a                   10.081(2)
_cell_length_b                   10.178(2)
_cell_length_c                   12.538(2)
_cell_angle_alpha                67.060(10)
_cell_angle_beta                 79.970(10)
_cell_angle_gamma                64.670(10)
_cell_volume                     1070.77
_exptl_crystal_colour            yellow
_exptl_crystal_description       prisms
_cell_formula_units_Z            2
loop_
_atom_site_label
_atom_site_type_symbol
_atom_site_fract_x
_atom_site_fract_y
_atom_site_fract_z
P1 P 0.21426(7) 0.68863(7) 0.32883(5)
Cl1 Cl 0.45951(8) 0.78479(10) 0.32801(7)
O1 O 0.3068(2) 0.6850(2) 0.11380(17)
F1 F 0.9213(3) 0.6843(4) -0.0947(3)
C1 C 0.3536(3) 0.7468(3) 0.2546(2)
C2 C 0.3929(3) 0.7189(3) 0.1501(2)
C3 C 0.5319(3) 0.7180(3) 0.0845(2)
C4 C 0.6006(4) 0.6083(4) 0.0314(3)
H1 H 0.5577 0.5412 0.0368
C5 C 0.7315(4) 0.5960(5) -0.0294(3)
H2 H 0.7769 0.5219 -0.0645
C6 C 0.7915(4) 0.6971(6) -0.0358(3)
C7 C 0.7301(4) 0.8043(5) 0.0150(3)
H3 H 0.7747 0.8701 0.0090
C8 C 0.5995(4) 0.8159(4) 0.0763(3)
H4 H 0.5569 0.8893 0.1122
C9 C 0.0309(3) 0.8167(3) 0.2723(2)
C10 C -0.0910(3) 0.7960(3) 0.3365(2)
H5 H -0.0785 0.7136 0.4065
C11 C -0.2310(3) 0.8993(4) 0.2952(3)
H6 H -0.3125 0.8850 0.3370
C12 C -0.2496(3) 1.0227(4) 0.1925(3)
H7 H -0.3437 1.0914 0.1653
C13 C -0.1300(4) 1.0454(4) 0.1298(3)
H8 H -0.1435 1.1301 0.0611
C14 C 0.0111(3) 0.9420(3) 0.1690(2)
H9 H 0.0920 0.9566 0.1261
C15 C 0.2024(2) 0.6902(3) 0.4738(2)
C16 C 0.1689(3) 0.8302(3) 0.4891(2)
H10 H 0.1521 0.9210 0.4249
C17 C 0.1605(3) 0.8338(4) 0.5992(3)
H11 H 0.1388 0.9271 0.6086
C18 C 0.1840(3) 0.7013(4) 0.6943(3)
H12 H 0.1790 0.7048 0.7680
C19 C 0.2146(3) 0.5636(4) 0.6816(2)
H13 H 0.2291 0.4741 0.7467
C20 C 0.2242(3) 0.5571(3) 0.5716(2)
H14 H 0.2453 0.4631 0.5634
C21 C 0.2551(3) 0.4910(3) 0.3431(2)
C22 C 0.3984(3) 0.3830(3) 0.3707(3)
H15 H 0.4687 0.4139 0.3801
C23 C 0.4364(3) 0.2301(3) 0.3841(3)
H16 H 0.5325 0.1584 0.4021
C24 C 0.3331(4) 0.1835(3) 0.3709(3)
H17 H 0.3591 0.0802 0.3804
C25 C 0.1911(4) 0.2894(3) 0.3437(3)
H18 H 0.1212 0.2574 0.3351
C26 C 0.1517(3) 0.4429(3) 0.3292(2)
H19 H 0.0557 0.5141 0.3101
loop_
_geom_bond_atom_site_label_1
_geom_bond_atom_site_label_2
_geom_bond_site_symmetry_1
_geom_bond_site_symmetry_2
P1 C1 1_555 1_555
Cl1 C1 1_555 1_555
O1 C2 1_555 1_555
F1 C6 1_555 1_555
C1 C2 1_555 1_555
C2 C3 1_555 1_555
C3 C4 1_555 1_555
C4 H1 1_555 1_555
C5 C4 1_555 1_555
H2 C5 1_555 1_555
C6 C5 1_555 1_555
C7 C6 1_555 1_555
H3 C7 1_555 1_555
C8 C3 1_555 1_555
H4 C8 1_555 1_555
C9 P1 1_555 1_555
C10 C9 1_555 1_555
H5 C10 1_555 1_555
C11 C10 1_555 1_555
H6 C11 1_555 1_555
C12 C11 1_555 1_555
H7 C12 1_555 1_555
C13 C12 1_555 1_555
H8 C13 1_555 1_555
C14 C9 1_555 1_555
H9 C14 1_555 1_555
C15 P1 1_555 1_555
C16 C15 1_555 1_555
H10 C16 1_555 1_555
C17 C16 1_555 1_555
H11 C17 1_555 1_555
C18 C17 1_555 1_555
H12 C18 1_555 1_555
C19 C18 1_555 1_555
H13 C19 1_555 1_555
C20 C15 1_555 1_555
H14 C20 1_555 1_555
C21 P1 1_555 1_555
C22 C21 1_555 1_555
H15 C22 1_555 1_555
C23 C22 1_555 1_555
H16 C23 1_555 1_555
C24 C23 1_555 1_555
H17 C24 1_555 1_555
C25 C24 1_555 1_555
H18 C25 1_555 1_555
C26 C21 1_555 1_555
H19 C26 1_555 1_555
C7 C8 1_555 1_555
C13 C14 1_555 1_555
C19 C20 1_555 1_555
C25 C26 1_555 1_555

#END
