
#######################################################################
#
#                 Cambridge Crystallographic Data Centre
#                                CCDC 
#
#######################################################################
#
# If this CIF has been generated from an entry in the Cambridge 
# Structural Database, then it will include bibliographic, chemical, 
# crystal, experimental, refinement or atomic coordinate data resulting 
# from the CCDC's data processing and validation procedures.
#
#######################################################################

data_GENWEC
_chemical_formula_moiety         'C16 H23 Cl1 O10'
_chemical_name_systematic        
2,3,4,6-Tetra-O-acetyl-2-chloroethyl-\b-D-galactopyranoside
_symmetry_cell_setting           monoclinic
_symmetry_space_group_name_H-M   'P 21'
_symmetry_Int_Tables_number      4
_space_group_name_Hall           'P 2yb'
loop_
_symmetry_equiv_pos_site_id
_symmetry_equiv_pos_as_xyz
1 x,y,z
2 -x,1/2+y,-z
_cell_length_a                   10.554(2)
_cell_length_b                   9.708(2)
_cell_length_c                   10.599(3)
_cell_angle_alpha                90
_cell_angle_beta                 103.299(3)
_cell_angle_gamma                90
_cell_volume                     1056.83
_exptl_crystal_colour            colorless
_exptl_crystal_description       block
_cell_formula_units_Z            2
_exptl_crystal_recrystallization_method 'ethyl acetate'
loop_
_atom_site_label
_atom_site_type_symbol
_atom_site_fract_x
_atom_site_fract_y
_atom_site_fract_z
Cl1 Cl 0.89002(14) 0.90394(14) 0.94714(16)
O1 O 0.70833(16) 0.78698(19) 1.27713(17)
O2 O 0.9002(2) 0.7179(4) 1.5091(2)
O3 O 0.9080(5) 0.6575(7) 1.7054(4)
O4 O 0.53350(19) 0.5680(2) 1.29663(18)
O5 O 0.4092(3) 0.4689(3) 1.4127(3)
O6 O 0.31615(17) 0.7485(2) 1.26063(18)
O7 O 0.2828(2) 0.8094(4) 1.4538(3)
O8 O 0.40841(18) 0.9640(2) 1.12690(19)
O9 O 0.3064(3) 0.8437(3) 0.9542(2)
O10 O 0.66859(18) 0.9294(2) 1.10408(18)
C1 C 0.6280(2) 0.8946(3) 1.2145(3)
H1 H 0.6360 0.9746 1.2722
C2 C 0.4868(2) 0.8469(3) 1.1783(3)
H2 H 0.4756 0.7725 1.1141
C3 C 0.4468(2) 0.8000(3) 1.2989(2)
H3 H 0.4473 0.8798 1.3556
C4 C 0.5407(3) 0.6923(3) 1.3724(2)
H4 H 0.5187 0.6718 1.4553
C5 C 0.6780(2) 0.7478(3) 1.3964(2)
H5 H 0.6841 0.8295 1.4518
C6 C 0.7788(3) 0.6456(4) 1.4612(3)
H6 H 0.7512 0.6013 1.5325
H7 H 0.7900 0.5752 1.3998
C7 C 0.9525(4) 0.7219(4) 1.6308(3)
C8 C 1.0632(4) 0.8156(6) 1.6632(4)
H8 H 1.0993 0.8134 1.7550
H9 H 1.0350 0.9075 1.6375
H10 H 1.1283 0.7876 1.6183
C9 C 0.4661(3) 0.4626(4) 1.3279(3)
C10 C 0.4715(5) 0.3392(4) 1.2456(4)
H11 H 0.4223 0.2656 1.2717
H12 H 0.5604 0.3108 1.2557
H13 H 0.4352 0.3617 1.1564
C11 C 0.2429(3) 0.7621(4) 1.3488(3)
C12 C 0.1101(4) 0.7043(7) 1.2961(5)
H14 H 0.0586 0.7148 1.3592
H15 H 0.1170 0.6084 1.2769
H16 H 0.0695 0.7527 1.2183
C13 C 0.3189(3) 0.9480(3) 1.0138(3)
C14 C 0.2433(4) 1.0773(4) 0.9794(5)
H17 H 0.1794 1.0643 0.8997
H18 H 0.3011 1.1505 0.9690
H19 H 0.2004 1.1005 1.0472
C15 C 0.7839(4) 1.0146(4) 1.1337(4)
H20 H 0.8531 0.9663 1.1933
H21 H 0.7654 1.0989 1.1753
C16 C 0.8259(4) 1.0480(4) 1.0158(4)
H22 H 0.8920 1.1193 1.0351
H23 H 0.7525 1.0848 0.9524
loop_
_geom_bond_atom_site_label_1
_geom_bond_atom_site_label_2
_geom_bond_site_symmetry_1
_geom_bond_site_symmetry_2
Cl1 C16 1_555 1_555
O1 C1 1_555 1_555
O2 C6 1_555 1_555
O3 C7 1_555 1_555
O4 C4 1_555 1_555
O5 C9 1_555 1_555
O6 C3 1_555 1_555
O7 C11 1_555 1_555
O8 C2 1_555 1_555
O9 C13 1_555 1_555
O10 C1 1_555 1_555
C1 H1 1_555 1_555
C2 C1 1_555 1_555
H2 C2 1_555 1_555
C3 C2 1_555 1_555
H3 C3 1_555 1_555
C4 C3 1_555 1_555
H4 C4 1_555 1_555
C5 O1 1_555 1_555
H5 C5 1_555 1_555
C6 C5 1_555 1_555
H6 C6 1_555 1_555
H7 C6 1_555 1_555
C7 O2 1_555 1_555
C8 C7 1_555 1_555
H8 C8 1_555 1_555
H9 C8 1_555 1_555
H10 C8 1_555 1_555
C9 O4 1_555 1_555
C10 C9 1_555 1_555
H11 C10 1_555 1_555
H12 C10 1_555 1_555
H13 C10 1_555 1_555
C11 O6 1_555 1_555
C12 C11 1_555 1_555
H14 C12 1_555 1_555
H15 C12 1_555 1_555
H16 C12 1_555 1_555
C13 O8 1_555 1_555
C14 C13 1_555 1_555
H17 C14 1_555 1_555
H18 C14 1_555 1_555
H19 C14 1_555 1_555
C15 O10 1_555 1_555
H20 C15 1_555 1_555
H21 C15 1_555 1_555
C16 C15 1_555 1_555
H22 C16 1_555 1_555
H23 C16 1_555 1_555
C4 C5 1_555 1_555

#END
