
#######################################################################
#
#                 Cambridge Crystallographic Data Centre
#                                CCDC 
#
#######################################################################
#
# If this CIF has been generated from an entry in the Cambridge 
# Structural Database, then it will include bibliographic, chemical, 
# crystal, experimental, refinement or atomic coordinate data resulting 
# from the CCDC's data processing and validation procedures.
#
#######################################################################

data_GENZEH
_chemical_compound_source        'agarwood of Aquilaria malaccensis'
_chemical_name_common            'Aquilanol A'
_chemical_formula_moiety         'C15 H24 O2'
_chemical_name_systematic        
(1R,11S)-1,5,5-trimethyl-12-oxabicyclo[6.3.2]trideca-3,7-dien-11-ol
_symmetry_cell_setting           monoclinic
_symmetry_space_group_name_H-M   'P 21/c'
_symmetry_Int_Tables_number      14
_space_group_name_Hall           '-P 2ybc'
loop_
_symmetry_equiv_pos_site_id
_symmetry_equiv_pos_as_xyz
1 x,y,z
2 -x,1/2+y,1/2-z
3 -x,-y,-z
4 x,1/2-y,1/2+z
_cell_length_a                   11.34029(10)
_cell_length_b                   10.58915(8)
_cell_length_c                   11.42721(11)
_cell_angle_alpha                90
_cell_angle_beta                 103.6427(9)
_cell_angle_gamma                90
_cell_volume                     1333.51
_exptl_crystal_colour            colorless
_exptl_crystal_description       block
_chemical_melting_point          '66-67 deg.C'
_cell_formula_units_Z            4
loop_
_atom_site_label
_atom_site_type_symbol
_atom_site_fract_x
_atom_site_fract_y
_atom_site_fract_z
C1 C 0.90435(10) 0.38276(11) 0.29334(10)
H1 H 0.8607 0.3068 0.3051
H2 H 0.9904 0.3634 0.3144
C2 C 0.87890(10) 0.48422(10) 0.37586(10)
H3 H 0.9418 0.5406 0.4053
C3 C 0.77647(9) 0.50294(10) 0.41199(9)
C4 C 0.75862(10) 0.62198(10) 0.47839(9)
H4 H 0.8372 0.6569 0.5173
H5 H 0.7163 0.6017 0.5405
C5 C 0.68554(10) 0.72095(10) 0.39292(9)
H6 H 0.6938 0.8016 0.4343
H7 H 0.7212 0.7297 0.3241
C6 C 0.55045(10) 0.69254(9) 0.34678(9)
H8 H 0.5172 0.7591 0.2887
C7 C 0.51206(9) 0.56490(9) 0.28271(9)
C8 C 0.54418(9) 0.54911(9) 0.15854(9)
H9 H 0.5063 0.4717 0.1227
H10 H 0.5060 0.6181 0.1075
C9 C 0.67498(9) 0.54494(10) 0.15254(9)
H11 H 0.7195 0.6195 0.1651
C10 C 0.73059(9) 0.43999(10) 0.13019(9)
H12 H 0.6821 0.3727 0.0954
C11 C 0.86633(10) 0.42198(10) 0.15711(10)
C12 C 0.67240(9) 0.41051(10) 0.38760(9)
H13 H 0.6760 0.3619 0.3166
H14 H 0.6840 0.3521 0.4547
C13 C 0.37336(10) 0.55418(10) 0.25687(10)
H15 H 0.3483 0.4744 0.2192
H16 H 0.3371 0.6214 0.2042
H17 H 0.3479 0.5600 0.3311
C14 C 0.89935(11) 0.31335(11) 0.08226(11)
H18 H 0.8597 0.2375 0.0985
H19 H 0.9856 0.3009 0.1031
H20 H 0.8734 0.3336 -0.0018
C15 C 0.93465(10) 0.54167(11) 0.13665(11)
H21 H 0.9098 0.5661 0.0536
H22 H 1.0203 0.5254 0.1571
H23 H 0.9166 0.6085 0.1864
O1 O 0.55286(6) 0.46421(7) 0.36947(6)
O2 O 0.49376(7) 0.70653(7) 0.44573(7)
H24 H 0.5060 0.6430 0.4879
loop_
_geom_bond_atom_site_label_1
_geom_bond_atom_site_label_2
_geom_bond_site_symmetry_1
_geom_bond_site_symmetry_2
C1 H1 1_555 1_555
H2 C1 1_555 1_555
C2 C1 1_555 1_555
H3 C2 1_555 1_555
C3 C2 1_555 1_555
C4 C3 1_555 1_555
H4 C4 1_555 1_555
H5 C4 1_555 1_555
C5 C4 1_555 1_555
H6 C5 1_555 1_555
H7 C5 1_555 1_555
C6 C5 1_555 1_555
H8 C6 1_555 1_555
C7 C6 1_555 1_555
C8 C7 1_555 1_555
H9 C8 1_555 1_555
H10 C8 1_555 1_555
C9 C8 1_555 1_555
H11 C9 1_555 1_555
C10 C9 1_555 1_555
H12 C10 1_555 1_555
C11 C1 1_555 1_555
C12 C3 1_555 1_555
H13 C12 1_555 1_555
H14 C12 1_555 1_555
C13 C7 1_555 1_555
H15 C13 1_555 1_555
H16 C13 1_555 1_555
H17 C13 1_555 1_555
C14 C11 1_555 1_555
H18 C14 1_555 1_555
H19 C14 1_555 1_555
H20 C14 1_555 1_555
C15 C11 1_555 1_555
H21 C15 1_555 1_555
H22 C15 1_555 1_555
H23 C15 1_555 1_555
O1 C7 1_555 1_555
O2 C6 1_555 1_555
H24 O2 1_555 1_555
C10 C11 1_555 1_555
C12 O1 1_555 1_555

#END
