
#######################################################################
#
#                 Cambridge Crystallographic Data Centre
#                                CCDC 
#
#######################################################################
#
# If this CIF has been generated from an entry in the Cambridge 
# Structural Database, then it will include bibliographic, chemical, 
# crystal, experimental, refinement or atomic coordinate data resulting 
# from the CCDC's data processing and validation procedures.
#
#######################################################################

data_GENZUV
_chemical_formula_moiety         'C35 H30 Cl1 N3 O4'
_chemical_name_systematic        
4'-(4-Chlorophenyl)-2'-(1-(4-methoxyphenyl)-4-oxo-3-phenylazetidin-2-yl)-1'-methyl-2-phenyl-spiro(1,3-oxazole-4(5H),3'-pyrrolidin)-5-one
_symmetry_cell_setting           triclinic
_symmetry_space_group_name_H-M   'P -1'
_symmetry_Int_Tables_number      2
_space_group_name_Hall           '-P 1'
loop_
_symmetry_equiv_pos_site_id
_symmetry_equiv_pos_as_xyz
1 x,y,z
2 -x,-y,-z
_cell_length_a                   10.0409(10)
_cell_length_b                   13.2335(13)
_cell_length_c                   13.4951(13)
_cell_angle_alpha                117.751(2)
_cell_angle_beta                 94.976(2)
_cell_angle_gamma                98.865(2)
_cell_volume                     1542
_exptl_crystal_colour            colorless
_exptl_crystal_description       block
_chemical_melting_point          518K
_cell_formula_units_Z            2
_exptl_crystal_recrystallization_method chloroform/hexane
loop_
_atom_site_label
_atom_site_type_symbol
_atom_site_fract_x
_atom_site_fract_y
_atom_site_fract_z
Cl1 Cl 0.36068(7) 0.74975(7) 0.31947(8)
O1 O 0.91162(14) 0.64285(11) 0.12708(10)
O2 O 0.82176(15) 0.45717(13) -0.00662(11)
O3 O 1.20001(18) 0.28867(13) 0.36612(12)
O4 O 1.4592(3) 0.06599(17) -0.11416(17)
N1 N 0.89390(17) 0.30804(13) 0.15080(14)
N2 N 0.99624(14) 0.62185(12) 0.27550(11)
N3 N 1.18910(16) 0.33905(13) 0.22090(12)
C1 C 0.99341(18) 0.40406(14) 0.15483(14)
H1 H 1.0146 0.3802 0.0786
C2 C 0.91902(17) 0.50677(14) 0.18868(13)
C3 C 0.79327(19) 0.46719(17) 0.23199(16)
H2 H 0.8283 0.4791 0.3076
C4 C 0.7594(2) 0.33704(18) 0.15319(18)
H3 H 0.7006 0.2964 0.1828
H4 H 0.7150 0.3177 0.0779
C5 C 0.98359(17) 0.69213(15) 0.23800(14)
C6 C 0.87558(18) 0.52448(16) 0.08905(14)
C7 C 1.17206(19) 0.34692(15) 0.32317(14)
C8 C 1.11312(18) 0.45521(15) 0.35898(13)
H5 H 1.0170 0.4399 0.3668
C9 C 1.12609(17) 0.43839(14) 0.23814(13)
H6 H 1.1915 0.5035 0.2414
C10 C 0.68272(18) 0.53588(17) 0.24712(15)
C11 C 0.6847(2) 0.6251(2) 0.35547(17)
H7 H 0.7531 0.6402 0.4147
C12 C 0.5886(2) 0.6917(2) 0.3773(2)
H8 H 0.5923 0.7519 0.4506
C13 C 0.4870(2) 0.6693(2) 0.2911(2)
C14 C 0.4825(2) 0.5824(2) 0.1833(2)
H9 H 0.4139 0.5681 0.1245
C15 C 0.5800(2) 0.5157(2) 0.16193(17)
H10 H 0.5761 0.4559 0.0884
C16 C 1.03545(19) 0.81833(16) 0.29472(16)
C17 C 1.1100(2) 0.87532(17) 0.40330(17)
H11 H 1.1258 0.8338 0.4413
C18 C 1.1615(3) 0.9950(2) 0.4559(2)
H12 H 1.2139 1.0334 0.5288
C19 C 1.1362(3) 1.0573(2) 0.4021(3)
H13 H 1.1704 1.1378 0.4388
C20 C 1.0615(3) 1.0025(2) 0.2955(3)
H14 H 1.0447 1.0457 0.2594
C21 C 1.0099(3) 0.88267(19) 0.2397(2)
H15 H 0.9587 0.8452 0.1664
C22 C 1.19578(18) 0.56440(16) 0.46095(14)
C23 C 1.1364(2) 0.65609(18) 0.52478(15)
H16 H 1.0436 0.6503 0.5040
C24 C 1.2126(3) 0.7562(2) 0.61894(19)
H17 H 1.1711 0.8173 0.6606
C25 C 1.3485(3) 0.7656(2) 0.6510(2)
H18 H 1.3993 0.8324 0.7153
C26 C 1.4099(3) 0.6769(2) 0.5885(2)
H19 H 1.5030 0.6841 0.6095
C27 C 1.3345(2) 0.5766(2) 0.49443(19)
H20 H 1.3771 0.5163 0.4529
C28 C 1.25438(18) 0.26918(15) 0.13338(14)
C29 C 1.2759(2) 0.29352(17) 0.04653(16)
H21 H 1.2451 0.3556 0.0451
C30 C 1.3425(2) 0.22738(19) -0.03832(18)
H22 H 1.3551 0.2442 -0.0970
C31 C 1.3902(2) 0.13619(19) -0.03563(19)
C32 C 1.3681(3) 0.11074(19) 0.0504(2)
H23 H 1.3996 0.0488 0.0516
C33 C 1.3005(2) 0.17535(17) 0.13429(17)
H24 H 1.2854 0.1567 0.1914
C34 C 1.5011(5) 0.0983(3) -0.1939(3)
H25 H 1.5472 0.0417 -0.2441
H26 H 1.5625 0.1739 -0.1549
H27 H 1.4224 0.1013 -0.2374
C35 C 0.8893(3) 0.19225(19) 0.0565(2)
H28 H 0.9792 0.1760 0.0572
H29 H 0.8586 0.1899 -0.0141
H30 H 0.8270 0.1346 0.0642
loop_
_geom_bond_atom_site_label_1
_geom_bond_atom_site_label_2
_geom_bond_site_symmetry_1
_geom_bond_site_symmetry_2
Cl1 C13 1_555 1_555
O1 C5 1_555 1_555
O2 C6 1_555 1_555
O3 C7 1_555 1_555
O4 C31 1_555 1_555
N1 C1 1_555 1_555
N2 C2 1_555 1_555
N3 C7 1_555 1_555
C1 H1 1_555 1_555
C2 C1 1_555 1_555
C3 C2 1_555 1_555
H2 C3 1_555 1_555
C4 N1 1_555 1_555
H3 C4 1_555 1_555
H4 C4 1_555 1_555
C5 N2 1_555 1_555
C6 O1 1_555 1_555
C7 C8 1_555 1_555
C8 H5 1_555 1_555
C9 N3 1_555 1_555
H6 C9 1_555 1_555
C10 C3 1_555 1_555
C11 C10 1_555 1_555
H7 C11 1_555 1_555
C12 C11 1_555 1_555
H8 C12 1_555 1_555
C13 C12 1_555 1_555
C14 C13 1_555 1_555
H9 C14 1_555 1_555
C15 C10 1_555 1_555
H10 C15 1_555 1_555
C16 C5 1_555 1_555
C17 C16 1_555 1_555
H11 C17 1_555 1_555
C18 C17 1_555 1_555
H12 C18 1_555 1_555
C19 C18 1_555 1_555
H13 C19 1_555 1_555
C20 C19 1_555 1_555
H14 C20 1_555 1_555
C21 C16 1_555 1_555
H15 C21 1_555 1_555
C22 C8 1_555 1_555
C23 C22 1_555 1_555
H16 C23 1_555 1_555
C24 C23 1_555 1_555
H17 C24 1_555 1_555
C25 C24 1_555 1_555
H18 C25 1_555 1_555
C26 C25 1_555 1_555
H19 C26 1_555 1_555
C27 C22 1_555 1_555
H20 C27 1_555 1_555
C28 N3 1_555 1_555
C29 C28 1_555 1_555
H21 C29 1_555 1_555
C30 C29 1_555 1_555
H22 C30 1_555 1_555
C31 C30 1_555 1_555
C32 C31 1_555 1_555
H23 C32 1_555 1_555
C33 C28 1_555 1_555
H24 C33 1_555 1_555
C34 O4 1_555 1_555
H25 C34 1_555 1_555
H26 C34 1_555 1_555
H27 C34 1_555 1_555
C35 N1 1_555 1_555
H28 C35 1_555 1_555
H29 C35 1_555 1_555
H30 C35 1_555 1_555
C1 C9 1_555 1_555
C2 C6 1_555 1_555
C3 C4 1_555 1_555
C8 C9 1_555 1_555
C14 C15 1_555 1_555
C20 C21 1_555 1_555
C26 C27 1_555 1_555
C32 C33 1_555 1_555

#END
