
#######################################################################
#
#                 Cambridge Crystallographic Data Centre
#                                CCDC 
#
#######################################################################
#
# If this CIF has been generated from an entry in the Cambridge 
# Structural Database, then it will include bibliographic, chemical, 
# crystal, experimental, refinement or atomic coordinate data resulting 
# from the CCDC's data processing and validation procedures.
#
#######################################################################

data_GEPCOT03
_chemical_formula_moiety         'C11 H12 O3'
_chemical_name_systematic        (-)-1-Phenyl-2,7,8-trioxabicyclo(3.2.1)octane
_symmetry_cell_setting           monoclinic
_symmetry_space_group_name_H-M   'P 21'
_symmetry_Int_Tables_number      4
_space_group_name_Hall           'P 2yb'
loop_
_symmetry_equiv_pos_site_id
_symmetry_equiv_pos_as_xyz
1 x,y,z
2 -x,1/2+y,-z
_cell_length_a                   7.8520(9)
_cell_length_b                   10.493(1)
_cell_length_c                   6.1048(6)
_cell_angle_alpha                90
_cell_angle_beta                 107.02(1)
_cell_angle_gamma                90
_cell_volume                     480.952
_chemical_melting_point          59.5-60.5deg.C
_cell_formula_units_Z            2
loop_
_atom_site_label
_atom_site_type_symbol
_atom_site_fract_x
_atom_site_fract_y
_atom_site_fract_z
O1 O 0.0244(4) 0.3765(4) 0.2728(6)
O2 O 0.0373(4) 0.2796(4) -0.0611(6)
O3 O 0.1846(4) 0.4691(4) 0.0487(6)
C1 C -0.1194(7) 0.4577(6) 0.1610(10)
C2 C -0.2119(6) 0.4118(6) -0.0850(10)
C3 C -0.0689(7) 0.3763(6) -0.2010(10)
C4 C 0.0644(6) 0.4873(5) -0.1745(9)
C5 C 0.1357(6) 0.3521(5) 0.1320(8)
C6 C 0.3028(6) 0.2784(5) 0.2656(9)
C7 C 0.4407(7) 0.2624(6) 0.1680(10)
C8 C 0.5868(7) 0.1881(7) 0.2790(10)
C9 C 0.5956(8) 0.1314(6) 0.4880(10)
C10 C 0.4582(7) 0.1483(6) 0.5860(10)
C11 C 0.3104(7) 0.2208(5) 0.4731(9)
H1 H -0.2150(60) 0.4590(60) 0.260(10)
H2 H -0.0690(60) 0.5550(60) 0.150(10)
H3 H -0.2980(60) 0.4870(60) -0.1820(90)
H4 H -0.2920(50) 0.3270(60) -0.080(10)
H5 H -0.1250(60) 0.3460(50) -0.3780(90)
H6 H 0.1370(60) 0.4800(50) -0.3020(90)
H7 H -0.0030(60) 0.5790(50) -0.1860(90)
H8 H 0.4360(50) 0.3110(60) 0.010(10)
H9 H 0.6940(70) 0.1750(60) 0.200(10)
H10 H 0.7120(60) 0.0770(60) 0.580(10)
H11 H 0.4600(60) 0.0970(50) 0.7400(90)
H12 H 0.2010(60) 0.2320(50) 0.5460(90)
loop_
_geom_bond_atom_site_label_1
_geom_bond_atom_site_label_2
_geom_bond_site_symmetry_1
_geom_bond_site_symmetry_2
O1 C1 1_555 1_555
O2 C3 1_555 1_555
O3 C4 1_555 1_555
C1 C2 1_555 1_555
C2 C3 1_555 1_555
C3 C4 1_555 1_555
C4 H6 1_555 1_555
C5 O1 1_555 1_555
C6 C5 1_555 1_555
C7 C6 1_555 1_555
C8 C7 1_555 1_555
C9 C8 1_555 1_555
C10 C9 1_555 1_555
C11 C6 1_555 1_555
H1 C1 1_555 1_555
H2 C1 1_555 1_555
H3 C2 1_555 1_555
H4 C2 1_555 1_555
H5 C3 1_555 1_555
H7 C4 1_555 1_555
H8 C7 1_555 1_555
H9 C8 1_555 1_555
H10 C9 1_555 1_555
H11 C10 1_555 1_555
H12 C11 1_555 1_555
O2 C5 1_555 1_555
O3 C5 1_555 1_555
C10 C11 1_555 1_555

#END
