
#######################################################################
#
#                 Cambridge Crystallographic Data Centre
#                                CCDC 
#
#######################################################################
#
# If this CIF has been generated from an entry in the Cambridge 
# Structural Database, then it will include bibliographic, chemical, 
# crystal, experimental, refinement or atomic coordinate data resulting 
# from the CCDC's data processing and validation procedures.
#
#######################################################################

data_GEPCIN
_chemical_formula_moiety         'C11 H12 O3'
_chemical_name_systematic        rac-1-Phenyl-2,7,8-trioxabicyclo(3.2.1)octane
_symmetry_cell_setting           orthorhombic
_symmetry_space_group_name_H-M   'P c a b'
_symmetry_Int_Tables_number      61
_space_group_name_Hall           '-P 2bc 2ac'
loop_
_symmetry_equiv_pos_site_id
_symmetry_equiv_pos_as_xyz
1 x,y,z
2 1/2-x,y,1/2+z
3 1/2+x,1/2-y,z
4 -x,1/2-y,1/2+z
5 -x,-y,-z
6 1/2+x,-y,1/2-z
7 1/2-x,1/2+y,-z
8 x,1/2+y,1/2-z
_cell_length_a                   11.149(3)
_cell_length_b                   16.065(7)
_cell_length_c                   11.028(4)
_cell_angle_alpha                90
_cell_angle_beta                 90
_cell_angle_gamma                90
_cell_volume                     1975.21
_chemical_melting_point          61.0-61.5deg.C
_cell_formula_units_Z            8
loop_
_atom_site_label
_atom_site_type_symbol
_atom_site_fract_x
_atom_site_fract_y
_atom_site_fract_z
O1 O -0.1291(8) 0.0506(6) 0.1617(8)
O2 O -0.1156(8) 0.0956(4) 0.3490(8)
O3 O 0.0203(6) 0.0070(5) 0.2774(9)
C1 C 0.0275(9) 0.1474(6) 0.2130(10)
C2 C 0.0246(9) 0.1734(7) 0.0950(10)
C3 C 0.0990(10) 0.2381(9) 0.0570(10)
C4 C 0.1720(10) 0.2768(7) 0.1360(20)
C5 C 0.1754(9) 0.2524(8) 0.2570(10)
C6 C 0.1018(9) 0.1871(7) 0.2952(9)
C7 C -0.0458(9) 0.0736(8) 0.2550(10)
C8 C -0.0730(20) -0.0640(9) 0.2730(10)
C9 C -0.1460(10) -0.0352(8) 0.1660(10)
C10 C -0.1900(10) 0.0336(9) 0.3950(10)
C11 C -0.1330(20) -0.0510(9) 0.3840(10)
H1 H -0.0440 -0.1250 0.2450
H2 H -0.0320 0.1430 0.0370
H3 H 0.0940 0.2560 -0.0360
H4 H 0.2280 0.3230 0.1030
H5 H 0.2310 0.2830 0.3170
H6 H 0.1030 0.1700 0.3870
H7 H -0.2420 -0.0470 0.1760
H8 H -0.1290 -0.0630 0.0850
H9 H -0.2230 0.0440 0.4800
H10 H -0.2710 0.0280 0.3420
H11 H -0.1870 -0.0990 0.4110
H12 H -0.0640 -0.0510 0.4530
loop_
_geom_bond_atom_site_label_1
_geom_bond_atom_site_label_2
_geom_bond_site_symmetry_1
_geom_bond_site_symmetry_2
O1 C7 1_555 1_555
O2 C7 1_555 1_555
O3 C7 1_555 1_555
C1 C2 1_555 1_555
C2 C3 1_555 1_555
C3 C4 1_555 1_555
C4 C5 1_555 1_555
C5 C6 1_555 1_555
C6 C1 1_555 1_555
C7 C1 1_555 1_555
C8 O3 1_555 1_555
C9 O1 1_555 1_555
C10 O2 1_555 1_555
C11 C8 1_555 1_555
H1 C8 1_555 1_555
H2 C2 1_555 1_555
H3 C3 1_555 1_555
H4 C4 1_555 1_555
H5 C5 1_555 1_555
H6 C6 1_555 1_555
H7 C9 1_555 1_555
H8 C9 1_555 1_555
H9 C10 1_555 1_555
H10 C10 1_555 1_555
H11 C11 1_555 1_555
H12 C11 1_555 1_555
C8 C9 1_555 1_555
C10 C11 1_555 1_555

#END
