
#######################################################################
#
#                 Cambridge Crystallographic Data Centre
#                                CCDC 
#
#######################################################################
#
# If this CIF has been generated from an entry in the Cambridge 
# Structural Database, then it will include bibliographic, chemical, 
# crystal, experimental, refinement or atomic coordinate data resulting 
# from the CCDC's data processing and validation procedures.
#
#######################################################################

data_GEPHAL
_chemical_formula_moiety         'C4 H2 Br1 I1 N2'
_chemical_name_systematic        5-Bromo-2-iodopyrimidine
_symmetry_cell_setting           orthorhombic
_symmetry_space_group_name_H-M   'P n m a'
_symmetry_Int_Tables_number      62
_space_group_name_Hall           '-P 2ac 2n'
loop_
_symmetry_equiv_pos_site_id
_symmetry_equiv_pos_as_xyz
1 x,y,z
2 1/2-x,-y,1/2+z
3 -x,1/2+y,-z
4 1/2+x,1/2-y,1/2-z
5 -x,-y,-z
6 1/2+x,y,1/2-z
7 x,1/2-y,z
8 1/2-x,1/2+y,1/2+z
_cell_length_a                   6.1410(12)
_cell_length_b                   6.7890(14)
_cell_length_c                   16.071(3)
_cell_angle_alpha                90
_cell_angle_beta                 90
_cell_angle_gamma                90
_cell_volume                     670.02
_exptl_crystal_colour            colorless
_exptl_crystal_description       Block
_cell_formula_units_Z            4
_exptl_crystal_recrystallization_method ethanol
loop_
_atom_site_label
_atom_site_type_symbol
_atom_site_fract_x
_atom_site_fract_y
_atom_site_fract_z
I1 I -0.03162(15) 0.7500 0.67389(5)
Br1 Br 0.5534(2) 0.7500 0.33008(8)
N1 N 0.0463(14) 0.7500 0.4944(5)
C1 C 0.483(2) 0.7500 0.5054(7)
H1 H 0.6342 0.7500 0.5090
C2 C 0.1563(18) 0.7500 0.5649(6)
C3 C 0.1601(19) 0.7500 0.4255(7)
H2 H 0.0882 0.7500 0.3746
C4 C 0.3825(18) 0.7500 0.4269(6)
N2 N 0.3665(15) 0.7500 0.5733(5)
loop_
_geom_bond_atom_site_label_1
_geom_bond_atom_site_label_2
_geom_bond_site_symmetry_1
_geom_bond_site_symmetry_2
I1 C2 1_555 1_555
Br1 C4 1_555 1_555
N1 C2 1_555 1_555
C1 H1 1_555 1_555
C2 N2 1_555 1_555
C3 N1 1_555 1_555
H2 C3 1_555 1_555
C4 C1 1_555 1_555
N2 C1 1_555 1_555
C3 C4 1_555 1_555

#END
