
#######################################################################
#
#                 Cambridge Crystallographic Data Centre
#                                CCDC 
#
#######################################################################
#
# If this CIF has been generated from an entry in the Cambridge 
# Structural Database, then it will include bibliographic, chemical, 
# crystal, experimental, refinement or atomic coordinate data resulting 
# from the CCDC's data processing and validation procedures.
#
#######################################################################

data_GEPLAP
_chemical_formula_moiety         'C11 H9 F2 N3 O1'
_chemical_name_systematic        
1-(2,4-Difluorophenyl)-3-(1H-1,2,4-triazol-1-yl)propan-1-one
_symmetry_cell_setting           triclinic
_symmetry_space_group_name_H-M   'P -1'
_symmetry_Int_Tables_number      2
_space_group_name_Hall           '-P 1'
loop_
_symmetry_equiv_pos_site_id
_symmetry_equiv_pos_as_xyz
1 x,y,z
2 -x,-y,-z
_cell_length_a                   6.939(3)
_cell_length_b                   7.743(4)
_cell_length_c                   10.939(5)
_cell_angle_alpha                100.685(7)
_cell_angle_beta                 90.650(8)
_cell_angle_gamma                110.307(7)
_cell_volume                     539.821
_exptl_crystal_colour            colorless
_exptl_crystal_description       block
_cell_formula_units_Z            2
_exptl_crystal_recrystallization_method 'ethyl acetate'
loop_
_atom_site_label
_atom_site_type_symbol
_atom_site_fract_x
_atom_site_fract_y
_atom_site_fract_z
F1 F 1.0979(2) 0.8283(2) 0.25874(12)
F2 F 0.69642(18) 0.7072(2) 0.59045(12)
O1 O 1.1737(2) 0.6540(2) 0.78827(14)
N1 N 0.7466(2) 0.7335(2) 1.03285(15)
N2 N 0.6820(3) 0.8788(3) 1.03009(18)
N3 N 0.5215(3) 0.7153(3) 1.17180(16)
C1 C 1.2269(3) 0.7551(3) 0.55853(19)
H1 H 1.3393 0.7497 0.6027
C2 C 1.2476(3) 0.7884(3) 0.4392(2)
H2 H 1.3719 0.8064 0.4030
C3 C 1.0804(4) 0.7941(3) 0.37577(19)
C4 C 0.8948(3) 0.7666(3) 0.42434(19)
H3 H 0.7824 0.7693 0.3787
C5 C 0.8814(3) 0.7349(3) 0.54373(19)
C6 C 1.0432(3) 0.7292(3) 0.61525(17)
C7 C 1.0369(3) 0.6947(3) 0.74592(18)
C8 C 0.8671(3) 0.7154(3) 0.82318(18)
H4 H 0.7381 0.6172 0.7877
H5 H 0.8541 0.8356 0.8212
C9 C 0.9066(3) 0.7037(3) 0.95630(19)
H6 H 0.9124 0.5810 0.9586
H7 H 1.0391 0.7977 0.9904
C10 C 0.5487(4) 0.8604(3) 1.1145(2)
H8 H 0.4772 0.9424 1.1337
C11 C 0.6498(3) 0.6397(3) 1.11675(19)
H9 H 0.6695 0.5340 1.1347
loop_
_geom_bond_atom_site_label_1
_geom_bond_atom_site_label_2
_geom_bond_site_symmetry_1
_geom_bond_site_symmetry_2
F1 C3 1_555 1_555
F2 C5 1_555 1_555
O1 C7 1_555 1_555
N1 N2 1_555 1_555
N2 C10 1_555 1_555
N3 C10 1_555 1_555
C1 H1 1_555 1_555
C2 C1 1_555 1_555
H2 C2 1_555 1_555
C3 C2 1_555 1_555
C4 C3 1_555 1_555
H3 C4 1_555 1_555
C5 C4 1_555 1_555
C6 C1 1_555 1_555
C7 C6 1_555 1_555
C8 C7 1_555 1_555
H4 C8 1_555 1_555
H5 C8 1_555 1_555
C9 N1 1_555 1_555
H6 C9 1_555 1_555
H7 C9 1_555 1_555
C10 H8 1_555 1_555
C11 N1 1_555 1_555
H9 C11 1_555 1_555
N3 C11 1_555 1_555
C5 C6 1_555 1_555
C8 C9 1_555 1_555

#END
