
#######################################################################
#
#                 Cambridge Crystallographic Data Centre
#                                CCDC 
#
#######################################################################
#
# If this CIF has been generated from an entry in the Cambridge 
# Structural Database, then it will include bibliographic, chemical, 
# crystal, experimental, refinement or atomic coordinate data resulting 
# from the CCDC's data processing and validation procedures.
#
#######################################################################

data_GEPQEY
_chemical_formula_moiety         'C24 H18 N2 O4,C2 H6 O1 S1'
_chemical_name_systematic        
"N,N'-bis(2-hydroxyphenyl)naphthalene-1,4-dicarboxamide dimethyl sulfoxide solvate"
_symmetry_cell_setting           triclinic
_symmetry_space_group_name_H-M   'P -1'
_symmetry_Int_Tables_number      2
_space_group_name_Hall           '-P 1'
loop_
_symmetry_equiv_pos_site_id
_symmetry_equiv_pos_as_xyz
1 x,y,z
2 -x,-y,-z
_cell_length_a                   9.5769(3)
_cell_length_b                   9.6804(2)
_cell_length_c                   13.0811(3)
_cell_angle_alpha                109.7960(10)
_cell_angle_beta                 98.1570(10)
_cell_angle_gamma                91.3690(10)
_cell_volume                     1126.14
_exptl_crystal_colour            colorless
_exptl_crystal_description       Block
_cell_formula_units_Z            2
loop_
_atom_site_label
_atom_site_type_symbol
_atom_site_fract_x
_atom_site_fract_y
_atom_site_fract_z
O1 O -0.12933(10) 1.21450(9) 0.24539(7)
O2 O -0.16442(9) 1.03100(9) 0.53205(7)
O3 O 0.25559(9) 0.54871(9) 0.04096(7)
O4 O 0.49235(9) 0.58363(9) -0.06985(7)
N1 N -0.06479(10) 1.12173(10) 0.38117(8)
N2 N 0.20762(10) 0.62814(10) -0.10446(8)
C1 C 0.00655(12) 1.00242(12) 0.20498(9)
C2 C -0.01920(12) 0.86020(12) 0.20009(9)
H1 H -0.0836 0.8391 0.2428
C3 C 0.04892(12) 0.74511(12) 0.13234(9)
H2 H 0.0296 0.6471 0.1296
C4 C 0.14280(11) 0.77244(12) 0.07023(9)
C5 C 0.27524(12) 0.95615(13) 0.01514(9)
H3 H 0.3267 0.8809 -0.0273
C6 C 0.30004(14) 1.09779(14) 0.01947(10)
H4 H 0.3671 1.1197 -0.0209
C7 C 0.22684(14) 1.21151(13) 0.08345(11)
H5 H 0.2430 1.3092 0.0846
C8 C 0.13272(12) 1.18186(12) 0.14388(10)
H6 H 0.0867 1.2602 0.1889
C9 C 0.10219(11) 1.03592(12) 0.14077(9)
C10 C 0.17352(11) 0.91949(12) 0.07324(9)
C11 C -0.06815(12) 1.12306(12) 0.27771(9)
C12 C -0.12465(11) 1.22541(12) 0.46598(9)
C13 C -0.13126(12) 1.37267(13) 0.47620(10)
H7 H -0.0989 1.4067 0.4229
C14 C -0.18508(13) 1.47050(13) 0.56405(10)
H8 H -0.1888 1.5712 0.5708
C15 C -0.23327(13) 1.42129(13) 0.64153(10)
H9 H -0.2701 1.4882 0.7014
C16 C -0.22788(12) 1.27439(13) 0.63189(9)
H10 H -0.2613 1.2409 0.6851
C17 C -0.17364(11) 1.17588(12) 0.54451(9)
C18 C 0.20933(11) 0.64073(12) 0.00130(9)
C19 C 0.26728(12) 0.51183(12) -0.18162(9)
C20 C 0.18298(13) 0.42568(12) -0.27903(10)
H11 H 0.0863 0.4437 -0.2930
C21 C 0.23913(15) 0.31317(14) -0.35624(10)
H12 H 0.1818 0.2555 -0.4235
C22 C 0.37961(15) 0.28611(14) -0.33406(10)
H13 H 0.4179 0.2076 -0.3855
C23 C 0.46484(14) 0.37260(14) -0.23744(10)
H14 H 0.5608 0.3525 -0.2230
C24 C 0.41053(12) 0.48884(12) -0.16148(9)
H15 H -0.0191(17) 1.0541(18) 0.3988(13)
H16 H 0.1655(17) 0.6911(18) -0.1320(13)
H17 H -0.223(2) 1.005(2) 0.5715(16)
H18 H 0.572(2) 0.539(2) -0.0560(17)
S1 S -0.48221(4) 0.89011(4) 0.61960(3)
O5 O -0.32832(14) 0.94518(17) 0.64464(11)
C25 C -0.5484(3) 0.9616(3) 0.7454(2)
H19 H -0.4835 0.9444 0.8041
H20 H -0.6417 0.9123 0.7382
H21 H -0.5568 1.0676 0.7634
C26 C -0.4817(2) 0.70388(19) 0.6120(2)
H22 H -0.4436 0.6458 0.5463
H23 H -0.5787 0.6651 0.6078
H24 H -0.4227 0.6978 0.6778
S2? S -0.4119(6) 0.8838(7) 0.6863(4)
O6? O -0.3889(17) 0.9537(19) 0.6027(13)
C27? C -0.546(3) 0.978(3) 0.755(3)
H25? H -0.5813 0.9227 0.7983
H26? H -0.6242 0.9871 0.7014
H27? H -0.5076 1.0763 0.8050
C28? C -0.512(3) 0.715(2) 0.610(2)
H28? H -0.5872 0.7309 0.5569
H29? H -0.5551 0.6779 0.6607
H30? H -0.4506 0.6432 0.5714
loop_
_geom_bond_atom_site_label_1
_geom_bond_atom_site_label_2
_geom_bond_site_symmetry_1
_geom_bond_site_symmetry_2
O1 C11 1_555 1_555
O2 C17 1_555 1_555
O3 C18 1_555 1_555
O4 C24 1_555 1_555
N1 C11 1_555 1_555
N2 C18 1_555 1_555
C1 C2 1_555 1_555
C2 H1 1_555 1_555
C3 C2 1_555 1_555
H2 C3 1_555 1_555
C4 C3 1_555 1_555
C5 H3 1_555 1_555
C6 C5 1_555 1_555
H4 C6 1_555 1_555
C7 C6 1_555 1_555
H5 C7 1_555 1_555
C8 C7 1_555 1_555
H6 C8 1_555 1_555
C9 C1 1_555 1_555
C10 C4 1_555 1_555
C11 C1 1_555 1_555
C12 N1 1_555 1_555
C13 C12 1_555 1_555
H7 C13 1_555 1_555
C14 C13 1_555 1_555
H8 C14 1_555 1_555
C15 C14 1_555 1_555
H9 C15 1_555 1_555
C16 C15 1_555 1_555
H10 C16 1_555 1_555
C17 C12 1_555 1_555
C18 C4 1_555 1_555
C19 N2 1_555 1_555
C20 C19 1_555 1_555
H11 C20 1_555 1_555
C21 C20 1_555 1_555
H12 C21 1_555 1_555
C22 C21 1_555 1_555
H13 C22 1_555 1_555
C23 C22 1_555 1_555
H14 C23 1_555 1_555
C24 C19 1_555 1_555
H15 N1 1_555 1_555
H16 N2 1_555 1_555
H17 O2 1_555 1_555
H18 O4 1_555 1_555
S1 O5 1_555 1_555
C25 S1 1_555 1_555
H19 C25 1_555 1_555
H20 C25 1_555 1_555
H21 C25 1_555 1_555
C26 S1 1_555 1_555
H22 C26 1_555 1_555
H23 C26 1_555 1_555
H24 C26 1_555 1_555
C5 C10 1_555 1_555
C8 C9 1_555 1_555
C9 C10 1_555 1_555
C16 C17 1_555 1_555
C23 C24 1_555 1_555

#END
