
#######################################################################
#
#                 Cambridge Crystallographic Data Centre
#                                CCDC 
#
#######################################################################
#
# If this CIF has been generated from an entry in the Cambridge 
# Structural Database, then it will include bibliographic, chemical, 
# crystal, experimental, refinement or atomic coordinate data resulting 
# from the CCDC's data processing and validation procedures.
#
#######################################################################

data_GEPQIC
_chemical_formula_moiety         'C12 H9 Cl1 N2 O1'
_chemical_name_systematic        N-(4-Chlorophenyl)picolinamide
_symmetry_cell_setting           triclinic
_symmetry_space_group_name_H-M   'P -1'
_symmetry_Int_Tables_number      2
_space_group_name_Hall           '-P 1'
loop_
_symmetry_equiv_pos_site_id
_symmetry_equiv_pos_as_xyz
1 x,y,z
2 -x,-y,-z
_cell_length_a                   6.308(3)
_cell_length_b                   8.251(3)
_cell_length_c                   10.766(4)
_cell_angle_alpha                87.358(4)
_cell_angle_beta                 86.463(4)
_cell_angle_gamma                77.518(4)
_cell_volume                     545.746
_exptl_crystal_colour            colorless
_exptl_crystal_description       Block
_cell_formula_units_Z            2
loop_
_atom_site_label
_atom_site_type_symbol
_atom_site_fract_x
_atom_site_fract_y
_atom_site_fract_z
Cl1 Cl 0.12203(12) 1.25338(9) 0.01215(6)
O1 O 0.7745(3) 0.7569(2) 0.43248(15)
N1 N 0.4036(3) 0.8162(2) 0.44913(16)
H1 H 0.2962 0.7968 0.4963
N2 N 0.4052(3) 0.6279(2) 0.65694(18)
C1 C 0.4042(4) 0.5333(3) 0.7615(2)
H2 H 0.2707 0.5281 0.8015
C2 C 0.5884(5) 0.4440(3) 0.8127(2)
H3 H 0.5792 0.3792 0.8851
C3 C 0.7869(4) 0.4514(3) 0.7559(2)
H4 H 0.9144 0.3915 0.7889
C4 C 0.7944(4) 0.5493(3) 0.6489(2)
H5 H 0.9267 0.5573 0.6087
C5 C 0.6001(3) 0.6353(2) 0.60292(18)
C6 C 0.6036(3) 0.7419(2) 0.48680(19)
C7 C 0.3465(3) 0.9203(2) 0.34434(19)
C8 C 0.1255(4) 0.9765(3) 0.3257(2)
H6 H 0.0229 0.9453 0.3823
C9 C 0.0580(4) 1.0777(3) 0.2245(2)
H7 H -0.0896 1.1147 0.2127
C10 C 0.2095(4) 1.1244(3) 0.1401(2)
C11 C 0.4282(4) 1.0693(3) 0.1566(2)
H8 H 0.5297 1.1005 0.0993
C12 C 0.4970(4) 0.9681(3) 0.2579(2)
H9 H 0.6450 0.9313 0.2688
loop_
_geom_bond_atom_site_label_1
_geom_bond_atom_site_label_2
_geom_bond_site_symmetry_1
_geom_bond_site_symmetry_2
Cl1 C10 1_555 1_555
O1 C6 1_555 1_555
N1 H1 1_555 1_555
N2 C1 1_555 1_555
C1 H2 1_555 1_555
C2 C1 1_555 1_555
H3 C2 1_555 1_555
C3 C2 1_555 1_555
H4 C3 1_555 1_555
C4 C3 1_555 1_555
H5 C4 1_555 1_555
C5 N2 1_555 1_555
C6 N1 1_555 1_555
C7 N1 1_555 1_555
C8 C7 1_555 1_555
H6 C8 1_555 1_555
C9 C8 1_555 1_555
H7 C9 1_555 1_555
C10 C9 1_555 1_555
C11 C10 1_555 1_555
H8 C11 1_555 1_555
C12 C7 1_555 1_555
H9 C12 1_555 1_555
C4 C5 1_555 1_555
C5 C6 1_555 1_555
C11 C12 1_555 1_555

#END
