
#######################################################################
#
#                 Cambridge Crystallographic Data Centre
#                                CCDC 
#
#######################################################################
#
# If this CIF has been generated from an entry in the Cambridge 
# Structural Database, then it will include bibliographic, chemical, 
# crystal, experimental, refinement or atomic coordinate data resulting 
# from the CCDC's data processing and validation procedures.
#
#######################################################################

data_GEPQAU
_chemical_formula_moiety         'C13 H17 N5 O2'
_chemical_name_systematic        
'Ethyl 1-(6-(dimethylamino)pyridazin-3-yl)-5-methyl-1H-pyrazole-4-carboxylate'
_symmetry_cell_setting           monoclinic
_symmetry_space_group_name_H-M   'P 21/c'
_symmetry_Int_Tables_number      14
_space_group_name_Hall           '-P 2ybc'
loop_
_symmetry_equiv_pos_site_id
_symmetry_equiv_pos_as_xyz
1 x,y,z
2 -x,1/2+y,1/2-z
3 -x,-y,-z
4 x,1/2-y,1/2+z
_cell_length_a                   9.870(2)
_cell_length_b                   10.650(2)
_cell_length_c                   13.896(3)
_cell_angle_alpha                90
_cell_angle_beta                 107.044(4)
_cell_angle_gamma                90
_cell_volume                     1396.53
_exptl_crystal_colour            colorless
_exptl_crystal_description       Prism
_cell_formula_units_Z            4
_exptl_crystal_recrystallization_method 'petroleum ether/ethyl acetate'
loop_
_atom_site_label
_atom_site_type_symbol
_atom_site_fract_x
_atom_site_fract_y
_atom_site_fract_z
O1 O 0.41784(16) 1.25299(14) 0.13080(13)
O2 O 0.19653(15) 1.19053(13) 0.05269(11)
N1 N 0.84307(18) 0.46492(16) 0.21556(14)
N2 N 0.79385(17) 0.67544(15) 0.19356(13)
N3 N 0.70208(18) 0.77169(14) 0.16427(14)
N4 N 0.47451(17) 0.85483(15) 0.10261(12)
N5 N 0.33749(19) 0.83279(18) 0.04506(14)
C1 C 0.7992(3) 0.33408(19) 0.21390(18)
H1 H 0.7392 0.3238 0.2566
H2 H 0.8813 0.2816 0.2376
H3 H 0.7481 0.3106 0.1463
C2 C 0.9865(2) 0.4954(2) 0.2718(2)
H4 H 1.0279 0.5477 0.2316
H5 H 1.0407 0.4195 0.2891
H6 H 0.9866 0.5394 0.3321
C3 C 0.7457(2) 0.55685(17) 0.18272(15)
C4 C 0.6005(2) 0.53049(19) 0.13846(16)
H7 H 0.5681 0.4481 0.1289
C5 C 0.5101(2) 0.62768(19) 0.11036(15)
H8 H 0.4136 0.6146 0.0812
C6 C 0.5666(2) 0.74891(17) 0.12663(14)
C7 C 0.2771(2) 0.9432(2) 0.03776(17)
H9 H 0.1825 0.9574 0.0027
C8 C 0.3690(2) 1.03732(19) 0.08786(15)
C9 C 0.4969(2) 0.97744(18) 0.13040(14)
C10 C 0.6313(2) 1.0289(2) 0.19594(18)
H10 H 0.6627 0.9790 0.2559
H11 H 0.6168 1.1139 0.2137
H12 H 0.7018 1.0272 0.1608
C11 C 0.3357(2) 1.1709(2) 0.09410(16)
C12 C 0.1462(2) 1.3174(2) 0.05447(18)
H13 H 0.1941 1.3732 0.0199
H14 H 0.1648 1.3460 0.1234
C13 C -0.0068(3) 1.3171(3) 0.0037(3)
H15 H -0.0236 1.2937 -0.0655
H16 H -0.0445 1.3994 0.0074
H17 H -0.0523 1.2579 0.0362
loop_
_geom_bond_atom_site_label_1
_geom_bond_atom_site_label_2
_geom_bond_site_symmetry_1
_geom_bond_site_symmetry_2
O1 C11 1_555 1_555
O2 C11 1_555 1_555
N1 C1 1_555 1_555
N2 N3 1_555 1_555
N3 C6 1_555 1_555
N4 N5 1_555 1_555
N5 C7 1_555 1_555
C1 H1 1_555 1_555
H2 C1 1_555 1_555
H3 C1 1_555 1_555
C2 N1 1_555 1_555
H4 C2 1_555 1_555
H5 C2 1_555 1_555
H6 C2 1_555 1_555
C3 N1 1_555 1_555
C4 C3 1_555 1_555
H7 C4 1_555 1_555
C5 C4 1_555 1_555
H8 C5 1_555 1_555
C6 N4 1_555 1_555
C7 H9 1_555 1_555
C8 C7 1_555 1_555
C9 N4 1_555 1_555
C10 C9 1_555 1_555
H10 C10 1_555 1_555
H11 C10 1_555 1_555
H12 C10 1_555 1_555
C11 C8 1_555 1_555
C12 O2 1_555 1_555
H13 C12 1_555 1_555
H14 C12 1_555 1_555
C13 C12 1_555 1_555
H15 C13 1_555 1_555
H16 C13 1_555 1_555
H17 C13 1_555 1_555
N2 C3 1_555 1_555
C5 C6 1_555 1_555
C8 C9 1_555 1_555

#END
