
#######################################################################
#
#                 Cambridge Crystallographic Data Centre
#                                CCDC 
#
#######################################################################
#
# If this CIF has been generated from an entry in the Cambridge 
# Structural Database, then it will include bibliographic, chemical, 
# crystal, experimental, refinement or atomic coordinate data resulting 
# from the CCDC's data processing and validation procedures.
#
#######################################################################

data_GEPRAV
_chemical_name_common            'Matrinium picrolonate hydrate'
_chemical_formula_moiety         'C15 H25 N2 O1 1+,C10 H7 N4 O5 1-,0.28(H2 O1)'
_chemical_name_systematic        
"(7aS*,13aR*,13bR*,13cS*)-10-oxo-dodecahydro-1H,5H,8H-dipyrido(2,1-f:3',2',1'-ij)(1,6)naphthyridinium 3-methyl-4-nitro-1-(4-nitrophenyl)-5-oxo-2-pyrazolinate hydrate"
_chemical_properties_biological  
'Matrine is an anti-inflammatory and antiarrhythmic agent, produces antiproligerous in cells and has protective properties for lipopolysaccharide reduced liver injury'
_symmetry_cell_setting           monoclinic
_symmetry_space_group_name_H-M   'P 21'
_symmetry_Int_Tables_number      4
_space_group_name_Hall           'P 2yb'
loop_
_symmetry_equiv_pos_site_id
_symmetry_equiv_pos_as_xyz
1 x,y,z
2 -x,1/2+y,-z
_cell_length_a                   8.3939(7)
_cell_length_b                   14.9227(13)
_cell_length_c                   10.0939(9)
_cell_angle_alpha                90
_cell_angle_beta                 92.166(2)
_cell_angle_gamma                90
_cell_volume                     1263.46
_exptl_crystal_colour            colorless
_exptl_crystal_description       block
_cell_formula_units_Z            2
loop_
_atom_site_label
_atom_site_type_symbol
_atom_site_fract_x
_atom_site_fract_y
_atom_site_fract_z
O1 O 0.6391(14) 1.0699(8) 0.7971(11)
H1 H 0.5842 1.0890 0.7336
H2 H 0.6631 1.0168 0.7930
O2 O 0.6319(5) 0.9008(4) 0.7790(3)
N1 N 0.5444(4) 0.8831(2) 0.5684(3)
N2 N 0.6002(4) 0.9256(2) 0.2128(3)
C1 C 0.5330(5) 0.8706(3) 0.6996(4)
C2 C 0.3949(7) 0.8176(4) 0.7475(4)
C3 C 0.3173(10) 0.7579(4) 0.6406(6)
H3 H 0.2241 0.7271 0.6719
H4 H 0.3917 0.7145 0.6070
C4 C 0.2731(7) 0.8297(5) 0.5380(9)
H5 H 0.2280 0.8812 0.5815
H6 H 0.1937 0.8064 0.4748
C7 C 0.4222(4) 0.8581(3) 0.4653(4)
H11 H 0.3724 0.9118 0.4264
C8 C 0.5003(5) 0.8024(2) 0.3581(5)
H12 H 0.5383 0.7471 0.4011
C9 C 0.3878(7) 0.7742(4) 0.2437(5)
H13 H 0.2922 0.7483 0.2789
H14 H 0.4390 0.7286 0.1917
C10 C 0.3417(6) 0.8534(4) 0.1543(4)
H15 H 0.2731 0.8328 0.0811
H16 H 0.2832 0.8972 0.2043
C11 C 0.4882(5) 0.8962(3) 0.1016(4)
H17 H 0.4577 0.9476 0.0476
H18 H 0.5420 0.8537 0.0458
C12 C 0.7453(5) 0.9684(3) 0.1566(4)
H19 H 0.8009 0.9247 0.1041
H20 H 0.7129 1.0176 0.0990
C13 C 0.8552(5) 1.0025(4) 0.2661(5)
H21 H 0.8016 1.0487 0.3152
H22 H 0.9488 1.0290 0.2283
C14 C 0.9059(5) 0.9279(4) 0.3590(5)
H23 H 0.9703 0.9525 0.4320
H24 H 0.9712 0.8856 0.3122
C15 C 0.7634(4) 0.8786(3) 0.4139(4)
H25 H 0.8051 0.8241 0.4569
C16 C 0.6469(5) 0.8486(3) 0.3038(4)
H26 H 0.7021 0.8043 0.2504
C17 C 0.6796(5) 0.9316(3) 0.5192(4)
H27 H 0.7546 0.9443 0.5924
H28 H 0.6435 0.9883 0.4821
H36 H 0.335(6) 0.855(4) 0.806(5)
H37 H 0.438(7) 0.771(3) 0.805(5)
H38 H 0.550(4) 0.967(3) 0.259(4)
O3 O -0.0459(5) 1.0693(4) 0.9506(4)
O4 O 0.1687(5) 0.9923(3) 0.9642(4)
O5 O 0.4294(3) 1.0651(2) 0.3344(3)
O6 O 0.4878(5) 1.1169(3) 0.0641(3)
O7 O 0.3083(5) 1.1998(3) -0.0342(3)
N3 N 0.0754(5) 1.0404(3) 0.9042(4)
N4 N 0.2057(4) 1.1469(2) 0.3863(3)
N5 N 0.0962(4) 1.2065(3) 0.3253(4)
N6 N 0.3625(5) 1.1596(3) 0.0659(4)
C18 C 0.1119(5) 1.0677(3) 0.7690(4)
C19 C -0.0077(5) 1.1040(3) 0.6906(4)
H29 H -0.1095 1.1108 0.7224
C20 C 0.0253(5) 1.1306(3) 0.5632(4)
H30 H -0.0543 1.1564 0.5091
C21 C 0.1766(4) 1.1187(2) 0.5161(3)
C22 C 0.2953(5) 1.0822(3) 0.5978(4)
H31 H 0.3975 1.0748 0.5669
C23 C 0.2627(5) 1.0568(3) 0.7248(4)
H32 H 0.3424 1.0324 0.7802
C24 C 0.1419(5) 1.2165(3) 0.2043(4)
C25 C 0.2796(5) 1.1645(3) 0.1825(4)
C26 C 0.3213(5) 1.1186(3) 0.3011(4)
C27 C 0.0540(7) 1.2792(5) 0.1141(6)
H33 H 0.0075 1.2465 0.0404
H34 H 0.1263 1.3235 0.0823
H35 H -0.0287 1.3083 0.1612
C5? C 0.2532(9) 0.8191(9) 0.6469(8)
H7? H 0.1712 0.7792 0.6777
H8? H 0.2090 0.8792 0.6438
C6? C 0.2946(14) 0.7914(7) 0.5068(10)
H9? H 0.2014 0.7947 0.4472
H10? H 0.3357 0.7306 0.5061
loop_
_geom_bond_atom_site_label_1
_geom_bond_atom_site_label_2
_geom_bond_site_symmetry_1
_geom_bond_site_symmetry_2
O1 H1 1_555 1_555
H2 O1 1_555 1_555
O2 C1 1_555 1_555
O3 N3 1_555 1_555
O4 N3 1_555 1_555
O5 C26 1_555 1_555
O6 N6 1_555 1_555
O7 N6 1_555 1_555
N1 C1 1_555 1_555
N2 C11 1_555 1_555
N3 C18 1_555 1_555
N4 N5 1_555 1_555
N5 C24 1_555 1_555
N6 C25 1_555 1_555
C1 C2 1_555 1_555
C2 C3 1_555 1_555
C3 H3 1_555 1_555
H4 C3 1_555 1_555
C4 C3 1_555 1_555
H5 C4 1_555 1_555
H6 C4 1_555 1_555
C7 N1 1_555 1_555
H11 C7 1_555 1_555
C8 C7 1_555 1_555
H12 C8 1_555 1_555
C9 C8 1_555 1_555
H13 C9 1_555 1_555
H14 C9 1_555 1_555
C10 C9 1_555 1_555
H15 C10 1_555 1_555
H16 C10 1_555 1_555
C11 C10 1_555 1_555
H17 C11 1_555 1_555
H18 C11 1_555 1_555
C12 N2 1_555 1_555
H19 C12 1_555 1_555
H20 C12 1_555 1_555
C13 C12 1_555 1_555
H21 C13 1_555 1_555
H22 C13 1_555 1_555
C14 C13 1_555 1_555
H23 C14 1_555 1_555
H24 C14 1_555 1_555
C15 C14 1_555 1_555
H25 C15 1_555 1_555
C16 N2 1_555 1_555
H26 C16 1_555 1_555
C17 N1 1_555 1_555
H27 C17 1_555 1_555
H28 C17 1_555 1_555
C18 C19 1_555 1_555
C19 H29 1_555 1_555
C20 C19 1_555 1_555
H30 C20 1_555 1_555
C21 N4 1_555 1_555
C22 C21 1_555 1_555
H31 C22 1_555 1_555
C23 C18 1_555 1_555
H32 C23 1_555 1_555
C24 C25 1_555 1_555
C25 C26 1_555 1_555
C26 N4 1_555 1_555
C27 C24 1_555 1_555
H33 C27 1_555 1_555
H34 C27 1_555 1_555
H35 C27 1_555 1_555
H36 C2 1_555 1_555
H37 C2 1_555 1_555
H38 N2 1_555 1_555
C4 C7 1_555 1_555
C8 C16 1_555 1_555
C15 C16 1_555 1_555
C15 C17 1_555 1_555
C20 C21 1_555 1_555
C22 C23 1_555 1_555

#END
