
#######################################################################
#
#                 Cambridge Crystallographic Data Centre
#                                CCDC 
#
#######################################################################
#
# If this CIF has been generated from an entry in the Cambridge 
# Structural Database, then it will include bibliographic, chemical, 
# crystal, experimental, refinement or atomic coordinate data resulting 
# from the CCDC's data processing and validation procedures.
#
#######################################################################

data_GEQBEK
_chemical_formula_moiety         'C20 H32 O9'
_chemical_name_systematic        
6,7-Dideoxy-1,2:3,4:9,10-tris(O-1-methylethylidene)-D-erythro-\a-D-galacto-undecopyranosid-8-ulose
_symmetry_cell_setting           trigonal
_symmetry_space_group_name_H-M   'P 32 2 1'
_symmetry_Int_Tables_number      154
_space_group_name_Hall           'P 32 2"'
loop_
_symmetry_equiv_pos_site_id
_symmetry_equiv_pos_as_xyz
1 x,y,z
2 -y,x-y,2/3+z
3 -x+y,-x,1/3+z
4 y,x,-z
5 x-y,-y,1/3-z
6 -x,-x+y,2/3-z
_cell_length_a                   12.2649(19)
_cell_length_b                   12.2649(19)
_cell_length_c                   24.675(8)
_cell_angle_alpha                90
_cell_angle_beta                 90
_cell_angle_gamma                120
_cell_volume                     3214.52
_exptl_crystal_colour            colorless
_exptl_crystal_description       plate
_chemical_melting_point          118-121deg.C
_cell_formula_units_Z            6
_exptl_crystal_recrystallization_method ethanol
loop_
_atom_site_label
_atom_site_type_symbol
_atom_site_fract_x
_atom_site_fract_y
_atom_site_fract_z
C1 C 0.8341(2) 0.4961(3) 0.99726(10)
H1 H 0.7987 0.5458 0.9803
C2 C 0.7538(2) 0.4189(3) 1.04501(10)
H2 H 0.7934 0.3746 1.0624
H3 H 0.6695 0.3548 1.0318
C3 C 0.7401(2) 0.5037(2) 1.08661(10)
H4 H 0.8251 0.5688 1.0986
H5 H 0.7004 0.5474 1.0687
C4 C 0.6628(2) 0.4351(2) 1.13618(9)
C5 C 0.5185(2) 0.3497(2) 1.12863(9)
H6 H 0.4922 0.2584 1.1304
C6 C 0.4614(2) 0.3886(2) 1.17547(9)
H7 H 0.3954 0.3150 1.1962
C7 C 0.5736(3) 0.4768(3) 1.21003(10)
H8 H 0.5599 0.5420 1.2271
H9 H 0.5888 0.4297 1.2388
C8 C 0.3808(3) 0.4104(2) 1.09487(9)
C9 C 0.2508(3) 0.2928(3) 1.09442(11)
H10 H 0.2500 0.2302 1.1193
H11 H 0.2312 0.2578 1.0577
H12 H 0.1878 0.3148 1.1059
C10 C 0.3921(3) 0.5138(3) 1.05817(10)
H13 H 0.3279 0.5355 1.0679
H14 H 0.3799 0.4849 1.0205
H15 H 0.4759 0.5881 1.0623
O1 O 0.70164(18) 0.35674(19) 1.16109(7)
H16 H 0.7791 0.3986 1.1678
O2 O 0.67667(18) 0.53212(19) 1.17307(8)
O3 O 0.41336(17) 0.45932(17) 1.14850(6)
O4 O 0.47515(17) 0.37975(18) 1.08030(6)
C21 C 0.845(4) 0.430(3) 0.9503(17)
H33 H 0.7641 0.3855 0.9293
C22 C 0.9582(9) 0.5206(8) 0.9139(4)
H34 H 0.9321 0.5036 0.8750
C23 C 1.0133(7) 0.6572(8) 0.9247(3)
H35 H 1.0968 0.7051 0.9062
C24 C 1.0273(13) 0.6941(11) 0.9849(6)
H36 H 1.1184 0.7349 0.9948
C25 C 0.9890(11) 0.3617(9) 0.9436(4)
C26 C 1.075(2) 0.3478(16) 0.9832(7)
H37 H 1.1519 0.3637 0.9646
H38 H 1.0320 0.2621 0.9980
H39 H 1.0960 0.4084 1.0128
C27 C 0.9473(9) 0.2660(9) 0.8995(4)
H40 H 0.9020 0.2850 0.8718
H41 H 0.8915 0.1822 0.9146
H42 H 1.0211 0.2679 0.8832
C28 C 0.9492(7) 0.8031(7) 0.9363(3)
C29 C 0.8257(8) 0.8029(8) 0.9406(3)
H43 H 0.7991 0.8132 0.9044
H44 H 0.8370 0.8724 0.9639
H45 H 0.7613 0.7228 0.9562
C30 C 1.0564(8) 0.9275(7) 0.9132(3)
H46 H 1.1324 0.9210 0.9090
H47 H 1.0737 0.9967 0.9380
H48 H 1.0313 0.9440 0.8778
O10 O 0.959(10) 0.588(8) 1.018(3)
O11 O 0.880(3) 0.3449(17) 0.9731(13)
O12 O 1.0506(6) 0.4856(7) 0.9238(3)
O13 O 0.9889(7) 0.7856(7) 0.9886(3)
O14 O 0.9302(6) 0.6988(7) 0.9049(2)
C11? C 0.844(4) 0.405(3) 0.9544(18)
H17? H 0.7620 0.3590 0.9346
C12? C 0.9514(11) 0.4752(9) 0.9120(4)
H18? H 0.9183 0.4491 0.8743
C13? C 1.0183(8) 0.6148(9) 0.9172(3)
H19? H 1.1023 0.6526 0.8990
C14? C 1.0338(14) 0.6640(12) 0.9765(6)
H20? H 1.1243 0.7047 0.9875
C15? C 0.9782(12) 0.3192(9) 0.9503(5)
C16? C 1.0636(19) 0.3135(16) 0.9922(7)
H21? H 1.1430 0.3313 0.9752
H22? H 1.0231 0.2294 1.0085
H23? H 1.0806 0.3763 1.0205
C17? C 0.9331(8) 0.2121(9) 0.9077(4)
H24? H 0.8769 0.2196 0.8817
H25? H 0.8878 0.1304 0.9261
H26? H 1.0061 0.2186 0.8886
C18? C 0.9716(8) 0.7740(9) 0.9183(4)
C19? C 0.8609(9) 0.7933(7) 0.9151(4)
H27? H 0.8447 0.8041 0.8771
H28? H 0.8784 0.8687 0.9357
H29? H 0.7867 0.7199 0.9303
C20? C 1.0936(8) 0.8862(7) 0.8946(3)
H30? H 1.1654 0.8746 0.9026
H31? H 1.1076 0.9649 0.9111
H32? H 1.0847 0.8899 0.8553
O5? O 0.958(11) 0.576(8) 1.016(4)
O6? O 0.872(3) 0.3150(18) 0.9765(13)
O7? O 1.0411(7) 0.4365(7) 0.9246(3)
O8? O 0.9955(8) 0.7565(8) 0.9746(3)
O9? O 0.9433(5) 0.6603(6) 0.8925(2)
loop_
_geom_bond_atom_site_label_1
_geom_bond_atom_site_label_2
_geom_bond_site_symmetry_1
_geom_bond_site_symmetry_2
C1 H1 1_555 1_555
C2 C1 1_555 1_555
H2 C2 1_555 1_555
H3 C2 1_555 1_555
C3 C2 1_555 1_555
H4 C3 1_555 1_555
H5 C3 1_555 1_555
C4 C3 1_555 1_555
C5 C4 1_555 1_555
H6 C5 1_555 1_555
C6 C5 1_555 1_555
H7 C6 1_555 1_555
C7 C6 1_555 1_555
H8 C7 1_555 1_555
H9 C7 1_555 1_555
C8 C9 1_555 1_555
C9 H10 1_555 1_555
H11 C9 1_555 1_555
H12 C9 1_555 1_555
C10 C8 1_555 1_555
H13 C10 1_555 1_555
H14 C10 1_555 1_555
H15 C10 1_555 1_555
O1 C4 1_555 1_555
H16 O1 1_555 1_555
O2 C4 1_555 1_555
O3 C6 1_555 1_555
O4 C5 1_555 1_555
C21 C1 1_555 1_555
H33 C21 1_555 1_555
C22 C21 1_555 1_555
H34 C22 1_555 1_555
C23 C22 1_555 1_555
H35 C23 1_555 1_555
C24 C23 1_555 1_555
H36 C24 1_555 1_555
C25 C26 1_555 1_555
C26 H37 1_555 1_555
H38 C26 1_555 1_555
H39 C26 1_555 1_555
C27 C25 1_555 1_555
H40 C27 1_555 1_555
H41 C27 1_555 1_555
H42 C27 1_555 1_555
C28 C29 1_555 1_555
C29 H43 1_555 1_555
H44 C29 1_555 1_555
H45 C29 1_555 1_555
C30 C28 1_555 1_555
H46 C30 1_555 1_555
H47 C30 1_555 1_555
H48 C30 1_555 1_555
O10 C1 1_555 1_555
O11 C21 1_555 1_555
O12 C22 1_555 1_555
O13 C24 1_555 1_555
O14 C23 1_555 1_555
C7 O2 1_555 1_555
C8 O3 1_555 1_555
C8 O4 1_555 1_555
C24 O10 1_555 1_555
C25 O11 1_555 1_555
C25 O12 1_555 1_555
C28 O13 1_555 1_555
C28 O14 1_555 1_555

#END
