
#######################################################################
#
#                 Cambridge Crystallographic Data Centre
#                                CCDC 
#
#######################################################################
#
# If this CIF has been generated from an entry in the Cambridge 
# Structural Database, then it will include bibliographic, chemical, 
# crystal, experimental, refinement or atomic coordinate data resulting 
# from the CCDC's data processing and validation procedures.
#
#######################################################################

data_GEQDIR01
_chemical_formula_moiety         'C34 H38 B1 N1'
_chemical_name_systematic        
2-(2-(2-(Dimesitylboryl)phenyl)vinyl)-N,N-dimethylaniline
_symmetry_cell_setting           monoclinic
_symmetry_space_group_name_H-M   'P 21/n'
_symmetry_Int_Tables_number      14
_space_group_name_Hall           '-P 2yn'
loop_
_symmetry_equiv_pos_site_id
_symmetry_equiv_pos_as_xyz
1 x,y,z
2 1/2-x,1/2+y,1/2-z
3 -x,-y,-z
4 1/2+x,1/2-y,1/2+z
_cell_length_a                   15.525(19)
_cell_length_b                   9.443(12)
_cell_length_c                   19.35(2)
_cell_angle_alpha                90
_cell_angle_beta                 94.11(2)
_cell_angle_gamma                90
_cell_volume                     2829.46
_exptl_crystal_description       block
_cell_formula_units_Z            4
loop_
_atom_site_label
_atom_site_type_symbol
_atom_site_fract_x
_atom_site_fract_y
_atom_site_fract_z
C1 C 0.36280(17) 0.3117(3) 0.40045(14)
C2 C 0.35771(16) 0.4155(3) 0.34718(14)
C3 C 0.27546(17) 0.4425(3) 0.31286(14)
C4 C 0.45160(16) 0.6616(3) 0.32651(13)
N1 N 0.2218(2) 0.9684(3) 0.54762(14)
C5 C 0.52014(17) 0.4073(3) 0.30047(15)
C6 C 0.40863(17) 0.7581(3) 0.36886(15)
C7 C 0.60292(18) 0.4175(3) 0.33588(16)
C8 C 0.34698(18) 0.7104(3) 0.41842(14)
H1 H 0.3514 0.6169 0.4333
C9 C 0.20380(18) 0.3672(3) 0.33077(15)
H2 H 0.1507 0.3847 0.3069
C10 C 0.1876(2) 0.8286(4) 0.53945(15)
C11 C 0.22137(18) 0.7383(4) 0.49040(15)
C12 C 0.20866(18) 0.2667(3) 0.38298(16)
C13 C 0.5103(2) 0.3182(3) 0.24136(16)
C14 C 0.28564(18) 0.7891(3) 0.44372(15)
H3 H 0.2831 0.8840 0.4309
C15 C 0.50879(18) 0.7195(3) 0.28130(15)
H4 H 0.5378 0.6583 0.2533
C16 C 0.28845(19) 0.2421(3) 0.41692(15)
H5 H 0.2925 0.1757 0.4525
C17 C 0.44677(18) 0.2785(3) 0.44206(16)
H6 H 0.4878 0.2420 0.4118
H7 H 0.4365 0.2091 0.4768
H8 H 0.4692 0.3633 0.4640
C18 C 0.52404(19) 0.8622(4) 0.27637(16)
H9 H 0.5613 0.8965 0.2447
C19 C 0.42754(19) 0.9024(3) 0.36463(17)
H10 H 0.4014 0.9653 0.3937
C20 C 0.6714(2) 0.3399(4) 0.31342(19)
H11 H 0.7250 0.3462 0.3379
C21 C 0.18986(19) 0.6005(4) 0.48404(18)
H12 H 0.2127 0.5392 0.4525
C22 C 0.1206(2) 0.7796(5) 0.57712(18)
H13 H 0.0957 0.8403 0.6079
B1 B 0.4411(2) 0.4951(4) 0.32579(16)
C23 C 0.7390(3) 0.1715(5) 0.2316(2)
H14 H 0.7841 0.2364 0.2218
H15 H 0.7212 0.1193 0.1905
H16 H 0.7600 0.1071 0.2674
C24 C 0.4834(2) 0.9542(4) 0.31899(18)
H17 H 0.4939 1.0510 0.3168
C25 C 0.5818(2) 0.2454(3) 0.22046(18)
H18 H 0.5753 0.1887 0.1811
C26 C 0.2635(2) 0.5494(4) 0.25560(17)
H19 H 0.2613 0.6427 0.2751
H20 H 0.2106 0.5304 0.2285
H21 H 0.3111 0.5436 0.2266
C27 C 0.6624(2) 0.2537(4) 0.2559(2)
C28 C 0.6203(2) 0.5082(4) 0.39954(18)
H22 H 0.6344 0.6026 0.3859
H23 H 0.6678 0.4691 0.4279
H24 H 0.5698 0.5105 0.4254
C29 C 0.1290(2) 0.1873(4) 0.40123(18)
H25 H 0.1019 0.2373 0.4370
H26 H 0.1450 0.0941 0.4173
H27 H 0.0894 0.1800 0.3609
C30 C 0.1253(2) 0.5535(5) 0.5238(2)
H28 H 0.1054 0.4609 0.5193
C31 C 0.1674(3) 1.0702(5) 0.5814(2)
H29 H 0.1089 1.0617 0.5622
H30 H 0.1879 1.1645 0.5739
H31 H 0.1698 1.0511 0.6302
C32 C 0.4262(2) 0.3033(4) 0.19832(19)
H32 H 0.3803 0.2870 0.2282
H33 H 0.4297 0.2248 0.1671
H34 H 0.4147 0.3885 0.1722
C33 C 0.3118(3) 0.9764(4) 0.57615(18)
H35 H 0.3145 0.9562 0.6249
H36 H 0.3339 1.0697 0.5689
H37 H 0.3458 0.9083 0.5533
C34 C 0.0905(2) 0.6435(5) 0.5698(2)
H38 H 0.0464 0.6122 0.5962
loop_
_geom_bond_atom_site_label_1
_geom_bond_atom_site_label_2
_geom_bond_site_symmetry_1
_geom_bond_site_symmetry_2
C1 C2 1_555 1_555
C2 C3 1_555 1_555
C3 C9 1_555 1_555
C4 C6 1_555 1_555
N1 C10 1_555 1_555
C5 C7 1_555 1_555
C6 C8 1_555 1_555
C7 C20 1_555 1_555
C8 H1 1_555 1_555
C9 H2 1_555 1_555
C10 C11 1_555 1_555
C11 C14 1_555 1_555
C12 C9 1_555 1_555
C13 C5 1_555 1_555
C14 C8 1_555 1_555
H3 C14 1_555 1_555
C15 C4 1_555 1_555
H4 C15 1_555 1_555
C16 C1 1_555 1_555
H5 C16 1_555 1_555
C17 C1 1_555 1_555
H6 C17 1_555 1_555
H7 C17 1_555 1_555
H8 C17 1_555 1_555
C18 C15 1_555 1_555
H9 C18 1_555 1_555
C19 C6 1_555 1_555
H10 C19 1_555 1_555
C20 H11 1_555 1_555
C21 C11 1_555 1_555
H12 C21 1_555 1_555
C22 C10 1_555 1_555
H13 C22 1_555 1_555
B1 C2 1_555 1_555
C23 H14 1_555 1_555
H15 C23 1_555 1_555
H16 C23 1_555 1_555
C24 C18 1_555 1_555
H17 C24 1_555 1_555
C25 C13 1_555 1_555
H18 C25 1_555 1_555
C26 C3 1_555 1_555
H19 C26 1_555 1_555
H20 C26 1_555 1_555
H21 C26 1_555 1_555
C27 C20 1_555 1_555
C28 C7 1_555 1_555
H22 C28 1_555 1_555
H23 C28 1_555 1_555
H24 C28 1_555 1_555
C29 C12 1_555 1_555
H25 C29 1_555 1_555
H26 C29 1_555 1_555
H27 C29 1_555 1_555
C30 C21 1_555 1_555
H28 C30 1_555 1_555
C31 N1 1_555 1_555
H29 C31 1_555 1_555
H30 C31 1_555 1_555
H31 C31 1_555 1_555
C32 C13 1_555 1_555
H32 C32 1_555 1_555
H33 C32 1_555 1_555
H34 C32 1_555 1_555
C33 N1 1_555 1_555
H35 C33 1_555 1_555
H36 C33 1_555 1_555
H37 C33 1_555 1_555
C34 C22 1_555 1_555
H38 C34 1_555 1_555
C4 B1 1_555 1_555
C5 B1 1_555 1_555
C12 C16 1_555 1_555
C19 C24 1_555 1_555
C23 C27 1_555 1_555
C25 C27 1_555 1_555
C30 C34 1_555 1_555

#END
