
#######################################################################
#
#                 Cambridge Crystallographic Data Centre
#                                CCDC 
#
#######################################################################
#
# If this CIF has been generated from an entry in the Cambridge 
# Structural Database, then it will include bibliographic, chemical, 
# crystal, experimental, refinement or atomic coordinate data resulting 
# from the CCDC's data processing and validation procedures.
#
#######################################################################

data_GEQDOX01
_chemical_formula_moiety         'C34 H36 B1 N1'
_chemical_name_systematic        
2-((2-(Dimesitylboryl)phenyl)ethynyl)-N,N-dimethylaniline
_symmetry_cell_setting           triclinic
_symmetry_space_group_name_H-M   'P -1'
_symmetry_Int_Tables_number      2
_space_group_name_Hall           '-P 1'
loop_
_symmetry_equiv_pos_site_id
_symmetry_equiv_pos_as_xyz
1 x,y,z
2 -x,-y,-z
_cell_length_a                   8.3328(11)
_cell_length_b                   12.0347(17)
_cell_length_c                   14.628(2)
_cell_angle_alpha                99.123(2)
_cell_angle_beta                 103.603(2)
_cell_angle_gamma                99.534(3)
_cell_volume                     1375.92
_exptl_crystal_description       block
_cell_formula_units_Z            2
loop_
_atom_site_label
_atom_site_type_symbol
_atom_site_fract_x
_atom_site_fract_y
_atom_site_fract_z
N1 N 0.2943(3) 0.6609(2) 1.08794(19)
C1 C 0.3802(3) 0.7682(2) 0.59624(18)
C2 C 0.6893(3) 0.8471(2) 0.80342(18)
C3 C 0.4626(3) 0.7846(2) 0.52439(19)
C4 C 0.3129(3) 0.5477(2) 0.76429(19)
C5 C 0.1792(4) 0.8731(2) 0.5230(2)
H1 H 0.0833 0.9031 0.5231
C6 C 0.6298(3) 0.7363(2) 0.74501(18)
C7 C 0.3229(3) 0.5877(2) 0.67892(18)
C8 C 0.2348(3) 0.8140(2) 0.59399(19)
C9 C 0.7422(4) 0.6595(2) 0.7499(2)
C10 C 0.9640(3) 0.8039(3) 0.8657(2)
C11 C 0.4594(4) 0.7212(2) 1.1091(2)
C12 C 0.4061(4) 0.6140(3) 0.8590(2)
C13 C 0.8534(3) 0.8781(3) 0.86123(19)
H2 H 0.8911 0.9521 0.8988
C14 C 0.2184(4) 0.5190(3) 0.5934(2)
H3 H 0.2188 0.5438 0.5363
C15 C 0.5471(4) 0.7202(2) 1.03756(19)
C16 C 0.4684(4) 0.6610(3) 0.9405(2)
C17 C 0.9046(4) 0.6949(3) 0.8093(2)
H4 H 0.9763 0.6433 0.8114
C18 C 0.2588(4) 0.8897(2) 0.4525(2)
C19 C 0.4004(4) 0.8442(3) 0.4547(2)
H5 H 0.4566 0.8537 0.4077
C20 C 0.2066(4) 0.4440(3) 0.7598(2)
H6 H 0.2020 0.4188 0.8161
C21 C 0.5761(4) 0.9312(3) 0.8089(2)
H7 H 0.5177 0.9357 0.7452
H8 H 0.6426 1.0057 0.8426
H9 H 0.4954 0.9060 0.8426
B1 B 0.4456(4) 0.6990(3) 0.6760(2)
C22 C 0.7119(4) 0.7828(3) 1.0605(2)
H10 H 0.7706 0.7798 1.0137
C23 C 0.1143(4) 0.4159(3) 0.5894(2)
H11 H 0.0482 0.3716 0.5304
C24 C 0.6930(4) 0.5390(3) 0.6888(2)
H12 H 0.6159 0.4913 0.7132
H13 H 0.7922 0.5077 0.6907
H14 H 0.6396 0.5416 0.6236
C25 C 0.6141(4) 0.7341(3) 0.5173(2)
H15 H 0.6995 0.7587 0.5774
H16 H 0.6580 0.7598 0.4674
H17 H 0.5813 0.6516 0.5024
C26 C 0.1389(4) 0.8017(3) 0.6677(2)
H18 H 0.0508 0.7335 0.6450
H19 H 0.0900 0.8678 0.6787
H20 H 0.2142 0.7960 0.7267
C27 C 0.1083(4) 0.3784(3) 0.6732(3)
H21 H 0.0378 0.3089 0.6709
C28 C 0.5432(5) 0.7893(3) 1.1995(2)
H22 H 0.4873 0.7923 1.2476
C29 C 0.1946(4) 0.9530(3) 0.3755(2)
H23 H 0.1463 0.8992 0.3153
H24 H 0.2864 1.0088 0.3698
H25 H 0.1099 0.9913 0.3922
C30 C 0.7906(5) 0.8491(3) 1.1506(3)
H26 H 0.9005 0.8914 1.1644
C31 C 1.1420(4) 0.8418(3) 0.9298(2)
H27 H 1.1943 0.9136 0.9182
H28 H 1.2055 0.7845 0.9162
H29 H 1.1396 0.8515 0.9959
C32 C 0.7043(5) 0.8518(3) 1.2200(3)
H30 H 0.7560 0.8964 1.2813
C33 C 0.1901(5) 0.6942(4) 1.1508(3)
H31 H 0.2276 0.6719 1.2111
H32 H 0.0743 0.6565 1.1209
H33 H 0.1998 0.7761 1.1616
C34 C 0.2526(4) 0.5391(3) 1.0458(3)
H34 H 0.3462 0.5176 1.0249
H35 H 0.1550 0.5229 0.9917
H36 H 0.2291 0.4961 1.0928
loop_
_geom_bond_atom_site_label_1
_geom_bond_atom_site_label_2
_geom_bond_site_symmetry_1
_geom_bond_site_symmetry_2
N1 C11 1_555 1_555
C1 C3 1_555 1_555
C2 C6 1_555 1_555
C3 C19 1_555 1_555
C4 C7 1_555 1_555
C5 H1 1_555 1_555
C6 C9 1_555 1_555
C7 C14 1_555 1_555
C8 C1 1_555 1_555
C9 C17 1_555 1_555
C10 C13 1_555 1_555
C11 C15 1_555 1_555
C12 C4 1_555 1_555
C13 C2 1_555 1_555
H2 C13 1_555 1_555
C14 H3 1_555 1_555
C15 C16 1_555 1_555
C16 C12 1_555 1_555
C17 C10 1_555 1_555
H4 C17 1_555 1_555
C18 C5 1_555 1_555
C19 C18 1_555 1_555
H5 C19 1_555 1_555
C20 C4 1_555 1_555
H6 C20 1_555 1_555
C21 C2 1_555 1_555
H7 C21 1_555 1_555
H8 C21 1_555 1_555
H9 C21 1_555 1_555
B1 C1 1_555 1_555
C22 C15 1_555 1_555
H10 C22 1_555 1_555
C23 C14 1_555 1_555
H11 C23 1_555 1_555
C24 C9 1_555 1_555
H12 C24 1_555 1_555
H13 C24 1_555 1_555
H14 C24 1_555 1_555
C25 C3 1_555 1_555
H15 C25 1_555 1_555
H16 C25 1_555 1_555
H17 C25 1_555 1_555
C26 C8 1_555 1_555
H18 C26 1_555 1_555
H19 C26 1_555 1_555
H20 C26 1_555 1_555
C27 C20 1_555 1_555
H21 C27 1_555 1_555
C28 C11 1_555 1_555
H22 C28 1_555 1_555
C29 C18 1_555 1_555
H23 C29 1_555 1_555
H24 C29 1_555 1_555
H25 C29 1_555 1_555
C30 C22 1_555 1_555
H26 C30 1_555 1_555
C31 C10 1_555 1_555
H27 C31 1_555 1_555
H28 C31 1_555 1_555
H29 C31 1_555 1_555
C32 C28 1_555 1_555
H30 C32 1_555 1_555
C33 N1 1_555 1_555
H31 C33 1_555 1_555
H32 C33 1_555 1_555
H33 C33 1_555 1_555
C34 N1 1_555 1_555
H34 C34 1_555 1_555
H35 C34 1_555 1_555
H36 C34 1_555 1_555
C5 C8 1_555 1_555
C6 B1 1_555 1_555
C7 B1 1_555 1_555
C23 C27 1_555 1_555
C30 C32 1_555 1_555

#END
