
#######################################################################
#
#                 Cambridge Crystallographic Data Centre
#                                CCDC 
#
#######################################################################
#
# If this CIF has been generated from an entry in the Cambridge 
# Structural Database, then it will include bibliographic, chemical, 
# crystal, experimental, refinement or atomic coordinate data resulting 
# from the CCDC's data processing and validation procedures.
#
#######################################################################

data_GEQJUI
_chemical_formula_moiety         'C49 H54 N5 O5 S2 1+,Cl1 1-'
_chemical_name_systematic        
'7,18-Dimethyl-3,22-bis(p-tosyl)-23-methoxy-8,12,13,17-tetraethyl-3,22-diaza-25,26-dicarbasapphyrin chloride'
_symmetry_cell_setting           triclinic
_symmetry_space_group_name_H-M   'P -1'
_symmetry_Int_Tables_number      2
_space_group_name_Hall           '-P 1'
loop_
_symmetry_equiv_pos_site_id
_symmetry_equiv_pos_as_xyz
1 x,y,z
2 -x,-y,-z
_cell_length_a                   11.6570(7)
_cell_length_b                   15.466(1)
_cell_length_c                   15.860(1)
_cell_angle_alpha                62.647(3)
_cell_angle_beta                 76.458(3)
_cell_angle_gamma                89.571(3)
_cell_volume                     2452.4
_exptl_crystal_colour            black
_exptl_crystal_description       prisms
_cell_formula_units_Z            2
loop_
_atom_site_label
_atom_site_type_symbol
_atom_site_fract_x
_atom_site_fract_y
_atom_site_fract_z
Cl1 Cl 0.22088(10) 0.35115(8) 0.54460(8)
S1 S 0.23443(12) 0.43682(9) 0.10011(8)
S2 S -0.22081(13) 0.11481(10) 0.63811(10)
O1 O 0.0892(3) 0.2671(2) 0.3137(2)
O2 O 0.3104(3) 0.5267(2) 0.0376(2)
O3 O 0.1332(3) 0.4159(2) 0.0734(2)
O4 O -0.2874(3) 0.0962(2) 0.7333(2)
O5 O -0.2726(3) 0.0878(3) 0.5800(3)
C1 C 0.0508(4) 0.4012(3) 0.3546(3)
C2 C 0.0736(4) 0.3685(3) 0.2770(3)
H1 H 0.0092 0.3822 0.2461
N1 N 0.1823(3) 0.4345(3) 0.2061(2)
C3 C 0.2344(4) 0.4820(3) 0.2507(3)
C4 C 0.3461(4) 0.5292(3) 0.2176(3)
H2 H 0.3936 0.5342 0.1569
C5 C 0.4006(4) 0.5734(3) 0.2618(3)
C6 C 0.5004(4) 0.6443(3) 0.2139(3)
C7 C 0.5276(4) 0.6687(3) 0.2813(3)
C8 C 0.4456(4) 0.6109(3) 0.3729(3)
C9 C 0.4456(4) 0.6139(3) 0.4604(3)
H3 H 0.5128 0.6569 0.4494
C10 C 0.3786(4) 0.5747(3) 0.5564(3)
C11 C 0.4029(4) 0.6015(3) 0.6270(3)
C12 C 0.3198(4) 0.5496(3) 0.7129(3)
C13 C 0.2405(4) 0.4880(3) 0.7007(3)
C14 C 0.1416(5) 0.4253(3) 0.7765(3)
H4 H 0.1453 0.4182 0.8392
C15 C 0.0432(5) 0.3732(3) 0.7839(3)
C16 C -0.0558(4) 0.3310(3) 0.8710(3)
C17 C -0.1435(5) 0.2893(3) 0.8534(3)
C18 C -0.1047(5) 0.3034(3) 0.7535(3)
C19 C -0.1692(4) 0.2748(3) 0.7081(3)
H5 H -0.2453 0.2378 0.7471
C20 C -0.1349(4) 0.2940(3) 0.6083(3)
N2 N -0.1807(3) 0.2356(3) 0.5725(3)
C21 C -0.1198(4) 0.2719(3) 0.4731(3)
H6 H -0.1294 0.2428 0.4328
C22 C -0.0421(4) 0.3522(3) 0.4448(3)
C23 C 0.1436(4) 0.4632(3) 0.3379(3)
H7 H 0.1489 0.4921 0.3792
N3 N 0.3682(3) 0.5517(3) 0.3601(2)
H8 H 0.3033 0.5054 0.4105
N4 N 0.2778(3) 0.5064(3) 0.6044(2)
H9 H 0.2392 0.4782 0.5740
N5 N 0.0096(3) 0.3539(2) 0.7153(2)
H10 H 0.0588 0.3729 0.6504
C24 C -0.0550(4) 0.3666(3) 0.5294(3)
H11 H -0.0138 0.4195 0.5304
C25 C 0.3202(4) 0.3390(3) 0.1213(3)
C26 C 0.4395(5) 0.3519(3) 0.1161(3)
H12 H 0.4760 0.4154 0.0983
C27 C 0.5069(5) 0.2740(4) 0.1358(3)
H13 H 0.5891 0.2838 0.1333
C28 C 0.4557(5) 0.1821(4) 0.1600(3)
C29 C 0.3363(5) 0.1707(4) 0.1630(3)
H14 H 0.3007 0.1079 0.1777
C30 C 0.2686(5) 0.2487(4) 0.1446(3)
H15 H 0.1859 0.2393 0.1483
C31 C 0.5259(5) 0.0966(4) 0.1821(4)
H16 H 0.6033 0.1150 0.1842
H17 H 0.5338 0.0758 0.1328
H18 H 0.4854 0.0439 0.2451
C32 C 0.5651(4) 0.6886(3) 0.1065(3)
H19 H 0.5433 0.7528 0.0702
H20 H 0.5439 0.6466 0.0817
H21 H 0.6492 0.6928 0.0994
C33 C 0.6229(4) 0.7455(3) 0.2601(3)
H22 H 0.6815 0.7573 0.2011
H23 H 0.6611 0.7210 0.3128
C34 C 0.5776(5) 0.8417(3) 0.2469(4)
H24 H 0.5409 0.8673 0.1933
H25 H 0.6424 0.8880 0.2336
H26 H 0.5203 0.8303 0.3064
C35 C 0.5014(4) 0.6755(3) 0.6069(3)
H27 H 0.5683 0.6742 0.5590
H28 H 0.5258 0.6574 0.6660
C36 C 0.4685(6) 0.7787(4) 0.5704(5)
H29 H 0.4512 0.7992 0.5082
H30 H 0.5333 0.8221 0.5626
H31 H 0.3997 0.7805 0.6165
C37 C 0.3077(4) 0.5546(4) 0.8078(3)
H32 H 0.3828 0.5800 0.8073
H33 H 0.2869 0.4898 0.8625
C38 C 0.2152(5) 0.6202(4) 0.8215(4)
H34 H 0.2308 0.6826 0.7634
H35 H 0.2206 0.6292 0.8765
H36 H 0.1369 0.5908 0.8337
C39 C -0.0599(4) 0.3324(4) 0.9659(3)
H37 H -0.1412 0.3315 0.9976
H38 H -0.0172 0.3924 0.9517
C40 C -0.0101(5) 0.2448(4) 1.0367(4)
H39 H -0.0412 0.1838 1.0440
H40 H -0.0312 0.2442 1.0993
H41 H 0.0748 0.2536 1.0128
C41 C -0.2631(4) 0.2391(3) 0.9213(3)
H42 H -0.2573 0.1720 0.9651
H43 H -0.3164 0.2414 0.8826
H44 H -0.2926 0.2725 0.9588
C42 C -0.0797(6) 0.0668(6) 0.6499(6)
C43 C 0.0200(7) 0.1198(4) 0.6449(5)
H45 H 0.0141 0.1839 0.6396
C44 C 0.1277(6) 0.0816(5) 0.6481(5)
H46 H 0.1953 0.1183 0.6460
C45 C 0.1377(6) -0.0100(5) 0.6540(6)
C46 C 0.0393(7) -0.0661(5) 0.6648(6)
H47 H 0.0440 -0.1327 0.6770
C47 C -0.0676(6) -0.0264(6) 0.6581(7)
H48 H -0.1340 -0.0633 0.6587
C48 C 0.2577(11) -0.0512(12) 0.6585(12)
H49 H 0.2444 -0.1190 0.6752
H50 H 0.2863 -0.0461 0.7083
H51 H 0.3156 -0.0172 0.5963
C56 C 0.1769(5) 0.2360(4) 0.3718(4)
H59 H 0.2494 0.2796 0.3381
H60 H 0.1924 0.1715 0.3813
H61 H 0.1456 0.2337 0.4345
C49? C -0.0947(8) 0.0618(8) 0.6413(8)
C50? C -0.0303(12) 0.0654(8) 0.7020(7)
H52? H -0.0591 0.0950 0.7433
C51? C 0.0769(11) 0.0250(9) 0.7034(8)
H53? H 0.1228 0.0272 0.7455
C52? C 0.1165(9) -0.0187(11) 0.6442(11)
C53? C 0.0501(9) -0.0208(7) 0.5833(8)
H54? H 0.0789 -0.0494 0.5411
C54? C -0.0565(8) 0.0191(7) 0.5820(7)
H55? H -0.1024 0.0175 0.5397
C55? C 0.2356(13) -0.0615(16) 0.6470(19)
H56? H 0.2584 -0.0767 0.5935
H57? H 0.2324 -0.1192 0.7078
H58? H 0.2929 -0.0115 0.6377
loop_
_geom_bond_atom_site_label_1
_geom_bond_atom_site_label_2
_geom_bond_site_symmetry_1
_geom_bond_site_symmetry_2
S1 O2 1_555 1_555
S2 O4 1_555 1_555
O1 C2 1_555 1_555
O3 S1 1_555 1_555
O5 S2 1_555 1_555
C1 C2 1_555 1_555
C2 H1 1_555 1_555
N1 S1 1_555 1_555
C3 N1 1_555 1_555
C4 C3 1_555 1_555
H2 C4 1_555 1_555
C5 C4 1_555 1_555
C6 C5 1_555 1_555
C7 C6 1_555 1_555
C8 C7 1_555 1_555
C9 C8 1_555 1_555
H3 C9 1_555 1_555
C10 C9 1_555 1_555
C11 C10 1_555 1_555
C12 C11 1_555 1_555
C13 C12 1_555 1_555
C14 C13 1_555 1_555
H4 C14 1_555 1_555
C15 C14 1_555 1_555
C16 C15 1_555 1_555
C17 C16 1_555 1_555
C18 C17 1_555 1_555
C19 C18 1_555 1_555
H5 C19 1_555 1_555
C20 C19 1_555 1_555
N2 S2 1_555 1_555
C21 N2 1_555 1_555
H6 C21 1_555 1_555
C22 C1 1_555 1_555
C23 C1 1_555 1_555
H7 C23 1_555 1_555
N3 C5 1_555 1_555
H8 N3 1_555 1_555
N4 C10 1_555 1_555
H9 N4 1_555 1_555
N5 C15 1_555 1_555
H10 N5 1_555 1_555
C24 C20 1_555 1_555
H11 C24 1_555 1_555
C25 S1 1_555 1_555
C26 C25 1_555 1_555
H12 C26 1_555 1_555
C27 C26 1_555 1_555
H13 C27 1_555 1_555
C28 C27 1_555 1_555
C29 C28 1_555 1_555
H14 C29 1_555 1_555
C30 C25 1_555 1_555
H15 C30 1_555 1_555
C31 C28 1_555 1_555
H16 C31 1_555 1_555
H17 C31 1_555 1_555
H18 C31 1_555 1_555
C32 C6 1_555 1_555
H19 C32 1_555 1_555
H20 C32 1_555 1_555
H21 C32 1_555 1_555
C33 C7 1_555 1_555
H22 C33 1_555 1_555
H23 C33 1_555 1_555
C34 C33 1_555 1_555
H24 C34 1_555 1_555
H25 C34 1_555 1_555
H26 C34 1_555 1_555
C35 C11 1_555 1_555
H27 C35 1_555 1_555
H28 C35 1_555 1_555
C36 C35 1_555 1_555
H29 C36 1_555 1_555
H30 C36 1_555 1_555
H31 C36 1_555 1_555
C37 C12 1_555 1_555
H32 C37 1_555 1_555
H33 C37 1_555 1_555
C38 C37 1_555 1_555
H34 C38 1_555 1_555
H35 C38 1_555 1_555
H36 C38 1_555 1_555
C39 C16 1_555 1_555
H37 C39 1_555 1_555
H38 C39 1_555 1_555
C40 C39 1_555 1_555
H39 C40 1_555 1_555
H40 C40 1_555 1_555
H41 C40 1_555 1_555
C41 C17 1_555 1_555
H42 C41 1_555 1_555
H43 C41 1_555 1_555
H44 C41 1_555 1_555
C42 S2 1_555 1_555
C43 C42 1_555 1_555
H45 C43 1_555 1_555
C44 C43 1_555 1_555
H46 C44 1_555 1_555
C45 C44 1_555 1_555
C46 C45 1_555 1_555
H47 C46 1_555 1_555
C47 C42 1_555 1_555
H48 C47 1_555 1_555
C48 C45 1_555 1_555
H49 C48 1_555 1_555
H50 C48 1_555 1_555
H51 C48 1_555 1_555
C56 O1 1_555 1_555
H59 C56 1_555 1_555
H60 C56 1_555 1_555
H61 C56 1_555 1_555
C2 N1 1_555 1_555
C3 C23 1_555 1_555
C8 N3 1_555 1_555
C13 N4 1_555 1_555
C18 N5 1_555 1_555
C20 N2 1_555 1_555
C21 C22 1_555 1_555
C22 C24 1_555 1_555
C29 C30 1_555 1_555
C46 C47 1_555 1_555

#END
