
#######################################################################
#
#                 Cambridge Crystallographic Data Centre
#                                CCDC 
#
#######################################################################
#
# If this CIF has been generated from an entry in the Cambridge 
# Structural Database, then it will include bibliographic, chemical, 
# crystal, experimental, refinement or atomic coordinate data resulting 
# from the CCDC's data processing and validation procedures.
#
#######################################################################

data_GEQROM
_chemical_formula_moiety         'C15 H14 O4'
_chemical_name_systematic        
9-methyl-6,7,9,10-tetrahydro-2H-5,9-methanocycloocta[4,5]benzo[1,2-d][1,3]dioxole-8,12(5H)-dione
_symmetry_cell_setting           monoclinic
_symmetry_space_group_name_H-M   'C 2'
_symmetry_Int_Tables_number      5
_space_group_name_Hall           'C 2y'
loop_
_symmetry_equiv_pos_site_id
_symmetry_equiv_pos_as_xyz
1 x,y,z
2 -x,y,-z
3 1/2+x,1/2+y,z
4 1/2-x,1/2+y,-z
_cell_length_a                   22.180(4)
_cell_length_b                   7.7699(14)
_cell_length_c                   7.2658(12)
_cell_angle_alpha                90
_cell_angle_beta                 102.199(8)
_cell_angle_gamma                90
_cell_volume                     1223.89
_cell_formula_units_Z            4
loop_
_atom_site_label
_atom_site_type_symbol
_atom_site_fract_x
_atom_site_fract_y
_atom_site_fract_z
C1 C 0.42563(12) 0.8208(4) 0.2636(4)
H1 H 0.419150 0.861321 0.384210
H2 H 0.393245 0.867650 0.165406
C2 C 0.51823(10) 0.7297(3) 0.2344(3)
C3 C 0.48252(9) 0.5875(3) 0.2478(3)
C4 C 0.50479(9) 0.4236(3) 0.2491(3)
H3 H 0.480330 0.328607 0.260405
C5 C 0.56663(9) 0.4053(3) 0.2323(2)
C6 C 0.60262(9) 0.5479(3) 0.2158(2)
C7 C 0.57843(10) 0.7140(3) 0.2175(3)
H4 H 0.602338 0.810497 0.207504
C8 C 0.66752(10) 0.5283(3) 0.1828(3)
H5 H 0.693319 0.616173 0.254781
H6 H 0.666518 0.549824 0.050659
C9 C 0.59373(10) 0.2252(3) 0.2454(3)
H7 H 0.562513 0.143232 0.182446
C10 C 0.61650(12) 0.1728(4) 0.4518(4)
H8 H 0.581816 0.168597 0.513639
H9 H 0.634531 0.058672 0.457536
C11 C 0.66444(14) 0.3000(4) 0.5550(3)
H10 H 0.643718 0.405911 0.575805
H11 H 0.683097 0.252613 0.677244
C12 C 0.71445(11) 0.3412(4) 0.4518(3)
C13 C 0.69814(9) 0.3507(3) 0.2356(3)
C14 C 0.75588(11) 0.3320(4) 0.1533(4)
H12 H 0.775895 0.224837 0.193818
H13 H 0.783608 0.425432 0.196068
H14 H 0.744341 0.333905 0.018272
C15 C 0.64871(10) 0.2205(3) 0.1549(3)
O1 O 0.48444(8) 0.8763(3) 0.2364(3)
O2 O 0.42377(7) 0.6384(3) 0.2580(2)
O3 O 0.65271(9) 0.1251(3) 0.0268(3)
O4 O 0.76618(10) 0.3736(5) 0.5332(3)
loop_
_geom_bond_atom_site_label_1
_geom_bond_atom_site_label_2
_geom_bond_site_symmetry_1
_geom_bond_site_symmetry_2
C1 H1 1_555 1_555
H2 C1 1_555 1_555
C2 C3 1_555 1_555
C3 C4 1_555 1_555
C4 H3 1_555 1_555
C5 C4 1_555 1_555
C6 C5 1_555 1_555
C7 C2 1_555 1_555
H4 C7 1_555 1_555
C8 C6 1_555 1_555
H5 C8 1_555 1_555
H6 C8 1_555 1_555
C9 C5 1_555 1_555
H7 C9 1_555 1_555
C10 C9 1_555 1_555
H8 C10 1_555 1_555
H9 C10 1_555 1_555
C11 C10 1_555 1_555
H10 C11 1_555 1_555
H11 C11 1_555 1_555
C12 C11 1_555 1_555
C13 C8 1_555 1_555
C14 C13 1_555 1_555
H12 C14 1_555 1_555
H13 C14 1_555 1_555
H14 C14 1_555 1_555
C15 C9 1_555 1_555
O1 C1 1_555 1_555
O2 C1 1_555 1_555
O3 C15 1_555 1_555
O4 C12 1_555 1_555
C2 O1 1_555 1_555
C3 O2 1_555 1_555
C6 C7 1_555 1_555
C12 C13 1_555 1_555
C13 C15 1_555 1_555

#END
