
#######################################################################
#
#                 Cambridge Crystallographic Data Centre
#                                CCDC 
#
#######################################################################
#
# If this CIF has been generated from an entry in the Cambridge 
# Structural Database, then it will include bibliographic, chemical, 
# crystal, experimental, refinement or atomic coordinate data resulting 
# from the CCDC's data processing and validation procedures.
#
#######################################################################

data_GEQSED
_chemical_formula_moiety         'C17 H17 N1 O2'
_chemical_name_systematic        
6-methyl-5,6,9,10-tetrahydro-4H-6,10-methanoazecino[3,2,1-hi]indole-7,14(8H)-dione
_symmetry_cell_setting           orthorhombic
_symmetry_space_group_name_H-M   'P 21 21 21'
_symmetry_Int_Tables_number      19
_space_group_name_Hall           'P 2ac 2ab'
loop_
_symmetry_equiv_pos_site_id
_symmetry_equiv_pos_as_xyz
1 x,y,z
2 1/2-x,-y,1/2+z
3 -x,1/2+y,1/2-z
4 1/2+x,1/2-y,-z
_cell_length_a                   6.9131(2)
_cell_length_b                   11.8205(4)
_cell_length_c                   16.9278(6)
_cell_angle_alpha                90
_cell_angle_beta                 90
_cell_angle_gamma                90
_cell_volume                     1383.28
_cell_formula_units_Z            4
loop_
_atom_site_label
_atom_site_type_symbol
_atom_site_fract_x
_atom_site_fract_y
_atom_site_fract_z
C1 C 0.5832(3) 0.50297(16) 0.61178(10)
C2 C 0.5230(3) 0.59593(16) 0.56872(11)
H1 H 0.5834 0.6651 0.5776
C3 C 0.3744(3) 0.59050(18) 0.51214(12)
H2 H 0.3419 0.6548 0.4834
C4 C 0.2772(3) 0.49155(19) 0.49887(12)
H3 H 0.1768 0.4885 0.4624
C5 C 0.3316(3) 0.39444(17) 0.54139(11)
C6 C 0.2572(3) 0.28220(18) 0.54372(12)
H4 H 0.1526 0.2544 0.5151
C7 C 0.3677(3) 0.22358(16) 0.59548(11)
H5 H 0.3504 0.1476 0.6078
C8 C 0.4886(3) 0.39983(15) 0.59540(10)
C9 C 0.6711(3) 0.24225(14) 0.67158(10)
H6 H 0.7908 0.2743 0.6518
H7 H 0.6743 0.1617 0.6608
C10 C 0.6648(3) 0.25925(14) 0.76099(11)
H8 H 0.7260 0.1946 0.7859
H9 H 0.5305 0.2600 0.7775
C11 C 0.7631(3) 0.36783(15) 0.79202(11)
C12 C 0.7406(3) 0.37271(18) 0.88224(12)
H10 H 0.8047 0.4388 0.9022
H11 H 0.7972 0.3064 0.9054
H12 H 0.6057 0.3760 0.8955
C13 C 0.9805(3) 0.36376(17) 0.77261(13)
C14 C 1.0619(3) 0.4629(2) 0.72809(16)
H13 H 1.1945 0.4472 0.7129
H14 H 1.0616 0.5294 0.7617
C15 C 0.9402(3) 0.48522(18) 0.65434(14)
H15 H 0.9377 0.4177 0.6217
H16 H 0.9989 0.5456 0.6238
C16 C 0.7323(3) 0.51849(14) 0.67644(11)
H17 H 0.7372 0.6003 0.6858
C17 C 0.6594(3) 0.46775(14) 0.75390(11)
N1 N 0.5100(2) 0.29196(12) 0.62750(8)
O1 O 0.51479(19) 0.50589(11) 0.78429(7)
O2 O 1.0762(2) 0.28336(14) 0.79281(12)
loop_
_geom_bond_atom_site_label_1
_geom_bond_atom_site_label_2
_geom_bond_site_symmetry_1
_geom_bond_site_symmetry_2
C1 C2 1_555 1_555
C2 H1 1_555 1_555
C3 C2 1_555 1_555
H2 C3 1_555 1_555
C4 C3 1_555 1_555
H3 C4 1_555 1_555
C5 C4 1_555 1_555
C6 C5 1_555 1_555
H4 C6 1_555 1_555
C7 C6 1_555 1_555
H5 C7 1_555 1_555
C8 C1 1_555 1_555
C9 H6 1_555 1_555
H7 C9 1_555 1_555
C10 C9 1_555 1_555
H8 C10 1_555 1_555
H9 C10 1_555 1_555
C11 C10 1_555 1_555
C12 C11 1_555 1_555
H10 C12 1_555 1_555
H11 C12 1_555 1_555
H12 C12 1_555 1_555
C13 C11 1_555 1_555
C14 C13 1_555 1_555
H13 C14 1_555 1_555
H14 C14 1_555 1_555
C15 C14 1_555 1_555
H15 C15 1_555 1_555
H16 C15 1_555 1_555
C16 C1 1_555 1_555
H17 C16 1_555 1_555
C17 C11 1_555 1_555
N1 C7 1_555 1_555
O1 C17 1_555 1_555
O2 C13 1_555 1_555
C5 C8 1_555 1_555
C8 N1 1_555 1_555
C9 N1 1_555 1_555
C15 C16 1_555 1_555
C16 C17 1_555 1_555

#END
