
#######################################################################
#
#                 Cambridge Crystallographic Data Centre
#                                CCDC 
#
#######################################################################
#
# If this CIF has been generated from an entry in the Cambridge 
# Structural Database, then it will include bibliographic, chemical, 
# crystal, experimental, refinement or atomic coordinate data resulting 
# from the CCDC's data processing and validation procedures.
#
#######################################################################

data_GEQYUW
_chemical_formula_moiety         'C8 H4 Cl1 N1 O3 S2'
_chemical_name_systematic        
(E)-3-(4-Chloro-5H-1,2,3-dithiazol-5-ylidene)-6-methyl-2H-pyran-2,4-dione
_symmetry_cell_setting           monoclinic
_symmetry_space_group_name_H-M   'C c'
_symmetry_Int_Tables_number      9
_space_group_name_Hall           'C -2yc'
loop_
_symmetry_equiv_pos_site_id
_symmetry_equiv_pos_as_xyz
1 x,y,z
2 x,-y,1/2+z
3 1/2+x,1/2+y,z
4 1/2+x,1/2-y,1/2+z
_cell_length_a                   3.8780(4)
_cell_length_b                   14.585(3)
_cell_length_c                   16.722(3)
_cell_angle_alpha                90
_cell_angle_beta                 92.129(11)
_cell_angle_gamma                90
_cell_volume                     945.154
_exptl_crystal_colour            red
_chemical_melting_point          '173 deg.C(dec.)'
_cell_formula_units_Z            4
_exptl_crystal_recrystallization_method dichloromethane/acetone
loop_
_atom_site_label
_atom_site_type_symbol
_atom_site_fract_x
_atom_site_fract_y
_atom_site_fract_z
S1 S 1.0417(3) 0.3511(1) 1.0668(1)
S2 S 0.8677(4) 0.2992(1) 0.9576(1)
Cl1 Cl 0.8635(4) 0.5697(1) 0.9007(1)
N1 N 0.7969(14) 0.3964(3) 0.9120(3)
C1 C 0.8676(14) 0.6232(4) 1.0892(3)
C2 C 1.0109(14) 0.5325(4) 1.0956(3)
C3 C 1.1919(14) 0.5057(4) 1.1697(3)
C4 C 1.2800(16) 0.5771(4) 1.2255(3)
C5 C 1.1833(14) 0.6637(4) 1.2112(3)
C6 C 1.2722(17) 0.7447(4) 1.2613(4)
C7 C 0.9582(13) 0.4635(4) 1.0391(3)
C8 C 0.8586(17) 0.4692(4) 0.9545(4)
O1 O 0.9856(10) 0.6867(3) 1.1453(2)
O2 O 0.6389(11) 0.6492(3) 1.0439(2)
O3 O 1.2693(13) 0.4241(3) 1.1808(3)
H1 H 1.4060 0.5631 1.2724
H2 H 1.1707 0.7986 1.2373
H3 H 1.5184 0.7517 1.2652
H4 H 1.1852 0.7363 1.3138
loop_
_geom_bond_atom_site_label_1
_geom_bond_atom_site_label_2
_geom_bond_site_symmetry_1
_geom_bond_site_symmetry_2
S1 S2 1_555 1_555
S2 N1 1_555 1_555
Cl1 C8 1_555 1_555
N1 C8 1_555 1_555
C1 C2 1_555 1_555
C2 C3 1_555 1_555
C3 C4 1_555 1_555
C4 C5 1_555 1_555
C5 C6 1_555 1_555
C6 H2 1_555 1_555
C7 S1 1_555 1_555
C8 C7 1_555 1_555
O1 C1 1_555 1_555
O2 C1 1_555 1_555
O3 C3 1_555 1_555
H1 C4 1_555 1_555
H3 C6 1_555 1_555
H4 C6 1_555 1_555
C2 C7 1_555 1_555
C5 O1 1_555 1_555

#END
