
#######################################################################
#
#                 Cambridge Crystallographic Data Centre
#                                CCDC 
#
#######################################################################
#
# If this CIF has been generated from an entry in the Cambridge 
# Structural Database, then it will include bibliographic, chemical, 
# crystal, experimental, refinement or atomic coordinate data resulting 
# from the CCDC's data processing and validation procedures.
#
#######################################################################

data_GEQZOU
_chemical_formula_moiety         'C72 H104 B2 Li2 N4 O8,3(C4 H8 O1)'
_chemical_name_systematic        
'(\m-5-{1,3-bis[2,6-di-isopropylphenyl]-1,3-dihydro-2H-1,3,2-diazaborol-2-yl}-2-[{1,3-bis[2,6-di-isopropylphenyl]-1,3-dihydro-2H-1,3,2-diazaborol-2-yl}(oxy)methylidene]-2H-1,3-dioxol-4-olato)-tetrakis(tetrahydrofuran)-di-lithium tetrahydrofuran solvate'
_symmetry_cell_setting           monoclinic
_symmetry_space_group_name_H-M   'C c'
_symmetry_Int_Tables_number      9
_space_group_name_Hall           'C -2yc'
loop_
_symmetry_equiv_pos_site_id
_symmetry_equiv_pos_as_xyz
1 x,y,z
2 x,-y,1/2+z
3 1/2+x,1/2+y,z
4 1/2+x,1/2-y,1/2+z
_cell_length_a                   10.5952(5)
_cell_length_b                   38.7321(17)
_cell_length_c                   20.7110(11)
_cell_angle_alpha                90
_cell_angle_beta                 103.137(5)
_cell_angle_gamma                90
_cell_volume                     8276.83
_exptl_crystal_colour            yellow
_exptl_crystal_description       plate
_cell_formula_units_Z            4
_chemical_properties_physical    
Air-sensitive,Moisture-sensitive,Oxygen-sensitive
loop_
_atom_site_label
_atom_site_type_symbol
_atom_site_fract_x
_atom_site_fract_y
_atom_site_fract_z
Li1 Li 0.5769(13) 0.5910(3) 0.3022(8)
N1 N 0.5390(6) 0.54831(14) 0.5587(3)
N2 N 0.5065(6) 0.52869(13) 0.4532(3)
N3 N 0.4484(5) 0.72196(13) 0.3469(3)
N4 N 0.3976(5) 0.70150(14) 0.2402(3)
B1 B 0.5291(7) 0.5603(2) 0.4923(4)
B2 B 0.4460(8) 0.6901(2) 0.3078(4)
O1 O 0.5306(4) 0.60326(11) 0.3986(2)
O2 O 0.5445(6) 0.63827(13) 0.5559(3)
O3 O 0.5246(5) 0.65440(12) 0.4488(2)
O4 O 0.4851(5) 0.63004(13) 0.2759(3)
O5 O 0.5972(6) 0.57273(16) 0.2167(3)
O6 O 0.7701(5) 0.58992(16) 0.3444(3)
C1 C 0.5417(6) 0.59683(16) 0.4678(3)
C2 C 0.5384(7) 0.62867(19) 0.4973(4)
C3 C 0.5126(6) 0.63959(16) 0.3886(3)
C4 C 0.4845(6) 0.65184(16) 0.3278(3)
C5 C 0.5654(7) 0.56603(18) 0.6221(4)
C6 C 0.6919(7) 0.56682(19) 0.6591(4)
C7 C 0.7165(9) 0.5842(2) 0.7198(5)
H1 H 0.8025 0.5853 0.7461
C8 C 0.6194(11) 0.5996(2) 0.7417(5)
H2 H 0.6383 0.6116 0.7828
C9 C 0.4936(10) 0.5980(2) 0.7052(5)
H3 H 0.4264 0.6085 0.7218
C10 C 0.4637(9) 0.5811(3) 0.6445(5)
C11 C 0.8004(8) 0.5497(2) 0.6348(5)
H4 H 0.7615 0.5314 0.6021
C12 C 0.8638(10) 0.5769(3) 0.5981(6)
H5 H 0.7972 0.5877 0.5633
H6 H 0.9060 0.5946 0.6296
H7 H 0.9286 0.5658 0.5780
C13 C 0.9011(9) 0.5329(3) 0.6882(7)
H8 H 0.9678 0.5224 0.6685
H9 H 0.9410 0.5503 0.7208
H10 H 0.8605 0.5150 0.7101
C14 C 0.5196(7) 0.51287(18) 0.5577(4)
H11 H 0.5197 0.4991 0.5958
C15 C 0.5012(8) 0.5010(2) 0.4972(4)
H12 H 0.4865 0.4775 0.4848
C16 C 0.4792(6) 0.52259(16) 0.3832(4)
C17 C 0.3613(8) 0.5339(2) 0.3436(4)
C18 C 0.3347(10) 0.5261(3) 0.2763(5)
H13 H 0.2578 0.5347 0.2479
C19 C 0.4206(10) 0.5056(2) 0.2499(5)
H14 H 0.3996 0.4995 0.2043
C20 C 0.5316(9) 0.4948(2) 0.2891(4)
H15 H 0.5883 0.4809 0.2705
C21 C 0.5676(8) 0.50306(18) 0.3564(4)
C22 C 0.6979(8) 0.4901(2) 0.4000(5)
H16 H 0.7145 0.5022 0.4437
C23 C 0.8086(10) 0.4977(3) 0.3667(6)
H17 H 0.8125 0.5225 0.3587
H18 H 0.8904 0.4900 0.3956
H19 H 0.7944 0.4853 0.3244
C24 C 0.6946(12) 0.4512(3) 0.4117(6)
H20 H 0.6236 0.4457 0.4332
H21 H 0.6810 0.4391 0.3691
H22 H 0.7771 0.4439 0.4403
C25 C 0.2665(8) 0.5543(2) 0.3730(5)
H23 H 0.3159 0.5640 0.4161
C26 C 0.2078(11) 0.5846(3) 0.3300(8)
H24 H 0.1473 0.5968 0.3513
H25 H 0.2768 0.6003 0.3244
H26 H 0.1613 0.5761 0.2865
C27 C 0.1661(12) 0.5295(4) 0.3888(8)
H27 H 0.1037 0.5423 0.4079
H28 H 0.1204 0.5180 0.3480
H29 H 0.2095 0.5121 0.4206
C28 C 0.4840(6) 0.72953(16) 0.4152(3)
C29 C 0.3988(7) 0.72162(19) 0.4567(4)
C30 C 0.4334(8) 0.7319(2) 0.5224(4)
H30 H 0.3785 0.7263 0.5513
C31 C 0.5459(8) 0.7500(2) 0.5465(4)
H31 H 0.5658 0.7577 0.5912
C32 C 0.6310(8) 0.7572(2) 0.5059(4)
H32 H 0.7107 0.7687 0.5235
C33 C 0.5991(7) 0.74762(18) 0.4398(4)
C34 C 0.6935(8) 0.7561(2) 0.3962(4)
H33 H 0.6586 0.7460 0.3513
C35 C 0.7027(19) 0.7945(3) 0.3890(8)
H34 H 0.7633 0.7998 0.3610
H35 H 0.6170 0.8038 0.3685
H36 H 0.7338 0.8049 0.4328
C36 C 0.8268(12) 0.7403(6) 0.4245(9)
H37 H 0.8181 0.7153 0.4287
H38 H 0.8843 0.7452 0.3946
H39 H 0.8635 0.7503 0.4682
C37 C 0.2705(8) 0.7028(2) 0.4285(4)
H40 H 0.2825 0.6872 0.3919
C38 C 0.1681(9) 0.7287(3) 0.4008(6)
H41 H 0.1959 0.7426 0.3670
H42 H 0.0872 0.7167 0.3808
H43 H 0.1540 0.7438 0.4365
C39 C 0.2290(8) 0.6815(3) 0.4802(5)
H44 H 0.2966 0.6646 0.4982
H45 H 0.2150 0.6965 0.5160
H46 H 0.1482 0.6694 0.4603
C40 C 0.4009(7) 0.74899(18) 0.3020(4)
H47 H 0.3915 0.7723 0.3145
C41 C 0.3716(7) 0.73751(18) 0.2404(4)
H48 H 0.3383 0.7511 0.2022
C42 C 0.3722(7) 0.68367(18) 0.1776(3)
C43 C 0.4548(7) 0.68841(19) 0.1352(4)
C44 C 0.4225(9) 0.6730(2) 0.0732(4)
H49 H 0.4785 0.6759 0.0437
C45 C 0.3123(10) 0.6538(2) 0.0533(4)
H50 H 0.2918 0.6438 0.0103
C46 C 0.2324(10) 0.6491(2) 0.0954(4)
H51 H 0.1578 0.6350 0.0817
C47 C 0.2561(8) 0.6644(2) 0.1584(4)
C48 C 0.1670(8) 0.6592(2) 0.2044(4)
H52 H 0.2231 0.6545 0.2494
C49 C 0.0849(9) 0.6914(3) 0.2110(6)
H53 H 0.0290 0.6864 0.2416
H54 H 0.1424 0.7107 0.2282
H55 H 0.0313 0.6975 0.1674
C50 C 0.0734(10) 0.6282(3) 0.1873(5)
H56 H 0.0192 0.6268 0.2198
H57 H 0.0182 0.6314 0.1429
H58 H 0.1235 0.6069 0.1885
C51 C 0.5830(8) 0.7088(2) 0.1582(4)
H59 H 0.5662 0.7274 0.1886
C52 C 0.6843(9) 0.6852(3) 0.1989(6)
H60 H 0.6501 0.6747 0.2344
H61 H 0.7062 0.6671 0.1703
H62 H 0.7621 0.6986 0.2182
C53 C 0.6270(13) 0.7263(3) 0.1020(6)
H63 H 0.5575 0.7411 0.0776
H64 H 0.7040 0.7403 0.1199
H65 H 0.6481 0.7087 0.0720
C54 C 0.9580(16) 0.6803(6) 0.6009(10)
H66 H 0.9969 0.7007 0.5844
H67 H 0.9860 0.6594 0.5803
C55 C 0.9996(11) 0.6782(3) 0.6714(8)
H68 H 1.0350 0.7006 0.6903
H69 H 1.0670 0.6602 0.6846
C56 C 0.5141(10) 0.5851(3) 0.1581(5)
H70 H 0.4845 0.6087 0.1656
H71 H 0.4369 0.5701 0.1459
C57 C 0.5810(15) 0.5857(3) 0.1049(6)
H72 H 0.5933 0.6097 0.0911
H73 H 0.5317 0.5727 0.0660
C58 C 0.7078(13) 0.5689(3) 0.1322(7)
H74 H 0.7784 0.5862 0.1413
H75 H 0.7274 0.5514 0.1010
C59 C 0.6913(11) 0.5523(3) 0.1952(5)
H76 H 0.6608 0.5282 0.1871
H77 H 0.7743 0.5523 0.2289
C60 C 0.8353(9) 0.6150(3) 0.3122(5)
H78 H 0.7761 0.6241 0.2717
H79 H 0.9117 0.6046 0.2997
C61 C 0.8755(18) 0.6429(4) 0.3618(7)
H80 H 0.8181 0.6633 0.3506
H81 H 0.9658 0.6501 0.3635
C62 C 0.8641(13) 0.6274(4) 0.4283(6)
H82 H 0.9473 0.6294 0.4615
H83 H 0.7957 0.6393 0.4454
C63 C 0.8296(8) 0.5904(3) 0.4134(5)
H84 H 0.9081 0.5756 0.4230
H85 H 0.7688 0.5821 0.4399
Li2 Li 0.599(2) 0.6567(10) 0.6293(13)
O7 O 0.777(3) 0.6684(6) 0.6427(19)
C64 C 0.8202(15) 0.6829(5) 0.5840(6)
H86 H 0.7834 0.6694 0.5435
H87 H 0.7927 0.7073 0.5763
C65 C 0.8810(9) 0.6691(3) 0.6942(5)
H88 H 0.8924 0.6462 0.7159
H89 H 0.8667 0.6863 0.7272
C66 C 0.3334(19) 0.5858(6) 0.5955(11)
H90 H 0.3524 0.5885 0.5506
C67 C 0.252(2) 0.6166(6) 0.6055(12)
H91 H 0.3024 0.6378 0.6055
H92 H 0.1740 0.6176 0.5695
H93 H 0.2268 0.6144 0.6480
C68 C 0.2621(18) 0.5516(6) 0.5949(13)
H94 H 0.3191 0.5326 0.5883
H95 H 0.2371 0.5485 0.6373
H96 H 0.1843 0.5517 0.5587
O8 O 0.5141(6) 0.6868(2) 0.6854(3)
C69 C 0.5837(10) 0.7002(4) 0.7449(6)
H97 H 0.6533 0.7159 0.7380
H98 H 0.6223 0.6816 0.7760
C70 C 0.396(2) 0.7105(8) 0.6733(11)
H99 H 0.3285 0.7031 0.6346
H100 H 0.4197 0.7349 0.6680
C71 C 0.478(2) 0.7201(8) 0.7705(12)
C72 C 0.373(4) 0.7161(8) 0.7303(16)
C73 C 0.854(2) 0.6517(6) 0.8883(11)
H101 H 0.8756 0.6704 0.8601
H102 H 0.8811 0.6294 0.8723
C74 C 0.919(2) 0.6571(6) 0.9560(11)
H103 H 0.9688 0.6789 0.9603
H104 H 0.9793 0.6379 0.9718
C75 C 0.822(2) 0.6590(6) 0.9953(11)
H105 H 0.8308 0.6813 1.0193
H106 H 0.8378 0.6402 1.0286
C76 C 0.689(2) 0.6558(6) 0.9533(10)
H107 H 0.6437 0.6355 0.9659
H108 H 0.6373 0.6768 0.9557
O9 O 0.7176(13) 0.6515(3) 0.8863(6)
C77 C 0.346(3) 0.6094(7) 0.8706(13)
H109 H 0.3301 0.6209 0.9107
H110 H 0.4389 0.6118 0.8700
C78 C 0.157(4) 0.6000(10) 0.793(2)
H111 H 0.1394 0.5948 0.7447
O10 O 0.262(2) 0.6235(5) 0.8097(9)
C79 C 0.305(3) 0.5720(7) 0.8676(13)
H112 H 0.3665 0.5577 0.8495
H113 H 0.3037 0.5634 0.9124
C80 C 0.186(4) 0.5704(11) 0.828(2)
H114 H 0.1810 0.5508 0.7966
H115? H 0.4994 0.7201 0.8196
H116? H 0.4744 0.7443 0.7550
C81? C 0.354(2) 0.7033(12) 0.7456(14)
H117? H 0.2772 0.7165 0.7518
H118? H 0.3496 0.6787 0.7580
Li3? Li 0.589(11) 0.682(4) 0.603(6)
O11? O 0.778(2) 0.6835(7) 0.6423(17)
C82? C 0.314(2) 0.5665(6) 0.6146(11)
H119? H 0.3145 0.5433 0.5937
C83? C 0.237(3) 0.5665(7) 0.6629(13)
H120? H 0.2684 0.5483 0.6956
H121? H 0.2449 0.5889 0.6853
H122? H 0.1466 0.5621 0.6412
C84? C 0.268(3) 0.5952(6) 0.5615(12)
H123? H 0.3216 0.5947 0.5288
H124? H 0.1769 0.5910 0.5391
H125? H 0.2752 0.6178 0.5831
H126? H 0.0783 0.6104 0.8025
H127? H 0.1210 0.5665 0.8546
C85? C 0.149(8) 0.590(2) 0.861(4)
C86? C 0.159(4) 0.6156(12) 0.829(2)
C87? C 0.4871(17) 0.6978(6) 0.7916(9)
C88? C 0.374(2) 0.6851(7) 0.6832(12)
C89? C 0.233(6) 0.5568(15) 0.117(3)
C90? C 0.001(3) 0.5441(10) 0.0788(18)
C91? C 0.111(5) 0.5277(11) 0.100(2)
C92? C -0.004(2) 0.5699(6) 0.0332(11)
C93? C 0.079(3) 0.5644(7) -0.0031(14)
O12? O 0.202(2) 0.5520(6) 0.0364(12)
C94? C 0.177(6) 0.5421(15) 0.094(3)
C95? C -0.018(4) 0.5238(10) 0.049(2)
loop_
_geom_bond_atom_site_label_1
_geom_bond_atom_site_label_2
_geom_bond_site_symmetry_1
_geom_bond_site_symmetry_2
Li1 O1 1_555 1_555
N1 B1 1_555 1_555
N2 B1 1_555 1_555
N3 B2 1_555 1_555
N4 B2 1_555 1_555
B1 C1 1_555 1_555
B2 C4 1_555 1_555
O1 C1 1_555 1_555
O2 C2 1_555 1_555
O3 C2 1_555 1_555
O4 Li1 1_555 1_555
O5 Li1 1_555 1_555
O6 Li1 1_555 1_555
C1 C2 1_555 1_555
C3 O1 1_555 1_555
C4 O4 1_555 1_555
C5 N1 1_555 1_555
C6 C5 1_555 1_555
C7 C6 1_555 1_555
H1 C7 1_555 1_555
C8 C7 1_555 1_555
H2 C8 1_555 1_555
C9 C8 1_555 1_555
H3 C9 1_555 1_555
C10 C5 1_555 1_555
C11 C6 1_555 1_555
H4 C11 1_555 1_555
C12 C11 1_555 1_555
H5 C12 1_555 1_555
H6 C12 1_555 1_555
H7 C12 1_555 1_555
C13 C11 1_555 1_555
H8 C13 1_555 1_555
H9 C13 1_555 1_555
H10 C13 1_555 1_555
C14 N1 1_555 1_555
H11 C14 1_555 1_555
C15 N2 1_555 1_555
H12 C15 1_555 1_555
C16 N2 1_555 1_555
C17 C16 1_555 1_555
C18 C17 1_555 1_555
H13 C18 1_555 1_555
C19 C18 1_555 1_555
H14 C19 1_555 1_555
C20 C19 1_555 1_555
H15 C20 1_555 1_555
C21 C16 1_555 1_555
C22 C21 1_555 1_555
H16 C22 1_555 1_555
C23 C22 1_555 1_555
H17 C23 1_555 1_555
H18 C23 1_555 1_555
H19 C23 1_555 1_555
C24 C22 1_555 1_555
H20 C24 1_555 1_555
H21 C24 1_555 1_555
H22 C24 1_555 1_555
C25 C17 1_555 1_555
H23 C25 1_555 1_555
C26 C25 1_555 1_555
H24 C26 1_555 1_555
H25 C26 1_555 1_555
H26 C26 1_555 1_555
C27 C25 1_555 1_555
H27 C27 1_555 1_555
H28 C27 1_555 1_555
H29 C27 1_555 1_555
C28 N3 1_555 1_555
C29 C28 1_555 1_555
C30 C29 1_555 1_555
H30 C30 1_555 1_555
C31 C30 1_555 1_555
H31 C31 1_555 1_555
C32 C31 1_555 1_555
H32 C32 1_555 1_555
C33 C28 1_555 1_555
C34 C33 1_555 1_555
H33 C34 1_555 1_555
C35 C34 1_555 1_555
H34 C35 1_555 1_555
H35 C35 1_555 1_555
H36 C35 1_555 1_555
C36 C34 1_555 1_555
H37 C36 1_555 1_555
H38 C36 1_555 1_555
H39 C36 1_555 1_555
C37 C29 1_555 1_555
H40 C37 1_555 1_555
C38 C37 1_555 1_555
H41 C38 1_555 1_555
H42 C38 1_555 1_555
H43 C38 1_555 1_555
C39 C37 1_555 1_555
H44 C39 1_555 1_555
H45 C39 1_555 1_555
H46 C39 1_555 1_555
C40 N3 1_555 1_555
H47 C40 1_555 1_555
C41 N4 1_555 1_555
H48 C41 1_555 1_555
C42 N4 1_555 1_555
C43 C42 1_555 1_555
C44 C43 1_555 1_555
H49 C44 1_555 1_555
C45 C44 1_555 1_555
H50 C45 1_555 1_555
C46 C45 1_555 1_555
H51 C46 1_555 1_555
C47 C42 1_555 1_555
C48 C47 1_555 1_555
H52 C48 1_555 1_555
C49 C48 1_555 1_555
H53 C49 1_555 1_555
H54 C49 1_555 1_555
H55 C49 1_555 1_555
C50 C48 1_555 1_555
H56 C50 1_555 1_555
H57 C50 1_555 1_555
H58 C50 1_555 1_555
C51 C43 1_555 1_555
H59 C51 1_555 1_555
C52 C51 1_555 1_555
H60 C52 1_555 1_555
H61 C52 1_555 1_555
H62 C52 1_555 1_555
C53 C51 1_555 1_555
H63 C53 1_555 1_555
H64 C53 1_555 1_555
H65 C53 1_555 1_555
C54 H66 1_555 1_555
H67 C54 1_555 1_555
C55 C54 1_555 1_555
H68 C55 1_555 1_555
H69 C55 1_555 1_555
C56 O5 1_555 1_555
H70 C56 1_555 1_555
H71 C56 1_555 1_555
C57 C56 1_555 1_555
H72 C57 1_555 1_555
H73 C57 1_555 1_555
C58 C57 1_555 1_555
H74 C58 1_555 1_555
H75 C58 1_555 1_555
C59 O5 1_555 1_555
H76 C59 1_555 1_555
H77 C59 1_555 1_555
C60 O6 1_555 1_555
H78 C60 1_555 1_555
H79 C60 1_555 1_555
C61 C60 1_555 1_555
H80 C61 1_555 1_555
H81 C61 1_555 1_555
C62 C61 1_555 1_555
H82 C62 1_555 1_555
H83 C62 1_555 1_555
C63 O6 1_555 1_555
H84 C63 1_555 1_555
H85 C63 1_555 1_555
Li2 O2 1_555 1_555
O7 Li2 1_555 1_555
C64 C54 1_555 1_555
H86 C64 1_555 1_555
H87 C64 1_555 1_555
C65 C55 1_555 1_555
H88 C65 1_555 1_555
H89 C65 1_555 1_555
C66 C10 1_555 1_555
H90 C66 1_555 1_555
C67 C66 1_555 1_555
H91 C67 1_555 1_555
H92 C67 1_555 1_555
H93 C67 1_555 1_555
C68 C66 1_555 1_555
H94 C68 1_555 1_555
H95 C68 1_555 1_555
H96 C68 1_555 1_555
O8 Li2 1_555 1_555
C69 O8 1_555 1_555
H97 C69 1_555 1_555
H98 C69 1_555 1_555
C70 O8 1_555 1_555
H99 C70 1_555 1_555
H100 C70 1_555 1_555
C71 C69 1_555 1_555
C72 C70 1_555 1_555
C73 H101 1_555 1_555
H102 C73 1_555 1_555
C74 C73 1_555 1_555
H103 C74 1_555 1_555
H104 C74 1_555 1_555
C75 C74 1_555 1_555
H105 C75 1_555 1_555
H106 C75 1_555 1_555
C76 C75 1_555 1_555
H107 C76 1_555 1_555
H108 C76 1_555 1_555
O9 C73 1_555 1_555
C77 H109 1_555 1_555
H110 C77 1_555 1_555
C78 H111 1_555 1_555
O10 C77 1_555 1_555
C79 C77 1_555 1_555
H112 C79 1_555 1_555
H113 C79 1_555 1_555
C80 C78 1_555 1_555
H114 C80 1_555 1_555
O3 C3 1_555 1_555
C3 C4 1_555 1_555
C9 C10 1_555 1_555
C14 C15 1_555 1_555
C20 C21 1_555 1_555
C32 C33 1_555 1_555
C40 C41 1_555 1_555
C46 C47 1_555 1_555
C58 C59 1_555 1_555
C62 C63 1_555 1_555
O7 C64 1_555 1_555
O7 C65 1_555 1_555
C71 C72 1_555 1_555
C76 O9 1_555 1_555
C78 O10 1_555 1_555
C79 C80 1_555 1_555

#END
