
#######################################################################
#
#                 Cambridge Crystallographic Data Centre
#                                CCDC 
#
#######################################################################
#
# If this CIF has been generated from an entry in the Cambridge 
# Structural Database, then it will include bibliographic, chemical, 
# crystal, experimental, refinement or atomic coordinate data resulting 
# from the CCDC's data processing and validation procedures.
#
#######################################################################

data_GERDEO
_chemical_formula_moiety         'C36 H32 N4 2+,2(F6 P1 1-)'
_chemical_name_systematic        
'5,12,19,26-Tetraazoniaheptacyclo-[24.2.2.2^2,5^.2^7,10^.2^12,15^.2^16,19^.2^21,24^]tetraconta-1(28),2,4,7,9,12,14,16,18,21,23,26,29,31,33,35,37,39-octadecaene bis(hexafluorophosphate)'
_symmetry_cell_setting           orthorhombic
_symmetry_space_group_name_H-M   'P b a m'
_symmetry_Int_Tables_number      55
_space_group_name_Hall           '-P 2 2ab'
loop_
_symmetry_equiv_pos_site_id
_symmetry_equiv_pos_as_xyz
1 x,y,z
2 1/2+x,1/2-y,-z
3 1/2-x,1/2+y,-z
4 -x,-y,z
5 -x,-y,-z
6 1/2-x,1/2+y,z
7 1/2+x,1/2-y,z
8 x,y,-z
_cell_length_a                   10.1423(5)
_cell_length_b                   21.8630(10)
_cell_length_c                   10.0569(5)
_cell_angle_alpha                90
_cell_angle_beta                 90
_cell_angle_gamma                90
_cell_volume                     2230.03
_exptl_crystal_colour            black
_exptl_crystal_description       needle
_cell_formula_units_Z            2
loop_
_atom_site_label
_atom_site_type_symbol
_atom_site_fract_x
_atom_site_fract_y
_atom_site_fract_z
P1 P 0.12099(16) 0.84284(8) 1.0000
F1 F 0.0596(4) 0.77542(18) 1.0000
F2 F 0.2664(4) 0.81541(19) 1.0000
F3 F 0.1800(4) 0.91029(19) 1.0000
F4 F -0.0249(4) 0.8699(2) 1.0000
F5 F 0.1207(4) 0.8423(2) 1.1577(4)
F5G F 0.1207(4) 0.8423(2) 0.8423(4)
C1 C 0.8709(5) 0.8297(3) 0.5680(6)
H1 H 0.9420 0.8483 0.6143
C2 C 0.6789(6) 0.9724(2) 0.8394(6)
H2 H 0.7255 1.0101 0.8420
C3 C 0.5520(6) 0.8616(2) 0.8346(6)
H3 H 0.5093 0.8230 0.8332
C4 C 0.7470(6) 0.9190(3) 0.8313(6)
H4 H 0.8405 0.9206 0.8282
C5 C 0.5376(5) 0.9727(2) 0.8441(6)
C6 C 0.4769(6) 0.9130(2) 0.8437(6)
H5 H 0.3837 0.9096 0.8498
C7 C 0.6681(7) 0.7759(3) 0.5691(6)
H6 H 0.5976 0.7568 0.6155
C8 C 0.7614(5) 0.8078(2) 0.7887(7)
H7 H 0.7173 0.7711 0.8254
H8 H 0.8517 0.8097 0.8260
N1 N 0.6868(5) 0.86345(19) 0.8274(5)
C9 C 0.7684(5) 0.8030(2) 0.6398(6)
C1C C 0.1291(5) 1.1703(3) 0.5680(6)
C1G C 0.8709(5) 0.8297(3) 0.4320(6)
C1D C 0.1291(5) 1.1703(3) 0.4320(6)
H1C H 0.0580 1.1517 0.6143
H1G H 0.9420 0.8483 0.3857
H1D H 0.0580 1.1517 0.3857
C2C C 0.3211(6) 1.0276(2) 0.8394(6)
C2G C 0.6789(6) 0.9724(2) 0.1606(6)
C2D C 0.3211(6) 1.0276(2) 0.1606(6)
H2C H 0.2745 0.9899 0.8420
H2G H 0.7255 1.0101 0.1580
H2D H 0.2745 0.9899 0.1580
C3C C 0.4480(6) 1.1384(2) 0.8346(6)
C3G C 0.5520(6) 0.8616(2) 0.1654(6)
C3D C 0.4480(6) 1.1384(2) 0.1654(6)
H3C H 0.4907 1.1770 0.8332
H3G H 0.5093 0.8230 0.1668
H3D H 0.4907 1.1770 0.1668
C4C C 0.2530(6) 1.0810(3) 0.8313(6)
C4G C 0.7470(6) 0.9190(3) 0.1687(6)
C4D C 0.2530(6) 1.0810(3) 0.1687(6)
H4C H 0.1595 1.0794 0.8282
H4G H 0.8405 0.9206 0.1718
H4D H 0.1595 1.0794 0.1718
C5C C 0.4624(5) 1.0273(2) 0.8441(6)
C5G C 0.5376(5) 0.9727(2) 0.1559(6)
C5D C 0.4624(5) 1.0273(2) 0.1559(6)
C6C C 0.5231(6) 1.0870(2) 0.8437(6)
C6G C 0.4769(6) 0.9130(2) 0.1563(6)
C6D C 0.5231(6) 1.0870(2) 0.1563(6)
H5C H 0.6163 1.0904 0.8498
H5G H 0.3837 0.9096 0.1502
H5D H 0.6163 1.0904 0.1502
C7C C 0.3319(7) 1.2241(3) 0.5691(6)
C7G C 0.6681(7) 0.7759(3) 0.4309(6)
C7D C 0.3319(7) 1.2241(3) 0.4309(6)
H6C H 0.4024 1.2432 0.6155
H6G H 0.5976 0.7568 0.3845
H6D H 0.4024 1.2432 0.3845
C8C C 0.2386(5) 1.1922(2) 0.7887(7)
C8G C 0.7614(5) 0.8078(2) 0.2113(7)
C8D C 0.2386(5) 1.1922(2) 0.2113(7)
H7C H 0.2827 1.2289 0.8254
H7G H 0.7173 0.7711 0.1746
H7D H 0.2827 1.2289 0.1746
H8C H 0.1483 1.1903 0.8260
H8G H 0.8517 0.8097 0.1740
H8D H 0.1483 1.1903 0.1740
N1C N 0.3132(5) 1.13655(19) 0.8274(5)
N1G N 0.6868(5) 0.86345(19) 0.1726(5)
N1D N 0.3132(5) 1.13655(19) 0.1726(5)
C9C C 0.2316(5) 1.1970(2) 0.6398(6)
C9G C 0.7684(5) 0.8030(2) 0.3602(6)
C9D C 0.2316(5) 1.1970(2) 0.3602(6)
loop_
_geom_bond_atom_site_label_1
_geom_bond_atom_site_label_2
_geom_bond_site_symmetry_1
_geom_bond_site_symmetry_2
P1 F1 1_555 1_555
F2 P1 1_555 1_555
F3 P1 1_555 1_555
F4 P1 1_555 1_555
F5 P1 1_555 1_555
C1 H1 1_555 1_555
C2 H2 1_555 1_555
C3 H3 1_555 1_555
C4 C2 1_555 1_555
H4 C4 1_555 1_555
C5 C2 1_555 1_555
C6 C3 1_555 1_555
H5 C6 1_555 1_555
C7 H6 1_555 1_555
C8 H7 1_555 1_555
H8 C8 1_555 1_555
N1 C3 1_555 1_555
C9 C1 1_555 1_555
F5G P1 1_555 1_555
C1C C1D 1_555 1_555
C1G C1 1_555 1_555
C1D H1D 1_555 1_555
H1C C1C 1_555 1_555
H1G C1G 1_555 1_555
C2C H2C 1_555 1_555
C2G H2G 1_555 1_555
C2D H2D 1_555 1_555
C3C H3C 1_555 1_555
C3G H3G 1_555 1_555
C3D H3D 1_555 1_555
C4C C2C 1_555 1_555
C4G C2G 1_555 1_555
C4D C2D 1_555 1_555
H4C C4C 1_555 1_555
H4G C4G 1_555 1_555
H4D C4D 1_555 1_555
C5C C5 1_555 1_555
C5G C2G 1_555 1_555
C5D C2D 1_555 1_555
C6C C3C 1_555 1_555
C6G C3G 1_555 1_555
C6D C3D 1_555 1_555
H5C C6C 1_555 1_555
H5G C6G 1_555 1_555
H5D C6D 1_555 1_555
C7C C7D 1_555 1_555
C7G C7 1_555 1_555
C7D H6D 1_555 1_555
H6C C7C 1_555 1_555
H6G C7G 1_555 1_555
C8C H7C 1_555 1_555
C8G H7G 1_555 1_555
C8D H7D 1_555 1_555
H8C C8C 1_555 1_555
H8G C8G 1_555 1_555
H8D C8D 1_555 1_555
N1C C3C 1_555 1_555
N1G C3G 1_555 1_555
N1D C3D 1_555 1_555
C9C C1C 1_555 1_555
C9G C1G 1_555 1_555
C9D C1D 1_555 1_555
C4 N1 1_555 1_555
C5 C6 1_555 1_555
C7 C9 1_555 1_555
C8 N1 1_555 1_555
C8 C9 1_555 1_555
C2C C5C 1_555 1_555
C4C N1C 1_555 1_555
C4G N1G 1_555 1_555
C4D N1D 1_555 1_555
C5C C6C 1_555 1_555
C5G C5D 1_555 1_555
C5G C6G 1_555 1_555
C5D C6D 1_555 1_555
C7C C9C 1_555 1_555
C7G C9G 1_555 1_555
C7D C9D 1_555 1_555
C8C N1C 1_555 1_555
C8C C9C 1_555 1_555
C8G N1G 1_555 1_555
C8G C9G 1_555 1_555
C8D N1D 1_555 1_555
C8D C9D 1_555 1_555

#END
