
#######################################################################
#
#                 Cambridge Crystallographic Data Centre
#                                CCDC 
#
#######################################################################
#
# If this CIF has been generated from an entry in the Cambridge 
# Structural Database, then it will include bibliographic, chemical, 
# crystal, experimental, refinement or atomic coordinate data resulting 
# from the CCDC's data processing and validation procedures.
#
#######################################################################

data_GERDIS
_chemical_formula_moiety         
'C36 H32 N4 2+,C12 H14 N2 1+,3(F6 P1 1-),4(C2 H3 N1)'
_chemical_name_systematic        
"5,12,19,26-Tetraazoniaheptacyclo-[24.2.2.2^2,5^.2^7,10^.2^12,15^.2^16,19^.2^21,24^]tetraconta-1(28),2,4,7,9,12,14,16,18,21,23,26,29,31,33,35,37,39-octadecaene 1,1'-dimethyl-4,4'-bipyridinium tris(hexafluorphosphate) acetonitrile solvate"
_symmetry_cell_setting           monoclinic
_symmetry_space_group_name_H-M   'P 21/c'
_symmetry_Int_Tables_number      14
_space_group_name_Hall           '-P 2ybc'
loop_
_symmetry_equiv_pos_site_id
_symmetry_equiv_pos_as_xyz
1 x,y,z
2 -x,1/2+y,1/2-z
3 -x,-y,-z
4 x,1/2-y,1/2+z
_cell_length_a                   9.7027(10)
_cell_length_b                   14.7869(15)
_cell_length_c                   21.131(2)
_cell_angle_alpha                90
_cell_angle_beta                 91.072(5)
_cell_angle_gamma                90
_cell_volume                     3031.19
_exptl_crystal_colour            purple
_exptl_crystal_description       block
_cell_formula_units_Z            2
loop_
_atom_site_label
_atom_site_type_symbol
_atom_site_fract_x
_atom_site_fract_y
_atom_site_fract_z
C1 C 1.4401(3) 0.36352(19) -0.06266(13)
H1 H 1.3947 0.3978 -0.0313
C2 C 1.4298(3) 0.2692(2) -0.15467(13)
H2 H 1.3779 0.2383 -0.1865
C3 C 1.5824(3) 0.3606(2) -0.06272(14)
H3 H 1.6341 0.3930 -0.0316
C4 C 1.5727(3) 0.2664(2) -0.15504(13)
H4 H 1.6181 0.2342 -0.1875
C5 C 1.6501(3) 0.31055(19) -0.10822(13)
C6 C 1.8040(3) 0.2969(2) -0.10388(14)
H5 H 1.8435 0.2988 -0.1467
H6 H 1.8469 0.3458 -0.0782
C7 C 1.8400(3) 0.2003(2) -0.00953(13)
H7 H 1.8452 0.2537 0.0155
C8 C 1.8262(3) 0.1310(2) -0.10932(13)
H8 H 1.8215 0.1358 -0.1541
C9 C 1.8401(2) 0.1190(2) 0.01968(13)
H9 H 1.8457 0.1166 0.0646
C10 C 1.8261(3) 0.0476(2) -0.08267(13)
H10 H 1.8221 -0.0044 -0.1090
C11 C 1.8320(2) 0.0373(2) -0.01512(13)
C12 C 1.8305(2) -0.04965(19) 0.01415(13)
C13 C 1.8223(3) -0.1322(2) -0.02089(13)
H11 H 1.8192 -0.1297 -0.0658
C14 C 1.8367(2) -0.0612(2) 0.08132(13)
H12 H 1.8435 -0.0093 0.1077
C15 C 1.8334(3) -0.14377(19) 0.10810(13)
H13 H 1.8371 -0.1487 0.1529
C16 C 1.8188(3) -0.2134(2) 0.00785(13)
H14 H 1.8121 -0.2666 -0.0172
C17 C 1.7925(3) -0.3082(2) 0.10292(15)
H15 H 1.8361 -0.3108 0.1456
H16 H 1.8291 -0.3587 0.0775
C18 C 1.6375(3) -0.3169(2) 0.10792(14)
N1 N 1.8327(2) 0.20817(17) -0.07406(11)
N2 N 1.8247(2) -0.22079(16) 0.07233(11)
C1B C 1.5599(3) -0.36352(19) 0.06266(13)
H1B H 1.6053 -0.3978 0.0313
C2B C 1.5702(3) -0.2692(2) 0.15467(13)
H2B H 1.6221 -0.2383 0.1865
C3B C 1.4176(3) -0.3606(2) 0.06272(14)
H3B H 1.3659 -0.3930 0.0316
C4B C 1.4273(3) -0.2664(2) 0.15504(13)
H4B H 1.3819 -0.2342 0.1875
C5B C 1.3499(3) -0.31055(19) 0.10822(13)
C6B C 1.1960(3) -0.2969(2) 0.10388(14)
H5B H 1.1565 -0.2988 0.1467
H6B H 1.1531 -0.3458 0.0782
C7B C 1.1600(3) -0.2003(2) 0.00953(13)
H7B H 1.1548 -0.2537 -0.0155
C8B C 1.1738(3) -0.1310(2) 0.10932(13)
H8B H 1.1785 -0.1358 0.1541
C9B C 1.1599(2) -0.1190(2) -0.01968(13)
H9B H 1.1543 -0.1166 -0.0646
C10B C 1.1739(3) -0.0476(2) 0.08267(13)
H10B H 1.1779 0.0044 0.1090
C11B C 1.1680(2) -0.0373(2) 0.01512(13)
C12B C 1.1695(2) 0.04965(19) -0.01415(13)
C13B C 1.1777(3) 0.1322(2) 0.02089(13)
H11B H 1.1808 0.1297 0.0658
C14B C 1.1633(2) 0.0612(2) -0.08132(13)
H12B H 1.1565 0.0093 -0.1077
C15B C 1.1666(3) 0.14377(19) -0.10810(13)
H13B H 1.1629 0.1487 -0.1529
C16B C 1.1812(3) 0.2134(2) -0.00785(13)
H14B H 1.1879 0.2666 0.0172
C17B C 1.2075(3) 0.3082(2) -0.10292(15)
H15B H 1.1639 0.3108 -0.1456
H16B H 1.1709 0.3587 -0.0775
C18B C 1.3625(3) 0.3169(2) -0.10792(14)
N1B N 1.1673(2) -0.20817(17) 0.07406(11)
N2B N 1.1753(2) 0.22079(16) -0.07233(11)
C19 C 1.5132(3) 0.0652(2) 0.13762(12)
H17 H 1.5150 0.0446 0.1802
C20 C 1.5062(3) 0.00388(18) 0.09027(12)
H18 H 1.5031 -0.0587 0.1002
C21 C 1.5035(3) 0.03155(17) 0.02561(11)
C22 C 1.5084(3) 0.12652(17) 0.01585(12)
H19 H 1.5072 0.1495 -0.0261
C23 C 1.5147(3) 0.18510(18) 0.06539(12)
H20 H 1.5171 0.2483 0.0573
C24 C 1.5249(5) 0.2187(3) 0.17923(17)
H21 H 1.5643 0.2760 0.1650
H22 H 1.5833 0.1932 0.2131
H23 H 1.4320 0.2292 0.1951
N3 N 1.5176(3) 0.15520(16) 0.12611(10)
C19B C 1.4868(3) -0.0652(2) -0.13762(12)
H17B H 1.4850 -0.0446 -0.1802
C20B C 1.4938(3) -0.00388(18) -0.09027(12)
H18B H 1.4969 0.0587 -0.1002
C21B C 1.4965(3) -0.03155(17) -0.02561(11)
C22B C 1.4916(3) -0.12652(17) -0.01585(12)
H19B H 1.4928 -0.1495 0.0261
C23B C 1.4853(3) -0.18510(18) -0.06539(12)
H20B H 1.4829 -0.2483 -0.0573
C24B C 1.4751(5) -0.2187(3) -0.17923(17)
H21B H 1.4357 -0.2760 -0.1650
H22B H 1.4167 -0.1932 -0.2131
H23B H 1.5680 -0.2292 -0.1951
N3B N 1.4824(3) -0.15520(16) -0.12611(10)
C25 C 0.7836(4) 0.4557(3) 0.1696(2)
H24 H 0.8492 0.4052 0.1711
H25 H 0.8320 0.5121 0.1797
H26 H 0.7423 0.4599 0.1270
C26 C 0.6784(4) 0.4407(2) 0.21431(18)
N4 N 0.5937(4) 0.4283(2) 0.24962(17)
C27 C 1.2328(4) 0.4574(3) 0.1840(2)
H27 H 1.1981 0.5173 0.1719
H28 H 1.2873 0.4623 0.2234
H29 H 1.1549 0.4164 0.1904
C28 C 1.3160(6) 0.4233(3) 0.1358(2)
N5 N 1.3838(6) 0.3955(3) 0.0970(2)
P1 P 1.99828(10) 0.19260(5) 0.21095(3)
F1 F 1.9962(3) 0.25362(14) 0.14930(8)
F2 F 1.9983(2) 0.13214(11) 0.27344(7)
F3 F 2.1077(7) 0.1286(3) 0.1816(2)
F4 F 2.1144(5) 0.2551(3) 0.24149(17)
F5 F 1.8850(4) 0.2567(3) 0.24154(16)
F6 F 1.8766(6) 0.1305(3) 0.18228(17)
P2 P 2.0000 -0.5000 0.0000
F7 F 1.83617(16) -0.50187(14) 0.00604(10)
F8 F 1.98479(18) -0.51919(10) -0.07444(7)
F9 F 1.99491(18) -0.39359(10) -0.01315(7)
F7B F 2.16383(16) -0.49813(14) -0.00604(10)
F8B F 2.01521(18) -0.48081(10) 0.07444(7)
F9B F 2.00509(18) -0.60641(10) 0.01315(7)
F10? F 1.999(3) 0.1085(8) 0.1670(5)
F11? F 2.1574(12) 0.1944(19) 0.2150(13)
F12? F 1.994(3) 0.2803(8) 0.2542(6)
F13? F 1.8426(12) 0.1935(16) 0.2079(13)
loop_
_geom_bond_atom_site_label_1
_geom_bond_atom_site_label_2
_geom_bond_site_symmetry_1
_geom_bond_site_symmetry_2
C1 H1 1_555 1_555
C2 H2 1_555 1_555
C3 C1 1_555 1_555
H3 C3 1_555 1_555
C4 C2 1_555 1_555
H4 C4 1_555 1_555
C5 C3 1_555 1_555
C6 C5 1_555 1_555
H5 C6 1_555 1_555
H6 C6 1_555 1_555
C7 H7 1_555 1_555
C8 H8 1_555 1_555
C9 C7 1_555 1_555
H9 C9 1_555 1_555
C10 C8 1_555 1_555
H10 C10 1_555 1_555
C11 C9 1_555 1_555
C12 C11 1_555 1_555
C13 C12 1_555 1_555
H11 C13 1_555 1_555
C14 C12 1_555 1_555
H12 C14 1_555 1_555
C15 C14 1_555 1_555
H13 C15 1_555 1_555
C16 C13 1_555 1_555
H14 C16 1_555 1_555
C17 H15 1_555 1_555
H16 C17 1_555 1_555
C18 C17 1_555 1_555
N1 C6 1_555 1_555
N2 C15 1_555 1_555
C19 H17 1_555 1_555
C20 C19 1_555 1_555
H18 C20 1_555 1_555
C21 C20 1_555 1_555
C22 C21 1_555 1_555
H19 C22 1_555 1_555
C23 C22 1_555 1_555
H20 C23 1_555 1_555
C24 H21 1_555 1_555
H22 C24 1_555 1_555
H23 C24 1_555 1_555
N3 C19 1_555 1_555
C25 H24 1_555 1_555
H25 C25 1_555 1_555
H26 C25 1_555 1_555
C26 C25 1_555 1_555
C27 H27 1_555 1_555
H28 C27 1_555 1_555
H29 C27 1_555 1_555
C28 C27 1_555 1_555
N4 C26 1_555 1_555
N5 C28 1_555 1_555
P1 F1 1_555 1_555
F2 P1 1_555 1_555
F3 P1 1_555 1_555
F4 P1 1_555 1_555
F5 P1 1_555 1_555
F6 P1 1_555 1_555
P2 F7 1_555 1_555
F8 P2 1_555 1_555
F9 P2 1_555 1_555
C1B C18 1_555 1_555
H1B C1B 1_555 1_555
C2B C18 1_555 1_555
H2B C2B 1_555 1_555
C3B C1B 1_555 1_555
H3B C3B 1_555 1_555
C4B C2B 1_555 1_555
H4B C4B 1_555 1_555
C5B C3B 1_555 1_555
C6B C5B 1_555 1_555
H5B C6B 1_555 1_555
H6B C6B 1_555 1_555
C7B H7B 1_555 1_555
C8B H8B 1_555 1_555
C9B C7B 1_555 1_555
H9B C9B 1_555 1_555
C10B C8B 1_555 1_555
H10B C10B 1_555 1_555
C11B C9B 1_555 1_555
C12B C11B 1_555 1_555
C13B C12B 1_555 1_555
H11B C13B 1_555 1_555
C14B C12B 1_555 1_555
H12B C14B 1_555 1_555
C15B C14B 1_555 1_555
H13B C15B 1_555 1_555
C16B C13B 1_555 1_555
H14B C16B 1_555 1_555
C17B H15B 1_555 1_555
H16B C17B 1_555 1_555
C18B C1 1_555 1_555
N1B C6B 1_555 1_555
N2B C15B 1_555 1_555
C19B H17B 1_555 1_555
C20B C19B 1_555 1_555
H18B C20B 1_555 1_555
C21B C21 1_555 1_555
C22B C21B 1_555 1_555
H19B C22B 1_555 1_555
C23B C22B 1_555 1_555
H20B C23B 1_555 1_555
C24B H21B 1_555 1_555
H22B C24B 1_555 1_555
H23B C24B 1_555 1_555
N3B C19B 1_555 1_555
F7B P2 1_555 1_555
F8B P2 1_555 1_555
F9B P2 1_555 1_555
C2 C18B 1_555 1_555
C4 C5 1_555 1_555
C7 N1 1_555 1_555
C8 N1 1_555 1_555
C10 C11 1_555 1_555
C16 N2 1_555 1_555
C17 N2 1_555 1_555
C23 N3 1_555 1_555
C24 N3 1_555 1_555
C4B C5B 1_555 1_555
C7B N1B 1_555 1_555
C8B N1B 1_555 1_555
C10B C11B 1_555 1_555
C16B N2B 1_555 1_555
C17B C18B 1_555 1_555
C17B N2B 1_555 1_555
C20B C21B 1_555 1_555
C23B N3B 1_555 1_555
C24B N3B 1_555 1_555

#END
