
#######################################################################
#
#                 Cambridge Crystallographic Data Centre
#                                CCDC 
#
#######################################################################
#
# If this CIF has been generated from an entry in the Cambridge 
# Structural Database, then it will include bibliographic, chemical, 
# crystal, experimental, refinement or atomic coordinate data resulting 
# from the CCDC's data processing and validation procedures.
#
#######################################################################

data_GERFAK
_chemical_formula_moiety         '2(C24 H20 P1 1+),Se5 2-'
_chemical_name_systematic        'bis(Tetraphenylphosphonium) pentaselenide'
_symmetry_cell_setting           monoclinic
_symmetry_space_group_name_H-M   'P 21'
_symmetry_Int_Tables_number      4
_space_group_name_Hall           'P 2yb'
loop_
_symmetry_equiv_pos_site_id
_symmetry_equiv_pos_as_xyz
1 x,y,z
2 -x,1/2+y,-z
_cell_length_a                   9.573(7)
_cell_length_b                   16.945(12)
_cell_length_c                   13.563(10)
_cell_angle_alpha                90
_cell_angle_beta                 105.29(2)
_cell_angle_gamma                90
_cell_volume                     2122.24
_exptl_crystal_colour            'dark brown'
_cell_formula_units_Z            2
loop_
_atom_site_label
_atom_site_type_symbol
_atom_site_fract_x
_atom_site_fract_y
_atom_site_fract_z
Se1 Se 0.6065(1) 0.41127(9) 0.45041(8)
Se2 Se 0.4394(1) 0.38299(8) 0.29700(8)
Se3 Se 0.3686(1) 0.2500 0.29841(8)
Se4 Se 0.5494(1) 0.16559(8) 0.26769(8)
Se5 Se 0.5068(1) 0.14613(9) 0.09341(8)
P1 P -0.06676(33) -0.30789(17) 0.43667(21)
C1 C -0.0789(11) -0.35169(62) 0.55462(73)
C2 C 0.0400(11) -0.34227(67) 0.64004(79)
C3 C 0.0323(12) -0.37019(65) 0.73485(83)
C4 C -0.0880(13) -0.40805(68) 0.74469(89)
C5 C -0.2055(12) -0.41772(65) 0.66170(84)
C6 C -0.2004(12) -0.38987(63) 0.56528(80)
C7 C -0.2093(11) -0.34348(63) 0.33403(73)
C8 C -0.2897(12) -0.28987(63) 0.26112(83)
C9 C -0.3927(13) -0.31819(65) 0.17921(85)
C10 C -0.4226(13) -0.39861(65) 0.16782(87)
C11 C -0.3473(13) -0.45125(69) 0.23857(86)
C12 C -0.2391(13) -0.42389(66) 0.32346(86)
C13 C -0.0915(12) -0.20324(64) 0.44399(82)
C14 C -0.0039(13) -0.14984(65) 0.40831(85)
C15 C -0.0385(12) -0.06838(60) 0.40927(82)
C16 C -0.1544(13) -0.04565(67) 0.44486(86)
C17 C -0.2390(12) -0.09857(61) 0.47950(78)
C18 C -0.2075(13) -0.17640(63) 0.48092(79)
C19 C 0.1038(11) -0.33279(61) 0.41345(73)
C20 C 0.1119(12) -0.39547(64) 0.34646(82)
C21 C 0.2439(13) -0.42022(67) 0.33540(88)
C22 C 0.3702(13) -0.38554(67) 0.39136(87)
C23 C 0.3630(12) -0.32240(64) 0.45542(82)
C24 C 0.2323(12) -0.29692(62) 0.46771(81)
H1 H 0.126 -0.317 0.633
H2 H 0.112 -0.363 0.793
H3 H -0.092 -0.427 0.810
H4 H -0.290 -0.444 0.670
H5 H -0.281 -0.398 0.508
H6 H -0.272 -0.235 0.269
H7 H -0.445 -0.283 0.129
H8 H -0.495 -0.417 0.110
H9 H -0.368 -0.506 0.231
H10 H -0.187 -0.461 0.373
H11 H 0.075 -0.168 0.384
H12 H 0.017 -0.030 0.386
H13 H -0.177 0.009 0.446
H14 H -0.319 -0.081 0.503
H15 H -0.264 -0.214 0.506
H16 H 0.026 -0.421 0.309
H17 H 0.248 -0.462 0.289
H18 H 0.481 -0.405 0.386
H19 H 0.450 -0.297 0.491
H20 H 0.229 -0.255 0.514
P2 P 0.05358(33) -0.19976(18) 0.03189(21)
C25 C 0.0520(12) -0.30537(64) 0.04497(82)
C26 C 0.1667(12) -0.34874(71) 0.02705(82)
C27 C 0.1686(14) -0.42991(75) 0.03896(97)
C28 C 0.0588(14) -0.46746(72) 0.06635(93)
C29 C -0.0561(13) -0.42433(69) 0.08485(89)
C30 C -0.0620(12) -0.34196(72) 0.07336(83)
C31 C 0.2031(12) -0.15804(60) 0.12436(78)
C32 C 0.2480(12) -0.08274(64) 0.11065(76)
C33 C 0.3559(12) -0.04536(62) 0.18456(82)
C34 C 0.4175(13) -0.08671(70) 0.27202(85)
C35 C 0.3781(13) -0.16047(64) 0.28818(85)
C36 C 0.2676(13) -0.19810(67) 0.21603(84)
C37 C -0.1107(12) -0.15890(61) 0.04996(82)
C38 C -0.1069(12) -0.10286(62) 0.12605(77)
C39 C -0.2343(14) -0.06926(70) 0.13530(92)
C40 C -0.3635(13) -0.09093(76) 0.07071(91)
C41 C -0.3691(13) -0.14593(69) -0.00445(89)
C42 C -0.2432(14) -0.18281(70) -0.01347(85)
C43 C 0.0768(12) -0.17454(61) -0.09179(78)
C44 C -0.0408(12) -0.14863(62) -0.17073(82)
C45 C -0.0178(12) -0.12932(67) -0.26577(82)
C46 C 0.1168(12) -0.13811(63) -0.28275(80)
C47 C 0.2305(12) -0.16471(62) -0.20525(83)
C48 C 0.2137(13) -0.18382(64) -0.10935(77)
H21 H 0.242 -0.323 0.006
H22 H 0.248 -0.460 0.029
H23 H 0.060 -0.524 0.072
H24 H -0.131 -0.452 0.105
H25 H -0.141 -0.313 0.085
H26 H 0.204 -0.056 0.049
H27 H 0.386 0.006 0.175
H28 H 0.491 -0.063 0.324
H29 H 0.425 -0.188 0.349
H30 H 0.237 -0.230 0.228
H31 H -0.017 -0.089 0.171
H32 H -0.232 -0.031 0.187
H33 H -0.451 -0.069 0.078
H34 H -0.459 -0.159 -0.051
H35 H -0.248 -0.224 -0.062
H36 H -0.135 -0.145 -0.160
H37 H -0.096 -0.110 -0.319
H38 H 0.131 -0.127 -0.348
H39 H 0.323 -0.170 -0.217
H40 H 0.293 -0.204 -0.057
loop_
_geom_bond_atom_site_label_1
_geom_bond_atom_site_label_2
_geom_bond_site_symmetry_1
_geom_bond_site_symmetry_2
Se1 Se2 1_555 1_555
Se2 Se3 1_555 1_555
Se3 Se4 1_555 1_555
Se4 Se5 1_555 1_555
P1 C1 1_555 1_555
C1 C2 1_555 1_555
C2 C3 1_555 1_555
C3 C4 1_555 1_555
C4 C5 1_555 1_555
C5 C6 1_555 1_555
C6 C1 1_555 1_555
C7 P1 1_555 1_555
C8 C7 1_555 1_555
C9 C8 1_555 1_555
C10 C9 1_555 1_555
C11 C10 1_555 1_555
C12 C7 1_555 1_555
C13 P1 1_555 1_555
C14 C13 1_555 1_555
C15 C14 1_555 1_555
C16 C15 1_555 1_555
C17 C16 1_555 1_555
C18 C13 1_555 1_555
C19 P1 1_555 1_555
C20 C19 1_555 1_555
C21 C20 1_555 1_555
C22 C21 1_555 1_555
C23 C22 1_555 1_555
C24 C19 1_555 1_555
H1 C2 1_555 1_555
H2 C3 1_555 1_555
H3 C4 1_555 1_555
H4 C5 1_555 1_555
H5 C6 1_555 1_555
H6 C8 1_555 1_555
H7 C9 1_555 1_555
H8 C10 1_555 1_555
H9 C11 1_555 1_555
H10 C12 1_555 1_555
H11 C14 1_555 1_555
H12 C15 1_555 1_555
H13 C16 1_555 1_555
H14 C17 1_555 1_555
H15 C18 1_555 1_555
H16 C20 1_555 1_555
H17 C21 1_555 1_555
H18 C22 1_555 1_555
H19 C23 1_555 1_555
H20 C24 1_555 1_555
P2 C25 1_555 1_555
C25 C26 1_555 1_555
C26 C27 1_555 1_555
C27 C28 1_555 1_555
C28 C29 1_555 1_555
C29 C30 1_555 1_555
C30 C25 1_555 1_555
C31 P2 1_555 1_555
C32 C31 1_555 1_555
C33 C32 1_555 1_555
C34 C33 1_555 1_555
C35 C34 1_555 1_555
C36 C31 1_555 1_555
C37 P2 1_555 1_555
C38 C37 1_555 1_555
C39 C38 1_555 1_555
C40 C39 1_555 1_555
C41 C40 1_555 1_555
C42 C37 1_555 1_555
C43 P2 1_555 1_555
C44 C43 1_555 1_555
C45 C44 1_555 1_555
C46 C45 1_555 1_555
C47 C46 1_555 1_555
C48 C43 1_555 1_555
H21 C26 1_555 1_555
H22 C27 1_555 1_555
H23 C28 1_555 1_555
H24 C29 1_555 1_555
H25 C30 1_555 1_555
H26 C32 1_555 1_555
H27 C33 1_555 1_555
H28 C34 1_555 1_555
H29 C35 1_555 1_555
H30 C36 1_555 1_555
H31 C38 1_555 1_555
H32 C39 1_555 1_555
H33 C40 1_555 1_555
H34 C41 1_555 1_555
H35 C42 1_555 1_555
H36 C44 1_555 1_555
H37 C45 1_555 1_555
H38 C46 1_555 1_555
H39 C47 1_555 1_555
H40 C48 1_555 1_555
C11 C12 1_555 1_555
C17 C18 1_555 1_555
C23 C24 1_555 1_555
C35 C36 1_555 1_555
C41 C42 1_555 1_555
C47 C48 1_555 1_555

#END
