
#######################################################################
#
#                 Cambridge Crystallographic Data Centre
#                                CCDC 
#
#######################################################################
#
# If this CIF has been generated from an entry in the Cambridge 
# Structural Database, then it will include bibliographic, chemical, 
# crystal, experimental, refinement or atomic coordinate data resulting 
# from the CCDC's data processing and validation procedures.
#
#######################################################################

data_GERNUP
_chemical_formula_moiety         'C23 H16 O2'
_chemical_name_systematic        5-methyl-3,4-diphenylnaphthalene-1,2-dione
_symmetry_cell_setting           monoclinic
_symmetry_space_group_name_H-M   'P 21/n'
_symmetry_Int_Tables_number      14
_space_group_name_Hall           '-P 2yn'
loop_
_symmetry_equiv_pos_site_id
_symmetry_equiv_pos_as_xyz
1 x,y,z
2 1/2-x,1/2+y,1/2-z
3 -x,-y,-z
4 1/2+x,1/2-y,1/2+z
_cell_length_a                   9.573(3)
_cell_length_b                   17.291(5)
_cell_length_c                   10.693(3)
_cell_angle_alpha                90
_cell_angle_beta                 112.066(7)
_cell_angle_gamma                90
_cell_volume                     1640.33
_exptl_crystal_colour            red
_cell_formula_units_Z            4
loop_
_atom_site_label
_atom_site_type_symbol
_atom_site_fract_x
_atom_site_fract_y
_atom_site_fract_z
C1 C 0.6556(4) 0.3607(2) -0.4060(3)
H1 H 0.6246 0.3450 -0.4976
C2 C 0.6600(4) 0.4379(2) -0.3734(3)
H2 H 0.6380 0.4762 -0.4419
C3 C 0.6966(3) 0.4596(2) -0.2397(3)
C4 C 0.7137(4) 0.5421(2) -0.2082(3)
C5 C 0.7811(4) 0.5655(2) -0.0580(3)
C6 C 0.7792(3) 0.50744(19) 0.0404(3)
C7 C 0.8012(3) 0.53574(19) 0.1785(3)
C8 C 0.9429(4) 0.5612(2) 0.2641(3)
H3 H 1.0244 0.5620 0.2340
C9 C 0.9644(4) 0.5857(2) 0.3946(3)
H4 H 1.0621 0.6007 0.4546
C10 C 0.8470(4) 0.5883(2) 0.4367(3)
H5 H 0.8624 0.6057 0.5252
C11 C 0.6982(5) 0.2697(2) 0.2809(4)
H6 H 0.6858 0.2328 0.3418
C12 C 0.8379(5) 0.2986(2) 0.3029(3)
H7 H 0.9223 0.2817 0.3787
C13 C 0.8572(4) 0.3526(2) 0.2150(4)
H8 H 0.9542 0.3738 0.2322
C14 C 0.7349(4) 0.3759(2) 0.1017(3)
C15 C 0.7525(3) 0.43223(19) 0.0032(3)
C16 C 0.6970(4) 0.3066(3) -0.3040(3)
H9 H 0.6977 0.2536 -0.3268
C17 C 0.7382(4) 0.3268(2) -0.1677(3)
C18 C 0.7293(3) 0.4048(2) -0.1353(3)
C19 C 0.8005(5) 0.2615(2) -0.0676(4)
H10 H 0.7313 0.2510 -0.0214
H11 H 0.8992 0.2763 -0.0012
H12 H 0.8110 0.2149 -0.1156
C20 C 0.6831(4) 0.5392(2) 0.2216(3)
H13 H 0.5853 0.5234 0.1629
C21 C 0.7053(4) 0.5657(2) 0.3504(3)
H14 H 0.6228 0.5682 0.3791
C22 C 0.5921(4) 0.3461(2) 0.0810(3)
H15 H 0.5071 0.3621 0.0050
C23 C 0.5746(5) 0.2934(2) 0.1711(4)
H16 H 0.4775 0.2735 0.1575
O1 O 0.6811(4) 0.59242(18) -0.2927(3)
O2 O 0.8251(3) 0.63138(16) -0.0285(3)
loop_
_geom_bond_atom_site_label_1
_geom_bond_atom_site_label_2
_geom_bond_site_symmetry_1
_geom_bond_site_symmetry_2
C1 H1 1_555 1_555
C2 C1 1_555 1_555
H2 C2 1_555 1_555
C3 C2 1_555 1_555
C4 C3 1_555 1_555
C5 C4 1_555 1_555
C6 C5 1_555 1_555
C7 C6 1_555 1_555
C8 C7 1_555 1_555
H3 C8 1_555 1_555
C9 C8 1_555 1_555
H4 C9 1_555 1_555
C10 C9 1_555 1_555
H5 C10 1_555 1_555
C11 H6 1_555 1_555
C12 C11 1_555 1_555
H7 C12 1_555 1_555
C13 C12 1_555 1_555
H8 C13 1_555 1_555
C14 C13 1_555 1_555
C15 C6 1_555 1_555
C16 C1 1_555 1_555
H9 C16 1_555 1_555
C17 C16 1_555 1_555
C18 C3 1_555 1_555
C19 C17 1_555 1_555
H10 C19 1_555 1_555
H11 C19 1_555 1_555
H12 C19 1_555 1_555
C20 C7 1_555 1_555
H13 C20 1_555 1_555
C21 C10 1_555 1_555
H14 C21 1_555 1_555
C22 C14 1_555 1_555
H15 C22 1_555 1_555
C23 C11 1_555 1_555
H16 C23 1_555 1_555
O1 C4 1_555 1_555
O2 C5 1_555 1_555
C14 C15 1_555 1_555
C15 C18 1_555 1_555
C17 C18 1_555 1_555
C20 C21 1_555 1_555
C22 C23 1_555 1_555

#END
