
#######################################################################
#
#                 Cambridge Crystallographic Data Centre
#                                CCDC 
#
#######################################################################
#
# If this CIF has been generated from an entry in the Cambridge 
# Structural Database, then it will include bibliographic, chemical, 
# crystal, experimental, refinement or atomic coordinate data resulting 
# from the CCDC's data processing and validation procedures.
#
#######################################################################

data_GERNOJ
_chemical_formula_moiety         'C18 H14 O2'
_chemical_name_systematic        3,7-dimethyl-4-phenylnaphthalene-1,2-dione
_symmetry_cell_setting           monoclinic
_symmetry_space_group_name_H-M   'P 21/c'
_symmetry_Int_Tables_number      14
_space_group_name_Hall           '-P 2ybc'
loop_
_symmetry_equiv_pos_site_id
_symmetry_equiv_pos_as_xyz
1 x,y,z
2 -x,1/2+y,1/2-z
3 -x,-y,-z
4 x,1/2-y,1/2+z
_cell_length_a                   25.138(6)
_cell_length_b                   6.5629(16)
_cell_length_c                   17.174(4)
_cell_angle_alpha                90
_cell_angle_beta                 108.297(5)
_cell_angle_gamma                90
_cell_volume                     2690.09
_exptl_crystal_colour            red
_cell_formula_units_Z            8
loop_
_atom_site_label
_atom_site_type_symbol
_atom_site_fract_x
_atom_site_fract_y
_atom_site_fract_z
C1 C 0.48763(18) 0.2498(5) -0.0544(2)
C2 C 0.5460(2) 0.2736(6) -0.0630(2)
C3 C 0.59527(18) 0.2836(5) 0.0119(2)
C4 C 0.58776(18) 0.2736(5) 0.0864(2)
C5 C 0.53213(19) 0.2556(5) 0.0974(2)
C6 C 0.52477(19) 0.2533(6) 0.1744(2)
H1 H 0.5566 0.2661 0.2218
C7 C 0.4726(2) 0.2328(5) 0.1837(2)
H2 H 0.4695 0.2301 0.2374
C8 C 0.42412(19) 0.2161(6) 0.1163(2)
C9 C 0.42990(19) 0.2203(6) 0.0385(2)
H3 H 0.3975 0.2089 -0.0083
C10 C 0.48247(18) 0.2411(5) 0.0278(2)
C11 C 0.65143(18) 0.2974(6) -0.0018(2)
H4 H 0.6803 0.2393 0.0455
H5 H 0.6603 0.4405 -0.0084
H6 H 0.6503 0.2213 -0.0514
C12 C 0.63794(19) 0.2825(6) 0.1625(2)
C13 C 0.66702(16) 0.4633(6) 0.1848(2)
H7 H 0.6549 0.5822 0.1526
C14 C 0.71368(17) 0.4716(7) 0.2539(2)
H8 H 0.7334 0.5964 0.2685
C15 C 0.73181(19) 0.3030(7) 0.3015(3)
H9 H 0.7637 0.3112 0.3492
C16 C 0.70391(19) 0.1228(7) 0.2804(3)
H10 H 0.7165 0.0045 0.3128
C17 C 0.65723(19) 0.1136(7) 0.2116(2)
H11 H 0.6378 -0.0121 0.1975
C18 C 0.36794(19) 0.1907(7) 0.1289(3)
H12 H 0.3385 0.1895 0.0756
H13 H 0.3615 0.3042 0.1619
H14 H 0.3672 0.0619 0.1575
O1 O 0.44682(13) 0.2391(4) -0.11717(15)
O2 O 0.55165(13) 0.2835(4) -0.13165(16)
C19 C 0.95348(18) 0.7416(6) 0.3952(2)
C20 C 1.01299(18) 0.7536(5) 0.4580(2)
C21 C 1.01672(18) 0.7549(5) 0.5457(2)
C22 C 1.06952(19) 0.7663(6) 0.6052(2)
H15 H 1.1020 0.7736 0.5883
C23 C 1.07542(18) 0.7671(6) 0.6887(2)
C24 C 1.02699(17) 0.7530(6) 0.7104(2)
H16 H 1.0300 0.7521 0.7670
C25 C 0.97379(19) 0.7402(6) 0.6523(2)
H17 H 0.9414 0.7296 0.6694
C26 C 0.96863(18) 0.7431(6) 0.5690(2)
C27 C 0.91181(17) 0.7336(5) 0.5063(2)
C28 C 0.90472(18) 0.7342(6) 0.4244(2)
C29 C 0.86159(17) 0.7202(6) 0.5356(2)
C30 C 0.84163(18) 0.8918(7) 0.5659(2)
H18 H 0.8606 1.0185 0.5703
C31 C 0.79376(18) 0.8756(7) 0.5896(3)
H19 H 0.7799 0.9925 0.6095
C32 C 0.76603(18) 0.6912(7) 0.5847(3)
H20 H 0.7333 0.6813 0.6010
C33 C 0.78699(18) 0.5185(7) 0.5551(3)
H21 H 0.7684 0.3913 0.5517
C34 C 0.83444(17) 0.5325(6) 0.5309(2)
H22 H 0.8485 0.4155 0.5113
C35 C 1.13165(18) 0.7812(7) 0.7532(3)
H23 H 1.1329 0.9032 0.7867
H24 H 1.1610 0.7895 0.7270
H25 H 1.1377 0.6600 0.7883
C36 C 0.84853(17) 0.7269(7) 0.3594(2)
H26 H 0.8189 0.7272 0.3853
H27 H 0.8458 0.6025 0.3268
H28 H 0.8443 0.8462 0.3236
O3 O 0.94922(14) 0.7370(4) 0.32251(15)
O4 O 1.05352(12) 0.7621(4) 0.43372(16)
loop_
_geom_bond_atom_site_label_1
_geom_bond_atom_site_label_2
_geom_bond_site_symmetry_1
_geom_bond_site_symmetry_2
C1 C2 1_555 1_555
C2 C3 1_555 1_555
C3 C4 1_555 1_555
C4 C5 1_555 1_555
C5 C6 1_555 1_555
C6 H1 1_555 1_555
C7 C6 1_555 1_555
H2 C7 1_555 1_555
C8 C7 1_555 1_555
C9 C8 1_555 1_555
H3 C9 1_555 1_555
C10 C1 1_555 1_555
C11 C3 1_555 1_555
H4 C11 1_555 1_555
H5 C11 1_555 1_555
H6 C11 1_555 1_555
C12 C4 1_555 1_555
C13 C12 1_555 1_555
H7 C13 1_555 1_555
C14 C13 1_555 1_555
H8 C14 1_555 1_555
C15 C14 1_555 1_555
H9 C15 1_555 1_555
C16 C15 1_555 1_555
H10 C16 1_555 1_555
C17 C12 1_555 1_555
H11 C17 1_555 1_555
C18 C8 1_555 1_555
H12 C18 1_555 1_555
H13 C18 1_555 1_555
H14 C18 1_555 1_555
O1 C1 1_555 1_555
O2 C2 1_555 1_555
C19 C20 1_555 1_555
C20 C21 1_555 1_555
C21 C22 1_555 1_555
C22 H15 1_555 1_555
C23 C22 1_555 1_555
C24 C23 1_555 1_555
H16 C24 1_555 1_555
C25 C24 1_555 1_555
H17 C25 1_555 1_555
C26 C21 1_555 1_555
C27 C26 1_555 1_555
C28 C19 1_555 1_555
C29 C27 1_555 1_555
C30 C29 1_555 1_555
H18 C30 1_555 1_555
C31 C30 1_555 1_555
H19 C31 1_555 1_555
C32 C31 1_555 1_555
H20 C32 1_555 1_555
C33 C32 1_555 1_555
H21 C33 1_555 1_555
C34 C29 1_555 1_555
H22 C34 1_555 1_555
C35 C23 1_555 1_555
H23 C35 1_555 1_555
H24 C35 1_555 1_555
H25 C35 1_555 1_555
C36 C28 1_555 1_555
H26 C36 1_555 1_555
H27 C36 1_555 1_555
H28 C36 1_555 1_555
O3 C19 1_555 1_555
O4 C20 1_555 1_555
C5 C10 1_555 1_555
C9 C10 1_555 1_555
C16 C17 1_555 1_555
C25 C26 1_555 1_555
C27 C28 1_555 1_555
C33 C34 1_555 1_555

#END
