
#######################################################################
#
#                 Cambridge Crystallographic Data Centre
#                                CCDC 
#
#######################################################################
#
# If this CIF has been generated from an entry in the Cambridge 
# Structural Database, then it will include bibliographic, chemical, 
# crystal, experimental, refinement or atomic coordinate data resulting 
# from the CCDC's data processing and validation procedures.
#
#######################################################################

data_GERRON
_chemical_formula_moiety         'C21 H19 N1 O5 S1'
_chemical_name_systematic        
"2-([1,1'-biphenyl]-4-yl)propyl 4-nitrobenzene-1-sulfonate"
_symmetry_cell_setting           monoclinic
_symmetry_space_group_name_H-M   'P 21'
_symmetry_Int_Tables_number      4
_space_group_name_Hall           'P 2yb'
loop_
_symmetry_equiv_pos_site_id
_symmetry_equiv_pos_as_xyz
1 x,y,z
2 -x,1/2+y,-z
_cell_length_a                   8.1689(4)
_cell_length_b                   8.7421(4)
_cell_length_c                   13.5756(8)
_cell_angle_alpha                90
_cell_angle_beta                 99.355(5)
_cell_angle_gamma                90
_cell_volume                     956.585
_exptl_crystal_colour            'light colorless'
_exptl_crystal_description       needle
_cell_formula_units_Z            2
loop_
_atom_site_label
_atom_site_type_symbol
_atom_site_fract_x
_atom_site_fract_y
_atom_site_fract_z
S1 S 0.28032(12) 0.36925(12) 0.46426(6)
O1 O 0.1399(3) 0.4672(4) 0.4032(2)
N1 N 0.7834(4) 0.2181(4) 0.2073(3)
O2 O 0.2062(6) 0.2266(5) 0.4796(4)
O3 O 0.7487(5) 0.1198(5) 0.1436(3)
C1 C 0.4898(4) 0.6398(4) 0.1436(2)
O4 O 0.3591(5) 0.4533(6) 0.5479(2)
C2 C 0.6233(4) 0.6187(4) 0.0813(2)
C3 C 0.5097(4) 0.7376(5) 0.2257(3)
H1 H 0.6098 0.7885 0.2446
C4 C 0.6380(4) 0.4820(4) 0.0305(3)
H2 H 0.5663 0.4015 0.0374
C5 C 0.6545(4) 0.2628(4) 0.2667(3)
C6 C 0.7585(4) 0.4646(5) -0.0303(3)
H3 H 0.7675 0.3723 -0.0631
C7 C 0.7329(4) 0.7359(4) 0.0686(3)
H4 H 0.7270 0.8277 0.1024
O5 O 0.9171(4) 0.2808(7) 0.2243(3)
C8 C 0.2298(5) 0.6843(5) 0.2552(3)
C9 C 0.3397(4) 0.5631(4) 0.1203(2)
H5 H 0.3240 0.4958 0.0665
C10 C 0.5780(5) 0.4048(5) 0.4013(3)
H6 H 0.6024 0.4751 0.4530
C11 C 0.1329(6) 0.6312(5) 0.4173(3)
H7 H 0.2393 0.6684 0.4510
H8 H 0.0495 0.6559 0.4581
C12 C 0.4249(4) 0.3373(4) 0.3817(2)
C13 C 0.3811(5) 0.7596(6) 0.2796(3)
H9 H 0.3964 0.8266 0.3335
C14 C 0.2118(4) 0.5848(5) 0.1756(3)
H10 H 0.1129 0.5312 0.1584
C15 C 0.6958(4) 0.3669(5) 0.3430(3)
H11 H 0.8009 0.4107 0.3551
C16 C 0.3833(4) 0.2359(5) 0.3034(3)
H12 H 0.2776 0.1933 0.2907
C17 C 0.8640(4) 0.5830(5) -0.0422(3)
H13 H 0.9442 0.5711 -0.0830
C18 C 0.8508(4) 0.7191(5) 0.0065(4)
H14 H 0.9210 0.8000 -0.0021
C19 C 0.4998(5) 0.1986(5) 0.2445(3)
H15 H 0.4741 0.1316 0.1910
C20 C 0.0894(5) 0.7068(6) 0.3147(3)
H16 H -0.0089 0.6549 0.2788
C21 C 0.0443(7) 0.8727(7) 0.3270(4)
H17 H 0.1351 0.9242 0.3673
H18 H -0.0522 0.8785 0.3588
H19 H 0.0212 0.9206 0.2626
loop_
_geom_bond_atom_site_label_1
_geom_bond_atom_site_label_2
_geom_bond_site_symmetry_1
_geom_bond_site_symmetry_2
S1 O1 1_555 1_555
O1 C11 1_555 1_555
N1 O3 1_555 1_555
O2 S1 1_555 1_555
C1 C2 1_555 1_555
O4 S1 1_555 1_555
C2 C4 1_555 1_555
C3 C1 1_555 1_555
H1 C3 1_555 1_555
C4 H2 1_555 1_555
C5 N1 1_555 1_555
C6 C4 1_555 1_555
H3 C6 1_555 1_555
C7 C2 1_555 1_555
H4 C7 1_555 1_555
O5 N1 1_555 1_555
C8 C13 1_555 1_555
C9 C1 1_555 1_555
H5 C9 1_555 1_555
C10 H6 1_555 1_555
C11 H7 1_555 1_555
H8 C11 1_555 1_555
C12 S1 1_555 1_555
C13 C3 1_555 1_555
H9 C13 1_555 1_555
C14 C8 1_555 1_555
H10 C14 1_555 1_555
C15 C5 1_555 1_555
H11 C15 1_555 1_555
C16 C12 1_555 1_555
H12 C16 1_555 1_555
C17 C6 1_555 1_555
H13 C17 1_555 1_555
C18 C7 1_555 1_555
H14 C18 1_555 1_555
C19 C5 1_555 1_555
H15 C19 1_555 1_555
C20 C8 1_555 1_555
H16 C20 1_555 1_555
C21 C20 1_555 1_555
H17 C21 1_555 1_555
H18 C21 1_555 1_555
H19 C21 1_555 1_555
C9 C14 1_555 1_555
C10 C12 1_555 1_555
C10 C15 1_555 1_555
C11 C20 1_555 1_555
C16 C19 1_555 1_555
C17 C18 1_555 1_555

#END
