
#######################################################################
#
#                 Cambridge Crystallographic Data Centre
#                                CCDC 
#
#######################################################################
#
# If this CIF has been generated from an entry in the Cambridge 
# Structural Database, then it will include bibliographic, chemical, 
# crystal, experimental, refinement or atomic coordinate data resulting 
# from the CCDC's data processing and validation procedures.
#
#######################################################################

data_GERVOR
_chemical_formula_moiety         'C33 H31 N1 O2'
_chemical_name_systematic        
N-((2-(4-methoxy-3,5-dimethylphenyl)-5-phenyl-3-furyl)(phenyl)methyl)-N-methylaniline
_symmetry_cell_setting           triclinic
_symmetry_space_group_name_H-M   'P -1'
_symmetry_Int_Tables_number      2
_space_group_name_Hall           '-P 1'
loop_
_symmetry_equiv_pos_site_id
_symmetry_equiv_pos_as_xyz
1 x,y,z
2 -x,-y,-z
_cell_length_a                   10.7817(16)
_cell_length_b                   11.1623(17)
_cell_length_c                   13.6795(15)
_cell_angle_alpha                87.158(11)
_cell_angle_beta                 67.585(12)
_cell_angle_gamma                62.927(15)
_cell_volume                     1339.71
_exptl_crystal_colour            colorless
_exptl_crystal_description       block
_cell_formula_units_Z            2
loop_
_atom_site_label
_atom_site_type_symbol
_atom_site_fract_x
_atom_site_fract_y
_atom_site_fract_z
O1 O 0.30076(16) 0.33651(15) 0.15251(11)
O2 O 0.80231(19) 0.1716(2) -0.32049(12)
N1 N 0.66773(19) -0.05667(18) 0.18016(15)
C1 C 0.5150(2) 0.3338(2) -0.05227(16)
H1 H 0.4349 0.4191 -0.0170
C2 C 0.6025(3) 0.3175(2) -0.16047(17)
C3 C 0.7222(2) 0.1887(2) -0.21161(16)
C4 C 0.7556(2) 0.0762(2) -0.15751(17)
C5 C 0.6654(2) 0.0973(2) -0.04924(17)
H2 H 0.6861 0.0241 -0.0115
C6 C 0.5455(2) 0.2237(2) 0.00485(16)
C7 C 0.4520(2) 0.2425(2) 0.11884(16)
C8 C 0.4800(2) 0.1873(2) 0.20423(16)
C9 C 0.3382(2) 0.2500(2) 0.29451(16)
H3 H 0.3211 0.2329 0.3645
C10 C 0.2323(2) 0.3392(2) 0.26011(16)
C11 C 0.0695(2) 0.4300(2) 0.31289(17)
C12 C -0.0042(3) 0.5391(3) 0.2666(2)
H4 H 0.0506 0.5543 0.2005
C13 C -0.1582(3) 0.6244(3) 0.3187(2)
H5 H -0.2067 0.6967 0.2871
C14 C -0.2403(3) 0.6046(3) 0.4158(2)
H6 H -0.3440 0.6636 0.4506
C15 C -0.1700(3) 0.4975(3) 0.4621(2)
H7 H -0.2263 0.4832 0.5281
C16 C -0.0162(3) 0.4108(3) 0.4113(2)
H8 H 0.0306 0.3384 0.4436
C17 C 0.8788(3) -0.0633(3) -0.2147(2)
H9 H 0.9763 -0.0699 -0.2292
H10 H 0.8733 -0.0795 -0.2809
H11 H 0.8657 -0.1300 -0.1707
C18 C 0.9404(4) 0.1769(5) -0.3523(3)
H12 H 0.9900 0.1608 -0.4290
H13 H 1.0053 0.1084 -0.3236
H14 H 0.9197 0.2650 -0.3260
C19 C 0.5664(4) 0.4373(3) -0.2210(2)
H15 H 0.6569 0.4454 -0.2592
H16 H 0.4901 0.5190 -0.1714
H17 H 0.5293 0.4234 -0.2707
C20 C 0.6339(2) 0.0850(2) 0.20225(16)
H18 H 0.7102 0.0987 0.1424
C21 C 0.6495(2) 0.1153(2) 0.30271(16)
C22 C 0.6674(3) 0.2271(3) 0.3158(2)
H19 H 0.6695 0.2829 0.2630
C23 C 0.6824(4) 0.2580(4) 0.4059(3)
H20 H 0.6938 0.3343 0.4133
C24 C 0.6808(4) 0.1772(5) 0.4838(3)
H21 H 0.6911 0.1977 0.5445
C25 C 0.6639(4) 0.0673(4) 0.4718(2)
H22 H 0.6629 0.0119 0.5249
C26 C 0.6479(3) 0.0345(3) 0.38232(19)
H23 H 0.6362 -0.0420 0.3760
C27 C 0.5436(3) -0.0867(3) 0.2043(2)
H24 H 0.4585 -0.0264 0.2668
H25 H 0.5750 -0.1791 0.2174
H26 H 0.5146 -0.0745 0.1449
C28 C 0.8114(2) -0.1483(2) 0.10668(17)
C29 C 0.8336(3) -0.2562(2) 0.0420(2)
H27 H 0.7507 -0.2673 0.0479
C30 C 0.9764(4) -0.3449(3) -0.0298(2)
H28 H 0.9885 -0.4149 -0.0727
C31 C 1.1019(4) -0.3336(3) -0.0404(3)
H29 H 1.1982 -0.3953 -0.0892
C32 C 1.0827(3) -0.2302(3) 0.0222(2)
H30 H 1.1673 -0.2218 0.0161
C33 C 0.9400(3) -0.1375(3) 0.09473(19)
H31 H 0.9297 -0.0671 0.1360
loop_
_geom_bond_atom_site_label_1
_geom_bond_atom_site_label_2
_geom_bond_site_symmetry_1
_geom_bond_site_symmetry_2
O1 C7 1_555 1_555
O2 C3 1_555 1_555
N1 C20 1_555 1_555
C1 H1 1_555 1_555
C2 C1 1_555 1_555
C3 C2 1_555 1_555
C4 C3 1_555 1_555
C5 C4 1_555 1_555
H2 C5 1_555 1_555
C6 C1 1_555 1_555
C7 C6 1_555 1_555
C8 C7 1_555 1_555
C9 C8 1_555 1_555
H3 C9 1_555 1_555
C10 O1 1_555 1_555
C11 C10 1_555 1_555
C12 C11 1_555 1_555
H4 C12 1_555 1_555
C13 C12 1_555 1_555
H5 C13 1_555 1_555
C14 C13 1_555 1_555
H6 C14 1_555 1_555
C15 C14 1_555 1_555
H7 C15 1_555 1_555
C16 C11 1_555 1_555
H8 C16 1_555 1_555
C17 C4 1_555 1_555
H9 C17 1_555 1_555
H10 C17 1_555 1_555
H11 C17 1_555 1_555
C18 O2 1_555 1_555
H12 C18 1_555 1_555
H13 C18 1_555 1_555
H14 C18 1_555 1_555
C19 C2 1_555 1_555
H15 C19 1_555 1_555
H16 C19 1_555 1_555
H17 C19 1_555 1_555
C20 C8 1_555 1_555
H18 C20 1_555 1_555
C21 C20 1_555 1_555
C22 C21 1_555 1_555
H19 C22 1_555 1_555
C23 C22 1_555 1_555
H20 C23 1_555 1_555
C24 C23 1_555 1_555
H21 C24 1_555 1_555
C25 C24 1_555 1_555
H22 C25 1_555 1_555
C26 C21 1_555 1_555
H23 C26 1_555 1_555
C27 N1 1_555 1_555
H24 C27 1_555 1_555
H25 C27 1_555 1_555
H26 C27 1_555 1_555
C28 N1 1_555 1_555
C29 C28 1_555 1_555
H27 C29 1_555 1_555
C30 C29 1_555 1_555
H28 C30 1_555 1_555
C31 C30 1_555 1_555
H29 C31 1_555 1_555
C32 C31 1_555 1_555
H30 C32 1_555 1_555
C33 C28 1_555 1_555
H31 C33 1_555 1_555
C5 C6 1_555 1_555
C9 C10 1_555 1_555
C15 C16 1_555 1_555
C25 C26 1_555 1_555
C32 C33 1_555 1_555

#END
