
#######################################################################
#
#                 Cambridge Crystallographic Data Centre
#                                CCDC 
#
#######################################################################
#
# If this CIF has been generated from an entry in the Cambridge 
# Structural Database, then it will include bibliographic, chemical, 
# crystal, experimental, refinement or atomic coordinate data resulting 
# from the CCDC's data processing and validation procedures.
#
#######################################################################

data_GERZIP
_chemical_formula_moiety         'C50 H60 B2 N2 O8,2(C1 H2 Cl2)'
_chemical_name_systematic        
'2,7-bis(2,6-di-isopropylphenyl)-4,9-bis(4,4,5,5-tetramethyl-1,3,2-dioxaborolan-2-yl)benzo[lmn][3,8]phenanthroline-1,3,6,8(2H,7H)-tetrone dichloromethane solvate'
_symmetry_cell_setting           triclinic
_symmetry_space_group_name_H-M   'P -1'
_symmetry_Int_Tables_number      2
_space_group_name_Hall           '-P 1'
loop_
_symmetry_equiv_pos_site_id
_symmetry_equiv_pos_as_xyz
1 x,y,z
2 -x,-y,-z
_cell_length_a                   13.3495(2)
_cell_length_b                   14.8811(3)
_cell_length_c                   16.3148(3)
_cell_angle_alpha                112.0070(16)
_cell_angle_beta                 99.5805(15)
_cell_angle_gamma                109.8265(16)
_cell_volume                     2661.86
_exptl_crystal_colour            colorless
_exptl_crystal_description       block
_cell_formula_units_Z            2
loop_
_atom_site_label
_atom_site_type_symbol
_atom_site_fract_x
_atom_site_fract_y
_atom_site_fract_z
Cl1 Cl 0.70107(9) 0.96234(9) 0.87568(7)
Cl2 Cl 0.75341(9) 0.81492(9) 0.73237(8)
C1 C 0.7312(3) 0.9316(3) 0.7707(2)
H1 H 0.798301 0.992059 0.779829
H2 H 0.668879 0.921337 0.722413
Cl3 Cl 0.45296(14) 0.33809(11) 0.13622(12)
Cl4 Cl 0.34789(8) 0.14037(9) -0.04087(7)
C2 C 0.3251(3) 0.2398(3) 0.0436(3)
H3 H 0.271181 0.206216 0.068569
H4 H 0.293264 0.274348 0.014090
O1 O 0.66882(15) 0.54462(13) 0.31325(12)
O2 O 0.53341(16) 0.77457(13) 0.46970(13)
O3 O 0.31873(15) 0.74102(14) 0.52170(12)
O4 O 0.47520(16) 0.85053(13) 0.65274(12)
N1 N 0.59891(14) 0.65829(13) 0.38990(12)
C3 C 0.65230(18) 0.73094(16) 0.35381(15)
C4 C 0.5937(2) 0.71421(19) 0.26614(16)
C5 C 0.6487(3) 0.7851(2) 0.2338(2)
H7 H 0.612840 0.776177 0.175398
C6 C 0.7551(3) 0.8680(2) 0.2871(2)
H8 H 0.790064 0.914527 0.264382
C7 C 0.8105(2) 0.8829(2) 0.3737(2)
H9 H 0.882383 0.939519 0.408693
C8 C 0.7604(2) 0.81413(18) 0.40995(17)
C9 C 0.8222(2) 0.8319(2) 0.50535(18)
H10 H 0.771584 0.778625 0.519313
C10 C 0.8503(3) 0.9442(2) 0.5816(2)
H11 H 0.898957 0.998067 0.569001
H12 H 0.887737 0.953267 0.641699
H13 H 0.781694 0.951779 0.581963
C11 C 0.9286(2) 0.8142(2) 0.5056(2)
H14 H 0.907905 0.741357 0.460929
H15 H 0.966639 0.827100 0.567142
H16 H 0.978130 0.863209 0.489052
C12 C 0.4744(2) 0.6261(2) 0.20899(17)
H17 H 0.459480 0.573677 0.233373
C13 C 0.3892(3) 0.6733(3) 0.2212(2)
H18 H 0.398366 0.708240 0.286634
H19 H 0.313843 0.616353 0.187155
H20 H 0.401935 0.724836 0.197590
C14 C 0.4583(3) 0.5663(3) 0.1051(2)
H21 H 0.459389 0.612780 0.076938
H22 H 0.387043 0.503136 0.074139
H23 H 0.518350 0.545491 0.098765
C15 C 0.61781(17) 0.56555(16) 0.36659(14)
C16 C 0.54339(17) 0.69156(16) 0.45188(14)
C17 C 0.50027(16) 0.62388(15) 0.49695(13)
C18 C 0.51876(15) 0.53102(14) 0.47713(13)
C19 C 0.44474(16) 0.65470(15) 0.55895(14)
C20 C 0.40891(17) 0.59212(16) 0.60511(14)
H24 H 0.373008 0.612601 0.648088
C21 C 0.42624(16) 0.50131(15) 0.58753(13)
C22 C 0.3065(2) 0.8391(2) 0.5680(2)
C23 C 0.4193(3) 0.9181(2) 0.64680(17)
C24 C 0.4285(5) 0.9928(4) 0.7440(3)
H25 H 0.389240 0.950846 0.771088
H26 H 0.395358 1.039653 0.739870
H27 H 0.506686 1.035145 0.782639
C25 C 0.4996(4) 0.9902(4) 0.6139(4)
H28 H 0.574819 1.027968 0.658632
H29 H 0.473475 1.041284 0.609239
H30 H 0.500063 0.945589 0.553714
C26 C 0.2619(5) 0.8748(4) 0.5022(3)
H31 H 0.309918 0.883899 0.465272
H32 H 0.260324 0.942178 0.537350
H33 H 0.186722 0.821433 0.461423
C27 C 0.2169(4) 0.8038(5) 0.6135(4)
H34 H 0.149557 0.742955 0.565622
H35 H 0.199191 0.862425 0.644458
H36 H 0.246567 0.784186 0.658412
B1 B 0.4152(2) 0.75313(18) 0.57586(16)
O1A O 0.33118(15) 0.45538(13) 0.68675(12)
O2A O 0.46659(16) 0.22543(13) 0.53030(13)
O3A O 0.68127(15) 0.25898(14) 0.47830(12)
O4A O 0.52480(16) 0.14947(13) 0.34726(12)
N1A N 0.40109(14) 0.34171(13) 0.61010(12)
C3A C 0.34770(18) 0.26906(16) 0.64619(15)
C4A C 0.4063(2) 0.28579(19) 0.73386(16)
C5A C 0.3513(3) 0.2149(2) 0.7662(2)
H7A H 0.387160 0.223823 0.824602
C6A C 0.2449(3) 0.1320(2) 0.7129(2)
H8A H 0.209936 0.085473 0.735618
C7A C 0.1895(2) 0.1171(2) 0.6263(2)
H9A H 0.117617 0.060481 0.591307
C8A C 0.2396(2) 0.18587(18) 0.59005(17)
C9A C 0.1778(2) 0.1681(2) 0.49465(18)
H10A H 0.228416 0.221375 0.480687
C10A C 0.1497(3) 0.0558(2) 0.4184(2)
H11A H 0.101043 0.001933 0.430999
H12A H 0.112263 0.046733 0.358301
H13A H 0.218306 0.048221 0.418037
C11A C 0.0714(2) 0.1858(2) 0.4944(2)
H14A H 0.092095 0.258643 0.539071
H15A H 0.033361 0.172900 0.432858
H16A H 0.021870 0.136791 0.510948
C12A C 0.5256(2) 0.3739(2) 0.79101(17)
H17A H 0.540520 0.426323 0.766627
C13A C 0.6108(3) 0.3267(3) 0.7788(2)
H18A H 0.601634 0.291760 0.713366
H19A H 0.686157 0.383647 0.812845
H20A H 0.598065 0.275164 0.802410
C14A C 0.5417(3) 0.4337(3) 0.8949(2)
H21A H 0.540611 0.387220 0.923062
H22A H 0.612957 0.496864 0.925861
H23A H 0.481650 0.454509 0.901235
C15A C 0.38219(17) 0.43445(16) 0.63341(14)
C16A C 0.45661(17) 0.30844(16) 0.54812(14)
C17A C 0.49973(16) 0.37612(15) 0.50305(13)
C18A C 0.48124(15) 0.46898(14) 0.52287(13)
C19A C 0.55526(16) 0.34530(15) 0.44105(14)
C20A C 0.59109(17) 0.40788(16) 0.39489(14)
H24A H 0.626992 0.387399 0.351912
C21A C 0.57376(16) 0.49869(15) 0.41247(13)
C22A C 0.6935(2) 0.1609(2) 0.4320(2)
C23A C 0.5807(3) 0.0819(2) 0.35320(17)
C24A C 0.5715(5) 0.0072(4) 0.2560(3)
H25A H 0.610760 0.049154 0.228912
H26A H 0.604642 -0.039653 0.260130
H27A H 0.493314 -0.035145 0.217361
C25A C 0.5004(4) 0.0098(4) 0.3861(4)
H28A H 0.425181 -0.027968 0.341368
H29A H 0.526525 -0.041284 0.390761
H30A H 0.499937 0.054411 0.446286
C26A C 0.7381(5) 0.1252(4) 0.4978(3)
H31A H 0.690082 0.116101 0.534728
H32A H 0.739676 0.057822 0.462650
H33A H 0.813278 0.178567 0.538577
C27A C 0.7831(4) 0.1962(5) 0.3865(4)
H34A H 0.850443 0.257045 0.434378
H35A H 0.800809 0.137575 0.355542
H36A H 0.753433 0.215814 0.341588
B1A B 0.5848(2) 0.24687(18) 0.42414(16)
O5 O 0.09664(18) 0.87018(15) 0.76800(12)
O6 O 0.01009(16) 0.70659(13) 0.95002(12)
O7 O 0.04919(14) 0.78520(13) 1.15971(12)
O8 O -0.14084(13) 0.69653(12) 1.07726(11)
N2 N 0.05657(15) 0.78922(14) 0.86011(12)
C32 C 0.07868(19) 0.70135(16) 0.80163(14)
C33 C -0.0081(2) 0.61798(19) 0.71945(17)
C34 C 0.0159(3) 0.5359(2) 0.66354(18)
H49 H -0.040007 0.478559 0.608304
C35 C 0.1212(3) 0.5386(2) 0.6890(2)
H50 H 0.136074 0.484139 0.650057
C36 C 0.2042(2) 0.6210(2) 0.7713(2)
H51 H 0.274351 0.621088 0.787960
C37 C 0.1847(2) 0.70479(18) 0.83039(17)
C38 C 0.2758(3) 0.7926(2) 0.9230(2)
H52 H 0.245398 0.843105 0.952411
C39 C 0.3031(3) 0.7510(3) 0.9898(3)
H53 H 0.236739 0.719337 1.003656
H54 H 0.361575 0.809481 1.046800
H55 H 0.328694 0.697517 0.961973
C40 C 0.3809(4) 0.8559(4) 0.9116(4)
H56 H 0.410000 0.808181 0.878003
H57 H 0.436258 0.908325 0.972272
H58 H 0.364268 0.892026 0.877068
C41 C -0.1248(3) 0.6137(3) 0.6923(2)
H59 H -0.120337 0.683166 0.734832
C42 C -0.2116(3) 0.5257(3) 0.7045(3)
H60 H -0.221524 0.456187 0.660437
H61 H -0.282511 0.529675 0.693479
H62 H -0.185249 0.535878 0.767231
C43 C -0.1618(4) 0.5982(4) 0.5927(3)
H63 H -0.106830 0.655170 0.587184
H64 H -0.233764 0.599834 0.578635
H65 H -0.168241 0.529979 0.549364
C44 C 0.06822(19) 0.87183(17) 0.83491(15)
C45 C 0.04291(18) 0.95958(16) 0.89410(14)
C46 C 0.01117(17) 0.95775(16) 0.97192(14)
C47 C 0.00083(17) 0.87309(16) 0.99467(14)
C48 C 0.02219(18) 0.78285(17) 0.93473(15)
C49 C 0.05111(18) 1.04263(17) 0.87313(15)
H66 H 0.071406 1.042368 0.821237
C50 C -0.02948(18) 0.87164(16) 1.07155(14)
C51 C -0.1174(2) 0.62595(17) 1.11352(16)
C52 C 0.0033(2) 0.70223(18) 1.18863(16)
C53 C 0.0002(3) 0.7600(2) 1.28610(19)
H67 H 0.075018 0.813727 1.327408
H68 H -0.027389 0.708898 1.308966
H69 H -0.049036 0.794032 1.283733
C54 C 0.0825(3) 0.6499(2) 1.1917(2)
H70 H 0.094426 0.624525 1.132430
H71 H 0.049589 0.590151 1.204036
H72 H 0.153516 0.701734 1.240565
C55 C -0.2108(2) 0.5853(2) 1.1504(2)
H73 H -0.214976 0.645506 1.196953
H74 H -0.195014 0.542678 1.178004
H75 H -0.281619 0.541780 1.099597
C56 C -0.1194(2) 0.53283(19) 1.02990(18)
H76 H -0.191604 0.496608 0.981236
H77 H -0.107028 0.482895 1.049280
H78 H -0.060930 0.560392 1.006573
B2 B -0.0394(2) 0.77860(19) 1.09918(17)
O5A O -0.09664(18) 1.12982(15) 1.23200(12)
O6A O -0.01009(16) 1.29341(13) 1.04998(12)
O7A O -0.04919(14) 1.21480(13) 0.84029(12)
O8A O 0.14084(13) 1.30347(12) 0.92274(11)
N2A N -0.05657(15) 1.21078(14) 1.13989(12)
C32A C -0.07868(19) 1.29865(16) 1.19837(14)
C33A C 0.0081(2) 1.38202(19) 1.28055(17)
C34A C -0.0159(3) 1.4641(2) 1.33646(18)
H49A H 0.040007 1.521441 1.391696
C35A C -0.1212(3) 1.4614(2) 1.3110(2)
H50A H -0.136074 1.515861 1.349943
C36A C -0.2042(2) 1.3790(2) 1.2287(2)
H51A H -0.274351 1.378912 1.212040
C37A C -0.1847(2) 1.29521(18) 1.16961(17)
C38A C -0.2758(3) 1.2074(2) 1.0770(2)
H52A H -0.245398 1.156895 1.047589
C39A C -0.3031(3) 1.2490(3) 1.0102(3)
H53A H -0.236739 1.280663 0.996344
H54A H -0.361575 1.190519 0.953200
H55A H -0.328694 1.302483 1.038027
C40A C -0.3809(4) 1.1441(4) 1.0884(4)
H56A H -0.410000 1.191819 1.121997
H57A H -0.436258 1.091675 1.027728
H58A H -0.364268 1.107974 1.122932
C41A C 0.1248(3) 1.3863(3) 1.3077(2)
H59A H 0.120337 1.316834 1.265168
C42A C 0.2116(3) 1.4743(3) 1.2955(3)
H60A H 0.221524 1.543813 1.339563
H61A H 0.282511 1.470325 1.306521
H62A H 0.185249 1.464122 1.232769
C43A C 0.1618(4) 1.4018(4) 1.4073(3)
H63A H 0.106830 1.344830 1.412816
H64A H 0.233764 1.400166 1.421365
H65A H 0.168241 1.470021 1.450636
C44A C -0.06822(19) 1.12817(17) 1.16509(15)
C45A C -0.04291(18) 1.04042(16) 1.10590(14)
C46A C -0.01117(17) 1.04225(16) 1.02808(14)
C47A C -0.00083(17) 1.12691(16) 1.00533(14)
C48A C -0.02219(18) 1.21715(17) 1.06527(15)
C49A C -0.05111(18) 0.95737(17) 1.12687(15)
H66A H -0.071406 0.957632 1.178763
C50A C 0.02948(18) 1.12836(16) 0.92845(14)
C51A C 0.1174(2) 1.37405(17) 0.88648(16)
C52A C -0.0033(2) 1.29777(18) 0.81137(16)
C53A C -0.0002(3) 1.2400(2) 0.71390(19)
H67A H -0.075018 1.186273 0.672592
H68A H 0.027389 1.291102 0.691034
H69A H 0.049036 1.205968 0.716267
C54A C -0.0825(3) 1.3501(2) 0.8083(2)
H70A H -0.094426 1.375475 0.867570
H71A H -0.049589 1.409849 0.795964
H72A H -0.153516 1.298266 0.759435
C55A C 0.2108(2) 1.4147(2) 0.8496(2)
H73A H 0.214976 1.354494 0.803047
H74A H 0.195014 1.457322 0.821996
H75A H 0.281619 1.458220 0.900403
C56A C 0.1194(2) 1.46717(19) 0.97010(18)
H76A H 0.191604 1.503392 1.018764
H77A H 0.107028 1.517105 0.950720
H78A H 0.060930 1.439608 0.993427
B2A B 0.0394(2) 1.22140(19) 0.90082(17)
H5? H 0.253128 0.201544 0.048382
H6? H 0.312794 0.283490 0.014971
Cl5? Cl 0.4157(13) 0.3325(11) 0.1605(6)
C28? C 0.1860(5) 0.8238(10) 0.5545(9)
H37? H 0.145212 0.792139 0.488736
H38? H 0.185837 0.892525 0.586857
H39? H 0.150516 0.777132 0.579229
C29? C 0.3245(14) 0.8684(12) 0.4876(8)
H40? H 0.394381 0.869087 0.479491
H41? H 0.327275 0.938322 0.503438
H42? H 0.263069 0.815645 0.430230
C30? C 0.3744(9) 0.9297(10) 0.7303(6)
H43? H 0.320335 0.860100 0.717919
H44? H 0.338775 0.977122 0.737805
H45? H 0.436237 0.958926 0.786689
C31? C 0.4887(10) 1.0326(6) 0.6668(10)
H46? H 0.527414 1.076945 0.733197
H47? H 0.439782 1.059710 0.645181
H48? H 0.542993 1.034083 0.634872
loop_
_geom_bond_atom_site_label_1
_geom_bond_atom_site_label_2
_geom_bond_site_symmetry_1
_geom_bond_site_symmetry_2
Cl1 C1 1_555 1_555
Cl2 C1 1_555 1_555
C1 H1 1_555 1_555
H2 C1 1_555 1_555
Cl3 C2 1_555 1_555
Cl4 C2 1_555 1_555
C2 H3 1_555 1_555
H4 C2 1_555 1_555
O1 C15 1_555 1_555
O2 C16 1_555 1_555
O3 C22 1_555 1_555
O4 C23 1_555 1_555
N1 C3 1_555 1_555
C3 C4 1_555 1_555
C4 C5 1_555 1_555
C5 H7 1_555 1_555
C6 C5 1_555 1_555
H8 C6 1_555 1_555
C7 C6 1_555 1_555
H9 C7 1_555 1_555
C8 C3 1_555 1_555
C9 C8 1_555 1_555
H10 C9 1_555 1_555
C10 C9 1_555 1_555
H11 C10 1_555 1_555
H12 C10 1_555 1_555
H13 C10 1_555 1_555
C11 C9 1_555 1_555
H14 C11 1_555 1_555
H15 C11 1_555 1_555
H16 C11 1_555 1_555
C12 C4 1_555 1_555
H17 C12 1_555 1_555
C13 C12 1_555 1_555
H18 C13 1_555 1_555
H19 C13 1_555 1_555
H20 C13 1_555 1_555
C14 C12 1_555 1_555
H21 C14 1_555 1_555
H22 C14 1_555 1_555
H23 C14 1_555 1_555
C15 N1 1_555 1_555
C16 N1 1_555 1_555
C17 C16 1_555 1_555
C18 C17 1_555 1_555
C19 C17 1_555 1_555
C20 C19 1_555 1_555
H24 C20 1_555 1_555
C21 C20 1_555 1_555
C22 C23 1_555 1_555
C23 C24 1_555 1_555
C24 H25 1_555 1_555
H26 C24 1_555 1_555
H27 C24 1_555 1_555
C25 C23 1_555 1_555
H28 C25 1_555 1_555
H29 C25 1_555 1_555
H30 C25 1_555 1_555
C26 C22 1_555 1_555
H31 C26 1_555 1_555
H32 C26 1_555 1_555
H33 C26 1_555 1_555
C27 C22 1_555 1_555
H34 C27 1_555 1_555
H35 C27 1_555 1_555
H36 C27 1_555 1_555
B1 O3 1_555 1_555
O5 C44 1_555 1_555
O6 C48 1_555 1_555
O7 C52 1_555 1_555
O8 C51 1_555 1_555
N2 C32 1_555 1_555
C32 C33 1_555 1_555
C33 C34 1_555 1_555
C34 H49 1_555 1_555
C35 C34 1_555 1_555
H50 C35 1_555 1_555
C36 C35 1_555 1_555
H51 C36 1_555 1_555
C37 C32 1_555 1_555
C38 C37 1_555 1_555
H52 C38 1_555 1_555
C39 C38 1_555 1_555
H53 C39 1_555 1_555
H54 C39 1_555 1_555
H55 C39 1_555 1_555
C40 C38 1_555 1_555
H56 C40 1_555 1_555
H57 C40 1_555 1_555
H58 C40 1_555 1_555
C41 C33 1_555 1_555
H59 C41 1_555 1_555
C42 C41 1_555 1_555
H60 C42 1_555 1_555
H61 C42 1_555 1_555
H62 C42 1_555 1_555
C43 C41 1_555 1_555
H63 C43 1_555 1_555
H64 C43 1_555 1_555
H65 C43 1_555 1_555
C44 N2 1_555 1_555
C45 C44 1_555 1_555
C46 C45 1_555 1_555
C47 C46 1_555 1_555
C48 N2 1_555 1_555
C49 C45 1_555 1_555
H66 C49 1_555 1_555
C50 C47 1_555 1_555
C51 C52 1_555 1_555
C52 C53 1_555 1_555
C53 H67 1_555 1_555
H68 C53 1_555 1_555
H69 C53 1_555 1_555
C54 C52 1_555 1_555
H70 C54 1_555 1_555
H71 C54 1_555 1_555
H72 C54 1_555 1_555
C55 C51 1_555 1_555
H73 C55 1_555 1_555
H74 C55 1_555 1_555
H75 C55 1_555 1_555
C56 C51 1_555 1_555
H76 C56 1_555 1_555
H77 C56 1_555 1_555
H78 C56 1_555 1_555
B2 O7 1_555 1_555
O1A C15A 1_555 1_555
O2A C16A 1_555 1_555
O3A C22A 1_555 1_555
O4A C23A 1_555 1_555
N1A C3A 1_555 1_555
C3A C4A 1_555 1_555
C4A C5A 1_555 1_555
C5A H7A 1_555 1_555
C6A C5A 1_555 1_555
H8A C6A 1_555 1_555
C7A C6A 1_555 1_555
H9A C7A 1_555 1_555
C8A C3A 1_555 1_555
C9A C8A 1_555 1_555
H10A C9A 1_555 1_555
C10A C9A 1_555 1_555
H11A C10A 1_555 1_555
H12A C10A 1_555 1_555
H13A C10A 1_555 1_555
C11A C9A 1_555 1_555
H14A C11A 1_555 1_555
H15A C11A 1_555 1_555
H16A C11A 1_555 1_555
C12A C4A 1_555 1_555
H17A C12A 1_555 1_555
C13A C12A 1_555 1_555
H18A C13A 1_555 1_555
H19A C13A 1_555 1_555
H20A C13A 1_555 1_555
C14A C12A 1_555 1_555
H21A C14A 1_555 1_555
H22A C14A 1_555 1_555
H23A C14A 1_555 1_555
C15A C21 1_555 1_555
C16A N1A 1_555 1_555
C17A C16A 1_555 1_555
C18A C18 1_555 1_555
C19A C17A 1_555 1_555
C20A C19A 1_555 1_555
H24A C20A 1_555 1_555
C21A C15 1_555 1_555
C22A C23A 1_555 1_555
C23A C24A 1_555 1_555
C24A H25A 1_555 1_555
H26A C24A 1_555 1_555
H27A C24A 1_555 1_555
C25A C23A 1_555 1_555
H28A C25A 1_555 1_555
H29A C25A 1_555 1_555
H30A C25A 1_555 1_555
C26A C22A 1_555 1_555
H31A C26A 1_555 1_555
H32A C26A 1_555 1_555
H33A C26A 1_555 1_555
C27A C22A 1_555 1_555
H34A C27A 1_555 1_555
H35A C27A 1_555 1_555
H36A C27A 1_555 1_555
B1A O3A 1_555 1_555
O5A C44A 1_555 1_555
O6A C48A 1_555 1_555
O7A C52A 1_555 1_555
O8A C51A 1_555 1_555
N2A C32A 1_555 1_555
C32A C33A 1_555 1_555
C33A C34A 1_555 1_555
C34A H49A 1_555 1_555
C35A C34A 1_555 1_555
H50A C35A 1_555 1_555
C36A C35A 1_555 1_555
H51A C36A 1_555 1_555
C37A C32A 1_555 1_555
C38A C37A 1_555 1_555
H52A C38A 1_555 1_555
C39A C38A 1_555 1_555
H53A C39A 1_555 1_555
H54A C39A 1_555 1_555
H55A C39A 1_555 1_555
C40A C38A 1_555 1_555
H56A C40A 1_555 1_555
H57A C40A 1_555 1_555
H58A C40A 1_555 1_555
C41A C33A 1_555 1_555
H59A C41A 1_555 1_555
C42A C41A 1_555 1_555
H60A C42A 1_555 1_555
H61A C42A 1_555 1_555
H62A C42A 1_555 1_555
C43A C41A 1_555 1_555
H63A C43A 1_555 1_555
H64A C43A 1_555 1_555
H65A C43A 1_555 1_555
C44A N2A 1_555 1_555
C45A C44A 1_555 1_555
C46A C46 1_555 1_555
C47A C46A 1_555 1_555
C48A N2A 1_555 1_555
C49A C50 1_555 1_555
H66A C49A 1_555 1_555
C50A C49 1_555 1_555
C51A C52A 1_555 1_555
C52A C53A 1_555 1_555
C53A H67A 1_555 1_555
H68A C53A 1_555 1_555
H69A C53A 1_555 1_555
C54A C52A 1_555 1_555
H70A C54A 1_555 1_555
H71A C54A 1_555 1_555
H72A C54A 1_555 1_555
C55A C51A 1_555 1_555
H73A C55A 1_555 1_555
H74A C55A 1_555 1_555
H75A C55A 1_555 1_555
C56A C51A 1_555 1_555
H76A C56A 1_555 1_555
H77A C56A 1_555 1_555
H78A C56A 1_555 1_555
B2A O7A 1_555 1_555
O4 B1 1_555 1_555
C7 C8 1_555 1_555
C18 C21A 1_555 1_555
C19 B1 1_555 1_555
C21 C18A 1_555 1_555
O8 B2 1_555 1_555
C36 C37 1_555 1_555
C47 C48 1_555 1_555
C50 B2 1_555 1_555
O4A B1A 1_555 1_555
N1A C15A 1_555 1_555
C7A C8A 1_555 1_555
C17A C18A 1_555 1_555
C19A B1A 1_555 1_555
C20A C21A 1_555 1_555
O8A B2A 1_555 1_555
C36A C37A 1_555 1_555
C45A C46A 1_555 1_555
C45A C49A 1_555 1_555
C47A C48A 1_555 1_555
C47A C50A 1_555 1_555
C50A B2A 1_555 1_555

#END
