
#######################################################################
#
#                 Cambridge Crystallographic Data Centre
#                                CCDC 
#
#######################################################################
#
# If this CIF has been generated from an entry in the Cambridge 
# Structural Database, then it will include bibliographic, chemical, 
# crystal, experimental, refinement or atomic coordinate data resulting 
# from the CCDC's data processing and validation procedures.
#
#######################################################################

data_GERZOV
_chemical_formula_moiety         'C50 H42 Br2 N2 O4,C1 H2 Cl2'
_chemical_name_systematic        
'12,13-dibromo-2,7-bis(2,6-di-isopropylphenyl)benzo[lmn]phenanthro[9,10-f][3,8]phenanthroline-1,3,6,8(2H,7H)-tetrone dichloromethane solvate'
_symmetry_cell_setting           monoclinic
_symmetry_space_group_name_H-M   'P 21/n'
_symmetry_Int_Tables_number      14
_space_group_name_Hall           '-P 2yn'
loop_
_symmetry_equiv_pos_site_id
_symmetry_equiv_pos_as_xyz
1 x,y,z
2 1/2-x,1/2+y,1/2-z
3 -x,-y,-z
4 1/2+x,1/2-y,1/2+z
_cell_length_a                   10.972(6)
_cell_length_b                   29.772(15)
_cell_length_c                   15.035(9)
_cell_angle_alpha                90
_cell_angle_beta                 102.521(7)
_cell_angle_gamma                90
_cell_volume                     4794.5
_exptl_crystal_colour            orange
_exptl_crystal_description       plate
_cell_formula_units_Z            4
loop_
_atom_site_label
_atom_site_type_symbol
_atom_site_fract_x
_atom_site_fract_y
_atom_site_fract_z
Br1 Br 0.98025(8) 0.57617(3) 0.49696(6)
Br2 Br 0.70496(9) 0.61311(3) 0.53498(7)
O1 O 0.6682(7) 0.3140(2) 0.8773(4)
O2 O 0.7347(5) 0.46065(18) 0.8168(4)
O3 O 0.5691(8) 0.2620(2) 0.4084(4)
O4 O 0.7080(5) 0.40054(19) 0.3515(4)
N1 N 0.7062(6) 0.3872(2) 0.8473(4)
N2 N 0.6338(6) 0.3326(2) 0.3795(4)
C1 C 0.7030(8) 0.3998(2) 0.9415(5)
C2 C 0.8125(8) 0.3989(3) 1.0076(5)
C3 C 0.8071(9) 0.4092(3) 1.0978(6)
H1 H 0.8797 0.4088 1.1432
C4 C 0.6931(10) 0.4200(3) 1.1197(6)
H2 H 0.6889 0.4258 1.1797
C5 C 0.5849(9) 0.4220(3) 1.0498(7)
H3 H 0.5098 0.4303 1.0643
C6 C 0.5862(8) 0.4117(3) 0.9583(5)
C7 C 0.9411(8) 0.3878(3) 0.9862(7)
H4 H 0.9264 0.3833 0.9201
C8 C 1.0308(12) 0.4275(5) 1.0081(11)
H5 H 0.9967 0.4529 0.9719
H6 H 1.1097 0.4196 0.9947
H7 H 1.0424 0.4349 1.0715
C9 C 0.9941(12) 0.3443(4) 1.0295(9)
H8 H 1.0117 0.3474 1.0946
H9 H 1.0698 0.3373 1.0102
H10 H 0.9346 0.3206 1.0113
C10 C 0.4682(8) 0.4151(3) 0.8847(7)
H11 H 0.4899 0.4067 0.8271
C11 C 0.3674(11) 0.3820(5) 0.9008(9)
H12 H 0.3950 0.3518 0.8948
H13 H 0.2914 0.3873 0.8567
H14 H 0.3531 0.3863 0.9610
C12 C 0.4161(12) 0.4622(4) 0.8737(8)
H15 H 0.3832 0.4700 0.9258
H16 H 0.3506 0.4638 0.8198
H17 H 0.4812 0.4829 0.8683
C13 C 0.6794(7) 0.3425(3) 0.8223(5)
C14 C 0.6590(7) 0.3325(3) 0.7234(5)
C15 C 0.6213(8) 0.2902(3) 0.6907(6)
H18 H 0.6082 0.2683 0.7318
C16 C 0.6022(8) 0.2791(3) 0.5991(6)
H19 H 0.5744 0.2505 0.5793
C17 C 0.6249(7) 0.3110(3) 0.5371(6)
C18 C 0.6042(8) 0.2988(3) 0.4378(5)
C19 C 0.6714(7) 0.3763(3) 0.4054(6)
C20 C 0.6781(7) 0.3894(2) 0.5024(5)
C21 C 0.7088(6) 0.4342(2) 0.5343(5)
C22 C 0.7532(7) 0.4411(2) 0.6295(5)
C23 C 0.7265(7) 0.4096(3) 0.6932(5)
C24 C 0.7266(7) 0.4221(3) 0.7894(5)
C25 C 0.6816(7) 0.3660(3) 0.6602(5)
C26 C 0.6628(7) 0.3556(3) 0.5658(5)
C27 C 0.8420(7) 0.4793(2) 0.6541(5)
C28 C 0.9441(7) 0.4762(3) 0.7293(5)
H20 H 0.9436 0.4543 0.7733
C29 C 1.0441(8) 0.5050(3) 0.7387(6)
H21 H 1.1080 0.5034 0.7906
C30 C 1.0502(8) 0.5362(3) 0.6714(6)
H22 H 1.1206 0.5543 0.6763
C31 C 0.9518(7) 0.5405(3) 0.5971(6)
C32 C 0.8417(7) 0.5138(2) 0.5883(5)
C33 C 0.7316(7) 0.5161(3) 0.5107(5)
C34 C 0.6743(7) 0.5563(3) 0.4729(6)
C35 C 0.5774(8) 0.5557(3) 0.3952(6)
H23 H 0.5450 0.5824 0.3681
C36 C 0.5297(8) 0.5147(3) 0.3587(6)
H24 H 0.4676 0.5140 0.3056
C37 C 0.5749(7) 0.4747(3) 0.4013(5)
H25 H 0.5376 0.4475 0.3802
C38 C 0.6770(7) 0.4752(3) 0.4763(5)
C39 C 0.6270(8) 0.3204(3) 0.2850(5)
C40 C 0.7344(9) 0.3035(3) 0.2603(6)
C41 C 0.7267(10) 0.2941(3) 0.1681(7)
H26 H 0.7967 0.2829 0.1500
C42 C 0.6189(12) 0.3009(3) 0.1035(7)
H27 H 0.6166 0.2948 0.0426
C43 C 0.5131(10) 0.3169(3) 0.1298(6)
H28 H 0.4396 0.3206 0.0861
C44 C 0.5149(8) 0.3278(3) 0.2216(6)
C45 C 0.3980(9) 0.3460(4) 0.2487(7)
H29 H 0.4204 0.3520 0.3143
C46 C 0.3562(12) 0.3913(5) 0.2011(10)
H30 H 0.4161 0.4141 0.2251
H31 H 0.2761 0.3995 0.2119
H32 H 0.3506 0.3883 0.1368
C47 C 0.2952(12) 0.3113(6) 0.2337(11)
H33 H 0.2732 0.3034 0.1704
H34 H 0.2234 0.3234 0.2522
H35 H 0.3236 0.2850 0.2692
C48 C 0.8559(10) 0.2958(4) 0.3316(7)
H36 H 0.8435 0.3087 0.3889
C49 C 0.9712(10) 0.3189(4) 0.3098(9)
H37 H 0.9864 0.3072 0.2536
H38 H 1.0425 0.3132 0.3581
H39 H 0.9568 0.3507 0.3041
C50 C 0.8771(13) 0.2450(4) 0.3480(10)
H40 H 0.8134 0.2332 0.3761
H41 H 0.9575 0.2402 0.3873
H42 H 0.8737 0.2302 0.2909
Cl1 Cl 1.0228(5) 0.34422(19) 0.7745(5)
Cl2 Cl 0.9728(7) 0.3103(2) 0.5930(4)
C51 C 1.021(3) 0.2989(6) 0.7097(13)
H43 H 0.9654 0.2768 0.7267
H44 H 1.1042 0.2860 0.7213
loop_
_geom_bond_atom_site_label_1
_geom_bond_atom_site_label_2
_geom_bond_site_symmetry_1
_geom_bond_site_symmetry_2
Br1 C31 1_555 1_555
Br2 C34 1_555 1_555
O1 C13 1_555 1_555
O2 C24 1_555 1_555
O3 C18 1_555 1_555
O4 C19 1_555 1_555
N1 C1 1_555 1_555
N2 C18 1_555 1_555
C1 C2 1_555 1_555
C2 C3 1_555 1_555
C3 H1 1_555 1_555
C4 C3 1_555 1_555
H2 C4 1_555 1_555
C5 C4 1_555 1_555
H3 C5 1_555 1_555
C6 C1 1_555 1_555
C7 C2 1_555 1_555
H4 C7 1_555 1_555
C8 C7 1_555 1_555
H5 C8 1_555 1_555
H6 C8 1_555 1_555
H7 C8 1_555 1_555
C9 C7 1_555 1_555
H8 C9 1_555 1_555
H9 C9 1_555 1_555
H10 C9 1_555 1_555
C10 C6 1_555 1_555
H11 C10 1_555 1_555
C11 C10 1_555 1_555
H12 C11 1_555 1_555
H13 C11 1_555 1_555
H14 C11 1_555 1_555
C12 C10 1_555 1_555
H15 C12 1_555 1_555
H16 C12 1_555 1_555
H17 C12 1_555 1_555
C13 N1 1_555 1_555
C14 C13 1_555 1_555
C15 C14 1_555 1_555
H18 C15 1_555 1_555
C16 C15 1_555 1_555
H19 C16 1_555 1_555
C17 C16 1_555 1_555
C18 C17 1_555 1_555
C19 N2 1_555 1_555
C20 C19 1_555 1_555
C21 C20 1_555 1_555
C22 C21 1_555 1_555
C23 C22 1_555 1_555
C24 N1 1_555 1_555
C25 C14 1_555 1_555
C26 C17 1_555 1_555
C27 C22 1_555 1_555
C28 C27 1_555 1_555
H20 C28 1_555 1_555
C29 C28 1_555 1_555
H21 C29 1_555 1_555
C30 C29 1_555 1_555
H22 C30 1_555 1_555
C31 C30 1_555 1_555
C32 C27 1_555 1_555
C33 C32 1_555 1_555
C34 C33 1_555 1_555
C35 C34 1_555 1_555
H23 C35 1_555 1_555
C36 C35 1_555 1_555
H24 C36 1_555 1_555
C37 C36 1_555 1_555
H25 C37 1_555 1_555
C38 C21 1_555 1_555
C39 N2 1_555 1_555
C40 C39 1_555 1_555
C41 C40 1_555 1_555
H26 C41 1_555 1_555
C42 C41 1_555 1_555
H27 C42 1_555 1_555
C43 C42 1_555 1_555
H28 C43 1_555 1_555
C44 C39 1_555 1_555
C45 C44 1_555 1_555
H29 C45 1_555 1_555
C46 C45 1_555 1_555
H30 C46 1_555 1_555
H31 C46 1_555 1_555
H32 C46 1_555 1_555
C47 C45 1_555 1_555
H33 C47 1_555 1_555
H34 C47 1_555 1_555
H35 C47 1_555 1_555
C48 C40 1_555 1_555
H36 C48 1_555 1_555
C49 C48 1_555 1_555
H37 C49 1_555 1_555
H38 C49 1_555 1_555
H39 C49 1_555 1_555
C50 C48 1_555 1_555
H40 C50 1_555 1_555
H41 C50 1_555 1_555
H42 C50 1_555 1_555
Cl1 C51 1_555 1_555
Cl2 C51 1_555 1_555
C51 H43 1_555 1_555
H44 C51 1_555 1_555
C5 C6 1_555 1_555
C20 C26 1_555 1_555
C23 C24 1_555 1_555
C23 C25 1_555 1_555
C25 C26 1_555 1_555
C31 C32 1_555 1_555
C33 C38 1_555 1_555
C37 C38 1_555 1_555
C43 C44 1_555 1_555

#END
