
#######################################################################
#
#                 Cambridge Crystallographic Data Centre
#                                CCDC 
#
#######################################################################
#
# If this CIF has been generated from an entry in the Cambridge 
# Structural Database, then it will include bibliographic, chemical, 
# crystal, experimental, refinement or atomic coordinate data resulting 
# from the CCDC's data processing and validation procedures.
#
#######################################################################

data_GESBUE
_chemical_formula_moiety         'C21 H17 N1 O3'
_chemical_name_systematic        '2-(biphenyl-4-yl)-2-oxoethyl 3-aminobenzoate'
_symmetry_cell_setting           triclinic
_symmetry_space_group_name_H-M   'P -1'
_symmetry_Int_Tables_number      2
_space_group_name_Hall           '-P 1'
loop_
_symmetry_equiv_pos_site_id
_symmetry_equiv_pos_as_xyz
1 x,y,z
2 -x,-y,-z
_cell_length_a                   5.2933(6)
_cell_length_b                   11.6818(14)
_cell_length_c                   13.4035(17)
_cell_angle_alpha                87.855(3)
_cell_angle_beta                 83.982(3)
_cell_angle_gamma                87.705(3)
_cell_volume                     823.12
_exptl_crystal_colour            yellow
_exptl_crystal_description       rod
_cell_formula_units_Z            2
loop_
_atom_site_label
_atom_site_type_symbol
_atom_site_fract_x
_atom_site_fract_y
_atom_site_fract_z
O1 O 0.2841(3) 0.26489(11) 0.01706(11)
O2 O 0.0407(3) 0.30949(13) 0.19917(12)
O3 O -0.0380(3) 0.36876(13) -0.03792(13)
N1 N 0.2871(4) -0.11525(16) -0.14053(16)
C1 C 0.687(3) 0.8002(10) 0.3929(10)
H1 H 0.7473 0.8024 0.3252
C2 C 0.751(2) 0.8835(10) 0.4537(8)
H2 H 0.8506 0.9434 0.4275
C3 C 0.530(3) 0.7984(11) 0.5922(8)
H3 H 0.4749 0.7969 0.6605
C4 C 0.456(2) 0.7096(9) 0.5317(7)
H4 H 0.3582 0.6508 0.5615
C5 C 0.6641(9) 0.8774(3) 0.5562(3)
H5 H 0.7083 0.9335 0.5980
C6 C 0.5274(4) 0.71005(17) 0.43225(14)
C7 C 0.4538(4) 0.62089(15) 0.36593(14)
C8 C 0.2398(5) 0.5586(2) 0.38980(17)
H6 H 0.1394 0.5721 0.4497
C9 C 0.1695(5) 0.4769(2) 0.32795(18)
H7 H 0.0246 0.4359 0.3474
C10 C 0.3084(4) 0.45469(15) 0.23826(14)
C11 C 0.5220(4) 0.51649(18) 0.21288(15)
H8 H 0.6208 0.5034 0.1525
C12 C 0.5921(4) 0.59764(18) 0.27561(15)
H9 H 0.7379 0.6382 0.2563
C13 C 0.2200(4) 0.36893(15) 0.17193(15)
C14 C 0.3540(4) 0.36215(16) 0.06864(16)
H10 H 0.3145 0.4315 0.0304
H11 H 0.5360 0.3579 0.0727
C15 C 0.0842(4) 0.28054(17) -0.03660(15)
C16 C 0.0391(4) 0.17845(15) -0.09386(13)
C17 C 0.1864(4) 0.07873(15) -0.08901(13)
H12 H 0.3197 0.0746 -0.0488
C18 C 0.1384(4) -0.01594(16) -0.14345(13)
C19 C -0.0610(4) -0.00694(19) -0.20191(15)
H13 H -0.0976 -0.0694 -0.2382
C20 C -0.2066(5) 0.0925(2) -0.20762(17)
H14 H -0.3390 0.0969 -0.2482
C21 C -0.1582(4) 0.18591(19) -0.15364(16)
H15 H -0.2574 0.2532 -0.1575
H16 H 0.226(5) -0.179(2) -0.1584(17)
H17 H 0.393(5) -0.127(2) -0.089(2)
C22? C 0.736(4) 0.7652(17) 0.4142(16)
H18? H 0.8404 0.7507 0.3553
C23? C 0.812(4) 0.8443(16) 0.4781(18)
H19? H 0.9727 0.8746 0.4649
C24? C 0.428(5) 0.811(2) 0.5819(14)
H20? H 0.3304 0.8221 0.6429
C25? C 0.357(5) 0.7378(16) 0.5182(14)
H21? H 0.1985 0.7050 0.5294
loop_
_geom_bond_atom_site_label_1
_geom_bond_atom_site_label_2
_geom_bond_site_symmetry_1
_geom_bond_site_symmetry_2
O1 C14 1_555 1_555
O2 C13 1_555 1_555
O3 C15 1_555 1_555
N1 C18 1_555 1_555
C1 H1 1_555 1_555
C2 C1 1_555 1_555
H2 C2 1_555 1_555
C3 H3 1_555 1_555
C4 C3 1_555 1_555
H4 C4 1_555 1_555
C5 C2 1_555 1_555
H5 C5 1_555 1_555
C6 C1 1_555 1_555
C7 C6 1_555 1_555
C8 C7 1_555 1_555
H6 C8 1_555 1_555
C9 C8 1_555 1_555
H7 C9 1_555 1_555
C10 C9 1_555 1_555
C11 C10 1_555 1_555
H8 C11 1_555 1_555
C12 C7 1_555 1_555
H9 C12 1_555 1_555
C13 C10 1_555 1_555
C14 C13 1_555 1_555
H10 C14 1_555 1_555
H11 C14 1_555 1_555
C15 O1 1_555 1_555
C16 C15 1_555 1_555
C17 C16 1_555 1_555
H12 C17 1_555 1_555
C18 C17 1_555 1_555
C19 C18 1_555 1_555
H13 C19 1_555 1_555
C20 C19 1_555 1_555
H14 C20 1_555 1_555
C21 C16 1_555 1_555
H15 C21 1_555 1_555
H16 N1 1_555 1_555
H17 N1 1_555 1_555
C3 C5 1_555 1_555
C4 C6 1_555 1_555
C11 C12 1_555 1_555
C20 C21 1_555 1_555

#END
