
#######################################################################
#
#                 Cambridge Crystallographic Data Centre
#                                CCDC 
#
#######################################################################
#
# If this CIF has been generated from an entry in the Cambridge 
# Structural Database, then it will include bibliographic, chemical, 
# crystal, experimental, refinement or atomic coordinate data resulting 
# from the CCDC's data processing and validation procedures.
#
#######################################################################

data_GESBAK
_chemical_formula_moiety         'C138 H118 N6 O12'
_chemical_name_systematic        
'bis(2,7-bis(2,6-dimethylphenyl)benzo[lmn][3,8]phenanthroline-1,3,6,8(2H,7H)-tetrone)-10,21-bis(2,6-di-isopropylphenyl)benzo[8,9]triphenyleno[1,2,3,4-lmn]pyreno[4,5-f][3,8]phenanthroline-9,11,20,22(10H,21H)-tetrone unknown solvate'
_symmetry_cell_setting           monoclinic
_symmetry_space_group_name_H-M   'C 2/c'
_symmetry_Int_Tables_number      15
_space_group_name_Hall           '-C 2yn'
loop_
_symmetry_equiv_pos_site_id
_symmetry_equiv_pos_as_xyz
1 x,y,z
2 -x,y,1/2-z
3 1/2+x,1/2+y,z
4 1/2-x,1/2+y,1/2-z
5 -x,-y,-z
6 x,-y,1/2+z
7 1/2-x,1/2-y,-z
8 1/2+x,1/2-y,1/2+z
_cell_length_a                   19.696(4)
_cell_length_b                   30.598(6)
_cell_length_c                   29.127(6)
_cell_angle_alpha                90
_cell_angle_beta                 100.173(5)
_cell_angle_gamma                90
_cell_volume                     17277.7
_cell_formula_units_Z            4
loop_
_atom_site_label
_atom_site_type_symbol
_atom_site_fract_x
_atom_site_fract_y
_atom_site_fract_z
N1 N 0.5400(2) 0.05394(11) 0.37222(14)
N2 N 0.67986(17) 0.37483(10) 0.24720(13)
N3 N 0.4972(2) 0.69578(12) 0.12812(15)
O1 O 0.5364(2) -0.02162(11) 0.37160(13)
O2 O 0.54720(16) 0.12672(8) 0.37441(10)
O3 O 0.67662(14) 0.30092(9) 0.23608(11)
O4 O 0.67960(13) 0.44814(8) 0.25535(12)
O5 O 0.47585(16) 0.62287(8) 0.12570(10)
O6 O 0.50665(18) 0.76892(8) 0.12987(12)
C1 C 0.5320(3) 0.01235(13) 0.34910(18)
C2 C 0.5193(2) 0.01336(12) 0.29925(17)
C3 C 0.51065(18) 0.05425(11) 0.27362(15)
C4 C 0.5270(2) 0.09493(11) 0.29897(15)
C5 C 0.5412(2) 0.09322(13) 0.34936(18)
C6 C 0.55609(19) 0.17341(12) 0.28713(14)
C7 C 0.53074(19) 0.21301(11) 0.26543(14)
C8 C 0.56767(19) 0.25390(11) 0.27519(15)
C9 C 0.6300(2) 0.25297(13) 0.30750(15)
H1 H 0.6534 0.2789 0.3162
C10 C 0.6567(2) 0.21335(12) 0.32654(15)
H2 H 0.6990 0.2133 0.3467
C11 C 0.6224(2) 0.17452(13) 0.31641(15)
H3 H 0.6426 0.1486 0.3288
C12 C 0.6452(2) 0.33349(11) 0.24502(16)
C13 C 0.57215(19) 0.33418(11) 0.25301(14)
C14 C 0.5355(2) 0.37400(11) 0.25053(15)
C15 C 0.5707(2) 0.41533(12) 0.24401(15)
C16 C 0.6458(2) 0.41502(11) 0.24865(15)
C17 C 0.55167(19) 0.49511(11) 0.22152(14)
C18 C 0.52293(18) 0.53386(11) 0.23386(14)
C19 C 0.53688(19) 0.57416(12) 0.21149(14)
C20 C 0.58029(19) 0.57288(12) 0.17947(14)
H4 H 0.5910 0.5990 0.1661
C21 C 0.6093(2) 0.53398(14) 0.16591(18)
H5 H 0.6378 0.5343 0.1436
C22 C 0.5944(2) 0.49515(12) 0.18656(14)
H6 H 0.6122 0.4690 0.1776
C23 C 0.4903(2) 0.65524(13) 0.14963(17)
C24 C 0.5033(2) 0.65493(12) 0.20133(16)
C25 C 0.4985(2) 0.69562(12) 0.22532(16)
C26 C 0.4985(2) 0.73567(12) 0.20161(17)
C27 C 0.5019(3) 0.73597(13) 0.15220(17)
C28 C 0.5059(2) -0.02549(11) 0.27314(16)
H7 H 0.5052 -0.0519 0.2888
C29 C 0.5197(2) 0.13255(13) 0.27209(15)
C30 C 0.53633(19) 0.29467(11) 0.25600(14)
C31 C 0.5313(2) 0.45474(12) 0.24305(16)
C32 C 0.5097(2) 0.61464(11) 0.22784(14)
C33 C 0.5004(2) 0.77394(13) 0.22640(17)
H8 H 0.5021 0.8004 0.2110
C34 C 0.5437(3) 0.05362(15) 0.42280(18)
C35 C 0.4847(3) 0.06380(15) 0.44027(18)
C36 C 0.4873(3) 0.06243(16) 0.48863(19)
H9 H 0.4475 0.0673 0.5010
C37 C 0.5493(3) 0.05383(16) 0.51817(18)
H10 H 0.5510 0.0545 0.5503
C38 C 0.6111(3) 0.04386(15) 0.50005(19)
H11 H 0.6522 0.0387 0.5204
C39 C 0.6092(3) 0.04191(16) 0.4516(2)
C40 C 0.4141(3) 0.07275(16) 0.41104(19)
H12 H 0.4232 0.0873 0.3828
C41 C 0.3708(3) 0.1043(2) 0.4329(2)
H13 H 0.3273 0.1083 0.4126
H14 H 0.3633 0.0929 0.4623
H15 H 0.3943 0.1319 0.4378
C42 C 0.3753(3) 0.03036(18) 0.39417(19)
H16 H 0.4052 0.0114 0.3805
H17 H 0.3612 0.0159 0.4202
H18 H 0.3355 0.0373 0.3713
C43 C 0.6765(3) 0.03057(19) 0.4328(2)
H19 H 0.6614 0.0235 0.3997
C44 C 0.7223(3) 0.0697(3) 0.4334(3)
H20 H 0.6962 0.0936 0.4178
H21 H 0.7402 0.0777 0.4651
H22 H 0.7598 0.0629 0.4176
C45 C 0.7040(4) -0.0085(3) 0.4538(3)
H23 H 0.6686 -0.0304 0.4506
H24 H 0.7410 -0.0183 0.4388
H25 H 0.7213 -0.0035 0.4863
C46 C 0.7532(2) 0.37423(12) 0.2470(2)
C47 C 0.7936(2) 0.37770(13) 0.2917(2)
C48 C 0.8666(3) 0.37678(16) 0.2884(3)
H26 H 0.8988 0.3778 0.3159
C49 C 0.8891(3) 0.37461(16) 0.2489(3)
H27 H 0.9366 0.3746 0.2501
C50 C 0.8495(4) 0.37243(16) 0.2078(3)
H28 H 0.8673 0.3704 0.1803
C51 C 0.7757(3) 0.37348(14) 0.2081(2)
C52 C 0.7697(3) 0.38089(18) 0.3375(2)
H29 H 0.7192 0.3823 0.3304
C53 C 0.7938(4) 0.4225(3) 0.3672(3)
H30 H 0.7830 0.4481 0.3483
H31 H 0.7706 0.4238 0.3934
H32 H 0.8427 0.4211 0.3779
C54 C 0.7872(4) 0.3418(2) 0.3677(3)
H33 H 0.7705 0.3458 0.3965
H34 H 0.7659 0.3164 0.3520
H35 H 0.8363 0.3379 0.3741
C55 C 0.7238(3) 0.37273(19) 0.1590(2)
H36 H 0.6764 0.3720 0.1651
C56 C 0.7353(4) 0.4174(2) 0.1345(3)
H37 H 0.7287 0.4412 0.1547
H38 H 0.7814 0.4184 0.1280
H39 H 0.7029 0.4198 0.1058
C57 C 0.7343(5) 0.3331(3) 0.1270(3)
H40 H 0.7271 0.3063 0.1425
H41 H 0.7018 0.3350 0.0983
H42 H 0.7804 0.3336 0.1204
C58 C 0.4916(3) 0.69703(14) 0.07702(19)
C59 C 0.5523(3) 0.69357(15) 0.06082(19)
C60 C 0.5490(3) 0.69342(15) 0.01235(18)
H43 H 0.5896 0.6931 0.0002
C61 C 0.4883(3) 0.69367(17) -0.0167(2)
H44 H 0.4865 0.6926 -0.0488
C62 C 0.4243(3) 0.69561(16) 0.0029(2)
H45 H 0.3822 0.6960 -0.0175
C63 C 0.4245(3) 0.69680(16) 0.0463(2)
C64 C 0.6232(3) 0.69681(16) 0.0923(2)
H46 H 0.6151 0.6988 0.1245
C65 C 0.6616(4) 0.73780(19) 0.0830(2)
H47 H 0.7056 0.7385 0.1034
H48 H 0.6684 0.7378 0.0511
H49 H 0.6352 0.7630 0.0885
C66 C 0.6694(3) 0.65655(18) 0.0898(2)
H50 H 0.6450 0.6306 0.0957
H51 H 0.6815 0.6548 0.0593
H52 H 0.7106 0.6592 0.1128
C67 C 0.3618(3) 0.69993(17) 0.0678(2)
H53 H 0.3716 0.6896 0.1001
C68 C 0.3070(3) 0.6737(2) 0.0405(2)
H54 H 0.2662 0.6756 0.0542
H55 H 0.2972 0.6845 0.0091
H56 H 0.3216 0.6438 0.0403
C69 C 0.3366(4) 0.7491(2) 0.0660(3)
H57 H 0.3718 0.7670 0.0837
H58 H 0.3275 0.7589 0.0342
H59 H 0.2952 0.7512 0.0790
N1A N 0.4600(2) 0.05394(11) 0.12778(14)
N2A N 0.32014(17) 0.37483(10) 0.25280(13)
N3A N 0.5028(2) 0.69578(12) 0.37188(15)
O1A O 0.4636(2) -0.02162(11) 0.12840(13)
O2A O 0.45280(16) 0.12672(8) 0.12559(10)
O3A O 0.32338(14) 0.30092(9) 0.26392(11)
O4A O 0.32040(13) 0.44814(8) 0.24465(12)
O5A O 0.52415(16) 0.62287(8) 0.37430(10)
O6A O 0.49335(18) 0.76892(8) 0.37013(12)
C1A C 0.4680(3) 0.01235(13) 0.15090(18)
C2A C 0.4807(2) 0.01336(12) 0.20075(17)
C3A C 0.48935(18) 0.05425(11) 0.22638(15)
C4A C 0.4730(2) 0.09493(11) 0.20103(15)
C5A C 0.4588(2) 0.09322(13) 0.15064(18)
C6A C 0.44391(19) 0.17341(12) 0.21287(14)
C7A C 0.46926(19) 0.21301(11) 0.23457(14)
C8A C 0.43233(19) 0.25390(11) 0.22481(15)
C9A C 0.3700(2) 0.25297(13) 0.19250(15)
H1A H 0.3466 0.2789 0.1838
C10A C 0.3433(2) 0.21335(12) 0.17346(15)
H2A H 0.3010 0.2133 0.1533
C11A C 0.3776(2) 0.17452(13) 0.18359(15)
H3A H 0.3574 0.1486 0.1712
C12A C 0.3548(2) 0.33349(11) 0.25498(16)
C13A C 0.42785(19) 0.33418(11) 0.24699(14)
C14A C 0.4645(2) 0.37400(11) 0.24947(15)
C15A C 0.4293(2) 0.41533(12) 0.25599(15)
C16A C 0.3542(2) 0.41502(11) 0.25135(15)
C17A C 0.44833(19) 0.49511(11) 0.27848(14)
C18A C 0.47707(18) 0.53386(11) 0.26614(14)
C19A C 0.46312(19) 0.57416(12) 0.28851(14)
C20A C 0.41971(19) 0.57288(12) 0.32053(14)
H4A H 0.4090 0.5990 0.3339
C21A C 0.3907(2) 0.53398(14) 0.33409(18)
H5A H 0.3622 0.5343 0.3564
C22A C 0.4056(2) 0.49515(12) 0.31344(14)
H6A H 0.3878 0.4690 0.3224
C23A C 0.5097(2) 0.65524(13) 0.35037(17)
C24A C 0.4967(2) 0.65493(12) 0.29867(16)
C25A C 0.5015(2) 0.69562(12) 0.27468(16)
C26A C 0.5015(2) 0.73567(12) 0.29839(17)
C27A C 0.4981(3) 0.73597(13) 0.34780(17)
C28A C 0.4941(2) -0.02549(11) 0.22686(16)
H7A H 0.4948 -0.0519 0.2112
C29A C 0.4803(2) 0.13255(13) 0.22791(15)
C30A C 0.46367(19) 0.29467(11) 0.24400(14)
C31A C 0.4687(2) 0.45474(12) 0.25695(16)
C32A C 0.4903(2) 0.61464(11) 0.27216(14)
C33A C 0.4996(2) 0.77394(13) 0.27360(17)
H8A H 0.4979 0.8004 0.2890
C34A C 0.4563(3) 0.05362(15) 0.07720(18)
C35A C 0.5153(3) 0.06380(15) 0.05973(18)
C36A C 0.5127(3) 0.06243(16) 0.01137(19)
H9A H 0.5525 0.0673 -0.0010
C37A C 0.4507(3) 0.05383(16) -0.01817(18)
H10A H 0.4490 0.0545 -0.0503
C38A C 0.3889(3) 0.04386(15) -0.00005(19)
H11A H 0.3478 0.0387 -0.0204
C39A C 0.3908(3) 0.04191(16) 0.0484(2)
C40A C 0.5859(3) 0.07275(16) 0.08896(19)
H12A H 0.5768 0.0873 0.1172
C41A C 0.6292(3) 0.1043(2) 0.0671(2)
H13A H 0.6727 0.1083 0.0874
H14A H 0.6367 0.0929 0.0377
H15A H 0.6057 0.1319 0.0622
C42A C 0.6247(3) 0.03036(18) 0.10583(19)
H16A H 0.5948 0.0114 0.1195
H17A H 0.6388 0.0159 0.0798
H18A H 0.6645 0.0373 0.1287
C43A C 0.3235(3) 0.03057(19) 0.0672(2)
H19A H 0.3386 0.0235 0.1003
C44A C 0.2777(3) 0.0697(3) 0.0666(3)
H20A H 0.3038 0.0936 0.0822
H21A H 0.2598 0.0777 0.0349
H22A H 0.2402 0.0629 0.0824
C45A C 0.2960(4) -0.0085(3) 0.0462(3)
H23A H 0.3314 -0.0304 0.0494
H24A H 0.2590 -0.0183 0.0612
H25A H 0.2787 -0.0035 0.0137
C46A C 0.2468(2) 0.37423(12) 0.2530(2)
C47A C 0.2064(2) 0.37770(13) 0.2083(2)
C48A C 0.1334(3) 0.37678(16) 0.2116(3)
H26A H 0.1012 0.3778 0.1841
C49A C 0.1109(3) 0.37461(16) 0.2511(3)
H27A H 0.0634 0.3746 0.2499
C50A C 0.1505(4) 0.37243(16) 0.2922(3)
H28A H 0.1327 0.3704 0.3197
C51A C 0.2243(3) 0.37348(14) 0.2919(2)
C52A C 0.2303(3) 0.38089(18) 0.1625(2)
H29A H 0.2808 0.3823 0.1696
C53A C 0.2062(4) 0.4225(3) 0.1328(3)
H30A H 0.2170 0.4481 0.1517
H31A H 0.2294 0.4238 0.1066
H32A H 0.1573 0.4211 0.1221
C54A C 0.2128(4) 0.3418(2) 0.1323(3)
H33A H 0.2295 0.3458 0.1035
H34A H 0.2341 0.3164 0.1480
H35A H 0.1637 0.3379 0.1259
C55A C 0.2762(3) 0.37273(19) 0.3410(2)
H36A H 0.3236 0.3720 0.3349
C56A C 0.2647(4) 0.4174(2) 0.3655(3)
H37A H 0.2713 0.4412 0.3453
H38A H 0.2186 0.4184 0.3720
H39A H 0.2971 0.4198 0.3942
C57A C 0.2657(5) 0.3331(3) 0.3730(3)
H40A H 0.2729 0.3063 0.3575
H41A H 0.2982 0.3350 0.4017
H42A H 0.2196 0.3336 0.3796
C58A C 0.5084(3) 0.69703(14) 0.42298(19)
C59A C 0.4477(3) 0.69357(15) 0.43918(19)
C60A C 0.4510(3) 0.69342(15) 0.48765(18)
H43A H 0.4104 0.6931 0.4998
C61A C 0.5117(3) 0.69367(17) 0.5167(2)
H44A H 0.5135 0.6926 0.5488
C62A C 0.5757(3) 0.69561(16) 0.4971(2)
H45A H 0.6178 0.6960 0.5175
C63A C 0.5755(3) 0.69680(16) 0.4537(2)
C64A C 0.3768(3) 0.69681(16) 0.4077(2)
H46A H 0.3849 0.6988 0.3755
C65A C 0.3384(4) 0.73780(19) 0.4170(2)
H47A H 0.2944 0.7385 0.3966
H48A H 0.3316 0.7378 0.4489
H49A H 0.3648 0.7630 0.4115
C66A C 0.3306(3) 0.65655(18) 0.4102(2)
H50A H 0.3550 0.6306 0.4043
H51A H 0.3185 0.6548 0.4407
H52A H 0.2894 0.6592 0.3872
C67A C 0.6382(3) 0.69993(17) 0.4322(2)
H53A H 0.6284 0.6896 0.3999
C68A C 0.6930(3) 0.6737(2) 0.4595(2)
H54A H 0.7338 0.6756 0.4458
H55A H 0.7028 0.6845 0.4909
H56A H 0.6784 0.6438 0.4597
C69A C 0.6634(4) 0.7491(2) 0.4340(3)
H57A H 0.6282 0.7670 0.4163
H58A H 0.6725 0.7589 0.4658
H59A H 0.7048 0.7512 0.4210
H60? H 0.5520 0.6616 0.0625
loop_
_geom_bond_atom_site_label_1
_geom_bond_atom_site_label_2
_geom_bond_site_symmetry_1
_geom_bond_site_symmetry_2
N1 C1 1_555 1_555
N2 C12 1_555 1_555
N3 C23 1_555 1_555
O1 C1 1_555 1_555
O2 C5 1_555 1_555
O3 C12 1_555 1_555
O4 C16 1_555 1_555
O5 C23 1_555 1_555
O6 C27 1_555 1_555
C1 C2 1_555 1_555
C2 C3 1_555 1_555
C3 C4 1_555 1_555
C4 C5 1_555 1_555
C5 N1 1_555 1_555
C6 C7 1_555 1_555
C7 C8 1_555 1_555
C8 C9 1_555 1_555
C9 H1 1_555 1_555
C10 C9 1_555 1_555
H2 C10 1_555 1_555
C11 C6 1_555 1_555
H3 C11 1_555 1_555
C12 C13 1_555 1_555
C13 C14 1_555 1_555
C14 C15 1_555 1_555
C15 C16 1_555 1_555
C16 N2 1_555 1_555
C17 C18 1_555 1_555
C18 C19 1_555 1_555
C19 C20 1_555 1_555
C20 H4 1_555 1_555
C21 C20 1_555 1_555
H5 C21 1_555 1_555
C22 C17 1_555 1_555
H6 C22 1_555 1_555
C23 C24 1_555 1_555
C24 C25 1_555 1_555
C25 C26 1_555 1_555
C26 C27 1_555 1_555
C27 N3 1_555 1_555
C28 C2 1_555 1_555
H7 C28 1_555 1_555
C29 C4 1_555 1_555
C30 C8 1_555 1_555
C31 C15 1_555 1_555
C32 C19 1_555 1_555
C33 C26 1_555 1_555
H8 C33 1_555 1_555
C34 N1 1_555 1_555
C35 C34 1_555 1_555
C36 C35 1_555 1_555
H9 C36 1_555 1_555
C37 C36 1_555 1_555
H10 C37 1_555 1_555
C38 C37 1_555 1_555
H11 C38 1_555 1_555
C39 C34 1_555 1_555
C40 C35 1_555 1_555
H12 C40 1_555 1_555
C41 C40 1_555 1_555
H13 C41 1_555 1_555
H14 C41 1_555 1_555
H15 C41 1_555 1_555
C42 C40 1_555 1_555
H16 C42 1_555 1_555
H17 C42 1_555 1_555
H18 C42 1_555 1_555
C43 C39 1_555 1_555
H19 C43 1_555 1_555
C44 C43 1_555 1_555
H20 C44 1_555 1_555
H21 C44 1_555 1_555
H22 C44 1_555 1_555
C45 C43 1_555 1_555
H23 C45 1_555 1_555
H24 C45 1_555 1_555
H25 C45 1_555 1_555
C46 N2 1_555 1_555
C47 C46 1_555 1_555
C48 C47 1_555 1_555
H26 C48 1_555 1_555
C49 C48 1_555 1_555
H27 C49 1_555 1_555
C50 C49 1_555 1_555
H28 C50 1_555 1_555
C51 C46 1_555 1_555
C52 C47 1_555 1_555
H29 C52 1_555 1_555
C53 C52 1_555 1_555
H30 C53 1_555 1_555
H31 C53 1_555 1_555
H32 C53 1_555 1_555
C54 C52 1_555 1_555
H33 C54 1_555 1_555
H34 C54 1_555 1_555
H35 C54 1_555 1_555
C55 C51 1_555 1_555
H36 C55 1_555 1_555
C56 C55 1_555 1_555
H37 C56 1_555 1_555
H38 C56 1_555 1_555
H39 C56 1_555 1_555
C57 C55 1_555 1_555
H40 C57 1_555 1_555
H41 C57 1_555 1_555
H42 C57 1_555 1_555
C58 N3 1_555 1_555
C59 C58 1_555 1_555
C60 C59 1_555 1_555
H43 C60 1_555 1_555
C61 C60 1_555 1_555
H44 C61 1_555 1_555
C62 C61 1_555 1_555
H45 C62 1_555 1_555
C63 C58 1_555 1_555
C64 C59 1_555 1_555
H46 C64 1_555 1_555
C65 C64 1_555 1_555
H47 C65 1_555 1_555
H48 C65 1_555 1_555
H49 C65 1_555 1_555
C66 C64 1_555 1_555
H50 C66 1_555 1_555
H51 C66 1_555 1_555
H52 C66 1_555 1_555
C67 C63 1_555 1_555
H53 C67 1_555 1_555
C68 C67 1_555 1_555
H54 C68 1_555 1_555
H55 C68 1_555 1_555
H56 C68 1_555 1_555
C69 C67 1_555 1_555
H57 C69 1_555 1_555
H58 C69 1_555 1_555
H59 C69 1_555 1_555
N1A C1A 1_555 1_555
N2A C12A 1_555 1_555
N3A C23A 1_555 1_555
O1A C1A 1_555 1_555
O2A C5A 1_555 1_555
O3A C12A 1_555 1_555
O4A C16A 1_555 1_555
O5A C23A 1_555 1_555
O6A C27A 1_555 1_555
C1A C2A 1_555 1_555
C2A C3A 1_555 1_555
C3A C3 1_555 1_555
C4A C3A 1_555 1_555
C5A N1A 1_555 1_555
C6A C7A 1_555 1_555
C7A C7 1_555 1_555
C8A C7A 1_555 1_555
C9A C8A 1_555 1_555
H1A C9A 1_555 1_555
C10A C9A 1_555 1_555
H2A C10A 1_555 1_555
C11A C6A 1_555 1_555
H3A C11A 1_555 1_555
C12A C13A 1_555 1_555
C13A C14A 1_555 1_555
C14A C14 1_555 1_555
C15A C14A 1_555 1_555
C16A N2A 1_555 1_555
C17A C18A 1_555 1_555
C18A C18 1_555 1_555
C19A C18A 1_555 1_555
C20A C19A 1_555 1_555
H4A C20A 1_555 1_555
C21A C20A 1_555 1_555
H5A C21A 1_555 1_555
C22A C17A 1_555 1_555
H6A C22A 1_555 1_555
C23A C24A 1_555 1_555
C24A C25A 1_555 1_555
C25A C25 1_555 1_555
C26A C25A 1_555 1_555
C27A N3A 1_555 1_555
C28A C28 1_555 1_555
H7A C28A 1_555 1_555
C29A C29 1_555 1_555
C30A C30 1_555 1_555
C31A C31 1_555 1_555
C32A C32 1_555 1_555
C33A C33 1_555 1_555
H8A C33A 1_555 1_555
C34A N1A 1_555 1_555
C35A C34A 1_555 1_555
C36A C35A 1_555 1_555
H9A C36A 1_555 1_555
C37A C36A 1_555 1_555
H10A C37A 1_555 1_555
C38A C37A 1_555 1_555
H11A C38A 1_555 1_555
C39A C34A 1_555 1_555
C40A C35A 1_555 1_555
H12A C40A 1_555 1_555
C41A C40A 1_555 1_555
H13A C41A 1_555 1_555
H14A C41A 1_555 1_555
H15A C41A 1_555 1_555
C42A C40A 1_555 1_555
H16A C42A 1_555 1_555
H17A C42A 1_555 1_555
H18A C42A 1_555 1_555
C43A C39A 1_555 1_555
H19A C43A 1_555 1_555
C44A C43A 1_555 1_555
H20A C44A 1_555 1_555
H21A C44A 1_555 1_555
H22A C44A 1_555 1_555
C45A C43A 1_555 1_555
H23A C45A 1_555 1_555
H24A C45A 1_555 1_555
H25A C45A 1_555 1_555
C46A N2A 1_555 1_555
C47A C46A 1_555 1_555
C48A C47A 1_555 1_555
H26A C48A 1_555 1_555
C49A C48A 1_555 1_555
H27A C49A 1_555 1_555
C50A C49A 1_555 1_555
H28A C50A 1_555 1_555
C51A C46A 1_555 1_555
C52A C47A 1_555 1_555
H29A C52A 1_555 1_555
C53A C52A 1_555 1_555
H30A C53A 1_555 1_555
H31A C53A 1_555 1_555
H32A C53A 1_555 1_555
C54A C52A 1_555 1_555
H33A C54A 1_555 1_555
H34A C54A 1_555 1_555
H35A C54A 1_555 1_555
C55A C51A 1_555 1_555
H36A C55A 1_555 1_555
C56A C55A 1_555 1_555
H37A C56A 1_555 1_555
H38A C56A 1_555 1_555
H39A C56A 1_555 1_555
C57A C55A 1_555 1_555
H40A C57A 1_555 1_555
H41A C57A 1_555 1_555
H42A C57A 1_555 1_555
C58A N3A 1_555 1_555
C59A C58A 1_555 1_555
C60A C59A 1_555 1_555
H43A C60A 1_555 1_555
C61A C60A 1_555 1_555
H44A C61A 1_555 1_555
C62A C61A 1_555 1_555
H45A C62A 1_555 1_555
C63A C58A 1_555 1_555
C64A C59A 1_555 1_555
H46A C64A 1_555 1_555
C65A C64A 1_555 1_555
H47A C65A 1_555 1_555
H48A C65A 1_555 1_555
H49A C65A 1_555 1_555
C66A C64A 1_555 1_555
H50A C66A 1_555 1_555
H51A C66A 1_555 1_555
H52A C66A 1_555 1_555
C67A C63A 1_555 1_555
H53A C67A 1_555 1_555
C68A C67A 1_555 1_555
H54A C68A 1_555 1_555
H55A C68A 1_555 1_555
H56A C68A 1_555 1_555
C69A C67A 1_555 1_555
H57A C69A 1_555 1_555
H58A C69A 1_555 1_555
H59A C69A 1_555 1_555
C6 C29 1_555 1_555
C10 C11 1_555 1_555
C13 C30 1_555 1_555
C17 C31 1_555 1_555
C21 C22 1_555 1_555
C24 C32 1_555 1_555
C38 C39 1_555 1_555
C50 C51 1_555 1_555
C62 C63 1_555 1_555
C2A C28A 1_555 1_555
C4A C5A 1_555 1_555
C4A C29A 1_555 1_555
C6A C29A 1_555 1_555
C8A C30A 1_555 1_555
C10A C11A 1_555 1_555
C13A C30A 1_555 1_555
C15A C16A 1_555 1_555
C15A C31A 1_555 1_555
C17A C31A 1_555 1_555
C19A C32A 1_555 1_555
C21A C22A 1_555 1_555
C24A C32A 1_555 1_555
C26A C27A 1_555 1_555
C26A C33A 1_555 1_555
C38A C39A 1_555 1_555
C50A C51A 1_555 1_555
C62A C63A 1_555 1_555

#END
