
#######################################################################
#
#                 Cambridge Crystallographic Data Centre
#                                CCDC 
#
#######################################################################
#
# If this CIF has been generated from an entry in the Cambridge 
# Structural Database, then it will include bibliographic, chemical, 
# crystal, experimental, refinement or atomic coordinate data resulting 
# from the CCDC's data processing and validation procedures.
#
#######################################################################

data_GESCIQ
_chemical_formula_moiety         'C12 H17 N4 O1 S1 1+,C6 H2 N3 O7 1-'
_chemical_name_systematic        'Thiamine picrate'
_chemical_properties_biological  'metabolic catalyzing activity'
_symmetry_cell_setting           triclinic
_symmetry_space_group_name_H-M   'P -1'
_symmetry_Int_Tables_number      2
_space_group_name_Hall           '-P 1'
loop_
_symmetry_equiv_pos_site_id
_symmetry_equiv_pos_as_xyz
1 x,y,z
2 -x,-y,-z
_cell_length_a                   10.464(1)
_cell_length_b                   12.951(1)
_cell_length_c                   8.6615(8)
_cell_angle_alpha                107.368(8)
_cell_angle_beta                 104.627(8)
_cell_angle_gamma                70.544(9)
_cell_volume                     1040.91
_exptl_crystal_colour            yellow
_cell_formula_units_Z            2
loop_
_atom_site_label
_atom_site_type_symbol
_atom_site_fract_x
_atom_site_fract_y
_atom_site_fract_z
S1 S -0.0254(1) 0.1053(1) 0.3296(1)
C1 C 0.1176(3) 0.0140(3) 0.4020(4)
N1 N 0.1286(3) -0.0908(2) 0.3164(3)
C2 C 0.0201(3) -0.1029(3) 0.1859(4)
C3 C 0.0182(4) -0.2158(3) 0.0782(5)
C4 C -0.0740(3) -0.0029(3) 0.1777(4)
C5 C -0.2121(4) 0.0190(3) 0.0678(4)
C6 C -0.3303(4) 0.0513(3) 0.1625(5)
O1 O -0.3060(3) -0.0230(2) 0.2632(3)
C7 C 0.2476(3) -0.1855(3) 0.3604(4)
N2 N 0.5210(3) -0.1633(2) 0.1737(4)
C8 C 0.5562(3) -0.2681(3) 0.0799(4)
C9 C 0.6636(4) -0.2935(4) -0.0216(6)
N3 N 0.5045(3) -0.3508(2) 0.0697(4)
C10 C 0.4047(3) -0.3288(3) 0.1577(4)
N4 N 0.3587(3) -0.4166(2) 0.1454(4)
C11 C 0.3559(3) -0.2193(3) 0.2549(4)
C12 C 0.4215(3) -0.1423(3) 0.2593(4)
H1 H 0.179(3) 0.031(3) 0.492(4)
H2 H -0.050(4) -0.209(3) -0.014(5)
H3 H -0.002(5) -0.260(4) 0.131(6)
H4 H 0.115(4) -0.253(4) 0.040(5)
H5 H -0.223(3) 0.082(3) 0.025(4)
H6 H -0.219(4) -0.056(3) -0.024(5)
H7 H -0.415(4) 0.050(3) 0.086(5)
H8 H -0.340(4) 0.137(3) 0.241(5)
H9 H -0.365(5) -0.068(4) 0.224(6)
H10 H 0.687(6) -0.229(5) -0.011(7)
H11 H 0.631(5) -0.316(4) -0.127(6)
H12 H 0.741(7) -0.357(6) -0.002(8)
H13 H 0.404(4) -0.489(4) 0.078(5)
H14 H 0.298(4) -0.408(3) 0.201(5)
H15 H 0.397(3) -0.063(3) 0.336(4)
H16 H 0.287(3) -0.152(3) 0.485(4)
H17 H 0.209(3) -0.243(3) 0.348(4)
O2 O 0.1113(3) 0.2478(2) 0.5815(3)
O3 O -0.1119(3) 0.4063(3) 0.6923(4)
O4 O -0.0693(5) 0.5531(4) 0.8514(7)
O5 O 0.3929(4) 0.6070(3) 0.6021(5)
O6 O 0.2562(3) 0.7023(2) 0.7771(4)
O7 O 0.4403(3) 0.2027(3) 0.3979(4)
O8 O 0.2431(4) 0.1722(3) 0.3127(5)
N5 N -0.0385(3) 0.4687(3) 0.7473(4)
N6 N 0.3042(3) 0.6159(3) 0.6776(5)
N7 N 0.3190(4) 0.2265(3) 0.4050(4)
C13 C 0.1458(4) 0.3318(3) 0.5912(4)
C14 C 0.0860(3) 0.4449(3) 0.6831(4)
C15 C 0.1398(4) 0.5331(3) 0.7132(4)
C16 C 0.2526(4) 0.5196(3) 0.6481(4)
C17 C 0.3110(4) 0.4181(3) 0.5472(5)
C18 C 0.2584(4) 0.3303(3) 0.5182(4)
H18 H 0.098(3) 0.598(3) 0.775(4)
H19 H 0.383(3) 0.407(3) 0.504(4)
loop_
_geom_bond_atom_site_label_1
_geom_bond_atom_site_label_2
_geom_bond_site_symmetry_1
_geom_bond_site_symmetry_2
S1 C1 1_555 1_555
C1 N1 1_555 1_555
N1 C2 1_555 1_555
C2 C3 1_555 1_555
C3 H2 1_555 1_555
C4 S1 1_555 1_555
C5 C4 1_555 1_555
C6 C5 1_555 1_555
O1 C6 1_555 1_555
C7 N1 1_555 1_555
N2 C8 1_555 1_555
C8 C9 1_555 1_555
C9 H10 1_555 1_555
N3 C8 1_555 1_555
C10 N3 1_555 1_555
N4 C10 1_555 1_555
C11 C7 1_555 1_555
C12 N2 1_555 1_555
O2 C13 1_555 1_555
O3 N5 1_555 1_555
O4 N5 1_555 1_555
O5 N6 1_555 1_555
O6 N6 1_555 1_555
O7 N7 1_555 1_555
O8 N7 1_555 1_555
N5 C14 1_555 1_555
N6 C16 1_555 1_555
N7 C18 1_555 1_555
C13 C14 1_555 1_555
C14 C15 1_555 1_555
C15 C16 1_555 1_555
C16 C17 1_555 1_555
C17 C18 1_555 1_555
C18 C13 1_555 1_555
H1 C1 1_555 1_555
H3 C3 1_555 1_555
H4 C3 1_555 1_555
H5 C5 1_555 1_555
H6 C5 1_555 1_555
H7 C6 1_555 1_555
H8 C6 1_555 1_555
H9 O1 1_555 1_555
H11 C9 1_555 1_555
H12 C9 1_555 1_555
H13 N4 1_555 1_555
H14 N4 1_555 1_555
H15 C12 1_555 1_555
H16 C7 1_555 1_555
H17 C7 1_555 1_555
H18 C15 1_555 1_555
H19 C17 1_555 1_555
C2 C4 1_555 1_555
C10 C11 1_555 1_555
C11 C12 1_555 1_555

#END
