
#######################################################################
#
#                 Cambridge Crystallographic Data Centre
#                                CCDC 
#
#######################################################################
#
# If this CIF has been generated from an entry in the Cambridge 
# Structural Database, then it will include bibliographic, chemical, 
# crystal, experimental, refinement or atomic coordinate data resulting 
# from the CCDC's data processing and validation procedures.
#
#######################################################################

data_GESHIW01
_chemical_formula_moiety         'C17 H21 Cl1 N1 O4 P1,H2 O1'
_chemical_name_systematic        
'Diethyl (((2-chlorophenyl)amino)(2-hydroxyphenyl)methyl)phosphonate monohydrate'
_symmetry_cell_setting           monoclinic
_symmetry_space_group_name_H-M   'P 21/c'
_symmetry_Int_Tables_number      14
_space_group_name_Hall           '-P 2ybc'
loop_
_symmetry_equiv_pos_site_id
_symmetry_equiv_pos_as_xyz
1 x,y,z
2 -x,1/2+y,1/2-z
3 -x,-y,-z
4 x,1/2-y,1/2+z
_cell_length_a                   15.1078(13)
_cell_length_b                   33.094(3)
_cell_length_c                   8.0216(7)
_cell_angle_alpha                90
_cell_angle_beta                 99.880(2)
_cell_angle_gamma                90
_cell_volume                     3951.14
_exptl_crystal_colour            colorless
_exptl_crystal_description       block
_cell_formula_units_Z            8
loop_
_atom_site_label
_atom_site_type_symbol
_atom_site_fract_x
_atom_site_fract_y
_atom_site_fract_z
P1 P 0.04675(6) 0.40570(3) 0.21896(15)
Cl1 Cl 0.11704(8) 0.27764(4) 0.5713(2)
N1 N 0.15610(19) 0.35377(8) 0.4075(4)
H1 H 0.1058 0.3465 0.4347
O1 O 0.25718(16) 0.45116(7) 0.1858(3)
H2 H 0.2985 0.4651 0.1636
O2 O 0.04284(17) 0.44342(8) 0.1217(4)
O3 O -0.00821(19) 0.40505(9) 0.3647(5)
O4 O 0.0109(3) 0.36765(10) 0.1173(5)
C1 C 0.20275(19) 0.42632(10) 0.4250(4)
C2 C 0.25098(19) 0.45565(10) 0.3515(4)
C3 C 0.2893(2) 0.48800(11) 0.4485(5)
H3 H 0.3203 0.5077 0.3994
C4 C 0.2816(3) 0.49103(13) 0.6163(6)
H4 H 0.3080 0.5126 0.6805
C5 C 0.2354(3) 0.46233(15) 0.6889(5)
H5 H 0.2300 0.4645 0.8023
C6 C 0.1967(2) 0.43011(12) 0.5941(5)
H6 H 0.1659 0.4106 0.6450
C7 C 0.1594(2) 0.39163(10) 0.3171(4)
H7 H 0.1945 0.3870 0.2267
C8 C 0.2292(2) 0.32911(10) 0.4514(4)
C9 C 0.2218(2) 0.29221(11) 0.5300(5)
C10 C 0.2942(3) 0.26619(13) 0.5774(6)
H8 H 0.2871 0.2416 0.6300
C11 C 0.3769(3) 0.27815(15) 0.5436(6)
H9 H 0.4265 0.2614 0.5737
C12 C 0.3868(3) 0.31402(14) 0.4669(6)
H10 H 0.4431 0.3216 0.4455
C13 C 0.3144(2) 0.33937(11) 0.4206(5)
H11 H 0.3226 0.3638 0.3677
C14 C -0.0616(5) 0.4375(2) 0.4121(9)
H12 H -0.0456 0.4616 0.3555
H13 H -0.1238 0.4315 0.3653
C15 C -0.0584(5) 0.4467(3) 0.5727(10)
H14 H -0.0753 0.4236 0.6322
H15 H -0.0992 0.4685 0.5818
H16 H 0.0015 0.4548 0.6210
C16 C -0.0259(8) 0.3626(3) -0.0366(9)
H17 H -0.0073 0.3866 -0.0913
H18 H -0.0891 0.3669 -0.0330
C17 C -0.0278(7) 0.3356(3) -0.1508(13)
H19 H 0.0040 0.3452 -0.2369
H20 H -0.0891 0.3300 -0.2001
H21 H 0.0001 0.3114 -0.1012
P2 P 0.53440(6) 0.09619(2) 0.65691(12)
Cl2 Cl 0.59456(6) 0.23965(3) 0.87684(13)
N2 N 0.63640(17) 0.16124(7) 0.7408(3)
H22 H 0.5844 0.1711 0.7466
O5 O 0.74833(15) 0.06026(7) 0.5680(3)
H23 H 0.7822 0.0443 0.5321
O6 O 0.53188(15) 0.05635(6) 0.5775(3)
O7 O 0.46645(18) 0.12851(8) 0.5620(5)
O8 O 0.5071(3) 0.09714(8) 0.8325(4)
C18 C 0.72407(18) 0.08987(9) 0.4517(4)
C19 C 0.7507(2) 0.09019(11) 0.2949(4)
H24 H 0.7852 0.0691 0.2639
C20 C 0.7259(3) 0.12169(13) 0.1852(5)
H25 H 0.7456 0.1222 0.0816
C21 C 0.6727(3) 0.15233(12) 0.2259(5)
H26 H 0.6552 0.1732 0.1496
C22 C 0.6455(2) 0.15197(10) 0.3807(4)
H27 H 0.6096 0.1729 0.4087
C23 C 0.67035(19) 0.12117(8) 0.4961(4)
C24 C 0.6419(2) 0.12120(8) 0.6680(4)
H28 H 0.6865 0.1057 0.7454
C25 C 0.7112(2) 0.18369(9) 0.8002(4)
C26 C 0.7025(2) 0.22169(9) 0.8711(4)
C27 C 0.7749(3) 0.24468(11) 0.9409(5)
H29 H 0.7666 0.2697 0.9891
C28 C 0.8604(3) 0.23013(13) 0.9386(6)
H30 H 0.9104 0.2452 0.9863
C29 C 0.8713(2) 0.19372(12) 0.8664(5)
H31 H 0.9289 0.1844 0.8625
C30 C 0.7986(2) 0.17045(10) 0.7990(4)
H32 H 0.8080 0.1455 0.7518
C31 C 0.3802(4) 0.11980(17) 0.4710(7)
H33 H 0.3865 0.1053 0.3687
H34 H 0.3493 0.1022 0.5389
C32 C 0.3282(4) 0.1537(2) 0.4273(9)
H35 H 0.3317 0.1711 0.5239
H36 H 0.2669 0.1457 0.3899
H37 H 0.3498 0.1678 0.3378
C33 C 0.5160(4) 0.06592(14) 0.9471(5)
H38 H 0.5785 0.0575 0.9685
H39 H 0.4807 0.0432 0.8961
C34 C 0.4890(3) 0.07499(15) 1.1077(5)
H40 H 0.5112 0.1012 1.1459
H41 H 0.5131 0.0550 1.1896
H42 H 0.4246 0.0749 1.0942
O9 O 0.38763(16) 0.49457(7) 0.0958(4)
H43 H 0.3864 0.5158 0.0355
H44 H 0.4252 0.4781 0.0662
O10 O 0.88213(16) 0.01580(8) 0.4874(4)
H45 H 0.8938 -0.0055 0.4357
H46 H 0.9302 0.0292 0.5173
loop_
_geom_bond_atom_site_label_1
_geom_bond_atom_site_label_2
_geom_bond_site_symmetry_1
_geom_bond_site_symmetry_2
P1 O2 1_555 1_555
Cl1 C9 1_555 1_555
N1 H1 1_555 1_555
O1 H2 1_555 1_555
O3 P1 1_555 1_555
O4 P1 1_555 1_555
C1 C2 1_555 1_555
C2 O1 1_555 1_555
C3 C2 1_555 1_555
H3 C3 1_555 1_555
C4 C3 1_555 1_555
H4 C4 1_555 1_555
C5 C4 1_555 1_555
H5 C5 1_555 1_555
C6 C1 1_555 1_555
H6 C6 1_555 1_555
C7 P1 1_555 1_555
H7 C7 1_555 1_555
C8 N1 1_555 1_555
C9 C8 1_555 1_555
C10 C9 1_555 1_555
H8 C10 1_555 1_555
C11 C10 1_555 1_555
H9 C11 1_555 1_555
C12 C11 1_555 1_555
H10 C12 1_555 1_555
C13 C8 1_555 1_555
H11 C13 1_555 1_555
C14 O3 1_555 1_555
H12 C14 1_555 1_555
H13 C14 1_555 1_555
C15 C14 1_555 1_555
H14 C15 1_555 1_555
H15 C15 1_555 1_555
H16 C15 1_555 1_555
C16 O4 1_555 1_555
H17 C16 1_555 1_555
H18 C16 1_555 1_555
C17 C16 1_555 1_555
H19 C17 1_555 1_555
H20 C17 1_555 1_555
H21 C17 1_555 1_555
P2 O6 1_555 1_555
Cl2 C26 1_555 1_555
N2 H22 1_555 1_555
O5 H23 1_555 1_555
O7 P2 1_555 1_555
O8 P2 1_555 1_555
C18 O5 1_555 1_555
C19 C18 1_555 1_555
H24 C19 1_555 1_555
C20 C19 1_555 1_555
H25 C20 1_555 1_555
C21 C20 1_555 1_555
H26 C21 1_555 1_555
C22 C21 1_555 1_555
H27 C22 1_555 1_555
C23 C18 1_555 1_555
C24 P2 1_555 1_555
H28 C24 1_555 1_555
C25 N2 1_555 1_555
C26 C25 1_555 1_555
C27 C26 1_555 1_555
H29 C27 1_555 1_555
C28 C27 1_555 1_555
H30 C28 1_555 1_555
C29 C28 1_555 1_555
H31 C29 1_555 1_555
C30 C25 1_555 1_555
H32 C30 1_555 1_555
C31 O7 1_555 1_555
H33 C31 1_555 1_555
H34 C31 1_555 1_555
C32 C31 1_555 1_555
H35 C32 1_555 1_555
H36 C32 1_555 1_555
H37 C32 1_555 1_555
C33 O8 1_555 1_555
H38 C33 1_555 1_555
H39 C33 1_555 1_555
C34 C33 1_555 1_555
H40 C34 1_555 1_555
H41 C34 1_555 1_555
H42 C34 1_555 1_555
O9 H43 1_555 1_555
H44 O9 1_555 1_555
O10 H45 1_555 1_555
H46 O10 1_555 1_555
N1 C7 1_555 1_555
C1 C7 1_555 1_555
C5 C6 1_555 1_555
C12 C13 1_555 1_555
N2 C24 1_555 1_555
C22 C23 1_555 1_555
C23 C24 1_555 1_555
C29 C30 1_555 1_555

#END
