
#######################################################################
#
#                 Cambridge Crystallographic Data Centre
#                                CCDC 
#
#######################################################################
#
# If this CIF has been generated from an entry in the Cambridge 
# Structural Database, then it will include bibliographic, chemical, 
# crystal, experimental, refinement or atomic coordinate data resulting 
# from the CCDC's data processing and validation procedures.
#
#######################################################################

data_GESJIX
_chemical_formula_moiety         'C18 H12 O4 P2,0.5(C6 H6)'
_chemical_name_systematic        
'Tribenzo(2,3:7,8:9,10)-1,5-diphospha-4,6,11-trioxabicyclo(3.3.3)undeca-2,7,9-trien-5-one benzene solvate'
_symmetry_cell_setting           monoclinic
_symmetry_space_group_name_H-M   'C 2/c'
_symmetry_Int_Tables_number      15
_space_group_name_Hall           '-C 2yn'
loop_
_symmetry_equiv_pos_site_id
_symmetry_equiv_pos_as_xyz
1 x,y,z
2 1/2+x,1/2+y,z
3 -x,y,1/2-z
4 1/2-x,1/2+y,1/2-z
5 -x,-y,-z
6 1/2-x,1/2-y,-z
7 x,-y,1/2+z
8 1/2+x,1/2-y,1/2+z
_cell_length_a                   25.260(1)
_cell_length_b                   13.592(2)
_cell_length_c                   12.027(2)
_cell_angle_alpha                90
_cell_angle_beta                 116.33(2)
_cell_angle_gamma                90
_cell_volume                     3700.88
_exptl_crystal_colour            colorless
_chemical_melting_point          211-212deg.C
_cell_formula_units_Z            8
loop_
_atom_site_label
_atom_site_type_symbol
_atom_site_fract_x
_atom_site_fract_y
_atom_site_fract_z
P1 P 0.64224(4) 0.17746(6) 0.21933(7)
P2 P 0.7003(3) -0.00378(5) 0.08941(7)
O1 O 0.61282(8) 0.1786(1) 0.0841(2)
O2 O 0.70978(8) 0.1912(1) 0.2605(2)
O3 O 0.63588(8) 0.0697(1) 0.2580(2)
O4 O 0.6181(1) 0.2503(2) 0.2712(2)
C1 C 0.6427(1) 0.1833(2) -0.0007(2)
C2 C 0.6811(1) 0.1104(2) 0.0020(2)
C3 C 0.7083(1) 0.1236(2) -0.0759(3)
C4 C 0.6972(2) 0.2041(2) -0.1517(3)
C5 C 0.6579(2) 0.2736(3) -0.1536(3)
C6 C 0.6301(1) 0.2642(2) -0.0776(3)
C7 C 0.7541(1) 0.1196(2) 0.3096(3)
C8 C 0.7535(1) 0.0355(2) 0.2438(3)
C9 C 0.8033(2) -0.0247(3) 0.2995(4)
C10 C 0.8494(2) -0.0020(4) 0.4129(5)
C11 C 0.8466(2) 0.0804(5) 0.4751(4)
C12 C 0.7995(2) 0.1427(3) 0.4240(3)
C13 C 0.6091(1) -0.0081(2) 0.1753(2)
C14 C 0.6325(1) -0.0417(2) 0.0981(2)
C15 C 0.6023(2) -0.1200(2) 0.0207(3)
C16 C 0.5517(2) -0.1595(3) 0.0204(3)
C17 C 0.5315(2) -0.1240(3) 0.1011(4)
C18 C 0.5599(1) -0.0480(3) 0.1789(3)
H1 H 0.7354 0.0752 -0.0764
H2 H 0.7168 0.2115 -0.2027
H3 H 0.6495 0.3287 -0.2073
H4 H 0.6028 0.3126 -0.0783
H5 H 0.8054 -0.0829 0.2581
H6 H 0.8831 -0.0437 0.4476
H7 H 0.8777 0.0945 0.5546
H8 H 0.7979 0.2009 0.4662
H9 H 0.6169 -0.1469 -0.0333
H10 H 0.5311 -0.2110 -0.0356
H11 H 0.4976 -0.1525 0.1030
H12 H 0.5458 -0.0230 0.2346
C19 C 0.00000 0.0988(6) 0.2500
C20 C -0.0233(2) -0.0530(5) 0.3126(4)
C21 C -0.0242(2) 0.0467(6) 0.3144(6)
C22 C 0.00000 -0.1034(5) 0.2500
H13 H 0.00000 0.1666 0.2500
H14 H 0.0000 -0.1859 0.2500
H15 H -0.0399 -0.0882 0.3578
H16 H -0.0413 0.0803 0.3597
C21B C 0.0242(2) 0.0467(6) 0.1856(6)
C20B C 0.0233(2) -0.0530(5) 0.1874(4)
H16B H 0.0413 0.0803 0.1403
H15B H 0.0399 -0.0882 0.1422
loop_
_geom_bond_atom_site_label_1
_geom_bond_atom_site_label_2
_geom_bond_site_symmetry_1
_geom_bond_site_symmetry_2
P1 O1 1_555 1_555
P2 C2 1_555 1_555
O1 C1 1_555 1_555
O2 P1 1_555 1_555
O3 P1 1_555 1_555
O4 P1 1_555 1_555
C1 C2 1_555 1_555
C2 C3 1_555 1_555
C3 C4 1_555 1_555
C4 C5 1_555 1_555
C5 C6 1_555 1_555
C6 C1 1_555 1_555
C7 O2 1_555 1_555
C8 P2 1_555 1_555
C9 C8 1_555 1_555
C10 C9 1_555 1_555
C11 C10 1_555 1_555
C12 C7 1_555 1_555
C13 O3 1_555 1_555
C14 P2 1_555 1_555
C15 C14 1_555 1_555
C16 C15 1_555 1_555
C17 C16 1_555 1_555
C18 C13 1_555 1_555
C19 C21 1_555 1_555
C20 C21 1_555 1_555
C21 H16 1_555 1_555
C22 C20 1_555 1_555
H1 C3 1_555 1_555
H2 C4 1_555 1_555
H3 C5 1_555 1_555
H4 C6 1_555 1_555
H5 C9 1_555 1_555
H6 C10 1_555 1_555
H7 C11 1_555 1_555
H8 C12 1_555 1_555
H9 C15 1_555 1_555
H10 C16 1_555 1_555
H11 C17 1_555 1_555
H12 C18 1_555 1_555
H13 C19 1_555 1_555
H14 C22 1_555 1_555
H15 C20 1_555 1_555
C21B C19 1_555 1_555
C20B C22 1_555 1_555
H16B C21B 1_555 1_555
H15B C20B 1_555 1_555
C7 C8 1_555 1_555
C11 C12 1_555 1_555
C13 C14 1_555 1_555
C17 C18 1_555 1_555
C21B C20B 1_555 1_555

#END
