
#######################################################################
#
#                 Cambridge Crystallographic Data Centre
#                                CCDC 
#
#######################################################################
#
# If this CIF has been generated from an entry in the Cambridge 
# Structural Database, then it will include bibliographic, chemical, 
# crystal, experimental, refinement or atomic coordinate data resulting 
# from the CCDC's data processing and validation procedures.
#
#######################################################################

data_GESLEY
_chemical_formula_moiety         'C30 H21 N1 O5 S2'
_chemical_name_systematic        
'2-phenyl-1-(phenylsulfonyl)-1H-benzo[g]indol-5-yl benzenesulfonate'
_symmetry_cell_setting           monoclinic
_symmetry_space_group_name_H-M   'P 21/c'
_symmetry_Int_Tables_number      14
_space_group_name_Hall           '-P 2ybc'
loop_
_symmetry_equiv_pos_site_id
_symmetry_equiv_pos_as_xyz
1 x,y,z
2 -x,1/2+y,1/2-z
3 -x,-y,-z
4 x,1/2-y,1/2+z
_cell_length_a                   22.0598(19)
_cell_length_b                   7.9717(7)
_cell_length_c                   15.2974(13)
_cell_angle_alpha                90
_cell_angle_beta                 107.656(2)
_cell_angle_gamma                90
_cell_volume                     2563.39
_exptl_crystal_colour            brown
_exptl_crystal_description       block
_cell_formula_units_Z            4
loop_
_atom_site_label
_atom_site_type_symbol
_atom_site_fract_x
_atom_site_fract_y
_atom_site_fract_z
N1 N 0.28046(11) 0.0434(3) 0.23852(18)
O1 O 0.36031(11) -0.1885(3) 0.25477(18)
O2 O 0.25463(11) -0.2583(3) 0.26264(18)
O3 O 0.12396(10) 0.4587(3) 0.36968(17)
O4 O 0.09109(13) 0.6278(3) 0.4745(2)
O5 O 0.20368(12) 0.5544(3) 0.51093(19)
S1 S 0.30721(4) -0.14681(11) 0.28448(7)
S2 S 0.13897(5) 0.50915(11) 0.47577(8)
C1 C 0.33014(15) 0.1648(4) 0.2457(2)
C2 C 0.31618(16) 0.3041(4) 0.2853(3)
H1 H 0.3410 0.4006 0.2975
C3 C 0.25759(15) 0.2827(4) 0.3059(3)
C4 C 0.23448(14) 0.1251(4) 0.2733(2)
C5 C 0.17173(15) 0.0758(4) 0.2692(2)
C6 C 0.13980(16) -0.0671(4) 0.2242(3)
H2 H 0.1607 -0.1401 0.1957
C7 C 0.07889(18) -0.1005(5) 0.2217(3)
H3 H 0.0587 -0.1956 0.1912
C8 C 0.04642(18) 0.0048(5) 0.2637(3)
H4 H 0.0052 -0.0218 0.2629
C9 C 0.07434(16) 0.1460(5) 0.3057(3)
H5 H 0.0523 0.2161 0.3340
C10 C 0.13645(15) 0.1880(4) 0.3072(2)
C11 C 0.16406(16) 0.3453(4) 0.3423(2)
C12 C 0.22161(16) 0.3955(4) 0.3402(2)
H6 H 0.2371 0.5015 0.3608
C13 C 0.38108(16) 0.1391(4) 0.2036(3)
C14 C 0.44101(18) 0.2049(5) 0.2455(3)
H7 H 0.4494 0.2581 0.3021
C15 C 0.4883(2) 0.1923(6) 0.2041(4)
H8 H 0.5283 0.2377 0.2322
C16 C 0.4762(3) 0.1133(7) 0.1220(5)
H9 H 0.5083 0.1035 0.0946
C17 C 0.4174(3) 0.0480(6) 0.0792(4)
H10 H 0.4096 -0.0055 0.0229
C18 C 0.36987(19) 0.0616(5) 0.1197(3)
H11 H 0.3298 0.0180 0.0902
C19 C 0.33254(17) -0.1116(4) 0.4025(3)
C20 C 0.29199(19) -0.1420(5) 0.4536(3)
H12 H 0.2507 -0.1793 0.4256
C21 C 0.3136(3) -0.1162(6) 0.5471(4)
H13 H 0.2869 -0.1373 0.5827
C22 C 0.3739(3) -0.0599(6) 0.5874(3)
H14 H 0.3880 -0.0425 0.6505
C23 C 0.4139(3) -0.0288(6) 0.5366(4)
H15 H 0.4548 0.0106 0.5649
C24 C 0.39354(19) -0.0556(5) 0.4435(3)
H16 H 0.4207 -0.0360 0.4085
C25 C 0.12539(17) 0.3236(4) 0.5265(3)
C26 C 0.06594(19) 0.2930(5) 0.5348(3)
H17 H 0.0338 0.3723 0.5147
C27 C 0.0545(2) 0.1467(6) 0.5723(3)
H18 H 0.0145 0.1259 0.5786
C28 C 0.1015(3) 0.0309(6) 0.6007(4)
H19 H 0.0933 -0.0693 0.6261
C29 C 0.1595(3) 0.0588(6) 0.5925(3)
H20 H 0.1909 -0.0227 0.6122
C30 C 0.17337(19) 0.2068(5) 0.5554(3)
H21 H 0.2137 0.2268 0.5501
loop_
_geom_bond_atom_site_label_1
_geom_bond_atom_site_label_2
_geom_bond_site_symmetry_1
_geom_bond_site_symmetry_2
N1 S1 1_555 1_555
O1 S1 1_555 1_555
O2 S1 1_555 1_555
O3 S2 1_555 1_555
O4 S2 1_555 1_555
O5 S2 1_555 1_555
S1 C19 1_555 1_555
S2 C25 1_555 1_555
C1 N1 1_555 1_555
C2 C1 1_555 1_555
H1 C2 1_555 1_555
C3 C2 1_555 1_555
C4 N1 1_555 1_555
C5 C4 1_555 1_555
C6 C5 1_555 1_555
H2 C6 1_555 1_555
C7 C6 1_555 1_555
H3 C7 1_555 1_555
C8 C7 1_555 1_555
H4 C8 1_555 1_555
C9 C8 1_555 1_555
H5 C9 1_555 1_555
C10 C5 1_555 1_555
C11 O3 1_555 1_555
C12 C3 1_555 1_555
H6 C12 1_555 1_555
C13 C1 1_555 1_555
C14 C13 1_555 1_555
H7 C14 1_555 1_555
C15 C14 1_555 1_555
H8 C15 1_555 1_555
C16 C15 1_555 1_555
H9 C16 1_555 1_555
C17 C16 1_555 1_555
H10 C17 1_555 1_555
C18 C13 1_555 1_555
H11 C18 1_555 1_555
C19 C20 1_555 1_555
C20 H12 1_555 1_555
C21 C20 1_555 1_555
H13 C21 1_555 1_555
C22 C21 1_555 1_555
H14 C22 1_555 1_555
C23 C22 1_555 1_555
H15 C23 1_555 1_555
C24 C19 1_555 1_555
H16 C24 1_555 1_555
C25 C26 1_555 1_555
C26 H17 1_555 1_555
C27 C26 1_555 1_555
H18 C27 1_555 1_555
C28 C27 1_555 1_555
H19 C28 1_555 1_555
C29 C28 1_555 1_555
H20 C29 1_555 1_555
C30 C25 1_555 1_555
H21 C30 1_555 1_555
C3 C4 1_555 1_555
C9 C10 1_555 1_555
C10 C11 1_555 1_555
C11 C12 1_555 1_555
C17 C18 1_555 1_555
C23 C24 1_555 1_555
C29 C30 1_555 1_555

#END
