
#######################################################################
#
#                 Cambridge Crystallographic Data Centre
#                                CCDC 
#
#######################################################################
#
# If this CIF has been generated from an entry in the Cambridge 
# Structural Database, then it will include bibliographic, chemical, 
# crystal, experimental, refinement or atomic coordinate data resulting 
# from the CCDC's data processing and validation procedures.
#
#######################################################################

data_GESLEW
_chemical_formula_moiety         'C33 H36 N6 O3,0.5(H2 O1)'
_chemical_name_systematic        
'Triacetyltribenzylhexa-azaisowurtzitane hemihydrate'
_symmetry_cell_setting           triclinic
_symmetry_space_group_name_H-M   'P -1'
_symmetry_Int_Tables_number      2
_space_group_name_Hall           '-P 1'
loop_
_symmetry_equiv_pos_site_id
_symmetry_equiv_pos_as_xyz
1 x,y,z
2 -x,-y,-z
_cell_length_a                   9.893(2)
_cell_length_b                   12.624(3)
_cell_length_c                   13.396(3)
_cell_angle_alpha                97.17(3)
_cell_angle_beta                 95.26(3)
_cell_angle_gamma                104.18(3)
_cell_volume                     1596.31
_exptl_crystal_colour            colorless
_exptl_crystal_description       Block
_cell_formula_units_Z            2
loop_
_atom_site_label
_atom_site_type_symbol
_atom_site_fract_x
_atom_site_fract_y
_atom_site_fract_z
O1 O 0.8705(3) 0.5751(3) 0.0342(2)
O2 O 0.9327(3) 1.0076(3) 0.1171(2)
O3 O 0.5048(4) 1.0052(2) -0.1716(2)
N1 N 0.4667(3) 0.7312(3) -0.1278(2)
N2 N 0.5847(3) 0.6858(3) 0.0341(2)
N3 N 0.6842(3) 0.7345(2) -0.2028(2)
N4 N 0.7908(3) 0.6928(3) -0.0569(2)
N5 N 0.6388(3) 0.9105(3) -0.0936(2)
N6 N 0.7454(3) 0.8701(3) 0.0467(2)
C1 C 0.5260(4) 0.8319(3) -0.0569(3)
H1 H 0.4516 0.8674 -0.0401
C2 C 0.5991(4) 0.8056(3) 0.0412(3)
H2 H 0.5576 0.8315 0.1002
C3 C 0.6421(4) 0.6414(3) -0.0531(3)
H3 H 0.6259 0.5611 -0.0571
C4 C 0.5696(4) 0.6702(3) -0.1522(3)
H4 H 0.5218 0.6013 -0.1974
C5 C 0.7973(4) 0.7817(3) -0.1191(3)
H5 H 0.8883 0.8004 -0.1449
C6 C 0.7694(4) 0.8891(3) -0.0564(2)
H6 H 0.8483 0.9539 -0.0553
C7 C 0.8952(5) 0.6537(4) -0.0138(3)
C8 C 1.0421(4) 0.7103(4) -0.0291(3)
H7 H 1.0400 0.7686 -0.0684
H8 H 1.0836 0.6578 -0.0643
H9 H 1.0969 0.7408 0.0356
C9 C 0.8255(5) 0.9395(4) 0.1277(3)
C10 C 0.7852(4) 0.9294(3) 0.2322(3)
H10 H 0.6985 0.8735 0.2276
H11 H 0.7738 0.9989 0.2633
H12 H 0.8577 0.9094 0.2725
C11 C 0.6223(5) 0.9864(4) -0.1525(3)
C12 C 0.7465(5) 1.0495(4) -0.1969(3)
H13 H 0.8284 1.0261 -0.1755
H14 H 0.7625 1.1272 -0.1739
H15 H 0.7278 1.0354 -0.2696
C13 C 0.3834(4) 0.7453(3) -0.2182(3)
H16 H 0.4459 0.7811 -0.2628
H17 H 0.3239 0.7931 -0.1988
C14 C 0.2944(4) 0.6383(3) -0.2737(3)
C15 C 0.2132(4) 0.5608(4) -0.2236(3)
H18 H 0.2170 0.5746 -0.1534
C16 C 0.1278(4) 0.4644(4) -0.2767(4)
H19 H 0.0749 0.4132 -0.2417
C17 C 0.1183(5) 0.4413(4) -0.3815(5)
H20 H 0.0593 0.3758 -0.4169
C18 C 0.1976(6) 0.5172(5) -0.4318(4)
H21 H 0.1921 0.5038 -0.5021
C19 C 0.2841(5) 0.6117(4) -0.3790(3)
H22 H 0.3390 0.6611 -0.4145
C20 C 0.6152(4) 0.6426(3) 0.1285(3)
H23 H 0.7068 0.6848 0.1625
H24 H 0.6182 0.5663 0.1121
C21 C 0.5050(4) 0.6493(3) 0.1993(3)
C22 C 0.3693(5) 0.6432(3) 0.1624(3)
H25 H 0.3453 0.6389 0.0930
C23 C 0.2674(5) 0.6431(4) 0.2259(4)
H26 H 0.1748 0.6378 0.2006
C24 C 0.3075(6) 0.6513(4) 0.3289(4)
H27 H 0.2417 0.6547 0.3736
C25 C 0.4400(6) 0.6544(5) 0.3656(4)
H28 H 0.4631 0.6559 0.4348
C26 C 0.5416(5) 0.6555(4) 0.3018(3)
H29 H 0.6338 0.6603 0.3277
C27 C 0.7297(4) 0.6605(3) -0.2823(3)
H30 H 0.7816 0.6152 -0.2501
H31 H 0.6477 0.6117 -0.3245
C28 C 0.8200(5) 0.7284(3) -0.3463(3)
C29 C 0.7665(5) 0.7928(4) -0.4100(3)
H32 H 0.6729 0.7940 -0.4101
C30 C 0.8451(6) 0.8539(4) -0.4722(4)
H33 H 0.8062 0.8949 -0.5144
C31 C 0.9848(7) 0.8521(5) -0.4695(4)
H34 H 1.0418 0.8936 -0.5097
C32 C 1.0397(5) 0.7902(4) -0.4088(4)
H35 H 1.1334 0.7892 -0.4083
C33 C 0.9579(5) 0.7301(4) -0.3489(3)
H36 H 0.9975 0.6883 -0.3080
O4 O 0.5660(9) 1.0457(8) -0.5322(7)
loop_
_geom_bond_atom_site_label_1
_geom_bond_atom_site_label_2
_geom_bond_site_symmetry_1
_geom_bond_site_symmetry_2
O1 C7 1_555 1_555
O2 C9 1_555 1_555
O3 C11 1_555 1_555
N1 C1 1_555 1_555
N2 C2 1_555 1_555
N3 C4 1_555 1_555
N4 C3 1_555 1_555
N5 C1 1_555 1_555
N6 C2 1_555 1_555
C1 H1 1_555 1_555
C2 C1 1_555 1_555
H2 C2 1_555 1_555
C3 N2 1_555 1_555
H3 C3 1_555 1_555
C4 N1 1_555 1_555
H4 C4 1_555 1_555
C5 N3 1_555 1_555
H5 C5 1_555 1_555
C6 N5 1_555 1_555
H6 C6 1_555 1_555
C7 N4 1_555 1_555
C8 C7 1_555 1_555
H7 C8 1_555 1_555
H8 C8 1_555 1_555
H9 C8 1_555 1_555
C9 N6 1_555 1_555
C10 C9 1_555 1_555
H10 C10 1_555 1_555
H11 C10 1_555 1_555
H12 C10 1_555 1_555
C11 N5 1_555 1_555
C12 C11 1_555 1_555
H13 C12 1_555 1_555
H14 C12 1_555 1_555
H15 C12 1_555 1_555
C13 N1 1_555 1_555
H16 C13 1_555 1_555
H17 C13 1_555 1_555
C14 C13 1_555 1_555
C15 C14 1_555 1_555
H18 C15 1_555 1_555
C16 C15 1_555 1_555
H19 C16 1_555 1_555
C17 C16 1_555 1_555
H20 C17 1_555 1_555
C18 C17 1_555 1_555
H21 C18 1_555 1_555
C19 C14 1_555 1_555
H22 C19 1_555 1_555
C20 N2 1_555 1_555
H23 C20 1_555 1_555
H24 C20 1_555 1_555
C21 C20 1_555 1_555
C22 C21 1_555 1_555
H25 C22 1_555 1_555
C23 C22 1_555 1_555
H26 C23 1_555 1_555
C24 C23 1_555 1_555
H27 C24 1_555 1_555
C25 C24 1_555 1_555
H28 C25 1_555 1_555
C26 C21 1_555 1_555
H29 C26 1_555 1_555
C27 N3 1_555 1_555
H30 C27 1_555 1_555
H31 C27 1_555 1_555
C28 C27 1_555 1_555
C29 C28 1_555 1_555
H32 C29 1_555 1_555
C30 C29 1_555 1_555
H33 C30 1_555 1_555
C31 C30 1_555 1_555
H34 C31 1_555 1_555
C32 C31 1_555 1_555
H35 C32 1_555 1_555
C33 C28 1_555 1_555
H36 C33 1_555 1_555
N4 C5 1_555 1_555
N6 C6 1_555 1_555
C3 C4 1_555 1_555
C5 C6 1_555 1_555
C18 C19 1_555 1_555
C25 C26 1_555 1_555
C32 C33 1_555 1_555

#END
