
#######################################################################
#
#                 Cambridge Crystallographic Data Centre
#                                CCDC 
#
#######################################################################
#
# If this CIF has been generated from an entry in the Cambridge 
# Structural Database, then it will include bibliographic, chemical, 
# crystal, experimental, refinement or atomic coordinate data resulting 
# from the CCDC's data processing and validation procedures.
#
#######################################################################

data_GESMID
_chemical_formula_moiety         'C86 H102 Mg2 N10 O2 S1,C1 H2 Cl2'
_chemical_name_systematic        
'{\m-2,8,12,18-tetraethyl-3,7,13,17-tetramethyl-5-[6-(2,8,12,18-tetraethyl-3,7,13,17-tetramethylporphyrin-5-yl)dibenzo[b,d]thiophen-4-yl]porphyrinato}-bis((S)-2-amino-3-methylbutan-1-ol)-di-magnesium dichloromethane solvate'
_symmetry_cell_setting           orthorhombic
_symmetry_space_group_name_H-M   'P 21 21 21'
_symmetry_Int_Tables_number      19
_space_group_name_Hall           'P 2ac 2ab'
loop_
_symmetry_equiv_pos_site_id
_symmetry_equiv_pos_as_xyz
1 x,y,z
2 1/2-x,-y,1/2+z
3 1/2+x,1/2-y,-z
4 -x,1/2+y,1/2-z
_cell_length_a                   13.2365(9)
_cell_length_b                   24.3662(18)
_cell_length_c                   24.5110(17)
_cell_angle_alpha                90
_cell_angle_beta                 90
_cell_angle_gamma                90
_cell_volume                     7905.37
_exptl_crystal_colour            'dark red'
_exptl_crystal_description       block
_cell_formula_units_Z            4
loop_
_atom_site_label
_atom_site_type_symbol
_atom_site_fract_x
_atom_site_fract_y
_atom_site_fract_z
Mg1 Mg -1.00293(14) 0.00005(9) -0.41471(8)
Mg2 Mg -1.06096(14) -0.00065(9) -0.09031(8)
S1 S -0.97291(12) 0.15228(6) -0.25194(6)
O1 O -1.0582(3) -0.02308(17) -0.17142(16)
O2 O -0.9962(3) -0.02382(18) -0.33389(16)
N1 N -0.8733(4) 0.0484(2) -0.4113(2)
N2 N -1.1437(4) 0.0712(2) -0.10283(19)
N3 N -1.1911(4) -0.0396(2) -0.0629(2)
N4 N -0.9200(4) -0.0618(2) -0.45334(19)
N5 N -1.1326(4) -0.0384(2) -0.44390(19)
N6 N -0.9780(4) -0.0620(2) -0.0512(2)
N7 N -0.9305(3) 0.0467(2) -0.0954(2)
N8 N -1.0871(4) 0.0711(2) -0.4016(2)
N9 N -1.1291(4) 0.0275(2) -0.2683(2)
H1 H -1.0641 0.0199 -0.2678
H2 H -1.1522 0.0539 -0.2895
N10 N -0.8911(4) -0.0043(2) -0.2345(2)
H3 H -0.9562 0.0028 -0.2330
H4 H -0.8494 0.0121 -0.2117
C1 C -1.1085(5) 0.1212(3) -0.1213(2)
C2 C -0.8651(5) 0.0987(3) -0.3871(2)
C3 C -1.1953(4) 0.1570(3) -0.1336(2)
C4 C -0.7594(5) 0.1105(3) -0.3734(3)
C5 C -0.7065(5) 0.0660(3) -0.3921(3)
C6 C -1.2796(5) 0.1274(3) -0.1216(3)
C7 C -1.2472(4) 0.0740(3) -0.1028(2)
C8 C -0.7775(4) 0.0276(3) -0.4150(3)
C9 C -1.3123(4) 0.0314(3) -0.0879(2)
H5 H -1.3824 0.0393 -0.0908
C10 C -0.7520(5) -0.0239(3) -0.4365(2)
H6 H -0.6819 -0.0319 -0.4385
C11 C -1.2885(4) -0.0208(3) -0.0696(2)
C12 C -0.8163(4) -0.0646(3) -0.4550(2)
C13 C -1.3593(5) -0.0628(3) -0.0535(2)
C14 C -0.7861(5) -0.1173(3) -0.4784(3)
C15 C -1.3044(5) -0.1071(3) -0.0373(3)
C16 C -0.8725(5) -0.1441(3) -0.4917(2)
C17 C -1.1995(5) -0.0918(3) -0.0417(2)
C18 C -0.9553(5) -0.1089(3) -0.4754(2)
C19 C -1.1168(5) -0.1228(3) -0.0257(2)
H7 H -1.1321 -0.1576 -0.0103
C20 C -1.0578(5) -0.1221(3) -0.4805(2)
H8 H -1.0728 -0.1567 -0.4964
C21 C -1.1404(5) -0.0903(3) -0.4649(2)
C22 C -1.0150(5) -0.1102(3) -0.0290(2)
C23 C -1.2460(5) -0.1060(3) -0.4707(2)
C24 C -0.9321(5) -0.1450(3) -0.0117(3)
C25 C -1.3015(4) -0.0623(3) -0.4555(3)
C26 C -0.8450(5) -0.1179(3) -0.0237(3)
C27 C -1.2310(4) -0.0197(3) -0.4382(2)
C28 C -0.8751(5) -0.0659(3) -0.0482(2)
C29 C -1.2551(5) 0.0322(3) -0.4186(2)
H9 H -1.3252 0.0400 -0.4157
C30 C -0.8103(5) -0.0247(3) -0.0667(2)
H10 H -0.7401 -0.0324 -0.0636
C31 C -1.1906(4) 0.0743(3) -0.4027(2)
C32 C -0.8345(4) 0.0261(3) -0.0891(2)
C33 C -0.7616(5) 0.0656(3) -0.1079(3)
C34 C -1.2244(5) 0.1281(3) -0.3862(3)
C35 C -0.8132(5) 0.1112(3) -0.1250(3)
C36 C -1.1391(5) 0.1577(3) -0.3747(3)
C37 C -1.0521(4) 0.1218(2) -0.3844(2)
C38 C -0.9218(5) 0.0988(3) -0.1167(2)
C39 C -0.9489(5) 0.1343(3) -0.3773(3)
C40 C -1.0047(4) 0.1340(3) -0.1267(2)
C41 C -1.1969(5) 0.2152(3) -0.1549(3)
H11 H -1.2670 0.2274 -0.1592
H12 H -1.1627 0.2167 -0.1904
H13 H -1.1620 0.2394 -0.1291
C42 C -0.7124(5) 0.1576(3) -0.3435(3)
H14 H -0.6413 0.1493 -0.3359
H15 H -0.7483 0.1635 -0.3090
H16 H -0.7168 0.1908 -0.3659
C43 C -1.3872(5) 0.1454(3) -0.1267(3)
H17 H -1.3928 0.1840 -0.1144
H18 H -1.4295 0.1227 -0.1022
C44 C -0.5934(5) 0.0569(3) -0.3866(3)
H19 H -0.5576 0.0921 -0.3919
H20 H -0.5705 0.0311 -0.4153
C45 C -1.4278(5) 0.1409(4) -0.1844(3)
H21 H -1.4992 0.1516 -0.1849
H22 H -1.4212 0.1030 -0.1972
H23 H -1.3894 0.1653 -0.2085
C46 C -0.5667(6) 0.0333(3) -0.3301(3)
H24 H -0.4932 0.0292 -0.3272
H25 H -0.5989 -0.0026 -0.3257
H26 H -0.5908 0.0583 -0.3017
C47 C -0.6785(5) -0.1377(3) -0.4860(3)
H27 H -0.6316 -0.1060 -0.4844
H28 H -0.6720 -0.1546 -0.5226
C48 C -1.4730(5) -0.0595(3) -0.0551(3)
H29 H -1.4935 -0.0205 -0.0550
H30 H -1.5007 -0.0768 -0.0218
C49 C -0.6484(6) -0.1799(3) -0.4423(3)
H31 H -0.5797 -0.1931 -0.4495
H32 H -0.6955 -0.2109 -0.4432
H33 H -0.6507 -0.1626 -0.4062
C50 C -1.5175(5) -0.0873(3) -0.1045(3)
H34 H -1.5905 -0.0808 -0.1055
H35 H -1.5045 -0.1269 -0.1025
H36 H -1.4864 -0.0724 -0.1376
C51 C -0.8817(5) -0.1998(3) -0.5179(3)
H37 H -0.8184 -0.2089 -0.5366
H38 H -0.9371 -0.1994 -0.5444
H39 H -0.8955 -0.2274 -0.4898
C52 C -1.3421(5) -0.1619(3) -0.0190(3)
H40 H -1.4095 -0.1579 -0.0031
H41 H -1.2959 -0.1770 0.0084
H42 H -1.3455 -0.1869 -0.0503
C53 C -1.2832(5) -0.1611(3) -0.4880(3)
H43 H -1.3546 -0.1585 -0.4984
H44 H -1.2759 -0.1871 -0.4578
H45 H -1.2437 -0.1739 -0.5194
C54 C -0.9425(5) -0.2000(3) 0.0158(3)
H46 H -0.8785 -0.2097 0.0334
H47 H -0.9597 -0.2279 -0.0115
H48 H -0.9961 -0.1981 0.0433
C55 C -1.4148(5) -0.0576(3) -0.4550(3)
H49 H -1.4428 -0.0784 -0.4862
H50 H -1.4338 -0.0186 -0.4598
C56 C -0.7388(5) -0.1374(3) -0.0141(3)
H51 H -0.7334 -0.1516 0.0237
H52 H -0.6921 -0.1058 -0.0174
C57 C -1.4616(5) -0.0790(3) -0.4024(3)
H53 H -1.5354 -0.0774 -0.4052
H54 H -1.4391 -0.0563 -0.3717
H55 H -1.4404 -0.1170 -0.3965
C58 C -0.7061(5) -0.1822(3) -0.0538(3)
H56 H -0.6374 -0.1941 -0.0448
H57 H -0.7076 -0.1677 -0.0911
H58 H -0.7524 -0.2134 -0.0509
C59 C -0.6497(4) 0.0574(3) -0.1091(3)
H59 H -0.6301 0.0317 -0.0797
H60 H -0.6158 0.0929 -0.1022
C60 C -1.3313(5) 0.1473(3) -0.3814(3)
H61 H -1.3751 0.1235 -0.4040
H62 H -1.3362 0.1851 -0.3960
C61 C -1.3696(5) 0.1468(3) -0.3227(3)
H63 H -1.4390 0.1608 -0.3216
H64 H -1.3262 0.1702 -0.3001
H65 H -1.3681 0.1092 -0.3086
C62 C -0.6145(6) 0.0350(4) -0.1630(3)
H66 H -0.5409 0.0303 -0.1622
H67 H -0.6327 0.0606 -0.1922
H68 H -0.6467 -0.0006 -0.1696
C63 C -0.7622(5) 0.1601(3) -0.1485(3)
H69 H -0.6889 0.1564 -0.1441
H70 H -0.7855 0.1932 -0.1296
H71 H -0.7785 0.1629 -0.1874
C64 C -1.1426(5) 0.2175(3) -0.3578(3)
H72 H -1.2119 0.2312 -0.3614
H73 H -1.0976 0.2389 -0.3813
H74 H -1.1207 0.2209 -0.3198
C65 C -0.9782(5) 0.1904(3) -0.1448(3)
C66 C -0.9254(5) 0.1902(3) -0.3555(3)
C67 C -0.9624(4) 0.2013(3) -0.2002(3)
C68 C -0.9349(4) 0.2003(2) -0.3000(3)
C69 C -0.9151(5) 0.2526(2) -0.2777(3)
C70 C -0.9326(5) 0.2531(3) -0.2193(3)
C71 C -0.9198(5) 0.2953(3) -0.1817(3)
H75 H -0.8999 0.3307 -0.1938
C72 C -0.8840(5) 0.2947(3) -0.3120(3)
H76 H -0.8703 0.3300 -0.2975
C73 C -0.8731(6) 0.2850(3) -0.3670(3)
H77 H -0.8511 0.3138 -0.3904
C74 C -0.9358(6) 0.2859(3) -0.1270(3)
H78 H -0.9271 0.3147 -0.1014
C75 C -0.8942(5) 0.2334(3) -0.3887(3)
H79 H -0.8873 0.2276 -0.4268
C76 C -0.9651(5) 0.2335(3) -0.1091(3)
H80 H -0.9761 0.2276 -0.0712
C77 C -1.1397(5) -0.0464(3) -0.2020(2)
H81 H -1.1857 -0.0658 -0.1767
H82 H -1.1121 -0.0738 -0.2278
C78 C -0.9379(5) -0.0662(3) -0.3094(3)
H83 H -0.9097 -0.0900 -0.3384
H84 H -0.9822 -0.0890 -0.2861
C79 C -1.1995(5) -0.0041(3) -0.2338(2)
H85 H -1.2321 0.0216 -0.2073
C80 C -0.8519(5) -0.0436(3) -0.2751(3)
H86 H -0.8055 -0.0230 -0.3000
C81 C -1.2824(5) -0.0303(3) -0.2690(3)
H87 H -1.3069 -0.0014 -0.2947
C82 C -0.7895(7) -0.0888(3) -0.2468(3)
H88 H -0.7350 -0.0700 -0.2256
C83 C -1.3723(5) -0.0476(3) -0.2343(3)
H89 H -1.4275 -0.0596 -0.2582
H90 H -1.3949 -0.0165 -0.2122
H91 H -1.3524 -0.0780 -0.2104
C84 C -0.7365(8) -0.1257(4) -0.2896(4)
H92 H -0.6854 -0.1484 -0.2715
H93 H -0.7039 -0.1026 -0.3171
H94 H -0.7866 -0.1494 -0.3072
C85 C -1.2460(5) -0.0783(3) -0.3037(3)
H95 H -1.2979 -0.0877 -0.3306
H96 H -1.2330 -0.1101 -0.2802
H97 H -1.1836 -0.0680 -0.3226
C86 C -0.8499(8) -0.1232(4) -0.2061(4)
H98 H -0.8851 -0.0988 -0.1806
H99 H -0.8038 -0.1472 -0.1858
H100 H -0.8994 -0.1456 -0.2258
C87 C -0.6259(10) 0.2631(5) -0.2388(5)
H101 H -0.6272 0.2226 -0.2424
H102 H -0.6968 0.2760 -0.2374
Cl1 Cl -0.5690(5) 0.2903(2) -0.2952(2)
Cl2 Cl -0.5658(4) 0.28038(16) -0.1770(2)
loop_
_geom_bond_atom_site_label_1
_geom_bond_atom_site_label_2
_geom_bond_site_symmetry_1
_geom_bond_site_symmetry_2
Mg1 O2 1_555 1_555
Mg2 O1 1_555 1_555
S1 C67 1_555 1_555
O1 C77 1_555 1_555
O2 C78 1_555 1_555
N1 Mg1 1_555 1_555
N2 Mg2 1_555 1_555
N3 Mg2 1_555 1_555
N4 Mg1 1_555 1_555
N5 Mg1 1_555 1_555
N6 Mg2 1_555 1_555
N7 Mg2 1_555 1_555
N8 Mg1 1_555 1_555
N9 H1 1_555 1_555
H2 N9 1_555 1_555
N10 H3 1_555 1_555
H4 N10 1_555 1_555
C1 N2 1_555 1_555
C2 N1 1_555 1_555
C3 C1 1_555 1_555
C4 C2 1_555 1_555
C5 C4 1_555 1_555
C6 C3 1_555 1_555
C7 N2 1_555 1_555
C8 N1 1_555 1_555
C9 C7 1_555 1_555
H5 C9 1_555 1_555
C10 C8 1_555 1_555
H6 C10 1_555 1_555
C11 N3 1_555 1_555
C12 N4 1_555 1_555
C13 C11 1_555 1_555
C14 C12 1_555 1_555
C15 C13 1_555 1_555
C16 C14 1_555 1_555
C17 N3 1_555 1_555
C18 N4 1_555 1_555
C19 C17 1_555 1_555
H7 C19 1_555 1_555
C20 C18 1_555 1_555
H8 C20 1_555 1_555
C21 N5 1_555 1_555
C22 N6 1_555 1_555
C23 C21 1_555 1_555
C24 C22 1_555 1_555
C25 C23 1_555 1_555
C26 C24 1_555 1_555
C27 N5 1_555 1_555
C28 N6 1_555 1_555
C29 C27 1_555 1_555
H9 C29 1_555 1_555
C30 C28 1_555 1_555
H10 C30 1_555 1_555
C31 N8 1_555 1_555
C32 N7 1_555 1_555
C33 C32 1_555 1_555
C34 C31 1_555 1_555
C35 C33 1_555 1_555
C36 C34 1_555 1_555
C37 N8 1_555 1_555
C38 N7 1_555 1_555
C39 C2 1_555 1_555
C40 C1 1_555 1_555
C41 C3 1_555 1_555
H11 C41 1_555 1_555
H12 C41 1_555 1_555
H13 C41 1_555 1_555
C42 C4 1_555 1_555
H14 C42 1_555 1_555
H15 C42 1_555 1_555
H16 C42 1_555 1_555
C43 C6 1_555 1_555
H17 C43 1_555 1_555
H18 C43 1_555 1_555
C44 C5 1_555 1_555
H19 C44 1_555 1_555
H20 C44 1_555 1_555
C45 C43 1_555 1_555
H21 C45 1_555 1_555
H22 C45 1_555 1_555
H23 C45 1_555 1_555
C46 C44 1_555 1_555
H24 C46 1_555 1_555
H25 C46 1_555 1_555
H26 C46 1_555 1_555
C47 C14 1_555 1_555
H27 C47 1_555 1_555
H28 C47 1_555 1_555
C48 C13 1_555 1_555
H29 C48 1_555 1_555
H30 C48 1_555 1_555
C49 C47 1_555 1_555
H31 C49 1_555 1_555
H32 C49 1_555 1_555
H33 C49 1_555 1_555
C50 C48 1_555 1_555
H34 C50 1_555 1_555
H35 C50 1_555 1_555
H36 C50 1_555 1_555
C51 C16 1_555 1_555
H37 C51 1_555 1_555
H38 C51 1_555 1_555
H39 C51 1_555 1_555
C52 C15 1_555 1_555
H40 C52 1_555 1_555
H41 C52 1_555 1_555
H42 C52 1_555 1_555
C53 C23 1_555 1_555
H43 C53 1_555 1_555
H44 C53 1_555 1_555
H45 C53 1_555 1_555
C54 C24 1_555 1_555
H46 C54 1_555 1_555
H47 C54 1_555 1_555
H48 C54 1_555 1_555
C55 C25 1_555 1_555
H49 C55 1_555 1_555
H50 C55 1_555 1_555
C56 C26 1_555 1_555
H51 C56 1_555 1_555
H52 C56 1_555 1_555
C57 C55 1_555 1_555
H53 C57 1_555 1_555
H54 C57 1_555 1_555
H55 C57 1_555 1_555
C58 C56 1_555 1_555
H56 C58 1_555 1_555
H57 C58 1_555 1_555
H58 C58 1_555 1_555
C59 C33 1_555 1_555
H59 C59 1_555 1_555
H60 C59 1_555 1_555
C60 C34 1_555 1_555
H61 C60 1_555 1_555
H62 C60 1_555 1_555
C61 C60 1_555 1_555
H63 C61 1_555 1_555
H64 C61 1_555 1_555
H65 C61 1_555 1_555
C62 C59 1_555 1_555
H66 C62 1_555 1_555
H67 C62 1_555 1_555
H68 C62 1_555 1_555
C63 C35 1_555 1_555
H69 C63 1_555 1_555
H70 C63 1_555 1_555
H71 C63 1_555 1_555
C64 C36 1_555 1_555
H72 C64 1_555 1_555
H73 C64 1_555 1_555
H74 C64 1_555 1_555
C65 C40 1_555 1_555
C66 C39 1_555 1_555
C67 C65 1_555 1_555
C68 S1 1_555 1_555
C69 C68 1_555 1_555
C70 C67 1_555 1_555
C71 C70 1_555 1_555
H75 C71 1_555 1_555
C72 C69 1_555 1_555
H76 C72 1_555 1_555
C73 C72 1_555 1_555
H77 C73 1_555 1_555
C74 C71 1_555 1_555
H78 C74 1_555 1_555
C75 C66 1_555 1_555
H79 C75 1_555 1_555
C76 C65 1_555 1_555
H80 C76 1_555 1_555
C77 H81 1_555 1_555
H82 C77 1_555 1_555
C78 H83 1_555 1_555
H84 C78 1_555 1_555
C79 N9 1_555 1_555
H85 C79 1_555 1_555
C80 N10 1_555 1_555
H86 C80 1_555 1_555
C81 C79 1_555 1_555
H87 C81 1_555 1_555
C82 C80 1_555 1_555
H88 C82 1_555 1_555
C83 C81 1_555 1_555
H89 C83 1_555 1_555
H90 C83 1_555 1_555
H91 C83 1_555 1_555
C84 C82 1_555 1_555
H92 C84 1_555 1_555
H93 C84 1_555 1_555
H94 C84 1_555 1_555
C85 C81 1_555 1_555
H95 C85 1_555 1_555
H96 C85 1_555 1_555
H97 C85 1_555 1_555
C86 C82 1_555 1_555
H98 C86 1_555 1_555
H99 C86 1_555 1_555
H100 C86 1_555 1_555
C87 H101 1_555 1_555
H102 C87 1_555 1_555
Cl1 C87 1_555 1_555
Cl2 C87 1_555 1_555
C5 C8 1_555 1_555
C6 C7 1_555 1_555
C9 C11 1_555 1_555
C10 C12 1_555 1_555
C15 C17 1_555 1_555
C16 C18 1_555 1_555
C19 C22 1_555 1_555
C20 C21 1_555 1_555
C25 C27 1_555 1_555
C26 C28 1_555 1_555
C29 C31 1_555 1_555
C30 C32 1_555 1_555
C35 C38 1_555 1_555
C36 C37 1_555 1_555
C37 C39 1_555 1_555
C38 C40 1_555 1_555
C66 C68 1_555 1_555
C69 C70 1_555 1_555
C73 C75 1_555 1_555
C74 C76 1_555 1_555
C77 C79 1_555 1_555
C78 C80 1_555 1_555

#END
