
#######################################################################
#
#                 Cambridge Crystallographic Data Centre
#                                CCDC 
#
#######################################################################
#
# If this CIF has been generated from an entry in the Cambridge 
# Structural Database, then it will include bibliographic, chemical, 
# crystal, experimental, refinement or atomic coordinate data resulting 
# from the CCDC's data processing and validation procedures.
#
#######################################################################

data_GESSUU
_chemical_formula_moiety         'C22 H20 Br1 F3 N2 O4'
_chemical_name_systematic        
'Methyl 3-(4-bromophenyl)-1-(4-methoxyphenyl)-5-oxo-2-(trifluoromethyl)tetrahydro-1H,5H-pyrazolo[1,2-a]pyrazole-2-carboxylate'
_symmetry_cell_setting           triclinic
_symmetry_space_group_name_H-M   'P -1'
_symmetry_Int_Tables_number      2
_space_group_name_Hall           '-P 1'
loop_
_symmetry_equiv_pos_site_id
_symmetry_equiv_pos_as_xyz
1 x,y,z
2 -x,-y,-z
_cell_length_a                   10.5494(9)
_cell_length_b                   13.6348(12)
_cell_length_c                   16.5368(15)
_cell_angle_alpha                71.153(2)
_cell_angle_beta                 80.677(2)
_cell_angle_gamma                87.062(2)
_cell_volume                     2221.37
_exptl_crystal_colour            colorless
_exptl_crystal_description       prismatic
_cell_formula_units_Z            4
loop_
_atom_site_label
_atom_site_type_symbol
_atom_site_fract_x
_atom_site_fract_y
_atom_site_fract_z
Br1 Br 0.85725(4) 0.48596(3) 0.46144(3)
F1 F 0.2556(2) 0.15832(19) 0.70721(14)
F2 F 0.4559(2) 0.1409(2) 0.66371(15)
F3 F 0.3623(2) 0.28767(17) 0.61866(15)
N1 N 0.1997(2) 0.2105(2) 0.44540(18)
N2 N 0.3312(3) 0.2441(2) 0.41261(19)
O1 O 0.4559(3) 0.3037(3) 0.28014(18)
O2 O 0.3275(3) -0.0022(2) 0.5289(2)
O3 O 0.2656(4) -0.0095(2) 0.6647(2)
O4 O -0.2891(3) 0.0335(3) 0.7265(2)
C1 C 0.3503(4) 0.2862(3) 0.3263(2)
C2 C 0.2192(4) 0.3061(3) 0.3001(3)
H1 H 0.2001 0.2581 0.2714
H2 H 0.2125 0.3764 0.2618
C3 C 0.1289(4) 0.2891(3) 0.3855(2)
H3 H 0.1172 0.3522 0.4010
H4 H 0.0457 0.2635 0.3835
C4 C 0.1848(3) 0.2105(2) 0.5350(2)
H5 H 0.1856 0.2824 0.5348
C5 C 0.3155(3) 0.1570(2) 0.5617(2)
C6 C 0.4160(3) 0.1982(3) 0.4762(2)
H6 H 0.4568 0.1377 0.4632
C7 C 0.5213(3) 0.2715(2) 0.4713(2)
C8 C 0.6373(3) 0.2297(3) 0.4964(2)
H7 H 0.6473 0.1582 0.5158
C9 C 0.7381(3) 0.2927(3) 0.4931(2)
H8 H 0.8153 0.2644 0.5102
C10 C 0.7212(3) 0.3979(3) 0.4639(2)
C11 C 0.6082(3) 0.4417(3) 0.4369(2)
H9 H 0.5994 0.5133 0.4161
C12 C 0.5083(3) 0.3775(3) 0.4413(3)
H10 H 0.4315 0.4063 0.4238
C13 C 0.3477(4) 0.1860(3) 0.6381(2)
C14 C 0.3046(4) 0.0393(3) 0.5830(3)
C15 C 0.2559(7) -0.1212(4) 0.6877(4)
H11 H 0.1928 -0.1380 0.6585
H12 H 0.2309 -0.1505 0.7491
H13 H 0.3377 -0.1489 0.6708
C16 C 0.0608(3) 0.1614(3) 0.5859(2)
C17 C 0.0069(4) 0.0795(3) 0.5715(3)
H14 H 0.0498 0.0531 0.5293
C18 C -0.1084(4) 0.0354(3) 0.6179(3)
H15 H -0.1422 -0.0197 0.6068
C19 C -0.1729(4) 0.0734(3) 0.6802(3)
C20 C -0.1215(4) 0.1561(3) 0.6953(3)
H16 H -0.1650 0.1823 0.7375
C21 C -0.0077(3) 0.1995(3) 0.6488(2)
H17 H 0.0248 0.2556 0.6593
C22 C -0.3535(7) -0.0432(5) 0.7079(5)
H18 H -0.3742 -0.0160 0.6503
H19 H -0.4311 -0.0631 0.7485
H20 H -0.2989 -0.1027 0.7121
Br2 Br 1.41746(5) 0.63935(4) 0.29049(3)
F4 F 0.9122(3) 0.7414(2) 0.1888(2)
F5 F 1.0527(3) 0.8085(2) 0.0763(2)
F6 F 0.8555(3) 0.8537(2) 0.0794(2)
N3 N 0.7668(3) 0.5437(2) 0.1094(2)
N4 N 0.8735(3) 0.5130(2) 0.1568(2)
O5 O 0.9485(3) 0.3628(2) 0.2461(2)
O6 O 0.9542(12) 0.6505(8) -0.0677(6)
O7 O 0.9108(4) 0.8133(3) -0.0698(2)
O8 O 0.3886(4) 0.8529(3) -0.1145(3)
C23 C 0.8646(4) 0.4137(3) 0.2089(3)
C24 C 0.7301(4) 0.3805(3) 0.2126(3)
H21 H 0.6906 0.3470 0.2719
H22 H 0.7288 0.3329 0.1800
C25 C 0.6608(4) 0.4813(3) 0.1720(4)
H23 H 0.5927 0.4699 0.1430
H24 H 0.6253 0.5140 0.2148
C26 C 0.7612(3) 0.6544(3) 0.0952(3)
H25 H 0.7340 0.6640 0.1517
C27 C 0.9073(3) 0.6866(3) 0.0663(2)
C28 C 0.9805(3) 0.5804(3) 0.1055(2)
H26 H 1.0163 0.5548 0.0576
C29 C 1.0878(3) 0.5840(3) 0.1547(2)
C30 C 1.2116(3) 0.6039(3) 0.1100(2)
H27 H 1.2273 0.6083 0.0520
C31 C 1.3113(4) 0.6173(3) 0.1491(3)
H28 H 1.3938 0.6313 0.1182
C32 C 1.2867(4) 0.6097(3) 0.2352(3)
C33 C 1.1658(4) 0.5838(3) 0.2825(3)
H29 H 1.1512 0.5750 0.3414
C34 C 1.0677(4) 0.5711(3) 0.2420(2)
H30 H 0.9863 0.5536 0.2737
C35 C 0.9330(4) 0.7734(3) 0.1024(3)
C36 C 0.9477(5) 0.7201(4) -0.0324(3)
C37 C 0.9374(6) 0.8549(6) -0.1617(4)
H31 H 1.0117 0.8213 -0.1827
H32 H 0.9534 0.9279 -0.1784
H33 H 0.8650 0.8433 -0.1860
C38 C 0.6641(3) 0.7083(3) 0.0382(3)
C39 C 0.6404(4) 0.6788(3) -0.0299(3)
H34 H 0.6874 0.6252 -0.0435
C40 C 0.5462(5) 0.7289(4) -0.0787(3)
H35 H 0.5300 0.7069 -0.1237
C41 C 0.4772(4) 0.8094(3) -0.0621(3)
C42 C 0.4999(4) 0.8398(3) 0.0051(3)
H36 H 0.4543 0.8951 0.0169
C43 C 0.5900(4) 0.7891(3) 0.0555(3)
H37 H 0.6018 0.8092 0.1024
C44 C 0.3127(6) 0.9350(6) -0.0995(5)
H38 H 0.2581 0.9103 -0.0447
H39 H 0.2610 0.9617 -0.1445
H40 H 0.3674 0.9890 -0.0992
O9? O 1.0437(10) 0.6947(11) -0.0704(6)
loop_
_geom_bond_atom_site_label_1
_geom_bond_atom_site_label_2
_geom_bond_site_symmetry_1
_geom_bond_site_symmetry_2
Br1 C10 1_555 1_555
Br2 C32 1_555 1_555
F1 C13 1_555 1_555
F2 C13 1_555 1_555
F3 C13 1_555 1_555
F4 C35 1_555 1_555
F5 C35 1_555 1_555
F6 C35 1_555 1_555
N1 N2 1_555 1_555
N2 C1 1_555 1_555
N3 N4 1_555 1_555
N4 C23 1_555 1_555
O1 C1 1_555 1_555
O2 C14 1_555 1_555
O3 C14 1_555 1_555
O4 C19 1_555 1_555
O5 C23 1_555 1_555
O6 C36 1_555 1_555
O7 C36 1_555 1_555
O8 C41 1_555 1_555
C1 C2 1_555 1_555
C2 H1 1_555 1_555
H2 C2 1_555 1_555
C3 N1 1_555 1_555
H3 C3 1_555 1_555
H4 C3 1_555 1_555
C4 N1 1_555 1_555
H5 C4 1_555 1_555
C5 C4 1_555 1_555
C6 N2 1_555 1_555
H6 C6 1_555 1_555
C7 C6 1_555 1_555
C8 C7 1_555 1_555
H7 C8 1_555 1_555
C9 C8 1_555 1_555
H8 C9 1_555 1_555
C10 C9 1_555 1_555
C11 C10 1_555 1_555
H9 C11 1_555 1_555
C12 C7 1_555 1_555
H10 C12 1_555 1_555
C13 C5 1_555 1_555
C14 C5 1_555 1_555
C15 O3 1_555 1_555
H11 C15 1_555 1_555
H12 C15 1_555 1_555
H13 C15 1_555 1_555
C16 C4 1_555 1_555
C17 C16 1_555 1_555
H14 C17 1_555 1_555
C18 C17 1_555 1_555
H15 C18 1_555 1_555
C19 C18 1_555 1_555
C20 C19 1_555 1_555
H16 C20 1_555 1_555
C21 C16 1_555 1_555
H17 C21 1_555 1_555
C22 O4 1_555 1_555
H18 C22 1_555 1_555
H19 C22 1_555 1_555
H20 C22 1_555 1_555
C23 C24 1_555 1_555
C24 H21 1_555 1_555
H22 C24 1_555 1_555
C25 N3 1_555 1_555
H23 C25 1_555 1_555
H24 C25 1_555 1_555
C26 N3 1_555 1_555
H25 C26 1_555 1_555
C27 C26 1_555 1_555
C28 N4 1_555 1_555
H26 C28 1_555 1_555
C29 C28 1_555 1_555
C30 C29 1_555 1_555
H27 C30 1_555 1_555
C31 C30 1_555 1_555
H28 C31 1_555 1_555
C32 C31 1_555 1_555
C33 C32 1_555 1_555
H29 C33 1_555 1_555
C34 C29 1_555 1_555
H30 C34 1_555 1_555
C35 C27 1_555 1_555
C36 C27 1_555 1_555
C37 O7 1_555 1_555
H31 C37 1_555 1_555
H32 C37 1_555 1_555
H33 C37 1_555 1_555
C38 C26 1_555 1_555
C39 C38 1_555 1_555
H34 C39 1_555 1_555
C40 C39 1_555 1_555
H35 C40 1_555 1_555
C41 C40 1_555 1_555
C42 C41 1_555 1_555
H36 C42 1_555 1_555
C43 C38 1_555 1_555
H37 C43 1_555 1_555
C44 O8 1_555 1_555
H38 C44 1_555 1_555
H39 C44 1_555 1_555
H40 C44 1_555 1_555
C2 C3 1_555 1_555
C5 C6 1_555 1_555
C11 C12 1_555 1_555
C20 C21 1_555 1_555
C24 C25 1_555 1_555
C27 C28 1_555 1_555
C33 C34 1_555 1_555
C42 C43 1_555 1_555

#END
