
#######################################################################
#
#                 Cambridge Crystallographic Data Centre
#                                CCDC 
#
#######################################################################
#
# If this CIF has been generated from an entry in the Cambridge 
# Structural Database, then it will include bibliographic, chemical, 
# crystal, experimental, refinement or atomic coordinate data resulting 
# from the CCDC's data processing and validation procedures.
#
#######################################################################

data_GESTAB
_chemical_formula_moiety         'C27 H22 F3 N3 O5'
_chemical_name_systematic        
'Methyl 3-benzoyl-2-(4-nitrophenyl)-1-(trifluoromethyl)-1,2,3,5,6,10b-hexahydropyrazolo[5,1-a]isoquinoline-1-carboxylate'
_symmetry_cell_setting           monoclinic
_symmetry_space_group_name_H-M   'P 21/c'
_symmetry_Int_Tables_number      14
_space_group_name_Hall           '-P 2ybc'
loop_
_symmetry_equiv_pos_site_id
_symmetry_equiv_pos_as_xyz
1 x,y,z
2 -x,1/2+y,1/2-z
3 -x,-y,-z
4 x,1/2-y,1/2+z
_cell_length_a                   12.7385(12)
_cell_length_b                   7.9031(8)
_cell_length_c                   24.135(2)
_cell_angle_alpha                90
_cell_angle_beta                 93.390(2)
_cell_angle_gamma                90
_cell_volume                     2425.51
_exptl_crystal_colour            colorless
_exptl_crystal_description       prismatic
_cell_formula_units_Z            4
loop_
_atom_site_label
_atom_site_type_symbol
_atom_site_fract_x
_atom_site_fract_y
_atom_site_fract_z
F1 F 0.20957(9) -0.13255(15) 0.23957(5)
F2 F 0.08059(9) -0.17645(15) 0.18116(4)
F3 F 0.06443(9) -0.00573(17) 0.24860(5)
N1 N 0.34900(10) 0.16846(19) 0.18248(6)
N2 N 0.34071(10) 0.03985(18) 0.14197(6)
N3 N 0.27379(16) 0.2386(2) 0.44481(7)
O1 O 0.42749(10) 0.40815(19) 0.21205(6)
O2 O 0.35465(15) 0.1939(3) 0.46930(7)
O3 O 0.19822(15) 0.2909(3) 0.46825(6)
O4 O -0.01734(12) 0.1195(2) 0.14960(10)
O5 O 0.08092(10) 0.34518(18) 0.14579(6)
C1 C 0.24890(12) 0.2110(2) 0.20733(7)
H1 H 0.2313 0.3269 0.1958
C2 C 0.16649(12) 0.0925(2) 0.17599(7)
C3 C 0.23044(12) 0.0423(2) 0.12289(7)
H2 H 0.2225 0.1386 0.0974
C4 C 0.19930(13) -0.1122(2) 0.08878(6)
C5 C 0.26763(14) -0.2481(2) 0.08545(7)
C6 C 0.37584(15) -0.2447(3) 0.11349(9)
H3 H 0.4260 -0.2134 0.0866
H4 H 0.3938 -0.3573 0.1269
C7 C 0.38475(14) -0.1227(3) 0.16119(8)
H5 H 0.3463 -0.1652 0.1918
H6 H 0.4579 -0.1088 0.1739
C8 C 0.23581(17) -0.3862(3) 0.05219(8)
H7 H 0.2799 -0.4794 0.0502
C9 C 0.14068(18) -0.3859(3) 0.02262(8)
H8 H 0.1208 -0.4789 0.0008
C10 C 0.07462(16) -0.2499(3) 0.02490(8)
H9 H 0.0105 -0.2494 0.0044
C11 C 0.10394(14) -0.1141(3) 0.05774(7)
H10 H 0.0591 -0.0216 0.0592
C12 C 0.42797(13) 0.2838(3) 0.18211(7)
C13 C 0.51702(13) 0.2449(2) 0.14625(7)
C14 C 0.61459(14) 0.2097(3) 0.17087(8)
H11 H 0.6234 0.2017 0.2093
C15 C 0.69896(16) 0.1865(3) 0.13911(11)
H12 H 0.7648 0.1631 0.1561
C16 C 0.6867(2) 0.1974(3) 0.08282(12)
H13 H 0.7441 0.1809 0.0613
C17 C 0.5901(2) 0.2325(4) 0.05805(10)
H14 H 0.5822 0.2410 0.0196
C18 C 0.50421(17) 0.2554(3) 0.08931(9)
H15 H 0.4384 0.2776 0.0722
C19 C 0.25649(12) 0.2106(2) 0.27024(7)
C20 C 0.17941(13) 0.2947(2) 0.29796(7)
H16 H 0.1244 0.3473 0.2776
C21 C 0.18291(14) 0.3017(2) 0.35496(7)
H17 H 0.1300 0.3551 0.3733
C22 C 0.26677(14) 0.2274(2) 0.38401(7)
C23 C 0.34480(14) 0.1445(2) 0.35796(7)
H18 H 0.4006 0.0946 0.3785
C24 C 0.33892(13) 0.1365(2) 0.30084(7)
H19 H 0.3912 0.0806 0.2827
C25 C 0.06568(13) 0.1856(3) 0.15605(8)
C26 C -0.01024(17) 0.4410(3) 0.12536(9)
H20 H -0.0363 0.3956 0.0903
H21 H 0.0092 0.5573 0.1207
H22 H -0.0640 0.4337 0.1515
C27 C 0.13120(14) -0.0573(3) 0.21088(7)
loop_
_geom_bond_atom_site_label_1
_geom_bond_atom_site_label_2
_geom_bond_site_symmetry_1
_geom_bond_site_symmetry_2
F1 C27 1_555 1_555
F2 C27 1_555 1_555
F3 C27 1_555 1_555
N1 N2 1_555 1_555
N2 C3 1_555 1_555
N3 O2 1_555 1_555
O1 C12 1_555 1_555
O3 N3 1_555 1_555
O4 C25 1_555 1_555
O5 C25 1_555 1_555
C1 N1 1_555 1_555
H1 C1 1_555 1_555
C2 C1 1_555 1_555
C3 C2 1_555 1_555
H2 C3 1_555 1_555
C4 C3 1_555 1_555
C5 C4 1_555 1_555
C6 C5 1_555 1_555
H3 C6 1_555 1_555
H4 C6 1_555 1_555
C7 N2 1_555 1_555
H5 C7 1_555 1_555
H6 C7 1_555 1_555
C8 C5 1_555 1_555
H7 C8 1_555 1_555
C9 C8 1_555 1_555
H8 C9 1_555 1_555
C10 C9 1_555 1_555
H9 C10 1_555 1_555
C11 C4 1_555 1_555
H10 C11 1_555 1_555
C12 N1 1_555 1_555
C13 C12 1_555 1_555
C14 C13 1_555 1_555
H11 C14 1_555 1_555
C15 C14 1_555 1_555
H12 C15 1_555 1_555
C16 C15 1_555 1_555
H13 C16 1_555 1_555
C17 C16 1_555 1_555
H14 C17 1_555 1_555
C18 C13 1_555 1_555
H15 C18 1_555 1_555
C19 C1 1_555 1_555
C20 C19 1_555 1_555
H16 C20 1_555 1_555
C21 C20 1_555 1_555
H17 C21 1_555 1_555
C22 N3 1_555 1_555
C23 C22 1_555 1_555
H18 C23 1_555 1_555
C24 C19 1_555 1_555
H19 C24 1_555 1_555
C25 C2 1_555 1_555
C26 O5 1_555 1_555
H20 C26 1_555 1_555
H21 C26 1_555 1_555
H22 C26 1_555 1_555
C27 C2 1_555 1_555
C6 C7 1_555 1_555
C10 C11 1_555 1_555
C17 C18 1_555 1_555
C21 C22 1_555 1_555
C23 C24 1_555 1_555

#END
