
#######################################################################
#
#                 Cambridge Crystallographic Data Centre
#                                CCDC 
#
#######################################################################
#
# If this CIF has been generated from an entry in the Cambridge 
# Structural Database, then it will include bibliographic, chemical, 
# crystal, experimental, refinement or atomic coordinate data resulting 
# from the CCDC's data processing and validation procedures.
#
#######################################################################

data_GESWOS
_chemical_formula_moiety         'C17 H13 Cl1 N2 O4'
_chemical_name_systematic        
2-Chloro-3-formyl-9,10-dimethoxy-4-oxo-6,7-dihydro-4H-pyrido[2,1-a]isoquinoline-1-carbonitrile
_symmetry_cell_setting           monoclinic
_symmetry_space_group_name_H-M   'P 21/c'
_symmetry_Int_Tables_number      14
_space_group_name_Hall           '-P 2ybc'
loop_
_symmetry_equiv_pos_site_id
_symmetry_equiv_pos_as_xyz
1 x,y,z
2 -x,1/2+y,1/2-z
3 -x,-y,-z
4 x,1/2-y,1/2+z
_cell_length_a                   23.5106(6)
_cell_length_b                   17.7940(4)
_cell_length_c                   7.2843(2)
_cell_angle_alpha                90
_cell_angle_beta                 90.1421(9)
_cell_angle_gamma                90
_cell_volume                     3047.36
_exptl_crystal_colour            yellow
_exptl_crystal_description       platelet
_cell_formula_units_Z            8
loop_
_atom_site_label
_atom_site_type_symbol
_atom_site_fract_x
_atom_site_fract_y
_atom_site_fract_z
Cl1 Cl 0.69968(7) 0.08998(12) 0.2731(3)
O1 O 0.95918(19) -0.1601(3) 0.2969(7)
N1 N 0.8783(2) 0.1635(3) 0.3628(7)
O2 O 1.05775(19) -0.1006(3) 0.2232(7)
O3 O 0.8492(2) 0.2740(3) 0.4805(7)
C1 C 0.9184(3) 0.0403(4) 0.2909(8)
C2 C 0.9709(3) 0.0713(4) 0.2497(9)
C3 C 1.0136(3) -0.0502(4) 0.2417(9)
C4 C 0.9138(3) -0.0387(4) 0.3099(9)
C5 C 0.7779(3) 0.1917(4) 0.3834(9)
C6 C 0.8117(3) 0.0680(4) 0.2877(9)
C7 C 0.8355(3) 0.2133(4) 0.4149(10)
C8 C 0.7679(3) 0.1193(4) 0.3176(9)
C9 C 0.8676(3) 0.0903(4) 0.3132(8)
C10 C 1.1134(3) -0.0694(4) 0.2038(10)
C11 C 0.9605(3) -0.0834(4) 0.2834(10)
C12 C 0.9372(3) 0.1938(4) 0.3704(10)
N2 N 0.7817(3) -0.0617(5) 0.1739(11)
C13 C 0.9749(3) 0.1553(4) 0.2296(10)
O4 O 0.6845(3) 0.2414(4) 0.4151(11)
C14 C 1.0180(3) 0.0260(4) 0.2292(9)
C15 C 0.7963(3) -0.0036(5) 0.2237(11)
C16 C 0.9056(4) -0.1945(5) 0.3192(15)
C17 C 0.7348(4) 0.2502(5) 0.4131(12)
H1 H 0.878(3) -0.060(4) 0.341(9)
H2 H 1.141(3) -0.109(4) 0.191(8)
H3 H 1.122(3) -0.040(4) 0.311(10)
H4 H 1.114(3) -0.038(4) 0.097(9)
H5 H 0.936(2) 0.247(4) 0.351(8)
H6 H 0.952393 0.183208 0.490073
H7 H 1.013884 0.170846 0.240395
H8 H 0.960735 0.168445 0.110137
H9 H 1.054(3) 0.049(4) 0.204(8)
H10 H 0.909789 -0.248147 0.325545
H11 H 0.882401 -0.181692 0.215094
H12 H 0.887733 -0.176720 0.429326
H13 H 0.748(3) 0.300(5) 0.432(10)
Cl2 Cl 0.72121(9) -0.25165(13) 0.6598(3)
O5 O 0.42723(17) -0.1214(3) 0.8623(6)
O6 O 0.39824(19) 0.0138(3) 0.7990(7)
C18 C 0.5261(3) -0.0952(4) 0.7951(9)
N3 N 0.6674(2) -0.0124(3) 0.7361(7)
C19 C 0.4700(3) -0.0754(4) 0.8103(9)
O7 O 0.7600(2) 0.0261(4) 0.7463(9)
C20 C 0.5515(3) 0.0310(4) 0.7096(9)
C21 C 0.5674(3) -0.0435(4) 0.7403(8)
C22 C 0.4545(3) 0.0003(4) 0.7750(9)
C23 C 0.5976(3) 0.0853(4) 0.6604(10)
N4 N 0.5748(3) -0.2419(4) 0.5671(9)
C24 C 0.3779(3) 0.0893(4) 0.7945(10)
C25 C 0.4952(3) 0.0523(4) 0.7270(9)
C26 C 0.6045(3) -0.1971(4) 0.6241(10)
C27 C 0.6437(3) -0.1405(4) 0.6854(9)
C28 C 0.6270(3) -0.0672(4) 0.7201(8)
C29 C 0.6517(3) 0.0672(4) 0.7673(10)
C30 C 0.4380(3) -0.1976(4) 0.8790(11)
C31 C 0.7268(3) -0.0264(5) 0.7330(12)
C32 C 0.7034(3) -0.1598(4) 0.6900(10)
C33 C 0.7426(3) -0.1054(6) 0.7143(12)
O8 O 0.8334(5) -0.1706(7) 0.7434(16)
C34 C 0.8029(8) -0.1048(11) 0.745(3)
H14 H 0.536910 -0.145939 0.822681
H15 H 0.605519 0.079444 0.531919
H16 H 0.585059 0.135737 0.683577
H17 H 0.337554 0.089248 0.813735
H18 H 0.386223 0.110978 0.676916
H19 H 0.396082 0.118249 0.889108
H20 H 0.484616 0.103581 0.704692
H21 H 0.643850 0.074097 0.895453
H22 H 0.682565 0.099277 0.731684
H23 H 0.403981 -0.223024 0.916959
H24 H 0.467545 -0.206187 0.967802
H25 H 0.449810 -0.216640 0.761768
H26 H 0.822100 -0.058000 0.766400
loop_
_geom_bond_atom_site_label_1
_geom_bond_atom_site_label_2
_geom_bond_site_symmetry_1
_geom_bond_site_symmetry_2
Cl1 C8 1_555 1_555
O1 C11 1_555 1_555
N1 C7 1_555 1_555
O2 C3 1_555 1_555
O3 C7 1_555 1_555
C1 C2 1_555 1_555
C2 C13 1_555 1_555
C3 C11 1_555 1_555
C4 C1 1_555 1_555
C5 C7 1_555 1_555
C6 C8 1_555 1_555
C8 C5 1_555 1_555
C9 N1 1_555 1_555
C10 O2 1_555 1_555
C11 C4 1_555 1_555
C12 N1 1_555 1_555
N2 C15 1_555 1_555
C13 C12 1_555 1_555
O4 C17 1_555 1_555
C14 C2 1_555 1_555
C15 C6 1_555 1_555
C16 O1 1_555 1_555
C17 C5 1_555 1_555
H1 C4 1_555 1_555
H2 C10 1_555 1_555
H3 C10 1_555 1_555
H4 C10 1_555 1_555
H5 C12 1_555 1_555
H6 C12 1_555 1_555
H7 C13 1_555 1_555
H8 C13 1_555 1_555
H9 C14 1_555 1_555
H10 C16 1_555 1_555
H11 C16 1_555 1_555
H12 C16 1_555 1_555
H13 C17 1_555 1_555
Cl2 C32 1_555 1_555
O5 C19 1_555 1_555
O6 C22 1_555 1_555
C18 C19 1_555 1_555
N3 C28 1_555 1_555
C19 C22 1_555 1_555
O7 C31 1_555 1_555
C20 C21 1_555 1_555
C21 C18 1_555 1_555
C22 C25 1_555 1_555
C23 C20 1_555 1_555
N4 C26 1_555 1_555
C24 O6 1_555 1_555
C25 C20 1_555 1_555
C26 C27 1_555 1_555
C27 C28 1_555 1_555
C28 C21 1_555 1_555
C29 N3 1_555 1_555
C30 O5 1_555 1_555
C31 N3 1_555 1_555
C32 C27 1_555 1_555
C33 C31 1_555 1_555
O8 C34 1_555 1_555
C34 C33 1_555 1_555
H14 C18 1_555 1_555
H15 C23 1_555 1_555
H16 C23 1_555 1_555
H17 C24 1_555 1_555
H18 C24 1_555 1_555
H19 C24 1_555 1_555
H20 C25 1_555 1_555
H21 C29 1_555 1_555
H22 C29 1_555 1_555
H23 C30 1_555 1_555
H24 C30 1_555 1_555
H25 C30 1_555 1_555
H26 C34 1_555 1_555
C1 C9 1_555 1_555
C3 C14 1_555 1_555
C6 C9 1_555 1_555
C23 C29 1_555 1_555
C32 C33 1_555 1_555

#END
