
#######################################################################
#
#                 Cambridge Crystallographic Data Centre
#                                CCDC 
#
#######################################################################
#
# If this CIF has been generated from an entry in the Cambridge 
# Structural Database, then it will include bibliographic, chemical, 
# crystal, experimental, refinement or atomic coordinate data resulting 
# from the CCDC's data processing and validation procedures.
#
#######################################################################

data_GESXIN
_chemical_formula_moiety         'C25 H22 N2 O4'
_chemical_name_systematic        
3-((2-(5-(Benzyloxy)pyridin-3-yl)cyclopropyl)carbonyl)-4-phenyl-1,3-oxazolidin-2-one
_symmetry_cell_setting           monoclinic
_symmetry_space_group_name_H-M   'P 21'
_symmetry_Int_Tables_number      4
_space_group_name_Hall           'P 2yb'
loop_
_symmetry_equiv_pos_site_id
_symmetry_equiv_pos_as_xyz
1 x,y,z
2 -x,1/2+y,-z
_cell_length_a                   6.2608(2)
_cell_length_b                   27.9762(20)
_cell_length_c                   11.5615(4)
_cell_angle_alpha                90
_cell_angle_beta                 90.002(6)
_cell_angle_gamma                90
_cell_volume                     2025.04
_exptl_crystal_colour            colorless
_exptl_crystal_description       rod
_cell_formula_units_Z            4
loop_
_atom_site_label
_atom_site_type_symbol
_atom_site_fract_x
_atom_site_fract_y
_atom_site_fract_z
O1 O -0.2320(9) 0.65010(18) 0.9803(5)
O2 O 0.2625(10) 0.82071(19) 0.6083(5)
O3 O -0.2103(10) 0.8816(2) 0.8243(5)
O4 O 0.0639(10) 0.9302(2) 0.8650(5)
N1 N -0.6052(12) 0.7016(2) 0.7681(6)
N2 N 0.1187(11) 0.8757(2) 0.7266(6)
C1 C -0.3409(15) 0.5855(3) 1.2421(7)
C2 C -0.2277(16) 0.5614(3) 1.3244(8)
C3 C -0.0217(16) 0.5455(3) 1.3063(8)
C4 C 0.0742(15) 0.5533(3) 1.1997(7)
C5 C -0.0422(15) 0.5780(3) 1.1151(8)
C6 C -0.2466(15) 0.5939(3) 1.1348(7)
C7 C -0.3743(14) 0.6192(3) 1.0424(7)
C8 C -0.3205(15) 0.6753(3) 0.8888(7)
C9 C -0.5297(15) 0.6753(3) 0.8593(7)
C10 C -0.4640(14) 0.7259(3) 0.7051(7)
C11 C -0.2448(15) 0.7264(3) 0.7276(7)
C12 C -0.1714(16) 0.6997(3) 0.8202(7)
C13 C -0.0875(15) 0.7536(3) 0.6560(6)
C14 C -0.1482(17) 0.7797(3) 0.5486(8)
C15 C -0.1036(15) 0.8080(3) 0.6561(8)
C16 C 0.1026(14) 0.8340(3) 0.6594(8)
C17 C -0.0249(17) 0.8939(3) 0.8074(8)
C18 C 0.2903(14) 0.9341(3) 0.8354(7)
C19 C 0.3219(13) 0.9025(3) 0.7274(7)
C20 C 0.3575(14) 0.9314(3) 0.6181(7)
C21 C 0.1956(14) 0.9413(3) 0.5387(7)
C22 C 0.2356(17) 0.9695(3) 0.4420(8)
C23 C 0.4383(15) 0.9870(3) 0.4226(7)
C24 C 0.6018(15) 0.9762(3) 0.5009(7)
C25 C 0.5625(14) 0.9487(3) 0.5979(7)
H1 H -0.4817 0.5964 1.2578
H2 H -0.2933 0.5552 1.3970
H3 H 0.0537 0.5295 1.3661
H4 H 0.2148 0.5422 1.1845
H5 H 0.0220 0.5838 1.0421
H6 H -0.4387 0.5955 0.9891
H7 H -0.4907 0.6380 1.0781
H8 H -0.6269 0.6564 0.9030
H9 H -0.5153 0.7439 0.6412
H10 H -0.0231 0.6979 0.8369
H11 H 0.0613 0.7406 0.6569
H12 H -0.2984 0.7773 0.5226
H13 H -0.0417 0.7811 0.4854
H14 H -0.2280 0.8228 0.6969
H15 H 0.3804 0.9226 0.9001
H16 H 0.3285 0.9677 0.8183
H17 H 0.4440 0.8800 0.7398
H18 H 0.0565 0.9286 0.5509
H19 H 0.1236 0.9767 0.3894
H20 H 0.4668 1.0062 0.3567
H21 H 0.7419 0.9880 0.4872
H22 H 0.6747 0.9417 0.6506
O5 O 0.0652(9) 0.63727(19) 0.5364(5)
O6 O 0.5963(10) 0.45661(18) 0.8875(5)
O7 O 0.1520(10) 0.3893(2) 0.6655(5)
O8 O 0.4352(9) 0.34338(19) 0.6327(5)
N3 N -0.2724(12) 0.5761(2) 0.7373(6)
N4 N 0.4746(11) 0.4013(2) 0.7646(6)
C26 C 0.4941(16) 0.6939(3) 0.3796(8)
C27 C 0.5321(18) 0.7201(3) 0.2777(8)
C28 C 0.3727(17) 0.7228(3) 0.1941(9)
C29 C 0.1779(17) 0.6995(3) 0.2117(8)
C30 C 0.1415(16) 0.6733(3) 0.3125(8)
C31 C 0.3047(15) 0.6702(3) 0.3950(8)
C32 C 0.2829(13) 0.6392(3) 0.5023(7)
C33 C 0.0168(14) 0.6069(3) 0.6276(7)
C34 C -0.1983(14) 0.6041(3) 0.6527(7)
C35 C -0.1311(14) 0.5504(3) 0.7980(7)
C36 C 0.0883(14) 0.5510(3) 0.7786(7)
C37 C 0.1661(14) 0.5809(3) 0.6914(7)
C38 C 0.2390(15) 0.5219(3) 0.8458(7)
C39 C 0.1739(16) 0.4894(3) 0.9426(7)
C40 C 0.2371(14) 0.4664(3) 0.8293(7)
C41 C 0.4451(14) 0.4425(3) 0.8301(7)
C42 C 0.3336(15) 0.3793(3) 0.6852(7)
C43 C 0.6623(13) 0.3439(3) 0.6606(7)
C44 C 0.6800(13) 0.3763(3) 0.7687(7)
C45 C 0.7133(13) 0.3481(3) 0.8799(7)
C46 C 0.5494(15) 0.3396(3) 0.9591(7)
C47 C 0.5905(16) 0.3112(3) 1.0565(8)
C48 C 0.7929(15) 0.2912(3) 1.0740(8)
C49 C 0.9507(17) 0.3005(3) 0.9954(8)
C50 C 0.9125(14) 0.3286(3) 0.8989(7)
H23 H 0.6005 0.6926 0.4381
H24 H 0.6650 0.7358 0.2661
H25 H 0.3963 0.7404 0.1251
H26 H 0.0692 0.7016 0.1546
H27 H 0.0084 0.6578 0.3249
H28 H 0.3355 0.6065 0.4857
H29 H 0.3702 0.6527 0.5658
H30 H -0.2963 0.6227 0.6088
H31 H -0.1840 0.5306 0.8582
H32 H 0.3147 0.5835 0.6761
H33 H 0.3845 0.5362 0.8544
H34 H 0.0208 0.4888 0.9640
H35 H 0.2735 0.4860 1.0086
H36 H 0.1214 0.4522 0.7805
H37 H 0.7464 0.3572 0.5956
H38 H 0.7143 0.3113 0.6778
H39 H 0.7992 0.3997 0.7583
H40 H 0.4115 0.3529 0.9472
H41 H 0.4801 0.3055 1.1112
H42 H 0.8200 0.2714 1.1393
H43 H 1.0891 0.2874 1.0071
H44 H 1.0246 0.3346 0.8454
loop_
_geom_bond_atom_site_label_1
_geom_bond_atom_site_label_2
_geom_bond_site_symmetry_1
_geom_bond_site_symmetry_2
O1 C7 1_555 1_555
O2 C16 1_555 1_555
O3 C17 1_555 1_555
O4 C17 1_555 1_555
N1 C9 1_555 1_555
N2 C16 1_555 1_555
C1 C2 1_555 1_555
C2 C3 1_555 1_555
C3 C4 1_555 1_555
C4 C5 1_555 1_555
C5 C6 1_555 1_555
C6 C1 1_555 1_555
C7 C6 1_555 1_555
C8 O1 1_555 1_555
C9 C8 1_555 1_555
C10 N1 1_555 1_555
C11 C10 1_555 1_555
C12 C8 1_555 1_555
C13 C11 1_555 1_555
C14 C13 1_555 1_555
C15 C13 1_555 1_555
C16 C15 1_555 1_555
C17 N2 1_555 1_555
C18 O4 1_555 1_555
C19 N2 1_555 1_555
C20 C19 1_555 1_555
C21 C20 1_555 1_555
C22 C21 1_555 1_555
C23 C22 1_555 1_555
C24 C23 1_555 1_555
C25 C20 1_555 1_555
H1 C1 1_555 1_555
H2 C2 1_555 1_555
H3 C3 1_555 1_555
H4 C4 1_555 1_555
H5 C5 1_555 1_555
H6 C7 1_555 1_555
H7 C7 1_555 1_555
H8 C9 1_555 1_555
H9 C10 1_555 1_555
H10 C12 1_555 1_555
H11 C13 1_555 1_555
H12 C14 1_555 1_555
H13 C14 1_555 1_555
H14 C15 1_555 1_555
H15 C18 1_555 1_555
H16 C18 1_555 1_555
H17 C19 1_555 1_555
H18 C21 1_555 1_555
H19 C22 1_555 1_555
H20 C23 1_555 1_555
H21 C24 1_555 1_555
H22 C25 1_555 1_555
O5 C32 1_555 1_555
O6 C41 1_555 1_555
O7 C42 1_555 1_555
O8 C42 1_555 1_555
N3 C34 1_555 1_555
N4 C41 1_555 1_555
C26 C27 1_555 1_555
C27 C28 1_555 1_555
C28 C29 1_555 1_555
C29 C30 1_555 1_555
C30 C31 1_555 1_555
C31 C26 1_555 1_555
C32 C31 1_555 1_555
C33 O5 1_555 1_555
C34 C33 1_555 1_555
C35 N3 1_555 1_555
C36 C35 1_555 1_555
C37 C33 1_555 1_555
C38 C36 1_555 1_555
C39 C38 1_555 1_555
C40 C38 1_555 1_555
C41 C40 1_555 1_555
C42 N4 1_555 1_555
C43 O8 1_555 1_555
C44 N4 1_555 1_555
C45 C44 1_555 1_555
C46 C45 1_555 1_555
C47 C46 1_555 1_555
C48 C47 1_555 1_555
C49 C48 1_555 1_555
C50 C45 1_555 1_555
H23 C26 1_555 1_555
H24 C27 1_555 1_555
H25 C28 1_555 1_555
H26 C29 1_555 1_555
H27 C30 1_555 1_555
H28 C32 1_555 1_555
H29 C32 1_555 1_555
H30 C34 1_555 1_555
H31 C35 1_555 1_555
H32 C37 1_555 1_555
H33 C38 1_555 1_555
H34 C39 1_555 1_555
H35 C39 1_555 1_555
H36 C40 1_555 1_555
H37 C43 1_555 1_555
H38 C43 1_555 1_555
H39 C44 1_555 1_555
H40 C46 1_555 1_555
H41 C47 1_555 1_555
H42 C48 1_555 1_555
H43 C49 1_555 1_555
H44 C50 1_555 1_555
C11 C12 1_555 1_555
C14 C15 1_555 1_555
C18 C19 1_555 1_555
C24 C25 1_555 1_555
C36 C37 1_555 1_555
C39 C40 1_555 1_555
C43 C44 1_555 1_555
C49 C50 1_555 1_555

#END
