
#######################################################################
#
#                 Cambridge Crystallographic Data Centre
#                                CCDC 
#
#######################################################################
#
# If this CIF has been generated from an entry in the Cambridge 
# Structural Database, then it will include bibliographic, chemical, 
# crystal, experimental, refinement or atomic coordinate data resulting 
# from the CCDC's data processing and validation procedures.
#
#######################################################################

data_GESZAH
_chemical_formula_moiety         'C19 H20 Cl1 F3 N4 O4 S1'
_chemical_name_systematic        
N^2^-((4-Chlorophenyl)sulfonyl)-5,5,5-trifluoro-N^2^-((3-(1,2,4-oxadiazol-3-yl)bicyclo[1.1.1]pent-1-yl)methyl)norvalinamide
_symmetry_cell_setting           monoclinic
_symmetry_space_group_name_H-M   'P 21'
_symmetry_Int_Tables_number      4
_space_group_name_Hall           'P 2yb'
loop_
_symmetry_equiv_pos_site_id
_symmetry_equiv_pos_as_xyz
1 x,y,z
2 -x,1/2+y,-z
_cell_length_a                   10.4592(4)
_cell_length_b                   9.2805(4)
_cell_length_c                   11.6488(5)
_cell_angle_alpha                90
_cell_angle_beta                 99.591(2)
_cell_angle_gamma                90
_cell_volume                     1114.9
_cell_formula_units_Z            2
loop_
_atom_site_label
_atom_site_type_symbol
_atom_site_fract_x
_atom_site_fract_y
_atom_site_fract_z
C1 C 1.0323(4) 0.1159(4) 0.3926(3)
H1 H 1.0560 0.1378 0.4712
C2 C 1.1144(4) 0.1512(5) 0.3142(4)
H2 H 1.1924 0.1985 0.3392
C3 C 1.0779(5) 0.1150(5) 0.1999(4)
C4 C 0.9649(5) 0.0436(6) 0.1609(4)
H3 H 0.9440 0.0175 0.0829
C5 C 0.8817(4) 0.0103(6) 0.2375(3)
H4 H 0.8037 -0.0368 0.2117
C6 C 0.9163(3) 0.0483(4) 0.3533(3)
C7 C 0.6849(3) 0.2622(4) 0.4112(3)
H5 H 0.6405 0.2023 0.3475
C8 C 0.5816(3) 0.3378(4) 0.4701(3)
C9 C 0.7680(4) 0.3737(4) 0.3600(3)
H6 H 0.8069 0.4385 0.4214
H7 H 0.8376 0.3245 0.3304
C10 C 0.6899(4) 0.4608(5) 0.2627(3)
H8 H 0.6506 0.3955 0.2019
H9 H 0.6203 0.5096 0.2927
C11 C 0.7659(5) 0.5667(6) 0.2126(5)
C12 C 0.8324(4) 0.2293(4) 0.6074(3)
H10 H 0.8317 0.3335 0.6007
H11 H 0.9221 0.1977 0.6185
C13 C 0.7740(4) 0.1869(4) 0.7125(3)
C14 C 0.8223(6) 0.2258(10) 0.8368(4)
H12 H 0.9046 0.1833 0.8710
H13 H 0.8164 0.3271 0.8560
C15 C 0.6379(6) 0.2181(10) 0.7393(5)
H14 H 0.6184 0.3185 0.7516
H15 H 0.5671 0.1677 0.6913
C16 C 0.7515(9) 0.0374(7) 0.7599(6)
H16 H 0.6853 -0.0203 0.7128
H17 H 0.8290 -0.0174 0.7895
C17 C 0.7048(4) 0.1373(4) 0.8450(3)
C18 C 0.6451(4) 0.0980(5) 0.9476(3)
C19 C 0.5497(5) -0.0181(6) 1.0584(4)
H18 H 0.5075 -0.0917 1.0913
Cl1 Cl 1.17994(18) 0.16311(19) 0.10289(15)
F1 F 0.8595(4) 0.5094(6) 0.1662(4)
F2 F 0.6960(3) 0.6496(4) 0.1315(3)
F3 F 0.8286(5) 0.6564(5) 0.2908(4)
H19 H 0.408(4) 0.317(5) 0.506(4)
H20 H 0.473(5) 0.159(2) 0.457(5)
N1 N 0.7625(3) 0.1669(3) 0.4984(3)
N2 N 0.4740(3) 0.2622(4) 0.4733(3)
N3 N 0.5959(5) -0.0334(5) 0.9624(4)
N4 N 0.6334(5) 0.1898(5) 1.0296(4)
O1 O 0.6969(3) -0.0558(3) 0.3859(3)
O2 O 0.8810(4) -0.0560(4) 0.5509(3)
O3 O 0.5998(3) 0.4592(3) 0.5090(3)
O4 O 0.5677(4) 0.1092(5) 1.1044(3)
S1 S 0.80855(10) 0.01266(9) 0.45182(9)
loop_
_geom_bond_atom_site_label_1
_geom_bond_atom_site_label_2
_geom_bond_site_symmetry_1
_geom_bond_site_symmetry_2
C1 H1 1_555 1_555
C2 C1 1_555 1_555
H2 C2 1_555 1_555
C3 C2 1_555 1_555
C4 C3 1_555 1_555
H3 C4 1_555 1_555
C5 C4 1_555 1_555
H4 C5 1_555 1_555
C6 C1 1_555 1_555
C7 H5 1_555 1_555
C8 C7 1_555 1_555
C9 C7 1_555 1_555
H6 C9 1_555 1_555
H7 C9 1_555 1_555
C10 C9 1_555 1_555
H8 C10 1_555 1_555
H9 C10 1_555 1_555
C11 C10 1_555 1_555
C12 H10 1_555 1_555
H11 C12 1_555 1_555
C13 C12 1_555 1_555
C14 C13 1_555 1_555
H12 C14 1_555 1_555
H13 C14 1_555 1_555
C15 C13 1_555 1_555
H14 C15 1_555 1_555
H15 C15 1_555 1_555
C16 C13 1_555 1_555
H16 C16 1_555 1_555
H17 C16 1_555 1_555
C17 C14 1_555 1_555
C18 C17 1_555 1_555
C19 H18 1_555 1_555
Cl1 C3 1_555 1_555
F1 C11 1_555 1_555
F2 C11 1_555 1_555
F3 C11 1_555 1_555
H19 N2 1_555 1_555
H20 N2 1_555 1_555
N1 C7 1_555 1_555
N2 C8 1_555 1_555
N3 C18 1_555 1_555
N4 C18 1_555 1_555
O1 S1 1_555 1_555
O2 S1 1_555 1_555
O3 C8 1_555 1_555
O4 C19 1_555 1_555
S1 C6 1_555 1_555
C5 C6 1_555 1_555
C12 N1 1_555 1_555
C15 C17 1_555 1_555
C16 C17 1_555 1_555
C19 N3 1_555 1_555
N1 S1 1_555 1_555
N4 O4 1_555 1_555

#END
