
#######################################################################
#
#                 Cambridge Crystallographic Data Centre
#                                CCDC 
#
#######################################################################
#
# If this CIF has been generated from an entry in the Cambridge 
# Structural Database, then it will include bibliographic, chemical, 
# crystal, experimental, refinement or atomic coordinate data resulting 
# from the CCDC's data processing and validation procedures.
#
#######################################################################

data_GETDOZ
_chemical_formula_moiety         'C14 H18 Br1 N1 O2'
_chemical_name_systematic        
(R)-5-Bromomethyl-1-[(1R,2S)-1-hydroxy-1-phenylpropan-2-yl]pyrrolidin-2-one
_symmetry_cell_setting           orthorhombic
_symmetry_space_group_name_H-M   'P 21 21 21'
_symmetry_Int_Tables_number      19
_space_group_name_Hall           'P 2ac 2ab'
loop_
_symmetry_equiv_pos_site_id
_symmetry_equiv_pos_as_xyz
1 x,y,z
2 1/2-x,-y,1/2+z
3 1/2+x,1/2-y,-z
4 -x,1/2+y,1/2-z
_cell_length_a                   9.1003(3)
_cell_length_b                   9.1587(3)
_cell_length_c                   16.6475(5)
_cell_angle_alpha                90
_cell_angle_beta                 90
_cell_angle_gamma                90
_cell_volume                     1387.52
_exptl_crystal_colour            colorless
_exptl_crystal_description       prism
_chemical_melting_point          108-111deg.C
_cell_formula_units_Z            4
loop_
_atom_site_label
_atom_site_type_symbol
_atom_site_fract_x
_atom_site_fract_y
_atom_site_fract_z
Br1 Br 0.48359(3) 0.62072(4) 0.808752(16)
O1 O 0.5243(2) 0.34231(18) 1.02329(10)
O2 O 0.5543(2) 0.6017(3) 1.09445(12)
H1 H 0.559(4) 0.532(3) 1.0808(19)
N1 N 0.3360(2) 0.4734(2) 0.96641(12)
C1 C 0.4326(3) 0.3634(3) 0.96921(14)
C2 C 0.4154(3) 0.2703(3) 0.89530(16)
H2 H 0.4024 0.1665 0.9101
H3 H 0.5028 0.2792 0.8602
C3 C 0.2801(3) 0.3277(3) 0.85317(16)
H4 H 0.1964 0.2600 0.8604
H5 H 0.2988 0.3397 0.7950
C4 C 0.2473(3) 0.4762(3) 0.89251(14)
H6 H 0.1412 0.4778 0.9082
C5 C 0.3100(3) 0.5820(3) 1.03042(14)
H7 H 0.2328 0.6502 1.0099
C6 C 0.4469(3) 0.6758(3) 1.04858(13)
H8 H 0.4925 0.7042 0.9962
C7 C 0.4039(3) 0.8142(3) 1.09221(14)
C8 C 0.4198(3) 0.8263(3) 1.17568(14)
H9 H 0.4556 0.7459 1.2059
C9 C 0.3833(3) 0.9557(3) 1.21410(16)
H10 H 0.3957 0.9638 1.2706
C10 C 0.3292(3) 1.0726(3) 1.17118(18)
H11 H 0.3051 1.1612 1.1978
C11 C 0.3102(3) 1.0600(3) 1.08870(19)
H12 H 0.2715 1.1396 1.0588
C12 C 0.3473(3) 0.9324(3) 1.05035(16)
H13 H 0.3339 0.9250 0.9939
C13 C 0.2774(3) 0.6090(3) 0.84071(15)
H14 H 0.2506 0.6983 0.8709
H15 H 0.2151 0.6046 0.7920
C14 C 0.2464(4) 0.5085(3) 1.10482(16)
H16 H 0.1603 0.4505 1.0896
H17 H 0.2173 0.5831 1.1439
H18 H 0.3208 0.4445 1.1288
loop_
_geom_bond_atom_site_label_1
_geom_bond_atom_site_label_2
_geom_bond_site_symmetry_1
_geom_bond_site_symmetry_2
Br1 C13 1_555 1_555
O1 C1 1_555 1_555
O2 H1 1_555 1_555
N1 C1 1_555 1_555
C1 C2 1_555 1_555
C2 H2 1_555 1_555
H3 C2 1_555 1_555
C3 C2 1_555 1_555
H4 C3 1_555 1_555
H5 C3 1_555 1_555
C4 N1 1_555 1_555
H6 C4 1_555 1_555
C5 N1 1_555 1_555
H7 C5 1_555 1_555
C6 O2 1_555 1_555
H8 C6 1_555 1_555
C7 C6 1_555 1_555
C8 C7 1_555 1_555
H9 C8 1_555 1_555
C9 C8 1_555 1_555
H10 C9 1_555 1_555
C10 C9 1_555 1_555
H11 C10 1_555 1_555
C11 C10 1_555 1_555
H12 C11 1_555 1_555
C12 C7 1_555 1_555
H13 C12 1_555 1_555
C13 C4 1_555 1_555
H14 C13 1_555 1_555
H15 C13 1_555 1_555
C14 C5 1_555 1_555
H16 C14 1_555 1_555
H17 C14 1_555 1_555
H18 C14 1_555 1_555
C3 C4 1_555 1_555
C5 C6 1_555 1_555
C11 C12 1_555 1_555

#END
