
#######################################################################
#
#                 Cambridge Crystallographic Data Centre
#                                CCDC 
#
#######################################################################
#
# If this CIF has been generated from an entry in the Cambridge 
# Structural Database, then it will include bibliographic, chemical, 
# crystal, experimental, refinement or atomic coordinate data resulting 
# from the CCDC's data processing and validation procedures.
#
#######################################################################

data_GETFOA
_chemical_formula_moiety         'C6 H1 Cl1 N4 O5'
_chemical_name_systematic        2-Diazo-5-chloro-4,6-dinitrophenol
_symmetry_cell_setting           monoclinic
_symmetry_space_group_name_H-M   'P 21'
_symmetry_Int_Tables_number      4
_space_group_name_Hall           'P 2yb'
loop_
_symmetry_equiv_pos_site_id
_symmetry_equiv_pos_as_xyz
1 x,y,z
2 -x,1/2+y,-z
_cell_length_a                   4.964(2)
_cell_length_b                   10.287(4)
_cell_length_c                   8.644(3)
_cell_angle_alpha                90
_cell_angle_beta                 101.21(3)
_cell_angle_gamma                90
_cell_volume                     432.982
_cell_formula_units_Z            2
loop_
_atom_site_label
_atom_site_type_symbol
_atom_site_fract_x
_atom_site_fract_y
_atom_site_fract_z
C1 C 0.7330(9) 0.0802(4) 0.3815(5)
C2 C 0.7786(7) 0.2067(4) 0.4548(4)
C3 C 0.6269(8) 0.3184(4) 0.4097(5)
C4 C 0.4045(8) 0.3106(4) 0.2888(5)
C5 C 0.3382(7) 0.1901(4) 0.2080(4)
C6 C 0.4968(8) 0.0838(5) 0.2529(3)
N1 N 0.9935(7) 0.2108(4) 0.5818(4)
N2 N 1.1660(8) 0.2076(4) 0.6819(5)
N3 N 0.2449(8) 0.4282(4) 0.2492(4)
N4 N 0.4437(8) -0.0403(4) 0.1673(4)
O1 O 0.8707(7) -0.0177(3) 0.4233(4)
O2 O 0.3659(7) 0.5326(4) 0.2783(4)
O3 O 0.0019(7) 0.4195(4) 0.1958(4)
O4 O 0.5490(9) -0.0569(4) 0.0555(4)
O5 O 0.3041(9) -0.1184(4) 0.2206(5)
Cl1 Cl 0.0675(2) 0.1749 0.0524(1)
H1 H 0.6774(91) 0.4069(48) 0.4785(53)
loop_
_geom_bond_atom_site_label_1
_geom_bond_atom_site_label_2
_geom_bond_site_symmetry_1
_geom_bond_site_symmetry_2
C1 C2 1_555 1_555
C2 C3 1_555 1_555
C3 C4 1_555 1_555
C4 C5 1_555 1_555
C5 C6 1_555 1_555
C6 C1 1_555 1_555
N1 C2 1_555 1_555
N2 N1 1_555 1_555
N3 C4 1_555 1_555
N4 C6 1_555 1_555
O1 C1 1_555 1_555
O2 N3 1_555 1_555
O3 N3 1_555 1_555
O4 N4 1_555 1_555
O5 N4 1_555 1_555
Cl1 C5 1_555 1_555
H1 C3 1_555 1_555

#END
