
#######################################################################
#
#                 Cambridge Crystallographic Data Centre
#                                CCDC 
#
#######################################################################
#
# If this CIF has been generated from an entry in the Cambridge 
# Structural Database, then it will include bibliographic, chemical, 
# crystal, experimental, refinement or atomic coordinate data resulting 
# from the CCDC's data processing and validation procedures.
#
#######################################################################

data_GETKIZ10
_chemical_formula_moiety         'C16 H26 O4'
_chemical_name_systematic        
(4aS,6S,8aR,4'aR,6'R,8'aS)-2,2'-Diperhydropyrano(3,2-b)pyran
_symmetry_cell_setting           monoclinic
_symmetry_space_group_name_H-M   'P 21/n'
_symmetry_Int_Tables_number      14
_space_group_name_Hall           '-P 2yn'
loop_
_symmetry_equiv_pos_site_id
_symmetry_equiv_pos_as_xyz
1 x,y,z
2 1/2-x,1/2+y,1/2-z
3 -x,-y,-z
4 1/2+x,1/2-y,1/2+z
_cell_length_a                   4.893(1)
_cell_length_b                   9.405(1)
_cell_length_c                   16.258(1)
_cell_angle_alpha                90
_cell_angle_beta                 90.32(1)
_cell_angle_gamma                90
_cell_volume                     748.16
_exptl_crystal_colour            colorless
_chemical_melting_point          155-156deg.C
_cell_formula_units_Z            2
loop_
_atom_site_label
_atom_site_type_symbol
_atom_site_fract_x
_atom_site_fract_y
_atom_site_fract_z
C1 C 0.9131(6) 0.0587(4) 0.5186(2)
C2 C 0.8356(7) 0.1745(4) 0.4575(2)
C3 C 0.6872(7) 0.2962(4) 0.5004(2)
C4 C 0.8631(6) 0.3476(4) 0.5707(2)
C5 C 0.9313(6) 0.2255(3) 0.6285(2)
C6 C 1.1054(7) 0.2766(4) 0.6994(2)
C7 C 0.9624(8) 0.4019(4) 0.7418(2)
C8 C 0.8862(8) 0.5136(4) 0.6793(2)
O1 O 1.0731(4) 0.1159(2) 0.5851(1)
O2 O 0.7213(4) 0.4562(3) 0.6147(1)
H1 H 0.7401 0.0223 0.5375
H2 H 1.0325 0.3834 0.5487
H3 H 0.7606 0.1902 0.6483
H4 H 0.7252 0.1364 0.4151
H5 H 1.0016 0.2111 0.4335
H6 H 0.5174 0.2628 0.5218
H7 H 0.6524 0.3721 0.4633
H8 H 1.2839 0.3078 0.6793
H9 H 1.1409 0.2008 0.7376
H10 H 1.08322 0.4435 0.7841
H11 H 0.8039 0.3690 0.7701
H12 H 1.0499 0.5539 0.6569
H13 H 0.7876 0.5895 0.7059
C1B C 1.0869(6) -0.0587(4) 0.4814(2)
C2B C 1.1644(7) -0.1745(4) 0.5425(2)
O1B O 0.9269(4) -0.1159(2) 0.4149(1)
H1B H 1.2599 -0.0223 0.4625
C3B C 1.3128(7) -0.2962(4) 0.4996(2)
H4B H 1.2748 -0.1364 0.5849
H5B H 0.9984 -0.2111 0.5665
C5B C 1.0687(6) -0.2255(3) 0.3715(2)
C4B C 1.1369(6) -0.3476(4) 0.4293(2)
H6B H 1.4826 -0.2628 0.4782
H7B H 1.3476 -0.3721 0.5367
C6B C 0.8946(7) -0.2766(4) 0.3006(2)
H3B H 1.2394 -0.1902 0.3517
O2B O 1.2787(4) -0.4562(3) 0.3853(1)
H2B H 0.9675 -0.3834 0.4513
C7B C 1.0376(8) -0.4019(4) 0.2582(2)
H8B H 0.7161 -0.3078 0.3207
H9B H 0.8591 -0.2008 0.2624
C8B C 1.1138(8) -0.5136(4) 0.3207(2)
H10B H 0.91678 -0.4435 0.2159
H11B H 1.1961 -0.3690 0.2299
H12B H 0.9501 -0.5539 0.3431
H13B H 1.2124 -0.5895 0.2941
loop_
_geom_bond_atom_site_label_1
_geom_bond_atom_site_label_2
_geom_bond_site_symmetry_1
_geom_bond_site_symmetry_2
C1 C2 1_555 1_555
C2 C3 1_555 1_555
C3 C4 1_555 1_555
C4 C5 1_555 1_555
C5 C6 1_555 1_555
C6 C7 1_555 1_555
C7 C8 1_555 1_555
C8 O2 1_555 1_555
O1 C1 1_555 1_555
O2 C4 1_555 1_555
H1 C1 1_555 1_555
H2 C4 1_555 1_555
H3 C5 1_555 1_555
H4 C2 1_555 1_555
H5 C2 1_555 1_555
H6 C3 1_555 1_555
H7 C3 1_555 1_555
H8 C6 1_555 1_555
H9 C6 1_555 1_555
H10 C7 1_555 1_555
H11 C7 1_555 1_555
H12 C8 1_555 1_555
H13 C8 1_555 1_555
C1B C1 1_555 1_555
C2B C1B 1_555 1_555
O1B C1B 1_555 1_555
H1B C1B 1_555 1_555
C3B C2B 1_555 1_555
H4B C2B 1_555 1_555
H5B C2B 1_555 1_555
C5B O1B 1_555 1_555
C4B C3B 1_555 1_555
H6B C3B 1_555 1_555
H7B C3B 1_555 1_555
C6B C5B 1_555 1_555
H3B C5B 1_555 1_555
O2B C4B 1_555 1_555
H2B C4B 1_555 1_555
C7B C6B 1_555 1_555
H8B C6B 1_555 1_555
H9B C6B 1_555 1_555
C8B O2B 1_555 1_555
H10B C7B 1_555 1_555
H11B C7B 1_555 1_555
H12B C8B 1_555 1_555
H13B C8B 1_555 1_555
C5 O1 1_555 1_555
C5B C4B 1_555 1_555
C7B C8B 1_555 1_555

#END
