
#######################################################################
#
#                 Cambridge Crystallographic Data Centre
#                                CCDC 
#
#######################################################################
#
# If this CIF has been generated from an entry in the Cambridge 
# Structural Database, then it will include bibliographic, chemical, 
# crystal, experimental, refinement or atomic coordinate data resulting 
# from the CCDC's data processing and validation procedures.
#
#######################################################################

data_GETKOF
_chemical_formula_moiety         'C16 H14 S4'
_chemical_name_systematic        6,7-Diphenyl-1,2,3,4-tetrathiacyclo-oct-6-ene
_symmetry_cell_setting           monoclinic
_symmetry_space_group_name_H-M   'P 21'
_symmetry_Int_Tables_number      4
_space_group_name_Hall           'P 2yb'
loop_
_symmetry_equiv_pos_site_id
_symmetry_equiv_pos_as_xyz
1 x,y,z
2 -x,1/2+y,-z
_cell_length_a                   6.453(1)
_cell_length_b                   13.214(5)
_cell_length_c                   9.240(1)
_cell_angle_alpha                90
_cell_angle_beta                 95.43(1)
_cell_angle_gamma                90
_cell_volume                     784.359
_exptl_crystal_colour            white
_chemical_melting_point          '137-139 deg.C'
_cell_formula_units_Z            2
_exptl_crystal_preparation       
'resolidifies at 150 deg.C. and slowly decomposes'
loop_
_atom_site_label
_atom_site_type_symbol
_atom_site_fract_x
_atom_site_fract_y
_atom_site_fract_z
S1 S 0.6078(2) 0.3941 0.9713(2)
S2 S 0.3990(2) 0.3134(1) 0.8425(2)
S3 S 0.4314(3) 0.3569(1) 0.6318(2)
S4 S 0.5906(3) 0.2423(1) 0.5438(2)
C1 C 0.8622(7) 0.3518(4) 0.9244(6)
C2 C 0.8829(7) 0.2402(4) 0.9029(5)
C3 C 0.9107(8) 0.1789(4) 1.0403(5)
C4 C 1.1056(8) 0.1548(5) 1.1020(7)
C5 C 1.132(1) 0.1025(5) 1.2330(7)
C6 C 0.966(1) 0.0747(5) 1.3028(6)
C7 C 0.773(1) 0.0963(5) 1.2407(7)
C8 C 0.7441(8) 0.1479(5) 1.1100(6)
C9 C 0.8844(7) 0.1989(4) 0.7716(5)
C10 C 0.9125(8) 0.0867(4) 0.7499(5)
C11 C 1.0993(8) 0.0524(5) 0.7070(6)
C12 C 1.1294(9) -0.0495(5) 0.6790(6)
C13 C 0.972(1) -0.1161(5) 0.6937(6)
C14 C 0.786(1) -0.0843(8) 0.7362(6)
C15 C 0.7561(9) 0.0181(4) 0.7657(6)
C16 C 0.8559(8) 0.2560(5) 0.6317(5)
H1 H 0.9657 0.3728 0.9995
H2 H 0.8916 0.3851 0.8358
H3 H 1.2261 0.1734 1.0552
H4 H 1.2692 0.0854 1.2739
H5 H 0.9921 0.0402 1.3963
H6 H 0.6595 0.0763 1.2924
H7 H 0.6069 0.1620 1.0675
H8 H 1.2063 0.1002 0.6967
H9 H 1.2571 -0.0740 0.6489
H10 H 0.9886 -0.1867 0.6697
H11 H 0.6755 -0.1318 0.7474
H12 H 0.6265 0.0419 0.7953
H13 H 0.8872 0.3259 0.6503
H14 H 0.9549 0.2308 0.5683
loop_
_geom_bond_atom_site_label_1
_geom_bond_atom_site_label_2
_geom_bond_site_symmetry_1
_geom_bond_site_symmetry_2
S1 S2 1_555 1_555
S2 S3 1_555 1_555
S3 S4 1_555 1_555
S4 C16 1_555 1_555
C1 S1 1_555 1_555
C2 C1 1_555 1_555
C3 C2 1_555 1_555
C4 C3 1_555 1_555
C5 C4 1_555 1_555
C6 C5 1_555 1_555
C7 C6 1_555 1_555
C8 C3 1_555 1_555
C9 C2 1_555 1_555
C10 C9 1_555 1_555
C11 C10 1_555 1_555
C12 C11 1_555 1_555
C13 C12 1_555 1_555
C14 C13 1_555 1_555
C15 C10 1_555 1_555
C16 C9 1_555 1_555
H1 C1 1_555 1_555
H2 C1 1_555 1_555
H3 C4 1_555 1_555
H4 C5 1_555 1_555
H5 C6 1_555 1_555
H6 C7 1_555 1_555
H7 C8 1_555 1_555
H8 C11 1_555 1_555
H9 C12 1_555 1_555
H10 C13 1_555 1_555
H11 C14 1_555 1_555
H12 C15 1_555 1_555
H13 C16 1_555 1_555
H14 C16 1_555 1_555
C7 C8 1_555 1_555
C14 C15 1_555 1_555

#END
