
#######################################################################
#
#                 Cambridge Crystallographic Data Centre
#                                CCDC 
#
#######################################################################
#
# If this CIF has been generated from an entry in the Cambridge 
# Structural Database, then it will include bibliographic, chemical, 
# crystal, experimental, refinement or atomic coordinate data resulting 
# from the CCDC's data processing and validation procedures.
#
#######################################################################

data_GETRAA
_chemical_formula_moiety         'C66 H46 N2 O1'
_chemical_name_systematic        
2,5-bis(3'-(triphenylvinyl)biphenyl-2-yl)-1,3,4-oxadiazole
_symmetry_cell_setting           monoclinic
_symmetry_space_group_name_H-M   'P 21/c'
_symmetry_Int_Tables_number      14
_space_group_name_Hall           '-P 2ybc'
loop_
_symmetry_equiv_pos_site_id
_symmetry_equiv_pos_as_xyz
1 x,y,z
2 -x,1/2+y,1/2-z
3 -x,-y,-z
4 x,1/2-y,1/2+z
_cell_length_a                   15.452(3)
_cell_length_b                   12.462(3)
_cell_length_c                   26.864(5)
_cell_angle_alpha                90
_cell_angle_beta                 90.18(3)
_cell_angle_gamma                90
_cell_volume                     5172.98
_cell_formula_units_Z            4
loop_
_atom_site_label
_atom_site_type_symbol
_atom_site_fract_x
_atom_site_fract_y
_atom_site_fract_z
C1 C -0.3855(3) 0.3576(4) 0.4434(3)
H1 H -0.4374 0.3206 0.4474
N1 N 0.2621(3) 0.7613(3) 0.25201(17)
O1 O 0.16710(17) 0.6329(2) 0.26492(10)
C2 C -0.3524(3) 0.4169(4) 0.4818(2)
H2 H -0.3822 0.4209 0.5118
N2 N 0.3021(3) 0.6627(3) 0.24380(18)
C3 C -0.2754(3) 0.4707(3) 0.47626(18)
H3 H -0.2540 0.5118 0.5024
C4 C -0.2287(3) 0.4646(3) 0.43183(16)
C5 C -0.2642(3) 0.4050(3) 0.39337(19)
H4 H -0.2352 0.4001 0.3632
C6 C -0.3421(3) 0.3529(4) 0.3993(3)
H5 H -0.3654 0.3139 0.3730
C7 C -0.1788(4) 0.8575(4) 0.4633(2)
H6 H -0.1862 0.9295 0.4713
C8 C -0.2354(3) 0.8078(3) 0.43177(19)
H7 H -0.2815 0.8459 0.4182
C9 C -0.2241(3) 0.7019(3) 0.42017(17)
H8 H -0.2637 0.6686 0.3991
C10 C -0.1554(2) 0.6427(3) 0.43883(15)
C11 C -0.0987(3) 0.6937(3) 0.47096(17)
H9 H -0.0522 0.6560 0.4843
C12 C -0.1107(3) 0.8007(4) 0.4835(2)
H10 H -0.0727 0.8341 0.5055
C13 C -0.1469(2) 0.5261(3) 0.42649(14)
C14 C -0.0715(2) 0.4828(3) 0.41016(15)
C15 C -0.0598(3) 0.3647(3) 0.40296(15)
C16 C -0.0885(3) 0.2893(3) 0.43691(16)
H11 H -0.1152 0.3119 0.4661
C17 C -0.0781(3) 0.1812(3) 0.42815(19)
H12 H -0.0982 0.1320 0.4514
C18 C -0.0387(3) 0.1449(3) 0.3857(2)
H13 H -0.0328 0.0718 0.3797
C19 C -0.0082(3) 0.2190(4) 0.3522(2)
H14 H 0.0188 0.1957 0.3233
C20 C -0.0171(3) 0.3268(3) 0.36090(17)
H15 H 0.0058 0.3756 0.3383
C21 C 0.0044(3) 0.5505(3) 0.39702(15)
C22 C -0.0043(3) 0.6335(3) 0.36294(14)
H16 H -0.0582 0.6461 0.3486
C23 C 0.0648(2) 0.6984(3) 0.34956(14)
C24 C 0.1445(3) 0.6790(3) 0.37126(15)
H17 H 0.1914 0.7220 0.3629
C25 C 0.1553(3) 0.5969(3) 0.40502(17)
H18 H 0.2091 0.5852 0.4197
C26 C 0.0854(3) 0.5314(3) 0.41717(16)
H19 H 0.0934 0.4744 0.4390
C27 C 0.0525(3) 0.7898(3) 0.31469(14)
C28 C -0.0175(3) 0.8586(3) 0.32021(16)
H20 H -0.0597 0.8423 0.3436
C29 C -0.0261(3) 0.9501(3) 0.29202(18)
H21 H -0.0741 0.9940 0.2963
C30 C 0.0354(4) 0.9766(4) 0.25790(19)
H22 H 0.0303 1.0400 0.2399
C31 C 0.1052(4) 0.9098(4) 0.25005(16)
H23 H 0.1467 0.9281 0.2266
C32 C 0.1137(3) 0.8146(3) 0.27728(15)
C33 C 0.1844(3) 0.7410(3) 0.26501(16)
C34 C 0.2445(3) 0.5894(4) 0.25185(16)
C35 C 0.2512(3) 0.4723(4) 0.25094(17)
C36 C 0.2137(3) 0.4148(4) 0.2896(2)
H24 H 0.1830 0.4510 0.3141
C37 C 0.2213(4) 0.3067(5) 0.2920(2)
H25 H 0.1962 0.2693 0.3182
C38 C 0.2663(4) 0.2515(4) 0.2555(2)
H26 H 0.2718 0.1773 0.2573
C39 C 0.3027(4) 0.3069(4) 0.2165(2)
H27 H 0.3331 0.2695 0.1922
C40 C 0.2949(3) 0.4193(3) 0.21275(17)
C41 C 0.3295(3) 0.4749(3) 0.16845(16)
C42 C 0.2750(3) 0.5338(3) 0.13762(18)
H28 H 0.2167 0.5406 0.1456
C43 C 0.3063(3) 0.5819(3) 0.09552(19)
H29 H 0.2691 0.6208 0.0751
C44 C 0.3926(3) 0.5733(3) 0.08329(19)
H30 H 0.4129 0.6060 0.0545
C45 C 0.4491(3) 0.5168(3) 0.11318(17)
C46 C 0.4167(3) 0.4662(3) 0.15545(17)
H31 H 0.4538 0.4259 0.1754
C47 C 0.5446(3) 0.5202(3) 0.10241(17)
C48 C 0.5924(3) 0.4325(3) 0.09993(16)
C49 C 0.5809(3) 0.6304(3) 0.09756(17)
C50 C 0.5621(3) 0.7064(4) 0.1334(2)
H32 H 0.5279 0.6875 0.1604
C51 C 0.5935(4) 0.8109(4) 0.1296(3)
H33 H 0.5809 0.8614 0.1541
C52 C 0.6430(4) 0.8382(5) 0.0895(3)
H34 H 0.6645 0.9077 0.0870
C53 C 0.6613(4) 0.7666(5) 0.0538(3)
H35 H 0.6949 0.7868 0.0267
C54 C 0.6307(3) 0.6637(4) 0.0571(2)
H36 H 0.6433 0.6150 0.0319
C55 C 0.6885(3) 0.4352(3) 0.09267(16)
C56 C 0.7425(3) 0.4950(4) 0.12284(19)
H37 H 0.7186 0.5355 0.1484
C57 C 0.8301(4) 0.4964(4) 0.1161(2)
H38 H 0.8652 0.5372 0.1370
C58 C 0.8654(4) 0.4378(5) 0.0788(3)
H39 H 0.9248 0.4405 0.0736
C59 C 0.8155(4) 0.3754(4) 0.0491(2)
H40 H 0.8408 0.3339 0.0243
C60 C 0.7260(3) 0.3737(4) 0.05565(18)
H41 H 0.6915 0.3312 0.0352
C61 C 0.5543(3) 0.3211(3) 0.10214(18)
C62 C 0.5842(3) 0.2519(4) 0.1385(2)
H42 H 0.6257 0.2750 0.1612
C63 C 0.5523(5) 0.1474(4) 0.1413(3)
H43 H 0.5719 0.1007 0.1659
C64 C 0.4912(5) 0.1145(5) 0.1069(3)
H44 H 0.4687 0.0455 0.1088
C65 C 0.4639(4) 0.1804(5) 0.0708(3)
H45 H 0.4240 0.1562 0.0474
C66 C 0.4945(3) 0.2833(4) 0.0682(2)
H46 H 0.4747 0.3285 0.0431
loop_
_geom_bond_atom_site_label_1
_geom_bond_atom_site_label_2
_geom_bond_site_symmetry_1
_geom_bond_site_symmetry_2
C1 H1 1_555 1_555
N1 N2 1_555 1_555
O1 C33 1_555 1_555
C2 C1 1_555 1_555
H2 C2 1_555 1_555
N2 C34 1_555 1_555
C3 C2 1_555 1_555
H3 C3 1_555 1_555
C4 C3 1_555 1_555
C5 C4 1_555 1_555
H4 C5 1_555 1_555
C6 C1 1_555 1_555
H5 C6 1_555 1_555
C7 H6 1_555 1_555
C8 C7 1_555 1_555
H7 C8 1_555 1_555
C9 C8 1_555 1_555
H8 C9 1_555 1_555
C10 C9 1_555 1_555
C11 C10 1_555 1_555
H9 C11 1_555 1_555
C12 C7 1_555 1_555
H10 C12 1_555 1_555
C13 C4 1_555 1_555
C14 C13 1_555 1_555
C15 C14 1_555 1_555
C16 C15 1_555 1_555
H11 C16 1_555 1_555
C17 C16 1_555 1_555
H12 C17 1_555 1_555
C18 C17 1_555 1_555
H13 C18 1_555 1_555
C19 C18 1_555 1_555
H14 C19 1_555 1_555
C20 C15 1_555 1_555
H15 C20 1_555 1_555
C21 C14 1_555 1_555
C22 C21 1_555 1_555
H16 C22 1_555 1_555
C23 C22 1_555 1_555
C24 C23 1_555 1_555
H17 C24 1_555 1_555
C25 C24 1_555 1_555
H18 C25 1_555 1_555
C26 C21 1_555 1_555
H19 C26 1_555 1_555
C27 C23 1_555 1_555
C28 C27 1_555 1_555
H20 C28 1_555 1_555
C29 C28 1_555 1_555
H21 C29 1_555 1_555
C30 C29 1_555 1_555
H22 C30 1_555 1_555
C31 C30 1_555 1_555
H23 C31 1_555 1_555
C32 C27 1_555 1_555
C33 N1 1_555 1_555
C34 O1 1_555 1_555
C35 C34 1_555 1_555
C36 C35 1_555 1_555
H24 C36 1_555 1_555
C37 C36 1_555 1_555
H25 C37 1_555 1_555
C38 C37 1_555 1_555
H26 C38 1_555 1_555
C39 C38 1_555 1_555
H27 C39 1_555 1_555
C40 C35 1_555 1_555
C41 C40 1_555 1_555
C42 C41 1_555 1_555
H28 C42 1_555 1_555
C43 C42 1_555 1_555
H29 C43 1_555 1_555
C44 C43 1_555 1_555
H30 C44 1_555 1_555
C45 C44 1_555 1_555
C46 C41 1_555 1_555
H31 C46 1_555 1_555
C47 C45 1_555 1_555
C48 C47 1_555 1_555
C49 C47 1_555 1_555
C50 C49 1_555 1_555
H32 C50 1_555 1_555
C51 C50 1_555 1_555
H33 C51 1_555 1_555
C52 C51 1_555 1_555
H34 C52 1_555 1_555
C53 C52 1_555 1_555
H35 C53 1_555 1_555
C54 C49 1_555 1_555
H36 C54 1_555 1_555
C55 C48 1_555 1_555
C56 C55 1_555 1_555
H37 C56 1_555 1_555
C57 C56 1_555 1_555
H38 C57 1_555 1_555
C58 C57 1_555 1_555
H39 C58 1_555 1_555
C59 C58 1_555 1_555
H40 C59 1_555 1_555
C60 C55 1_555 1_555
H41 C60 1_555 1_555
C61 C48 1_555 1_555
C62 C61 1_555 1_555
H42 C62 1_555 1_555
C63 C62 1_555 1_555
H43 C63 1_555 1_555
C64 C63 1_555 1_555
H44 C64 1_555 1_555
C65 C64 1_555 1_555
H45 C65 1_555 1_555
C66 C61 1_555 1_555
H46 C66 1_555 1_555
C5 C6 1_555 1_555
C10 C13 1_555 1_555
C11 C12 1_555 1_555
C19 C20 1_555 1_555
C25 C26 1_555 1_555
C31 C32 1_555 1_555
C32 C33 1_555 1_555
C39 C40 1_555 1_555
C45 C46 1_555 1_555
C53 C54 1_555 1_555
C59 C60 1_555 1_555
C65 C66 1_555 1_555

#END
