
#######################################################################
#
#                 Cambridge Crystallographic Data Centre
#                                CCDC 
#
#######################################################################
#
# If this CIF has been generated from an entry in the Cambridge 
# Structural Database, then it will include bibliographic, chemical, 
# crystal, experimental, refinement or atomic coordinate data resulting 
# from the CCDC's data processing and validation procedures.
#
#######################################################################

data_GETSIJ
_chemical_formula_moiety         'C20 H17 N1 O1'
_chemical_name_systematic        
(4-Methyl-2-(4-methylpyridin-2-yl)phenyl)(phenyl)methanone
_symmetry_cell_setting           triclinic
_symmetry_space_group_name_H-M   'P -1'
_symmetry_Int_Tables_number      2
_space_group_name_Hall           '-P 1'
loop_
_symmetry_equiv_pos_site_id
_symmetry_equiv_pos_as_xyz
1 x,y,z
2 -x,-y,-z
_cell_length_a                   7.9268(9)
_cell_length_b                   10.2717(13)
_cell_length_c                   11.4612(16)
_cell_angle_alpha                115.014(13)
_cell_angle_beta                 108.424(12)
_cell_angle_gamma                93.149(10)
_cell_volume                     782.78
_cell_formula_units_Z            2
loop_
_atom_site_label
_atom_site_type_symbol
_atom_site_fract_x
_atom_site_fract_y
_atom_site_fract_z
O1 O 0.87154(15) 0.59573(12) 0.23320(13)
N1 N 0.87734(16) 0.31740(12) 0.31799(12)
C1 C 0.5966(2) 0.57445(18) 0.33990(18)
H1 H 0.6992 0.6496 0.4020
C2 C 0.4446(3) 0.5681(2) 0.3733(2)
H2 H 0.4461 0.6378 0.4585
C3 C 0.2901(2) 0.4585(2) 0.2805(2)
H3 H 0.1877 0.4545 0.3030
C4 C 0.2880(2) 0.35526(19) 0.1548(2)
H4 H 0.1839 0.2819 0.0920
C5 C 0.4411(2) 0.36065(16) 0.12197(18)
H5 H 0.4393 0.2905 0.0370
C6 C 0.59730(19) 0.46965(15) 0.21459(16)
C7 C 0.76373(19) 0.47885(15) 0.17995(15)
C8 C 0.78538(18) 0.34356(15) 0.06858(15)
C9 C 0.8031(2) 0.35388(18) -0.04439(17)
H6 H 0.8103 0.4446 -0.0444
C10 C 0.8101(2) 0.2327(2) -0.15633(18)
H7 H 0.8233 0.2432 -0.2299
C11 C 0.7979(2) 0.09518(19) -0.16072(17)
C12 C 0.7889(2) 0.08598(17) -0.04493(16)
H8 H 0.7865 -0.0044 -0.0444
C13 C 0.78346(18) 0.20723(15) 0.07032(15)
C14 C 0.79099(18) 0.19500(15) 0.19676(15)
C15 C 0.7217(2) 0.06411(16) 0.19116(16)
H9 H 0.6588 -0.0177 0.1055
C16 C 0.7458(2) 0.05482(16) 0.31268(17)
C17 C 0.8353(2) 0.18183(17) 0.43655(17)
H10 H 0.8548 0.1815 0.5208
C18 C 0.8953(2) 0.30858(17) 0.43420(16)
H11 H 0.9519 0.3933 0.5186
C19 C 0.7913(3) -0.0408(2) -0.2865(2)
H12 H 0.6681 -0.0803 -0.3527
H13 H 0.8341 -0.1130 -0.2591
H14 H 0.8674 -0.0157 -0.3278
C20 C 0.6827(3) -0.0884(2) 0.3093(2)
H15 H 0.5785 -0.1469 0.2255
H16 H 0.6503 -0.0684 0.3882
H17 H 0.7791 -0.1410 0.3120
loop_
_geom_bond_atom_site_label_1
_geom_bond_atom_site_label_2
_geom_bond_site_symmetry_1
_geom_bond_site_symmetry_2
O1 C7 1_555 1_555
N1 C14 1_555 1_555
C1 H1 1_555 1_555
C2 C1 1_555 1_555
H2 C2 1_555 1_555
C3 C2 1_555 1_555
H3 C3 1_555 1_555
C4 C3 1_555 1_555
H4 C4 1_555 1_555
C5 C4 1_555 1_555
H5 C5 1_555 1_555
C6 C1 1_555 1_555
C7 C6 1_555 1_555
C8 C7 1_555 1_555
C9 C8 1_555 1_555
H6 C9 1_555 1_555
C10 C9 1_555 1_555
H7 C10 1_555 1_555
C11 C10 1_555 1_555
C12 C11 1_555 1_555
H8 C12 1_555 1_555
C13 C8 1_555 1_555
C14 C13 1_555 1_555
C15 C14 1_555 1_555
H9 C15 1_555 1_555
C16 C15 1_555 1_555
C17 C16 1_555 1_555
H10 C17 1_555 1_555
C18 N1 1_555 1_555
H11 C18 1_555 1_555
C19 C11 1_555 1_555
H12 C19 1_555 1_555
H13 C19 1_555 1_555
H14 C19 1_555 1_555
C20 C16 1_555 1_555
H15 C20 1_555 1_555
H16 C20 1_555 1_555
H17 C20 1_555 1_555
C5 C6 1_555 1_555
C12 C13 1_555 1_555
C17 C18 1_555 1_555

#END
