
#######################################################################
#
#                 Cambridge Crystallographic Data Centre
#                                CCDC 
#
#######################################################################
#
# If this CIF has been generated from an entry in the Cambridge 
# Structural Database, then it will include bibliographic, chemical, 
# crystal, experimental, refinement or atomic coordinate data resulting 
# from the CCDC's data processing and validation procedures.
#
#######################################################################

data_GETSEF
_chemical_formula_moiety         'C21 H29 B1 F2 N2 O1 S1'
_chemical_name_systematic        
(2-([2-(4-ethyl-2-[1-(4-ethyl-3,5-dimethyl-1H-pyrrol-2-yl)ethylidene]-3-methyl-2H-pyrrol-5-yl)ethenyl]sulfanyl)ethanolato)(difluoro)boron
_symmetry_cell_setting           triclinic
_symmetry_space_group_name_H-M   'P -1'
_symmetry_Int_Tables_number      2
_space_group_name_Hall           '-P 1'
loop_
_symmetry_equiv_pos_site_id
_symmetry_equiv_pos_as_xyz
1 x,y,z
2 -x,-y,-z
_cell_length_a                   8.8415(8)
_cell_length_b                   11.6778(11)
_cell_length_c                   11.9960(11)
_cell_angle_alpha                104.1130(10)
_cell_angle_beta                 110.6860(10)
_cell_angle_gamma                103.0330(10)
_cell_volume                     1055.38
_exptl_crystal_description       block
_cell_formula_units_Z            2
loop_
_atom_site_label
_atom_site_type_symbol
_atom_site_fract_x
_atom_site_fract_y
_atom_site_fract_z
B1 B 0.3789(3) 0.2110(2) 0.2626(2)
C1 C 0.1627(3) 0.31761(19) 0.1730(2)
C2 C -0.0158(2) 0.2887(2) 0.11468(19)
C3 C -0.0924(2) 0.16652(19) 0.10391(18)
C4 C 0.0434(2) 0.12194(17) 0.15861(18)
C5 C 0.3006(3) 0.4376(2) 0.2038(3)
H1 H 0.3433 0.4883 0.2918
H2 H 0.2538 0.4826 0.1511
H3 H 0.3931 0.4188 0.1881
C6 C -0.1061(3) 0.3771(2) 0.0759(2)
H4 H -0.2041 0.3313 -0.0064
H5 H -0.0281 0.4429 0.0662
C7 C -0.1684(4) 0.4376(3) 0.1704(3)
H6 H -0.2468 0.3733 0.1801
H7 H -0.2261 0.4916 0.1395
H8 H -0.0717 0.4860 0.2514
C8 C -0.2836(3) 0.1006(2) 0.0446(2)
H9 H -0.3409 0.1510 0.0059
H10 H -0.3185 0.0877 0.1092
H11 H -0.3136 0.0207 -0.0191
C9 C 0.0445(2) 0.00887(17) 0.17836(18)
C10 C 0.1993(2) -0.01111(17) 0.23614(18)
C11 C 0.2350(3) -0.11603(18) 0.26593(19)
C12 C 0.4116(3) -0.08560(18) 0.32198(19)
C13 C 0.4861(2) 0.03756(18) 0.32585(18)
C14 C -0.1242(3) -0.0919(2) 0.1388(3)
H12 H -0.1548 -0.1538 0.0579
H13 H -0.2122 -0.0550 0.1317
H14 H -0.1130 -0.1311 0.2015
C15 C 0.1090(3) -0.2410(2) 0.2396(3)
H15 H 0.1708 -0.2940 0.2682
H16 H 0.0366 -0.2802 0.1497
H17 H 0.0394 -0.2285 0.2842
C16 C 0.5052(3) -0.1718(2) 0.3641(2)
H18 H 0.4329 -0.2328 0.3828
H19 H 0.6094 -0.1228 0.4419
C17 C 0.5520(3) -0.2405(2) 0.2635(2)
H20 H 0.4490 -0.2909 0.1870
H21 H 0.6117 -0.2937 0.2941
H22 H 0.6249 -0.1804 0.2455
C18 C 0.6642(2) 0.11483(19) 0.37134(19)
H23 H 0.6844 0.1933 0.3631
C19 C 0.8013(3) 0.0837(2) 0.4237(2)
H24 H 0.7777 0.0051 0.4314
C20 C 1.0191(3) 0.3112(2) 0.4489(2)
H25 H 0.9699 0.2936 0.3577
H26 H 0.9508 0.3492 0.4834
C21 C 1.2025(3) 0.4001(2) 0.5106(3)
H27 H 1.2466 0.4273 0.6026
H28 H 1.2744 0.3582 0.4852
F1 F 0.47190(15) 0.30550(11) 0.38456(12)
F2 F 0.46851(16) 0.23009(12) 0.19062(14)
N1 N 0.19852(19) 0.21815(14) 0.19909(15)
N2 N 0.35714(19) 0.08132(14) 0.27465(15)
O1 O 1.2052(2) 0.50363(19) 0.4717(2)
H29 H 1.3031 0.5553 0.5087
S1 S 1.01639(7) 0.16799(6) 0.47921(6)
loop_
_geom_bond_atom_site_label_1
_geom_bond_atom_site_label_2
_geom_bond_site_symmetry_1
_geom_bond_site_symmetry_2
B1 F1 1_555 1_555
C1 C2 1_555 1_555
C2 C3 1_555 1_555
C3 C4 1_555 1_555
C4 C9 1_555 1_555
C5 C1 1_555 1_555
H1 C5 1_555 1_555
H2 C5 1_555 1_555
H3 C5 1_555 1_555
C6 C2 1_555 1_555
H4 C6 1_555 1_555
H5 C6 1_555 1_555
C7 C6 1_555 1_555
H6 C7 1_555 1_555
H7 C7 1_555 1_555
H8 C7 1_555 1_555
C8 C3 1_555 1_555
H9 C8 1_555 1_555
H10 C8 1_555 1_555
H11 C8 1_555 1_555
C9 C10 1_555 1_555
C10 C11 1_555 1_555
C11 C12 1_555 1_555
C12 C13 1_555 1_555
C13 C18 1_555 1_555
C14 C9 1_555 1_555
H12 C14 1_555 1_555
H13 C14 1_555 1_555
H14 C14 1_555 1_555
C15 C11 1_555 1_555
H15 C15 1_555 1_555
H16 C15 1_555 1_555
H17 C15 1_555 1_555
C16 C12 1_555 1_555
H18 C16 1_555 1_555
H19 C16 1_555 1_555
C17 C16 1_555 1_555
H20 C17 1_555 1_555
H21 C17 1_555 1_555
H22 C17 1_555 1_555
C18 H23 1_555 1_555
C19 C18 1_555 1_555
H24 C19 1_555 1_555
C20 H25 1_555 1_555
H26 C20 1_555 1_555
C21 C20 1_555 1_555
H27 C21 1_555 1_555
H28 C21 1_555 1_555
F2 B1 1_555 1_555
N1 B1 1_555 1_555
N2 B1 1_555 1_555
O1 C21 1_555 1_555
H29 O1 1_555 1_555
S1 C19 1_555 1_555
C1 N1 1_555 1_555
C4 N1 1_555 1_555
C10 N2 1_555 1_555
C13 N2 1_555 1_555
C20 S1 1_555 1_555

#END
