
#######################################################################
#
#                 Cambridge Crystallographic Data Centre
#                                CCDC 
#
#######################################################################
#
# If this CIF has been generated from an entry in the Cambridge 
# Structural Database, then it will include bibliographic, chemical, 
# crystal, experimental, refinement or atomic coordinate data resulting 
# from the CCDC's data processing and validation procedures.
#
#######################################################################

data_GETSON
_chemical_formula_moiety         'C18 H57 B2 N5 Si6'
_chemical_name_systematic        
Imino-bis((bis(trimethylsilyl)amino)-((trimethylsilyl)amino)borane)
_symmetry_cell_setting           monoclinic
_symmetry_space_group_name_H-M   'P 21/n'
_symmetry_Int_Tables_number      14
_space_group_name_Hall           '-P 2yn'
loop_
_symmetry_equiv_pos_site_id
_symmetry_equiv_pos_as_xyz
1 x,y,z
2 1/2-x,1/2+y,1/2-z
3 -x,-y,-z
4 1/2+x,1/2-y,1/2+z
_cell_length_a                   12.876(2)
_cell_length_b                   14.828(3)
_cell_length_c                   18.628(4)
_cell_angle_alpha                90
_cell_angle_beta                 97.07(2)
_cell_angle_gamma                90
_cell_volume                     3529.51
_chemical_melting_point          169-171deg.C
_cell_formula_units_Z            4
loop_
_atom_site_label
_atom_site_type_symbol
_atom_site_fract_x
_atom_site_fract_y
_atom_site_fract_z
Si1 Si 0.2049(1) 0.0782(1) 0.1066(1)
Si2 Si 0.1622(1) 0.2632(1) 0.1722(1)
Si3 Si 0.4013(1) 0.1325(1) 0.3649(1)
Si4 Si 0.6411(1) 0.3488(1) 0.1938(1)
Si5 Si 0.6824(1) 0.1639(1) 0.1316(1)
Si6 Si 0.4356(1) 0.2903(1) -0.0116(1)
B1 B 0.3369(2) 0.1661(2) 0.2128(1)
B2 B 0.4843(2) 0.2323(2) 0.1389(1)
N1 N 0.4388(1) 0.1947(1) 0.1995(1)
N2 N 0.2445(1) 0.1738(1) 0.1568(1)
N3 N 0.3236(1) 0.1306(1) 0.2821(1)
N4 N 0.5986(1) 0.2504(1) 0.1486(1)
N5 N 0.4204(2) 0.2515(1) 0.0740(1)
C1 C 0.3103(2) -0.0069(2) 0.1198(2)
C2 C 0.1793(3) 0.1016(2) 0.0083(1)
C3 C 0.0837(2) 0.0285(2) 0.1349(2)
C4 C 0.2435(2) 0.3638(2) 0.1978(2)
C5 C 0.0718(2) 0.2897(2) 0.0898(2)
C6 C 0.0819(2) 0.2410(3) 0.2468(2)
C7 C 0.3306(2) 0.0733(2) 0.4318(1)
C8 C 0.5276(2) 0.0748(2) 0.3593(2)
C9 C 0.4244(3) 0.2512(2) 0.3923(2)
C10 C 0.5374(2) 0.4361(2) 0.1802(2)
C11 C 0.6703(3) 0.3333(3) 0.2933(2)
C12 C 0.7622(2) 0.3932(2) 0.1614(2)
C13 C 0.7586(2) 0.1888(2) 0.0549(2)
C14 C 0.7788(2) 0.1389(3) 0.2120(2)
C15 C 0.6063(2) 0.0602(2) 0.1085(2)
C16 C 0.5484(2) 0.3671(2) -0.0127(2)
C17 C 0.4528(3) 0.1951(2) -0.0733(2)
C18 C 0.3138(2) 0.3517(2) -0.0456(2)
H1 H 0.4795(15) 0.1873(14) 0.2328(11)
H2 H 0.2719(13) 0.1147(12) 0.2841(9)
H3 H 0.3667(15) 0.2409(14) 0.0755(11)
H4 H 0.2859 -0.0624 0.0971
H5 H 0.3315 -0.0173 0.1704
H6 H 0.3689 0.0150 0.0976
H7 H 0.1645 0.0457 -0.0170
H8 H 0.2403 0.1288 -0.0074
H9 H 0.1207 0.1415 -0.0018
H10 H 0.0654 -0.0268 0.1097
H11 H 0.0281 0.0714 0.1244
H12 H 0.0948 0.0172 0.1860
H13 H 0.1996 0.4131 0.2084
H14 H 0.2856 0.3818 0.1611
H15 H 0.2881 0.3469 0.2408
H16 H 0.0297 0.3405 0.1002
H17 H 0.0272 0.2393 0.0755
H18 H 0.1119 0.3050 0.0514
H19 H 0.0338 0.2907 0.2444
H20 H 0.1236 0.2406 0.2932
H21 H 0.0436 0.1855 0.2401
H22 H 0.3694 0.0785 0.4790
H23 H 0.3215 0.0107 0.4193
H24 H 0.2634 0.1013 0.4317
H25 H 0.5618 0.0608 0.4067
H26 H 0.5729 0.1114 0.3341
H27 H 0.5118 0.0199 0.3329
H28 H 0.4736 0.2521 0.4354
H29 H 0.3593 0.2769 0.4025
H30 H 0.4515 0.2858 0.3552
H31 H 0.5622 0.4916 0.2027
H32 H 0.4777 0.4153 0.2018
H33 H 0.5177 0.4459 0.1294
H34 H 0.7201 0.2849 0.2997
H35 H 0.6062 0.3148 0.3103
H36 H 0.6979 0.3849 0.3203
H37 H 0.7808 0.4464 0.1895
H38 H 0.7486 0.4090 0.1112
H39 H 0.8188 0.3507 0.1682
H40 H 0.7987 0.2426 0.0666
H41 H 0.7127 0.1980 0.0109
H42 H 0.8050 0.1395 0.0488
H43 H 0.8223 0.0894 0.2013
H44 H 0.7402 0.1225 0.2510
H45 H 0.8218 0.1904 0.2260
H46 H 0.6543 0.0130 0.0999
H47 H 0.5572 0.0689 0.0660
H48 H 0.5695 0.0438 0.1483
H49 H 0.5511 0.3875 -0.0613
H50 H 0.6117 0.3352 0.0041
H51 H 0.5412 0.4180 0.0181
H52 H 0.4572 0.2162 -0.1215
H53 H 0.3946 0.1546 -0.0737
H54 H 0.5162 0.1642 -0.0555
H55 H 0.3183 0.3743 -0.0934
H56 H 0.3064 0.4012 -0.0134
H57 H 0.2543 0.3126 -0.0466
loop_
_geom_bond_atom_site_label_1
_geom_bond_atom_site_label_2
_geom_bond_site_symmetry_1
_geom_bond_site_symmetry_2
Si1 N2 1_555 1_555
Si2 N2 1_555 1_555
Si3 N3 1_555 1_555
Si4 N4 1_555 1_555
Si5 N4 1_555 1_555
Si6 N5 1_555 1_555
B1 N1 1_555 1_555
B2 N1 1_555 1_555
N1 H1 1_555 1_555
N2 B1 1_555 1_555
N3 B1 1_555 1_555
N4 B2 1_555 1_555
N5 B2 1_555 1_555
C1 Si1 1_555 1_555
C2 Si1 1_555 1_555
C3 Si1 1_555 1_555
C4 Si2 1_555 1_555
C5 Si2 1_555 1_555
C6 Si2 1_555 1_555
C7 Si3 1_555 1_555
C8 Si3 1_555 1_555
C9 Si3 1_555 1_555
C10 Si4 1_555 1_555
C11 Si4 1_555 1_555
C12 Si4 1_555 1_555
C13 Si5 1_555 1_555
C14 Si5 1_555 1_555
C15 Si5 1_555 1_555
C16 Si6 1_555 1_555
C17 Si6 1_555 1_555
C18 Si6 1_555 1_555
H2 N3 1_555 1_555
H3 N5 1_555 1_555
H4 C1 1_555 1_555
H5 C1 1_555 1_555
H6 C1 1_555 1_555
H7 C2 1_555 1_555
H8 C2 1_555 1_555
H9 C2 1_555 1_555
H10 C3 1_555 1_555
H11 C3 1_555 1_555
H12 C3 1_555 1_555
H13 C4 1_555 1_555
H14 C4 1_555 1_555
H15 C4 1_555 1_555
H16 C5 1_555 1_555
H17 C5 1_555 1_555
H18 C5 1_555 1_555
H19 C6 1_555 1_555
H20 C6 1_555 1_555
H21 C6 1_555 1_555
H22 C7 1_555 1_555
H23 C7 1_555 1_555
H24 C7 1_555 1_555
H25 C8 1_555 1_555
H26 C8 1_555 1_555
H27 C8 1_555 1_555
H28 C9 1_555 1_555
H29 C9 1_555 1_555
H30 C9 1_555 1_555
H31 C10 1_555 1_555
H32 C10 1_555 1_555
H33 C10 1_555 1_555
H34 C11 1_555 1_555
H35 C11 1_555 1_555
H36 C11 1_555 1_555
H37 C12 1_555 1_555
H38 C12 1_555 1_555
H39 C12 1_555 1_555
H40 C13 1_555 1_555
H41 C13 1_555 1_555
H42 C13 1_555 1_555
H43 C14 1_555 1_555
H44 C14 1_555 1_555
H45 C14 1_555 1_555
H46 C15 1_555 1_555
H47 C15 1_555 1_555
H48 C15 1_555 1_555
H49 C16 1_555 1_555
H50 C16 1_555 1_555
H51 C16 1_555 1_555
H52 C17 1_555 1_555
H53 C17 1_555 1_555
H54 C17 1_555 1_555
H55 C18 1_555 1_555
H56 C18 1_555 1_555
H57 C18 1_555 1_555

#END
