
#######################################################################
#
#                 Cambridge Crystallographic Data Centre
#                                CCDC 
#
#######################################################################
#
# If this CIF has been generated from an entry in the Cambridge 
# Structural Database, then it will include bibliographic, chemical, 
# crystal, experimental, refinement or atomic coordinate data resulting 
# from the CCDC's data processing and validation procedures.
#
#######################################################################

data_GETXAF
_chemical_formula_moiety         'C8 H12 N3 O1 1+,Cl1 1-'
_chemical_name_systematic        '4-Methoxyphenylguanidinium chloride'
_symmetry_cell_setting           triclinic
_symmetry_space_group_name_H-M   'P -1'
_symmetry_Int_Tables_number      2
_space_group_name_Hall           '-P 1'
loop_
_symmetry_equiv_pos_site_id
_symmetry_equiv_pos_as_xyz
1 x,y,z
2 -x,-y,-z
_cell_length_a                   6.605(4)
_cell_length_b                   7.618(5)
_cell_length_c                   10.497(7)
_cell_angle_alpha                70.778(8)
_cell_angle_beta                 78.696(9)
_cell_angle_gamma                89.888(9)
_cell_volume                     487.937
_exptl_crystal_colour            colorless
_exptl_crystal_description       block
_cell_formula_units_Z            2
_exptl_crystal_recrystallization_method methanol
loop_
_atom_site_label
_atom_site_type_symbol
_atom_site_fract_x
_atom_site_fract_y
_atom_site_fract_z
Cl1 Cl -0.25894(8) 0.73591(7) 0.43247(6)
O1 O 0.6974(2) 0.2980(2) -0.12850(14)
N1 N -0.0093(3) 0.1347(2) 0.28900(18)
H1 H -0.0470 0.0179 0.3244
N2 N -0.0801(3) 0.4303(3) 0.2887(2)
H2 H -0.1552 0.5028 0.3229
H3 H 0.0215 0.4765 0.2199
N3 N -0.2762(3) 0.1745(3) 0.44760(19)
H4 H -0.3529 0.2449 0.4830
H5 H -0.3005 0.0555 0.4810
C1 C 0.6871(4) 0.2778(4) -0.2588(2)
H6 H 0.8221 0.3056 -0.3179
H7 H 0.5925 0.3621 -0.3014
H8 H 0.6400 0.1521 -0.2440
C2 C 0.1546(3) 0.1783(3) 0.0517(2)
H9 H 0.0272 0.1470 0.0370
C3 C 0.3284(3) 0.2130(3) -0.0539(2)
H10 H 0.3183 0.2035 -0.1385
C4 C 0.5164(3) 0.2619(3) -0.0318(2)
C5 C 0.5299(3) 0.2785(3) 0.0941(2)
H11 H 0.6561 0.3143 0.1080
C6 C 0.3562(3) 0.2418(3) 0.1987(2)
H12 H 0.3656 0.2524 0.2832
C7 C 0.1686(3) 0.1896(3) 0.1780(2)
C8 C -0.1205(3) 0.2492(3) 0.3416(2)
loop_
_geom_bond_atom_site_label_1
_geom_bond_atom_site_label_2
_geom_bond_site_symmetry_1
_geom_bond_site_symmetry_2
O1 C1 1_555 1_555
N1 H1 1_555 1_555
N2 H2 1_555 1_555
H3 N2 1_555 1_555
N3 H4 1_555 1_555
H5 N3 1_555 1_555
C1 H6 1_555 1_555
H7 C1 1_555 1_555
H8 C1 1_555 1_555
C2 H9 1_555 1_555
C3 C2 1_555 1_555
H10 C3 1_555 1_555
C4 O1 1_555 1_555
C5 C4 1_555 1_555
H11 C5 1_555 1_555
C6 C5 1_555 1_555
H12 C6 1_555 1_555
C7 N1 1_555 1_555
C8 N1 1_555 1_555
N2 C8 1_555 1_555
N3 C8 1_555 1_555
C2 C7 1_555 1_555
C3 C4 1_555 1_555
C6 C7 1_555 1_555

#END
