
#######################################################################
#
#                 Cambridge Crystallographic Data Centre
#                                CCDC 
#
#######################################################################
#
# If this CIF has been generated from an entry in the Cambridge 
# Structural Database, then it will include bibliographic, chemical, 
# crystal, experimental, refinement or atomic coordinate data resulting 
# from the CCDC's data processing and validation procedures.
#
#######################################################################

data_GEVBUG
_chemical_formula_moiety         'C36 H34 O4'
_chemical_name_systematic        
4,4',4'',4'''-Pyrene-1,3,6,8-tetrayltetrakis(2-methylbut-3-yn-2-ol)
_symmetry_cell_setting           orthorhombic
_symmetry_space_group_name_H-M   'P b c n'
_symmetry_Int_Tables_number      60
_space_group_name_Hall           '-P 2n 2ab'
loop_
_symmetry_equiv_pos_site_id
_symmetry_equiv_pos_as_xyz
1 x,y,z
2 1/2-x,1/2-y,1/2+z
3 1/2+x,1/2-y,-z
4 -x,y,1/2-z
5 -x,-y,-z
6 1/2+x,1/2+y,1/2-z
7 1/2-x,1/2+y,z
8 x,-y,1/2+z
_cell_length_a                   16.8215(8)
_cell_length_b                   24.9185(14)
_cell_length_c                   7.4008(4)
_cell_angle_alpha                90
_cell_angle_beta                 90
_cell_angle_gamma                90
_cell_volume                     3102.17
_exptl_crystal_colour            colorless
_exptl_crystal_description       plate
_cell_formula_units_Z            4
loop_
_atom_site_label
_atom_site_type_symbol
_atom_site_fract_x
_atom_site_fract_y
_atom_site_fract_z
O1 O 0.4462(3) 0.19685(16) 0.6149(6)
O2 O 0.92308(16) 0.40935(11) 0.3100(4)
C1 C 0.5987(2) 0.37776(16) 0.4246(5)
C2 C 0.6393(2) 0.42565(14) 0.3949(5)
C3 C 0.5999(2) 0.47538(14) 0.4236(4)
C4 C 0.5199(2) 0.47550(13) 0.4840(4)
C5 C 0.6391(2) 0.52564(15) 0.3944(5)
C6 C 0.3993(2) 0.42751(15) 0.5762(5)
C7 C 0.8643(2) 0.42658(15) 0.1815(6)
C8 C 0.8843(3) 0.48434(17) 0.1334(6)
C9 C 0.7846(2) 0.42457(15) 0.2691(5)
C10 C 0.7210(2) 0.42401(15) 0.3291(5)
C11 C 0.4792(2) 0.32637(17) 0.5024(5)
C12 C 0.4438(3) 0.28575(18) 0.5164(6)
C13 C 0.5201(2) 0.37699(15) 0.4816(5)
C14 C 0.4793(2) 0.42570(15) 0.5147(5)
C15 C 0.3971(3) 0.23578(18) 0.5331(7)
C16 C 0.8655(3) 0.3911(2) 0.0138(6)
C17 C 0.3255(4) 0.2454(3) 0.6417(13)
C18 C 0.3757(4) 0.2137(3) 0.3501(9)
H1 H 0.62500 0.34540 0.40570
H2 H 0.69160 0.52610 0.35480
H3 H 0.37250 0.39540 0.59690
H4 H 0.88710 0.50540 0.24170
H5 H 0.84370 0.49860 0.05560
H6 H 0.93460 0.48550 0.07230
H7 H 0.29450 0.21310 0.64730
H8 H 0.29460 0.27350 0.58720
H9 H 0.34070 0.25590 0.76170
H10 H 0.42330 0.20360 0.28710
H11 H 0.34790 0.24050 0.28200
H12 H 0.34230 0.18270 0.36450
H13 H 0.43910 0.19710 0.72450
H14 H 0.91800 0.37710 0.32880
H15 H 0.91700 0.39290 -0.04160
H16 H 0.82600 0.40350 -0.07020
H17 H 0.85410 0.35470 0.04760
O1D O 0.5538(3) 0.80315(16) 0.3851(6)
O2D O 0.07692(16) 0.59065(11) 0.6900(4)
C1D C 0.4013(2) 0.62224(16) 0.5754(5)
C2D C 0.3607(2) 0.57435(14) 0.6051(5)
C3D C 0.4001(2) 0.52462(14) 0.5764(4)
C4D C 0.4801(2) 0.52450(13) 0.5160(4)
C5D C 0.3609(2) 0.47436(15) 0.6056(5)
C6D C 0.6007(2) 0.57249(15) 0.4238(5)
C7D C 0.1357(2) 0.57342(15) 0.8185(6)
C8D C 0.1157(3) 0.51566(17) 0.8666(6)
C9D C 0.2154(2) 0.57543(15) 0.7309(5)
C10D C 0.2790(2) 0.57599(15) 0.6709(5)
C11D C 0.5208(2) 0.67363(17) 0.4976(5)
C12D C 0.5562(3) 0.71425(18) 0.4836(6)
C13D C 0.4799(2) 0.62301(15) 0.5184(5)
C14D C 0.5207(2) 0.57430(15) 0.4853(5)
C15D C 0.6029(3) 0.76422(18) 0.4669(7)
C16D C 0.1345(3) 0.6089(2) 0.9862(6)
C17D C 0.6745(4) 0.7546(3) 0.3583(13)
C18D C 0.6243(4) 0.7863(3) 0.6499(9)
H1D H 0.37500 0.65460 0.59430
H2D H 0.30840 0.47390 0.64520
H3D H 0.62750 0.60460 0.40310
H4D H 0.11290 0.49460 0.75830
H5D H 0.15630 0.50140 0.94440
H6D H 0.06540 0.51450 0.92770
H7D H 0.70550 0.78690 0.35270
H8D H 0.70540 0.72650 0.41280
H9D H 0.65930 0.74410 0.23830
H10D H 0.57670 0.79640 0.71290
H11D H 0.65210 0.75950 0.71800
H12D H 0.65770 0.81730 0.63550
H13D H 0.56090 0.80290 0.27550
H14D H 0.08200 0.62290 0.67120
H15D H 0.08300 0.60710 1.04160
H16D H 0.17400 0.59650 1.07020
H17D H 0.14590 0.64530 0.95240
loop_
_geom_bond_atom_site_label_1
_geom_bond_atom_site_label_2
_geom_bond_site_symmetry_1
_geom_bond_site_symmetry_2
O1 C15 1_555 1_555
O2 C7 1_555 1_555
C1 C2 1_555 1_555
C2 C3 1_555 1_555
C3 C4 1_555 1_555
C4 C14 1_555 1_555
C5 C3 1_555 1_555
C6 C14 1_555 1_555
C7 C8 1_555 1_555
C8 H4 1_555 1_555
C9 C7 1_555 1_555
C10 C2 1_555 1_555
C11 C12 1_555 1_555
C12 C15 1_555 1_555
C13 C1 1_555 1_555
C14 C13 1_555 1_555
C15 C17 1_555 1_555
C16 C7 1_555 1_555
C17 H7 1_555 1_555
C18 C15 1_555 1_555
H1 C1 1_555 1_555
H2 C5 1_555 1_555
H3 C6 1_555 1_555
H5 C8 1_555 1_555
H6 C8 1_555 1_555
H8 C17 1_555 1_555
H9 C17 1_555 1_555
H10 C18 1_555 1_555
H11 C18 1_555 1_555
H12 C18 1_555 1_555
H13 O1 1_555 1_555
H14 O2 1_555 1_555
H15 C16 1_555 1_555
H16 C16 1_555 1_555
H17 C16 1_555 1_555
O1D C15D 1_555 1_555
O2D C7D 1_555 1_555
C1D C2D 1_555 1_555
C2D C3D 1_555 1_555
C3D C4D 1_555 1_555
C4D C4 1_555 1_555
C5D C6 1_555 1_555
C6D C5 1_555 1_555
C7D C8D 1_555 1_555
C8D H4D 1_555 1_555
C9D C7D 1_555 1_555
C10D C2D 1_555 1_555
C11D C12D 1_555 1_555
C12D C15D 1_555 1_555
C13D C1D 1_555 1_555
C14D C4D 1_555 1_555
C15D C17D 1_555 1_555
C16D C7D 1_555 1_555
C17D H7D 1_555 1_555
C18D C15D 1_555 1_555
H1D C1D 1_555 1_555
H2D C5D 1_555 1_555
H3D C6D 1_555 1_555
H5D C8D 1_555 1_555
H6D C8D 1_555 1_555
H8D C17D 1_555 1_555
H9D C17D 1_555 1_555
H10D C18D 1_555 1_555
H11D C18D 1_555 1_555
H12D C18D 1_555 1_555
H13D O1D 1_555 1_555
H14D O2D 1_555 1_555
H15D C16D 1_555 1_555
H16D C16D 1_555 1_555
H17D C16D 1_555 1_555
C9 C10 1_555 1_555
C11 C13 1_555 1_555
C3D C5D 1_555 1_555
C6D C14D 1_555 1_555
C9D C10D 1_555 1_555
C11D C13D 1_555 1_555
C13D C14D 1_555 1_555

#END
