
#######################################################################
#
#                 Cambridge Crystallographic Data Centre
#                                CCDC 
#
#######################################################################
#
# If this CIF has been generated from an entry in the Cambridge 
# Structural Database, then it will include bibliographic, chemical, 
# crystal, experimental, refinement or atomic coordinate data resulting 
# from the CCDC's data processing and validation procedures.
#
#######################################################################

data_GEVBIT
_chemical_formula_moiety         'C13 H11 N3 O2,H2 O1'
_chemical_name_systematic        
"2'-(4-Hydroxybenzylidene)isonicotinohydrazide monohydrate"
_symmetry_cell_setting           orthorhombic
_symmetry_space_group_name_H-M   'P b c a'
_symmetry_Int_Tables_number      61
_space_group_name_Hall           '-P 2ac 2ab'
loop_
_symmetry_equiv_pos_site_id
_symmetry_equiv_pos_as_xyz
1 x,y,z
2 1/2-x,-y,1/2+z
3 -x,1/2+y,1/2-z
4 1/2+x,1/2-y,-z
5 -x,-y,-z
6 1/2+x,y,1/2-z
7 x,1/2-y,1/2+z
8 1/2-x,1/2+y,z
_cell_length_a                   7.0488(15)
_cell_length_b                   12.150(3)
_cell_length_c                   28.649(6)
_cell_angle_alpha                90
_cell_angle_beta                 90
_cell_angle_gamma                90
_cell_volume                     2453.58
_exptl_crystal_colour            colorless
_exptl_crystal_description       block
_cell_formula_units_Z            8
_exptl_crystal_recrystallization_method ethanol
loop_
_atom_site_label
_atom_site_type_symbol
_atom_site_fract_x
_atom_site_fract_y
_atom_site_fract_z
N1 N 0.1008(3) 0.31397(16) 0.11697(6)
N2 N 0.1441(3) 0.18591(15) 0.28567(6)
H1 H 0.122(3) 0.2583(19) 0.2882(7)
N3 N 0.1743(2) 0.12898(14) 0.32738(6)
O1 O 0.1971(2) 0.03312(12) 0.24276(5)
O2 O 0.2244(3) 0.04210(13) 0.54849(5)
H2 H 0.173(4) 0.088(2) 0.5675(9)
C1 C 0.1539(3) 0.2086(2) 0.11823(8)
H3 H 0.1799 0.1734 0.0901
C2 C 0.1721(3) 0.14913(19) 0.15904(7)
H4 H 0.2088 0.0756 0.1581
C3 C 0.1356(3) 0.19940(18) 0.20131(7)
C4 C 0.0768(3) 0.30829(18) 0.20028(7)
H5 H 0.0485 0.3454 0.2278
C5 C 0.0610(3) 0.36058(19) 0.15779(8)
H6 H 0.0197 0.4333 0.1577
C6 C 0.1605(3) 0.13260(19) 0.24501(7)
C7 C 0.1403(3) 0.18638(19) 0.36383(8)
H7 H 0.0976 0.2582 0.3598
C8 C 0.1643(3) 0.14604(17) 0.41136(7)
C9 C 0.2567(3) 0.04828(18) 0.42238(8)
H8 H 0.3065 0.0048 0.3986
C10 C 0.2750(3) 0.01506(18) 0.46831(7)
H9 H 0.3378 -0.0502 0.4753
C11 C 0.2003(3) 0.07869(18) 0.50399(7)
C12 C 0.1083(3) 0.17606(18) 0.49338(8)
H10 H 0.0576 0.2192 0.5171
C13 C 0.0921(3) 0.20893(18) 0.44776(8)
H11 H 0.0312 0.2749 0.4410
O3 O 0.0722(3) 0.41313(14) 0.31012(6)
H12 H 0.157(4) 0.458(2) 0.3034(9)
H13 H -0.029(4) 0.441(2) 0.2958(9)
loop_
_geom_bond_atom_site_label_1
_geom_bond_atom_site_label_2
_geom_bond_site_symmetry_1
_geom_bond_site_symmetry_2
N1 C1 1_555 1_555
N2 H1 1_555 1_555
N3 N2 1_555 1_555
O1 C6 1_555 1_555
O2 H2 1_555 1_555
C1 H3 1_555 1_555
C2 C1 1_555 1_555
H4 C2 1_555 1_555
C3 C2 1_555 1_555
C4 C3 1_555 1_555
H5 C4 1_555 1_555
C5 N1 1_555 1_555
H6 C5 1_555 1_555
C6 N2 1_555 1_555
C7 N3 1_555 1_555
H7 C7 1_555 1_555
C8 C7 1_555 1_555
C9 C8 1_555 1_555
H8 C9 1_555 1_555
C10 C9 1_555 1_555
H9 C10 1_555 1_555
C11 O2 1_555 1_555
C12 C11 1_555 1_555
H10 C12 1_555 1_555
C13 C8 1_555 1_555
H11 C13 1_555 1_555
O3 H12 1_555 1_555
H13 O3 1_555 1_555
C3 C6 1_555 1_555
C4 C5 1_555 1_555
C10 C11 1_555 1_555
C12 C13 1_555 1_555

#END
