
#######################################################################
#
#                 Cambridge Crystallographic Data Centre
#                                CCDC 
#
#######################################################################
#
# If this CIF has been generated from an entry in the Cambridge 
# Structural Database, then it will include bibliographic, chemical, 
# crystal, experimental, refinement or atomic coordinate data resulting 
# from the CCDC's data processing and validation procedures.
#
#######################################################################

data_GEVCEQ
_chemical_formula_moiety         'C16 H11 Cl1 O6'
_chemical_name_systematic        
'Methyl 7-(4-chlorobenzoyloxy)-1,3-benzodioxole-5-carboxylate'
_symmetry_cell_setting           monoclinic
_symmetry_space_group_name_H-M   'P 21/n'
_symmetry_Int_Tables_number      14
_space_group_name_Hall           '-P 2yn'
loop_
_symmetry_equiv_pos_site_id
_symmetry_equiv_pos_as_xyz
1 x,y,z
2 1/2-x,1/2+y,1/2-z
3 -x,-y,-z
4 1/2+x,1/2-y,1/2+z
_cell_length_a                   12.240(5)
_cell_length_b                   6.618(3)
_cell_length_c                   18.471(8)
_cell_angle_alpha                90
_cell_angle_beta                 95.879(7)
_cell_angle_gamma                90
_cell_volume                     1488.36
_exptl_crystal_colour            colorless
_exptl_crystal_description       block
_chemical_melting_point          '387-388 K'
_cell_formula_units_Z            4
_exptl_crystal_recrystallization_method 'petroleum ether/ethyl acetate'
loop_
_atom_site_label
_atom_site_type_symbol
_atom_site_fract_x
_atom_site_fract_y
_atom_site_fract_z
Cl1 Cl 0.38584(8) 1.06935(14) 1.12418(5)
O1 O -0.08106(16) -0.2577(3) 0.91705(11)
O2 O -0.11543(17) -0.3449(3) 0.80019(10)
O3 O 0.11086(17) 0.1418(3) 0.66590(10)
O4 O 0.17457(16) 0.3920(3) 0.74724(11)
O5 O 0.13236(15) 0.3991(3) 0.90012(10)
O6 O 0.29061(16) 0.2322(3) 0.92636(12)
C1 C -0.1828(3) -0.5103(5) 0.82046(18)
H1 H -0.1391 -0.6006 0.8521
H2 H -0.2120 -0.5817 0.7775
H3 H -0.2421 -0.4585 0.8452
C2 C -0.0690(2) -0.2298(4) 0.85420(16)
C3 C -0.0034(2) -0.0646(4) 0.82650(14)
C4 C 0.0181(2) -0.0575(4) 0.75377(14)
H4 H -0.0083 -0.1564 0.7207
C5 C 0.0793(2) 0.1004(4) 0.73341(14)
C6 C 0.1808(3) 0.3136(5) 0.67526(16)
H5 H 0.1575 0.4157 0.6393
H6 H 0.2558 0.2755 0.6691
C7 C 0.1176(2) 0.2494(4) 0.78097(14)
C8 C 0.0969(2) 0.2431(4) 0.85271(15)
C9 C 0.0362(2) 0.0837(4) 0.87499(14)
H7 H 0.0217 0.0757 0.9233
C10 C 0.2346(2) 0.3763(4) 0.93570(14)
C11 C 0.2660(2) 0.5473(4) 0.98403(13)
C12 C 0.3705(2) 0.5448(4) 1.02112(14)
H8 H 0.4157 0.4333 1.0170
C13 C 0.4077(2) 0.7050(5) 1.06382(15)
H9 H 0.4782 0.7040 1.0880
C14 C 0.3395(3) 0.8666(4) 1.07026(14)
C15 C 0.2345(2) 0.8708(4) 1.03524(15)
H10 H 0.1889 0.9811 1.0406
C16 C 0.1980(2) 0.7096(4) 0.99215(14)
H11 H 0.1271 0.7105 0.9685
loop_
_geom_bond_atom_site_label_1
_geom_bond_atom_site_label_2
_geom_bond_site_symmetry_1
_geom_bond_site_symmetry_2
Cl1 C14 1_555 1_555
O1 C2 1_555 1_555
O2 C1 1_555 1_555
O3 C5 1_555 1_555
O4 C6 1_555 1_555
O5 C8 1_555 1_555
O6 C10 1_555 1_555
C1 H1 1_555 1_555
H2 C1 1_555 1_555
H3 C1 1_555 1_555
C2 O2 1_555 1_555
C3 C2 1_555 1_555
C4 C3 1_555 1_555
H4 C4 1_555 1_555
C5 C4 1_555 1_555
C6 O3 1_555 1_555
H5 C6 1_555 1_555
H6 C6 1_555 1_555
C7 O4 1_555 1_555
C8 C7 1_555 1_555
C9 C3 1_555 1_555
H7 C9 1_555 1_555
C10 O5 1_555 1_555
C11 C10 1_555 1_555
C12 C11 1_555 1_555
H8 C12 1_555 1_555
C13 C12 1_555 1_555
H9 C13 1_555 1_555
C14 C13 1_555 1_555
C15 C14 1_555 1_555
H10 C15 1_555 1_555
C16 C11 1_555 1_555
H11 C16 1_555 1_555
C5 C7 1_555 1_555
C8 C9 1_555 1_555
C15 C16 1_555 1_555

#END
