
#######################################################################
#
#                 Cambridge Crystallographic Data Centre
#                                CCDC 
#
#######################################################################
#
# If this CIF has been generated from an entry in the Cambridge 
# Structural Database, then it will include bibliographic, chemical, 
# crystal, experimental, refinement or atomic coordinate data resulting 
# from the CCDC's data processing and validation procedures.
#
#######################################################################

data_GEVCAN
_chemical_formula_moiety         'C21 H16 O1'
_chemical_name_systematic        2-Methyl-4-(pyren-1-yl)but-3-yn-2-ol
_symmetry_cell_setting           monoclinic
_symmetry_space_group_name_H-M   'P c'
_symmetry_Int_Tables_number      7
_space_group_name_Hall           'P -2yc'
loop_
_symmetry_equiv_pos_site_id
_symmetry_equiv_pos_as_xyz
1 x,y,z
2 x,-y,1/2+z
_cell_length_a                   23.955(4)
_cell_length_b                   7.5099(12)
_cell_length_c                   8.5462(14)
_cell_angle_alpha                90
_cell_angle_beta                 95.195(3)
_cell_angle_gamma                90
_cell_volume                     1531.14
_exptl_crystal_colour            colorless
_exptl_crystal_description       block
_cell_formula_units_Z            4
loop_
_atom_site_label
_atom_site_type_symbol
_atom_site_fract_x
_atom_site_fract_y
_atom_site_fract_z
O1 O 0.17909(10) 0.5976(4) 0.2646(3)
C1 C 0.45488(14) 0.2255(5) 0.2797(3)
C2 C 0.50558(15) 0.2857(5) 0.2199(4)
C3 C 0.35836(14) 0.2824(5) 0.3382(4)
C4 C 0.40760(15) 0.3410(5) 0.2729(4)
C5 C 0.55321(17) 0.1734(6) 0.2282(4)
C6 C 0.45971(16) 0.5683(5) 0.1485(4)
C7 C 0.27511(14) 0.5081(5) 0.3326(4)
C8 C 0.31179(14) 0.4033(5) 0.3375(4)
C9 C 0.40333(18) 0.0020(5) 0.4072(4)
C10 C 0.35702(16) 0.1128(5) 0.4039(4)
C11 C 0.41233(14) 0.5124(5) 0.2048(4)
C12 C 0.45262(16) 0.0544(5) 0.3465(4)
C13 C 0.50827(15) 0.4578(5) 0.1535(4)
C14 C 0.54867(19) 0.0006(7) 0.2969(5)
C15 C 0.23375(14) 0.6576(5) 0.3255(4)
C16 C 0.60223(17) 0.2334(7) 0.1694(5)
C17 C 0.50155(18) -0.0558(5) 0.3528(4)
C18 C 0.55837(17) 0.5122(6) 0.0954(4)
C19 C 0.60392(18) 0.3999(8) 0.1025(5)
C20 C 0.23114(15) 0.7362(4) 0.4879(4)
C21 C 0.25079(15) 0.7954(5) 0.2099(4)
H1 H 0.16590 0.53360 0.32960
H2 H 0.46100 0.68160 0.10520
H3 H 0.40140 -0.11080 0.45120
H4 H 0.32470 0.07370 0.44610
H5 H 0.38150 0.58820 0.19920
H6 H 0.57960 -0.07470 0.30270
H7 H 0.63380 0.16100 0.17530
H8 H 0.50050 -0.16890 0.39680
H9 H 0.56090 0.62500 0.05170
H10 H 0.63660 0.43730 0.06130
H11 H 0.20610 0.83630 0.48190
H12 H 0.26790 0.77420 0.52840
H13 H 0.21770 0.64770 0.55640
H14 H 0.25010 0.74300 0.10730
H15 H 0.28800 0.83690 0.24210
H16 H 0.22510 0.89370 0.20700
O2 O 1.12335(10) 0.3904(3) 0.4661(2)
C22 C 0.90356(14) 0.2309(4) 0.6573(4)
C23 C 0.85998(15) 0.2587(4) 0.7562(4)
C24 C 0.87320(16) 0.3083(5) 0.9162(4)
C25 C 0.80312(15) 0.2375(4) 0.6966(4)
C26 C 0.78969(16) 0.1883(5) 0.5390(5)
C27 C 0.95959(14) 0.2582(5) 0.7181(4)
C28 C 0.92882(16) 0.3284(5) 0.9718(5)
C29 C 0.75970(15) 0.2705(5) 0.7967(5)
C30 C 1.00433(15) 0.2454(5) 0.6162(5)
C31 C 0.97081(15) 0.3046(5) 0.8753(5)
C32 C 0.73363(18) 0.1671(5) 0.4826(5)
C33 C 0.77466(18) 0.3205(5) 0.9559(5)
C34 C 0.83381(16) 0.1587(5) 0.4416(5)
C35 C 1.04112(15) 0.2452(5) 0.5306(4)
C36 C 0.88838(16) 0.1804(4) 0.4984(4)
C37 C 0.82850(17) 0.3383(5) 1.0122(5)
C38 C 1.08565(14) 0.2479(5) 0.4238(4)
C39 C 0.69148(19) 0.1980(6) 0.5793(7)
C40 C 1.06208(15) 0.2828(5) 0.2566(4)
C41 C 0.70387(17) 0.2489(6) 0.7323(7)
C42 C 1.11725(16) 0.0721(5) 0.4339(5)
H17 H 1.13580 0.37940 0.55820
H18 H 0.93790 0.35860 1.07660
H19 H 1.00780 0.31980 0.91600
H20 H 0.72450 0.13180 0.37910
H21 H 0.74660 0.34130 1.02200
H22 H 0.82530 0.12410 0.33770
H23 H 0.91640 0.16180 0.43180
H24 H 0.83690 0.37110 1.11670
H25 H 0.65420 0.18410 0.54010
H26 H 1.04270 0.39490 0.25140
H27 H 1.03640 0.18940 0.22260
H28 H 1.09210 0.28640 0.18950
H29 H 0.67480 0.26960 0.79510
H30 H 1.14710 0.07610 0.36630
H31 H 1.09210 -0.02310 0.40140
H32 H 1.13250 0.05220 0.54020
loop_
_geom_bond_atom_site_label_1
_geom_bond_atom_site_label_2
_geom_bond_site_symmetry_1
_geom_bond_site_symmetry_2
O1 C15 1_555 1_555
C1 C2 1_555 1_555
C2 C5 1_555 1_555
C3 C4 1_555 1_555
C4 C1 1_555 1_555
C5 C14 1_555 1_555
C6 C11 1_555 1_555
C7 C8 1_555 1_555
C8 C3 1_555 1_555
C9 C10 1_555 1_555
C10 C3 1_555 1_555
C11 C4 1_555 1_555
C12 C1 1_555 1_555
C13 C2 1_555 1_555
C14 C17 1_555 1_555
C15 C7 1_555 1_555
C16 C5 1_555 1_555
C17 C12 1_555 1_555
C18 C13 1_555 1_555
C19 C16 1_555 1_555
C20 C15 1_555 1_555
C21 C15 1_555 1_555
H1 O1 1_555 1_555
H2 C6 1_555 1_555
H3 C9 1_555 1_555
H4 C10 1_555 1_555
H5 C11 1_555 1_555
H6 C14 1_555 1_555
H7 C16 1_555 1_555
H8 C17 1_555 1_555
H9 C18 1_555 1_555
H10 C19 1_555 1_555
H11 C20 1_555 1_555
H12 C20 1_555 1_555
H13 C20 1_555 1_555
H14 C21 1_555 1_555
H15 C21 1_555 1_555
H16 C21 1_555 1_555
O2 C38 1_555 1_555
C22 C23 1_555 1_555
C23 C24 1_555 1_555
C24 C28 1_555 1_555
C25 C23 1_555 1_555
C26 C25 1_555 1_555
C27 C22 1_555 1_555
C28 C31 1_555 1_555
C29 C25 1_555 1_555
C30 C27 1_555 1_555
C31 C27 1_555 1_555
C32 C26 1_555 1_555
C33 C29 1_555 1_555
C34 C26 1_555 1_555
C35 C30 1_555 1_555
C36 C22 1_555 1_555
C37 C24 1_555 1_555
C38 C35 1_555 1_555
C39 C32 1_555 1_555
C40 C38 1_555 1_555
C41 C29 1_555 1_555
C42 C38 1_555 1_555
H17 O2 1_555 1_555
H18 C28 1_555 1_555
H19 C31 1_555 1_555
H20 C32 1_555 1_555
H21 C33 1_555 1_555
H22 C34 1_555 1_555
H23 C36 1_555 1_555
H24 C37 1_555 1_555
H25 C39 1_555 1_555
H26 C40 1_555 1_555
H27 C40 1_555 1_555
H28 C40 1_555 1_555
H29 C41 1_555 1_555
H30 C42 1_555 1_555
H31 C42 1_555 1_555
H32 C42 1_555 1_555
C6 C13 1_555 1_555
C9 C12 1_555 1_555
C18 C19 1_555 1_555
C33 C37 1_555 1_555
C34 C36 1_555 1_555
C39 C41 1_555 1_555

#END
