
#######################################################################
#
#                 Cambridge Crystallographic Data Centre
#                                CCDC 
#
#######################################################################
#
# If this CIF has been generated from an entry in the Cambridge 
# Structural Database, then it will include bibliographic, chemical, 
# crystal, experimental, refinement or atomic coordinate data resulting 
# from the CCDC's data processing and validation procedures.
#
#######################################################################

data_GEVFET
_chemical_formula_moiety         'C22 H20 N2 O4'
_chemical_name_systematic        
N,N'-Bis((3,4-methylenedioxyphenyl)methylene)phenylene-1,4-diamine
_symmetry_cell_setting           monoclinic
_symmetry_space_group_name_H-M   'P 21/c'
_symmetry_Int_Tables_number      14
_space_group_name_Hall           '-P 2ybc'
loop_
_symmetry_equiv_pos_site_id
_symmetry_equiv_pos_as_xyz
1 x,y,z
2 -x,1/2+y,1/2-z
3 -x,-y,-z
4 x,1/2-y,1/2+z
_cell_length_a                   14.2255(14)
_cell_length_b                   4.9257(16)
_cell_length_c                   12.7837(18)
_cell_angle_alpha                90
_cell_angle_beta                 101.624(3)
_cell_angle_gamma                90
_cell_volume                     877.39
_exptl_crystal_colour            yellow
_exptl_crystal_description       columnar
_chemical_melting_point          '453-455 K'
_cell_formula_units_Z            2
_exptl_crystal_recrystallization_method ethanol
loop_
_atom_site_label
_atom_site_type_symbol
_atom_site_fract_x
_atom_site_fract_y
_atom_site_fract_z
N1 N 0.43167(13) 0.8565(4) 0.32950(16)
H1 H 0.4683 0.8965 0.2858
O1 O 0.05355(11) 0.2744(4) 0.08789(12)
O2 O 0.19647(11) 0.3153(4) 0.02910(13)
C1 C 0.56156(15) 0.6203(5) 0.44539(18)
H2 H 0.6043 0.7009 0.4086
C2 C 0.46439(15) 0.6807(5) 0.41489(17)
C3 C 0.40329(15) 0.5544(5) 0.47193(17)
H3 H 0.3377 0.5883 0.4540
C4 C 0.33596(17) 0.9717(5) 0.3143(2)
H4 H 0.3346 1.1394 0.2743
H5 H 0.3222 1.0160 0.3837
C5 C 0.25803(16) 0.7855(5) 0.25625(18)
C6 C 0.27212(15) 0.6405(5) 0.16722(17)
H6 H 0.3291 0.6545 0.1425
C7 C 0.19907(15) 0.4767(5) 0.11737(17)
C8 C 0.11377(15) 0.4524(5) 0.15223(17)
C9 C 0.09735(16) 0.5940(5) 0.23785(19)
H7 H 0.0395 0.5802 0.2608
C10 C 0.17149(17) 0.7616(5) 0.29000(19)
H8 H 0.1626 0.8603 0.3492
C11 C 0.10699(16) 0.1769(6) 0.0131(2)
H9 H 0.0715 0.2082 -0.0590
H10 H 0.1177 -0.0168 0.0226
N1B N 0.56833(13) 0.1435(4) 0.67050(16)
H1B H 0.5317 0.1035 0.7142
O1B O 0.94645(11) 0.7256(4) 0.91211(12)
O2B O 0.80353(11) 0.6847(4) 0.97090(13)
C1B C 0.43844(15) 0.3797(5) 0.55461(18)
H2B H 0.3957 0.2991 0.5914
C2B C 0.53561(15) 0.3193(5) 0.58511(17)
C3B C 0.59671(15) 0.4456(5) 0.52807(17)
H3B H 0.6623 0.4117 0.5460
C4B C 0.66404(17) 0.0283(5) 0.6857(2)
H4B H 0.6654 -0.1394 0.7257
H5B H 0.6778 -0.0160 0.6163
C5B C 0.74197(16) 0.2145(5) 0.74375(18)
C6B C 0.72788(15) 0.3595(5) 0.83278(17)
H6B H 0.6709 0.3455 0.8575
C7B C 0.80093(15) 0.5233(5) 0.88263(17)
C8B C 0.88623(15) 0.5476(5) 0.84777(17)
C9B C 0.90265(16) 0.4060(5) 0.76215(19)
H7B H 0.9605 0.4198 0.7392
C10B C 0.82851(17) 0.2384(5) 0.71000(19)
H8B H 0.8374 0.1397 0.6508
C11B C 0.89301(16) 0.8231(6) 0.9869(2)
H9B H 0.9285 0.7918 1.0590
H10B H 0.8823 1.0168 0.9774
loop_
_geom_bond_atom_site_label_1
_geom_bond_atom_site_label_2
_geom_bond_site_symmetry_1
_geom_bond_site_symmetry_2
N1 H1 1_555 1_555
O1 C8 1_555 1_555
O2 C7 1_555 1_555
C1 H2 1_555 1_555
C2 N1 1_555 1_555
C3 C2 1_555 1_555
H3 C3 1_555 1_555
C4 N1 1_555 1_555
H4 C4 1_555 1_555
H5 C4 1_555 1_555
C5 C4 1_555 1_555
C6 C5 1_555 1_555
H6 C6 1_555 1_555
C7 C6 1_555 1_555
C8 C7 1_555 1_555
C9 C8 1_555 1_555
H7 C9 1_555 1_555
C10 C5 1_555 1_555
H8 C10 1_555 1_555
C11 O1 1_555 1_555
H9 C11 1_555 1_555
H10 C11 1_555 1_555
N1B H1B 1_555 1_555
O1B C8B 1_555 1_555
O2B C7B 1_555 1_555
C1B C3 1_555 1_555
H2B C1B 1_555 1_555
C2B N1B 1_555 1_555
C3B C1 1_555 1_555
H3B C3B 1_555 1_555
C4B N1B 1_555 1_555
H4B C4B 1_555 1_555
H5B C4B 1_555 1_555
C5B C4B 1_555 1_555
C6B C5B 1_555 1_555
H6B C6B 1_555 1_555
C7B C6B 1_555 1_555
C8B C7B 1_555 1_555
C9B C8B 1_555 1_555
H7B C9B 1_555 1_555
C10B C5B 1_555 1_555
H8B C10B 1_555 1_555
C11B O1B 1_555 1_555
H9B C11B 1_555 1_555
H10B C11B 1_555 1_555
O2 C11 1_555 1_555
C1 C2 1_555 1_555
C9 C10 1_555 1_555
O2B C11B 1_555 1_555
C1B C2B 1_555 1_555
C2B C3B 1_555 1_555
C9B C10B 1_555 1_555

#END
