
#######################################################################
#
#                 Cambridge Crystallographic Data Centre
#                                CCDC 
#
#######################################################################
#
# If this CIF has been generated from an entry in the Cambridge 
# Structural Database, then it will include bibliographic, chemical, 
# crystal, experimental, refinement or atomic coordinate data resulting 
# from the CCDC's data processing and validation procedures.
#
#######################################################################

data_GEVGAQ
_chemical_formula_moiety         'C19 H26 N2 O4'
_chemical_name_systematic        
6,6'-Dimethoxy-2,2'-(propane-1,3-diyldiiminodimethylene)diphenol
_symmetry_cell_setting           triclinic
_symmetry_space_group_name_H-M   'P -1'
_symmetry_Int_Tables_number      2
_space_group_name_Hall           '-P 1'
loop_
_symmetry_equiv_pos_site_id
_symmetry_equiv_pos_as_xyz
1 x,y,z
2 -x,-y,-z
_cell_length_a                   9.278(3)
_cell_length_b                   10.013(4)
_cell_length_c                   10.816(4)
_cell_angle_alpha                92.144(4)
_cell_angle_beta                 98.550(4)
_cell_angle_gamma                109.215(4)
_cell_volume                     934.271
_exptl_crystal_colour            colorless
_exptl_crystal_description       block
_cell_formula_units_Z            2
loop_
_atom_site_label
_atom_site_type_symbol
_atom_site_fract_x
_atom_site_fract_y
_atom_site_fract_z
N1 N 0.5429(2) 0.3083(2) 0.7352(2)
H1 H 0.4847 0.3582 0.7010
N2 N 0.6656(3) 0.2540(2) 0.3172(2)
H2 H 0.6224 0.3182 0.2899
O1 O 0.4798(2) 0.57229(18) 0.78904(18)
H3 H 0.4485 0.4859 0.7725
O2 O 0.6192(2) 0.84603(17) 0.87303(19)
O3 O 0.6375(2) -0.03760(18) 0.2664(2)
H4 H 0.6053 -0.1225 0.2763
O4 O 0.7913(2) -0.21618(19) 0.3306(2)
C1 C 0.6801(3) 0.5094(3) 0.9070(2)
C2 C 0.8218(3) 0.5515(3) 0.9865(3)
H5 H 0.8656 0.4837 1.0119
C3 C 0.8984(4) 0.6914(3) 1.0284(3)
H6 H 0.9941 0.7177 1.0809
C4 C 0.8345(3) 0.7936(3) 0.9932(3)
H7 H 0.8859 0.8882 1.0233
C5 C 0.6951(3) 0.7550(3) 0.9138(2)
C6 C 0.6170(3) 0.6126(3) 0.8682(2)
C7 C 0.6853(4) 0.9906(3) 0.9214(4)
H8 H 0.6962 0.9972 1.0113
H9 H 0.6193 1.0416 0.8879
H10 H 0.7853 1.0310 0.8976
C8 C 0.5890(3) 0.3544(3) 0.8697(3)
H11 H 0.6501 0.2993 0.9068
H12 H 0.4959 0.3305 0.9070
C9 C 0.6695(3) 0.3269(3) 0.6657(3)
H13 H 0.7275 0.2661 0.6950
H14 H 0.7390 0.4246 0.6808
C10 C 0.6095(3) 0.2909(3) 0.5272(3)
H15 H 0.5313 0.1970 0.5141
H16 H 0.5599 0.3579 0.4975
C11 C 0.7320(3) 0.2934(3) 0.4498(2)
H17 H 0.8089 0.3879 0.4599
H18 H 0.7836 0.2278 0.4797
C12 C 0.7793(4) 0.2488(3) 0.2374(3)
H19 H 0.8516 0.3443 0.2377
H20 H 0.7251 0.2181 0.1519
C13 C 0.8707(3) 0.1521(3) 0.2756(2)
C14 C 0.7943(3) 0.0104(3) 0.2882(2)
C15 C 0.8792(3) -0.0786(3) 0.3226(3)
C16 C 1.0385(3) -0.0260(3) 0.3445(3)
H21 H 1.0948 -0.0852 0.3682
C17 C 1.1138(4) 0.1147(4) 0.3310(3)
H22 H 1.2214 0.1506 0.3451
C18 C 1.0312(4) 0.2022(3) 0.2968(3)
H23 H 1.0838 0.2970 0.2877
C19 C 0.8654(4) -0.3170(3) 0.3612(3)
H24 H 0.9359 -0.3156 0.3043
H25 H 0.7889 -0.4100 0.3545
H26 H 0.9216 -0.2933 0.4456
loop_
_geom_bond_atom_site_label_1
_geom_bond_atom_site_label_2
_geom_bond_site_symmetry_1
_geom_bond_site_symmetry_2
N1 H1 1_555 1_555
N2 H2 1_555 1_555
O1 H3 1_555 1_555
O2 C5 1_555 1_555
O3 H4 1_555 1_555
O4 C15 1_555 1_555
C1 C2 1_555 1_555
C2 H5 1_555 1_555
C3 C2 1_555 1_555
H6 C3 1_555 1_555
C4 C3 1_555 1_555
H7 C4 1_555 1_555
C5 C4 1_555 1_555
C6 O1 1_555 1_555
C7 O2 1_555 1_555
H8 C7 1_555 1_555
H9 C7 1_555 1_555
H10 C7 1_555 1_555
C8 N1 1_555 1_555
H11 C8 1_555 1_555
H12 C8 1_555 1_555
C9 N1 1_555 1_555
H13 C9 1_555 1_555
H14 C9 1_555 1_555
C10 C9 1_555 1_555
H15 C10 1_555 1_555
H16 C10 1_555 1_555
C11 N2 1_555 1_555
H17 C11 1_555 1_555
H18 C11 1_555 1_555
C12 N2 1_555 1_555
H19 C12 1_555 1_555
H20 C12 1_555 1_555
C13 C12 1_555 1_555
C14 O3 1_555 1_555
C15 C14 1_555 1_555
C16 C15 1_555 1_555
H21 C16 1_555 1_555
C17 C16 1_555 1_555
H22 C17 1_555 1_555
C18 C13 1_555 1_555
H23 C18 1_555 1_555
C19 O4 1_555 1_555
H24 C19 1_555 1_555
H25 C19 1_555 1_555
H26 C19 1_555 1_555
C1 C6 1_555 1_555
C1 C8 1_555 1_555
C5 C6 1_555 1_555
C10 C11 1_555 1_555
C13 C14 1_555 1_555
C17 C18 1_555 1_555

#END
