
#######################################################################
#
#                 Cambridge Crystallographic Data Centre
#                                CCDC 
#
#######################################################################
#
# If this CIF has been generated from an entry in the Cambridge 
# Structural Database, then it will include bibliographic, chemical, 
# crystal, experimental, refinement or atomic coordinate data resulting 
# from the CCDC's data processing and validation procedures.
#
#######################################################################

data_GEVGEU
_chemical_formula_moiety         'C20 H16 O3'
_chemical_name_systematic        
3-Hydroxy-3-(6-methoxynaphthalen-2-yl)-1-phenylprop-2-en-1-one
_symmetry_cell_setting           orthorhombic
_symmetry_space_group_name_H-M   'P b c a'
_symmetry_Int_Tables_number      61
_space_group_name_Hall           '-P 2ac 2ab'
loop_
_symmetry_equiv_pos_site_id
_symmetry_equiv_pos_as_xyz
1 x,y,z
2 1/2-x,-y,1/2+z
3 -x,1/2+y,1/2-z
4 1/2+x,1/2-y,-z
5 -x,-y,-z
6 1/2+x,y,1/2-z
7 x,1/2-y,1/2+z
8 1/2-x,1/2+y,z
_cell_length_a                   11.213(2)
_cell_length_b                   8.1919(16)
_cell_length_c                   33.739(6)
_cell_angle_alpha                90
_cell_angle_beta                 90
_cell_angle_gamma                90
_cell_volume                     3099.12
_exptl_crystal_colour            yellow
_exptl_crystal_description       plate
_chemical_melting_point          '416 K'
_cell_formula_units_Z            8
_exptl_crystal_recrystallization_method ethanol
loop_
_atom_site_label
_atom_site_type_symbol
_atom_site_fract_x
_atom_site_fract_y
_atom_site_fract_z
C1 C 0.4898(3) 0.0994(4) 0.33914(9)
H1 H 0.4179 0.0671 0.3525
H2 H 0.4856 0.0673 0.3118
H3 H 0.4987 0.2157 0.3408
C2 C 0.6035(2) 0.0481(3) 0.39689(8)
C3 C 0.6995(2) -0.0385(3) 0.41429(9)
H4 H 0.7470 -0.1060 0.3987
C4 C 0.7220(2) -0.0233(3) 0.45348(9)
H5 H 0.7845 -0.0822 0.4646
C5 C 0.65284(17) 0.0798(2) 0.47797(7)
C6 C 0.55724(17) 0.1658(2) 0.46039(7)
C7 C 0.53419(19) 0.1483(3) 0.41947(7)
H6 H 0.4715 0.2053 0.4079
C8 C 0.48888(18) 0.2700(3) 0.48465(7)
H7 H 0.4252 0.3271 0.4737
C9 C 0.51431(18) 0.2885(3) 0.52371(7)
H8 H 0.4680 0.3586 0.5390
C10 C 0.60965(17) 0.2037(3) 0.54163(7)
C11 C 0.67572(18) 0.1000(3) 0.51839(8)
H9 H 0.7377 0.0413 0.5299
C12 C 0.6395(2) 0.2246(3) 0.58395(8)
C13 C 0.5690(2) 0.3102(3) 0.61067(7)
H10 H 0.4977 0.3557 0.6019
C14 C 0.6020(2) 0.3299(3) 0.65021(8)
C15 C 0.5286(2) 0.4224(3) 0.67902(7)
C16 C 0.5834(3) 0.5031(3) 0.71009(8)
H11 H 0.6657 0.4970 0.7130
C17 C 0.5168(3) 0.5925(4) 0.73677(8)
H12 H 0.5547 0.6490 0.7571
C18 C 0.3952(3) 0.5984(4) 0.73339(8)
H13 H 0.3505 0.6570 0.7517
C19 C 0.3392(3) 0.5176(4) 0.70293(9)
H14 H 0.2566 0.5215 0.7007
C20 C 0.4056(2) 0.4305(4) 0.67564(8)
H15 H 0.3674 0.3770 0.6549
O1 O 0.58920(18) 0.0224(2) 0.35740(6)
O2 O 0.73869(16) 0.1577(3) 0.59569(6)
O3 O 0.70107(17) 0.2695(3) 0.66305(6)
H16 H 0.746(3) 0.191(4) 0.6282(10)
loop_
_geom_bond_atom_site_label_1
_geom_bond_atom_site_label_2
_geom_bond_site_symmetry_1
_geom_bond_site_symmetry_2
C1 H1 1_555 1_555
H2 C1 1_555 1_555
H3 C1 1_555 1_555
C2 C3 1_555 1_555
C3 H4 1_555 1_555
C4 C3 1_555 1_555
H5 C4 1_555 1_555
C5 C4 1_555 1_555
C6 C5 1_555 1_555
C7 C2 1_555 1_555
H6 C7 1_555 1_555
C8 C6 1_555 1_555
H7 C8 1_555 1_555
C9 C8 1_555 1_555
H8 C9 1_555 1_555
C10 C9 1_555 1_555
C11 C5 1_555 1_555
H9 C11 1_555 1_555
C12 C10 1_555 1_555
C13 C12 1_555 1_555
H10 C13 1_555 1_555
C14 C13 1_555 1_555
C15 C14 1_555 1_555
C16 C15 1_555 1_555
H11 C16 1_555 1_555
C17 C16 1_555 1_555
H12 C17 1_555 1_555
C18 C17 1_555 1_555
H13 C18 1_555 1_555
C19 C18 1_555 1_555
H14 C19 1_555 1_555
C20 C15 1_555 1_555
H15 C20 1_555 1_555
O1 C1 1_555 1_555
O2 C12 1_555 1_555
O3 C14 1_555 1_555
H16 O2 1_555 1_555
C2 O1 1_555 1_555
C6 C7 1_555 1_555
C10 C11 1_555 1_555
C19 C20 1_555 1_555

#END
