
#######################################################################
#
#                 Cambridge Crystallographic Data Centre
#                                CCDC 
#
#######################################################################
#
# If this CIF has been generated from an entry in the Cambridge 
# Structural Database, then it will include bibliographic, chemical, 
# crystal, experimental, refinement or atomic coordinate data resulting 
# from the CCDC's data processing and validation procedures.
#
#######################################################################

data_GEVMIE
_chemical_formula_moiety         'C14 H18 N8 O6,H2 O1'
_chemical_name_systematic        
'tetrakis(Acetyl)dinitrosohexa-azaisowurtzitane monohydrate'
_symmetry_cell_setting           monoclinic
_symmetry_space_group_name_H-M   'P 21/n'
_symmetry_Int_Tables_number      14
_space_group_name_Hall           '-P 2yn'
loop_
_symmetry_equiv_pos_site_id
_symmetry_equiv_pos_as_xyz
1 x,y,z
2 1/2-x,1/2+y,1/2-z
3 -x,-y,-z
4 1/2+x,1/2-y,1/2+z
_cell_length_a                   10.738(2)
_cell_length_b                   14.870(3)
_cell_length_c                   11.185(2)
_cell_angle_alpha                90
_cell_angle_beta                 98.95(3)
_cell_angle_gamma                90
_cell_volume                     1764.21
_exptl_crystal_colour            colorless
_exptl_crystal_description       Block
_cell_formula_units_Z            4
loop_
_atom_site_label
_atom_site_type_symbol
_atom_site_fract_x
_atom_site_fract_y
_atom_site_fract_z
O1 O 0.4430(3) 0.25067(14) -0.1052(2)
O2 O 0.0486(2) 0.24767(13) -0.1836(2)
O3 O 0.5575(2) 0.01665(15) 0.16169(18)
O4 O 0.1511(2) -0.09441(14) 0.1805(2)
O5 O -0.0366(2) 0.31187(15) 0.0922(2)
O6 O 0.2062(3) 0.0983(2) 0.4309(2)
N1 N 0.3464(2) 0.21712(13) 0.05184(19)
N2 N 0.1421(2) 0.13768(15) -0.0659(2)
N3 N 0.38324(19) 0.09588(13) 0.17147(18)
N4 N 0.17649(19) 0.01885(13) 0.05599(19)
N5 N 0.1401(2) 0.24098(13) 0.1006(2)
N6 N 0.1803(2) 0.10668(14) 0.2366(2)
N7 N 0.0770(3) 0.31372(15) 0.1276(2)
N8 N 0.1379(3) 0.07962(18) 0.3383(2)
C1 C 0.3634(2) 0.12047(16) 0.0444(2)
H1 H 0.4377 0.1061 0.0070
C2 C 0.2406(2) 0.07247(17) -0.0257(2)
H2 H 0.2605 0.0362 -0.0934
C3 C 0.2740(2) 0.23584(17) 0.1480(2)
H3 H 0.3033 0.2910 0.1913
C4 C 0.0820(3) 0.16229(18) 0.0376(3)
H4 H -0.0086 0.1719 0.0126
C5 C 0.1061(2) 0.07925(17) 0.1226(2)
H5 H 0.0264 0.0518 0.1359
C6 C 0.2998(2) 0.15189(17) 0.2319(2)
H6 H 0.3407 0.1692 0.3131
C7 C 0.3901(3) 0.27686(19) -0.0235(3)
C8 C 0.3683(4) 0.37520(19) -0.0008(4)
H7 H 0.4123 0.4110 -0.0521
H8 H 0.3991 0.3891 0.0824
H9 H 0.2797 0.3880 -0.0181
C9 C 0.1206(3) 0.18364(19) -0.1731(3)
C10 C 0.1853(3) 0.1496(2) -0.2729(3)
H10 H 0.1609 0.1855 -0.3440
H11 H 0.1616 0.0881 -0.2901
H12 H 0.2749 0.1533 -0.2488
C11 C 0.4859(2) 0.04925(17) 0.2247(2)
C12 C 0.5034(3) 0.0365(2) 0.3580(2)
H13 H 0.5688 -0.0070 0.3815
H14 H 0.4261 0.0154 0.3812
H15 H 0.5266 0.0927 0.3975
C13 C 0.2028(3) -0.06640(19) 0.0979(3)
C14 C 0.2896(3) -0.1226(2) 0.0378(4)
H16 H 0.3622 -0.1382 0.0954
H17 H 0.3156 -0.0894 -0.0277
H18 H 0.2468 -0.1764 0.0068
O7 O 0.1617(9) -0.1145(7) -0.2121(8)
loop_
_geom_bond_atom_site_label_1
_geom_bond_atom_site_label_2
_geom_bond_site_symmetry_1
_geom_bond_site_symmetry_2
O1 C7 1_555 1_555
O2 C9 1_555 1_555
O3 C11 1_555 1_555
O4 C13 1_555 1_555
O5 N7 1_555 1_555
O6 N8 1_555 1_555
N1 C1 1_555 1_555
N2 C2 1_555 1_555
N3 C1 1_555 1_555
N4 C2 1_555 1_555
N5 N7 1_555 1_555
N6 N8 1_555 1_555
C1 H1 1_555 1_555
C2 C1 1_555 1_555
H2 C2 1_555 1_555
C3 N1 1_555 1_555
H3 C3 1_555 1_555
C4 N2 1_555 1_555
H4 C4 1_555 1_555
C5 N4 1_555 1_555
H5 C5 1_555 1_555
C6 N3 1_555 1_555
H6 C6 1_555 1_555
C7 N1 1_555 1_555
C8 C7 1_555 1_555
H7 C8 1_555 1_555
H8 C8 1_555 1_555
H9 C8 1_555 1_555
C9 N2 1_555 1_555
C10 C9 1_555 1_555
H10 C10 1_555 1_555
H11 C10 1_555 1_555
H12 C10 1_555 1_555
C11 N3 1_555 1_555
C12 C11 1_555 1_555
H13 C12 1_555 1_555
H14 C12 1_555 1_555
H15 C12 1_555 1_555
C13 N4 1_555 1_555
C14 C13 1_555 1_555
H16 C14 1_555 1_555
H17 C14 1_555 1_555
H18 C14 1_555 1_555
N5 C3 1_555 1_555
N5 C4 1_555 1_555
N6 C5 1_555 1_555
N6 C6 1_555 1_555
C3 C6 1_555 1_555
C4 C5 1_555 1_555

#END
