
#######################################################################
#
#                 Cambridge Crystallographic Data Centre
#                                CCDC 
#
#######################################################################
#
# If this CIF has been generated from an entry in the Cambridge 
# Structural Database, then it will include bibliographic, chemical, 
# crystal, experimental, refinement or atomic coordinate data resulting 
# from the CCDC's data processing and validation procedures.
#
#######################################################################

data_GEVNAZ
_chemical_formula_moiety         'C98 H82 F4 N4 O2 S2 Se2'
_chemical_name_systematic        
"2,2'-{[4,4,9,9-tetrakis(4-hexylphenyl)-4,9-dihydro-s-indaceno[1,2-b:5,6-b']bisthiophene 2,7-diyl]bis[(selenophene-5,2-diyl)methylylidene(5,6-difluoro-3-oxo-1H-indene-2,1(3H)-diylidene)]}dipropanedinitrile"
_symmetry_cell_setting           monoclinic
_symmetry_space_group_name_H-M   'C 2/c'
_symmetry_Int_Tables_number      15
_space_group_name_Hall           '-C 2yn'
loop_
_symmetry_equiv_pos_site_id
_symmetry_equiv_pos_as_xyz
1 x,y,z
2 -x,y,1/2-z
3 1/2+x,1/2+y,z
4 1/2-x,1/2+y,1/2-z
5 -x,-y,-z
6 x,-y,1/2+z
7 1/2-x,1/2-y,-z
8 1/2+x,1/2-y,1/2+z
_cell_length_a                   31.859(7)
_cell_length_b                   16.153(4)
_cell_length_c                   16.230(7)
_cell_angle_alpha                90
_cell_angle_beta                 94.79(3)
_cell_angle_gamma                90
_cell_volume                     8323.09
_exptl_crystal_colour            colorless
_exptl_crystal_description       block
_cell_formula_units_Z            4
loop_
_atom_site_label
_atom_site_type_symbol
_atom_site_fract_x
_atom_site_fract_y
_atom_site_fract_z
Se1 Se 0.44346(3) 0.92166(6) 0.29506(6)
S1 S 0.32676(7) 0.93975(15) 0.11901(15)
O1 O 0.51128(19) 0.8880(4) 0.4005(4)
N1 N 0.5016(4) 1.2693(7) 0.4309(7)
N2 N 0.6205(4) 1.2362(7) 0.5647(7)
F1 F 0.67855(15) 0.9637(4) 0.6359(3)
F2 F 0.64664(18) 0.8148(4) 0.6037(4)
C1 C 0.3130(2) 0.6965(5) 0.1320(5)
C2 C 0.2783(2) 0.7187(6) 0.0612(5)
C3 C 0.2521(3) 0.6635(6) 0.0165(5)
H1 H 0.2535 0.6069 0.0266
C4 C 0.2762(2) 0.8034(6) 0.0438(5)
C5 C 0.3089(3) 0.8414(6) 0.1002(5)
C6 C 0.3311(3) 0.7824(5) 0.1485(5)
C7 C 0.3629(2) 0.8176(6) 0.2006(5)
H2 H 0.3806 0.7871 0.2376
C8 C 0.3658(3) 0.9015(6) 0.1920(5)
C9 C 0.3957(3) 0.9598(6) 0.2297(5)
C10 C 0.3950(3) 1.0448(6) 0.2263(6)
H3 H 0.3736 1.0736 0.1964
C11 C 0.4284(3) 1.0851(6) 0.2705(6)
H4 H 0.4307 1.1425 0.2717
C12 C 0.4583(3) 1.0338(6) 0.3128(6)
C13 C 0.4929(3) 1.0680(6) 0.3617(5)
H5 H 0.4942 1.1254 0.3580
C14 C 0.5247(3) 1.0354(6) 0.4131(6)
C15 C 0.5329(3) 0.9467(7) 0.4282(6)
C16 C 0.5714(3) 0.9397(6) 0.4818(6)
C17 C 0.5875(3) 1.0183(7) 0.5010(6)
C18 C 0.6244(3) 1.0293(8) 0.5523(6)
H6 H 0.6356 1.0816 0.5638
C19 C 0.6431(3) 0.9599(8) 0.5844(6)
C20 C 0.6271(3) 0.8794(8) 0.5676(7)
C21 C 0.5908(3) 0.8684(7) 0.5157(6)
H7 H 0.5798 0.8160 0.5039
C22 C 0.5576(3) 1.0804(6) 0.4622(6)
C23 C 0.5604(3) 1.1637(7) 0.4744(6)
C24 C 0.5277(4) 1.2219(8) 0.4495(7)
C25 C 0.5935(4) 1.2035(8) 0.5245(8)
C26 C 0.3451(3) 0.6390(6) 0.0985(6)
C27 C 0.3788(5) 0.6652(8) 0.0617(10)
H8 H 0.3829 0.7219 0.0571
C28 C 0.4083(5) 0.6117(10) 0.0298(10)
H9 H 0.4311 0.6364 0.0075
C29 C 0.4069(3) 0.5305(7) 0.0282(6)
C30 C 0.3724(5) 0.5028(8) 0.0672(9)
H10 H 0.3688 0.4458 0.0717
C31 C 0.3419(4) 0.5548(8) 0.1011(8)
H11 H 0.3194 0.5308 0.1253
C32 C 0.4367(4) 0.4743(8) -0.0006(7)
H12 H 0.4356 0.4225 0.0293
H13 H 0.4648 0.4971 0.0102
C33 C 0.4281(4) 0.4580(8) -0.0928(7)
H14 H 0.4259 0.5056 -0.1256
H15 H 0.4004 0.4281 -0.0992
C34 C 0.4623(7) 0.4009(18) -0.1226(11)
H16 H 0.4891 0.4294 -0.1179
H17 H 0.4648 0.3520 -0.0879
C35 C 0.4515(7) 0.3755(19) -0.2112(12)
H18 H 0.4244 0.3477 -0.2154
H19 H 0.4488 0.4248 -0.2453
C36 C 0.2950(3) 0.6644(5) 0.2097(6)
C37 C 0.3217(3) 0.6409(7) 0.2790(7)
H20 H 0.3506 0.6406 0.2743
C38 C 0.3075(3) 0.6184(7) 0.3528(7)
H21 H 0.3274 0.6010 0.3943
C39 C 0.2646(3) 0.6195(6) 0.3714(5)
C40 C 0.2386(3) 0.6422(7) 0.2965(7)
H22 H 0.2096 0.6419 0.2998
C41 C 0.2525(3) 0.6639(7) 0.2222(7)
H23 H 0.2330 0.6787 0.1789
C42 C 0.2491(4) 0.5974(8) 0.4486(5)
H24 H 0.2497 0.5377 0.4542
H25 H 0.2199 0.6150 0.4484
C43 C 0.2737(4) 0.6349(8) 0.5217(5)
H26 H 0.2739 0.6946 0.5155
H27 H 0.3026 0.6157 0.5235
C44 C 0.2553(4) 0.6127(9) 0.6032(5)
H28 H 0.2298 0.6445 0.6082
H29 H 0.2479 0.5545 0.6027
C45 C 0.2864(4) 0.6303(8) 0.6769(5)
H30 H 0.3130 0.6038 0.6686
H31 H 0.2913 0.6895 0.6810
C46 C 0.2707(4) 0.5994(10) 0.7570(6)
H32 H 0.2637 0.5411 0.7514
H33 H 0.2452 0.6291 0.7675
C47 C 0.3031(5) 0.6111(9) 0.8295(6)
H34 H 0.3285 0.5824 0.8190
H35 H 0.2924 0.5892 0.8786
H36 H 0.3090 0.6690 0.8369
Se1F Se 0.05654(3) 0.57834(6) -0.29506(6)
S1F S 0.17324(7) 0.56025(15) -0.11901(15)
O1F O -0.01128(19) 0.6120(4) -0.4005(4)
N1F N -0.0016(4) 0.2307(7) -0.4309(7)
N2F N -0.1205(4) 0.2638(7) -0.5647(7)
F1F F -0.17855(15) 0.5363(4) -0.6359(3)
F2F F -0.14664(18) 0.6852(4) -0.6037(4)
C1F C 0.1870(2) 0.8035(5) -0.1320(5)
C2F C 0.2217(2) 0.7813(6) -0.0612(5)
C3F C 0.2479(3) 0.8365(6) -0.0165(5)
H1F H 0.2465 0.8931 -0.0266
C4F C 0.2238(2) 0.6966(6) -0.0438(5)
C5F C 0.1911(3) 0.6586(6) -0.1002(5)
C6F C 0.1689(3) 0.7176(5) -0.1485(5)
C7F C 0.1371(2) 0.6824(6) -0.2006(5)
H2F H 0.1194 0.7129 -0.2376
C8F C 0.1342(3) 0.5985(6) -0.1920(5)
C9F C 0.1043(3) 0.5402(6) -0.2297(5)
C10F C 0.1050(3) 0.4552(6) -0.2263(6)
H3F H 0.1264 0.4264 -0.1964
C11F C 0.0716(3) 0.4149(6) -0.2705(6)
H4F H 0.0693 0.3575 -0.2717
C12F C 0.0417(3) 0.4662(6) -0.3128(6)
C13F C 0.0071(3) 0.4320(6) -0.3617(5)
H5F H 0.0058 0.3746 -0.3580
C14F C -0.0247(3) 0.4646(6) -0.4131(6)
C15F C -0.0329(3) 0.5533(7) -0.4282(6)
C16F C -0.0714(3) 0.5603(6) -0.4818(6)
C17F C -0.0875(3) 0.4817(7) -0.5010(6)
C18F C -0.1244(3) 0.4707(8) -0.5523(6)
H6F H -0.1356 0.4184 -0.5638
C19F C -0.1431(3) 0.5401(8) -0.5844(6)
C20F C -0.1271(3) 0.6206(8) -0.5676(7)
C21F C -0.0908(3) 0.6316(7) -0.5157(6)
H7F H -0.0798 0.6840 -0.5039
C22F C -0.0576(3) 0.4196(6) -0.4622(6)
C23F C -0.0604(3) 0.3363(7) -0.4744(6)
C24F C -0.0277(4) 0.2781(8) -0.4495(7)
C25F C -0.0935(4) 0.2965(8) -0.5245(8)
C26F C 0.1549(3) 0.8610(6) -0.0985(6)
C27F C 0.1212(5) 0.8348(8) -0.0617(10)
H8F H 0.1171 0.7781 -0.0571
C28F C 0.0917(5) 0.8883(10) -0.0298(10)
H9F H 0.0689 0.8636 -0.0075
C29F C 0.0931(3) 0.9695(7) -0.0282(6)
C30F C 0.1276(5) 0.9972(8) -0.0672(9)
H10F H 0.1312 1.0542 -0.0717
C31F C 0.1581(4) 0.9452(8) -0.1011(8)
H11F H 0.1806 0.9692 -0.1253
C32F C 0.0633(4) 1.0257(8) 0.0006(7)
H12F H 0.0644 1.0775 -0.0293
H13F H 0.0352 1.0029 -0.0102
C33F C 0.0719(4) 1.0420(8) 0.0928(7)
H14F H 0.0741 0.9944 0.1256
H15F H 0.0996 1.0719 0.0992
C34F C 0.0377(7) 1.0991(18) 0.1226(11)
H16F H 0.0109 1.0706 0.1179
H17F H 0.0352 1.1480 0.0879
C35F C 0.0485(7) 1.1245(19) 0.2112(12)
H18F H 0.0756 1.1523 0.2154
H19F H 0.0512 1.0752 0.2453
C36F C 0.2050(3) 0.8356(5) -0.2097(6)
C37F C 0.1783(3) 0.8591(7) -0.2790(7)
H20F H 0.1494 0.8594 -0.2743
C38F C 0.1925(3) 0.8816(7) -0.3528(7)
H21F H 0.1726 0.8990 -0.3943
C39F C 0.2354(3) 0.8805(6) -0.3714(5)
C40F C 0.2614(3) 0.8578(7) -0.2965(7)
H22F H 0.2904 0.8581 -0.2998
C41F C 0.2475(3) 0.8361(7) -0.2222(7)
H23F H 0.2670 0.8213 -0.1789
C42F C 0.2509(4) 0.9026(8) -0.4486(5)
H24F H 0.2503 0.9623 -0.4542
H25F H 0.2801 0.8850 -0.4484
C43F C 0.2263(4) 0.8651(8) -0.5217(5)
H26F H 0.2261 0.8054 -0.5155
H27F H 0.1974 0.8843 -0.5235
C44F C 0.2447(4) 0.8873(9) -0.6032(5)
H28F H 0.2702 0.8555 -0.6082
H29F H 0.2521 0.9455 -0.6027
C45F C 0.2136(4) 0.8697(8) -0.6769(5)
H30F H 0.1870 0.8962 -0.6686
H31F H 0.2087 0.8105 -0.6810
C46F C 0.2293(4) 0.9006(10) -0.7570(6)
H32F H 0.2363 0.9589 -0.7514
H33F H 0.2548 0.8709 -0.7675
C47F C 0.1969(5) 0.8889(9) -0.8295(6)
H34F H 0.1715 0.9176 -0.8190
H35F H 0.2076 0.9108 -0.8786
H36F H 0.1910 0.8310 -0.8369
H37? H 0.3986 0.4500 -0.1038
H38? H 0.4432 0.4082 -0.1049
C48? C 0.4425(13) 0.5354(15) -0.1377(9)
H39? H 0.4273 0.5834 -0.1202
H40? H 0.4723 0.5445 -0.1231
H41? H 0.4048 0.5187 -0.2450
H42? H 0.4490 0.4759 -0.2474
H43? H 0.4793 0.6145 -0.2492
H44? H 0.4529 0.5891 -0.3313
H45? H 0.4071 0.6840 -0.3164
H46? H 0.4388 0.7214 -0.2472
H47? H 0.4027 0.6623 -0.2234
H48? H 0.4701 0.2676 -0.2626
H49? H 0.4947 0.3448 -0.2920
H50? H 0.5458 0.3147 -0.2018
H51? H 0.5193 0.2422 -0.1682
H52? H 0.5158 0.3315 -0.1318
C49? C 0.4837(7) 0.3190(16) -0.2444(12)
C50? C 0.4223(12) 0.6736(16) -0.264(2)
C51? C 0.4512(10) 0.6010(18) -0.2731(14)
C52? C 0.4348(12) 0.5251(15) -0.2299(9)
C53? C 0.5194(8) 0.3002(18) -0.1809(15)
loop_
_geom_bond_atom_site_label_1
_geom_bond_atom_site_label_2
_geom_bond_site_symmetry_1
_geom_bond_site_symmetry_2
Se1 C9 1_555 1_555
S1 C5 1_555 1_555
O1 C15 1_555 1_555
N1 C24 1_555 1_555
N2 C25 1_555 1_555
F1 C19 1_555 1_555
F2 C20 1_555 1_555
C1 C2 1_555 1_555
C2 C3 1_555 1_555
C3 H1 1_555 1_555
C4 C2 1_555 1_555
C5 C4 1_555 1_555
C6 C1 1_555 1_555
C7 C6 1_555 1_555
H2 C7 1_555 1_555
C8 S1 1_555 1_555
C9 C8 1_555 1_555
C10 C9 1_555 1_555
H3 C10 1_555 1_555
C11 C10 1_555 1_555
H4 C11 1_555 1_555
C12 Se1 1_555 1_555
C13 C12 1_555 1_555
H5 C13 1_555 1_555
C14 C13 1_555 1_555
C15 C14 1_555 1_555
C16 C15 1_555 1_555
C17 C16 1_555 1_555
C18 C17 1_555 1_555
H6 C18 1_555 1_555
C19 C18 1_555 1_555
C20 C19 1_555 1_555
C21 C16 1_555 1_555
H7 C21 1_555 1_555
C22 C14 1_555 1_555
C23 C22 1_555 1_555
C24 C23 1_555 1_555
C25 C23 1_555 1_555
C26 C1 1_555 1_555
C27 C26 1_555 1_555
H8 C27 1_555 1_555
C28 C27 1_555 1_555
H9 C28 1_555 1_555
C29 C28 1_555 1_555
C30 C29 1_555 1_555
H10 C30 1_555 1_555
C31 C26 1_555 1_555
H11 C31 1_555 1_555
C32 C29 1_555 1_555
H12 C32 1_555 1_555
H13 C32 1_555 1_555
C33 C32 1_555 1_555
H14 C33 1_555 1_555
H15 C33 1_555 1_555
C34 C33 1_555 1_555
H16 C34 1_555 1_555
H17 C34 1_555 1_555
C35 C34 1_555 1_555
H18 C35 1_555 1_555
H19 C35 1_555 1_555
C36 C1 1_555 1_555
C37 C36 1_555 1_555
H20 C37 1_555 1_555
C38 C37 1_555 1_555
H21 C38 1_555 1_555
C39 C38 1_555 1_555
C40 C39 1_555 1_555
H22 C40 1_555 1_555
C41 C36 1_555 1_555
H23 C41 1_555 1_555
C42 C39 1_555 1_555
H24 C42 1_555 1_555
H25 C42 1_555 1_555
C43 C42 1_555 1_555
H26 C43 1_555 1_555
H27 C43 1_555 1_555
C44 C43 1_555 1_555
H28 C44 1_555 1_555
H29 C44 1_555 1_555
C45 C44 1_555 1_555
H30 C45 1_555 1_555
H31 C45 1_555 1_555
C46 C45 1_555 1_555
H32 C46 1_555 1_555
H33 C46 1_555 1_555
C47 C46 1_555 1_555
H34 C47 1_555 1_555
H35 C47 1_555 1_555
H36 C47 1_555 1_555
Se1F C9F 1_555 1_555
S1F C5F 1_555 1_555
O1F C15F 1_555 1_555
N1F C24F 1_555 1_555
N2F C25F 1_555 1_555
F1F C19F 1_555 1_555
F2F C20F 1_555 1_555
C1F C2F 1_555 1_555
C2F C3F 1_555 1_555
C3F C4 1_555 1_555
H1F C3F 1_555 1_555
C4F C3 1_555 1_555
C5F C4F 1_555 1_555
C6F C1F 1_555 1_555
C7F C6F 1_555 1_555
H2F C7F 1_555 1_555
C8F S1F 1_555 1_555
C9F C8F 1_555 1_555
C10F C9F 1_555 1_555
H3F C10F 1_555 1_555
C11F C10F 1_555 1_555
H4F C11F 1_555 1_555
C12F Se1F 1_555 1_555
C13F C12F 1_555 1_555
H5F C13F 1_555 1_555
C14F C13F 1_555 1_555
C15F C14F 1_555 1_555
C16F C15F 1_555 1_555
C17F C16F 1_555 1_555
C18F C17F 1_555 1_555
H6F C18F 1_555 1_555
C19F C18F 1_555 1_555
C20F C19F 1_555 1_555
C21F C16F 1_555 1_555
H7F C21F 1_555 1_555
C22F C14F 1_555 1_555
C23F C22F 1_555 1_555
C24F C23F 1_555 1_555
C25F C23F 1_555 1_555
C26F C1F 1_555 1_555
C27F C26F 1_555 1_555
H8F C27F 1_555 1_555
C28F C27F 1_555 1_555
H9F C28F 1_555 1_555
C29F C28F 1_555 1_555
C30F C29F 1_555 1_555
H10F C30F 1_555 1_555
C31F C26F 1_555 1_555
H11F C31F 1_555 1_555
C32F C29F 1_555 1_555
H12F C32F 1_555 1_555
H13F C32F 1_555 1_555
C33F C32F 1_555 1_555
H14F C33F 1_555 1_555
H15F C33F 1_555 1_555
C34F C33F 1_555 1_555
H16F C34F 1_555 1_555
H17F C34F 1_555 1_555
C35F C34F 1_555 1_555
H18F C35F 1_555 1_555
H19F C35F 1_555 1_555
C36F C1F 1_555 1_555
C37F C36F 1_555 1_555
H20F C37F 1_555 1_555
C38F C37F 1_555 1_555
H21F C38F 1_555 1_555
C39F C38F 1_555 1_555
C40F C39F 1_555 1_555
H22F C40F 1_555 1_555
C41F C36F 1_555 1_555
H23F C41F 1_555 1_555
C42F C39F 1_555 1_555
H24F C42F 1_555 1_555
H25F C42F 1_555 1_555
C43F C42F 1_555 1_555
H26F C43F 1_555 1_555
H27F C43F 1_555 1_555
C44F C43F 1_555 1_555
H28F C44F 1_555 1_555
H29F C44F 1_555 1_555
C45F C44F 1_555 1_555
H30F C45F 1_555 1_555
H31F C45F 1_555 1_555
C46F C45F 1_555 1_555
H32F C46F 1_555 1_555
H33F C46F 1_555 1_555
C47F C46F 1_555 1_555
H34F C47F 1_555 1_555
H35F C47F 1_555 1_555
H36F C47F 1_555 1_555
C5 C6 1_555 1_555
C7 C8 1_555 1_555
C11 C12 1_555 1_555
C17 C22 1_555 1_555
C20 C21 1_555 1_555
C30 C31 1_555 1_555
C40 C41 1_555 1_555
C2F C4F 1_555 1_555
C5F C6F 1_555 1_555
C7F C8F 1_555 1_555
C11F C12F 1_555 1_555
C17F C22F 1_555 1_555
C20F C21F 1_555 1_555
C30F C31F 1_555 1_555
C40F C41F 1_555 1_555

#END
