
#######################################################################
#
#                 Cambridge Crystallographic Data Centre
#                                CCDC 
#
#######################################################################
#
# If this CIF has been generated from an entry in the Cambridge 
# Structural Database, then it will include bibliographic, chemical, 
# crystal, experimental, refinement or atomic coordinate data resulting 
# from the CCDC's data processing and validation procedures.
#
#######################################################################

data_GEVNAX
_chemical_formula_moiety         'C25 H36 O4'
_chemical_name_systematic        '(R)-(-)-bis((1S)-Bornyl) 2,3-pentadienedioate'
_symmetry_cell_setting           trigonal
_symmetry_space_group_name_H-M   'P 31 2 1'
_symmetry_Int_Tables_number      152
_space_group_name_Hall           'P 31 2"'
loop_
_symmetry_equiv_pos_site_id
_symmetry_equiv_pos_as_xyz
1 x,y,z
2 -y,x-y,1/3+z
3 -x+y,-x,2/3+z
4 y,x,-z
5 x-y,-y,2/3-z
6 -x,-x+y,1/3-z
_cell_length_a                   6.9048(4)
_cell_length_b                   6.9048(4)
_cell_length_c                   41.741(3)
_cell_angle_alpha                90
_cell_angle_beta                 90
_cell_angle_gamma                120
_cell_volume                     1723.44
_exptl_crystal_colour            colorless
_exptl_crystal_description       platelet
_chemical_melting_point          146deg.C
_cell_formula_units_Z            3
_exptl_crystal_recrystallization_method hexane
loop_
_atom_site_label
_atom_site_type_symbol
_atom_site_fract_x
_atom_site_fract_y
_atom_site_fract_z
O1 O 0.0085(2) 0.2020(2) 0.04677(3)
O2 O -0.2541(2) 0.2828(2) 0.02928(3)
C1 C 0.0824(3) 0.3805(3) 0.07030(4)
C2 C 0.2052(2) 0.3388(3) 0.09769(4)
C3 C 0.3918(3) 0.3079(3) 0.08277(5)
C4 C 0.5646(2) 0.5467(3) 0.07092(4)
C5 C 0.4560(3) 0.6860(2) 0.07969(4)
C6 C 0.2548(3) 0.6114(3) 0.05712(4)
C7 C 0.0479(3) 0.1505(3) 0.11993(5)
C8 C 0.3383(3) 0.5803(2) 0.11199(4)
C9 C 0.1958(3) 0.6733(3) 0.12491(5)
C10 C 0.4979(3) 0.5994(3) 0.13898(5)
C11 C -0.1620(2) 0.1727(3) 0.02768(4)
C12 C -0.2280(3) -0.0122(3) 0.00456(4)
C13 C -0.1154(3) -0.1154(3) 0.0000
H1 H -0.0430 0.3856 0.0786
H2 H 0.4560 0.2559 0.0983
H3 H 0.3359 0.2057 0.0654
H4 H 0.7038 0.6008 0.0816
H5 H 0.5869 0.5487 0.0484
H6 H 0.5558 0.8429 0.0805
H7 H 0.2944 0.5997 0.0357
H8 H 0.2000 0.7131 0.0579
H9 H 0.1345 0.1332 0.1362
H10 H -0.0330 0.0144 0.1084
H11 H -0.0539 0.1881 0.1295
H12 H 0.1292 0.6008 0.1445
H13 H 0.2884 0.8292 0.1286
H14 H 0.0820 0.6492 0.1100
H15 H 0.5891 0.5400 0.1322
H16 H 0.4128 0.5185 0.1571
H17 H 0.5900 0.7524 0.1445
H18 H -0.348(3) -0.049(3) -0.0069(5)
O1C O 0.2020(2) 0.0085(2) -0.04677(3)
O2C O 0.2828(2) -0.2541(2) -0.02928(3)
C1C C 0.3805(3) 0.0824(3) -0.07030(4)
C2C C 0.3388(3) 0.2052(2) -0.09769(4)
C3C C 0.3079(3) 0.3918(3) -0.08277(5)
C4C C 0.5467(3) 0.5646(2) -0.07092(4)
C5C C 0.6860(2) 0.4560(3) -0.07969(4)
C6C C 0.6114(3) 0.2548(3) -0.05712(4)
C7C C 0.1505(3) 0.0479(3) -0.11993(5)
C8C C 0.5803(2) 0.3383(3) -0.11199(4)
C9C C 0.6733(3) 0.1958(3) -0.12491(5)
C10C C 0.5994(3) 0.4979(3) -0.13898(5)
C11C C 0.1727(3) -0.1620(2) -0.02768(4)
C12C C -0.0122(3) -0.2280(3) -0.00456(4)
H1C H 0.3856 -0.0430 -0.0786
H2C H 0.2559 0.4560 -0.0983
H3C H 0.2057 0.3359 -0.0654
H4C H 0.6008 0.7038 -0.0816
H5C H 0.5487 0.5869 -0.0484
H6C H 0.8429 0.5558 -0.0805
H7C H 0.5997 0.2944 -0.0357
H8C H 0.7131 0.2000 -0.0579
H9C H 0.1332 0.1345 -0.1362
H10C H 0.0144 -0.0330 -0.1084
H11C H 0.1881 -0.0539 -0.1295
H12C H 0.6008 0.1292 -0.1445
H13C H 0.8292 0.2884 -0.1286
H14C H 0.6492 0.0820 -0.1100
H15C H 0.5400 0.5891 -0.1322
H16C H 0.5185 0.4128 -0.1571
H17C H 0.7524 0.5900 -0.1445
H18C H -0.049(3) -0.348(3) 0.0069(5)
loop_
_geom_bond_atom_site_label_1
_geom_bond_atom_site_label_2
_geom_bond_site_symmetry_1
_geom_bond_site_symmetry_2
O1 C1 1_555 1_555
O2 C11 1_555 1_555
C1 C2 1_555 1_555
C2 C3 1_555 1_555
C3 C4 1_555 1_555
C4 C5 1_555 1_555
C5 C6 1_555 1_555
C6 C1 1_555 1_555
C7 C2 1_555 1_555
C8 C2 1_555 1_555
C9 C8 1_555 1_555
C10 C8 1_555 1_555
C11 O1 1_555 1_555
C12 C11 1_555 1_555
C13 C12 1_555 1_555
H1 C1 1_555 1_555
H2 C3 1_555 1_555
H3 C3 1_555 1_555
H4 C4 1_555 1_555
H5 C4 1_555 1_555
H6 C5 1_555 1_555
H7 C6 1_555 1_555
H8 C6 1_555 1_555
H9 C7 1_555 1_555
H10 C7 1_555 1_555
H11 C7 1_555 1_555
H12 C9 1_555 1_555
H13 C9 1_555 1_555
H14 C9 1_555 1_555
H15 C10 1_555 1_555
H16 C10 1_555 1_555
H17 C10 1_555 1_555
H18 C12 1_555 1_555
O1C C1C 1_555 1_555
O2C C11C 1_555 1_555
C1C C2C 1_555 1_555
C2C C3C 1_555 1_555
C3C C4C 1_555 1_555
C4C C5C 1_555 1_555
C5C C6C 1_555 1_555
C6C C1C 1_555 1_555
C7C C2C 1_555 1_555
C8C C2C 1_555 1_555
C9C C8C 1_555 1_555
C10C C8C 1_555 1_555
C11C O1C 1_555 1_555
C12C C13 1_555 1_555
H1C C1C 1_555 1_555
H2C C3C 1_555 1_555
H3C C3C 1_555 1_555
H4C C4C 1_555 1_555
H5C C4C 1_555 1_555
H6C C5C 1_555 1_555
H7C C6C 1_555 1_555
H8C C6C 1_555 1_555
H9C C7C 1_555 1_555
H10C C7C 1_555 1_555
H11C C7C 1_555 1_555
H12C C9C 1_555 1_555
H13C C9C 1_555 1_555
H14C C9C 1_555 1_555
H15C C10C 1_555 1_555
H16C C10C 1_555 1_555
H17C C10C 1_555 1_555
H18C C12C 1_555 1_555
C5 C8 1_555 1_555
C5C C8C 1_555 1_555
C11C C12C 1_555 1_555

#END
