
#######################################################################
#
#                 Cambridge Crystallographic Data Centre
#                                CCDC 
#
#######################################################################
#
# If this CIF has been generated from an entry in the Cambridge 
# Structural Database, then it will include bibliographic, chemical, 
# crystal, experimental, refinement or atomic coordinate data resulting 
# from the CCDC's data processing and validation procedures.
#
#######################################################################

data_GEVSIJ
_chemical_formula_moiety         'C22 H21 N1 O2 S1'
_chemical_name_systematic        N-(p-Tosyl)-1-aza(2.2)metacyclophane
_symmetry_cell_setting           monoclinic
_symmetry_space_group_name_H-M   'P 21/n'
_symmetry_Int_Tables_number      14
_space_group_name_Hall           '-P 2yn'
loop_
_symmetry_equiv_pos_site_id
_symmetry_equiv_pos_as_xyz
1 x,y,z
2 1/2-x,1/2+y,1/2-z
3 -x,-y,-z
4 1/2+x,1/2-y,1/2+z
_cell_length_a                   12.988(8)
_cell_length_b                   11.107(3)
_cell_length_c                   13.831(10)
_cell_angle_alpha                90
_cell_angle_beta                 113.51(5)
_cell_angle_gamma                90
_cell_volume                     1829.61
_exptl_crystal_colour            colorless
_cell_formula_units_Z            4
loop_
_atom_site_label
_atom_site_type_symbol
_atom_site_fract_x
_atom_site_fract_y
_atom_site_fract_z
N1 N 0.47344(25) 0.42074(27) 0.26565(22)
C1 C 0.51469(34) 0.49039(37) 0.36778(28)
C2 C 0.63089(33) 0.53534(34) 0.38830(26)
C3 C 0.72598(38) 0.46752(37) 0.44672(28)
C4 C 0.82710(38) 0.49360(40) 0.44116(32)
C5 C 0.83427(34) 0.57934(38) 0.37284(31)
C6 C 0.74145(33) 0.64964(33) 0.31440(29)
C7 C 0.64283(32) 0.63212(32) 0.33036(26)
C8 C 0.73729(34) 0.72262(37) 0.22108(30)
C9 C 0.68366(33) 0.64825(37) 0.11613(30)
C10 C 0.56745(30) 0.60711(33) 0.10021(25)
C11 C 0.47444(34) 0.67806(34) 0.04949(28)
C12 C 0.37458(34) 0.65558(36) 0.05881(30)
C13 C 0.36780(31) 0.56595(35) 0.12621(29)
C14 C 0.46036(29) 0.49263(30) 0.17466(25)
C15 C 0.55626(29) 0.50731(30) 0.15622(24)
S1 S 0.40581(9) 0.29432(9) 0.25261(8)
O1 O 0.41105(24) 0.23436(23) 0.16329(22)
O2 O 0.44958(25) 0.23826(26) 0.35380(22)
C16 C 0.26411(31) 0.33042(31) 0.22250(28)
C17 C 0.18603(35) 0.32193(36) 0.12084(30)
C18 C 0.07674(36) 0.36018(38) 0.09715(31)
C19 C 0.04651(34) 0.40879(34) 0.17324(32)
C20 C 0.12663(38) 0.41525(42) 0.27481(33)
C21 C 0.23526(36) 0.37721(40) 0.30031(30)
C22 C -0.07181(35) 0.4511(42) 0.14589(38)
H1 H 0.5173(3) 0.4324(4) 0.4314(3)
H2 H 0.4595(3) 0.5655(4) 0.3612(3)
H3 H 0.7202(4) 0.3948(4) 0.4961(3)
H4 H 0.9018(4) 0.4459(4) 0.4913(3)
H5 H 0.9126(3) 0.5925(4) 0.3643(3)
H6 H 0.5745(3) 0.6953(3) 0.2969(3)
H7 H 0.6875(3) 0.8024(4) 0.2148(3)
H8 H 0.8216(3) 0.7483(4) 0.2327(3)
H9 H 0.7354(3) 0.5706(4) 0.1206(3)
H10 H 0.6787(3) 0.7041(4) 0.0505(3)
H11 H 0.4799(3) 0.7526(3) 0.0016(3)
H12 H 0.3010(3) 0.7079(4) 0.0135(3)
H13 H 0.2924(3) 0.5539(3) 0.1403(3)
H14 H 0.6228(3) 0.4414(3) 0.1852(2)
H15 H 0.2092(3) 0.2859(4) 0.0598(3)
H16 H 0.0145(4) 0.3515(4) 0.0175(3)
H17 H 0.1037(4) 0.4511(4) 0.3361(3)
H18 H 0.2970(4) 0.3840(4) 0.3804(3)
H19 H -0.0786(3) 0.4895(4) 0.2161(4)
H20 H -0.1310(3) 0.3825(4) 0.1139(4)
H21 H -0.0900(3) 0.5262(4) 0.0882(4)
loop_
_geom_bond_atom_site_label_1
_geom_bond_atom_site_label_2
_geom_bond_site_symmetry_1
_geom_bond_site_symmetry_2
N1 C1 1_555 1_555
C1 C2 1_555 1_555
C2 C3 1_555 1_555
C3 C4 1_555 1_555
C4 C5 1_555 1_555
C5 C6 1_555 1_555
C6 C7 1_555 1_555
C7 C2 1_555 1_555
C8 C6 1_555 1_555
C9 C8 1_555 1_555
C10 C9 1_555 1_555
C11 C10 1_555 1_555
C12 C11 1_555 1_555
C13 C12 1_555 1_555
C14 N1 1_555 1_555
C15 C10 1_555 1_555
S1 N1 1_555 1_555
O1 S1 1_555 1_555
O2 S1 1_555 1_555
C16 S1 1_555 1_555
C17 C16 1_555 1_555
C18 C17 1_555 1_555
C19 C18 1_555 1_555
C20 C19 1_555 1_555
C21 C16 1_555 1_555
C22 C19 1_555 1_555
H1 C1 1_555 1_555
H2 C1 1_555 1_555
H3 C3 1_555 1_555
H4 C4 1_555 1_555
H5 C5 1_555 1_555
H6 C7 1_555 1_555
H7 C8 1_555 1_555
H8 C8 1_555 1_555
H9 C9 1_555 1_555
H10 C9 1_555 1_555
H11 C11 1_555 1_555
H12 C12 1_555 1_555
H13 C13 1_555 1_555
H14 C15 1_555 1_555
H15 C17 1_555 1_555
H16 C18 1_555 1_555
H17 C20 1_555 1_555
H18 C21 1_555 1_555
H19 C22 1_555 1_555
H20 C22 1_555 1_555
H21 C22 1_555 1_555
C13 C14 1_555 1_555
C14 C15 1_555 1_555
C20 C21 1_555 1_555

#END
