
#######################################################################
#
#                 Cambridge Crystallographic Data Centre
#                                CCDC 
#
#######################################################################
#
# If this CIF has been generated from an entry in the Cambridge 
# Structural Database, then it will include bibliographic, chemical, 
# crystal, experimental, refinement or atomic coordinate data resulting 
# from the CCDC's data processing and validation procedures.
#
#######################################################################

data_GEWCET
_chemical_formula_moiety         'C21 H14 F3 N3 O3 S1,2(C2 H6 O1 S1)'
_chemical_name_systematic        
'N-(2-{[(2,4,6-trifluorophenyl)sulfonyl]amino}phenyl)-1H-indole-2-carboxamide dimethyl sulfoxide solvate'
_symmetry_cell_setting           monoclinic
_symmetry_space_group_name_H-M   'P 21/c'
_symmetry_Int_Tables_number      14
_space_group_name_Hall           '-P 2ybc'
loop_
_symmetry_equiv_pos_site_id
_symmetry_equiv_pos_as_xyz
1 x,y,z
2 -x,1/2+y,1/2-z
3 -x,-y,-z
4 x,1/2-y,1/2+z
_cell_length_a                   19.508(2)
_cell_length_b                   8.2786(10)
_cell_length_c                   17.511(2)
_cell_angle_alpha                90
_cell_angle_beta                 106.363(3)
_cell_angle_gamma                90
_cell_volume                     2713.46
_exptl_crystal_colour            colorless
_exptl_crystal_description       block
_cell_formula_units_Z            4
loop_
_atom_site_label
_atom_site_type_symbol
_atom_site_fract_x
_atom_site_fract_y
_atom_site_fract_z
S1 S 0.38262(3) 0.82434(5) 0.58495(3)
O1 O 0.32949(8) 0.78172(18) 0.50616(9)
C1 C 0.34209(12) 0.9832(2) 0.62569(14)
H1 H 0.326765 1.067090 0.586729
H2 H 0.376095 1.026428 0.671956
H3 H 0.301588 0.941736 0.640293
C2 C 0.45002(12) 0.9403(3) 0.55996(15)
H4 H 0.474397 0.874104 0.530903
H5 H 0.483568 0.978621 0.607787
H6 H 0.428461 1.030650 0.527725
S2 S 0.08970(3) 0.88834(6) -0.00682(3)
O2 O 0.08525(8) 0.97360(19) 0.06770(9)
C3 C 0.03586(14) 0.7115(3) -0.01508(15)
H7 H 0.051003 0.650391 0.033361
H8 H 0.040857 0.646757 -0.058671
H9 H -0.013264 0.742224 -0.024365
C4 C 0.17462(14) 0.7911(4) 0.01874(17)
H10 H 0.211652 0.871083 0.027253
H11 H 0.177512 0.720651 -0.023773
H12 H 0.180445 0.729275 0.066523
S3 S 0.34069(3) 0.33737(6) 0.41951(4)
F1 F 0.21144(7) 0.53608(16) 0.38096(9)
F2 F 0.33523(8) 0.17571(16) 0.25851(10)
O3 O 0.26886(8) 0.80169(17) 0.20676(9)
N1 N 0.15145(8) 0.96273(18) 0.23178(10)
H13 H 0.143364 0.931630 0.183191
N2 N 0.32166(9) 0.78538(19) 0.34064(10)
H14 H 0.314629 0.799177 0.386524
F3 F 0.12074(10) 0.4043(2) 0.11244(11)
O4 O 0.39370(9) 0.22669(18) 0.41076(12)
O5 O 0.30397(10) 0.3090(2) 0.47832(11)
N3 N 0.37636(9) 0.5152(2) 0.43798(11)
H15 H 0.371917 0.568632 0.478444
C5 C 0.10740(10) 1.0595(2) 0.26088(12)
C6 C 0.26891(11) 0.8322(2) 0.27554(12)
C7 C 0.21044(10) 0.9238(2) 0.29297(12)
C8 C 0.04254(11) 1.1312(2) 0.22048(13)
H16 H 0.022271 1.115619 0.166190
C9 C 0.38719(10) 0.7157(2) 0.33843(12)
C10 C 0.20471(11) 0.9931(2) 0.36276(12)
H17 H 0.237325 0.984271 0.412842
C11 C 0.13924(11) 1.0806(2) 0.34316(12)
C12 C 0.41514(11) 0.5845(2) 0.38776(12)
C13 C 0.48221(11) 0.5234(2) 0.38962(13)
H18 H 0.501575 0.438800 0.423852
C14 C 0.01003(11) 1.2258(2) 0.26454(14)
H19 H -0.033300 1.275057 0.239385
C15 C 0.52011(11) 0.5876(3) 0.34098(14)
H20 H 0.564703 0.545933 0.342349
C16 C 0.42578(11) 0.7797(2) 0.28952(13)
H21 H 0.407389 0.866537 0.256367
C17 C 0.49153(11) 0.7146(3) 0.29000(13)
H22 H 0.516426 0.755936 0.256222
C18 C 0.27625(11) 0.3542(2) 0.32534(14)
C19 C 0.10428(12) 1.1790(2) 0.38659(14)
H23 H 0.123933 1.195304 0.440920
C20 C 0.04037(12) 1.2503(2) 0.34653(14)
H24 H 0.016921 1.315717 0.374301
C21 C 0.21683(11) 0.4532(2) 0.31672(15)
C22 C 0.27943(12) 0.2725(2) 0.25701(15)
C23 C 0.16376(12) 0.4725(3) 0.24692(17)
H25 H 0.124761 0.539698 0.243285
C24 C 0.17147(14) 0.3868(3) 0.18255(16)
C25 C 0.22769(14) 0.2859(3) 0.18537(16)
H26 H 0.230783 0.228843 0.140724
loop_
_geom_bond_atom_site_label_1
_geom_bond_atom_site_label_2
_geom_bond_site_symmetry_1
_geom_bond_site_symmetry_2
S1 O1 1_555 1_555
C1 S1 1_555 1_555
H1 C1 1_555 1_555
H2 C1 1_555 1_555
H3 C1 1_555 1_555
C2 S1 1_555 1_555
H4 C2 1_555 1_555
H5 C2 1_555 1_555
H6 C2 1_555 1_555
S2 O2 1_555 1_555
C3 S2 1_555 1_555
H7 C3 1_555 1_555
H8 C3 1_555 1_555
H9 C3 1_555 1_555
C4 S2 1_555 1_555
H10 C4 1_555 1_555
H11 C4 1_555 1_555
H12 C4 1_555 1_555
S3 O4 1_555 1_555
F1 C21 1_555 1_555
F2 C22 1_555 1_555
O3 C6 1_555 1_555
N1 H13 1_555 1_555
N2 H14 1_555 1_555
F3 C24 1_555 1_555
O5 S3 1_555 1_555
N3 S3 1_555 1_555
H15 N3 1_555 1_555
C5 N1 1_555 1_555
C6 N2 1_555 1_555
C7 N1 1_555 1_555
C8 C5 1_555 1_555
H16 C8 1_555 1_555
C9 N2 1_555 1_555
C10 C7 1_555 1_555
H17 C10 1_555 1_555
C11 C5 1_555 1_555
C12 N3 1_555 1_555
C13 C12 1_555 1_555
H18 C13 1_555 1_555
C14 C8 1_555 1_555
H19 C14 1_555 1_555
C15 C13 1_555 1_555
H20 C15 1_555 1_555
C16 C9 1_555 1_555
H21 C16 1_555 1_555
C17 C15 1_555 1_555
H22 C17 1_555 1_555
C18 S3 1_555 1_555
C19 C11 1_555 1_555
H23 C19 1_555 1_555
C20 C14 1_555 1_555
H24 C20 1_555 1_555
C21 C18 1_555 1_555
C22 C18 1_555 1_555
C23 C21 1_555 1_555
H25 C23 1_555 1_555
C24 C23 1_555 1_555
C25 C22 1_555 1_555
H26 C25 1_555 1_555
C6 C7 1_555 1_555
C9 C12 1_555 1_555
C10 C11 1_555 1_555
C16 C17 1_555 1_555
C19 C20 1_555 1_555
C24 C25 1_555 1_555

#END
