
#######################################################################
#
#                 Cambridge Crystallographic Data Centre
#                                CCDC 
#
#######################################################################
#
# If this CIF has been generated from an entry in the Cambridge 
# Structural Database, then it will include bibliographic, chemical, 
# crystal, experimental, refinement or atomic coordinate data resulting 
# from the CCDC's data processing and validation procedures.
#
#######################################################################

data_GEWJUP
_chemical_formula_moiety         'C24 H22 O6'
_chemical_name_systematic        
'Trimethyl 3,6-diphenylcyclohexa-1,4-diene-1,2,4-tricarboxylate'
_symmetry_cell_setting           triclinic
_symmetry_space_group_name_H-M   'P -1'
_symmetry_Int_Tables_number      2
_space_group_name_Hall           '-P 1'
loop_
_symmetry_equiv_pos_site_id
_symmetry_equiv_pos_as_xyz
1 x,y,z
2 -x,-y,-z
_cell_length_a                   9.6339(2)
_cell_length_b                   10.8386(2)
_cell_length_c                   11.0779(2)
_cell_angle_alpha                91.7120(10)
_cell_angle_beta                 100.6100(10)
_cell_angle_gamma                112.3090(10)
_cell_volume                     1045.5
_cell_formula_units_Z            2
loop_
_atom_site_label
_atom_site_type_symbol
_atom_site_fract_x
_atom_site_fract_y
_atom_site_fract_z
C1 C 0.35115(13) 0.22389(12) 0.84454(11)
C2 C 0.35151(13) 0.28330(12) 0.95146(11)
C3 C 0.46120(13) 0.29309(12) 1.07153(11)
H1 H 0.5177 0.3884 1.1018
C4 C 0.57677(13) 0.23498(13) 1.05322(11)
C5 C 0.56988(14) 0.16913(13) 0.94828(12)
H2 H 0.6391 0.1284 0.9480
C6 C 0.45852(14) 0.15556(13) 0.82993(11)
H3 H 0.3968 0.0598 0.8049
C7 C 0.24117(14) 0.21599(14) 0.72707(12)
O1 O 0.16664(13) 0.11444(12) 0.66056(10)
O2 O 0.24096(12) 0.33597(11) 0.70422(9)
C8 C 0.1264(2) 0.3360(2) 0.59976(17)
H4 H 0.1472 0.3061 0.5252
H5 H 0.1292 0.4252 0.5953
H6 H 0.0266 0.2767 0.6094
C9 C 0.24280(14) 0.34979(13) 0.96371(11)
O3 O 0.28105(13) 0.45639(11) 1.02091(10)
O4 O 0.09885(10) 0.27552(10) 0.90563(10)
C10 C -0.00860(19) 0.3403(2) 0.9019(2)
H7 H -0.0207 0.3568 0.9842
H8 H -0.1061 0.2830 0.8517
H9 H 0.0299 0.4238 0.8674
C11 C 0.37304(14) 0.22493(13) 1.16876(11)
C12 C 0.25265(16) 0.10069(14) 1.13952(13)
H10 H 0.2249 0.0579 1.0596
C13 C 0.17249(18) 0.03887(16) 1.22820(16)
H11 H 0.0907 -0.0440 1.2070
C14 C 0.21416(19) 0.10039(18) 1.34730(15)
H12 H 0.1610 0.0590 1.4068
C15 C 0.33417(19) 0.22271(19) 1.37773(14)
H13 H 0.3632 0.2637 1.4584
C16 C 0.41291(16) 0.28609(16) 1.28908(13)
H14 H 0.4928 0.3700 1.3105
C17 C 0.70853(15) 0.26423(15) 1.15944(13)
O5 O 0.74507(14) 0.35086(14) 1.24298(11)
O6 O 0.78550(14) 0.18645(14) 1.14956(12)
C18 C 0.9222(3) 0.2144(3) 1.2437(2)
H15 H 0.9921 0.3055 1.2445
H16 H 0.9703 0.1548 1.2262
H17 H 0.8951 0.2014 1.3229
C19 C 0.54961(14) 0.21149(13) 0.73064(11)
C20 C 0.58194(18) 0.12756(16) 0.65352(13)
H18 H 0.5449 0.0359 0.6601
C21 C 0.6690(2) 0.1794(2) 0.56676(14)
H19 H 0.6907 0.1224 0.5158
C22 C 0.72339(19) 0.3137(2) 0.55541(15)
H20 H 0.7803 0.3478 0.4959
C23 C 0.69370(19) 0.39844(18) 0.63234(15)
H21 H 0.7316 0.4901 0.6255
C24 C 0.60749(16) 0.34759(15) 0.71996(13)
H22 H 0.5884 0.4054 0.7720
loop_
_geom_bond_atom_site_label_1
_geom_bond_atom_site_label_2
_geom_bond_site_symmetry_1
_geom_bond_site_symmetry_2
C1 C2 1_555 1_555
C2 C3 1_555 1_555
C3 H1 1_555 1_555
C4 C3 1_555 1_555
C5 C4 1_555 1_555
H2 C5 1_555 1_555
C6 C1 1_555 1_555
H3 C6 1_555 1_555
C7 C1 1_555 1_555
O1 C7 1_555 1_555
O2 C7 1_555 1_555
C8 O2 1_555 1_555
H4 C8 1_555 1_555
H5 C8 1_555 1_555
H6 C8 1_555 1_555
C9 C2 1_555 1_555
O3 C9 1_555 1_555
O4 C9 1_555 1_555
C10 O4 1_555 1_555
H7 C10 1_555 1_555
H8 C10 1_555 1_555
H9 C10 1_555 1_555
C11 C3 1_555 1_555
C12 C11 1_555 1_555
H10 C12 1_555 1_555
C13 C12 1_555 1_555
H11 C13 1_555 1_555
C14 C13 1_555 1_555
H12 C14 1_555 1_555
C15 C14 1_555 1_555
H13 C15 1_555 1_555
C16 C11 1_555 1_555
H14 C16 1_555 1_555
C17 C4 1_555 1_555
O5 C17 1_555 1_555
O6 C17 1_555 1_555
C18 O6 1_555 1_555
H15 C18 1_555 1_555
H16 C18 1_555 1_555
H17 C18 1_555 1_555
C19 C6 1_555 1_555
C20 C19 1_555 1_555
H18 C20 1_555 1_555
C21 C20 1_555 1_555
H19 C21 1_555 1_555
C22 C21 1_555 1_555
H20 C22 1_555 1_555
C23 C22 1_555 1_555
H21 C23 1_555 1_555
C24 C19 1_555 1_555
H22 C24 1_555 1_555
C5 C6 1_555 1_555
C15 C16 1_555 1_555
C23 C24 1_555 1_555

#END
