
#######################################################################
#
#                 Cambridge Crystallographic Data Centre
#                                CCDC 
#
#######################################################################
#
# If this CIF has been generated from an entry in the Cambridge 
# Structural Database, then it will include bibliographic, chemical, 
# crystal, experimental, refinement or atomic coordinate data resulting 
# from the CCDC's data processing and validation procedures.
#
#######################################################################

data_GEWZOA
_chemical_formula_moiety         'C96 H108 N12'
_chemical_name_systematic        
"1,1':2,1'':2',2''-bis((5,10,15-tri-n-butyl-10,15-dihydro-5H-diindolo[3,2-a:3',2'-c]carbazole-3,8,13-triyl)trimethanimine)tris(cyclohexane) unknown solvate"
_symmetry_cell_setting           hexagonal
_symmetry_space_group_name_H-M   'P 65 2 2'
_symmetry_Int_Tables_number      179
_space_group_name_Hall           "P 65 2' (0,0,1)"
loop_
_symmetry_equiv_pos_site_id
_symmetry_equiv_pos_as_xyz
1 x,y,z
2 x-y,x,5/6+z
3 -y,x-y,2/3+z
4 -x,-y,1/2+z
5 -x+y,-x,1/3+z
6 y,-x+y,1/6+z
7 x-y,-y,-z
8 -x,-x+y,1/3-z
9 y,x,2/3-z
10 -y,-x,1/6-z
11 -x+y,y,1/2-z
12 x,x-y,5/6-z
_cell_length_a                   23.3854(7)
_cell_length_b                   23.3854(7)
_cell_length_c                   89.444(2)
_cell_angle_alpha                90
_cell_angle_beta                 90
_cell_angle_gamma                120
_cell_volume                     42361.5
_exptl_crystal_colour            'yellowish yellow'
_exptl_crystal_description       block
_cell_formula_units_Z            18
loop_
_atom_site_label
_atom_site_type_symbol
_atom_site_fract_x
_atom_site_fract_y
_atom_site_fract_z
C1 C -0.5685(3) -0.7064(3) -0.07668(5)
C2 C -0.6682(3) -0.5879(3) -0.12676(7)
N1 N -0.6354(3) -0.7435(2) -0.07306(4)
C3 C -0.5824(3) -0.5390(3) -0.10787(6)
C4 C -0.4981(3) -0.6695(3) -0.09848(5)
N2 N -0.4779(3) -0.6636(3) -0.11365(4)
C5 C -0.4400(3) -0.6384(3) -0.08952(6)
C6 C -0.5125(3) -0.6761(3) -0.06721(5)
C7 C -0.6590(3) -0.7362(3) -0.11232(5)
H1 H -0.6321 -0.7155 -0.1208
C8 C -0.5608(3) -0.6991(3) -0.09265(5)
N3 N -0.5310(4) -0.6534(4) 0.00200(5)
C9 C -0.6717(3) -0.7594(3) -0.08614(5)
N4 N -0.4726(2) -0.4748(2) -0.11368(5)
C10 C -0.7384(4) -0.7955(3) -0.08748(6)
H2 H -0.7651 -0.8168 -0.0790
C11 C -0.6209(3) -0.5548(3) -0.13807(6)
H3 H -0.6345 -0.5604 -0.1482
C12 C -0.6480(3) -0.5798(3) -0.11171(6)
H4 H -0.6798 -0.6025 -0.1041
C13 C -0.4494(3) -0.6460(3) -0.07392(5)
C14 C -0.6291(3) -0.7314(3) -0.09845(5)
N5 N -0.4016(3) -0.6256(3) -0.06264(5)
C15 C -0.7274(3) -0.7706(3) -0.11394(5)
C16 C -0.5354(3) -0.5081(3) -0.11959(6)
C17 C -0.7675(3) -0.8012(3) -0.10156(6)
H5 H -0.8142 -0.8257 -0.1026
C18 C -0.4172(3) -0.4311(3) -0.12293(7)
H6 H -0.3817 -0.3981 -0.1164
H7 H -0.4312 -0.4071 -0.1298
C19 C -0.7360(3) -0.6326(3) -0.13028(6)
H8 H -0.7669 -0.6467 -0.1223
C20 C -0.5020(4) -0.6685(3) -0.05110(5)
C21 C -0.5545(4) -0.6737(4) -0.01139(5)
H9 H -0.6008 -0.6944 -0.0130
C22 C -0.4760(3) -0.4827(3) -0.09807(7)
C23 C -0.5553(3) -0.5144(3) -0.13455(7)
H10 H -0.5239 -0.4911 -0.1422
N6 N -0.7584(3) -0.6552(3) -0.14345(5)
C24 C -0.5434(3) -0.5194(3) -0.09401(6)
C25 C -0.4050(4) -0.6287(3) -0.03491(6)
H11 H -0.3588 -0.6112 -0.0338
C26 C -0.5424(4) -0.5255(3) -0.05321(7)
N7 N -0.6206(3) -0.5546(3) -0.07183(5)
C27 C -0.7551(4) -0.7703(3) -0.12857(6)
H12 H -0.7271 -0.7584 -0.1371
N8 N -0.8143(3) -0.7852(3) -0.13044(5)
C28 C -0.6596(4) -0.5743(3) -0.04548(7)
H13 H -0.7045 -0.5909 -0.0481
C29 C -0.4241(4) -0.4612(4) -0.08771(7)
C30 C -0.5251(4) -0.5242(3) -0.03816(7)
H14 H -0.4802 -0.5075 -0.0355
C31 C -0.6655(3) -0.7758(3) -0.05912(5)
H15 H -0.6305 -0.7722 -0.0523
H16 H -0.6958 -0.8233 -0.0611
C32 C -0.3518(4) -0.4279(3) -0.08829(8)
C33 C -0.5405(3) -0.6803(3) -0.03837(5)
H17 H -0.5868 -0.6984 -0.0393
C34 C -0.3335(4) -0.6100(3) -0.06386(7)
H18 H -0.3266 -0.6226 -0.0740
H19 H -0.3261 -0.6376 -0.0566
C35 C -0.4325(4) -0.6401(3) -0.04896(6)
C36 C -0.3335(4) -0.4190(4) -0.14185(10)
H20 H -0.3057 -0.3779 -0.1361
H21 H -0.3517 -0.4073 -0.1506
C37 C -0.4106(3) -0.6286(3) -0.11435(6)
C38 C -0.5167(3) -0.6984(3) -0.12667(5)
H22 H -0.5592 -0.7362 -0.1233
H23 H -0.4928 -0.7162 -0.1324
C39 C -0.6101(4) -0.5522(3) -0.05626(7)
C40 C -0.2041(4) -0.5016(4) -0.11021(8)
H24 H -0.1850 -0.4914 -0.1005
C41 C -0.2759(4) -0.5487(3) -0.11173(7)
C42 C -0.7035(4) -0.7477(3) -0.05142(5)
H25 H -0.7353 -0.7469 -0.0586
H26 H -0.6723 -0.7016 -0.0484
N9 N -0.1676(4) -0.4744(4) -0.12150(8)
N10 N -0.3845(3) -0.4404(3) -0.06375(7)
C43 C -0.3833(3) -0.6088(3) -0.09981(6)
C44 C -0.3705(4) -0.6115(4) -0.12704(6)
H27 H -0.3897 -0.6270 -0.1366
C45 C -0.3152(3) -0.5670(3) -0.09905(7)
H28 H -0.2951 -0.5507 -0.0896
C46 C -0.5731(5) -0.5470(3) -0.02727(7)
C47 C -0.2825(4) -0.5390(4) -0.06122(8)
H29 H -0.2893 -0.5262 -0.0511
H30 H -0.2895 -0.5114 -0.0685
C48 C -0.5106(4) -0.6653(4) -0.02409(5)
C49 C -0.3044(4) -0.5730(4) -0.12574(7)
H31 H -0.2772 -0.5624 -0.1344
C50 C -0.3034(4) -0.4100(3) -0.09926(9)
H32 H -0.3161 -0.4191 -0.1095
C51 C -0.5593(4) -0.5276(3) -0.07866(7)
C52 C -0.3895(3) -0.4661(3) -0.13214(8)
H33 H -0.3739 -0.4889 -0.1254
H34 H -0.4249 -0.4999 -0.1385
N11 N -0.1304(3) -0.3537(4) -0.10490(10)
C53 C -0.2380(4) -0.3794(4) -0.09557(9)
C54 C -0.6400(4) -0.5710(4) -0.03071(7)
H35 H -0.6718 -0.5850 -0.0229
C55 C -0.5303(4) -0.6551(3) -0.13680(6)
H36 H -0.4878 -0.6161 -0.1397
H37 H -0.5563 -0.6392 -0.1313
C56 C -0.1893(4) -0.3683(4) -0.10738(10)
H38 H -0.2033 -0.3723 -0.1175
C57 C -0.6821(4) -0.5643(3) -0.07780(7)
H39 H -0.6739 -0.5441 -0.0879
H40 H -0.6981 -0.5408 -0.0714
C58 C -0.4417(3) -0.4698(3) -0.07224(7)
N12 N -0.5951(5) -0.5768(4) -0.00095(6)
C59 C -0.3295(4) -0.4140(3) -0.07322(8)
C60 C -0.5683(5) -0.6916(4) -0.15096(7)
H41 H -0.6065 -0.7347 -0.1481
H42 H -0.5854 -0.6655 -0.1559
C61 C -0.7406(5) -0.7868(5) -0.03774(7)
H43 H -0.7085 -0.7854 -0.0303
H44 H -0.7699 -0.8335 -0.0406
C62 C -0.4443(4) -0.6425(4) -0.02267(7)
H45 H -0.4255 -0.6361 -0.0130
C63 C -0.5699(7) -0.5839(6) 0.01348(7)
H46 H -0.5226 -0.5488 0.0147
C64 C -0.2115(5) -0.5238(5) -0.06244(9)
H47 H -0.2084 -0.5506 -0.0706
H48 H -0.1831 -0.4767 -0.0651
C65 C -0.5761(6) -0.6530(6) 0.01314(6)
H49 H -0.6224 -0.6870 0.0105
C66 C -0.2181(4) -0.3631(5) -0.08066(10)
H50 H -0.1724 -0.3409 -0.0783
C67 C -0.2641(4) -0.3790(4) -0.06941(11)
H51 H -0.2507 -0.3661 -0.0594
C68 C -0.5580(7) -0.6694(7) 0.02820(6)
H52 H -0.5110 -0.6379 0.0304
H53 H -0.5641 -0.7144 0.0279
C69 C -0.5258(5) -0.7033(4) -0.16187(7)
H54 H -0.5514 -0.7242 -0.1709
H55 H -0.5117 -0.7322 -0.1573
H56 H -0.4870 -0.6610 -0.1645
C70 C -0.0933(4) -0.3567(5) -0.11826(11)
H57 H -0.1118 -0.3484 -0.1275
C71 C -0.9250(5) -0.7434(6) -0.16157(9)
H58 H -0.9518 -0.7421 -0.1531
H59 H -0.9416 -0.7340 -0.1709
C72 C -0.5539(6) -0.5481(4) -0.01163(8)
H60 H -0.5081 -0.5261 -0.0093
C73 C -0.6108(9) -0.5805(8) 0.02599(9)
H61 H -0.6580 -0.6117 0.0239
H62 H -0.6045 -0.5355 0.0265
C74 C -0.5081(4) -0.5048(3) -0.06748(7)
C75 C -0.3781(5) -0.4157(5) -0.04815(10)
H63 H -0.3463 -0.3676 -0.0481
H64 H -0.4214 -0.4220 -0.0450
C76 C -0.8267(3) -0.7036(4) -0.14484(6)
H65 H -0.8517 -0.7003 -0.1361
C77 C -0.7359(4) -0.6361(3) -0.07899(7)
H66 H -0.7446 -0.6569 -0.0690
H67 H -0.7208 -0.6599 -0.0856
C78 C -0.8536(4) -0.6919(5) -0.15929(7)
H68 H -0.8493 -0.6476 -0.1590
H69 H -0.8272 -0.6931 -0.1678
C79 C -0.9050(4) -0.8264(5) -0.14835(8)
H70 H -0.9074 -0.8695 -0.1496
H71 H -0.9331 -0.8300 -0.1397
C80 C -0.8333(4) -0.7730(4) -0.14513(7)
H72 H -0.8034 -0.7744 -0.1530
C81 C -0.1000(4) -0.4245(5) -0.11909(10)
H73 H -0.0856 -0.4335 -0.1093
C82 C -0.7993(4) -0.6421(5) -0.08521(11)
H74 H -0.7879 -0.6044 -0.0920
H75 H -0.8226 -0.6831 -0.0912
C83 C -0.3562(6) -0.4471(6) -0.03698(9)
H76 H -0.3119 -0.4392 -0.0398
H77 H -0.3869 -0.4954 -0.0371
C84 C -0.0543(5) -0.4237(6) -0.13099(12)
H78 H -0.0721 -0.4210 -0.1408
H79 H -0.0550 -0.4663 -0.1306
C85 C -0.9314(4) -0.8102(6) -0.16247(8)
H80 H -0.9066 -0.8119 -0.1713
H81 H -0.9784 -0.8439 -0.1639
C86 C 0.0165(5) -0.3689(9) -0.13010(16)
H82 H 0.0377 -0.3754 -0.1212
H83 H 0.0407 -0.3702 -0.1391
C87 C -0.6020(9) -0.6653(9) 0.04055(8)
H84 H -0.6489 -0.6971 0.0384
H85 H -0.5908 -0.6773 0.0503
C88 C -0.0214(5) -0.3027(6) -0.11639(15)
H86 H -0.0186 -0.2590 -0.1161
H87 H -0.0042 -0.3089 -0.1068
C89 C -0.3530(7) -0.4222(8) -0.02139(10)
H88 H -0.3200 -0.3745 -0.0214
H89 H -0.3964 -0.4261 -0.0192
C90 C 0.0206(6) -0.3044(9) -0.12919(18)
H90 H 0.0053 -0.2951 -0.1387
H91 H 0.0672 -0.2696 -0.1276
C91 C -0.5920(10) -0.5978(10) 0.04137(9)
H92 H -0.5453 -0.5659 0.0437
H93 H -0.6200 -0.5954 0.0494
C92 C -0.2907(10) -0.4458(9) -0.14737(18)
H94 H -0.2722 -0.4572 -0.1388
H95 H -0.2548 -0.4124 -0.1535
H96 H -0.3174 -0.4855 -0.1534
C93 C -0.1882(8) -0.5365(9) -0.04943(18)
H97 H -0.1838 -0.5757 -0.0508
H98 H -0.2192 -0.5443 -0.0413
H99 H -0.1450 -0.4985 -0.0470
C94 C -0.7820(8) -0.7603(7) -0.03054(10)
H100 H -0.8210 -0.7725 -0.0367
H101 H -0.7556 -0.7121 -0.0298
H102 H -0.7959 -0.7794 -0.0205
C95 C -0.3383(12) -0.4500(12) -0.00966(15)
H103 H -0.3715 -0.4969 -0.0090
H104 H -0.3380 -0.4276 -0.0004
H105 H -0.2946 -0.4453 -0.0112
C96 C -0.8450(13) -0.6433(10) -0.0733(3)
H106 H -0.8578 -0.6813 -0.0667
H107 H -0.8845 -0.6467 -0.0780
H108 H -0.8225 -0.6025 -0.0674
C99 C -0.5588(3) -0.3658(3) -0.08170(7)
C100 C -0.6235(3) -0.4034(2) -0.06122(7)
N13 N -0.5608(3) -0.3739(2) -0.05643(6)
N14 N -0.5510(3) -0.3642(3) -0.11012(6)
C101 C -0.5178(3) -0.3475(3) -0.06874(7)
C102 C -0.5239(3) -0.3492(3) -0.09578(7)
C103 C -0.4183(3) -0.2988(3) -0.08354(8)
C104 C -0.6808(4) -0.4347(3) -0.05236(8)
H119 H -0.6778 -0.4398 -0.0419
C105 C -0.4557(3) -0.3126(3) -0.09661(8)
C106 C -0.5004(3) -0.3350(3) -0.12013(7)
C107 C -0.3879(3) -0.2629(3) -0.13672(8)
C108 C -0.4478(3) -0.3016(3) -0.14404(8)
H120 H -0.4492 -0.3029 -0.1547
N15 N -0.3503(3) -0.2687(3) -0.08173(7)
C109 C -0.7429(4) -0.4583(3) -0.05926(8)
H121 H -0.7821 -0.4792 -0.0535
C110 C -0.3839(3) -0.2622(3) -0.12126(8)
H122 H -0.3426 -0.2354 -0.1165
C111 C -0.3266(4) -0.2188(4) -0.14515(9)
H123 H -0.2858 -0.1972 -0.1400
N16 N -0.3273(3) -0.2088(3) -0.15955(7)
C112 C -0.3370(3) -0.2636(3) -0.06633(8)
C113 C -0.4490(3) -0.3135(3) -0.06928(8)
C114 C -0.7462(3) -0.4507(3) -0.07492(8)
C115 C -0.6891(3) -0.4189(3) -0.08297(8)
H124 H -0.6919 -0.4108 -0.0933
C116 C -0.5050(4) -0.3381(3) -0.13596(8)
H125 H -0.5462 -0.3644 -0.1408
C117 C -0.6274(3) -0.3977(3) -0.07683(7)
C118 C -0.3880(4) -0.2763(3) -0.04275(8)
H126 H -0.4260 -0.2897 -0.0367
N17 N -0.8616(3) -0.4839(3) -0.07516(7)
C119 C -0.8082(3) -0.4672(3) -0.08220(8)
H127 H -0.8089 -0.4655 -0.0928
C120 C -0.6549(4) -0.3800(4) -0.12099(9)
H128 H -0.6648 -0.3589 -0.1126
H129 H -0.6262 -0.3448 -0.1281
C121 C -0.3959(3) -0.2862(3) -0.05840(8)
C122 C -0.3006(4) -0.2606(4) -0.09236(9)
H130 H -0.3223 -0.2842 -0.1017
H131 H -0.2755 -0.2809 -0.0883
C123 C -0.4394(3) -0.3001(3) -0.11273(8)
C124 C -0.5275(6) -0.3610(4) -0.01394(9)
H132 H -0.5592 -0.4072 -0.0112
H133 H -0.4835 -0.3569 -0.0151
C125 C -0.2699(4) -0.2306(4) -0.04452(10)
H134 H -0.2282 -0.2138 -0.0398
C126 C -0.9797(4) -0.5473(6) -0.07700(11)
H135 H -0.9802 -0.5409 -0.0661
H136 H -0.9797 -0.5891 -0.0787
N18 N -0.2662(3) -0.1964(3) -0.01389(7)
C127 C -0.7187(5) -0.4266(5) -0.12880(11)
H137 H -0.7444 -0.4661 -0.1225
H138 H -0.7451 -0.4046 -0.1301
C128 C -0.2530(3) -0.1887(4) -0.09595(9)
H139 H -0.2778 -0.1687 -0.1003
H140 H -0.2320 -0.1648 -0.0866
C129 C -0.2759(4) -0.2386(4) -0.05979(10)
H141 H -0.2380 -0.2271 -0.0658
C130 C -0.2663(4) -0.1607(4) -0.16630(9)
H142 H -0.2287 -0.1538 -0.1597
C131 C -0.6166(3) -0.4125(3) -0.11491(7)
H143 H -0.6411 -0.4413 -0.1064
H144 H -0.6136 -0.4406 -0.1228
C132 C -0.5481(4) -0.3454(3) -0.02891(8)
H145 H -0.5941 -0.3544 -0.0282
H146 H -0.5193 -0.2980 -0.0312
C133 C -0.5434(4) -0.3865(3) -0.04145(7)
H147 H -0.4976 -0.3784 -0.0418
H148 H -0.5727 -0.4337 -0.0390
C134 C -0.1925(5) -0.1293(6) -0.18889(10)
H149 H -0.1543 -0.1198 -0.1824
H150 H -0.1864 -0.1454 -0.1987
C135 C -0.2660(4) -0.1718(4) 0.00120(8)
H151 H -0.3068 -0.2046 0.0066
C136 C -0.3223(4) -0.2326(4) -0.02018(9)
H152 H -0.3614 -0.2498 -0.0144
C137 C -0.2574(5) -0.1824(5) -0.18148(10)
H153 H -0.2953 -0.1909 -0.1879
H154 H -0.2565 -0.2242 -0.1805
C138 C -0.9170(4) -0.4903(4) -0.08359(8)
H155 H -0.9126 -0.5008 -0.0942
C139 C -0.1966(5) -0.1293(6) 0.02439(10)
H156 H -0.1555 -0.1227 0.0292
H157 H -0.2340 -0.1573 0.0311
C140 C -0.5247(9) -0.3160(7) -0.00155(11)
H158 H -0.5050 -0.2707 -0.0053
H159 H -0.4978 -0.3175 0.0067
H160 H -0.5695 -0.3306 0.0021
C141 C -1.0421(4) -0.5524(5) -0.08395(10)
H161 H -1.0447 -0.5648 -0.0946
H162 H -1.0815 -0.5877 -0.0788
C142 C -0.2060(5) -0.1633(5) 0.00954(9)
H163 H -0.2105 -0.2072 0.0112
H164 H -0.1662 -0.1372 0.0033
C143 C -0.3271(4) -0.2478(4) -0.03614(9)
C144 C -0.1997(4) -0.1803(4) -0.10682(11)
H165 H -0.1767 -0.2028 -0.1027
H166 H -0.2206 -0.2020 -0.1164
C145 C -0.7074(7) -0.4455(9) -0.14242(13)
H167 H -0.6837 -0.4066 -0.1488
H168 H -0.7497 -0.4766 -0.1471
H169 H -0.6808 -0.4668 -0.1411
C146 C -0.1514(6) -0.1116(7) -0.10968(17)
H170 H -0.1460 -0.1040 -0.1205
H171 H -0.1090 -0.1012 -0.1052
H172 H -0.1667 -0.0832 -0.1053
C99K C -0.5588(3) -0.1930(4) -0.08497(7)
C100K C -0.6235(3) -0.2201(4) -0.10545(7)
N13K N -0.5608(3) -0.1869(4) -0.11024(6)
N14K N -0.5510(3) -0.1868(4) -0.05655(6)
C101K C -0.5178(3) -0.1703(4) -0.09793(7)
C102K C -0.5239(3) -0.1747(4) -0.07089(7)
C103K C -0.4183(3) -0.1195(4) -0.08313(8)
C104K C -0.6808(4) -0.2461(5) -0.11431(8)
H119K H -0.6778 -0.2380 -0.1248
C105K C -0.4557(3) -0.1431(4) -0.07006(8)
C106K C -0.5004(3) -0.1654(4) -0.04654(7)
C107K C -0.3879(3) -0.1250(4) -0.02995(8)
C108K C -0.4478(3) -0.1462(4) -0.02263(8)
H120K H -0.4492 -0.1463 -0.0120
N15K N -0.3503(3) -0.0816(4) -0.08494(7)
C109K C -0.7429(4) -0.2846(5) -0.10741(8)
H121K H -0.7821 -0.3029 -0.1132
C110K C -0.3839(3) -0.1217(4) -0.04541(8)
H122K H -0.3426 -0.1072 -0.0502
C111K C -0.3266(4) -0.1078(6) -0.02152(9)
H123K H -0.2858 -0.0886 -0.0267
N16K N -0.3273(3) -0.1185(4) -0.00712(7)
C112K C -0.3370(3) -0.0734(4) -0.10034(8)
C113K C -0.4490(3) -0.1355(4) -0.09739(8)
C114K C -0.7462(3) -0.2955(4) -0.09175(8)
C115K C -0.6891(3) -0.2702(4) -0.08370(8)
H124K H -0.6919 -0.2811 -0.0734
C116K C -0.5050(4) -0.1669(5) -0.03071(8)
H125K H -0.5462 -0.1818 -0.0259
C117K C -0.6274(3) -0.2297(4) -0.08984(7)
C118K C -0.3880(4) -0.1117(5) -0.12392(8)
H126K H -0.4260 -0.1363 -0.1300
N17K N -0.8616(3) -0.3777(4) -0.09151(7)
C119K C -0.8082(3) -0.3410(4) -0.08447(8)
H127K H -0.8089 -0.3434 -0.0739
C120K C -0.6549(4) -0.2749(6) -0.04568(9)
H128K H -0.6648 -0.3059 -0.0541
H129K H -0.6262 -0.2814 -0.0386
C121K C -0.3959(3) -0.1097(4) -0.10827(8)
C122K C -0.3006(4) -0.0400(6) -0.07431(9)
H130K H -0.3223 -0.0381 -0.0650
H131K H -0.2755 0.0054 -0.0784
C123K C -0.4394(3) -0.1393(4) -0.05394(8)
C124K C -0.5275(6) -0.1665(7) -0.15273(9)
H132K H -0.5592 -0.1520 -0.1555
H133K H -0.4835 -0.1266 -0.1516
C125K C -0.2699(4) -0.0393(6) -0.12215(10)
H134K H -0.2282 -0.0144 -0.1269
C126K C -0.9797(4) -0.4324(7) -0.08967(11)
H135K H -0.9802 -0.4393 -0.1006
H136K H -0.9797 -0.3906 -0.0880
N18K N -0.2662(3) -0.0698(4) -0.15278(7)
C127K C -0.7187(5) -0.2921(7) -0.03787(11)
H137K H -0.7444 -0.2783 -0.0442
H138K H -0.7451 -0.3405 -0.0366
C128K C -0.2530(3) -0.0643(5) -0.07072(9)
H139K H -0.2778 -0.1091 -0.0664
H140K H -0.2320 -0.0672 -0.0801
C129K C -0.2759(4) -0.0373(6) -0.10688(10)
H141K H -0.2380 -0.0109 -0.1009
C130K C -0.2663(4) -0.1056(6) -0.00037(9)
H142K H -0.2287 -0.0749 -0.0070
C131K C -0.6166(3) -0.2041(4) -0.05176(7)
H143K H -0.6411 -0.1998 -0.0603
H144K H -0.6136 -0.1730 -0.0439
C132K C -0.5481(4) -0.2027(5) -0.13776(8)
H145K H -0.5941 -0.2397 -0.1385
H146K H -0.5193 -0.2213 -0.1355
C133K C -0.5434(4) -0.1569(5) -0.12522(7)
H147K H -0.4976 -0.1192 -0.1249
H148K H -0.5727 -0.1390 -0.1277
C134K C -0.1925(5) -0.0632(8) 0.02222(10)
H149K H -0.1543 -0.0345 0.0157
H150K H -0.1864 -0.0410 0.0320
C135K C -0.2660(4) -0.0942(6) -0.16787(8)
H151K H -0.3068 -0.1022 -0.1733
C136K C -0.3223(4) -0.0897(6) -0.14649(9)
H152K H -0.3614 -0.1116 -0.1523
C137K C -0.2574(5) -0.0750(7) 0.01481(10)
H153K H -0.2953 -0.1044 0.0212
H154K H -0.2565 -0.0323 0.0138
C138K C -0.9170(4) -0.4267(6) -0.08308(8)
H155K H -0.9126 -0.4118 -0.0725
C139K C -0.1966(5) -0.0673(8) -0.19106(10)
H156K H -0.1555 -0.0328 -0.1959
H157K H -0.2340 -0.0767 -0.1978
C140K C -0.5247(9) -0.2087(11) -0.16512(11)
H158K H -0.5050 -0.2343 -0.1614
H159K H -0.4978 -0.1803 -0.1734
H160K H -0.5695 -0.2389 -0.1688
C141K C -1.0421(4) -0.4897(6) -0.08272(10)
H161K H -1.0447 -0.4799 -0.0721
H162K H -1.0815 -0.4938 -0.0879
C142K C -0.2060(5) -0.0427(7) -0.17621(9)
H163K H -0.2105 -0.0033 -0.1779
H164K H -0.1662 -0.0290 -0.1700
C143K C -0.3271(4) -0.0793(6) -0.13053(9)
C144K C -0.1997(4) -0.0194(6) -0.05985(11)
H165K H -0.1767 0.0261 -0.0640
H166K H -0.2206 -0.0186 -0.0503
C145K C -0.7074(7) -0.2619(11) -0.02425(13)
H167K H -0.6837 -0.2771 -0.0179
H168K H -0.7497 -0.2731 -0.0196
H169K H -0.6808 -0.2140 -0.0256
C146K C -0.1514(6) -0.0398(9) -0.05699(17)
H170K H -0.1460 -0.0420 -0.0462
H171K H -0.1090 -0.0078 -0.0615
H172K H -0.1667 -0.0835 -0.0614
H109? H -0.3084 -0.4397 -0.1456
H110? H -0.3031 -0.3787 -0.1362
H111? H -0.8141 -0.6199 -0.0780
H112? H -0.7876 -0.6161 -0.0946
C97? C -0.3677(11) -0.4005(9) -0.15594(18)
H113? H -0.3978 -0.4410 -0.1614
H114? H -0.3331 -0.3696 -0.1627
H115? H -0.3925 -0.3802 -0.1520
C98? C -0.8548(13) -0.7050(10) -0.0884(3)
H116? H -0.8427 -0.7274 -0.0960
H117? H -0.8911 -0.6994 -0.0922
H118? H -0.8690 -0.7316 -0.0792
H173? H -0.7535 -0.4450 -0.1210
H174? H -0.7140 -0.4638 -0.1326
C147? C -0.7458(13) -0.4035(17) -0.1419(2)
H175? H -0.7537 -0.3683 -0.1384
H176? H -0.7874 -0.4408 -0.1455
H177? H -0.7136 -0.3868 -0.1500
loop_
_geom_bond_atom_site_label_1
_geom_bond_atom_site_label_2
_geom_bond_site_symmetry_1
_geom_bond_site_symmetry_2
C1 N1 1_555 1_555
C2 C11 1_555 1_555
N1 C9 1_555 1_555
C3 C12 1_555 1_555
C4 N2 1_555 1_555
N2 C37 1_555 1_555
C5 C4 1_555 1_555
C6 C1 1_555 1_555
C7 H1 1_555 1_555
C8 C1 1_555 1_555
N3 C21 1_555 1_555
C9 C10 1_555 1_555
N4 C16 1_555 1_555
C10 H2 1_555 1_555
C11 H3 1_555 1_555
C12 C2 1_555 1_555
H4 C12 1_555 1_555
C13 C5 1_555 1_555
C14 C7 1_555 1_555
N5 C13 1_555 1_555
C15 C7 1_555 1_555
C16 C3 1_555 1_555
C17 C10 1_555 1_555
H5 C17 1_555 1_555
C18 N4 1_555 1_555
H6 C18 1_555 1_555
H7 C18 1_555 1_555
C19 C2 1_555 1_555
H8 C19 1_555 1_555
C20 C6 1_555 1_555
C21 H9 1_555 1_555
C22 N4 1_555 1_555
C23 C11 1_555 1_555
H10 C23 1_555 1_555
N6 C19 1_555 1_555
C24 C3 1_555 1_555
C25 H11 1_555 1_555
C26 C30 1_555 1_555
N7 C39 1_555 1_555
C27 C15 1_555 1_555
H12 C27 1_555 1_555
N8 C27 1_555 1_555
C28 H13 1_555 1_555
C29 C22 1_555 1_555
C30 H14 1_555 1_555
C31 N1 1_555 1_555
H15 C31 1_555 1_555
H16 C31 1_555 1_555
C32 C29 1_555 1_555
C33 C20 1_555 1_555
H17 C33 1_555 1_555
C34 N5 1_555 1_555
H18 C34 1_555 1_555
H19 C34 1_555 1_555
C35 N5 1_555 1_555
C36 H20 1_555 1_555
H21 C36 1_555 1_555
C37 C43 1_555 1_555
C38 N2 1_555 1_555
H22 C38 1_555 1_555
H23 C38 1_555 1_555
C39 C26 1_555 1_555
C40 H24 1_555 1_555
C41 C40 1_555 1_555
C42 C31 1_555 1_555
H25 C42 1_555 1_555
H26 C42 1_555 1_555
N9 C40 1_555 1_555
N10 C58 1_555 1_555
C43 C5 1_555 1_555
C44 C37 1_555 1_555
H27 C44 1_555 1_555
C45 C41 1_555 1_555
H28 C45 1_555 1_555
C46 C30 1_555 1_555
C47 C34 1_555 1_555
H29 C47 1_555 1_555
H30 C47 1_555 1_555
C48 C21 1_555 1_555
C49 C41 1_555 1_555
H31 C49 1_555 1_555
C50 C32 1_555 1_555
H32 C50 1_555 1_555
C51 C24 1_555 1_555
C52 C18 1_555 1_555
H33 C52 1_555 1_555
H34 C52 1_555 1_555
N11 C56 1_555 1_555
C53 C50 1_555 1_555
C54 C28 1_555 1_555
H35 C54 1_555 1_555
C55 C38 1_555 1_555
H36 C55 1_555 1_555
H37 C55 1_555 1_555
C56 C53 1_555 1_555
H38 C56 1_555 1_555
C57 N7 1_555 1_555
H39 C57 1_555 1_555
H40 C57 1_555 1_555
C58 C29 1_555 1_555
N12 C63 1_555 1_555
C59 C32 1_555 1_555
C60 C55 1_555 1_555
H41 C60 1_555 1_555
H42 C60 1_555 1_555
C61 C42 1_555 1_555
H43 C61 1_555 1_555
H44 C61 1_555 1_555
C62 C25 1_555 1_555
H45 C62 1_555 1_555
C63 H46 1_555 1_555
C64 C47 1_555 1_555
H47 C64 1_555 1_555
H48 C64 1_555 1_555
C65 N3 1_555 1_555
H49 C65 1_555 1_555
C66 C53 1_555 1_555
H50 C66 1_555 1_555
C67 C59 1_555 1_555
H51 C67 1_555 1_555
C68 C65 1_555 1_555
H52 C68 1_555 1_555
H53 C68 1_555 1_555
C69 C60 1_555 1_555
H54 C69 1_555 1_555
H55 C69 1_555 1_555
H56 C69 1_555 1_555
C70 N11 1_555 1_555
H57 C70 1_555 1_555
C71 H58 1_555 1_555
H59 C71 1_555 1_555
C72 C46 1_555 1_555
H60 C72 1_555 1_555
C73 C63 1_555 1_555
H61 C73 1_555 1_555
H62 C73 1_555 1_555
C74 C26 1_555 1_555
C75 N10 1_555 1_555
H63 C75 1_555 1_555
H64 C75 1_555 1_555
C76 N6 1_555 1_555
H65 C76 1_555 1_555
C77 C57 1_555 1_555
H66 C77 1_555 1_555
H67 C77 1_555 1_555
C78 C71 1_555 1_555
H68 C78 1_555 1_555
H69 C78 1_555 1_555
C79 H70 1_555 1_555
H71 C79 1_555 1_555
C80 N8 1_555 1_555
H72 C80 1_555 1_555
C81 N9 1_555 1_555
H73 C81 1_555 1_555
C82 C77 1_555 1_555
H74 C82 1_555 1_555
H75 C82 1_555 1_555
C83 C75 1_555 1_555
H76 C83 1_555 1_555
H77 C83 1_555 1_555
C84 C81 1_555 1_555
H78 C84 1_555 1_555
H79 C84 1_555 1_555
C85 C71 1_555 1_555
H80 C85 1_555 1_555
H81 C85 1_555 1_555
C86 C84 1_555 1_555
H82 C86 1_555 1_555
H83 C86 1_555 1_555
C87 C68 1_555 1_555
H84 C87 1_555 1_555
H85 C87 1_555 1_555
C88 C70 1_555 1_555
H86 C88 1_555 1_555
H87 C88 1_555 1_555
C89 C83 1_555 1_555
H88 C89 1_555 1_555
H89 C89 1_555 1_555
C90 C86 1_555 1_555
H90 C90 1_555 1_555
H91 C90 1_555 1_555
C91 C73 1_555 1_555
H92 C91 1_555 1_555
H93 C91 1_555 1_555
C92 C36 1_555 1_555
H94 C92 1_555 1_555
H95 C92 1_555 1_555
H96 C92 1_555 1_555
C93 C64 1_555 1_555
H97 C93 1_555 1_555
H98 C93 1_555 1_555
H99 C93 1_555 1_555
C94 C61 1_555 1_555
H100 C94 1_555 1_555
H101 C94 1_555 1_555
H102 C94 1_555 1_555
C95 C89 1_555 1_555
H103 C95 1_555 1_555
H104 C95 1_555 1_555
H105 C95 1_555 1_555
C96 C82 1_555 1_555
H106 C96 1_555 1_555
H107 C96 1_555 1_555
H108 C96 1_555 1_555
C99 C101 1_555 1_555
C100 N13 1_555 1_555
N13 C101 1_555 1_555
N14 C102 1_555 1_555
C101 C113 1_555 1_555
C102 C99 1_555 1_555
C103 C105 1_555 1_555
C104 C100 1_555 1_555
H119 C104 1_555 1_555
C105 C102 1_555 1_555
C106 N14 1_555 1_555
C107 C108 1_555 1_555
C108 H120 1_555 1_555
N15 C103 1_555 1_555
C109 C104 1_555 1_555
H121 C109 1_555 1_555
C110 C107 1_555 1_555
H122 C110 1_555 1_555
C111 C107 1_555 1_555
H123 C111 1_555 1_555
N16 C111 1_555 1_555
C112 N15 1_555 1_555
C113 C103 1_555 1_555
C114 C109 1_555 1_555
C115 C114 1_555 1_555
H124 C115 1_555 1_555
C116 C106 1_555 1_555
H125 C116 1_555 1_555
C117 C99 1_555 1_555
C118 H126 1_555 1_555
N17 C119 1_555 1_555
C119 C114 1_555 1_555
H127 C119 1_555 1_555
C120 H128 1_555 1_555
H129 C120 1_555 1_555
C121 C112 1_555 1_555
C122 N15 1_555 1_555
H130 C122 1_555 1_555
H131 C122 1_555 1_555
C123 C105 1_555 1_555
C124 H132 1_555 1_555
H133 C124 1_555 1_555
C125 H134 1_555 1_555
C126 H135 1_555 1_555
H136 C126 1_555 1_555
N18 C135 1_555 1_555
C127 C120 1_555 1_555
H137 C127 1_555 1_555
H138 C127 1_555 1_555
C128 C122 1_555 1_555
H139 C128 1_555 1_555
H140 C128 1_555 1_555
C129 C112 1_555 1_555
H141 C129 1_555 1_555
C130 N16 1_555 1_555
H142 C130 1_555 1_555
C131 N14 1_555 1_555
H143 C131 1_555 1_555
H144 C131 1_555 1_555
C132 C124 1_555 1_555
H145 C132 1_555 1_555
H146 C132 1_555 1_555
C133 N13 1_555 1_555
H147 C133 1_555 1_555
H148 C133 1_555 1_555
C134 H149 1_555 1_555
H150 C134 1_555 1_555
C135 H151 1_555 1_555
C136 N18 1_555 1_555
H152 C136 1_555 1_555
C137 C130 1_555 1_555
H153 C137 1_555 1_555
H154 C137 1_555 1_555
C138 N17 1_555 1_555
H155 C138 1_555 1_555
C139 H156 1_555 1_555
H157 C139 1_555 1_555
C140 C124 1_555 1_555
H158 C140 1_555 1_555
H159 C140 1_555 1_555
H160 C140 1_555 1_555
C141 C126 1_555 1_555
H161 C141 1_555 1_555
H162 C141 1_555 1_555
C142 C135 1_555 1_555
H163 C142 1_555 1_555
H164 C142 1_555 1_555
C143 C118 1_555 1_555
C144 C128 1_555 1_555
H165 C144 1_555 1_555
H166 C144 1_555 1_555
C145 C127 1_555 1_555
H167 C145 1_555 1_555
H168 C145 1_555 1_555
H169 C145 1_555 1_555
C146 C144 1_555 1_555
H170 C146 1_555 1_555
H171 C146 1_555 1_555
H172 C146 1_555 1_555
C99K C101K 1_555 1_555
C100K N13K 1_555 1_555
N13K C101K 1_555 1_555
N14K C102K 1_555 1_555
C101K C113K 1_555 1_555
C102K C99K 1_555 1_555
C103K C105K 1_555 1_555
C104K C100K 1_555 1_555
H119K C104K 1_555 1_555
C105K C102K 1_555 1_555
C106K N14K 1_555 1_555
C107K C108K 1_555 1_555
C108K H120K 1_555 1_555
N15K C103K 1_555 1_555
C109K C104K 1_555 1_555
H121K C109K 1_555 1_555
C110K C107K 1_555 1_555
H122K C110K 1_555 1_555
C111K C107K 1_555 1_555
H123K C111K 1_555 1_555
N16K C111K 1_555 1_555
C112K N15K 1_555 1_555
C113K C103K 1_555 1_555
C114K C109K 1_555 1_555
C115K C114K 1_555 1_555
H124K C115K 1_555 1_555
C116K C106K 1_555 1_555
H125K C116K 1_555 1_555
C117K C99K 1_555 1_555
C118K H126K 1_555 1_555
N17K C119K 1_555 1_555
C119K C114K 1_555 1_555
H127K C119K 1_555 1_555
C120K H128K 1_555 1_555
H129K C120K 1_555 1_555
C121K C112K 1_555 1_555
C122K N15K 1_555 1_555
H130K C122K 1_555 1_555
H131K C122K 1_555 1_555
C123K C105K 1_555 1_555
C124K H132K 1_555 1_555
H133K C124K 1_555 1_555
C125K H134K 1_555 1_555
C126K H135K 1_555 1_555
H136K C126K 1_555 1_555
N18K C135K 1_555 1_555
C127K C120K 1_555 1_555
H137K C127K 1_555 1_555
H138K C127K 1_555 1_555
C128K C122K 1_555 1_555
H139K C128K 1_555 1_555
H140K C128K 1_555 1_555
C129K C112K 1_555 1_555
H141K C129K 1_555 1_555
C130K C135 1_555 1_555
H142K C130K 1_555 1_555
C131K N14K 1_555 1_555
H143K C131K 1_555 1_555
H144K C131K 1_555 1_555
C132K C124K 1_555 1_555
H145K C132K 1_555 1_555
H146K C132K 1_555 1_555
C133K N13K 1_555 1_555
H147K C133K 1_555 1_555
H148K C133K 1_555 1_555
C134K C139 1_555 1_555
H149K C134K 1_555 1_555
H150K C134K 1_555 1_555
C135K C130 1_555 1_555
H151K C135K 1_555 1_555
C136K N18K 1_555 1_555
H152K C136K 1_555 1_555
C137K C130K 1_555 1_555
H153K C137K 1_555 1_555
H154K C137K 1_555 1_555
C138K C138 1_555 1_555
H155K C138K 1_555 1_555
C139K C134 1_555 1_555
H156K C139K 1_555 1_555
H157K C139K 1_555 1_555
C140K C124K 1_555 1_555
H158K C140K 1_555 1_555
H159K C140K 1_555 1_555
H160K C140K 1_555 1_555
C141K C141 1_555 1_555
H161K C141K 1_555 1_555
H162K C141K 1_555 1_555
C142K C135K 1_555 1_555
H163K C142K 1_555 1_555
H164K C142K 1_555 1_555
C143K C118K 1_555 1_555
C144K C128K 1_555 1_555
H165K C144K 1_555 1_555
H166K C144K 1_555 1_555
C145K C127K 1_555 1_555
H167K C145K 1_555 1_555
H168K C145K 1_555 1_555
H169K C145K 1_555 1_555
C146K C144K 1_555 1_555
H170K C146K 1_555 1_555
H171K C146K 1_555 1_555
H172K C146K 1_555 1_555
C4 C8 1_555 1_555
C6 C13 1_555 1_555
C8 C14 1_555 1_555
C9 C14 1_555 1_555
C15 C17 1_555 1_555
C16 C23 1_555 1_555
C20 C35 1_555 1_555
C22 C24 1_555 1_555
C25 C35 1_555 1_555
N7 C51 1_555 1_555
C28 C39 1_555 1_555
C33 C48 1_555 1_555
C36 C52 1_555 1_555
N10 C59 1_555 1_555
C43 C45 1_555 1_555
C44 C49 1_555 1_555
C46 C54 1_555 1_555
C48 C62 1_555 1_555
C51 C74 1_555 1_555
C58 C74 1_555 1_555
N12 C72 1_555 1_555
C63 C65 1_555 1_555
C66 C67 1_555 1_555
C70 C81 1_555 1_555
C76 C78 1_555 1_555
C76 C80 1_555 1_555
C79 C80 1_555 1_555
C79 C85 1_555 1_555
C87 C91 1_555 1_555
C88 C90 1_555 1_555
C100 C117 1_555 1_555
C106 C123 1_555 1_555
C108 C116 1_555 1_555
C110 C123 1_555 1_555
C113 C121 1_555 1_555
C115 C117 1_555 1_555
C118 C121 1_555 1_555
C120 C131 1_555 1_555
C125 C129 1_555 1_555
C125 C143 1_555 1_555
C126 C138 1_555 1_555
C132 C133 1_555 1_555
C134 C137 1_555 1_555
C136 C143 1_555 1_555
C139 C142 1_555 1_555
C100K C117K 1_555 1_555
C106K C123K 1_555 1_555
C108K C116K 1_555 1_555
C110K C123K 1_555 1_555
N16K C130K 1_555 1_555
C113K C121K 1_555 1_555
C115K C117K 1_555 1_555
C118K C121K 1_555 1_555
N17K C138K 1_555 1_555
C120K C131K 1_555 1_555
C125K C129K 1_555 1_555
C125K C143K 1_555 1_555
C126K C138K 1_555 1_555
C126K C141K 1_555 1_555
C132K C133K 1_555 1_555
C134K C137K 1_555 1_555
C136K C143K 1_555 1_555
C139K C142K 1_555 1_555

#END
