
#######################################################################
#
#                 Cambridge Crystallographic Data Centre
#                                CCDC 
#
#######################################################################
#
# If this CIF has been generated from an entry in the Cambridge 
# Structural Database, then it will include bibliographic, chemical, 
# crystal, experimental, refinement or atomic coordinate data resulting 
# from the CCDC's data processing and validation procedures.
#
#######################################################################

data_GEXBET
_chemical_formula_moiety         'C34 H7 Br2 F10 N5 O2,C4 H8 O1'
_chemical_name_systematic        
'21,22-dibromo-7,12-bis(pentafluorophenyl)-2,17-dioxa-23,24,25-triazapentacyclo[16.2.2.1^3,6^.1^8,11^.1^13,16^]pentacosa-1(20),3(25),4,6,8,10,12,14,16(23),18,21-undecaene-19,20-dicarbonitrile tetrahydrofuran unknown solvate'
_symmetry_cell_setting           orthorhombic
_symmetry_space_group_name_H-M   'P n m a'
_symmetry_Int_Tables_number      62
_space_group_name_Hall           '-P 2ac 2n'
loop_
_symmetry_equiv_pos_site_id
_symmetry_equiv_pos_as_xyz
1 x,y,z
2 1/2-x,-y,1/2+z
3 1/2+x,1/2-y,1/2-z
4 -x,1/2+y,-z
5 -x,-y,-z
6 1/2+x,y,1/2-z
7 1/2-x,1/2+y,1/2+z
8 x,1/2-y,z
_cell_length_a                   18.5573(10)
_cell_length_b                   18.3335(13)
_cell_length_c                   14.8419(10)
_cell_angle_alpha                90
_cell_angle_beta                 90
_cell_angle_gamma                90
_cell_volume                     5049.52
_exptl_crystal_colour            red
_exptl_crystal_description       block
_cell_formula_units_Z            4
loop_
_atom_site_label
_atom_site_type_symbol
_atom_site_fract_x
_atom_site_fract_y
_atom_site_fract_z
Br1 Br 0.40099(3) 0.65767(4) 0.32842(5)
F1 F 0.68765(19) 0.5507(2) -0.0594(2)
F2 F 0.7040(2) 0.5655(2) 0.2554(2)
F3 F 0.86082(18) 0.4130(2) 0.0959(3)
F4 F 0.8139(2) 0.4686(2) 0.2528(2)
F5 F 0.7961(2) 0.4528(2) -0.0609(2)
N1 N 0.6107(3) 0.7500 0.0993(4)
H1 H 0.5637 0.7500 0.1075
O1 O 0.37910(18) 0.59991(19) 0.1374(3)
N2 N 0.3404(3) 0.6490(3) -0.0830(3)
N3 N 0.5009(2) 0.6292(2) 0.1157(3)
C1 C 0.5638(2) 0.5860(3) 0.1107(3)
C2 C 0.6523(2) 0.6885(3) 0.0920(3)
C3 C 0.7231(3) 0.7120(3) 0.0768(3)
H2 H 0.7639 0.6815 0.0681
C4 C 0.3805(3) 0.7118(3) 0.2228(5)
C5 C 0.6314(2) 0.6141(3) 0.1000(3)
C6 C 0.6916(2) 0.5599(2) 0.0979(3)
C7 C 0.4506(3) 0.5813(3) 0.1278(4)
C8 C 0.5443(3) 0.5090(3) 0.1202(3)
H3 H 0.5767 0.4688 0.1192
C9 C 0.8063(3) 0.4618(3) 0.0963(4)
C10 C 0.7174(3) 0.5306(3) 0.0187(3)
C11 C 0.7743(3) 0.4818(3) 0.0171(4)
C12 C 0.4724(3) 0.5054(3) 0.1308(4)
H4 H 0.4430 0.4634 0.1383
C13 C 0.3700(3) 0.6755(3) 0.1423(5)
C14 C 0.7262(3) 0.5380(3) 0.1760(3)
C15 C 0.7830(3) 0.4898(3) 0.1760(3)
C16 C 0.3549(3) 0.7117(3) 0.0627(5)
C17 C 0.3443(3) 0.6687(3) -0.0277(7)
Br1G Br 0.40099(3) 0.84233(4) 0.32842(5)
F1G F 0.68765(19) 0.9493(2) -0.0594(2)
F2G F 0.7040(2) 0.9345(2) 0.2554(2)
F3G F 0.86082(18) 1.0870(2) 0.0959(3)
F4G F 0.8139(2) 1.0314(2) 0.2528(2)
F5G F 0.7961(2) 1.0472(2) -0.0609(2)
O1G O 0.37910(18) 0.90009(19) 0.1374(3)
N2G N 0.3404(3) 0.8510(3) -0.0830(3)
N3G N 0.5009(2) 0.8708(2) 0.1157(3)
C1G C 0.5638(2) 0.9140(3) 0.1107(3)
C2G C 0.6523(2) 0.8115(3) 0.0920(3)
C3G C 0.7231(3) 0.7880(3) 0.0768(3)
H2G H 0.7639 0.8185 0.0681
C4G C 0.3805(3) 0.7882(3) 0.2228(5)
C5G C 0.6314(2) 0.8859(3) 0.1000(3)
C6G C 0.6916(2) 0.9401(2) 0.0979(3)
C7G C 0.4506(3) 0.9187(3) 0.1278(4)
C8G C 0.5443(3) 0.9910(3) 0.1202(3)
H3G H 0.5767 1.0312 0.1192
C9G C 0.8063(3) 1.0382(3) 0.0963(4)
C10G C 0.7174(3) 0.9694(3) 0.0187(3)
C11G C 0.7743(3) 1.0182(3) 0.0171(4)
C12G C 0.4724(3) 0.9946(3) 0.1308(4)
H4G H 0.4430 1.0366 0.1383
C13G C 0.3700(3) 0.8245(3) 0.1423(5)
C14G C 0.7262(3) 0.9620(3) 0.1760(3)
C15G C 0.7830(3) 1.0102(3) 0.1760(3)
C16G C 0.3549(3) 0.7883(3) 0.0627(5)
C17G C 0.3443(3) 0.8313(3) -0.0277(7)
C18? C 0.0778(8) 0.7779(9) 0.0672(10)
O2? O 0.1971(4) 0.7500 0.0794(7)
C19? C 0.1731(7) 0.7500 0.1682(9)
C20? C 0.1397(8) 0.7500 0.0180(10)
C21? C 0.0946(7) 0.7500 0.1663(10)
loop_
_geom_bond_atom_site_label_1
_geom_bond_atom_site_label_2
_geom_bond_site_symmetry_1
_geom_bond_site_symmetry_2
Br1 C4 1_555 1_555
F1 C10 1_555 1_555
F2 C14 1_555 1_555
F3 C9 1_555 1_555
F4 C15 1_555 1_555
F5 C11 1_555 1_555
N1 H1 1_555 1_555
O1 C7 1_555 1_555
N2 C17 1_555 1_555
N3 C1 1_555 1_555
C1 C5 1_555 1_555
C2 N1 1_555 1_555
C3 C2 1_555 1_555
H2 C3 1_555 1_555
C4 C13 1_555 1_555
C5 C2 1_555 1_555
C6 C5 1_555 1_555
C7 N3 1_555 1_555
C8 C1 1_555 1_555
H3 C8 1_555 1_555
C9 C11 1_555 1_555
C10 C6 1_555 1_555
C11 C10 1_555 1_555
C12 C7 1_555 1_555
H4 C12 1_555 1_555
C13 O1 1_555 1_555
C14 C6 1_555 1_555
C15 C9 1_555 1_555
C16 C13 1_555 1_555
C17 C16 1_555 1_555
Br1G C4G 1_555 1_555
F1G C10G 1_555 1_555
F2G C14G 1_555 1_555
F3G C9G 1_555 1_555
F4G C15G 1_555 1_555
F5G C11G 1_555 1_555
O1G C7G 1_555 1_555
N2G C17G 1_555 1_555
N3G C1G 1_555 1_555
C1G C5G 1_555 1_555
C2G N1 1_555 1_555
C3G C3 1_555 1_555
H2G C3G 1_555 1_555
C4G C4 1_555 1_555
C5G C2G 1_555 1_555
C6G C5G 1_555 1_555
C7G N3G 1_555 1_555
C8G C1G 1_555 1_555
H3G C8G 1_555 1_555
C9G C11G 1_555 1_555
C10G C6G 1_555 1_555
C11G C10G 1_555 1_555
C12G C7G 1_555 1_555
H4G C12G 1_555 1_555
C13G O1G 1_555 1_555
C14G C6G 1_555 1_555
C15G C9G 1_555 1_555
C16G C16 1_555 1_555
C17G C16G 1_555 1_555
C8 C12 1_555 1_555
C14 C15 1_555 1_555
C2G C3G 1_555 1_555
C4G C13G 1_555 1_555
C8G C12G 1_555 1_555
C13G C16G 1_555 1_555
C14G C15G 1_555 1_555

#END
