
#######################################################################
#
#                 Cambridge Crystallographic Data Centre
#                                CCDC 
#
#######################################################################
#
# If this CIF has been generated from an entry in the Cambridge 
# Structural Database, then it will include bibliographic, chemical, 
# crystal, experimental, refinement or atomic coordinate data resulting 
# from the CCDC's data processing and validation procedures.
#
#######################################################################

data_GEXMED
_chemical_formula_moiety         'C6 N6 O6,C6 H3 N3 O6'
_chemical_name_systematic        
"(bis[1,2,5]Oxadiazolo[3,4-e:3',4'-g][2,1,3]benzoxadiazole 1,4,7-trioxide) 1,3,5-trinitrobenzene"
_symmetry_cell_setting           monoclinic
_symmetry_space_group_name_H-M   'P 21/c'
_symmetry_Int_Tables_number      14
_space_group_name_Hall           '-P 2ybc'
loop_
_symmetry_equiv_pos_site_id
_symmetry_equiv_pos_as_xyz
1 x,y,z
2 -x,1/2+y,1/2-z
3 -x,-y,-z
4 x,1/2-y,1/2+z
_cell_length_a                   9.5491(4)
_cell_length_b                   12.5670(5)
_cell_length_c                   14.4542(6)
_cell_angle_alpha                90
_cell_angle_beta                 99.530(4)
_cell_angle_gamma                90
_cell_volume                     1710.62
_exptl_crystal_colour            colorless
_exptl_crystal_description       block
_cell_formula_units_Z            4
loop_
_atom_site_label
_atom_site_type_symbol
_atom_site_fract_x
_atom_site_fract_y
_atom_site_fract_z
O1 O 0.7422(2) 0.88940(16) 0.1661(2)
O2 O 0.5746(2) 0.83116(16) 0.04152(18)
O3 O 0.30585(18) 0.52491(16) -0.01661(13)
O4 O 0.37142(16) 0.41764(13) 0.11182(12)
O5 O 0.6694(2) 0.4571(2) 0.39679(14)
O6 O 0.7724(2) 0.6231(2) 0.39266(15)
N1 N 0.6607(3) 0.82034(19) 0.1371(2)
N2 N 0.4915(3) 0.7422(2) 0.02381(17)
N3 N 0.37792(19) 0.51732(16) 0.06070(14)
N4 N 0.4611(2) 0.42604(16) 0.19582(15)
N5 N 0.6772(2) 0.5366(2) 0.35174(16)
N6 N 0.7628(2) 0.7051(2) 0.3282(2)
C1 C 0.6233(2) 0.72765(19) 0.1690(2)
C2 C 0.5210(2) 0.6823(2) 0.09897(17)
C3 C 0.4685(2) 0.57930(19) 0.11552(16)
C4 C 0.5177(2) 0.52183(17) 0.19773(16)
C5 C 0.6191(2) 0.5711(2) 0.26769(16)
C6 C 0.6727(2) 0.6742(2) 0.25553(19)
O7 O -0.3406(2) 0.11950(17) 0.14682(16)
O8 O -0.3275(2) 0.23399(16) 0.25887(16)
O9 O -0.0278(2) 0.54089(15) 0.26271(14)
O10 O 0.12284(19) 0.54945(14) 0.16628(14)
O11 O 0.1025(2) 0.29582(17) -0.08055(13)
O12 O -0.0355(2) 0.1597(2) -0.08570(15)
N7 N -0.2930(2) 0.19949(19) 0.18771(18)
N8 N 0.0259(2) 0.50695(16) 0.19770(15)
N9 N 0.0120(2) 0.2432(2) -0.05182(14)
C7 C -0.1835(2) 0.25934(18) 0.14813(16)
C8 C -0.1313(2) 0.35130(18) 0.19231(15)
H1 H -0.1620 0.3748 0.2466
C9 C -0.0320(2) 0.40742(17) 0.15321(15)
C10 C 0.0154(2) 0.37398(18) 0.07326(15)
H2 H 0.0828 0.4126 0.0477
C11 C -0.0406(2) 0.28152(19) 0.03276(14)
C12 C -0.1406(2) 0.22202(19) 0.06800(16)
H3 H -0.1773 0.1596 0.0390
loop_
_geom_bond_atom_site_label_1
_geom_bond_atom_site_label_2
_geom_bond_site_symmetry_1
_geom_bond_site_symmetry_2
O1 N1 1_555 1_555
O2 N1 1_555 1_555
O3 N3 1_555 1_555
O4 N3 1_555 1_555
O5 N5 1_555 1_555
O6 N5 1_555 1_555
N1 C1 1_555 1_555
N2 O2 1_555 1_555
N3 C3 1_555 1_555
N4 O4 1_555 1_555
N5 C5 1_555 1_555
N6 O6 1_555 1_555
C1 C2 1_555 1_555
C2 N2 1_555 1_555
C3 C2 1_555 1_555
C4 N4 1_555 1_555
C5 C4 1_555 1_555
C6 N6 1_555 1_555
O7 N7 1_555 1_555
O8 N7 1_555 1_555
O9 N8 1_555 1_555
O10 N8 1_555 1_555
O11 N9 1_555 1_555
O12 N9 1_555 1_555
N7 C7 1_555 1_555
N8 C9 1_555 1_555
N9 C11 1_555 1_555
C7 C8 1_555 1_555
C8 H1 1_555 1_555
C9 C8 1_555 1_555
C10 C9 1_555 1_555
H2 C10 1_555 1_555
C11 C10 1_555 1_555
C12 C7 1_555 1_555
H3 C12 1_555 1_555
C1 C6 1_555 1_555
C3 C4 1_555 1_555
C5 C6 1_555 1_555
C11 C12 1_555 1_555

#END
