
#######################################################################
#
#                 Cambridge Crystallographic Data Centre
#                                CCDC 
#
#######################################################################
#
# If this CIF has been generated from an entry in the Cambridge 
# Structural Database, then it will include bibliographic, chemical, 
# crystal, experimental, refinement or atomic coordinate data resulting 
# from the CCDC's data processing and validation procedures.
#
#######################################################################

data_GEXTUA
_chemical_formula_moiety         'C16 H14 F1 N1 O3'
_chemical_name_systematic        2-Fluoro-4-nitro-1,3-diphenylbutan-1-one
_symmetry_cell_setting           trigonal
_symmetry_space_group_name_H-M   'P 32'
_symmetry_Int_Tables_number      145
_space_group_name_Hall           'P 32'
loop_
_symmetry_equiv_pos_site_id
_symmetry_equiv_pos_as_xyz
1 x,y,z
2 -y,x-y,2/3+z
3 -x+y,-x,1/3+z
_cell_length_a                   14.476(2)
_cell_length_b                   14.476(2)
_cell_length_c                   5.7194(9)
_cell_angle_alpha                90
_cell_angle_beta                 90
_cell_angle_gamma                120
_cell_volume                     1037.95
_exptl_crystal_colour            colorless
_exptl_crystal_description       prism
_cell_formula_units_Z            3
loop_
_atom_site_label
_atom_site_type_symbol
_atom_site_fract_x
_atom_site_fract_y
_atom_site_fract_z
F1 F 1.26583(8) 0.71918(9) 0.45946(19)
O1 O 1.13768(10) 0.71767(10) 0.10795(18)
O2 O 1.06929(13) 0.36561(11) 0.5590(3)
O3 O 1.04052(15) 0.37038(13) 0.9294(3)
C1 C 1.05795(14) 0.82901(13) 0.5779(3)
H1 H 1.1131 0.8419 0.6857
C2 C 0.98678(16) 0.86426(15) 0.6259(3)
H2 H 0.9944 0.9029 0.7657
C3 C 0.90454(15) 0.84375(16) 0.4717(3)
H3 H 0.8548 0.8663 0.5083
C4 C 0.89531(15) 0.79038(15) 0.2647(3)
H4 H 0.8394 0.7769 0.1587
C5 C 0.96659(14) 0.75658(13) 0.2109(3)
H5 H 0.9606 0.7214 0.0667
C6 C 1.04777(12) 0.77406(12) 0.3686(3)
C7 C 1.11880(12) 0.73122(12) 0.3095(3)
C8 C 1.16045(13) 0.69150(13) 0.5087(3)
H6 H 1.1564 0.7233 0.6609
C9 C 1.09401(13) 0.56916(13) 0.5192(3)
H7 H 1.1094 0.5401 0.3750
C10 C 1.13149(14) 0.53213(13) 0.7296(3)
H8 H 1.2094 0.5608 0.7187
H9 H 1.1170 0.5600 0.8747
C11 C 0.97566(12) 0.53214(13) 0.5222(3)
C12 C 0.93038(13) 0.55989(13) 0.7050(3)
H10 H 0.9718 0.5947 0.8393
C13 C 0.82501(15) 0.53699(15) 0.6920(3)
H11 H 0.7953 0.5572 0.8163
C14 C 0.76317(15) 0.48457(15) 0.4976(3)
H12 H 0.6919 0.4707 0.4868
C15 C 0.80612(15) 0.45254(14) 0.3194(3)
H13 H 0.7633 0.4143 0.1891
C16 C 0.91225(14) 0.47652(14) 0.3318(3)
H14 H 0.9414 0.4547 0.2092
N1 N 1.07539(12) 0.41305(12) 0.7395(3)
loop_
_geom_bond_atom_site_label_1
_geom_bond_atom_site_label_2
_geom_bond_site_symmetry_1
_geom_bond_site_symmetry_2
F1 C8 1_555 1_555
O1 C7 1_555 1_555
O2 N1 1_555 1_555
O3 N1 1_555 1_555
C1 H1 1_555 1_555
C2 C1 1_555 1_555
H2 C2 1_555 1_555
C3 C2 1_555 1_555
H3 C3 1_555 1_555
C4 C3 1_555 1_555
H4 C4 1_555 1_555
C5 C4 1_555 1_555
H5 C5 1_555 1_555
C6 C1 1_555 1_555
C7 C6 1_555 1_555
C8 C7 1_555 1_555
H6 C8 1_555 1_555
C9 C8 1_555 1_555
H7 C9 1_555 1_555
C10 C9 1_555 1_555
H8 C10 1_555 1_555
H9 C10 1_555 1_555
C11 C9 1_555 1_555
C12 C11 1_555 1_555
H10 C12 1_555 1_555
C13 C12 1_555 1_555
H11 C13 1_555 1_555
C14 C13 1_555 1_555
H12 C14 1_555 1_555
C15 C14 1_555 1_555
H13 C15 1_555 1_555
C16 C11 1_555 1_555
H14 C16 1_555 1_555
N1 C10 1_555 1_555
C5 C6 1_555 1_555
C15 C16 1_555 1_555

#END
