
#######################################################################
#
#                 Cambridge Crystallographic Data Centre
#                                CCDC 
#
#######################################################################
#
# If this CIF has been generated from an entry in the Cambridge 
# Structural Database, then it will include bibliographic, chemical, 
# crystal, experimental, refinement or atomic coordinate data resulting 
# from the CCDC's data processing and validation procedures.
#
#######################################################################

data_GEYNED
_chemical_formula_moiety         'C10 H8 S8 1+,C10 H8 S8,F6 P1 1-,C4 H8 O1'
_chemical_name_systematic        
"bis(4,5-Methylenedithio-4',5'-propylenedithiotetrathiafulvalene) hexafluorophosphate tetrahydrofuran solvate"
_symmetry_cell_setting           triclinic
_symmetry_space_group_name_H-M   'P -1'
_symmetry_Int_Tables_number      2
_space_group_name_Hall           '-P 1'
loop_
_symmetry_equiv_pos_site_id
_symmetry_equiv_pos_as_xyz
1 x,y,z
2 -x,-y,-z
_cell_length_a                   9.215(3)
_cell_length_b                   12.528(4)
_cell_length_c                   17.110(7)
_cell_angle_alpha                105.03(3)
_cell_angle_beta                 91.14(3)
_cell_angle_gamma                103.56(2)
_cell_volume                     1847.66
_cell_formula_units_Z            2
loop_
_atom_site_label
_atom_site_type_symbol
_atom_site_fract_x
_atom_site_fract_y
_atom_site_fract_z
S1 S 0.27131(15) 0.18572(9) -0.45789(7)
S2 S 0.28570(15) 0.42204(9) -0.46336(7)
S3 S 0.0347(2) 0.08711(10) -0.61686(7)
S4 S 0.04257(15) 0.32535(9) -0.62138(7)
S5 S 0.51174(14) 0.25566(10) -0.32115(7)
S6 S 0.52874(14) 0.52733(10) -0.32678(7)
S7 S -0.1973(2) -0.00589(10) -0.76585(8)
S8 S -0.19499(15) 0.23112(10) -0.76800(7)
C1 C 0.2091(5) 0.2752(3) -0.5085(3)
C2 C 0.1071(5) 0.2352(4) -0.5726(3)
C3 C 0.4017(5) 0.2961(4) -0.3878(3)
C4 C 0.4087(5) 0.4037(4) -0.3906(3)
C5 C -0.0718(5) 0.1060(4) -0.6951(3)
C6 C -0.0703(5) 0.2135(4) -0.6960(2)
C7 C 0.4557(5) 0.3186(4) -0.2212(3)
C8 C 0.4642(5) 0.5247(4) -0.2269(3)
C9 C 0.5236(5) 0.4460(4) -0.1863(2)
C10 C -0.2156(6) 0.0855(4) -0.8308(3)
H1 H 0.4828 0.2770 -0.1820
H2 H 0.3427 0.3059 -0.2252
H3 H 0.3510 0.4990 -0.2329
H4 H 0.4937 0.6051 -0.1901
H5 H 0.6357 0.4598 -0.1926
H6 H 0.5100 0.4679 -0.1268
H7 H -0.3167 0.0564 -0.8628
H8 H -0.1362 0.0836 -0.8707
S9 S -0.17418(14) 0.37128(9) -0.43257(7)
S10 S -0.18454(14) 0.13759(9) -0.42930(7)
S11 S -0.41807(15) 0.27410(9) -0.59017(7)
S12 S -0.41357(14) 0.03984(9) -0.58984(7)
S13 S 0.05276(15) 0.47876(10) -0.29030(8)
S14 S 0.04177(14) 0.20513(10) -0.28773(7)
S15 S -0.6344(2) 0.18169(10) -0.74474(8)
S16 S -0.6192(2) -0.05535(10) -0.74689(8)
C11 C -0.2447(5) 0.2272(3) -0.4777(2)
C12 C -0.3468(5) 0.1849(3) -0.5451(3)
C13 C -0.0612(5) 0.3545(4) -0.3561(3)
C14 C -0.0658(5) 0.2463(4) -0.3549(2)
C15 C -0.5289(5) 0.1637(4) -0.6656(2)
C16 C -0.5259(5) 0.0564(4) -0.6658(2)
C17 C -0.0115(6) 0.4714(4) -0.1909(3)
C18 C -0.0200(6) 0.2656(4) -0.1896(3)
C19 C 0.0471(6) 0.3922(4) -0.1514(3)
C20 C -0.7079(7) 0.0308(4) -0.7902(3)
H9 H -0.1245 0.4446 -0.1971
H10 H 0.0169 0.5509 -0.1529
H11 H 0.0026 0.2219 -0.1508
H12 H -0.1327 0.2537 -0.1961
H13 H 0.0305 0.4117 -0.0918
H14 H 0.1599 0.4075 -0.1556
H15 H -0.6976 0.0127 -0.8503
H16 H -0.8202 0.0100 -0.7828
C21 C 0.1485(8) 0.2682(5) 0.1176(4)
C22 C 0.1803(8) 0.2930(6) 0.0389(4)
C23 C 0.1672(8) 0.1781(6) -0.0203(4)
C24 C 0.2001(8) 0.1067(5) 0.0338(4)
O1 O 0.1516(5) 0.1530(3) 0.1110(2)
H17 H 0.0470 0.2818 0.1331
H18 H 0.2258 0.3230 0.1626
H19 H 0.2852 0.3443 0.0425
H20 H 0.1076 0.3335 0.0220
H21 H 0.2424 0.1843 -0.0631
H22 H 0.0646 0.1471 -0.0496
H23 H 0.3127 0.1114 0.0385
H24 H 0.1474 0.0240 0.0102
P1 P -0.3330(2) 0.2609(2) -0.00712(9)
F1 F -0.3824(8) 0.2144(6) 0.0643(3)
F2 F -0.4353(8) 0.3398(6) 0.0122(5)
F3 F -0.1993(7) 0.3477(5) 0.0411(4)
F4 F -0.2907(6) 0.3050(6) -0.0828(3)
F5 F -0.2330(7) 0.1802(5) -0.0349(5)
F6 F -0.4681(6) 0.1703(6) -0.0592(3)
loop_
_geom_bond_atom_site_label_1
_geom_bond_atom_site_label_2
_geom_bond_site_symmetry_1
_geom_bond_site_symmetry_2
S1 C1 1_555 1_555
S2 C1 1_555 1_555
S3 C2 1_555 1_555
S4 C2 1_555 1_555
S5 C3 1_555 1_555
S6 C4 1_555 1_555
S7 C5 1_555 1_555
S8 C6 1_555 1_555
C1 C2 1_555 1_555
C3 S1 1_555 1_555
C4 S2 1_555 1_555
C5 S3 1_555 1_555
C6 S4 1_555 1_555
C7 S5 1_555 1_555
C8 S6 1_555 1_555
C9 C7 1_555 1_555
C10 S7 1_555 1_555
H1 C7 1_555 1_555
H2 C7 1_555 1_555
H3 C8 1_555 1_555
H4 C8 1_555 1_555
H5 C9 1_555 1_555
H6 C9 1_555 1_555
H7 C10 1_555 1_555
H8 C10 1_555 1_555
S9 C11 1_555 1_555
S10 C11 1_555 1_555
S11 C12 1_555 1_555
S12 C12 1_555 1_555
S13 C13 1_555 1_555
S14 C14 1_555 1_555
S15 C15 1_555 1_555
S16 C16 1_555 1_555
C11 C12 1_555 1_555
C13 S9 1_555 1_555
C14 S10 1_555 1_555
C15 S11 1_555 1_555
C16 S12 1_555 1_555
C17 S13 1_555 1_555
C18 S14 1_555 1_555
C19 C17 1_555 1_555
C20 S15 1_555 1_555
H9 C17 1_555 1_555
H10 C17 1_555 1_555
H11 C18 1_555 1_555
H12 C18 1_555 1_555
H13 C19 1_555 1_555
H14 C19 1_555 1_555
H15 C20 1_555 1_555
H16 C20 1_555 1_555
C21 C22 1_555 1_555
C22 C23 1_555 1_555
C23 C24 1_555 1_555
C24 O1 1_555 1_555
O1 C21 1_555 1_555
H17 C21 1_555 1_555
H18 C21 1_555 1_555
H19 C22 1_555 1_555
H20 C22 1_555 1_555
H21 C23 1_555 1_555
H22 C23 1_555 1_555
H23 C24 1_555 1_555
H24 C24 1_555 1_555
P1 F1 1_555 1_555
F2 P1 1_555 1_555
F3 P1 1_555 1_555
F4 P1 1_555 1_555
F5 P1 1_555 1_555
F6 P1 1_555 1_555
S8 C10 1_555 1_555
C3 C4 1_555 1_555
C5 C6 1_555 1_555
C8 C9 1_555 1_555
S16 C20 1_555 1_555
C13 C14 1_555 1_555
C15 C16 1_555 1_555
C18 C19 1_555 1_555

#END
