
#######################################################################
#
#                 Cambridge Crystallographic Data Centre
#                                CCDC 
#
#######################################################################
#
# If this CIF has been generated from an entry in the Cambridge 
# Structural Database, then it will include bibliographic, chemical, 
# crystal, experimental, refinement or atomic coordinate data resulting 
# from the CCDC's data processing and validation procedures.
#
#######################################################################

data_GEYZAL
_chemical_formula_moiety         'C28 H18 O2,C5 H9 Cl1 O3'
_chemical_name_systematic        
"(S)-(-)-10,10'-Dihydroxy-9,9'-biphenanthryl (S)-(-)-methyl 4-chloro-3-hydroxybutyrate"
_symmetry_cell_setting           monoclinic
_symmetry_space_group_name_H-M   'P 21'
_symmetry_Int_Tables_number      4
_space_group_name_Hall           'P 2yb'
loop_
_symmetry_equiv_pos_site_id
_symmetry_equiv_pos_as_xyz
1 x,y,z
2 -x,1/2+y,-z
_cell_length_a                   8.894(2)
_cell_length_b                   15.639(4)
_cell_length_c                   9.713(2)
_cell_angle_alpha                90
_cell_angle_beta                 93.62(2)
_cell_angle_gamma                90
_cell_volume                     1348.32
_cell_formula_units_Z            2
loop_
_atom_site_label
_atom_site_type_symbol
_atom_site_fract_x
_atom_site_fract_y
_atom_site_fract_z
C1 C 0.7752(5) 0.1229 0.3975(4)
C2 C 0.8332(5) 0.1179(4) 0.2718(5)
C3 C 0.7456(5) 0.0849(4) 0.1527(4)
C4 C 0.8102(5) 0.0781(4) 0.0242(5)
C5 C 0.7289(6) 0.0447(5) -0.0869(5)
C6 C 0.5809(7) 0.0191(5) -0.0740(5)
C7 C 0.5148(6) 0.0257(4) 0.0490(5)
C8 C 0.5957(5) 0.0581(4) 0.1669(5)
C9 C 0.5312(5) 0.0657(4) 0.2995(5)
C10 C 0.3812(6) 0.0429(4) 0.3196(6)
C11 C 0.3240(6) 0.0492(5) 0.4470(6)
C12 C 0.4138(6) 0.0786(5) 0.5599(5)
C13 C 0.5610(5) 0.1012(4) 0.5437(5)
C14 C 0.6220(5) 0.0963(4) 0.4144(4)
C15 C 0.8644(5) 0.1579(4) 0.5196(4)
C16 C 0.8525(5) 0.2416(4) 0.5503(5)
C17 C 0.9294(5) 0.2788(4) 0.6721(4)
C18 C 0.9108(6) 0.3668(4) 0.7014(5)
C19 C 0.9848(7) 0.4026(4) 0.8153(6)
C20 C 1.0747(7) 0.3518(5) 0.9019(6)
C21 C 1.0935(7) 0.2666(5) 0.8749(5)
C22 C 1.0208(5) 0.2264(4) 0.7592(5)
C23 C 1.0346(5) 0.1361(4) 0.7298(4)
C24 C 1.1191(6) 0.0800(5) 0.8161(5)
C25 C 1.1230(6) -0.0054(5) 0.7896(5)
C26 C 1.0437(6) -0.0397(4) 0.6754(6)
C27 C 0.9605(6) 0.0144(4) 0.5874(5)
C28 C 0.9545(5) 0.1023(4) 0.6112(4)
O1 O 0.9755(3) 0.1432(4) 0.2464(3)
O2 O 0.7660(4) 0.2978(3) 0.4736(3)
H1 H 0.917 0.097 0.018
H2 H 0.764 0.052 -0.177
H3 H 0.528 0.002 -0.154
H4 H 0.407 0.017 0.055
H5 H 0.316 0.031 0.241
H6 H 0.218 0.044 0.452
H7 H 0.374 0.086 0.652
H8 H 0.615 0.125 0.627
H9 H 0.848 0.404 0.634
H10 H 0.964 0.469 0.846
H11 H 1.142 0.382 0.980
H12 H 1.164 0.241 0.939
H13 H 1.181 0.110 0.897
H14 H 1.180 -0.039 0.847
H15 H 1.026 -0.095 0.660
H16 H 0.948 -0.006 0.514
H17 H 1.027 0.163 0.339
H18 H 0.739 0.267 0.400
C29 C 0.3733(6) 0.3584(5) 0.4408(6)
C30 C 0.3243(5) 0.2758(5) 0.3766(5)
C31 C 0.3233(6) 0.2789(5) 0.2205(6)
C32 C 0.4743(6) 0.2829(5) 0.1633(5)
C33 C 0.5937(8) 0.2818(6) -0.0470(6)
O3 O 0.1735(4) 0.2550(4) 0.4088(4)
O4 O 0.5927(4) 0.2899(4) 0.2258(3)
O5 O 0.4601(4) 0.2769(4) 0.0262(4)
Cl1 Cl 0.3565(2) 0.3523(3) 0.6232(2)
H19 H 0.485 0.375 0.427
H20 H 0.326 0.413 0.405
H21 H 0.394 0.240 0.409
H22 H 0.276 0.225 0.195
H23 H 0.252 0.323 0.187
H24 H 0.676 0.310 0.011
H25 H 0.579 0.327 -0.123
H26 H 0.620 0.230 -0.081
H27 H 0.139 0.270 0.495
loop_
_geom_bond_atom_site_label_1
_geom_bond_atom_site_label_2
_geom_bond_site_symmetry_1
_geom_bond_site_symmetry_2
C1 C2 1_555 1_555
C2 C3 1_555 1_555
C3 C4 1_555 1_555
C4 C5 1_555 1_555
C5 C6 1_555 1_555
C6 C7 1_555 1_555
C7 C8 1_555 1_555
C8 C3 1_555 1_555
C9 C8 1_555 1_555
C10 C9 1_555 1_555
C11 C10 1_555 1_555
C12 C11 1_555 1_555
C13 C12 1_555 1_555
C14 C1 1_555 1_555
C15 C1 1_555 1_555
C16 C15 1_555 1_555
C17 C16 1_555 1_555
C18 C17 1_555 1_555
C19 C18 1_555 1_555
C20 C19 1_555 1_555
C21 C20 1_555 1_555
C22 C17 1_555 1_555
C23 C22 1_555 1_555
C24 C23 1_555 1_555
C25 C24 1_555 1_555
C26 C25 1_555 1_555
C27 C26 1_555 1_555
C28 C15 1_555 1_555
O1 C2 1_555 1_555
O2 C16 1_555 1_555
H1 C4 1_555 1_555
H2 C5 1_555 1_555
H3 C6 1_555 1_555
H4 C7 1_555 1_555
H5 C10 1_555 1_555
H6 C11 1_555 1_555
H7 C12 1_555 1_555
H8 C13 1_555 1_555
H9 C18 1_555 1_555
H10 C19 1_555 1_555
H11 C20 1_555 1_555
H12 C21 1_555 1_555
H13 C24 1_555 1_555
H14 C25 1_555 1_555
H15 C26 1_555 1_555
H16 C27 1_555 1_555
H17 O1 1_555 1_555
H18 O2 1_555 1_555
C29 C30 1_555 1_555
C30 C31 1_555 1_555
C31 C32 1_555 1_555
C32 O4 1_555 1_555
C33 O5 1_555 1_555
O3 C30 1_555 1_555
O5 C32 1_555 1_555
Cl1 C29 1_555 1_555
H19 C29 1_555 1_555
H20 C29 1_555 1_555
H21 C30 1_555 1_555
H22 C31 1_555 1_555
H23 C31 1_555 1_555
H24 C33 1_555 1_555
H25 C33 1_555 1_555
H26 C33 1_555 1_555
H27 O3 1_555 1_555
C9 C14 1_555 1_555
C13 C14 1_555 1_555
C21 C22 1_555 1_555
C23 C28 1_555 1_555
C27 C28 1_555 1_555

#END
