
#######################################################################
#
#                 Cambridge Crystallographic Data Centre
#                                CCDC 
#
#######################################################################
#
# If this CIF has been generated from an entry in the Cambridge 
# Structural Database, then it will include bibliographic, chemical, 
# crystal, experimental, refinement or atomic coordinate data resulting 
# from the CCDC's data processing and validation procedures.
#
#######################################################################

data_GEZGAV
_chemical_formula_moiety         'C25 H16 O2'
_chemical_name_systematic        
1,1'-(4,7-Dihydro-1H-tricyclopenta[def,jkl,pqr]triphenylene-2,9-diyl)diethanone
_symmetry_cell_setting           monoclinic
_symmetry_space_group_name_H-M   'P 21/a'
_symmetry_Int_Tables_number      14
_space_group_name_Hall           '-P 2yab'
loop_
_symmetry_equiv_pos_site_id
_symmetry_equiv_pos_as_xyz
1 x,y,z
2 1/2-x,1/2+y,-z
3 -x,-y,-z
4 1/2+x,1/2-y,z
_cell_length_a                   7.783(2)
_cell_length_b                   17.801(4)
_cell_length_c                   12.097(3)
_cell_angle_alpha                90
_cell_angle_beta                 105.63(3)
_cell_angle_gamma                90
_cell_volume                     1614.01
_cell_formula_units_Z            4
loop_
_atom_site_label
_atom_site_type_symbol
_atom_site_fract_x
_atom_site_fract_y
_atom_site_fract_z
O1 O 0.6583(2) 0.28079(10) 0.24506(15)
O2 O 0.7002(3) -0.00705(10) 0.65113(15)
C1 C 0.5590(3) 0.22349(13) 0.51076(18)
C2 C 0.6191(3) 0.34857(14) 0.44172(19)
C3 C 0.5928(3) 0.26891(13) 0.42409(18)
C4 C 0.5313(3) 0.26180(14) 0.60550(19)
C5 C 0.5906(3) 0.13981(14) 0.54623(17)
C6 C 0.7106(3) 0.43452(15) 0.7348(2)
C7 C 0.6169(3) 0.24289(16) 0.81327(19)
C8 C 0.7596(3) 0.12921(17) 0.88270(19)
C9 C 0.8595(3) 0.40637(17) 0.9364(2)
C10 C 0.6150(3) 0.36941(16) 0.7332(2)
C11 C 0.6217(3) 0.23880(13) 0.31535(19)
C12 C 0.7533(3) 0.02061(15) 0.74885(19)
C13 C 0.7020(3) 0.09702(15) 0.7697(2)
C14 C 0.5573(3) 0.33763(14) 0.62119(19)
C15 C 0.6093(3) 0.14166(15) 0.67654(18)
C16 C 0.6120(3) 0.38293(14) 0.54392(19)
C17 C 0.8285(3) 0.45505(18) 0.8392(2)
C18 C 0.8152(4) 0.26183(19) 0.9970(2)
C19 C 0.6939(4) 0.45574(17) 0.6081(2)
C20 C 0.5603(3) 0.21319(15) 0.70347(19)
C21 C 0.7736(3) 0.33759(17) 0.9316(2)
C22 C 0.7265(3) 0.20335(17) 0.90458(19)
C23 C 0.6006(4) 0.15683(15) 0.2897(2)
C24 C 0.6434(3) 0.32227(17) 0.8281(2)
C25 C 0.8692(5) -0.0279(2) 0.8419(2)
H1 H 0.707(3) 0.1175(11) 0.5318(16)
H2 H 0.833(3) 0.0947(12) 0.941(2)
H3 H 0.770(3) 0.2577(12) 1.0663(19)
H4 H 0.951(4) 0.2510(14) 1.022(2)
H5 H 0.663(3) 0.3754(12) 0.3751(18)
H6 H 0.603(3) 0.4988(13) 0.5866(19)
H7 H 0.496(3) 0.1067(12) 0.5039(19)
H8 H 0.813(4) 0.4724(16) 0.590(3)
H9 H 0.709(4) 0.1316(16) 0.341(3)
H10 H 0.621(3) 0.1470(15) 0.213(2)
H11 H 0.803(4) -0.0308(17) 0.892(3)
H12 H 0.486(3) 0.1374(12) 0.305(2)
H13 H 0.964(3) 0.4171(14) 1.010(2)
H14 H 0.901(4) -0.0777(16) 0.813(3)
H15 H 0.908(4) 0.4990(14) 0.844(2)
H16 H 0.979(4) 0.0003(16) 0.869(2)
loop_
_geom_bond_atom_site_label_1
_geom_bond_atom_site_label_2
_geom_bond_site_symmetry_1
_geom_bond_site_symmetry_2
O1 C11 1_555 1_555
O2 C12 1_555 1_555
C1 C3 1_555 1_555
C2 C3 1_555 1_555
C3 C11 1_555 1_555
C4 C1 1_555 1_555
C5 C1 1_555 1_555
C6 C10 1_555 1_555
C7 C20 1_555 1_555
C8 C13 1_555 1_555
C9 C17 1_555 1_555
C10 C14 1_555 1_555
C11 C23 1_555 1_555
C12 C13 1_555 1_555
C13 C15 1_555 1_555
C14 C4 1_555 1_555
C15 C5 1_555 1_555
C16 C2 1_555 1_555
C17 C6 1_555 1_555
C18 C21 1_555 1_555
C19 C6 1_555 1_555
C20 C4 1_555 1_555
C21 C9 1_555 1_555
C22 C7 1_555 1_555
C23 H9 1_555 1_555
C24 C7 1_555 1_555
C25 C12 1_555 1_555
H1 C5 1_555 1_555
H2 C8 1_555 1_555
H3 C18 1_555 1_555
H4 C18 1_555 1_555
H5 C2 1_555 1_555
H6 C19 1_555 1_555
H7 C5 1_555 1_555
H8 C19 1_555 1_555
H10 C23 1_555 1_555
H11 C25 1_555 1_555
H12 C23 1_555 1_555
H13 C9 1_555 1_555
H14 C25 1_555 1_555
H15 C17 1_555 1_555
H16 C25 1_555 1_555
C8 C22 1_555 1_555
C10 C24 1_555 1_555
C14 C16 1_555 1_555
C15 C20 1_555 1_555
C16 C19 1_555 1_555
C18 C22 1_555 1_555
C21 C24 1_555 1_555

#END
