
#######################################################################
#
#                 Cambridge Crystallographic Data Centre
#                                CCDC 
#
#######################################################################
#
# If this CIF has been generated from an entry in the Cambridge 
# Structural Database, then it will include bibliographic, chemical, 
# crystal, experimental, refinement or atomic coordinate data resulting 
# from the CCDC's data processing and validation procedures.
#
#######################################################################

data_GEZHEB
_chemical_formula_moiety         'C17 H18 N3 O4 P1'
_chemical_name_systematic        
(diphenoxyphosphoryl)[3-isopropyl-1,2,3-oxadiazol-3-ium-5-yl]azanide
_symmetry_cell_setting           triclinic
_symmetry_space_group_name_H-M   'P -1'
_symmetry_Int_Tables_number      2
_space_group_name_Hall           '-P 1'
loop_
_symmetry_equiv_pos_site_id
_symmetry_equiv_pos_as_xyz
1 x,y,z
2 -x,-y,-z
_cell_length_a                   9.2500(4)
_cell_length_b                   9.5239(4)
_cell_length_c                   11.6299(5)
_cell_angle_alpha                111.0730(10)
_cell_angle_beta                 98.7420(10)
_cell_angle_gamma                108.5550(10)
_cell_volume                     864.259
_exptl_crystal_colour            colorless
_exptl_crystal_description       block
_cell_formula_units_Z            2
loop_
_atom_site_label
_atom_site_type_symbol
_atom_site_fract_x
_atom_site_fract_y
_atom_site_fract_z
P1 P 0.31483(3) 0.76992(3) 0.65405(2)
O1 O 0.40890(8) 0.95512(8) 0.67648(7)
O2 O 0.44208(8) 0.69793(8) 0.61352(7)
O3 O 0.18420(8) 0.73070(8) 0.93920(6)
O4 O 0.16398(8) 0.67855(9) 0.54777(7)
N1 N 0.30929(9) 0.78334(10) 0.79559(7)
N2 N -0.03945(9) 0.53328(9) 0.82295(7)
N3 N 0.04229(10) 0.62898(10) 0.94427(8)
C1 C 0.60772(10) 0.77227(11) 0.67199(9)
C2 C 0.18235(10) 0.69338(11) 0.81230(8)
C3 C 0.35326(11) 1.07635(11) 0.73281(9)
C4 C -0.20189(11) 0.40698(11) 0.79516(9)
H1 H -0.219625 0.412825 0.879172
C5 C -0.32623(11) 0.44828(12) 0.72815(10)
H2 H -0.309604 0.562177 0.780268
H3 H -0.433574 0.373875 0.718287
H4 H -0.315486 0.435358 0.642793
C6 C 0.84460(12) 0.94176(12) 0.85206(10)
H5 H 0.895109 1.014408 0.941176
C7 C 0.69811(11) 0.72976(12) 0.59078(9)
H6 H 0.647490 0.657434 0.501615
C8 C 0.93724(12) 0.90136(13) 0.77246(10)
H7 H 1.050322 0.946491 0.807113
C9 C 0.03406(10) 0.56206(11) 0.73707(8)
H8 H -0.005935 0.505612 0.645467
C10 C 0.67822(11) 0.87688(11) 0.80264(9)
H9 H 0.614908 0.903751 0.857184
C11 C -0.20847(12) 0.23701(12) 0.71683(10)
H10 H -0.192888 0.228607 0.633504
H11 H -0.312862 0.153215 0.702226
H12 H -0.123885 0.219694 0.764311
C12 C 0.25423(12) 1.10881(12) 0.65302(10)
H13 H 0.219931 1.045887 0.561925
C13 C 0.86383(12) 0.79464(13) 0.64191(10)
H14 H 0.926832 0.765984 0.587579
C14 C 0.20593(13) 1.23546(13) 0.70893(11)
H15 H 0.138386 1.259549 0.655661
C15 C 0.35600(14) 1.29204(13) 0.92051(11)
H16 H 0.390231 1.354706 1.011639
C16 C 0.40589(12) 1.16631(12) 0.86609(10)
H17 H 0.474388 1.142772 0.919073
C17 C 0.25617(15) 1.32637(14) 0.84203(12)
H18 H 0.222506 1.412148 0.879776
loop_
_geom_bond_atom_site_label_1
_geom_bond_atom_site_label_2
_geom_bond_site_symmetry_1
_geom_bond_site_symmetry_2
P1 O1 1_555 1_555
O1 C3 1_555 1_555
O2 P1 1_555 1_555
O3 N3 1_555 1_555
O4 P1 1_555 1_555
N1 P1 1_555 1_555
N2 N3 1_555 1_555
C1 O2 1_555 1_555
C2 O3 1_555 1_555
C3 C12 1_555 1_555
C4 N2 1_555 1_555
H1 C4 1_555 1_555
C5 C4 1_555 1_555
H2 C5 1_555 1_555
H3 C5 1_555 1_555
H4 C5 1_555 1_555
C6 H5 1_555 1_555
C7 C1 1_555 1_555
H6 C7 1_555 1_555
C8 C6 1_555 1_555
H7 C8 1_555 1_555
C9 N2 1_555 1_555
H8 C9 1_555 1_555
C10 C1 1_555 1_555
H9 C10 1_555 1_555
C11 C4 1_555 1_555
H10 C11 1_555 1_555
H11 C11 1_555 1_555
H12 C11 1_555 1_555
C12 H13 1_555 1_555
C13 C7 1_555 1_555
H14 C13 1_555 1_555
C14 C12 1_555 1_555
H15 C14 1_555 1_555
C15 H16 1_555 1_555
C16 C3 1_555 1_555
H17 C16 1_555 1_555
C17 C14 1_555 1_555
H18 C17 1_555 1_555
N1 C2 1_555 1_555
C2 C9 1_555 1_555
C6 C10 1_555 1_555
C8 C13 1_555 1_555
C15 C16 1_555 1_555
C15 C17 1_555 1_555

#END
