
#######################################################################
#
#                 Cambridge Crystallographic Data Centre
#                                CCDC 
#
#######################################################################
#
# If this CIF has been generated from an entry in the Cambridge 
# Structural Database, then it will include bibliographic, chemical, 
# crystal, experimental, refinement or atomic coordinate data resulting 
# from the CCDC's data processing and validation procedures.
#
#######################################################################

data_GEZLAB
_chemical_formula_moiety         'C36 H28'
_chemical_name_systematic        
2-(triphenylethenyl)-4,5,9,10-tetrahydropyrene
_symmetry_cell_setting           monoclinic
_symmetry_space_group_name_H-M   'P 21/c'
_symmetry_Int_Tables_number      14
_space_group_name_Hall           '-P 2ybc'
loop_
_symmetry_equiv_pos_site_id
_symmetry_equiv_pos_as_xyz
1 x,y,z
2 -x,1/2+y,1/2-z
3 -x,-y,-z
4 x,1/2-y,1/2+z
_cell_length_a                   8.5141(17)
_cell_length_b                   17.426(4)
_cell_length_c                   17.000(3)
_cell_angle_alpha                90
_cell_angle_beta                 97.44(3)
_cell_angle_gamma                90
_cell_volume                     2501
_exptl_crystal_colour            white
_exptl_crystal_description       Block
_cell_formula_units_Z            4
loop_
_atom_site_label
_atom_site_type_symbol
_atom_site_fract_x
_atom_site_fract_y
_atom_site_fract_z
C1 C -0.0673(2) 0.43983(12) 0.83056(12)
C2 C 0.0715(2) 0.43015(12) 0.87930(12)
C3 C 0.1144(2) 0.35792(11) 0.92375(12)
C4 C 0.2680(2) 0.32776(11) 0.92672(12)
H1 H 0.3431 0.3545 0.9025
C5 C 0.3104(2) 0.25896(12) 0.96500(12)
C6 C 0.4711(3) 0.22317(14) 0.96416(15)
H2 H 0.5489 0.2635 0.9618
H3 H 0.4697 0.1919 0.9169
C7 C 0.5203(3) 0.17358(15) 1.03690(18)
H4 H 0.6143 0.1447 1.0290
H5 H 0.5469 0.2065 1.0827
C8 C 0.3933(3) 0.11922(14) 1.05312(16)
C9 C 0.2380(3) 0.14462(13) 1.04078(12)
C10 C 0.1986(2) 0.21951(12) 1.00300(12)
C11 C 0.4275(3) 0.04700(14) 1.08545(17)
H6 H 0.5316 0.0296 1.0928
C12 C 0.3109(4) 0.00186(15) 1.10629(17)
H7 H 0.3358 -0.0461 1.1285
C13 C 0.1545(4) 0.02607(17) 1.0951(2)
H8 H 0.0751 -0.0054 1.1097
C14 C 0.1170(3) 0.09799(15) 1.06172(18)
C15 C -0.0557(3) 0.12481(17) 1.0411(2)
H9 H -0.0947 0.1100 0.9871
H10 H -0.1213 0.1000 1.0763
C16 C -0.0676(3) 0.20880(15) 1.04920(19)
H11 H -0.0464 0.2225 1.1049
H12 H -0.1747 0.2249 1.0298
C17 C 0.0471(3) 0.25076(12) 1.00387(13)
C18 C 0.0075(2) 0.31917(12) 0.96455(12)
H13 H -0.0932 0.3396 0.9655
C19 C -0.1794(2) 0.37614(11) 0.80507(12)
C20 C -0.1267(3) 0.30497(12) 0.78130(13)
H14 H -0.0185 0.2960 0.7836
C21 C -0.2320(3) 0.24785(13) 0.75453(14)
H15 H -0.1945 0.2006 0.7395
C22 C -0.3935(3) 0.26047(13) 0.74990(14)
H16 H -0.4645 0.2217 0.7322
C23 C -0.4483(3) 0.33050(13) 0.77160(14)
H17 H -0.5568 0.3392 0.7678
C24 C -0.3433(2) 0.38845(12) 0.79919(12)
H18 H -0.3818 0.4356 0.8138
C25 C 0.2511(3) 0.52210(12) 0.96185(14)
H19 H 0.2039 0.5077 1.0059
C26 C 0.3739(3) 0.57457(13) 0.97050(15)
H20 H 0.4068 0.5962 1.0199
C27 C 0.4481(3) 0.59507(12) 0.90565(15)
H21 H 0.5315 0.6300 0.9115
C28 C 0.3975(3) 0.56341(13) 0.83256(15)
H22 H 0.4477 0.5765 0.7890
C29 C 0.2720(3) 0.51204(12) 0.82364(14)
H23 H 0.2375 0.4917 0.7738
C30 C 0.1973(2) 0.49064(11) 0.88826(13)
C31 C -0.1142(2) 0.51605(11) 0.79529(13)
C32 C -0.1180(3) 0.58253(12) 0.84119(13)
H24 H -0.0865 0.5801 0.8956
C33 C -0.1677(3) 0.65155(12) 0.80692(14)
H25 H -0.1723 0.6948 0.8387
C34 C -0.2109(3) 0.65719(13) 0.72594(14)
H26 H -0.2412 0.7042 0.7029
C35 C -0.2084(3) 0.59218(13) 0.67960(14)
H27 H -0.2372 0.5954 0.6250
C36 C -0.1632(3) 0.52244(12) 0.71389(13)
H28 H -0.1656 0.4789 0.6822
loop_
_geom_bond_atom_site_label_1
_geom_bond_atom_site_label_2
_geom_bond_site_symmetry_1
_geom_bond_site_symmetry_2
C1 C2 1_555 1_555
C2 C3 1_555 1_555
C3 C4 1_555 1_555
C4 H1 1_555 1_555
C5 C4 1_555 1_555
C6 C5 1_555 1_555
H2 C6 1_555 1_555
H3 C6 1_555 1_555
C7 C6 1_555 1_555
H4 C7 1_555 1_555
H5 C7 1_555 1_555
C8 C7 1_555 1_555
C9 C8 1_555 1_555
C10 C5 1_555 1_555
C11 C8 1_555 1_555
H6 C11 1_555 1_555
C12 C11 1_555 1_555
H7 C12 1_555 1_555
C13 C12 1_555 1_555
H8 C13 1_555 1_555
C14 C9 1_555 1_555
C15 C14 1_555 1_555
H9 C15 1_555 1_555
H10 C15 1_555 1_555
C16 C15 1_555 1_555
H11 C16 1_555 1_555
H12 C16 1_555 1_555
C17 C10 1_555 1_555
C18 C3 1_555 1_555
H13 C18 1_555 1_555
C19 C1 1_555 1_555
C20 C19 1_555 1_555
H14 C20 1_555 1_555
C21 C20 1_555 1_555
H15 C21 1_555 1_555
C22 C21 1_555 1_555
H16 C22 1_555 1_555
C23 C22 1_555 1_555
H17 C23 1_555 1_555
C24 C19 1_555 1_555
H18 C24 1_555 1_555
C25 H19 1_555 1_555
C26 C25 1_555 1_555
H20 C26 1_555 1_555
C27 C26 1_555 1_555
H21 C27 1_555 1_555
C28 C27 1_555 1_555
H22 C28 1_555 1_555
C29 C28 1_555 1_555
H23 C29 1_555 1_555
C30 C2 1_555 1_555
C31 C1 1_555 1_555
C32 C31 1_555 1_555
H24 C32 1_555 1_555
C33 C32 1_555 1_555
H25 C33 1_555 1_555
C34 C33 1_555 1_555
H26 C34 1_555 1_555
C35 C34 1_555 1_555
H27 C35 1_555 1_555
C36 C31 1_555 1_555
H28 C36 1_555 1_555
C9 C10 1_555 1_555
C13 C14 1_555 1_555
C16 C17 1_555 1_555
C17 C18 1_555 1_555
C23 C24 1_555 1_555
C25 C30 1_555 1_555
C29 C30 1_555 1_555
C35 C36 1_555 1_555

#END
