
#######################################################################
#
#                 Cambridge Crystallographic Data Centre
#                                CCDC 
#
#######################################################################
#
# If this CIF has been generated from an entry in the Cambridge 
# Structural Database, then it will include bibliographic, chemical, 
# crystal, experimental, refinement or atomic coordinate data resulting 
# from the CCDC's data processing and validation procedures.
#
#######################################################################

data_GEZLEF
_chemical_formula_moiety         'C56 H44,0.5(C2 H6 O1),0.5(H2 O1)'
_chemical_name_systematic        
"2,2',2''-(2-phenylethene-1,1,2-triyl)tri-4,5,9,10-tetrahydropyrene ethanol solvate hemihydrate"
_symmetry_cell_setting           triclinic
_symmetry_space_group_name_H-M   'P -1'
_symmetry_Int_Tables_number      2
_space_group_name_Hall           '-P 1'
loop_
_symmetry_equiv_pos_site_id
_symmetry_equiv_pos_as_xyz
1 x,y,z
2 -x,-y,-z
_cell_length_a                   8.1823(16)
_cell_length_b                   12.694(3)
_cell_length_c                   19.994(4)
_cell_angle_alpha                90.14(3)
_cell_angle_beta                 93.52(3)
_cell_angle_gamma                101.80(3)
_cell_volume                     2028.74
_exptl_crystal_colour            yellow
_exptl_crystal_description       block
_cell_formula_units_Z            2
loop_
_atom_site_label
_atom_site_type_symbol
_atom_site_fract_x
_atom_site_fract_y
_atom_site_fract_z
C1 C 0.5504(4) 0.9046(3) 0.17597(16)
C2 C 0.5233(4) 0.8824(3) 0.24181(17)
C3 C 0.6412(4) 0.9405(3) 0.29534(16)
C4 C 0.8143(4) 0.9531(3) 0.29159(17)
H1 H 0.8542 0.9175 0.2574
C5 C 0.9285(4) 1.0163(3) 0.33653(16)
C6 C 0.8695(4) 1.0658(3) 0.39040(16)
C7 C 1.1153(4) 1.0341(3) 0.33003(18)
H2 H 1.1375 1.0251 0.2835
H3 H 1.1602 0.9808 0.3560
C8 C 1.2014(4) 1.1464(3) 0.35470(18)
H4 H 1.3216 1.1526 0.3553
H5 H 1.1714 1.1990 0.3237
C9 C 1.1542(4) 1.1711(3) 0.42372(17)
C10 C 0.9879(4) 1.1318(3) 0.43958(17)
C11 C 1.2637(5) 1.2324(3) 0.47201(19)
H6 H 1.3739 1.2592 0.4621
C12 C 1.2124(4) 1.2541(3) 0.53403(19)
H7 H 1.2876 1.2953 0.5654
C13 C 1.0500(5) 1.2147(3) 0.54949(18)
H8 H 1.0162 1.2286 0.5916
C14 C 0.9345(4) 1.1536(3) 0.50217(17)
C15 C 0.7557(4) 1.1075(3) 0.51639(17)
H9 H 0.7227 1.1489 0.5522
H10 H 0.7460 1.0339 0.5311
C16 C 0.6398(4) 1.1098(3) 0.45442(16)
H11 H 0.5265 1.0756 0.4638
H12 H 0.6403 1.1838 0.4423
C17 C 0.6961(4) 1.0516(3) 0.39688(16)
C18 C 0.5850(4) 0.9896(3) 0.35047(16)
H13 H 0.4707 0.9799 0.3557
C19 C 0.3773(4) 0.8021(3) 0.26474(16)
C20 C 0.3984(4) 0.7415(3) 0.32100(17)
H14 H 0.5035 0.7520 0.3435
C21 C 0.2684(4) 0.6656(3) 0.34517(17)
C22 C 0.1093(4) 0.6502(3) 0.31120(17)
C23 C 0.2881(5) 0.6013(3) 0.40817(18)
H15 H 0.4044 0.5962 0.4161
H16 H 0.2567 0.6383 0.4464
C24 C 0.1801(5) 0.4894(3) 0.4015(2)
H17 H 0.2234 0.4483 0.3683
H18 H 0.1844 0.4530 0.4440
C25 C 0.0007(5) 0.4938(3) 0.38102(18)
C26 C -0.0304(4) 0.5719(3) 0.33612(17)
C27 C -0.1340(5) 0.4177(3) 0.4033(2)
H19 H -0.1139 0.3642 0.4325
C28 C -0.2956(5) 0.4222(3) 0.3821(2)
H20 H -0.3845 0.3721 0.3973
C29 C -0.3259(5) 0.5005(3) 0.3385(2)
H21 H -0.4359 0.5030 0.3250
C30 C -0.1967(5) 0.5759(3) 0.31424(18)
C31 C -0.2239(4) 0.6646(3) 0.26807(18)
H22 H -0.2294 0.7278 0.2946
H23 H -0.3305 0.6423 0.2428
C32 C -0.0867(4) 0.6944(3) 0.21957(18)
H24 H -0.0968 0.6370 0.1865
H25 H -0.1002 0.7592 0.1962
C33 C 0.0838(4) 0.7126(3) 0.25509(16)
C34 C 0.2181(4) 0.7872(3) 0.23357(16)
H26 H 0.2006 0.8289 0.1967
C35 C 0.4662(4) 0.8374(3) 0.11799(16)
C36 C 0.4291(5) 0.7249(3) 0.11876(19)
H27 H 0.4550 0.6896 0.1574
C37 C 0.3550(6) 0.6658(3) 0.0632(2)
H28 H 0.3293 0.5911 0.0651
C38 C 0.3191(6) 0.7151(4) 0.0060(2)
H29 H 0.2712 0.6740 -0.0315
C39 C 0.3523(5) 0.8246(3) 0.00266(19)
H30 H 0.3255 0.8581 -0.0366
C40 C 0.4256(4) 0.8852(3) 0.05759(17)
H31 H 0.4491 0.9598 0.0548
C41 C 0.6822(4) 0.9994(3) 0.16054(15)
C42 C 0.8168(4) 0.9885(3) 0.12298(16)
H32 H 0.8128 0.9244 0.0996
C43 C 0.9566(4) 1.0715(3) 0.11994(16)
C44 C 0.9608(4) 1.1693(3) 0.15466(17)
C45 C 1.1068(4) 1.0596(3) 0.08292(19)
H33 H 1.0999 1.0907 0.0388
H34 H 1.1072 0.9837 0.0770
C46 C 1.2675(5) 1.1146(3) 0.1207(2)
H35 H 1.3601 1.1153 0.0925
H36 H 1.2859 1.0734 0.1602
C47 C 1.2662(5) 1.2289(3) 0.14199(19)
C48 C 1.1141(5) 1.2535(3) 0.15812(17)
C49 C 1.4091(5) 1.3079(4) 0.1478(2)
H37 H 1.5100 1.2916 0.1369
C50 C 1.4065(6) 1.4107(4) 0.1695(2)
H38 H 1.5045 1.4631 0.1732
C51 C 1.2567(6) 1.4349(3) 0.1858(2)
H39 H 1.2539 1.5038 0.2009
C52 C 1.1102(5) 1.3571(3) 0.17967(18)
C53 C 0.9410(5) 1.3803(3) 0.1946(2)
H40 H 0.9576 1.4432 0.2239
H41 H 0.8838 1.3965 0.1532
C54 C 0.8347(5) 1.2875(3) 0.2271(2)
H42 H 0.7234 1.3018 0.2305
H43 H 0.8816 1.2797 0.2721
C55 C 0.8224(4) 1.1837(3) 0.18796(17)
C56 C 0.6842(4) 1.1000(3) 0.18960(16)
H44 H 0.5905 1.1111 0.2105
loop_
_geom_bond_atom_site_label_1
_geom_bond_atom_site_label_2
_geom_bond_site_symmetry_1
_geom_bond_site_symmetry_2
C1 C2 1_555 1_555
C2 C3 1_555 1_555
C3 C4 1_555 1_555
C4 H1 1_555 1_555
C5 C4 1_555 1_555
C6 C5 1_555 1_555
C7 C5 1_555 1_555
H2 C7 1_555 1_555
H3 C7 1_555 1_555
C8 C7 1_555 1_555
H4 C8 1_555 1_555
H5 C8 1_555 1_555
C9 C8 1_555 1_555
C10 C6 1_555 1_555
C11 C9 1_555 1_555
H6 C11 1_555 1_555
C12 C11 1_555 1_555
H7 C12 1_555 1_555
C13 C12 1_555 1_555
H8 C13 1_555 1_555
C14 C10 1_555 1_555
C15 C14 1_555 1_555
H9 C15 1_555 1_555
H10 C15 1_555 1_555
C16 C15 1_555 1_555
H11 C16 1_555 1_555
H12 C16 1_555 1_555
C17 C6 1_555 1_555
C18 C3 1_555 1_555
H13 C18 1_555 1_555
C19 C2 1_555 1_555
C20 C19 1_555 1_555
H14 C20 1_555 1_555
C21 C20 1_555 1_555
C22 C21 1_555 1_555
C23 C21 1_555 1_555
H15 C23 1_555 1_555
H16 C23 1_555 1_555
C24 C23 1_555 1_555
H17 C24 1_555 1_555
H18 C24 1_555 1_555
C25 C24 1_555 1_555
C26 C22 1_555 1_555
C27 C25 1_555 1_555
H19 C27 1_555 1_555
C28 C27 1_555 1_555
H20 C28 1_555 1_555
C29 C28 1_555 1_555
H21 C29 1_555 1_555
C30 C26 1_555 1_555
C31 C30 1_555 1_555
H22 C31 1_555 1_555
H23 C31 1_555 1_555
C32 C31 1_555 1_555
H24 C32 1_555 1_555
H25 C32 1_555 1_555
C33 C22 1_555 1_555
C34 C19 1_555 1_555
H26 C34 1_555 1_555
C35 C1 1_555 1_555
C36 C35 1_555 1_555
H27 C36 1_555 1_555
C37 C36 1_555 1_555
H28 C37 1_555 1_555
C38 C37 1_555 1_555
H29 C38 1_555 1_555
C39 C38 1_555 1_555
H30 C39 1_555 1_555
C40 C35 1_555 1_555
H31 C40 1_555 1_555
C41 C1 1_555 1_555
C42 C41 1_555 1_555
H32 C42 1_555 1_555
C43 C42 1_555 1_555
C44 C43 1_555 1_555
C45 C43 1_555 1_555
H33 C45 1_555 1_555
H34 C45 1_555 1_555
C46 C45 1_555 1_555
H35 C46 1_555 1_555
H36 C46 1_555 1_555
C47 C46 1_555 1_555
C48 C44 1_555 1_555
C49 C47 1_555 1_555
H37 C49 1_555 1_555
C50 C49 1_555 1_555
H38 C50 1_555 1_555
C51 C50 1_555 1_555
H39 C51 1_555 1_555
C52 C48 1_555 1_555
C53 C52 1_555 1_555
H40 C53 1_555 1_555
H41 C53 1_555 1_555
C54 C53 1_555 1_555
H42 C54 1_555 1_555
H43 C54 1_555 1_555
C55 C44 1_555 1_555
C56 C41 1_555 1_555
H44 C56 1_555 1_555
C9 C10 1_555 1_555
C13 C14 1_555 1_555
C16 C17 1_555 1_555
C17 C18 1_555 1_555
C25 C26 1_555 1_555
C29 C30 1_555 1_555
C32 C33 1_555 1_555
C33 C34 1_555 1_555
C39 C40 1_555 1_555
C47 C48 1_555 1_555
C51 C52 1_555 1_555
C54 C55 1_555 1_555
C55 C56 1_555 1_555

#END
