
#######################################################################
#
#                 Cambridge Crystallographic Data Centre
#                                CCDC 
#
#######################################################################
#
# If this CIF has been generated from an entry in the Cambridge 
# Structural Database, then it will include bibliographic, chemical, 
# crystal, experimental, refinement or atomic coordinate data resulting 
# from the CCDC's data processing and validation procedures.
#
#######################################################################

data_GEZMOP
_chemical_formula_moiety         'C32 H26 N2 O4'
_chemical_name_systematic        
'Ethyl 3-(((1-benzyl-2-oxo-1,2-dihydro-3H-indol-3-ylidene)amino)oxy)-2-(2-naphthylmethylene)but-3-enoate'
_symmetry_cell_setting           triclinic
_symmetry_space_group_name_H-M   'P -1'
_symmetry_Int_Tables_number      2
_space_group_name_Hall           '-P 1'
loop_
_symmetry_equiv_pos_site_id
_symmetry_equiv_pos_as_xyz
1 x,y,z
2 -x,-y,-z
_cell_length_a                   12.1553(14)
_cell_length_b                   15.5375(18)
_cell_length_c                   15.9901(19)
_cell_angle_alpha                108.533(3)
_cell_angle_beta                 109.669(2)
_cell_angle_gamma                90.004(3)
_cell_volume                     2676.81
_exptl_crystal_colour            green
_exptl_crystal_description       prismatic
_cell_formula_units_Z            4
loop_
_atom_site_label
_atom_site_type_symbol
_atom_site_fract_x
_atom_site_fract_y
_atom_site_fract_z
N1 N 0.6914(3) 0.1114(2) 0.0065(2)
N2 N 0.6453(3) 0.17632(19) 0.2202(2)
O1 O 0.7151(3) 0.26019(18) 0.10611(18)
O2 O 0.6047(2) 0.11709(15) 0.25678(16)
O3 O 0.6174(3) -0.0287(2) 0.4403(2)
O4 O 0.720(3) 0.0117(17) 0.371(2)
C1 C 0.6919(3) 0.1785(3) 0.0865(3)
C2 C 0.6579(3) 0.1288(2) 0.1430(2)
C3 C 0.6439(3) 0.0314(2) 0.0902(2)
C4 C 0.6642(3) 0.0247(2) 0.0080(2)
C5 C 0.6573(3) -0.0590(3) -0.0599(3)
H1 H 0.6715 -0.0631 -0.1146
C6 C 0.6283(4) -0.1362(3) -0.0426(3)
H2 H 0.6240 -0.1935 -0.0864
C7 C 0.6056(4) -0.1303(3) 0.0382(3)
H3 H 0.5848 -0.1834 0.0471
C8 C 0.6136(3) -0.0464(2) 0.1058(3)
H4 H 0.5989 -0.0423 0.1603
C9 C 0.7112(3) 0.1292(3) -0.0712(2)
H5 H 0.7046 0.1932 -0.0640
H6 H 0.6500 0.0932 -0.1297
C10 C 0.8300(3) 0.1076(2) -0.0786(3)
C11 C 0.8405(4) 0.0735(3) -0.1647(3)
H7 H 0.7737 0.0595 -0.2190
C12 C 0.9498(5) 0.0596(4) -0.1723(4)
H8 H 0.9562 0.0368 -0.2315
C13 C 1.0480(5) 0.0794(3) -0.0929(4)
H9 H 1.1216 0.0706 -0.0977
C14 C 1.0375(4) 0.1119(3) -0.0071(4)
H10 H 1.1043 0.1250 0.0471
C15 C 0.9294(4) 0.1257(3) 0.0008(3)
H11 H 0.9233 0.1475 0.0602
C16 C 0.6059(3) 0.1600(3) 0.3473(2)
C17 C 0.6445(4) 0.2454(3) 0.3994(3)
H12 H 0.6749 0.2838 0.3760
H13 H 0.6415 0.2679 0.4598
C18 C 0.5582(4) 0.0913(3) 0.3772(2)
C19 C 0.4537(4) 0.0882(3) 0.3864(3)
H14 H 0.4428 0.0461 0.4142
C20 C 0.3518(3) 0.1384(3) 0.3613(2)
C21 C 0.3409(4) 0.1965(3) 0.3071(3)
H15 H 0.4024 0.2072 0.2881
C22 C 0.2415(4) 0.2364(3) 0.2826(3)
H16 H 0.2360 0.2740 0.2466
C23 C 0.1463(3) 0.2227(3) 0.3102(3)
C24 C 0.1541(3) 0.1646(3) 0.3636(3)
C25 C 0.2588(4) 0.1232(3) 0.3869(3)
H17 H 0.2647 0.0839 0.4212
C26 C 0.0413(4) 0.2640(3) 0.2864(3)
H18 H 0.0349 0.3033 0.2521
C27 C -0.0496(4) 0.2477(3) 0.3120(3)
H19 H -0.1171 0.2760 0.2957
C28 C -0.0423(4) 0.1884(3) 0.3631(3)
H20 H -0.1053 0.1765 0.3801
C29 C 0.0581(4) 0.1478(3) 0.3882(3)
H21 H 0.0625 0.1084 0.4222
C30 C 0.6351(4) 0.0221(3) 0.4022(3)
C31 C 0.7994(18) -0.0554(12) 0.3884(13)
H22 H 0.7555 -0.1120 0.3786
H23 H 0.8549 -0.0331 0.4528
C32 C 0.8633(11) -0.0708(9) 0.3203(11)
H24 H 0.8100 -0.1041 0.2577
H25 H 0.9274 -0.1053 0.3377
H26 H 0.8932 -0.0129 0.3218
N3 N 0.8029(3) 0.6010(2) 0.9891(2)
N4 N 0.8444(3) 0.5260(2) 0.7735(2)
O6 O 0.7702(3) 0.68204(19) 0.8873(2)
O7 O 0.8884(2) 0.44449(17) 0.73844(17)
O8 O 0.8985(3) 0.1760(2) 0.5827(3)
O9 O 0.7765(3) 0.26754(19) 0.63391(19)
C35 C 0.7978(4) 0.6148(3) 0.9083(3)
C36 C 0.8347(3) 0.5297(2) 0.8522(2)
C37 C 0.8554(3) 0.4675(2) 0.9064(2)
C38 C 0.8349(3) 0.5142(3) 0.9887(3)
C39 C 0.8467(3) 0.4756(3) 1.0571(3)
H32 H 0.8318 0.5066 1.1117
C40 C 0.8815(4) 0.3887(3) 1.0420(3)
H33 H 0.8909 0.3613 1.0875
C41 C 0.9024(4) 0.3424(3) 0.9613(3)
H34 H 0.9255 0.2841 0.9528
C42 C 0.8895(3) 0.3812(3) 0.8917(3)
H35 H 0.9035 0.3497 0.8369
C43 C 0.7850(4) 0.6699(3) 1.0675(3)
H36 H 0.7881 0.7287 1.0587
H37 H 0.8491 0.6738 1.1251
C44 C 0.6694(4) 0.6520(2) 1.0796(3)
C45 C 0.6662(4) 0.6611(3) 1.1665(3)
H38 H 0.7360 0.6750 1.2182
C46 C 0.5599(5) 0.6498(4) 1.1785(4)
H39 H 0.5581 0.6569 1.2380
C47 C 0.4570(5) 0.6279(4) 1.1012(4)
H40 H 0.3852 0.6209 1.1086
C48 C 0.4601(4) 0.6166(3) 1.0149(4)
H41 H 0.3906 0.6013 0.9629
C49 C 0.5664(4) 0.6277(3) 1.0038(3)
H42 H 0.5679 0.6185 0.9438
C50 C 0.8840(3) 0.4247(3) 0.6463(3)
C51 C 0.8420(4) 0.4733(3) 0.5918(3)
H43 H 0.8110 0.5270 0.6141
H44 H 0.8430 0.4542 0.5307
C52 C 0.9352(4) 0.3380(3) 0.6194(2)
C53 C 1.0375(4) 0.3300(3) 0.6048(3)
H45 H 1.0502 0.2699 0.5785
C54 C 1.1333(4) 0.3988(3) 0.6229(3)
C55 C 1.1517(4) 0.4892(3) 0.6864(3)
H46 H 1.0946 0.5108 0.7119
C56 C 1.2515(5) 0.5449(3) 0.7107(3)
H47 H 1.2620 0.6037 0.7537
C57 C 1.3405(4) 0.5162(3) 0.6724(3)
C58 C 1.3218(4) 0.4268(3) 0.6056(3)
C59 C 1.2185(4) 0.3699(3) 0.5846(3)
H48 H 1.2076 0.3103 0.5432
C60 C 1.4474(5) 0.5708(3) 0.6991(4)
H49 H 1.4619 0.6292 0.7435
C61 C 1.5294(5) 0.5387(4) 0.6604(4)
H50 H 1.5993 0.5756 0.6784
C62 C 1.5104(5) 0.4516(4) 0.5945(5)
H51 H 1.5679 0.4304 0.5693
C63 C 1.4084(5) 0.3972(4) 0.5665(4)
H52 H 1.3956 0.3397 0.5209
C64 C 0.8706(4) 0.2510(3) 0.6091(3)
C65 C 0.7127(5) 0.1908(4) 0.6374(4)
H53 H 0.7681 0.1560 0.6687
H54 H 0.6685 0.1509 0.5737
C66 C 0.6313(13) 0.2225(18) 0.6887(10)
H55 H 0.6757 0.2580 0.7532
H56 H 0.5863 0.1706 0.6866
H57 H 0.5791 0.2595 0.6596
O5? O 0.736(3) 0.0341(17) 0.383(3)
C33? C 0.8274(19) -0.0227(11) 0.4097(12)
H27? H 0.8192 -0.0421 0.4595
H28? H 0.9045 0.0118 0.4330
C34? C 0.8153(15) -0.1043(11) 0.3250(13)
H29? H 0.7421 -0.1413 0.3061
H30? H 0.8793 -0.1395 0.3402
H31? H 0.8167 -0.0845 0.2742
H58? H 0.6886 0.1416 0.5780
H59? H 0.7590 0.1706 0.6879
C67? C 0.6021(16) 0.222(2) 0.6493(14)
H60? H 0.6193 0.2800 0.6987
H61? H 0.5654 0.1779 0.6657
H62? H 0.5500 0.2272 0.5914
loop_
_geom_bond_atom_site_label_1
_geom_bond_atom_site_label_2
_geom_bond_site_symmetry_1
_geom_bond_site_symmetry_2
N1 C1 1_555 1_555
N2 O2 1_555 1_555
O1 C1 1_555 1_555
O2 C16 1_555 1_555
O3 C30 1_555 1_555
O4 C30 1_555 1_555
C1 C2 1_555 1_555
C2 N2 1_555 1_555
C3 C2 1_555 1_555
C4 N1 1_555 1_555
C5 C4 1_555 1_555
H1 C5 1_555 1_555
C6 C5 1_555 1_555
H2 C6 1_555 1_555
C7 C6 1_555 1_555
H3 C7 1_555 1_555
C8 C3 1_555 1_555
H4 C8 1_555 1_555
C9 N1 1_555 1_555
H5 C9 1_555 1_555
H6 C9 1_555 1_555
C10 C9 1_555 1_555
C11 C10 1_555 1_555
H7 C11 1_555 1_555
C12 C11 1_555 1_555
H8 C12 1_555 1_555
C13 C12 1_555 1_555
H9 C13 1_555 1_555
C14 C13 1_555 1_555
H10 C14 1_555 1_555
C15 C10 1_555 1_555
H11 C15 1_555 1_555
C16 C17 1_555 1_555
C17 H12 1_555 1_555
H13 C17 1_555 1_555
C18 C16 1_555 1_555
C19 C18 1_555 1_555
H14 C19 1_555 1_555
C20 C19 1_555 1_555
C21 C20 1_555 1_555
H15 C21 1_555 1_555
C22 C21 1_555 1_555
H16 C22 1_555 1_555
C23 C22 1_555 1_555
C24 C23 1_555 1_555
C25 C20 1_555 1_555
H17 C25 1_555 1_555
C26 C23 1_555 1_555
H18 C26 1_555 1_555
C27 C26 1_555 1_555
H19 C27 1_555 1_555
C28 C27 1_555 1_555
H20 C28 1_555 1_555
C29 C24 1_555 1_555
H21 C29 1_555 1_555
C30 C18 1_555 1_555
C31 O4 1_555 1_555
H22 C31 1_555 1_555
H23 C31 1_555 1_555
C32 C31 1_555 1_555
H24 C32 1_555 1_555
H25 C32 1_555 1_555
H26 C32 1_555 1_555
N3 C35 1_555 1_555
N4 O7 1_555 1_555
O6 C35 1_555 1_555
O7 C50 1_555 1_555
O8 C64 1_555 1_555
O9 C64 1_555 1_555
C35 C36 1_555 1_555
C36 N4 1_555 1_555
C37 C36 1_555 1_555
C38 N3 1_555 1_555
C39 C38 1_555 1_555
H32 C39 1_555 1_555
C40 C39 1_555 1_555
H33 C40 1_555 1_555
C41 C40 1_555 1_555
H34 C41 1_555 1_555
C42 C37 1_555 1_555
H35 C42 1_555 1_555
C43 N3 1_555 1_555
H36 C43 1_555 1_555
H37 C43 1_555 1_555
C44 C43 1_555 1_555
C45 C44 1_555 1_555
H38 C45 1_555 1_555
C46 C45 1_555 1_555
H39 C46 1_555 1_555
C47 C46 1_555 1_555
H40 C47 1_555 1_555
C48 C47 1_555 1_555
H41 C48 1_555 1_555
C49 C44 1_555 1_555
H42 C49 1_555 1_555
C50 C51 1_555 1_555
C51 H43 1_555 1_555
H44 C51 1_555 1_555
C52 C50 1_555 1_555
C53 C52 1_555 1_555
H45 C53 1_555 1_555
C54 C53 1_555 1_555
C55 C54 1_555 1_555
H46 C55 1_555 1_555
C56 C55 1_555 1_555
H47 C56 1_555 1_555
C57 C56 1_555 1_555
C58 C57 1_555 1_555
C59 C54 1_555 1_555
H48 C59 1_555 1_555
C60 C57 1_555 1_555
H49 C60 1_555 1_555
C61 C60 1_555 1_555
H50 C61 1_555 1_555
C62 C61 1_555 1_555
H51 C62 1_555 1_555
C63 C58 1_555 1_555
H52 C63 1_555 1_555
C64 C52 1_555 1_555
C65 O9 1_555 1_555
H53 C65 1_555 1_555
H54 C65 1_555 1_555
C66 C65 1_555 1_555
H55 C66 1_555 1_555
H56 C66 1_555 1_555
H57 C66 1_555 1_555
C3 C4 1_555 1_555
C7 C8 1_555 1_555
C14 C15 1_555 1_555
C24 C25 1_555 1_555
C28 C29 1_555 1_555
C37 C38 1_555 1_555
C41 C42 1_555 1_555
C48 C49 1_555 1_555
C58 C59 1_555 1_555
C62 C63 1_555 1_555

#END
