
#######################################################################
#
#                 Cambridge Crystallographic Data Centre
#                                CCDC 
#
#######################################################################
#
# If this CIF has been generated from an entry in the Cambridge 
# Structural Database, then it will include bibliographic, chemical, 
# crystal, experimental, refinement or atomic coordinate data resulting 
# from the CCDC's data processing and validation procedures.
#
#######################################################################

data_GEZRUA
_chemical_formula_moiety         'C50 H46 N4 O2'
_chemical_name_systematic        
4,4'-Dioxybis(2-(2-t-butylphenyl)-4,5-diphenyl-4H-imidazole)
_symmetry_cell_setting           monoclinic
_symmetry_space_group_name_H-M   'P 21/n'
_symmetry_Int_Tables_number      14
_space_group_name_Hall           '-P 2yn'
loop_
_symmetry_equiv_pos_site_id
_symmetry_equiv_pos_as_xyz
1 x,y,z
2 1/2-x,1/2+y,1/2-z
3 -x,-y,-z
4 1/2+x,1/2-y,1/2+z
_cell_length_a                   8.88770(10)
_cell_length_b                   23.4338(4)
_cell_length_c                   10.4997(2)
_cell_angle_alpha                90
_cell_angle_beta                 114.4170(3)
_cell_angle_gamma                90
_cell_volume                     1991.21
_exptl_crystal_colour            'light colorless'
_exptl_crystal_description       plate
_cell_formula_units_Z            2
loop_
_atom_site_label
_atom_site_type_symbol
_atom_site_fract_x
_atom_site_fract_y
_atom_site_fract_z
O1 O 0.90968(8) 0.00424(3) 0.47313(8)
N1 N 0.97014(11) -0.13941(4) 0.48008(10)
N2 N 0.88845(11) -0.07564(4) 0.60956(9)
C1 C 0.91295(12) -0.09585(4) 0.39921(11)
C2 C 0.90568(13) -0.09134(5) 0.25832(12)
C3 C 0.83635(14) -0.04337(5) 0.17570(12)
H1 H 0.7907 -0.0137 0.2105
C4 C 0.84531(13) -0.05115(4) 0.46933(11)
C5 C 0.65803(13) -0.04475(5) 0.39516(11)
C6 C 1.11706(15) -0.24140(5) 0.88290(12)
H2 H 1.2161 -0.2602 0.9420
C7 C 0.95008(13) -0.12469(5) 0.60615(11)
C8 C 0.97618(14) -0.17006(5) 0.71317(12)
C9 C 0.97069(14) -0.13476(5) 0.20466(12)
H3 H 1.0168 -0.1678 0.2592
C10 C 0.58345(14) 0.00854(5) 0.37827(11)
H4 H 0.6493 0.0420 0.4083
C11 C 0.96816(15) -0.12975(5) 0.07258(13)
H5 H 1.0131 -0.1593 0.0369
C12 C 0.82256(15) -0.23386(5) 0.79833(13)
H6 H 0.7206 -0.2461 0.7982
C13 C 0.96851(16) -0.26066(5) 0.88124(13)
H7 H 0.9674 -0.2923 0.9373
C14 C 0.41247(14) 0.01269(5) 0.31739(12)
H8 H 0.3614 0.0491 0.3050
C15 C 0.31593(14) -0.03582(5) 0.27458(12)
H9 H 0.1989 -0.0328 0.2353
C16 C 0.90021(15) -0.08164(6) -0.00830(13)
H10 H 0.8993 -0.0782 -0.0988
C17 C 1.12771(14) -0.19564(5) 0.80167(12)
C18 C 1.29810(14) -0.17417(5) 0.81645(13)
C19 C 0.82800(14) -0.18877(5) 0.71536(12)
H11 H 0.7281 -0.1700 0.6582
C20 C 0.56121(15) -0.09327(5) 0.34897(13)
H12 H 0.6119 -0.1296 0.3583
C21 C 0.83385(15) -0.03884(5) 0.04360(13)
H13 H 0.7863 -0.0061 -0.0120
C22 C 0.39024(15) -0.08869(6) 0.28917(14)
H14 H 0.3241 -0.1220 0.2582
C23 C 1.30770(16) -0.10909(6) 0.83575(17)
H15 H 1.2264 -0.0909 0.7513
H16 H 1.4188 -0.0959 0.8520
H17 H 1.2840 -0.0990 0.9162
C24 C 1.43978(15) -0.19955(6) 0.94623(14)
H18 H 1.4200 -0.1916 1.0296
H19 H 1.5448 -0.1823 0.9569
H20 H 1.4446 -0.2409 0.9346
C25 C 1.32876(17) -0.19112(8) 0.68815(15)
H21 H 1.3238 -0.2328 0.6784
H22 H 1.4381 -0.1776 0.6999
H23 H 1.2440 -0.1738 0.6042
O1B O 1.09032(8) -0.00424(3) 0.52687(8)
N1B N 1.02986(11) 0.13941(4) 0.51992(10)
N2B N 1.11155(11) 0.07564(4) 0.39044(9)
C1B C 1.08705(12) 0.09585(4) 0.60079(11)
C2B C 1.09432(13) 0.09134(5) 0.74168(12)
C3B C 1.16365(14) 0.04337(5) 0.82430(12)
H1B H 1.2093 0.0137 0.7895
C4B C 1.15469(13) 0.05115(4) 0.53067(11)
C5B C 1.34197(13) 0.04475(5) 0.60484(11)
C6B C 0.88294(15) 0.24140(5) 0.11710(12)
H2B H 0.7839 0.2602 0.0580
C7B C 1.04992(13) 0.12469(5) 0.39385(11)
C8B C 1.02382(14) 0.17006(5) 0.28683(12)
C9B C 1.02931(14) 0.13476(5) 0.79534(12)
H3B H 0.9832 0.1678 0.7408
C10B C 1.41655(14) -0.00854(5) 0.62173(11)
H4B H 1.3507 -0.0420 0.5917
C11B C 1.03184(15) 0.12975(5) 0.92742(13)
H5B H 0.9869 0.1593 0.9631
C12B C 1.17744(15) 0.23386(5) 0.20167(13)
H6B H 1.2794 0.2461 0.2018
C13B C 1.03149(16) 0.26066(5) 0.11876(13)
H7B H 1.0326 0.2923 0.0627
C14B C 1.58753(14) -0.01269(5) 0.68261(12)
H8B H 1.6386 -0.0491 0.6950
C15B C 1.68407(14) 0.03582(5) 0.72542(12)
H9B H 1.8011 0.0328 0.7647
C16B C 1.09979(15) 0.08164(6) 1.00830(13)
H10B H 1.1007 0.0782 1.0988
C17B C 0.87229(14) 0.19564(5) 0.19833(12)
C18B C 0.70190(14) 0.17417(5) 0.18355(13)
C19B C 1.17200(14) 0.18877(5) 0.28464(12)
H11B H 1.2719 0.1700 0.3418
C20B C 1.43879(15) 0.09327(5) 0.65103(13)
H12B H 1.3881 0.1296 0.6417
C21B C 1.16615(15) 0.03884(5) 0.95640(13)
H13B H 1.2137 0.0061 1.0120
C22B C 1.60976(15) 0.08869(6) 0.71083(14)
H14B H 1.6759 0.1220 0.7418
C23B C 0.69230(16) 0.10909(6) 0.16425(17)
H15B H 0.7736 0.0909 0.2487
H16B H 0.5812 0.0959 0.1480
H17B H 0.7160 0.0990 0.0838
C24B C 0.56022(15) 0.19955(6) 0.05377(14)
H18B H 0.5800 0.1916 -0.0296
H19B H 0.4552 0.1823 0.0431
H20B H 0.5554 0.2409 0.0654
C25B C 0.67124(17) 0.19112(8) 0.31185(15)
H21B H 0.6762 0.2328 0.3216
H22B H 0.5619 0.1776 0.3001
H23B H 0.7560 0.1738 0.3958
loop_
_geom_bond_atom_site_label_1
_geom_bond_atom_site_label_2
_geom_bond_site_symmetry_1
_geom_bond_site_symmetry_2
O1 C4 1_555 1_555
N1 C1 1_555 1_555
N2 C4 1_555 1_555
C1 C2 1_555 1_555
C2 C3 1_555 1_555
C3 H1 1_555 1_555
C4 C1 1_555 1_555
C5 C4 1_555 1_555
C6 H2 1_555 1_555
C7 N1 1_555 1_555
C8 C7 1_555 1_555
C9 C2 1_555 1_555
H3 C9 1_555 1_555
C10 C5 1_555 1_555
H4 C10 1_555 1_555
C11 C9 1_555 1_555
H5 C11 1_555 1_555
C12 H6 1_555 1_555
C13 C6 1_555 1_555
H7 C13 1_555 1_555
C14 C10 1_555 1_555
H8 C14 1_555 1_555
C15 C14 1_555 1_555
H9 C15 1_555 1_555
C16 C11 1_555 1_555
H10 C16 1_555 1_555
C17 C6 1_555 1_555
C18 C17 1_555 1_555
C19 C8 1_555 1_555
H11 C19 1_555 1_555
C20 C5 1_555 1_555
H12 C20 1_555 1_555
C21 C3 1_555 1_555
H13 C21 1_555 1_555
C22 C15 1_555 1_555
H14 C22 1_555 1_555
C23 C18 1_555 1_555
H15 C23 1_555 1_555
H16 C23 1_555 1_555
H17 C23 1_555 1_555
C24 C18 1_555 1_555
H18 C24 1_555 1_555
H19 C24 1_555 1_555
H20 C24 1_555 1_555
C25 C18 1_555 1_555
H21 C25 1_555 1_555
H22 C25 1_555 1_555
H23 C25 1_555 1_555
O1B O1 1_555 1_555
N1B C1B 1_555 1_555
N2B C4B 1_555 1_555
C1B C2B 1_555 1_555
C2B C3B 1_555 1_555
C3B H1B 1_555 1_555
C4B O1B 1_555 1_555
C5B C4B 1_555 1_555
C6B H2B 1_555 1_555
C7B N1B 1_555 1_555
C8B C7B 1_555 1_555
C9B C2B 1_555 1_555
H3B C9B 1_555 1_555
C10B C5B 1_555 1_555
H4B C10B 1_555 1_555
C11B C9B 1_555 1_555
H5B C11B 1_555 1_555
C12B H6B 1_555 1_555
C13B C6B 1_555 1_555
H7B C13B 1_555 1_555
C14B C10B 1_555 1_555
H8B C14B 1_555 1_555
C15B C14B 1_555 1_555
H9B C15B 1_555 1_555
C16B C11B 1_555 1_555
H10B C16B 1_555 1_555
C17B C6B 1_555 1_555
C18B C17B 1_555 1_555
C19B C8B 1_555 1_555
H11B C19B 1_555 1_555
C20B C5B 1_555 1_555
H12B C20B 1_555 1_555
C21B C3B 1_555 1_555
H13B C21B 1_555 1_555
C22B C15B 1_555 1_555
H14B C22B 1_555 1_555
C23B C18B 1_555 1_555
H15B C23B 1_555 1_555
H16B C23B 1_555 1_555
H17B C23B 1_555 1_555
C24B C18B 1_555 1_555
H18B C24B 1_555 1_555
H19B C24B 1_555 1_555
H20B C24B 1_555 1_555
C25B C18B 1_555 1_555
H21B C25B 1_555 1_555
H22B C25B 1_555 1_555
H23B C25B 1_555 1_555
N2 C7 1_555 1_555
C8 C17 1_555 1_555
C12 C13 1_555 1_555
C12 C19 1_555 1_555
C16 C21 1_555 1_555
C20 C22 1_555 1_555
N2B C7B 1_555 1_555
C1B C4B 1_555 1_555
C8B C17B 1_555 1_555
C12B C13B 1_555 1_555
C12B C19B 1_555 1_555
C16B C21B 1_555 1_555
C20B C22B 1_555 1_555

#END
