
#######################################################################
#
#                 Cambridge Crystallographic Data Centre
#                                CCDC 
#
#######################################################################
#
# If this CIF has been generated from an entry in the Cambridge 
# Structural Database, then it will include bibliographic, chemical, 
# crystal, experimental, refinement or atomic coordinate data resulting 
# from the CCDC's data processing and validation procedures.
#
#######################################################################

data_GEZROU
_chemical_formula_moiety         'C50 H46 N4 O2'
_chemical_name_systematic        
4,4'-Dioxybis(2-(2-t-butylphenyl)-4,5-diphenyl-4H-imidazole)
_symmetry_cell_setting           monoclinic
_symmetry_space_group_name_H-M   'C 2/c'
_symmetry_Int_Tables_number      15
_space_group_name_Hall           '-C 2yn'
loop_
_symmetry_equiv_pos_site_id
_symmetry_equiv_pos_as_xyz
1 x,y,z
2 -x,y,1/2-z
3 1/2+x,1/2+y,z
4 1/2-x,1/2+y,1/2-z
5 -x,-y,-z
6 x,-y,1/2+z
7 1/2-x,1/2-y,-z
8 1/2+x,1/2-y,1/2+z
_cell_length_a                   18.7885(5)
_cell_length_b                   10.0808(3)
_cell_length_c                   21.5264(5)
_cell_angle_alpha                90
_cell_angle_beta                 102.4180(10)
_cell_angle_gamma                90
_cell_volume                     3981.78
_exptl_crystal_colour            'light colorless'
_exptl_crystal_description       block
_cell_formula_units_Z            4
loop_
_atom_site_label
_atom_site_type_symbol
_atom_site_fract_x
_atom_site_fract_y
_atom_site_fract_z
O1 O 0.01933(4) 0.66420(9) 0.22304(4)
N1 N -0.07936(5) 0.53007(10) 0.16896(5)
N2 N -0.15877(5) 0.70928(10) 0.15725(5)
C1 C -0.09508(6) 0.76133(12) 0.16215(5)
C2 C -0.20541(7) 0.47614(12) 0.16911(6)
C3 C -0.08224(7) 0.90443(12) 0.16216(6)
C4 C -0.14562(6) 0.56853(12) 0.16246(5)
C5 C -0.01200(7) 0.95641(13) 0.16923(6)
H1 H 0.0288 0.8985 0.1751
C6 C 0.00219(6) 0.64477(12) 0.11253(6)
C7 C 0.05897(7) 0.55407(13) 0.11613(6)
H2 H 0.0736 0.5005 0.1530
C8 C 0.01488(7) 0.70600(13) 0.00744(6)
H3 H -0.0008 0.7571 -0.0301
C9 C -0.03712(6) 0.65221(12) 0.16743(6)
C10 C -0.01937(7) 0.72056(12) 0.05800(6)
H4 H -0.0579 0.7829 0.0553
C11 C -0.14177(8) 0.99153(13) 0.15410(6)
H5 H -0.1897 0.9574 0.1502
C12 C 0.07181(7) 0.61745(13) 0.01149(6)
H6 H 0.0956 0.6083 -0.0230
C13 C 0.09405(7) 0.54207(13) 0.06594(7)
H7 H 0.1335 0.4818 0.0689
C14 C -0.32265(7) 0.67862(14) 0.07777(6)
H8 H -0.3396 0.7261 0.0376
H9 H -0.2815 0.7265 0.1040
H10 H -0.3625 0.6729 0.1005
C15 C -0.00184(8) 1.09269(14) 0.16762(7)
H11 H 0.0460 1.1278 0.1725
C16 C -0.36365(7) 0.47099(14) 0.02011(6)
H12 H -0.4062 0.4757 0.0396
H13 H -0.3520 0.3779 0.0138
H14 H -0.3745 0.5166 -0.0211
C17 C -0.18855(7) 0.40069(14) 0.22484(6)
H15 H -0.1418 0.4103 0.2521
C18 C -0.13089(9) 1.12677(14) 0.15189(7)
H16 H -0.1715 1.1852 0.1455
C19 C -0.23751(7) 0.54482(14) 0.02667(6)
H17 H -0.2555 0.5909 -0.0137
H18 H -0.2225 0.4547 0.0183
H19 H -0.1957 0.5932 0.0516
C20 C -0.30459(7) 0.29731(14) 0.20071(6)
H20 H -0.3392 0.2374 0.2112
C21 C -0.32144(7) 0.36884(14) 0.14473(6)
H21 H -0.3675 0.3546 0.1170
C22 C -0.29822(7) 0.53814(13) 0.06403(6)
C23 C -0.23756(8) 0.31261(15) 0.24154(6)
H22 H -0.2255 0.2638 0.2801
C24 C -0.27391(7) 0.46136(13) 0.12682(6)
C25 C -0.06117(9) 1.17766(14) 0.15890(7)
H23 H -0.0540 1.2708 0.1577
O1A O -0.01933(4) 0.66420(9) 0.27696(4)
N1A N 0.07936(5) 0.53007(10) 0.33104(5)
N2A N 0.15877(5) 0.70928(10) 0.34275(5)
C1A C 0.09508(6) 0.76133(12) 0.33785(5)
C2A C 0.20541(7) 0.47614(12) 0.33089(6)
C3A C 0.08224(7) 0.90443(12) 0.33784(6)
C4A C 0.14562(6) 0.56853(12) 0.33754(5)
C5A C 0.01200(7) 0.95641(13) 0.33077(6)
H1A H -0.0288 0.8985 0.3249
C6A C -0.00219(6) 0.64477(12) 0.38747(6)
C7A C -0.05897(7) 0.55407(13) 0.38387(6)
H2A H -0.0736 0.5005 0.3470
C8A C -0.01488(7) 0.70600(13) 0.49256(6)
H3A H 0.0008 0.7571 0.5301
C9A C 0.03712(6) 0.65221(12) 0.33257(6)
C10A C 0.01937(7) 0.72056(12) 0.44200(6)
H4A H 0.0579 0.7829 0.4447
C11A C 0.14177(8) 0.99153(13) 0.34590(6)
H5A H 0.1897 0.9574 0.3498
C12A C -0.07181(7) 0.61745(13) 0.48851(6)
H6A H -0.0956 0.6083 0.5230
C13A C -0.09405(7) 0.54207(13) 0.43406(7)
H7A H -0.1335 0.4818 0.4311
C14A C 0.32265(7) 0.67862(14) 0.42223(6)
H8A H 0.3396 0.7261 0.4624
H9A H 0.2815 0.7265 0.3960
H10A H 0.3625 0.6729 0.3995
C15A C 0.00184(8) 1.09269(14) 0.33238(7)
H11A H -0.0460 1.1278 0.3275
C16A C 0.36365(7) 0.47099(14) 0.47989(6)
H12A H 0.4062 0.4757 0.4604
H13A H 0.3520 0.3779 0.4862
H14A H 0.3745 0.5166 0.5211
C17A C 0.18855(7) 0.40069(14) 0.27516(6)
H15A H 0.1418 0.4103 0.2479
C18A C 0.13089(9) 1.12677(14) 0.34811(7)
H16A H 0.1715 1.1852 0.3545
C19A C 0.23751(7) 0.54482(14) 0.47333(6)
H17A H 0.2555 0.5909 0.5137
H18A H 0.2225 0.4547 0.4817
H19A H 0.1957 0.5932 0.4484
C20A C 0.30459(7) 0.29731(14) 0.29929(6)
H20A H 0.3392 0.2374 0.2888
C21A C 0.32144(7) 0.36884(14) 0.35527(6)
H21A H 0.3675 0.3546 0.3830
C22A C 0.29822(7) 0.53814(13) 0.43597(6)
C23A C 0.23756(8) 0.31261(15) 0.25846(6)
H22A H 0.2255 0.2638 0.2199
C24A C 0.27391(7) 0.46136(13) 0.37318(6)
C25A C 0.06117(9) 1.17766(14) 0.34110(7)
H23A H 0.0540 1.2708 0.3423
loop_
_geom_bond_atom_site_label_1
_geom_bond_atom_site_label_2
_geom_bond_site_symmetry_1
_geom_bond_site_symmetry_2
O1 C9 1_555 1_555
N1 C4 1_555 1_555
N2 C1 1_555 1_555
C1 C3 1_555 1_555
C2 C4 1_555 1_555
C3 C5 1_555 1_555
C4 N2 1_555 1_555
C5 H1 1_555 1_555
C6 C7 1_555 1_555
C7 H2 1_555 1_555
C8 H3 1_555 1_555
C9 N1 1_555 1_555
C10 C6 1_555 1_555
H4 C10 1_555 1_555
C11 C3 1_555 1_555
H5 C11 1_555 1_555
C12 C8 1_555 1_555
H6 C12 1_555 1_555
C13 C7 1_555 1_555
H7 C13 1_555 1_555
C14 H8 1_555 1_555
H9 C14 1_555 1_555
H10 C14 1_555 1_555
C15 C5 1_555 1_555
H11 C15 1_555 1_555
C16 H12 1_555 1_555
H13 C16 1_555 1_555
H14 C16 1_555 1_555
C17 C2 1_555 1_555
H15 C17 1_555 1_555
C18 C11 1_555 1_555
H16 C18 1_555 1_555
C19 H17 1_555 1_555
H18 C19 1_555 1_555
H19 C19 1_555 1_555
C20 H20 1_555 1_555
C21 C20 1_555 1_555
H21 C21 1_555 1_555
C22 C14 1_555 1_555
C23 C17 1_555 1_555
H22 C23 1_555 1_555
C24 C2 1_555 1_555
C25 C15 1_555 1_555
H23 C25 1_555 1_555
O1A O1 1_555 1_555
N1A C4A 1_555 1_555
N2A C1A 1_555 1_555
C1A C3A 1_555 1_555
C2A C4A 1_555 1_555
C3A C5A 1_555 1_555
C4A N2A 1_555 1_555
C5A H1A 1_555 1_555
C6A C7A 1_555 1_555
C7A H2A 1_555 1_555
C8A H3A 1_555 1_555
C9A O1A 1_555 1_555
C10A C6A 1_555 1_555
H4A C10A 1_555 1_555
C11A C3A 1_555 1_555
H5A C11A 1_555 1_555
C12A C8A 1_555 1_555
H6A C12A 1_555 1_555
C13A C7A 1_555 1_555
H7A C13A 1_555 1_555
C14A H8A 1_555 1_555
H9A C14A 1_555 1_555
H10A C14A 1_555 1_555
C15A C5A 1_555 1_555
H11A C15A 1_555 1_555
C16A H12A 1_555 1_555
H13A C16A 1_555 1_555
H14A C16A 1_555 1_555
C17A C2A 1_555 1_555
H15A C17A 1_555 1_555
C18A C11A 1_555 1_555
H16A C18A 1_555 1_555
C19A H17A 1_555 1_555
H18A C19A 1_555 1_555
H19A C19A 1_555 1_555
C20A H20A 1_555 1_555
C21A C20A 1_555 1_555
H21A C21A 1_555 1_555
C22A C14A 1_555 1_555
C23A C17A 1_555 1_555
H22A C23A 1_555 1_555
C24A C2A 1_555 1_555
C25A C15A 1_555 1_555
H23A C25A 1_555 1_555
C1 C9 1_555 1_555
C6 C9 1_555 1_555
C8 C10 1_555 1_555
C12 C13 1_555 1_555
C16 C22 1_555 1_555
C18 C25 1_555 1_555
C19 C22 1_555 1_555
C20 C23 1_555 1_555
C21 C24 1_555 1_555
C22 C24 1_555 1_555
N1A C9A 1_555 1_555
C1A C9A 1_555 1_555
C6A C9A 1_555 1_555
C8A C10A 1_555 1_555
C12A C13A 1_555 1_555
C16A C22A 1_555 1_555
C18A C25A 1_555 1_555
C19A C22A 1_555 1_555
C20A C23A 1_555 1_555
C21A C24A 1_555 1_555
C22A C24A 1_555 1_555

#END
