
#######################################################################
#
#                 Cambridge Crystallographic Data Centre
#                                CCDC 
#
#######################################################################
#
# If this CIF has been generated from an entry in the Cambridge 
# Structural Database, then it will include bibliographic, chemical, 
# crystal, experimental, refinement or atomic coordinate data resulting 
# from the CCDC's data processing and validation procedures.
#
#######################################################################

data_GEZREK01
_chemical_formula_moiety         'C50 H46 N4 O2'
_chemical_name_systematic        
4,4'-Dioxybis(2-(4-t-butylphenyl)-4,5-diphenyl-4H-imidazole)
_symmetry_cell_setting           monoclinic
_symmetry_space_group_name_H-M   'I 2/a'
_symmetry_Int_Tables_number      15
_space_group_name_Hall           '-I 2ya'
loop_
_symmetry_equiv_pos_site_id
_symmetry_equiv_pos_as_xyz
1 x,y,z
2 1/2-x,y,-z
3 1/2+x,1/2+y,1/2+z
4 -x,1/2+y,1/2-z
5 -x,-y,-z
6 1/2+x,-y,z
7 1/2-x,1/2-y,1/2-z
8 x,1/2-y,1/2+z
_cell_length_a                   16.1305(10)
_cell_length_b                   15.4759(6)
_cell_length_c                   16.6219(6)
_cell_angle_alpha                90
_cell_angle_beta                 94.2670(10)
_cell_angle_gamma                90
_cell_volume                     4137.89
_exptl_crystal_colour            'light colorless'
_exptl_crystal_description       block
_cell_formula_units_Z            4
loop_
_atom_site_label
_atom_site_type_symbol
_atom_site_fract_x
_atom_site_fract_y
_atom_site_fract_z
O1 O 0.46204(6) 0.52282(7) 0.51168(6)
N1 N 0.53797(8) 0.55915(8) 0.63477(7)
N2 N 0.62705(9) 0.64603(9) 0.56646(8)
C1 C 0.49272(10) 0.59151(10) 0.56124(9)
C2 C 0.61090(10) 0.59122(10) 0.63377(9)
C3 C 0.67866(10) 0.57474(10) 0.69548(9)
C4 C 0.54742(11) 0.68851(10) 0.44296(10)
C5 C 0.73369(11) 0.50015(12) 0.81404(11)
H1 H 0.7256 0.4595 0.8556
C6 C 0.80972(10) 0.54163(11) 0.81312(10)
C7 C 0.88095(11) 0.52455(12) 0.87702(11)
C8 C 0.66931(11) 0.51592(11) 0.75655(11)
H2 H 0.6181 0.4860 0.7590
C9 C 0.55892(10) 0.64453(10) 0.52118(9)
C10 C 0.81759(12) 0.60056(15) 0.75167(13)
H3 H 0.8687 0.6307 0.7492
C11 C 0.75395(12) 0.61707(14) 0.69397(12)
H4 H 0.7618 0.6580 0.6526
C12 C 0.47679(13) 0.67529(12) 0.39124(11)
H5 H 0.4350 0.6362 0.4056
C13 C 0.46764(15) 0.71946(14) 0.31859(11)
H6 H 0.4196 0.7103 0.2830
C14 C 0.60873(13) 0.74483(12) 0.42022(11)
H7 H 0.6580 0.7530 0.4544
C15 C 0.52772(17) 0.77629(15) 0.29780(13)
H8 H 0.5206 0.8072 0.2484
C16 C 0.59800(16) 0.78858(14) 0.34822(13)
H9 H 0.6396 0.8277 0.3333
C17 C 0.96602(17) 0.5291(2) 0.84162(19)
H10 H 0.9664 0.4904 0.7950
H11 H 1.0094 0.5114 0.8827
H12 H 0.9765 0.5885 0.8246
C18 C 0.8787(2) 0.5938(2) 0.94218(19)
H13 H 0.8828 0.6511 0.9176
H14 H 0.9254 0.5853 0.9825
H15 H 0.8263 0.5896 0.9683
C19 C 0.8751(2) 0.4351(2) 0.9166(2)
H16 H 0.8245 0.4320 0.9456
H17 H 0.9238 0.4260 0.9545
H18 H 0.8734 0.3903 0.8748
C20 C 0.4185(2) 0.6438(2) 0.58256(15)
C21 C 0.3539(3) 0.5990(2) 0.6145(3)
H19 H 0.3573 0.5381 0.6210
C22 C 0.2843(3) 0.6433(3) 0.6370(4)
H20 H 0.2402 0.6127 0.6588
C23 C 0.2794(3) 0.7325(3) 0.6275(2)
H21 H 0.2318 0.7628 0.6428
C24 C 0.3440(3) 0.7773(2) 0.5955(3)
H22 H 0.3406 0.8382 0.5890
C25 C 0.4136(2) 0.7329(2) 0.5731(3)
H23 H 0.4578 0.7635 0.5512
O1D O 0.53796(6) 0.47718(7) 0.48832(6)
N1D N 0.46203(8) 0.44085(8) 0.36523(7)
N2D N 0.37295(9) 0.35397(9) 0.43354(8)
C1D C 0.50728(10) 0.40849(10) 0.43876(9)
C2D C 0.38910(10) 0.40878(10) 0.36623(9)
C3D C 0.32134(10) 0.42526(10) 0.30452(9)
C4D C 0.45258(11) 0.31149(10) 0.55704(10)
C5D C 0.26631(11) 0.49985(12) 0.18596(11)
H1D H 0.2744 0.5405 0.1444
C6D C 0.19028(10) 0.45837(11) 0.18688(10)
C7D C 0.11905(11) 0.47545(12) 0.12298(11)
C8D C 0.33069(11) 0.48408(11) 0.24345(11)
H2D H 0.3819 0.5140 0.2410
C9D C 0.44108(10) 0.35547(10) 0.47882(9)
C10D C 0.18241(12) 0.39944(15) 0.24833(13)
H3D H 0.1313 0.3693 0.2508
C11D C 0.24605(12) 0.38293(14) 0.30603(12)
H4D H 0.2382 0.3420 0.3474
C12D C 0.52321(13) 0.32471(12) 0.60876(11)
H5D H 0.5650 0.3638 0.5944
C13D C 0.53236(15) 0.28054(14) 0.68141(11)
H6D H 0.5804 0.2897 0.7170
C14D C 0.39127(13) 0.25517(12) 0.57978(11)
H7D H 0.3420 0.2470 0.5456
C15D C 0.47228(17) 0.22371(15) 0.70220(13)
H8D H 0.4794 0.1928 0.7516
C16D C 0.40200(16) 0.21142(14) 0.65178(13)
H9D H 0.3604 0.1723 0.6667
C17D C 0.03398(17) 0.4709(2) 0.15838(19)
H10D H 0.0336 0.5096 0.2050
H11D H -0.0094 0.4886 0.1173
H12D H 0.0235 0.4115 0.1754
C18D C 0.1213(2) 0.4062(2) 0.05782(19)
H13D H 0.1172 0.3489 0.0824
H14D H 0.0746 0.4147 0.0175
H15D H 0.1737 0.4104 0.0317
C19D C 0.1249(2) 0.5649(2) 0.0834(2)
H16D H 0.1755 0.5680 0.0544
H17D H 0.0762 0.5740 0.0455
H18D H 0.1266 0.6097 0.1252
C20D C 0.5815(2) 0.3562(2) 0.41744(15)
C21D C 0.6461(3) 0.4010(2) 0.3855(3)
H19D H 0.6427 0.4619 0.3790
C22D C 0.7157(3) 0.3567(3) 0.3630(4)
H20D H 0.7598 0.3873 0.3412
C23D C 0.7206(3) 0.2675(3) 0.3725(2)
H21D H 0.7682 0.2372 0.3572
C24D C 0.6560(3) 0.2227(2) 0.4045(3)
H22D H 0.6594 0.1618 0.4110
C25D C 0.5864(2) 0.2671(2) 0.4269(3)
H23D H 0.5422 0.2365 0.4488
C26? C 0.4101(6) 0.6341(7) 0.5809(5)
C27? C 0.3358(7) 0.5891(6) 0.5838(8)
H24? H 0.3338 0.5290 0.5722
C28? C 0.2645(6) 0.6321(8) 0.6036(9)
H25? H 0.2137 0.6013 0.6056
C29? C 0.2674(7) 0.7200(8) 0.6206(7)
H26? H 0.2186 0.7494 0.6341
C30? C 0.3417(9) 0.7650(6) 0.6177(7)
H27? H 0.3437 0.8251 0.6293
C31? C 0.4131(7) 0.7221(8) 0.5978(6)
H28? H 0.4639 0.7528 0.5958
C32? C 0.9442(5) 0.5978(7) 0.8802(6)
H29? H 0.9657 0.6050 0.8270
H30? H 0.9902 0.5841 0.9200
H31? H 0.9175 0.6515 0.8957
C33? C 0.8470(6) 0.5201(7) 0.9584(5)
H32? H 0.8129 0.5714 0.9665
H33? H 0.8930 0.5180 1.0003
H34? H 0.8127 0.4681 0.9617
C34? C 0.9203(6) 0.4435(6) 0.8500(7)
H35? H 0.8801 0.3961 0.8499
H36? H 0.9687 0.4296 0.8868
H37? H 0.9381 0.4515 0.7953
loop_
_geom_bond_atom_site_label_1
_geom_bond_atom_site_label_2
_geom_bond_site_symmetry_1
_geom_bond_site_symmetry_2
O1 C1 1_555 1_555
N1 C1 1_555 1_555
N2 C2 1_555 1_555
C1 C9 1_555 1_555
C2 N1 1_555 1_555
C3 C2 1_555 1_555
C4 C9 1_555 1_555
C5 H1 1_555 1_555
C6 C5 1_555 1_555
C7 C6 1_555 1_555
C8 C3 1_555 1_555
H2 C8 1_555 1_555
C9 N2 1_555 1_555
C10 C6 1_555 1_555
H3 C10 1_555 1_555
C11 C3 1_555 1_555
H4 C11 1_555 1_555
C12 C4 1_555 1_555
H5 C12 1_555 1_555
C13 C12 1_555 1_555
H6 C13 1_555 1_555
C14 C4 1_555 1_555
H7 C14 1_555 1_555
C15 C13 1_555 1_555
H8 C15 1_555 1_555
C16 C14 1_555 1_555
H9 C16 1_555 1_555
C17 C7 1_555 1_555
H10 C17 1_555 1_555
H11 C17 1_555 1_555
H12 C17 1_555 1_555
C18 C7 1_555 1_555
H13 C18 1_555 1_555
H14 C18 1_555 1_555
H15 C18 1_555 1_555
C19 C7 1_555 1_555
H16 C19 1_555 1_555
H17 C19 1_555 1_555
H18 C19 1_555 1_555
C20 C1 1_555 1_555
C21 C20 1_555 1_555
H19 C21 1_555 1_555
C22 C21 1_555 1_555
H20 C22 1_555 1_555
C23 C22 1_555 1_555
H21 C23 1_555 1_555
C24 C23 1_555 1_555
H22 C24 1_555 1_555
C25 C20 1_555 1_555
H23 C25 1_555 1_555
O1D O1 1_555 1_555
N1D C1D 1_555 1_555
N2D C2D 1_555 1_555
C1D O1D 1_555 1_555
C2D N1D 1_555 1_555
C3D C2D 1_555 1_555
C4D C9D 1_555 1_555
C5D H1D 1_555 1_555
C6D C5D 1_555 1_555
C7D C6D 1_555 1_555
C8D C3D 1_555 1_555
H2D C8D 1_555 1_555
C9D N2D 1_555 1_555
C10D C6D 1_555 1_555
H3D C10D 1_555 1_555
C11D C3D 1_555 1_555
H4D C11D 1_555 1_555
C12D C4D 1_555 1_555
H5D C12D 1_555 1_555
C13D C12D 1_555 1_555
H6D C13D 1_555 1_555
C14D C4D 1_555 1_555
H7D C14D 1_555 1_555
C15D C13D 1_555 1_555
H8D C15D 1_555 1_555
C16D C14D 1_555 1_555
H9D C16D 1_555 1_555
C17D C7D 1_555 1_555
H10D C17D 1_555 1_555
H11D C17D 1_555 1_555
H12D C17D 1_555 1_555
C18D C7D 1_555 1_555
H13D C18D 1_555 1_555
H14D C18D 1_555 1_555
H15D C18D 1_555 1_555
C19D C7D 1_555 1_555
H16D C19D 1_555 1_555
H17D C19D 1_555 1_555
H18D C19D 1_555 1_555
C20D C1D 1_555 1_555
C21D C20D 1_555 1_555
H19D C21D 1_555 1_555
C22D C21D 1_555 1_555
H20D C22D 1_555 1_555
C23D C22D 1_555 1_555
H21D C23D 1_555 1_555
C24D C23D 1_555 1_555
H22D C24D 1_555 1_555
C25D C20D 1_555 1_555
H23D C25D 1_555 1_555
C5 C8 1_555 1_555
C10 C11 1_555 1_555
C15 C16 1_555 1_555
C24 C25 1_555 1_555
C1D C9D 1_555 1_555
C5D C8D 1_555 1_555
C10D C11D 1_555 1_555
C15D C16D 1_555 1_555
C24D C25D 1_555 1_555

#END
