
#######################################################################
#
#                 Cambridge Crystallographic Data Centre
#                                CCDC 
#
#######################################################################
#
# If this CIF has been generated from an entry in the Cambridge 
# Structural Database, then it will include bibliographic, chemical, 
# crystal, experimental, refinement or atomic coordinate data resulting 
# from the CCDC's data processing and validation procedures.
#
#######################################################################

data_GEZTUD
_chemical_formula_moiety         'C20 H19 F3 N2 O2'
_chemical_name_systematic        
'benzyl 3-(4-methylphenyl)-5-(2,2,2-trifluoroethyl)-4,5-dihydro-1H-pyrazole-1-carboxylate'
_symmetry_cell_setting           triclinic
_symmetry_space_group_name_H-M   'P -1'
_symmetry_Int_Tables_number      2
_space_group_name_Hall           '-P 1'
loop_
_symmetry_equiv_pos_site_id
_symmetry_equiv_pos_as_xyz
1 x,y,z
2 -x,-y,-z
_cell_length_a                   7.8390(12)
_cell_length_b                   10.1239(10)
_cell_length_c                   13.0356(12)
_cell_angle_alpha                67.583(9)
_cell_angle_beta                 83.056(10)
_cell_angle_gamma                72.226(11)
_cell_volume                     910.686
_exptl_crystal_colour            colorless
_exptl_crystal_description       needle
_cell_formula_units_Z            2
loop_
_atom_site_label
_atom_site_type_symbol
_atom_site_fract_x
_atom_site_fract_y
_atom_site_fract_z
F1 F 1.0998(4) 0.9035(2) -0.35220(15)
F2 F 1.0881(4) 1.1317(3) -0.41888(16)
F3 F 0.8529(4) 1.0683(3) -0.39270(16)
O1 O 0.6582(3) 1.06546(19) 0.05262(14)
O2 O 0.6457(3) 1.14863(18) -0.13444(14)
N1 N 0.9262(3) 0.8209(2) 0.04546(16)
N2 N 0.8550(3) 0.9422(2) -0.04769(16)
C1 C 1.0914(4) 0.5352(3) 0.2073(2)
H1 H 1.0013 0.6001 0.2326
C2 C 1.1845(5) 0.4004(3) 0.2818(2)
H2 H 1.1547 0.3757 0.3568
C3 C 1.3204(4) 0.3007(3) 0.2491(2)
C4 C 1.3592(4) 0.3395(3) 0.1365(2)
H3 H 1.4489 0.2740 0.1116
C5 C 1.2657(4) 0.4749(3) 0.0608(2)
H4 H 1.2941 0.4987 -0.0143
C6 C 1.1310(4) 0.5754(2) 0.0944(2)
C7 C 1.0341(4) 0.7185(3) 0.0146(2)
C8 C 1.0474(4) 0.7628(3) -0.1099(2)
H5 H 1.0148 0.6936 -0.1333
H6 H 1.1678 0.7663 -0.1358
C9 C 0.9143(4) 0.9173(2) -0.15334(19)
H7 H 0.8128 0.9128 -0.1878
C10 C 0.9942(5) 1.0378(3) -0.2351(2)
H8 H 0.9185 1.1347 -0.2376
H9 H 1.1114 1.0245 -0.2091
C11 C 1.0117(6) 1.0336(3) -0.3473(2)
C12 C 0.7133(4) 1.0539(3) -0.0355(2)
C13 C 0.4931(4) 1.2720(3) -0.1334(2)
H10 H 0.5295 1.3388 -0.1092
H11 H 0.4028 1.2355 -0.0822
C14 C 0.4181(4) 1.3530(3) -0.2476(2)
C15 C 0.3751(5) 1.5051(3) -0.2943(2)
H12 H 0.3983 1.5578 -0.2553
C16 C 0.2983(6) 1.5820(3) -0.3979(3)
H13 H 0.2692 1.6854 -0.4278
C17 C 0.2651(6) 1.5061(4) -0.4561(3)
H14 H 0.2127 1.5573 -0.5259
C18 C 0.3093(6) 1.3542(4) -0.4113(3)
H15 H 0.2894 1.3018 -0.4517
C19 C 0.3832(5) 1.2775(3) -0.3066(3)
H16 H 0.4093 1.1743 -0.2761
C20 C 1.4255(5) 0.1555(3) 0.3325(3)
H17 H 1.5156 0.1731 0.3653
H18 H 1.4817 0.0868 0.2958
H19 H 1.3461 0.1144 0.3893
loop_
_geom_bond_atom_site_label_1
_geom_bond_atom_site_label_2
_geom_bond_site_symmetry_1
_geom_bond_site_symmetry_2
F1 C11 1_555 1_555
F2 C11 1_555 1_555
F3 C11 1_555 1_555
O1 C12 1_555 1_555
O2 C12 1_555 1_555
N1 N2 1_555 1_555
N2 C9 1_555 1_555
C1 H1 1_555 1_555
C2 C1 1_555 1_555
H2 C2 1_555 1_555
C3 C2 1_555 1_555
C4 C3 1_555 1_555
H3 C4 1_555 1_555
C5 C4 1_555 1_555
H4 C5 1_555 1_555
C6 C1 1_555 1_555
C7 N1 1_555 1_555
C8 C7 1_555 1_555
H5 C8 1_555 1_555
H6 C8 1_555 1_555
C9 C8 1_555 1_555
H7 C9 1_555 1_555
C10 C9 1_555 1_555
H8 C10 1_555 1_555
H9 C10 1_555 1_555
C11 C10 1_555 1_555
C12 N2 1_555 1_555
C13 O2 1_555 1_555
H10 C13 1_555 1_555
H11 C13 1_555 1_555
C14 C13 1_555 1_555
C15 C14 1_555 1_555
H12 C15 1_555 1_555
C16 C15 1_555 1_555
H13 C16 1_555 1_555
C17 C16 1_555 1_555
H14 C17 1_555 1_555
C18 C17 1_555 1_555
H15 C18 1_555 1_555
C19 C14 1_555 1_555
H16 C19 1_555 1_555
C20 C3 1_555 1_555
H17 C20 1_555 1_555
H18 C20 1_555 1_555
H19 C20 1_555 1_555
C5 C6 1_555 1_555
C6 C7 1_555 1_555
C18 C19 1_555 1_555

#END
