
#######################################################################
#
#                 Cambridge Crystallographic Data Centre
#                                CCDC 
#
#######################################################################
#
# If this CIF has been generated from an entry in the Cambridge 
# Structural Database, then it will include bibliographic, chemical, 
# crystal, experimental, refinement or atomic coordinate data resulting 
# from the CCDC's data processing and validation procedures.
#
#######################################################################

data_GEZVOW
_chemical_formula_moiety         'C20 H18 N2 O4'
_chemical_name_systematic        
'Dimethyl 1,3-diaza-2,6-diphenylbicyclo(3.1.0)hex-3-en-4,5-dicarboxylate'
_symmetry_cell_setting           monoclinic
_symmetry_space_group_name_H-M   'P 21/c'
_symmetry_Int_Tables_number      14
_space_group_name_Hall           '-P 2ybc'
loop_
_symmetry_equiv_pos_site_id
_symmetry_equiv_pos_as_xyz
1 x,y,z
2 -x,1/2+y,1/2-z
3 -x,-y,-z
4 x,1/2-y,1/2+z
_cell_length_a                   9.545(2)
_cell_length_b                   18.187(2)
_cell_length_c                   10.449(4)
_cell_angle_alpha                90
_cell_angle_beta                 105.93(3)
_cell_angle_gamma                90
_cell_volume                     1744.24
_cell_formula_units_Z            4
loop_
_atom_site_label
_atom_site_type_symbol
_atom_site_fract_x
_atom_site_fract_y
_atom_site_fract_z
N1 N 0.5966(2) 0.2126(1) -0.0819(2)
C1 C 0.7582(3) 0.2045(2) -0.0423(3)
N2 N 0.8020(3) 0.1586(1) 0.0793(2)
C2 C 0.6858(3) 0.1370(2) 0.1054(3)
C3 C 0.5472(3) 0.1671(2) 0.0150(3)
C4 C 0.5412(3) 0.2497(2) 0.0209(3)
C5 C 0.8103(3) 0.1693(2) -0.1526(3)
C6 C 0.9147(3) 0.2036(2) -0.2015(3)
C7 C 0.9637(3) 0.1702(2) -0.3023(3)
C8 C 0.9089(3) 0.1029(2) -0.3522(3)
C9 C 0.8047(3) 0.0680(2) -0.3029(3)
C10 C 0.7553(3) 0.1009(2) -0.2035(3)
C11 C 0.6911(3) 0.0898(2) 0.2259(3)
O1 O 0.7964(2) 0.0591(1) 0.2930(2)
O2 O 0.5583(2) 0.0894(1) 0.2452(2)
C12 C 0.5413(4) 0.0461(2) 0.3553(3)
C13 C 0.4218(3) 0.1149(2) -0.0370(3)
O3 O 0.4312(3) 0.0643(1) -0.1083(3)
O4 O 0.3073(2) 0.1289(1) 0.0072(2)
C14 C 0.4047(3) 0.2934(1) -0.0248(3)
C15 C 0.3649(3) 0.3390(2) 0.0671(3)
C16 C 0.2389(3) 0.3813(2) 0.0289(3)
C17 C 0.1512(3) 0.3784(2) -0.1011(3)
C18 C 0.1920(3) 0.3339(2) -0.1934(3)
C19 C 0.3172(3) 0.2918(2) -0.1564(3)
C20 C 0.1919(3) 0.0742(2) -0.0274(3)
loop_
_geom_bond_atom_site_label_1
_geom_bond_atom_site_label_2
_geom_bond_site_symmetry_1
_geom_bond_site_symmetry_2
N1 C1 1_555 1_555
C1 N2 1_555 1_555
N2 C2 1_555 1_555
C2 C3 1_555 1_555
C3 N1 1_555 1_555
C4 N1 1_555 1_555
C5 C1 1_555 1_555
C6 C5 1_555 1_555
C7 C6 1_555 1_555
C8 C7 1_555 1_555
C9 C8 1_555 1_555
C10 C5 1_555 1_555
C11 C2 1_555 1_555
O1 C11 1_555 1_555
O2 C11 1_555 1_555
C12 O2 1_555 1_555
C13 C3 1_555 1_555
O3 C13 1_555 1_555
O4 C13 1_555 1_555
C14 C4 1_555 1_555
C15 C14 1_555 1_555
C16 C15 1_555 1_555
C17 C16 1_555 1_555
C18 C17 1_555 1_555
C19 C14 1_555 1_555
C20 O4 1_555 1_555
C3 C4 1_555 1_555
C9 C10 1_555 1_555
C18 C19 1_555 1_555

#END
