
#######################################################################
#
#                 Cambridge Crystallographic Data Centre
#                                CCDC 
#
#######################################################################
#
# If this CIF has been generated from an entry in the Cambridge 
# Structural Database, then it will include bibliographic, chemical, 
# crystal, experimental, refinement or atomic coordinate data resulting 
# from the CCDC's data processing and validation procedures.
#
#######################################################################

data_GEZZAP
_chemical_formula_moiety         'C33 H25 Cl1 N1 O1 P1,C1 H1 Cl3,H2 O1'
_chemical_name_systematic        
'6-chloro-2-[(diphenylphosphoryl)(diphenyl)methyl]-1H-indole chloroform solvate monohydrate'
_symmetry_cell_setting           monoclinic
_symmetry_space_group_name_H-M   'P 21/n'
_symmetry_Int_Tables_number      14
_space_group_name_Hall           '-P 2yn'
loop_
_symmetry_equiv_pos_site_id
_symmetry_equiv_pos_as_xyz
1 x,y,z
2 1/2-x,1/2+y,1/2-z
3 -x,-y,-z
4 1/2+x,1/2-y,1/2+z
_cell_length_a                   10.0969(3)
_cell_length_b                   24.9962(7)
_cell_length_c                   13.2961(4)
_cell_angle_alpha                90
_cell_angle_beta                 110.0340(10)
_cell_angle_gamma                90
_cell_volume                     3152.67
_exptl_crystal_colour            colorless
_exptl_crystal_description       prismatic
_cell_formula_units_Z            4
_exptl_crystal_recrystallization_method 'Re-crystallisation from solvent'
loop_
_atom_site_label
_atom_site_type_symbol
_atom_site_fract_x
_atom_site_fract_y
_atom_site_fract_z
P1 P 0.30883(8) 0.39314(3) 0.31109(6)
Cl1 Cl 0.71150(10) 0.66242(4) 0.25801(9)
N1 N 0.3515(3) 0.51381(10) 0.2566(2)
O1 O 0.3763(2) 0.42448(8) 0.41069(16)
C1 C 0.4265(3) 0.54761(11) 0.2145(2)
C2 C 0.5223(3) 0.58747(12) 0.2644(3)
H1 H 0.5436 0.5959 0.3363
C3 C 0.5837(3) 0.61379(12) 0.2006(3)
C4 C 0.5515(4) 0.60244(13) 0.0923(3)
H2 H 0.5938 0.6220 0.0520
C5 C 0.4576(4) 0.56260(13) 0.0449(3)
H3 H 0.4370 0.5547 -0.0272
C6 C 0.3930(3) 0.53393(12) 0.1058(2)
C7 C 0.2948(3) 0.49057(12) 0.0847(2)
H4 H 0.2536 0.4734 0.0193
C8 C 0.2725(3) 0.47903(11) 0.1777(2)
C9 C 0.1810(3) 0.43741(11) 0.2054(2)
C10 C 0.0809(3) 0.46657(12) 0.2528(2)
C11 C 0.0171(4) 0.51338(14) 0.2032(3)
H5 H 0.0420 0.5276 0.1475
C12 C -0.0825(4) 0.53906(16) 0.2353(3)
H6 H -0.1253 0.5700 0.2004
C13 C -0.1192(4) 0.51929(16) 0.3186(3)
H7 H -0.1860 0.5369 0.3403
C14 C -0.0565(4) 0.47353(15) 0.3692(3)
H8 H -0.0803 0.4601 0.4260
C15 C 0.0428(3) 0.44705(13) 0.3364(3)
H9 H 0.0841 0.4158 0.3710
C16 C 0.0975(3) 0.40399(12) 0.1075(2)
C17 C -0.0473(3) 0.39717(14) 0.0786(3)
H10 H -0.0958 0.4157 0.1158
C18 C -0.1208(4) 0.36360(17) -0.0039(3)
H11 H -0.2176 0.3596 -0.0214
C19 C -0.0513(4) 0.33603(16) -0.0604(3)
H12 H -0.1003 0.3126 -0.1147
C20 C 0.0924(4) 0.34355(15) -0.0358(3)
H13 H 0.1396 0.3258 -0.0750
C21 C 0.1655(3) 0.37722(13) 0.0466(2)
H14 H 0.2617 0.3822 0.0619
C22 C 0.2205(3) 0.33456(11) 0.3378(3)
C23 C 0.1320(4) 0.30082(13) 0.2601(3)
H15 H 0.1112 0.3084 0.1878
C24 C 0.0754(4) 0.25610(15) 0.2912(3)
H16 H 0.0152 0.2339 0.2394
C25 C 0.1066(4) 0.24392(15) 0.3975(3)
H17 H 0.0674 0.2139 0.4175
C26 C 0.1956(5) 0.27621(16) 0.4733(3)
H18 H 0.2186 0.2676 0.5454
C27 C 0.2520(4) 0.32157(14) 0.4444(3)
H19 H 0.3116 0.3435 0.4971
C28 C 0.4412(3) 0.36796(12) 0.2590(2)
C29 C 0.4430(4) 0.31536(14) 0.2255(3)
H20 H 0.3709 0.2921 0.2249
C30 C 0.5517(4) 0.29752(17) 0.1931(4)
H21 H 0.5519 0.2623 0.1705
C31 C 0.6590(4) 0.33112(18) 0.1940(3)
H22 H 0.7317 0.3189 0.1721
C32 C 0.6587(4) 0.38299(17) 0.2276(3)
H23 H 0.7316 0.4059 0.2282
C33 C 0.5511(3) 0.40156(14) 0.2604(3)
H24 H 0.5524 0.4367 0.2834
H25 H 0.348(4) 0.5157(14) 0.316(3)
Cl2 Cl 0.9110(4) 0.33834(18) 0.5113(4)
Cl3 Cl 0.8108(5) 0.35201(16) 0.6826(2)
Cl4 Cl 0.6438(5) 0.29429(18) 0.5072(3)
C34 C 0.7611(6) 0.3442(2) 0.5416(4)
H26 H 0.707(8) 0.368(3) 0.489(6)
O2 O 0.6486(4) 0.46630(15) 0.5183(3)
H27 H 0.662(8) 0.506(3) 0.513(6)
H28 H 0.561(7) 0.451(3) 0.469(5)
Cl5? Cl 0.8311(9) 0.3008(4) 0.4695(6)
Cl6? Cl 0.8911(10) 0.3624(4) 0.6370(8)
Cl7? Cl 0.6518(10) 0.3092(4) 0.5790(8)
loop_
_geom_bond_atom_site_label_1
_geom_bond_atom_site_label_2
_geom_bond_site_symmetry_1
_geom_bond_site_symmetry_2
P1 O1 1_555 1_555
Cl1 C3 1_555 1_555
N1 C1 1_555 1_555
C1 C2 1_555 1_555
C2 H1 1_555 1_555
C3 C2 1_555 1_555
C4 C3 1_555 1_555
H2 C4 1_555 1_555
C5 C4 1_555 1_555
H3 C5 1_555 1_555
C6 C1 1_555 1_555
C7 C6 1_555 1_555
H4 C7 1_555 1_555
C8 N1 1_555 1_555
C9 P1 1_555 1_555
C10 C9 1_555 1_555
C11 C10 1_555 1_555
H5 C11 1_555 1_555
C12 C11 1_555 1_555
H6 C12 1_555 1_555
C13 C12 1_555 1_555
H7 C13 1_555 1_555
C14 C13 1_555 1_555
H8 C14 1_555 1_555
C15 C10 1_555 1_555
H9 C15 1_555 1_555
C16 C9 1_555 1_555
C17 C16 1_555 1_555
H10 C17 1_555 1_555
C18 C17 1_555 1_555
H11 C18 1_555 1_555
C19 C18 1_555 1_555
H12 C19 1_555 1_555
C20 C19 1_555 1_555
H13 C20 1_555 1_555
C21 C16 1_555 1_555
H14 C21 1_555 1_555
C22 P1 1_555 1_555
C23 C22 1_555 1_555
H15 C23 1_555 1_555
C24 C23 1_555 1_555
H16 C24 1_555 1_555
C25 C24 1_555 1_555
H17 C25 1_555 1_555
C26 C25 1_555 1_555
H18 C26 1_555 1_555
C27 C22 1_555 1_555
H19 C27 1_555 1_555
C28 P1 1_555 1_555
C29 C28 1_555 1_555
H20 C29 1_555 1_555
C30 C29 1_555 1_555
H21 C30 1_555 1_555
C31 C30 1_555 1_555
H22 C31 1_555 1_555
C32 C31 1_555 1_555
H23 C32 1_555 1_555
C33 C28 1_555 1_555
H24 C33 1_555 1_555
H25 N1 1_555 1_555
Cl2 C34 1_555 1_555
Cl3 C34 1_555 1_555
Cl4 C34 1_555 1_555
C34 H26 1_555 1_555
O2 H27 1_555 1_555
H28 O2 1_555 1_555
C5 C6 1_555 1_555
C7 C8 1_555 1_555
C8 C9 1_555 1_555
C14 C15 1_555 1_555
C20 C21 1_555 1_555
C26 C27 1_555 1_555
C32 C33 1_555 1_555

#END
