
#######################################################################
#
#                 Cambridge Crystallographic Data Centre
#                                CCDC 
#
#######################################################################
#
# If this CIF has been generated from an entry in the Cambridge 
# Structural Database, then it will include bibliographic, chemical, 
# crystal, experimental, refinement or atomic coordinate data resulting 
# from the CCDC's data processing and validation procedures.
#
#######################################################################

data_GEZZET
_chemical_formula_moiety         'C33 H24 Cl2 N1 O1 P1,C4 H8 O2'
_chemical_name_systematic        
'3-[bis(4-chlorophenyl)phosphoryl]-2-(diphenylmethyl)-1H-indole 1,4-dioxane solvate'
_symmetry_cell_setting           orthorhombic
_symmetry_space_group_name_H-M   'P b c a'
_symmetry_Int_Tables_number      61
_space_group_name_Hall           '-P 2ac 2ab'
loop_
_symmetry_equiv_pos_site_id
_symmetry_equiv_pos_as_xyz
1 x,y,z
2 1/2-x,-y,1/2+z
3 -x,1/2+y,1/2-z
4 1/2+x,1/2-y,-z
5 -x,-y,-z
6 1/2+x,y,1/2-z
7 x,1/2-y,1/2+z
8 1/2-x,1/2+y,z
_cell_length_a                   13.4763(8)
_cell_length_b                   18.3817(10)
_cell_length_c                   25.4001(13)
_cell_angle_alpha                90
_cell_angle_beta                 90
_cell_angle_gamma                90
_cell_volume                     6292.04
_exptl_crystal_colour            colorless
_exptl_crystal_description       block
_cell_formula_units_Z            8
loop_
_atom_site_label
_atom_site_type_symbol
_atom_site_fract_x
_atom_site_fract_y
_atom_site_fract_z
Cl1 Cl 0.53978(10) 0.91268(6) 0.52266(5)
Cl2 Cl 0.63659(10) 0.35795(7) 0.53161(5)
P1 P 0.50690(7) 0.63223(6) 0.66390(4)
O1 O 0.57439(19) 0.64178(17) 0.70976(10)
N1 N 0.2404(2) 0.62068(18) 0.72790(12)
H1 H 0.201(3) 0.631(2) 0.7480(17)
C1 C 0.2165(3) 0.5881(2) 0.68106(14)
C2 C 0.1248(3) 0.5623(2) 0.66335(16)
H2 H 0.067198 0.564988 0.684806
C3 C 0.1213(3) 0.5328(3) 0.61381(17)
H3 H 0.060312 0.514326 0.600737
C4 C 0.2056(3) 0.5297(3) 0.58242(18)
H4 H 0.200769 0.508848 0.548276
C5 C 0.2965(3) 0.5560(3) 0.59946(15)
H5 H 0.353042 0.554476 0.577150
C6 C 0.3029(3) 0.5849(2) 0.65036(14)
C7 C 0.3817(3) 0.6171(2) 0.68185(14)
C8 C 0.3381(3) 0.6384(2) 0.72855(13)
C9 C 0.3822(3) 0.6805(2) 0.77402(13)
H6 H 0.455843 0.678079 0.769611
C10 C 0.3594(3) 0.6469(2) 0.82748(14)
C11 C 0.3635(3) 0.6889(3) 0.87277(15)
H7 H 0.375474 0.739657 0.869915
C12 C 0.3505(4) 0.6581(3) 0.92233(16)
H8 H 0.354256 0.687362 0.953076
C13 C 0.3322(3) 0.5852(3) 0.92624(18)
H9 H 0.322405 0.564112 0.959971
C14 C 0.3279(4) 0.5422(3) 0.88233(19)
H10 H 0.315545 0.491488 0.885647
C15 C 0.3416(3) 0.5729(2) 0.83293(16)
H11 H 0.338782 0.542958 0.802497
C16 C 0.3537(3) 0.7600(2) 0.76722(15)
C17 C 0.4217(4) 0.8086(2) 0.74570(17)
H12 H 0.487409 0.793018 0.738053
C18 C 0.3934(5) 0.8799(3) 0.7354(2)
H13 H 0.440239 0.912506 0.720512
C19 C 0.3003(6) 0.9041(3) 0.7462(3)
H14 H 0.282159 0.952916 0.738698
C20 C 0.2331(5) 0.8573(3) 0.7680(3)
H15 H 0.168505 0.874132 0.776626
C21 C 0.2586(4) 0.7847(2) 0.7779(2)
H16 H 0.210480 0.752267 0.791955
C22 C 0.5110(3) 0.7104(2) 0.62138(14)
C23 C 0.6036(3) 0.7371(3) 0.6077(2)
H17 H 0.661548 0.712608 0.619470
C24 C 0.6126(4) 0.7991(3) 0.5772(2)
H18 H 0.676316 0.817213 0.568007
C25 C 0.5290(3) 0.8339(2) 0.56043(16)
C26 C 0.4366(3) 0.8081(3) 0.57297(18)
H19 H 0.378768 0.832716 0.561094
C27 C 0.4285(3) 0.7458(3) 0.60304(17)
H20 H 0.364531 0.727204 0.611188
C28 C 0.5442(3) 0.5562(2) 0.62424(14)
C29 C 0.5558(4) 0.4888(3) 0.64893(17)
H21 H 0.543456 0.484823 0.685642
C30 C 0.5847(4) 0.4279(3) 0.62127(18)
H22 H 0.591527 0.382282 0.638502
C31 C 0.6038(3) 0.4343(2) 0.56792(17)
C32 C 0.5953(3) 0.5000(2) 0.54278(16)
H23 H 0.609928 0.503754 0.506296
C33 C 0.5653(3) 0.5610(2) 0.57070(15)
H24 H 0.559138 0.606375 0.553154
C34 C 0.5987(5) 0.8191(3) 0.8549(2)
H25 H 0.531470 0.822501 0.870454
H26 H 0.594647 0.832964 0.817297
C35 C 0.6654(5) 0.8655(4) 0.8820(3)
H27 H 0.628973 0.910442 0.891484
H28 H 0.718467 0.879687 0.857080
C36 C 0.6941(5) 0.7783(3) 0.9474(2)
H29 H 0.667409 0.785631 0.983336
H30 H 0.757863 0.752120 0.951213
C37 C 0.6248(5) 0.7293(4) 0.9192(2)
H31 H 0.555889 0.736751 0.931670
H32 H 0.643281 0.677789 0.924846
O2 O 0.6346(7) 0.7503(5) 0.8598(3)
O3 O 0.6540(8) 0.8471(6) 0.9430(4)
H33? H 0.540777 0.849462 0.845280
H34? H 0.631737 0.805795 0.821447
H35? H 0.648692 0.917161 0.875304
H36? H 0.734373 0.856657 0.870237
H37? H 0.699744 0.764053 0.984871
H38? H 0.760836 0.776543 0.931187
H39? H 0.577844 0.709302 0.945488
H40? H 0.663854 0.687942 0.905375
O4? O 0.5637(8) 0.7603(5) 0.8737(4)
O5? O 0.7125(8) 0.8381(6) 0.9294(4)
loop_
_geom_bond_atom_site_label_1
_geom_bond_atom_site_label_2
_geom_bond_site_symmetry_1
_geom_bond_site_symmetry_2
Cl1 C25 1_555 1_555
Cl2 C31 1_555 1_555
P1 O1 1_555 1_555
N1 H1 1_555 1_555
C1 N1 1_555 1_555
C2 C1 1_555 1_555
H2 C2 1_555 1_555
C3 C2 1_555 1_555
H3 C3 1_555 1_555
C4 C3 1_555 1_555
H4 C4 1_555 1_555
C5 C4 1_555 1_555
H5 C5 1_555 1_555
C6 C1 1_555 1_555
C7 P1 1_555 1_555
C8 N1 1_555 1_555
C9 C8 1_555 1_555
H6 C9 1_555 1_555
C10 C9 1_555 1_555
C11 C10 1_555 1_555
H7 C11 1_555 1_555
C12 C11 1_555 1_555
H8 C12 1_555 1_555
C13 C12 1_555 1_555
H9 C13 1_555 1_555
C14 C13 1_555 1_555
H10 C14 1_555 1_555
C15 C10 1_555 1_555
H11 C15 1_555 1_555
C16 C9 1_555 1_555
C17 C16 1_555 1_555
H12 C17 1_555 1_555
C18 C17 1_555 1_555
H13 C18 1_555 1_555
C19 C18 1_555 1_555
H14 C19 1_555 1_555
C20 C19 1_555 1_555
H15 C20 1_555 1_555
C21 C16 1_555 1_555
H16 C21 1_555 1_555
C22 P1 1_555 1_555
C23 C22 1_555 1_555
H17 C23 1_555 1_555
C24 C23 1_555 1_555
H18 C24 1_555 1_555
C25 C24 1_555 1_555
C26 C25 1_555 1_555
H19 C26 1_555 1_555
C27 C22 1_555 1_555
H20 C27 1_555 1_555
C28 P1 1_555 1_555
C29 C28 1_555 1_555
H21 C29 1_555 1_555
C30 C29 1_555 1_555
H22 C30 1_555 1_555
C31 C30 1_555 1_555
C32 C31 1_555 1_555
H23 C32 1_555 1_555
C33 C28 1_555 1_555
H24 C33 1_555 1_555
C34 H25 1_555 1_555
H26 C34 1_555 1_555
C35 C34 1_555 1_555
H27 C35 1_555 1_555
H28 C35 1_555 1_555
C36 H29 1_555 1_555
H30 C36 1_555 1_555
C37 C36 1_555 1_555
H31 C37 1_555 1_555
H32 C37 1_555 1_555
O2 C34 1_555 1_555
O3 C35 1_555 1_555
C5 C6 1_555 1_555
C6 C7 1_555 1_555
C7 C8 1_555 1_555
C14 C15 1_555 1_555
C20 C21 1_555 1_555
C26 C27 1_555 1_555
C32 C33 1_555 1_555
C36 O3 1_555 1_555
C37 O2 1_555 1_555

#END
