
#######################################################################
#
#                 Cambridge Crystallographic Data Centre
#                                CCDC 
#
#######################################################################
#
# If this CIF has been generated from an entry in the Cambridge 
# Structural Database, then it will include bibliographic, chemical, 
# crystal, experimental, refinement or atomic coordinate data resulting 
# from the CCDC's data processing and validation procedures.
#
#######################################################################

data_GEZZOD
_chemical_formula_moiety         'C21 H19 N3 O1'
_chemical_name_systematic        
4-methoxy-N-{[2-(1H-pyrrolo[2,3-b]pyridin-1-yl)phenyl]methyl}aniline
_symmetry_cell_setting           triclinic
_symmetry_space_group_name_H-M   'P -1'
_symmetry_Int_Tables_number      2
_space_group_name_Hall           '-P 1'
loop_
_symmetry_equiv_pos_site_id
_symmetry_equiv_pos_as_xyz
1 x,y,z
2 -x,-y,-z
_cell_length_a                   6.9400(2)
_cell_length_b                   9.9344(2)
_cell_length_c                   13.3649(3)
_cell_angle_alpha                103.3295(13)
_cell_angle_beta                 90.5132(13)
_cell_angle_gamma                109.2931(12)
_cell_volume                     842.619
_exptl_crystal_colour            pink
_exptl_crystal_description       block
_cell_formula_units_Z            2
loop_
_atom_site_label
_atom_site_type_symbol
_atom_site_fract_x
_atom_site_fract_y
_atom_site_fract_z
C1 C 0.6147(3) 0.68992(18) 0.57557(12)
H1 H 0.7231 0.6755 0.5365
C2 C 0.4456(3) 0.69667(19) 0.52311(13)
H2 H 0.4411 0.6864 0.4506
C3 C 0.2852(3) 0.71807(18) 0.57564(14)
H3 H 0.1685 0.7221 0.5404
C4 C 0.2980(2) 0.73395(15) 0.68290(13)
C5 C 0.4767(2) 0.72276(14) 0.72640(11)
C6 C 0.2781(2) 0.75897(17) 0.85326(14)
H4 H 0.2307 0.7728 0.9200
C7 C 0.1753(2) 0.75779(17) 0.76563(15)
H5 H 0.0460 0.7705 0.7606
C8 C 0.6082(2) 0.72740(15) 0.90305(10)
C9 C 0.7161(2) 0.85241(16) 0.97934(11)
H6 H 0.6938 0.9426 0.9827
C10 C 0.8566(2) 0.84494(18) 1.05063(11)
H7 H 0.9305 0.9300 1.1031
C11 C 0.8882(2) 0.71341(18) 1.04494(11)
H8 H 0.9850 0.7082 1.0933
C12 C 0.7788(2) 0.58820(17) 0.96858(11)
H9 H 0.8019 0.4983 0.9655
C13 C 0.6361(2) 0.59292(15) 0.89676(10)
C14 C 0.5076(2) 0.45570(15) 0.81616(11)
H10 H 0.3608 0.4406 0.8241
H11 H 0.5349 0.4726 0.7467
C15 C 0.6947(2) 0.28134(15) 0.76755(10)
C16 C 0.8518(2) 0.38295(15) 0.73002(10)
H12 H 0.8528 0.4809 0.7392
C17 C 1.0043(2) 0.34250(15) 0.68009(10)
H13 H 1.1091 0.4128 0.6553
C18 C 1.0066(2) 0.20036(16) 0.66561(10)
C19 C 0.8514(2) 0.09732(15) 0.70081(11)
H14 H 0.8506 -0.0007 0.6904
C20 C 0.6972(2) 0.13780(15) 0.75134(11)
H15 H 0.5918 0.0667 0.7752
C21 C 1.1879(3) 0.03420(19) 0.60876(14)
H16 H 1.2000 0.0199 0.6784
H17 H 1.3108 0.0299 0.5745
H18 H 1.0668 -0.0435 0.5688
N1 N 0.63536(19) 0.70240(13) 0.67742(9)
N2 N 0.46179(17) 0.73722(13) 0.83111(9)
N3 N 0.54573(18) 0.32296(13) 0.82196(9)
H19 H 0.4733 0.2677 0.8606
O1 O 1.16795(18) 0.17333(12) 0.61534(9)
loop_
_geom_bond_atom_site_label_1
_geom_bond_atom_site_label_2
_geom_bond_site_symmetry_1
_geom_bond_site_symmetry_2
C1 H1 1_555 1_555
C2 C1 1_555 1_555
H2 C2 1_555 1_555
C3 C2 1_555 1_555
H3 C3 1_555 1_555
C4 C3 1_555 1_555
C5 C4 1_555 1_555
C6 H4 1_555 1_555
C7 C4 1_555 1_555
H5 C7 1_555 1_555
C8 C9 1_555 1_555
C9 H6 1_555 1_555
C10 C9 1_555 1_555
H7 C10 1_555 1_555
C11 C10 1_555 1_555
H8 C11 1_555 1_555
C12 C11 1_555 1_555
H9 C12 1_555 1_555
C13 C8 1_555 1_555
C14 C13 1_555 1_555
H10 C14 1_555 1_555
H11 C14 1_555 1_555
C15 C16 1_555 1_555
C16 H12 1_555 1_555
C17 C16 1_555 1_555
H13 C17 1_555 1_555
C18 C17 1_555 1_555
C19 C18 1_555 1_555
H14 C19 1_555 1_555
C20 C15 1_555 1_555
H15 C20 1_555 1_555
C21 H16 1_555 1_555
H17 C21 1_555 1_555
H18 C21 1_555 1_555
N1 C1 1_555 1_555
N2 C5 1_555 1_555
N3 C14 1_555 1_555
H19 N3 1_555 1_555
O1 C18 1_555 1_555
C5 N1 1_555 1_555
C6 C7 1_555 1_555
C6 N2 1_555 1_555
C8 N2 1_555 1_555
C12 C13 1_555 1_555
C15 N3 1_555 1_555
C19 C20 1_555 1_555
C21 O1 1_555 1_555

#END
