
#######################################################################
#
#                 Cambridge Crystallographic Data Centre
#                                CCDC 
#
#######################################################################
#
# If this CIF has been generated from an entry in the Cambridge 
# Structural Database, then it will include bibliographic, chemical, 
# crystal, experimental, refinement or atomic coordinate data resulting 
# from the CCDC's data processing and validation procedures.
#
#######################################################################

data_GIBBOK
_chemical_formula_moiety         'C6 H2 N3 O9 1-,C2 H5 N4 1+'
_chemical_name_systematic        
'4-Amino-4H-1,2,4-triazol-1-ium 3,5-dihydroxy-2,4,6-trinitrophenolate'
_symmetry_cell_setting           monoclinic
_symmetry_space_group_name_H-M   'P 21/c'
_symmetry_Int_Tables_number      14
_space_group_name_Hall           '-P 2ybc'
loop_
_symmetry_equiv_pos_site_id
_symmetry_equiv_pos_as_xyz
1 x,y,z
2 -x,1/2+y,1/2-z
3 -x,-y,-z
4 x,1/2-y,1/2+z
_cell_length_a                   11.303(4)
_cell_length_b                   5.5782(19)
_cell_length_c                   20.257(8)
_cell_angle_alpha                90
_cell_angle_beta                 101.497(6)
_cell_angle_gamma                90
_cell_volume                     1251.58
_exptl_crystal_colour            yellow
_exptl_crystal_description       Prism
_cell_formula_units_Z            4
loop_
_atom_site_label
_atom_site_type_symbol
_atom_site_fract_x
_atom_site_fract_y
_atom_site_fract_z
O1 O 0.14522(11) 0.7246(2) 0.16382(6)
O2 O 0.11729(11) 0.9495(2) 0.04059(6)
O3 O 0.27479(12) 1.1761(2) 0.05246(7)
O4 O 0.44822(12) 0.8729(2) 0.03926(7)
O5 O 0.62666(12) 0.5946(3) 0.05832(7)
O6 O 0.63978(11) 0.2983(2) 0.12824(7)
O7 O 0.48304(12) 0.2231(2) 0.19925(7)
O8 O 0.32570(12) 0.3326(2) 0.28894(6)
O9 O 0.17633(13) 0.2318(3) 0.20908(7)
N1 N 0.22540(13) 0.9868(3) 0.06196(7)
N2 N 0.58371(13) 0.4779(3) 0.10126(7)
N3 N 0.27113(13) 0.3391(3) 0.23005(7)
C1 C 0.24494(14) 0.6713(3) 0.14894(8)
C2 C 0.29618(14) 0.7968(3) 0.09949(8)
C3 C 0.40787(15) 0.7432(3) 0.08502(8)
C4 C 0.47496(14) 0.5461(3) 0.11819(8)
C5 C 0.42844(14) 0.4143(3) 0.16792(8)
C6 C 0.32002(14) 0.4832(3) 0.18208(8)
H1 H 0.517(2) 0.810(5) 0.0334(13)
H2 H 0.550(2) 0.198(4) 0.1833(13)
N4 N -0.09246(13) 0.0995(3) 0.17545(7)
N5 N -0.10736(12) 0.3044(3) 0.20971(7)
H3 H -0.121(2) 0.291(4) 0.2525(13)
N6 N -0.08736(12) 0.4189(3) 0.11311(7)
N7 N -0.0782(2) 0.5648(4) 0.05822(9)
C7 C -0.08003(16) 0.1763(3) 0.11643(9)
H4 H -0.0675 0.0759 0.0806
C8 C -0.10460(14) 0.4950(3) 0.17287(8)
H5 H -0.1132 0.6565 0.1860
H6 H -0.012(3) 0.627(5) 0.0592(16)
H7 H -0.141(2) 0.591(4) 0.0354(13)
loop_
_geom_bond_atom_site_label_1
_geom_bond_atom_site_label_2
_geom_bond_site_symmetry_1
_geom_bond_site_symmetry_2
O1 C1 1_555 1_555
O2 N1 1_555 1_555
O3 N1 1_555 1_555
O4 C3 1_555 1_555
O5 N2 1_555 1_555
O6 N2 1_555 1_555
O7 C5 1_555 1_555
O8 N3 1_555 1_555
O9 N3 1_555 1_555
N1 C2 1_555 1_555
N2 C4 1_555 1_555
N3 C6 1_555 1_555
C1 C2 1_555 1_555
C2 C3 1_555 1_555
C3 C4 1_555 1_555
C4 C5 1_555 1_555
C5 C6 1_555 1_555
C6 C1 1_555 1_555
H1 O4 1_555 1_555
H2 O7 1_555 1_555
N4 N5 1_555 1_555
N5 H3 1_555 1_555
N6 N7 1_555 1_555
N7 H6 1_555 1_555
C7 N4 1_555 1_555
H4 C7 1_555 1_555
C8 N5 1_555 1_555
H5 C8 1_555 1_555
H7 N7 1_555 1_555
N6 C7 1_555 1_555
N6 C8 1_555 1_555

#END
