
#######################################################################
#
#                 Cambridge Crystallographic Data Centre
#                                CCDC 
#
#######################################################################
#
# If this CIF has been generated from an entry in the Cambridge 
# Structural Database, then it will include bibliographic, chemical, 
# crystal, experimental, refinement or atomic coordinate data resulting 
# from the CCDC's data processing and validation procedures.
#
#######################################################################

data_GIBDAY
_chemical_formula_moiety         'C18 H20 N2 O5'
_chemical_name_systematic        
'Ethyl 2-(hexahydro-3H-pyrrolizin-3-ylidene)-3-(2-nitrophenyl)-3-oxopropanoate'
_symmetry_cell_setting           triclinic
_symmetry_space_group_name_H-M   'P -1'
_symmetry_Int_Tables_number      2
_space_group_name_Hall           '-P 1'
loop_
_symmetry_equiv_pos_site_id
_symmetry_equiv_pos_as_xyz
1 x,y,z
2 -x,-y,-z
_cell_length_a                   8.081(3)
_cell_length_b                   8.123(3)
_cell_length_c                   26.136(6)
_cell_angle_alpha                87.437(10)
_cell_angle_beta                 87.531(10)
_cell_angle_gamma                89.59(3)
_cell_volume                     1712.29
_exptl_crystal_colour            colorless
_exptl_crystal_description       block
_chemical_melting_point          '380-381 K'
_cell_formula_units_Z            4
loop_
_atom_site_label
_atom_site_type_symbol
_atom_site_fract_x
_atom_site_fract_y
_atom_site_fract_z
C1 C 0.8507(3) 0.2627(3) 0.68769(11)
C2 C 0.7855(4) 0.2791(4) 0.73639(13)
H1 H 0.8538 0.2979 0.7633
C3 C 0.6166(4) 0.2674(5) 0.74475(14)
H2 H 0.5693 0.2787 0.7775
C4 C 0.5185(4) 0.2389(5) 0.70465(14)
H3 H 0.4044 0.2307 0.7103
C5 C 0.5874(4) 0.2223(4) 0.65631(13)
H4 H 0.5187 0.2031 0.6296
C6 C 0.7575(3) 0.2334(3) 0.64624(11)
C7 C 0.8307(3) 0.2420(4) 0.59258(11)
C8 C 0.7745(3) 0.1299(3) 0.55501(12)
C9 C 0.7326(4) -0.0394(4) 0.57154(13)
O1 O 0.7951(3) -0.0821(3) 0.61656(9)
C10 C 0.7303(15) -0.2402(17) 0.6378(6)
H5 H 0.7618 -0.3295 0.6159
H6 H 0.6106 -0.2369 0.6424
C11 C 0.8100(15) -0.2579(10) 0.6875(4)
H7 H 0.9282 -0.2555 0.6819
H8 H 0.7782 -0.3609 0.7044
H9 H 0.7755 -0.1690 0.7086
C12 C 0.7804(3) 0.1730(3) 0.50274(11)
C13 C 0.7759(4) 0.0522(4) 0.46070(12)
H10 H 0.6795 -0.0181 0.4656
H11 H 0.8746 -0.0164 0.4603
C14 C 0.7676(5) 0.1557(4) 0.41117(13)
H12 H 0.8529 0.1217 0.3865
H13 H 0.6604 0.1442 0.3964
C15 C 0.7943(4) 0.3317(4) 0.42500(12)
C16 C 0.6646(4) 0.4617(4) 0.41464(13)
H14 H 0.5540 0.4156 0.4182
H15 H 0.6810 0.5124 0.3805
C17 C 0.6919(4) 0.5848(4) 0.45548(12)
H16 H 0.5894 0.6417 0.4643
H17 H 0.7740 0.6657 0.4434
C18 C 0.7526(4) 0.4838(3) 0.50171(12)
H18 H 0.8502 0.5330 0.5149
H19 H 0.6670 0.4748 0.5289
N1 N 1.0323(3) 0.2719(3) 0.68086(10)
N2 N 0.7917(3) 0.3225(3) 0.48131(9)
O2 O 1.0985(3) 0.3905(3) 0.69713(10)
O3 O 1.1064(3) 0.1601(3) 0.66075(10)
O4 O 0.9303(3) 0.3520(3) 0.58206(8)
O5 O 0.6545(4) -0.1366(3) 0.54883(10)
H20 H 0.905(4) 0.376(3) 0.4117(10)
C21 C 0.2467(3) -0.0949(3) 0.81117(11)
C22 C 0.2381(4) -0.1443(4) 0.76195(13)
H26 H 0.2233 -0.0680 0.7349
C23 C 0.2520(5) -0.3104(5) 0.75364(15)
H27 H 0.2468 -0.3477 0.7206
C24 C 0.2733(5) -0.4198(4) 0.79390(15)
H28 H 0.2814 -0.5318 0.7881
C25 C 0.2830(4) -0.3677(4) 0.84297(13)
H29 H 0.2986 -0.4446 0.8698
C26 C 0.2696(3) -0.2014(3) 0.85298(11)
C27 C 0.2548(3) -0.1470(3) 0.90716(11)
C28 C 0.3676(3) -0.2115(3) 0.94481(11)
C29 C 0.5385(4) -0.2486(4) 0.92855(12)
O6 O 0.5821(2) -0.1719(3) 0.88386(9)
C30 C 0.7421(18) -0.2298(15) 0.8627(7)
H30 H 0.8297 -0.2130 0.8862
H31 H 0.7379 -0.3458 0.8555
C31 C 0.7675(10) -0.1276(14) 0.8154(4)
H32 H 0.6875 -0.1563 0.7912
H33 H 0.8771 -0.1462 0.8010
H34 H 0.7547 -0.0135 0.8229
C32 C 0.3247(3) -0.2192(3) 0.99733(11)
C33 C 0.4456(4) -0.2321(4) 1.03929(12)
H35 H 0.5090 -0.1314 1.0401
H36 H 0.5217 -0.3233 1.0341
C34 C 0.3434(4) -0.2603(4) 1.08861(12)
H37 H 0.3773 -0.1863 1.1143
H38 H 0.3558 -0.3730 1.1019
C35 C 0.1658(4) -0.2261(4) 1.07511(11)
C36 C 0.0358(4) -0.3552(4) 1.08662(13)
H39 H -0.0145 -0.3453 1.1207
H40 H 0.0818 -0.4652 1.0837
C37 C -0.0880(3) -0.3172(4) 1.04588(12)
H41 H -0.1681 -0.2359 1.0574
H42 H -0.1465 -0.4162 1.0380
C38 C 0.0127(3) -0.2504(4) 0.99905(12)
H43 H 0.0221 -0.3314 0.9729
H44 H -0.0374 -0.1508 0.9846
N3 N 0.2355(4) 0.0840(3) 0.81838(10)
N4 N 0.1738(3) -0.2160(3) 1.01896(9)
O7 O 0.1298(4) 0.1595(3) 0.79571(12)
O8 O 0.3320(3) 0.1473(3) 0.84461(10)
O9 O 0.1371(3) -0.0543(3) 0.91734(8)
O10 O 0.6354(3) -0.3357(3) 0.95131(10)
H45 H 0.123(3) -0.119(4) 1.0889(10)
C19? C 0.7897(19) -0.248(2) 0.6416(9)
H21? H 0.8897 -0.2704 0.6600
H22? H 0.7776 -0.3310 0.6166
C20? C 0.6412(17) -0.2440(16) 0.6780(5)
H23? H 0.6504 -0.1536 0.7001
H24? H 0.6352 -0.3455 0.6982
H25? H 0.5427 -0.2306 0.6589
C39? C 0.748(2) -0.172(2) 0.8581(10)
H46? H 0.8330 -0.1916 0.8829
H47? H 0.7698 -0.0678 0.8396
C40? C 0.7455(15) -0.3093(19) 0.8219(5)
H48? H 0.7198 -0.4108 0.8407
H49? H 0.8520 -0.3185 0.8045
H50? H 0.6628 -0.2866 0.7972
loop_
_geom_bond_atom_site_label_1
_geom_bond_atom_site_label_2
_geom_bond_site_symmetry_1
_geom_bond_site_symmetry_2
C1 C2 1_555 1_555
C2 H1 1_555 1_555
C3 C2 1_555 1_555
H2 C3 1_555 1_555
C4 C3 1_555 1_555
H3 C4 1_555 1_555
C5 C4 1_555 1_555
H4 C5 1_555 1_555
C6 C1 1_555 1_555
C7 C6 1_555 1_555
C8 C7 1_555 1_555
C9 C8 1_555 1_555
O1 C9 1_555 1_555
C10 O1 1_555 1_555
H5 C10 1_555 1_555
H6 C10 1_555 1_555
C11 C10 1_555 1_555
H7 C11 1_555 1_555
H8 C11 1_555 1_555
H9 C11 1_555 1_555
C12 C8 1_555 1_555
C13 C12 1_555 1_555
H10 C13 1_555 1_555
H11 C13 1_555 1_555
C14 C13 1_555 1_555
H12 C14 1_555 1_555
H13 C14 1_555 1_555
C15 C14 1_555 1_555
C16 C15 1_555 1_555
H14 C16 1_555 1_555
H15 C16 1_555 1_555
C17 C16 1_555 1_555
H16 C17 1_555 1_555
H17 C17 1_555 1_555
C18 C17 1_555 1_555
H18 C18 1_555 1_555
H19 C18 1_555 1_555
N1 C1 1_555 1_555
N2 C12 1_555 1_555
O2 N1 1_555 1_555
O3 N1 1_555 1_555
O4 C7 1_555 1_555
O5 C9 1_555 1_555
H20 C15 1_555 1_555
C21 C22 1_555 1_555
C22 H26 1_555 1_555
C23 C22 1_555 1_555
H27 C23 1_555 1_555
C24 C23 1_555 1_555
H28 C24 1_555 1_555
C25 C24 1_555 1_555
H29 C25 1_555 1_555
C26 C21 1_555 1_555
C27 C26 1_555 1_555
C28 C27 1_555 1_555
C29 C28 1_555 1_555
O6 C29 1_555 1_555
C30 O6 1_555 1_555
H30 C30 1_555 1_555
H31 C30 1_555 1_555
C31 C30 1_555 1_555
H32 C31 1_555 1_555
H33 C31 1_555 1_555
H34 C31 1_555 1_555
C32 C28 1_555 1_555
C33 C32 1_555 1_555
H35 C33 1_555 1_555
H36 C33 1_555 1_555
C34 C33 1_555 1_555
H37 C34 1_555 1_555
H38 C34 1_555 1_555
C35 C34 1_555 1_555
C36 C35 1_555 1_555
H39 C36 1_555 1_555
H40 C36 1_555 1_555
C37 C36 1_555 1_555
H41 C37 1_555 1_555
H42 C37 1_555 1_555
C38 C37 1_555 1_555
H43 C38 1_555 1_555
H44 C38 1_555 1_555
N3 C21 1_555 1_555
N4 C32 1_555 1_555
O7 N3 1_555 1_555
O8 N3 1_555 1_555
O9 C27 1_555 1_555
O10 C29 1_555 1_555
H45 C35 1_555 1_555
C5 C6 1_555 1_555
C15 N2 1_555 1_555
C18 N2 1_555 1_555
C25 C26 1_555 1_555
C35 N4 1_555 1_555
C38 N4 1_555 1_555

#END
