
#######################################################################
#
#                 Cambridge Crystallographic Data Centre
#                                CCDC 
#
#######################################################################
#
# If this CIF has been generated from an entry in the Cambridge 
# Structural Database, then it will include bibliographic, chemical, 
# crystal, experimental, refinement or atomic coordinate data resulting 
# from the CCDC's data processing and validation procedures.
#
#######################################################################

data_GIBFIJ
_chemical_formula_moiety         'C28 H26 O1'
_chemical_name_systematic        
9-(diphenylmethylidene)-5-methoxy-2,3,4,4a,9,9a-hexahydro-1H-1,4-methanofluorene
_symmetry_cell_setting           monoclinic
_symmetry_space_group_name_H-M   'P 21/n'
_symmetry_Int_Tables_number      14
_space_group_name_Hall           '-P 2yn'
loop_
_symmetry_equiv_pos_site_id
_symmetry_equiv_pos_as_xyz
1 x,y,z
2 1/2-x,1/2+y,1/2-z
3 -x,-y,-z
4 1/2+x,1/2-y,1/2+z
_cell_length_a                   9.9497(7)
_cell_length_b                   23.3460(12)
_cell_length_c                   10.3370(8)
_cell_angle_alpha                90
_cell_angle_beta                 117.278(9)
_cell_angle_gamma                90
_cell_volume                     2134.11
_exptl_crystal_colour            colorless
_exptl_crystal_description       block
_cell_formula_units_Z            4
loop_
_atom_site_label
_atom_site_type_symbol
_atom_site_fract_x
_atom_site_fract_y
_atom_site_fract_z
O1 O 0.34400(15) 0.43999(7) 0.30504(17)
C1 C 0.81739(19) 0.35195(7) 0.49773(19)
C2 C 0.58368(19) 0.39815(7) 0.4203(2)
C3 C 0.7097(2) 0.37815(7) 0.5425(2)
C4 C 0.74970(19) 0.35798(8) 0.33244(19)
H1 H 0.7358 0.3205 0.2852
C5 C 1.03995(19) 0.29804(8) 0.5157(2)
C6 C 0.9523(2) 0.32774(7) 0.5812(2)
C7 C 0.4627(2) 0.42305(7) 0.4326(2)
C8 C 0.5958(2) 0.38949(8) 0.2824(2)
H2 H 0.5113 0.3667 0.2116
C9 C 1.0292(2) 0.32932(8) 0.7438(2)
C10 C 1.0419(2) 0.28091(8) 0.8252(2)
H3 H 1.0031 0.2463 0.7783
C11 C 0.7153(2) 0.38360(8) 0.6799(2)
H4 H 0.7984 0.3703 0.7627
C12 C 0.5958(3) 0.40893(9) 0.6902(2)
H5 H 0.5997 0.4128 0.7814
C13 C 0.4702(2) 0.42886(8) 0.5695(2)
H6 H 0.3913 0.4460 0.5798
C14 C 0.8388(2) 0.39891(9) 0.2840(2)
H7 H 0.9487 0.3933 0.3340
C15 C 0.9797(2) 0.25154(8) 0.4239(2)
H8 H 0.8848 0.2376 0.4049
C16 C 1.1834(2) 0.31651(9) 0.5451(2)
H9 H 1.2272 0.3467 0.6097
C17 C 1.1117(2) 0.28311(11) 0.9760(2)
H10 H 1.1168 0.2504 1.0292
C18 C 0.6181(3) 0.44506(10) 0.2142(2)
H11 H 0.5501 0.4765 0.2082
C19 C 1.1998(3) 0.24567(10) 0.3871(3)
H12 H 1.2522 0.2287 0.3423
C20 C 1.0601(3) 0.22556(10) 0.3602(3)
H13 H 1.0188 0.1943 0.2989
C21 C 0.7681(3) 0.39735(12) 0.1173(2)
H14 H 0.7517 0.3582 0.0816
H15 H 0.8317 0.4169 0.0829
C22 C 1.2624(2) 0.29114(11) 0.4805(3)
H16 H 1.3577 0.3047 0.5000
C23 C 0.7861(3) 0.45730(10) 0.3100(3)
H17 H 0.8231 0.4888 0.2740
H18 H 0.8107 0.4636 0.4112
C24 C 1.0942(3) 0.37932(10) 0.8177(3)
H19 H 1.0895 0.4123 0.7653
C25 C 1.1730(3) 0.33301(12) 1.0465(3)
H20 H 1.2196 0.3344 1.1476
C26 C 1.1658(3) 0.38119(12) 0.9679(3)
H21 H 1.2092 0.4152 1.0158
C27 C 0.2141(2) 0.46186(12) 0.3122(3)
H22 H 0.1358 0.4692 0.2155
H23 H 0.2399 0.4968 0.3672
H24 H 0.1790 0.4343 0.3587
C28 C 0.6161(3) 0.42922(13) 0.0689(2)
H25 H 0.6112 0.4632 0.0129
H26 H 0.5311 0.4045 0.0111
loop_
_geom_bond_atom_site_label_1
_geom_bond_atom_site_label_2
_geom_bond_site_symmetry_1
_geom_bond_site_symmetry_2
O1 C7 1_555 1_555
C1 C3 1_555 1_555
C2 C3 1_555 1_555
C3 C11 1_555 1_555
C4 C1 1_555 1_555
H1 C4 1_555 1_555
C5 C6 1_555 1_555
C6 C1 1_555 1_555
C7 C2 1_555 1_555
C8 C2 1_555 1_555
H2 C8 1_555 1_555
C9 C6 1_555 1_555
C10 C9 1_555 1_555
H3 C10 1_555 1_555
C11 H4 1_555 1_555
C12 C11 1_555 1_555
H5 C12 1_555 1_555
C13 C7 1_555 1_555
H6 C13 1_555 1_555
C14 C4 1_555 1_555
H7 C14 1_555 1_555
C15 C5 1_555 1_555
H8 C15 1_555 1_555
C16 C5 1_555 1_555
H9 C16 1_555 1_555
C17 C10 1_555 1_555
H10 C17 1_555 1_555
C18 C8 1_555 1_555
H11 C18 1_555 1_555
C19 H12 1_555 1_555
C20 C15 1_555 1_555
H13 C20 1_555 1_555
C21 C14 1_555 1_555
H14 C21 1_555 1_555
H15 C21 1_555 1_555
C22 C16 1_555 1_555
H16 C22 1_555 1_555
C23 C14 1_555 1_555
H17 C23 1_555 1_555
H18 C23 1_555 1_555
C24 C9 1_555 1_555
H19 C24 1_555 1_555
C25 C17 1_555 1_555
H20 C25 1_555 1_555
C26 C24 1_555 1_555
H21 C26 1_555 1_555
C27 O1 1_555 1_555
H22 C27 1_555 1_555
H23 C27 1_555 1_555
H24 C27 1_555 1_555
C28 C18 1_555 1_555
H25 C28 1_555 1_555
H26 C28 1_555 1_555
C4 C8 1_555 1_555
C12 C13 1_555 1_555
C18 C23 1_555 1_555
C19 C20 1_555 1_555
C19 C22 1_555 1_555
C21 C28 1_555 1_555
C25 C26 1_555 1_555

#END
