
#######################################################################
#
#                 Cambridge Crystallographic Data Centre
#                                CCDC 
#
#######################################################################
#
# If this CIF has been generated from an entry in the Cambridge 
# Structural Database, then it will include bibliographic, chemical, 
# crystal, experimental, refinement or atomic coordinate data resulting 
# from the CCDC's data processing and validation procedures.
#
#######################################################################

data_GIBFOP
_chemical_formula_moiety         'C23 H24 O1'
_chemical_name_systematic        
5-methoxy-9-(1-phenylethylidene)-2,3,4,4a,9,9a-hexahydro-1H-1,4-methanofluorene
_symmetry_cell_setting           triclinic
_symmetry_space_group_name_H-M   'P -1'
_symmetry_Int_Tables_number      2
_space_group_name_Hall           '-P 1'
loop_
_symmetry_equiv_pos_site_id
_symmetry_equiv_pos_as_xyz
1 x,y,z
2 -x,-y,-z
_cell_length_a                   9.5076(6)
_cell_length_b                   10.1735(7)
_cell_length_c                   11.0649(6)
_cell_angle_alpha                100.526(5)
_cell_angle_beta                 108.648(5)
_cell_angle_gamma                114.007(6)
_cell_volume                     863.752
_exptl_crystal_colour            colorless
_cell_formula_units_Z            2
loop_
_atom_site_label
_atom_site_type_symbol
_atom_site_fract_x
_atom_site_fract_y
_atom_site_fract_z
O1 O 0.29025(15) 0.04170(13) 0.35786(12)
C1 C 0.63628(18) 0.52652(16) 0.70673(14)
C2 C 0.64569(18) 0.41289(16) 0.60950(14)
C3 C 0.44881(18) 0.46172(16) 0.67890(14)
H1 H 0.4057 0.5289 0.6502
C4 C 0.48336(18) 0.28517(16) 0.52988(14)
C5 C 0.76406(19) 0.66365(16) 0.80281(14)
C6 C 0.34914(18) 0.29922(16) 0.56497(14)
H2 H 0.2584 0.2914 0.4852
C7 C 0.4552(2) 0.16081(18) 0.42837(15)
C8 C 0.94737(19) 0.71580(16) 0.83826(14)
C9 C 0.2735(2) 0.18809(17) 0.63408(16)
H3 H 0.2450 0.0816 0.5922
C10 C 0.7832(2) 0.41998(19) 0.58340(16)
H4 H 0.8923 0.5058 0.6339
C11 C 0.4101(2) 0.42311(18) 0.79706(16)
H5 H 0.4893 0.5044 0.8874
C12 C 0.4119(2) 0.27200(19) 0.78194(17)
H6 H 0.3779 0.2250 0.8440
H7 H 0.5213 0.2826 0.7911
C13 C 1.0247(2) 0.6417(2) 0.90282(17)
H8 H 0.9611 0.5603 0.9244
C14 C 1.0462(2) 0.83863(18) 0.81007(19)
H9 H 0.9983 0.8923 0.7697
C15 C 0.7533(2) 0.2973(2) 0.48144(18)
H10 H 0.8440 0.3019 0.4635
C16 C 0.5922(2) 0.1672(2) 0.40480(17)
H11 H 0.5762 0.0850 0.3382
C17 C 0.7342(2) 0.77612(19) 0.88546(19)
H12 H 0.6146 0.7447 0.8454
H13 H 0.7996 0.8774 0.8860
H14 H 0.7693 0.7778 0.9776
C18 C 1.1941(2) 0.6866(2) 0.93548(19)
H15 H 1.2438 0.6359 0.9789
C19 C 0.1267(2) 0.2057(2) 0.6482(2)
H16 H 0.0634 0.1277 0.6784
H17 H 0.0485 0.1986 0.5623
C20 C 0.2202(2) 0.3690(2) 0.7578(2)
H18 H 0.1871 0.4367 0.7205
H19 H 0.1958 0.3652 0.8362
C21 C 0.2579(3) -0.0926(2) 0.2615(2)
H20 H 0.2887 -0.0664 0.1911
H21 H 0.1384 -0.1682 0.2215
H22 H 0.3248 -0.1338 0.3068
C22 C 1.2893(3) 0.8064(2) 0.9039(2)
H23 H 1.4031 0.8361 0.9246
C23 C 1.2153(3) 0.8822(2) 0.8414(3)
H24 H 1.2796 0.9635 0.8201
loop_
_geom_bond_atom_site_label_1
_geom_bond_atom_site_label_2
_geom_bond_site_symmetry_1
_geom_bond_site_symmetry_2
O1 C7 1_555 1_555
C1 C2 1_555 1_555
C2 C4 1_555 1_555
C3 C1 1_555 1_555
H1 C3 1_555 1_555
C4 C6 1_555 1_555
C5 C1 1_555 1_555
C6 C3 1_555 1_555
H2 C6 1_555 1_555
C7 C4 1_555 1_555
C8 C5 1_555 1_555
C9 C6 1_555 1_555
H3 C9 1_555 1_555
C10 C2 1_555 1_555
H4 C10 1_555 1_555
C11 C3 1_555 1_555
H5 C11 1_555 1_555
C12 C9 1_555 1_555
H6 C12 1_555 1_555
H7 C12 1_555 1_555
C13 C8 1_555 1_555
H8 C13 1_555 1_555
C14 C8 1_555 1_555
H9 C14 1_555 1_555
C15 C10 1_555 1_555
H10 C15 1_555 1_555
C16 C7 1_555 1_555
H11 C16 1_555 1_555
C17 C5 1_555 1_555
H12 C17 1_555 1_555
H13 C17 1_555 1_555
H14 C17 1_555 1_555
C18 C13 1_555 1_555
H15 C18 1_555 1_555
C19 C9 1_555 1_555
H16 C19 1_555 1_555
H17 C19 1_555 1_555
C20 C11 1_555 1_555
H18 C20 1_555 1_555
H19 C20 1_555 1_555
C21 O1 1_555 1_555
H20 C21 1_555 1_555
H21 C21 1_555 1_555
H22 C21 1_555 1_555
C22 C18 1_555 1_555
H23 C22 1_555 1_555
C23 C14 1_555 1_555
H24 C23 1_555 1_555
C11 C12 1_555 1_555
C15 C16 1_555 1_555
C19 C20 1_555 1_555
C22 C23 1_555 1_555

#END
