
#######################################################################
#
#                 Cambridge Crystallographic Data Centre
#                                CCDC 
#
#######################################################################
#
# If this CIF has been generated from an entry in the Cambridge 
# Structural Database, then it will include bibliographic, chemical, 
# crystal, experimental, refinement or atomic coordinate data resulting 
# from the CCDC's data processing and validation procedures.
#
#######################################################################

data_GIBGOQ
_chemical_formula_moiety         'C26 H24 O1 S1'
_chemical_name_systematic        
2-((5-methoxy-1,2,3,4,4a,9a-hexahydro-9H-1,4-methanofluoren-9-ylidene)(phenyl)methyl)thiophene
_symmetry_cell_setting           monoclinic
_symmetry_space_group_name_H-M   'P 21/n'
_symmetry_Int_Tables_number      14
_space_group_name_Hall           '-P 2yn'
loop_
_symmetry_equiv_pos_site_id
_symmetry_equiv_pos_as_xyz
1 x,y,z
2 1/2-x,1/2+y,1/2-z
3 -x,-y,-z
4 1/2+x,1/2-y,1/2+z
_cell_length_a                   11.1052(4)
_cell_length_b                   10.7198(4)
_cell_length_c                   17.6163(6)
_cell_angle_alpha                90
_cell_angle_beta                 104.009(4)
_cell_angle_gamma                90
_cell_volume                     2034.77
_exptl_crystal_colour            colorless
_exptl_crystal_description       plate
_cell_formula_units_Z            4
loop_
_atom_site_label
_atom_site_type_symbol
_atom_site_fract_x
_atom_site_fract_y
_atom_site_fract_z
S1 S 0.65026(9) 0.94058(9) 0.77050(4)
O1 O 0.70795(17) 0.93435(16) 0.36082(9)
C1 C 0.48644(19) 0.75718(15) 0.78404(9)
H1 H 0.4267 0.6946 0.7745
C2 C 0.54316(17) 0.81949(18) 0.50182(11)
C3 C 0.62974(18) 0.87643(18) 0.46750(11)
C4 C 0.52074(18) 0.79476(18) 0.64148(11)
C5 C 0.57944(18) 0.83777(18) 0.58742(11)
C6 C 0.69986(19) 0.91189(18) 0.60608(11)
H2 H 0.6907 0.9901 0.6329
C7 C 0.7335(2) 0.93675(19) 0.52629(12)
H3 H 0.7383 1.0263 0.5163
C8 C 0.41552(19) 0.70460(19) 0.61907(11)
C9 C 0.2905(2) 0.7424(2) 0.60643(13)
H4 H 0.2719 0.8256 0.6134
C10 C 0.6161(2) 0.87517(19) 0.38686(12)
C11 C 0.4388(2) 0.7612(2) 0.45341(12)
H5 H 0.3793 0.7233 0.4748
C12 C 0.5526(2) 0.8262(2) 0.72537(12)
C13 C 0.5143(2) 0.8170(2) 0.33977(12)
H6 H 0.5042 0.8148 0.2858
C14 C 0.4393(2) 0.5768(2) 0.60904(15)
H7 H 0.5204 0.5482 0.6166
C15 C 0.81263(19) 0.8365(2) 0.65165(13)
H8 H 0.7971 0.7870 0.6951
C16 C 0.8463(2) 0.7596(2) 0.58622(15)
H9 H 0.9229 0.7130 0.6039
H10 H 0.7798 0.7046 0.5600
C17 C 0.4267(2) 0.7615(2) 0.37370(13)
H11 H 0.3577 0.7234 0.3415
C18 C 0.8609(2) 0.8738(2) 0.53694(14)
H12 H 0.8839 0.8543 0.4880
C19 C 0.9231(2) 0.9264(3) 0.67449(15)
H13 H 0.9920 0.8882 0.7118
H14 H 0.8998 1.0029 0.6967
C20 C 0.1975(2) 0.6584(3) 0.58421(16)
H15 H 0.1156 0.6851 0.5746
C21 C 0.6999(3) 0.9325(3) 0.27905(14)
H16 H 0.6231 0.9698 0.2517
H17 H 0.7032 0.8478 0.2619
H18 H 0.7680 0.9786 0.2683
C22 C 0.9567(2) 0.9515(3) 0.59468(16)
H19 H 0.9489 1.0394 0.5812
H20 H 1.0405 0.9242 0.5961
C23 C 0.3411(3) 0.4951(2) 0.58802(16)
H21 H 0.3566 0.4109 0.5821
C24 C 0.2223(3) 0.5352(3) 0.57576(16)
H22 H 0.1573 0.4786 0.5615
C25 C 0.5481(3) 0.8222(3) 0.86006(16)
H23 H 0.5314 0.7987 0.9073
C26 C 0.6278(3) 0.9149(3) 0.85644(17)
H24 H 0.6673 0.9609 0.9002
H25? H 0.5314 0.7987 0.9073
H26? H 0.6673 0.9609 0.9002
S2? S 0.48644(19) 0.75718(15) 0.78404(9)
C27? C 0.65026(9) 0.94058(9) 0.77050(4)
H27? H 0.6994 0.9979 0.7521
loop_
_geom_bond_atom_site_label_1
_geom_bond_atom_site_label_2
_geom_bond_site_symmetry_1
_geom_bond_site_symmetry_2
S1 C12 1_555 1_555
O1 C10 1_555 1_555
C1 H1 1_555 1_555
C2 C3 1_555 1_555
C3 C7 1_555 1_555
C4 C5 1_555 1_555
C5 C2 1_555 1_555
C6 C5 1_555 1_555
H2 C6 1_555 1_555
C7 C6 1_555 1_555
H3 C7 1_555 1_555
C8 C4 1_555 1_555
C9 C8 1_555 1_555
H4 C9 1_555 1_555
C10 C3 1_555 1_555
C11 C2 1_555 1_555
H5 C11 1_555 1_555
C12 C1 1_555 1_555
C13 C10 1_555 1_555
H6 C13 1_555 1_555
C14 C8 1_555 1_555
H7 C14 1_555 1_555
C15 C6 1_555 1_555
H8 C15 1_555 1_555
C16 C15 1_555 1_555
H9 C16 1_555 1_555
H10 C16 1_555 1_555
C17 C11 1_555 1_555
H11 C17 1_555 1_555
C18 C7 1_555 1_555
H12 C18 1_555 1_555
C19 C15 1_555 1_555
H13 C19 1_555 1_555
H14 C19 1_555 1_555
C20 C9 1_555 1_555
H15 C20 1_555 1_555
C21 O1 1_555 1_555
H16 C21 1_555 1_555
H17 C21 1_555 1_555
H18 C21 1_555 1_555
C22 C18 1_555 1_555
H19 C22 1_555 1_555
H20 C22 1_555 1_555
C23 C14 1_555 1_555
H21 C23 1_555 1_555
C24 C20 1_555 1_555
H22 C24 1_555 1_555
C25 C1 1_555 1_555
H23 C25 1_555 1_555
C26 S1 1_555 1_555
H24 C26 1_555 1_555
C4 C12 1_555 1_555
C13 C17 1_555 1_555
C16 C18 1_555 1_555
C19 C22 1_555 1_555
C23 C24 1_555 1_555
C25 C26 1_555 1_555

#END
