
#######################################################################
#
#                 Cambridge Crystallographic Data Centre
#                                CCDC 
#
#######################################################################
#
# If this CIF has been generated from an entry in the Cambridge 
# Structural Database, then it will include bibliographic, chemical, 
# crystal, experimental, refinement or atomic coordinate data resulting 
# from the CCDC's data processing and validation procedures.
#
#######################################################################

data_GIBKEJ
_chemical_formula_moiety         'C16 H8 N2 O2 S2'
_chemical_name_systematic        
2,6-bis(2-Thienyl)[1,3]oxazolo[5,4-f][1,3]benzoxazole
_symmetry_cell_setting           monoclinic
_symmetry_space_group_name_H-M   'C 2/c'
_symmetry_Int_Tables_number      15
_space_group_name_Hall           '-C 2yn'
loop_
_symmetry_equiv_pos_site_id
_symmetry_equiv_pos_as_xyz
1 x,y,z
2 -x,y,1/2-z
3 1/2+x,1/2+y,z
4 1/2-x,1/2+y,1/2-z
5 -x,-y,-z
6 x,-y,1/2+z
7 1/2-x,1/2-y,-z
8 1/2+x,1/2-y,1/2+z
_cell_length_a                   12.5309(11)
_cell_length_b                   3.8960(2)
_cell_length_c                   28.733(2)
_cell_angle_alpha                90
_cell_angle_beta                 100.7600(10)
_cell_angle_gamma                90
_cell_volume                     1378.09
_exptl_crystal_colour            colorless
_exptl_crystal_description       needle-like
_cell_formula_units_Z            4
loop_
_atom_site_label
_atom_site_type_symbol
_atom_site_fract_x
_atom_site_fract_y
_atom_site_fract_z
S1 S 0.71516(7) -0.0342(2) 0.67996(3)
O1 O 0.70030(16) 0.4095(6) 0.55336(7)
N1 N 0.56520(18) 0.2081(6) 0.58760(7)
C1 C 0.6696(3) 0.2517(8) 0.59129(10)
C2 C 0.6042(2) 0.4731(7) 0.52235(10)
C3 C 0.5189(2) 0.3486(8) 0.54345(9)
C4 C 0.4108(2) 0.3731(8) 0.52175(10)
H1 H 0.3539 0.2938 0.5355
C5 C 0.7519(2) 0.1506(8) 0.63084(10)
C6 C 0.8635(2) 0.1892(8) 0.63646(10)
H2 H 0.8990 0.2848 0.6139
C7 C 0.9164(3) 0.0638(10) 0.68110(13)
H3 H 0.9914 0.0665 0.6912
C8 C 0.8456(3) -0.0617(9) 0.70781(12)
H4 H 0.8671 -0.1522 0.7381
S1D S 0.28484(7) 1.0342(2) 0.32004(3)
O1D O 0.29970(16) 0.5905(6) 0.44664(7)
N1D N 0.43480(18) 0.7919(6) 0.41240(7)
C1D C 0.3304(3) 0.7483(8) 0.40871(10)
C2D C 0.3958(2) 0.5269(7) 0.47765(10)
C3D C 0.4811(2) 0.6514(8) 0.45655(9)
C4D C 0.5892(2) 0.6269(8) 0.47825(10)
H1D H 0.6461 0.7062 0.4645
C5D C 0.2481(2) 0.8494(8) 0.36916(10)
C6D C 0.1365(2) 0.8108(8) 0.36354(10)
H2D H 0.1010 0.7152 0.3861
C7D C 0.0836(3) 0.9362(10) 0.31890(13)
H3D H 0.0086 0.9335 0.3088
C8D C 0.1544(3) 1.0617(9) 0.29219(12)
H4D H 0.1329 1.1522 0.2619
loop_
_geom_bond_atom_site_label_1
_geom_bond_atom_site_label_2
_geom_bond_site_symmetry_1
_geom_bond_site_symmetry_2
S1 C5 1_555 1_555
O1 C1 1_555 1_555
N1 C1 1_555 1_555
C1 C5 1_555 1_555
C2 O1 1_555 1_555
C3 N1 1_555 1_555
C4 C3 1_555 1_555
H1 C4 1_555 1_555
C5 C6 1_555 1_555
C6 H2 1_555 1_555
C7 C6 1_555 1_555
H3 C7 1_555 1_555
C8 S1 1_555 1_555
H4 C8 1_555 1_555
S1D C5D 1_555 1_555
O1D C1D 1_555 1_555
N1D C1D 1_555 1_555
C1D C5D 1_555 1_555
C2D C4 1_555 1_555
C3D N1D 1_555 1_555
C4D C2 1_555 1_555
H1D C4D 1_555 1_555
C5D C6D 1_555 1_555
C6D H2D 1_555 1_555
C7D C6D 1_555 1_555
H3D C7D 1_555 1_555
C8D S1D 1_555 1_555
H4D C8D 1_555 1_555
C2 C3 1_555 1_555
C7 C8 1_555 1_555
O1D C2D 1_555 1_555
C2D C3D 1_555 1_555
C3D C4D 1_555 1_555
C7D C8D 1_555 1_555

#END
