
#######################################################################
#
#                 Cambridge Crystallographic Data Centre
#                                CCDC 
#
#######################################################################
#
# If this CIF has been generated from an entry in the Cambridge 
# Structural Database, then it will include bibliographic, chemical, 
# crystal, experimental, refinement or atomic coordinate data resulting 
# from the CCDC's data processing and validation procedures.
#
#######################################################################

data_GIBRIS
_chemical_formula_moiety         'C14 H23 N1 O5'
_chemical_name_systematic        
3,4-Dihydroxy-2-methyl-2-(2-methoxymethylpyrrolidinylcarbonyl)cyclohexanone
_symmetry_cell_setting           orthorhombic
_symmetry_space_group_name_H-M   'P 21 21 21'
_symmetry_Int_Tables_number      19
_space_group_name_Hall           'P 2ac 2ab'
loop_
_symmetry_equiv_pos_site_id
_symmetry_equiv_pos_as_xyz
1 x,y,z
2 1/2-x,-y,1/2+z
3 1/2+x,1/2-y,-z
4 -x,1/2+y,1/2-z
_cell_length_a                   10.0261(3)
_cell_length_b                   10.4424(3)
_cell_length_c                   13.7536(4)
_cell_angle_alpha                90
_cell_angle_beta                 90
_cell_angle_gamma                90
_cell_volume                     1439.95
_cell_formula_units_Z            4
loop_
_atom_site_label
_atom_site_type_symbol
_atom_site_fract_x
_atom_site_fract_y
_atom_site_fract_z
O1 O 1.0170(2) 0.2603(2) 0.4749(1)
C1 C 1.0364(3) 0.3590(3) 0.5188(2)
C2 C 0.9735(2) 0.3826(2) 0.6192(2)
C3 C 1.0959(2) 0.3903(2) 0.6890(2)
O2 O 1.1676(2) 0.2719(2) 0.6857(1)
C4 C 1.1969(3) 0.4922(3) 0.6614(2)
O3 O 1.3025(2) 0.4943(2) 0.7308(2)
C5 C 1.2485(3) 0.4713(3) 0.5584(2)
C6 C 1.1323(3) 0.4600(3) 0.4861(2)
C7 C 0.8815(3) 0.2738(2) 0.6514(2)
C8 C 0.8961(2) 0.5092(2) 0.6252(2)
O4 O 0.9158(2) 0.5822(2) 0.6948(1)
N1 N 0.8016(2) 0.5359(2) 0.5592(2)
C9 C 0.7714(3) 0.4657(3) 0.4681(2)
C10 C 0.6449(4) 0.5285(3) 0.4328(2)
C11 C 0.6602(4) 0.6673(3) 0.4655(2)
C12 C 0.7219(3) 0.6554(2) 0.5670(2)
C13 C 0.6182(3) 0.6462(3) 0.6466(2)
O5 O 0.5628(2) 0.7705(2) 0.6575(1)
C14 C 0.4619(3) 0.7746(3) 0.7290(3)
H1 H 1.0647(2) 0.4057(2) 0.7555(2)
H2 H 1.1343(36) 0.2091(35) 0.7262(26)
H3 H 1.1520(3) 0.5755(3) 0.6634(2)
H4 H 1.2984(70) 0.4055(73) 0.7400(43)
H5 H 1.3017(3) 0.3938(3) 0.5563(2)
H6 H 1.3052(3) 0.5425(3) 0.5399(2)
H7 H 1.0866(3) 0.5416(3) 0.4813(2)
H8 H 1.1666(3) 0.4383(3) 0.4222(2)
H9 H 0.9287(3) 0.1939(2) 0.6480(2)
H10 H 0.8051(3) 0.2705(2) 0.6094(2)
H11 H 0.8528(3) 0.2886(2) 0.7171(2)
H12 H 0.7575(3) 0.3752(3) 0.4806(2)
H13 H 0.8428(3) 0.4755(3) 0.4211(2)
H14 H 0.5670(4) 0.4893(3) 0.4622(2)
H15 H 0.6373(4) 0.5228(3) 0.3626(2)
H16 H 0.5744(4) 0.7101(3) 0.4682(2)
H17 H 0.7186(4) 0.7143(3) 0.4220(2)
H18 H 0.7810(3) 0.7284(2) 0.5794(2)
H19 H 0.5494(3) 0.5852(3) 0.6288(2)
H20 H 0.6591(3) 0.6184(3) 0.7069(2)
H21 H 0.4276(3) 0.8602(3) 0.7337(3)
H22 H 0.4984(3) 0.7493(3) 0.7906(3)
H23 H 0.3912(3) 0.7173(3) 0.7113(3)
loop_
_geom_bond_atom_site_label_1
_geom_bond_atom_site_label_2
_geom_bond_site_symmetry_1
_geom_bond_site_symmetry_2
O1 C1 1_555 1_555
C1 C2 1_555 1_555
C2 C3 1_555 1_555
C3 O2 1_555 1_555
O2 H2 1_555 1_555
C4 C3 1_555 1_555
O3 C4 1_555 1_555
C5 C4 1_555 1_555
C6 C1 1_555 1_555
C7 C2 1_555 1_555
C8 C2 1_555 1_555
O4 C8 1_555 1_555
N1 C8 1_555 1_555
C9 N1 1_555 1_555
C10 C9 1_555 1_555
C11 C10 1_555 1_555
C12 N1 1_555 1_555
C13 C12 1_555 1_555
O5 C13 1_555 1_555
C14 O5 1_555 1_555
H1 C3 1_555 1_555
H3 C4 1_555 1_555
H4 O3 1_555 1_555
H5 C5 1_555 1_555
H6 C5 1_555 1_555
H7 C6 1_555 1_555
H8 C6 1_555 1_555
H9 C7 1_555 1_555
H10 C7 1_555 1_555
H11 C7 1_555 1_555
H12 C9 1_555 1_555
H13 C9 1_555 1_555
H14 C10 1_555 1_555
H15 C10 1_555 1_555
H16 C11 1_555 1_555
H17 C11 1_555 1_555
H18 C12 1_555 1_555
H19 C13 1_555 1_555
H20 C13 1_555 1_555
H21 C14 1_555 1_555
H22 C14 1_555 1_555
H23 C14 1_555 1_555
C5 C6 1_555 1_555
C11 C12 1_555 1_555

#END
