
#######################################################################
#
#                 Cambridge Crystallographic Data Centre
#                                CCDC 
#
#######################################################################
#
# If this CIF has been generated from an entry in the Cambridge 
# Structural Database, then it will include bibliographic, chemical, 
# crystal, experimental, refinement or atomic coordinate data resulting 
# from the CCDC's data processing and validation procedures.
#
#######################################################################

data_GIBVAR
_chemical_formula_moiety         'C23 H24 N2 O4 S2'
_chemical_name_systematic        
4-(1,3-dioxolan-2-yl)-2-{1-[(4-methylphenyl)sulfonyl]-3-(methylsulfanyl)-1H-indol-2-yl}butanenitrile
_symmetry_cell_setting           monoclinic
_symmetry_space_group_name_H-M   'P 21/c'
_symmetry_Int_Tables_number      14
_space_group_name_Hall           '-P 2ybc'
loop_
_symmetry_equiv_pos_site_id
_symmetry_equiv_pos_as_xyz
1 x,y,z
2 -x,1/2+y,1/2-z
3 -x,-y,-z
4 x,1/2-y,1/2+z
_cell_length_a                   12.143(3)
_cell_length_b                   10.204(2)
_cell_length_c                   18.499(4)
_cell_angle_alpha                90
_cell_angle_beta                 94.972(12)
_cell_angle_gamma                90
_cell_volume                     2283.53
_exptl_crystal_colour            colorless
_exptl_crystal_description       block
_cell_formula_units_Z            4
loop_
_atom_site_label
_atom_site_type_symbol
_atom_site_fract_x
_atom_site_fract_y
_atom_site_fract_z
C1 C 0.8209(4) -0.3798(4) 0.50987(18)
H1 H 0.8215 -0.4736 0.5013
H2 H 0.7550 -0.3577 0.5334
C2 C 0.7210(4) 0.7159(3) 0.2046(2)
H3 H 0.7309 0.7588 0.2509
H4 H 0.6438 0.7142 0.1882
H5 H 0.7608 0.7626 0.1701
C3 C 0.4755(3) -0.0348(3) 0.15069(18)
H6 H 0.4088 -0.0633 0.1274
C4 C 0.9207(3) -0.3397(3) 0.55520(18)
H7 H 0.9027 -0.3175 0.6038
H8 H 0.9751 -0.4095 0.5584
C5 C 0.5608(3) 0.0010(3) 0.10993(16)
H9 H 0.5497 -0.0037 0.0596
C6 C 0.5314(3) -0.1665(3) 0.40620(19)
H10 H 0.4890 -0.1925 0.4453
H11 H 0.6023 -0.2086 0.4115
H12 H 0.4930 -0.1917 0.3608
C7 C 0.7594(2) 0.4951(3) 0.15234(16)
H13 H 0.7317 0.5268 0.1072
C8 C 0.7640(2) 0.5773(3) 0.21178(18)
C9 C 0.4880(2) -0.0288(3) 0.22479(16)
H14 H 0.4305 -0.0528 0.2522
C10 C 0.6618(2) 0.0433(3) 0.14118(13)
H15 H 0.7186 0.0677 0.1133
C11 C 0.8056(2) 0.5300(3) 0.27790(17)
H16 H 0.8090 0.5848 0.3182
C12 C 0.9259(2) -0.2445(3) 0.44614(15)
H17 H 0.9796 -0.2973 0.4223
C13 C 0.7951(2) 0.3662(3) 0.15851(13)
H18 H 0.7910 0.3114 0.1182
C14 C 0.9109(2) -0.1134(3) 0.40911(13)
H19 H 0.8770 -0.1265 0.3602
H20 H 0.9828 -0.0738 0.4055
C15 C 0.5887(2) 0.0143(2) 0.25837(13)
C16 C 0.8424(2) 0.4032(3) 0.28566(14)
H21 H 0.8708 0.3725 0.3308
C17 C 0.7598(2) 0.2038(2) 0.44825(13)
C18 C 0.62777(19) 0.0320(2) 0.33345(12)
C19 C 0.8095(2) 0.1035(2) 0.40389(11)
H22 H 0.8780 0.1401 0.3881
C20 C 0.6745(2) 0.0478(2) 0.21670(12)
C21 C 0.8401(2) -0.0206(2) 0.44874(12)
H23 H 0.8797 0.0046 0.4944
H24 H 0.7730 -0.0653 0.4595
C22 C 0.73363(19) 0.0747(2) 0.33677(11)
C23 C 0.83687(19) 0.3211(2) 0.22575(12)
N1 N 0.76724(15) 0.08189(17) 0.26494(9)
N2 N 0.7247(2) 0.2830(2) 0.48274(13)
O1 O 0.82329(18) -0.3106(2) 0.44374(10)
O2 O 0.96081(16) -0.22965(19) 0.52043(10)
O3 O 0.89559(15) 0.10220(18) 0.16858(9)
O4 O 0.96323(13) 0.14989(19) 0.29507(10)
S1 S 0.87870(5) 0.15807(6) 0.23719(3)
S2 S 0.54984(6) 0.00858(8) 0.40811(4)
loop_
_geom_bond_atom_site_label_1
_geom_bond_atom_site_label_2
_geom_bond_site_symmetry_1
_geom_bond_site_symmetry_2
C1 H1 1_555 1_555
H2 C1 1_555 1_555
C2 H3 1_555 1_555
H4 C2 1_555 1_555
H5 C2 1_555 1_555
C3 H6 1_555 1_555
C4 C1 1_555 1_555
H7 C4 1_555 1_555
H8 C4 1_555 1_555
C5 C3 1_555 1_555
H9 C5 1_555 1_555
C6 H10 1_555 1_555
H11 C6 1_555 1_555
H12 C6 1_555 1_555
C7 H13 1_555 1_555
C8 C2 1_555 1_555
C9 C3 1_555 1_555
H14 C9 1_555 1_555
C10 C5 1_555 1_555
H15 C10 1_555 1_555
C11 C8 1_555 1_555
H16 C11 1_555 1_555
C12 H17 1_555 1_555
C13 C7 1_555 1_555
H18 C13 1_555 1_555
C14 C12 1_555 1_555
H19 C14 1_555 1_555
H20 C14 1_555 1_555
C15 C9 1_555 1_555
C16 C11 1_555 1_555
H21 C16 1_555 1_555
C17 C19 1_555 1_555
C18 C15 1_555 1_555
C19 H22 1_555 1_555
C20 C10 1_555 1_555
C21 C14 1_555 1_555
H23 C21 1_555 1_555
H24 C21 1_555 1_555
C22 C18 1_555 1_555
C23 C13 1_555 1_555
N1 C20 1_555 1_555
N2 C17 1_555 1_555
O1 C1 1_555 1_555
O2 C4 1_555 1_555
O3 S1 1_555 1_555
O4 S1 1_555 1_555
S1 C23 1_555 1_555
S2 C6 1_555 1_555
C7 C8 1_555 1_555
C12 O1 1_555 1_555
C12 O2 1_555 1_555
C15 C20 1_555 1_555
C16 C23 1_555 1_555
C18 S2 1_555 1_555
C19 C21 1_555 1_555
C19 C22 1_555 1_555
C22 N1 1_555 1_555
N1 S1 1_555 1_555

#END
