
#######################################################################
#
#                 Cambridge Crystallographic Data Centre
#                                CCDC 
#
#######################################################################
#
# If this CIF has been generated from an entry in the Cambridge 
# Structural Database, then it will include bibliographic, chemical, 
# crystal, experimental, refinement or atomic coordinate data resulting 
# from the CCDC's data processing and validation procedures.
#
#######################################################################

data_GICBOL
_chemical_formula_moiety         'C56 H44 N8 4+,6(C1 H4 O1),H2 O1,4(Br1 1-)'
_chemical_name_systematic        
'2,15,21,34-Tetraphenyl-4,15,23,34-tetraaza-2,13,21,32-tetraazonianonacyclo[33.3.1.1^16,20^.0^4,38^.0^6,11^.0^13,17^.0^19,23^.0^25,30^.0^32,36^]tetraconta-1(39),2,6,8,10,13,16(40),17,19,21,25,27,29,32,35,37-hexadecaene tetrabromide methanol solvate monohydrate'
_symmetry_cell_setting           orthorhombic
_symmetry_space_group_name_H-M   'P b c a'
_symmetry_Int_Tables_number      61
_space_group_name_Hall           '-P 2ac 2ab'
loop_
_symmetry_equiv_pos_site_id
_symmetry_equiv_pos_as_xyz
1 x,y,z
2 1/2-x,-y,1/2+z
3 -x,1/2+y,1/2-z
4 1/2+x,1/2-y,-z
5 -x,-y,-z
6 1/2+x,y,1/2-z
7 x,1/2-y,1/2+z
8 1/2-x,1/2+y,z
_cell_length_a                   19.744(4)
_cell_length_b                   19.587(4)
_cell_length_c                   32.310(7)
_cell_angle_alpha                90
_cell_angle_beta                 90
_cell_angle_gamma                90
_cell_volume                     12495.1
_exptl_crystal_colour            colorless
_exptl_crystal_description       block
_cell_formula_units_Z            8
loop_
_atom_site_label
_atom_site_type_symbol
_atom_site_fract_x
_atom_site_fract_y
_atom_site_fract_z
Br1 Br 0.62015(5) 0.71583(5) 0.14322(3)
Br2 Br 0.38216(5) 0.27146(6) 0.13817(3)
Br3 Br 0.38803(5) 0.02080(5) 0.89200(4)
Br4 Br 0.3831(3) 0.0056(3) 0.13924(17)
N1 N 0.7352(3) 0.3270(3) 1.1544(2)
N2 N 0.7395(4) 0.3225(4) 1.0865(2)
N3 N 0.5522(3) 0.1518(3) 1.08362(18)
N4 N 0.5461(3) 0.1549(3) 1.15154(18)
N5 N 0.5486(3) 0.1610(3) 0.83936(17)
N6 N 0.5534(3) 0.1547(3) 0.90719(19)
N7 N 0.7379(3) 0.3276(3) 0.9091(2)
N8 N 0.7313(3) 0.3382(3) 0.8413(2)
C1 C 0.7662(4) 0.3484(4) 1.1209(3)
H1 H 0.8036 0.3789 1.1212
C2 C 0.6839(4) 0.2818(4) 1.1411(2)
C3 C 0.6859(4) 0.2791(4) 1.0976(2)
C4 C 0.6451(4) 0.2390(4) 1.0739(3)
H2 H 0.6479 0.2376 1.0445
C5 C 0.5994(4) 0.2006(4) 1.0962(2)
C6 C 0.5964(4) 0.2027(4) 1.1397(2)
C7 C 0.6387(4) 0.2432(4) 1.1640(3)
H3 H 0.6367 0.2442 1.1933
C8 C 0.5228(4) 0.1252(4) 1.1169(2)
H4 H 0.4898 0.0900 1.1163
C9 C 0.5413(4) 0.1305(4) 1.0406(2)
H5 H 0.5199 0.0848 1.0403
H6 H 0.5856 0.1268 1.0265
C10 C 0.4979(4) 0.1787(4) 1.0174(2)
C11 C 0.4527(4) 0.2202(5) 1.0387(3)
H7 H 0.4523 0.2200 1.0681
C12 C 0.4083(5) 0.2618(6) 1.0172(3)
H8 H 0.3780 0.2906 1.0321
C13 C 0.4075(5) 0.2621(6) 0.9748(3)
H9 H 0.3758 0.2900 0.9605
C14 C 0.4524(4) 0.2220(5) 0.9525(3)
H10 H 0.4531 0.2232 0.9231
C15 C 0.4965(4) 0.1797(4) 0.9745(2)
C16 C 0.5413(4) 0.1305(4) 0.9500(2)
H11 H 0.5853 0.1253 0.9643
H12 H 0.5193 0.0851 0.9490
C17 C 0.5242(4) 0.1287(4) 0.8729(2)
H13 H 0.4915 0.0931 0.8724
C18 C 0.5972(4) 0.2095(4) 0.8518(2)
C19 C 0.5997(4) 0.2044(4) 0.8960(2)
C20 C 0.6436(4) 0.2432(4) 0.9199(2)
H14 H 0.6450 0.2413 0.9493
C21 C 0.6855(4) 0.2855(4) 0.8961(2)
C22 C 0.6811(4) 0.2909(4) 0.8530(2)
C23 C 0.6372(4) 0.2526(4) 0.8288(2)
H15 H 0.6350 0.2558 0.7995
C24 C 0.7643(4) 0.3572(4) 0.8755(3)
H16 H 0.8017 0.3877 0.8760
C25 C 0.7615(4) 0.3374(5) 0.9514(2)
H17 H 0.8087 0.3545 0.9507
H18 H 0.7619 0.2927 0.9657
C26 C 0.7191(4) 0.3859(4) 0.9755(2)
C27 C 0.6824(5) 0.4350(5) 0.9562(3)
H19 H 0.6823 0.4364 0.9268
C28 C 0.6448(6) 0.4836(5) 0.9778(3)
H20 H 0.6180 0.5162 0.9636
C29 C 0.6475(6) 0.4830(5) 1.0206(3)
H21 H 0.6247 0.5176 1.0358
C30 C 0.6828(5) 0.4332(5) 1.0413(3)
H22 H 0.6817 0.4321 1.0707
C31 C 0.7197(4) 0.3848(4) 1.0202(3)
C32 C 0.7635(4) 0.3354(5) 1.0439(2)
H23 H 0.7650 0.2915 1.0287
H24 H 0.8102 0.3536 1.0451
C33 C 0.7484(4) 0.3456(4) 1.1961(3)
C34 C 0.7445(5) 0.4131(5) 1.2078(3)
H25 H 0.7360 0.4477 1.1878
C35 C 0.7534(6) 0.4299(5) 1.2496(3)
H26 H 0.7493 0.4761 1.2582
C36 C 0.7681(5) 0.3803(5) 1.2781(3)
H27 H 0.7738 0.3920 1.3064
C37 C 0.7747(4) 0.3132(5) 1.2656(3)
H28 H 0.7869 0.2793 1.2853
C38 C 0.7638(4) 0.2946(4) 1.2250(2)
H29 H 0.7668 0.2481 1.2168
C39 C 0.5288(4) 0.1357(4) 1.1931(2)
C40 C 0.5125(4) 0.1863(4) 1.2214(2)
H30 H 0.5113 0.2329 1.2132
C41 C 0.4978(5) 0.1680(5) 1.2625(3)
H31 H 0.4860 0.2017 1.2824
C42 C 0.5009(5) 0.1001(5) 1.2731(3)
H32 H 0.4920 0.0873 1.3009
C43 C 0.5161(5) 0.0508(5) 1.2452(3)
H33 H 0.5173 0.0044 1.2537
C44 C 0.5303(4) 0.0680(4) 1.2035(3)
H34 H 0.5403 0.0338 1.1836
C45 C 0.5312(4) 0.1466(4) 0.7972(2)
C46 C 0.5810(5) 0.1275(5) 0.7702(3)
H35 H 0.6263 0.1219 0.7796
C47 C 0.5651(6) 0.1165(5) 0.7294(3)
H36 H 0.5993 0.1027 0.7105
C48 C 0.4998(7) 0.1253(5) 0.7159(3)
H37 H 0.4893 0.1188 0.6874
C49 C 0.4504(6) 0.1431(5) 0.7427(3)
H38 H 0.4052 0.1478 0.7332
C50 C 0.4652(5) 0.1547(5) 0.7846(3)
H39 H 0.4308 0.1677 0.8036
C51 C 0.7453(4) 0.3606(4) 0.7997(3)
C52 C 0.6919(4) 0.3788(5) 0.7740(3)
H40 H 0.6469 0.3798 0.7843
C53 C 0.7048(4) 0.3957(4) 0.7329(3)
H41 H 0.6686 0.4072 0.7148
C54 C 0.7705(5) 0.3955(5) 0.7185(3)
H42 H 0.7795 0.4062 0.6904
C55 C 0.8219(5) 0.3805(5) 0.7441(3)
H43 H 0.8671 0.3821 0.7340
C56 C 0.8098(4) 0.3623(4) 0.7856(3)
H44 H 0.8465 0.3514 0.8035
O1 O 0.6210(3) 0.4275(4) 0.1361(2)
C57 C 0.5992(7) 0.4984(4) 0.1443(4)
O2 O 0.6242(5) 0.4361(5) 0.8593(3)
C58 C 0.6181(8) 0.5074(6) 0.8445(5)
O3 O 0.5137(5) 0.3681(5) 0.8852(3)
C59 C 0.5032(7) 0.3891(8) 0.9287(3)
O4 O 0.3794(7) 0.0351(8) 0.0122(4)
C60 C 0.4443(10) 0.0080(16) -0.0037(7)
O5 O 0.5183(5) 0.3589(4) 0.1066(3)
C61 C 0.4971(8) 0.3903(8) 0.0670(4)
O6 O 0.7883(6) 0.1425(6) 0.0717(4)
C62 C 0.7442(7) 0.0929(7) 0.0931(4)
O7 O 0.2905(7) 0.3533(7) 0.0735(4)
C63 C 0.2466(9) 0.3999(9) 0.0976(6)
O8 O 0.7196(4) 0.1704(4) 0.9960(2)
Br5? Br 0.3626(3) -0.0137(3) 0.13829(18)
Br6? Br 0.3868(2) 0.0113(2) 0.1259(2)
Br7? Br 0.3881(3) 0.0144(3) 0.1105(2)
loop_
_geom_bond_atom_site_label_1
_geom_bond_atom_site_label_2
_geom_bond_site_symmetry_1
_geom_bond_site_symmetry_2
N1 C1 1_555 1_555
N2 C1 1_555 1_555
N3 C5 1_555 1_555
N4 C6 1_555 1_555
N5 C17 1_555 1_555
N6 C16 1_555 1_555
N7 C21 1_555 1_555
N8 C22 1_555 1_555
C1 H1 1_555 1_555
C2 N1 1_555 1_555
C3 N2 1_555 1_555
C4 C3 1_555 1_555
H2 C4 1_555 1_555
C5 C4 1_555 1_555
C6 C5 1_555 1_555
C7 C2 1_555 1_555
H3 C7 1_555 1_555
C8 N3 1_555 1_555
H4 C8 1_555 1_555
C9 N3 1_555 1_555
H5 C9 1_555 1_555
H6 C9 1_555 1_555
C10 C9 1_555 1_555
C11 C10 1_555 1_555
H7 C11 1_555 1_555
C12 C11 1_555 1_555
H8 C12 1_555 1_555
C13 C12 1_555 1_555
H9 C13 1_555 1_555
C14 C13 1_555 1_555
H10 C14 1_555 1_555
C15 C10 1_555 1_555
C16 C15 1_555 1_555
H11 C16 1_555 1_555
H12 C16 1_555 1_555
C17 N6 1_555 1_555
H13 C17 1_555 1_555
C18 N5 1_555 1_555
C19 N6 1_555 1_555
C20 C19 1_555 1_555
H14 C20 1_555 1_555
C21 C20 1_555 1_555
C22 C21 1_555 1_555
C23 C18 1_555 1_555
H15 C23 1_555 1_555
C24 N7 1_555 1_555
H16 C24 1_555 1_555
C25 N7 1_555 1_555
H17 C25 1_555 1_555
H18 C25 1_555 1_555
C26 C25 1_555 1_555
C27 C26 1_555 1_555
H19 C27 1_555 1_555
C28 C27 1_555 1_555
H20 C28 1_555 1_555
C29 C28 1_555 1_555
H21 C29 1_555 1_555
C30 C29 1_555 1_555
H22 C30 1_555 1_555
C31 C26 1_555 1_555
C32 N2 1_555 1_555
H23 C32 1_555 1_555
H24 C32 1_555 1_555
C33 N1 1_555 1_555
C34 C33 1_555 1_555
H25 C34 1_555 1_555
C35 C34 1_555 1_555
H26 C35 1_555 1_555
C36 C35 1_555 1_555
H27 C36 1_555 1_555
C37 C36 1_555 1_555
H28 C37 1_555 1_555
C38 C33 1_555 1_555
H29 C38 1_555 1_555
C39 N4 1_555 1_555
C40 C39 1_555 1_555
H30 C40 1_555 1_555
C41 C40 1_555 1_555
H31 C41 1_555 1_555
C42 C41 1_555 1_555
H32 C42 1_555 1_555
C43 C42 1_555 1_555
H33 C43 1_555 1_555
C44 C39 1_555 1_555
H34 C44 1_555 1_555
C45 N5 1_555 1_555
C46 C45 1_555 1_555
H35 C46 1_555 1_555
C47 C46 1_555 1_555
H36 C47 1_555 1_555
C48 C47 1_555 1_555
H37 C48 1_555 1_555
C49 C48 1_555 1_555
H38 C49 1_555 1_555
C50 C45 1_555 1_555
H39 C50 1_555 1_555
C51 N8 1_555 1_555
C52 C51 1_555 1_555
H40 C52 1_555 1_555
C53 C52 1_555 1_555
H41 C53 1_555 1_555
C54 C53 1_555 1_555
H42 C54 1_555 1_555
C55 C54 1_555 1_555
H43 C55 1_555 1_555
C56 C51 1_555 1_555
H44 C56 1_555 1_555
O1 C57 1_555 1_555
O2 C58 1_555 1_555
O3 C59 1_555 1_555
O4 C60 1_555 1_555
O5 C61 1_555 1_555
O6 C62 1_555 1_555
O7 C63 1_555 1_555
N4 C8 1_555 1_555
N8 C24 1_555 1_555
C2 C3 1_555 1_555
C6 C7 1_555 1_555
C14 C15 1_555 1_555
C18 C19 1_555 1_555
C22 C23 1_555 1_555
C30 C31 1_555 1_555
C31 C32 1_555 1_555
C37 C38 1_555 1_555
C43 C44 1_555 1_555
C49 C50 1_555 1_555
C55 C56 1_555 1_555

#END
