
#######################################################################
#
#                 Cambridge Crystallographic Data Centre
#                                CCDC 
#
#######################################################################
#
# If this CIF has been generated from an entry in the Cambridge 
# Structural Database, then it will include bibliographic, chemical, 
# crystal, experimental, refinement or atomic coordinate data resulting 
# from the CCDC's data processing and validation procedures.
#
#######################################################################

data_GICGOQ
_chemical_formula_moiety         'C42 H42 N4'
_chemical_name_systematic        
N'-(2,6-Dimethylphenyl)-N,N-bis(2-((2,6-dimethylphenyl)amino)phenyl)benzene-1,2-diamine
_symmetry_cell_setting           triclinic
_symmetry_space_group_name_H-M   'P -1'
_symmetry_Int_Tables_number      2
_space_group_name_Hall           '-P 1'
loop_
_symmetry_equiv_pos_site_id
_symmetry_equiv_pos_as_xyz
1 x,y,z
2 -x,-y,-z
_cell_length_a                   9.3759(7)
_cell_length_b                   11.1271(8)
_cell_length_c                   18.1715(13)
_cell_angle_alpha                98.6800(10)
_cell_angle_beta                 91.3780(8)
_cell_angle_gamma                110.8680(10)
_cell_volume                     1744.9
_exptl_crystal_colour            white
_exptl_crystal_description       blocks
_cell_formula_units_Z            2
loop_
_atom_site_label
_atom_site_type_symbol
_atom_site_fract_x
_atom_site_fract_y
_atom_site_fract_z
C1 C 0.6526(3) 0.7147(2) 0.49976(12)
H1 H 0.7343 0.7976 0.5025
H2 H 0.6507 0.6856 0.5470
H3 H 0.5567 0.7234 0.4879
H4 H 0.324(2) 0.7047(18) 0.2221(10)
H5 H 0.532(2) 0.6988(17) 0.3157(10)
H6 H 0.639(2) 0.8299(17) 0.1972(10)
N1 N 0.49403(13) 0.89499(11) 0.29510(6)
N2 N 0.60822(16) 0.72162(12) 0.34431(8)
C2 C 0.64973(15) 0.94101(13) 0.32617(7)
N3 N 0.26350(16) 0.65705(13) 0.25237(8)
C3 C 0.70517(16) 0.85002(14) 0.34959(8)
C4 C 0.25611(16) 0.73174(14) 0.32053(8)
C5 C 0.37498(15) 0.85198(14) 0.34386(7)
C6 C 0.46202(17) 0.95167(14) 0.23366(8)
N4 N 0.58832(19) 0.83037(14) 0.15719(8)
C7 C 0.51421(19) 0.91965(15) 0.16447(8)
C8 C 0.13979(17) 0.68818(16) 0.36722(9)
H7 H 0.0587 0.6094 0.3520
C9 C 0.26222(19) 0.87918(19) 0.45947(9)
H8 H 0.2648 0.9278 0.5062
C10 C 0.65299(17) 0.62149(15) 0.36478(10)
C11 C 0.37642(18) 0.92430(16) 0.41311(8)
H9 H 0.4555 1.0043 0.4285
C12 C 0.6497(2) 0.79558(17) 0.08936(9)
C13 C 0.14059(18) 0.54093(16) 0.21960(9)
C14 C 0.14464(18) 0.76189(18) 0.43623(9)
H10 H 0.0671 0.7316 0.4674
C15 C 0.8979(2) 1.10993(18) 0.35794(10)
H11 H 0.9617 1.1968 0.3612
C16 C 0.74669(19) 1.06890(15) 0.33024(8)
H12 H 0.7097 1.1285 0.3141
C17 C 0.3808(2) 1.03403(16) 0.24086(10)
H13 H 0.3464 1.0553 0.2868
C18 C 0.1266(2) 0.42309(16) 0.24226(9)
C19 C 0.85873(18) 0.89340(17) 0.37671(10)
H14 H 0.8978 0.8347 0.3925
C20 C 0.4850(2) 0.97452(18) 0.10485(10)
H15 H 0.5213 0.9561 0.0590
C21 C 0.95327(19) 1.0217(2) 0.38054(10)
H16 H 1.0554 1.0487 0.3986
C22 C 0.5487(3) 0.7037(2) 0.03293(10)
C23 C 0.6774(2) 0.61689(18) 0.44010(11)
C24 C 0.6693(2) 0.52716(18) 0.30844(12)
C25 C 0.3502(3) 1.0853(2) 0.18003(12)
H17 H 0.2939 1.1396 0.1850
C26 C 0.0402(2) 0.5458(2) 0.16323(11)
C27 C 0.7225(3) 0.5150(2) 0.45713(14)
H18 H 0.7419 0.5100 0.5068
C28 C 0.4028(3) 1.0558(2) 0.11288(12)
H19 H 0.3830 1.0909 0.0722
C29 C 0.0093(2) 0.31074(19) 0.20802(12)
H20 H -0.0030 0.2321 0.2237
C30 C 0.8039(3) 0.8495(2) 0.08240(12)
C31 C 0.2339(3) 0.4163(2) 0.30205(12)
H21 H 0.2195 0.3267 0.3029
H22 H 0.2138 0.4553 0.3495
H23 H 0.3376 0.4626 0.2921
C32 C 0.7098(3) 0.4285(2) 0.32903(15)
H24 H 0.7180 0.3640 0.2923
C33 C 0.7604(6) 0.7175(4) -0.04037(16)
H25 H 0.7977 0.6907 -0.0843
C34 C 0.7380(3) 0.4240(2) 0.40193(18)
H26 H 0.7683 0.3581 0.4144
C35 C -0.0877(3) 0.3123(2) 0.15230(14)
H27 H -0.1644 0.2350 0.1295
C36 C 0.8592(4) 0.8080(3) 0.01488(18)
H28 H 0.9632 0.8427 0.0082
C37 C 0.6099(5) 0.6667(3) -0.03181(12)
H29 H 0.5448 0.6052 -0.0702
C38 C 0.0492(4) 0.6731(3) 0.14188(19)
H30 H 0.0364 0.7291 0.1848
H31 H -0.0303 0.6576 0.1034
H32 H 0.1472 0.7141 0.1238
C39 C -0.0738(3) 0.4262(3) 0.12946(14)
H33 H -0.1407 0.4256 0.0907
C40 C 0.3804(4) 0.6458(3) 0.04149(16)
H34 H 0.3366 0.7117 0.0416
H35 H 0.3649 0.6129 0.0877
H36 H 0.3321 0.5758 0.0006
C41 C 0.6385(4) 0.5315(3) 0.22709(13)
H37 H 0.5389 0.5355 0.2191
H38 H 0.6426 0.4544 0.1968
H39 H 0.7146 0.6073 0.2137
C42 C 0.9095(3) 0.9478(3) 0.14297(19)
H40 H 0.8771 1.0208 0.1539
H41 H 1.0115 0.9769 0.1272
H42 H 0.9082 0.9093 0.1869
loop_
_geom_bond_atom_site_label_1
_geom_bond_atom_site_label_2
_geom_bond_site_symmetry_1
_geom_bond_site_symmetry_2
C1 H1 1_555 1_555
H2 C1 1_555 1_555
H3 C1 1_555 1_555
H4 N3 1_555 1_555
H5 N2 1_555 1_555
H6 N4 1_555 1_555
N1 C2 1_555 1_555
N2 C3 1_555 1_555
C2 C3 1_555 1_555
N3 C4 1_555 1_555
C3 C19 1_555 1_555
C4 C5 1_555 1_555
C5 N1 1_555 1_555
C6 N1 1_555 1_555
N4 C7 1_555 1_555
C7 C6 1_555 1_555
C8 C4 1_555 1_555
H7 C8 1_555 1_555
C9 H8 1_555 1_555
C10 N2 1_555 1_555
C11 C5 1_555 1_555
H9 C11 1_555 1_555
C12 N4 1_555 1_555
C13 N3 1_555 1_555
C14 C8 1_555 1_555
H10 C14 1_555 1_555
C15 H11 1_555 1_555
C16 C2 1_555 1_555
H12 C16 1_555 1_555
C17 C6 1_555 1_555
H13 C17 1_555 1_555
C18 C13 1_555 1_555
C19 H14 1_555 1_555
C20 C7 1_555 1_555
H15 C20 1_555 1_555
C21 C15 1_555 1_555
H16 C21 1_555 1_555
C22 C12 1_555 1_555
C23 C1 1_555 1_555
C24 C10 1_555 1_555
C25 C17 1_555 1_555
H17 C25 1_555 1_555
C26 C13 1_555 1_555
C27 C23 1_555 1_555
H18 C27 1_555 1_555
C28 C20 1_555 1_555
H19 C28 1_555 1_555
C29 C18 1_555 1_555
H20 C29 1_555 1_555
C30 C12 1_555 1_555
C31 C18 1_555 1_555
H21 C31 1_555 1_555
H22 C31 1_555 1_555
H23 C31 1_555 1_555
C32 C24 1_555 1_555
H24 C32 1_555 1_555
C33 H25 1_555 1_555
C34 C27 1_555 1_555
H26 C34 1_555 1_555
C35 C29 1_555 1_555
H27 C35 1_555 1_555
C36 C30 1_555 1_555
H28 C36 1_555 1_555
C37 C22 1_555 1_555
H29 C37 1_555 1_555
C38 C26 1_555 1_555
H30 C38 1_555 1_555
H31 C38 1_555 1_555
H32 C38 1_555 1_555
C39 C26 1_555 1_555
H33 C39 1_555 1_555
C40 C22 1_555 1_555
H34 C40 1_555 1_555
H35 C40 1_555 1_555
H36 C40 1_555 1_555
C41 C24 1_555 1_555
H37 C41 1_555 1_555
H38 C41 1_555 1_555
H39 C41 1_555 1_555
C42 C30 1_555 1_555
H40 C42 1_555 1_555
H41 C42 1_555 1_555
H42 C42 1_555 1_555
C9 C11 1_555 1_555
C9 C14 1_555 1_555
C10 C23 1_555 1_555
C15 C16 1_555 1_555
C19 C21 1_555 1_555
C25 C28 1_555 1_555
C32 C34 1_555 1_555
C33 C36 1_555 1_555
C33 C37 1_555 1_555
C35 C39 1_555 1_555

#END
