
#######################################################################
#
#                 Cambridge Crystallographic Data Centre
#                                CCDC 
#
#######################################################################
#
# If this CIF has been generated from an entry in the Cambridge 
# Structural Database, then it will include bibliographic, chemical, 
# crystal, experimental, refinement or atomic coordinate data resulting 
# from the CCDC's data processing and validation procedures.
#
#######################################################################

data_GICKIP
_chemical_name_common            
'ethyl (E)-3,4-dimethyl-5-((2-(4-methylbenzoyl)hydrazono)methyl)-1H-pyrrole-2-carboxylate ethanol solvate monohydrate'
_chemical_formula_moiety         'C18 H21 N3 O3,C2 H6 O1,H2 O1'
_chemical_name_systematic        
'ethyl (E)-3,4-dimethyl-5-{[2-(4-methylbenzene-1-carbonyl)hydrazinylidene]methyl}-1H-pyrrole-2-carboxylate ethanol solvate monohydrate'
_symmetry_cell_setting           triclinic
_symmetry_space_group_name_H-M   'P -1'
_symmetry_Int_Tables_number      2
_space_group_name_Hall           '-P 1'
loop_
_symmetry_equiv_pos_site_id
_symmetry_equiv_pos_as_xyz
1 x,y,z
2 -x,-y,-z
_cell_length_a                   9.1571(18)
_cell_length_b                   10.505(2)
_cell_length_c                   11.576(2)
_cell_angle_alpha                94.509(4)
_cell_angle_beta                 92.570(4)
_cell_angle_gamma                102.312(3)
_cell_volume                     1082.41
_exptl_crystal_colour            colorless
_exptl_crystal_description       prism
_cell_formula_units_Z            2
loop_
_atom_site_label
_atom_site_type_symbol
_atom_site_fract_x
_atom_site_fract_y
_atom_site_fract_z
C1 C 0.6973(4) -0.3007(4) -0.1146(3)
H1 H 0.8044 -0.2888 -0.1080
H2 H 0.6672 -0.2726 -0.1871
H3 H 0.6521 -0.3916 -0.1114
C2 C 0.6476(3) -0.2210(3) -0.0160(3)
C3 C 0.5550(4) -0.2782(3) 0.0644(3)
H4 H 0.5225 -0.3687 0.0580
C4 C 0.5087(3) -0.2052(3) 0.1545(3)
H5 H 0.4458 -0.2470 0.2073
C5 C 0.5550(3) -0.0704(3) 0.1668(2)
C6 C 0.6489(3) -0.0125(3) 0.0867(3)
H6 H 0.6827 0.0780 0.0930
C7 C 0.6928(4) -0.0872(4) -0.0021(3)
H7 H 0.7556 -0.0456 -0.0551
C8 C 0.5087(3) 0.0163(3) 0.2594(2)
C9 C 0.2654(3) -0.0104(3) 0.4852(2)
H8 H 0.2278 -0.1004 0.4776
C10 C 0.2160(3) 0.0708(2) 0.5739(2)
C11 C 0.1095(3) 0.0388(3) 0.6547(2)
C12 C 0.0996(3) 0.1554(3) 0.7186(2)
C13 C 0.2010(3) 0.2558(2) 0.6753(2)
C14 C 0.0272(3) -0.0968(3) 0.6740(3)
H9 H 0.0270 -0.1543 0.6052
H10 H -0.0741 -0.0954 0.6910
H11 H 0.0760 -0.1275 0.7380
C15 C -0.0009(3) 0.1667(3) 0.8165(3)
H12 H 0.0192 0.2556 0.8501
H13 H 0.0176 0.1107 0.8746
H14 H -0.1036 0.1409 0.7872
C16 C 0.2545(3) 0.3946(3) 0.7084(3)
C17 C 0.2332(4) 0.5827(3) 0.8263(3)
H15 H 0.2193 0.6328 0.7614
H16 H 0.3390 0.6019 0.8506
C18 C 0.1455(5) 0.6178(4) 0.9236(4)
H17 H 0.0412 0.5998 0.8983
H18 H 0.1788 0.7092 0.9484
H19 H 0.1594 0.5671 0.9871
O1 O 0.5606(2) 0.1357(2) 0.26954(18)
O2 O 0.3604(3) 0.46048(19) 0.6665(2)
O3 O 0.1807(2) 0.44304(18) 0.79201(19)
N1 N 0.4064(3) -0.0386(2) 0.3319(2)
H20 H 0.367(3) -0.128(3) 0.331(2)
N2 N 0.3618(2) 0.0419(2) 0.4165(2)
N3 N 0.2698(2) 0.2020(2) 0.58752(19)
H21 H 0.3369 0.2449 0.5471
C19 C 0.7716(8) 0.4277(6) 0.6831(6)
H22 H 0.8344 0.4125 0.7481
H23 H 0.6936 0.4672 0.7145
C20 C 0.865(4) 0.5226(11) 0.612(3)
H24 H 0.9146 0.5987 0.6613
H25 H 0.8012 0.5479 0.5536
H26 H 0.9375 0.4825 0.5755
O4 O 0.7044(3) 0.3066(2) 0.6231(2)
H27 H 0.640(4) 0.310(4) 0.568(3)
O5 O 0.5070(2) 0.32191(18) 0.44231(18)
H33 H 0.5395 0.3927 0.4095
H34 H 0.5095 0.2574 0.3903
C21? C 0.8388(13) 0.3907(9) 0.6039(10)
H28? H 0.8604 0.3794 0.5229
H29? H 0.9199 0.3706 0.6509
C22? C 0.827(6) 0.5281(16) 0.635(4)
H30? H 0.9019 0.5862 0.5970
H31? H 0.8428 0.5480 0.7173
H32? H 0.7296 0.5389 0.6097
loop_
_geom_bond_atom_site_label_1
_geom_bond_atom_site_label_2
_geom_bond_site_symmetry_1
_geom_bond_site_symmetry_2
C1 H1 1_555 1_555
H2 C1 1_555 1_555
H3 C1 1_555 1_555
C2 C1 1_555 1_555
C3 C2 1_555 1_555
H4 C3 1_555 1_555
C4 C3 1_555 1_555
H5 C4 1_555 1_555
C5 C4 1_555 1_555
C6 C5 1_555 1_555
H6 C6 1_555 1_555
C7 C2 1_555 1_555
H7 C7 1_555 1_555
C8 C5 1_555 1_555
C9 H8 1_555 1_555
C10 C9 1_555 1_555
C11 C10 1_555 1_555
C12 C11 1_555 1_555
C13 C12 1_555 1_555
C14 C11 1_555 1_555
H9 C14 1_555 1_555
H10 C14 1_555 1_555
H11 C14 1_555 1_555
C15 C12 1_555 1_555
H12 C15 1_555 1_555
H13 C15 1_555 1_555
H14 C15 1_555 1_555
C16 C13 1_555 1_555
C17 H15 1_555 1_555
H16 C17 1_555 1_555
C18 C17 1_555 1_555
H17 C18 1_555 1_555
H18 C18 1_555 1_555
H19 C18 1_555 1_555
O1 C8 1_555 1_555
O2 C16 1_555 1_555
O3 C16 1_555 1_555
N1 C8 1_555 1_555
H20 N1 1_555 1_555
N2 C9 1_555 1_555
N3 C10 1_555 1_555
H21 N3 1_555 1_555
C19 H22 1_555 1_555
H23 C19 1_555 1_555
C20 C19 1_555 1_555
H24 C20 1_555 1_555
H25 C20 1_555 1_555
H26 C20 1_555 1_555
O4 C19 1_555 1_555
H27 O4 1_555 1_555
O5 H33 1_555 1_555
H34 O5 1_555 1_555
C6 C7 1_555 1_555
C13 N3 1_555 1_555
C17 O3 1_555 1_555
N1 N2 1_555 1_555

#END
