
#######################################################################
#
#                 Cambridge Crystallographic Data Centre
#                                CCDC 
#
#######################################################################
#
# If this CIF has been generated from an entry in the Cambridge 
# Structural Database, then it will include bibliographic, chemical, 
# crystal, experimental, refinement or atomic coordinate data resulting 
# from the CCDC's data processing and validation procedures.
#
#######################################################################

data_GICLUC
_chemical_name_common            
'ethyl 1-(4-fluorobenzyl)-3-phenyl-1H-pyrazole-5-carboxylate'
_chemical_formula_moiety         'C19 H17 F1 N2 O2'
_chemical_name_systematic        
'ethyl 1-[(4-fluorophenyl)methyl]-3-phenyl-1H-pyrazole-5-carboxylate'
_symmetry_cell_setting           triclinic
_symmetry_space_group_name_H-M   'P -1'
_symmetry_Int_Tables_number      2
_space_group_name_Hall           '-P 1'
loop_
_symmetry_equiv_pos_site_id
_symmetry_equiv_pos_as_xyz
1 x,y,z
2 -x,-y,-z
_cell_length_a                   7.8593(19)
_cell_length_b                   10.3322(18)
_cell_length_c                   10.9747(19)
_cell_angle_alpha                108.914(18)
_cell_angle_beta                 92.931(3)
_cell_angle_gamma                99.544(3)
_cell_volume                     826.13
_exptl_crystal_colour            colorless
_exptl_crystal_description       block
_cell_formula_units_Z            2
loop_
_atom_site_label
_atom_site_type_symbol
_atom_site_fract_x
_atom_site_fract_y
_atom_site_fract_z
F1 F -0.01323(14) -0.58034(13) -0.21251(12)
O1 O -0.64722(14) -1.23471(11) -0.23397(10)
O2 O -0.65599(16) -1.09658(12) -0.35449(10)
N1 N -0.74054(15) -0.89038(12) -0.12490(11)
N2 N -0.78245(15) -0.82174(12) -0.00687(11)
C1 C -0.1830(2) -0.63934(18) -0.21325(18)
C2 C -0.2740(2) -0.72360(17) -0.32873(15)
H1 H -0.2223 -0.7409 -0.4053
C3 C -0.4450(2) -0.78248(16) -0.32874(14)
H2 H -0.5088 -0.8409 -0.4064
C4 C -0.52324(19) -0.75619(14) -0.21538(13)
C5 C -0.7127(2) -0.81596(16) -0.21714(15)
H3 H -0.7774 -0.7409 -0.1966
H4 H -0.7572 -0.8794 -0.3037
C6 C -0.78467(16) -0.91048(14) 0.05959(13)
C7 C -0.74270(17) -1.03579(14) -0.01670(13)
H5 H -0.7356 -1.1136 0.0069
C8 C -0.71420(17) -1.01971(14) -0.13383(13)
C9 C -0.66953(18) -1.11765(15) -0.25349(13)
C10 C -0.6040(2) -1.34105(16) -0.34517(15)
H6 H -0.4985 -1.3049 -0.3751
H7 H -0.6972 -1.3712 -0.4156
C11 C -0.5793(3) -1.45924(19) -0.3017(2)
H8 H -0.5523 -1.5329 -0.3731
H9 H -0.6840 -1.4930 -0.2710
H10 H -0.4857 -1.4283 -0.2330
C12 C -0.82513(17) -0.86888(15) 0.19470(13)
C13 C -0.8751(2) -0.74226(17) 0.25307(16)
H11 H -0.8883 -0.6838 0.2056
C14 C -0.9056(2) -0.7029(2) 0.38276(17)
H12 H -0.9373 -0.6174 0.4220
C15 C -0.8892(2) -0.7896(2) 0.45337(17)
H13 H -0.9096 -0.7625 0.5399
C16 C -0.8429(2) -0.9155(2) 0.39602(16)
H14 H -0.8329 -0.9745 0.4434
C17 C -0.8108(2) -0.95507(17) 0.26763(15)
H15 H -0.7791 -1.0408 0.2295
C18 C -0.4251(2) -0.67022(18) -0.10037(15)
H16 H -0.4756 -0.6519 -0.0233
C19 C -0.2534(2) -0.6114(2) -0.09867(18)
H17 H -0.1876 -0.5542 -0.0214
loop_
_geom_bond_atom_site_label_1
_geom_bond_atom_site_label_2
_geom_bond_site_symmetry_1
_geom_bond_site_symmetry_2
F1 C1 1_555 1_555
O1 C9 1_555 1_555
O2 C9 1_555 1_555
N1 N2 1_555 1_555
N2 C6 1_555 1_555
C1 C2 1_555 1_555
C2 H1 1_555 1_555
C3 C2 1_555 1_555
H2 C3 1_555 1_555
C4 C3 1_555 1_555
C5 N1 1_555 1_555
H3 C5 1_555 1_555
H4 C5 1_555 1_555
C6 C7 1_555 1_555
C7 H5 1_555 1_555
C8 N1 1_555 1_555
C9 C8 1_555 1_555
C10 O1 1_555 1_555
H6 C10 1_555 1_555
H7 C10 1_555 1_555
C11 C10 1_555 1_555
H8 C11 1_555 1_555
H9 C11 1_555 1_555
H10 C11 1_555 1_555
C12 C6 1_555 1_555
C13 C12 1_555 1_555
H11 C13 1_555 1_555
C14 C13 1_555 1_555
H12 C14 1_555 1_555
C15 C14 1_555 1_555
H13 C15 1_555 1_555
C16 C15 1_555 1_555
H14 C16 1_555 1_555
C17 C12 1_555 1_555
H15 C17 1_555 1_555
C18 C4 1_555 1_555
H16 C18 1_555 1_555
C19 C1 1_555 1_555
H17 C19 1_555 1_555
C4 C5 1_555 1_555
C7 C8 1_555 1_555
C16 C17 1_555 1_555
C18 C19 1_555 1_555

#END
