
#######################################################################
#
#                 Cambridge Crystallographic Data Centre
#                                CCDC 
#
#######################################################################
#
# If this CIF has been generated from an entry in the Cambridge 
# Structural Database, then it will include bibliographic, chemical, 
# crystal, experimental, refinement or atomic coordinate data resulting 
# from the CCDC's data processing and validation procedures.
#
#######################################################################

data_GICQIV
_chemical_formula_moiety         'C22 H19 N3'
_chemical_name_systematic        
2-(3-phenyl-4,5,6,7-tetrahydro-2H-indazol-2-yl)quinoline
_symmetry_cell_setting           triclinic
_symmetry_space_group_name_H-M   'P -1'
_symmetry_Int_Tables_number      2
_space_group_name_Hall           '-P 1'
loop_
_symmetry_equiv_pos_site_id
_symmetry_equiv_pos_as_xyz
1 x,y,z
2 -x,-y,-z
_cell_length_a                   8.569(9)
_cell_length_b                   11.998(13)
_cell_length_c                   17.504(18)
_cell_angle_alpha                91.50(2)
_cell_angle_beta                 100.81(2)
_cell_angle_gamma                110.41(2)
_cell_volume                     1648.48
_exptl_crystal_colour            colorless
_exptl_crystal_description       block
_cell_formula_units_Z            4
loop_
_atom_site_label
_atom_site_type_symbol
_atom_site_fract_x
_atom_site_fract_y
_atom_site_fract_z
N1 N 0.17125(10) 0.35978(7) 0.41745(5)
N2 N 0.24744(10) 0.19937(7) 0.39101(5)
N3 N 0.14321(10) 0.45353(7) 0.38281(5)
C1 C 0.22173(12) 0.09792(8) 0.34618(5)
C2 C 0.09492(12) 0.05732(8) 0.27750(5)
C3 C 0.14603(12) 0.25718(8) 0.36937(5)
C4 C 0.01441(12) 0.22487(9) 0.30223(5)
H1 H -0.0554 0.2711 0.2895
C5 C -0.00878(12) 0.12550(9) 0.25655(5)
H2 H -0.0951 0.1014 0.2102
C6 C 0.19565(12) 0.53957(8) 0.44000(5)
C7 C 0.24076(12) 0.38767(8) 0.49558(5)
C8 C 0.27650(14) 0.69429(9) 0.57626(6)
H3 H 0.1550 0.6711 0.5789
H4 H 0.3444 0.7562 0.6201
C9 C 0.32524(13) 0.03123(9) 0.37041(6)
H5 H 0.4113 0.0581 0.4168
C10 C 0.25950(12) 0.50430(8) 0.51134(5)
C11 C 0.07494(14) -0.04913(9) 0.23472(6)
H6 H -0.0102 -0.0774 0.1881
C12 C 0.32894(13) 0.58541(9) 0.58512(6)
H7 H 0.4547 0.6114 0.5977
H8 H 0.2851 0.5424 0.6286
C13 C 0.13519(13) 0.18922(9) 0.54513(6)
H9 H 0.0352 0.1678 0.5051
C14 C 0.26216(12) 0.30063(8) 0.54967(5)
C15 C 0.18451(13) 0.65950(9) 0.43040(6)
H10 H 0.0660 0.6548 0.4279
H11 H 0.2176 0.6876 0.3811
C16 C 0.42147(14) 0.25076(10) 0.66283(6)
H12 H 0.5199 0.2725 0.7037
C17 C 0.30252(14) -0.07145(9) 0.32769(7)
H13 H 0.3730 -0.1160 0.3444
C18 C 0.17654(14) -0.11210(9) 0.25948(6)
H14 H 0.1616 -0.1842 0.2302
C19 C 0.30279(13) 0.74622(9) 0.49920(6)
H15 H 0.2809 0.8220 0.4983
H16 H 0.4224 0.7642 0.4948
C20 C 0.29641(15) 0.14002(10) 0.65708(6)
H17 H 0.3087 0.0848 0.6935
C21 C 0.40488(12) 0.33107(9) 0.60934(5)
H18 H 0.4921 0.4075 0.6137
C22 C 0.15279(14) 0.10931(9) 0.59817(6)
H19 H 0.0657 0.0329 0.5941
N4 N 0.26319(10) 0.60212(7) 0.03979(5)
N5 N 0.33347(10) 0.74279(7) -0.04769(5)
N6 N 0.29372(11) 0.60024(7) 0.11909(5)
C23 C 0.19103(13) 0.88266(9) 0.02434(6)
H20 H 0.1415 0.9295 0.0489
C24 C 0.26059(12) 0.71005(8) 0.01077(6)
C25 C 0.33888(12) 0.85017(8) -0.07317(6)
C26 C 0.27897(12) 0.42700(8) 0.05934(5)
C27 C 0.21893(12) 0.46954(8) -0.08252(5)
C28 C 0.29715(12) 0.39886(8) -0.11149(6)
H21 H 0.3764 0.3751 -0.0767
C29 C 0.18258(12) 0.77480(9) 0.04857(6)
H22 H 0.1262 0.7439 0.0895
C30 C 0.27311(12) 0.92534(8) -0.03714(6)
C31 C 0.30263(12) 0.49404(8) 0.12991(6)
C32 C 0.26096(13) 0.36290(9) -0.19016(6)
H23 H 0.3143 0.3139 -0.2094
C33 C 0.25515(11) 0.49864(8) 0.00189(5)
C34 C 0.38240(14) 1.07669(9) -0.12084(7)
H24 H 0.4005 1.1547 -0.1365
C35 C 0.42100(13) 0.88902(9) -0.13515(6)
H25 H 0.4610 0.8375 -0.1613
C36 C 0.44357(14) 1.00068(10) -0.15789(7)
H26 H 0.5012 1.0269 -0.1992
C37 C 0.29722(14) 1.03962(9) -0.06265(6)
H27 H 0.2534 1.0911 -0.0389
C38 C 0.10348(12) 0.50367(9) -0.13431(6)
H28 H 0.0481 0.5514 -0.1153
C39 C 0.27699(12) 0.30253(8) 0.05497(6)
H29 H 0.3873 0.3022 0.0457
H30 H 0.1858 0.2532 0.0110
C40 C 0.36896(13) 0.33506(9) 0.20025(6)
H31 H 0.4870 0.3548 0.1928
H32 H 0.3592 0.2953 0.2489
C41 C 0.14729(14) 0.39795(9) -0.24110(6)
H33 H 0.1228 0.3735 -0.2954
C42 C 0.33169(14) 0.44978(9) 0.20807(6)
H34 H 0.2294 0.4342 0.2307
H35 H 0.4290 0.5114 0.2437
C43 C 0.24584(13) 0.25066(9) 0.13156(6)
H36 H 0.1274 0.2375 0.1360
H37 H 0.2609 0.1725 0.1322
C44 C 0.06903(13) 0.46858(9) -0.21312(6)
H38 H -0.0088 0.4931 -0.2483
loop_
_geom_bond_atom_site_label_1
_geom_bond_atom_site_label_2
_geom_bond_site_symmetry_1
_geom_bond_site_symmetry_2
N1 N3 1_555 1_555
N2 C1 1_555 1_555
N3 C6 1_555 1_555
C1 C2 1_555 1_555
C2 C5 1_555 1_555
C3 N1 1_555 1_555
C4 C3 1_555 1_555
H1 C4 1_555 1_555
C5 C4 1_555 1_555
H2 C5 1_555 1_555
C6 C10 1_555 1_555
C7 N1 1_555 1_555
C8 H3 1_555 1_555
H4 C8 1_555 1_555
C9 C1 1_555 1_555
H5 C9 1_555 1_555
C10 C7 1_555 1_555
C11 C2 1_555 1_555
H6 C11 1_555 1_555
C12 C8 1_555 1_555
H7 C12 1_555 1_555
H8 C12 1_555 1_555
C13 H9 1_555 1_555
C14 C7 1_555 1_555
C15 C6 1_555 1_555
H10 C15 1_555 1_555
H11 C15 1_555 1_555
C16 H12 1_555 1_555
C17 C9 1_555 1_555
H13 C17 1_555 1_555
C18 C11 1_555 1_555
H14 C18 1_555 1_555
C19 C8 1_555 1_555
H15 C19 1_555 1_555
H16 C19 1_555 1_555
C20 C16 1_555 1_555
H17 C20 1_555 1_555
C21 C14 1_555 1_555
H18 C21 1_555 1_555
C22 C13 1_555 1_555
H19 C22 1_555 1_555
N4 N6 1_555 1_555
N5 C24 1_555 1_555
N6 C31 1_555 1_555
C23 H20 1_555 1_555
C24 N4 1_555 1_555
C25 N5 1_555 1_555
C26 C31 1_555 1_555
C27 C28 1_555 1_555
C28 H21 1_555 1_555
C29 C23 1_555 1_555
H22 C29 1_555 1_555
C30 C23 1_555 1_555
C31 C42 1_555 1_555
C32 C28 1_555 1_555
H23 C32 1_555 1_555
C33 N4 1_555 1_555
C34 H24 1_555 1_555
C35 C25 1_555 1_555
H25 C35 1_555 1_555
C36 C34 1_555 1_555
H26 C36 1_555 1_555
C37 C30 1_555 1_555
H27 C37 1_555 1_555
C38 C27 1_555 1_555
H28 C38 1_555 1_555
C39 C26 1_555 1_555
H29 C39 1_555 1_555
H30 C39 1_555 1_555
C40 H31 1_555 1_555
H32 C40 1_555 1_555
C41 C32 1_555 1_555
H33 C41 1_555 1_555
C42 C40 1_555 1_555
H34 C42 1_555 1_555
H35 C42 1_555 1_555
C43 C39 1_555 1_555
H36 C43 1_555 1_555
H37 C43 1_555 1_555
C44 C38 1_555 1_555
H38 C44 1_555 1_555
N2 C3 1_555 1_555
C10 C12 1_555 1_555
C13 C14 1_555 1_555
C15 C19 1_555 1_555
C16 C21 1_555 1_555
C17 C18 1_555 1_555
C20 C22 1_555 1_555
C24 C29 1_555 1_555
C25 C30 1_555 1_555
C26 C33 1_555 1_555
C27 C33 1_555 1_555
C34 C37 1_555 1_555
C35 C36 1_555 1_555
C40 C43 1_555 1_555
C41 C44 1_555 1_555

#END
