
#######################################################################
#
#                 Cambridge Crystallographic Data Centre
#                                CCDC 
#
#######################################################################
#
# If this CIF has been generated from an entry in the Cambridge 
# Structural Database, then it will include bibliographic, chemical, 
# crystal, experimental, refinement or atomic coordinate data resulting 
# from the CCDC's data processing and validation procedures.
#
#######################################################################

data_GICSAO
_chemical_formula_moiety         
'C42 H48 N14 O8,C8 H20 N1 1+,Cl1 1-,4.28(H2 O1)'
_chemical_name_systematic        
'Tetraethylammonium chloride 1,4,12,15,23,26,29,37,42,50,53,54,55,56-tetradeca-azahexacyclo[24.13.13.1^6,10^.1^17,21^.1^31,35^.1^44,48^]hexapentaconta-6(56),7,9,17(55),18,20,31(54),32,34,44(53),45,47-dodecaene-5,11,16,22,30,36,43,49-octone hydrate'
_symmetry_cell_setting           triclinic
_symmetry_space_group_name_H-M   'P -1'
_symmetry_Int_Tables_number      2
_space_group_name_Hall           '-P 1'
loop_
_symmetry_equiv_pos_site_id
_symmetry_equiv_pos_as_xyz
1 x,y,z
2 -x,-y,-z
_cell_length_a                   11.661(2)
_cell_length_b                   15.641(3)
_cell_length_c                   16.112(3)
_cell_angle_alpha                110.76(3)
_cell_angle_beta                 92.90(3)
_cell_angle_gamma                92.09(3)
_cell_volume                     2739.69
_exptl_crystal_colour            colorless
_exptl_crystal_description       'Rectangular parallelepiped'
_cell_formula_units_Z            2
loop_
_atom_site_label
_atom_site_type_symbol
_atom_site_fract_x
_atom_site_fract_y
_atom_site_fract_z
O1 O 0.60019(14) 0.21250(11) 0.04979(11)
O2 O 0.11893(16) 0.15370(12) -0.24892(12)
O3 O -0.07590(15) 0.46232(12) 0.29220(11)
O4 O 0.39468(15) 0.76927(12) 0.32678(12)
O5 O 0.59317(17) 0.69958(12) 0.52371(11)
O6 O 0.13339(15) 0.36889(12) 0.42721(11)
O7 O 0.36369(15) 0.09476(11) 0.10677(11)
O8 O -0.13061(15) -0.02867(12) -0.18670(11)
N1 N 0.56763(17) 0.56023(13) 0.20041(13)
C1 C 0.5603(2) 0.48028(16) 0.11895(16)
H1 H 0.6355 0.4735 0.0922
H2 H 0.5023 0.4887 0.0759
C2 C 0.5265(2) 0.39335(16) 0.13764(17)
H3 H 0.5959 0.3703 0.1587
H4 H 0.4722 0.4084 0.1854
N2 N 0.47344(18) 0.32259(13) 0.05865(13)
H5 H 0.4116 0.3355 0.0328
C3 C 0.5122(2) 0.23910(17) 0.02254(17)
C4 C 0.4404(2) 0.17640(16) -0.05749(16)
N3 N 0.34505(17) 0.21008(13) -0.08123(13)
C5 C 0.4730(2) 0.08873(17) -0.10251(17)
H6 H 0.5410 0.0673 -0.0835
C6 C 0.4053(2) 0.03345(17) -0.17508(18)
H7 H 0.4254 -0.0271 -0.2074
C7 C 0.3080(2) 0.06740(17) -0.20016(17)
H8 H 0.2598 0.0304 -0.2503
C8 C 0.2802(2) 0.15667(17) -0.15157(17)
C9 C 0.1765(2) 0.19685(17) -0.18000(17)
N4 N 0.15499(17) 0.28086(13) -0.12655(13)
H9 H 0.1960 0.3042 -0.0754
C10 C 0.0685(2) 0.33684(16) -0.14668(16)
H10 H 0.0732 0.3321 -0.2093
H11 H 0.0874 0.4016 -0.1086
C11 C -0.0537(2) 0.31163(17) -0.13347(15)
H12 H -0.1037 0.3593 -0.1391
H13 H -0.0794 0.2532 -0.1816
N5 N -0.06920(16) 0.30176(13) -0.04743(12)
C12 C -0.0496(2) 0.38871(16) 0.02696(15)
H14 H -0.1189 0.4246 0.0325
H15 H 0.0156 0.4247 0.0159
C13 C -0.0228(2) 0.37120(17) 0.11329(16)
H16 H -0.0954 0.3572 0.1365
H17 H 0.0248 0.3175 0.1011
N6 N 0.03809(19) 0.45051(14) 0.17948(13)
H18 H 0.0983 0.4751 0.1637
C14 C 0.0082(2) 0.48826(17) 0.26285(17)
C15 C 0.0863(2) 0.56852(17) 0.32098(16)
N7 N 0.17398(17) 0.59390(13) 0.28278(13)
C16 C 0.0667(2) 0.61136(17) 0.40954(17)
H19 H 0.0039 0.5913 0.4346
C17 C 0.1408(2) 0.68436(17) 0.46106(17)
H20 H 0.1301 0.7148 0.5224
C18 C 0.2296(2) 0.71200(18) 0.42223(17)
H21 H 0.2809 0.7623 0.4561
C19 C 0.2434(2) 0.66560(16) 0.33304(17)
C20 C 0.3376(2) 0.69700(18) 0.28763(18)
N8 N 0.35067(17) 0.64220(14) 0.20464(14)
H22 H 0.3041 0.5929 0.1811
C21 C 0.4382(2) 0.65999(17) 0.15122(16)
H23 H 0.4346 0.7239 0.1534
H24 H 0.4216 0.6190 0.0886
C22 C 0.5594(2) 0.64576(16) 0.18204(17)
H25 H 0.6123 0.6449 0.1356
H26 H 0.5849 0.6982 0.2367
C23 C 0.6702(2) 0.56371(17) 0.25768(16)
H27 H 0.7374 0.5869 0.2352
H28 H 0.6848 0.5011 0.2557
C24 C 0.6566(2) 0.62459(17) 0.35217(16)
H29 H 0.7264 0.6239 0.3896
H30 H 0.6483 0.6883 0.3549
N9 N 0.55699(18) 0.59439(13) 0.38663(14)
H31 H 0.5115 0.5485 0.3512
C25 C 0.5330(2) 0.63477(16) 0.47090(17)
C26 C 0.4299(2) 0.59654(16) 0.50070(16)
N10 N 0.37102(18) 0.52339(13) 0.44161(13)
C27 C 0.4008(2) 0.63736(17) 0.58739(17)
H32 H 0.4456 0.6887 0.6275
C28 C 0.3068(2) 0.60283(17) 0.61450(16)
H33 H 0.2849 0.6299 0.6738
C29 C 0.2439(2) 0.52790(17) 0.55456(16)
H34 H 0.1773 0.5033 0.5716
C30 C 0.2793(2) 0.48953(17) 0.46977(16)
C31 C 0.2156(2) 0.40431(17) 0.40546(16)
N11 N 0.25597(19) 0.37286(14) 0.32551(13)
H35 H 0.3128 0.4046 0.3139
C32 C 0.2110(2) 0.28821(17) 0.25554(16)
H36 H 0.1279 0.2919 0.2424
H37 H 0.2208 0.2359 0.2757
C33 C 0.2737(2) 0.27355(16) 0.17335(15)
H38 H 0.2683 0.3280 0.1559
H39 H 0.3561 0.2664 0.1860
N12 N 0.22714(18) 0.19342(13) 0.10060(13)
H40 H 0.1629 0.1984 0.0721
C34 C 0.2743(2) 0.11221(17) 0.07331(17)
C35 C 0.2090(2) 0.04063(16) -0.00498(16)
N13 N 0.11051(17) 0.06503(13) -0.03466(13)
C36 C 0.2493(2) -0.04598(17) -0.04179(16)
H41 H 0.3205 -0.0603 -0.0201
C37 C 0.1842(2) -0.11109(17) -0.11065(16)
H42 H 0.2097 -0.1712 -0.1368
C38 C 0.0822(2) -0.08811(16) -0.14086(16)
H43 H 0.0353 -0.1321 -0.1876
C39 C 0.0484(2) 0.00138(16) -0.10158(16)
C40 C -0.0644(2) 0.02842(17) -0.13184(16)
N14 N -0.08485(17) 0.11609(14) -0.09286(14)
H44 H -0.0308 0.1519 -0.0551
C41 C -0.1901(2) 0.15754(16) -0.10792(17)
H45 H -0.2576 0.1253 -0.0949
H46 H -0.1995 0.1531 -0.1708
C42 C -0.1813(2) 0.25769(16) -0.04652(16)
H47 H -0.2421 0.2907 -0.0655
H48 H -0.1942 0.2615 0.0149
Cl1 Cl 0.25451(5) 0.44542(4) 0.05594(4)
N15 N 0.25010(19) 0.06092(14) 0.45393(13)
C43 C 0.2463(3) -0.04160(19) 0.4269(2)
H49 H 0.2441 -0.0577 0.4809
H50 H 0.3177 -0.0643 0.3980
C44 C 0.1431(3) -0.09006(19) 0.36330(19)
H51 H 0.1458 -0.1564 0.3482
H52 H 0.1455 -0.0757 0.3089
H53 H 0.0719 -0.0693 0.3919
C45 C 0.1419(2) 0.09359(18) 0.49984(18)
H54 H 0.0759 0.0709 0.4551
H55 H 0.1325 0.0646 0.5448
C46 C 0.1347(3) 0.19522(18) 0.5452(2)
H56 H 0.0609 0.2078 0.5723
H57 H 0.1409 0.2252 0.5014
H58 H 0.1976 0.2189 0.5915
C47 C 0.2546(3) 0.0944(2) 0.37634(19)
H59 H 0.2619 0.1622 0.3999
H60 H 0.1811 0.0753 0.3394
C48 C 0.3537(3) 0.0584(3) 0.3174(2)
H61 H 0.3514 0.0824 0.2689
H62 H 0.3462 -0.0087 0.2926
H63 H 0.4269 0.0784 0.3530
C49 C 0.3549(2) 0.10094(19) 0.51688(17)
H64 H 0.4236 0.0757 0.4852
H65 H 0.3602 0.1678 0.5301
C50 C 0.3608(3) 0.0859(2) 0.60222(18)
H66 H 0.4326 0.1149 0.6365
H67 H 0.3584 0.0200 0.5909
H68 H 0.2953 0.1128 0.6360
O9 O -0.06742(15) 0.29100(12) 0.31780(12)
H69 H -0.0820 0.3370 0.3045
H70 H -0.0081 0.3092 0.3525
O10 O 0.56114(15) 0.19410(12) 0.21421(11)
H71 H 0.5797 0.1975 0.1657
H72 H 0.4943 0.1697 0.1986
O11 O -0.24273(17) 0.16517(12) 0.32578(12)
H73 H -0.2989 0.1745 0.2961
H74 H -0.1962 0.2099 0.3333
O12 O 0.09465(19) -0.03904(13) -0.36924(14)
H75 H 0.1061 0.0151 -0.3334
H76 H 0.1406 -0.0742 -0.3577
O13 O -0.4072(6) 0.1432(4) 0.4282(4)
loop_
_geom_bond_atom_site_label_1
_geom_bond_atom_site_label_2
_geom_bond_site_symmetry_1
_geom_bond_site_symmetry_2
O1 C3 1_555 1_555
O2 C9 1_555 1_555
O3 C14 1_555 1_555
O4 C20 1_555 1_555
O5 C25 1_555 1_555
O6 C31 1_555 1_555
O7 C34 1_555 1_555
O8 C40 1_555 1_555
N1 C1 1_555 1_555
C1 H1 1_555 1_555
H2 C1 1_555 1_555
C2 C1 1_555 1_555
H3 C2 1_555 1_555
H4 C2 1_555 1_555
N2 C2 1_555 1_555
H5 N2 1_555 1_555
C3 N2 1_555 1_555
C4 C3 1_555 1_555
N3 C4 1_555 1_555
C5 C4 1_555 1_555
H6 C5 1_555 1_555
C6 C5 1_555 1_555
H7 C6 1_555 1_555
C7 C6 1_555 1_555
H8 C7 1_555 1_555
C8 N3 1_555 1_555
C9 C8 1_555 1_555
N4 C9 1_555 1_555
H9 N4 1_555 1_555
C10 N4 1_555 1_555
H10 C10 1_555 1_555
H11 C10 1_555 1_555
C11 C10 1_555 1_555
H12 C11 1_555 1_555
H13 C11 1_555 1_555
N5 C11 1_555 1_555
C12 N5 1_555 1_555
H14 C12 1_555 1_555
H15 C12 1_555 1_555
C13 C12 1_555 1_555
H16 C13 1_555 1_555
H17 C13 1_555 1_555
N6 C13 1_555 1_555
H18 N6 1_555 1_555
C14 N6 1_555 1_555
C15 C14 1_555 1_555
N7 C15 1_555 1_555
C16 C15 1_555 1_555
H19 C16 1_555 1_555
C17 C16 1_555 1_555
H20 C17 1_555 1_555
C18 C17 1_555 1_555
H21 C18 1_555 1_555
C19 N7 1_555 1_555
C20 C19 1_555 1_555
N8 C20 1_555 1_555
H22 N8 1_555 1_555
C21 N8 1_555 1_555
H23 C21 1_555 1_555
H24 C21 1_555 1_555
C22 N1 1_555 1_555
H25 C22 1_555 1_555
H26 C22 1_555 1_555
C23 N1 1_555 1_555
H27 C23 1_555 1_555
H28 C23 1_555 1_555
C24 C23 1_555 1_555
H29 C24 1_555 1_555
H30 C24 1_555 1_555
N9 C24 1_555 1_555
H31 N9 1_555 1_555
C25 N9 1_555 1_555
C26 C25 1_555 1_555
N10 C26 1_555 1_555
C27 C26 1_555 1_555
H32 C27 1_555 1_555
C28 C27 1_555 1_555
H33 C28 1_555 1_555
C29 C28 1_555 1_555
H34 C29 1_555 1_555
C30 N10 1_555 1_555
C31 C30 1_555 1_555
N11 C31 1_555 1_555
H35 N11 1_555 1_555
C32 N11 1_555 1_555
H36 C32 1_555 1_555
H37 C32 1_555 1_555
C33 C32 1_555 1_555
H38 C33 1_555 1_555
H39 C33 1_555 1_555
N12 C33 1_555 1_555
H40 N12 1_555 1_555
C34 N12 1_555 1_555
C35 C34 1_555 1_555
N13 C35 1_555 1_555
C36 C35 1_555 1_555
H41 C36 1_555 1_555
C37 C36 1_555 1_555
H42 C37 1_555 1_555
C38 C37 1_555 1_555
H43 C38 1_555 1_555
C39 N13 1_555 1_555
C40 C39 1_555 1_555
N14 C40 1_555 1_555
H44 N14 1_555 1_555
C41 N14 1_555 1_555
H45 C41 1_555 1_555
H46 C41 1_555 1_555
C42 N5 1_555 1_555
H47 C42 1_555 1_555
H48 C42 1_555 1_555
N15 C43 1_555 1_555
C43 H49 1_555 1_555
H50 C43 1_555 1_555
C44 C43 1_555 1_555
H51 C44 1_555 1_555
H52 C44 1_555 1_555
H53 C44 1_555 1_555
C45 N15 1_555 1_555
H54 C45 1_555 1_555
H55 C45 1_555 1_555
C46 C45 1_555 1_555
H56 C46 1_555 1_555
H57 C46 1_555 1_555
H58 C46 1_555 1_555
C47 N15 1_555 1_555
H59 C47 1_555 1_555
H60 C47 1_555 1_555
C48 C47 1_555 1_555
H61 C48 1_555 1_555
H62 C48 1_555 1_555
H63 C48 1_555 1_555
C49 N15 1_555 1_555
H64 C49 1_555 1_555
H65 C49 1_555 1_555
C50 C49 1_555 1_555
H66 C50 1_555 1_555
H67 C50 1_555 1_555
H68 C50 1_555 1_555
O9 H69 1_555 1_555
H70 O9 1_555 1_555
O10 H71 1_555 1_555
H72 O10 1_555 1_555
O11 H73 1_555 1_555
H74 O11 1_555 1_555
O12 H75 1_555 1_555
H76 O12 1_555 1_555
C7 C8 1_555 1_555
C18 C19 1_555 1_555
C21 C22 1_555 1_555
C29 C30 1_555 1_555
C38 C39 1_555 1_555
C41 C42 1_555 1_555

#END
