
#######################################################################
#
#                 Cambridge Crystallographic Data Centre
#                                CCDC 
#
#######################################################################
#
# If this CIF has been generated from an entry in the Cambridge 
# Structural Database, then it will include bibliographic, chemical, 
# crystal, experimental, refinement or atomic coordinate data resulting 
# from the CCDC's data processing and validation procedures.
#
#######################################################################

data_GICSUI
_chemical_formula_moiety         'C29 H38 N2 O4 S1 2+,C1 H4 O1,2(Br1 1-)'
_chemical_name_systematic        
'5-(Hydroxymethyl)-3-((2-naphthylmethyl)ammonio)-2-((4-(pentoxy)phenyl)sulfonyl)-7-azoniabicyclo[2.2.1]heptane dibromide methanol solvate'
_symmetry_cell_setting           triclinic
_symmetry_space_group_name_H-M   'P -1'
_symmetry_Int_Tables_number      2
_space_group_name_Hall           '-P 1'
loop_
_symmetry_equiv_pos_site_id
_symmetry_equiv_pos_as_xyz
1 x,y,z
2 -x,-y,-z
_cell_length_a                   7.64600(10)
_cell_length_b                   12.9218(2)
_cell_length_c                   15.7456(3)
_cell_angle_alpha                90.3064(7)
_cell_angle_beta                 94.5016(7)
_cell_angle_gamma                100.1140(8)
_cell_volume                     1526.48
_exptl_crystal_colour            colorless
_exptl_crystal_description       Cube
_cell_formula_units_Z            2
loop_
_atom_site_label
_atom_site_type_symbol
_atom_site_fract_x
_atom_site_fract_y
_atom_site_fract_z
Br1 Br 0.38849(4) 0.71266(2) 0.024373(16)
Br2 Br 0.37784(4) 0.38948(2) 0.22507(2)
S1 S 1.03612(9) 0.58935(5) 0.31920(4)
O1 O 1.1719(3) 0.64428(17) 0.26884(13)
O2 O 1.0672(3) 0.49499(17) 0.36179(13)
O3 O 0.8750(3) 0.88523(16) 0.57381(12)
O4 O 0.9244(3) 0.63554(18) -0.06579(13)
N1 N 0.7773(3) 0.37306(18) 0.17323(15)
N2 N 0.6348(3) 0.5813(2) 0.13822(15)
C1 C 0.8666(4) 0.3109(2) 0.23923(18)
C2 C 0.7761(3) 0.1978(2) 0.24148(17)
C3 C 0.7464(4) 0.1325(2) 0.16668(17)
C4 C 0.6724(4) 0.0281(2) 0.17061(18)
C5 C 0.6269(4) -0.0180(2) 0.24899(17)
C6 C 0.6608(4) 0.0452(2) 0.32442(17)
C7 C 0.7333(4) 0.1543(2) 0.31780(17)
C8 C 0.6230(4) -0.0016(2) 0.40336(18)
C9 C 0.5504(4) -0.1059(2) 0.4073(2)
C10 C 0.5101(4) -0.1678(2) 0.33208(19)
C11 C 0.8654(4) 0.4859(2) 0.17135(16)
C12 C 0.7869(4) 0.5447(2) 0.09766(17)
C13 C 0.7477(4) 0.6414(2) 0.21140(17)
C14 C 0.8339(4) 0.5512(2) 0.25084(16)
C15 C 0.8734(4) 0.7184(2) 0.16113(18)
C16 C 0.9144(4) 0.6491(2) 0.08713(17)
C17 C 0.5484(4) -0.1257(2) 0.25493(19)
C18 C 0.9820(4) 0.6767(2) 0.39467(17)
C19 C 0.9032(4) 0.6362(2) 0.46653(18)
C20 C 0.8655(4) 0.7033(2) 0.52890(18)
C21 C 0.9060(4) 0.8124(2) 0.51759(17)
C22 C 0.9867(4) 0.8529(2) 0.44483(18)
C23 C 1.0262(4) 0.7856(2) 0.38363(18)
C24 C 0.8043(4) 0.8498(2) 0.65332(17)
C25 C 0.8323(4) 0.9461(2) 0.71288(18)
C26 C 0.7819(4) 0.9169(2) 0.80234(17)
C27 C 0.8204(4) 1.0124(2) 0.86290(18)
C28 C 0.7659(5) 0.9861(3) 0.95284(19)
C29 C 0.8873(4) 0.7010(2) 0.00167(18)
H1 H 0.831(5) 0.627(3) -0.101(2)
H2 H 0.660(5) 0.368(3) 0.194(2)
H3 H 0.783(4) 0.344(3) 0.128(2)
H4 H 0.570(5) 0.612(3) 0.104(2)
H5 H 0.564(5) 0.534(3) 0.149(2)
H6 H 0.874(4) 0.347(2) 0.2910(19)
H7 H 0.993(6) 0.320(3) 0.221(2)
H8 H 0.770(5) 0.163(3) 0.108(2)
H9 H 0.655(5) -0.010(3) 0.122(3)
H10 H 0.748(4) 0.196(2) 0.3645(19)
H11 H 0.656(5) 0.040(3) 0.448(2)
H12 H 0.528(5) -0.139(3) 0.463(2)
H13 H 0.465(5) -0.229(3) 0.337(2)
H14 H 0.978(5) 0.486(3) 0.161(2)
H15 H 0.758(5) 0.511(3) 0.055(2)
H16 H 0.676(4) 0.673(3) 0.247(2)
H17 H 0.753(5) 0.511(3) 0.278(2)
H18 H 0.812(4) 0.771(3) 0.140(2)
H19 H 0.980(5) 0.754(3) 0.194(2)
H20 H 1.024(5) 0.638(3) 0.095(2)
H21 H 0.532(6) -0.172(3) 0.211(3)
H22 H 0.881(4) 0.564(3) 0.477(2)
H23 H 0.809(5) 0.677(3) 0.577(2)
H24 H 1.011(5) 0.923(3) 0.441(2)
H25 H 1.084(5) 0.820(3) 0.334(2)
H26 H 0.870(4) 0.796(2) 0.6761(17)
H27 H 0.663(5) 0.815(3) 0.642(2)
H28 H 0.966(4) 0.982(2) 0.7144(19)
H29 H 0.757(5) 0.999(3) 0.686(2)
H30 H 0.856(4) 0.858(2) 0.8247(18)
H31 H 0.664(5) 0.892(3) 0.802(2)
H32 H 0.943(5) 1.043(3) 0.864(2)
H33 H 0.754(5) 1.064(3) 0.841(2)
H34 H 0.648(6) 0.953(4) 0.951(3)
H35 H 0.842(5) 0.941(3) 0.979(2)
H36 H 0.796(6) 1.052(4) 0.984(3)
H37 H 0.776(5) 0.711(3) -0.010(2)
H38 H 0.972(5) 0.769(3) 0.003(2)
O5 O 0.6347(6) 0.4086(4) 0.4013(3)
C30 C 0.6046(8) 0.3720(5) 0.4834(4)
H39 H 0.5227 0.3891 0.3631
H40 H 0.7092 0.3301 0.5059
H41 H 0.4775 0.3197 0.4818
H42 H 0.6040 0.4378 0.5258
loop_
_geom_bond_atom_site_label_1
_geom_bond_atom_site_label_2
_geom_bond_site_symmetry_1
_geom_bond_site_symmetry_2
S1 O1 1_555 1_555
O2 S1 1_555 1_555
O3 C21 1_555 1_555
O4 C29 1_555 1_555
N1 C1 1_555 1_555
N2 C12 1_555 1_555
C1 C2 1_555 1_555
C2 C3 1_555 1_555
C3 C4 1_555 1_555
C4 C5 1_555 1_555
C5 C6 1_555 1_555
C6 C7 1_555 1_555
C7 C2 1_555 1_555
C8 C6 1_555 1_555
C9 C8 1_555 1_555
C10 C9 1_555 1_555
C11 N1 1_555 1_555
C12 C11 1_555 1_555
C13 N2 1_555 1_555
C14 S1 1_555 1_555
C15 C13 1_555 1_555
C16 C12 1_555 1_555
C17 C5 1_555 1_555
C18 S1 1_555 1_555
C19 C18 1_555 1_555
C20 C19 1_555 1_555
C21 C20 1_555 1_555
C22 C21 1_555 1_555
C23 C18 1_555 1_555
C24 O3 1_555 1_555
C25 C24 1_555 1_555
C26 C25 1_555 1_555
C27 C26 1_555 1_555
C28 C27 1_555 1_555
C29 C16 1_555 1_555
H1 O4 1_555 1_555
H2 N1 1_555 1_555
H3 N1 1_555 1_555
H4 N2 1_555 1_555
H5 N2 1_555 1_555
H6 C1 1_555 1_555
H7 C1 1_555 1_555
H8 C3 1_555 1_555
H9 C4 1_555 1_555
H10 C7 1_555 1_555
H11 C8 1_555 1_555
H12 C9 1_555 1_555
H13 C10 1_555 1_555
H14 C11 1_555 1_555
H15 C12 1_555 1_555
H16 C13 1_555 1_555
H17 C14 1_555 1_555
H18 C15 1_555 1_555
H19 C15 1_555 1_555
H20 C16 1_555 1_555
H21 C17 1_555 1_555
H22 C19 1_555 1_555
H23 C20 1_555 1_555
H24 C22 1_555 1_555
H25 C23 1_555 1_555
H26 C24 1_555 1_555
H27 C24 1_555 1_555
H28 C25 1_555 1_555
H29 C25 1_555 1_555
H30 C26 1_555 1_555
H31 C26 1_555 1_555
H32 C27 1_555 1_555
H33 C27 1_555 1_555
H34 C28 1_555 1_555
H35 C28 1_555 1_555
H36 C28 1_555 1_555
H37 C29 1_555 1_555
H38 C29 1_555 1_555
O5 C30 1_555 1_555
C30 H40 1_555 1_555
H39 O5 1_555 1_555
H41 C30 1_555 1_555
H42 C30 1_555 1_555
C10 C17 1_555 1_555
C11 C14 1_555 1_555
C13 C14 1_555 1_555
C15 C16 1_555 1_555
C22 C23 1_555 1_555

#END
