
#######################################################################
#
#                 Cambridge Crystallographic Data Centre
#                                CCDC 
#
#######################################################################
#
# If this CIF has been generated from an entry in the Cambridge 
# Structural Database, then it will include bibliographic, chemical, 
# crystal, experimental, refinement or atomic coordinate data resulting 
# from the CCDC's data processing and validation procedures.
#
#######################################################################

data_GICSOD
_chemical_formula_moiety         'C57 H45 N7'
_chemical_name_systematic        
1-{1-[(naphthalen-1-yl)methyl]-1H-benzimidazol-2-yl}-N,N-bis({1-[(naphthalen-1-yl)methyl]-1H-benzimidazol-2-yl}methyl)methanamine
_symmetry_cell_setting           monoclinic
_symmetry_space_group_name_H-M   'P 21/n'
_symmetry_Int_Tables_number      14
_space_group_name_Hall           '-P 2yn'
loop_
_symmetry_equiv_pos_site_id
_symmetry_equiv_pos_as_xyz
1 x,y,z
2 1/2-x,1/2+y,1/2-z
3 -x,-y,-z
4 1/2+x,1/2-y,1/2+z
_cell_length_a                   9.2351(2)
_cell_length_b                   32.4366(6)
_cell_length_c                   14.4513(3)
_cell_angle_alpha                90
_cell_angle_beta                 95.405(2)
_cell_angle_gamma                90
_cell_volume                     4309.72
_exptl_crystal_colour            colorless
_exptl_crystal_description       irregular
_cell_formula_units_Z            4
loop_
_atom_site_label
_atom_site_type_symbol
_atom_site_fract_x
_atom_site_fract_y
_atom_site_fract_z
N1 N 0.1114(2) 0.41447(5) 0.57526(12)
N2 N -0.0167(2) 0.39970(7) 0.81114(14)
N3 N 0.0994(2) 0.35593(6) 0.72355(14)
N4 N 0.1974(2) 0.34188(6) 0.45006(13)
N5 N 0.0531(2) 0.38037(6) 0.35102(13)
N6 N 0.3871(2) 0.47112(6) 0.58643(13)
N7 N 0.2103(2) 0.51834(6) 0.59068(14)
C1 C 0.0468(3) 0.42659(7) 0.65915(16)
H1 H -0.0545 0.4357 0.6419
H2 H 0.1013 0.4504 0.6874
C2 C 0.0457(3) 0.39287(7) 0.73024(15)
C3 C -0.0029(3) 0.36300(8) 0.86062(17)
C4 C -0.0477(3) 0.35105(10) 0.94636(19)
H3 H -0.0997 0.3692 0.9827
C5 C -0.0128(3) 0.31174(10) 0.97533(19)
H4 H -0.0408 0.3025 1.0334
C6 C 0.0625(3) 0.28501(9) 0.9219(2)
H5 H 0.0865 0.2582 0.9451
C7 C 0.1033(3) 0.29635(9) 0.83587(19)
H6 H 0.1522 0.2776 0.7989
C8 C 0.0701(3) 0.33624(8) 0.80551(16)
C9 C -0.0834(4) 0.43724(11) 0.8426(2)
H7 H -0.1240 0.4313 0.9021
H8 H -0.1658 0.4446 0.7967
C10 C 0.0169(4) 0.47480(10) 0.8566(2)
C11 C -0.0065(4) 0.50741(11) 0.7987(2)
H9 H -0.0836 0.5062 0.7504
C12 C 0.0810(5) 0.54345(12) 0.8083(3)
H10 H 0.0644 0.5657 0.7657
C13 C 0.1894(5) 0.54583(13) 0.8794(3)
H11 H 0.2467 0.5701 0.8872
C14 C 0.2169(4) 0.51228(12) 0.9415(2)
C15 C 0.3276(5) 0.51483(15) 1.0160(3)
H12 H 0.3834 0.5394 1.0244
C16 C 0.3558(5) 0.48283(16) 1.0758(3)
H13 H 0.4297 0.4853 1.1259
C17 C 0.2763(5) 0.44651(15) 1.0636(3)
H14 H 0.2979 0.4238 1.1042
C18 C 0.1664(4) 0.44345(12) 0.9929(2)
H15 H 0.1115 0.4187 0.9862
C19 C 0.1330(4) 0.47612(11) 0.9299(2)
C20 C 0.1352(3) 0.45146(7) 0.51902(15)
H16 H 0.0414 0.4660 0.5050
H17 H 0.1699 0.4428 0.4593
C21 C 0.2429(3) 0.48060(7) 0.56654(15)
C22 C 0.3412(3) 0.53504(7) 0.62853(16)
C23 C 0.3717(3) 0.57462(8) 0.66394(18)
H18 H 0.2970 0.5946 0.6672
C24 C 0.5149(3) 0.58353(8) 0.69396(18)
H19 H 0.5389 0.6102 0.7182
C25 C 0.6244(3) 0.55454(9) 0.68952(19)
H20 H 0.7216 0.5620 0.7102
C26 C 0.5969(3) 0.51495(9) 0.65584(18)
H21 H 0.6720 0.4950 0.6538
C27 C 0.4529(3) 0.50613(7) 0.62527(15)
C28 C 0.4605(3) 0.43300(7) 0.56686(16)
H22 H 0.5497 0.4397 0.5369
H23 H 0.3963 0.4167 0.5219
C29 C 0.5023(3) 0.40657(8) 0.65181(17)
C30 C 0.4616(4) 0.41633(10) 0.7375(2)
H24 H 0.4044 0.4402 0.7450
C31 C 0.5038(5) 0.39118(12) 0.8153(2)
H25 H 0.4742 0.3981 0.8745
C32 C 0.5867(4) 0.35706(11) 0.8058(3)
H26 H 0.6162 0.3408 0.8589
C33 C 0.6296(3) 0.34535(9) 0.7181(2)
C34 C 0.7146(4) 0.30920(10) 0.7043(3)
H27 H 0.7466 0.2926 0.7564
C35 C 0.7501(4) 0.29811(11) 0.6196(4)
H28 H 0.8054 0.2738 0.6125
C36 C 0.7061(3) 0.32216(9) 0.5424(3)
H29 H 0.7309 0.3140 0.4828
C37 C 0.6269(3) 0.35766(8) 0.5517(2)
H30 H 0.5990 0.3739 0.4982
C38 C 0.5867(3) 0.37031(8) 0.6387(2)
C39 C 0.0137(2) 0.38649(7) 0.51867(15)
H31 H -0.0755 0.4016 0.4952
H32 H -0.0151 0.3634 0.5578
C40 C 0.0859(2) 0.36981(6) 0.43867(15)
C41 C 0.1460(3) 0.35723(7) 0.30161(16)
C42 C 0.1558(3) 0.35493(9) 0.20574(17)
H33 H 0.0961 0.3715 0.1634
C43 C 0.2563(3) 0.32754(9) 0.17491(19)
H34 H 0.2654 0.3253 0.1102
C44 C 0.3442(3) 0.30326(9) 0.2368(2)
H35 H 0.4117 0.2848 0.2132
C45 C 0.3357(3) 0.30526(8) 0.33194(19)
H36 H 0.3952 0.2886 0.3741
C46 C 0.2358(3) 0.33288(7) 0.36217(16)
C47 C 0.2443(3) 0.31891(7) 0.53344(16)
H37 H 0.2220 0.3349 0.5886
H38 H 0.3510 0.3149 0.5371
C48 C 0.1693(2) 0.27700(7) 0.53442(15)
C49 C 0.0520(3) 0.26775(8) 0.47315(16)
H39 H 0.0150 0.2881 0.4299
C50 C -0.0155(3) 0.22870(9) 0.47252(19)
H40 H -0.0965 0.2229 0.4290
C51 C 0.0356(3) 0.19933(9) 0.5343(2)
H41 H -0.0092 0.1730 0.5333
C52 C 0.1549(3) 0.20778(9) 0.59989(19)
C53 C 0.2079(4) 0.17800(11) 0.6672(3)
H42 H 0.1613 0.1519 0.6686
C54 C 0.3229(4) 0.18621(13) 0.7288(3)
H43 H 0.3555 0.1661 0.7738
C55 C 0.3948(4) 0.22432(12) 0.7270(2)
H44 H 0.4785 0.2292 0.7690
C56 C 0.3460(3) 0.25449(10) 0.66538(17)
H45 H 0.3939 0.2804 0.6662
C57 C 0.2236(3) 0.24699(8) 0.60034(15)
loop_
_geom_bond_atom_site_label_1
_geom_bond_atom_site_label_2
_geom_bond_site_symmetry_1
_geom_bond_site_symmetry_2
N1 C1 1_555 1_555
N2 C2 1_555 1_555
N3 C2 1_555 1_555
N4 C40 1_555 1_555
N5 C40 1_555 1_555
N6 C21 1_555 1_555
N7 C21 1_555 1_555
C1 H1 1_555 1_555
H2 C1 1_555 1_555
C2 C1 1_555 1_555
C3 N2 1_555 1_555
C4 C3 1_555 1_555
H3 C4 1_555 1_555
C5 C4 1_555 1_555
H4 C5 1_555 1_555
C6 C5 1_555 1_555
H5 C6 1_555 1_555
C7 C6 1_555 1_555
H6 C7 1_555 1_555
C8 N3 1_555 1_555
C9 N2 1_555 1_555
H7 C9 1_555 1_555
H8 C9 1_555 1_555
C10 C9 1_555 1_555
C11 C10 1_555 1_555
H9 C11 1_555 1_555
C12 C11 1_555 1_555
H10 C12 1_555 1_555
C13 C12 1_555 1_555
H11 C13 1_555 1_555
C14 C13 1_555 1_555
C15 C14 1_555 1_555
H12 C15 1_555 1_555
C16 C15 1_555 1_555
H13 C16 1_555 1_555
C17 C16 1_555 1_555
H14 C17 1_555 1_555
C18 C17 1_555 1_555
H15 C18 1_555 1_555
C19 C10 1_555 1_555
C20 N1 1_555 1_555
H16 C20 1_555 1_555
H17 C20 1_555 1_555
C21 C20 1_555 1_555
C22 N7 1_555 1_555
C23 C22 1_555 1_555
H18 C23 1_555 1_555
C24 C23 1_555 1_555
H19 C24 1_555 1_555
C25 C24 1_555 1_555
H20 C25 1_555 1_555
C26 C25 1_555 1_555
H21 C26 1_555 1_555
C27 N6 1_555 1_555
C28 N6 1_555 1_555
H22 C28 1_555 1_555
H23 C28 1_555 1_555
C29 C28 1_555 1_555
C30 C29 1_555 1_555
H24 C30 1_555 1_555
C31 C30 1_555 1_555
H25 C31 1_555 1_555
C32 C31 1_555 1_555
H26 C32 1_555 1_555
C33 C32 1_555 1_555
C34 C33 1_555 1_555
H27 C34 1_555 1_555
C35 C34 1_555 1_555
H28 C35 1_555 1_555
C36 C35 1_555 1_555
H29 C36 1_555 1_555
C37 C36 1_555 1_555
H30 C37 1_555 1_555
C38 C29 1_555 1_555
C39 N1 1_555 1_555
H31 C39 1_555 1_555
H32 C39 1_555 1_555
C40 C39 1_555 1_555
C41 N5 1_555 1_555
C42 C41 1_555 1_555
H33 C42 1_555 1_555
C43 C42 1_555 1_555
H34 C43 1_555 1_555
C44 C43 1_555 1_555
H35 C44 1_555 1_555
C45 C44 1_555 1_555
H36 C45 1_555 1_555
C46 N4 1_555 1_555
C47 N4 1_555 1_555
H37 C47 1_555 1_555
H38 C47 1_555 1_555
C48 C47 1_555 1_555
C49 C48 1_555 1_555
H39 C49 1_555 1_555
C50 C49 1_555 1_555
H40 C50 1_555 1_555
C51 C50 1_555 1_555
H41 C51 1_555 1_555
C52 C51 1_555 1_555
C53 C52 1_555 1_555
H42 C53 1_555 1_555
C54 C53 1_555 1_555
H43 C54 1_555 1_555
C55 C54 1_555 1_555
H44 C55 1_555 1_555
C56 C55 1_555 1_555
H45 C56 1_555 1_555
C57 C48 1_555 1_555
C3 C8 1_555 1_555
C7 C8 1_555 1_555
C14 C19 1_555 1_555
C18 C19 1_555 1_555
C22 C27 1_555 1_555
C26 C27 1_555 1_555
C33 C38 1_555 1_555
C37 C38 1_555 1_555
C41 C46 1_555 1_555
C45 C46 1_555 1_555
C52 C57 1_555 1_555
C56 C57 1_555 1_555

#END
