
#######################################################################
#
#                 Cambridge Crystallographic Data Centre
#                                CCDC 
#
#######################################################################
#
# If this CIF has been generated from an entry in the Cambridge 
# Structural Database, then it will include bibliographic, chemical, 
# crystal, experimental, refinement or atomic coordinate data resulting 
# from the CCDC's data processing and validation procedures.
#
#######################################################################

data_GICSAP
_chemical_formula_moiety         'C16 H15 N7'
_chemical_name_systematic        
N^1^,N^3^-bis(5-methyl-1H-pyrazol-3-yl)-1H-isoindole-1,3(2H)-diimine
_symmetry_cell_setting           monoclinic
_symmetry_space_group_name_H-M   'P 21/c'
_symmetry_Int_Tables_number      14
_space_group_name_Hall           '-P 2ybc'
loop_
_symmetry_equiv_pos_site_id
_symmetry_equiv_pos_as_xyz
1 x,y,z
2 -x,1/2+y,1/2-z
3 -x,-y,-z
4 x,1/2-y,1/2+z
_cell_length_a                   10.1047(16)
_cell_length_b                   17.237(3)
_cell_length_c                   9.5700(15)
_cell_angle_alpha                90
_cell_angle_beta                 116.726(2)
_cell_angle_gamma                90
_cell_volume                     1488.78
_exptl_crystal_colour            yellow
_exptl_crystal_description       block
_cell_formula_units_Z            4
loop_
_atom_site_label
_atom_site_type_symbol
_atom_site_fract_x
_atom_site_fract_y
_atom_site_fract_z
C1 C 0.35791(19) 0.65470(10) 0.82800(17)
H1 H 0.289(2) 0.6885(12) 0.839(2)
H2 H 0.453(3) 0.6814(14) 0.873(3)
H3 H 0.368(3) 0.6063(14) 0.889(3)
H4 H 0.129(2) 0.7066(13) 0.553(2)
N1 N 0.19547(15) 0.67302(8) 0.54322(14)
C2 C 0.30940(16) 0.63507(9) 0.65958(17)
N2 N 0.16683(15) 0.64745(8) 0.39842(14)
C3 C 0.35943(17) 0.58169(9) 0.58761(17)
H5 H 0.441(2) 0.5466(12) 0.635(2)
N3 N 0.27981(14) 0.54683(7) 0.30986(14)
C4 C 0.26761(16) 0.59142(9) 0.42579(16)
H6 H 0.066(2) 0.6506(13) 0.147(3)
N4 N 0.09147(14) 0.61895(7) 0.09602(14)
C5 C 0.19780(16) 0.56099(8) 0.16430(16)
N5 N -0.08729(14) 0.65340(7) -0.16557(14)
C6 C 0.19969(16) 0.51672(8) 0.03328(16)
N6 N -0.07882(14) 0.74939(7) 0.02169(14)
C7 C 0.28226(17) 0.45262(9) 0.03323(17)
H7 H 0.353(2) 0.4300(12) 0.130(3)
H8 H -0.153(3) 0.8296(15) 0.115(3)
N7 N -0.17746(14) 0.80312(7) 0.02123(14)
C8 C 0.25594(18) 0.42153(9) -0.11130(18)
H9 H 0.310(2) 0.3754(12) -0.114(2)
C9 C 0.14997(18) 0.45359(9) -0.25123(18)
H10 H 0.129(2) 0.4300(12) -0.352(2)
C10 C 0.06654(17) 0.51773(9) -0.25046(17)
H11 H -0.009(2) 0.5391(12) -0.347(3)
C11 C 0.09300(16) 0.54875(8) -0.10620(16)
C12 C 0.02173(16) 0.61343(8) -0.06585(16)
C13 C -0.15066(16) 0.71275(8) -0.11570(16)
C14 C -0.29477(17) 0.74219(9) -0.20211(17)
H12 H -0.371(2) 0.7246(12) -0.303(2)
C15 C -0.30811(17) 0.79980(9) -0.10927(17)
C16 C -0.43301(19) 0.85341(10) -0.1339(2)
H13 H -0.391(3) 0.8938(16) -0.052(3)
H14 H -0.511(3) 0.8254(17) -0.119(4)
H15 H -0.474(4) 0.8789(19) -0.237(2)
H16? H -0.526(3) 0.830(2) -0.213(4)
H17? H -0.418(5) 0.9036(16) -0.176(5)
H18? H -0.442(5) 0.863(2) -0.038(3)
loop_
_geom_bond_atom_site_label_1
_geom_bond_atom_site_label_2
_geom_bond_site_symmetry_1
_geom_bond_site_symmetry_2
C1 H1 1_555 1_555
H2 C1 1_555 1_555
H3 C1 1_555 1_555
H4 N1 1_555 1_555
N1 C2 1_555 1_555
C2 C1 1_555 1_555
N2 N1 1_555 1_555
C3 C2 1_555 1_555
H5 C3 1_555 1_555
N3 C4 1_555 1_555
C4 N2 1_555 1_555
H6 N4 1_555 1_555
N4 C5 1_555 1_555
C5 N3 1_555 1_555
N5 C12 1_555 1_555
C6 C5 1_555 1_555
N6 N7 1_555 1_555
C7 C6 1_555 1_555
H7 C7 1_555 1_555
H8 N7 1_555 1_555
N7 C15 1_555 1_555
C8 C7 1_555 1_555
H9 C8 1_555 1_555
C9 C8 1_555 1_555
H10 C9 1_555 1_555
C10 C9 1_555 1_555
H11 C10 1_555 1_555
C11 C6 1_555 1_555
C12 N4 1_555 1_555
C13 N5 1_555 1_555
C14 C13 1_555 1_555
H12 C14 1_555 1_555
C15 C14 1_555 1_555
C16 C15 1_555 1_555
H13 C16 1_555 1_555
H14 C16 1_555 1_555
H15 C16 1_555 1_555
C3 C4 1_555 1_555
N6 C13 1_555 1_555
C10 C11 1_555 1_555
C11 C12 1_555 1_555

#END
