
#######################################################################
#
#                 Cambridge Crystallographic Data Centre
#                                CCDC 
#
#######################################################################
#
# If this CIF has been generated from an entry in the Cambridge 
# Structural Database, then it will include bibliographic, chemical, 
# crystal, experimental, refinement or atomic coordinate data resulting 
# from the CCDC's data processing and validation procedures.
#
#######################################################################

data_GICSET
_chemical_formula_moiety         'C24 H17 N3'
_chemical_name_systematic        2-(3,5-diphenyl-1H-pyrazol-1-yl)quinoline
_symmetry_cell_setting           monoclinic
_symmetry_space_group_name_H-M   'C 2'
_symmetry_Int_Tables_number      5
_space_group_name_Hall           'C 2y'
loop_
_symmetry_equiv_pos_site_id
_symmetry_equiv_pos_as_xyz
1 x,y,z
2 -x,y,-z
3 1/2+x,1/2+y,z
4 1/2-x,1/2+y,-z
_cell_length_a                   26.610(7)
_cell_length_b                   5.9750(16)
_cell_length_c                   11.429(3)
_cell_angle_alpha                90
_cell_angle_beta                 108.513(5)
_cell_angle_gamma                90
_cell_volume                     1723.12
_exptl_crystal_colour            colorless
_exptl_crystal_description       plate
_cell_formula_units_Z            4
loop_
_atom_site_label
_atom_site_type_symbol
_atom_site_fract_x
_atom_site_fract_y
_atom_site_fract_z
N1 N -0.37243(7) -0.0376(3) -0.46163(15)
N2 N -0.33383(7) -0.1132(3) -0.61442(15)
N3 N -0.36261(7) 0.0738(3) -0.35211(15)
C1 C -0.34149(8) 0.0327(4) -0.53656(17)
C2 C -0.28942(8) 0.3172(4) -0.58626(17)
H1 H -0.2742 0.4627 -0.5757
C3 C -0.47100(8) -0.4280(4) -0.79799(19)
H2 H -0.4786 -0.3801 -0.8811
C4 C -0.30340(8) -0.0454(4) -0.68486(17)
C5 C -0.27943(8) 0.1679(4) -0.67241(17)
C6 C -0.32073(8) 0.2529(4) -0.51844(18)
H3 H -0.3284 0.3517 -0.4612
C7 C -0.24683(8) 0.2239(4) -0.74509(18)
H4 H -0.2302 0.3663 -0.7364
C8 C -0.23940(9) 0.0721(4) -0.82778(19)
H5 H -0.2177 0.1102 -0.8768
C9 C -0.43239(7) -0.3540(4) -0.58071(17)
C10 C -0.26351(9) -0.1391(4) -0.84079(19)
H6 H -0.2579 -0.2430 -0.8983
C11 C -0.42157(8) -0.2052(4) -0.36649(17)
H7 H -0.4455 -0.3028 -0.3451
C12 C -0.39131(9) 0.2109(4) 0.05791(19)
H8 H -0.3909 0.2640 0.1365
C13 C -0.37156(9) 0.3426(4) -0.01723(19)
H9 H -0.3574 0.4864 0.0100
C14 C -0.39227(8) 0.0534(4) -0.17301(17)
C15 C -0.48665(8) -0.6392(4) -0.7742(2)
H10 H -0.5050 -0.7353 -0.8402
C16 C -0.41199(8) -0.0777(4) -0.09686(18)
H11 H -0.4258 -0.2223 -0.1234
C17 C -0.39250(8) -0.0279(4) -0.29470(18)
C18 C -0.44781(8) -0.5684(4) -0.55676(19)
H12 H -0.4395 -0.6186 -0.4739
C19 C -0.37238(8) 0.2649(4) -0.13220(18)
H13 H -0.3592 0.3570 -0.1837
C20 C -0.47521(8) -0.7087(4) -0.6528(2)
H14 H -0.4861 -0.8528 -0.6353
C21 C -0.40842(8) -0.2086(4) -0.47339(17)
C22 C -0.29510(8) -0.1975(4) -0.77160(18)
H15 H -0.3115 -0.3406 -0.7820
C23 C -0.44454(8) -0.2850(4) -0.70317(18)
H16 H -0.4346 -0.1397 -0.7215
C24 C -0.41163(9) 0.0011(4) 0.01745(19)
H17 H -0.4254 -0.0895 0.0684
loop_
_geom_bond_atom_site_label_1
_geom_bond_atom_site_label_2
_geom_bond_site_symmetry_1
_geom_bond_site_symmetry_2
N1 N3 1_555 1_555
N2 C1 1_555 1_555
N3 C17 1_555 1_555
C1 N1 1_555 1_555
C2 H1 1_555 1_555
C3 H2 1_555 1_555
C4 N2 1_555 1_555
C5 C2 1_555 1_555
C6 C1 1_555 1_555
H3 C6 1_555 1_555
C7 C5 1_555 1_555
H4 C7 1_555 1_555
C8 C7 1_555 1_555
H5 C8 1_555 1_555
C9 C18 1_555 1_555
C10 C8 1_555 1_555
H6 C10 1_555 1_555
C11 H7 1_555 1_555
C12 H8 1_555 1_555
C13 C12 1_555 1_555
H9 C13 1_555 1_555
C14 C16 1_555 1_555
C15 C3 1_555 1_555
H10 C15 1_555 1_555
C16 H11 1_555 1_555
C17 C11 1_555 1_555
C18 H12 1_555 1_555
C19 C13 1_555 1_555
H13 C19 1_555 1_555
C20 C15 1_555 1_555
H14 C20 1_555 1_555
C21 N1 1_555 1_555
C22 C4 1_555 1_555
H15 C22 1_555 1_555
C23 C3 1_555 1_555
H16 C23 1_555 1_555
C24 C12 1_555 1_555
H17 C24 1_555 1_555
C2 C6 1_555 1_555
C4 C5 1_555 1_555
C9 C21 1_555 1_555
C9 C23 1_555 1_555
C10 C22 1_555 1_555
C11 C21 1_555 1_555
C14 C17 1_555 1_555
C14 C19 1_555 1_555
C16 C24 1_555 1_555
C18 C20 1_555 1_555

#END
