
#######################################################################
#
#                 Cambridge Crystallographic Data Centre
#                                CCDC 
#
#######################################################################
#
# If this CIF has been generated from an entry in the Cambridge 
# Structural Database, then it will include bibliographic, chemical, 
# crystal, experimental, refinement or atomic coordinate data resulting 
# from the CCDC's data processing and validation procedures.
#
#######################################################################

data_GICTAP
_chemical_formula_moiety         'C29 H37 N2 O3 S1 1+,C1 H4 O1,Br1 1-'
_chemical_name_systematic        
'6-Methyl-N-(2-naphthylmethyl)-3-((4-(pentoxy)phenyl)sulfonyl)-7-azabicyclo[2.2.1]heptan-2-aminium bromide methanol solvate'
_symmetry_cell_setting           monoclinic
_symmetry_space_group_name_H-M   'P 21/n'
_symmetry_Int_Tables_number      14
_space_group_name_Hall           '-P 2yn'
loop_
_symmetry_equiv_pos_site_id
_symmetry_equiv_pos_as_xyz
1 x,y,z
2 1/2-x,1/2+y,1/2-z
3 -x,-y,-z
4 1/2+x,1/2-y,1/2+z
_cell_length_a                   14.0350(17)
_cell_length_b                   7.7808(9)
_cell_length_c                   27.147(3)
_cell_angle_alpha                90
_cell_angle_beta                 97.553(8)
_cell_angle_gamma                90
_cell_volume                     2938.83
_exptl_crystal_colour            colorless
_cell_formula_units_Z            4
loop_
_atom_site_label
_atom_site_type_symbol
_atom_site_fract_x
_atom_site_fract_y
_atom_site_fract_z
Br1 Br 0.54932(6) 0.20104(10) 0.42657(3)
S1 S 0.73142(17) 0.5781(4) 0.64875(8)
O1 O 0.8180(4) 0.4806(9) 0.6600(2)
O2 O 0.7361(5) 0.7422(8) 0.6244(2)
O3 O 0.5370(4) 0.6318(6) 0.82659(18)
N1 N 0.5837(5) 0.2855(8) 0.5458(2)
H1 H 0.581(5) 0.243(8) 0.5112(12)
N2 N 0.5410(7) 0.281(3) 0.6540(4)
H2 H 0.5389 0.3990 0.6747
H3 H 0.4801 0.2780 0.6252
C1 C 0.6414(6) 0.4524(12) 0.6130(3)
H4 H 0.5733 0.5152 0.6149
C2 C 0.6324(7) 0.2677(14) 0.6320(3)
H5 H 0.695(6) 0.220(9) 0.659(3)
C3 C 0.6375(6) 0.1630(10) 0.5834(3)
H6 H 0.6064 0.0360 0.5835
C4 C 0.7391(6) 0.1665(9) 0.5698(3)
H7 H 0.7900 0.1494 0.6029
C5 C 0.7469(6) 0.3529(9) 0.5498(3)
H8 H 0.8065 0.4205 0.5704
H9 H 0.7560 0.3521 0.5109
C6 C 0.6527(6) 0.4339(9) 0.5576(3)
H10 H 0.6347 0.5480 0.5357
C7 C 0.7559(7) 0.0279(11) 0.5311(3)
H11 H 0.7015 0.0390 0.4993
H12 H 0.7521 -0.0980 0.5475
H13 H 0.8260 0.0458 0.5196
C8 C 0.6789(6) 0.6061(11) 0.7034(3)
C9 C 0.7105(6) 0.5112(10) 0.7462(3)
H14 H 0.7713 0.4297 0.7476
C10 C 0.6606(6) 0.5260(10) 0.7867(3)
H15 H 0.6834 0.4544 0.8194
C11 C 0.5829(6) 0.6313(9) 0.7853(3)
C12 C 0.5492(7) 0.7289(10) 0.7426(3)
H16 H 0.4887 0.8110 0.7415
C13 C 0.5997(7) 0.7114(11) 0.7021(3)
H17 H 0.5765 0.7813 0.6692
C14 C 0.4595(6) 0.7569(10) 0.8283(3)
H18 H 0.4056 0.7407 0.7963
H19 H 0.4877 0.8859 0.8276
C15 C 0.4153(6) 0.7282(10) 0.8756(3)
H20 H 0.3882 0.5983 0.8754
H21 H 0.3548 0.8140 0.8755
C16 C 0.4834(6) 0.7562(10) 0.9235(3)
H22 H 0.5377 0.6569 0.9272
H23 H 0.5192 0.8785 0.9218
C17 C 0.4307(7) 0.7530(11) 0.9684(3)
H24 H 0.3866 0.6389 0.9669
H25 H 0.3834 0.8630 0.9670
C18 C 0.4972(8) 0.7554(11) 1.0177(3)
H26 H 0.5421 0.8684 1.0195
H27 H 0.5418 0.6418 1.0205
H28 H 0.4546 0.7575 1.0481
C19 C 0.5393(12) 0.133(3) 0.6866(7)
H29 H 0.6069 0.1250 0.7106
H30 H 0.5305 0.0174 0.6647
C20 C 0.4566(6) 0.1487(10) 0.7185(3)
C21 C 0.4576(7) 0.1992(10) 0.7669(3)
H31 H 0.5197 0.2604 0.7854
C22 C 0.3779(7) 0.1719(9) 0.7928(3)
C23 C 0.3789(9) 0.2242(11) 0.8438(3)
H32 H 0.4409 0.2819 0.8636
C24 C 0.2986(13) 0.1978(13) 0.8661(4)
H33 H 0.2989 0.2326 0.9039
C25 C 0.2156(10) 0.1253(13) 0.8398(5)
H34 H 0.1529 0.1113 0.8573
C26 C 0.2146(7) 0.0738(11) 0.7929(4)
H35 H 0.1520 0.0149 0.7742
C27 C 0.2958(6) 0.0964(9) 0.7677(3)
C28 C 0.2948(6) 0.0463(9) 0.7173(3)
H36 H 0.2327 -0.0123 0.6979
C29 C 0.3727(7) 0.0734(9) 0.6942(3)
H37 H 0.3705 0.0365 0.6565
O4 O 0.5971(4) 0.6021(7) 0.4476(2)
H42 H 0.5329 0.6584 0.4392
C31 C 0.6632(8) 0.6930(14) 0.4285(4)
H43 H 0.7335 0.6402 0.4409
H44 H 0.6605 0.8249 0.4406
H45 H 0.6495 0.6878 0.3884
N3? N 0.5420(10) 0.181(3) 0.6452(7)
H38? H 0.4783 0.2373 0.6248
H39? H 0.5427 0.0450 0.6374
C30? C 0.5458(14) 0.214(4) 0.7000(9)
H40? H 0.6078 0.1497 0.7197
H41? H 0.5531 0.3497 0.7072
loop_
_geom_bond_atom_site_label_1
_geom_bond_atom_site_label_2
_geom_bond_site_symmetry_1
_geom_bond_site_symmetry_2
S1 O1 1_555 1_555
O2 S1 1_555 1_555
O3 C11 1_555 1_555
N1 H1 1_555 1_555
N2 H2 1_555 1_555
H3 N2 1_555 1_555
C1 S1 1_555 1_555
H4 C1 1_555 1_555
C2 N2 1_555 1_555
H5 C2 1_555 1_555
C3 N1 1_555 1_555
H6 C3 1_555 1_555
C4 C3 1_555 1_555
H7 C4 1_555 1_555
C5 C4 1_555 1_555
H8 C5 1_555 1_555
H9 C5 1_555 1_555
C6 N1 1_555 1_555
H10 C6 1_555 1_555
C7 C4 1_555 1_555
H11 C7 1_555 1_555
H12 C7 1_555 1_555
H13 C7 1_555 1_555
C8 S1 1_555 1_555
C9 C8 1_555 1_555
H14 C9 1_555 1_555
C10 C9 1_555 1_555
H15 C10 1_555 1_555
C11 C10 1_555 1_555
C12 C11 1_555 1_555
H16 C12 1_555 1_555
C13 C8 1_555 1_555
H17 C13 1_555 1_555
C14 O3 1_555 1_555
H18 C14 1_555 1_555
H19 C14 1_555 1_555
C15 C14 1_555 1_555
H20 C15 1_555 1_555
H21 C15 1_555 1_555
C16 C15 1_555 1_555
H22 C16 1_555 1_555
H23 C16 1_555 1_555
C17 C16 1_555 1_555
H24 C17 1_555 1_555
H25 C17 1_555 1_555
C18 C17 1_555 1_555
H26 C18 1_555 1_555
H27 C18 1_555 1_555
H28 C18 1_555 1_555
C19 N2 1_555 1_555
H29 C19 1_555 1_555
H30 C19 1_555 1_555
C20 C19 1_555 1_555
C21 C20 1_555 1_555
H31 C21 1_555 1_555
C22 C21 1_555 1_555
C23 C22 1_555 1_555
H32 C23 1_555 1_555
C24 C23 1_555 1_555
H33 C24 1_555 1_555
C25 C24 1_555 1_555
H34 C25 1_555 1_555
C26 C25 1_555 1_555
H35 C26 1_555 1_555
C27 C22 1_555 1_555
C28 C27 1_555 1_555
H36 C28 1_555 1_555
C29 C20 1_555 1_555
H37 C29 1_555 1_555
O4 H42 1_555 1_555
C31 O4 1_555 1_555
H43 C31 1_555 1_555
H44 C31 1_555 1_555
H45 C31 1_555 1_555
C1 C2 1_555 1_555
C1 C6 1_555 1_555
C2 C3 1_555 1_555
C5 C6 1_555 1_555
C12 C13 1_555 1_555
C26 C27 1_555 1_555
C28 C29 1_555 1_555

#END
