
#######################################################################
#
#                 Cambridge Crystallographic Data Centre
#                                CCDC 
#
#######################################################################
#
# If this CIF has been generated from an entry in the Cambridge 
# Structural Database, then it will include bibliographic, chemical, 
# crystal, experimental, refinement or atomic coordinate data resulting 
# from the CCDC's data processing and validation procedures.
#
#######################################################################

data_GICVIX
_chemical_formula_moiety         'C19 H22 N4 O2'
_chemical_name_systematic        
1-(6-Methyl-8\b-ergolinylmethyl)imidazolidine-2,4-dione
_chemical_properties_biological  'central nervous system activity'
_symmetry_cell_setting           orthorhombic
_symmetry_space_group_name_H-M   'P 21 21 21'
_symmetry_Int_Tables_number      19
_space_group_name_Hall           'P 2ac 2ab'
loop_
_symmetry_equiv_pos_site_id
_symmetry_equiv_pos_as_xyz
1 x,y,z
2 1/2+x,1/2-y,-z
3 -x,1/2+y,1/2-z
4 1/2-x,-y,1/2+z
_cell_length_a                   8.392(2)
_cell_length_b                   13.004(2)
_cell_length_c                   15.676(5)
_cell_angle_alpha                90
_cell_angle_beta                 90
_cell_angle_gamma                90
_cell_volume                     1710.72
_exptl_crystal_colour            colorless
_chemical_melting_point          'above 573K'
_cell_formula_units_Z            4
loop_
_atom_site_label
_atom_site_type_symbol
_atom_site_fract_x
_atom_site_fract_y
_atom_site_fract_z
N1 N 0.5695(8) 0.8746(5) 0.3563(4)
C1 C 0.5133(10) 0.7770(6) 0.3532(5)
C2 C 0.6365(9) 0.7091(5) 0.3661(4)
C3 C 0.6496(9) 0.5946(5) 0.3679(5)
C4 C 0.8240(7) 0.5623(5) 0.3514(4)
N2 N 0.8379(6) 0.4498(4) 0.3647(3)
C5 C 1.0014(7) 0.4140(5) 0.3508(4)
C6 C 1.1140(7) 0.4647(4) 0.4134(4)
C7 C 1.1108(8) 0.5811(4) 0.4004(4)
C8 C 0.9412(7) 0.6190(4) 0.4113(4)
C9 C 0.9252(8) 0.7346(5) 0.4000(4)
C10 C 1.0410(9) 0.8095(5) 0.4120(5)
C11 C 0.9972(9) 0.9164(5) 0.4033(5)
C12 C 0.8471(9) 0.9465(6) 0.3857(4)
C13 C 0.7292(9) 0.8741(5) 0.3743(5)
C14 C 0.7735(8) 0.7682(5) 0.3804(4)
C15 C 0.7354(10) 0.3934(5) 0.3043(5)
C16 C 1.2846(9) 0.4230(4) 0.4027(4)
N3 N 1.2958(7) 0.3124(4) 0.4168(3)
C17 C 1.2733(10) 0.2673(5) 0.4932(5)
O1 O 1.2414(8) 0.3083(3) 0.5608(3)
N4 N 1.2951(7) 0.1615(3) 0.4817(3)
C18 C 1.3353(8) 0.1385(5) 0.4005(5)
O2 O 1.3674(6) 0.0541(3) 0.3719(3)
C19 C 1.3357(9) 0.2383(4) 0.3522(4)
H1 H 0.4987 0.9428 0.3462
H2 H 0.3906 0.7557 0.3423
H3 H 0.6125 0.5666 0.4297
H4 H 0.5738 0.5622 0.3192
H5 H 0.8545 0.5828 0.2866
H6 H 1.0061 0.3317 0.3593
H7 H 1.0376 0.4331 0.2866
H8 H 1.0751 0.4471 0.4775
H9 H 1.1527 0.5995 0.3371
H10 H 1.1868 0.6176 0.4471
H11 H 0.9101 0.6013 0.4765
H12 H 1.1619 0.7882 0.4276
H13 H 1.0882 0.9743 0.4111
H14 H 0.8193 1.0273 0.3807
H15 H 0.6124 0.4031 0.3228
H16 H 0.7670 0.3130 0.3079
H17 H 0.7515 0.4204 0.2397
H18 H 1.3613 0.4616 0.4478
H19 H 1.3244 0.4396 0.3386
H20 H 1.2877 0.0958 0.5238
H21 H 1.2476 0.2377 0.3020
H22 H 1.4517 0.2538 0.3253
loop_
_geom_bond_atom_site_label_1
_geom_bond_atom_site_label_2
_geom_bond_site_symmetry_1
_geom_bond_site_symmetry_2
N1 C1 1_555 1_555
C1 C2 1_555 1_555
C2 C3 1_555 1_555
C3 C4 1_555 1_555
C4 N2 1_555 1_555
N2 C5 1_555 1_555
C5 C6 1_555 1_555
C6 C7 1_555 1_555
C7 C8 1_555 1_555
C8 C4 1_555 1_555
C9 C8 1_555 1_555
C10 C9 1_555 1_555
C11 C10 1_555 1_555
C12 C11 1_555 1_555
C13 N1 1_555 1_555
C14 C2 1_555 1_555
C15 N2 1_555 1_555
C16 C6 1_555 1_555
N3 C16 1_555 1_555
C17 N3 1_555 1_555
O1 C17 1_555 1_555
N4 C17 1_555 1_555
C18 N4 1_555 1_555
O2 C18 1_555 1_555
C19 N3 1_555 1_555
H1 N1 1_555 1_555
H2 C1 1_555 1_555
H3 C3 1_555 1_555
H4 C3 1_555 1_555
H5 C4 1_555 1_555
H6 C5 1_555 1_555
H7 C5 1_555 1_555
H8 C6 1_555 1_555
H9 C7 1_555 1_555
H10 C7 1_555 1_555
H11 C8 1_555 1_555
H12 C10 1_555 1_555
H13 C11 1_555 1_555
H14 C12 1_555 1_555
H15 C15 1_555 1_555
H16 C15 1_555 1_555
H17 C15 1_555 1_555
H18 C16 1_555 1_555
H19 C16 1_555 1_555
H20 N4 1_555 1_555
H21 C19 1_555 1_555
H22 C19 1_555 1_555
C9 C14 1_555 1_555
C12 C13 1_555 1_555
C13 C14 1_555 1_555
C18 C19 1_555 1_555

#END
