
#######################################################################
#
#                 Cambridge Crystallographic Data Centre
#                                CCDC 
#
#######################################################################
#
# If this CIF has been generated from an entry in the Cambridge 
# Structural Database, then it will include bibliographic, chemical, 
# crystal, experimental, refinement or atomic coordinate data resulting 
# from the CCDC's data processing and validation procedures.
#
#######################################################################

data_GICVUJ
_chemical_name_common            Nicergoline
_chemical_formula_moiety         'C24 H26 Br1 N3 O3'
_chemical_name_systematic        
10\a-Methoxy-1,6-dimethylergoline-8\b-methanol-5'-bromonicotinate
_chemical_properties_biological  'central nervous system activity'
_symmetry_cell_setting           orthorhombic
_symmetry_space_group_name_H-M   'P 21 21 21'
_symmetry_Int_Tables_number      19
_space_group_name_Hall           'P 2ac 2ab'
loop_
_symmetry_equiv_pos_site_id
_symmetry_equiv_pos_as_xyz
1 x,y,z
2 1/2+x,1/2-y,-z
3 -x,1/2+y,1/2-z
4 1/2-x,-y,1/2+z
_cell_length_a                   13.224
_cell_length_b                   14.749
_cell_length_c                   11.512
_cell_angle_alpha                90
_cell_angle_beta                 90
_cell_angle_gamma                90
_cell_volume                     2245.31
_chemical_melting_point          409-411K
_cell_formula_units_Z            4
loop_
_atom_site_label
_atom_site_type_symbol
_atom_site_fract_x
_atom_site_fract_y
_atom_site_fract_z
Br1 Br -1.322 -0.730 -1.020
N1 N -0.286 -0.963 -0.522
C1 C -0.296 -0.909 -0.616
C2 C -0.399 -0.894 -0.636
C3 C -0.455 -0.832 -0.723
C4 C -0.556 -0.811 -0.672
N2 N -0.619 -0.751 -0.748
C5 C -0.710 -0.720 -0.688
C6 C -0.780 -0.803 -0.651
C7 C -0.718 -0.861 -0.564
C8 C -0.614 -0.886 -0.618
C9 C -0.555 -0.942 -0.527
C10 C -0.587 -0.985 -0.425
C11 C -0.511 -1.031 -0.350
C12 C -0.411 -1.031 -0.379
C13 C -0.380 -0.983 -0.472
C14 C -0.445 -0.939 -0.549
C15 C -0.187 -1.001 -0.482
C16 C -0.569 -0.677 -0.794
O1 O -0.632 -0.946 -0.719
C17 C -0.665 -1.029 -0.701
C18 C -0.876 -0.768 -0.597
O2 O -0.933 -0.724 -0.689
C19 C -1.029 -0.749 -0.701
O3 O -1.075 -0.799 -0.645
C20 C -1.073 -0.702 -0.812
C21 C -1.160 -0.733 -0.855
C22 C -1.197 -0.695 -0.955
C23 C -1.143 -0.627 -1.011
N3 N -1.053 -0.598 -0.969
C24 C -1.020 -0.633 -0.867
loop_
_geom_bond_atom_site_label_1
_geom_bond_atom_site_label_2
_geom_bond_site_symmetry_1
_geom_bond_site_symmetry_2
Br1 C22 1_555 1_555
N1 C1 1_555 1_555
C1 C2 1_555 1_555
C2 C3 1_555 1_555
C3 C4 1_555 1_555
C4 N2 1_555 1_555
N2 C5 1_555 1_555
C5 C6 1_555 1_555
C6 C7 1_555 1_555
C7 C8 1_555 1_555
C8 C4 1_555 1_555
C9 C8 1_555 1_555
C10 C9 1_555 1_555
C11 C10 1_555 1_555
C12 C11 1_555 1_555
C13 N1 1_555 1_555
C14 C2 1_555 1_555
C15 N1 1_555 1_555
C16 N2 1_555 1_555
O1 C8 1_555 1_555
C17 O1 1_555 1_555
C18 C6 1_555 1_555
O2 C18 1_555 1_555
C19 O2 1_555 1_555
O3 C19 1_555 1_555
C20 C19 1_555 1_555
C21 C20 1_555 1_555
C22 C21 1_555 1_555
C23 C22 1_555 1_555
N3 C23 1_555 1_555
C24 C20 1_555 1_555
C9 C14 1_555 1_555
C12 C13 1_555 1_555
C13 C14 1_555 1_555
N3 C24 1_555 1_555

#END
