
#######################################################################
#
#                 Cambridge Crystallographic Data Centre
#                                CCDC 
#
#######################################################################
#
# If this CIF has been generated from an entry in the Cambridge 
# Structural Database, then it will include bibliographic, chemical, 
# crystal, experimental, refinement or atomic coordinate data resulting 
# from the CCDC's data processing and validation procedures.
#
#######################################################################

data_GICWAS
_chemical_formula_moiety         'C16 H12 Cl1 N3 O1 S1'
_chemical_name_systematic        
3-(1H-Benzimidazol-2-yl)-2-(2-chlorophenyl)-1,3-thiazolidin-4-one
_symmetry_cell_setting           monoclinic
_symmetry_space_group_name_H-M   'P 21/n'
_symmetry_Int_Tables_number      14
_space_group_name_Hall           '-P 2yn'
loop_
_symmetry_equiv_pos_site_id
_symmetry_equiv_pos_as_xyz
1 x,y,z
2 1/2-x,1/2+y,1/2-z
3 -x,-y,-z
4 1/2+x,1/2-y,1/2+z
_cell_length_a                   11.203(2)
_cell_length_b                   5.8180(12)
_cell_length_c                   22.000(4)
_cell_angle_alpha                90
_cell_angle_beta                 95.32(3)
_cell_angle_gamma                90
_cell_volume                     1427.76
_cell_formula_units_Z            4
loop_
_atom_site_label
_atom_site_type_symbol
_atom_site_fract_x
_atom_site_fract_y
_atom_site_fract_z
S1 S 0.37256(10) 0.4203(2) 0.01945(5)
Cl1 Cl 0.43630(11) 0.0102(2) 0.11347(5)
O1 O 0.1287(3) 0.8873(5) 0.00104(13)
N1 N 0.1716(3) 0.5662(6) 0.05881(13)
C1 C 0.3975(3) 0.2302(7) 0.16175(17)
N2 N 0.0376(3) 0.3834(6) 0.12098(14)
C2 C 0.4494(3) 0.2313(8) 0.2215(2)
H1 H 0.5004 0.1128 0.2356
N3 N -0.0227(3) 0.7187(6) 0.07775(14)
H2 H -0.0206 0.8410 0.0559
C3 C 0.4251(4) 0.4078(8) 0.25969(19)
H3 H 0.4587 0.4082 0.3000
C4 C 0.3512(4) 0.5839(8) 0.23842(18)
H4 H 0.3370 0.7066 0.2639
C5 C 0.2975(3) 0.5794(7) 0.17887(17)
H5 H 0.2462 0.6981 0.1652
C6 C 0.3188(3) 0.4025(7) 0.13972(16)
C7 C 0.2608(3) 0.3876(7) 0.07483(16)
H6 H 0.2224 0.2369 0.0689
C8 C 0.1941(3) 0.7279(7) 0.01555(17)
C9 C 0.3096(4) 0.6839(7) -0.01165(17)
H7 H 0.3648 0.8099 -0.0021
H8 H 0.2952 0.6719 -0.0557
C10 C 0.0626(3) 0.5530(7) 0.08592(16)
C11 C -0.0747(3) 0.4418(7) 0.13843(17)
C12 C -0.1137(3) 0.6489(7) 0.11192(16)
C13 C -0.1463(3) 0.3265(7) 0.17740(18)
H9 H -0.1211 0.1892 0.1961
C14 C -0.2548(4) 0.4224(8) 0.18711(19)
H10 H -0.3041 0.3467 0.2124
C15 C -0.2933(4) 0.6293(8) 0.16031(19)
H11 H -0.3674 0.6891 0.1681
C16 C -0.2229(4) 0.7474(7) 0.12223(19)
H12 H -0.2477 0.8863 0.1044
loop_
_geom_bond_atom_site_label_1
_geom_bond_atom_site_label_2
_geom_bond_site_symmetry_1
_geom_bond_site_symmetry_2
S1 C7 1_555 1_555
Cl1 C1 1_555 1_555
O1 C8 1_555 1_555
N1 C7 1_555 1_555
C1 C2 1_555 1_555
N2 C10 1_555 1_555
C2 H1 1_555 1_555
N3 H2 1_555 1_555
C3 C2 1_555 1_555
H3 C3 1_555 1_555
C4 C3 1_555 1_555
H4 C4 1_555 1_555
C5 C4 1_555 1_555
H5 C5 1_555 1_555
C6 C1 1_555 1_555
C7 C6 1_555 1_555
H6 C7 1_555 1_555
C8 N1 1_555 1_555
C9 S1 1_555 1_555
H7 C9 1_555 1_555
H8 C9 1_555 1_555
C10 N1 1_555 1_555
C11 N2 1_555 1_555
C12 N3 1_555 1_555
C13 C11 1_555 1_555
H9 C13 1_555 1_555
C14 C13 1_555 1_555
H10 C14 1_555 1_555
C15 C14 1_555 1_555
H11 C15 1_555 1_555
C16 C12 1_555 1_555
H12 C16 1_555 1_555
N3 C10 1_555 1_555
C5 C6 1_555 1_555
C8 C9 1_555 1_555
C11 C12 1_555 1_555
C15 C16 1_555 1_555

#END
