
#######################################################################
#
#                 Cambridge Crystallographic Data Centre
#                                CCDC 
#
#######################################################################
#
# If this CIF has been generated from an entry in the Cambridge 
# Structural Database, then it will include bibliographic, chemical, 
# crystal, experimental, refinement or atomic coordinate data resulting 
# from the CCDC's data processing and validation procedures.
#
#######################################################################

data_GIDDUU
_chemical_formula_moiety         'C24 H21 N1 O3'
_chemical_name_systematic        
2-(2-Hydroxy-2-(4-methylphenyl)-2H-1,4-benzoxazin-3(4H)-ylidene)-1-(4-methylphenyl)ethanone
_symmetry_cell_setting           triclinic
_symmetry_space_group_name_H-M   'P -1'
_symmetry_Int_Tables_number      2
_space_group_name_Hall           '-P 1'
loop_
_symmetry_equiv_pos_site_id
_symmetry_equiv_pos_as_xyz
1 x,y,z
2 -x,-y,-z
_cell_length_a                   6.0185(14)
_cell_length_b                   9.587(2)
_cell_length_c                   16.967(4)
_cell_angle_alpha                79.718(3)
_cell_angle_beta                 89.610(4)
_cell_angle_gamma                74.210(3)
_cell_volume                     926.013
_cell_formula_units_Z            2
loop_
_atom_site_label
_atom_site_type_symbol
_atom_site_fract_x
_atom_site_fract_y
_atom_site_fract_z
C1 C 0.0402(7) 0.2644(4) -0.0122(2)
H1 H 0.1685 0.3033 -0.0324
H2 H -0.0827 0.2906 -0.0542
H3 H 0.0952 0.1569 0.0032
C2 C -0.0530(7) 0.3299(4) 0.0600(2)
C3 C -0.2892(6) 0.3824(4) 0.0681(2)
H4 H -0.3930 0.3765 0.0277
C4 C -0.3766(6) 0.4429(4) 0.1335(2)
H5 H -0.5389 0.4796 0.1374
C5 C -0.2275(6) 0.4504(4) 0.19399(19)
C6 C 0.0089(6) 0.3975(4) 0.1871(2)
H6 H 0.1126 0.4025 0.2278
C7 C 0.0944(6) 0.3371(4) 0.1207(2)
H7 H 0.2567 0.3002 0.1168
C8 C -0.3362(6) 0.5153(4) 0.2655(2)
C9 C -0.3841(6) 0.7673(4) 0.2070(2)
C10 C -0.4893(6) 0.8803(4) 0.1453(2)
H8 H -0.6316 0.8817 0.1209
C11 C -0.3851(7) 0.9926(4) 0.1191(2)
H9 H -0.4571 1.0711 0.0769
C12 C -0.1775(7) 0.9901(4) 0.1544(2)
H10 H -0.1080 1.0674 0.1365
C13 C -0.0701(6) 0.8753(4) 0.2157(2)
H11 H 0.0730 0.8734 0.2398
C14 C -0.1733(6) 0.7632(4) 0.2417(2)
C15 C -0.1530(6) 0.5273(4) 0.32420(19)
C16 C -0.0610(6) 0.4148(4) 0.38691(19)
H12 H -0.1316 0.3366 0.3995
C17 C 0.1377(6) 0.4107(4) 0.43424(19)
C18 C 0.2454(6) 0.2809(4) 0.4977(2)
C19 C 0.1459(6) 0.1653(4) 0.5221(2)
H13 H 0.0023 0.1678 0.4981
C20 C 0.2557(7) 0.0469(4) 0.5812(2)
H14 H 0.1855 -0.0305 0.5975
C21 C 0.4676(6) 0.0395(4) 0.6173(2)
C22 C 0.5620(6) 0.1561(4) 0.5927(2)
H15 H 0.7048 0.1543 0.6169
C23 C 0.4552(6) 0.2745(4) 0.5341(2)
H16 H 0.5252 0.3523 0.5185
C24 C 0.5884(7) -0.0895(4) 0.6811(2)
H17 H 0.5039 -0.1646 0.6869
H18 H 0.5936 -0.0561 0.7322
H19 H 0.7463 -0.1317 0.6657
N1 N -0.0760(5) 0.6480(3) 0.30470(17)
H20 H 0.041(7) 0.648(4) 0.338(2)
O1 O -0.4739(4) 0.4299(3) 0.30146(14)
H21 H -0.543(7) 0.470(4) 0.344(3)
O2 O -0.4933(4) 0.6603(3) 0.23712(14)
O3 O 0.2335(4) 0.5143(3) 0.42072(14)
loop_
_geom_bond_atom_site_label_1
_geom_bond_atom_site_label_2
_geom_bond_site_symmetry_1
_geom_bond_site_symmetry_2
C1 H1 1_555 1_555
H2 C1 1_555 1_555
H3 C1 1_555 1_555
C2 C1 1_555 1_555
C3 C2 1_555 1_555
H4 C3 1_555 1_555
C4 C3 1_555 1_555
H5 C4 1_555 1_555
C5 C4 1_555 1_555
C6 C5 1_555 1_555
H6 C6 1_555 1_555
C7 C2 1_555 1_555
H7 C7 1_555 1_555
C8 C5 1_555 1_555
C9 C10 1_555 1_555
C10 H8 1_555 1_555
C11 C10 1_555 1_555
H9 C11 1_555 1_555
C12 C11 1_555 1_555
H10 C12 1_555 1_555
C13 C12 1_555 1_555
H11 C13 1_555 1_555
C14 C9 1_555 1_555
C15 C8 1_555 1_555
C16 C15 1_555 1_555
H12 C16 1_555 1_555
C17 C16 1_555 1_555
C18 C17 1_555 1_555
C19 C18 1_555 1_555
H13 C19 1_555 1_555
C20 C19 1_555 1_555
H14 C20 1_555 1_555
C21 C20 1_555 1_555
C22 C21 1_555 1_555
H15 C22 1_555 1_555
C23 C18 1_555 1_555
H16 C23 1_555 1_555
C24 C21 1_555 1_555
H17 C24 1_555 1_555
H18 C24 1_555 1_555
H19 C24 1_555 1_555
N1 C14 1_555 1_555
H20 N1 1_555 1_555
O1 C8 1_555 1_555
H21 O1 1_555 1_555
O2 C8 1_555 1_555
O3 C17 1_555 1_555
C6 C7 1_555 1_555
C9 O2 1_555 1_555
C13 C14 1_555 1_555
C15 N1 1_555 1_555
C22 C23 1_555 1_555

#END
