
#######################################################################
#
#                 Cambridge Crystallographic Data Centre
#                                CCDC 
#
#######################################################################
#
# If this CIF has been generated from an entry in the Cambridge 
# Structural Database, then it will include bibliographic, chemical, 
# crystal, experimental, refinement or atomic coordinate data resulting 
# from the CCDC's data processing and validation procedures.
#
#######################################################################

data_GIDGOQ
_chemical_formula_moiety         'C30 H26 O1'
_chemical_name_systematic        
spiro[benzo[f]naphtho[2,1-c]chromene-4,2'-tricyclo[3.3.1.1^3,7^]decane]
_symmetry_cell_setting           monoclinic
_symmetry_space_group_name_H-M   'P 21/c'
_symmetry_Int_Tables_number      14
_space_group_name_Hall           '-P 2ybc'
loop_
_symmetry_equiv_pos_site_id
_symmetry_equiv_pos_as_xyz
1 x,y,z
2 -x,1/2+y,1/2-z
3 -x,-y,-z
4 x,1/2-y,1/2+z
_cell_length_a                   15.724(3)
_cell_length_b                   10.362(2)
_cell_length_c                   12.896(3)
_cell_angle_alpha                90
_cell_angle_beta                 95.710(4)
_cell_angle_gamma                90
_cell_volume                     2090.75
_exptl_crystal_colour            colorless
_chemical_melting_point          247-248deg.C
_cell_formula_units_Z            4
loop_
_atom_site_label
_atom_site_type_symbol
_atom_site_fract_x
_atom_site_fract_y
_atom_site_fract_z
O1 O 0.68764(7) -0.01097(10) 0.57500(8)
C1 C 0.71338(10) -0.07018(15) 0.66834(12)
C2 C 0.65909(11) -0.16417(16) 0.70408(14)
H1 H 0.6116 -0.1928 0.6616
C3 C 0.67688(11) -0.21280(17) 0.80181(14)
H2 H 0.6431 -0.2787 0.8245
C4 C 0.74598(11) -0.16473(16) 0.86947(13)
C5 C 0.75716(13) -0.20030(19) 0.97566(14)
H3 H 0.7207 -0.2611 1.0005
C6 C 0.81997(14) -0.1476(2) 1.04226(15)
H4 H 0.8261 -0.1717 1.1121
C7 C 0.87580(12) -0.05647(19) 1.00495(14)
H5 H 0.9183 -0.0195 1.0508
C8 C 0.86832(11) -0.02148(17) 0.90218(13)
H6 H 0.9062 0.0383 0.8790
C9 C 0.80361(10) -0.07504(15) 0.83052(12)
C10 C 0.78954(10) -0.03565(15) 0.72319(12)
C11 C 0.84659(10) 0.04486(15) 0.66541(12)
C12 C 0.93762(10) 0.02494(16) 0.67150(12)
C13 C 0.98091(11) -0.07845(17) 0.72647(13)
H7 H 0.9496 -0.1385 0.7605
C14 C 1.06748(11) -0.0912(2) 0.73022(13)
H8 H 1.0942 -0.1600 0.7665
C15 C 1.11674(12) -0.0025(2) 0.68040(15)
H9 H 1.1760 -0.0096 0.6869
C16 C 1.07769(11) 0.09382(19) 0.62261(14)
H10 H 1.1105 0.1516 0.5884
C17 C 0.98737(10) 0.10797(16) 0.61342(13)
C18 C 0.94554(11) 0.19685(17) 0.54327(13)
H11 H 0.9777 0.2520 0.5058
C19 C 0.85863(11) 0.20330(17) 0.52950(13)
H12 H 0.8324 0.2573 0.4783
C20 C 0.80755(10) 0.12954(15) 0.59145(12)
C21 C 0.71000(10) 0.12795(15) 0.57577(12)
C22 C 0.66721(10) 0.17918(16) 0.47105(12)
H13 H 0.6949 0.1409 0.4136
C23 C 0.67020(11) 0.32777(17) 0.46323(14)
H14 H 0.7292 0.3562 0.4663
H15 H 0.6411 0.3553 0.3971
C24 C 0.62751(11) 0.38868(18) 0.55197(14)
H16 H 0.6316 0.4829 0.5476
C25 C 0.67436(12) 0.34257(17) 0.65416(14)
H17 H 0.6504 0.3841 0.7121
H18 H 0.7342 0.3662 0.6568
C26 C 0.66622(10) 0.19515(16) 0.66393(13)
H19 H 0.6938 0.1673 0.7317
C27 C 0.57100(10) 0.15849(17) 0.65523(13)
H20 H 0.5652 0.0658 0.6622
H21 H 0.5437 0.1994 0.7109
C28 C 0.52753(11) 0.20212(17) 0.54973(14)
H22 H 0.4674 0.1758 0.5435
C29 C 0.53306(11) 0.34870(17) 0.54346(15)
H23 H 0.5052 0.3874 0.5996
H24 H 0.5043 0.3786 0.4778
C30 C 0.57208(10) 0.14121(17) 0.46120(13)
H25 H 0.5447 0.1703 0.3946
H26 H 0.5669 0.0480 0.4640
loop_
_geom_bond_atom_site_label_1
_geom_bond_atom_site_label_2
_geom_bond_site_symmetry_1
_geom_bond_site_symmetry_2
O1 C1 1_555 1_555
C1 C2 1_555 1_555
C2 H1 1_555 1_555
C3 C2 1_555 1_555
H2 C3 1_555 1_555
C4 C3 1_555 1_555
C5 C4 1_555 1_555
H3 C5 1_555 1_555
C6 C5 1_555 1_555
H4 C6 1_555 1_555
C7 C6 1_555 1_555
H5 C7 1_555 1_555
C8 C7 1_555 1_555
H6 C8 1_555 1_555
C9 C4 1_555 1_555
C10 C1 1_555 1_555
C11 C10 1_555 1_555
C12 C11 1_555 1_555
C13 C12 1_555 1_555
H7 C13 1_555 1_555
C14 C13 1_555 1_555
H8 C14 1_555 1_555
C15 C14 1_555 1_555
H9 C15 1_555 1_555
C16 C15 1_555 1_555
H10 C16 1_555 1_555
C17 C12 1_555 1_555
C18 C17 1_555 1_555
H11 C18 1_555 1_555
C19 C18 1_555 1_555
H12 C19 1_555 1_555
C20 C11 1_555 1_555
C21 O1 1_555 1_555
C22 C21 1_555 1_555
H13 C22 1_555 1_555
C23 C22 1_555 1_555
H14 C23 1_555 1_555
H15 C23 1_555 1_555
C24 C23 1_555 1_555
H16 C24 1_555 1_555
C25 C24 1_555 1_555
H17 C25 1_555 1_555
H18 C25 1_555 1_555
C26 C21 1_555 1_555
H19 C26 1_555 1_555
C27 C26 1_555 1_555
H20 C27 1_555 1_555
H21 C27 1_555 1_555
C28 C27 1_555 1_555
H22 C28 1_555 1_555
C29 C24 1_555 1_555
H23 C29 1_555 1_555
H24 C29 1_555 1_555
C30 C22 1_555 1_555
H25 C30 1_555 1_555
H26 C30 1_555 1_555
C8 C9 1_555 1_555
C9 C10 1_555 1_555
C16 C17 1_555 1_555
C19 C20 1_555 1_555
C20 C21 1_555 1_555
C25 C26 1_555 1_555
C28 C29 1_555 1_555
C28 C30 1_555 1_555

#END
