
#######################################################################
#
#                 Cambridge Crystallographic Data Centre
#                                CCDC 
#
#######################################################################
#
# If this CIF has been generated from an entry in the Cambridge 
# Structural Database, then it will include bibliographic, chemical, 
# crystal, experimental, refinement or atomic coordinate data resulting 
# from the CCDC's data processing and validation procedures.
#
#######################################################################

data_GIDHEH
_chemical_formula_moiety         'C33 H20 O1'
_chemical_name_systematic        
spiro[benzo[f]naphtho[2,1-c]chromene-4,9'-fluorene]
_symmetry_cell_setting           monoclinic
_symmetry_space_group_name_H-M   'P 21/c'
_symmetry_Int_Tables_number      14
_space_group_name_Hall           '-P 2ybc'
loop_
_symmetry_equiv_pos_site_id
_symmetry_equiv_pos_as_xyz
1 x,y,z
2 -x,1/2+y,1/2-z
3 -x,-y,-z
4 x,1/2-y,1/2+z
_cell_length_a                   9.1750(19)
_cell_length_b                   21.589(5)
_cell_length_c                   11.282(2)
_cell_angle_alpha                90
_cell_angle_beta                 91.498(4)
_cell_angle_gamma                90
_cell_volume                     2233.96
_exptl_crystal_colour            'light yellow'
_chemical_melting_point          278-279deg.C
_cell_formula_units_Z            4
loop_
_atom_site_label
_atom_site_type_symbol
_atom_site_fract_x
_atom_site_fract_y
_atom_site_fract_z
O1 O 0.30776(12) 0.44753(5) 0.86880(10)
C1 C 0.43102(18) 0.41252(8) 0.85290(15)
C2 C 0.5322(2) 0.41025(9) 0.94807(16)
H1 H 0.5133 0.4306 1.0186
C3 C 0.6579(2) 0.37801(9) 0.93624(17)
H2 H 0.7217 0.3736 1.0012
C4 C 0.69334(19) 0.35099(8) 0.82658(17)
C5 C 0.8320(2) 0.32366(9) 0.8092(2)
H3 H 0.8965 0.3191 0.8735
C6 C 0.8721(2) 0.30409(9) 0.7008(2)
H4 H 0.9632 0.2861 0.6911
C7 C 0.7760(2) 0.31101(9) 0.60351(19)
H5 H 0.8051 0.2990 0.5286
C8 C 0.64004(19) 0.33513(9) 0.61697(17)
H6 H 0.5778 0.3391 0.5510
C9 C 0.59161(18) 0.35433(8) 0.72926(15)
C10 C 0.45021(17) 0.38062(8) 0.74813(14)
C11 C 0.32402(17) 0.38026(8) 0.66359(14)
C12 C 0.28589(17) 0.32901(8) 0.58675(15)
C13 C 0.35192(19) 0.27000(8) 0.59616(16)
H7 H 0.4221 0.2630 0.6556
C14 C 0.3153(2) 0.22313(9) 0.52022(18)
H8 H 0.3622 0.1851 0.5275
C15 C 0.2075(2) 0.23167(9) 0.43122(18)
H9 H 0.1854 0.1999 0.3780
C16 C 0.1358(2) 0.28669(10) 0.42340(16)
H10 H 0.0626 0.2919 0.3657
C17 C 0.17024(18) 0.33616(8) 0.50118(15)
C18 C 0.08962(19) 0.39194(9) 0.49864(16)
H11 H 0.0178 0.3980 0.4401
C19 C 0.11604(19) 0.43681(9) 0.58089(16)
H12 H 0.0570 0.4718 0.5818
C20 C 0.23160(18) 0.43103(8) 0.66480(14)
C21 C 0.25491(17) 0.47919(8) 0.76091(14)
C22 C 0.35561(19) 0.53286(8) 0.72990(15)
C23 C 0.4943(2) 0.53159(9) 0.68627(17)
H13 H 0.5393 0.4942 0.6692
C24 C 0.5655(2) 0.58737(11) 0.66838(19)
H14 H 0.6600 0.5871 0.6406
C25 C 0.4987(3) 0.64300(11) 0.69099(19)
H15 H 0.5485 0.6798 0.6782
C26 C 0.3581(3) 0.64494(10) 0.73259(17)
H16 H 0.3127 0.6826 0.7470
C27 C 0.2864(2) 0.58920(9) 0.75241(15)
C28 C 0.1388(2) 0.57642(9) 0.79508(15)
C29 C 0.0287(3) 0.61580(10) 0.83063(18)
H17 H 0.0421 0.6585 0.8304
C30 C -0.1010(3) 0.59036(13) 0.8664(2)
H18 H -0.1757 0.6163 0.8901
C31 C -0.1218(2) 0.52707(13) 0.8675(2)
H19 H -0.2104 0.5108 0.8910
C32 C -0.0113(2) 0.48759(10) 0.83376(18)
H20 H -0.0244 0.4449 0.8352
C33 C 0.11766(18) 0.51270(9) 0.79821(15)
loop_
_geom_bond_atom_site_label_1
_geom_bond_atom_site_label_2
_geom_bond_site_symmetry_1
_geom_bond_site_symmetry_2
O1 C1 1_555 1_555
C1 C2 1_555 1_555
C2 H1 1_555 1_555
C3 C2 1_555 1_555
H2 C3 1_555 1_555
C4 C3 1_555 1_555
C5 C4 1_555 1_555
H3 C5 1_555 1_555
C6 C5 1_555 1_555
H4 C6 1_555 1_555
C7 C6 1_555 1_555
H5 C7 1_555 1_555
C8 C7 1_555 1_555
H6 C8 1_555 1_555
C9 C4 1_555 1_555
C10 C1 1_555 1_555
C11 C10 1_555 1_555
C12 C11 1_555 1_555
C13 C12 1_555 1_555
H7 C13 1_555 1_555
C14 C13 1_555 1_555
H8 C14 1_555 1_555
C15 C14 1_555 1_555
H9 C15 1_555 1_555
C16 C15 1_555 1_555
H10 C16 1_555 1_555
C17 C12 1_555 1_555
C18 C17 1_555 1_555
H11 C18 1_555 1_555
C19 C18 1_555 1_555
H12 C19 1_555 1_555
C20 C11 1_555 1_555
C21 O1 1_555 1_555
C22 C21 1_555 1_555
C23 C22 1_555 1_555
H13 C23 1_555 1_555
C24 C23 1_555 1_555
H14 C24 1_555 1_555
C25 C24 1_555 1_555
H15 C25 1_555 1_555
C26 C25 1_555 1_555
H16 C26 1_555 1_555
C27 C22 1_555 1_555
C28 C27 1_555 1_555
C29 C28 1_555 1_555
H17 C29 1_555 1_555
C30 C29 1_555 1_555
H18 C30 1_555 1_555
C31 C30 1_555 1_555
H19 C31 1_555 1_555
C32 C31 1_555 1_555
H20 C32 1_555 1_555
C33 C21 1_555 1_555
C8 C9 1_555 1_555
C9 C10 1_555 1_555
C16 C17 1_555 1_555
C19 C20 1_555 1_555
C20 C21 1_555 1_555
C26 C27 1_555 1_555
C28 C33 1_555 1_555
C32 C33 1_555 1_555

#END
