
#######################################################################
#
#                 Cambridge Crystallographic Data Centre
#                                CCDC 
#
#######################################################################
#
# If this CIF has been generated from an entry in the Cambridge 
# Structural Database, then it will include bibliographic, chemical, 
# crystal, experimental, refinement or atomic coordinate data resulting 
# from the CCDC's data processing and validation procedures.
#
#######################################################################

data_GIDHAD
_chemical_formula_moiety         'C33 H22 O1'
_chemical_name_systematic        
4,4-diphenyl-4H-benzo[f]naphtho[2,1-c]chromene
_symmetry_cell_setting           orthorhombic
_symmetry_space_group_name_H-M   'P 21 21 21'
_symmetry_Int_Tables_number      19
_space_group_name_Hall           'P 2ac 2ab'
loop_
_symmetry_equiv_pos_site_id
_symmetry_equiv_pos_as_xyz
1 x,y,z
2 1/2-x,-y,1/2+z
3 -x,1/2+y,1/2-z
4 1/2+x,1/2-y,-z
_cell_length_a                   9.4370(19)
_cell_length_b                   13.583(3)
_cell_length_c                   17.778(3)
_cell_angle_alpha                90
_cell_angle_beta                 90
_cell_angle_gamma                90
_cell_volume                     2278.83
_exptl_crystal_colour            'light yellow'
_chemical_melting_point          308-309deg.C
_cell_formula_units_Z            4
loop_
_atom_site_label
_atom_site_type_symbol
_atom_site_fract_x
_atom_site_fract_y
_atom_site_fract_z
O1 O 0.66614(18) 0.24615(10) 0.14028(8)
C1 C 0.6292(3) 0.15170(16) 0.15981(13)
C2 C 0.5374(3) 0.10279(18) 0.11031(14)
H1 H 0.4992 0.1354 0.0690
C3 C 0.5050(3) 0.00606(19) 0.12401(14)
H2 H 0.4392 -0.0259 0.0936
C4 C 0.5696(3) -0.04557(17) 0.18331(13)
C5 C 0.5499(3) -0.14813(19) 0.19189(16)
H3 H 0.4877 -0.1811 0.1601
C6 C 0.6204(4) -0.19911(19) 0.24584(17)
H4 H 0.6041 -0.2662 0.2518
C7 C 0.7175(3) -0.15093(19) 0.29232(16)
H5 H 0.7688 -0.1866 0.3277
C8 C 0.7373(3) -0.05173(18) 0.28617(13)
H6 H 0.8024 -0.0209 0.3176
C9 C 0.6621(3) 0.00518(16) 0.23355(12)
C10 C 0.6799(3) 0.11006(15) 0.22494(13)
C11 C 0.7526(2) 0.17767(15) 0.27854(13)
C12 C 0.7440(3) 0.17098(16) 0.35918(12)
C13 C 0.6558(3) 0.10418(16) 0.39852(14)
H7 H 0.5974 0.0621 0.3713
C14 C 0.6541(3) 0.09981(18) 0.47535(14)
H8 H 0.5954 0.0547 0.4994
C15 C 0.7396(3) 0.16254(19) 0.51826(14)
H9 H 0.7405 0.1576 0.5704
C16 C 0.8212(3) 0.23063(18) 0.48291(14)
H10 H 0.8768 0.2730 0.5115
C17 C 0.8237(3) 0.23875(16) 0.40365(12)
C18 C 0.9005(3) 0.31401(17) 0.36811(14)
H11 H 0.9550 0.3569 0.3969
C19 C 0.8964(3) 0.32489(17) 0.29247(14)
H12 H 0.9439 0.3773 0.2701
C20 C 0.8206(3) 0.25751(16) 0.24700(12)
C21 C 0.8118(3) 0.27164(16) 0.16257(12)
C22 C 0.8241(3) 0.38007(16) 0.14133(12)
C23 C 0.7203(3) 0.44514(18) 0.16498(14)
H13 H 0.6416 0.4217 0.1909
C24 C 0.7328(3) 0.5446(2) 0.15023(16)
H14 H 0.6622 0.5876 0.1662
C25 C 0.8486(4) 0.58072(19) 0.11220(17)
H15 H 0.8571 0.6479 0.1033
C26 C 0.9514(3) 0.51726(18) 0.08755(14)
H16 H 1.0288 0.5411 0.0608
C27 C 0.9397(3) 0.41666(17) 0.10273(13)
H17 H 1.0105 0.3739 0.0867
C28 C 0.9140(3) 0.20577(16) 0.11919(14)
C29 C 0.9007(3) 0.19632(17) 0.04196(14)
H18 H 0.8253 0.2266 0.0175
C30 C 0.9981(4) 0.1424(2) 0.00064(17)
H19 H 0.9895 0.1380 -0.0514
C31 C 1.1075(4) 0.0955(2) 0.0371(2)
H20 H 1.1729 0.0593 0.0095
C32 C 1.1213(3) 0.1017(2) 0.11410(19)
H21 H 1.1946 0.0691 0.1386
C33 C 1.0237(3) 0.15756(17) 0.15480(15)
H22 H 1.0327 0.1623 0.2068
loop_
_geom_bond_atom_site_label_1
_geom_bond_atom_site_label_2
_geom_bond_site_symmetry_1
_geom_bond_site_symmetry_2
O1 C1 1_555 1_555
C1 C2 1_555 1_555
C2 H1 1_555 1_555
C3 C2 1_555 1_555
H2 C3 1_555 1_555
C4 C3 1_555 1_555
C5 C4 1_555 1_555
H3 C5 1_555 1_555
C6 C5 1_555 1_555
H4 C6 1_555 1_555
C7 C6 1_555 1_555
H5 C7 1_555 1_555
C8 C7 1_555 1_555
H6 C8 1_555 1_555
C9 C4 1_555 1_555
C10 C1 1_555 1_555
C11 C10 1_555 1_555
C12 C11 1_555 1_555
C13 C12 1_555 1_555
H7 C13 1_555 1_555
C14 C13 1_555 1_555
H8 C14 1_555 1_555
C15 C14 1_555 1_555
H9 C15 1_555 1_555
C16 C15 1_555 1_555
H10 C16 1_555 1_555
C17 C12 1_555 1_555
C18 C17 1_555 1_555
H11 C18 1_555 1_555
C19 C18 1_555 1_555
H12 C19 1_555 1_555
C20 C11 1_555 1_555
C21 O1 1_555 1_555
C22 C21 1_555 1_555
C23 C22 1_555 1_555
H13 C23 1_555 1_555
C24 C23 1_555 1_555
H14 C24 1_555 1_555
C25 C24 1_555 1_555
H15 C25 1_555 1_555
C26 C25 1_555 1_555
H16 C26 1_555 1_555
C27 C22 1_555 1_555
H17 C27 1_555 1_555
C28 C21 1_555 1_555
C29 C28 1_555 1_555
H18 C29 1_555 1_555
C30 C29 1_555 1_555
H19 C30 1_555 1_555
C31 C30 1_555 1_555
H20 C31 1_555 1_555
C32 C31 1_555 1_555
H21 C32 1_555 1_555
C33 C28 1_555 1_555
H22 C33 1_555 1_555
C8 C9 1_555 1_555
C9 C10 1_555 1_555
C16 C17 1_555 1_555
C19 C20 1_555 1_555
C20 C21 1_555 1_555
C26 C27 1_555 1_555
C32 C33 1_555 1_555

#END
