
#######################################################################
#
#                 Cambridge Crystallographic Data Centre
#                                CCDC 
#
#######################################################################
#
# If this CIF has been generated from an entry in the Cambridge 
# Structural Database, then it will include bibliographic, chemical, 
# crystal, experimental, refinement or atomic coordinate data resulting 
# from the CCDC's data processing and validation procedures.
#
#######################################################################

data_GIDKAG
_chemical_formula_moiety         'C27 H36 N2 O4'
_chemical_name_systematic        
'Ethyl 4-((4-(dodecanoyloxy)phenyl)diazenyl)benzoate'
_symmetry_cell_setting           triclinic
_symmetry_space_group_name_H-M   'P -1'
_symmetry_Int_Tables_number      2
_space_group_name_Hall           '-P 1'
loop_
_symmetry_equiv_pos_site_id
_symmetry_equiv_pos_as_xyz
1 x,y,z
2 -x,-y,-z
_cell_length_a                   5.9860(7)
_cell_length_b                   7.6040(9)
_cell_length_c                   57.628(7)
_cell_angle_alpha                91.461(2)
_cell_angle_beta                 92.582(3)
_cell_angle_gamma                92.404(3)
_cell_volume                     2617.13
_cell_formula_units_Z            4
_exptl_crystal_recrystallization_method dichloromethane/hexane
loop_
_atom_site_label
_atom_site_type_symbol
_atom_site_fract_x
_atom_site_fract_y
_atom_site_fract_z
O1 O 0.4620(8) -0.0915(7) 0.26088(11)
O2 O 0.2675(11) 0.0408(9) 0.23329(11)
O3 O -0.6811(14) 0.1084(12) 0.43389(12)
O4 O -0.3766(12) 0.2460(9) 0.45120(13)
N1 N -0.0752(11) 0.0205(8) 0.33497(14)
N2 N -0.0009(10) 0.1101(8) 0.35132(14)
C1 C 0.3156(15) -0.0506(10) 0.27843(15)
C2 C 0.4024(13) 0.0543(9) 0.29639(15)
H1 H 0.5460 0.1050 0.2958
C3 C 0.2783(13) 0.0856(9) 0.31552(13)
H2 H 0.3346 0.1587 0.3278
C4 C 0.0667(13) 0.0045(10) 0.31588(14)
C5 C -0.0173(13) -0.0997(10) 0.29740(16)
H3 H -0.1606 -0.1514 0.2978
C6 C 0.1053(15) -0.1286(9) 0.27845(15)
H4 H 0.0482 -0.1989 0.2659
C7 C -0.1360(15) 0.1238(10) 0.37149(15)
C8 C -0.0401(13) 0.2154(10) 0.39022(16)
H5 H 0.1020 0.2685 0.3893
C9 C -0.1531(14) 0.2302(11) 0.41064(15)
H6 H -0.0853 0.2903 0.4235
C10 C -0.3681(14) 0.1548(11) 0.41179(17)
C11 C -0.4614(15) 0.0659(11) 0.39245(19)
H7 H -0.6054 0.0159 0.3931
C12 C -0.3509(15) 0.0480(10) 0.37232(16)
H8 H -0.4179 -0.0134 0.3595
C13 C -0.4868(19) 0.1721(15) 0.4333(2)
C14 C -0.489(2) 0.2622(17) 0.47304(19)
H9 H -0.5791 0.3650 0.4727
H10 H -0.5875 0.1595 0.4748
C15 C -0.341(3) 0.277(2) 0.4913(2)
H11 H -0.4199 0.2894 0.5053
H12 H -0.2429 0.3784 0.4896
H13 H -0.2549 0.1733 0.4919
C16 C 0.4220(16) -0.0482(11) 0.23903(17)
C17 C 0.5934(14) -0.1169(10) 0.22401(14)
H14 H 0.5881 -0.2442 0.2249
H15 H 0.7391 -0.0742 0.2304
C18 C 0.5767(13) -0.0718(10) 0.19908(14)
H16 H 0.5816 0.0553 0.1979
H17 H 0.4334 -0.1168 0.1924
C19 C 0.7601(14) -0.1452(10) 0.18536(14)
H18 H 0.9024 -0.1091 0.1931
H19 H 0.7463 -0.2726 0.1857
C20 C 0.7654(13) -0.0922(10) 0.16062(14)
H20 H 0.7753 0.0354 0.1603
H21 H 0.6247 -0.1312 0.1527
C21 C 0.9528(14) -0.1623(10) 0.14721(14)
H22 H 0.9419 -0.2898 0.1476
H23 H 1.0929 -0.1242 0.1553
C22 C 0.9644(14) -0.1101(10) 0.12209(14)
H24 H 0.8240 -0.1475 0.1140
H25 H 0.9765 0.0174 0.1217
C23 C 1.1516(14) -0.1816(12) 0.10866(15)
H26 H 1.2925 -0.1460 0.1167
H27 H 1.1381 -0.3091 0.1086
C24 C 1.1599(14) -0.1245(11) 0.08419(15)
H28 H 1.1757 0.0030 0.0842
H29 H 1.0185 -0.1587 0.0761
C25 C 1.3451(15) -0.1984(12) 0.07094(16)
H30 H 1.4867 -0.1621 0.0788
H31 H 1.3312 -0.3259 0.0712
C26 C 1.3505(17) -0.1440(14) 0.04627(18)
H32 H 1.3673 -0.0166 0.0461
H33 H 1.2076 -0.1780 0.0385
C27 C 1.5359(19) -0.2215(15) 0.03244(19)
H34 H 1.5269 -0.1797 0.0169
H35 H 1.5187 -0.3477 0.0321
H36 H 1.6788 -0.1860 0.0397
O5 O 0.8113(8) 0.3417(6) 0.23854(10)
O6 O 1.0802(9) 0.5526(7) 0.23530(9)
O7 O 0.3327(12) 0.6501(12) 0.44342(12)
O8 O -0.0010(11) 0.7268(11) 0.42934(11)
N3 N 0.6156(10) 0.5165(7) 0.32907(12)
N4 N 0.4252(10) 0.5569(7) 0.33346(11)
C28 C 0.7721(14) 0.3968(9) 0.26149(14)
C29 C 0.9201(11) 0.3685(9) 0.27924(15)
H37 H 1.0558 0.3186 0.2764
C30 C 0.8681(11) 0.4141(9) 0.30149(14)
H38 H 0.9703 0.3995 0.3139
C31 C 0.6609(12) 0.4823(9) 0.30530(14)
C32 C 0.5145(12) 0.5144(9) 0.28735(15)
H39 H 0.3802 0.5665 0.2901
C33 C 0.5662(12) 0.4695(9) 0.26520(15)
H40 H 0.4657 0.4871 0.2528
C34 C 0.3821(13) 0.5868(8) 0.35731(14)
C35 C 0.5256(12) 0.5475(9) 0.37508(15)
H41 H 0.6618 0.4992 0.3721
C36 C 0.4694(12) 0.5791(9) 0.39737(15)
H42 H 0.5694 0.5545 0.4096
C37 C 0.2610(13) 0.6490(9) 0.40223(15)
C38 C 0.1171(11) 0.6859(9) 0.38371(16)
H43 H -0.0202 0.7327 0.3867
C39 C 0.1714(12) 0.6554(9) 0.36108(14)
H44 H 0.0728 0.6791 0.3487
C40 C 0.2063(17) 0.6709(13) 0.42686(18)
C41 C -0.073(2) 0.833(2) 0.4561(2)
H45 H -0.2055 0.8994 0.4549
C42 C 0.9768(13) 0.4277(12) 0.22737(13)
C43 C 1.0049(12) 0.3464(9) 0.20366(13)
H46 H 1.0209 0.2208 0.2053
H47 H 0.8696 0.3622 0.1942
C44 C 1.2018(12) 0.4200(10) 0.19106(12)
H48 H 1.3381 0.4020 0.2003
H49 H 1.1877 0.5459 0.1895
C45 C 1.2207(13) 0.3356(10) 0.16700(13)
H50 H 1.2344 0.2099 0.1687
H51 H 1.0829 0.3527 0.1580
C46 C 1.4137(13) 0.4050(10) 0.15356(13)
H52 H 1.5521 0.3842 0.1623
H53 H 1.4031 0.5313 0.1523
C47 C 1.4245(13) 0.3233(10) 0.12942(13)
H54 H 1.4336 0.1969 0.1308
H55 H 1.2860 0.3446 0.1208
C48 C 1.6166(13) 0.3896(10) 0.11569(14)
H56 H 1.6106 0.5165 0.1146
H57 H 1.7557 0.3646 0.1240
C49 C 1.6180(14) 0.3110(11) 0.09186(14)
H58 H 1.4786 0.3360 0.0836
H59 H 1.6233 0.1841 0.0930
C50 C 1.8096(16) 0.3754(12) 0.07777(14)
H60 H 1.8024 0.5020 0.0764
H61 H 1.9488 0.3526 0.0862
C51 C 1.8153(16) 0.2943(13) 0.05386(16)
H62 H 1.6773 0.3197 0.0454
H63 H 1.8177 0.1676 0.0553
C52 C 2.0070(18) 0.3522(15) 0.03965(18)
H64 H 2.1449 0.3249 0.0480
H65 H 2.0061 0.4792 0.0385
C53 C 2.012(2) 0.2727(15) 0.01522(18)
H66 H 2.1387 0.3215 0.0076
H67 H 1.8769 0.2991 0.0066
H68 H 2.0222 0.1474 0.0160
C54 C 0.115(12) 0.878(14) 0.4805(11)
H69 H 0.0318 0.9062 0.4939
H70 H 0.2151 0.9751 0.4773
H71 H 0.1999 0.7756 0.4836
H72? H -0.2062 -0.0307 0.3348
H73? H 0.1281 0.1641 0.3510
H74? H 0.7179 0.5092 0.3399
H75? H 0.3230 0.5667 0.3227
H76? H 0.0452 0.8961 0.4651
C55? C -0.112(3) 0.645(2) 0.4601(3)
H77? H -0.1860 0.5899 0.4465
H78? H -0.2053 0.6307 0.4731
H79? H 0.0279 0.5920 0.4632
loop_
_geom_bond_atom_site_label_1
_geom_bond_atom_site_label_2
_geom_bond_site_symmetry_1
_geom_bond_site_symmetry_2
O1 C1 1_555 1_555
O2 C16 1_555 1_555
O3 C13 1_555 1_555
O4 C13 1_555 1_555
N1 N2 1_555 1_555
N2 C7 1_555 1_555
C1 C2 1_555 1_555
C2 H1 1_555 1_555
C3 C2 1_555 1_555
H2 C3 1_555 1_555
C4 N1 1_555 1_555
C5 C4 1_555 1_555
H3 C5 1_555 1_555
C6 C1 1_555 1_555
H4 C6 1_555 1_555
C7 C8 1_555 1_555
C8 H5 1_555 1_555
C9 C8 1_555 1_555
H6 C9 1_555 1_555
C10 C9 1_555 1_555
C11 C10 1_555 1_555
H7 C11 1_555 1_555
C12 C7 1_555 1_555
H8 C12 1_555 1_555
C13 C10 1_555 1_555
C14 O4 1_555 1_555
H9 C14 1_555 1_555
H10 C14 1_555 1_555
C15 C14 1_555 1_555
H11 C15 1_555 1_555
H12 C15 1_555 1_555
H13 C15 1_555 1_555
C16 O1 1_555 1_555
C17 C16 1_555 1_555
H14 C17 1_555 1_555
H15 C17 1_555 1_555
C18 C17 1_555 1_555
H16 C18 1_555 1_555
H17 C18 1_555 1_555
C19 C18 1_555 1_555
H18 C19 1_555 1_555
H19 C19 1_555 1_555
C20 C19 1_555 1_555
H20 C20 1_555 1_555
H21 C20 1_555 1_555
C21 C20 1_555 1_555
H22 C21 1_555 1_555
H23 C21 1_555 1_555
C22 C21 1_555 1_555
H24 C22 1_555 1_555
H25 C22 1_555 1_555
C23 C22 1_555 1_555
H26 C23 1_555 1_555
H27 C23 1_555 1_555
C24 C23 1_555 1_555
H28 C24 1_555 1_555
H29 C24 1_555 1_555
C25 C24 1_555 1_555
H30 C25 1_555 1_555
H31 C25 1_555 1_555
C26 C25 1_555 1_555
H32 C26 1_555 1_555
H33 C26 1_555 1_555
C27 C26 1_555 1_555
H34 C27 1_555 1_555
H35 C27 1_555 1_555
H36 C27 1_555 1_555
O5 C28 1_555 1_555
O6 C42 1_555 1_555
O7 C40 1_555 1_555
O8 C40 1_555 1_555
N3 N4 1_555 1_555
N4 C34 1_555 1_555
C28 C29 1_555 1_555
C29 H37 1_555 1_555
C30 C29 1_555 1_555
H38 C30 1_555 1_555
C31 N3 1_555 1_555
C32 C31 1_555 1_555
H39 C32 1_555 1_555
C33 C28 1_555 1_555
H40 C33 1_555 1_555
C34 C35 1_555 1_555
C35 H41 1_555 1_555
C36 C35 1_555 1_555
H42 C36 1_555 1_555
C37 C36 1_555 1_555
C38 C37 1_555 1_555
H43 C38 1_555 1_555
C39 C34 1_555 1_555
H44 C39 1_555 1_555
C40 C37 1_555 1_555
C41 O8 1_555 1_555
H45 C41 1_555 1_555
C42 O5 1_555 1_555
C43 C42 1_555 1_555
H46 C43 1_555 1_555
H47 C43 1_555 1_555
C44 C43 1_555 1_555
H48 C44 1_555 1_555
H49 C44 1_555 1_555
C45 C44 1_555 1_555
H50 C45 1_555 1_555
H51 C45 1_555 1_555
C46 C45 1_555 1_555
H52 C46 1_555 1_555
H53 C46 1_555 1_555
C47 C46 1_555 1_555
H54 C47 1_555 1_555
H55 C47 1_555 1_555
C48 C47 1_555 1_555
H56 C48 1_555 1_555
H57 C48 1_555 1_555
C49 C48 1_555 1_555
H58 C49 1_555 1_555
H59 C49 1_555 1_555
C50 C49 1_555 1_555
H60 C50 1_555 1_555
H61 C50 1_555 1_555
C51 C50 1_555 1_555
H62 C51 1_555 1_555
H63 C51 1_555 1_555
C52 C51 1_555 1_555
H64 C52 1_555 1_555
H65 C52 1_555 1_555
C53 C52 1_555 1_555
H66 C53 1_555 1_555
H67 C53 1_555 1_555
H68 C53 1_555 1_555
C54 C41 1_555 1_555
H69 C54 1_555 1_555
H70 C54 1_555 1_555
H71 C54 1_555 1_555
C3 C4 1_555 1_555
C5 C6 1_555 1_555
C11 C12 1_555 1_555
C30 C31 1_555 1_555
C32 C33 1_555 1_555
C38 C39 1_555 1_555

#END
