
#######################################################################
#
#                 Cambridge Crystallographic Data Centre
#                                CCDC 
#
#######################################################################
#
# If this CIF has been generated from an entry in the Cambridge 
# Structural Database, then it will include bibliographic, chemical, 
# crystal, experimental, refinement or atomic coordinate data resulting 
# from the CCDC's data processing and validation procedures.
#
#######################################################################

data_GIDKOW
_chemical_formula_moiety         'C16 H18 N2 O2 S1'
_chemical_name_systematic        'isobutyl (1-naphthylcarbamothioyl)carbamate'
_symmetry_cell_setting           triclinic
_symmetry_space_group_name_H-M   'P -1'
_symmetry_Int_Tables_number      2
_space_group_name_Hall           '-P 1'
loop_
_symmetry_equiv_pos_site_id
_symmetry_equiv_pos_as_xyz
1 x,y,z
2 -x,-y,-z
_cell_length_a                   4.65935(15)
_cell_length_b                   12.3334(4)
_cell_length_c                   14.1669(4)
_cell_angle_alpha                67.862(3)
_cell_angle_beta                 88.244(2)
_cell_angle_gamma                86.714(3)
_cell_volume                     752.817
_exptl_crystal_colour            colorless
_exptl_crystal_description       prism
_cell_formula_units_Z            2
loop_
_atom_site_label
_atom_site_type_symbol
_atom_site_fract_x
_atom_site_fract_y
_atom_site_fract_z
S1 S 1.08780(4) 0.03111(2) 0.63654(2)
O1 O 0.38164(14) 0.29472(5) 0.45658(4)
O2 O 0.43459(14) 0.18648(6) 0.35806(4)
N1 N 0.70310(14) 0.20320(6) 0.62554(5)
H1 H 0.5658 0.2542 0.5924
N2 N 0.70809(13) 0.13662(5) 0.49292(4)
H2 H 0.7821 0.0862 0.4673
C1 C 0.79289(16) 0.20275(7) 0.72130(5)
C2 C 0.69019(19) 0.12233(8) 0.80968(6)
H3 H 0.5586 0.0674 0.8074
C3 C 0.7793(2) 0.12073(9) 0.90456(6)
H4 H 0.7089 0.0642 0.9660
C4 C 0.9673(2) 0.20054(9) 0.90845(6)
H5 H 1.0275 0.1984 0.9726
C5 C 1.07238(17) 0.28604(7) 0.81764(5)
C6 C 1.26843(19) 0.36948(9) 0.81924(7)
H6 H 1.3298 0.3689 0.8828
C7 C 1.3698(2) 0.45044(9) 0.73087(8)
H7 H 1.5024 0.5051 0.7332
C8 C 1.2778(2) 0.45300(8) 0.63601(7)
H8 H 1.3467 0.5105 0.5749
C9 C 1.09081(17) 0.37385(7) 0.63087(6)
H9 H 1.0320 0.3764 0.5664
C10 C 0.98426(16) 0.28770(6) 0.72194(5)
C11 C 0.81847(15) 0.12973(6) 0.58438(5)
C12 C 0.49429(15) 0.21414(6) 0.43745(5)
C13 C 0.23350(16) 0.26412(7) 0.28347(5)
H10 H 0.1684 0.3307 0.3030
H11 H 0.0631 0.2213 0.2803
C14 C 0.38410(17) 0.30888(7) 0.18053(6)
H12 H 0.5614 0.3474 0.1871
C15 C 0.1881(2) 0.40070(9) 0.10325(6)
H13 H 0.1399 0.4650 0.1265
H14 H 0.0115 0.3649 0.0965
H15 H 0.2870 0.4313 0.0371
C16 C 0.4736(2) 0.20896(9) 0.14573(7)
H16 H 0.6076 0.1537 0.1949
H17 H 0.5675 0.2406 0.0787
H18 H 0.3031 0.1683 0.1412
loop_
_geom_bond_atom_site_label_1
_geom_bond_atom_site_label_2
_geom_bond_site_symmetry_1
_geom_bond_site_symmetry_2
S1 C11 1_555 1_555
O1 C12 1_555 1_555
O2 C12 1_555 1_555
N1 H1 1_555 1_555
N2 H2 1_555 1_555
C1 N1 1_555 1_555
C2 C1 1_555 1_555
H3 C2 1_555 1_555
C3 C2 1_555 1_555
H4 C3 1_555 1_555
C4 C3 1_555 1_555
H5 C4 1_555 1_555
C5 C4 1_555 1_555
C6 C5 1_555 1_555
H6 C6 1_555 1_555
C7 C6 1_555 1_555
H7 C7 1_555 1_555
C8 C7 1_555 1_555
H8 C8 1_555 1_555
C9 C8 1_555 1_555
H9 C9 1_555 1_555
C10 C1 1_555 1_555
C11 N1 1_555 1_555
C12 N2 1_555 1_555
C13 O2 1_555 1_555
H10 C13 1_555 1_555
H11 C13 1_555 1_555
C14 C13 1_555 1_555
H12 C14 1_555 1_555
C15 C14 1_555 1_555
H13 C15 1_555 1_555
H14 C15 1_555 1_555
H15 C15 1_555 1_555
C16 C14 1_555 1_555
H16 C16 1_555 1_555
H17 C16 1_555 1_555
H18 C16 1_555 1_555
N2 C11 1_555 1_555
C5 C10 1_555 1_555
C9 C10 1_555 1_555

#END
