
#######################################################################
#
#                 Cambridge Crystallographic Data Centre
#                                CCDC 
#
#######################################################################
#
# If this CIF has been generated from an entry in the Cambridge 
# Structural Database, then it will include bibliographic, chemical, 
# crystal, experimental, refinement or atomic coordinate data resulting 
# from the CCDC's data processing and validation procedures.
#
#######################################################################

data_GIDNAL
_chemical_formula_moiety         '2(C8 H15 N2 1+),Cl6 Te1 2-'
_chemical_name_systematic        
'bis(1-n-butyl-3-methylimidazolium) hexachloro-tellurium'
_symmetry_cell_setting           orthorhombic
_symmetry_space_group_name_H-M   'P 21 21 21'
_symmetry_Int_Tables_number      19
_space_group_name_Hall           'P 2ac 2ab'
loop_
_symmetry_equiv_pos_site_id
_symmetry_equiv_pos_as_xyz
1 x,y,z
2 1/2-x,-y,1/2+z
3 1/2+x,1/2-y,-z
4 -x,1/2+y,1/2-z
_cell_length_a                   17.7466(4)
_cell_length_b                   17.7466(4)
_cell_length_c                   8.7874(3)
_cell_angle_alpha                90
_cell_angle_beta                 90
_cell_angle_gamma                90
_cell_volume                     2767.52
_exptl_crystal_colour            yellow
_exptl_crystal_description       block
_cell_formula_units_Z            4
loop_
_atom_site_label
_atom_site_type_symbol
_atom_site_fract_x
_atom_site_fract_y
_atom_site_fract_z
Te1 Te 0.99208(5) 0.74194(5) 0.87414(13)
Cl1 Cl 0.9939(2) 0.7332(2) 1.1621(3)
Cl2 Cl 0.9830(2) 0.7461(2) 0.5872(3)
Cl3 Cl 0.9158(2) 0.86292(19) 0.8845(4)
Cl4 Cl 1.0719(2) 0.6259(2) 0.8597(5)
Cl5 Cl 0.87451(18) 0.66268(19) 0.8817(5)
Cl6 Cl 1.11162(16) 0.81948(18) 0.8689(4)
N1 N 0.7197(7) 0.7880(6) 0.6903(11)
N2 N 0.7590(7) 0.7911(7) 0.4663(13)
C1 C 0.6585(7) 0.7893(8) 0.6005(14)
H1 H 0.608224 0.790269 0.630285
C2 C 0.6860(8) 0.7891(9) 0.4585(14)
H2 H 0.657667 0.787788 0.369570
C3 C 0.7790(7) 0.7900(8) 0.6073(15)
H3 H 0.828339 0.790639 0.642823
C4 C 0.7196(7) 0.7844(8) 0.8582(13)
H4 H 0.705840 0.734539 0.890287
H5 H 0.683818 0.820010 0.897589
H6 H 0.768915 0.796322 0.895887
C5 C 0.8086(9) 0.7948(9) 0.3363(15)
H7 H 0.798352 0.752236 0.270253
H8 H 0.860265 0.790509 0.371122
C6 C 0.8005(12) 0.8663(9) 0.2459(17)
H9 H 0.834871 0.865703 0.160043
H10 H 0.749505 0.870666 0.207135
C7 C 0.8178(12) 0.9310(9) 0.3462(17)
H11 H 0.866932 0.924447 0.392900
H12 H 0.780382 0.934974 0.426207
C8 C 0.8171(12) 1.0010(9) 0.2483(18)
H13 H 0.772561 1.001269 0.186344
H14 H 0.860891 1.001412 0.184120
H15 H 0.817440 1.044878 0.312262
N3 N 0.9567(6) 0.4667(6) 0.0578(11)
N4 N 0.9591(7) 0.5074(6) 0.2891(12)
C9 C 0.9578(8) 0.4028(7) 0.1499(13)
H16 H 0.956359 0.352878 0.117608
C10 C 0.9616(9) 0.4277(8) 0.2967(13)
H17 H 0.965048 0.398275 0.383973
C11 C 0.9562(7) 0.5284(7) 0.1439(14)
H18 H 0.954232 0.577780 0.108614
C12 C 0.9571(7) 0.4640(7) -0.1056(13)
H19 H 0.999373 0.434724 -0.139633
H20 H 0.960942 0.514212 -0.145377
H21 H 0.911277 0.441190 -0.141043
C13 C 0.9637(9) 0.5581(11) 0.4202(15)
H22 H 0.966150 0.610222 0.387255
H23 H 1.007986 0.546987 0.480981
C14 C 0.8929(9) 0.5438(12) 0.5097(18)
H24 H 0.897901 0.563599 0.612058
H25 H 0.883061 0.490104 0.516152
C15 C 0.8296(10) 0.5830(11) 0.4270(18)
H26 H 0.827147 0.568499 0.320695
H27 H 0.833288 0.637407 0.434903
C16 C 0.7609(9) 0.5509(13) 0.521(2)
H28 H 0.761506 0.571943 0.621668
H29 H 0.764779 0.497074 0.527215
H30 H 0.714608 0.564298 0.471275
loop_
_geom_bond_atom_site_label_1
_geom_bond_atom_site_label_2
_geom_bond_site_symmetry_1
_geom_bond_site_symmetry_2
Te1 Cl1 1_555 1_555
Cl2 Te1 1_555 1_555
Cl3 Te1 1_555 1_555
Cl4 Te1 1_555 1_555
Cl5 Te1 1_555 1_555
Cl6 Te1 1_555 1_555
N1 C1 1_555 1_555
N2 C2 1_555 1_555
C1 H1 1_555 1_555
C2 C1 1_555 1_555
H2 C2 1_555 1_555
C3 N1 1_555 1_555
H3 C3 1_555 1_555
C4 N1 1_555 1_555
H4 C4 1_555 1_555
H5 C4 1_555 1_555
H6 C4 1_555 1_555
C5 N2 1_555 1_555
H7 C5 1_555 1_555
H8 C5 1_555 1_555
C6 C5 1_555 1_555
H9 C6 1_555 1_555
H10 C6 1_555 1_555
C7 C6 1_555 1_555
H11 C7 1_555 1_555
H12 C7 1_555 1_555
C8 C7 1_555 1_555
H13 C8 1_555 1_555
H14 C8 1_555 1_555
H15 C8 1_555 1_555
N3 C9 1_555 1_555
N4 C10 1_555 1_555
C9 H16 1_555 1_555
C10 C9 1_555 1_555
H17 C10 1_555 1_555
C11 N3 1_555 1_555
H18 C11 1_555 1_555
C12 N3 1_555 1_555
H19 C12 1_555 1_555
H20 C12 1_555 1_555
H21 C12 1_555 1_555
C13 N4 1_555 1_555
H22 C13 1_555 1_555
H23 C13 1_555 1_555
C14 C13 1_555 1_555
H24 C14 1_555 1_555
H25 C14 1_555 1_555
C15 C14 1_555 1_555
H26 C15 1_555 1_555
H27 C15 1_555 1_555
C16 C15 1_555 1_555
H28 C16 1_555 1_555
H29 C16 1_555 1_555
H30 C16 1_555 1_555
N2 C3 1_555 1_555
N4 C11 1_555 1_555

#END
