
#######################################################################
#
#                 Cambridge Crystallographic Data Centre
#                                CCDC 
#
#######################################################################
#
# If this CIF has been generated from an entry in the Cambridge 
# Structural Database, then it will include bibliographic, chemical, 
# crystal, experimental, refinement or atomic coordinate data resulting 
# from the CCDC's data processing and validation procedures.
#
#######################################################################

data_GIDNAL01
_chemical_formula_moiety         '2(C8 H15 N2 1+),Cl6 Te1 2-'
_chemical_name_systematic        
'bis(1-n-butyl-3-methylimidazolium) hexachloro-tellurium'
_symmetry_cell_setting           monoclinic
_symmetry_space_group_name_H-M   'P 21'
_symmetry_Int_Tables_number      4
_space_group_name_Hall           'P 2yb'
loop_
_symmetry_equiv_pos_site_id
_symmetry_equiv_pos_as_xyz
1 x,y,z
2 -x,1/2+y,-z
_cell_length_a                   20.6455(7)
_cell_length_b                   9.4619(3)
_cell_length_c                   27.9901(10)
_cell_angle_alpha                90
_cell_angle_beta                 102.135(4)
_cell_angle_gamma                90
_cell_volume                     5345.57
_exptl_crystal_colour            yellow
_exptl_crystal_description       block
_cell_formula_units_Z            8
loop_
_atom_site_label
_atom_site_type_symbol
_atom_site_fract_x
_atom_site_fract_y
_atom_site_fract_z
Te1 Te 0.79915(3) 0.38336(6) 0.65946(2)
Cl1 Cl 0.73546(14) 0.5606(3) 0.69774(11)
Cl2 Cl 0.72735(15) 0.4384(3) 0.57571(11)
Cl3 Cl 0.86995(15) 0.3292(3) 0.74244(11)
Cl4 Cl 0.86063(15) 0.1983(3) 0.61935(13)
Cl5 Cl 0.87733(14) 0.5740(3) 0.64700(12)
Cl6 Cl 0.71808(15) 0.1900(3) 0.67262(13)
Te2 Te 0.29581(3) 0.38642(7) 0.66986(2)
Cl7 Cl 0.21625(14) 0.1932(3) 0.68433(12)
Cl8 Cl 0.23468(14) 0.5631(3) 0.70943(10)
Cl9 Cl 0.37416(14) 0.5803(3) 0.65750(12)
Cl10 Cl 0.36742(15) 0.3313(3) 0.75182(11)
Cl11 Cl 0.22176(14) 0.4412(3) 0.58645(11)
Cl12 Cl 0.35837(15) 0.2009(3) 0.62974(13)
Te3 Te 0.86557(3) 0.21021(5) 0.10912(2)
Cl13 Cl 0.95153(14) 0.4039(3) 0.11050(11)
Cl14 Cl 0.78091(15) 0.0183(3) 0.10646(12)
Cl15 Cl 0.77533(13) 0.3868(3) 0.07608(11)
Cl16 Cl 0.85541(15) 0.2737(3) 0.19472(11)
Cl17 Cl 0.87641(14) 0.1479(3) 0.02268(10)
Cl18 Cl 0.96258(15) 0.0453(3) 0.14166(11)
Te4 Te 0.64127(3) 0.72682(6) 0.89109(3)
Cl19 Cl 0.73956(14) 0.8874(3) 0.89707(11)
Cl20 Cl 0.64095(17) 0.7615(4) 0.98082(11)
Cl21 Cl 0.56363(18) 0.9356(3) 0.87349(14)
Cl22 Cl 0.71941(15) 0.5190(3) 0.91192(12)
Cl23 Cl 0.63980(18) 0.6992(5) 0.80206(12)
Cl24 Cl 0.53973(16) 0.5664(4) 0.88403(14)
N1 N 0.3557(5) 0.7608(11) 0.7983(4)
N2 N 0.4104(6) 0.8998(13) 0.7619(4)
C1 C 0.3118(7) 0.8564(16) 0.7738(6)
H1 H 0.266540 0.860756 0.772996
C2 C 0.3462(9) 0.9420(15) 0.7513(6)
H2 H 0.329347 1.018113 0.731504
C3 C 0.4135(7) 0.7853(14) 0.7902(5)
H3 H 0.451358 0.732158 0.802034
C4 C 0.3417(7) 0.6474(14) 0.8296(5)
H4 H 0.309198 0.678635 0.847265
H5 H 0.381600 0.621626 0.852201
H6 H 0.324888 0.566993 0.809891
C5 C 0.4617(16) 0.985(3) 0.7435(16)
H7 H 0.441036 1.062994 0.723651
H8 H 0.494280 1.021971 0.770670
C6 C 0.4918(18) 0.892(4) 0.7154(14)
H9 H 0.459540 0.858458 0.687380
H10 H 0.510207 0.810891 0.734883
C7 C 0.5459(17) 0.973(4) 0.6990(15)
H11 H 0.525867 1.042792 0.674987
H12 H 0.571656 1.023548 0.726792
C8 C 0.5913(16) 0.883(3) 0.6774(16)
H13 H 0.616780 0.941552 0.660180
H14 H 0.565887 0.816687 0.655186
H15 H 0.620657 0.833012 0.703005
N3 N 0.7964(6) 0.3956(14) 0.4220(4)
N4 N 0.8263(5) 0.5317(12) 0.4820(4)
C13 C 0.8304(8) 0.3203(15) 0.4595(7)
H25 H 0.840540 0.224719 0.458684
C14 C 0.8471(7) 0.4027(19) 0.4974(5)
H26 H 0.869086 0.376989 0.528687
C15 C 0.7956(7) 0.5267(15) 0.4375(5)
H27 H 0.775897 0.602954 0.419053
C16 C 0.7630(8) 0.3492(15) 0.3728(5)
H28 H 0.725915 0.290280 0.375086
H29 H 0.793586 0.296656 0.358175
H30 H 0.747759 0.430302 0.353011
C17 C 0.8368(7) 0.6630(15) 0.5121(5)
H31 H 0.799941 0.726435 0.500510
H32 H 0.836011 0.638397 0.545598
C18 C 0.8985(7) 0.7393(16) 0.5118(5)
H33 H 0.901432 0.758129 0.478269
H34 H 0.935770 0.680161 0.526373
C19 C 0.9029(9) 0.877(2) 0.5393(6)
H35 H 0.860401 0.924666 0.530537
H36 H 0.910776 0.856469 0.574037
C20 C 0.9509(11) 0.967(2) 0.5312(7)
H37 H 0.957937 1.039748 0.555778
H38 H 0.937272 1.009723 0.499547
H39 H 0.991361 0.915896 0.532622
N5 N 0.2903(5) 0.3946(13) 0.4318(4)
N6 N 0.3201(5) 0.5353(11) 0.4935(4)
C21 C 0.3236(7) 0.3144(15) 0.4703(7)
H40 H 0.332471 0.218037 0.470262
C22 C 0.3405(7) 0.4041(18) 0.5079(6)
H41 H 0.362958 0.379491 0.539220
C23 C 0.2908(6) 0.5254(14) 0.4478(5)
H42 H 0.272435 0.601626 0.428630
C24 C 0.2589(9) 0.3480(16) 0.3838(6)
H43 H 0.232290 0.266180 0.386267
H44 H 0.292104 0.324308 0.365704
H45 H 0.231282 0.422131 0.367213
C25 C 0.3319(19) 0.667(3) 0.5214(13)
H46 H 0.328466 0.646552 0.554727
H47 H 0.296218 0.731763 0.508041
C26 C 0.3947(11) 0.7416(17) 0.5233(8)
H48 H 0.400663 0.759440 0.490361
H49 H 0.431237 0.683519 0.539908
C27 C 0.3942(10) 0.8811(18) 0.5504(7)
H50 H 0.352598 0.929749 0.538601
H51 H 0.398781 0.863438 0.585056
C28 C 0.4499(11) 0.970(2) 0.5421(8)
H52 H 0.464123 1.031024 0.569589
H53 H 0.435639 1.025367 0.513102
H54 H 0.486044 0.910059 0.538133
N7 N 0.1631(5) 0.2309(10) 0.8080(4)
N8 N 0.0879(5) 0.3558(10) 0.7685(3)
C33 C 0.1042(8) 0.1781(13) 0.8151(5)
H64 H 0.098672 0.100131 0.834046
C34 C 0.0559(7) 0.2590(13) 0.7897(6)
H65 H 0.010508 0.250071 0.787216
C35 C 0.1497(7) 0.3460(13) 0.7789(5)
H66 H 0.180076 0.405296 0.768687
C36 C 0.2296(7) 0.1782(14) 0.8291(5)
H67 H 0.229364 0.132669 0.859744
H68 H 0.260254 0.255777 0.834388
H69 H 0.242790 0.111606 0.807122
C37 C 0.0389(9) 0.481(2) 0.7353(6)
H70 H -0.007515 0.463042 0.734422
H71 H 0.050140 0.574899 0.748628
C38 C 0.0538(12) 0.468(2) 0.6863(7)
H72 H 0.033464 0.547165 0.667018
H73 H 0.101352 0.477613 0.689918
C39 C 0.0342(12) 0.342(2) 0.6582(7)
H74 H -0.009401 0.313934 0.662542
H75 H 0.064715 0.266265 0.671322
C40 C 0.0323(12) 0.354(3) 0.6050(7)
H76 H 0.018307 0.265850 0.589269
H77 H 0.075657 0.377435 0.600081
H78 H 0.001658 0.427087 0.591371
N9 N 0.6445(4) 0.2147(9) -0.0040(3)
N10 N 0.5819(4) 0.3647(11) 0.0272(3)
C45 C 0.6125(6) 0.1370(13) 0.0241(5)
H88 H 0.617881 0.040957 0.030741
C46 C 0.5715(6) 0.2254(13) 0.0405(4)
H89 H 0.540424 0.197930 0.058330
C47 C 0.6252(5) 0.3488(12) -0.0027(4)
H90 H 0.639580 0.421960 -0.020121
C48 C 0.6939(6) 0.1613(12) -0.0299(4)
H91 H 0.674838 0.086870 -0.051715
H92 H 0.731292 0.125453 -0.006775
H93 H 0.708023 0.236572 -0.048387
C49 C 0.5432(18) 0.465(3) 0.0322(12)
H94 H 0.503363 0.427900 0.040973
H95 H 0.530635 0.517829 0.002085
C50 C 0.5797(17) 0.555(2) 0.0714(10)
H96 H 0.622553 0.576922 0.064287
H97 H 0.587441 0.502004 0.101778
C51 C 0.5441(11) 0.697(2) 0.0791(10)
H98 H 0.545304 0.760970 0.052247
H99 H 0.498171 0.678781 0.079992
C52 C 0.5782(16) 0.762(3) 0.1256(10)
H100 H 0.560356 0.723921 0.151918
H101 H 0.571837 0.862143 0.123947
H102 H 0.624750 0.740896 0.131118
N11 N 0.1578(5) 0.2437(10) 0.2054(3)
N12 N 0.1035(7) 0.3826(13) 0.2436(4)
C57 C 0.1988(6) 0.3460(13) 0.2277(5)
H112 H 0.243137 0.355593 0.226196
C58 C 0.1668(8) 0.4291(13) 0.2517(5)
H113 H 0.184266 0.505993 0.270864
C59 C 0.1012(8) 0.2688(14) 0.2167(5)
H114 H 0.063645 0.213041 0.206870
C60 C 0.1724(7) 0.1285(12) 0.1759(4)
H115 H 0.206774 0.070901 0.194822
H116 H 0.186978 0.165167 0.147961
H117 H 0.133314 0.072405 0.165254
C61 C 0.0541(14) 0.464(2) 0.2654(12)
H118 H 0.077707 0.533191 0.288357
H119 H 0.024798 0.515840 0.239590
C62 C 0.0150(16) 0.376(3) 0.2902(12)
H120 H 0.044067 0.321509 0.315420
H121 H -0.010421 0.309516 0.267130
C63 C -0.0313(15) 0.463(3) 0.3130(14)
H122 H -0.005496 0.520967 0.338757
H123 H -0.056002 0.526464 0.288427
C64 C -0.0782(13) 0.377(3) 0.3334(11)
H124 H -0.112058 0.437182 0.341262
H125 H -0.055079 0.330710 0.362473
H126 H -0.098148 0.307973 0.309825
N13 N 0.1347(4) 0.1992(9) 0.0019(3)
N14 N 0.0754(4) 0.0511(9) 0.0321(3)
C69 C 0.1029(5) 0.2716(11) 0.0316(4)
H136 H 0.105900 0.368272 0.037719
C70 C 0.0658(5) 0.1787(11) 0.0510(4)
H137 H 0.038971 0.198721 0.073015
C71 C 0.1176(5) 0.0660(12) 0.0028(4)
H138 H 0.132691 -0.006534 -0.014480
C72 C 0.1780(6) 0.2564(13) -0.0288(4)
H139 H 0.184695 0.355623 -0.022492
H140 H 0.157760 0.242339 -0.062629
H141 H 0.219975 0.208601 -0.021454
C73 C 0.0455(5) -0.0836(10) 0.0430(4)
H142 H 0.036880 -0.141805 0.013814
H143 H 0.003379 -0.064296 0.051840
C74 C 0.0890(5) -0.1634(10) 0.0836(4)
H144 H 0.096751 -0.106723 0.113168
H145 H 0.131465 -0.181664 0.075212
C75 C 0.0568(5) -0.3042(10) 0.0930(4)
H146 H 0.016127 -0.285408 0.104096
H147 H 0.045482 -0.357070 0.062733
C76 C 0.1018(6) -0.3903(13) 0.1304(5)
H148 H 0.082692 -0.482052 0.132398
H149 H 0.107934 -0.344281 0.161542
H150 H 0.143858 -0.400289 0.121207
N15 N 0.6582(6) 0.2724(11) 0.8003(4)
N16 N 0.5781(6) 0.3747(12) 0.7533(5)
C77 C 0.6048(11) 0.250(2) 0.8161(7)
H151 H 0.602899 0.195615 0.843574
C78 C 0.5543(9) 0.311(2) 0.7892(8)
H152 H 0.510870 0.311421 0.793609
C79 C 0.6409(6) 0.3484(13) 0.7614(5)
H153 H 0.669512 0.379669 0.742002
C80 C 0.7242(8) 0.2242(15) 0.8204(6)
H154 H 0.722835 0.152219 0.844323
H155 H 0.750598 0.302025 0.835529
H156 H 0.743349 0.186150 0.794716
C81 C 0.5250(14) 0.474(3) 0.7307(10)
H157 H 0.481189 0.432280 0.726065
H158 H 0.526321 0.562001 0.748668
C82 C 0.547(2) 0.491(4) 0.6844(11)
H159 H 0.592680 0.524592 0.691076
H160 H 0.519900 0.561083 0.664250
C83 C 0.543(3) 0.355(3) 0.6577(12)
H161 H 0.583687 0.301467 0.667726
H162 H 0.506596 0.298221 0.664430
C84 C 0.532(2) 0.389(5) 0.6051(12)
H163 H 0.528499 0.302520 0.586543
H164 H 0.491123 0.440922 0.595632
H165 H 0.567852 0.444153 0.598913
C9? C 0.473(3) 0.950(7) 0.748(3)
H16? H 0.470794 1.052695 0.749207
H17? H 0.508348 0.923414 0.775409
C10? C 0.499(4) 0.918(7) 0.704(3)
H18? H 0.465707 0.948712 0.676113
H19? H 0.501720 0.816022 0.701907
C11? C 0.564(3) 0.976(8) 0.697(2)
H20? H 0.565911 1.077788 0.702500
H21? H 0.600512 0.932802 0.720286
C12? C 0.567(3) 0.941(7) 0.646(3)
H22? H 0.612243 0.941006 0.642823
H23? H 0.542257 1.009418 0.624551
H24? H 0.548201 0.848641 0.638305
C29? C 0.329(9) 0.659(15) 0.527(7)
H55? H 0.291572 0.722416 0.521973
H56? H 0.343096 0.633829 0.561285
C30? C 0.384(4) 0.710(10) 0.505(3)
H57? H 0.368900 0.721431 0.470002
H58? H 0.419979 0.641133 0.510410
C31? C 0.410(4) 0.848(7) 0.527(3)
H59? H 0.423760 0.906202 0.502408
H60? H 0.374947 0.897300 0.538433
C32? C 0.467(4) 0.825(9) 0.568(3)
H61? H 0.482758 0.914683 0.582219
H62? H 0.453009 0.768492 0.592918
H63? H 0.501732 0.777377 0.556959
C41? C 0.057(2) 0.491(4) 0.7198(12)
H79? H 0.015066 0.532624 0.723325
H80? H 0.089011 0.565737 0.719231
C42? C 0.049(3) 0.400(5) 0.6768(14)
H81? H 0.008825 0.343468 0.672257
H82? H 0.086921 0.338342 0.678005
C43? C 0.045(2) 0.511(4) 0.6395(14)
H83? H 0.009921 0.576400 0.642665
H84? H 0.086255 0.562485 0.645202
C44? C 0.032(2) 0.454(5) 0.5904(15)
H85? H 0.025261 0.530074 0.567300
H86? H -0.007803 0.396846 0.585413
H87? H 0.068301 0.396846 0.586028
C53? C 0.550(3) 0.508(4) 0.0349(14)
H103? H 0.558363 0.581445 0.012687
H104? H 0.503130 0.501832 0.034907
C54? C 0.593(2) 0.519(3) 0.0846(10)
H105? H 0.639060 0.523326 0.082323
H106? H 0.586806 0.435971 0.103678
C55? C 0.574(2) 0.653(2) 0.1092(15)
H107? H 0.525853 0.647380 0.105903
H108? H 0.592492 0.641640 0.143721
C56? C 0.5878(15) 0.805(2) 0.0969(13)
H109? H 0.552733 0.864995 0.102601
H110? H 0.590839 0.811071 0.063238
H111? H 0.628988 0.834683 0.117282
C65? C 0.0323(13) 0.415(6) 0.2462(17)
H127? H 0.020853 0.508464 0.232950
H128? H 0.003293 0.347622 0.225894
C66? C 0.021(3) 0.408(6) 0.2963(19)
H129? H 0.050822 0.474564 0.316005
H130? H 0.033245 0.314618 0.308957
C67? C -0.047(3) 0.438(7) 0.3050(19)
H131? H -0.065366 0.518980 0.285466
H132? H -0.075582 0.357574 0.293346
C68? C -0.051(3) 0.466(6) 0.3562(18)
H133? H -0.096694 0.483057 0.357893
H134? H -0.035241 0.384885 0.375895
H135? H -0.024999 0.546705 0.367995
C85? C 0.550(3) 0.453(5) 0.7057(10)
H166? H 0.505219 0.479630 0.708385
H167? H 0.574635 0.540421 0.707948
C86? C 0.543(4) 0.407(5) 0.6537(14)
H168? H 0.504633 0.344389 0.646457
H169? H 0.581239 0.348864 0.652487
C87? C 0.535(2) 0.510(4) 0.6119(14)
H170? H 0.496501 0.568931 0.609140
H171? H 0.574543 0.568261 0.613766
C88? C 0.528(2) 0.403(5) 0.5725(14)
H172? H 0.522773 0.449861 0.541476
H173? H 0.567119 0.344664 0.577501
H174? H 0.490128 0.345325 0.572937
loop_
_geom_bond_atom_site_label_1
_geom_bond_atom_site_label_2
_geom_bond_site_symmetry_1
_geom_bond_site_symmetry_2
Te1 Cl1 1_555 1_555
Cl2 Te1 1_555 1_555
Cl3 Te1 1_555 1_555
Cl4 Te1 1_555 1_555
Cl5 Te1 1_555 1_555
Cl6 Te1 1_555 1_555
Te2 Cl7 1_555 1_555
Cl8 Te2 1_555 1_555
Cl9 Te2 1_555 1_555
Cl10 Te2 1_555 1_555
Cl11 Te2 1_555 1_555
Cl12 Te2 1_555 1_555
Te3 Cl13 1_555 1_555
Cl14 Te3 1_555 1_555
Cl15 Te3 1_555 1_555
Cl16 Te3 1_555 1_555
Cl17 Te3 1_555 1_555
Cl18 Te3 1_555 1_555
Te4 Cl19 1_555 1_555
Cl20 Te4 1_555 1_555
Cl21 Te4 1_555 1_555
Cl22 Te4 1_555 1_555
Cl23 Te4 1_555 1_555
Cl24 Te4 1_555 1_555
N1 C1 1_555 1_555
N2 C2 1_555 1_555
C1 H1 1_555 1_555
C2 C1 1_555 1_555
H2 C2 1_555 1_555
C3 N1 1_555 1_555
H3 C3 1_555 1_555
C4 N1 1_555 1_555
H4 C4 1_555 1_555
H5 C4 1_555 1_555
H6 C4 1_555 1_555
C5 N2 1_555 1_555
H7 C5 1_555 1_555
H8 C5 1_555 1_555
C6 C5 1_555 1_555
H9 C6 1_555 1_555
H10 C6 1_555 1_555
C7 C6 1_555 1_555
H11 C7 1_555 1_555
H12 C7 1_555 1_555
C8 C7 1_555 1_555
H13 C8 1_555 1_555
H14 C8 1_555 1_555
H15 C8 1_555 1_555
N3 C13 1_555 1_555
N4 C14 1_555 1_555
C13 H25 1_555 1_555
C14 C13 1_555 1_555
H26 C14 1_555 1_555
C15 N3 1_555 1_555
H27 C15 1_555 1_555
C16 N3 1_555 1_555
H28 C16 1_555 1_555
H29 C16 1_555 1_555
H30 C16 1_555 1_555
C17 N4 1_555 1_555
H31 C17 1_555 1_555
H32 C17 1_555 1_555
C18 C17 1_555 1_555
H33 C18 1_555 1_555
H34 C18 1_555 1_555
C19 C18 1_555 1_555
H35 C19 1_555 1_555
H36 C19 1_555 1_555
C20 C19 1_555 1_555
H37 C20 1_555 1_555
H38 C20 1_555 1_555
H39 C20 1_555 1_555
N5 C21 1_555 1_555
N6 C22 1_555 1_555
C21 H40 1_555 1_555
C22 C21 1_555 1_555
H41 C22 1_555 1_555
C23 N5 1_555 1_555
H42 C23 1_555 1_555
C24 N5 1_555 1_555
H43 C24 1_555 1_555
H44 C24 1_555 1_555
H45 C24 1_555 1_555
C25 N6 1_555 1_555
H46 C25 1_555 1_555
H47 C25 1_555 1_555
C26 C25 1_555 1_555
H48 C26 1_555 1_555
H49 C26 1_555 1_555
C27 C26 1_555 1_555
H50 C27 1_555 1_555
H51 C27 1_555 1_555
C28 C27 1_555 1_555
H52 C28 1_555 1_555
H53 C28 1_555 1_555
H54 C28 1_555 1_555
N7 C33 1_555 1_555
N8 C34 1_555 1_555
C33 H64 1_555 1_555
C34 C33 1_555 1_555
H65 C34 1_555 1_555
C35 N7 1_555 1_555
H66 C35 1_555 1_555
C36 N7 1_555 1_555
H67 C36 1_555 1_555
H68 C36 1_555 1_555
H69 C36 1_555 1_555
C37 N8 1_555 1_555
H70 C37 1_555 1_555
H71 C37 1_555 1_555
C38 C37 1_555 1_555
H72 C38 1_555 1_555
H73 C38 1_555 1_555
C39 C38 1_555 1_555
H74 C39 1_555 1_555
H75 C39 1_555 1_555
C40 C39 1_555 1_555
H76 C40 1_555 1_555
H77 C40 1_555 1_555
H78 C40 1_555 1_555
N9 C45 1_555 1_555
N10 C46 1_555 1_555
C45 H88 1_555 1_555
C46 C45 1_555 1_555
H89 C46 1_555 1_555
C47 N9 1_555 1_555
H90 C47 1_555 1_555
C48 N9 1_555 1_555
H91 C48 1_555 1_555
H92 C48 1_555 1_555
H93 C48 1_555 1_555
C49 N10 1_555 1_555
H94 C49 1_555 1_555
H95 C49 1_555 1_555
C50 C49 1_555 1_555
H96 C50 1_555 1_555
H97 C50 1_555 1_555
C51 C50 1_555 1_555
H98 C51 1_555 1_555
H99 C51 1_555 1_555
C52 C51 1_555 1_555
H100 C52 1_555 1_555
H101 C52 1_555 1_555
H102 C52 1_555 1_555
N11 C57 1_555 1_555
N12 C58 1_555 1_555
C57 H112 1_555 1_555
C58 C57 1_555 1_555
H113 C58 1_555 1_555
C59 N11 1_555 1_555
H114 C59 1_555 1_555
C60 N11 1_555 1_555
H115 C60 1_555 1_555
H116 C60 1_555 1_555
H117 C60 1_555 1_555
C61 N12 1_555 1_555
H118 C61 1_555 1_555
H119 C61 1_555 1_555
C62 C61 1_555 1_555
H120 C62 1_555 1_555
H121 C62 1_555 1_555
C63 C62 1_555 1_555
H122 C63 1_555 1_555
H123 C63 1_555 1_555
C64 C63 1_555 1_555
H124 C64 1_555 1_555
H125 C64 1_555 1_555
H126 C64 1_555 1_555
N13 C69 1_555 1_555
N14 C70 1_555 1_555
C69 H136 1_555 1_555
C70 C69 1_555 1_555
H137 C70 1_555 1_555
C71 N13 1_555 1_555
H138 C71 1_555 1_555
C72 N13 1_555 1_555
H139 C72 1_555 1_555
H140 C72 1_555 1_555
H141 C72 1_555 1_555
C73 N14 1_555 1_555
H142 C73 1_555 1_555
H143 C73 1_555 1_555
C74 C73 1_555 1_555
H144 C74 1_555 1_555
H145 C74 1_555 1_555
C75 C74 1_555 1_555
H146 C75 1_555 1_555
H147 C75 1_555 1_555
C76 C75 1_555 1_555
H148 C76 1_555 1_555
H149 C76 1_555 1_555
H150 C76 1_555 1_555
N15 C77 1_555 1_555
N16 C78 1_555 1_555
C77 H151 1_555 1_555
C78 C77 1_555 1_555
H152 C78 1_555 1_555
C79 N15 1_555 1_555
H153 C79 1_555 1_555
C80 N15 1_555 1_555
H154 C80 1_555 1_555
H155 C80 1_555 1_555
H156 C80 1_555 1_555
C81 N16 1_555 1_555
H157 C81 1_555 1_555
H158 C81 1_555 1_555
C82 C81 1_555 1_555
H159 C82 1_555 1_555
H160 C82 1_555 1_555
C83 C82 1_555 1_555
H161 C83 1_555 1_555
H162 C83 1_555 1_555
C84 C83 1_555 1_555
H163 C84 1_555 1_555
H164 C84 1_555 1_555
H165 C84 1_555 1_555
N2 C3 1_555 1_555
N4 C15 1_555 1_555
N6 C23 1_555 1_555
N8 C35 1_555 1_555
N10 C47 1_555 1_555
N12 C59 1_555 1_555
N14 C71 1_555 1_555
N16 C79 1_555 1_555

#END
