
#######################################################################
#
#                 Cambridge Crystallographic Data Centre
#                                CCDC 
#
#######################################################################
#
# If this CIF has been generated from an entry in the Cambridge 
# Structural Database, then it will include bibliographic, chemical, 
# crystal, experimental, refinement or atomic coordinate data resulting 
# from the CCDC's data processing and validation procedures.
#
#######################################################################

data_GIDROC
_chemical_formula_moiety         'C56 H28'
_chemical_name_systematic        Septulene
_symmetry_cell_setting           orthorhombic
_symmetry_space_group_name_H-M   'P n m a'
_symmetry_Int_Tables_number      62
_space_group_name_Hall           '-P 2ac 2n'
loop_
_symmetry_equiv_pos_site_id
_symmetry_equiv_pos_as_xyz
1 x,y,z
2 1/2+x,1/2-y,1/2-z
3 -x,1/2+y,-z
4 1/2-x,-y,1/2+z
5 -x,-y,-z
6 1/2-x,1/2+y,1/2+z
7 x,1/2-y,z
8 1/2+x,y,1/2-z
_cell_length_a                   16.056(16)
_cell_length_b                   30.14(3)
_cell_length_c                   6.675(7)
_cell_angle_alpha                90
_cell_angle_beta                 90
_cell_angle_gamma                90
_cell_volume                     3230.22
_exptl_crystal_colour            yellow
_exptl_crystal_description       block
_cell_formula_units_Z            4
loop_
_atom_site_label
_atom_site_type_symbol
_atom_site_fract_x
_atom_site_fract_y
_atom_site_fract_z
C1 C 0.2822(2) 0.67092(15) 1.3506(6)
H1 H 0.3043 0.6729 1.4823
C2 C 0.2532(2) 0.70995(14) 1.2534(6)
C3 C 0.2184(2) 0.70888(14) 1.0536(6)
C4 C 0.2082(2) 0.66479(14) 0.9592(6)
C5 C 0.1663(2) 0.65639(13) 0.7788(6)
H2 H 0.1442 0.6808 0.7062
C6 C 0.1556(2) 0.61363(13) 0.7007(6)
C7 C 0.1067(2) 0.60262(13) 0.5191(6)
C8 C 0.0720(2) 0.63342(13) 0.3839(6)
H3 H 0.0811 0.6641 0.4082
C9 C 0.0248(3) 0.62147(14) 0.2156(6)
C10 C -0.0058(2) 0.65195(14) 0.0610(6)
C11 C 0.0020(2) 0.69822(13) 0.0630(6)
H4 H 0.0255 0.7119 0.1782
C12 C -0.0232(2) 0.72564(12) -0.0980(6)
C13 C -0.0547(2) 0.70410(16) -0.2721(6)
C14 C -0.0770(2) 0.72823(12) -0.4503(6)
H5 H -0.0918 0.7126 -0.5685
C15 C -0.0652(3) 0.58580(16) -0.1213(7)
H6 H -0.0956 0.5744 -0.2320
C16 C -0.0455(2) 0.63221(15) -0.1113(6)
C17 C -0.0668(2) 0.65862(16) -0.2717(7)
H7 H -0.0907 0.6451 -0.3867
C18 C 0.0937(3) 0.55658(15) 0.4767(7)
C19 C 0.1333(3) 0.52229(15) 0.5911(7)
H8 H 0.1253 0.4921 0.5545
C20 C 0.1813(3) 0.53215(14) 0.7490(7)
H9 H 0.2089 0.5092 0.8204
C21 C 0.1910(3) 0.57750(14) 0.8099(6)
C22 C 0.2010(3) 0.7500 0.9636(8)
H10 H 0.1760 0.7500 0.8346
C23 C 0.2787(2) 0.63141(14) 1.2586(6)
H11 H 0.3017 0.6060 1.3218
C24 C 0.2405(2) 0.62723(15) 1.0656(6)
C25 C 0.2328(3) 0.58533(14) 0.9879(6)
H12 H 0.2569 0.5611 1.0579
C26 C 0.0433(3) 0.54448(14) 0.3185(6)
H13 H 0.0324 0.5139 0.2976
C27 C 0.0080(3) 0.57513(15) 0.1885(7)
C28 C -0.0407(3) 0.55875(15) 0.0257(7)
H14 H -0.0559 0.5283 0.0219
C29 C 0.2659(3) 0.7500 1.3466(8)
H15 H 0.2844 0.7500 1.4818
C1F C 0.2822(2) 0.82908(15) 1.3506(6)
H1F H 0.3043 0.8271 1.4823
C2F C 0.2532(2) 0.79005(14) 1.2534(6)
C3F C 0.2184(2) 0.79112(14) 1.0536(6)
C4F C 0.2082(2) 0.83521(14) 0.9592(6)
C5F C 0.1663(2) 0.84361(13) 0.7788(6)
H2F H 0.1442 0.8192 0.7062
C6F C 0.1556(2) 0.88637(13) 0.7007(6)
C7F C 0.1067(2) 0.89738(13) 0.5191(6)
C8F C 0.0720(2) 0.86658(13) 0.3839(6)
H3F H 0.0811 0.8359 0.4082
C9F C 0.0248(3) 0.87853(14) 0.2156(6)
C10F C -0.0058(2) 0.84805(14) 0.0610(6)
C11F C 0.0020(2) 0.80178(13) 0.0630(6)
H4F H 0.0255 0.7881 0.1782
C12F C -0.0232(2) 0.77436(12) -0.0980(6)
C13F C -0.0547(2) 0.79590(16) -0.2721(6)
C14F C -0.0770(2) 0.77177(12) -0.4503(6)
H5F H -0.0918 0.7874 -0.5685
C15F C -0.0652(3) 0.91420(16) -0.1213(7)
H6F H -0.0956 0.9256 -0.2320
C16F C -0.0455(2) 0.86779(15) -0.1113(6)
C17F C -0.0668(2) 0.84138(16) -0.2717(7)
H7F H -0.0907 0.8549 -0.3867
C18F C 0.0937(3) 0.94342(15) 0.4767(7)
C19F C 0.1333(3) 0.97771(15) 0.5911(7)
H8F H 0.1253 1.0079 0.5545
C20F C 0.1813(3) 0.96785(14) 0.7490(7)
H9F H 0.2089 0.9908 0.8204
C21F C 0.1910(3) 0.92250(14) 0.8099(6)
C23F C 0.2787(2) 0.86859(14) 1.2586(6)
H11F H 0.3017 0.8940 1.3218
C24F C 0.2405(2) 0.87277(15) 1.0656(6)
C25F C 0.2328(3) 0.91467(14) 0.9879(6)
H12F H 0.2569 0.9389 1.0579
C26F C 0.0433(3) 0.95552(14) 0.3185(6)
H13F H 0.0324 0.9861 0.2976
C27F C 0.0080(3) 0.92487(15) 0.1885(7)
C28F C -0.0407(3) 0.94125(15) 0.0257(7)
H14F H -0.0559 0.9717 0.0219
loop_
_geom_bond_atom_site_label_1
_geom_bond_atom_site_label_2
_geom_bond_site_symmetry_1
_geom_bond_site_symmetry_2
C1 H1 1_555 1_555
C2 C1 1_555 1_555
C3 C2 1_555 1_555
C4 C3 1_555 1_555
C5 C4 1_555 1_555
H2 C5 1_555 1_555
C6 C5 1_555 1_555
C7 C6 1_555 1_555
C8 C7 1_555 1_555
H3 C8 1_555 1_555
C9 C8 1_555 1_555
C10 C9 1_555 1_555
C11 C10 1_555 1_555
H4 C11 1_555 1_555
C12 C11 1_555 1_555
C13 C12 1_555 1_555
C14 C13 1_555 1_555
H5 C14 1_555 1_555
C15 H6 1_555 1_555
C16 C10 1_555 1_555
C17 C13 1_555 1_555
H7 C17 1_555 1_555
C18 C7 1_555 1_555
C19 C18 1_555 1_555
H8 C19 1_555 1_555
C20 C19 1_555 1_555
H9 C20 1_555 1_555
C21 C6 1_555 1_555
C22 C3 1_555 1_555
H10 C22 1_555 1_555
C23 C1 1_555 1_555
H11 C23 1_555 1_555
C24 C4 1_555 1_555
C25 C21 1_555 1_555
H12 C25 1_555 1_555
C26 C18 1_555 1_555
H13 C26 1_555 1_555
C27 C9 1_555 1_555
C28 C15 1_555 1_555
H14 C28 1_555 1_555
C29 C2 1_555 1_555
H15 C29 1_555 1_555
C1F H1F 1_555 1_555
C2F C29 1_555 1_555
C3F C22 1_555 1_555
C4F C3F 1_555 1_555
C5F C4F 1_555 1_555
H2F C5F 1_555 1_555
C6F C5F 1_555 1_555
C7F C6F 1_555 1_555
C8F C7F 1_555 1_555
H3F C8F 1_555 1_555
C9F C8F 1_555 1_555
C10F C9F 1_555 1_555
C11F C10F 1_555 1_555
H4F C11F 1_555 1_555
C12F C12 1_555 1_555
C13F C12F 1_555 1_555
C14F C14 1_555 1_555
H5F C14F 1_555 1_555
C15F H6F 1_555 1_555
C16F C10F 1_555 1_555
C17F C13F 1_555 1_555
H7F C17F 1_555 1_555
C18F C7F 1_555 1_555
C19F C18F 1_555 1_555
H8F C19F 1_555 1_555
C20F C19F 1_555 1_555
H9F C20F 1_555 1_555
C21F C6F 1_555 1_555
C23F C1F 1_555 1_555
H11F C23F 1_555 1_555
C24F C4F 1_555 1_555
C25F C21F 1_555 1_555
H12F C25F 1_555 1_555
C26F C18F 1_555 1_555
H13F C26F 1_555 1_555
C27F C9F 1_555 1_555
C28F C15F 1_555 1_555
H14F C28F 1_555 1_555
C15 C16 1_555 1_555
C16 C17 1_555 1_555
C20 C21 1_555 1_555
C23 C24 1_555 1_555
C24 C25 1_555 1_555
C26 C27 1_555 1_555
C27 C28 1_555 1_555
C1F C2F 1_555 1_555
C2F C3F 1_555 1_555
C11F C12F 1_555 1_555
C13F C14F 1_555 1_555
C15F C16F 1_555 1_555
C16F C17F 1_555 1_555
C20F C21F 1_555 1_555
C23F C24F 1_555 1_555
C24F C25F 1_555 1_555
C26F C27F 1_555 1_555
C27F C28F 1_555 1_555

#END
