
#######################################################################
#
#                 Cambridge Crystallographic Data Centre
#                                CCDC 
#
#######################################################################
#
# If this CIF has been generated from an entry in the Cambridge 
# Structural Database, then it will include bibliographic, chemical, 
# crystal, experimental, refinement or atomic coordinate data resulting 
# from the CCDC's data processing and validation procedures.
#
#######################################################################

data_GIFREU
_chemical_formula_moiety         'C26 H24 Cl1 N1 O4 S1'
_chemical_name_systematic        
1-(4-(4-Chlorophenyl)-1-((4-methoxyphenyl)sulfonyl)-6-phenyl-1,2,3,4-tetrahydropyridin-3-yl)ethanone
_symmetry_cell_setting           orthorhombic
_symmetry_space_group_name_H-M   'P 21 21 21'
_symmetry_Int_Tables_number      19
_space_group_name_Hall           'P 2ac 2ab'
loop_
_symmetry_equiv_pos_site_id
_symmetry_equiv_pos_as_xyz
1 x,y,z
2 1/2-x,-y,1/2+z
3 -x,1/2+y,1/2-z
4 1/2+x,1/2-y,-z
_cell_length_a                   7.9801(3)
_cell_length_b                   11.6655(4)
_cell_length_c                   24.5814(8)
_cell_angle_alpha                90
_cell_angle_beta                 90
_cell_angle_gamma                90
_cell_volume                     2288.33
_exptl_crystal_colour            colorless
_exptl_crystal_description       block
_cell_formula_units_Z            4
loop_
_atom_site_label
_atom_site_type_symbol
_atom_site_fract_x
_atom_site_fract_y
_atom_site_fract_z
C1 C 0.4865(2) 0.88340(14) 0.02413(7)
H1 H 0.3701 0.9062 0.0153
H2 H 0.5487 0.8745 -0.0105
C2 C 0.5694(2) 0.97729(14) 0.05865(7)
H3 H 0.5117 0.9796 0.0947
C3 C 0.5472(2) 1.09392(15) 0.03147(8)
C4 C 0.6513(3) 1.12123(17) -0.01787(8)
H4 H 0.5929 1.1782 -0.0402
H5 H 0.6689 1.0512 -0.0392
H6 H 0.7599 1.1521 -0.0064
C5 C 0.7537(2) 0.94356(14) 0.06825(7)
H7 H 0.8171 0.9619 0.0343
C6 C 0.8314(2) 1.01278(15) 0.11419(7)
C7 C 0.9663(2) 1.08581(14) 0.10512(7)
H8 H 1.0146 1.0900 0.0699
C8 C 1.0315(2) 1.15279(15) 0.14679(7)
H9 H 1.1237 1.2024 0.1402
C9 C 0.9604(2) 1.14619(15) 0.19807(7)
C10 C 0.8295(3) 1.07155(18) 0.20881(8)
H10 H 0.7838 1.0662 0.2444
C11 C 0.7662(3) 1.00477(19) 0.16700(8)
H11 H 0.6774 0.9528 0.1742
C12 C 0.7700(2) 0.81647(15) 0.07809(7)
H12 H 0.8773 0.7891 0.0887
C13 C 0.64772(19) 0.73857(15) 0.07333(7)
C14 C 0.6823(2) 0.61465(14) 0.08136(7)
C15 C 0.7951(2) 0.57885(17) 0.12119(8)
H13 H 0.8440 0.6335 0.1451
C16 C 0.8362(3) 0.46363(17) 0.12611(9)
H14 H 0.9135 0.4399 0.1533
C17 C 0.7661(3) 0.38350(17) 0.09191(9)
H15 H 0.7944 0.3048 0.0956
C18 C 0.6536(3) 0.41820(16) 0.05194(8)
H16 H 0.6051 0.3631 0.0282
C19 C 0.6122(2) 0.53295(15) 0.04672(7)
H17 H 0.5355 0.5562 0.0193
C20 C 0.3587(2) 0.79598(15) 0.15764(7)
C21 C 0.2969(2) 0.90280(15) 0.17351(8)
H18 H 0.2245 0.9447 0.1502
C22 C 0.3424(2) 0.94716(15) 0.22386(8)
H19 H 0.2999 1.0193 0.2353
C23 C 0.4508(2) 0.88565(15) 0.25771(7)
C24 C 0.6145(3) 0.88256(19) 0.33879(8)
H20 H 0.5650 0.8106 0.3516
H21 H 0.6406 0.9315 0.3701
H22 H 0.7176 0.8661 0.3186
C25 C 0.5048(2) 0.77680(14) 0.24273(7)
H23 H 0.5727 0.7331 0.2668
C26 C 0.4590(2) 0.73234(15) 0.19248(7)
H24 H 0.4963 0.6583 0.1819
Cl1 Cl 1.03476(6) 1.23394(4) 0.250286(19)
N1 N 0.48494(17) 0.77246(12) 0.05367(6)
O1 O 0.4455(2) 1.16127(12) 0.04938(6)
O2 O 0.18147(16) 0.80931(12) 0.06876(6)
O3 O 0.30235(17) 0.62193(10) 0.09521(6)
O4 O 0.49819(19) 0.94028(11) 0.30396(5)
S1 S 0.31704(5) 0.74416(4) 0.091905(17)
loop_
_geom_bond_atom_site_label_1
_geom_bond_atom_site_label_2
_geom_bond_site_symmetry_1
_geom_bond_site_symmetry_2
C1 H1 1_555 1_555
H2 C1 1_555 1_555
C2 C1 1_555 1_555
H3 C2 1_555 1_555
C3 C2 1_555 1_555
C4 C3 1_555 1_555
H4 C4 1_555 1_555
H5 C4 1_555 1_555
H6 C4 1_555 1_555
C5 C2 1_555 1_555
H7 C5 1_555 1_555
C6 C5 1_555 1_555
C7 C6 1_555 1_555
H8 C7 1_555 1_555
C8 C7 1_555 1_555
H9 C8 1_555 1_555
C9 C8 1_555 1_555
C10 C9 1_555 1_555
H10 C10 1_555 1_555
C11 C6 1_555 1_555
H11 C11 1_555 1_555
C12 C5 1_555 1_555
H12 C12 1_555 1_555
C13 C12 1_555 1_555
C14 C13 1_555 1_555
C15 C14 1_555 1_555
H13 C15 1_555 1_555
C16 C15 1_555 1_555
H14 C16 1_555 1_555
C17 C16 1_555 1_555
H15 C17 1_555 1_555
C18 C17 1_555 1_555
H16 C18 1_555 1_555
C19 C14 1_555 1_555
H17 C19 1_555 1_555
C20 C21 1_555 1_555
C21 H18 1_555 1_555
C22 C21 1_555 1_555
H19 C22 1_555 1_555
C23 C22 1_555 1_555
C24 H20 1_555 1_555
H21 C24 1_555 1_555
H22 C24 1_555 1_555
C25 C23 1_555 1_555
H23 C25 1_555 1_555
C26 C20 1_555 1_555
H24 C26 1_555 1_555
Cl1 C9 1_555 1_555
N1 C1 1_555 1_555
O1 C3 1_555 1_555
O2 S1 1_555 1_555
O3 S1 1_555 1_555
O4 C23 1_555 1_555
S1 C20 1_555 1_555
C10 C11 1_555 1_555
C13 N1 1_555 1_555
C18 C19 1_555 1_555
C24 O4 1_555 1_555
C25 C26 1_555 1_555
N1 S1 1_555 1_555

#END
