
#######################################################################
#
#                 Cambridge Crystallographic Data Centre
#                                CCDC 
#
#######################################################################
#
# If this CIF has been generated from an entry in the Cambridge 
# Structural Database, then it will include bibliographic, chemical, 
# crystal, experimental, refinement or atomic coordinate data resulting 
# from the CCDC's data processing and validation procedures.
#
#######################################################################

data_GIFRES
_chemical_compound_source        
'Aerial parts of Scutellaria rivularis Wall. (Labiatae)'
_chemical_formula_moiety         'C29 H36 O8,H2 O1'
_chemical_name_systematic        'Scutellone D 3-O-acetate monohydrate'
_symmetry_cell_setting           monoclinic
_symmetry_space_group_name_H-M   'I 2'
_symmetry_Int_Tables_number      5
_space_group_name_Hall           'I 2y'
loop_
_symmetry_equiv_pos_site_id
_symmetry_equiv_pos_as_xyz
1 x,y,z
2 1/2+x,1/2+y,1/2+z
3 -x,y,-z
4 1/2-x,1/2+y,1/2-z
_cell_length_a                   17.147(2)
_cell_length_b                   9.079(3)
_cell_length_c                   18.099(2)
_cell_angle_alpha                90
_cell_angle_beta                 102.07(1)
_cell_angle_gamma                90
_cell_volume                     2755.32
_chemical_melting_point          244-246deg.C
_cell_formula_units_Z            4
loop_
_atom_site_label
_atom_site_type_symbol
_atom_site_fract_x
_atom_site_fract_y
_atom_site_fract_z
C1 C 0.18749 0.62416 0.47121
C2 C 0.23012 0.50577 0.52730
C3 C 0.26476 0.56697 0.60705
C4 C 0.31599 0.70495 0.60794
C5 C 0.27497 0.81678 0.55209
C6 C 0.25060 0.75020 0.47275
C7 C 0.23477 0.86977 0.41011
C8 C 0.21050 0.79655 0.33046
C9 C 0.14371 0.68235 0.33028
C10 C 0.16931 0.56600 0.39026
O1 O 0.10318 0.45990 0.38195
C11 C 0.09407 0.35949 0.32650
C12 C 0.03072 0.25047 0.33033
C13 C 0.00880 0.15526 0.26877
C14 C -0.04571 0.04872 0.27281
C15 C -0.07779 0.03020 0.33568
C16 C -0.05670 0.12132 0.39468
C17 C -0.00259 0.23259 0.39248
C18 C 0.31342 0.94519 0.41133
C19 C 0.33334 1.08647 0.41413
C20 C 0.41129 1.13532 0.40784
C21 C 0.43740 1.27226 0.41176
C22 C 0.51356 1.27618 0.40105
O2 O 0.53910 1.14006 0.39150
C23 C 0.47440 1.03833 0.39491
O3 O 0.55993 1.38326 0.40147
O4 O 0.20054 0.60293 0.64557
C24 C 0.19428 0.53507 0.70966
O5 O 0.24296 0.43899 0.73685
C25 C 0.12902 0.57994 0.74051
C26 C 0.17247 0.98403 0.42230
C27 C 0.10969 0.67881 0.49324
O6 O 0.29613 0.45037 0.49874
C28 C 0.17928 0.37165 0.53870
O7 O 0.27688 0.70937 0.31677
C29 C 0.18537 0.90418 0.26421
O8 O 0.13457 0.35939 0.28035
O9 O 0.00000 0.17717 0.00000
loop_
_geom_bond_atom_site_label_1
_geom_bond_atom_site_label_2
_geom_bond_site_symmetry_1
_geom_bond_site_symmetry_2
C1 C2 1_555 1_555
C2 C3 1_555 1_555
C3 C4 1_555 1_555
C4 C5 1_555 1_555
C5 C6 1_555 1_555
C6 C1 1_555 1_555
C7 C6 1_555 1_555
C8 C7 1_555 1_555
C9 C8 1_555 1_555
C10 C1 1_555 1_555
O1 C10 1_555 1_555
C11 O1 1_555 1_555
C12 C11 1_555 1_555
C13 C12 1_555 1_555
C14 C13 1_555 1_555
C15 C14 1_555 1_555
C16 C15 1_555 1_555
C17 C12 1_555 1_555
C18 C7 1_555 1_555
C19 C18 1_555 1_555
C20 C19 1_555 1_555
C21 C20 1_555 1_555
C22 C21 1_555 1_555
O2 C22 1_555 1_555
C23 C20 1_555 1_555
O3 C22 1_555 1_555
O4 C3 1_555 1_555
C24 O4 1_555 1_555
O5 C24 1_555 1_555
C25 C24 1_555 1_555
C26 C7 1_555 1_555
C27 C1 1_555 1_555
O6 C2 1_555 1_555
C28 C2 1_555 1_555
O7 C8 1_555 1_555
C29 C8 1_555 1_555
O8 C11 1_555 1_555
C9 C10 1_555 1_555
C16 C17 1_555 1_555
O2 C23 1_555 1_555

#END
