
#######################################################################
#
#                 Cambridge Crystallographic Data Centre
#                                CCDC 
#
#######################################################################
#
# If this CIF has been generated from an entry in the Cambridge 
# Structural Database, then it will include bibliographic, chemical, 
# crystal, experimental, refinement or atomic coordinate data resulting 
# from the CCDC's data processing and validation procedures.
#
#######################################################################

data_GIFSIY
_chemical_formula_moiety         'C8 H19 B1 N3 1+,C24 H20 B1 1-'
_chemical_name_systematic        
'dihydrido(1-methyl-1H-imidazole-N^3^)(t-butylamine)boron tetraphenylborate'
_symmetry_cell_setting           monoclinic
_symmetry_space_group_name_H-M   'P 21'
_symmetry_Int_Tables_number      4
_space_group_name_Hall           'P 2yb'
loop_
_symmetry_equiv_pos_site_id
_symmetry_equiv_pos_as_xyz
1 x,y,z
2 -x,1/2+y,-z
_cell_length_a                   9.2418(11)
_cell_length_b                   15.2007(10)
_cell_length_c                   10.3700(9)
_cell_angle_alpha                90
_cell_angle_beta                 92.475(8)
_cell_angle_gamma                90
_cell_volume                     1455.44
_exptl_crystal_colour            colorless
_exptl_crystal_description       prism
_cell_formula_units_Z            2
loop_
_atom_site_label
_atom_site_type_symbol
_atom_site_fract_x
_atom_site_fract_y
_atom_site_fract_z
B1 B 0.0509(4) 0.4039(2) 0.0763(3)
H1 H -0.059(4) 0.433(3) 0.035(3)
H2 H 0.149(4) 0.430(3) 0.030(3)
N1 N 0.0634(2) 0.42341(14) 0.2238(2)
N2 N 0.0432(3) 0.29887(17) 0.0608(2)
H3 H 0.001(4) 0.275(3) 0.132(4)
H4 H 0.135(5) 0.280(3) 0.070(4)
N3 N 0.1536(2) 0.43882(14) 0.4187(2)
C1 C -0.0181(3) 0.2621(2) -0.0659(3)
C2 C 0.1786(3) 0.41186(17) 0.3014(2)
H5 H 0.269(3) 0.391(2) 0.276(3)
C3 C 0.2530(3) 0.4344(2) 0.5319(3)
H6 H 0.3432 0.4092 0.5079
H7 H 0.2114 0.3985 0.5969
H8 H 0.2697 0.4926 0.5653
C4 C 0.0149(3) 0.4712(2) 0.4168(3)
H9 H -0.017(4) 0.493(3) 0.496(4)
C5 C -0.0397(3) 0.4611(2) 0.2965(3)
H10 H -0.134(4) 0.481(3) 0.252(3)
C6 C 0.0198(5) 0.1658(3) -0.0710(4)
H11 H 0.1230 0.1593 -0.0737
H12 H -0.0255 0.1399 -0.1469
H13 H -0.0138 0.1368 0.0043
C7 C -0.1802(4) 0.2718(4) -0.0635(5)
H14 H -0.2239 0.2491 -0.1423
H15 H -0.2045 0.3329 -0.0551
H16 H -0.2154 0.2397 0.0083
C8 C 0.0467(6) 0.3105(4) -0.1762(3)
H17 H 0.1497 0.3021 -0.1728
H18 H 0.0254 0.3721 -0.1697
H19 H 0.0062 0.2881 -0.2565
B2 B 0.3478(3) 0.12693(17) 0.3796(2)
C9 C 0.1704(2) 0.13870(15) 0.3633(2)
C10 C 0.0832(3) 0.0884(2) 0.2782(3)
H20 H 0.128(3) 0.039(2) 0.229(3)
C11 C -0.0647(3) 0.1045(3) 0.2566(3)
H21 H -0.121(3) 0.068(2) 0.185(3)
C12 C -0.1310(3) 0.1711(3) 0.3191(4)
H22 H -0.238(4) 0.177(3) 0.296(3)
C13 C -0.0494(4) 0.2220(3) 0.4039(4)
H23 H -0.087(4) 0.266(3) 0.450(3)
C14 C 0.0991(3) 0.20626(19) 0.4263(3)
H24 H 0.147(3) 0.243(2) 0.494(3)
C15 C 0.3977(2) 0.03129(15) 0.3229(2)
C16 C 0.5024(3) 0.01899(17) 0.2322(2)
H25 H 0.551(3) 0.068(2) 0.189(3)
C17 C 0.5456(3) -0.0656(2) 0.1945(3)
H26 H 0.618(3) -0.066(2) 0.127(3)
C18 C 0.4865(4) -0.13867(18) 0.2466(3)
H27 H 0.519(3) -0.199(2) 0.216(3)
C19 C 0.3818(3) -0.12886(18) 0.3359(3)
H28 H 0.349(4) -0.181(2) 0.374(3)
C20 C 0.3402(3) -0.04596(16) 0.3726(2)
H29 H 0.271(3) -0.0407(19) 0.438(3)
C21 C 0.4144(2) 0.20905(15) 0.2988(2)
C22 C 0.3922(3) 0.21344(18) 0.1643(2)
H30 H 0.350(3) 0.164(2) 0.119(3)
C23 C 0.4443(3) 0.2825(2) 0.0922(3)
H31 H 0.428(4) 0.278(3) 0.003(4)
C24 C 0.5202(3) 0.3505(2) 0.1508(3)
H32 H 0.544(3) 0.398(2) 0.101(3)
C25 C 0.5419(3) 0.34953(19) 0.2821(3)
H33 H 0.591(4) 0.398(3) 0.325(3)
C26 C 0.4895(2) 0.27986(16) 0.3543(3)
H34 H 0.508(3) 0.2816(19) 0.444(3)
C27 C 0.4087(2) 0.12528(14) 0.5315(2)
C28 C 0.3259(3) 0.11428(18) 0.6384(2)
H35 H 0.221(3) 0.115(2) 0.626(3)
C29 C 0.3874(4) 0.1027(2) 0.7628(3)
H36 H 0.327(3) 0.094(2) 0.837(3)
C30 C 0.5333(4) 0.1019(2) 0.7846(3)
H37 H 0.575(3) 0.093(2) 0.871(3)
C31 C 0.6204(3) 0.11360(19) 0.6816(3)
H38 H 0.731(3) 0.114(2) 0.694(3)
C32 C 0.5591(3) 0.12456(17) 0.5583(2)
H39 H 0.624(3) 0.1281(19) 0.492(3)
loop_
_geom_bond_atom_site_label_1
_geom_bond_atom_site_label_2
_geom_bond_site_symmetry_1
_geom_bond_site_symmetry_2
B1 H1 1_555 1_555
H2 B1 1_555 1_555
B2 C9 1_555 1_555
N1 B1 1_555 1_555
N2 B1 1_555 1_555
H3 N2 1_555 1_555
H4 N2 1_555 1_555
N3 C2 1_555 1_555
C1 N2 1_555 1_555
C2 N1 1_555 1_555
H5 C2 1_555 1_555
C3 N3 1_555 1_555
H6 C3 1_555 1_555
H7 C3 1_555 1_555
H8 C3 1_555 1_555
C4 N3 1_555 1_555
H9 C4 1_555 1_555
C5 N1 1_555 1_555
H10 C5 1_555 1_555
C6 C1 1_555 1_555
H11 C6 1_555 1_555
H12 C6 1_555 1_555
H13 C6 1_555 1_555
C7 C1 1_555 1_555
H14 C7 1_555 1_555
H15 C7 1_555 1_555
H16 C7 1_555 1_555
C8 C1 1_555 1_555
H17 C8 1_555 1_555
H18 C8 1_555 1_555
H19 C8 1_555 1_555
C9 C10 1_555 1_555
C10 H20 1_555 1_555
C11 C10 1_555 1_555
H21 C11 1_555 1_555
C12 C11 1_555 1_555
H22 C12 1_555 1_555
C13 C12 1_555 1_555
H23 C13 1_555 1_555
C14 C9 1_555 1_555
H24 C14 1_555 1_555
C15 B2 1_555 1_555
C16 C15 1_555 1_555
H25 C16 1_555 1_555
C17 C16 1_555 1_555
H26 C17 1_555 1_555
C18 C17 1_555 1_555
H27 C18 1_555 1_555
C19 C18 1_555 1_555
H28 C19 1_555 1_555
C20 C15 1_555 1_555
H29 C20 1_555 1_555
C21 B2 1_555 1_555
C22 C21 1_555 1_555
H30 C22 1_555 1_555
C23 C22 1_555 1_555
H31 C23 1_555 1_555
C24 C23 1_555 1_555
H32 C24 1_555 1_555
C25 C24 1_555 1_555
H33 C25 1_555 1_555
C26 C21 1_555 1_555
H34 C26 1_555 1_555
C27 B2 1_555 1_555
C28 C27 1_555 1_555
H35 C28 1_555 1_555
C29 C28 1_555 1_555
H36 C29 1_555 1_555
C30 C29 1_555 1_555
H37 C30 1_555 1_555
C31 C30 1_555 1_555
H38 C31 1_555 1_555
C32 C27 1_555 1_555
H39 C32 1_555 1_555
C4 C5 1_555 1_555
C13 C14 1_555 1_555
C19 C20 1_555 1_555
C25 C26 1_555 1_555
C31 C32 1_555 1_555

#END
