
#######################################################################
#
#                 Cambridge Crystallographic Data Centre
#                                CCDC 
#
#######################################################################
#
# If this CIF has been generated from an entry in the Cambridge 
# Structural Database, then it will include bibliographic, chemical, 
# crystal, experimental, refinement or atomic coordinate data resulting 
# from the CCDC's data processing and validation procedures.
#
#######################################################################

data_GIFWUO
_chemical_formula_moiety         'C41 H33 P2 1+,Cl1 1-'
_chemical_name_systematic        
'1,3-bis(Triphenylphosphonio)cyclopentadienide chloride'
_symmetry_cell_setting           triclinic
_symmetry_space_group_name_H-M   'P -1'
_symmetry_Int_Tables_number      2
_space_group_name_Hall           '-P 1'
loop_
_symmetry_equiv_pos_site_id
_symmetry_equiv_pos_as_xyz
1 x,y,z
2 -x,-y,-z
_cell_length_a                   9.4106(17)
_cell_length_b                   10.611(2)
_cell_length_c                   16.299(3)
_cell_angle_alpha                102.528(3)
_cell_angle_beta                 101.903(3)
_cell_angle_gamma                95.411(3)
_cell_volume                     1538.08
_exptl_crystal_colour            yellow
_exptl_crystal_description       block
_cell_formula_units_Z            2
loop_
_atom_site_label
_atom_site_type_symbol
_atom_site_fract_x
_atom_site_fract_y
_atom_site_fract_z
P1 P 0.54114(7) 0.89759(6) 0.31430(4)
P2 P 0.33450(7) 0.68612(6) -0.03946(4)
C1 C 0.2274(3) 0.5355(2) -0.04430(16)
C2 C 0.4042(3) 0.8011(3) 0.13942(16)
H1 H 0.3077 0.8072 0.1456
C3 C 0.2254(3) 0.5019(2) 0.03267(17)
H2 H 0.2871 0.5530 0.0844
C4 C 0.2113(3) 0.7963(2) -0.06970(16)
C5 C 0.3653(3) 0.9348(3) 0.32925(15)
C6 C 0.4451(3) 0.6650(3) -0.11719(15)
C7 C 0.5184(3) 0.7765(3) -0.12869(17)
H3 H 0.5070 0.8590 -0.0974
C8 C 0.5987(3) 0.7827(3) 0.37555(16)
C9 C 0.4465(3) 0.7533(2) 0.06244(16)
C10 C 0.0981(3) 0.7559(3) -0.14267(17)
H4 H 0.0807 0.6687 -0.1749
C11 C 0.5309(3) 0.8380(3) 0.20483(16)
C12 C 0.6707(3) 1.0434(2) 0.35560(16)
C13 C 0.3424(3) 1.0627(3) 0.35278(17)
H5 H 0.4202 1.1306 0.3625
C14 C 0.6002(3) 0.7610(3) 0.08201(17)
H6 H 0.6576 0.7347 0.0423
C15 C 0.2346(3) 0.9239(3) -0.02252(19)
H7 H 0.3114 0.9518 0.0274
C16 C 0.1387(3) 0.4586(3) -0.12066(17)
H8 H 0.1412 0.4792 -0.1737
C17 C 0.2506(3) 0.8354(3) 0.31527(17)
H9 H 0.2650 0.7478 0.2990
C18 C 0.7339(3) 1.0857(3) 0.44310(18)
H10 H 0.7161 1.0337 0.4809
C19 C 0.0445(3) 0.3205(3) -0.0410(2)
H11 H -0.0194 0.2475 -0.0399
C20 C 0.6073(3) 0.7673(3) -0.18533(19)
H12 H 0.6585 0.8434 -0.1922
C21 C 0.6227(3) 0.6473(3) -0.23254(19)
H13 H 0.6838 0.6409 -0.2717
C22 C 0.4600(3) 0.5445(3) -0.16419(17)
H14 H 0.4104 0.4681 -0.1569
C23 C 0.2061(3) 1.0913(3) 0.36211(19)
H15 H 0.1907 1.1787 0.3779
C24 C 0.6515(3) 0.8130(3) 0.16834(17)
H16 H 0.7506 0.8295 0.1984
C25 C 0.5235(3) 0.7458(3) 0.43238(18)
H17 H 0.4386 0.7819 0.4408
C26 C 0.7006(3) 1.1195(3) 0.30090(18)
H18 H 0.6594 1.0909 0.2412
C27 C 0.5483(3) 0.5374(3) -0.22194(19)
H19 H 0.5577 0.4554 -0.2548
C28 C 0.0470(3) 0.3516(3) -0.1179(2)
H20 H -0.0146 0.2993 -0.1693
C29 C 0.0114(3) 0.8434(3) -0.1679(2)
H21 H -0.0653 0.8162 -0.2178
C30 C 0.0351(4) 0.9699(3) -0.1212(2)
H22 H -0.0250 1.0295 -0.1391
C31 C 0.1338(3) 0.3942(3) 0.0340(2)
H23 H 0.1328 0.3714 0.0865
C32 C 0.8509(4) 1.2786(3) 0.4197(2)
H24 H 0.9124 1.3593 0.4416
C33 C 0.1151(3) 0.8656(3) 0.32543(18)
H25 H 0.0371 0.7982 0.3165
C34 C 0.7233(3) 0.7277(3) 0.3646(2)
H26 H 0.7758 0.7521 0.3260
C35 C 0.8227(4) 1.2040(3) 0.47454(19)
H27 H 0.8643 1.2338 0.5341
C36 C 0.0933(3) 0.9925(4) 0.34839(19)
H28 H 0.0002 1.0120 0.3548
C37 C 0.1461(4) 1.0101(3) -0.0483(2)
H29 H 0.1617 1.0971 -0.0159
C38 C 0.6969(4) 0.6029(3) 0.4658(2)
H30 H 0.7305 0.5426 0.4971
C39 C 0.7906(4) 1.2370(3) 0.3337(2)
H31 H 0.8106 1.2889 0.2963
C40 C 0.7712(4) 0.6385(3) 0.4090(2)
H32 H 0.8555 0.6016 0.4003
C41 C 0.5727(4) 0.6558(3) 0.4770(2)
H33 H 0.5205 0.6303 0.5155
Cl1 Cl 0.08591(10) 0.51254(9) 0.32546(6)
loop_
_geom_bond_atom_site_label_1
_geom_bond_atom_site_label_2
_geom_bond_site_symmetry_1
_geom_bond_site_symmetry_2
P1 C5 1_555 1_555
P2 C1 1_555 1_555
C1 C3 1_555 1_555
C2 H1 1_555 1_555
C3 H2 1_555 1_555
C4 P2 1_555 1_555
C5 C13 1_555 1_555
C6 P2 1_555 1_555
C7 C6 1_555 1_555
H3 C7 1_555 1_555
C8 P1 1_555 1_555
C9 P2 1_555 1_555
C10 C4 1_555 1_555
H4 C10 1_555 1_555
C11 P1 1_555 1_555
C12 P1 1_555 1_555
C13 H5 1_555 1_555
C14 C9 1_555 1_555
H6 C14 1_555 1_555
C15 C4 1_555 1_555
H7 C15 1_555 1_555
C16 C1 1_555 1_555
H8 C16 1_555 1_555
C17 C5 1_555 1_555
H9 C17 1_555 1_555
C18 C12 1_555 1_555
H10 C18 1_555 1_555
C19 H11 1_555 1_555
C20 C7 1_555 1_555
H12 C20 1_555 1_555
C21 C20 1_555 1_555
H13 C21 1_555 1_555
C22 C6 1_555 1_555
H14 C22 1_555 1_555
C23 C13 1_555 1_555
H15 C23 1_555 1_555
C24 C11 1_555 1_555
H16 C24 1_555 1_555
C25 C8 1_555 1_555
H17 C25 1_555 1_555
C26 C12 1_555 1_555
H18 C26 1_555 1_555
C27 C21 1_555 1_555
H19 C27 1_555 1_555
C28 C16 1_555 1_555
H20 C28 1_555 1_555
C29 C10 1_555 1_555
H21 C29 1_555 1_555
C30 C29 1_555 1_555
H22 C30 1_555 1_555
C31 C3 1_555 1_555
H23 C31 1_555 1_555
C32 H24 1_555 1_555
C33 C17 1_555 1_555
H25 C33 1_555 1_555
C34 C8 1_555 1_555
H26 C34 1_555 1_555
C35 C18 1_555 1_555
H27 C35 1_555 1_555
C36 C23 1_555 1_555
H28 C36 1_555 1_555
C37 C15 1_555 1_555
H29 C37 1_555 1_555
C38 H30 1_555 1_555
C39 C26 1_555 1_555
H31 C39 1_555 1_555
C40 C34 1_555 1_555
H32 C40 1_555 1_555
C41 C25 1_555 1_555
H33 C41 1_555 1_555
C2 C9 1_555 1_555
C2 C11 1_555 1_555
C14 C24 1_555 1_555
C19 C28 1_555 1_555
C19 C31 1_555 1_555
C22 C27 1_555 1_555
C30 C37 1_555 1_555
C32 C35 1_555 1_555
C32 C39 1_555 1_555
C33 C36 1_555 1_555
C38 C40 1_555 1_555
C38 C41 1_555 1_555

#END
