
#######################################################################
#
#                 Cambridge Crystallographic Data Centre
#                                CCDC 
#
#######################################################################
#
# If this CIF has been generated from an entry in the Cambridge 
# Structural Database, then it will include bibliographic, chemical, 
# crystal, experimental, refinement or atomic coordinate data resulting 
# from the CCDC's data processing and validation procedures.
#
#######################################################################

data_GIFWOK
_chemical_formula_moiety         'C22 H17 Cl1 O2 S2'
_chemical_name_systematic        
6-chloro-2,2-bis[(4-methylphenyl)sulfanyl]-1-benzofuran-3(2H)-one
_symmetry_cell_setting           monoclinic
_symmetry_space_group_name_H-M   'P 21/c'
_symmetry_Int_Tables_number      14
_space_group_name_Hall           '-P 2ybc'
loop_
_symmetry_equiv_pos_site_id
_symmetry_equiv_pos_as_xyz
1 x,y,z
2 -x,1/2+y,1/2-z
3 -x,-y,-z
4 x,1/2-y,1/2+z
_cell_length_a                   9.415(3)
_cell_length_b                   18.190(6)
_cell_length_c                   12.417(4)
_cell_angle_alpha                90
_cell_angle_beta                 110.203(5)
_cell_angle_gamma                90
_cell_volume                     1995.69
_exptl_crystal_colour            colorless
_exptl_crystal_description       block
_cell_formula_units_Z            4
loop_
_atom_site_label
_atom_site_type_symbol
_atom_site_fract_x
_atom_site_fract_y
_atom_site_fract_z
Cl1 Cl 0.09465(14) 0.11106(7) 0.61001(13)
S1 S 0.81049(12) 0.24772(6) 0.62216(11)
S2 S 0.75420(12) 0.37908(6) 0.74772(11)
O1 O 0.5993(3) 0.25049(15) 0.7119(2)
O2 O 0.5411(3) 0.37047(17) 0.4724(3)
C1 C 0.2197(5) 0.1735(2) 0.5839(4)
C2 C 0.3607(4) 0.1835(2) 0.6670(4)
H1 H 0.3914 0.1585 0.7367
C3 C 0.4536(4) 0.2343(2) 0.6381(4)
C4 C 0.6653(4) 0.3037(2) 0.6536(4)
C5 C 0.9094(4) 0.3130(2) 0.5663(4)
C6 C 0.8619(5) 0.3288(2) 0.4500(4)
H2 H 0.7739 0.3075 0.4002
C7 C 0.9456(5) 0.3764(3) 0.4075(4)
H3 H 0.9114 0.3871 0.3294
C8 C 1.0794(5) 0.4082(2) 0.4792(5)
C9 C 1.1273(5) 0.3907(3) 0.5945(5)
H4 H 1.2164 0.4112 0.6439
C10 C 1.0448(5) 0.3427(2) 0.6386(4)
H5 H 1.0804 0.3308 0.7162
C11 C 1.1717(5) 0.4598(3) 0.4327(4)
H6 H 1.2710 0.4397 0.4482
H7 H 1.1797 0.5069 0.4692
H8 H 1.1226 0.4653 0.3514
C12 C 0.5991(4) 0.4155(2) 0.7812(4)
C13 C 0.5500(5) 0.3829(2) 0.8628(4)
H9 H 0.5949 0.3392 0.8967
C14 C 0.4372(5) 0.4130(2) 0.8952(4)
H10 H 0.4045 0.3883 0.9480
C15 C 0.3701(5) 0.4806(3) 0.8497(4)
C16 C 0.4207(5) 0.5142(2) 0.7699(4)
H11 H 0.3778 0.5588 0.7382
C17 C 0.5336(5) 0.4837(2) 0.7354(4)
H12 H 0.5659 0.5081 0.6822
C18 C 0.2416(5) 0.5122(3) 0.8829(4)
H13 H 0.1468 0.4943 0.8310
H14 H 0.2435 0.5649 0.8790
H15 H 0.2535 0.4973 0.9597
C19 C 0.5343(5) 0.3233(2) 0.5398(4)
C20 C 0.4109(5) 0.2727(2) 0.5358(4)
C21 C 0.2670(5) 0.2612(2) 0.4535(4)
H16 H 0.2359 0.2868 0.3843
C22 C 0.1716(5) 0.2100(3) 0.4787(4)
H17 H 0.0762 0.2003 0.4253
loop_
_geom_bond_atom_site_label_1
_geom_bond_atom_site_label_2
_geom_bond_site_symmetry_1
_geom_bond_site_symmetry_2
Cl1 C1 1_555 1_555
S1 C4 1_555 1_555
S2 C4 1_555 1_555
O1 C3 1_555 1_555
O2 C19 1_555 1_555
C1 C2 1_555 1_555
C2 H1 1_555 1_555
C3 C2 1_555 1_555
C4 O1 1_555 1_555
C5 S1 1_555 1_555
C6 C5 1_555 1_555
H2 C6 1_555 1_555
C7 C6 1_555 1_555
H3 C7 1_555 1_555
C8 C7 1_555 1_555
C9 C8 1_555 1_555
H4 C9 1_555 1_555
C10 C5 1_555 1_555
H5 C10 1_555 1_555
C11 C8 1_555 1_555
H6 C11 1_555 1_555
H7 C11 1_555 1_555
H8 C11 1_555 1_555
C12 S2 1_555 1_555
C13 C12 1_555 1_555
H9 C13 1_555 1_555
C14 C13 1_555 1_555
H10 C14 1_555 1_555
C15 C14 1_555 1_555
C16 C15 1_555 1_555
H11 C16 1_555 1_555
C17 C12 1_555 1_555
H12 C17 1_555 1_555
C18 C15 1_555 1_555
H13 C18 1_555 1_555
H14 C18 1_555 1_555
H15 C18 1_555 1_555
C19 C4 1_555 1_555
C20 C3 1_555 1_555
C21 C20 1_555 1_555
H16 C21 1_555 1_555
C22 C1 1_555 1_555
H17 C22 1_555 1_555
C9 C10 1_555 1_555
C16 C17 1_555 1_555
C19 C20 1_555 1_555
C21 C22 1_555 1_555

#END
