
#######################################################################
#
#                 Cambridge Crystallographic Data Centre
#                                CCDC 
#
#######################################################################
#
# If this CIF has been generated from an entry in the Cambridge 
# Structural Database, then it will include bibliographic, chemical, 
# crystal, experimental, refinement or atomic coordinate data resulting 
# from the CCDC's data processing and validation procedures.
#
#######################################################################

data_GIFXUQ
_chemical_formula_moiety         'C33 H31 Cl2 N3 O4 S1'
_chemical_name_systematic        
'Ethyl 3,5-bis(4-chloro-1-methyl-1H-indol-3-yl)-1-((4-methylphenyl)sulfonyl)-1,2,3,6-tetrahydropyridine-4-carboxylate'
_symmetry_cell_setting           triclinic
_symmetry_space_group_name_H-M   'P -1'
_symmetry_Int_Tables_number      2
_space_group_name_Hall           '-P 1'
loop_
_symmetry_equiv_pos_site_id
_symmetry_equiv_pos_as_xyz
1 x,y,z
2 -x,-y,-z
_cell_length_a                   11.3628(14)
_cell_length_b                   11.4342(14)
_cell_length_c                   12.5961(14)
_cell_angle_alpha                90.118(3)
_cell_angle_beta                 93.342(3)
_cell_angle_gamma                108.150(2)
_cell_volume                     1552.12
_exptl_crystal_colour            colorless
_exptl_crystal_description       prismatic
_chemical_melting_point          '137-138 deg.C'
_cell_formula_units_Z            2
loop_
_atom_site_label
_atom_site_type_symbol
_atom_site_fract_x
_atom_site_fract_y
_atom_site_fract_z
S1 S 0.44696(7) 0.48872(7) 0.21609(5)
Cl1 Cl 0.62631(10) 0.13341(7) 0.26139(6)
Cl2 Cl 0.94535(10) 0.86257(8) 0.27544(10)
N1 N 0.58092(19) 0.48544(19) 0.18135(17)
N2 N 0.7078(2) 0.1642(2) -0.12045(18)
N3 N 0.8297(2) 0.4784(3) 0.48194(18)
O1 O 1.0252(2) 0.5263(2) 0.1499(2)
O2 O 0.93367(17) 0.32776(19) 0.12099(17)
O3 O 0.35654(18) 0.45236(19) 0.12879(15)
O4 O 0.4659(2) 0.60466(19) 0.26813(17)
C1 C 0.8064(2) 0.4521(2) 0.14417(18)
C2 C 0.8044(2) 0.5674(2) 0.2018(2)
H1 H 0.8732 0.6354 0.1774
C3 C 0.6856(3) 0.5965(2) 0.1708(2)
H2 H 0.6781 0.6616 0.2169
H3 H 0.6869 0.6242 0.0980
C4 C 0.5786(2) 0.3854(2) 0.10852(19)
H4 H 0.5468 0.4010 0.0387
H5 H 0.5225 0.3091 0.1331
C5 C 0.7040(2) 0.3708(2) 0.09958(17)
C6 C 0.6995(2) 0.2659(2) 0.02933(19)
C7 C 0.7189(3) 0.2765(2) -0.0758(2)
H6 H 0.7373 0.3499 -0.1124
C8 C 0.6812(2) 0.0781(2) -0.0436(2)
C9 C 0.6736(2) 0.1381(2) 0.0522(2)
C10 C 0.6454(3) 0.0660(2) 0.1425(2)
C11 C 0.6293(3) -0.0576(3) 0.1360(3)
H7 H 0.6114 -0.1053 0.1963
C12 C 0.6394(3) -0.1121(3) 0.0400(3)
H8 H 0.6291 -0.1961 0.0375
C13 C 0.6639(3) -0.0473(3) -0.0502(3)
H9 H 0.6689 -0.0855 -0.1143
C14 C 0.7170(4) 0.1411(4) -0.2327(3)
H10 H 0.7587 0.0805 -0.2402
H11 H 0.7631 0.2161 -0.2649
H12 H 0.6353 0.1113 -0.2671
C15 C 0.8270(2) 0.5593(2) 0.3203(2)
C16 C 0.7938(3) 0.4544(3) 0.3766(2)
H13 H 0.7522 0.3766 0.3476
C17 C 0.8900(3) 0.6010(3) 0.4952(2)
C18 C 0.8887(3) 0.6559(3) 0.3950(2)
C19 C 0.9479(3) 0.7827(3) 0.3920(3)
C20 C 1.0074(4) 0.8462(4) 0.4822(5)
H14 H 1.0476 0.9303 0.4788
C21 C 1.0089(4) 0.7883(5) 0.5781(5)
H15 H 1.0516 0.8337 0.6376
C22 C 0.9496(4) 0.6672(5) 0.5869(3)
H16 H 0.9484 0.6288 0.6520
C23 C 0.8076(4) 0.3877(4) 0.5649(3)
H17 H 0.8818 0.4013 0.6101
H18 H 0.7844 0.3066 0.5333
H19 H 0.7418 0.3951 0.6063
C24 C 0.9323(2) 0.4409(3) 0.1380(2)
C25 C 1.0499(3) 0.3107(4) 0.0967(3)
H20 H 1.1067 0.3285 0.1594
H21 H 1.0874 0.3664 0.0413
C26 C 1.0266(4) 0.1846(5) 0.0613(5)
H22 H 0.9921 0.1301 0.1173
H23 H 1.1030 0.1729 0.0431
H24 H 0.9691 0.1672 0.0000
C27 C 0.4097(3) 0.3704(3) 0.3097(2)
C28 C 0.3134(3) 0.2646(3) 0.2880(2)
H25 H 0.2656 0.2549 0.2242
C29 C 0.2879(3) 0.1725(3) 0.3618(3)
H26 H 0.2226 0.1006 0.3472
C30 C 0.3573(3) 0.1851(3) 0.4566(3)
C31 C 0.4533(4) 0.2924(4) 0.4767(2)
H27 H 0.5007 0.3024 0.5408
C32 C 0.4807(3) 0.3852(3) 0.4040(2)
H28 H 0.5463 0.4570 0.4184
C33 C 0.3311(5) 0.0839(4) 0.5371(3)
H29 H 0.2756 0.0973 0.5870
H30 H 0.4075 0.0843 0.5743
H31 H 0.2938 0.0058 0.5013
loop_
_geom_bond_atom_site_label_1
_geom_bond_atom_site_label_2
_geom_bond_site_symmetry_1
_geom_bond_site_symmetry_2
S1 N1 1_555 1_555
Cl1 C10 1_555 1_555
Cl2 C19 1_555 1_555
N1 C3 1_555 1_555
N2 C7 1_555 1_555
N3 C16 1_555 1_555
O1 C24 1_555 1_555
O2 C24 1_555 1_555
O3 S1 1_555 1_555
O4 S1 1_555 1_555
C1 C2 1_555 1_555
C2 H1 1_555 1_555
C3 C2 1_555 1_555
H2 C3 1_555 1_555
H3 C3 1_555 1_555
C4 N1 1_555 1_555
H4 C4 1_555 1_555
H5 C4 1_555 1_555
C5 C1 1_555 1_555
C6 C5 1_555 1_555
C7 C6 1_555 1_555
H6 C7 1_555 1_555
C8 N2 1_555 1_555
C9 C6 1_555 1_555
C10 C9 1_555 1_555
C11 C10 1_555 1_555
H7 C11 1_555 1_555
C12 C11 1_555 1_555
H8 C12 1_555 1_555
C13 C8 1_555 1_555
H9 C13 1_555 1_555
C14 N2 1_555 1_555
H10 C14 1_555 1_555
H11 C14 1_555 1_555
H12 C14 1_555 1_555
C15 C2 1_555 1_555
C16 C15 1_555 1_555
H13 C16 1_555 1_555
C17 N3 1_555 1_555
C18 C15 1_555 1_555
C19 C18 1_555 1_555
C20 C19 1_555 1_555
H14 C20 1_555 1_555
C21 C20 1_555 1_555
H15 C21 1_555 1_555
C22 C17 1_555 1_555
H16 C22 1_555 1_555
C23 N3 1_555 1_555
H17 C23 1_555 1_555
H18 C23 1_555 1_555
H19 C23 1_555 1_555
C24 C1 1_555 1_555
C25 O2 1_555 1_555
H20 C25 1_555 1_555
H21 C25 1_555 1_555
C26 C25 1_555 1_555
H22 C26 1_555 1_555
H23 C26 1_555 1_555
H24 C26 1_555 1_555
C27 S1 1_555 1_555
C28 C27 1_555 1_555
H25 C28 1_555 1_555
C29 C28 1_555 1_555
H26 C29 1_555 1_555
C30 C29 1_555 1_555
C31 C30 1_555 1_555
H27 C31 1_555 1_555
C32 C27 1_555 1_555
H28 C32 1_555 1_555
C33 C30 1_555 1_555
H29 C33 1_555 1_555
H30 C33 1_555 1_555
H31 C33 1_555 1_555
C4 C5 1_555 1_555
C8 C9 1_555 1_555
C12 C13 1_555 1_555
C17 C18 1_555 1_555
C21 C22 1_555 1_555
C31 C32 1_555 1_555

#END
