
#######################################################################
#
#                 Cambridge Crystallographic Data Centre
#                                CCDC 
#
#######################################################################
#
# If this CIF has been generated from an entry in the Cambridge 
# Structural Database, then it will include bibliographic, chemical, 
# crystal, experimental, refinement or atomic coordinate data resulting 
# from the CCDC's data processing and validation procedures.
#
#######################################################################

data_GIGGIO
_chemical_formula_moiety         'C15 H15 N1 O2 S2'
_chemical_name_systematic        
4-((4-Methylphenyl)sulfonyl)-3,4-dihydro-2H-1,4-benzothiazine
_symmetry_cell_setting           monoclinic
_symmetry_space_group_name_H-M   'P 21/n'
_symmetry_Int_Tables_number      14
_space_group_name_Hall           '-P 2yn'
loop_
_symmetry_equiv_pos_site_id
_symmetry_equiv_pos_as_xyz
1 x,y,z
2 1/2-x,1/2+y,1/2-z
3 -x,-y,-z
4 1/2+x,1/2-y,1/2+z
_cell_length_a                   8.3042(5)
_cell_length_b                   8.0453(5)
_cell_length_c                   22.1419(14)
_cell_angle_alpha                90
_cell_angle_beta                 98.853(2)
_cell_angle_gamma                90
_cell_volume                     1461.67
_exptl_crystal_colour            colorless
_exptl_crystal_description       block
_cell_formula_units_Z            4
loop_
_atom_site_label
_atom_site_type_symbol
_atom_site_fract_x
_atom_site_fract_y
_atom_site_fract_z
S1 S 0.74102(5) 0.88657(5) 0.178433(18)
S2 S 1.22179(6) 0.67997(6) 0.17267(3)
O1 O 0.69738(15) 1.03408(15) 0.14406(7)
O2 O 0.65920(16) 0.84450(17) 0.22841(6)
N1 N 0.93651(16) 0.90270(16) 0.20713(6)
C1 C 1.17475(19) 0.8877(2) 0.15364(7)
C2 C 1.2809(2) 0.9683(2) 0.12003(8)
H1 H 1.3680 0.9101 0.1084
C3 C 1.2580(3) 1.1327(3) 0.10390(9)
H2 H 1.3273 1.1838 0.0803
C4 C 1.1326(3) 1.2223(2) 0.12259(9)
H3 H 1.1185 1.3338 0.1120
C5 C 1.0283(2) 1.1464(2) 0.15696(8)
H4 H 0.9462 1.2078 0.1707
C6 C 1.04569(18) 0.97806(19) 0.17113(6)
C7 C 1.0064(2) 0.7715(2) 0.24959(7)
H5 H 0.9236 0.7339 0.2730
H6 H 1.0952 0.8184 0.2781
C8 C 1.0696(2) 0.6230(2) 0.21812(9)
H7 H 0.9793 0.5700 0.1922
H8 H 1.1154 0.5430 0.2488
C9 C 0.72215(18) 0.71838(19) 0.12726(7)
C10 C 0.6543(2) 0.5710(2) 0.14299(7)
H9 H 0.6116 0.5627 0.1793
C11 C 0.6504(3) 0.4360(2) 0.10433(8)
H10 H 0.6046 0.3368 0.1149
C12 C 0.7134(3) 0.4456(2) 0.05016(8)
C13 C 0.7806(3) 0.5944(3) 0.03526(8)
H11 H 0.8237 0.6021 -0.0010
C14 C 0.7852(2) 0.7320(2) 0.07288(8)
H12 H 0.8297 0.8317 0.0620
C15 C 0.7080(4) 0.2970(3) 0.00851(11)
H13 H 0.6576 0.2054 0.0262
H14 H 0.8170 0.2670 0.0033
H15 H 0.6461 0.3239 -0.0305
loop_
_geom_bond_atom_site_label_1
_geom_bond_atom_site_label_2
_geom_bond_site_symmetry_1
_geom_bond_site_symmetry_2
S1 O1 1_555 1_555
S2 C1 1_555 1_555
O2 S1 1_555 1_555
N1 S1 1_555 1_555
C1 C2 1_555 1_555
C2 H1 1_555 1_555
C3 C2 1_555 1_555
H2 C3 1_555 1_555
C4 C3 1_555 1_555
H3 C4 1_555 1_555
C5 C4 1_555 1_555
H4 C5 1_555 1_555
C6 N1 1_555 1_555
C7 N1 1_555 1_555
H5 C7 1_555 1_555
H6 C7 1_555 1_555
C8 S2 1_555 1_555
H7 C8 1_555 1_555
H8 C8 1_555 1_555
C9 S1 1_555 1_555
C10 C9 1_555 1_555
H9 C10 1_555 1_555
C11 C10 1_555 1_555
H10 C11 1_555 1_555
C12 C11 1_555 1_555
C13 C12 1_555 1_555
H11 C13 1_555 1_555
C14 C9 1_555 1_555
H12 C14 1_555 1_555
C15 C12 1_555 1_555
H13 C15 1_555 1_555
H14 C15 1_555 1_555
H15 C15 1_555 1_555
C1 C6 1_555 1_555
C5 C6 1_555 1_555
C7 C8 1_555 1_555
C13 C14 1_555 1_555

#END
