
#######################################################################
#
#                 Cambridge Crystallographic Data Centre
#                                CCDC 
#
#######################################################################
#
# If this CIF has been generated from an entry in the Cambridge 
# Structural Database, then it will include bibliographic, chemical, 
# crystal, experimental, refinement or atomic coordinate data resulting 
# from the CCDC's data processing and validation procedures.
#
#######################################################################

data_GIGGEK
_chemical_formula_moiety         'C22 H19 Br1 N2 O6'
_chemical_name_systematic        
'Dimethyl 5-(4-bromophenyl)-4-(1,3-dioxo-1,3-dihydro-2H-isoindol-2-yl)pyrrolidine-2,4-dicarboxylate'
_symmetry_cell_setting           monoclinic
_symmetry_space_group_name_H-M   'P 21/n'
_symmetry_Int_Tables_number      14
_space_group_name_Hall           '-P 2yn'
loop_
_symmetry_equiv_pos_site_id
_symmetry_equiv_pos_as_xyz
1 x,y,z
2 1/2-x,1/2+y,1/2-z
3 -x,-y,-z
4 1/2+x,1/2-y,1/2+z
_cell_length_a                   10.2985(9)
_cell_length_b                   16.1845(14)
_cell_length_c                   12.9331(12)
_cell_angle_alpha                90
_cell_angle_beta                 106.251(2)
_cell_angle_gamma                90
_cell_volume                     2069.51
_exptl_crystal_colour            colorless
_exptl_crystal_description       prismatic
_cell_formula_units_Z            4
loop_
_atom_site_label
_atom_site_type_symbol
_atom_site_fract_x
_atom_site_fract_y
_atom_site_fract_z
Br1 Br 1.05154(4) 1.18229(2) 0.19079(4)
N1 N 0.7738(2) 0.81765(15) 0.29877(19)
N2 N 1.0263(2) 0.69834(13) 0.38111(17)
O1 O 0.8745(2) 0.65174(13) 0.22268(15)
O2 O 1.1872(2) 0.69708(13) 0.54658(17)
O3 O 0.6090(2) 0.87513(13) 0.42497(18)
O4 O 0.6905(2) 0.77767(15) 0.54695(17)
O5 O 1.2258(2) 0.80332(13) 0.35858(19)
O6 O 1.1612(2) 0.89405(12) 0.46508(16)
C1 C 0.9065(3) 0.82401(15) 0.2798(2)
H1 H 0.9090 0.7891 0.2184
C2 C 0.7859(3) 0.78421(17) 0.4052(2)
H2 H 0.7767 0.7240 0.4008
C3 C 0.9301(3) 0.80681(16) 0.4680(2)
H3 H 0.9373 0.8646 0.4887
H4 H 0.9622 0.7728 0.5318
C4 C 1.0066(3) 0.78856(15) 0.3854(2)
C5 C 0.9642(3) 0.63944(17) 0.3032(2)
C6 C 1.1223(3) 0.66061(17) 0.4681(2)
C7 C 1.1238(3) 0.57205(16) 0.4414(2)
C8 C 1.0307(3) 0.55971(16) 0.3425(2)
C9 C 1.0117(3) 0.48310(18) 0.2949(3)
H5 H 0.9481 0.4746 0.2288
C10 C 1.0910(4) 0.41914(19) 0.3493(3)
H6 H 1.0819 0.3668 0.3184
C11 C 1.1833(4) 0.43132(19) 0.4484(3)
H7 H 1.2352 0.3871 0.4832
C12 C 1.1998(3) 0.50811(18) 0.4967(3)
H8 H 1.2601 0.5162 0.5644
C13 C 0.9395(3) 0.91272(17) 0.2576(2)
C14 C 0.8845(3) 0.97890(17) 0.2974(2)
H9 H 0.8244 0.9692 0.3380
C15 C 0.9165(3) 1.05954(18) 0.2784(3)
H10 H 0.8794 1.1037 0.3063
C16 C 1.0037(3) 1.07263(18) 0.2179(3)
C17 C 1.0589(3) 1.0087(2) 0.1761(3)
H11 H 1.1182 1.0188 0.1349
C18 C 1.0259(3) 0.92883(19) 0.1956(3)
H12 H 1.0624 0.8850 0.1665
C19 C 0.6842(3) 0.81938(16) 0.4566(2)
C20 C 0.6001(4) 0.8051(3) 0.6074(3)
H13 H 0.6072 0.8640 0.6165
H14 H 0.6240 0.7789 0.6767
H15 H 0.5088 0.7908 0.5692
C21 C 1.1465(3) 0.82759(16) 0.4026(2)
C22 C 1.2802(3) 0.9431(2) 0.4714(3)
H16 H 1.3588 0.9082 0.4906
H17 H 1.2884 0.9852 0.5250
H18 H 1.2726 0.9683 0.4028
H19 H 0.717(3) 0.7960(19) 0.248(3)
loop_
_geom_bond_atom_site_label_1
_geom_bond_atom_site_label_2
_geom_bond_site_symmetry_1
_geom_bond_site_symmetry_2
Br1 C16 1_555 1_555
N1 C1 1_555 1_555
N2 C4 1_555 1_555
O1 C5 1_555 1_555
O2 C6 1_555 1_555
O3 C19 1_555 1_555
O4 C19 1_555 1_555
O5 C21 1_555 1_555
O6 C21 1_555 1_555
C1 H1 1_555 1_555
C2 N1 1_555 1_555
H2 C2 1_555 1_555
C3 C2 1_555 1_555
H3 C3 1_555 1_555
H4 C3 1_555 1_555
C4 C1 1_555 1_555
C5 N2 1_555 1_555
C6 N2 1_555 1_555
C7 C6 1_555 1_555
C8 C5 1_555 1_555
C9 C8 1_555 1_555
H5 C9 1_555 1_555
C10 C9 1_555 1_555
H6 C10 1_555 1_555
C11 C10 1_555 1_555
H7 C11 1_555 1_555
C12 C7 1_555 1_555
H8 C12 1_555 1_555
C13 C1 1_555 1_555
C14 C13 1_555 1_555
H9 C14 1_555 1_555
C15 C14 1_555 1_555
H10 C15 1_555 1_555
C16 C15 1_555 1_555
C17 C16 1_555 1_555
H11 C17 1_555 1_555
C18 C13 1_555 1_555
H12 C18 1_555 1_555
C19 C2 1_555 1_555
C20 O4 1_555 1_555
H13 C20 1_555 1_555
H14 C20 1_555 1_555
H15 C20 1_555 1_555
C21 C4 1_555 1_555
C22 O6 1_555 1_555
H16 C22 1_555 1_555
H17 C22 1_555 1_555
H18 C22 1_555 1_555
H19 N1 1_555 1_555
C3 C4 1_555 1_555
C7 C8 1_555 1_555
C11 C12 1_555 1_555
C17 C18 1_555 1_555

#END
