
#######################################################################
#
#                 Cambridge Crystallographic Data Centre
#                                CCDC 
#
#######################################################################
#
# If this CIF has been generated from an entry in the Cambridge 
# Structural Database, then it will include bibliographic, chemical, 
# crystal, experimental, refinement or atomic coordinate data resulting 
# from the CCDC's data processing and validation procedures.
#
#######################################################################

data_GIGHUC
_chemical_formula_moiety         'C38 H38 Br1 N5 O7,2(C1 H2 Cl2)'
_chemical_name_systematic        
"1'-t-butyl 2-methyl 5'-bromo-4-[4-(2-t-butylphenyl)-3,5-dioxo-1,2,4-triazolidin-1-yl]-2'-oxo-2,3,4,9-tetrahydrospiro[carbazole-1,3'-indole]-1',2(2'H)-dicarboxylate dichloromethane unknown solvate"
_symmetry_cell_setting           hexagonal
_symmetry_space_group_name_H-M   'P 65'
_symmetry_Int_Tables_number      170
_space_group_name_Hall           'P 65'
loop_
_symmetry_equiv_pos_site_id
_symmetry_equiv_pos_as_xyz
1 x,y,z
2 x-y,x,5/6+z
3 -y,x-y,2/3+z
4 -x,-y,1/2+z
5 -x+y,-x,1/3+z
6 y,-x+y,1/6+z
_cell_length_a                   38.6323(8)
_cell_length_b                   38.6323(8)
_cell_length_c                   22.7936(6)
_cell_angle_alpha                90
_cell_angle_beta                 90
_cell_angle_gamma                120
_cell_volume                     29460.8
_exptl_crystal_colour            yellow
_exptl_crystal_description       block
_cell_formula_units_Z            24
loop_
_atom_site_label
_atom_site_type_symbol
_atom_site_fract_x
_atom_site_fract_y
_atom_site_fract_z
Br1 Br 0.68020(4) 0.49910(3) 0.23789(6)
O1 O 0.66423(19) 0.62898(18) 0.4776(3)
O2 O 0.5806(2) 0.4905(2) 0.3980(3)
O3 O 0.59572(18) 0.5545(2) 0.3889(3)
O4 O 0.6952(2) 0.69247(18) 0.4105(3)
O5 O 0.70736(17) 0.68525(17) 0.3153(3)
O6 O 0.59176(17) 0.46478(18) 0.6026(2)
O7 O 0.65148(16) 0.57501(17) 0.7222(3)
N1 N 0.6822(2) 0.6326(2) 0.3792(3)
N2 N 0.7440(2) 0.6073(2) 0.4637(3)
H1 H 0.752779 0.625424 0.435767
N3 N 0.6443(2) 0.5294(2) 0.5894(3)
N4 N 0.6650(2) 0.5604(2) 0.6295(3)
H2 H 0.688710 0.581404 0.623447
N5 N 0.60956(19) 0.5157(2) 0.6709(3)
C1 C 0.7540(3) 0.7584(3) 0.3951(5)
H3 H 0.766629 0.745580 0.416617
H4 H 0.765326 0.786055 0.408427
H5 H 0.758976 0.758026 0.353036
C2 C 0.6870(4) 0.7451(3) 0.3614(5)
H6 H 0.693621 0.739910 0.322132
H7 H 0.694425 0.773318 0.364543
H8 H 0.658189 0.728243 0.368171
C3 C 0.6999(5) 0.7434(4) 0.4675(5)
H9 H 0.672349 0.723293 0.477437
H10 H 0.702790 0.770102 0.469279
H11 H 0.718280 0.741853 0.495563
C4 C 0.7095(3) 0.7358(3) 0.4065(4)
C5 C 0.6960(3) 0.6723(3) 0.3644(4)
C6 C 0.6845(2) 0.6051(3) 0.3401(4)
C7 C 0.6887(3) 0.6076(3) 0.2782(4)
H12 H 0.691851 0.630371 0.257518
C8 C 0.6880(2) 0.5760(3) 0.2487(3)
H13 H 0.692428 0.577371 0.207546
C9 C 0.6809(3) 0.5419(3) 0.2802(4)
C10 C 0.6770(3) 0.5393(3) 0.3410(4)
H14 H 0.673955 0.516636 0.361789
C11 C 0.6779(2) 0.5710(3) 0.3698(3)
C12 C 0.6712(2) 0.5753(2) 0.4352(4)
C13 C 0.6719(3) 0.6154(3) 0.4351(4)
C14 C 0.5711(3) 0.5435(4) 0.3368(5)
H15 H 0.582815 0.534552 0.306344
H16 H 0.569612 0.566615 0.322449
H17 H 0.544135 0.521725 0.346145
C15 C 0.5995(3) 0.5247(4) 0.4132(4)
C16 C 0.6314(2) 0.5410(3) 0.4603(3)
H18 H 0.622325 0.552866 0.491602
C17 C 0.6345(3) 0.5070(3) 0.4878(3)
H19 H 0.643298 0.494569 0.457786
H20 H 0.607752 0.486383 0.501940
C18 C 0.6638(3) 0.5213(2) 0.5390(4)
H21 H 0.669532 0.499649 0.550127
C19 C 0.7015(2) 0.5572(2) 0.5217(3)
C20 C 0.7419(3) 0.5710(3) 0.5422(3)
C21 C 0.7589(3) 0.5591(3) 0.5869(4)
H22 H 0.742488 0.538589 0.613778
C22 C 0.7999(3) 0.5778(3) 0.5907(4)
H23 H 0.811718 0.569585 0.620140
C23 C 0.8241(3) 0.6081(3) 0.5529(4)
H24 H 0.852285 0.619828 0.556728
C24 C 0.8093(3) 0.6220(3) 0.5096(4)
H25 H 0.826253 0.643827 0.484967
C25 C 0.7674(3) 0.6021(3) 0.5043(4)
C26 C 0.7046(2) 0.5794(3) 0.4741(4)
C27 C 0.6128(3) 0.4988(3) 0.6188(4)
C28 C 0.6431(3) 0.5532(3) 0.6789(4)
C29 C 0.5799(3) 0.4920(2) 0.7143(4)
C30 C 0.5914(3) 0.4753(3) 0.7580(4)
H26 H 0.618633 0.482230 0.761266
C31 C 0.5639(4) 0.4487(3) 0.7969(4)
H27 H 0.572321 0.437868 0.827447
C32 C 0.5248(4) 0.4379(3) 0.7920(5)
H28 H 0.505296 0.418019 0.817016
C33 C 0.5137(3) 0.4564(3) 0.7496(5)
H29 H 0.486399 0.449199 0.747420
C34 C 0.5408(3) 0.4853(3) 0.7095(4)
C35 C 0.5267(3) 0.5066(3) 0.6692(4)
C36 C 0.5275(4) 0.4959(5) 0.6031(5)
H30 H 0.555240 0.506389 0.590484
H31 H 0.515056 0.507740 0.579084
H32 H 0.512686 0.466766 0.598311
C37 C 0.5527(4) 0.5520(3) 0.6761(6)
H33 H 0.551419 0.559452 0.716836
H34 H 0.542756 0.565293 0.649974
H35 H 0.580390 0.560340 0.665944
C38 C 0.4843(4) 0.4972(5) 0.6807(6)
H36 H 0.466101 0.468339 0.676539
H37 H 0.476977 0.511536 0.652474
H38 H 0.482356 0.505464 0.720639
Br2 Br 0.55117(3) 0.64735(4) 0.59472(6)
O8 O 0.71629(18) 0.68075(18) 0.8112(3)
O9 O 0.72606(16) 0.64046(16) 0.6462(3)
O10 O 0.75381(17) 0.66244(17) 0.7342(3)
O11 O 0.70595(18) 0.74888(17) 0.7221(3)
O12 O 0.6928(2) 0.78277(19) 0.7901(3)
O13 O 0.63271(19) 0.75979(18) 0.9328(3)
O14 O 0.66339(19) 0.68777(17) 1.0612(3)
N6 N 0.69969(19) 0.66512(19) 0.7118(3)
N7 N 0.6152(2) 0.6012(2) 0.8062(3)
H39 H 0.626375 0.592319 0.781282
N8 N 0.6320(2) 0.6996(2) 0.9253(3)
N9 N 0.6354(2) 0.6751(2) 0.9687(3)
H40 H 0.628036 0.649715 0.964651
N10 N 0.6525(2) 0.7327(2) 1.0075(3)
C39 C 0.8000(3) 0.6581(3) 0.7958(4)
H41 H 0.813794 0.687361 0.798602
H42 H 0.819170 0.648935 0.801981
H43 H 0.779065 0.646503 0.825905
C40 C 0.8109(3) 0.6642(3) 0.6866(4)
H44 H 0.797490 0.653584 0.648922
H45 H 0.832468 0.658066 0.691437
H46 H 0.821981 0.693173 0.687514
C41 C 0.7562(3) 0.6000(3) 0.7306(4)
H47 H 0.734320 0.589887 0.759104
H48 H 0.773063 0.588183 0.738618
H49 H 0.745206 0.592713 0.690881
C42 C 0.7812(2) 0.6452(3) 0.7356(4)
C43 C 0.7272(3) 0.6544(2) 0.6940(4)
C44 C 0.6667(3) 0.6607(2) 0.6766(4)
C45 C 0.6612(3) 0.6538(2) 0.6167(4)
H50 H 0.680247 0.651559 0.592989
C46 C 0.6264(3) 0.6503(3) 0.5931(4)
H51 H 0.621365 0.645406 0.552297
C47 C 0.5991(3) 0.6537(3) 0.6276(4)
C48 C 0.6056(3) 0.6614(3) 0.6872(4)
H52 H 0.586667 0.663736 0.710891
C49 C 0.6404(3) 0.6656(2) 0.7111(4)
C50 C 0.6541(2) 0.6735(2) 0.7736(3)
C51 C 0.6940(3) 0.6740(2) 0.7702(4)
C52 C 0.7197(4) 0.8199(3) 0.7606(5)
H53 H 0.706285 0.823132 0.726298
H54 H 0.743633 0.819303 0.747967
H55 H 0.727333 0.842285 0.787625
C53 C 0.6891(3) 0.7493(3) 0.7656(4)
C54 C 0.6620(3) 0.7129(2) 0.8025(4)
H56 H 0.677652 0.715492 0.838853
C55 C 0.6236(3) 0.7118(3) 0.8240(3)
H57 H 0.630022 0.738575 0.838482
H58 H 0.604338 0.704428 0.791228
C56 C 0.6053(3) 0.6815(3) 0.8728(3)
H59 H 0.578138 0.677209 0.882031
C57 C 0.6020(3) 0.6429(3) 0.8572(4)
C58 C 0.5755(2) 0.6034(3) 0.8777(3)
C59 C 0.5459(3) 0.5881(3) 0.9188(4)
H60 H 0.539638 0.605015 0.941210
C60 C 0.5249(3) 0.5465(3) 0.9268(4)
H61 H 0.503805 0.535215 0.954798
C61 C 0.5338(3) 0.5212(3) 0.8953(4)
H62 H 0.519089 0.493165 0.902253
C62 C 0.5644(3) 0.5366(3) 0.8534(4)
H63 H 0.571125 0.519760 0.831881
C63 C 0.5846(3) 0.5778(3) 0.8447(4)
C64 C 0.6254(2) 0.6402(3) 0.8128(4)
C65 C 0.6516(3) 0.6971(3) 1.0166(4)
C66 C 0.6378(3) 0.7336(3) 0.9527(4)
C67 C 0.6638(3) 0.7654(3) 1.0485(4)
C68 C 0.6348(3) 0.7607(3) 1.0876(4)
H64 H 0.610372 0.736067 1.089514
C69 C 0.6410(3) 0.7918(3) 1.1244(4)
H65 H 0.621279 0.788831 1.151946
C70 C 0.6763(3) 0.8269(3) 1.1198(4)
H66 H 0.680900 0.848659 1.144212
C71 C 0.7059(3) 0.8316(3) 1.0803(4)
H67 H 0.729857 0.856673 1.078105
C72 C 0.7012(3) 0.8006(3) 1.0441(4)
C73 C 0.7374(3) 0.8085(3) 1.0051(4)
C74 C 0.7324(3) 0.7726(3) 0.9699(5)
H68 H 0.720985 0.748920 0.995096
H69 H 0.758559 0.778073 0.955359
H70 H 0.714542 0.767903 0.936584
C75 C 0.7459(4) 0.8423(4) 0.9626(5)
H71 H 0.770031 0.849199 0.939995
H72 H 0.749827 0.865772 0.984783
H73 H 0.723174 0.833731 0.935866
C76 C 0.7728(3) 0.8208(3) 1.0447(5)
H74 H 0.768053 0.798264 1.069806
H75 H 0.776543 0.843275 1.069311
H76 H 0.796787 0.828985 1.020997
Br3 Br 0.84556(3) 0.78744(3) 0.93209(6)
O15 O 0.69061(19) 0.63394(18) 1.1413(3)
O16 O 0.6592(2) 0.61268(19) 0.9712(3)
O17 O 0.65876(18) 0.57878(19) 1.0531(3)
O18 O 0.8134(3) 0.6450(2) 1.0808(4)
O19 O 0.7519(2) 0.6049(2) 1.1146(3)
O20 O 0.8863(2) 0.7365(2) 1.2614(3)
O21 O 0.77190(19) 0.6623(2) 1.3685(3)
N11 N 0.7077(2) 0.6410(2) 1.0414(3)
N12 N 0.7284(2) 0.7301(2) 1.1445(3)
H77 H 0.706860 0.719076 1.122368
N13 N 0.7867(2) 0.6998(2) 1.2839(3)
H78 H 0.762735 0.693995 1.271910
N14 N 0.8229(2) 0.7284(2) 1.2576(3)
N15 N 0.8353(2) 0.6944(2) 1.3247(3)
C77 C 0.6162(4) 0.5234(4) 0.9901(6)
H79 H 0.622316 0.541994 0.957249
H80 H 0.589224 0.500456 0.985104
H81 H 0.635619 0.514179 0.990948
C78 C 0.5881(3) 0.5599(4) 1.0474(6)
H82 H 0.592386 0.575656 1.083102
H83 H 0.560696 0.537245 1.047004
H84 H 0.592321 0.576752 1.012918
C79 C 0.6146(3) 0.5193(3) 1.0993(5)
H85 H 0.637157 0.514427 1.100476
H86 H 0.589509 0.493741 1.097335
H87 H 0.614777 0.533749 1.134768
C80 C 0.6182(3) 0.5441(3) 1.0459(5)
C81 C 0.6724(3) 0.6101(3) 1.0170(4)
C82 C 0.7390(3) 0.6729(3) 1.0086(4)
C83 C 0.7419(3) 0.6777(3) 0.9473(4)
H88 H 0.722119 0.658262 0.922068
C84 C 0.7742(3) 0.7113(3) 0.9251(4)
H89 H 0.777046 0.715463 0.883894
C85 C 0.8025(3) 0.7390(3) 0.9619(4)
C86 C 0.7997(3) 0.7345(3) 1.0226(4)
H90 H 0.819000 0.754466 1.047739
C87 C 0.7681(3) 0.7000(3) 1.0451(4)
C88 C 0.7564(3) 0.6872(3) 1.1089(3)
C89 C 0.7138(3) 0.6503(3) 1.1024(4)
C90 C 0.7496(4) 0.5714(4) 1.0830(6)
H91 H 0.751078 0.576637 1.040770
H92 H 0.724298 0.547200 1.092195
H93 H 0.771943 0.567674 1.094722
C91 C 0.7853(4) 0.6405(3) 1.1081(4)
C92 C 0.7829(3) 0.6731(3) 1.1413(4)
H94 H 0.770114 0.661793 1.180038
C93 C 0.8241(3) 0.7083(3) 1.1533(4)
H95 H 0.836425 0.721636 1.115753
H96 H 0.841037 0.698518 1.170760
C94 C 0.8229(3) 0.7392(3) 1.1952(4)
H97 H 0.847447 0.765623 1.188143
C95 C 0.7879(3) 0.7437(3) 1.1841(4)
C96 C 0.7768(3) 0.7711(3) 1.2080(4)
C97 C 0.7946(3) 0.8028(3) 1.2474(4)
H98 H 0.819957 0.810306 1.264137
C98 C 0.7745(4) 0.8235(3) 1.2621(5)
H99 H 0.786170 0.845090 1.289163
C99 C 0.7368(4) 0.8122(3) 1.2365(5)
H100 H 0.723309 0.826077 1.247769
C100 C 0.7194(3) 0.7824(3) 1.1966(4)
H101 H 0.694909 0.776111 1.178071
C101 C 0.7393(3) 0.7611(3) 1.1839(4)
C102 C 0.8523(3) 0.7222(3) 1.2792(4)
C103 C 0.7944(3) 0.6824(3) 1.3310(4)
C104 C 0.8570(3) 0.6812(3) 1.3602(4)
C105 C 0.8836(3) 0.7099(3) 1.4001(4)
H102 H 0.885522 0.735357 1.402458
C106 C 0.9068(3) 0.7010(4) 1.4357(4)
H103 H 0.925432 0.720434 1.462086
C107 C 0.9030(3) 0.6649(4) 1.4329(4)
H104 H 0.918579 0.658551 1.458287
C108 C 0.8767(3) 0.6360(3) 1.3936(4)
H105 H 0.874407 0.610336 1.393591
C109 C 0.8535(3) 0.6436(3) 1.3539(4)
C110 C 0.8275(3) 0.6109(3) 1.3094(4)
C111 C 0.8210(4) 0.6270(3) 1.2504(4)
H106 H 0.804950 0.639759 1.257213
H107 H 0.807055 0.604742 1.222824
H108 H 0.846980 0.646563 1.233900
C112 C 0.7862(3) 0.5841(4) 1.3354(5)
H109 H 0.788925 0.574526 1.373955
H110 H 0.770902 0.561280 1.309318
H111 H 0.772317 0.599350 1.339566
C113 C 0.8464(3) 0.5856(3) 1.2922(6)
H112 H 0.874524 0.603185 1.281889
H113 H 0.832102 0.568767 1.258413
H114 H 0.844567 0.568541 1.325307
C114 C 0.7575(3) 0.7196(3) 1.1462(3)
Br4 Br 0.42185(3) 0.80182(3) 0.546679
O22 O 0.30515(18) 0.64776(17) 0.7825(3)
O23 O 0.28137(16) 0.60523(16) 0.6145(3)
O24 O 0.27979(17) 0.58635(17) 0.7086(3)
O25 O 0.4455(2) 0.6981(2) 0.7254(4)
O26 O 0.38793(19) 0.64691(19) 0.7499(3)
O27 O 0.49888(18) 0.81729(17) 0.8682(3)
O28 O 0.41306(17) 0.73250(17) 1.0096(3)
N16 N 0.3235(2) 0.64954(19) 0.6827(3)
N17 N 0.3148(2) 0.7346(2) 0.7701(3)
H115 H 0.293539 0.716385 0.751419
N18 N 0.4298(2) 0.78071(19) 0.8777(3)
N19 N 0.4044(2) 0.74921(19) 0.9148(3)
H116 H 0.379046 0.731912 0.908387
N20 N 0.4655(2) 0.7747(2) 0.9478(3)
C115 C 0.2353(4) 0.5348(3) 0.7694(5)
H117 H 0.255881 0.527563 0.776721
H118 H 0.208788 0.511195 0.774869
H119 H 0.238687 0.555720 0.797021
C116 C 0.2388(3) 0.5202(3) 0.6622(5)
H120 H 0.241513 0.530805 0.622434
H121 H 0.213607 0.494819 0.665528
H122 H 0.261203 0.515694 0.670443
C117 C 0.2089(3) 0.5626(3) 0.6928(5)
H123 H 0.212516 0.583983 0.719567
H124 H 0.181899 0.539596 0.697638
H125 H 0.212426 0.572176 0.652247
C118 C 0.2392(3) 0.5502(3) 0.7065(4)
C119 C 0.2931(3) 0.6117(3) 0.6646(4)
C120 C 0.3473(2) 0.6811(3) 0.6443(3)
C121 C 0.3513(3) 0.6810(3) 0.5839(4)
H126 H 0.338498 0.656629 0.562515
C122 C 0.3743(3) 0.7169(3) 0.5556(4)
H127 H 0.377607 0.717505 0.514247
C123 C 0.3927(3) 0.7526(3) 0.5876(4)
C124 C 0.3899(3) 0.7529(3) 0.6471(4)
H128 H 0.402687 0.777328 0.668316
C125 C 0.3681(2) 0.7167(3) 0.6759(3)
C126 C 0.3613(2) 0.7083(2) 0.7413(4)
C127 C 0.3261(3) 0.6646(3) 0.7406(4)
C128 C 0.4000(3) 0.6201(3) 0.7252(5)
H129 H 0.405604 0.625857 0.683239
H130 H 0.378514 0.592444 0.730297
H131 H 0.424169 0.623999 0.745129
C129 C 0.4130(3) 0.6851(3) 0.7466(4)
C130 C 0.3974(2) 0.7101(3) 0.7737(4)
H132 H 0.388614 0.700045 0.814537
C131 C 0.4309(2) 0.7534(2) 0.7780(4)
H133 H 0.438523 0.764599 0.737977
H134 H 0.454584 0.754125 0.796125
C132 C 0.4197(3) 0.7800(3) 0.8142(4)
H135 H 0.436043 0.807921 0.799060
C133 C 0.3768(2) 0.7682(2) 0.8064(4)
C134 C 0.3558(3) 0.7872(3) 0.8248(3)
C135 C 0.3663(3) 0.8221(3) 0.8582(4)
H136 H 0.392114 0.837013 0.875054
C136 C 0.3384(3) 0.8342(3) 0.8658(4)
H137 H 0.345330 0.857761 0.887434
C137 C 0.3001(3) 0.8120(3) 0.8418(4)
H138 H 0.281402 0.820664 0.848688
C138 C 0.2885(3) 0.7784(3) 0.8091(4)
H139 H 0.262616 0.764001 0.792258
C139 C 0.3170(3) 0.7663(3) 0.8015(4)
C140 C 0.3511(3) 0.7360(2) 0.7727(3)
C141 C 0.4259(3) 0.7501(2) 0.9624(4)
C142 C 0.4689(3) 0.7941(3) 0.8934(4)
C143 C 0.4991(2) 0.7841(3) 0.9845(4)
C144 C 0.5138(3) 0.8189(3) 1.0187(4)
H140 H 0.500229 0.833735 1.017366
C145 C 0.5462(3) 0.8322(3) 1.0533(4)
H141 H 0.555575 0.855899 1.076010
C146 C 0.5653(3) 0.8101(3) 1.0545(4)
H142 H 0.588468 0.818902 1.078185
C147 C 0.5515(3) 0.7755(3) 1.0222(4)
H143 H 0.565129 0.760758 1.025261
C148 C 0.5178(3) 0.7610(3) 0.9846(4)
C149 C 0.5048(3) 0.7228(3) 0.9489(4)
C150 C 0.5316(4) 0.7055(4) 0.9586(8)
H144 H 0.526090 0.692710 0.997267
H145 H 0.559569 0.726979 0.956871
H146 H 0.526639 0.685702 0.928156
C151 C 0.4636(3) 0.6904(3) 0.9638(5)
H147 H 0.462419 0.683676 1.005500
H148 H 0.456797 0.666728 0.940023
H149 H 0.444576 0.699576 0.955764
C152 C 0.5059(7) 0.7326(4) 0.8838(5)
H150 H 0.520242 0.721698 0.862167
H151 H 0.519652 0.761673 0.878606
H152 H 0.478538 0.720762 0.868726
Cl1 Cl 0.53858(9) 0.62899(11) 1.06791(14)
Cl2 Cl 0.46627(8) 0.59350(8) 0.99626(12)
C153 C 0.4870(3) 0.6136(3) 1.0655(4)
H153 H 0.472710 0.593231 1.096172
H154 H 0.483473 0.636797 1.073796
Cl3 Cl 0.59950(13) 0.61438(13) 1.2157(2)
Cl4 Cl 0.61123(13) 0.69414(13) 1.2195(2)
C154 C 0.6312(4) 0.6636(4) 1.2005(6)
H155 H 0.637408 0.666527 1.158008
H156 H 0.656521 0.672668 1.222087
Cl5 Cl 0.65142(17) 0.4325(2) 1.09718(18)
Cl6 Cl 0.67065(15) 0.45729(15) 0.97782(19)
C155 C 0.6660(4) 0.4228(4) 1.0314(5)
H157 H 0.646084 0.395553 1.018382
H158 H 0.691951 0.423881 1.036275
Cl7 Cl 0.50301(11) 0.63096(11) 0.8011(2)
Cl8 Cl 0.43963(12) 0.55365(11) 0.76012(18)
C156 C 0.4783(3) 0.5795(3) 0.8096(6)
H159 H 0.467317 0.572888 0.849865
H160 H 0.497854 0.570289 0.805276
Cl9 Cl 0.48733(16) 0.69056(14) 0.59065(18)
Cl10 Cl 0.49010(10) 0.76553(10) 0.60208(18)
C157 C 0.5078(4) 0.7363(4) 0.6298(5)
H161 H 0.500502 0.730866 0.671758
H162 H 0.537276 0.750651 0.626732
Cl11 Cl 0.76837(13) 0.73329(11) 0.58973(17)
Cl12 Cl 0.81515(11) 0.72074(12) 0.50120(17)
C158 C 0.7714(4) 0.7007(3) 0.5384(5)
H163 H 0.767432 0.676489 0.559270
H164 H 0.749286 0.692143 0.509789
Cl13 Cl 0.7891(3) 0.7915(2) 0.8087(4)
Cl14 Cl 0.8416(2) 0.7827(2) 0.7253(6)
C159 C 0.7968(5) 0.7667(6) 0.7498(11)
H165 H 0.785806 0.738457 0.761510
H166 H 0.780382 0.766875 0.716515
Cl15 Cl 0.5776(2) 0.64712(19) 0.3666(3)
C160 C 0.5736(5) 0.6302(5) 0.4329(6)
H167 H 0.577316 0.651653 0.460519
H168 H 0.595715 0.624801 0.439705
Cl16 Cl 0.5290(5) 0.5873(4) 0.4505(5)
H169? H 0.590945 0.651651 0.460719
H170? H 0.579664 0.608248 0.434940
Cl17? Cl 0.5186(8) 0.6118(10) 0.4468(12)
loop_
_geom_bond_atom_site_label_1
_geom_bond_atom_site_label_2
_geom_bond_site_symmetry_1
_geom_bond_site_symmetry_2
Br1 C9 1_555 1_555
O1 C13 1_555 1_555
O2 C15 1_555 1_555
O3 C14 1_555 1_555
O4 C4 1_555 1_555
O5 C5 1_555 1_555
O6 C27 1_555 1_555
O7 C28 1_555 1_555
N1 C5 1_555 1_555
N2 H1 1_555 1_555
N3 N4 1_555 1_555
N4 H2 1_555 1_555
N5 C27 1_555 1_555
C1 H3 1_555 1_555
H4 C1 1_555 1_555
H5 C1 1_555 1_555
C2 H6 1_555 1_555
H7 C2 1_555 1_555
H8 C2 1_555 1_555
C3 H9 1_555 1_555
H10 C3 1_555 1_555
H11 C3 1_555 1_555
C4 C1 1_555 1_555
C5 O4 1_555 1_555
C6 N1 1_555 1_555
C7 C6 1_555 1_555
H12 C7 1_555 1_555
C8 C7 1_555 1_555
H13 C8 1_555 1_555
C9 C8 1_555 1_555
C10 C9 1_555 1_555
H14 C10 1_555 1_555
C11 C6 1_555 1_555
C12 C11 1_555 1_555
C13 N1 1_555 1_555
C14 H15 1_555 1_555
H16 C14 1_555 1_555
H17 C14 1_555 1_555
C15 O3 1_555 1_555
C16 C12 1_555 1_555
H18 C16 1_555 1_555
C17 C16 1_555 1_555
H19 C17 1_555 1_555
H20 C17 1_555 1_555
C18 N3 1_555 1_555
H21 C18 1_555 1_555
C19 C18 1_555 1_555
C20 C19 1_555 1_555
C21 C20 1_555 1_555
H22 C21 1_555 1_555
C22 C21 1_555 1_555
H23 C22 1_555 1_555
C23 C22 1_555 1_555
H24 C23 1_555 1_555
C24 C23 1_555 1_555
H25 C24 1_555 1_555
C25 N2 1_555 1_555
C26 N2 1_555 1_555
C27 N3 1_555 1_555
C28 N4 1_555 1_555
C29 N5 1_555 1_555
C30 C29 1_555 1_555
H26 C30 1_555 1_555
C31 C30 1_555 1_555
H27 C31 1_555 1_555
C32 C31 1_555 1_555
H28 C32 1_555 1_555
C33 C32 1_555 1_555
H29 C33 1_555 1_555
C34 C29 1_555 1_555
C35 C34 1_555 1_555
C36 C35 1_555 1_555
H30 C36 1_555 1_555
H31 C36 1_555 1_555
H32 C36 1_555 1_555
C37 C35 1_555 1_555
H33 C37 1_555 1_555
H34 C37 1_555 1_555
H35 C37 1_555 1_555
C38 C35 1_555 1_555
H36 C38 1_555 1_555
H37 C38 1_555 1_555
H38 C38 1_555 1_555
Br2 C47 1_555 1_555
O8 C51 1_555 1_555
O9 C43 1_555 1_555
O10 C42 1_555 1_555
O11 C53 1_555 1_555
O12 C52 1_555 1_555
O13 C66 1_555 1_555
O14 C65 1_555 1_555
N6 C43 1_555 1_555
N7 H39 1_555 1_555
N8 N9 1_555 1_555
N9 H40 1_555 1_555
N10 C65 1_555 1_555
C39 H41 1_555 1_555
H42 C39 1_555 1_555
H43 C39 1_555 1_555
C40 H44 1_555 1_555
H45 C40 1_555 1_555
H46 C40 1_555 1_555
C41 H47 1_555 1_555
H48 C41 1_555 1_555
H49 C41 1_555 1_555
C42 C39 1_555 1_555
C43 O10 1_555 1_555
C44 N6 1_555 1_555
C45 C44 1_555 1_555
H50 C45 1_555 1_555
C46 C45 1_555 1_555
H51 C46 1_555 1_555
C47 C46 1_555 1_555
C48 C47 1_555 1_555
H52 C48 1_555 1_555
C49 C44 1_555 1_555
C50 C49 1_555 1_555
C51 N6 1_555 1_555
C52 H53 1_555 1_555
H54 C52 1_555 1_555
H55 C52 1_555 1_555
C53 O12 1_555 1_555
C54 C50 1_555 1_555
H56 C54 1_555 1_555
C55 C54 1_555 1_555
H57 C55 1_555 1_555
H58 C55 1_555 1_555
C56 N8 1_555 1_555
H59 C56 1_555 1_555
C57 C56 1_555 1_555
C58 C57 1_555 1_555
C59 C58 1_555 1_555
H60 C59 1_555 1_555
C60 C59 1_555 1_555
H61 C60 1_555 1_555
C61 C60 1_555 1_555
H62 C61 1_555 1_555
C62 C61 1_555 1_555
H63 C62 1_555 1_555
C63 N7 1_555 1_555
C64 N7 1_555 1_555
C65 N9 1_555 1_555
C66 N8 1_555 1_555
C67 N10 1_555 1_555
C68 C67 1_555 1_555
H64 C68 1_555 1_555
C69 C68 1_555 1_555
H65 C69 1_555 1_555
C70 C69 1_555 1_555
H66 C70 1_555 1_555
C71 C70 1_555 1_555
H67 C71 1_555 1_555
C72 C67 1_555 1_555
C73 C72 1_555 1_555
C74 C73 1_555 1_555
H68 C74 1_555 1_555
H69 C74 1_555 1_555
H70 C74 1_555 1_555
C75 C73 1_555 1_555
H71 C75 1_555 1_555
H72 C75 1_555 1_555
H73 C75 1_555 1_555
C76 C73 1_555 1_555
H74 C76 1_555 1_555
H75 C76 1_555 1_555
H76 C76 1_555 1_555
Br3 C85 1_555 1_555
O15 C89 1_555 1_555
O16 C81 1_555 1_555
O17 C80 1_555 1_555
O18 C91 1_555 1_555
O19 C90 1_555 1_555
O20 C102 1_555 1_555
O21 C103 1_555 1_555
N11 C81 1_555 1_555
N12 H77 1_555 1_555
N13 H78 1_555 1_555
N14 N13 1_555 1_555
N15 C102 1_555 1_555
C77 H79 1_555 1_555
H80 C77 1_555 1_555
H81 C77 1_555 1_555
C78 H82 1_555 1_555
H83 C78 1_555 1_555
H84 C78 1_555 1_555
C79 H85 1_555 1_555
H86 C79 1_555 1_555
H87 C79 1_555 1_555
C80 C77 1_555 1_555
C81 O17 1_555 1_555
C82 N11 1_555 1_555
C83 C82 1_555 1_555
H88 C83 1_555 1_555
C84 C83 1_555 1_555
H89 C84 1_555 1_555
C85 C84 1_555 1_555
C86 C85 1_555 1_555
H90 C86 1_555 1_555
C87 C82 1_555 1_555
C88 C87 1_555 1_555
C89 N11 1_555 1_555
C90 H91 1_555 1_555
H92 C90 1_555 1_555
H93 C90 1_555 1_555
C91 O19 1_555 1_555
C92 C88 1_555 1_555
H94 C92 1_555 1_555
C93 C92 1_555 1_555
H95 C93 1_555 1_555
H96 C93 1_555 1_555
C94 N14 1_555 1_555
H97 C94 1_555 1_555
C95 C94 1_555 1_555
C96 C95 1_555 1_555
C97 C96 1_555 1_555
H98 C97 1_555 1_555
C98 C97 1_555 1_555
H99 C98 1_555 1_555
C99 C98 1_555 1_555
H100 C99 1_555 1_555
C100 C99 1_555 1_555
H101 C100 1_555 1_555
C101 N12 1_555 1_555
C102 N14 1_555 1_555
C103 N13 1_555 1_555
C104 N15 1_555 1_555
C105 C104 1_555 1_555
H102 C105 1_555 1_555
C106 C105 1_555 1_555
H103 C106 1_555 1_555
C107 C106 1_555 1_555
H104 C107 1_555 1_555
C108 C107 1_555 1_555
H105 C108 1_555 1_555
C109 C104 1_555 1_555
C110 C109 1_555 1_555
C111 C110 1_555 1_555
H106 C111 1_555 1_555
H107 C111 1_555 1_555
H108 C111 1_555 1_555
C112 C110 1_555 1_555
H109 C112 1_555 1_555
H110 C112 1_555 1_555
H111 C112 1_555 1_555
C113 C110 1_555 1_555
H112 C113 1_555 1_555
H113 C113 1_555 1_555
H114 C113 1_555 1_555
C114 N12 1_555 1_555
Br4 C123 1_555 1_555
O22 C127 1_555 1_555
O23 C119 1_555 1_555
O24 C118 1_555 1_555
O25 C129 1_555 1_555
O26 C128 1_555 1_555
O27 C142 1_555 1_555
O28 C141 1_555 1_555
N16 C119 1_555 1_555
N17 H115 1_555 1_555
N18 N19 1_555 1_555
N19 H116 1_555 1_555
N20 C141 1_555 1_555
C115 H117 1_555 1_555
H118 C115 1_555 1_555
H119 C115 1_555 1_555
C116 H120 1_555 1_555
H121 C116 1_555 1_555
H122 C116 1_555 1_555
C117 H123 1_555 1_555
H124 C117 1_555 1_555
H125 C117 1_555 1_555
C118 C115 1_555 1_555
C119 O24 1_555 1_555
C120 N16 1_555 1_555
C121 C120 1_555 1_555
H126 C121 1_555 1_555
C122 C121 1_555 1_555
H127 C122 1_555 1_555
C123 C122 1_555 1_555
C124 C123 1_555 1_555
H128 C124 1_555 1_555
C125 C120 1_555 1_555
C126 C125 1_555 1_555
C127 N16 1_555 1_555
C128 H129 1_555 1_555
H130 C128 1_555 1_555
H131 C128 1_555 1_555
C129 O26 1_555 1_555
C130 C126 1_555 1_555
H132 C130 1_555 1_555
C131 C130 1_555 1_555
H133 C131 1_555 1_555
H134 C131 1_555 1_555
C132 N18 1_555 1_555
H135 C132 1_555 1_555
C133 C132 1_555 1_555
C134 C133 1_555 1_555
C135 C134 1_555 1_555
H136 C135 1_555 1_555
C136 C135 1_555 1_555
H137 C136 1_555 1_555
C137 C136 1_555 1_555
H138 C137 1_555 1_555
C138 C137 1_555 1_555
H139 C138 1_555 1_555
C139 N17 1_555 1_555
C140 N17 1_555 1_555
C141 N19 1_555 1_555
C142 N18 1_555 1_555
C143 N20 1_555 1_555
C144 C143 1_555 1_555
H140 C144 1_555 1_555
C145 C144 1_555 1_555
H141 C145 1_555 1_555
C146 C145 1_555 1_555
H142 C146 1_555 1_555
C147 C146 1_555 1_555
H143 C147 1_555 1_555
C148 C143 1_555 1_555
C149 C148 1_555 1_555
C150 C149 1_555 1_555
H144 C150 1_555 1_555
H145 C150 1_555 1_555
H146 C150 1_555 1_555
C151 C149 1_555 1_555
H147 C151 1_555 1_555
H148 C151 1_555 1_555
H149 C151 1_555 1_555
C152 C149 1_555 1_555
H150 C152 1_555 1_555
H151 C152 1_555 1_555
H152 C152 1_555 1_555
Cl1 C153 1_555 1_555
Cl2 C153 1_555 1_555
C153 H153 1_555 1_555
H154 C153 1_555 1_555
Cl3 C154 1_555 1_555
Cl4 C154 1_555 1_555
C154 H155 1_555 1_555
H156 C154 1_555 1_555
Cl5 C155 1_555 1_555
Cl6 C155 1_555 1_555
C155 H157 1_555 1_555
H158 C155 1_555 1_555
Cl7 C156 1_555 1_555
Cl8 C156 1_555 1_555
C156 H159 1_555 1_555
H160 C156 1_555 1_555
Cl9 C157 1_555 1_555
Cl10 C157 1_555 1_555
C157 H161 1_555 1_555
H162 C157 1_555 1_555
Cl11 C158 1_555 1_555
Cl12 C158 1_555 1_555
C158 H163 1_555 1_555
H164 C158 1_555 1_555
Cl13 C159 1_555 1_555
Cl14 C159 1_555 1_555
C159 H165 1_555 1_555
H166 C159 1_555 1_555
Cl15 C160 1_555 1_555
C160 H167 1_555 1_555
H168 C160 1_555 1_555
Cl16 C160 1_555 1_555
N5 C28 1_555 1_555
C2 C4 1_555 1_555
C3 C4 1_555 1_555
C10 C11 1_555 1_555
C12 C13 1_555 1_555
C12 C26 1_555 1_555
C15 C16 1_555 1_555
C17 C18 1_555 1_555
C19 C26 1_555 1_555
C20 C25 1_555 1_555
C24 C25 1_555 1_555
C33 C34 1_555 1_555
N10 C66 1_555 1_555
C40 C42 1_555 1_555
C41 C42 1_555 1_555
C48 C49 1_555 1_555
C50 C51 1_555 1_555
C50 C64 1_555 1_555
C53 C54 1_555 1_555
C55 C56 1_555 1_555
C57 C64 1_555 1_555
C58 C63 1_555 1_555
C62 C63 1_555 1_555
C71 C72 1_555 1_555
N15 C103 1_555 1_555
C78 C80 1_555 1_555
C79 C80 1_555 1_555
C86 C87 1_555 1_555
C88 C89 1_555 1_555
C88 C114 1_555 1_555
C91 C92 1_555 1_555
C93 C94 1_555 1_555
C95 C114 1_555 1_555
C96 C101 1_555 1_555
C100 C101 1_555 1_555
C108 C109 1_555 1_555
N20 C142 1_555 1_555
C116 C118 1_555 1_555
C117 C118 1_555 1_555
C124 C125 1_555 1_555
C126 C127 1_555 1_555
C126 C140 1_555 1_555
C129 C130 1_555 1_555
C131 C132 1_555 1_555
C133 C140 1_555 1_555
C134 C139 1_555 1_555
C138 C139 1_555 1_555
C147 C148 1_555 1_555

#END
