
#######################################################################
#
#                 Cambridge Crystallographic Data Centre
#                                CCDC 
#
#######################################################################
#
# If this CIF has been generated from an entry in the Cambridge 
# Structural Database, then it will include bibliographic, chemical, 
# crystal, experimental, refinement or atomic coordinate data resulting 
# from the CCDC's data processing and validation procedures.
#
#######################################################################

data_GIGMOA
_chemical_formula_moiety         'C22 H18 N2 O2'
_chemical_name_systematic        
3-Benzyl-6-methoxy-2-phenylquinazolin-4(3H)-one
_symmetry_cell_setting           monoclinic
_symmetry_space_group_name_H-M   'C 2/c'
_symmetry_Int_Tables_number      15
_space_group_name_Hall           '-C 2yn'
loop_
_symmetry_equiv_pos_site_id
_symmetry_equiv_pos_as_xyz
1 x,y,z
2 -x,y,1/2-z
3 1/2+x,1/2+y,z
4 1/2-x,1/2+y,1/2-z
5 -x,-y,-z
6 x,-y,1/2+z
7 1/2-x,1/2-y,-z
8 1/2+x,1/2-y,1/2+z
_cell_length_a                   27.442(3)
_cell_length_b                   5.3305(4)
_cell_length_c                   23.203(2)
_cell_angle_alpha                90
_cell_angle_beta                 93.549(3)
_cell_angle_gamma                90
_cell_volume                     3387.62
_exptl_crystal_colour            colorless
_exptl_crystal_description       plate
_cell_formula_units_Z            8
loop_
_atom_site_label
_atom_site_type_symbol
_atom_site_fract_x
_atom_site_fract_y
_atom_site_fract_z
C1 C 0.09546(7) 0.9334(4) 0.03580(9)
C2 C 0.18150(7) 0.9106(3) 0.06990(8)
C3 C 0.16011(7) 1.2010(4) -0.00031(8)
C4 C 0.17466(7) 1.4000(4) -0.03514(8)
H1 H 0.2082 1.4441 -0.0355
C5 C 0.14021(7) 1.5306(4) -0.06860(9)
H2 H 0.1501 1.6665 -0.0917
C6 C 0.09068(7) 1.4653(4) -0.06907(9)
C7 C 0.07535(7) 1.2686(4) -0.03628(9)
H3 H 0.0419 1.2228 -0.0372
C8 C 0.11060(7) 1.1368(3) -0.00137(8)
C9 C 0.12034(7) 0.6233(4) 0.11024(9)
H4 H 0.1481 0.5045 0.1145
H5 H 0.0921 0.5315 0.0919
C10 C 0.10754(7) 0.7076(4) 0.16970(9)
C11 C 0.0737(5) 0.897(2) 0.1766(3)
H6 H 0.0593 0.9813 0.1437
C12 C 0.0609(5) 0.963(2) 0.2315(4)
H7 H 0.0383 1.0956 0.2360
C13 C 0.1128(5) 0.653(3) 0.2729(6)
H8 H 0.1267 0.5662 0.3057
C14 C 0.1260(4) 0.585(2) 0.2184(5)
H9 H 0.1483 0.4506 0.2146
C15 C 0.08073(9) 0.8375(5) 0.28022(11)
H10 H 0.0709 0.8793 0.3176
C16 C 0.21943(7) 0.8046(4) 0.11244(9)
C17 C 0.22994(8) 0.9334(4) 0.16350(10)
H11 H 0.2111 1.0764 0.1723
C18 C 0.26765(9) 0.8559(4) 0.20198(10)
H12 H 0.2748 0.9472 0.2366
C19 C 0.29477(7) 0.6460(4) 0.18997(9)
H13 H 0.3204 0.5915 0.2165
C20 C 0.28452(8) 0.5162(4) 0.13938(10)
H14 H 0.3031 0.3718 0.1310
C21 C 0.24702(8) 0.5954(4) 0.10032(10)
H15 H 0.2403 0.5058 0.0653
C22 C 0.00963(8) 1.5721(6) -0.10248(13)
H16 H 0.0019 1.4000 -0.1148
H17 H -0.0079 1.6905 -0.1286
H18 H -0.0003 1.5975 -0.0630
N1 N 0.13350(6) 0.8292(3) 0.07166(7)
N2 N 0.19549(6) 1.0831(3) 0.03562(7)
O1 O 0.05351(5) 0.8579(3) 0.03820(7)
O2 O 0.06090(5) 1.6135(3) -0.10400(7)
C23? C 0.0892(4) 0.9462(19) 0.1814(5)
H19? H 0.0860 1.0679 0.1515
C24? C 0.0754(5) 1.007(3) 0.2366(5)
H20? H 0.0623 1.1678 0.2437
C25? C 0.1009(7) 0.599(4) 0.2698(8)
H21? H 0.1051 0.4811 0.3005
C26? C 0.1144(6) 0.536(3) 0.2152(7)
H22? H 0.1284 0.3763 0.2086
loop_
_geom_bond_atom_site_label_1
_geom_bond_atom_site_label_2
_geom_bond_site_symmetry_1
_geom_bond_site_symmetry_2
C1 C8 1_555 1_555
C2 C16 1_555 1_555
C3 C4 1_555 1_555
C4 H1 1_555 1_555
C5 C4 1_555 1_555
H2 C5 1_555 1_555
C6 C5 1_555 1_555
C7 C6 1_555 1_555
H3 C7 1_555 1_555
C8 C3 1_555 1_555
C9 H4 1_555 1_555
H5 C9 1_555 1_555
C10 C9 1_555 1_555
C11 C10 1_555 1_555
H6 C11 1_555 1_555
C12 C11 1_555 1_555
H7 C12 1_555 1_555
C13 H8 1_555 1_555
C14 C10 1_555 1_555
H9 C14 1_555 1_555
C15 C12 1_555 1_555
H10 C15 1_555 1_555
C16 C17 1_555 1_555
C17 H11 1_555 1_555
C18 C17 1_555 1_555
H12 C18 1_555 1_555
C19 C18 1_555 1_555
H13 C19 1_555 1_555
C20 C19 1_555 1_555
H14 C20 1_555 1_555
C21 C16 1_555 1_555
H15 C21 1_555 1_555
C22 H16 1_555 1_555
H17 C22 1_555 1_555
H18 C22 1_555 1_555
N1 C1 1_555 1_555
N2 C2 1_555 1_555
O1 C1 1_555 1_555
O2 C6 1_555 1_555
C2 N1 1_555 1_555
C3 N2 1_555 1_555
C7 C8 1_555 1_555
C9 N1 1_555 1_555
C13 C14 1_555 1_555
C13 C15 1_555 1_555
C20 C21 1_555 1_555
C22 O2 1_555 1_555

#END
