
#######################################################################
#
#                 Cambridge Crystallographic Data Centre
#                                CCDC 
#
#######################################################################
#
# If this CIF has been generated from an entry in the Cambridge 
# Structural Database, then it will include bibliographic, chemical, 
# crystal, experimental, refinement or atomic coordinate data resulting 
# from the CCDC's data processing and validation procedures.
#
#######################################################################

data_GIGMEQ
_chemical_formula_moiety         'C30 H23 N3 O1'
_chemical_name_systematic        
3,7-Dibenzyl-2-phenyl-3,7-dihydro-4H-pyrrolo[2,3-h]quinazolin-4-one
_symmetry_cell_setting           orthorhombic
_symmetry_space_group_name_H-M   'P n a 21'
_symmetry_Int_Tables_number      33
_space_group_name_Hall           'P 2c -2n'
loop_
_symmetry_equiv_pos_site_id
_symmetry_equiv_pos_as_xyz
1 x,y,z
2 -x,-y,1/2+z
3 1/2+x,1/2-y,z
4 1/2-x,1/2+y,1/2+z
_cell_length_a                   36.9495(8)
_cell_length_b                   10.6830(2)
_cell_length_c                   5.61100(10)
_cell_angle_alpha                90
_cell_angle_beta                 90
_cell_angle_gamma                90
_cell_volume                     2214.84
_exptl_crystal_colour            colorless
_exptl_crystal_description       needle
_cell_formula_units_Z            4
loop_
_atom_site_label
_atom_site_type_symbol
_atom_site_fract_x
_atom_site_fract_y
_atom_site_fract_z
C1 C -0.00926(6) 0.2336(2) 0.4900(5)
H1 H 0.0021 0.2891 0.3809
C2 C -0.04319(6) 0.1840(2) 0.4375(5)
H2 H -0.0549 0.2060 0.2926
C3 C -0.05997(6) 0.1030(2) 0.5949(5)
H3 H -0.0832 0.0696 0.5588
C4 C -0.04274(6) 0.0709(2) 0.8054(5)
H4 H -0.0541 0.0151 0.9138
C5 C -0.00878(6) 0.1200(2) 0.8589(5)
H5 H 0.0029 0.0973 1.0034
C6 C 0.00806(6) 0.2019(2) 0.7021(5)
C7 C 0.04455(6) 0.2552(2) 0.7715(5)
H6 H 0.0433 0.2851 0.9382
H7 H 0.0628 0.1874 0.7649
C8 C 0.04463(7) 0.4798(2) 0.6411(5)
H8 H 0.0283 0.5097 0.7589
C9 C 0.06001(6) 0.5516(2) 0.4659(5)
H9 H 0.0564 0.6386 0.4403
C10 C 0.08255(6) 0.47019(19) 0.3296(5)
C11 C 0.07926(6) 0.3494(2) 0.4290(5)
C12 C 0.09786(6) 0.2454(2) 0.3363(5)
H10 H 0.0955 0.1650 0.4068
C13 C 0.11963(6) 0.2635(2) 0.1404(5)
H11 H 0.1319 0.1942 0.0721
C14 C 0.12394(6) 0.38410(19) 0.0392(5)
C15 C 0.10631(5) 0.48847(19) 0.1362(5)
C16 C 0.13401(5) 0.62311(19) -0.1251(4)
C17 C 0.14744(6) 0.40124(19) -0.1647(5)
C18 C 0.17643(6) 0.5489(2) -0.4392(5)
H12 H 0.1653 0.6087 -0.5525
H13 H 0.1807 0.4695 -0.5256
C19 C 0.21187(15) 0.6014(6) -0.3598(12)
C20 C 0.23200(15) 0.5332(6) -0.1968(14)
H14 H 0.2233 0.4548 -0.1418
C21 C 0.26485(16) 0.5788(8) -0.1133(15)
H15 H 0.2781 0.5320 0.0013
C22 C 0.27845(19) 0.6905(10) -0.1941(17)
H16 H 0.3008 0.7216 -0.1354
C23 C 0.25909(16) 0.7570(6) -0.3619(17)
H17 H 0.2685 0.8335 -0.4221
C24 C 0.22600(14) 0.7128(6) -0.4436(14)
H18 H 0.2129 0.7598 -0.5587
C25 C 0.14197(6) 0.75431(19) -0.2010(5)
C26 C 0.12953(6) 0.8042(2) -0.4142(5)
H19 H 0.1166 0.7530 -0.5236
C27 C 0.13600(6) 0.9299(2) -0.4676(5)
H20 H 0.1276 0.9638 -0.6141
C28 C 0.15452(7) 1.0054(2) -0.3086(5)
H21 H 0.1584 1.0913 -0.3441
C29 C 0.16729(7) 0.9549(2) -0.0974(5)
H22 H 0.1805 1.0059 0.0105
C30 C 0.16088(6) 0.8301(2) -0.0422(5)
H23 H 0.1694 0.7964 0.1040
N1 N 0.05643(5) 0.35734(18) 0.6206(4)
N2 N 0.11228(5) 0.60913(16) 0.0548(4)
N3 N 0.15092(5) 0.52565(16) -0.2437(4)
O1 O 0.16389(5) 0.31669(15) -0.2661(4)
H24? H 0.1656 0.6099 -0.5513
H25? H 0.1805 0.4699 -0.5273
C31? C 0.21320(10) 0.6000(5) -0.3507(8)
C32? C 0.22433(10) 0.5961(5) -0.1142(7)
H26? H 0.2092 0.5591 0.0032
C33? C 0.25761(11) 0.6464(5) -0.0494(7)
H27? H 0.2652 0.6438 0.1122
C34? C 0.27974(10) 0.7005(6) -0.2211(9)
H28? H 0.3025 0.7349 -0.1769
C35? C 0.26861(11) 0.7044(5) -0.4577(8)
H29? H 0.2837 0.7414 -0.5750
C36? C 0.23533(11) 0.6541(5) -0.5224(7)
H30? H 0.2277 0.6567 -0.6841
loop_
_geom_bond_atom_site_label_1
_geom_bond_atom_site_label_2
_geom_bond_site_symmetry_1
_geom_bond_site_symmetry_2
C1 H1 1_555 1_555
C2 C1 1_555 1_555
H2 C2 1_555 1_555
C3 C2 1_555 1_555
H3 C3 1_555 1_555
C4 C3 1_555 1_555
H4 C4 1_555 1_555
C5 C4 1_555 1_555
H5 C5 1_555 1_555
C6 C1 1_555 1_555
C7 C6 1_555 1_555
H6 C7 1_555 1_555
H7 C7 1_555 1_555
C8 H8 1_555 1_555
C9 C8 1_555 1_555
H9 C9 1_555 1_555
C10 C9 1_555 1_555
C11 C10 1_555 1_555
C12 C11 1_555 1_555
H10 C12 1_555 1_555
C13 C12 1_555 1_555
H11 C13 1_555 1_555
C14 C13 1_555 1_555
C15 C10 1_555 1_555
C16 C25 1_555 1_555
C17 C14 1_555 1_555
C18 H12 1_555 1_555
H13 C18 1_555 1_555
C19 C18 1_555 1_555
C20 C19 1_555 1_555
H14 C20 1_555 1_555
C21 C20 1_555 1_555
H15 C21 1_555 1_555
C22 C21 1_555 1_555
H16 C22 1_555 1_555
C23 C22 1_555 1_555
H17 C23 1_555 1_555
C24 C19 1_555 1_555
H18 C24 1_555 1_555
C25 C26 1_555 1_555
C26 H19 1_555 1_555
C27 C26 1_555 1_555
H20 C27 1_555 1_555
C28 C27 1_555 1_555
H21 C28 1_555 1_555
C29 C28 1_555 1_555
H22 C29 1_555 1_555
C30 C25 1_555 1_555
H23 C30 1_555 1_555
N1 C7 1_555 1_555
N2 C15 1_555 1_555
N3 C16 1_555 1_555
O1 C17 1_555 1_555
C5 C6 1_555 1_555
C8 N1 1_555 1_555
C11 N1 1_555 1_555
C14 C15 1_555 1_555
C16 N2 1_555 1_555
C17 N3 1_555 1_555
C18 N3 1_555 1_555
C23 C24 1_555 1_555
C29 C30 1_555 1_555

#END
