
#######################################################################
#
#                 Cambridge Crystallographic Data Centre
#                                CCDC 
#
#######################################################################
#
# If this CIF has been generated from an entry in the Cambridge 
# Structural Database, then it will include bibliographic, chemical, 
# crystal, experimental, refinement or atomic coordinate data resulting 
# from the CCDC's data processing and validation procedures.
#
#######################################################################

data_GIGRAQ
_chemical_formula_moiety         'C18 H16 N4 O2 S1'
_chemical_name_systematic        
3-(4-Ethoxyphenyl)-6-(phenoxymethyl)-1,2,4-triazolo[3,4-b](1,3,4)-thiadiazole
_symmetry_cell_setting           monoclinic
_symmetry_space_group_name_H-M   'P 21/c'
_symmetry_Int_Tables_number      14
_space_group_name_Hall           '-P 2ybc'
loop_
_symmetry_equiv_pos_site_id
_symmetry_equiv_pos_as_xyz
1 x,y,z
2 -x,1/2+y,1/2-z
3 -x,-y,-z
4 x,1/2-y,1/2+z
_cell_length_a                   14.903(3)
_cell_length_b                   12.530(2)
_cell_length_c                   9.6915(16)
_cell_angle_alpha                90
_cell_angle_beta                 100.930(3)
_cell_angle_gamma                90
_cell_volume                     1776.91
_exptl_crystal_colour            colorless
_exptl_crystal_description       block
_chemical_melting_point          '145-148 deg.C'
_cell_formula_units_Z            4
_exptl_crystal_recrystallization_method ethanol
loop_
_atom_site_label
_atom_site_type_symbol
_atom_site_fract_x
_atom_site_fract_y
_atom_site_fract_z
S1 S 0.89081(7) 0.88046(9) 0.07737(10)
O1 O 0.7313(2) 0.7854(3) 0.1219(4)
O2 O 1.2762(2) 0.9021(2) 0.9256(3)
N1 N 0.9425(2) 0.8320(2) 0.3440(3)
N2 N 1.0078(2) 0.8965(2) 0.3040(3)
N3 N 1.0578(3) 0.9955(4) 0.1470(4)
N4 N 1.1185(2) 1.0015(3) 0.2761(4)
C1 C 0.6459(3) 0.7409(4) 0.0978(5)
C2 C 0.6249(4) 0.6494(4) 0.1574(6)
H1 H 0.6693 0.6125 0.2198
C3 C 0.5365(5) 0.6111(6) 0.1242(8)
H2 H 0.5213 0.5480 0.1649
C4 C 0.4717(4) 0.6643(7) 0.0334(8)
H3 H 0.4127 0.6370 0.0104
C5 C 0.4926(4) 0.7564(8) -0.0235(8)
H4 H 0.4480 0.7930 -0.0858
C6 C 0.5801(4) 0.7972(7) 0.0099(7)
H5 H 0.5942 0.8623 -0.0271
C7 C 0.7963(3) 0.7523(3) 0.2379(4)
H6 H 0.8100 0.6771 0.2307
H7 H 0.7741 0.7641 0.3245
C8 C 0.8790(3) 0.8183(3) 0.2348(4)
C9 C 0.9930(3) 0.9313(3) 0.1687(4)
C10 C 1.0880(3) 0.9426(3) 0.3693(4)
C11 C 1.1336(2) 0.9283(3) 0.5162(4)
C12 C 1.0947(3) 0.8729(3) 0.6129(4)
H8 H 1.0370 0.8429 0.5852
C13 C 1.1404(3) 0.8612(3) 0.7506(4)
H9 H 1.1138 0.8228 0.8144
C14 C 1.2256(3) 0.9067(3) 0.7925(4)
C15 C 1.2644(3) 0.9629(3) 0.6962(5)
H10 H 1.3217 0.9940 0.7241
C16 C 1.2194(3) 0.9734(3) 0.5597(5)
H11 H 1.2466 1.0111 0.4958
C17 C 1.2400(3) 0.8477(4) 1.0309(5)
H12 H 1.2339 0.7722 1.0089
H13 H 1.1800 0.8757 1.0361
C18 C 1.3045(4) 0.8638(5) 1.1692(6)
H14 H 1.3630 0.8337 1.1640
H15 H 1.2803 0.8293 1.2427
H16 H 1.3112 0.9388 1.1889
loop_
_geom_bond_atom_site_label_1
_geom_bond_atom_site_label_2
_geom_bond_site_symmetry_1
_geom_bond_site_symmetry_2
S1 C8 1_555 1_555
O1 C1 1_555 1_555
O2 C14 1_555 1_555
N1 N2 1_555 1_555
N2 C9 1_555 1_555
N3 N4 1_555 1_555
N4 C10 1_555 1_555
C1 C2 1_555 1_555
C2 H1 1_555 1_555
C3 C2 1_555 1_555
H2 C3 1_555 1_555
C4 C3 1_555 1_555
H3 C4 1_555 1_555
C5 C4 1_555 1_555
H4 C5 1_555 1_555
C6 C1 1_555 1_555
H5 C6 1_555 1_555
C7 O1 1_555 1_555
H6 C7 1_555 1_555
H7 C7 1_555 1_555
C8 N1 1_555 1_555
C9 S1 1_555 1_555
C10 N2 1_555 1_555
C11 C10 1_555 1_555
C12 C11 1_555 1_555
H8 C12 1_555 1_555
C13 C12 1_555 1_555
H9 C13 1_555 1_555
C14 C13 1_555 1_555
C15 C14 1_555 1_555
H10 C15 1_555 1_555
C16 C11 1_555 1_555
H11 C16 1_555 1_555
C17 O2 1_555 1_555
H12 C17 1_555 1_555
H13 C17 1_555 1_555
C18 C17 1_555 1_555
H14 C18 1_555 1_555
H15 C18 1_555 1_555
H16 C18 1_555 1_555
N3 C9 1_555 1_555
C5 C6 1_555 1_555
C7 C8 1_555 1_555
C15 C16 1_555 1_555

#END
