
#######################################################################
#
#                 Cambridge Crystallographic Data Centre
#                                CCDC 
#
#######################################################################
#
# If this CIF has been generated from an entry in the Cambridge 
# Structural Database, then it will include bibliographic, chemical, 
# crystal, experimental, refinement or atomic coordinate data resulting 
# from the CCDC's data processing and validation procedures.
#
#######################################################################

data_GIGVEZ
_chemical_formula_moiety         'C24 H17 N3 O3,C3 H7 N1 O1'
_chemical_name_systematic        
"2-Amino-1-(4-methylphenyl)-1',3',5-trioxo-1,1',3',5,6,7-hexahydrospiro[cyclopenta[b]pyridine-4,2'-indene]-3-carbonitrile N,N-dimethylformamide solvate"
_symmetry_cell_setting           triclinic
_symmetry_space_group_name_H-M   'P -1'
_symmetry_Int_Tables_number      2
_space_group_name_Hall           '-P 1'
loop_
_symmetry_equiv_pos_site_id
_symmetry_equiv_pos_as_xyz
1 x,y,z
2 -x,-y,-z
_cell_length_a                   7.8791(10)
_cell_length_b                   11.8017(17)
_cell_length_c                   14.1174(18)
_cell_angle_alpha                67.323(4)
_cell_angle_beta                 78.822(4)
_cell_angle_gamma                86.729(4)
_cell_volume                     1188.04
_cell_formula_units_Z            2
loop_
_atom_site_label
_atom_site_type_symbol
_atom_site_fract_x
_atom_site_fract_y
_atom_site_fract_z
C1 C 1.3234(2) 0.56799(16) 0.12468(13)
C2 C 1.4931(2) 0.52907(18) 0.12469(14)
H1 H 1.5801 0.5804 0.1227
C3 C 1.5287(2) 0.41230(18) 0.12767(15)
H2 H 1.6409 0.3836 0.1292
C4 C 1.3991(2) 0.33695(18) 0.12839(15)
H3 H 1.4270 0.2595 0.1280
C5 C 1.2293(2) 0.37450(17) 0.12974(14)
H4 H 1.1427 0.3232 0.1313
C6 C 1.1929(2) 0.49076(16) 0.12874(13)
C7 C 1.0255(2) 0.55225(16) 0.13157(14)
C8 C 1.0516(2) 0.67292(15) 0.14554(13)
C9 C 1.2512(2) 0.68820(16) 0.11871(13)
C10 C 0.9543(2) 0.77662(15) 0.08100(13)
C11 C 0.9779(2) 0.82654(16) -0.03163(14)
C12 C 0.8411(2) 0.92208(18) -0.06303(14)
H5 H 0.7682 0.8998 -0.1014
H6 H 0.8946 1.0018 -0.1068
C13 C 0.7353(2) 0.92537(17) 0.03794(14)
H7 H 0.7412 1.0061 0.0403
H8 H 0.6152 0.9031 0.0462
C14 C 0.8204(2) 0.83176(15) 0.11978(13)
C15 C 0.9900(2) 0.65517(16) 0.25956(13)
C16 C 1.0760(2) 0.57020(19) 0.33550(15)
C17 C 0.8551(2) 0.71661(16) 0.29443(13)
C18 C 0.6072(2) 0.85606(17) 0.26090(13)
C19 C 0.4569(2) 0.7866(2) 0.29721(15)
H9 H 0.4575 0.7065 0.3000
C20 C 0.3047(3) 0.8370(3) 0.32958(17)
H10 H 0.2028 0.7902 0.3537
C21 C 0.3014(3) 0.9546(3) 0.32671(17)
C22 C 0.1343(4) 1.0105(3) 0.3608(2)
H11 H 0.0963 1.0699 0.3005
H12 H 0.1536 1.0499 0.4060
H13 H 0.0473 0.9470 0.3976
C23 C 0.4539(4) 1.0215(2) 0.29032(18)
H14 H 0.4536 1.1014 0.2877
C24 C 0.6082(3) 0.97352(19) 0.25736(15)
H15 H 0.7102 1.0202 0.2333
N1 N 1.1445(3) 0.5019(2) 0.39845(15)
N2 N 0.8018(2) 0.69807(16) 0.39492(12)
H16 H 0.8526 0.6454 0.4416
H17 H 0.7165 0.7388 0.4131
N3 N 0.76518(17) 0.80468(13) 0.22436(11)
O1 O 0.88859(15) 0.51534(13) 0.12689(12)
O2 O 1.33042(16) 0.78198(12) 0.09694(10)
O3 O 1.08796(17) 0.79560(12) -0.09075(10)
C25 C 0.4530(4) 0.8256(2) 0.55222(19)
H18 H 0.4071 0.9008 0.5498
C26 C 0.1653(4) 0.7437(3) 0.6353(3)
H19 H 0.1437 0.8283 0.6243
H20 H 0.1376 0.6943 0.7087
H21 H 0.0948 0.7176 0.5988
C27 C 0.4036(4) 0.6104(2) 0.6006(2)
H22 H 0.3668 0.5938 0.5462
H23 H 0.3547 0.5494 0.6673
H24 H 0.5275 0.6084 0.5912
N4 N 0.3461(3) 0.7300(2) 0.59636(15)
O4 O 0.6059(2) 0.82583(16) 0.51421(13)
loop_
_geom_bond_atom_site_label_1
_geom_bond_atom_site_label_2
_geom_bond_site_symmetry_1
_geom_bond_site_symmetry_2
C1 C2 1_555 1_555
C2 H1 1_555 1_555
C3 C2 1_555 1_555
H2 C3 1_555 1_555
C4 C3 1_555 1_555
H3 C4 1_555 1_555
C5 C4 1_555 1_555
H4 C5 1_555 1_555
C6 C1 1_555 1_555
C7 C6 1_555 1_555
C8 C7 1_555 1_555
C9 C1 1_555 1_555
C10 C8 1_555 1_555
C11 C10 1_555 1_555
C12 C11 1_555 1_555
H5 C12 1_555 1_555
H6 C12 1_555 1_555
C13 C12 1_555 1_555
H7 C13 1_555 1_555
H8 C13 1_555 1_555
C14 C10 1_555 1_555
C15 C8 1_555 1_555
C16 C15 1_555 1_555
C17 C15 1_555 1_555
C18 C19 1_555 1_555
C19 H9 1_555 1_555
C20 C19 1_555 1_555
H10 C20 1_555 1_555
C21 C20 1_555 1_555
C22 C21 1_555 1_555
H11 C22 1_555 1_555
H12 C22 1_555 1_555
H13 C22 1_555 1_555
C23 C21 1_555 1_555
H14 C23 1_555 1_555
C24 C18 1_555 1_555
H15 C24 1_555 1_555
N1 C16 1_555 1_555
N2 C17 1_555 1_555
H16 N2 1_555 1_555
H17 N2 1_555 1_555
N3 C14 1_555 1_555
O1 C7 1_555 1_555
O2 C9 1_555 1_555
O3 C11 1_555 1_555
C25 H18 1_555 1_555
C26 H19 1_555 1_555
H20 C26 1_555 1_555
H21 C26 1_555 1_555
C27 H22 1_555 1_555
H23 C27 1_555 1_555
H24 C27 1_555 1_555
N4 C25 1_555 1_555
O4 C25 1_555 1_555
C5 C6 1_555 1_555
C8 C9 1_555 1_555
C13 C14 1_555 1_555
C17 N3 1_555 1_555
C18 N3 1_555 1_555
C23 C24 1_555 1_555
C26 N4 1_555 1_555
C27 N4 1_555 1_555

#END
