
#######################################################################
#
#                 Cambridge Crystallographic Data Centre
#                                CCDC 
#
#######################################################################
#
# If this CIF has been generated from an entry in the Cambridge 
# Structural Database, then it will include bibliographic, chemical, 
# crystal, experimental, refinement or atomic coordinate data resulting 
# from the CCDC's data processing and validation procedures.
#
#######################################################################

data_GIGVOJ
_chemical_formula_moiety         'C27 H23 N3 O3'
_chemical_name_systematic        
18-Amino-5,5-dimethyl-8-(4-methylphenyl)-3,16-dioxo-19-oxa-8-azapentacyclo[7.7.3.0^1,9^.0^2,7^.0^10,15^]nonadeca-2(7),10,12,14,17-pentaene-17-carbonitrile
_symmetry_cell_setting           monoclinic
_symmetry_space_group_name_H-M   'P 21'
_symmetry_Int_Tables_number      4
_space_group_name_Hall           'P 2yb'
loop_
_symmetry_equiv_pos_site_id
_symmetry_equiv_pos_as_xyz
1 x,y,z
2 -x,1/2+y,-z
_cell_length_a                   8.6694(9)
_cell_length_b                   12.0461(13)
_cell_length_c                   11.3271(12)
_cell_angle_alpha                90
_cell_angle_beta                 101.098(3)
_cell_angle_gamma                90
_cell_volume                     1160.8
_cell_formula_units_Z            2
loop_
_atom_site_label
_atom_site_type_symbol
_atom_site_fract_x
_atom_site_fract_y
_atom_site_fract_z
C1 C 0.1741(2) 0.35199(16) 0.73933(17)
C2 C 0.3066(2) 0.21541(16) 0.63629(19)
C3 C 0.3079(2) 0.31050(15) 0.71090(16)
C4 C 0.0406(3) 0.6161(2) 0.7875(2)
H1 H 0.0890 0.6403 0.7257
C5 C -0.0730(4) 0.6814(3) 0.8237(3)
H2 H -0.0997 0.7493 0.7860
C6 C -0.1470(2) 0.64764(18) 0.9142(2)
C7 C -0.2730(3) 0.7163(2) 0.9528(3)
H3 H -0.2692 0.7061 1.0373
H4 H -0.3739 0.6935 0.9088
H5 H -0.2564 0.7932 0.9369
C8 C -0.1016(3) 0.5495(2) 0.9673(3)
H6 H -0.1484 0.5253 1.0300
C9 C 0.0118(3) 0.4835(2) 0.9318(3)
H7 H 0.0396 0.4162 0.9703
C10 C 0.0823(2) 0.51639(17) 0.84158(18)
C11 C 0.3666(2) 0.47681(15) 0.82549(16)
C12 C 0.4427(2) 0.38881(15) 0.75501(15)
C13 C 0.4991(2) 0.46115(15) 0.66280(15)
C14 C 0.5663(3) 0.42427(16) 0.56622(17)
C15 C 0.4673(2) 0.56892(16) 0.68309(15)
C16 C 0.5739(2) 0.33722(16) 0.84989(17)
C17 C 0.5592(2) 0.38406(18) 0.96800(16)
C18 C 0.6451(3) 0.3566(2) 1.08037(19)
H8 H 0.7213 0.3013 1.0885
C19 C 0.6161(4) 0.4122(3) 1.1796(2)
H9 H 0.6720 0.3941 1.2557
C20 C 0.5035(4) 0.4953(3) 1.1666(2)
H10 H 0.4859 0.5326 1.2346
C21 C 0.4166(3) 0.5243(2) 1.05520(19)
H11 H 0.3416 0.5804 1.0474
C22 C 0.4457(2) 0.46642(15) 0.95526(16)
C23 C 0.0223(10) 0.2972(7) 0.7154(8)
H12 H -0.0608 0.3523 0.7010
H13 H 0.0095 0.2532 0.7846
C24 C 0.0108(9) 0.2226(5) 0.6059(6)
C25 C -0.1342(13) 0.1463(10) 0.5949(11)
H14 H -0.1402 0.0993 0.5257
H15 H -0.2275 0.1908 0.5862
H16 H -0.1250 0.1014 0.6659
C26 C -0.0006(6) 0.2944(4) 0.4927(4)
H17 H -0.0927 0.3403 0.4836
H18 H -0.0073 0.2474 0.4235
H19 H 0.0911 0.3406 0.5003
C27 C 0.1585(6) 0.1483(5) 0.6204(5)
H20 H 0.1623 0.1003 0.6896
H21 H 0.1515 0.1015 0.5498
N1 N 0.19959(19) 0.45012(13) 0.80085(15)
N2 N 0.4985(2) 0.66098(14) 0.62820(15)
H22 H 0.5470 0.6574 0.5688
H23 H 0.4703 0.7243 0.6519
N3 N 0.6197(3) 0.39720(18) 0.48574(18)
O1 O 0.42353(17) 0.18205(12) 0.60067(13)
O2 O 0.67268(18) 0.27255(13) 0.83102(14)
O3 O 0.39347(16) 0.58496(10) 0.77714(12)
C28? C 0.003(2) 0.3054(16) 0.6792(16)
H24? H -0.0651 0.3090 0.7379
H25? H -0.0421 0.3525 0.6119
C29? C 0.008(2) 0.1837(10) 0.6343(13)
C30? C -0.149(3) 0.159(2) 0.564(2)
H26? H -0.1543 0.0828 0.5401
H27? H -0.1685 0.2056 0.4934
H28? H -0.2266 0.1740 0.6119
C31? C 0.0433(10) 0.1112(7) 0.7481(8)
H29? H -0.0254 0.1319 0.8014
H30? H 0.1505 0.1220 0.7877
H31? H 0.0269 0.0345 0.7261
C32? C 0.1357(14) 0.1745(10) 0.5649(10)
H32? H 0.1072 0.2181 0.4919
H33? H 0.1438 0.0977 0.5413
loop_
_geom_bond_atom_site_label_1
_geom_bond_atom_site_label_2
_geom_bond_site_symmetry_1
_geom_bond_site_symmetry_2
C1 C3 1_555 1_555
C2 C3 1_555 1_555
C3 C12 1_555 1_555
C4 H1 1_555 1_555
C5 C4 1_555 1_555
H2 C5 1_555 1_555
C6 C5 1_555 1_555
C7 C6 1_555 1_555
H3 C7 1_555 1_555
H4 C7 1_555 1_555
H5 C7 1_555 1_555
C8 C6 1_555 1_555
H6 C8 1_555 1_555
C9 C8 1_555 1_555
H7 C9 1_555 1_555
C10 C4 1_555 1_555
C11 C12 1_555 1_555
C12 C13 1_555 1_555
C13 C14 1_555 1_555
C14 N3 1_555 1_555
C15 C13 1_555 1_555
C16 C12 1_555 1_555
C17 C16 1_555 1_555
C18 C17 1_555 1_555
H8 C18 1_555 1_555
C19 C18 1_555 1_555
H9 C19 1_555 1_555
C20 C19 1_555 1_555
H10 C20 1_555 1_555
C21 C20 1_555 1_555
H11 C21 1_555 1_555
C22 C11 1_555 1_555
C23 C1 1_555 1_555
H12 C23 1_555 1_555
H13 C23 1_555 1_555
C24 C23 1_555 1_555
C25 C24 1_555 1_555
H14 C25 1_555 1_555
H15 C25 1_555 1_555
H16 C25 1_555 1_555
C26 C24 1_555 1_555
H17 C26 1_555 1_555
H18 C26 1_555 1_555
H19 C26 1_555 1_555
C27 C2 1_555 1_555
H20 C27 1_555 1_555
H21 C27 1_555 1_555
N1 C1 1_555 1_555
N2 C15 1_555 1_555
H22 N2 1_555 1_555
H23 N2 1_555 1_555
O1 C2 1_555 1_555
O2 C16 1_555 1_555
O3 C11 1_555 1_555
C9 C10 1_555 1_555
C10 N1 1_555 1_555
C11 N1 1_555 1_555
C15 O3 1_555 1_555
C17 C22 1_555 1_555
C21 C22 1_555 1_555
C24 C27 1_555 1_555

#END
