
#######################################################################
#
#                 Cambridge Crystallographic Data Centre
#                                CCDC 
#
#######################################################################
#
# If this CIF has been generated from an entry in the Cambridge 
# Structural Database, then it will include bibliographic, chemical, 
# crystal, experimental, refinement or atomic coordinate data resulting 
# from the CCDC's data processing and validation procedures.
#
#######################################################################

data_GIGXEC
_chemical_formula_moiety         'C30 H52 O2,H2 O1'
_chemical_name_systematic        'hopane-3,22-diol monohydrate'
_symmetry_cell_setting           monoclinic
_symmetry_space_group_name_H-M   'C 2'
_symmetry_Int_Tables_number      5
_space_group_name_Hall           'C 2y'
loop_
_symmetry_equiv_pos_site_id
_symmetry_equiv_pos_as_xyz
1 x,y,z
2 -x,y,-z
3 1/2+x,1/2+y,z
4 1/2-x,1/2+y,-z
_cell_length_a                   32.6725(12)
_cell_length_b                   7.3866(2)
_cell_length_c                   11.0375(3)
_cell_angle_alpha                90
_cell_angle_beta                 96.463(3)
_cell_angle_gamma                90
_cell_volume                     2646.85
_cell_formula_units_Z            4
loop_
_atom_site_label
_atom_site_type_symbol
_atom_site_fract_x
_atom_site_fract_y
_atom_site_fract_z
O1 O 0.46412(9) 0.0999(5) 0.6357(3)
H1 H 0.4691 0.1785 0.5870
O2 O 0.01955(16) 0.0444(10) 0.8091(5)
H2 H 0.0212 0.0480 0.8837
C1 C 0.36079(13) -0.1248(6) 0.6487(4)
H3 H 0.3540 -0.2520 0.6554
H4 H 0.3469 -0.0806 0.5721
C2 C 0.40730(14) -0.1067(7) 0.6464(4)
H5 H 0.4215 -0.1612 0.7193
H6 H 0.4154 -0.1713 0.5764
C3 C 0.41991(12) 0.0886(7) 0.6396(4)
H7 H 0.4063 0.1395 0.5636
C4 C 0.40770(12) 0.2048(6) 0.7469(4)
C5 C 0.36019(12) 0.1769(5) 0.7483(3)
H8 H 0.3480 0.2209 0.6685
C6 C 0.34124(12) 0.2978(6) 0.8404(4)
H9 H 0.3478 0.2489 0.9218
H10 H 0.3530 0.4183 0.8390
C7 C 0.29442(12) 0.3094(6) 0.8103(4)
H11 H 0.2882 0.3698 0.7324
H12 H 0.2833 0.3829 0.8716
C8 C 0.27274(12) 0.1230(6) 0.8043(3)
C9 C 0.29589(12) -0.0127(6) 0.7266(3)
H13 H 0.2910 0.0337 0.6431
C10 C 0.34431(12) -0.0202(6) 0.7548(4)
C11 C 0.27509(12) -0.2009(6) 0.7211(4)
H14 H 0.2882 -0.2775 0.6655
H15 H 0.2792 -0.2560 0.8013
C12 C 0.22924(13) -0.1919(6) 0.6795(4)
H16 H 0.2173 -0.3106 0.6891
H17 H 0.2253 -0.1617 0.5934
C13 C 0.20633(12) -0.0537(6) 0.7494(3)
H18 H 0.2120 -0.0898 0.8351
C14 C 0.22635(13) 0.1380(6) 0.7431(3)
C15 C 0.20240(12) 0.2783(6) 0.8111(4)
H19 H 0.2097 0.2617 0.8981
H20 H 0.2115 0.3984 0.7906
C16 C 0.15539(12) 0.2711(6) 0.7846(4)
H21 H 0.1429 0.3553 0.8371
H22 H 0.1470 0.3046 0.7005
C17 C 0.14144(13) 0.0790(6) 0.8080(4)
H23 H 0.1562 0.0500 0.8878
C18 C 0.15884(12) -0.0587(6) 0.7221(4)
C19 C 0.13997(13) -0.2355(6) 0.7664(4)
H24 H 0.1402 -0.3304 0.7058
H25 H 0.1550 -0.2770 0.8422
C20 C 0.09550(13) -0.1816(6) 0.7851(4)
H26 H 0.0857 -0.2549 0.8488
H27 H 0.0773 -0.2000 0.7104
C21 C 0.09609(13) 0.0211(6) 0.8217(4)
H28 H 0.0942 0.0214 0.9097
C22 C 0.05848(13) 0.1298(7) 0.7660(4)
C23 C 0.41539(14) 0.4038(6) 0.7159(4)
H29 H 0.4137 0.4774 0.7868
H30 H 0.3950 0.4427 0.6517
H31 H 0.4423 0.4158 0.6897
C24 C 0.43382(14) 0.1613(7) 0.8666(4)
H32 H 0.4620 0.1931 0.8604
H33 H 0.4320 0.0342 0.8834
H34 H 0.4239 0.2291 0.9315
C25 C 0.35876(13) -0.1190(6) 0.8748(4)
H35 H 0.3860 -0.1661 0.8713
H36 H 0.3402 -0.2167 0.8863
H37 H 0.3591 -0.0356 0.9416
C26 C 0.27453(13) 0.0578(6) 0.9383(4)
H38 H 0.3020 0.0726 0.9780
H39 H 0.2669 -0.0676 0.9397
H40 H 0.2558 0.1281 0.9802
C27 C 0.22478(13) 0.2074(6) 0.6101(4)
H41 H 0.1979 0.2549 0.5842
H42 H 0.2306 0.1092 0.5576
H43 H 0.2449 0.3011 0.6059
C28 C 0.14289(13) -0.0339(6) 0.5872(4)
H44 H 0.1475 0.0886 0.5632
H45 H 0.1139 -0.0597 0.5751
H46 H 0.1572 -0.1151 0.5387
C29 C 0.05432(10) 0.1143(5) 0.6338(3)
H47 H 0.0424 0.2234 0.5982
H48 H 0.0368 0.0134 0.6090
H49 H 0.0810 0.0959 0.6072
C30 C 0.06013(14) 0.3310(7) 0.7961(5)
H50 H 0.0824 0.3860 0.7599
H51 H 0.0643 0.3467 0.8829
H52 H 0.0347 0.3870 0.7643
O3 O 0.0000 0.3487(7) 0.5000
O4 O 0.0000 0.8612(7) 0.5000
loop_
_geom_bond_atom_site_label_1
_geom_bond_atom_site_label_2
_geom_bond_site_symmetry_1
_geom_bond_site_symmetry_2
O1 H1 1_555 1_555
O2 H2 1_555 1_555
C1 H3 1_555 1_555
H4 C1 1_555 1_555
C2 C1 1_555 1_555
H5 C2 1_555 1_555
H6 C2 1_555 1_555
C3 O1 1_555 1_555
H7 C3 1_555 1_555
C4 C3 1_555 1_555
C5 C4 1_555 1_555
H8 C5 1_555 1_555
C6 C5 1_555 1_555
H9 C6 1_555 1_555
H10 C6 1_555 1_555
C7 C6 1_555 1_555
H11 C7 1_555 1_555
H12 C7 1_555 1_555
C8 C7 1_555 1_555
C9 C8 1_555 1_555
H13 C9 1_555 1_555
C10 C1 1_555 1_555
C11 C9 1_555 1_555
H14 C11 1_555 1_555
H15 C11 1_555 1_555
C12 C11 1_555 1_555
H16 C12 1_555 1_555
H17 C12 1_555 1_555
C13 C12 1_555 1_555
H18 C13 1_555 1_555
C14 C8 1_555 1_555
C15 C14 1_555 1_555
H19 C15 1_555 1_555
H20 C15 1_555 1_555
C16 C15 1_555 1_555
H21 C16 1_555 1_555
H22 C16 1_555 1_555
C17 C16 1_555 1_555
H23 C17 1_555 1_555
C18 C13 1_555 1_555
C19 C18 1_555 1_555
H24 C19 1_555 1_555
H25 C19 1_555 1_555
C20 C19 1_555 1_555
H26 C20 1_555 1_555
H27 C20 1_555 1_555
C21 C17 1_555 1_555
H28 C21 1_555 1_555
C22 O2 1_555 1_555
C23 C4 1_555 1_555
H29 C23 1_555 1_555
H30 C23 1_555 1_555
H31 C23 1_555 1_555
C24 C4 1_555 1_555
H32 C24 1_555 1_555
H33 C24 1_555 1_555
H34 C24 1_555 1_555
C25 C10 1_555 1_555
H35 C25 1_555 1_555
H36 C25 1_555 1_555
H37 C25 1_555 1_555
C26 C8 1_555 1_555
H38 C26 1_555 1_555
H39 C26 1_555 1_555
H40 C26 1_555 1_555
C27 C14 1_555 1_555
H41 C27 1_555 1_555
H42 C27 1_555 1_555
H43 C27 1_555 1_555
C28 C18 1_555 1_555
H44 C28 1_555 1_555
H45 C28 1_555 1_555
H46 C28 1_555 1_555
C29 C22 1_555 1_555
H47 C29 1_555 1_555
H48 C29 1_555 1_555
H49 C29 1_555 1_555
C30 C22 1_555 1_555
H50 C30 1_555 1_555
H51 C30 1_555 1_555
H52 C30 1_555 1_555
C2 C3 1_555 1_555
C5 C10 1_555 1_555
C9 C10 1_555 1_555
C13 C14 1_555 1_555
C17 C18 1_555 1_555
C20 C21 1_555 1_555
C21 C22 1_555 1_555

#END
