
#######################################################################
#
#                 Cambridge Crystallographic Data Centre
#                                CCDC 
#
#######################################################################
#
# If this CIF has been generated from an entry in the Cambridge 
# Structural Database, then it will include bibliographic, chemical, 
# crystal, experimental, refinement or atomic coordinate data resulting 
# from the CCDC's data processing and validation procedures.
#
#######################################################################

data_GIGXAX
_chemical_formula_moiety         '(C16 H27 Cl4 K1 O10)n'
_chemical_name_systematic        
'(Dichloroacetato)-(dichloroacetic acid)-(18-crown-6)-potassium'
_symmetry_cell_setting           monoclinic
_symmetry_space_group_name_H-M   'C 2/c'
_symmetry_Int_Tables_number      15
_space_group_name_Hall           '-C 2yn'
loop_
_symmetry_equiv_pos_site_id
_symmetry_equiv_pos_as_xyz
1 x,y,z
2 -x,y,1/2-z
3 1/2+x,1/2+y,z
4 1/2-x,1/2+y,1/2-z
5 -x,-y,-z
6 x,-y,1/2+z
7 1/2-x,1/2-y,-z
8 1/2+x,1/2-y,1/2+z
_cell_length_a                   20.447(4)
_cell_length_b                   9.0676(15)
_cell_length_c                   14.438(3)
_cell_angle_alpha                90
_cell_angle_beta                 99.704(13)
_cell_angle_gamma                90
_cell_volume                     2638.58
_exptl_crystal_colour            colorless
_exptl_crystal_description       Prism
_cell_formula_units_Z            4
loop_
_atom_site_label
_atom_site_type_symbol
_atom_site_fract_x
_atom_site_fract_y
_atom_site_fract_z
K1 K 0.2500 0.2500 0.0000
Cl1 Cl 0.44195(11) 0.6352(3) 0.14608(17)
Cl2 Cl 0.44425(10) 0.6593(3) -0.05449(16)
O1 O 0.2967(5) 0.5120(9) -0.0326(16)
O2 O 0.31201(19) 0.7413(4) 0.0124(4)
O3 O 0.1930(3) 0.3179(5) 0.1583(3)
O4 O 0.3189(3) 0.1765(5) 0.1817(3)
O5 O 0.38757(19) 0.1747(4) 0.0252(3)
C1 C 0.1222(4) 0.3145(7) 0.1413(5)
H1 H 0.1050 0.3575 0.1955
H2 H 0.1064 0.2113 0.1332
C2 C 0.2192(5) 0.2406(9) 0.2419(5)
H3 H 0.2053 0.1359 0.2364
H4 H 0.2024 0.2844 0.2961
C3 C 0.2951(5) 0.2514(9) 0.2567(5)
H5 H 0.3087 0.3562 0.2580
H6 H 0.3144 0.2060 0.3176
C4 C 0.3869(4) 0.1768(8) 0.1901(5)
H7 H 0.4067 0.1309 0.2505
H8 H 0.4030 0.2797 0.1900
C5 C 0.4081(4) 0.0942(7) 0.1115(5)
H9 H 0.4570 0.0825 0.1232
H10 H 0.3878 -0.0051 0.1065
C6 C 0.4027(4) 0.0994(7) -0.0549(5)
H11 H 0.3817 0.0007 -0.0594
H12 H 0.4513 0.0859 -0.0487
C7 C 0.4047(2) 0.5782(5) 0.0330(3)
H13 H 0.4102 0.4689 0.0294
C8 C 0.33078(13) 0.6114(4) 0.0165(2)
O3F O 0.3070(3) 0.1821(5) -0.1583(3)
O4F O 0.1811(3) 0.3235(5) -0.1817(3)
O5F O 0.11243(19) 0.3253(4) -0.0252(3)
C1F C 0.3778(4) 0.1855(7) -0.1413(5)
H1F H 0.3950 0.1425 -0.1955
H2F H 0.3936 0.2887 -0.1332
C2F C 0.2808(5) 0.2594(9) -0.2419(5)
H3F H 0.2947 0.3641 -0.2364
H4F H 0.2976 0.2156 -0.2961
C3F C 0.2049(5) 0.2486(9) -0.2567(5)
H5F H 0.1913 0.1438 -0.2580
H6F H 0.1856 0.2940 -0.3176
C4F C 0.1131(4) 0.3232(8) -0.1901(5)
H7F H 0.0933 0.3691 -0.2505
H8F H 0.0970 0.2203 -0.1900
C5F C 0.0919(4) 0.4058(7) -0.1115(5)
H9F H 0.0430 0.4175 -0.1232
H10F H 0.1122 0.5051 -0.1065
C6F C 0.0973(4) 0.4006(7) 0.0549(5)
H11F H 0.1183 0.4993 0.0594
H12F H 0.0487 0.4141 0.0487
Cl1F Cl 0.05805(11) -0.1352(3) -0.14608(17)
Cl2F Cl 0.05575(10) -0.1593(3) 0.05449(16)
O1F O 0.2033(5) -0.0120(9) 0.0326(16)
O2F O 0.18799(19) -0.2413(4) -0.0124(4)
C7F C 0.0953(2) -0.0782(5) -0.0330(3)
H13F H 0.0898 0.0311 -0.0294
C8F C 0.16922(13) -0.1114(4) -0.0165(2)
O6? O 0.2989(8) 0.5153(12) 0.0533(19)
Cl3? Cl 0.44831(13) 0.6978(4) 0.1348(2)
Cl4? Cl 0.43181(13) 0.5782(4) 0.1620(2)
Cl5? Cl 0.45461(13) 0.7052(4) -0.0259(2)
Cl6? Cl 0.43301(13) 0.6045(4) -0.0763(2)
H14? H 0.2500 0.7498 0.0000
loop_
_geom_bond_atom_site_label_1
_geom_bond_atom_site_label_2
_geom_bond_site_symmetry_1
_geom_bond_site_symmetry_2
K1 O1 1_555 1_555
Cl1 C7 1_555 1_555
Cl2 C7 1_555 1_555
O1 C8 1_555 1_555
O2 C8 1_555 1_555
O3 K1 1_555 1_555
O4 K1 1_555 1_555
O5 K1 1_555 1_555
C1 O3 1_555 1_555
H1 C1 1_555 1_555
H2 C1 1_555 1_555
C2 O3 1_555 1_555
H3 C2 1_555 1_555
H4 C2 1_555 1_555
C3 O4 1_555 1_555
H5 C3 1_555 1_555
H6 C3 1_555 1_555
C4 O4 1_555 1_555
H7 C4 1_555 1_555
H8 C4 1_555 1_555
C5 O5 1_555 1_555
H9 C5 1_555 1_555
H10 C5 1_555 1_555
C6 O5 1_555 1_555
H11 C6 1_555 1_555
H12 C6 1_555 1_555
C7 H13 1_555 1_555
C8 C7 1_555 1_555
O3F K1 1_555 1_555
O4F K1 1_555 1_555
O5F K1 1_555 1_555
C1F C6 1_555 1_555
H1F C1F 1_555 1_555
H2F C1F 1_555 1_555
C2F O3F 1_555 1_555
H3F C2F 1_555 1_555
H4F C2F 1_555 1_555
C3F O4F 1_555 1_555
H5F C3F 1_555 1_555
H6F C3F 1_555 1_555
C4F O4F 1_555 1_555
H7F C4F 1_555 1_555
H8F C4F 1_555 1_555
C5F O5F 1_555 1_555
H9F C5F 1_555 1_555
H10F C5F 1_555 1_555
C6F C1 1_555 1_555
H11F C6F 1_555 1_555
H12F C6F 1_555 1_555
Cl1F C7F 1_555 1_555
Cl2F C7F 1_555 1_555
O1F K1 1_555 1_555
O2F C8F 1_555 1_555
C7F H13F 1_555 1_555
C8F O1F 1_555 1_555
C2 C3 1_555 1_555
C4 C5 1_555 1_555
O3F C1F 1_555 1_555
O5F C6F 1_555 1_555
C2F C3F 1_555 1_555
C4F C5F 1_555 1_555
C7F C8F 1_555 1_555

#END
