
#######################################################################
#
#                 Cambridge Crystallographic Data Centre
#                                CCDC 
#
#######################################################################
#
# If this CIF has been generated from an entry in the Cambridge 
# Structural Database, then it will include bibliographic, chemical, 
# crystal, experimental, refinement or atomic coordinate data resulting 
# from the CCDC's data processing and validation procedures.
#
#######################################################################

data_GIGZIH
_chemical_formula_moiety         'C41 H43 N4 1+,Cl1 1-'
_chemical_name_systematic        
'2-((3,8-Di-isopropyl-1,10-dihydrobenzo[e]pyrrolo[3,2-g]indol-2-yl)methylene)-3,8-di-isopropyl-2,10-dihydrobenzo[e]pyrrolo[3,2-g]indol-1-ium chloride'
_symmetry_cell_setting           orthorhombic
_symmetry_space_group_name_H-M   'C m c a'
_symmetry_Int_Tables_number      64
_space_group_name_Hall           '-C 2ac 2'
loop_
_symmetry_equiv_pos_site_id
_symmetry_equiv_pos_as_xyz
1 x,y,z
2 -x,1/2-y,1/2+z
3 -x,1/2+y,1/2-z
4 x,-y,-z
5 1/2+x,1/2+y,z
6 1/2-x,-y,1/2+z
7 1/2-x,y,1/2-z
8 1/2+x,1/2-y,-z
9 -x,-y,-z
10 x,1/2+y,1/2-z
11 x,1/2-y,1/2+z
12 -x,y,z
13 1/2-x,1/2-y,-z
14 1/2+x,y,1/2-z
15 1/2+x,-y,1/2+z
16 1/2-x,1/2+y,z
_cell_length_a                   36.284(7)
_cell_length_b                   14.401(3)
_cell_length_c                   13.156(3)
_cell_angle_alpha                90
_cell_angle_beta                 90
_cell_angle_gamma                90
_cell_volume                     6874.35
_exptl_crystal_colour            red
_exptl_crystal_description       block
_cell_formula_units_Z            8
loop_
_atom_site_label
_atom_site_type_symbol
_atom_site_fract_x
_atom_site_fract_y
_atom_site_fract_z
Cl1 Cl 0.5000 0.96702(11) 0.23270(12)
C1 C 0.61771(13) -0.0685(3) 0.2663(3)
H1 H 0.6169 -0.1133 0.3172
C2 C 0.64930(11) -0.0294(3) 0.2312(3)
C3 C 0.63829(11) 0.0348(3) 0.1550(3)
C4 C 0.59987(11) 0.0301(2) 0.1497(3)
C5 C 0.57962(11) 0.0877(2) 0.0863(3)
C6 C 0.59738(11) 0.1535(2) 0.0243(3)
C7 C 0.56930(13) 0.2055(3) -0.0216(3)
C8 C 0.53503(12) 0.1692(3) 0.0133(3)
C9 C 0.5000 0.1974(4) -0.0137(4)
H2 H 0.5000 0.2460 -0.0602
C10 C 0.68717(12) -0.0502(3) 0.2732(4)
H3 H 0.7040 -0.0574 0.2153
C11 C 0.70069(13) 0.0322(4) 0.3361(4)
H4 H 0.7017 0.0866 0.2940
H5 H 0.7248 0.0190 0.3622
H6 H 0.6840 0.0428 0.3916
C12 C 0.68835(13) -0.1395(4) 0.3339(4)
H7 H 0.6749 -0.1314 0.3961
H8 H 0.7135 -0.1549 0.3490
H9 H 0.6774 -0.1886 0.2949
C13 C 0.65752(11) 0.0963(3) 0.0865(3)
C14 C 0.69610(12) 0.0973(3) 0.0796(3)
H10 H 0.7096 0.0595 0.1232
C15 C 0.71454(14) 0.1510(3) 0.0121(4)
H11 H 0.7401 0.1495 0.0096
C16 C 0.69516(15) 0.2076(3) -0.0526(4)
H12 H 0.7076 0.2450 -0.0990
C17 C 0.65757(14) 0.2088(3) -0.0487(3)
H13 H 0.6449 0.2473 -0.0934
C18 C 0.63722(11) 0.1548(3) 0.0196(3)
C19 C 0.57272(15) 0.2906(4) -0.0880(5)
H14 H 0.5994 0.2912 -0.1004
C20 C 0.55884(19) 0.2803(4) -0.1920(4)
H15 H 0.5379 0.2396 -0.1920
H16 H 0.5778 0.2547 -0.2343
H17 H 0.5517 0.3400 -0.2179
C21 C 0.5681(3) 0.3766(5) -0.0407(6)
H18 H 0.5888 0.4157 -0.0559
H19 H 0.5664 0.3679 0.0315
H20 H 0.5459 0.4053 -0.0651
H21 H 0.5578(12) -0.045(3) 0.226(3)
H22 H 0.5264(9) 0.057(2) 0.114(3)
N1 N 0.58735(10) -0.0346(2) 0.2179(2)
N2 N 0.54301(9) 0.0958(2) 0.0777(2)
C1K C 0.38229(13) -0.0685(3) 0.2663(3)
H1K H 0.3831 -0.1133 0.3172
C2K C 0.35070(11) -0.0294(3) 0.2312(3)
C3K C 0.36171(11) 0.0348(3) 0.1550(3)
C4K C 0.40013(11) 0.0301(2) 0.1497(3)
C5K C 0.42038(11) 0.0877(2) 0.0863(3)
C6K C 0.40262(11) 0.1535(2) 0.0243(3)
C7K C 0.43070(13) 0.2055(3) -0.0216(3)
C8K C 0.46497(12) 0.1692(3) 0.0133(3)
C10K C 0.31283(12) -0.0502(3) 0.2732(4)
H3K H 0.2960 -0.0574 0.2153
C11K C 0.29931(13) 0.0322(4) 0.3361(4)
H4K H 0.2983 0.0866 0.2940
H5K H 0.2752 0.0190 0.3622
H6K H 0.3160 0.0428 0.3916
C12K C 0.31165(13) -0.1395(4) 0.3339(4)
H7K H 0.3251 -0.1314 0.3961
H8K H 0.2865 -0.1549 0.3490
H9K H 0.3226 -0.1886 0.2949
C13K C 0.34248(11) 0.0963(3) 0.0865(3)
C14K C 0.30390(12) 0.0973(3) 0.0796(3)
H10K H 0.2904 0.0595 0.1232
C15K C 0.28546(14) 0.1510(3) 0.0121(4)
H11K H 0.2599 0.1495 0.0096
C16K C 0.30484(15) 0.2076(3) -0.0526(4)
H12K H 0.2924 0.2450 -0.0990
C17K C 0.34243(14) 0.2088(3) -0.0487(3)
H13K H 0.3551 0.2473 -0.0934
C18K C 0.36278(11) 0.1548(3) 0.0196(3)
C19K C 0.42728(15) 0.2906(4) -0.0880(5)
H14K H 0.4006 0.2912 -0.1004
C20K C 0.44116(19) 0.2803(4) -0.1920(4)
H15K H 0.4621 0.2396 -0.1920
H16K H 0.4222 0.2547 -0.2343
H17K H 0.4483 0.3400 -0.2179
C21K C 0.4319(3) 0.3766(5) -0.0407(6)
H18K H 0.4112 0.4157 -0.0559
H19K H 0.4336 0.3679 0.0315
H20K H 0.4541 0.4053 -0.0651
H21K H 0.4422(12) -0.045(3) 0.226(3)
H22K H 0.4736(9) 0.057(2) 0.114(3)
N1K N 0.41265(10) -0.0346(2) 0.2179(2)
N2K N 0.45699(9) 0.0958(2) 0.0777(2)
loop_
_geom_bond_atom_site_label_1
_geom_bond_atom_site_label_2
_geom_bond_site_symmetry_1
_geom_bond_site_symmetry_2
C1 H1 1_555 1_555
C2 C1 1_555 1_555
C3 C2 1_555 1_555
C4 C3 1_555 1_555
C5 C4 1_555 1_555
C6 C5 1_555 1_555
C7 C6 1_555 1_555
C8 C7 1_555 1_555
C9 C8 1_555 1_555
H2 C9 1_555 1_555
C10 C2 1_555 1_555
H3 C10 1_555 1_555
C11 C10 1_555 1_555
H4 C11 1_555 1_555
H5 C11 1_555 1_555
H6 C11 1_555 1_555
C12 C10 1_555 1_555
H7 C12 1_555 1_555
H8 C12 1_555 1_555
H9 C12 1_555 1_555
C13 C3 1_555 1_555
C14 C13 1_555 1_555
H10 C14 1_555 1_555
C15 C14 1_555 1_555
H11 C15 1_555 1_555
C16 C15 1_555 1_555
H12 C16 1_555 1_555
C17 C16 1_555 1_555
H13 C17 1_555 1_555
C18 C6 1_555 1_555
C19 C7 1_555 1_555
H14 C19 1_555 1_555
C20 C19 1_555 1_555
H15 C20 1_555 1_555
H16 C20 1_555 1_555
H17 C20 1_555 1_555
C21 C19 1_555 1_555
H18 C21 1_555 1_555
H19 C21 1_555 1_555
H20 C21 1_555 1_555
H21 N1 1_555 1_555
H22 N2 1_555 1_555
N1 C1 1_555 1_555
N2 C5 1_555 1_555
C1K H1K 1_555 1_555
C2K C1K 1_555 1_555
C3K C2K 1_555 1_555
C4K C3K 1_555 1_555
C5K C4K 1_555 1_555
C6K C5K 1_555 1_555
C7K C6K 1_555 1_555
C8K C9 1_555 1_555
C10K C2K 1_555 1_555
H3K C10K 1_555 1_555
C11K C10K 1_555 1_555
H4K C11K 1_555 1_555
H5K C11K 1_555 1_555
H6K C11K 1_555 1_555
C12K C10K 1_555 1_555
H7K C12K 1_555 1_555
H8K C12K 1_555 1_555
H9K C12K 1_555 1_555
C13K C3K 1_555 1_555
C14K C13K 1_555 1_555
H10K C14K 1_555 1_555
C15K C14K 1_555 1_555
H11K C15K 1_555 1_555
C16K C15K 1_555 1_555
H12K C16K 1_555 1_555
C17K C16K 1_555 1_555
H13K C17K 1_555 1_555
C18K C6K 1_555 1_555
C19K C7K 1_555 1_555
H14K C19K 1_555 1_555
C20K C19K 1_555 1_555
H15K C20K 1_555 1_555
H16K C20K 1_555 1_555
H17K C20K 1_555 1_555
C21K C19K 1_555 1_555
H18K C21K 1_555 1_555
H19K C21K 1_555 1_555
H20K C21K 1_555 1_555
H21K N1K 1_555 1_555
H22K N2K 1_555 1_555
N1K C1K 1_555 1_555
N2K C5K 1_555 1_555
C4 N1 1_555 1_555
C8 N2 1_555 1_555
C13 C18 1_555 1_555
C17 C18 1_555 1_555
C4K N1K 1_555 1_555
C7K C8K 1_555 1_555
C8K N2K 1_555 1_555
C13K C18K 1_555 1_555
C17K C18K 1_555 1_555

#END
