
#######################################################################
#
#                 Cambridge Crystallographic Data Centre
#                                CCDC 
#
#######################################################################
#
# If this CIF has been generated from an entry in the Cambridge 
# Structural Database, then it will include bibliographic, chemical, 
# crystal, experimental, refinement or atomic coordinate data resulting 
# from the CCDC's data processing and validation procedures.
#
#######################################################################

data_GIGZON
_chemical_formula_moiety         'C41 H41 B1 F2 N4'
_chemical_name_systematic        
19,19-Difluoro-3,8,10,15-tetraisopropyl-17,19-dihydro-1H-20\l^5^,19\l^5^-benzo[e]benzo[4',5']pyrrolo[3'',2'':6',7']indolo[1',2':3,4][1,3,2]diazaborinino[1,6-a]pyrrolo[3,2-g]indole
_symmetry_cell_setting           monoclinic
_symmetry_space_group_name_H-M   'P 21/n'
_symmetry_Int_Tables_number      14
_space_group_name_Hall           '-P 2yn'
loop_
_symmetry_equiv_pos_site_id
_symmetry_equiv_pos_as_xyz
1 x,y,z
2 1/2-x,1/2+y,1/2-z
3 -x,-y,-z
4 1/2+x,1/2-y,1/2+z
_cell_length_a                   6.0643(4)
_cell_length_b                   13.3784(8)
_cell_length_c                   42.361(3)
_cell_angle_alpha                90
_cell_angle_beta                 93.7890(10)
_cell_angle_gamma                90
_cell_volume                     3429.26
_exptl_crystal_colour            green
_exptl_crystal_description       block
_cell_formula_units_Z            4
loop_
_atom_site_label
_atom_site_type_symbol
_atom_site_fract_x
_atom_site_fract_y
_atom_site_fract_z
F1 F 0.5834(4) 0.15899(16) 0.16827(5)
F2 F 0.8353(3) 0.04986(19) 0.15364(5)
N1 N 0.4806(5) -0.0153(2) 0.16638(6)
N2 N 0.5205(5) 0.0823(2) 0.11715(7)
N3 N 0.8125(6) 0.0449(3) 0.22361(8)
C1 C 0.5002(6) -0.0510(2) 0.19641(8)
C2 C 0.5797(6) 0.1515(3) 0.09589(8)
C3 C 0.4935(6) -0.1534(2) 0.25584(8)
C4 C 0.6505(6) -0.0255(3) 0.22190(8)
C5 C 0.4451(6) 0.1420(3) 0.06724(8)
C6 C 0.2629(6) -0.0530(3) 0.11860(8)
H1 H 0.1554 -0.0925 0.1081
C7 C 0.3231(5) -0.0744(3) 0.14974(8)
C8 C 0.6530(6) -0.0748(3) 0.25100(8)
C9 C 0.3340(6) -0.1775(3) 0.23103(8)
C10 C 0.2448(5) -0.1487(3) 0.17024(8)
C11 C 0.7548(7) 0.2205(3) 0.09797(8)
C12 C 0.3486(5) -0.1311(3) 0.20004(8)
C13 C 0.3543(6) 0.0242(3) 0.10225(8)
C14 C 0.3097(6) 0.0588(3) 0.07087(9)
N4 N 0.9101(7) 0.2378(3) 0.12204(8)
C15 C 0.1601(7) -0.2421(3) 0.23786(10)
H2 H 0.0484 -0.2549 0.2223
C16 C 0.9899(7) 0.3416(3) 0.08334(9)
C17 C 0.4762(7) 0.2120(3) 0.04150(8)
C18 C 0.8252(6) -0.0292(3) 0.27093(9)
C19 C 0.7999(7) 0.2834(3) 0.07285(9)
C20 C 0.6586(7) 0.2792(3) 0.04360(9)
C21 C 0.0969(6) -0.2355(3) 0.15985(10)
H3 H 0.104(7) -0.283(3) 0.1774(10)
C22 C 0.4841(7) -0.2048(3) 0.28467(9)
H4 H 0.5946 -0.1939 0.3006
C23 C 0.9164(7) 0.0422(3) 0.25292(9)
H5 H 1.0336 0.0834 0.2598
B1 B 0.6085(7) 0.0705(3) 0.15177(9)
C24 C 1.0506(8) 0.3094(3) 0.11316(9)
H6 H 1.1713 0.3333 0.1256
C25 C 0.3176(8) -0.2701(3) 0.29001(10)
H7 H 0.3164 -0.3035 0.3093
C26 C 0.9010(7) -0.0494(4) 0.30498(9)
H8 H 0.909(7) -0.122(4) 0.3079(10)
C27 C 0.1613(8) 0.0052(4) 0.04588(10)
H9 H 0.172(8) 0.043(4) 0.0261(11)
C28 C 1.1002(7) 0.4271(3) 0.06737(10)
H10 H 1.129(7) 0.406(3) 0.0459(11)
C29 C 0.3267(8) 0.2181(3) 0.01475(10)
H11 H 0.2016 0.1776 0.0136
C30 C 0.1514(7) -0.2866(3) 0.26683(11)
H12 H 0.0332 -0.3280 0.2709
C31 C 0.5453(11) 0.3420(4) -0.00837(11)
H13 H 0.5713 0.3834 -0.0254
C32 C 0.6912(9) 0.3412(4) 0.01767(10)
H14 H 0.8145 0.3826 0.0182
C33 C 0.3616(10) 0.2825(4) -0.00966(11)
H15 H 0.2602 0.2857 -0.0271
C34 C 0.2444(11) -0.1001(6) 0.03963(17)
H16 H 0.2106 -0.1432 0.0568
H17 H 0.4014 -0.0986 0.0379
H18 H 0.1734 -0.1250 0.0203
C35 C -0.0735(9) 0.0029(7) 0.05217(16)
H19 H -0.0927 -0.0359 0.0708
H20 H -0.1566 -0.0267 0.0345
H21 H -0.1249 0.0698 0.0553
C36 C 1.3196(8) 0.4554(4) 0.08436(12)
H22 H 1.2945 0.4807 0.1050
H23 H 1.3902 0.5059 0.0725
H24 H 1.4129 0.3975 0.0863
C37 C 0.9499(9) 0.5190(4) 0.06497(14)
H25 H 0.8163 0.5029 0.0526
H26 H 1.0244 0.5726 0.0550
H27 H 0.9145 0.5392 0.0858
C38 C 1.1311(8) -0.0059(5) 0.31295(11)
H28 H 1.2296 -0.0279 0.2975
H29 H 1.1851 -0.0284 0.3336
H30 H 1.1232 0.0657 0.3128
C39 C 0.1780(9) -0.2907(3) 0.13128(12)
H31 H 0.1513 -0.2505 0.1127
H32 H 0.1002 -0.3530 0.1286
H33 H 0.3335 -0.3036 0.1347
C40 C 0.7411(9) -0.0082(5) 0.32764(11)
H34 H 0.7419 0.0635 0.3267
H35 H 0.7849 -0.0297 0.3488
H36 H 0.5950 -0.0324 0.3218
C41 C -0.1442(8) -0.2052(4) 0.15451(17)
H37 H -0.1954 -0.1789 0.1738
H38 H -0.2310 -0.2626 0.1480
H39 H -0.1585 -0.1550 0.1383
H40 H 0.847(7) 0.076(4) 0.2093(11)
H41 H 0.920(7) 0.206(3) 0.1381(10)
loop_
_geom_bond_atom_site_label_1
_geom_bond_atom_site_label_2
_geom_bond_site_symmetry_1
_geom_bond_site_symmetry_2
F1 B1 1_555 1_555
F2 B1 1_555 1_555
N1 C1 1_555 1_555
N2 C2 1_555 1_555
N3 C4 1_555 1_555
C1 C4 1_555 1_555
C2 C5 1_555 1_555
C3 C8 1_555 1_555
C4 C8 1_555 1_555
C5 C14 1_555 1_555
C6 H1 1_555 1_555
C7 N1 1_555 1_555
C8 C18 1_555 1_555
C9 C3 1_555 1_555
C10 C7 1_555 1_555
C11 C2 1_555 1_555
C12 C1 1_555 1_555
C13 N2 1_555 1_555
C14 C13 1_555 1_555
N4 C11 1_555 1_555
C15 C9 1_555 1_555
H2 C15 1_555 1_555
C16 C19 1_555 1_555
C17 C5 1_555 1_555
C18 C23 1_555 1_555
C19 C11 1_555 1_555
C20 C17 1_555 1_555
C21 C10 1_555 1_555
H3 C21 1_555 1_555
C22 C3 1_555 1_555
H4 C22 1_555 1_555
C23 N3 1_555 1_555
H5 C23 1_555 1_555
B1 N1 1_555 1_555
C24 N4 1_555 1_555
H6 C24 1_555 1_555
C25 C22 1_555 1_555
H7 C25 1_555 1_555
C26 C18 1_555 1_555
H8 C26 1_555 1_555
C27 C14 1_555 1_555
H9 C27 1_555 1_555
C28 C16 1_555 1_555
H10 C28 1_555 1_555
C29 C17 1_555 1_555
H11 C29 1_555 1_555
C30 C15 1_555 1_555
H12 C30 1_555 1_555
C31 H13 1_555 1_555
C32 C20 1_555 1_555
H14 C32 1_555 1_555
C33 C29 1_555 1_555
H15 C33 1_555 1_555
C34 C27 1_555 1_555
H16 C34 1_555 1_555
H17 C34 1_555 1_555
H18 C34 1_555 1_555
C35 C27 1_555 1_555
H19 C35 1_555 1_555
H20 C35 1_555 1_555
H21 C35 1_555 1_555
C36 C28 1_555 1_555
H22 C36 1_555 1_555
H23 C36 1_555 1_555
H24 C36 1_555 1_555
C37 C28 1_555 1_555
H25 C37 1_555 1_555
H26 C37 1_555 1_555
H27 C37 1_555 1_555
C38 C26 1_555 1_555
H28 C38 1_555 1_555
H29 C38 1_555 1_555
H30 C38 1_555 1_555
C39 C21 1_555 1_555
H31 C39 1_555 1_555
H32 C39 1_555 1_555
H33 C39 1_555 1_555
C40 C26 1_555 1_555
H34 C40 1_555 1_555
H35 C40 1_555 1_555
H36 C40 1_555 1_555
C41 C21 1_555 1_555
H37 C41 1_555 1_555
H38 C41 1_555 1_555
H39 C41 1_555 1_555
H40 N3 1_555 1_555
H41 N4 1_555 1_555
N2 B1 1_555 1_555
C6 C7 1_555 1_555
C6 C13 1_555 1_555
C9 C12 1_555 1_555
C10 C12 1_555 1_555
C16 C24 1_555 1_555
C19 C20 1_555 1_555
C25 C30 1_555 1_555
C31 C32 1_555 1_555
C31 C33 1_555 1_555

#END
