
#######################################################################
#
#                 Cambridge Crystallographic Data Centre
#                                CCDC 
#
#######################################################################
#
# If this CIF has been generated from an entry in the Cambridge 
# Structural Database, then it will include bibliographic, chemical, 
# crystal, experimental, refinement or atomic coordinate data resulting 
# from the CCDC's data processing and validation procedures.
#
#######################################################################

data_GIHBUX
_chemical_formula_moiety         'C22 H18 N2'
_chemical_name_systematic        
1,6-dimethyl-4-phenyl-1,6-dihydropyrrolo[3,2-c]carbazole
_symmetry_cell_setting           orthorhombic
_symmetry_space_group_name_H-M   'P n a 21'
_symmetry_Int_Tables_number      33
_space_group_name_Hall           'P 2c -2n'
loop_
_symmetry_equiv_pos_site_id
_symmetry_equiv_pos_as_xyz
1 x,y,z
2 1/2-x,1/2+y,1/2+z
3 1/2+x,1/2-y,z
4 -x,-y,1/2+z
_cell_length_a                   13.252(6)
_cell_length_b                   5.704(2)
_cell_length_c                   42.601(19)
_cell_angle_alpha                90
_cell_angle_beta                 90
_cell_angle_gamma                90
_cell_volume                     3220.18
_exptl_crystal_colour            colorless
_exptl_crystal_description       platelet
_cell_formula_units_Z            8
loop_
_atom_site_label
_atom_site_type_symbol
_atom_site_fract_x
_atom_site_fract_y
_atom_site_fract_z
N1 N 0.2942(3) 0.1899(6) -0.22873(9)
N2 N 0.4761(3) 0.8310(6) -0.27583(9)
C1 C 0.2910(4) 0.3821(8) -0.30848(11)
C2 C 0.2286(4) 0.2216(8) -0.32261(12)
C3 C 0.1865(4) 0.0360(8) -0.30578(13)
C4 C 0.2037(4) 0.0118(7) -0.27416(13)
C5 C 0.2673(4) 0.1771(7) -0.25966(11)
C6 C 0.3591(4) 0.3757(8) -0.22493(12)
C7 C 0.4045(4) 0.4434(9) -0.19641(12)
C8 C 0.4705(4) 0.6329(9) -0.19581(11)
C9 C 0.4888(4) 0.7536(8) -0.22438(12)
C10 C 0.5502(4) 0.9520(8) -0.23202(13)
C11 C 0.5410(4) 0.9912(8) -0.26285(13)
C12 C 0.4422(4) 0.6829(7) -0.25267(10)
C13 C 0.3736(4) 0.4895(7) -0.25363(10)
C14 C 0.3140(3) 0.3655(7) -0.27644(11)
C15 C 0.2571(5) 0.0359(9) -0.20410(14)
C16 C 0.4525(4) 0.8277(8) -0.30921(11)
C17 C 0.5211(4) 0.6957(10) -0.16601(13)
C18 C 0.6177(9) 0.8327(19) -0.1653(3)
C19 C 0.6628(13) 0.893(3) -0.1359(4)
C20 C 0.6193(6) 0.8046(14) -0.10927(18)
C21 C 0.5244(11) 0.713(3) -0.1078(4)
C22 C 0.4770(10) 0.669(2) -0.1368(3)
H1 H 0.3189 0.5062 -0.3206
H2 H 0.2139 0.2372 -0.3443
H3 H 0.1453 -0.0752 -0.3164
H4 H 0.1738 -0.1119 -0.2625
H5 H 0.3900 0.3598 -0.1777
H6 H 0.5903 1.0399 -0.2178
H7 H 0.5745 1.1122 -0.2741
H8 H 0.1917 -0.0294 -0.2103
H9 H 0.2493 0.1252 -0.1846
H10 H 0.3053 -0.0920 -0.2008
H11 H 0.4525 0.6655 -0.3168
H12 H 0.5033 0.9183 -0.3207
H13 H 0.3857 0.8973 -0.3126
N3 N 0.0635(3) 0.8016(7) 0.03141(10)
N4 N 0.2522(3) 0.1725(6) 0.07930(9)
C27 C 0.0703(4) 0.6254(8) 0.11193(12)
C28 C 0.0098(4) 0.7922(8) 0.12636(15)
C29 C -0.0348(4) 0.9682(9) 0.10926(14)
C30 C -0.0187(4) 0.9864(8) 0.07708(15)
C31 C 0.0397(4) 0.8190(8) 0.06299(12)
C32 C 0.1277(4) 0.6116(7) 0.02724(11)
C33 C 0.1691(4) 0.5403(9) -0.00111(13)
C34 C 0.2369(4) 0.3520(10) -0.00145(13)
C35 C 0.2581(4) 0.2376(8) 0.02711(13)
C36 C 0.3219(4) 0.0430(9) 0.03450(14)
C37 C 0.3167(4) 0.0092(8) 0.06588(13)
C38 C 0.2146(4) 0.3154(7) 0.05541(12)
C39 C 0.1470(4) 0.5066(7) 0.05685(11)
C40 C 0.0882(4) 0.6384(7) 0.07961(11)
C41 C 0.0241(5) 0.9515(9) 0.00706(13)
C42 C 0.2291(4) 0.1797(9) 0.11226(12)
C43 C 0.2823(5) 0.2722(12) -0.03194(14)
C44 C 0.3210(8) 0.4864(16) -0.0509(3)
C45 C 0.3633(10) 0.421(2) -0.0793(3)
C46 C 0.3660(6) 0.1289(19) -0.08904(17)
C47 C 0.3369(11) 0.016(3) -0.0685(4)
C48 C 0.2922(10) 0.071(3) -0.0392(3)
H14 H 0.0995 0.5027 0.1240
H15 H -0.0008 0.7846 0.1484
H16 H -0.0772 1.0786 0.1195
H17 H -0.0474 1.1110 0.0653
H18 H 0.1516 0.6182 -0.0200
H19 H 0.3607 -0.0462 0.0200
H20 H 0.3521 -0.1090 0.0771
H21 H 0.0687 1.0871 0.0044
H22 H -0.0435 1.0054 0.0129
H23 H 0.0204 0.8637 -0.0127
H24 H 0.2459 0.3349 0.1206
H25 H 0.2687 0.0600 0.1233
H26 H 0.1570 0.1491 0.1153
C23? C 0.6084(9) 0.5462(19) -0.1192(3)
C24? C 0.5569(9) 0.4938(17) -0.1473(3)
C25? C 0.5372(9) 0.9060(18) -0.1569(3)
C26? C 0.5860(12) 0.967(3) -0.1302(4)
C49? C 0.4202(10) 0.089(2) -0.0638(3)
C50? C 0.3815(8) 0.1649(18) -0.0355(3)
C51? C 0.2204(9) 0.2162(18) -0.0597(3)
C52? C 0.2596(10) 0.135(2) -0.0887(3)
loop_
_geom_bond_atom_site_label_1
_geom_bond_atom_site_label_2
_geom_bond_site_symmetry_1
_geom_bond_site_symmetry_2
N1 C5 1_555 1_555
N2 C11 1_555 1_555
C1 C2 1_555 1_555
C2 C3 1_555 1_555
C3 C4 1_555 1_555
C4 C5 1_555 1_555
C5 C14 1_555 1_555
C6 N1 1_555 1_555
C7 C6 1_555 1_555
C8 C7 1_555 1_555
C9 C8 1_555 1_555
C10 C9 1_555 1_555
C11 C10 1_555 1_555
C12 N2 1_555 1_555
C13 C6 1_555 1_555
C14 C1 1_555 1_555
C15 N1 1_555 1_555
C16 N2 1_555 1_555
C17 C8 1_555 1_555
C18 C17 1_555 1_555
C19 C18 1_555 1_555
C20 C19 1_555 1_555
C21 C20 1_555 1_555
C22 C17 1_555 1_555
H1 C1 1_555 1_555
H2 C2 1_555 1_555
H3 C3 1_555 1_555
H4 C4 1_555 1_555
H5 C7 1_555 1_555
H6 C10 1_555 1_555
H7 C11 1_555 1_555
H8 C15 1_555 1_555
H9 C15 1_555 1_555
H10 C15 1_555 1_555
H11 C16 1_555 1_555
H12 C16 1_555 1_555
H13 C16 1_555 1_555
N3 C31 1_555 1_555
N4 C37 1_555 1_555
C27 C28 1_555 1_555
C28 C29 1_555 1_555
C29 C30 1_555 1_555
C30 C31 1_555 1_555
C31 C40 1_555 1_555
C32 N3 1_555 1_555
C33 C32 1_555 1_555
C34 C33 1_555 1_555
C35 C34 1_555 1_555
C36 C35 1_555 1_555
C37 C36 1_555 1_555
C38 N4 1_555 1_555
C39 C32 1_555 1_555
C40 C27 1_555 1_555
C41 N3 1_555 1_555
C42 N4 1_555 1_555
C43 C34 1_555 1_555
C44 C43 1_555 1_555
C45 C44 1_555 1_555
C46 C45 1_555 1_555
C47 C46 1_555 1_555
C48 C43 1_555 1_555
H14 C27 1_555 1_555
H15 C28 1_555 1_555
H16 C29 1_555 1_555
H17 C30 1_555 1_555
H18 C33 1_555 1_555
H19 C36 1_555 1_555
H20 C37 1_555 1_555
H21 C41 1_555 1_555
H22 C41 1_555 1_555
H23 C41 1_555 1_555
H24 C42 1_555 1_555
H25 C42 1_555 1_555
H26 C42 1_555 1_555
C9 C12 1_555 1_555
C12 C13 1_555 1_555
C13 C14 1_555 1_555
C21 C22 1_555 1_555
C35 C38 1_555 1_555
C38 C39 1_555 1_555
C39 C40 1_555 1_555
C47 C48 1_555 1_555

#END
