
#######################################################################
#
#                 Cambridge Crystallographic Data Centre
#                                CCDC 
#
#######################################################################
#
# If this CIF has been generated from an entry in the Cambridge 
# Structural Database, then it will include bibliographic, chemical, 
# crystal, experimental, refinement or atomic coordinate data resulting 
# from the CCDC's data processing and validation procedures.
#
#######################################################################

data_GIHCEI
_chemical_formula_moiety         'C26 H20 N2'
_chemical_name_systematic        
5,8-dimethyl-6-phenyl-5,8-dihydroindolo[2,3-c]carbazole
_symmetry_cell_setting           triclinic
_symmetry_space_group_name_H-M   'P -1'
_symmetry_Int_Tables_number      2
_space_group_name_Hall           '-P 1'
loop_
_symmetry_equiv_pos_site_id
_symmetry_equiv_pos_as_xyz
1 x,y,z
2 -x,-y,-z
_cell_length_a                   15.147(5)
_cell_length_b                   15.449(5)
_cell_length_c                   16.488(5)
_cell_angle_alpha                82.861(12)
_cell_angle_beta                 80.898(10)
_cell_angle_gamma                78.480(8)
_cell_volume                     3715.79
_exptl_crystal_colour            colorless
_exptl_crystal_description       prism
_cell_formula_units_Z            8
loop_
_atom_site_label
_atom_site_type_symbol
_atom_site_fract_x
_atom_site_fract_y
_atom_site_fract_z
N1 N 0.36650(18) 1.12893(17) 0.12841(14)
N2 N 0.30763(18) 0.89859(17) -0.07697(14)
C1 C 0.4878(3) 1.1835(2) -0.0699(2)
C2 C 0.5232(3) 1.2550(3) -0.0581(2)
C3 C 0.5079(3) 1.2877(3) 0.0187(3)
C4 C 0.4558(3) 1.2496(3) 0.0845(2)
C5 C 0.4201(2) 1.1773(2) 0.07263(18)
C6 C 0.3454(2) 1.06240(19) 0.08825(16)
C7 C 0.2927(2) 0.9970(2) 0.12136(16)
C8 C 0.2795(2) 0.9400(2) 0.06760(17)
C9 C 0.3173(2) 0.9481(2) -0.01493(16)
C10 C 0.3580(3) 0.9264(2) -0.14894(17)
C11 C 0.3660(3) 0.8967(3) -0.22687(18)
C12 C 0.4216(3) 0.9339(3) -0.28998(18)
C13 C 0.4676(3) 0.9987(3) -0.27688(18)
C14 C 0.4578(3) 1.0288(2) -0.20035(18)
C15 C 0.4007(2) 0.99478(19) -0.13460(16)
C16 C 0.3739(2) 1.00971(19) -0.04825(16)
C17 C 0.3869(2) 1.06961(19) 0.00495(16)
C18 C 0.4347(2) 1.14288(19) -0.00487(17)
C19 C 0.3366(3) 1.1495(3) 0.21284(17)
C20 C 0.2597(3) 0.8252(3) -0.06378(19)
C21 C 0.2540(3) 0.9835(2) 0.20986(17)
C22 C 0.1704(3) 1.0280(3) 0.24190(19)
C23 C 0.1350(3) 1.0136(3) 0.3228(2)
C24 C 0.1835(3) 0.9515(3) 0.37505(19)
C25 C 0.2661(3) 0.9048(3) 0.34435(19)
C26 C 0.3008(3) 0.9201(3) 0.26276(19)
H1 H 0.4993 1.1614 -0.1226
H2 H 0.5587 1.2826 -0.1028
H3 H 0.5337 1.3370 0.0260
H4 H 0.4447 1.2726 0.1367
H5 H 0.2445 0.8952 0.0872
H6 H 0.3342 0.8524 -0.2359
H7 H 0.4285 0.9148 -0.3436
H8 H 0.5064 1.0226 -0.3213
H9 H 0.4902 1.0730 -0.1922
H10 H 0.2838 1.1222 0.2355
H11 H 0.3199 1.2140 0.2142
H12 H 0.3860 1.1263 0.2460
H13 H 0.3029 0.7701 -0.0742
H14 H 0.2139 0.8350 -0.1015
H15 H 0.2296 0.8206 -0.0066
H16 H 0.1360 1.0703 0.2066
H17 H 0.0773 1.0461 0.3432
H18 H 0.1597 0.9415 0.4316
H19 H 0.2995 0.8615 0.3796
H20 H 0.3579 0.8867 0.2422
N3 N -0.05442(17) 0.83710(16) 0.05440(13)
N4 N 0.24360(17) 0.68089(15) 0.20544(13)
C27 C 0.0686(2) 0.6674(2) -0.07166(15)
C28 C 0.0138(3) 0.6728(2) -0.13239(16)
C29 C -0.0684(3) 0.7330(2) -0.13154(17)
C30 C -0.0968(3) 0.7899(2) -0.07115(16)
C31 C -0.0406(2) 0.78564(19) -0.01069(15)
C32 C 0.0192(2) 0.80974(19) 0.09907(15)
C33 C 0.0336(2) 0.84528(19) 0.17000(15)
C34 C 0.1066(2) 0.80119(19) 0.20901(16)
C35 C 0.1661(2) 0.72953(18) 0.17517(15)
C36 C 0.2878(2) 0.62125(18) 0.15015(15)
C37 C 0.3688(2) 0.56263(19) 0.15411(16)
C38 C 0.4014(2) 0.5102(2) 0.09049(16)
C39 C 0.3534(2) 0.5168(2) 0.02311(17)
C40 C 0.2728(2) 0.57563(19) 0.01947(15)
C41 C 0.23680(19) 0.63024(18) 0.08285(15)
C42 C 0.15774(19) 0.69835(18) 0.10051(14)
C43 C 0.0800(2) 0.73903(18) 0.06266(15)
C44 C 0.0422(2) 0.72491(18) -0.00936(15)
C45 C -0.1386(3) 0.8986(3) 0.07510(18)
C46 C 0.2740(3) 0.6884(2) 0.28299(16)
C47 C -0.0189(2) 0.92975(19) 0.20013(16)
C48 C -0.0211(3) 1.0092(2) 0.14930(17)
C49 C -0.0654(3) 1.0887(2) 0.1784(2)
C50 C -0.1092(3) 1.0907(3) 0.2583(2)
C51 C -0.1082(3) 1.0124(3) 0.3095(2)
C52 C -0.0633(3) 0.9335(2) 0.28038(17)
H21 H 0.1235 0.6250 -0.0722
H22 H 0.0324 0.6349 -0.1755
H23 H -0.1052 0.7346 -0.1735
H24 H -0.1528 0.8308 -0.0704
H25 H 0.1162 0.8198 0.2592
H26 H 0.4012 0.5585 0.1997
H27 H 0.4570 0.4692 0.0921
H28 H 0.3769 0.4802 -0.0204
H29 H 0.2412 0.5793 -0.0266
H30 H -0.1891 0.8660 0.0886
H31 H -0.1496 0.9427 0.0279
H32 H -0.1340 0.9287 0.1228
H33 H 0.3350 0.7032 0.2722
H34 H 0.2757 0.6317 0.3175
H35 H 0.2318 0.7351 0.3117
H36 H 0.0083 1.0086 0.0940
H37 H -0.0658 1.1424 0.1432
H38 H -0.1398 1.1455 0.2782
H39 H -0.1385 1.0132 0.3645
H40 H -0.0627 0.8802 0.3161
N5 N 0.10127(16) 0.57153(16) 0.37783(12)
N6 N -0.20519(18) 0.74362(17) 0.24697(13)
C53 C 0.1132(2) 0.48270(19) 0.18483(15)
C54 C 0.1941(2) 0.4225(2) 0.18041(16)
C55 C 0.2483(3) 0.4099(2) 0.24348(18)
C56 C 0.2219(2) 0.45711(19) 0.31173(17)
C57 C 0.1403(2) 0.51655(19) 0.31638(15)
C58 C 0.01931(19) 0.62155(18) 0.35625(15)
C59 C -0.0420(2) 0.68542(19) 0.40039(15)
C60 C -0.1181(2) 0.7288(2) 0.36567(15)
C61 C -0.1319(2) 0.70709(19) 0.28883(15)
C62 C -0.1959(2) 0.7000(2) 0.17692(16)
C63 C -0.2559(2) 0.7129(3) 0.11811(17)
C64 C -0.2344(3) 0.6584(3) 0.05530(17)
C65 C -0.1562(3) 0.5940(3) 0.04997(17)
C66 C -0.0964(2) 0.58270(19) 0.10711(15)
C67 C -0.11522(19) 0.63640(19) 0.17235(14)
C68 C -0.07254(19) 0.64200(18) 0.24429(14)
C69 C 0.00616(19) 0.59842(18) 0.27911(14)
C70 C 0.08394(19) 0.53161(18) 0.25365(14)
C71 C 0.1398(3) 0.5681(3) 0.45383(17)
C72 C -0.2794(3) 0.8138(3) 0.27276(19)
C73 C -0.0279(2) 0.7111(2) 0.48194(15)
C74 C 0.0135(3) 0.7819(3) 0.48524(17)
C75 C 0.0271(3) 0.8055(3) 0.56025(18)
C76 C -0.0023(3) 0.7583(3) 0.63303(17)
C77 C -0.0438(3) 0.6880(3) 0.63029(16)
C78 C -0.0573(3) 0.6647(2) 0.55494(16)
H41 H 0.0772 0.4911 0.1413
H42 H 0.2130 0.3892 0.1340
H43 H 0.3040 0.3684 0.2394
H44 H 0.2589 0.4490 0.3545
H45 H -0.1609 0.7729 0.3935
H46 H -0.3092 0.7575 0.1215
H47 H -0.2741 0.6649 0.0148
H48 H -0.1434 0.5570 0.0061
H49 H -0.0427 0.5386 0.1022
H50 H 0.2014 0.5812 0.4407
H51 H 0.1420 0.5088 0.4833
H52 H 0.1018 0.6122 0.4887
H53 H -0.3369 0.7918 0.2811
H54 H -0.2820 0.8641 0.2301
H55 H -0.2696 0.8331 0.3246
H56 H 0.0330 0.8152 0.4355
H57 H 0.0566 0.8540 0.5616
H58 H 0.0062 0.7746 0.6845
H59 H -0.0635 0.6550 0.6801
H60 H -0.0871 0.6163 0.5537
N7 N 0.47453(17) 0.37248(17) 0.35029(13)
N8 N 0.26927(17) 0.54060(17) 0.60940(13)
C79 C 0.5206(3) 0.5935(3) 0.32295(17)
C80 C 0.5811(3) 0.5938(3) 0.25068(18)
C81 C 0.6095(3) 0.5178(3) 0.20916(18)
C82 C 0.5782(3) 0.4412(3) 0.23730(17)
C83 C 0.5164(2) 0.4412(2) 0.30966(16)
C84 C 0.4200(2) 0.4018(2) 0.42069(15)
C85 C 0.3650(2) 0.3542(2) 0.48026(16)
C86 C 0.3142(2) 0.39877(19) 0.54540(16)
C87 C 0.3177(2) 0.4868(2) 0.55046(16)
C88 C 0.2895(2) 0.6244(2) 0.59013(16)
C89 C 0.2561(3) 0.6996(3) 0.63124(18)
C90 C 0.2876(3) 0.7768(3) 0.60054(19)
C91 C 0.3505(3) 0.7785(3) 0.53055(18)
C92 C 0.3838(3) 0.7040(2) 0.48912(17)
C93 C 0.3539(2) 0.62452(19) 0.51793(15)
C94 C 0.37190(19) 0.53647(19) 0.49198(15)
C95 C 0.4245(2) 0.49168(19) 0.42530(15)
C96 C 0.4862(2) 0.5164(2) 0.35404(15)
C97 C 0.4918(3) 0.2854(3) 0.32137(18)
C98 C 0.2020(3) 0.5158(3) 0.67624(18)
C99 C 0.3553(3) 0.2603(2) 0.47624(16)
C100 C 0.4073(3) 0.1896(3) 0.51733(18)
C101 C 0.3967(3) 0.1037(3) 0.5153(2)
C102 C 0.3307(3) 0.0866(3) 0.4737(2)
C103 C 0.2772(3) 0.1553(3) 0.4337(2)
C104 C 0.2899(3) 0.2411(3) 0.43512(19)
H61 H 0.5026 0.6454 0.3514
H62 H 0.6034 0.6464 0.2291
H63 H 0.6517 0.5194 0.1600
H64 H 0.5978 0.3896 0.2086
H65 H 0.2769 0.3687 0.5867
H66 H 0.2126 0.6982 0.6794
H67 H 0.2656 0.8291 0.6279
H68 H 0.3715 0.8322 0.5104
H69 H 0.4271 0.7068 0.4409
H70 H 0.4556 0.2472 0.3588
H71 H 0.5566 0.2596 0.3199
H72 H 0.4749 0.2903 0.2658
H73 H 0.1421 0.5511 0.6683
H74 H 0.2181 0.5269 0.7288
H75 H 0.2003 0.4526 0.6769
H76 H 0.4515 0.2008 0.5477
H77 H 0.4347 0.0562 0.5424
H78 H 0.3225 0.0273 0.4729
H79 H 0.2316 0.1440 0.4050
H80 H 0.2524 0.2884 0.4071
loop_
_geom_bond_atom_site_label_1
_geom_bond_atom_site_label_2
_geom_bond_site_symmetry_1
_geom_bond_site_symmetry_2
N1 C5 1_555 1_555
N2 C9 1_555 1_555
C1 C2 1_555 1_555
C2 C3 1_555 1_555
C3 C4 1_555 1_555
C4 C5 1_555 1_555
C5 C18 1_555 1_555
C6 N1 1_555 1_555
C7 C6 1_555 1_555
C8 C7 1_555 1_555
C9 C8 1_555 1_555
C10 N2 1_555 1_555
C11 C10 1_555 1_555
C12 C11 1_555 1_555
C13 C12 1_555 1_555
C14 C13 1_555 1_555
C15 C10 1_555 1_555
C16 C9 1_555 1_555
C17 C6 1_555 1_555
C18 C1 1_555 1_555
C19 N1 1_555 1_555
C20 N2 1_555 1_555
C21 C7 1_555 1_555
C22 C21 1_555 1_555
C23 C22 1_555 1_555
C24 C23 1_555 1_555
C25 C24 1_555 1_555
C26 C21 1_555 1_555
H1 C1 1_555 1_555
H2 C2 1_555 1_555
H3 C3 1_555 1_555
H4 C4 1_555 1_555
H5 C8 1_555 1_555
H6 C11 1_555 1_555
H7 C12 1_555 1_555
H8 C13 1_555 1_555
H9 C14 1_555 1_555
H10 C19 1_555 1_555
H11 C19 1_555 1_555
H12 C19 1_555 1_555
H13 C20 1_555 1_555
H14 C20 1_555 1_555
H15 C20 1_555 1_555
H16 C22 1_555 1_555
H17 C23 1_555 1_555
H18 C24 1_555 1_555
H19 C25 1_555 1_555
H20 C26 1_555 1_555
N3 C31 1_555 1_555
N4 C35 1_555 1_555
C27 C28 1_555 1_555
C28 C29 1_555 1_555
C29 C30 1_555 1_555
C30 C31 1_555 1_555
C31 C44 1_555 1_555
C32 N3 1_555 1_555
C33 C32 1_555 1_555
C34 C33 1_555 1_555
C35 C34 1_555 1_555
C36 N4 1_555 1_555
C37 C36 1_555 1_555
C38 C37 1_555 1_555
C39 C38 1_555 1_555
C40 C39 1_555 1_555
C41 C36 1_555 1_555
C42 C35 1_555 1_555
C43 C32 1_555 1_555
C44 C27 1_555 1_555
C45 N3 1_555 1_555
C46 N4 1_555 1_555
C47 C33 1_555 1_555
C48 C47 1_555 1_555
C49 C48 1_555 1_555
C50 C49 1_555 1_555
C51 C50 1_555 1_555
C52 C47 1_555 1_555
H21 C27 1_555 1_555
H22 C28 1_555 1_555
H23 C29 1_555 1_555
H24 C30 1_555 1_555
H25 C34 1_555 1_555
H26 C37 1_555 1_555
H27 C38 1_555 1_555
H28 C39 1_555 1_555
H29 C40 1_555 1_555
H30 C45 1_555 1_555
H31 C45 1_555 1_555
H32 C45 1_555 1_555
H33 C46 1_555 1_555
H34 C46 1_555 1_555
H35 C46 1_555 1_555
H36 C48 1_555 1_555
H37 C49 1_555 1_555
H38 C50 1_555 1_555
H39 C51 1_555 1_555
H40 C52 1_555 1_555
N5 C57 1_555 1_555
N6 C61 1_555 1_555
C53 C54 1_555 1_555
C54 C55 1_555 1_555
C55 C56 1_555 1_555
C56 C57 1_555 1_555
C57 C70 1_555 1_555
C58 N5 1_555 1_555
C59 C58 1_555 1_555
C60 C59 1_555 1_555
C61 C60 1_555 1_555
C62 N6 1_555 1_555
C63 C62 1_555 1_555
C64 C63 1_555 1_555
C65 C64 1_555 1_555
C66 C65 1_555 1_555
C67 C62 1_555 1_555
C68 C61 1_555 1_555
C69 C58 1_555 1_555
C70 C53 1_555 1_555
C71 N5 1_555 1_555
C72 N6 1_555 1_555
C73 C59 1_555 1_555
C74 C73 1_555 1_555
C75 C74 1_555 1_555
C76 C75 1_555 1_555
C77 C76 1_555 1_555
C78 C73 1_555 1_555
H41 C53 1_555 1_555
H42 C54 1_555 1_555
H43 C55 1_555 1_555
H44 C56 1_555 1_555
H45 C60 1_555 1_555
H46 C63 1_555 1_555
H47 C64 1_555 1_555
H48 C65 1_555 1_555
H49 C66 1_555 1_555
H50 C71 1_555 1_555
H51 C71 1_555 1_555
H52 C71 1_555 1_555
H53 C72 1_555 1_555
H54 C72 1_555 1_555
H55 C72 1_555 1_555
H56 C74 1_555 1_555
H57 C75 1_555 1_555
H58 C76 1_555 1_555
H59 C77 1_555 1_555
H60 C78 1_555 1_555
N7 C83 1_555 1_555
N8 C87 1_555 1_555
C79 C80 1_555 1_555
C80 C81 1_555 1_555
C81 C82 1_555 1_555
C82 C83 1_555 1_555
C83 C96 1_555 1_555
C84 N7 1_555 1_555
C85 C84 1_555 1_555
C86 C85 1_555 1_555
C87 C86 1_555 1_555
C88 N8 1_555 1_555
C89 C88 1_555 1_555
C90 C89 1_555 1_555
C91 C90 1_555 1_555
C92 C91 1_555 1_555
C93 C88 1_555 1_555
C94 C87 1_555 1_555
C95 C84 1_555 1_555
C96 C79 1_555 1_555
C97 N7 1_555 1_555
C98 N8 1_555 1_555
C99 C85 1_555 1_555
C100 C99 1_555 1_555
C101 C100 1_555 1_555
C102 C101 1_555 1_555
C103 C102 1_555 1_555
C104 C99 1_555 1_555
H61 C79 1_555 1_555
H62 C80 1_555 1_555
H63 C81 1_555 1_555
H64 C82 1_555 1_555
H65 C86 1_555 1_555
H66 C89 1_555 1_555
H67 C90 1_555 1_555
H68 C91 1_555 1_555
H69 C92 1_555 1_555
H70 C97 1_555 1_555
H71 C97 1_555 1_555
H72 C97 1_555 1_555
H73 C98 1_555 1_555
H74 C98 1_555 1_555
H75 C98 1_555 1_555
H76 C100 1_555 1_555
H77 C101 1_555 1_555
H78 C102 1_555 1_555
H79 C103 1_555 1_555
H80 C104 1_555 1_555
C14 C15 1_555 1_555
C15 C16 1_555 1_555
C16 C17 1_555 1_555
C17 C18 1_555 1_555
C25 C26 1_555 1_555
C40 C41 1_555 1_555
C41 C42 1_555 1_555
C42 C43 1_555 1_555
C43 C44 1_555 1_555
C51 C52 1_555 1_555
C66 C67 1_555 1_555
C67 C68 1_555 1_555
C68 C69 1_555 1_555
C69 C70 1_555 1_555
C77 C78 1_555 1_555
C92 C93 1_555 1_555
C93 C94 1_555 1_555
C94 C95 1_555 1_555
C95 C96 1_555 1_555
C103 C104 1_555 1_555

#END
