
#######################################################################
#
#                 Cambridge Crystallographic Data Centre
#                                CCDC 
#
#######################################################################
#
# If this CIF has been generated from an entry in the Cambridge 
# Structural Database, then it will include bibliographic, chemical, 
# crystal, experimental, refinement or atomic coordinate data resulting 
# from the CCDC's data processing and validation procedures.
#
#######################################################################

data_GIHGIO
_chemical_formula_moiety         'C16 H14'
_chemical_name_systematic        4,4'-Bibenzocyclobutene
_symmetry_cell_setting           monoclinic
_symmetry_space_group_name_H-M   'P 21/n'
_symmetry_Int_Tables_number      14
_space_group_name_Hall           '-P 2yn'
loop_
_symmetry_equiv_pos_site_id
_symmetry_equiv_pos_as_xyz
1 x,y,z
2 1/2-x,1/2+y,1/2-z
3 -x,-y,-z
4 1/2+x,1/2-y,1/2+z
_cell_length_a                   8.0250(16)
_cell_length_b                   11.365(2)
_cell_length_c                   12.850(3)
_cell_angle_alpha                90
_cell_angle_beta                 101.19(3)
_cell_angle_gamma                90
_cell_volume                     1149.69
_exptl_crystal_colour            colorless
_exptl_crystal_description       block
_chemical_melting_point          '333 K'
_cell_formula_units_Z            4
_exptl_crystal_recrystallization_method hexane
loop_
_atom_site_label
_atom_site_type_symbol
_atom_site_fract_x
_atom_site_fract_y
_atom_site_fract_z
C1 C 0.0790(4) 0.9190(3) 0.31338(18)
H1 H 0.1490 0.9893 0.3212
H2 H -0.0403 0.9381 0.2901
C2 C 0.1442(3) 0.8183(3) 0.24864(19)
H3 H 0.0580 0.7859 0.1925
H4 H 0.2470 0.8375 0.2231
C3 C 0.1737(3) 0.7478(2) 0.34986(18)
C4 C 0.2271(3) 0.6419(2) 0.3941(2)
H5 H 0.2675 0.5831 0.3553
C5 C 0.2181(3) 0.6263(2) 0.50072(19)
H6 H 0.2547 0.5555 0.5336
C6 C 0.1557(3) 0.7139(2) 0.55964(17)
C7 C 0.1062(3) 0.8223(2) 0.51261(17)
H7 H 0.0685 0.8829 0.5508
C8 C 0.1155(3) 0.8361(2) 0.40726(17)
C9 C 0.1413(3) 0.6890(2) 0.67190(17)
C10 C 0.1747(3) 0.7754(2) 0.74977(17)
H8 H 0.2084 0.8507 0.7344
C11 C 0.1560(3) 0.7448(2) 0.85081(17)
C12 C 0.1065(3) 0.6355(2) 0.87572(18)
C13 C 0.0705(3) 0.5482(2) 0.8009(2)
H9 H 0.0351 0.4738 0.8177
C14 C 0.0897(3) 0.5770(2) 0.69819(18)
H10 H 0.0675 0.5198 0.6455
C15 C 0.1723(3) 0.7919(2) 0.96359(17)
H11 H 0.0934 0.8546 0.9710
H12 H 0.2874 0.8116 0.9981
C16 C 0.1122(4) 0.6654(2) 0.99105(19)
H13 H 0.1963 0.6215 1.0405
H14 H 0.0023 0.6640 1.0119
loop_
_geom_bond_atom_site_label_1
_geom_bond_atom_site_label_2
_geom_bond_site_symmetry_1
_geom_bond_site_symmetry_2
C1 H1 1_555 1_555
H2 C1 1_555 1_555
C2 C1 1_555 1_555
H3 C2 1_555 1_555
H4 C2 1_555 1_555
C3 C2 1_555 1_555
C4 C3 1_555 1_555
H5 C4 1_555 1_555
C5 C4 1_555 1_555
H6 C5 1_555 1_555
C6 C5 1_555 1_555
C7 C6 1_555 1_555
H7 C7 1_555 1_555
C8 C1 1_555 1_555
C9 C6 1_555 1_555
C10 C9 1_555 1_555
H8 C10 1_555 1_555
C11 C10 1_555 1_555
C12 C11 1_555 1_555
C13 C12 1_555 1_555
H9 C13 1_555 1_555
C14 C9 1_555 1_555
H10 C14 1_555 1_555
C15 C11 1_555 1_555
H11 C15 1_555 1_555
H12 C15 1_555 1_555
C16 C12 1_555 1_555
H13 C16 1_555 1_555
H14 C16 1_555 1_555
C3 C8 1_555 1_555
C7 C8 1_555 1_555
C13 C14 1_555 1_555
C15 C16 1_555 1_555

#END
