
#######################################################################
#
#                 Cambridge Crystallographic Data Centre
#                                CCDC 
#
#######################################################################
#
# If this CIF has been generated from an entry in the Cambridge 
# Structural Database, then it will include bibliographic, chemical, 
# crystal, experimental, refinement or atomic coordinate data resulting 
# from the CCDC's data processing and validation procedures.
#
#######################################################################

data_GIHGEK
_chemical_formula_moiety         'C6 H15 N4 O2 1+,C4 H3 O4 1-,2(H2 O1)'
_chemical_name_systematic        'L-Argininium maleate dihydrate'
_symmetry_cell_setting           triclinic
_symmetry_space_group_name_H-M   'P 1'
_symmetry_Int_Tables_number      1
_space_group_name_Hall           'P 1'
loop_
_symmetry_equiv_pos_site_id
_symmetry_equiv_pos_as_xyz
1 x,y,z
_cell_length_a                   5.27100(10)
_cell_length_b                   8.0481(2)
_cell_length_c                   9.7942(2)
_cell_angle_alpha                106.1550(10)
_cell_angle_beta                 97.2650(10)
_cell_angle_gamma                101.649(2)
_cell_volume                     383.422
_exptl_crystal_colour            colorless
_exptl_crystal_description       ball
_cell_formula_units_Z            1
_exptl_crystal_recrystallization_method 'aqueous solution'
loop_
_atom_site_label
_atom_site_type_symbol
_atom_site_fract_x
_atom_site_fract_y
_atom_site_fract_z
C1 C 0.5124(4) 0.2367(3) 1.1719(2)
N1 N 0.4360(3) 0.2303(2) 1.03538(19)
H1 H 0.5434 0.2894 0.9964
C2 C 0.1777(4) 0.1272(3) 0.9496(2)
H2 H 0.0443 0.1862 0.9844
H3 H 0.1402 0.0100 0.9625
C3 C 0.1611(4) 0.1056(3) 0.7893(2)
H4 H 0.1615 0.2190 0.7727
H5 H 0.3128 0.0672 0.7575
C4 C -0.0919(4) -0.0327(3) 0.7043(2)
H6 H -0.2383 0.0017 0.7458
H7 H -0.0821 -0.1463 0.7177
C5 C -0.1544(3) -0.0604(3) 0.5413(2)
H8 H -0.3139 -0.1580 0.4988
C6 C -0.2084(4) 0.1066(3) 0.5100(2)
N2 N 0.7486(4) 0.3327(3) 1.2460(2)
H9 H 0.7976 0.3352 1.3339
H10 H 0.8535 0.3926 1.2064
N3 N 0.3535(4) 0.1452(3) 1.2346(2)
H11 H 0.4045 0.1487 1.3225
H12 H 0.1992 0.0823 1.1874
N4 N 0.0642(3) -0.1117(2) 0.46877(18)
H13 H 0.2068 -0.0204 0.4995
H14 H 0.0140 -0.1399 0.3732
H15 H 0.1020 -0.2054 0.4905
O1 O -0.0316(3) 0.2044(2) 0.47618(19)
O2 O -0.4342(3) 0.1313(2) 0.52342(17)
C7 C 0.6354(4) 0.7889(3) 0.1320(3)
C8 C 0.4657(5) 0.7478(3) -0.0122(2)
H16 H 0.5449 0.7996 -0.0751
C9 C 0.2192(4) 0.6491(3) -0.0667(2)
H17 H 0.1538 0.6440 -0.1610
C10 C 0.0314(4) 0.5456(3) -0.0001(2)
O3 O 0.1045(3) 0.5427(3) 0.12759(19)
O4 O -0.1896(3) 0.4639(2) -0.07398(19)
O5 O 0.8595(4) 0.8837(3) 0.1586(2)
O6 O 0.5485(4) 0.7220(3) 0.2274(2)
H18 H 0.338(9) 0.632(6) 0.179(5)
O7 O 0.1916(5) 0.6117(3) 0.5624(3)
H19 H 0.344(6) 0.585(7) 0.583(6)
H20 H 0.054(7) 0.527(5) 0.552(6)
O8 O 0.6324(5) 0.4954(3) 0.6468(2)
H21 H 0.678(8) 0.498(6) 0.736(3)
H22 H 0.582(10) 0.383(3) 0.596(5)
loop_
_geom_bond_atom_site_label_1
_geom_bond_atom_site_label_2
_geom_bond_site_symmetry_1
_geom_bond_site_symmetry_2
C1 N1 1_555 1_555
N1 H1 1_555 1_555
C2 N1 1_555 1_555
H2 C2 1_555 1_555
H3 C2 1_555 1_555
C3 C2 1_555 1_555
H4 C3 1_555 1_555
H5 C3 1_555 1_555
C4 C3 1_555 1_555
H6 C4 1_555 1_555
H7 C4 1_555 1_555
C5 C4 1_555 1_555
H8 C5 1_555 1_555
C6 C5 1_555 1_555
N2 C1 1_555 1_555
H9 N2 1_555 1_555
H10 N2 1_555 1_555
N3 C1 1_555 1_555
H11 N3 1_555 1_555
H12 N3 1_555 1_555
N4 C5 1_555 1_555
H13 N4 1_555 1_555
H14 N4 1_555 1_555
H15 N4 1_555 1_555
O1 C6 1_555 1_555
O2 C6 1_555 1_555
C7 C8 1_555 1_555
C8 H16 1_555 1_555
C9 C8 1_555 1_555
H17 C9 1_555 1_555
C10 C9 1_555 1_555
O3 C10 1_555 1_555
O4 C10 1_555 1_555
O5 C7 1_555 1_555
O6 C7 1_555 1_555
H18 O6 1_555 1_555
O7 H19 1_555 1_555
H20 O7 1_555 1_555
O8 H21 1_555 1_555
H22 O8 1_555 1_555

#END
