
#######################################################################
#
#                 Cambridge Crystallographic Data Centre
#                                CCDC 
#
#######################################################################
#
# If this CIF has been generated from an entry in the Cambridge 
# Structural Database, then it will include bibliographic, chemical, 
# crystal, experimental, refinement or atomic coordinate data resulting 
# from the CCDC's data processing and validation procedures.
#
#######################################################################

data_GIHKUF
_chemical_formula_moiety         'C21 H26 N4 O5'
_chemical_name_systematic        
N-Ethyl-5-(((3-(ethylcarbamoyl)-4-methoxyphenyl)carbamoyl)amino)-2-methoxybenzamide
_symmetry_cell_setting           monoclinic
_symmetry_space_group_name_H-M   'C 2/c'
_symmetry_Int_Tables_number      15
_space_group_name_Hall           '-C 2yn'
loop_
_symmetry_equiv_pos_site_id
_symmetry_equiv_pos_as_xyz
1 x,y,z
2 -x,y,1/2-z
3 1/2+x,1/2+y,z
4 1/2-x,1/2+y,1/2-z
5 -x,-y,-z
6 x,-y,1/2+z
7 1/2-x,1/2-y,-z
8 1/2+x,1/2-y,1/2+z
_cell_length_a                   8.4737(3)
_cell_length_b                   16.6247(5)
_cell_length_c                   28.3411(9)
_cell_angle_alpha                90
_cell_angle_beta                 93.637(2)
_cell_angle_gamma                90
_cell_volume                     3984.45
_exptl_crystal_colour            colorless
_exptl_crystal_description       block
_cell_formula_units_Z            8
loop_
_atom_site_label
_atom_site_type_symbol
_atom_site_fract_x
_atom_site_fract_y
_atom_site_fract_z
O1 O 0.98091(12) 0.23771(6) 0.55844(4)
O2 O 0.99899(12) 0.00147(6) 0.59792(4)
O3 O 1.80021(13) 0.03952(6) 0.22356(4)
N1 N 1.36284(14) 0.11196(7) 0.45384(4)
H1 H 1.3945 0.1622 0.4570
O4 O 1.36971(12) 0.00060(6) 0.40630(4)
N2 N 1.49399(14) 0.11683(7) 0.38642(4)
H2 H 1.5077 0.1674 0.3949
N3 N 1.83002(15) 0.19746(8) 0.21046(5)
H3 H 1.8454 0.1478 0.2010
C1 C 1.27088(16) 0.08021(9) 0.48953(5)
O5 O 1.73104(15) 0.27758(7) 0.26480(4)
C2 C 1.16487(16) 0.13064(8) 0.51029(5)
H4 H 1.1549 0.1847 0.4996
N4 N 0.82992(13) 0.13706(7) 0.58380(4)
H5 H 0.8212 0.0849 0.5883
C3 C 1.07234(16) 0.10462(8) 0.54632(5)
C4 C 1.19753(16) -0.02552(9) 0.54170(5)
H6 H 1.2098 -0.0794 0.5525
C5 C 0.95723(16) 0.16447(9) 0.56401(5)
C6 C 1.08982(16) 0.02477(9) 0.56218(5)
C7 C 1.72342(17) 0.05576(9) 0.26375(5)
C8 C 1.28690(16) 0.00174(9) 0.50584(5)
H7 H 1.3598 -0.0335 0.4923
C9 C 1.69948(16) 0.13678(9) 0.27574(5)
C10 C 1.61785(16) 0.15296(9) 0.31582(5)
H8 H 1.5974 0.2074 0.3235
C11 C 1.59246(18) 0.01326(9) 0.33307(5)
H9 H 1.5584 -0.0290 0.3526
C12 C 1.75351(17) 0.20967(9) 0.24978(5)
C13 C 1.40647(16) 0.07081(9) 0.41482(5)
C14 C 1.56521(16) 0.09288(9) 0.34493(5)
C15 C 1.00557(18) -0.08047(9) 0.61279(6)
H10 H 0.9852 -0.1156 0.5853
H11 H 0.9254 -0.0900 0.6356
H12 H 1.1107 -0.0921 0.6277
C16 C 0.70387(17) 0.18947(9) 0.59845(5)
H13 H 0.7484 0.2432 0.6064
H14 H 0.6603 0.1671 0.6273
C17 C 1.66966(18) -0.00444(9) 0.29255(6)
H15 H 1.6860 -0.0591 0.2844
C18 C 1.8114(2) -0.04270(10) 0.20911(6)
H16 H 1.8690 -0.0457 0.1803
H17 H 1.7049 -0.0649 0.2029
H18 H 1.8678 -0.0738 0.2343
C19 C 1.88846(19) 0.26361(10) 0.18289(6)
H19 H 1.9770 0.2442 0.1648
H20 H 1.9297 0.3064 0.2046
C20 C 1.7619(2) 0.29844(12) 0.14914(6)
H21 H 1.7251 0.2571 0.1263
H22 H 1.8052 0.3440 0.1323
H23 H 1.6730 0.3168 0.1669
C21 C 0.5726(2) 0.19830(12) 0.56049(6)
H24 H 0.6152 0.2206 0.5319
H25 H 0.4915 0.2345 0.5715
H26 H 0.5257 0.1455 0.5533
loop_
_geom_bond_atom_site_label_1
_geom_bond_atom_site_label_2
_geom_bond_site_symmetry_1
_geom_bond_site_symmetry_2
O1 C5 1_555 1_555
O2 C6 1_555 1_555
O3 C7 1_555 1_555
N1 H1 1_555 1_555
O4 C13 1_555 1_555
N2 H2 1_555 1_555
N3 H3 1_555 1_555
C1 N1 1_555 1_555
O5 C12 1_555 1_555
C2 C1 1_555 1_555
H4 C2 1_555 1_555
N4 H5 1_555 1_555
C3 C2 1_555 1_555
C4 H6 1_555 1_555
C5 N4 1_555 1_555
C6 C3 1_555 1_555
C7 C9 1_555 1_555
C8 C1 1_555 1_555
H7 C8 1_555 1_555
C9 C10 1_555 1_555
C10 H8 1_555 1_555
C11 H9 1_555 1_555
C12 N3 1_555 1_555
C13 N1 1_555 1_555
C14 N2 1_555 1_555
C15 O2 1_555 1_555
H10 C15 1_555 1_555
H11 C15 1_555 1_555
H12 C15 1_555 1_555
C16 N4 1_555 1_555
H13 C16 1_555 1_555
H14 C16 1_555 1_555
C17 C7 1_555 1_555
H15 C17 1_555 1_555
C18 O3 1_555 1_555
H16 C18 1_555 1_555
H17 C18 1_555 1_555
H18 C18 1_555 1_555
C19 N3 1_555 1_555
H19 C19 1_555 1_555
H20 C19 1_555 1_555
C20 C19 1_555 1_555
H21 C20 1_555 1_555
H22 C20 1_555 1_555
H23 C20 1_555 1_555
C21 C16 1_555 1_555
H24 C21 1_555 1_555
H25 C21 1_555 1_555
H26 C21 1_555 1_555
N2 C13 1_555 1_555
C3 C5 1_555 1_555
C4 C6 1_555 1_555
C4 C8 1_555 1_555
C9 C12 1_555 1_555
C10 C14 1_555 1_555
C11 C14 1_555 1_555
C11 C17 1_555 1_555

#END
