
#######################################################################
#
#                 Cambridge Crystallographic Data Centre
#                                CCDC 
#
#######################################################################
#
# If this CIF has been generated from an entry in the Cambridge 
# Structural Database, then it will include bibliographic, chemical, 
# crystal, experimental, refinement or atomic coordinate data resulting 
# from the CCDC's data processing and validation procedures.
#
#######################################################################

data_GIHLOB
_chemical_formula_moiety         'C28 H47 N4 Na1 O1 Si1'
_chemical_name_systematic        
(1-diphenyl(dihydrido)silyl-4,7,10-trimethyl-1,4,7,10-tetraazacyclododecane)-tetrahydropyran-sodium
_symmetry_cell_setting           monoclinic
_symmetry_space_group_name_H-M   'P 21/n'
_symmetry_Int_Tables_number      14
_space_group_name_Hall           '-P 2yn'
loop_
_symmetry_equiv_pos_site_id
_symmetry_equiv_pos_as_xyz
1 x,y,z
2 1/2-x,1/2+y,1/2-z
3 -x,-y,-z
4 1/2+x,1/2-y,1/2+z
_cell_length_a                   12.927(3)
_cell_length_b                   17.412(4)
_cell_length_c                   12.968(3)
_cell_angle_alpha                90
_cell_angle_beta                 94.422(4)
_cell_angle_gamma                90
_cell_volume                     2910.21
_exptl_crystal_colour            colorless
_exptl_crystal_description       block
_cell_formula_units_Z            4
_chemical_properties_physical    'air- and moisture-sensitive'
_exptl_crystal_recrystallization_method tetrahydropyran
loop_
_atom_site_label
_atom_site_type_symbol
_atom_site_fract_x
_atom_site_fract_y
_atom_site_fract_z
Na1 Na 0.31210(8) 0.32790(7) 0.68598(9)
O1 O 0.45438(16) 0.41083(13) 0.72063(17)
Si1 Si 0.33276(6) 0.20645(5) 0.49311(7)
H1 H 0.295(2) 0.1258(17) 0.500(2)
H2 H 0.368(2) 0.2925(16) 0.484(2)
N1 N 0.22067(17) 0.24365(15) 0.5559(2)
N2 N 0.26133(18) 0.21143(15) 0.78046(19)
N3 N 0.21226(19) 0.37370(15) 0.8388(2)
N4 N 0.17390(19) 0.41136(15) 0.6086(2)
C1 C 0.1595(2) 0.18819(19) 0.6111(2)
H3 H 0.1349 0.1467 0.5631
H4 H 0.0979 0.2142 0.6357
C2 C 0.2236(2) 0.15353(18) 0.7030(2)
H5 H 0.1809 0.1152 0.7368
H6 H 0.2840 0.1263 0.6776
C3 C 0.1787(2) 0.23223(19) 0.8476(3)
H7 H 0.1710 0.1902 0.8979
H8 H 0.1124 0.2367 0.8045
C4 C 0.1985(2) 0.30663(18) 0.9064(3)
H9 H 0.1395 0.3167 0.9488
H10 H 0.2616 0.3006 0.9540
C5 C 0.1127(2) 0.39769(19) 0.7866(3)
H11 H 0.0721 0.4252 0.8368
H12 H 0.0729 0.3514 0.7634
C6 C 0.1246(2) 0.44966(19) 0.6936(3)
H13 H 0.0552 0.4684 0.6673
H14 H 0.1667 0.4949 0.7164
C7 C 0.1018(2) 0.35859(19) 0.5507(3)
H15 H 0.0559 0.3888 0.5013
H16 H 0.0575 0.3334 0.5998
C8 C 0.1561(2) 0.29659(18) 0.4911(2)
H17 H 0.1027 0.2665 0.4499
H18 H 0.2002 0.3220 0.4421
C9 C 0.3529(2) 0.18290(19) 0.8408(3)
H19 H 0.4083 0.1734 0.7949
H20 H 0.3358 0.1349 0.8752
H21 H 0.3762 0.2212 0.8929
C10 C 0.2567(3) 0.4372(2) 0.9036(3)
H22 H 0.2083 0.4513 0.9550
H23 H 0.2686 0.4817 0.8598
H24 H 0.3227 0.4207 0.9390
C11 C 0.2132(3) 0.4684(2) 0.5383(3)
H25 H 0.2656 0.5005 0.5763
H26 H 0.1558 0.5008 0.5101
H27 H 0.2446 0.4421 0.4816
C12 C 0.4554(2) 0.17993(18) 0.5775(2)
C13 C 0.5241(2) 0.2349(2) 0.6227(2)
H28 H 0.5107 0.2877 0.6091
C14 C 0.6110(2) 0.2148(2) 0.6867(3)
H29 H 0.6547 0.2536 0.7177
C15 C 0.6336(2) 0.1381(2) 0.7052(3)
H30 H 0.6933 0.1242 0.7486
C16 C 0.5694(2) 0.0817(2) 0.6604(3)
H31 H 0.5851 0.0290 0.6723
C17 C 0.4817(2) 0.10283(19) 0.5979(3)
H32 H 0.4379 0.0636 0.5679
C18 C 0.3404(2) 0.19423(18) 0.3467(2)
C19 C 0.3128(2) 0.1245(2) 0.2987(2)
H33 H 0.2905 0.0834 0.3398
C20 C 0.3169(2) 0.1131(2) 0.1926(3)
H34 H 0.2985 0.0649 0.1623
C21 C 0.3478(2) 0.1728(2) 0.1326(3)
H35 H 0.3490 0.1660 0.0600
C22 C 0.3768(2) 0.2419(2) 0.1764(3)
H36 H 0.3990 0.2826 0.1346
C23 C 0.3734(2) 0.25205(19) 0.2828(3)
H37 H 0.3943 0.3000 0.3126
C24 C 0.5065(3) 0.4521(2) 0.6434(3)
H38 H 0.4612 0.4542 0.5783
H39 H 0.5709 0.4246 0.6292
C25 C 0.5332(3) 0.5329(2) 0.6788(3)
H40 H 0.4686 0.5620 0.6873
H41 H 0.5715 0.5593 0.6259
C26 C 0.5995(3) 0.5312(2) 0.7813(3)
H42 H 0.6690 0.5104 0.7701
H43 H 0.6084 0.5841 0.8086
C27 C 0.5484(3) 0.48138(19) 0.8597(3)
H44 H 0.5967 0.4747 0.9222
H45 H 0.4852 0.5073 0.8807
C28 C 0.5199(3) 0.4037(2) 0.8143(3)
H46 H 0.5840 0.3757 0.7998
H47 H 0.4837 0.3733 0.8651
loop_
_geom_bond_atom_site_label_1
_geom_bond_atom_site_label_2
_geom_bond_site_symmetry_1
_geom_bond_site_symmetry_2
Na1 O1 1_555 1_555
O1 C24 1_555 1_555
Si1 H1 1_555 1_555
H2 Si1 1_555 1_555
N1 Na1 1_555 1_555
N2 Na1 1_555 1_555
N3 Na1 1_555 1_555
N4 Na1 1_555 1_555
C1 N1 1_555 1_555
H3 C1 1_555 1_555
H4 C1 1_555 1_555
C2 N2 1_555 1_555
H5 C2 1_555 1_555
H6 C2 1_555 1_555
C3 N2 1_555 1_555
H7 C3 1_555 1_555
H8 C3 1_555 1_555
C4 N3 1_555 1_555
H9 C4 1_555 1_555
H10 C4 1_555 1_555
C5 N3 1_555 1_555
H11 C5 1_555 1_555
H12 C5 1_555 1_555
C6 N4 1_555 1_555
H13 C6 1_555 1_555
H14 C6 1_555 1_555
C7 N4 1_555 1_555
H15 C7 1_555 1_555
H16 C7 1_555 1_555
C8 N1 1_555 1_555
H17 C8 1_555 1_555
H18 C8 1_555 1_555
C9 N2 1_555 1_555
H19 C9 1_555 1_555
H20 C9 1_555 1_555
H21 C9 1_555 1_555
C10 N3 1_555 1_555
H22 C10 1_555 1_555
H23 C10 1_555 1_555
H24 C10 1_555 1_555
C11 N4 1_555 1_555
H25 C11 1_555 1_555
H26 C11 1_555 1_555
H27 C11 1_555 1_555
C12 Si1 1_555 1_555
C13 C12 1_555 1_555
H28 C13 1_555 1_555
C14 C13 1_555 1_555
H29 C14 1_555 1_555
C15 C14 1_555 1_555
H30 C15 1_555 1_555
C16 C15 1_555 1_555
H31 C16 1_555 1_555
C17 C12 1_555 1_555
H32 C17 1_555 1_555
C18 Si1 1_555 1_555
C19 C18 1_555 1_555
H33 C19 1_555 1_555
C20 C19 1_555 1_555
H34 C20 1_555 1_555
C21 C20 1_555 1_555
H35 C21 1_555 1_555
C22 C21 1_555 1_555
H36 C22 1_555 1_555
C23 C18 1_555 1_555
H37 C23 1_555 1_555
C24 H38 1_555 1_555
H39 C24 1_555 1_555
C25 C24 1_555 1_555
H40 C25 1_555 1_555
H41 C25 1_555 1_555
C26 C25 1_555 1_555
H42 C26 1_555 1_555
H43 C26 1_555 1_555
C27 C26 1_555 1_555
H44 C27 1_555 1_555
H45 C27 1_555 1_555
C28 O1 1_555 1_555
H46 C28 1_555 1_555
H47 C28 1_555 1_555
Si1 N1 1_555 1_555
C1 C2 1_555 1_555
C3 C4 1_555 1_555
C5 C6 1_555 1_555
C7 C8 1_555 1_555
C16 C17 1_555 1_555
C22 C23 1_555 1_555
C27 C28 1_555 1_555

#END
