
#######################################################################
#
#                 Cambridge Crystallographic Data Centre
#                                CCDC 
#
#######################################################################
#
# If this CIF has been generated from an entry in the Cambridge 
# Structural Database, then it will include bibliographic, chemical, 
# crystal, experimental, refinement or atomic coordinate data resulting 
# from the CCDC's data processing and validation procedures.
#
#######################################################################

data_GIHLER
_chemical_formula_moiety         'C27 H45 Li1 N4 O1 Si1'
_chemical_name_systematic        
(1-diphenyl(dihydrido)silyl-4,7,10-trimethyl-1,4,7,10-tetraazacyclododecane)-tetrahydrofuran-lithium
_symmetry_cell_setting           monoclinic
_symmetry_space_group_name_H-M   'P 21/n'
_symmetry_Int_Tables_number      14
_space_group_name_Hall           '-P 2yn'
loop_
_symmetry_equiv_pos_site_id
_symmetry_equiv_pos_as_xyz
1 x,y,z
2 1/2-x,1/2+y,1/2-z
3 -x,-y,-z
4 1/2+x,1/2-y,1/2+z
_cell_length_a                   10.7332(10)
_cell_length_b                   16.9689(17)
_cell_length_c                   14.8291(15)
_cell_angle_alpha                90
_cell_angle_beta                 91.9876(17)
_cell_angle_gamma                90
_cell_volume                     2699.21
_exptl_crystal_colour            colorless
_exptl_crystal_description       block
_cell_formula_units_Z            4
_chemical_properties_physical    'air- and moisture-sensitive'
_exptl_crystal_recrystallization_method tetrahydrofuran
loop_
_atom_site_label
_atom_site_type_symbol
_atom_site_fract_x
_atom_site_fract_y
_atom_site_fract_z
Si1 Si 0.12684(5) 0.19460(3) 0.68313(4)
H1 H 0.146(2) 0.1916(13) 0.5838(14)
H2 H 0.118(2) 0.2022(13) 0.7827(14)
O1 O 0.35975(14) 0.35966(9) 0.61020(11)
N1 N 0.28963(15) 0.15956(10) 0.69736(11)
N2 N 0.46771(15) 0.17742(11) 0.54498(12)
N3 N 0.63051(16) 0.27340(10) 0.65608(12)
N4 N 0.46113(17) 0.26764(11) 0.80053(12)
Li1 Li 0.4217(3) 0.2584(2) 0.6558(2)
C1 C 0.32172(19) 0.09634(12) 0.63410(15)
H3 H 0.2588 0.0959 0.5837
H4 H 0.3162 0.0451 0.6657
C2 C 0.45133(19) 0.10339(13) 0.59489(15)
H5 H 0.5151 0.1004 0.6446
H6 H 0.4648 0.0584 0.5539
C3 C 0.59936(19) 0.18907(15) 0.52174(16)
H7 H 0.6042 0.2324 0.4773
H8 H 0.6304 0.1405 0.4931
C4 C 0.6824(2) 0.20862(13) 0.60363(16)
H9 H 0.6916 0.1613 0.6424
H10 H 0.7662 0.2236 0.5837
C5 C 0.6803(2) 0.27300(16) 0.74985(16)
H11 H 0.7549 0.3073 0.7540
H12 H 0.7071 0.2188 0.7658
C6 C 0.5904(3) 0.3000(2) 0.8160(2)
H13 H 0.5863 0.3583 0.8141
H14 H 0.6213 0.2846 0.8772
C7 C 0.4655(3) 0.18022(17) 0.81429(19)
H15 H 0.4879 0.1686 0.8782
H16 H 0.5306 0.1572 0.7766
C8 C 0.33943(19) 0.14250(13) 0.78922(14)
H17 H 0.3476 0.0847 0.7959
H18 H 0.2779 0.1606 0.8329
C9 C 0.3895(2) 0.17660(18) 0.46161(15)
H19 H 0.4061 0.1285 0.4275
H20 H 0.4087 0.2228 0.4249
H21 H 0.3014 0.1779 0.4769
C10 C 0.6552(2) 0.34914(14) 0.61312(18)
H22 H 0.6176 0.3916 0.6478
H23 H 0.6191 0.3491 0.5515
H24 H 0.7454 0.3575 0.6113
C11 C 0.3775(3) 0.3044(2) 0.8599(2)
H25 H 0.2918 0.2888 0.8434
H26 H 0.3854 0.3618 0.8552
H27 H 0.3977 0.2879 0.9221
C12 C 0.06464(17) 0.30137(12) 0.66960(13)
C13 C 0.04798(18) 0.35151(13) 0.74299(14)
H28 H 0.0694 0.3332 0.8020
C14 C 0.00090(19) 0.42746(13) 0.73215(16)
H29 H -0.0088 0.4602 0.7834
C15 C -0.03182(19) 0.45541(13) 0.64690(16)
H30 H -0.0633 0.5074 0.6392
C16 C -0.01817(19) 0.40669(13) 0.57278(16)
H31 H -0.0416 0.4249 0.5140
C17 C 0.02981(18) 0.33133(12) 0.58472(14)
H32 H 0.0393 0.2989 0.5332
C18 C -0.00592(18) 0.11833(12) 0.67562(16)
C19 C -0.0758(2) 0.09887(17) 0.75051(19)
H33 H -0.0556 0.1230 0.8070
C20 C -0.1734(2) 0.0456(2) 0.7448(3)
H34 H -0.2195 0.0344 0.7967
C21 C -0.2038(2) 0.00905(16) 0.6648(3)
H35 H -0.2703 -0.0279 0.6612
C22 C -0.1369(2) 0.02627(16) 0.5891(3)
H36 H -0.1574 0.0013 0.5332
C23 C -0.0389(2) 0.08072(14) 0.59522(19)
H37 H 0.0063 0.0922 0.5429
C24 C 0.3547(3) 0.43271(14) 0.6611(2)
H38 H 0.4225 0.4345 0.7081
H39 H 0.2737 0.4377 0.6907
C25 C 0.3701(3) 0.49759(16) 0.5934(2)
H40 H 0.3339 0.5478 0.6141
H41 H 0.4587 0.5058 0.5796
C26 C 0.2980(2) 0.46441(18) 0.5151(2)
H42 H 0.3234 0.4890 0.4581
H43 H 0.2074 0.4726 0.5216
C27 C 0.3306(2) 0.37501(17) 0.51687(18)
H44 H 0.2588 0.3429 0.4949
H45 H 0.4030 0.3637 0.4793
H46? H 0.7044 0.3270 0.7686
H47? H 0.7551 0.2389 0.7551
C28? C 0.5783(7) 0.2415(7) 0.8105(6)
H48? H 0.5758 0.1835 0.8029
H49? H 0.6060 0.2518 0.8737
C29? C 0.3610(7) 0.2171(6) 0.8422(5)
H50? H 0.3868 0.2038 0.9051
H51? H 0.2822 0.2474 0.8436
H52? H 0.4190 0.1134 0.7855
H53? H 0.2799 0.1086 0.8208
C30? C 0.4389(9) 0.3484(7) 0.8477(7)
H54? H 0.3516 0.3641 0.8380
H55? H 0.4933 0.3884 0.8222
H56? H 0.4579 0.3433 0.9126
loop_
_geom_bond_atom_site_label_1
_geom_bond_atom_site_label_2
_geom_bond_site_symmetry_1
_geom_bond_site_symmetry_2
Si1 H1 1_555 1_555
H2 Si1 1_555 1_555
O1 Li1 1_555 1_555
N1 Si1 1_555 1_555
N2 Li1 1_555 1_555
N3 Li1 1_555 1_555
N4 Li1 1_555 1_555
Li1 N1 1_555 1_555
C1 N1 1_555 1_555
H3 C1 1_555 1_555
H4 C1 1_555 1_555
C2 N2 1_555 1_555
H5 C2 1_555 1_555
H6 C2 1_555 1_555
C3 N2 1_555 1_555
H7 C3 1_555 1_555
H8 C3 1_555 1_555
C4 N3 1_555 1_555
H9 C4 1_555 1_555
H10 C4 1_555 1_555
C5 N3 1_555 1_555
H11 C5 1_555 1_555
H12 C5 1_555 1_555
C6 N4 1_555 1_555
H13 C6 1_555 1_555
H14 C6 1_555 1_555
C7 N4 1_555 1_555
H15 C7 1_555 1_555
H16 C7 1_555 1_555
C8 N1 1_555 1_555
H17 C8 1_555 1_555
H18 C8 1_555 1_555
C9 N2 1_555 1_555
H19 C9 1_555 1_555
H20 C9 1_555 1_555
H21 C9 1_555 1_555
C10 N3 1_555 1_555
H22 C10 1_555 1_555
H23 C10 1_555 1_555
H24 C10 1_555 1_555
C11 N4 1_555 1_555
H25 C11 1_555 1_555
H26 C11 1_555 1_555
H27 C11 1_555 1_555
C12 Si1 1_555 1_555
C13 C12 1_555 1_555
H28 C13 1_555 1_555
C14 C13 1_555 1_555
H29 C14 1_555 1_555
C15 C14 1_555 1_555
H30 C15 1_555 1_555
C16 C15 1_555 1_555
H31 C16 1_555 1_555
C17 C12 1_555 1_555
H32 C17 1_555 1_555
C18 Si1 1_555 1_555
C19 C18 1_555 1_555
H33 C19 1_555 1_555
C20 C19 1_555 1_555
H34 C20 1_555 1_555
C21 C20 1_555 1_555
H35 C21 1_555 1_555
C22 C21 1_555 1_555
H36 C22 1_555 1_555
C23 C18 1_555 1_555
H37 C23 1_555 1_555
C24 O1 1_555 1_555
H38 C24 1_555 1_555
H39 C24 1_555 1_555
C25 C24 1_555 1_555
H40 C25 1_555 1_555
H41 C25 1_555 1_555
C26 C25 1_555 1_555
H42 C26 1_555 1_555
H43 C26 1_555 1_555
C27 O1 1_555 1_555
H44 C27 1_555 1_555
H45 C27 1_555 1_555
C1 C2 1_555 1_555
C3 C4 1_555 1_555
C5 C6 1_555 1_555
C7 C8 1_555 1_555
C16 C17 1_555 1_555
C22 C23 1_555 1_555
C26 C27 1_555 1_555

#END
