
#######################################################################
#
#                 Cambridge Crystallographic Data Centre
#                                CCDC 
#
#######################################################################
#
# If this CIF has been generated from an entry in the Cambridge 
# Structural Database, then it will include bibliographic, chemical, 
# crystal, experimental, refinement or atomic coordinate data resulting 
# from the CCDC's data processing and validation procedures.
#
#######################################################################

data_GIHRUM
_chemical_formula_moiety         'C17 H18 O4'
_chemical_name_systematic        
5-(2-(3,5-Dimethoxyphenyl)vinyl)-2-methoxyphenol
_symmetry_cell_setting           monoclinic
_symmetry_space_group_name_H-M   'P 21/c'
_symmetry_Int_Tables_number      14
_space_group_name_Hall           '-P 2ybc'
loop_
_symmetry_equiv_pos_site_id
_symmetry_equiv_pos_as_xyz
1 x,y,z
2 -x,1/2+y,1/2-z
3 -x,-y,-z
4 x,1/2-y,1/2+z
_cell_length_a                   11.820(3)
_cell_length_b                   8.1262(18)
_cell_length_c                   18.945(3)
_cell_angle_alpha                90
_cell_angle_beta                 125.565(10)
_cell_angle_gamma                90
_cell_volume                     1480.25
_exptl_crystal_colour            colorless
_exptl_crystal_description       block
_cell_formula_units_Z            4
loop_
_atom_site_label
_atom_site_type_symbol
_atom_site_fract_x
_atom_site_fract_y
_atom_site_fract_z
C1 C 0.89357(14) 0.66770(17) 0.82201(9)
C2 C 0.76300(14) 0.72742(18) 0.75765(9)
H1 H 0.7238 0.7043 0.6985
C3 C 0.68921(14) 0.82119(17) 0.77947(9)
C4 C 0.74272(15) 0.85491(18) 0.86493(9)
H2 H 0.6911 0.9179 0.8793
C5 C 0.87433(15) 0.79433(18) 0.92969(9)
C6 C 0.94992(15) 0.70225(18) 0.90924(10)
H3 H 1.0397 0.6625 0.9540
C7 C 0.98140(14) 0.58020(19) 0.80208(9)
H4 H 1.0787 0.5936 0.8440
C8 C 0.94604(15) 0.48549(19) 0.73474(10)
H5 H 1.0208 0.4554 0.7318
C9 C 0.80913(14) 0.42004(18) 0.66412(9)
C10 C 0.77686(15) 0.40649(18) 0.58079(9)
H6 H 0.8406 0.4469 0.5698
C11 C 0.65440(15) 0.33564(18) 0.51438(9)
C12 C 0.55896(14) 0.27671(18) 0.52934(9)
C13 C 0.59020(15) 0.28772(19) 0.61162(10)
H7 H 0.5265 0.2468 0.6226
C14 C 0.71409(15) 0.35820(19) 0.67824(10)
H8 H 0.7346 0.3645 0.7347
C15 C 1.05409(17) 0.7800(2) 1.08197(10)
H9 H 1.0558 0.6594 1.0826
H10 H 1.0747 0.8206 1.1370
H11 H 1.1241 0.8215 1.0743
C16 C 0.48808(17) 0.9875(2) 0.72788(11)
H12 H 0.4691 0.9360 0.7667
H13 H 0.4001 1.0179 0.6733
H14 H 0.5448 1.0864 0.7555
C17 C 0.33817(17) 0.1489(2) 0.46841(11)
H15 H 0.3771 0.0609 0.5119
H16 H 0.2591 0.1060 0.4127
H17 H 0.3069 0.2394 0.4873
O1 O 0.56100(10) 0.87497(14) 0.71058(6)
O2 O 0.91995(11) 0.83582(15) 1.01224(7)
O3 O 0.62940(12) 0.32233(15) 0.43427(7)
H18 H 0.5535(19) 0.272(2) 0.4003(12)
O4 O 0.44214(11) 0.20745(14) 0.45865(7)
loop_
_geom_bond_atom_site_label_1
_geom_bond_atom_site_label_2
_geom_bond_site_symmetry_1
_geom_bond_site_symmetry_2
C1 C2 1_555 1_555
C2 H1 1_555 1_555
C3 C2 1_555 1_555
C4 C3 1_555 1_555
H2 C4 1_555 1_555
C5 C4 1_555 1_555
C6 C1 1_555 1_555
H3 C6 1_555 1_555
C7 C1 1_555 1_555
H4 C7 1_555 1_555
C8 C7 1_555 1_555
H5 C8 1_555 1_555
C9 C8 1_555 1_555
C10 C9 1_555 1_555
H6 C10 1_555 1_555
C11 C10 1_555 1_555
C12 C11 1_555 1_555
C13 C12 1_555 1_555
H7 C13 1_555 1_555
C14 C9 1_555 1_555
H8 C14 1_555 1_555
C15 H9 1_555 1_555
H10 C15 1_555 1_555
H11 C15 1_555 1_555
C16 H12 1_555 1_555
H13 C16 1_555 1_555
H14 C16 1_555 1_555
C17 H15 1_555 1_555
H16 C17 1_555 1_555
H17 C17 1_555 1_555
O1 C3 1_555 1_555
O2 C5 1_555 1_555
O3 C11 1_555 1_555
H18 O3 1_555 1_555
O4 C12 1_555 1_555
C5 C6 1_555 1_555
C13 C14 1_555 1_555
C15 O2 1_555 1_555
C16 O1 1_555 1_555
C17 O4 1_555 1_555

#END
