
#######################################################################
#
#                 Cambridge Crystallographic Data Centre
#                                CCDC 
#
#######################################################################
#
# If this CIF has been generated from an entry in the Cambridge 
# Structural Database, then it will include bibliographic, chemical, 
# crystal, experimental, refinement or atomic coordinate data resulting 
# from the CCDC's data processing and validation procedures.
#
#######################################################################

data_GIHZAB
_chemical_formula_moiety         'C14 H12 F3 N1 S2'
_chemical_name_systematic        
6-(propan-2-yl)-6-(thiophen-2-yl)-4-(trifluoromethyl)-6H-thieno[2,3-c]pyrrole
_symmetry_cell_setting           orthorhombic
_symmetry_space_group_name_H-M   'P 21 21 21'
_symmetry_Int_Tables_number      19
_space_group_name_Hall           'P 2ac 2ab'
loop_
_symmetry_equiv_pos_site_id
_symmetry_equiv_pos_as_xyz
1 x,y,z
2 1/2-x,-y,1/2+z
3 -x,1/2+y,1/2-z
4 1/2+x,1/2-y,-z
_cell_length_a                   8.31114(15)
_cell_length_b                   11.3468(2)
_cell_length_c                   14.7261(2)
_cell_angle_alpha                90
_cell_angle_beta                 90
_cell_angle_gamma                90
_cell_volume                     1388.74
_exptl_crystal_colour            'pale colorless'
_exptl_crystal_description       irregular
_cell_formula_units_Z            4
loop_
_atom_site_label
_atom_site_type_symbol
_atom_site_fract_x
_atom_site_fract_y
_atom_site_fract_z
S1 S 0.05442(6) 0.52609(4) 0.53605(3)
S2 S 0.67263(6) 0.50071(5) 0.63614(3)
F1 F 0.4208(2) 0.77073(13) 0.29984(11)
F2 F 0.4818(2) 0.60180(14) 0.24376(10)
F3 F 0.65232(18) 0.69418(15) 0.32608(11)
N1 N 0.5160(2) 0.54127(16) 0.44777(11)
C1 C 0.4101(2) 0.48581(18) 0.51780(13)
C2 C 0.2467(3) 0.53669(19) 0.49696(14)
C3 C -0.0123(3) 0.6266(2) 0.45525(16)
H1 H -0.120998 0.651466 0.449887
C4 C 0.1081(3) 0.6656(2) 0.40067(16)
H2 H 0.094742 0.720871 0.352829
C5 C 0.2574(3) 0.61223(19) 0.42488(14)
C6 C 0.4273(3) 0.60879(18) 0.39916(14)
C7 C 0.4967(3) 0.6701(2) 0.31768(15)
C8 C 0.4724(2) 0.52171(18) 0.61021(13)
C9 C 0.3898(3) 0.5636(2) 0.68348(15)
H3 H 0.278048 0.581085 0.682797
C10 C 0.4901(3) 0.5782(2) 0.76113(15)
H4 H 0.452067 0.606333 0.817972
C11 C 0.6455(3) 0.5477(2) 0.74549(15)
H5 H 0.728633 0.551822 0.789639
C12 C 0.4214(3) 0.34940(18) 0.50542(14)
H6 H 0.537263 0.326958 0.511400
C13 C 0.3652(3) 0.3100(2) 0.41162(16)
H7 H 0.384520 0.225243 0.404587
H8 H 0.425060 0.353150 0.364925
H9 H 0.249970 0.326132 0.405069
C14 C 0.3287(3) 0.2847(2) 0.57986(16)
H10 H 0.339005 0.199433 0.570843
H11 H 0.214924 0.306971 0.577163
H12 H 0.372860 0.306098 0.639326
loop_
_geom_bond_atom_site_label_1
_geom_bond_atom_site_label_2
_geom_bond_site_symmetry_1
_geom_bond_site_symmetry_2
S1 C2 1_555 1_555
S2 C8 1_555 1_555
F1 C7 1_555 1_555
F2 C7 1_555 1_555
F3 C7 1_555 1_555
N1 C1 1_555 1_555
C1 C2 1_555 1_555
C2 C5 1_555 1_555
C3 S1 1_555 1_555
H1 C3 1_555 1_555
C4 C3 1_555 1_555
H2 C4 1_555 1_555
C5 C4 1_555 1_555
C6 N1 1_555 1_555
C7 C6 1_555 1_555
C8 C1 1_555 1_555
C9 C8 1_555 1_555
H3 C9 1_555 1_555
C10 C9 1_555 1_555
H4 C10 1_555 1_555
C11 S2 1_555 1_555
H5 C11 1_555 1_555
C12 C1 1_555 1_555
H6 C12 1_555 1_555
C13 C12 1_555 1_555
H7 C13 1_555 1_555
H8 C13 1_555 1_555
H9 C13 1_555 1_555
C14 C12 1_555 1_555
H10 C14 1_555 1_555
H11 C14 1_555 1_555
H12 C14 1_555 1_555
C5 C6 1_555 1_555
C10 C11 1_555 1_555

#END
