
#######################################################################
#
#                 Cambridge Crystallographic Data Centre
#                                CCDC 
#
#######################################################################
#
# If this CIF has been generated from an entry in the Cambridge 
# Structural Database, then it will include bibliographic, chemical, 
# crystal, experimental, refinement or atomic coordinate data resulting 
# from the CCDC's data processing and validation procedures.
#
#######################################################################

data_GIJFAJ
_chemical_formula_moiety         'C9 H12 I1 N1 O2'
_chemical_name_systematic        
4-iodo-1-methyl-1,4a,5,6,7,8a-hexahydro-8H-pyrano[3,4-c]pyridin-8-one
_symmetry_cell_setting           monoclinic
_symmetry_space_group_name_H-M   'P 21/c'
_symmetry_Int_Tables_number      14
_space_group_name_Hall           '-P 2ybc'
loop_
_symmetry_equiv_pos_site_id
_symmetry_equiv_pos_as_xyz
1 x,y,z
2 -x,1/2+y,1/2-z
3 -x,-y,-z
4 x,1/2-y,1/2+z
_cell_length_a                   9.2236(18)
_cell_length_b                   9.2676(19)
_cell_length_c                   12.477(3)
_cell_angle_alpha                90
_cell_angle_beta                 108.72(3)
_cell_angle_gamma                90
_cell_volume                     1010.12
_exptl_crystal_colour            colorless
_exptl_crystal_description       parallelepiped
_cell_formula_units_Z            4
_exptl_crystal_recrystallization_method 'ethyl acetate'
loop_
_atom_site_label
_atom_site_type_symbol
_atom_site_fract_x
_atom_site_fract_y
_atom_site_fract_z
I1 I 0.54477(4) 0.65206(4) 0.28405(3)
O1 O -0.0889(5) 0.5888(5) 0.3590(3)
O2 O 0.0634(4) 0.5673(4) 0.1458(3)
N1 N 0.1592(5) 0.5949(5) 0.4630(3)
H1 H 0.1389(5) 0.5322(5) 0.5070(3)
C1 C 0.0419(6) 0.6364(5) 0.3731(4)
C2 C 0.3078(6) 0.6614(5) 0.2542(4)
C3 C 0.0733(5) 0.7463(5) 0.2913(3)
H2 H 0.0264(5) 0.8374(5) 0.3029(3)
C4 C -0.1720(7) 0.6945(7) 0.1189(5)
H3 H -0.2028(8) 0.688(6) 0.0379(6)
H4 H -0.2055(8) 0.610(3) 0.149(3)
H5 H -0.2173(7) 0.779(3) 0.140(4)
C5 C 0.2194(6) 0.5656(6) 0.1826(4)
H6 H 0.2678(6) 0.4925(6) 0.1559(4)
C6 C 0.3186(8) 0.6448(5) 0.4946(5)
H7 H 0.3599(8) 0.6555(5) 0.5761(5)
H8 H 0.3799(8) 0.5737(5) 0.4715(5)
C7 C -0.0015(6) 0.7054(6) 0.1656(4)
H9 H 0.0301(6) 0.7783(6) 0.1207(4)
C8 C 0.3274(6) 0.7872(6) 0.4387(4)
H10 H 0.2816(6) 0.8620(6) 0.4717(4)
H11 H 0.4337(6) 0.8124(6) 0.4517(4)
C9 C 0.2436(5) 0.7781(4) 0.3117(3)
H12 H 0.2524(5) 0.8714(4) 0.2773(3)
loop_
_geom_bond_atom_site_label_1
_geom_bond_atom_site_label_2
_geom_bond_site_symmetry_1
_geom_bond_site_symmetry_2
I1 C2 1_555 1_555
O1 C1 1_555 1_555
O2 C5 1_555 1_555
N1 H1 1_555 1_555
C1 N1 1_555 1_555
C2 C5 1_555 1_555
C3 C1 1_555 1_555
H2 C3 1_555 1_555
C4 H3 1_555 1_555
H4 C4 1_555 1_555
H5 C4 1_555 1_555
C5 H6 1_555 1_555
C6 N1 1_555 1_555
H7 C6 1_555 1_555
H8 C6 1_555 1_555
C7 O2 1_555 1_555
H9 C7 1_555 1_555
C8 C6 1_555 1_555
H10 C8 1_555 1_555
H11 C8 1_555 1_555
C9 C2 1_555 1_555
H12 C9 1_555 1_555
C3 C7 1_555 1_555
C3 C9 1_555 1_555
C4 C7 1_555 1_555
C8 C9 1_555 1_555

#END
