
#######################################################################
#
#                 Cambridge Crystallographic Data Centre
#                                CCDC 
#
#######################################################################
#
# If this CIF has been generated from an entry in the Cambridge 
# Structural Database, then it will include bibliographic, chemical, 
# crystal, experimental, refinement or atomic coordinate data resulting 
# from the CCDC's data processing and validation procedures.
#
#######################################################################

data_GIJHEP
_chemical_formula_moiety         'C20 H22 N2 O3'
_chemical_name_systematic        
N-(2-{[(2,2-dimethylpropanoyl)oxy]imino}-2-phenylethyl)benzamide
_symmetry_cell_setting           orthorhombic
_symmetry_space_group_name_H-M   'P c c n'
_symmetry_Int_Tables_number      56
_space_group_name_Hall           '-P 2ab 2ac'
loop_
_symmetry_equiv_pos_site_id
_symmetry_equiv_pos_as_xyz
1 x,y,z
2 1/2-x,1/2-y,z
3 -x,1/2+y,1/2-z
4 1/2+x,-y,1/2-z
5 -x,-y,-z
6 1/2+x,1/2+y,-z
7 x,1/2-y,1/2+z
8 1/2-x,y,1/2+z
_cell_length_a                   16.7625(11)
_cell_length_b                   23.3302(16)
_cell_length_c                   9.7906(5)
_cell_angle_alpha                90
_cell_angle_beta                 90
_cell_angle_gamma                90
_cell_volume                     3828.83
_exptl_crystal_colour            block
_cell_formula_units_Z            8
loop_
_atom_site_label
_atom_site_type_symbol
_atom_site_fract_x
_atom_site_fract_y
_atom_site_fract_z
O1 O 0.13877(12) 0.37741(8) 0.69791(19)
O2 O 0.02142(13) 0.21883(9) 0.79109(18)
N1 N 0.05283(13) 0.24318(10) 1.0050(2)
C1 C 0.11223(15) 0.32220(11) 0.8770(3)
C2 C 0.04965(15) 0.36306(11) 0.9189(3)
C3 C 0.00297(16) 0.22149(10) 0.9127(3)
C4 C -0.07626(17) 0.19977(11) 0.9603(3)
N2 N 0.15692(14) 0.32527(10) 0.7717(2)
C5 C 0.12692(16) 0.26978(12) 0.9640(3)
H1 H 0.1586 0.2424 0.9128
H2 H 0.1569 0.2807 1.0446
C6 C 0.19195(17) 0.39061(12) 0.6025(3)
C7 C 0.16612(18) 0.44213(12) 0.5201(3)
C8 C -0.01162(17) 0.37789(15) 0.8312(3)
H3 H -0.0129 0.3631 0.7430
C9 C 0.04888(19) 0.38511(13) 1.0490(3)
H4 H 0.0890 0.3748 1.1098
O3 O 0.25051(19) 0.36422(15) 0.5855(3)
C10 C -0.0715(2) 0.41500(19) 0.8753(5)
H5 H -0.1131 0.4248 0.8169
C11 C -0.1186(2) 0.16355(14) 0.8757(3)
H6 H -0.0977 0.1530 0.7914
C12 C -0.1926(2) 0.14276(17) 0.9163(5)
H7 H -0.2208 0.1183 0.8589
C13 C -0.0098(2) 0.42199(17) 1.0912(4)
H8 H -0.0090 0.4367 1.1795
C14 C -0.10973(19) 0.21530(16) 1.0844(3)
H9 H -0.0826 0.2402 1.1422
C15 C -0.2239(2) 0.1576(2) 1.0381(6)
H10 H -0.2733 0.1432 1.0648
C16 C -0.0688(3) 0.43696(17) 1.0046(5)
H11 H -0.1081 0.4625 1.0331
C17 C -0.1831(2) 0.1939(2) 1.1222(5)
H12 H -0.2050 0.2042 1.2059
C18 C 0.1139(5) 0.4211(3) 0.4104(6)
H13 H 0.0990 0.4525 0.3523
H14 H 0.0668 0.4044 0.4496
H15 H 0.1417 0.3928 0.3577
C19 C 0.2392(3) 0.4712(2) 0.4644(7)
H16 H 0.2712 0.4437 0.4162
H17 H 0.2696 0.4871 0.5384
H18 H 0.2236 0.5013 0.4032
C20 C 0.1197(4) 0.4840(2) 0.6046(5)
H19 H 0.0978 0.5132 0.5464
H20 H 0.1544 0.5013 0.6708
H21 H 0.0772 0.4643 0.6506
H22 H 0.0390(17) 0.2458(12) 1.088(2)
loop_
_geom_bond_atom_site_label_1
_geom_bond_atom_site_label_2
_geom_bond_site_symmetry_1
_geom_bond_site_symmetry_2
O1 N2 1_555 1_555
O2 C3 1_555 1_555
N1 C3 1_555 1_555
C1 C2 1_555 1_555
C2 C8 1_555 1_555
C3 C4 1_555 1_555
C4 C11 1_555 1_555
N2 C1 1_555 1_555
C5 N1 1_555 1_555
H1 C5 1_555 1_555
H2 C5 1_555 1_555
C6 O1 1_555 1_555
C7 C6 1_555 1_555
C8 H3 1_555 1_555
C9 C2 1_555 1_555
H4 C9 1_555 1_555
O3 C6 1_555 1_555
C10 C8 1_555 1_555
H5 C10 1_555 1_555
C11 H6 1_555 1_555
C12 C11 1_555 1_555
H7 C12 1_555 1_555
C13 C9 1_555 1_555
H8 C13 1_555 1_555
C14 C4 1_555 1_555
H9 C14 1_555 1_555
C15 C12 1_555 1_555
H10 C15 1_555 1_555
C16 C10 1_555 1_555
H11 C16 1_555 1_555
C17 C14 1_555 1_555
H12 C17 1_555 1_555
C18 C7 1_555 1_555
H13 C18 1_555 1_555
H14 C18 1_555 1_555
H15 C18 1_555 1_555
C19 C7 1_555 1_555
H16 C19 1_555 1_555
H17 C19 1_555 1_555
H18 C19 1_555 1_555
C20 C7 1_555 1_555
H19 C20 1_555 1_555
H20 C20 1_555 1_555
H21 C20 1_555 1_555
H22 N1 1_555 1_555
C1 C5 1_555 1_555
C13 C16 1_555 1_555
C15 C17 1_555 1_555

#END
