
#######################################################################
#
#                 Cambridge Crystallographic Data Centre
#                                CCDC 
#
#######################################################################
#
# If this CIF has been generated from an entry in the Cambridge 
# Structural Database, then it will include bibliographic, chemical, 
# crystal, experimental, refinement or atomic coordinate data resulting 
# from the CCDC's data processing and validation procedures.
#
#######################################################################

data_GIJHAL
_chemical_formula_moiety         'C20 H22 N2 O3'
_chemical_name_systematic        
N-(2-{[(benzoyl)oxy]imino}-2-phenylethyl)-2,2-dimethylpropanamide
_symmetry_cell_setting           monoclinic
_symmetry_space_group_name_H-M   'P 21'
_symmetry_Int_Tables_number      4
_space_group_name_Hall           'P 2yb'
loop_
_symmetry_equiv_pos_site_id
_symmetry_equiv_pos_as_xyz
1 x,y,z
2 -x,1/2+y,-z
_cell_length_a                   9.4660(10)
_cell_length_b                   9.7865(12)
_cell_length_c                   20.308(2)
_cell_angle_alpha                90
_cell_angle_beta                 92.353(10)
_cell_angle_gamma                90
_cell_volume                     1879.73
_exptl_crystal_colour            block
_cell_formula_units_Z            4
loop_
_atom_site_label
_atom_site_type_symbol
_atom_site_fract_x
_atom_site_fract_y
_atom_site_fract_z
O1 O 0.4352(5) 1.0958(5) 0.1393(2)
N1 N 0.5944(4) 1.0213(5) 0.04499(19)
C1 C 0.5355(5) 1.0297(5) 0.1549(2)
C2 C 0.6941(4) 0.9848(5) 0.0088(2)
C3 C 0.5706(5) 0.9764(5) 0.2222(2)
C4 C 0.4702(5) 0.9887(7) 0.2690(3)
H1 H 0.3865 1.0353 0.2589
C5 C 0.6627(5) 1.0099(5) -0.0627(2)
C6 C 0.6949(5) 0.9113(6) 0.2389(3)
H2 H 0.7644 0.9038 0.2081
C7 C 0.6870(6) 0.9063(7) -0.1074(3)
H3 H 0.7249 0.8234 -0.0928
C8 C 0.7183(6) 0.8568(7) 0.3009(3)
H4 H 0.8030 0.8126 0.3118
C9 C 0.6085(6) 1.1317(6) -0.0853(3)
H5 H 0.5921 1.2021 -0.0558
C10 C 0.5780(8) 1.1501(7) -0.1520(4)
H6 H 0.5410 1.2326 -0.1675
C11 C 0.6151(7) 0.8682(8) 0.3468(3)
H7 H 0.6300 0.8316 0.3888
C12 C 0.6025(8) 1.0471(9) -0.1946(3)
H8 H 0.5828 1.0603 -0.2394
C13 C 0.4925(7) 0.9327(8) 0.3304(3)
H9 H 0.4226 0.9393 0.3611
C14 C 0.6545(7) 0.9268(8) -0.1738(3)
H10 H 0.6687 0.8570 -0.2039
O2 O 0.6326(3) 0.9870(4) 0.11237(14)
N2 N 0.9482(4) 0.9669(4) -0.0045(2)
C15 C 1.0366(4) 0.8811(5) -0.0331(2)
C16 C 0.8295(4) 0.9212(6) 0.0323(2)
H11 H 0.8469 0.9432 0.0785
H12 H 0.8215 0.8227 0.0285
O3 O 1.0211(4) 0.7567(3) -0.02874(18)
C17 C 1.1588(5) 0.9461(4) -0.0680(2)
C18 C 1.2406(6) 0.8363(6) -0.1024(3)
H13 H 1.2753 0.7706 -0.0706
H14 H 1.3188 0.8769 -0.1238
H15 H 1.1795 0.7916 -0.1346
C19 C 1.2547(5) 1.0192(7) -0.0168(3)
H16 H 1.2033 1.0922 0.0028
H17 H 1.3355 1.0557 -0.0378
H18 H 1.2855 0.9555 0.0168
C20 C 1.1007(6) 1.0482(6) -0.1196(3)
H19 H 1.0343 1.0028 -0.1491
H20 H 1.1771 1.0839 -0.1440
H21 H 1.0542 1.1217 -0.0979
H22 H 0.958(5) 1.056(2) -0.007(2)
C21 C -0.1234(5) 0.3499(5) 0.6503(2)
C22 C -0.1004(4) 0.4186(5) 0.7143(2)
C23 C -0.1681(4) 0.4082(5) 0.4248(2)
C24 C -0.1194(4) 0.4474(4) 0.4925(2)
C25 C -0.2186(5) 0.2792(5) 0.4107(2)
H23 H -0.2200 0.2141 0.4440
C26 C -0.1041(6) 0.4073(7) 0.8322(2)
H24 H -0.1151 0.3570 0.8705
C27 C -0.0668(5) 0.5548(5) 0.7201(2)
H25 H -0.0513 0.6056 0.6824
C28 C -0.1164(5) 0.3439(6) 0.7714(2)
H26 H -0.1355 0.2508 0.7688
C29 C -0.1666(6) 0.5041(6) 0.3752(3)
H27 H -0.1342 0.5923 0.3837
C30 C -0.0759(6) 0.5428(8) 0.8359(3)
H28 H -0.0703 0.5857 0.8768
C31 C -0.2666(6) 0.2454(7) 0.3487(3)
H29 H -0.3005 0.1577 0.3401
C32 C -0.2141(8) 0.4667(9) 0.3124(3)
H30 H -0.2108 0.5303 0.2784
C33 C -0.2653(7) 0.3397(9) 0.2989(3)
H31 H -0.2988 0.3172 0.2566
C34 C -0.0559(6) 0.6168(6) 0.7804(3)
H32 H -0.0347 0.7094 0.7834
O4 O -0.1320(5) 0.2288(4) 0.64347(18)
C35 C -0.0048(5) 0.5535(4) 0.5018(2)
H33 H -0.0427 0.6424 0.4894
H34 H 0.0255 0.5574 0.5479
O5 O -0.1310(3) 0.4411(3) 0.60162(14)
N3 N -0.1796(4) 0.3861(4) 0.53873(16)
N4 N 0.1159(4) 0.5241(4) 0.46273(19)
O6 O 0.1693(3) 0.3382(3) 0.52230(17)
C36 C 0.1961(4) 0.4139(5) 0.4762(2)
C37 C 0.3201(5) 0.3903(5) 0.4323(2)
C38 C 0.4212(8) 0.5058(10) 0.4366(6)
H35 H 0.3755 0.5874 0.4204
H36 H 0.5010 0.4858 0.4106
H37 H 0.4526 0.5189 0.4817
C39 C 0.2652(9) 0.3767(13) 0.3620(3)
H38 H 0.2403 0.4654 0.3449
H39 H 0.1831 0.3190 0.3603
H40 H 0.3370 0.3372 0.3359
C40 C 0.3877(9) 0.2542(8) 0.4500(5)
H41 H 0.4505 0.2280 0.4163
H42 H 0.3155 0.1861 0.4536
H43 H 0.4401 0.2622 0.4913
H44 H 0.138(5) 0.581(4) 0.4336(16)
loop_
_geom_bond_atom_site_label_1
_geom_bond_atom_site_label_2
_geom_bond_site_symmetry_1
_geom_bond_site_symmetry_2
O1 C1 1_555 1_555
N1 C2 1_555 1_555
C1 C3 1_555 1_555
C2 C5 1_555 1_555
C3 C4 1_555 1_555
C4 H1 1_555 1_555
C5 C7 1_555 1_555
C6 C3 1_555 1_555
H2 C6 1_555 1_555
C7 H3 1_555 1_555
C8 C6 1_555 1_555
H4 C8 1_555 1_555
C9 C5 1_555 1_555
H5 C9 1_555 1_555
C10 C9 1_555 1_555
H6 C10 1_555 1_555
C11 C8 1_555 1_555
H7 C11 1_555 1_555
C12 C10 1_555 1_555
H8 C12 1_555 1_555
C13 C4 1_555 1_555
H9 C13 1_555 1_555
C14 C7 1_555 1_555
H10 C14 1_555 1_555
O2 N1 1_555 1_555
N2 C15 1_555 1_555
C15 O3 1_555 1_555
C16 C2 1_555 1_555
H11 C16 1_555 1_555
H12 C16 1_555 1_555
C17 C15 1_555 1_555
C18 C17 1_555 1_555
H13 C18 1_555 1_555
H14 C18 1_555 1_555
H15 C18 1_555 1_555
C19 C17 1_555 1_555
H16 C19 1_555 1_555
H17 C19 1_555 1_555
H18 C19 1_555 1_555
C20 C17 1_555 1_555
H19 C20 1_555 1_555
H20 C20 1_555 1_555
H21 C20 1_555 1_555
H22 N2 1_555 1_555
C21 C22 1_555 1_555
C22 C27 1_555 1_555
C23 C24 1_555 1_555
C24 C35 1_555 1_555
C25 C23 1_555 1_555
H23 C25 1_555 1_555
C26 H24 1_555 1_555
C27 H25 1_555 1_555
C28 C22 1_555 1_555
H26 C28 1_555 1_555
C29 C23 1_555 1_555
H27 C29 1_555 1_555
C30 C26 1_555 1_555
H28 C30 1_555 1_555
C31 C25 1_555 1_555
H29 C31 1_555 1_555
C32 C29 1_555 1_555
H30 C32 1_555 1_555
C33 C31 1_555 1_555
H31 C33 1_555 1_555
C34 C27 1_555 1_555
H32 C34 1_555 1_555
O4 C21 1_555 1_555
C35 H33 1_555 1_555
H34 C35 1_555 1_555
O5 C21 1_555 1_555
N3 C24 1_555 1_555
N4 C35 1_555 1_555
O6 C36 1_555 1_555
C36 N4 1_555 1_555
C37 C36 1_555 1_555
C38 C37 1_555 1_555
H35 C38 1_555 1_555
H36 C38 1_555 1_555
H37 C38 1_555 1_555
C39 C37 1_555 1_555
H38 C39 1_555 1_555
H39 C39 1_555 1_555
H40 C39 1_555 1_555
C40 C37 1_555 1_555
H41 C40 1_555 1_555
H42 C40 1_555 1_555
H43 C40 1_555 1_555
H44 N4 1_555 1_555
C1 O2 1_555 1_555
C11 C13 1_555 1_555
C12 C14 1_555 1_555
N2 C16 1_555 1_555
C26 C28 1_555 1_555
C30 C34 1_555 1_555
C32 C33 1_555 1_555
O5 N3 1_555 1_555

#END
