
#######################################################################
#
#                 Cambridge Crystallographic Data Centre
#                                CCDC 
#
#######################################################################
#
# If this CIF has been generated from an entry in the Cambridge 
# Structural Database, then it will include bibliographic, chemical, 
# crystal, experimental, refinement or atomic coordinate data resulting 
# from the CCDC's data processing and validation procedures.
#
#######################################################################

data_GIJNIZ
_chemical_formula_moiety         'C21 H29 B9 N1 O1 1-,C8 H20 N1 1+'
_chemical_name_systematic        
'tetraethylammonium 1-(isopropylaminocarbonyl)-2,3-bis(2-phenylethenyl)-1-carba-closo-dodecaborate'
_symmetry_cell_setting           monoclinic
_symmetry_space_group_name_H-M   'C c'
_symmetry_Int_Tables_number      9
_space_group_name_Hall           'C -2yc'
loop_
_symmetry_equiv_pos_site_id
_symmetry_equiv_pos_as_xyz
1 x,y,z
2 x,-y,1/2+z
3 1/2+x,1/2+y,z
4 1/2+x,1/2-y,1/2+z
_cell_length_a                   7.9588(2)
_cell_length_b                   22.6600(4)
_cell_length_c                   18.5609(3)
_cell_angle_alpha                90
_cell_angle_beta                 90.4330(10)
_cell_angle_gamma                90
_cell_volume                     3347.3
_exptl_crystal_colour            colorless
_exptl_crystal_description       block
_cell_formula_units_Z            4
loop_
_atom_site_label
_atom_site_type_symbol
_atom_site_fract_x
_atom_site_fract_y
_atom_site_fract_z
O1 O 0.39117(17) 0.61539(6) 0.38201(7)
N1 N 0.4161(2) 0.69632(7) 0.45201(9)
H1 H 0.472486 0.712338 0.487978
C1 C 0.6079(2) 0.61640(8) 0.47089(9)
C2 C 0.4613(2) 0.64189(8) 0.43108(9)
C3 C 0.2806(3) 0.73088(9) 0.41964(11)
H2 H 0.215257 0.704746 0.386268
C4 C 0.1641(3) 0.75286(12) 0.47754(13)
H3 H 0.225712 0.779360 0.510042
H4 H 0.120757 0.719247 0.504925
H5 H 0.070196 0.774262 0.455235
C5 C 0.3532(3) 0.78119(11) 0.37640(13)
H6 H 0.425711 0.765357 0.338606
H7 H 0.419174 0.806904 0.408252
H8 H 0.261598 0.803941 0.354302
C6 C 0.5187(2) 0.65136(8) 0.60573(9)
H9 H 0.403776 0.643713 0.595193
C7 C 0.5509(2) 0.68715(9) 0.66070(9)
H10 H 0.664967 0.689683 0.675875
C8 C 0.4296(2) 0.72349(8) 0.70093(9)
C9 C 0.2594(3) 0.72578(10) 0.68333(10)
H11 H 0.216144 0.701287 0.646008
C10 C 0.1522(3) 0.76354(11) 0.71984(12)
H12 H 0.036531 0.764936 0.706881
C11 C 0.2118(3) 0.79912(11) 0.77481(12)
H13 H 0.137777 0.824784 0.799673
C12 C 0.3798(3) 0.79703(11) 0.79324(12)
H14 H 0.421785 0.820990 0.831320
C13 C 0.4872(3) 0.76004(10) 0.75628(11)
H15 H 0.603057 0.759521 0.768908
C14 C 0.4724(2) 0.50708(8) 0.50605(9)
H16 H 0.364522 0.521374 0.492492
C15 C 0.4870(2) 0.45053(9) 0.52603(9)
H17 H 0.598203 0.436854 0.534630
C16 C 0.3525(2) 0.40698(8) 0.53631(9)
C17 C 0.3931(3) 0.35176(9) 0.56587(12)
H18 H 0.507006 0.342625 0.576632
C18 C 0.2692(3) 0.31035(10) 0.57960(13)
H19 H 0.298986 0.273022 0.599170
C19 C 0.1029(3) 0.32300(10) 0.56503(12)
H20 H 0.017914 0.294898 0.575421
C20 C 0.0610(3) 0.37723(10) 0.53500(11)
H21 H -0.053222 0.386167 0.524428
C21 C 0.1853(3) 0.41844(8) 0.52036(10)
H22 H 0.155198 0.455107 0.499059
B1 B 0.6240(3) 0.55058(9) 0.50397(10)
B2 B 0.6509(3) 0.62051(9) 0.55658(10)
B3 B 0.7828(3) 0.65098(10) 0.48338(10)
H23 H 0.801273 0.697619 0.465109
B4 B 0.7567(3) 0.58161(10) 0.43154(10)
H24 H 0.754852 0.573230 0.372072
B5 B 0.7678(3) 0.55470(10) 0.58086(10)
H25 H 0.736601 0.530668 0.631767
B6 B 0.8783(3) 0.62495(10) 0.56622(11)
H26 H 0.935422 0.657088 0.605172
B7 B 0.9526(3) 0.59791(11) 0.47809(11)
H27 H 1.068486 0.608510 0.446776
B8 B 0.8416(3) 0.52752(10) 0.49287(11)
H28 H 0.869497 0.481816 0.473366
B9 B 0.9725(3) 0.55817(10) 0.55548(11)
H29 H 1.082(3) 0.5401(11) 0.5815(12)
N2 N 0.2674(2) 0.48209(8) 0.26819(8)
C22 C 0.1436(3) 0.53015(10) 0.28897(11)
H30 H 0.072786 0.515193 0.328603
H31 H 0.207695 0.564355 0.307769
C23 C 0.0304(4) 0.55117(15) 0.22902(16)
H32 H -0.047992 0.580674 0.247730
H33 H -0.032902 0.517664 0.209378
H34 H 0.098378 0.568862 0.190870
C24 C 0.3772(3) 0.50205(10) 0.20667(10)
H35 H 0.451930 0.469025 0.193018
H36 H 0.304407 0.510983 0.164590
C25 C 0.4840(3) 0.55544(12) 0.22283(12)
H37 H 0.556734 0.547224 0.264480
H38 H 0.411308 0.589155 0.233593
H39 H 0.553454 0.564635 0.180922
C26 C 0.1777(4) 0.42709(11) 0.24185(12)
H40 H 0.113790 0.437150 0.197564
H41 H 0.263240 0.397363 0.228606
C27 C 0.0587(6) 0.39950(17) 0.29491(18)
H42 H 0.121223 0.387465 0.338172
H43 H 0.005332 0.364854 0.272968
H44 H -0.027731 0.428253 0.308105
C28 C 0.3730(4) 0.46921(11) 0.33496(11)
H45 H 0.425688 0.506492 0.351348
H46 H 0.297451 0.455616 0.373702
C29 C 0.5091(5) 0.42383(17) 0.32519(17)
H47 H 0.574125 0.420034 0.369997
H48 H 0.583599 0.436204 0.286196
H49 H 0.458185 0.385700 0.313002
loop_
_geom_bond_atom_site_label_1
_geom_bond_atom_site_label_2
_geom_bond_site_symmetry_1
_geom_bond_site_symmetry_2
O1 C2 1_555 1_555
N1 H1 1_555 1_555
C1 C2 1_555 1_555
C2 N1 1_555 1_555
C3 N1 1_555 1_555
H2 C3 1_555 1_555
C4 C3 1_555 1_555
H3 C4 1_555 1_555
H4 C4 1_555 1_555
H5 C4 1_555 1_555
C5 C3 1_555 1_555
H6 C5 1_555 1_555
H7 C5 1_555 1_555
H8 C5 1_555 1_555
C6 H9 1_555 1_555
C7 C6 1_555 1_555
H10 C7 1_555 1_555
C8 C7 1_555 1_555
C9 C8 1_555 1_555
H11 C9 1_555 1_555
C10 C9 1_555 1_555
H12 C10 1_555 1_555
C11 C10 1_555 1_555
H13 C11 1_555 1_555
C12 C11 1_555 1_555
H14 C12 1_555 1_555
C13 C8 1_555 1_555
H15 C13 1_555 1_555
C14 H16 1_555 1_555
C15 C14 1_555 1_555
H17 C15 1_555 1_555
C16 C15 1_555 1_555
C17 C16 1_555 1_555
H18 C17 1_555 1_555
C18 C17 1_555 1_555
H19 C18 1_555 1_555
C19 C18 1_555 1_555
H20 C19 1_555 1_555
C20 C19 1_555 1_555
H21 C20 1_555 1_555
C21 C16 1_555 1_555
H22 C21 1_555 1_555
B1 C1 1_555 1_555
B2 C1 1_555 1_555
B3 C1 1_555 1_555
H23 B3 1_555 1_555
B4 C1 1_555 1_555
H24 B4 1_555 1_555
B5 B1 1_555 1_555
H25 B5 1_555 1_555
B6 B2 1_555 1_555
H26 B6 1_555 1_555
B7 B3 1_555 1_555
H27 B7 1_555 1_555
B8 B1 1_555 1_555
H28 B8 1_555 1_555
B9 B5 1_555 1_555
H29 B9 1_555 1_555
N2 C22 1_555 1_555
C22 H30 1_555 1_555
H31 C22 1_555 1_555
C23 C22 1_555 1_555
H32 C23 1_555 1_555
H33 C23 1_555 1_555
H34 C23 1_555 1_555
C24 N2 1_555 1_555
H35 C24 1_555 1_555
H36 C24 1_555 1_555
C25 C24 1_555 1_555
H37 C25 1_555 1_555
H38 C25 1_555 1_555
H39 C25 1_555 1_555
C26 N2 1_555 1_555
H40 C26 1_555 1_555
H41 C26 1_555 1_555
C27 C26 1_555 1_555
H42 C27 1_555 1_555
H43 C27 1_555 1_555
H44 C27 1_555 1_555
C28 N2 1_555 1_555
H45 C28 1_555 1_555
H46 C28 1_555 1_555
C29 C28 1_555 1_555
H47 C29 1_555 1_555
H48 C29 1_555 1_555
H49 C29 1_555 1_555
C6 B2 1_555 1_555
C12 C13 1_555 1_555
C14 B1 1_555 1_555
C20 C21 1_555 1_555
B1 B2 1_555 1_555
B1 B4 1_555 1_555
B2 B3 1_555 1_555
B2 B5 1_555 1_555
B3 B4 1_555 1_555
B3 B6 1_555 1_555
B4 B7 1_555 1_555
B4 B8 1_555 1_555
B5 B6 1_555 1_555
B5 B8 1_555 1_555
B6 B7 1_555 1_555
B6 B9 1_555 1_555
B7 B8 1_555 1_555
B7 B9 1_555 1_555
B8 B9 1_555 1_555

#END
