
#######################################################################
#
#                 Cambridge Crystallographic Data Centre
#                                CCDC 
#
#######################################################################
#
# If this CIF has been generated from an entry in the Cambridge 
# Structural Database, then it will include bibliographic, chemical, 
# crystal, experimental, refinement or atomic coordinate data resulting 
# from the CCDC's data processing and validation procedures.
#
#######################################################################

data_GIJRUO
_chemical_formula_moiety         'C14 H15 N1 O3,C3 H8 O1'
_chemical_name_systematic        
'3-Hydroxy-3-(2-oxocyclohexyl)-1,3-dihydro-2H-indol-2-one propan-2-ol solvate'
_symmetry_cell_setting           monoclinic
_symmetry_space_group_name_H-M   'P 21'
_symmetry_Int_Tables_number      4
_space_group_name_Hall           'P 2yb'
loop_
_symmetry_equiv_pos_site_id
_symmetry_equiv_pos_as_xyz
1 x,y,z
2 -x,1/2+y,-z
_cell_length_a                   8.3333(7)
_cell_length_b                   10.0267(9)
_cell_length_c                   9.5851(9)
_cell_angle_alpha                90
_cell_angle_beta                 91.035(5)
_cell_angle_gamma                90
_cell_volume                     800.757
_cell_formula_units_Z            2
_exptl_crystal_recrystallization_method propan-2-ol
loop_
_atom_site_label
_atom_site_type_symbol
_atom_site_fract_x
_atom_site_fract_y
_atom_site_fract_z
C1 C 0.59629(13) 0.71461(13) 0.85755(14)
C2 C 0.59658(16) 0.61641(16) 0.98293(16)
C3 C 0.61715(15) 0.48989(16) 0.78623(18)
C4 C 0.61786(14) 0.62017(14) 0.73596(15)
C5 C 0.62557(16) 0.64279(19) 0.59402(16)
H1 H 0.6237 0.7294 0.5593
C6 C 0.6362(2) 0.5347(2) 0.5037(2)
H2 H 0.6426 0.5489 0.4081
C7 C 0.6373(2) 0.4063(2) 0.5560(3)
H3 H 0.6457 0.3349 0.4946
C8 C 0.6261(2) 0.38140(19) 0.6974(3)
H4 H 0.6246 0.2946 0.7317
C9 C 0.71927(14) 0.82622(14) 0.88132(14)
H5 H 0.6920 0.8686 0.9699
C10 C 0.88865(14) 0.77335(14) 0.89964(12)
C11 C 1.01868(17) 0.87693(16) 0.91726(18)
H6 H 1.1225 0.8339 0.9109
H7 H 1.0117 0.9162 1.0095
C12 C 1.00693(19) 0.98682(19) 0.80861(18)
H8 H 1.0337 0.9511 0.7179
H9 H 1.0834 1.0567 0.8317
C13 C 0.8387(2) 1.04507(16) 0.80238(18)
H10 H 0.8329 1.1132 0.7306
H11 H 0.8151 1.0867 0.8910
C14 C 0.71443(18) 0.93718(15) 0.77058(16)
H12 H 0.7348 0.8989 0.6797
H13 H 0.6083 0.9769 0.7674
N1 N 0.60362(15) 0.49025(14) 0.93150(15)
H14 H 0.596(3) 0.4288(18) 0.987(2)
O1 O 0.44219(11) 0.77832(11) 0.85211(12)
H15 H 0.374(2) 0.7158(18) 0.839(2)
O2 O 0.58703(15) 0.64936(14) 1.10477(12)
O3 O 0.91727(11) 0.65512(10) 0.90056(11)
C15 C 0.19611(19) 0.5154(2) 0.67139(18)
H16 H 0.2989 0.5135 0.6233
C16 C 0.1399(4) 0.3744(3) 0.6887(3)
H17 H 0.2177 0.3253 0.7431
H18 H 0.1270 0.3335 0.5986
H19 H 0.0390 0.3740 0.7354
C17 C 0.0811(3) 0.6003(3) 0.5869(2)
H20 H 0.1238 0.6889 0.5787
H21 H -0.0204 0.6040 0.6326
H22 H 0.0666 0.5623 0.4956
O4 O 0.22238(12) 0.57554(13) 0.80673(13)
H23 H 0.1338(18) 0.597(3) 0.840(2)
loop_
_geom_bond_atom_site_label_1
_geom_bond_atom_site_label_2
_geom_bond_site_symmetry_1
_geom_bond_site_symmetry_2
C1 C2 1_555 1_555
C2 N1 1_555 1_555
C3 C4 1_555 1_555
C4 C1 1_555 1_555
C5 C4 1_555 1_555
H1 C5 1_555 1_555
C6 C5 1_555 1_555
H2 C6 1_555 1_555
C7 C6 1_555 1_555
H3 C7 1_555 1_555
C8 C3 1_555 1_555
H4 C8 1_555 1_555
C9 C1 1_555 1_555
H5 C9 1_555 1_555
C10 C9 1_555 1_555
C11 C10 1_555 1_555
H6 C11 1_555 1_555
H7 C11 1_555 1_555
C12 C11 1_555 1_555
H8 C12 1_555 1_555
H9 C12 1_555 1_555
C13 C12 1_555 1_555
H10 C13 1_555 1_555
H11 C13 1_555 1_555
C14 C9 1_555 1_555
H12 C14 1_555 1_555
H13 C14 1_555 1_555
N1 C3 1_555 1_555
H14 N1 1_555 1_555
O1 C1 1_555 1_555
H15 O1 1_555 1_555
O2 C2 1_555 1_555
O3 C10 1_555 1_555
C15 H16 1_555 1_555
C16 C15 1_555 1_555
H17 C16 1_555 1_555
H18 C16 1_555 1_555
H19 C16 1_555 1_555
C17 C15 1_555 1_555
H20 C17 1_555 1_555
H21 C17 1_555 1_555
H22 C17 1_555 1_555
O4 C15 1_555 1_555
H23 O4 1_555 1_555
C7 C8 1_555 1_555
C13 C14 1_555 1_555

#END
