
#######################################################################
#
#                 Cambridge Crystallographic Data Centre
#                                CCDC 
#
#######################################################################
#
# If this CIF has been generated from an entry in the Cambridge 
# Structural Database, then it will include bibliographic, chemical, 
# crystal, experimental, refinement or atomic coordinate data resulting 
# from the CCDC's data processing and validation procedures.
#
#######################################################################

data_GIJREY
_chemical_formula_moiety         'C15 H14 N2 O2,H2 O1'
_chemical_name_systematic        
'Ethyl 3-methyl-1H-azuleno[8,1-cd]pyridazine-5-carboxylate monohydrate'
_symmetry_cell_setting           triclinic
_symmetry_space_group_name_H-M   'P -1'
_symmetry_Int_Tables_number      2
_space_group_name_Hall           '-P 1'
loop_
_symmetry_equiv_pos_site_id
_symmetry_equiv_pos_as_xyz
1 x,y,z
2 -x,-y,-z
_cell_length_a                   7.4962(2)
_cell_length_b                   9.9488(2)
_cell_length_c                   10.2979(2)
_cell_angle_alpha                63.5800(10)
_cell_angle_beta                 86.1730(10)
_cell_angle_gamma                84.2410(10)
_cell_volume                     684.104
_exptl_crystal_colour            purple
_exptl_crystal_description       Acicular
_cell_formula_units_Z            2
loop_
_atom_site_label
_atom_site_type_symbol
_atom_site_fract_x
_atom_site_fract_y
_atom_site_fract_z
O1 O 0.0858(2) 0.80855(16) 0.86445(15)
O2 O 0.1738(2) 0.62846(18) 0.79518(17)
N1 N 0.3112(2) 1.34072(19) 0.24553(18)
N2 N 0.3810(2) 1.23874(19) 0.19448(18)
H1 H 0.4297 1.2760 0.1090
C1 C 0.2379(3) 1.2844(2) 0.3754(2)
C2 C 0.2334(2) 1.1262(2) 0.4617(2)
C3 C 0.1694(2) 1.0392(2) 0.6003(2)
H2 H 0.1148 1.0757 0.6634
C4 C 0.2007(2) 0.8866(2) 0.6304(2)
C5 C 0.1547(3) 0.7613(3) 0.7680(2)
C6 C 0.0301(3) 0.6947(3) 1.0046(2)
H3 H 0.1300 0.6218 1.0499
H4 H -0.0657 0.6421 0.9935
C7 C -0.0329(4) 0.7721(3) 1.0946(3)
H5 H 0.0660 0.8148 1.1132
H6 H -0.0822 0.7011 1.1849
H7 H -0.1235 0.8507 1.0443
C8 C 0.2859(2) 0.8754(2) 0.5079(2)
C9 C 0.3056(2) 1.0278(2) 0.40286(19)
C10 C 0.3814(3) 1.0876(2) 0.2636(2)
C11 C 0.4591(3) 1.0046(3) 0.1890(2)
H8 H 0.5064 1.0604 0.0965
C12 C 0.4719(3) 0.8528(3) 0.2378(3)
H9 H 0.5260 0.8200 0.1719
C13 C 0.4181(3) 0.7362(3) 0.3702(3)
H10 H 0.4407 0.6395 0.3775
C14 C 0.3375(3) 0.7445(2) 0.4892(2)
H11 H 0.3138 0.6533 0.5672
C15 C 0.1582(3) 1.3926(2) 0.4304(2)
H12 H 0.1797 1.4932 0.3606
H13 H 0.2121 1.3709 0.5203
H14 H 0.0314 1.3835 0.4459
O3 O 0.4653(3) 0.40793(18) 0.89504(17)
H15 H 0.544(4) 0.466(4) 0.860(3)
H16 H 0.365(4) 0.472(4) 0.865(3)
loop_
_geom_bond_atom_site_label_1
_geom_bond_atom_site_label_2
_geom_bond_site_symmetry_1
_geom_bond_site_symmetry_2
O1 C5 1_555 1_555
O2 C5 1_555 1_555
N1 N2 1_555 1_555
N2 H1 1_555 1_555
C1 N1 1_555 1_555
C2 C1 1_555 1_555
C3 C2 1_555 1_555
H2 C3 1_555 1_555
C4 C3 1_555 1_555
C5 C4 1_555 1_555
C6 O1 1_555 1_555
H3 C6 1_555 1_555
H4 C6 1_555 1_555
C7 C6 1_555 1_555
H5 C7 1_555 1_555
H6 C7 1_555 1_555
H7 C7 1_555 1_555
C8 C4 1_555 1_555
C9 C2 1_555 1_555
C10 N2 1_555 1_555
C11 C10 1_555 1_555
H8 C11 1_555 1_555
C12 C11 1_555 1_555
H9 C12 1_555 1_555
C13 C12 1_555 1_555
H10 C13 1_555 1_555
C14 C8 1_555 1_555
H11 C14 1_555 1_555
C15 C1 1_555 1_555
H12 C15 1_555 1_555
H13 C15 1_555 1_555
H14 C15 1_555 1_555
O3 H15 1_555 1_555
H16 O3 1_555 1_555
C8 C9 1_555 1_555
C9 C10 1_555 1_555
C13 C14 1_555 1_555

#END
