
#######################################################################
#
#                 Cambridge Crystallographic Data Centre
#                                CCDC 
#
#######################################################################
#
# If this CIF has been generated from an entry in the Cambridge 
# Structural Database, then it will include bibliographic, chemical, 
# crystal, experimental, refinement or atomic coordinate data resulting 
# from the CCDC's data processing and validation procedures.
#
#######################################################################

data_GIJSEA
_chemical_formula_moiety         'C17 H15 Cl1 O3'
_chemical_name_systematic        
1-(9-chloro-2-hydroxy-6-methyl-6H-dibenzo[b,d]pyran-6-yl)propan-2-one
_symmetry_cell_setting           monoclinic
_symmetry_space_group_name_H-M   'P 21/n'
_symmetry_Int_Tables_number      14
_space_group_name_Hall           '-P 2yn'
loop_
_symmetry_equiv_pos_site_id
_symmetry_equiv_pos_as_xyz
1 x,y,z
2 1/2-x,1/2+y,1/2-z
3 -x,-y,-z
4 1/2+x,1/2-y,1/2+z
_cell_length_a                   7.2405(7)
_cell_length_b                   16.1028(16)
_cell_length_c                   12.0426(12)
_cell_angle_alpha                90
_cell_angle_beta                 91.275(2)
_cell_angle_gamma                90
_cell_volume                     1403.73
_exptl_crystal_colour            colorless
_exptl_crystal_description       block
_cell_formula_units_Z            4
loop_
_atom_site_label
_atom_site_type_symbol
_atom_site_fract_x
_atom_site_fract_y
_atom_site_fract_z
Cl1 Cl 0.90602(12) 0.34324(5) 0.46874(7)
O1 O 0.4173(3) 0.53829(12) 0.85143(16)
O2 O 0.6605(3) 0.78342(12) 0.57035(19)
H1 H 0.6396 0.8294 0.5965
O3 O -0.0816(3) 0.44776(14) 0.86523(19)
C1 C 0.5923(4) 0.48860(17) 0.6571(2)
C2 C 0.4927(4) 0.42985(17) 0.7182(2)
C3 C 0.5621(4) 0.57732(17) 0.6800(2)
C4 C 0.4744(4) 0.59832(17) 0.7783(2)
C5 C 0.7203(4) 0.46129(17) 0.5806(2)
H2 H 0.7908 0.4994 0.5419
C6 C 0.3563(4) 0.45991(17) 0.8026(2)
C7 C 0.6221(4) 0.64144(17) 0.6113(2)
H3 H 0.6786 0.6286 0.5449
C8 C 0.1669(4) 0.47351(17) 0.7433(2)
H4 H 0.1801 0.5160 0.6870
H5 H 0.1305 0.4225 0.7060
C9 C 0.7420(4) 0.37684(18) 0.5623(2)
C10 C 0.0144(4) 0.49923(19) 0.8207(2)
C11 C 0.5988(4) 0.72354(18) 0.6407(2)
C12 C 0.5166(4) 0.34610(18) 0.6970(3)
H6 H 0.4489 0.3075 0.7366
C13 C 0.6387(4) 0.31842(19) 0.6184(3)
H7 H 0.660(4) 0.258(2) 0.601(3)
C14 C 0.4516(4) 0.68041(19) 0.8094(3)
H8 H 0.3946 0.6935 0.8756
C15 C 0.5146(4) 0.74283(18) 0.7406(3)
H9 H 0.5007 0.7981 0.7612
C16 C 0.3430(5) 0.4031(2) 0.9030(3)
H10 H 0.3034 0.3489 0.8792
H11 H 0.2553 0.4255 0.9536
H12 H 0.4619 0.3990 0.9395
C17 C -0.0131(5) 0.59035(19) 0.8413(3)
H13 H 0.0744 0.6216 0.7995
H14 H 0.0049 0.6018 0.9190
H15 H -0.1363 0.6059 0.8186
loop_
_geom_bond_atom_site_label_1
_geom_bond_atom_site_label_2
_geom_bond_site_symmetry_1
_geom_bond_site_symmetry_2
Cl1 C9 1_555 1_555
O1 C4 1_555 1_555
O2 H1 1_555 1_555
O3 C10 1_555 1_555
C1 C2 1_555 1_555
C2 C6 1_555 1_555
C3 C1 1_555 1_555
C4 C3 1_555 1_555
C5 C1 1_555 1_555
H2 C5 1_555 1_555
C6 O1 1_555 1_555
C7 C3 1_555 1_555
H3 C7 1_555 1_555
C8 C6 1_555 1_555
H4 C8 1_555 1_555
H5 C8 1_555 1_555
C9 C5 1_555 1_555
C10 C8 1_555 1_555
C11 O2 1_555 1_555
C12 C2 1_555 1_555
H6 C12 1_555 1_555
C13 C9 1_555 1_555
H7 C13 1_555 1_555
C14 C4 1_555 1_555
H8 C14 1_555 1_555
C15 C11 1_555 1_555
H9 C15 1_555 1_555
C16 C6 1_555 1_555
H10 C16 1_555 1_555
H11 C16 1_555 1_555
H12 C16 1_555 1_555
C17 C10 1_555 1_555
H13 C17 1_555 1_555
H14 C17 1_555 1_555
H15 C17 1_555 1_555
C7 C11 1_555 1_555
C12 C13 1_555 1_555
C14 C15 1_555 1_555

#END
