
#######################################################################
#
#                 Cambridge Crystallographic Data Centre
#                                CCDC 
#
#######################################################################
#
# If this CIF has been generated from an entry in the Cambridge 
# Structural Database, then it will include bibliographic, chemical, 
# crystal, experimental, refinement or atomic coordinate data resulting 
# from the CCDC's data processing and validation procedures.
#
#######################################################################

data_GIJXAB
_chemical_formula_moiety         'C24 H22 N4 O4'
_chemical_name_systematic        
N^3'^,N^6'^-diethyl-N^3'^,N^6'^-dinitroso-3H-spiro[2-benzofuran-1,9'-xanthene]-3',6'-diamine
_symmetry_cell_setting           monoclinic
_symmetry_space_group_name_H-M   'P 21/c'
_symmetry_Int_Tables_number      14
_space_group_name_Hall           '-P 2ybc'
loop_
_symmetry_equiv_pos_site_id
_symmetry_equiv_pos_as_xyz
1 x,y,z
2 -x,1/2+y,1/2-z
3 -x,-y,-z
4 x,1/2-y,1/2+z
_cell_length_a                   18.2546(6)
_cell_length_b                   9.1982(3)
_cell_length_c                   13.3199(4)
_cell_angle_alpha                90
_cell_angle_beta                 108.2310(10)
_cell_angle_gamma                90
_cell_volume                     2124.27
_exptl_crystal_colour            colorless
_exptl_crystal_description       prismatic
_cell_formula_units_Z            4
loop_
_atom_site_label
_atom_site_type_symbol
_atom_site_fract_x
_atom_site_fract_y
_atom_site_fract_z
N1 N 0.93957(10) 0.56237(19) 0.18419(14)
N2 N 0.97448(11) 0.6916(2) 0.19350(16)
N3 N 0.55082(11) 0.0043(2) 0.32649(15)
N4 N 0.49086(14) 0.0170(3) 0.3624(2)
O1 O 0.74904(9) 0.29916(18) 0.27840(11)
O2 O 0.84587(8) 0.37298(17) 0.58881(10)
O3 O 1.00364(10) 0.7169(2) 0.12283(15)
O4 O 0.43842(14) -0.0697(3) 0.32258(19)
C1 C 0.80787(11) 0.3992(2) 0.31185(15)
C2 C 0.84368(11) 0.4319(2) 0.23745(16)
H1 H 0.8271 0.3887 0.1710
C3 C 0.90389(11) 0.5287(2) 0.26208(16)
C4 C 0.92889(13) 0.5907(2) 0.36218(17)
H2 H 0.9706 0.6542 0.3803
C5 C 0.89164(13) 0.5575(2) 0.43388(17)
H3 H 0.9085 0.6006 0.5004
C6 C 0.82923(12) 0.4614(2) 0.41096(15)
C7 C 0.78918(12) 0.4259(2) 0.49144(15)
C8 C 0.72856(11) 0.3100(2) 0.44900(14)
C9 C 0.71161(12) 0.2557(2) 0.34761(15)
C10 C 0.65458(12) 0.1539(2) 0.30796(16)
H4 H 0.6449 0.1186 0.2396
C11 C 0.61214(12) 0.1046(2) 0.36969(16)
C12 C 0.62866(13) 0.1540(2) 0.47314(17)
H5 H 0.6014 0.1187 0.5165
C13 C 0.68548(13) 0.2551(2) 0.51003(16)
H6 H 0.6958 0.2887 0.5789
C14 C 0.75553(12) 0.5573(2) 0.52929(16)
C15 C 0.69501(15) 0.6457(3) 0.4707(2)
H7 H 0.6719 0.6310 0.3986
C16 C 0.67062(17) 0.7553(3) 0.5229(3)
H8 H 0.6300 0.8150 0.4859
C17 C 0.70625(18) 0.7776(3) 0.6306(3)
H9 H 0.6894 0.8529 0.6645
C18 C 0.76538(16) 0.6911(3) 0.6873(2)
H10 H 0.7887 0.7062 0.7593
C19 C 0.79018(13) 0.5795(2) 0.63493(17)
C20 C 0.85174(14) 0.4700(3) 0.67503(17)
H11 H 0.9020 0.5164 0.6977
H12 H 0.8445 0.4177 0.7345
C21 C 0.93516(14) 0.4660(3) 0.09538(19)
H13 H 0.9270 0.3672 0.1151
H14 H 0.9840 0.4686 0.0810
C22 C 0.87145(18) 0.5059(3) -0.0041(2)
H15 H 0.8232 0.5092 0.0105
H16 H 0.8686 0.4344 -0.0577
H17 H 0.8820 0.5994 -0.0284
C23 C 0.55296(16) -0.1045(3) 0.2463(2)
H18 H 0.5305 -0.1945 0.2610
H19 H 0.6063 -0.1239 0.2517
C24 C 0.51090(19) -0.0578(4) 0.1367(2)
H20 H 0.4574 -0.0439 0.1295
H21 H 0.5158 -0.1310 0.0879
H22 H 0.5323 0.0320 0.1218
loop_
_geom_bond_atom_site_label_1
_geom_bond_atom_site_label_2
_geom_bond_site_symmetry_1
_geom_bond_site_symmetry_2
N1 N2 1_555 1_555
N2 O3 1_555 1_555
N3 N4 1_555 1_555
N4 O4 1_555 1_555
O1 C1 1_555 1_555
O2 C7 1_555 1_555
C1 C2 1_555 1_555
C2 H1 1_555 1_555
C3 N1 1_555 1_555
C4 C3 1_555 1_555
H2 C4 1_555 1_555
C5 C4 1_555 1_555
H3 C5 1_555 1_555
C6 C1 1_555 1_555
C7 C6 1_555 1_555
C8 C7 1_555 1_555
C9 O1 1_555 1_555
C10 C9 1_555 1_555
H4 C10 1_555 1_555
C11 N3 1_555 1_555
C12 C11 1_555 1_555
H5 C12 1_555 1_555
C13 C8 1_555 1_555
H6 C13 1_555 1_555
C14 C7 1_555 1_555
C15 C14 1_555 1_555
H7 C15 1_555 1_555
C16 C15 1_555 1_555
H8 C16 1_555 1_555
C17 C16 1_555 1_555
H9 C17 1_555 1_555
C18 C17 1_555 1_555
H10 C18 1_555 1_555
C19 C14 1_555 1_555
C20 O2 1_555 1_555
H11 C20 1_555 1_555
H12 C20 1_555 1_555
C21 N1 1_555 1_555
H13 C21 1_555 1_555
H14 C21 1_555 1_555
C22 C21 1_555 1_555
H15 C22 1_555 1_555
H16 C22 1_555 1_555
H17 C22 1_555 1_555
C23 N3 1_555 1_555
H18 C23 1_555 1_555
H19 C23 1_555 1_555
C24 C23 1_555 1_555
H20 C24 1_555 1_555
H21 C24 1_555 1_555
H22 C24 1_555 1_555
C2 C3 1_555 1_555
C5 C6 1_555 1_555
C8 C9 1_555 1_555
C10 C11 1_555 1_555
C12 C13 1_555 1_555
C18 C19 1_555 1_555
C19 C20 1_555 1_555

#END
