
#######################################################################
#
#                 Cambridge Crystallographic Data Centre
#                                CCDC 
#
#######################################################################
#
# If this CIF has been generated from an entry in the Cambridge 
# Structural Database, then it will include bibliographic, chemical, 
# crystal, experimental, refinement or atomic coordinate data resulting 
# from the CCDC's data processing and validation procedures.
#
#######################################################################

data_GIJXEF
_chemical_formula_moiety         'C12 H12 N2 O3'
_chemical_name_systematic        
7-[ethyl(nitroso)amino]-4-methyl-2H-1-benzopyran-2-one
_symmetry_cell_setting           monoclinic
_symmetry_space_group_name_H-M   'P 21/c'
_symmetry_Int_Tables_number      14
_space_group_name_Hall           '-P 2ybc'
loop_
_symmetry_equiv_pos_site_id
_symmetry_equiv_pos_as_xyz
1 x,y,z
2 -x,1/2+y,1/2-z
3 -x,-y,-z
4 x,1/2-y,1/2+z
_cell_length_a                   11.2278(5)
_cell_length_b                   13.7389(6)
_cell_length_c                   7.4364(3)
_cell_angle_alpha                90
_cell_angle_beta                 107.1730(10)
_cell_angle_gamma                90
_cell_volume                     1095.98
_exptl_crystal_colour            yellow
_exptl_crystal_description       prismatic
_cell_formula_units_Z            4
loop_
_atom_site_label
_atom_site_type_symbol
_atom_site_fract_x
_atom_site_fract_y
_atom_site_fract_z
N1 N 0.87114(10) 0.71962(9) 0.75006(16)
N2 N 0.95088(12) 0.79447(10) 0.77870(19)
O1 O 0.29923(10) 0.54689(8) 0.18893(17)
O2 O 0.47516(9) 0.60817(7) 0.36879(14)
O3 O 1.05852(10) 0.77443(9) 0.87148(17)
C1 C 0.35621(13) 0.62057(11) 0.2485(2)
C2 C 0.31231(13) 0.71843(11) 0.2044(2)
H1 H 0.2303 0.7281 0.1230
C3 C 0.38270(13) 0.79706(10) 0.27381(19)
C4 C 0.50742(12) 0.78190(10) 0.39934(19)
C5 C 0.54943(12) 0.68711(10) 0.44246(19)
C6 C 0.66747(13) 0.66485(10) 0.55831(19)
H2 H 0.6927 0.5991 0.5844
C7 C 0.74802(13) 0.74049(10) 0.63532(19)
C8 C 0.70840(13) 0.83713(11) 0.59823(19)
H3 H 0.7627 0.8891 0.6532
C9 C 0.59084(13) 0.85639(11) 0.4822(2)
H4 H 0.5653 0.9222 0.4572
C10 C 0.33394(14) 0.89831(11) 0.2242(2)
H5 H 0.2563 0.8956 0.1204
H6 H 0.3958 0.9368 0.1858
H7 H 0.3179 0.9287 0.3340
C11 C 0.91213(14) 0.62194(11) 0.8227(2)
H8 H 0.8407 0.5865 0.8438
H9 H 0.9771 0.6281 0.9455
C12 C 0.96387(17) 0.56337(13) 0.6897(3)
H10 H 0.8999 0.5569 0.5679
H11 H 0.9884 0.4986 0.7430
H12 H 1.0368 0.5968 0.6722
loop_
_geom_bond_atom_site_label_1
_geom_bond_atom_site_label_2
_geom_bond_site_symmetry_1
_geom_bond_site_symmetry_2
N1 N2 1_555 1_555
N2 O3 1_555 1_555
O1 C1 1_555 1_555
O2 C1 1_555 1_555
C1 C2 1_555 1_555
C2 H1 1_555 1_555
C3 C2 1_555 1_555
C4 C3 1_555 1_555
C5 O2 1_555 1_555
C6 C5 1_555 1_555
H2 C6 1_555 1_555
C7 N1 1_555 1_555
C8 C7 1_555 1_555
H3 C8 1_555 1_555
C9 C4 1_555 1_555
H4 C9 1_555 1_555
C10 C3 1_555 1_555
H5 C10 1_555 1_555
H6 C10 1_555 1_555
H7 C10 1_555 1_555
C11 N1 1_555 1_555
H8 C11 1_555 1_555
H9 C11 1_555 1_555
C12 C11 1_555 1_555
H10 C12 1_555 1_555
H11 C12 1_555 1_555
H12 C12 1_555 1_555
C4 C5 1_555 1_555
C6 C7 1_555 1_555
C8 C9 1_555 1_555

#END
