
#######################################################################
#
#                 Cambridge Crystallographic Data Centre
#                                CCDC 
#
#######################################################################
#
# If this CIF has been generated from an entry in the Cambridge 
# Structural Database, then it will include bibliographic, chemical, 
# crystal, experimental, refinement or atomic coordinate data resulting 
# from the CCDC's data processing and validation procedures.
#
#######################################################################

data_GIKBOU
_chemical_formula_moiety         'C44 H26 N4 O2'
_chemical_name_systematic        
2,5-bis(10H-phenoxazin-10-yl)dibenzo[a,k][3,8]phenanthroline
_symmetry_cell_setting           monoclinic
_symmetry_space_group_name_H-M   'C 2/c'
_symmetry_Int_Tables_number      15
_space_group_name_Hall           '-C 2yn'
loop_
_symmetry_equiv_pos_site_id
_symmetry_equiv_pos_as_xyz
1 x,y,z
2 -x,y,1/2-z
3 1/2+x,1/2+y,z
4 1/2-x,1/2+y,1/2-z
5 -x,-y,-z
6 x,-y,1/2+z
7 1/2-x,1/2-y,-z
8 1/2+x,1/2-y,1/2+z
_cell_length_a                   25.514(2)
_cell_length_b                   9.0508(3)
_cell_length_c                   19.0317(16)
_cell_angle_alpha                90
_cell_angle_beta                 136.902(16)
_cell_angle_gamma                90
_cell_volume                     3002.77
_exptl_crystal_colour            orange
_exptl_crystal_description       needle
_cell_formula_units_Z            4
loop_
_atom_site_label
_atom_site_type_symbol
_atom_site_fract_x
_atom_site_fract_y
_atom_site_fract_z
O1 O 0.33395(5) 0.00756(11) 0.33198(7)
N1 N 0.34587(6) 0.47412(12) 0.22116(8)
N2 N 0.37141(6) 0.22751(12) 0.27062(8)
C1 C 0.29610(7) 0.16850(13) 0.19863(9)
C2 C 0.46602(7) 0.48777(13) 0.23848(9)
C3 C 0.38540(7) 0.35805(13) 0.24383(9)
C4 C 0.35631(7) 0.60006(14) 0.19159(9)
C5 C 0.39675(7) 0.09798(14) 0.40460(9)
C6 C 0.27986(7) 0.05729(14) 0.23147(9)
C7 C 0.41688(7) 0.20810(13) 0.37635(9)
C8 C 0.36225(7) 0.84973(14) 0.11280(9)
H1 H 0.3628 0.9318 0.0839
C9 C 0.44091(8) 0.07091(15) 0.50675(10)
H2 H 0.4264 -0.0020 0.5243
C10 C 0.48184(7) 0.29235(14) 0.45355(9)
H3 H 0.4951 0.3686 0.4362
C11 C 0.47506(7) 0.21642(14) 0.25333(9)
H4 H 0.4616 0.1280 0.2618
C12 C 0.52717(7) 0.26380(15) 0.55651(10)
H5 H 0.5711 0.3195 0.6076
C13 C 0.41546(6) 0.61268(13) 0.19860(9)
C14 C 0.41503(7) 0.73931(14) 0.15466(9)
H6 H 0.4511 0.7478 0.1541
C15 C 0.44374(7) 0.35244(13) 0.24713(9)
C16 C 0.16827(7) 0.13758(15) 0.02702(10)
H7 H 0.1304 0.1652 -0.0419
C17 C 0.23875(7) 0.20929(15) 0.09534(10)
H8 H 0.2477 0.2849 0.0720
C18 C 0.15377(7) 0.02515(16) 0.06052(10)
H9 H 0.1069 -0.0239 0.0142
C19 C 0.50696(8) 0.15271(15) 0.58299(10)
H10 H 0.5376 0.1328 0.6519
C20 C 0.30441(7) 0.71677(14) 0.15172(9)
H11 H 0.2680 0.7101 0.1516
C21 C 0.20965(7) -0.01341(15) 0.16359(10)
H12 H 0.1999 -0.0868 0.1871
C22 C 0.30736(7) 0.84046(14) 0.11302(9)
H13 H 0.2732 0.9178 0.0870
O1A O 0.66605(5) 0.00756(11) 0.16802(7)
N1A N 0.65413(6) 0.47412(12) 0.27884(8)
N2A N 0.62859(6) 0.22751(12) 0.22938(8)
C1A C 0.70390(7) 0.16850(13) 0.30137(9)
C2A C 0.53398(7) 0.48777(13) 0.26152(9)
C3A C 0.61460(7) 0.35805(13) 0.25617(9)
C4A C 0.64369(7) 0.60006(14) 0.30841(9)
C5A C 0.60325(7) 0.09798(14) 0.09540(9)
C6A C 0.72014(7) 0.05729(14) 0.26853(9)
C7A C 0.58312(7) 0.20810(13) 0.12365(9)
C8A C 0.63775(7) 0.84973(14) 0.38720(9)
H1A H 0.6372 0.9318 0.4161
C9A C 0.55909(8) 0.07091(15) -0.00675(10)
H2A H 0.5736 -0.0020 -0.0243
C10A C 0.51816(7) 0.29235(14) 0.04645(9)
H3A H 0.5049 0.3686 0.0638
C11A C 0.52494(7) 0.21642(14) 0.24667(9)
H4A H 0.5384 0.1280 0.2382
C12A C 0.47283(7) 0.26380(15) -0.05651(10)
H5A H 0.4289 0.3195 -0.1076
C13A C 0.58454(6) 0.61268(13) 0.30140(9)
C14A C 0.58497(7) 0.73931(14) 0.34534(9)
H6A H 0.5489 0.7478 0.3459
C15A C 0.55626(7) 0.35244(13) 0.25287(9)
C16A C 0.83173(7) 0.13758(15) 0.47298(10)
H7A H 0.8696 0.1652 0.5419
C17A C 0.76125(7) 0.20929(15) 0.40466(10)
H8A H 0.7523 0.2849 0.4280
C18A C 0.84623(7) 0.02515(16) 0.43948(10)
H9A H 0.8931 -0.0239 0.4858
C19A C 0.49304(8) 0.15271(15) -0.08299(10)
H10A H 0.4624 0.1328 -0.1519
C20A C 0.69559(7) 0.71677(14) 0.34828(9)
H11A H 0.7320 0.7101 0.3484
C21A C 0.79035(7) -0.01341(15) 0.33641(10)
H12A H 0.8001 -0.0868 0.3129
C22A C 0.69264(7) 0.84046(14) 0.38698(9)
H13A H 0.7268 0.9178 0.4130
loop_
_geom_bond_atom_site_label_1
_geom_bond_atom_site_label_2
_geom_bond_site_symmetry_1
_geom_bond_site_symmetry_2
O1 C5 1_555 1_555
N1 C3 1_555 1_555
N2 C1 1_555 1_555
C1 C6 1_555 1_555
C2 C13 1_555 1_555
C3 N2 1_555 1_555
C4 N1 1_555 1_555
C5 C7 1_555 1_555
C6 O1 1_555 1_555
C7 N2 1_555 1_555
C8 H1 1_555 1_555
C9 C5 1_555 1_555
H2 C9 1_555 1_555
C10 C7 1_555 1_555
H3 C10 1_555 1_555
C11 H4 1_555 1_555
C12 C10 1_555 1_555
H5 C12 1_555 1_555
C13 C4 1_555 1_555
C14 C8 1_555 1_555
H6 C14 1_555 1_555
C15 C2 1_555 1_555
C16 H7 1_555 1_555
C17 C1 1_555 1_555
H8 C17 1_555 1_555
C18 C16 1_555 1_555
H9 C18 1_555 1_555
C19 C9 1_555 1_555
H10 C19 1_555 1_555
C20 C4 1_555 1_555
H11 C20 1_555 1_555
C21 C6 1_555 1_555
H12 C21 1_555 1_555
C22 C8 1_555 1_555
H13 C22 1_555 1_555
O1A C5A 1_555 1_555
N1A C3A 1_555 1_555
N2A C1A 1_555 1_555
C1A C6A 1_555 1_555
C2A C2 1_555 1_555
C3A N2A 1_555 1_555
C4A N1A 1_555 1_555
C5A C7A 1_555 1_555
C6A O1A 1_555 1_555
C7A N2A 1_555 1_555
C8A H1A 1_555 1_555
C9A C5A 1_555 1_555
H2A C9A 1_555 1_555
C10A C7A 1_555 1_555
H3A C10A 1_555 1_555
C11A C11 1_555 1_555
H4A C11A 1_555 1_555
C12A C10A 1_555 1_555
H5A C12A 1_555 1_555
C13A C2A 1_555 1_555
C14A C8A 1_555 1_555
H6A C14A 1_555 1_555
C15A C2A 1_555 1_555
C16A H7A 1_555 1_555
C17A C1A 1_555 1_555
H8A C17A 1_555 1_555
C18A C16A 1_555 1_555
H9A C18A 1_555 1_555
C19A C9A 1_555 1_555
H10A C19A 1_555 1_555
C20A C4A 1_555 1_555
H11A C20A 1_555 1_555
C21A C6A 1_555 1_555
H12A C21A 1_555 1_555
C22A C8A 1_555 1_555
H13A C22A 1_555 1_555
C3 C15 1_555 1_555
C11 C15 1_555 1_555
C12 C19 1_555 1_555
C13 C14 1_555 1_555
C16 C17 1_555 1_555
C18 C21 1_555 1_555
C20 C22 1_555 1_555
C3A C15A 1_555 1_555
C4A C13A 1_555 1_555
C11A C15A 1_555 1_555
C12A C19A 1_555 1_555
C13A C14A 1_555 1_555
C16A C17A 1_555 1_555
C18A C21A 1_555 1_555
C20A C22A 1_555 1_555

#END
