
#######################################################################
#
#                 Cambridge Crystallographic Data Centre
#                                CCDC 
#
#######################################################################
#
# If this CIF has been generated from an entry in the Cambridge 
# Structural Database, then it will include bibliographic, chemical, 
# crystal, experimental, refinement or atomic coordinate data resulting 
# from the CCDC's data processing and validation procedures.
#
#######################################################################

data_GIKGEP
_chemical_formula_moiety         'C21 H21 Br1 N1 O7 P1 S1'
_chemical_name_systematic        
'diethyl [10-(4-bromophenyl)-6,6,8-trioxo-8,11-dihydro-6H,11aH-6-pyrido[1,2-c][1,2,3]benzoxathiazin-11a-yl]phosphonate'
_symmetry_cell_setting           orthorhombic
_symmetry_space_group_name_H-M   'P 21 21 21'
_symmetry_Int_Tables_number      19
_space_group_name_Hall           'P 2ac 2ab'
loop_
_symmetry_equiv_pos_site_id
_symmetry_equiv_pos_as_xyz
1 x,y,z
2 1/2-x,-y,1/2+z
3 -x,1/2+y,1/2-z
4 1/2+x,1/2-y,-z
_cell_length_a                   8.8385(5)
_cell_length_b                   14.3341(9)
_cell_length_c                   17.8495(11)
_cell_angle_alpha                90
_cell_angle_beta                 90
_cell_angle_gamma                90
_cell_volume                     2261.39
_exptl_crystal_colour            colorless
_exptl_crystal_description       needle
_cell_formula_units_Z            4
loop_
_atom_site_label
_atom_site_type_symbol
_atom_site_fract_x
_atom_site_fract_y
_atom_site_fract_z
Br1 Br 1.18925(5) 0.74568(4) 0.05949(3)
C1 C 0.4101(5) 0.6641(3) 0.3203(3)
C2 C 0.5040(5) 0.6788(3) 0.2484(3)
H1 H 0.43717 0.669796 0.204488
H2 H 0.540418 0.74408 0.247377
C3 C 0.6379(5) 0.6147(3) 0.2409(3)
C4 C 0.6298(5) 0.5299(3) 0.2717(3)
H3 H 0.716312 0.490733 0.26915
C5 C 0.4952(5) 0.4946(3) 0.3088(3)
C6 C 0.7678(5) 0.6462(3) 0.1959(3)
C7 C 0.9060(5) 0.5975(3) 0.1992(3)
H4 H 0.913947 0.543938 0.230359
C8 C 1.0297(5) 0.6257(3) 0.1582(3)
H5 H 1.122592 0.592547 0.161233
C9 C 1.0164(5) 0.7030(3) 0.1127(3)
C10 C 0.8837(4) 0.7527(4) 0.1073(3)
H6 H 0.877307 0.805823 0.075639
C11 C 0.7587(5) 0.7238(3) 0.1491(3)
H7 H 0.66629 0.757402 0.145502
C12 C 0.2578(5) 0.7123(3) 0.3125(3)
C13 C 0.1365(5) 0.6822(3) 0.3547(3)
C14 C -0.0059(5) 0.7224(3) 0.3529(3)
H8 H -0.086225 0.699018 0.382931
C15 C -0.0268(5) 0.7978(3) 0.3057(3)
H9 H -0.123047 0.827118 0.302921
C16 C 0.0919(5) 0.8311(3) 0.2623(3)
H10 H 0.076295 0.882805 0.229967
C17 C 0.2344(5) 0.7889(3) 0.2660(3)
H11 H 0.31538 0.812613 0.236626
C18 C 0.6310(6) 0.8742(3) 0.4221(3)
H12 H 0.73524 0.861732 0.439746
H13 H 0.563835 0.877791 0.466447
C19 C 0.6264(6) 0.9641(4) 0.3801(3)
H14 H 0.690279 0.959349 0.335407
H15 H 0.664007 1.014491 0.412272
H16 H 0.522053 0.977655 0.365129
C20 C 0.6473(6) 0.5942(4) 0.4981(3)
H17 H 0.709695 0.633418 0.531765
H18 H 0.546227 0.586343 0.521141
C21 C 0.7193(8) 0.5029(5) 0.4876(4)
H19 H 0.65982 0.465918 0.451997
H20 H 0.724253 0.47021 0.535714
H21 H 0.821863 0.511616 0.467916
N1 N 0.3862(4) 0.5604(3) 0.3309(2)
O1 O 0.4720(4) 0.4117(2) 0.3198(2)
O2 O 0.1602(3) 0.6069(2) 0.40431(19)
O3 O 0.2718(3) 0.4629(2) 0.4368(2)
O4 O 0.1387(3) 0.4766(2) 0.3158(2)
O5 O 0.3984(3) 0.7268(2) 0.46855(18)
O6 O 0.5810(4) 0.7989(2) 0.37276(19)
O7 O 0.6328(3) 0.6392(2) 0.42426(19)
P1 P 0.50284(13) 0.71035(8) 0.40636(7)
S1 S 0.23311(12) 0.51548(8) 0.37245(7)
loop_
_geom_bond_atom_site_label_1
_geom_bond_atom_site_label_2
_geom_bond_site_symmetry_1
_geom_bond_site_symmetry_2
Br1 C9 1_555 1_555
C1 C2 1_555 1_555
C2 H1 1_555 1_555
H2 C2 1_555 1_555
C3 C2 1_555 1_555
C4 C3 1_555 1_555
H3 C4 1_555 1_555
C5 C4 1_555 1_555
C6 C3 1_555 1_555
C7 C6 1_555 1_555
H4 C7 1_555 1_555
C8 C7 1_555 1_555
H5 C8 1_555 1_555
C9 C8 1_555 1_555
C10 C9 1_555 1_555
H6 C10 1_555 1_555
C11 C6 1_555 1_555
H7 C11 1_555 1_555
C12 C1 1_555 1_555
C13 C12 1_555 1_555
C14 C13 1_555 1_555
H8 C14 1_555 1_555
C15 C14 1_555 1_555
H9 C15 1_555 1_555
C16 C15 1_555 1_555
H10 C16 1_555 1_555
C17 C12 1_555 1_555
H11 C17 1_555 1_555
C18 H12 1_555 1_555
H13 C18 1_555 1_555
C19 C18 1_555 1_555
H14 C19 1_555 1_555
H15 C19 1_555 1_555
H16 C19 1_555 1_555
C20 H17 1_555 1_555
H18 C20 1_555 1_555
C21 C20 1_555 1_555
H19 C21 1_555 1_555
H20 C21 1_555 1_555
H21 C21 1_555 1_555
N1 C1 1_555 1_555
O1 C5 1_555 1_555
O2 C13 1_555 1_555
O3 S1 1_555 1_555
O4 S1 1_555 1_555
O5 P1 1_555 1_555
O6 C18 1_555 1_555
O7 C20 1_555 1_555
P1 C1 1_555 1_555
S1 N1 1_555 1_555
C5 N1 1_555 1_555
C10 C11 1_555 1_555
C16 C17 1_555 1_555
O2 S1 1_555 1_555
O6 P1 1_555 1_555
O7 P1 1_555 1_555

#END
