
#######################################################################
#
#                 Cambridge Crystallographic Data Centre
#                                CCDC 
#
#######################################################################
#
# If this CIF has been generated from an entry in the Cambridge 
# Structural Database, then it will include bibliographic, chemical, 
# crystal, experimental, refinement or atomic coordinate data resulting 
# from the CCDC's data processing and validation procedures.
#
#######################################################################

data_GIKHOZ
_chemical_formula_moiety         'C18 H18 N2 O3'
_chemical_name_systematic        
'Ethyl 4-(3-oxobutyl)-1H-azuleno[8,1-cd]pyridazine-5-carboxylate'
_symmetry_cell_setting           monoclinic
_symmetry_space_group_name_H-M   'C 2/c'
_symmetry_Int_Tables_number      15
_space_group_name_Hall           '-C 2yn'
loop_
_symmetry_equiv_pos_site_id
_symmetry_equiv_pos_as_xyz
1 x,y,z
2 -x,y,1/2-z
3 1/2+x,1/2+y,z
4 1/2-x,1/2+y,1/2-z
5 -x,-y,-z
6 x,-y,1/2+z
7 1/2-x,1/2-y,-z
8 1/2+x,1/2-y,1/2+z
_cell_length_a                   15.9841(17)
_cell_length_b                   16.5867(18)
_cell_length_c                   13.1061(14)
_cell_angle_alpha                90
_cell_angle_beta                 116.264(3)
_cell_angle_gamma                90
_cell_volume                     3116.02
_cell_formula_units_Z            8
loop_
_atom_site_label
_atom_site_type_symbol
_atom_site_fract_x
_atom_site_fract_y
_atom_site_fract_z
C1 C 0.15998(15) 0.15953(14) 0.40378(19)
C2 C 0.23652(15) 0.12847(14) 0.29709(19)
C3 C 0.21912(15) 0.21298(14) 0.28447(19)
C4 C 0.19967(15) 0.09729(14) 0.3697(2)
C5 C 0.16994(15) 0.23149(14) 0.35014(19)
C6 C 0.24600(17) 0.26573(16) 0.2193(2)
H1 H 0.2304 0.3197 0.2194
C7 C 0.27999(16) 0.07607(15) 0.2527(2)
N1 N 0.28332(15) -0.00202(13) 0.2826(2)
H2 H 0.3103 -0.0343 0.2552
C8 C 0.2920(2) 0.24686(18) 0.1564(2)
H3 H 0.3035 0.2901 0.1192
C9 C 0.32069(18) 0.09719(18) 0.1793(2)
H4 H 0.3473 0.0554 0.1564
C10 C 0.3249(2) 0.17111(19) 0.1393(2)
H5 H 0.3545 0.1728 0.0922
N2 N 0.24880(16) -0.03637(13) 0.3517(2)
C11 C 0.20934(18) 0.01282(15) 0.3927(2)
H6 H 0.1855 -0.0080 0.4404
O1 O -0.09600(14) 0.05109(14) 0.45463(19)
O2 O 0.08427(11) 0.31294(9) 0.41483(15)
O3 O 0.15207(12) 0.37401(10) 0.31981(15)
C12 C 0.11482(16) 0.14664(15) 0.4818(2)
H7 H 0.1237 0.1944 0.5282
H8 H 0.1451 0.1019 0.5323
C13 C 0.01009(17) 0.12902(16) 0.4161(2)
H9 H -0.0211 0.1772 0.3748
H10 H 0.0011 0.0872 0.3605
C14 C -0.03560(19) 0.10281(18) 0.4892(3)
C15 C -0.0048(3) 0.1386(2) 0.6039(3)
H11 H -0.0404 0.1157 0.6396
H12 H -0.0143 0.1958 0.5971
H13 H 0.0602 0.1273 0.6493
C16 C 0.13661(15) 0.31229(15) 0.3588(2)
C17 C 0.04973(18) 0.39053(14) 0.4304(2)
H14 H 0.0107 0.4149 0.3574
H15 H 0.1012 0.4267 0.4727
C18 C -0.0060(2) 0.37463(17) 0.4957(3)
H16 H -0.0302 0.4246 0.5085
H17 H 0.0335 0.3503 0.5675
H18 H -0.0567 0.3389 0.4527
loop_
_geom_bond_atom_site_label_1
_geom_bond_atom_site_label_2
_geom_bond_site_symmetry_1
_geom_bond_site_symmetry_2
C1 C4 1_555 1_555
C2 C3 1_555 1_555
C3 C5 1_555 1_555
C4 C2 1_555 1_555
C5 C1 1_555 1_555
C6 C3 1_555 1_555
H1 C6 1_555 1_555
C7 C2 1_555 1_555
N1 C7 1_555 1_555
H2 N1 1_555 1_555
C8 C6 1_555 1_555
H3 C8 1_555 1_555
C9 C7 1_555 1_555
H4 C9 1_555 1_555
C10 C8 1_555 1_555
H5 C10 1_555 1_555
N2 N1 1_555 1_555
C11 C4 1_555 1_555
H6 C11 1_555 1_555
O1 C14 1_555 1_555
O2 C16 1_555 1_555
O3 C16 1_555 1_555
C12 C1 1_555 1_555
H7 C12 1_555 1_555
H8 C12 1_555 1_555
C13 C12 1_555 1_555
H9 C13 1_555 1_555
H10 C13 1_555 1_555
C14 C13 1_555 1_555
C15 C14 1_555 1_555
H11 C15 1_555 1_555
H12 C15 1_555 1_555
H13 C15 1_555 1_555
C16 C5 1_555 1_555
C17 O2 1_555 1_555
H14 C17 1_555 1_555
H15 C17 1_555 1_555
C18 C17 1_555 1_555
H16 C18 1_555 1_555
H17 C18 1_555 1_555
H18 C18 1_555 1_555
C9 C10 1_555 1_555
N2 C11 1_555 1_555

#END
