
#######################################################################
#
#                 Cambridge Crystallographic Data Centre
#                                CCDC 
#
#######################################################################
#
# If this CIF has been generated from an entry in the Cambridge 
# Structural Database, then it will include bibliographic, chemical, 
# crystal, experimental, refinement or atomic coordinate data resulting 
# from the CCDC's data processing and validation procedures.
#
#######################################################################

data_GIKHUG
_chemical_formula_moiety         'C18 H21 N1 O3 S1'
_chemical_name_systematic        
{3,3-dimethyl-1-[(4-methylphenyl)sulfonyl]aziridin-2-yl}(phenyl)methanol
_symmetry_cell_setting           monoclinic
_symmetry_space_group_name_H-M   'P 21/c'
_symmetry_Int_Tables_number      14
_space_group_name_Hall           '-P 2ybc'
loop_
_symmetry_equiv_pos_site_id
_symmetry_equiv_pos_as_xyz
1 x,y,z
2 -x,1/2+y,1/2-z
3 -x,-y,-z
4 x,1/2-y,1/2+z
_cell_length_a                   18.2833(7)
_cell_length_b                   6.2610(3)
_cell_length_c                   14.8250(6)
_cell_angle_alpha                90
_cell_angle_beta                 90.7704(14)
_cell_angle_gamma                90
_cell_volume                     1696.89
_exptl_crystal_colour            colorless
_exptl_crystal_description       plate
_cell_formula_units_Z            4
loop_
_atom_site_label
_atom_site_type_symbol
_atom_site_fract_x
_atom_site_fract_y
_atom_site_fract_z
S1 S 0.18946(2) 0.75881(7) 0.47629(3)
O1 O 0.24805(8) 0.5909(2) 0.21654(9)
H1 H 0.2301 0.5957 0.1641
O2 O 0.22857(7) 0.5689(2) 0.50178(9)
O3 O 0.17736(7) 0.9178(2) 0.54495(8)
N1 N 0.22595(8) 0.8865(3) 0.39090(10)
C1 C 0.28763(10) 0.7924(3) 0.33990(12)
H2 H 0.3073 0.6563 0.3660
C2 C 0.30128(10) 0.9842(3) 0.39689(12)
C3 C 0.28016(10) 0.7922(3) 0.23838(12)
H3 H 0.2466 0.9100 0.2187
C4 C 0.35472(10) 0.8224(3) 0.19596(11)
C5 C 0.37091(11) 1.0125(3) 0.15115(12)
H4 H 0.3349 1.1215 0.1463
C6 C 0.43938(11) 1.0432(4) 0.11350(13)
H5 H 0.4502 1.1730 0.0833
C7 C 0.49192(11) 0.8839(4) 0.12012(13)
H6 H 0.5385 0.9042 0.0939
C8 C 0.47652(11) 0.6947(4) 0.16501(13)
H7 H 0.5128 0.5865 0.1702
C9 C 0.40785(11) 0.6637(3) 0.20245(12)
H8 H 0.3972 0.5337 0.2326
C10 C 0.34727(11) 0.9579(3) 0.48162(13)
H9 H 0.3288 1.0528 0.5287
H10 H 0.3982 0.9945 0.4688
H11 H 0.3446 0.8094 0.5023
C11 C 0.30304(12) 1.2049(3) 0.35720(14)
H12 H 0.2686 1.2130 0.3061
H13 H 0.3525 1.2365 0.3364
H14 H 0.2891 1.3092 0.4032
C12 C 0.10442(10) 0.6865(3) 0.42877(12)
C13 C 0.09241(12) 0.4811(3) 0.39780(14)
H15 H 0.1298 0.3763 0.4024
C14 C 0.02448(12) 0.4302(4) 0.35976(15)
H16 H 0.0158 0.2896 0.3380
C15 C -0.03063(11) 0.5815(4) 0.35317(13)
C16 C -0.01717(12) 0.7880(4) 0.38463(15)
H17 H -0.0545 0.8932 0.3801
C17 C 0.05008(11) 0.8410(4) 0.42243(13)
H18 H 0.0590 0.9818 0.4438
C18 C -0.10460(12) 0.5261(5) 0.31311(15)
H19 H -0.1427 0.5575 0.3570
H20 H -0.1059 0.3738 0.2979
H21 H -0.1132 0.6109 0.2584
loop_
_geom_bond_atom_site_label_1
_geom_bond_atom_site_label_2
_geom_bond_site_symmetry_1
_geom_bond_site_symmetry_2
S1 O2 1_555 1_555
O1 H1 1_555 1_555
O3 S1 1_555 1_555
N1 S1 1_555 1_555
C1 N1 1_555 1_555
H2 C1 1_555 1_555
C2 N1 1_555 1_555
C3 O1 1_555 1_555
H3 C3 1_555 1_555
C4 C3 1_555 1_555
C5 C4 1_555 1_555
H4 C5 1_555 1_555
C6 C5 1_555 1_555
H5 C6 1_555 1_555
C7 C6 1_555 1_555
H6 C7 1_555 1_555
C8 C7 1_555 1_555
H7 C8 1_555 1_555
C9 C4 1_555 1_555
H8 C9 1_555 1_555
C10 C2 1_555 1_555
H9 C10 1_555 1_555
H10 C10 1_555 1_555
H11 C10 1_555 1_555
C11 C2 1_555 1_555
H12 C11 1_555 1_555
H13 C11 1_555 1_555
H14 C11 1_555 1_555
C12 S1 1_555 1_555
C13 C12 1_555 1_555
H15 C13 1_555 1_555
C14 C13 1_555 1_555
H16 C14 1_555 1_555
C15 C14 1_555 1_555
C16 C15 1_555 1_555
H17 C16 1_555 1_555
C17 C12 1_555 1_555
H18 C17 1_555 1_555
C18 C15 1_555 1_555
H19 C18 1_555 1_555
H20 C18 1_555 1_555
H21 C18 1_555 1_555
C1 C2 1_555 1_555
C1 C3 1_555 1_555
C8 C9 1_555 1_555
C16 C17 1_555 1_555

#END
