
#######################################################################
#
#                 Cambridge Crystallographic Data Centre
#                                CCDC 
#
#######################################################################
#
# If this CIF has been generated from an entry in the Cambridge 
# Structural Database, then it will include bibliographic, chemical, 
# crystal, experimental, refinement or atomic coordinate data resulting 
# from the CCDC's data processing and validation procedures.
#
#######################################################################

data_GIKJES
_chemical_formula_moiety         'C14 H23 N1 O3 S1'
_chemical_name_systematic        
N-(5-hydroxy-4-methylhexan-3-yl)-4-methylbenzene-1-sulfonamide
_symmetry_cell_setting           orthorhombic
_symmetry_space_group_name_H-M   'P b c a'
_symmetry_Int_Tables_number      61
_space_group_name_Hall           '-P 2ac 2ab'
loop_
_symmetry_equiv_pos_site_id
_symmetry_equiv_pos_as_xyz
1 x,y,z
2 1/2-x,-y,1/2+z
3 1/2+x,1/2-y,-z
4 -x,1/2+y,1/2-z
5 -x,-y,-z
6 1/2+x,y,1/2-z
7 1/2-x,1/2+y,z
8 x,1/2-y,1/2+z
_cell_length_a                   15.3288(12)
_cell_length_b                   11.8897(11)
_cell_length_c                   16.4763(12)
_cell_angle_alpha                90
_cell_angle_beta                 90
_cell_angle_gamma                90
_cell_volume                     3002.89
_exptl_crystal_colour            colorless
_exptl_crystal_description       block
_cell_formula_units_Z            8
loop_
_atom_site_label
_atom_site_type_symbol
_atom_site_fract_x
_atom_site_fract_y
_atom_site_fract_z
S1 S 0.38010(3) 0.23750(4) 0.47652(3)
O1 O 0.28430(9) 0.51060(11) 0.54263(8)
H1 H 0.3232 0.4777 0.5158
O2 O 0.39845(9) 0.35631(12) 0.46825(8)
O3 O 0.42624(9) 0.17252(13) 0.53598(8)
N1 N 0.27846(10) 0.22453(13) 0.49572(9)
H2 H 0.2604(15) 0.157(2) 0.5106(13)
C1 C 0.20828(14) 0.50145(17) 0.66749(11)
H3 H 0.1654 0.5555 0.6468
H4 H 0.2563 0.5420 0.6936
H5 H 0.1803 0.4517 0.7071
C2 C 0.24370(13) 0.43174(15) 0.59745(10)
H6 H 0.2894 0.3795 0.6188
C3 C 0.17371(12) 0.36256(15) 0.55369(10)
H7 H 0.1263 0.4156 0.5372
C4 C 0.20926(12) 0.30699(16) 0.47545(10)
H8 H 0.2362 0.3674 0.4415
C5 C 0.13835(13) 0.25054(16) 0.42490(11)
H9 H 0.1194 0.1809 0.4527
H10 H 0.0874 0.3014 0.4215
C6 C 0.16827(14) 0.2213(2) 0.33949(12)
H11 H 0.1190 0.1910 0.3085
H12 H 0.2148 0.1648 0.3422
H13 H 0.1903 0.2891 0.3126
C7 C 0.13304(13) 0.27529(16) 0.61112(11)
H14 H 0.1019 0.3141 0.6549
H15 H 0.1792 0.2282 0.6343
H16 H 0.0921 0.2280 0.5808
C8 C 0.40478(11) 0.17593(16) 0.38154(10)
C9 C 0.43113(12) 0.06355(16) 0.37862(11)
H17 H 0.4341 0.0201 0.4269
C10 C 0.45289(13) 0.01611(16) 0.30460(11)
H18 H 0.4703 -0.0605 0.3025
C11 C 0.44978(12) 0.07866(16) 0.23291(10)
C12 C 0.42312(12) 0.19092(16) 0.23722(11)
H19 H 0.4205 0.2347 0.1890
C13 C 0.40036(12) 0.23942(15) 0.31104(11)
H20 H 0.3819 0.3156 0.3132
C14 C 0.47589(14) 0.02620(17) 0.15355(11)
H21 H 0.5366 0.0009 0.1568
H22 H 0.4701 0.0818 0.1100
H23 H 0.4380 -0.0383 0.1422
loop_
_geom_bond_atom_site_label_1
_geom_bond_atom_site_label_2
_geom_bond_site_symmetry_1
_geom_bond_site_symmetry_2
S1 O2 1_555 1_555
O1 H1 1_555 1_555
O3 S1 1_555 1_555
N1 S1 1_555 1_555
H2 N1 1_555 1_555
C1 H3 1_555 1_555
H4 C1 1_555 1_555
H5 C1 1_555 1_555
C2 O1 1_555 1_555
H6 C2 1_555 1_555
C3 C2 1_555 1_555
H7 C3 1_555 1_555
C4 N1 1_555 1_555
H8 C4 1_555 1_555
C5 C4 1_555 1_555
H9 C5 1_555 1_555
H10 C5 1_555 1_555
C6 C5 1_555 1_555
H11 C6 1_555 1_555
H12 C6 1_555 1_555
H13 C6 1_555 1_555
C7 C3 1_555 1_555
H14 C7 1_555 1_555
H15 C7 1_555 1_555
H16 C7 1_555 1_555
C8 S1 1_555 1_555
C9 C8 1_555 1_555
H17 C9 1_555 1_555
C10 C9 1_555 1_555
H18 C10 1_555 1_555
C11 C10 1_555 1_555
C12 C11 1_555 1_555
H19 C12 1_555 1_555
C13 C8 1_555 1_555
H20 C13 1_555 1_555
C14 C11 1_555 1_555
H21 C14 1_555 1_555
H22 C14 1_555 1_555
H23 C14 1_555 1_555
C1 C2 1_555 1_555
C3 C4 1_555 1_555
C12 C13 1_555 1_555

#END
