
#######################################################################
#
#                 Cambridge Crystallographic Data Centre
#                                CCDC 
#
#######################################################################
#
# If this CIF has been generated from an entry in the Cambridge 
# Structural Database, then it will include bibliographic, chemical, 
# crystal, experimental, refinement or atomic coordinate data resulting 
# from the CCDC's data processing and validation procedures.
#
#######################################################################

data_GIKMOF
_chemical_name_common            
1-(1,2-diphenylethenyl)-3,3-bis(propan-2-yl)triaz-1-ene
_chemical_formula_moiety         'C20 H25 N3'
_chemical_name_systematic        
(E)-1-((Z)-1,2-diphenylvinyl)-3,3-di-isopropyltriaz-1-ene
_symmetry_cell_setting           monoclinic
_symmetry_space_group_name_H-M   'P 21/n'
_symmetry_Int_Tables_number      14
_space_group_name_Hall           '-P 2yn'
loop_
_symmetry_equiv_pos_site_id
_symmetry_equiv_pos_as_xyz
1 x,y,z
2 1/2-x,1/2+y,1/2-z
3 -x,-y,-z
4 1/2+x,1/2-y,1/2+z
_cell_length_a                   7.75354(12)
_cell_length_b                   15.6169(3)
_cell_length_c                   15.0939(2)
_cell_angle_alpha                90
_cell_angle_beta                 90.2183(14)
_cell_angle_gamma                90
_cell_volume                     1827.65
_exptl_crystal_colour            'pale yellow'
_exptl_crystal_description       prism
_cell_formula_units_Z            4
_exptl_crystal_recrystallization_method methanol
loop_
_atom_site_label
_atom_site_type_symbol
_atom_site_fract_x
_atom_site_fract_y
_atom_site_fract_z
N1 N 0.40596(12) 0.33372(7) 0.51182(6)
N2 N 0.49950(12) 0.32527(6) 0.44008(6)
N3 N 0.44218(12) 0.35942(7) 0.36894(6)
C1 C 0.2545(6) 0.3924(3) 0.5213(3)
H1 H 0.225242 0.414725 0.461043
C2 C 0.0969(3) 0.3449(3) 0.5558(2)
H2 H 0.073552 0.295221 0.517996
H3 H -0.003081 0.383357 0.554943
H4 H 0.118652 0.325718 0.616619
C3 C 0.2984(7) 0.4689(2) 0.5795(3)
H5 H 0.319889 0.449357 0.640282
H6 H 0.201735 0.509304 0.579136
H7 H 0.401804 0.497214 0.556663
C4 C 0.4701(10) 0.2861(4) 0.5906(6)
H8 H 0.396748 0.301181 0.642641
C5 C 0.4539(6) 0.19014(17) 0.57308(19)
H9 H 0.334386 0.176450 0.557218
H10 H 0.486782 0.158388 0.626538
H11 H 0.530241 0.173995 0.524240
C6 C 0.6555(3) 0.3106(3) 0.61107(18)
H12 H 0.728051 0.297762 0.559751
H13 H 0.696408 0.277920 0.662430
H14 H 0.661594 0.371978 0.624272
C7 C 0.55550(14) 0.34523(7) 0.29764(7)
C8 C 0.52488(15) 0.38002(8) 0.21719(7)
H15 H 0.610425 0.367761 0.174115
C9 C 0.38288(15) 0.43326(8) 0.18492(7)
C10 C 0.25274(17) 0.46864(8) 0.23790(8)
H16 H 0.255072 0.459520 0.300123
C11 C 0.12106(17) 0.51662(8) 0.20073(9)
H17 H 0.033658 0.539611 0.237707
C12 C 0.11499(16) 0.53159(8) 0.11035(9)
H18 H 0.024187 0.564594 0.085282
C13 C 0.24283(16) 0.49786(9) 0.05700(8)
H19 H 0.240146 0.507931 -0.005063
C14 C 0.37417(15) 0.44969(8) 0.09354(8)
H20 H 0.460922 0.427046 0.055939
C15 C 0.70945(14) 0.28865(8) 0.31042(7)
C16 C 0.68687(16) 0.20091(8) 0.32179(8)
H21 H 0.573624 0.177684 0.321934
C17 C 0.82680(19) 0.14708(9) 0.33286(9)
H22 H 0.809192 0.087301 0.340152
C18 C 0.99218(18) 0.17998(10) 0.33336(8)
H23 H 1.088361 0.143167 0.341887
C19 C 1.01667(17) 0.26708(10) 0.32133(10)
H24 H 1.130144 0.290021 0.320937
C20 C 0.87557(16) 0.32104(9) 0.30982(9)
H25 H 0.893434 0.380669 0.301474
C21? C 0.2292(9) 0.3619(5) 0.5096(5)
H26? H 0.197955 0.374684 0.446680
C22? C 0.1125(7) 0.2904(5) 0.5420(3)
H27? H 0.145657 0.236475 0.513574
H28? H -0.007476 0.303901 0.526940
H29? H 0.124131 0.284707 0.606423
C23? C 0.2132(9) 0.4429(5) 0.5617(4)
H30? H 0.249090 0.432573 0.623088
H31? H 0.092986 0.462296 0.560610
H32? H 0.287031 0.487050 0.535501
C24? C 0.4998(16) 0.3036(7) 0.5902(9)
H33? H 0.416663 0.303248 0.640686
C25? C 0.5654(11) 0.2144(4) 0.5795(3)
H34? H 0.468775 0.175919 0.566383
H35? H 0.622277 0.196059 0.634430
H36? H 0.648330 0.212536 0.530695
C26? C 0.6405(6) 0.3677(5) 0.6128(3)
H37? H 0.723666 0.370319 0.564131
H38? H 0.699595 0.349808 0.667225
H39? H 0.589070 0.424389 0.621585
loop_
_geom_bond_atom_site_label_1
_geom_bond_atom_site_label_2
_geom_bond_site_symmetry_1
_geom_bond_site_symmetry_2
N1 N2 1_555 1_555
N2 N3 1_555 1_555
N3 C7 1_555 1_555
C1 N1 1_555 1_555
H1 C1 1_555 1_555
C2 C1 1_555 1_555
H2 C2 1_555 1_555
H3 C2 1_555 1_555
H4 C2 1_555 1_555
C3 C1 1_555 1_555
H5 C3 1_555 1_555
H6 C3 1_555 1_555
H7 C3 1_555 1_555
C4 N1 1_555 1_555
H8 C4 1_555 1_555
C5 C4 1_555 1_555
H9 C5 1_555 1_555
H10 C5 1_555 1_555
H11 C5 1_555 1_555
C6 C4 1_555 1_555
H12 C6 1_555 1_555
H13 C6 1_555 1_555
H14 C6 1_555 1_555
C7 C8 1_555 1_555
C8 H15 1_555 1_555
C9 C8 1_555 1_555
C10 C9 1_555 1_555
H16 C10 1_555 1_555
C11 C10 1_555 1_555
H17 C11 1_555 1_555
C12 C11 1_555 1_555
H18 C12 1_555 1_555
C13 C12 1_555 1_555
H19 C13 1_555 1_555
C14 C9 1_555 1_555
H20 C14 1_555 1_555
C15 C7 1_555 1_555
C16 C15 1_555 1_555
H21 C16 1_555 1_555
C17 C16 1_555 1_555
H22 C17 1_555 1_555
C18 C17 1_555 1_555
H23 C18 1_555 1_555
C19 C18 1_555 1_555
H24 C19 1_555 1_555
C20 C15 1_555 1_555
H25 C20 1_555 1_555
C13 C14 1_555 1_555
C19 C20 1_555 1_555

#END
