
#######################################################################
#
#                 Cambridge Crystallographic Data Centre
#                                CCDC 
#
#######################################################################
#
# If this CIF has been generated from an entry in the Cambridge 
# Structural Database, then it will include bibliographic, chemical, 
# crystal, experimental, refinement or atomic coordinate data resulting 
# from the CCDC's data processing and validation procedures.
#
#######################################################################

data_GIKMUL
_chemical_name_common            
1-(1,4-dichloro-2-phenylpenta-1,4-dien-1-yl)-3,3-bis(propan-2-yl)triaz-1-ene
_chemical_formula_moiety         'C17 H23 Cl2 N3'
_chemical_name_systematic        
(E)-1-((E)-1,4-dichloro-2-phenylpenta-1,4-dien-1-yl)-3,3-di-isopropyltriaz-1-ene
_symmetry_cell_setting           triclinic
_symmetry_space_group_name_H-M   'P -1'
_symmetry_Int_Tables_number      2
_space_group_name_Hall           '-P 1'
loop_
_symmetry_equiv_pos_site_id
_symmetry_equiv_pos_as_xyz
1 x,y,z
2 -x,-y,-z
_cell_length_a                   9.8264(9)
_cell_length_b                   9.8833(4)
_cell_length_c                   10.5990(11)
_cell_angle_alpha                113.015(5)
_cell_angle_beta                 101.126(7)
_cell_angle_gamma                102.009(5)
_cell_volume                     882.611
_exptl_crystal_colour            colorless
_exptl_crystal_description       prism
_cell_formula_units_Z            2
_exptl_crystal_recrystallization_method methanol
loop_
_atom_site_label
_atom_site_type_symbol
_atom_site_fract_x
_atom_site_fract_y
_atom_site_fract_z
Cl1 Cl 0.33144(4) 0.72020(4) 0.18882(4)
Cl2 Cl 0.23845(4) 0.23304(4) -0.16043(4)
N1 N 0.24377(13) 1.12241(13) 0.25731(12)
N2 N 0.26566(13) 0.98713(13) 0.21734(12)
N3 N 0.27200(12) 0.92168(13) 0.08794(12)
C1 C 0.23251(17) 1.20483(16) 0.16751(15)
C2 C 0.08368(19) 1.2298(2) 0.14101(18)
C3 C 0.3587(2) 1.3554(2) 0.2363(2)
C4 C 0.23912(16) 1.19404(16) 0.40761(15)
C5 C 0.10408(19) 1.1026(2) 0.42393(18)
C6 C 0.38023(19) 1.2124(2) 0.51218(17)
C7 C 0.29754(14) 0.78048(15) 0.05229(14)
C8 C 0.29818(14) 0.68673(15) -0.08114(14)
C9 C 0.27750(15) 0.72721(15) -0.20358(14)
C10 C 0.20126(16) 0.60970(17) -0.34347(15)
C11 C 0.18769(18) 0.64038(18) -0.46220(16)
C12 C 0.25265(18) 0.78808(19) -0.44447(16)
C13 C 0.32976(16) 0.90528(17) -0.30714(16)
C14 C 0.34030(16) 0.87630(16) -0.18755(15)
C15 C 0.32464(16) 0.53241(16) -0.11104(16)
C16 C 0.19315(16) 0.40193(16) -0.14041(15)
C17 C 0.05649(18) 0.39998(19) -0.15345(17)
H1 H 0.2408(19) 1.1370(19) 0.0768(19)
H2 H 0.073(2) 1.277(2) 0.077(2)
H3 H 0.069(2) 1.296(2) 0.230(2)
H4 H 0.007(2) 1.134(3) 0.096(2)
H5 H 0.2333(18) 1.296(2) 0.4264(18)
H6 H 0.352(2) 1.428(2) 0.325(2)
H7 H 0.355(2) 1.404(2) 0.175(2)
H8 H 0.453(3) 1.342(2) 0.257(2)
H9 H 0.107(2) 1.000(2) 0.404(2)
H10 H 0.016(2) 1.094(2) 0.360(2)
H11 H 0.099(2) 1.153(2) 0.520(2)
H12 H 0.463(2) 1.272(2) 0.501(2)
H13 H 0.379(2) 1.264(2) 0.609(2)
H14 H 0.393(2) 1.113(2) 0.494(2)
H15 H 0.155(2) 0.507(2) -0.3570(19)
H16 H 0.133(2) 0.559(2) -0.557(2)
H17 H 0.244(2) 0.807(2) -0.527(2)
H18 H 0.376(2) 1.003(2) -0.296(2)
H19 H 0.3957(19) 0.9570(19) -0.0942(19)
H20 H 0.3622(19) 0.5001(19) -0.1970(19)
H21 H 0.403(2) 0.547(2) -0.030(2)
H22 H -0.018(2) 0.310(2) -0.174(2)
H23 H 0.029(2) 0.491(2) -0.141(2)
loop_
_geom_bond_atom_site_label_1
_geom_bond_atom_site_label_2
_geom_bond_site_symmetry_1
_geom_bond_site_symmetry_2
Cl1 C7 1_555 1_555
Cl2 C16 1_555 1_555
N1 N2 1_555 1_555
N2 N3 1_555 1_555
N3 C7 1_555 1_555
C1 N1 1_555 1_555
C2 C1 1_555 1_555
C3 C1 1_555 1_555
C4 N1 1_555 1_555
C5 C4 1_555 1_555
C6 C4 1_555 1_555
C7 C8 1_555 1_555
C8 C9 1_555 1_555
C9 C10 1_555 1_555
C10 C11 1_555 1_555
C11 C12 1_555 1_555
C12 C13 1_555 1_555
C13 C14 1_555 1_555
C14 C9 1_555 1_555
C15 C8 1_555 1_555
C16 C15 1_555 1_555
C17 C16 1_555 1_555
H1 C1 1_555 1_555
H2 C2 1_555 1_555
H3 C2 1_555 1_555
H4 C2 1_555 1_555
H5 C4 1_555 1_555
H6 C3 1_555 1_555
H7 C3 1_555 1_555
H8 C3 1_555 1_555
H9 C5 1_555 1_555
H10 C5 1_555 1_555
H11 C5 1_555 1_555
H12 C6 1_555 1_555
H13 C6 1_555 1_555
H14 C6 1_555 1_555
H15 C10 1_555 1_555
H16 C11 1_555 1_555
H17 C12 1_555 1_555
H18 C13 1_555 1_555
H19 C14 1_555 1_555
H20 C15 1_555 1_555
H21 C15 1_555 1_555
H22 C17 1_555 1_555
H23 C17 1_555 1_555

#END
