
#######################################################################
#
#                 Cambridge Crystallographic Data Centre
#                                CCDC 
#
#######################################################################
#
# If this CIF has been generated from an entry in the Cambridge 
# Structural Database, then it will include bibliographic, chemical, 
# crystal, experimental, refinement or atomic coordinate data resulting 
# from the CCDC's data processing and validation procedures.
#
#######################################################################

data_GIKMEV
_chemical_formula_moiety         'C36 H40 N2 O5 S1'
_chemical_name_systematic        
2,6-di-t-butyl-4-{1-[(4-methylphenyl)sulfonyl]-3-nitro-2-phenyl-1,2,3,4-tetrahydroquinolin-4-yl}phenol
_symmetry_cell_setting           orthorhombic
_symmetry_space_group_name_H-M   'P b c a'
_symmetry_Int_Tables_number      61
_space_group_name_Hall           '-P 2ac 2ab'
loop_
_symmetry_equiv_pos_site_id
_symmetry_equiv_pos_as_xyz
1 x,y,z
2 1/2-x,-y,1/2+z
3 -x,1/2+y,1/2-z
4 1/2+x,1/2-y,-z
5 -x,-y,-z
6 1/2+x,y,1/2-z
7 x,1/2-y,1/2+z
8 1/2-x,1/2+y,z
_cell_length_a                   12.2882(6)
_cell_length_b                   21.3691(10)
_cell_length_c                   24.7359(12)
_cell_angle_alpha                90
_cell_angle_beta                 90
_cell_angle_gamma                90
_cell_volume                     6495.34
_exptl_crystal_colour            colorless
_exptl_crystal_description       block
_cell_formula_units_Z            8
loop_
_atom_site_label
_atom_site_type_symbol
_atom_site_fract_x
_atom_site_fract_y
_atom_site_fract_z
S1 S 0.42385(3) 0.68419(2) 0.64281(2)
O1 O 0.46363(9) 0.74672(5) 0.63490(5)
O2 O 0.31003(9) 0.67151(5) 0.63767(5)
O3 O 0.78132(12) 0.66530(7) 0.64755(7)
O4 O 0.86651(11) 0.62266(7) 0.58015(7)
O5 O 0.89816(11) 0.34453(6) 0.67535(5)
H1 H 0.9315(16) 0.3286(11) 0.6529(6)
N1 N 0.48533(11) 0.64102(6) 0.59656(5)
N2 N 0.78407(12) 0.63365(7) 0.60654(8)
C1 C 0.46743(13) 0.65663(7) 0.70607(6)
C2 C 0.41711(14) 0.60428(8) 0.72850(7)
H2 H 0.356367 0.585487 0.711163
C3 C 0.45715(14) 0.58011(8) 0.77652(7)
H3 H 0.423455 0.544304 0.791949
C4 C 0.54569(14) 0.60721(8) 0.80257(7)
C5 C 0.59445(14) 0.65985(8) 0.77928(7)
H4 H 0.654848 0.678852 0.796744
C6 C 0.55621(14) 0.68477(8) 0.73118(7)
H5 H 0.590009 0.720456 0.715598
C7 C 0.58687(15) 0.58183(9) 0.85553(7)
H6 H 0.578140 0.613623 0.883750
H7 H 0.664026 0.570966 0.852013
H8 H 0.545249 0.544380 0.865300
C8 C 0.59454(13) 0.65874(7) 0.57753(7)
H9 H 0.618765 0.695207 0.599817
C9 C 0.67840(13) 0.60520(8) 0.58668(7)
H10 H 0.692140 0.583731 0.551409
C10 C 0.63876(13) 0.55650(7) 0.62794(7)
H11 H 0.621995 0.578869 0.662459
C11 C 0.53217(13) 0.53191(8) 0.60480(6)
C12 C 0.45493(13) 0.57644(7) 0.59016(6)
C13 C 0.35487(14) 0.55950(8) 0.56882(7)
H12 H 0.303105 0.590494 0.558978
C14 C 0.33173(15) 0.49636(8) 0.56209(7)
H13 H 0.262956 0.483905 0.548232
C15 C 0.40850(15) 0.45140(8) 0.57549(7)
H14 H 0.392434 0.408334 0.570270
C16 C 0.50861(14) 0.46896(8) 0.59648(7)
H15 H 0.561178 0.437957 0.605186
C17 C 0.59103(14) 0.68058(7) 0.51861(7)
C18 C 0.68829(16) 0.69215(8) 0.49117(7)
H16 H 0.755806 0.683608 0.508366
C19 C 0.68717(18) 0.71603(8) 0.43897(8)
H17 H 0.753820 0.723611 0.420648
C20 C 0.58977(19) 0.72879(9) 0.41362(8)
H18 H 0.589218 0.745747 0.378117
C21 C 0.49272(18) 0.71679(9) 0.44013(8)
H19 H 0.425491 0.724908 0.422509
C22 C 0.49323(16) 0.69286(8) 0.49253(7)
H20 H 0.426336 0.684909 0.510515
C23 C 0.71863(13) 0.50441(7) 0.64055(7)
C24 C 0.78323(13) 0.47770(8) 0.60083(7)
H21 H 0.783901 0.496072 0.565863
C25 C 0.84733(13) 0.42489(8) 0.61017(7)
C26 C 0.84298(13) 0.39846(8) 0.66220(7)
C27 C 0.78029(13) 0.42469(8) 0.70426(7)
C28 C 0.71927(13) 0.47778(8) 0.69193(7)
H22 H 0.676574 0.496483 0.719571
C29 C 0.77825(15) 0.39550(9) 0.76131(7)
C30 C 0.89426(16) 0.39164(10) 0.78473(8)
H23 H 0.926541 0.433564 0.785546
H24 H 0.938819 0.364160 0.762018
H25 H 0.891181 0.374743 0.821532
C31 C 0.72612(17) 0.33011(9) 0.75924(8)
H26 H 0.725832 0.311822 0.795570
H27 H 0.768106 0.303248 0.734827
H28 H 0.651194 0.333601 0.746003
C32 C 0.71110(17) 0.43534(10) 0.80063(7)
H29 H 0.740511 0.477954 0.801626
H30 H 0.714689 0.416940 0.836879
H31 H 0.635197 0.436590 0.788526
C33 C 0.91425(13) 0.39615(8) 0.56387(7)
C34 C 0.90523(15) 0.43510(8) 0.51212(7)
H32 H 0.829607 0.435012 0.499532
H33 H 0.952190 0.417039 0.484161
H34 H 0.928100 0.478187 0.519544
C35 C 1.03666(14) 0.39361(9) 0.57795(7)
H35 H 1.076834 0.374853 0.547806
H36 H 1.047182 0.368251 0.610545
H37 H 1.063613 0.436116 0.584433
C36 C 0.86952(16) 0.33094(8) 0.54960(8)
H38 H 0.875900 0.303371 0.581101
H39 H 0.911346 0.313413 0.519454
H40 H 0.792846 0.334511 0.539153
loop_
_geom_bond_atom_site_label_1
_geom_bond_atom_site_label_2
_geom_bond_site_symmetry_1
_geom_bond_site_symmetry_2
S1 O1 1_555 1_555
O2 S1 1_555 1_555
O3 N2 1_555 1_555
O4 N2 1_555 1_555
O5 H1 1_555 1_555
N1 S1 1_555 1_555
N2 C9 1_555 1_555
C1 S1 1_555 1_555
C2 C1 1_555 1_555
H2 C2 1_555 1_555
C3 C2 1_555 1_555
H3 C3 1_555 1_555
C4 C3 1_555 1_555
C5 C4 1_555 1_555
H4 C5 1_555 1_555
C6 C1 1_555 1_555
H5 C6 1_555 1_555
C7 C4 1_555 1_555
H6 C7 1_555 1_555
H7 C7 1_555 1_555
H8 C7 1_555 1_555
C8 N1 1_555 1_555
H9 C8 1_555 1_555
C9 C8 1_555 1_555
H10 C9 1_555 1_555
C10 C9 1_555 1_555
H11 C10 1_555 1_555
C11 C10 1_555 1_555
C12 N1 1_555 1_555
C13 C12 1_555 1_555
H12 C13 1_555 1_555
C14 C13 1_555 1_555
H13 C14 1_555 1_555
C15 C14 1_555 1_555
H14 C15 1_555 1_555
C16 C11 1_555 1_555
H15 C16 1_555 1_555
C17 C8 1_555 1_555
C18 C17 1_555 1_555
H16 C18 1_555 1_555
C19 C18 1_555 1_555
H17 C19 1_555 1_555
C20 C19 1_555 1_555
H18 C20 1_555 1_555
C21 C20 1_555 1_555
H19 C21 1_555 1_555
C22 C17 1_555 1_555
H20 C22 1_555 1_555
C23 C10 1_555 1_555
C24 C23 1_555 1_555
H21 C24 1_555 1_555
C25 C24 1_555 1_555
C26 O5 1_555 1_555
C27 C26 1_555 1_555
C28 C23 1_555 1_555
H22 C28 1_555 1_555
C29 C27 1_555 1_555
C30 C29 1_555 1_555
H23 C30 1_555 1_555
H24 C30 1_555 1_555
H25 C30 1_555 1_555
C31 C29 1_555 1_555
H26 C31 1_555 1_555
H27 C31 1_555 1_555
H28 C31 1_555 1_555
C32 C29 1_555 1_555
H29 C32 1_555 1_555
H30 C32 1_555 1_555
H31 C32 1_555 1_555
C33 C25 1_555 1_555
C34 C33 1_555 1_555
H32 C34 1_555 1_555
H33 C34 1_555 1_555
H34 C34 1_555 1_555
C35 C33 1_555 1_555
H35 C35 1_555 1_555
H36 C35 1_555 1_555
H37 C35 1_555 1_555
C36 C33 1_555 1_555
H38 C36 1_555 1_555
H39 C36 1_555 1_555
H40 C36 1_555 1_555
C5 C6 1_555 1_555
C11 C12 1_555 1_555
C15 C16 1_555 1_555
C21 C22 1_555 1_555
C25 C26 1_555 1_555
C27 C28 1_555 1_555

#END
