
#######################################################################
#
#                 Cambridge Crystallographic Data Centre
#                                CCDC 
#
#######################################################################
#
# If this CIF has been generated from an entry in the Cambridge 
# Structural Database, then it will include bibliographic, chemical, 
# crystal, experimental, refinement or atomic coordinate data resulting 
# from the CCDC's data processing and validation procedures.
#
#######################################################################

data_GIKNAS
_chemical_name_common            
1-(2-cyclopropyl-1-phenylethenyl)-3,3-bis(propan-2-yl)triaz-1-ene
_chemical_formula_moiety         'C17 H25 N3'
_chemical_name_systematic        
(E)-1-((Z)-2-cyclopropyl-1-phenylvinyl)-3,3-diisopropyltriaz-1-ene
_symmetry_cell_setting           monoclinic
_symmetry_space_group_name_H-M   'P 21/n'
_symmetry_Int_Tables_number      14
_space_group_name_Hall           '-P 2yn'
loop_
_symmetry_equiv_pos_site_id
_symmetry_equiv_pos_as_xyz
1 x,y,z
2 1/2-x,1/2+y,1/2-z
3 -x,-y,-z
4 1/2+x,1/2-y,1/2+z
_cell_length_a                   9.3873(2)
_cell_length_b                   17.2149(3)
_cell_length_c                   10.5675(2)
_cell_angle_alpha                90
_cell_angle_beta                 102.782(2)
_cell_angle_gamma                90
_cell_volume                     1665.4
_exptl_crystal_colour            'pale colorless'
_exptl_crystal_description       plate
_cell_formula_units_Z            4
_exptl_crystal_recrystallization_method methanol
loop_
_atom_site_label
_atom_site_type_symbol
_atom_site_fract_x
_atom_site_fract_y
_atom_site_fract_z
N1 N 0.63764(9) 0.21442(5) 0.47212(8)
N2 N 0.49344(8) 0.22048(5) 0.44975(7)
N3 N 0.44359(8) 0.28981(5) 0.44472(8)
C1 C 0.73319(10) 0.28289(6) 0.47797(10)
C2 C 0.74812(12) 0.30540(7) 0.34197(11)
C3 C 0.88059(11) 0.27019(8) 0.57017(12)
C4 C 0.68851(11) 0.13364(6) 0.46620(10)
C5 C 0.65204(18) 0.08621(8) 0.57642(13)
C6 C 0.62542(13) 0.09732(7) 0.33476(11)
C7 C 0.28915(10) 0.29146(5) 0.42516(9)
C8 C 0.20086(10) 0.21860(5) 0.40158(9)
C9 C 0.21664(11) 0.15963(6) 0.49437(10)
C10 C 0.13072(12) 0.09331(6) 0.47064(12)
C11 C 0.03014(12) 0.08424(6) 0.35419(12)
C12 C 0.01319(11) 0.14233(6) 0.26161(11)
C13 C 0.09838(10) 0.20907(6) 0.28555(10)
C14 C 0.22458(10) 0.36096(6) 0.42570(9)
C15 C 0.29947(11) 0.43668(6) 0.44391(11)
C16 C 0.21713(14) 0.50864(6) 0.38807(12)
C17 C 0.25362(14) 0.49679(7) 0.53185(12)
H1 H 0.6823(13) 0.3241(7) 0.5119(12)
H2 H 0.8083(14) 0.3535(8) 0.3445(13)
H3 H 0.7955(15) 0.2628(9) 0.3048(14)
H4 H 0.6516(16) 0.3166(8) 0.2876(14)
H5 H 0.7926(14) 0.1377(7) 0.4765(12)
H6 H 0.9445(16) 0.2333(9) 0.5352(14)
H7 H 0.8680(16) 0.2510(9) 0.6543(16)
H8 H 0.9320(15) 0.3210(8) 0.5801(14)
H9 H 0.7009(19) 0.1114(10) 0.6597(18)
H10 H 0.6917(18) 0.0315(10) 0.5751(16)
H11 H 0.539(2) 0.0853(10) 0.5672(17)
H12 H 0.5168(17) 0.0933(8) 0.3217(15)
H13 H 0.6635(15) 0.0433(9) 0.3342(14)
H14 H 0.6530(16) 0.1283(8) 0.2643(15)
H15 H 0.2869(14) 0.1657(7) 0.5754(13)
H16 H 0.1434(15) 0.0538(9) 0.5380(14)
H17 H -0.0266(15) 0.0370(8) 0.3359(13)
H18 H -0.0559(15) 0.1361(8) 0.1805(14)
H19 H 0.0855(13) 0.2500(8) 0.2201(13)
H20 H 0.1171(14) 0.3628(7) 0.4130(12)
H21 H 0.4033(15) 0.4365(8) 0.4449(13)
H22 H 0.1160(16) 0.4989(9) 0.3435(14)
H23 H 0.2722(16) 0.5487(9) 0.3537(15)
H24 H 0.1714(15) 0.4810(8) 0.5705(13)
H25 H 0.3353(17) 0.5292(9) 0.5851(15)
loop_
_geom_bond_atom_site_label_1
_geom_bond_atom_site_label_2
_geom_bond_site_symmetry_1
_geom_bond_site_symmetry_2
N1 N2 1_555 1_555
N2 N3 1_555 1_555
N3 C7 1_555 1_555
C1 N1 1_555 1_555
C2 C1 1_555 1_555
C3 C1 1_555 1_555
C4 N1 1_555 1_555
C5 C4 1_555 1_555
C6 C4 1_555 1_555
C7 C8 1_555 1_555
C8 C9 1_555 1_555
C9 C10 1_555 1_555
C10 C11 1_555 1_555
C11 C12 1_555 1_555
C12 C13 1_555 1_555
C13 C8 1_555 1_555
C14 C7 1_555 1_555
C15 C14 1_555 1_555
C16 C15 1_555 1_555
C17 C15 1_555 1_555
H1 C1 1_555 1_555
H2 C2 1_555 1_555
H3 C2 1_555 1_555
H4 C2 1_555 1_555
H5 C4 1_555 1_555
H6 C3 1_555 1_555
H7 C3 1_555 1_555
H8 C3 1_555 1_555
H9 C5 1_555 1_555
H10 C5 1_555 1_555
H11 C5 1_555 1_555
H12 C6 1_555 1_555
H13 C6 1_555 1_555
H14 C6 1_555 1_555
H15 C9 1_555 1_555
H16 C10 1_555 1_555
H17 C11 1_555 1_555
H18 C12 1_555 1_555
H19 C13 1_555 1_555
H20 C14 1_555 1_555
H21 C15 1_555 1_555
H22 C16 1_555 1_555
H23 C16 1_555 1_555
H24 C17 1_555 1_555
H25 C17 1_555 1_555
C16 C17 1_555 1_555

#END
