
#######################################################################
#
#                 Cambridge Crystallographic Data Centre
#                                CCDC 
#
#######################################################################
#
# If this CIF has been generated from an entry in the Cambridge 
# Structural Database, then it will include bibliographic, chemical, 
# crystal, experimental, refinement or atomic coordinate data resulting 
# from the CCDC's data processing and validation procedures.
#
#######################################################################

data_GIKSEA
_chemical_formula_moiety         'C25 H26 N2 O2'
_chemical_name_systematic        
'Ethyl 12b-methyl-2-phenyl-1,2,6,7,12,12b-hexahydroindolo[2,3-a]quinolizine-3-carboxylate'
_symmetry_cell_setting           monoclinic
_symmetry_space_group_name_H-M   'P 21/c'
_symmetry_Int_Tables_number      14
_space_group_name_Hall           '-P 2ybc'
loop_
_symmetry_equiv_pos_site_id
_symmetry_equiv_pos_as_xyz
1 x,y,z
2 -x,1/2+y,1/2-z
3 -x,-y,-z
4 x,1/2-y,1/2+z
_cell_length_a                   14.5316(15)
_cell_length_b                   8.4645(8)
_cell_length_c                   19.7409(16)
_cell_angle_alpha                90
_cell_angle_beta                 121.095(6)
_cell_angle_gamma                90
_cell_volume                     2079.28
_cell_formula_units_Z            4
loop_
_atom_site_label
_atom_site_type_symbol
_atom_site_fract_x
_atom_site_fract_y
_atom_site_fract_z
C1 C 0.75395(16) 0.3528(3) 1.00151(12)
C2 C 0.78766(18) 0.2052(3) 1.03517(14)
H1 H 0.7388 0.1255 1.0267
C3 C 0.8971(2) 0.1809(3) 1.08188(16)
H2 H 0.9226 0.0827 1.1052
C4 C 0.9698(2) 0.3001(3) 1.09471(16)
H3 H 1.0429 0.2800 1.1266
C5 C 0.93659(18) 0.4461(3) 1.06172(15)
H4 H 0.9863 0.5250 1.0709
C6 C 0.82593(16) 0.4751(3) 1.01358(13)
C7 C 0.76376(16) 0.6082(2) 0.96864(13)
C8 C 0.65908(15) 0.5642(2) 0.93299(12)
C9 C 0.79766(18) 0.7661(3) 0.95532(16)
H5 H 0.8595 0.7546 0.9494
H6 H 0.8175 0.8344 1.0003
C10 C 0.70558(18) 0.8375(3) 0.88166(16)
H7 H 0.7207 0.9479 0.8783
H8 H 0.6978 0.7837 0.8356
C11 C 0.50515(18) 0.5998(3) 0.79523(13)
H9 H 0.4478 0.6698 0.7609
H10 H 0.4763 0.4971 0.7941
H11 H 0.5555 0.5920 0.7776
C12 C 0.56226(16) 0.6642(2) 0.87972(12)
C13 C 0.48815(15) 0.6734(2) 0.91365(12)
H12 H 0.5323 0.6887 0.9704
H13 H 0.4518 0.5727 0.9048
C14 C 0.40258(15) 0.8049(2) 0.87925(12)
H14 H 0.3783 0.8193 0.9168
C15 C 0.45730(16) 0.9562(2) 0.88019(13)
C16 C 0.55201(16) 0.9529(2) 0.88193(13)
H15 H 0.5829 1.0500 0.8833
C17 C 0.41285(17) 1.1093(3) 0.87798(14)
C18 C 0.25620(19) 1.2431(3) 0.85659(19)
H16 H 0.2635 1.3082 0.8192
H17 H 0.2842 1.3018 0.9056
C19 C 0.1429(2) 1.2055(4) 0.8248(2)
H18 H 0.1151 1.1498 0.7757
H19 H 0.1031 1.3014 0.8161
H20 H 0.1362 1.1404 0.8619
C20 C 0.30281(15) 0.7636(2) 0.80015(13)
C21 C 0.27883(17) 0.8319(3) 0.72958(14)
H21 H 0.3233 0.9109 0.7296
C22 C 0.19035(19) 0.7857(3) 0.65893(15)
H22 H 0.1764 0.8321 0.6118
C23 C 0.1230(2) 0.6715(3) 0.65810(17)
H23 H 0.0642 0.6382 0.6104
C24 C 0.14281(19) 0.6066(3) 0.72780(17)
H24 H 0.0959 0.5320 0.7278
C25 C 0.23192(17) 0.6516(3) 0.79782(14)
H25 H 0.2449 0.6058 0.8448
N1 N 0.65163(13) 0.4105(2) 0.95222(10)
H26 H 0.5929 0.3589 0.9362
N2 N 0.60506(14) 0.8244(2) 0.88183(11)
O1 O 0.45175(12) 1.23870(18) 0.87939(12)
O2 O 0.31577(12) 1.09896(17) 0.87084(11)
loop_
_geom_bond_atom_site_label_1
_geom_bond_atom_site_label_2
_geom_bond_site_symmetry_1
_geom_bond_site_symmetry_2
C1 C2 1_555 1_555
C2 H1 1_555 1_555
C3 C2 1_555 1_555
H2 C3 1_555 1_555
C4 C3 1_555 1_555
H3 C4 1_555 1_555
C5 C4 1_555 1_555
H4 C5 1_555 1_555
C6 C1 1_555 1_555
C7 C6 1_555 1_555
C8 C7 1_555 1_555
C9 C7 1_555 1_555
H5 C9 1_555 1_555
H6 C9 1_555 1_555
C10 C9 1_555 1_555
H7 C10 1_555 1_555
H8 C10 1_555 1_555
C11 H9 1_555 1_555
H10 C11 1_555 1_555
H11 C11 1_555 1_555
C12 C8 1_555 1_555
C13 C12 1_555 1_555
H12 C13 1_555 1_555
H13 C13 1_555 1_555
C14 C13 1_555 1_555
H14 C14 1_555 1_555
C15 C14 1_555 1_555
C16 C15 1_555 1_555
H15 C16 1_555 1_555
C17 C15 1_555 1_555
C18 H16 1_555 1_555
H17 C18 1_555 1_555
C19 C18 1_555 1_555
H18 C19 1_555 1_555
H19 C19 1_555 1_555
H20 C19 1_555 1_555
C20 C14 1_555 1_555
C21 C20 1_555 1_555
H21 C21 1_555 1_555
C22 C21 1_555 1_555
H22 C22 1_555 1_555
C23 C22 1_555 1_555
H23 C23 1_555 1_555
C24 C23 1_555 1_555
H24 C24 1_555 1_555
C25 C20 1_555 1_555
H25 C25 1_555 1_555
N1 C1 1_555 1_555
H26 N1 1_555 1_555
N2 C10 1_555 1_555
O1 C17 1_555 1_555
O2 C17 1_555 1_555
C5 C6 1_555 1_555
C8 N1 1_555 1_555
C11 C12 1_555 1_555
C12 N2 1_555 1_555
C16 N2 1_555 1_555
C18 O2 1_555 1_555
C24 C25 1_555 1_555

#END
