
#######################################################################
#
#                 Cambridge Crystallographic Data Centre
#                                CCDC 
#
#######################################################################
#
# If this CIF has been generated from an entry in the Cambridge 
# Structural Database, then it will include bibliographic, chemical, 
# crystal, experimental, refinement or atomic coordinate data resulting 
# from the CCDC's data processing and validation procedures.
#
#######################################################################

data_GIKSID
_chemical_formula_moiety         'C30 H30 N4 O4'
_chemical_name_systematic        
2,5-bis(5-(4-t-Butylphenyl)-(1,3,4)oxadiazol-2-yl)benzene-1,4-diol
_symmetry_cell_setting           triclinic
_symmetry_space_group_name_H-M   'P -1'
_symmetry_Int_Tables_number      2
_space_group_name_Hall           '-P 1'
loop_
_symmetry_equiv_pos_site_id
_symmetry_equiv_pos_as_xyz
1 x,y,z
2 -x,-y,-z
_cell_length_a                   6.1363(3)
_cell_length_b                   9.8113(7)
_cell_length_c                   10.9340(8)
_cell_angle_alpha                79.933(3)
_cell_angle_beta                 87.319(4)
_cell_angle_gamma                87.682(4)
_cell_volume                     647.089
_exptl_crystal_colour            yellow
_exptl_crystal_description       Plate
_chemical_melting_point          'above 300 deg.C'
_cell_formula_units_Z            1
_exptl_crystal_recrystallization_method ethanol/chloroform
_exptl_crystal_preparation       phosphorescent
loop_
_atom_site_label
_atom_site_type_symbol
_atom_site_fract_x
_atom_site_fract_y
_atom_site_fract_z
O1 O 0.35220(19) 0.90319(12) 0.27063(11)
O2 O 0.3139(2) 1.19791(15) -0.05909(14)
N1 N 0.4843(3) 1.09517(17) 0.16314(15)
N2 N 0.6169(3) 1.05133(17) 0.26458(15)
C1 C 0.8877(3) 0.5642(2) 0.74469(17)
C2 C 1.0353(5) 0.6366(3) 0.8205(3)
C3 C 0.7127(5) 0.4881(4) 0.8308(3)
C4 C 1.0295(5) 0.4589(3) 0.6850(3)
C5 C 0.7866(3) 0.66709(19) 0.63854(16)
C6 C 0.5948(3) 0.6406(2) 0.5874(2)
C7 C 0.5094(3) 0.7281(2) 0.48641(19)
C8 C 0.6154(3) 0.84556(19) 0.43298(16)
C9 C 0.8065(4) 0.8738(2) 0.4823(2)
C10 C 0.8892(4) 0.7864(2) 0.5839(2)
C11 C 0.5344(3) 0.93791(19) 0.32388(17)
C12 C 0.3333(3) 1.00586(18) 0.17014(16)
C13 C 0.1619(3) 1.00329(18) 0.08408(16)
C14 C 0.0018(3) 0.90481(19) 0.10924(17)
C15 C 0.1595(3) 1.10044(18) -0.02722(17)
H1 H 0.402(4) 1.193(3) 0.006(2)
H2 H 0.947(4) 0.702(3) 0.860(3)
H3 H 1.164(5) 0.680(3) 0.764(3)
H4 H 1.094(4) 0.566(3) 0.890(3)
H5 H 0.618(5) 0.430(3) 0.783(3)
H6 H 0.626(5) 0.558(3) 0.867(3)
H7 H 0.785(4) 0.423(3) 0.895(3)
H8 H 1.113(4) 0.399(3) 0.747(2)
H9 H 1.139(5) 0.506(3) 0.628(3)
H10 H 0.933(5) 0.399(3) 0.644(3)
H11 H 0.520(4) 0.556(3) 0.623(2)
H12 H 0.381(4) 0.708(2) 0.453(2)
H13 H 0.887(4) 0.949(3) 0.441(3)
H14 H 1.023(4) 0.808(3) 0.609(2)
H15 H 0.002(3) 0.836(2) 0.187(2)
O1A O -0.35220(19) 1.09681(12) -0.27063(11)
O2A O -0.3139(2) 0.80209(15) 0.05909(14)
N1A N -0.4843(3) 0.90483(17) -0.16314(15)
N2A N -0.6169(3) 0.94867(17) -0.26458(15)
C1A C -0.8877(3) 1.4358(2) -0.74469(17)
C2A C -1.0353(5) 1.3634(3) -0.8205(3)
C3A C -0.7127(5) 1.5119(4) -0.8308(3)
C4A C -1.0295(5) 1.5411(3) -0.6850(3)
C5A C -0.7866(3) 1.33291(19) -0.63854(16)
C6A C -0.5948(3) 1.3594(2) -0.5874(2)
C7A C -0.5094(3) 1.2719(2) -0.48641(19)
C8A C -0.6154(3) 1.15444(19) -0.43298(16)
C9A C -0.8065(4) 1.1262(2) -0.4823(2)
C10A C -0.8892(4) 1.2136(2) -0.5839(2)
C11A C -0.5344(3) 1.06209(19) -0.32388(17)
C12A C -0.3333(3) 0.99414(18) -0.17014(16)
C13A C -0.1619(3) 0.99671(18) -0.08408(16)
C14A C -0.0018(3) 1.09519(19) -0.10924(17)
C15A C -0.1595(3) 0.89956(18) 0.02722(17)
H1A H -0.402(4) 0.807(3) -0.006(2)
H2A H -0.947(4) 1.298(3) -0.860(3)
H3A H -1.164(5) 1.320(3) -0.764(3)
H4A H -1.094(4) 1.434(3) -0.890(3)
H5A H -0.618(5) 1.570(3) -0.783(3)
H6A H -0.626(5) 1.442(3) -0.867(3)
H7A H -0.785(4) 1.577(3) -0.895(3)
H8A H -1.113(4) 1.601(3) -0.747(2)
H9A H -1.139(5) 1.494(3) -0.628(3)
H10A H -0.933(5) 1.601(3) -0.644(3)
H11A H -0.520(4) 1.444(3) -0.623(2)
H12A H -0.381(4) 1.292(2) -0.453(2)
H13A H -0.887(4) 1.051(3) -0.441(3)
H14A H -1.023(4) 1.192(3) -0.609(2)
H15A H -0.002(3) 1.164(2) -0.187(2)
loop_
_geom_bond_atom_site_label_1
_geom_bond_atom_site_label_2
_geom_bond_site_symmetry_1
_geom_bond_site_symmetry_2
O1 C11 1_555 1_555
O2 C15 1_555 1_555
N1 N2 1_555 1_555
N2 C11 1_555 1_555
C1 C2 1_555 1_555
C2 H2 1_555 1_555
C3 C1 1_555 1_555
C4 C1 1_555 1_555
C5 C1 1_555 1_555
C6 C5 1_555 1_555
C7 C6 1_555 1_555
C8 C7 1_555 1_555
C9 C8 1_555 1_555
C10 C5 1_555 1_555
C11 C8 1_555 1_555
C12 O1 1_555 1_555
C13 C12 1_555 1_555
C14 C13 1_555 1_555
C15 C13 1_555 1_555
H1 O2 1_555 1_555
H3 C2 1_555 1_555
H4 C2 1_555 1_555
H5 C3 1_555 1_555
H6 C3 1_555 1_555
H7 C3 1_555 1_555
H8 C4 1_555 1_555
H9 C4 1_555 1_555
H10 C4 1_555 1_555
H11 C6 1_555 1_555
H12 C7 1_555 1_555
H13 C9 1_555 1_555
H14 C10 1_555 1_555
H15 C14 1_555 1_555
O1A C11A 1_555 1_555
O2A C15A 1_555 1_555
N1A N2A 1_555 1_555
N2A C11A 1_555 1_555
C1A C2A 1_555 1_555
C2A H2A 1_555 1_555
C3A C1A 1_555 1_555
C4A C1A 1_555 1_555
C5A C1A 1_555 1_555
C6A C5A 1_555 1_555
C7A C6A 1_555 1_555
C8A C7A 1_555 1_555
C9A C8A 1_555 1_555
C10A C5A 1_555 1_555
C11A C8A 1_555 1_555
C12A O1A 1_555 1_555
C13A C12A 1_555 1_555
C14A C15 1_555 1_555
C15A C14 1_555 1_555
H1A O2A 1_555 1_555
H3A C2A 1_555 1_555
H4A C2A 1_555 1_555
H5A C3A 1_555 1_555
H6A C3A 1_555 1_555
H7A C3A 1_555 1_555
H8A C4A 1_555 1_555
H9A C4A 1_555 1_555
H10A C4A 1_555 1_555
H11A C6A 1_555 1_555
H12A C7A 1_555 1_555
H13A C9A 1_555 1_555
H14A C10A 1_555 1_555
H15A C14A 1_555 1_555
N1 C12 1_555 1_555
C9 C10 1_555 1_555
N1A C12A 1_555 1_555
C9A C10A 1_555 1_555
C13A C14A 1_555 1_555
C13A C15A 1_555 1_555

#END
