
#######################################################################
#
#                 Cambridge Crystallographic Data Centre
#                                CCDC 
#
#######################################################################
#
# If this CIF has been generated from an entry in the Cambridge 
# Structural Database, then it will include bibliographic, chemical, 
# crystal, experimental, refinement or atomic coordinate data resulting 
# from the CCDC's data processing and validation procedures.
#
#######################################################################

data_GIKWOO
_chemical_formula_moiety         'C27 H17 F7 S1'
_chemical_name_systematic        
5-(3-Fluorophenyl)-3-(3,3,4,4,5,5-hexafluoro-2-(2-methyl-1-naphthyl)cyclopent-1-en-1-yl)-2-methylthiophene
_symmetry_cell_setting           monoclinic
_symmetry_space_group_name_H-M   'P 21/c'
_symmetry_Int_Tables_number      14
_space_group_name_Hall           '-P 2ybc'
loop_
_symmetry_equiv_pos_site_id
_symmetry_equiv_pos_as_xyz
1 x,y,z
2 -x,1/2+y,1/2-z
3 -x,-y,-z
4 x,1/2-y,1/2+z
_cell_length_a                   18.472(7)
_cell_length_b                   14.477(5)
_cell_length_c                   8.936(3)
_cell_angle_alpha                90
_cell_angle_beta                 102.821(5)
_cell_angle_gamma                90
_cell_volume                     2330.08
_exptl_crystal_colour            colorless
_exptl_crystal_description       block
_cell_formula_units_Z            4
loop_
_atom_site_label
_atom_site_type_symbol
_atom_site_fract_x
_atom_site_fract_y
_atom_site_fract_z
S1 S 0.17875(6) 0.70979(7) 0.63775(13)
C1 C 0.0571(2) 0.7368(3) 0.3951(5)
C2 C 0.0096(3) 0.7914(3) 0.2904(5)
H1 H 0.0173 0.8549 0.2925
C3 C -0.0496(3) 0.7550(4) 0.1819(6)
H2 H -0.0796 0.7933 0.1105
C4 C 0.0426(3) 0.6430(3) 0.3924(6)
H3 H 0.0730 0.6035 0.4611
C5 C -0.0169(4) 0.6089(4) 0.2875(9)
C6 C -0.0628(3) 0.6621(4) 0.1818(7)
H4 H -0.1021 0.6359 0.1113
F1 F -0.0306(3) 0.5173(3) 0.2909(7)
C7 C 0.1197(2) 0.7772(2) 0.5050(4)
C8 C 0.2327(2) 0.8020(2) 0.7149(4)
C9 C 0.1419(2) 0.8671(2) 0.5222(4)
H5 H 0.1169 0.9147 0.4624
C10 C 0.2063(2) 0.8815(2) 0.6388(4)
C11 C 0.2965(2) 0.7884(3) 0.8480(5)
H6 H 0.3400 0.7723 0.8115
H7 H 0.2852 0.7396 0.9119
H8 H 0.3056 0.8445 0.9065
C12 C 0.2391(2) 0.9740(2) 0.6787(4)
C13 C 0.2973(2) 1.0115(3) 0.6387(5)
C14 C 0.2032(3) 1.0405(3) 0.7672(5)
C15 C 0.3102(3) 1.1087(3) 0.7003(6)
C16 C 0.2520(4) 1.1248(4) 0.7888(9)
C17 C 0.3449(3) 0.9715(3) 0.5394(6)
C18 C 0.3226(3) 0.9781(3) 0.3852(6)
C19 C 0.4123(3) 0.9289(3) 0.6116(8)
C20 C 0.4566(4) 0.8905(4) 0.5140(12)
C21 C 0.4397(3) 0.9229(3) 0.7738(8)
H9 H 0.4123 0.9481 0.8395
C22 C 0.5242(5) 0.8467(5) 0.5821(13)
H10 H 0.5532 0.8197 0.5214
C23 C 0.2524(4) 1.0260(4) 0.3054(6)
H11 H 0.2105 0.9876 0.3092
H12 H 0.2539 1.0374 0.2003
H13 H 0.2479 1.0837 0.3557
C24 C 0.4330(5) 0.8972(5) 0.3539(13)
H14 H 0.4622 0.8722 0.2916
C25 C 0.5047(3) 0.8813(4) 0.8321(11)
H15 H 0.5217 0.8775 0.9380
C26 C 0.5463(5) 0.8445(5) 0.7382(16)
H16 H 0.5914 0.8168 0.7823
C27 C 0.3667(5) 0.9406(4) 0.2876(9)
H17 H 0.3512 0.9451 0.1815
F2 F 0.3062(2) 1.17028(19) 0.5889(4)
F3 F 0.3772(2) 1.1236(2) 0.7830(5)
F4 F 0.2391(3) 1.1947(3) 0.8395(8)
F5 F 0.1948(2) 1.0082(2) 0.9000(4)
F6 F 0.13423(19) 1.0613(2) 0.6947(5)
F7 F 0.3008(4) 1.1097(5) 0.9545(6)
F8? F 0.1965(4) 1.1860(4) 0.6499(11)
loop_
_geom_bond_atom_site_label_1
_geom_bond_atom_site_label_2
_geom_bond_site_symmetry_1
_geom_bond_site_symmetry_2
S1 C7 1_555 1_555
C1 C2 1_555 1_555
C2 H1 1_555 1_555
C3 C2 1_555 1_555
H2 C3 1_555 1_555
C4 C1 1_555 1_555
H3 C4 1_555 1_555
C5 C4 1_555 1_555
C6 C3 1_555 1_555
H4 C6 1_555 1_555
F1 C5 1_555 1_555
C7 C1 1_555 1_555
C8 S1 1_555 1_555
C9 C7 1_555 1_555
H5 C9 1_555 1_555
C10 C8 1_555 1_555
C11 C8 1_555 1_555
H6 C11 1_555 1_555
H7 C11 1_555 1_555
H8 C11 1_555 1_555
C12 C10 1_555 1_555
C13 C12 1_555 1_555
C14 C12 1_555 1_555
C15 C13 1_555 1_555
C16 C14 1_555 1_555
C17 C13 1_555 1_555
C18 C17 1_555 1_555
C19 C17 1_555 1_555
C20 C19 1_555 1_555
C21 C19 1_555 1_555
H9 C21 1_555 1_555
C22 C20 1_555 1_555
H10 C22 1_555 1_555
C23 C18 1_555 1_555
H11 C23 1_555 1_555
H12 C23 1_555 1_555
H13 C23 1_555 1_555
C24 C20 1_555 1_555
H14 C24 1_555 1_555
C25 C21 1_555 1_555
H15 C25 1_555 1_555
C26 C22 1_555 1_555
H16 C26 1_555 1_555
C27 C18 1_555 1_555
H17 C27 1_555 1_555
F2 C15 1_555 1_555
F3 C15 1_555 1_555
F4 C16 1_555 1_555
F5 C14 1_555 1_555
F6 C14 1_555 1_555
F7 C16 1_555 1_555
C5 C6 1_555 1_555
C9 C10 1_555 1_555
C15 C16 1_555 1_555
C24 C27 1_555 1_555
C25 C26 1_555 1_555

#END
