
#######################################################################
#
#                 Cambridge Crystallographic Data Centre
#                                CCDC 
#
#######################################################################
#
# If this CIF has been generated from an entry in the Cambridge 
# Structural Database, then it will include bibliographic, chemical, 
# crystal, experimental, refinement or atomic coordinate data resulting 
# from the CCDC's data processing and validation procedures.
#
#######################################################################

data_GIKWEE
_chemical_formula_moiety         'C28 H20 F6 O1 S1'
_chemical_name_systematic        
3-(3,3,4,4,5,5-Hexafluoro-2-(2-methyl-1-naphthyl)cyclopent-1-en-1-yl)-5-(3-methoxyphenyl)-2-methylthiophene
_symmetry_cell_setting           orthorhombic
_symmetry_space_group_name_H-M   'P b c n'
_symmetry_Int_Tables_number      60
_space_group_name_Hall           '-P 2n 2ab'
loop_
_symmetry_equiv_pos_site_id
_symmetry_equiv_pos_as_xyz
1 x,y,z
2 1/2-x,1/2-y,1/2+z
3 -x,y,1/2-z
4 1/2+x,1/2-y,-z
5 -x,-y,-z
6 1/2+x,1/2+y,1/2-z
7 x,-y,1/2+z
8 1/2-x,1/2+y,z
_cell_length_a                   13.9192(13)
_cell_length_b                   8.4148(8)
_cell_length_c                   41.020(4)
_cell_angle_alpha                90
_cell_angle_beta                 90
_cell_angle_gamma                90
_cell_volume                     4804.56
_exptl_crystal_colour            colorless
_exptl_crystal_description       block
_cell_formula_units_Z            8
loop_
_atom_site_label
_atom_site_type_symbol
_atom_site_fract_x
_atom_site_fract_y
_atom_site_fract_z
S1 S 0.72313(7) 0.35300(15) 0.15735(2)
C1 C 0.8322(3) 0.6182(5) 0.26587(10)
C2 C 0.7827(3) 0.5045(5) 0.21443(9)
C3 C 0.8534(3) 0.5472(5) 0.23602(9)
H1 H 0.9173 0.5283 0.2306
C4 C 0.7384(4) 0.6484(6) 0.27377(12)
H2 H 0.7231 0.6967 0.2935
C5 C 0.6881(3) 0.5347(7) 0.22271(12)
H3 H 0.6386 0.5071 0.2086
C6 C 0.6681(4) 0.6069(7) 0.25242(14)
H4 H 0.6044 0.6275 0.2579
C7 C 0.8954(5) 0.7429(8) 0.31302(14)
H5 H 0.8607 0.8378 0.3076
H6 H 0.9569 0.7709 0.3220
H7 H 0.8597 0.6830 0.3288
C8 C 0.8972(2) 0.3259(4) 0.13975(7)
C9 C 0.8977(2) 0.4041(4) 0.17067(8)
H8 H 0.9537 0.4355 0.1812
C10 C 0.8088(2) 0.4285(4) 0.18329(8)
C11 C 0.8068(2) 0.2902(5) 0.12942(8)
C12 C 0.7750(3) 0.2029(6) 0.09954(9)
H9 H 0.7615 0.2778 0.0825
H10 H 0.7181 0.1429 0.1044
H11 H 0.8251 0.1321 0.0926
C13 C 1.0140(2) 0.3104(4) 0.09172(7)
C14 C 0.9860(2) 0.2829(4) 0.12263(7)
C15 C 1.1152(2) 0.2524(4) 0.08619(8)
C16 C 1.0659(3) 0.2042(5) 0.14113(8)
C17 C 1.1381(3) 0.1537(5) 0.11611(10)
C18 C 0.9261(2) 0.3343(4) 0.03789(7)
C19 C 0.8831(2) 0.4318(4) 0.01356(8)
C20 C 0.9649(2) 0.4077(4) 0.06638(7)
C21 C 0.8893(2) 0.1037(5) 0.00472(8)
H12 H 0.8906 -0.0059 0.0018
C22 C 0.9619(2) 0.5707(4) 0.07020(8)
C23 C 0.9268(2) 0.1687(4) 0.03248(8)
H13 H 0.9534 0.1023 0.0482
C24 C 0.9192(2) 0.6635(4) 0.04555(9)
H14 H 0.9169 0.7733 0.0480
C25 C 0.8458(2) 0.3595(5) -0.01481(8)
H15 H 0.8183 0.4230 -0.0308
C26 C 0.8814(2) 0.5970(4) 0.01835(9)
H16 H 0.8538 0.6619 0.0026
C27 C 0.8490(2) 0.2013(5) -0.01928(8)
H17 H 0.8245 0.1569 -0.0383
C28 C 1.0048(3) 0.6547(4) 0.09918(9)
H18 H 0.9712 0.6234 0.1186
H19 H 0.9990 0.7675 0.0963
H20 H 1.0714 0.6267 0.1011
O1 O 0.9085(3) 0.6518(5) 0.28513(8)
F1 F 1.12889(17) 0.1727(4) 0.05828(6)
F2 F 1.17736(15) 0.3766(3) 0.08424(6)
F3 F 1.22777(17) 0.1525(4) 0.12497(6)
F4 F 1.1126(2) 0.3150(4) 0.16073(6)
F5 F 1.0383(2) 0.0923(5) 0.16061(8)
F6 F 1.1194(2) -0.0014(3) 0.10811(8)
loop_
_geom_bond_atom_site_label_1
_geom_bond_atom_site_label_2
_geom_bond_site_symmetry_1
_geom_bond_site_symmetry_2
S1 C10 1_555 1_555
C1 C3 1_555 1_555
C2 C3 1_555 1_555
C3 H1 1_555 1_555
C4 C1 1_555 1_555
H2 C4 1_555 1_555
C5 C2 1_555 1_555
H3 C5 1_555 1_555
C6 C4 1_555 1_555
H4 C6 1_555 1_555
C7 H5 1_555 1_555
H6 C7 1_555 1_555
H7 C7 1_555 1_555
C8 C9 1_555 1_555
C9 H8 1_555 1_555
C10 C2 1_555 1_555
C11 S1 1_555 1_555
C12 C11 1_555 1_555
H9 C12 1_555 1_555
H10 C12 1_555 1_555
H11 C12 1_555 1_555
C13 C14 1_555 1_555
C14 C8 1_555 1_555
C15 C13 1_555 1_555
C16 C14 1_555 1_555
C17 C15 1_555 1_555
C18 C19 1_555 1_555
C19 C25 1_555 1_555
C20 C13 1_555 1_555
C21 H12 1_555 1_555
C22 C20 1_555 1_555
C23 C18 1_555 1_555
H13 C23 1_555 1_555
C24 C22 1_555 1_555
H14 C24 1_555 1_555
C25 H15 1_555 1_555
C26 C19 1_555 1_555
H16 C26 1_555 1_555
C27 C21 1_555 1_555
H17 C27 1_555 1_555
C28 C22 1_555 1_555
H18 C28 1_555 1_555
H19 C28 1_555 1_555
H20 C28 1_555 1_555
O1 C1 1_555 1_555
F1 C15 1_555 1_555
F2 C15 1_555 1_555
F3 C17 1_555 1_555
F4 C16 1_555 1_555
F5 C16 1_555 1_555
F6 C17 1_555 1_555
C5 C6 1_555 1_555
C7 O1 1_555 1_555
C8 C11 1_555 1_555
C9 C10 1_555 1_555
C16 C17 1_555 1_555
C18 C20 1_555 1_555
C21 C23 1_555 1_555
C24 C26 1_555 1_555
C25 C27 1_555 1_555

#END
