
#######################################################################
#
#                 Cambridge Crystallographic Data Centre
#                                CCDC 
#
#######################################################################
#
# If this CIF has been generated from an entry in the Cambridge 
# Structural Database, then it will include bibliographic, chemical, 
# crystal, experimental, refinement or atomic coordinate data resulting 
# from the CCDC's data processing and validation procedures.
#
#######################################################################

data_GIKWEF
_chemical_formula_moiety         'C17 H19 N1 O3 S1'
_chemical_name_systematic        
{3-methyl-1-[(4-methylphenyl)sulfonyl]aziridin-2-yl}(phenyl)methanol
_symmetry_cell_setting           monoclinic
_symmetry_space_group_name_H-M   'P 21/n'
_symmetry_Int_Tables_number      14
_space_group_name_Hall           '-P 2yn'
loop_
_symmetry_equiv_pos_site_id
_symmetry_equiv_pos_as_xyz
1 x,y,z
2 1/2-x,1/2+y,1/2-z
3 -x,-y,-z
4 1/2+x,1/2-y,1/2+z
_cell_length_a                   12.8749(8)
_cell_length_b                   8.2927(5)
_cell_length_c                   14.8050(9)
_cell_angle_alpha                90
_cell_angle_beta                 91.338(3)
_cell_angle_gamma                90
_cell_volume                     1580.26
_exptl_crystal_colour            colorless
_exptl_crystal_description       block
_cell_formula_units_Z            4
loop_
_atom_site_label
_atom_site_type_symbol
_atom_site_fract_x
_atom_site_fract_y
_atom_site_fract_z
S1 S 0.33989(3) 1.16050(5) 0.67130(3)
O1 O 0.38965(9) 0.99940(14) 0.42307(8)
H1 H 0.4473 1.0062 0.3979
O2 O 0.23339(9) 1.12360(17) 0.68855(8)
O3 O 0.36252(12) 1.29190(16) 0.61187(8)
N1 N 0.39981(10) 0.99964(16) 0.62927(9)
C1 C 0.33465(12) 0.90307(19) 0.56334(10)
H2 H 0.2616 0.9422 0.5550
C2 C 0.35962(13) 0.83587(19) 0.65443(11)
H3 H 0.3006 0.8373 0.6971
C3 C 0.38741(13) 0.85706(19) 0.47693(11)
H4 H 0.4600 0.8204 0.4910
C4 C 0.32734(12) 0.7228(2) 0.42973(10)
C5 C 0.34456(14) 0.5621(2) 0.45352(11)
H5 H 0.3940 0.5369 0.5000
C6 C 0.29041(15) 0.4387(2) 0.41019(12)
H6 H 0.3022 0.3296 0.4272
C7 C 0.21888(16) 0.4758(3) 0.34178(12)
H7 H 0.1822 0.3918 0.3112
C8 C 0.20088(15) 0.6346(3) 0.31794(12)
H8 H 0.1517 0.6593 0.2711
C9 C 0.25422(13) 0.7583(2) 0.36205(11)
H9 H 0.2407 0.8673 0.3459
C10 C 0.43971(14) 0.7095(2) 0.67406(11)
H10 H 0.4970 0.7213 0.6321
H11 H 0.4084 0.6025 0.6667
H12 H 0.4663 0.7219 0.7362
C11 C 0.40589(13) 1.1914(2) 0.77494(11)
C12 C 0.48920(14) 1.2979(2) 0.77904(12)
H13 H 0.5128 1.3487 0.7258
C13 C 0.53736(14) 1.3291(2) 0.86170(13)
H14 H 0.5942 1.4022 0.8649
C14 C 0.50363(14) 1.2545(2) 0.94077(11)
C15 C 0.41999(14) 1.1488(2) 0.93491(12)
H15 H 0.3963 1.0982 0.9882
C16 C 0.37042(13) 1.1158(2) 0.85262(11)
H16 H 0.3135 1.0430 0.8493
C17 C 0.55853(17) 1.2877(3) 1.02985(13)
H17 H 0.5162 1.2476 1.0792
H18 H 0.5691 1.4041 1.0369
H19 H 0.6260 1.2330 1.0314
loop_
_geom_bond_atom_site_label_1
_geom_bond_atom_site_label_2
_geom_bond_site_symmetry_1
_geom_bond_site_symmetry_2
S1 O2 1_555 1_555
O1 H1 1_555 1_555
O3 S1 1_555 1_555
N1 S1 1_555 1_555
C1 N1 1_555 1_555
H2 C1 1_555 1_555
C2 N1 1_555 1_555
H3 C2 1_555 1_555
C3 O1 1_555 1_555
H4 C3 1_555 1_555
C4 C3 1_555 1_555
C5 C4 1_555 1_555
H5 C5 1_555 1_555
C6 C5 1_555 1_555
H6 C6 1_555 1_555
C7 C6 1_555 1_555
H7 C7 1_555 1_555
C8 C7 1_555 1_555
H8 C8 1_555 1_555
C9 C4 1_555 1_555
H9 C9 1_555 1_555
C10 C2 1_555 1_555
H10 C10 1_555 1_555
H11 C10 1_555 1_555
H12 C10 1_555 1_555
C11 S1 1_555 1_555
C12 C11 1_555 1_555
H13 C12 1_555 1_555
C13 C12 1_555 1_555
H14 C13 1_555 1_555
C14 C13 1_555 1_555
C15 C14 1_555 1_555
H15 C15 1_555 1_555
C16 C11 1_555 1_555
H16 C16 1_555 1_555
C17 C14 1_555 1_555
H17 C17 1_555 1_555
H18 C17 1_555 1_555
H19 C17 1_555 1_555
C1 C2 1_555 1_555
C1 C3 1_555 1_555
C8 C9 1_555 1_555
C15 C16 1_555 1_555

#END
