
#######################################################################
#
#                 Cambridge Crystallographic Data Centre
#                                CCDC 
#
#######################################################################
#
# If this CIF has been generated from an entry in the Cambridge 
# Structural Database, then it will include bibliographic, chemical, 
# crystal, experimental, refinement or atomic coordinate data resulting 
# from the CCDC's data processing and validation procedures.
#
#######################################################################

data_GIKZIL
_chemical_formula_moiety         'C14 H11 F2 N1'
_chemical_name_systematic        1-(2,6-Difluorophenyl)-2-phenylaziridine
_symmetry_cell_setting           orthorhombic
_symmetry_space_group_name_H-M   'P 21 21 21'
_symmetry_Int_Tables_number      19
_space_group_name_Hall           'P 2ac 2ab'
loop_
_symmetry_equiv_pos_site_id
_symmetry_equiv_pos_as_xyz
1 x,y,z
2 1/2+x,1/2-y,-z
3 -x,1/2+y,1/2-z
4 1/2-x,-y,1/2+z
_cell_length_a                   5.7040(5)
_cell_length_b                   10.7320(8)
_cell_length_c                   18.5531(15)
_cell_angle_alpha                90
_cell_angle_beta                 90
_cell_angle_gamma                90
_cell_volume                     1135.73
_exptl_crystal_colour            colorless
_exptl_crystal_description       block
_cell_formula_units_Z            4
loop_
_atom_site_label
_atom_site_type_symbol
_atom_site_fract_x
_atom_site_fract_y
_atom_site_fract_z
F1 F -0.1186(3) 0.28843(14) 0.71831(8)
F2 F 0.5878(3) 0.30087(13) 0.58868(8)
N1 N 0.2340(4) 0.15695(17) 0.65235(10)
C1 C 0.7503(4) -0.2179(2) 0.59059(14)
H1 H 0.8557 -0.2852 0.5919
C2 C 0.7208(5) -0.1508(2) 0.52843(14)
H2 H 0.8058 -0.1726 0.4869
C3 C 0.5661(5) -0.0510(2) 0.52630(13)
H3 H 0.5468 -0.0058 0.4833
C4 C 0.4401(4) -0.0174(2) 0.58717(12)
C5 C 0.2781(4) 0.0903(2) 0.58423(13)
H4 H 0.2953 0.1442 0.5413
C6 C 0.2311(4) 0.2883(2) 0.65166(11)
C7 C 0.0576(4) 0.3550(2) 0.68745(13)
C8 C 0.0589(5) 0.4822(2) 0.69446(13)
H5 H -0.0644 0.5234 0.7181
C9 C 0.2435(5) 0.5482(2) 0.66629(14)
H6 H 0.2482 0.6353 0.6715
C10 C 0.4697(4) -0.0863(2) 0.65000(13)
H7 H 0.3848 -0.0651 0.6917
C11 C 0.6238(5) -0.1858(2) 0.65144(13)
H8 H 0.6427 -0.2321 0.6941
C12 C 0.0411(4) 0.0904(2) 0.61747(15)
H9 H -0.0814 0.1401 0.5941
H10 H -0.0137 0.0130 0.6399
C13 C 0.4222(5) 0.4877(2) 0.63036(15)
H11 H 0.5485 0.5326 0.6107
C14 C 0.4111(4) 0.3604(2) 0.62399(13)
loop_
_geom_bond_atom_site_label_1
_geom_bond_atom_site_label_2
_geom_bond_site_symmetry_1
_geom_bond_site_symmetry_2
F1 C7 1_555 1_555
F2 C14 1_555 1_555
N1 C5 1_555 1_555
C1 H1 1_555 1_555
C2 C1 1_555 1_555
H2 C2 1_555 1_555
C3 C2 1_555 1_555
H3 C3 1_555 1_555
C4 C3 1_555 1_555
C5 C4 1_555 1_555
H4 C5 1_555 1_555
C6 N1 1_555 1_555
C7 C6 1_555 1_555
C8 C7 1_555 1_555
H5 C8 1_555 1_555
C9 C8 1_555 1_555
H6 C9 1_555 1_555
C10 C4 1_555 1_555
H7 C10 1_555 1_555
C11 C1 1_555 1_555
H8 C11 1_555 1_555
C12 N1 1_555 1_555
H9 C12 1_555 1_555
H10 C12 1_555 1_555
C13 C9 1_555 1_555
H11 C13 1_555 1_555
C14 C6 1_555 1_555
C5 C12 1_555 1_555
C10 C11 1_555 1_555
C13 C14 1_555 1_555

#END
