
#######################################################################
#
#                 Cambridge Crystallographic Data Centre
#                                CCDC 
#
#######################################################################
#
# If this CIF has been generated from an entry in the Cambridge 
# Structural Database, then it will include bibliographic, chemical, 
# crystal, experimental, refinement or atomic coordinate data resulting 
# from the CCDC's data processing and validation procedures.
#
#######################################################################

data_GIKZEH
_chemical_formula_moiety         'C116 H106 N8 O4,1.5(C5 H12)'
_chemical_name_systematic        
"N,N',N'',N'''-((10,20-Bis(3,5-di-t-butylphenyl)porphyrin-5,15-diyl)dibenzene-2,1,3-triyl)tetrakis(2-(2-naphthyl)cyclopropanecarboxamide) pentane solvate"
_symmetry_cell_setting           hexagonal
_symmetry_space_group_name_H-M   'P 65'
_symmetry_Int_Tables_number      170
_space_group_name_Hall           'P 65'
loop_
_symmetry_equiv_pos_site_id
_symmetry_equiv_pos_as_xyz
1 x,y,z
2 x-y,x,5/6+z
3 -y,x-y,2/3+z
4 -x,-y,1/2+z
5 -x+y,-x,1/3+z
6 y,-x+y,1/6+z
_cell_length_a                   14.834(3)
_cell_length_b                   14.834(3)
_cell_length_c                   83.894(15)
_cell_angle_alpha                90
_cell_angle_beta                 90
_cell_angle_gamma                120
_cell_volume                     15987.4
_exptl_crystal_colour            red
_exptl_crystal_description       block
_cell_formula_units_Z            6
loop_
_atom_site_label
_atom_site_type_symbol
_atom_site_fract_x
_atom_site_fract_y
_atom_site_fract_z
C1 C 0.6638(3) -0.0257(3) 0.54605(6)
C2 C 0.7667(4) 0.0039(4) 0.55000(6)
C3 C 0.8003(3) -0.0245(4) 0.56422(6)
H1 H 0.7563 -0.0682 0.5725
C4 C 0.9057(4) 0.0217(4) 0.56384(6)
H2 H 0.9489 0.0167 0.5717
C5 C 0.9391(3) 0.0794(4) 0.54922(6)
C6 C 1.0421(3) 0.1394(4) 0.54447(6)
C7 C 1.0757(3) 0.1994(4) 0.53043(6)
C8 C 1.1807(3) 0.2633(4) 0.52533(6)
H3 H 1.2411 0.2756 0.5311
C9 C 1.1794(3) 0.3033(4) 0.51097(6)
H4 H 1.2381 0.3494 0.5048
C10 C 1.0701(3) 0.2619(3) 0.50681(6)
C11 C 1.0363(3) 0.2824(3) 0.49246(6)
C12 C 0.9308(3) 0.2433(3) 0.48819(5)
C13 C 0.9000(4) 0.2673(4) 0.47327(6)
H5 H 0.9446 0.3077 0.4648
C14 C 0.7939(3) 0.2207(4) 0.47362(6)
H6 H 0.7507 0.2214 0.4653
C15 C 0.7603(3) 0.1713(4) 0.48857(6)
C16 C 0.6559(3) 0.1184(3) 0.49432(6)
C17 C 0.6256(3) 0.0667(4) 0.50878(6)
C18 C 0.5219(3) 0.0154(4) 0.51528(6)
H7 H 0.4624 0.0116 0.5103
C19 C 0.5230(3) -0.0255(4) 0.52926(7)
H8 H 0.4646 -0.0649 0.5360
C20 C 0.6295(3) 0.0008(3) 0.53246(6)
C21 C 0.5756(3) 0.1223(4) 0.48424(6)
C22 C 0.4950(4) 0.0315(4) 0.47737(7)
H9 H 0.4933 -0.0327 0.4790
C23 C 0.4179(4) 0.0325(4) 0.46824(8)
C24 C 0.4212(4) 0.1257(5) 0.46646(8)
H10 H 0.3674 0.1270 0.4605
C25 C 0.4992(4) 0.2188(4) 0.47289(8)
C26 C 0.5754(3) 0.2138(4) 0.48226(6)
H11 H 0.6278 0.2751 0.4873
C27 C 0.4949(5) 0.3201(5) 0.47112(9)
C28 C 0.4673(7) 0.3295(7) 0.45405(10)
H12 H 0.5203 0.3315 0.4469
H13 H 0.4642 0.3937 0.4528
H14 H 0.3993 0.2695 0.4514
C29 C 0.4049(9) 0.3136(8) 0.48132(10)
H15 H 0.3389 0.2538 0.4779
H16 H 0.4018 0.3776 0.4800
H17 H 0.4170 0.3052 0.4926
C30 C 0.5963(9) 0.4147(6) 0.4766(2)
H18 H 0.6062 0.4082 0.4880
H19 H 0.5929 0.4782 0.4748
H20 H 0.6547 0.4183 0.4707
C31 C 0.3295(4) -0.0638(6) 0.46077(10)
C32 C 0.3369(7) -0.1557(6) 0.46262(18)
H21 H 0.3996 -0.1462 0.4572
H22 H 0.2754 -0.2151 0.4579
H23 H 0.3407 -0.1687 0.4740
C33 C 0.3388(8) -0.0512(8) 0.44167(11)
H24 H 0.3318 0.0087 0.4385
H25 H 0.2835 -0.1144 0.4367
H26 H 0.4067 -0.0400 0.4382
C34 C 0.2297(5) -0.0694(6) 0.46257(14)
H27 H 0.2153 -0.0671 0.4739
H28 H 0.1750 -0.1346 0.4579
H29 H 0.2313 -0.0104 0.4571
C35 C 1.1269(3) 0.1448(4) 0.55508(6)
C36 C 1.1405(4) 0.0583(5) 0.55624(7)
H30 H 1.0959 -0.0037 0.5506
C37 C 1.2203(4) 0.0639(5) 0.56583(7)
C38 C 1.2787(4) 0.1526(4) 0.57457(6)
H31 H 1.3312 0.1555 0.5814
C39 C 1.2647(3) 0.2386(4) 0.57397(6)
C40 C 1.1875(3) 0.2328(4) 0.56397(6)
H32 H 1.1762 0.2904 0.5633
C41 C 1.2356(5) -0.0322(6) 0.56694(9)
C42 C 1.3263(8) -0.0121(7) 0.57727(11)
H33 H 1.3899 0.0472 0.5730
H34 H 1.3340 -0.0740 0.5774
H35 H 1.3142 0.0036 0.5881
C43 C 1.1412(7) -0.1199(7) 0.57607(10)
H36 H 1.1376 -0.0953 0.5868
H37 H 1.1497 -0.1811 0.5769
H38 H 1.0769 -0.1386 0.5703
C44 C 1.2390(6) -0.0690(5) 0.55054(8)
H39 H 1.1724 -0.0912 0.5452
H40 H 1.2515 -0.1278 0.5512
H41 H 1.2953 -0.0122 0.5445
C45 C 1.3292(4) 0.3372(4) 0.58388(6)
C46 C 1.4170(5) 0.3337(5) 0.59293(12)
H42 H 1.3872 0.2746 0.6003
H43 H 1.4572 0.3985 0.5989
H44 H 1.4628 0.3259 0.5853
C47 C 1.3773(7) 0.4326(5) 0.57365(10)
H45 H 1.4249 0.4284 0.5660
H46 H 1.4159 0.4943 0.5804
H47 H 1.3224 0.4376 0.5679
C48 C 1.2562(6) 0.3438(7) 0.59601(9)
H48 H 1.2007 0.3485 0.5904
H49 H 1.2955 0.4057 0.6027
H50 H 1.2256 0.2815 0.6027
C49 C 0.5838(3) -0.0912(4) 0.55872(6)
C50 C 0.5691(3) -0.0454(4) 0.57210(6)
C51 C 0.4980(4) -0.1068(5) 0.58402(7)
H51 H 0.4872 -0.0761 0.5932
C52 C 0.4446(4) -0.2130(5) 0.58181(8)
H52 H 0.3975 -0.2552 0.5899
C53 C 0.4555(4) -0.2607(4) 0.56876(8)
H53 H 0.4153 -0.3342 0.5676
C54 C 0.5272(3) -0.1997(4) 0.55692(6)
C55 C 1.1177(3) 0.3538(3) 0.48119(5)
C56 C 1.1516(3) 0.3157(3) 0.46828(6)
C57 C 1.2306(3) 0.3843(4) 0.45786(6)
H54 H 1.2561 0.3586 0.4497
C58 C 1.2703(4) 0.4906(4) 0.45984(7)
H55 H 1.3201 0.5374 0.4524
C59 C 1.2400(4) 0.5295(4) 0.47210(7)
H56 H 1.2698 0.6026 0.4733
C60 C 1.1651(3) 0.4619(4) 0.48297(6)
C61 C 1.1016(4) 0.1510(4) 0.45354(6)
C62 C 1.0321(4) 0.0387(4) 0.45509(6)
H57 H 1.0187 0.0099 0.4662
C63 C 1.0264(4) -0.0340(4) 0.44183(7)
H58 H 1.0745 -0.0031 0.4327
H59 H 1.0114 -0.1047 0.4449
C64 C 0.9399(4) -0.0090(4) 0.44362(7)
H60 H 0.9386 0.0395 0.4355
C65 C 0.8363(4) -0.0884(4) 0.45006(7)
C66 C 0.7787(4) -0.1873(4) 0.44309(8)
H61 H 0.8070 -0.2030 0.4341
C67 C 0.6834(5) -0.2624(6) 0.44866(9)
H62 H 0.6471 -0.3287 0.4437
C68 C 0.6402(4) -0.2391(5) 0.46206(8)
C69 C 0.6963(4) -0.1388(4) 0.46874(7)
C70 C 0.7942(4) -0.0662(4) 0.46289(7)
H63 H 0.8322 -0.0003 0.4679
C71 C 0.6498(4) -0.1178(4) 0.48233(9)
H64 H 0.6865 -0.0515 0.4873
C72 C 0.5572(5) -0.1882(5) 0.48820(9)
H65 H 0.5287 -0.1702 0.4970
C73 C 0.5011(5) -0.2891(6) 0.48155(10)
H66 H 0.4366 -0.3395 0.4860
C74 C 0.5405(5) -0.3133(6) 0.46861(10)
H67 H 0.5016 -0.3801 0.4639
C75 C 1.2013(5) 0.5762(5) 0.50609(9)
C76 C 1.1576(5) 0.5841(5) 0.52194(9)
H68 H 1.0819 0.5326 0.5234
C77 C 0.6263(3) 0.1289(4) 0.58453(7)
C78 C 0.7126(4) 0.2366(4) 0.58330(7)
H69 H 0.7676 0.2506 0.5752
C79 C 0.7479(4) 0.2985(5) 0.59860(8)
H70 H 0.7109 0.2636 0.6085
H71 H 0.8234 0.3476 0.5999
C80 C 0.6911(4) 0.3252(4) 0.58677(7)
H72 H 0.6175 0.3027 0.5897
C81 C 0.7462(4) 0.4245(4) 0.57768(8)
C82 C 0.8506(5) 0.4605(5) 0.57268(11)
H73 H 0.8809 0.4182 0.5745
C83 C 0.9077(6) 0.5540(6) 0.56531(13)
H74 H 0.9788 0.5796 0.5628
C84 C 0.7543(6) 0.5775(6) 0.56603(13)
C85 C 0.7016(5) 0.4796(5) 0.57421(10)
H75 H 0.6312 0.4534 0.5773
C86 C 0.7085(6) 0.6353(6) 0.56241(13)
H76 H 0.6381 0.6107 0.5653
C87 C 0.7650(8) 0.7305(8) 0.5545(2)
H77 H 0.7341 0.7719 0.5523
C88 C 0.8646(8) 0.7632(8) 0.54984(19)
H78 H 0.9003 0.8255 0.5438
C89 C 0.9140(7) 0.7123(7) 0.5533(2)
H79 H 0.9852 0.7413 0.5505
C90 C 0.8599(5) 0.6116(6) 0.56155(17)
C91 C 0.5020(4) -0.3409(4) 0.53839(7)
C92 C 0.4797(6) -0.4586(4) 0.51463(8)
H80 H 0.4708 -0.4608 0.5029
H81 H 0.4188 -0.5125 0.5206
N1 N 1.0103(3) 0.2012(3) 0.51893(4)
H82 H 0.9419 0.1687 0.5194
N2 N 0.8461(2) 0.1846(3) 0.49719(4)
N3 N 0.6887(3) 0.0551(3) 0.51976(5)
H83 H 0.7559 0.0790 0.5187
N4 N 0.8538(3) 0.0684(3) 0.54109(5)
N5 N 1.1353(3) 0.4992(3) 0.49621(6)
H84 H 1.0683 0.4700 0.4982
N6 N 1.1040(3) 0.2066(3) 0.46685(5)
H85 H 1.0725 0.1700 0.4754
N7 N 0.5437(3) -0.2429(4) 0.54297(6)
H86 H 0.5890 -0.1972 0.5362
N8 N 0.6297(3) 0.0632(3) 0.57341(5)
H87 H 0.6771 0.0937 0.5659
O1 O 1.2939(4) 0.6290(5) 0.50315(7)
O2 O 1.1489(4) 0.1930(3) 0.44139(5)
O3 O 0.5600(3) 0.1000(3) 0.59498(5)
C93 C 1.1909(15) 0.6928(8) 0.52818(17)
H88 H 1.1369 0.7053 0.5329
H89 H 1.2477 0.7531 0.5225
C94 C 1.1719(4) 0.6008(4) 0.58111(7)
H90 H 1.1925 0.6470 0.5899
C95 C 1.2068(4) 0.6394(4) 0.56588(7)
H91 H 1.2513 0.7120 0.5643
C96 C 1.1767(5) 0.5717(5) 0.55297(6)
C97 C 1.1116(5) 0.4655(5) 0.55529(6)
H92 H 1.0910 0.4192 0.5465
C98 C 1.0766(3) 0.4269(3) 0.57052(6)
C99 C 1.1068(3) 0.4945(4) 0.58343(5)
C100 C 1.0718(5) 0.4560(5) 0.59866(6)
H93 H 1.0924 0.5022 0.6075
C101 C 1.0067(5) 0.3497(6) 0.60098(8)
H94 H 0.9828 0.3234 0.6114
C102 C 0.9766(4) 0.2821(4) 0.58807(11)
H95 H 0.9321 0.2095 0.5897
C103 C 1.0115(4) 0.3206(3) 0.57284(9)
H96 H 0.9909 0.2744 0.5640
C104 C 1.2168(12) 0.6176(13) 0.53667(12)
H97 H 1.2911 0.6366 0.5351
O4 O 0.4571(5) -0.4155(4) 0.54702(8)
C105 C 0.5432(6) -0.3529(6) 0.52239(11)
H98 H 0.5735 -0.2910 0.5152
C106 C 0.5893(7) -0.4264(7) 0.52116(13)
H99 H 0.5901 -0.4609 0.5314
C107 C 0.7768(6) -0.3862(6) 0.51653(9)
H100 H 0.7740 -0.4157 0.5267
C108 C 0.6889(5) -0.3881(6) 0.51037(10)
C109 C 0.6930(6) -0.3450(7) 0.49549(10)
H101 H 0.6329 -0.3463 0.4913
C110 C 0.7850(7) -0.3002(7) 0.48676(8)
H102 H 0.7878 -0.2707 0.4766
C111 C 0.8729(6) -0.2983(5) 0.49292(8)
C112 C 0.8688(5) -0.3414(5) 0.50781(8)
C113 C 0.9567(6) -0.3396(8) 0.51397(11)
H103 H 0.9539 -0.3690 0.5241
C114 C 1.0486(5) -0.2947(8) 0.50524(14)
H104 H 1.1087 -0.2935 0.5094
C115 C 1.0527(6) -0.2517(8) 0.49035(13)
H105 H 1.1156 -0.2210 0.4844
C116 C 0.9648(7) -0.2535(7) 0.48419(10)
H106 H 0.9676 -0.2241 0.4740
C141 C 0.5092(8) -0.7491(9) 0.54202(15)
H131 H 0.4858 -0.8237 0.5437
H132 H 0.5307 -0.7138 0.5525
C142 C 0.4212(11) -0.7391(12) 0.53583(19)
H133 H 0.4224 -0.7392 0.5241
H134 H 0.4274 -0.6737 0.5396
H135 H 0.3555 -0.7978 0.5396
C143 C 0.6038(9) -0.7014(10) 0.53062(16)
H136 H 0.5826 -0.7382 0.5203
H137 H 0.6254 -0.6275 0.5287
C144 C 0.6949(8) -0.7076(8) 0.53691(14)
H138 H 0.6723 -0.7819 0.5388
H139 H 0.7141 -0.6724 0.5474
C145 C 0.7935(14) -0.6606(16) 0.5264(2)
H140 H 0.7734 -0.6704 0.5152
H141 H 0.8334 -0.6953 0.5288
H142 H 0.8362 -0.5860 0.5287
H107? H 1.0815 0.5595 0.5229
H108? H 0.5181 -0.4624 0.5052
H109? H 0.4139 -0.4600 0.5120
H110? H 0.8453 0.1594 0.5067
H111? H 0.8545 0.0971 0.5319
C117? C 1.2146(15) 0.5678(17) 0.53579(19)
H112? H 1.2704 0.5509 0.5332
C118? C 1.1685(7) 0.5644(7) 0.56441(10)
H113? H 1.2144 0.6375 0.5649
C119? C 1.1449(8) 0.5139(10) 0.54976(9)
C120? C 1.0777(9) 0.4070(10) 0.54900(11)
H114? H 1.0616 0.3724 0.5390
C121? C 1.0339(8) 0.3506(7) 0.56287(12)
H115? H 0.9880 0.2776 0.5623
C122? C 1.0575(6) 0.4012(5) 0.57752(11)
C123? C 1.1247(5) 0.5081(5) 0.57828(9)
C124? C 1.1483(7) 0.5587(6) 0.59293(10)
H116? H 1.1943 0.6317 0.5935
C125? C 1.1046(8) 0.5024(8) 0.60681(9)
H117? H 1.1207 0.5369 0.6168
C126? C 1.0373(9) 0.3955(8) 0.60604(11)
H118? H 1.0074 0.3570 0.6155
C127? C 1.0138(8) 0.3449(6) 0.59140(13)
H119? H 0.9678 0.2718 0.5909
C128? C 1.2354(18) 0.6731(16) 0.5326(3)
H120? H 1.3039 0.7230 0.5279
H121? H 1.2074 0.7039 0.5402
O5? O 0.4023(9) -0.4007(9) 0.54433(16)
C129? C 0.4821(14) -0.5127(12) 0.52936(19)
H122? H 0.4170 -0.5424 0.5359
C130? C 0.6266(11) -0.5400(11) 0.52047(19)
H123? H 0.6460 -0.4834 0.5133
C131? C 0.5349(11) -0.5790(12) 0.5292(2)
C132? C 0.5065(10) -0.6618(12) 0.53960(19)
H124? H 0.4439 -0.6884 0.5456
C133? C 0.5698(11) -0.7055(11) 0.54131(18)
H125? H 0.5504 -0.7621 0.5484
C134? C 0.6615(9) -0.6665(9) 0.53260(14)
C135? C 0.6899(8) -0.5837(8) 0.52218(13)
C136? C 0.7816(10) -0.5447(11) 0.51346(17)
H126? H 0.8010 -0.4881 0.5063
C137? C 0.8449(10) -0.5884(13) 0.5152(2)
H127? H 0.9076 -0.5617 0.5092
C138? C 0.8165(12) -0.6712(14) 0.5256(2)
H128? H 0.8598 -0.7010 0.5268
C139? C 0.7248(12) -0.7102(13) 0.5343(2)
H129? H 0.7054 -0.7667 0.5414
C140? C 0.5416(15) -0.3925(13) 0.5281(2)
H130? H 0.6189 -0.3579 0.5270
C146? C 0.8931(14) -0.0732(13) 0.5130(2)
H143? H 0.9061 -0.1051 0.5223
H144? H 0.8411 -0.1278 0.5061
H145? H 0.8671 -0.0274 0.5166
C147? C 0.9934(16) -0.0102(16) 0.5038(3)
O6? O 1.0716(12) -0.0041(10) 0.50798(17)
C148? C 1.1737(16) 0.0508(19) 0.5002(3)
H146? H 1.1837 0.1196 0.4971
H147? H 1.1655 0.0129 0.4901
C149? C 1.2765(17) 0.072(2) 0.5069(3)
H148? H 1.3321 0.1135 0.4993
H149? H 1.2746 0.0062 0.5089
H150? H 1.2899 0.1109 0.5169
O7? O 0.9769(7) 0.0349(7) 0.49121(13)
C150? C 0.8284(15) -0.0986(14) 0.5125(2)
H151? H 0.7665 -0.1046 0.5073
H152? H 0.8430 -0.0573 0.5223
H153? H 0.8160 -0.1682 0.5152
C151? C 0.9197(17) -0.0462(19) 0.5015(3)
H154? H 0.9057 -0.0867 0.4915
H155? H 0.9337 0.0246 0.4988
C152? C 1.1182(16) 0.0235(15) 0.5011(3)
H156? H 1.1145 -0.0079 0.4905
H157? H 1.1336 0.0959 0.4994
C153? C 1.2024(11) 0.0238(12) 0.51070(19)
H158? H 1.2686 0.0618 0.5049
H159? H 1.1862 -0.0481 0.5125
H160? H 1.2081 0.0577 0.5210
C154? C 1.0103(11) -0.0407(11) 0.50993(18)
H161? H 0.9967 -0.1125 0.5116
H162? H 1.0160 -0.0092 0.5206
loop_
_geom_bond_atom_site_label_1
_geom_bond_atom_site_label_2
_geom_bond_site_symmetry_1
_geom_bond_site_symmetry_2
C1 C2 1_555 1_555
C2 C3 1_555 1_555
C3 H1 1_555 1_555
C4 C3 1_555 1_555
H2 C4 1_555 1_555
C5 C4 1_555 1_555
C6 C5 1_555 1_555
C7 C6 1_555 1_555
C8 C7 1_555 1_555
H3 C8 1_555 1_555
C9 C8 1_555 1_555
H4 C9 1_555 1_555
C10 C9 1_555 1_555
C11 C10 1_555 1_555
C12 C11 1_555 1_555
C13 C12 1_555 1_555
H5 C13 1_555 1_555
C14 C13 1_555 1_555
H6 C14 1_555 1_555
C15 C14 1_555 1_555
C16 C15 1_555 1_555
C17 C16 1_555 1_555
C18 C17 1_555 1_555
H7 C18 1_555 1_555
C19 C18 1_555 1_555
H8 C19 1_555 1_555
C20 C1 1_555 1_555
C21 C16 1_555 1_555
C22 C21 1_555 1_555
H9 C22 1_555 1_555
C23 C22 1_555 1_555
C24 C23 1_555 1_555
H10 C24 1_555 1_555
C25 C24 1_555 1_555
C26 C21 1_555 1_555
H11 C26 1_555 1_555
C27 C25 1_555 1_555
C28 C27 1_555 1_555
H12 C28 1_555 1_555
H13 C28 1_555 1_555
H14 C28 1_555 1_555
C29 C27 1_555 1_555
H15 C29 1_555 1_555
H16 C29 1_555 1_555
H17 C29 1_555 1_555
C30 C27 1_555 1_555
H18 C30 1_555 1_555
H19 C30 1_555 1_555
H20 C30 1_555 1_555
C31 C23 1_555 1_555
C32 C31 1_555 1_555
H21 C32 1_555 1_555
H22 C32 1_555 1_555
H23 C32 1_555 1_555
C33 C31 1_555 1_555
H24 C33 1_555 1_555
H25 C33 1_555 1_555
H26 C33 1_555 1_555
C34 C31 1_555 1_555
H27 C34 1_555 1_555
H28 C34 1_555 1_555
H29 C34 1_555 1_555
C35 C6 1_555 1_555
C36 C35 1_555 1_555
H30 C36 1_555 1_555
C37 C36 1_555 1_555
C38 C37 1_555 1_555
H31 C38 1_555 1_555
C39 C38 1_555 1_555
C40 C35 1_555 1_555
H32 C40 1_555 1_555
C41 C37 1_555 1_555
C42 C41 1_555 1_555
H33 C42 1_555 1_555
H34 C42 1_555 1_555
H35 C42 1_555 1_555
C43 C41 1_555 1_555
H36 C43 1_555 1_555
H37 C43 1_555 1_555
H38 C43 1_555 1_555
C44 C41 1_555 1_555
H39 C44 1_555 1_555
H40 C44 1_555 1_555
H41 C44 1_555 1_555
C45 C39 1_555 1_555
C46 C45 1_555 1_555
H42 C46 1_555 1_555
H43 C46 1_555 1_555
H44 C46 1_555 1_555
C47 C45 1_555 1_555
H45 C47 1_555 1_555
H46 C47 1_555 1_555
H47 C47 1_555 1_555
C48 C45 1_555 1_555
H48 C48 1_555 1_555
H49 C48 1_555 1_555
H50 C48 1_555 1_555
C49 C1 1_555 1_555
C50 C49 1_555 1_555
C51 C50 1_555 1_555
H51 C51 1_555 1_555
C52 C51 1_555 1_555
H52 C52 1_555 1_555
C53 C52 1_555 1_555
H53 C53 1_555 1_555
C54 C49 1_555 1_555
C55 C11 1_555 1_555
C56 C55 1_555 1_555
C57 C56 1_555 1_555
H54 C57 1_555 1_555
C58 C57 1_555 1_555
H55 C58 1_555 1_555
C59 C58 1_555 1_555
H56 C59 1_555 1_555
C60 C55 1_555 1_555
C61 C62 1_555 1_555
C62 H57 1_555 1_555
C63 C62 1_555 1_555
H58 C63 1_555 1_555
H59 C63 1_555 1_555
C64 C62 1_555 1_555
H60 C64 1_555 1_555
C65 C64 1_555 1_555
C66 C65 1_555 1_555
H61 C66 1_555 1_555
C67 C66 1_555 1_555
H62 C67 1_555 1_555
C68 C67 1_555 1_555
C69 C68 1_555 1_555
C70 C65 1_555 1_555
H63 C70 1_555 1_555
C71 C69 1_555 1_555
H64 C71 1_555 1_555
C72 C71 1_555 1_555
H65 C72 1_555 1_555
C73 C72 1_555 1_555
H66 C73 1_555 1_555
C74 C68 1_555 1_555
H67 C74 1_555 1_555
C75 C76 1_555 1_555
C76 H68 1_555 1_555
C77 C78 1_555 1_555
C78 H69 1_555 1_555
C79 C78 1_555 1_555
H70 C79 1_555 1_555
H71 C79 1_555 1_555
C80 C78 1_555 1_555
H72 C80 1_555 1_555
C81 C80 1_555 1_555
C82 C81 1_555 1_555
H73 C82 1_555 1_555
C83 C82 1_555 1_555
H74 C83 1_555 1_555
C84 C85 1_555 1_555
C85 C81 1_555 1_555
H75 C85 1_555 1_555
C86 C84 1_555 1_555
H76 C86 1_555 1_555
C87 C86 1_555 1_555
H77 C87 1_555 1_555
C88 C87 1_555 1_555
H78 C88 1_555 1_555
C89 C88 1_555 1_555
H79 C89 1_555 1_555
C90 C83 1_555 1_555
C91 N7 1_555 1_555
C92 H80 1_555 1_555
H81 C92 1_555 1_555
N1 C7 1_555 1_555
H82 N1 1_555 1_555
N2 C12 1_555 1_555
N3 C17 1_555 1_555
H83 N3 1_555 1_555
N4 C2 1_555 1_555
N5 C60 1_555 1_555
H84 N5 1_555 1_555
N6 C56 1_555 1_555
H85 N6 1_555 1_555
N7 C54 1_555 1_555
H86 N7 1_555 1_555
N8 C50 1_555 1_555
H87 N8 1_555 1_555
O1 C75 1_555 1_555
O2 C61 1_555 1_555
O3 C77 1_555 1_555
C93 C76 1_555 1_555
H88 C93 1_555 1_555
H89 C93 1_555 1_555
C94 H90 1_555 1_555
C95 C94 1_555 1_555
H91 C95 1_555 1_555
C96 C95 1_555 1_555
C97 C96 1_555 1_555
H92 C97 1_555 1_555
C98 C97 1_555 1_555
C99 C94 1_555 1_555
C100 C99 1_555 1_555
H93 C100 1_555 1_555
C101 C100 1_555 1_555
H94 C101 1_555 1_555
C102 C101 1_555 1_555
H95 C102 1_555 1_555
C103 C98 1_555 1_555
H96 C103 1_555 1_555
C104 C76 1_555 1_555
H97 C104 1_555 1_555
O4 C91 1_555 1_555
C105 C91 1_555 1_555
H98 C105 1_555 1_555
C106 C92 1_555 1_555
H99 C106 1_555 1_555
C107 H100 1_555 1_555
C108 C106 1_555 1_555
C109 C108 1_555 1_555
H101 C109 1_555 1_555
C110 C109 1_555 1_555
H102 C110 1_555 1_555
C111 C110 1_555 1_555
C112 C107 1_555 1_555
C113 C112 1_555 1_555
H103 C113 1_555 1_555
C114 C113 1_555 1_555
H104 C114 1_555 1_555
C115 C114 1_555 1_555
H105 C115 1_555 1_555
C116 C111 1_555 1_555
H106 C116 1_555 1_555
C141 H131 1_555 1_555
H132 C141 1_555 1_555
C142 C141 1_555 1_555
H133 C142 1_555 1_555
H134 C142 1_555 1_555
H135 C142 1_555 1_555
C143 C141 1_555 1_555
H136 C143 1_555 1_555
H137 C143 1_555 1_555
C144 C143 1_555 1_555
H138 C144 1_555 1_555
H139 C144 1_555 1_555
C145 C144 1_555 1_555
H140 C145 1_555 1_555
H141 C145 1_555 1_555
H142 C145 1_555 1_555
C5 N4 1_555 1_555
C10 N1 1_555 1_555
C15 N2 1_555 1_555
C19 C20 1_555 1_555
C20 N3 1_555 1_555
C25 C26 1_555 1_555
C39 C40 1_555 1_555
C53 C54 1_555 1_555
C59 C60 1_555 1_555
C61 N6 1_555 1_555
C63 C64 1_555 1_555
C69 C70 1_555 1_555
C73 C74 1_555 1_555
C75 N5 1_555 1_555
C77 N8 1_555 1_555
C79 C80 1_555 1_555
C84 C90 1_555 1_555
C89 C90 1_555 1_555
C92 C105 1_555 1_555
C93 C104 1_555 1_555
C96 C104 1_555 1_555
C98 C99 1_555 1_555
C102 C103 1_555 1_555
C105 C106 1_555 1_555
C107 C108 1_555 1_555
C111 C112 1_555 1_555
C115 C116 1_555 1_555

#END
