
#######################################################################
#
#                 Cambridge Crystallographic Data Centre
#                                CCDC 
#
#######################################################################
#
# If this CIF has been generated from an entry in the Cambridge 
# Structural Database, then it will include bibliographic, chemical, 
# crystal, experimental, refinement or atomic coordinate data resulting 
# from the CCDC's data processing and validation procedures.
#
#######################################################################

data_GILBIO
_chemical_formula_moiety         'C14 H7 F6 N1'
_chemical_name_systematic        
2-(4-Fluorophenyl)-1-(pentafluorophenyl)aziridine
_symmetry_cell_setting           orthorhombic
_symmetry_space_group_name_H-M   'P 21 21 21'
_symmetry_Int_Tables_number      19
_space_group_name_Hall           'P 2ac 2ab'
loop_
_symmetry_equiv_pos_site_id
_symmetry_equiv_pos_as_xyz
1 x,y,z
2 1/2-x,-y,1/2+z
3 1/2+x,1/2-y,-z
4 -x,1/2+y,1/2-z
_cell_length_a                   5.44720(10)
_cell_length_b                   12.7602(2)
_cell_length_c                   17.4799(3)
_cell_angle_alpha                90
_cell_angle_beta                 90
_cell_angle_gamma                90
_cell_volume                     1214.98
_exptl_crystal_colour            colorless
_exptl_crystal_description       plate
_cell_formula_units_Z            4
loop_
_atom_site_label
_atom_site_type_symbol
_atom_site_fract_x
_atom_site_fract_y
_atom_site_fract_z
F1 F 0.2429(2) 0.52388(10) 0.22329(7)
F2 F 0.2612(3) 0.60506(11) 0.08194(7)
F3 F 0.9453(2) 0.71906(10) 0.29096(7)
F4 F 0.6226(3) 0.74235(12) 0.04292(7)
F5 F 0.9404(3) 0.66857(11) 0.67529(7)
F6 F 0.9630(3) 0.79826(11) 0.14873(9)
N1 N 0.5733(3) 0.57941(12) 0.33651(9)
C1 C 0.5984(4) 0.61599(14) 0.26115(11)
C2 C 0.8340(4) 0.56478(15) 0.45565(11)
C3 C 0.4258(4) 0.59074(14) 0.20591(11)
C4 C 0.7776(4) 0.68742(15) 0.23962(11)
C5 C 0.9062(4) 0.63477(16) 0.60247(11)
C6 C 0.7863(4) 0.72909(16) 0.16704(12)
C7 C 0.4317(4) 0.63213(15) 0.13295(11)
C8 C 0.6137(4) 0.70151(17) 0.11333(11)
C9 C 1.0395(4) 0.62363(17) 0.47403(12)
C10 C 0.7918(4) 0.53264(17) 0.37481(12)
C11 C 0.7010(4) 0.57686(19) 0.58670(12)
C12 C 1.0771(4) 0.65934(17) 0.54791(13)
C13 C 0.6665(4) 0.54182(19) 0.51257(12)
C14 C 0.5851(6) 0.46591(18) 0.34929(14)
H1 H 0.612(4) 0.4228(18) 0.3036(14)
H2 H 1.161(5) 0.639(2) 0.4342(15)
H3 H 0.935(5) 0.5308(19) 0.3469(15)
H4 H 0.525(5) 0.5062(19) 0.5015(14)
H5 H 1.218(5) 0.698(2) 0.5594(15)
H6 H 0.474(5) 0.4392(19) 0.3861(14)
H7 H 0.590(6) 0.565(2) 0.6310(17)
loop_
_geom_bond_atom_site_label_1
_geom_bond_atom_site_label_2
_geom_bond_site_symmetry_1
_geom_bond_site_symmetry_2
F1 C3 1_555 1_555
F2 C7 1_555 1_555
F3 C4 1_555 1_555
F4 C8 1_555 1_555
F5 C5 1_555 1_555
F6 C6 1_555 1_555
N1 C1 1_555 1_555
C1 C3 1_555 1_555
C2 C9 1_555 1_555
C3 C7 1_555 1_555
C4 C1 1_555 1_555
C5 C11 1_555 1_555
C6 C4 1_555 1_555
C7 C8 1_555 1_555
C8 C6 1_555 1_555
C9 C12 1_555 1_555
C10 N1 1_555 1_555
C11 C13 1_555 1_555
C12 C5 1_555 1_555
C13 C2 1_555 1_555
C14 N1 1_555 1_555
H1 C14 1_555 1_555
H2 C9 1_555 1_555
H3 C10 1_555 1_555
H4 C13 1_555 1_555
H5 C12 1_555 1_555
H6 C14 1_555 1_555
H7 C11 1_555 1_555
C2 C10 1_555 1_555
C10 C14 1_555 1_555

#END
