
#######################################################################
#
#                 Cambridge Crystallographic Data Centre
#                                CCDC 
#
#######################################################################
#
# If this CIF has been generated from an entry in the Cambridge 
# Structural Database, then it will include bibliographic, chemical, 
# crystal, experimental, refinement or atomic coordinate data resulting 
# from the CCDC's data processing and validation procedures.
#
#######################################################################

data_GILDIQ
_chemical_formula_moiety         'C23 H22 N2 O2'
_chemical_name_systematic        
'Methyl 2-phenyl-1,2,6,7,12,12b-hexahydroindolo[2,3-a]quinolizine-3-carboxylate'
_symmetry_cell_setting           triclinic
_symmetry_space_group_name_H-M   'P -1'
_symmetry_Int_Tables_number      2
_space_group_name_Hall           '-P 1'
loop_
_symmetry_equiv_pos_site_id
_symmetry_equiv_pos_as_xyz
1 x,y,z
2 -x,-y,-z
_cell_length_a                   8.372(2)
_cell_length_b                   10.616(3)
_cell_length_c                   11.751(3)
_cell_angle_alpha                114.872(3)
_cell_angle_beta                 96.319(4)
_cell_angle_gamma                94.843(4)
_cell_volume                     931.823
_cell_formula_units_Z            2
loop_
_atom_site_label
_atom_site_type_symbol
_atom_site_fract_x
_atom_site_fract_y
_atom_site_fract_z
C1 C 0.2547(3) 0.6208(2) 0.3313(2)
C2 C 0.0937(3) 0.6111(3) 0.2782(2)
H1 H 0.0296 0.6792 0.3176
C3 C 0.0343(3) 0.4959(3) 0.1647(2)
H2 H -0.0720 0.4870 0.1264
C4 C 0.1284(3) 0.3929(3) 0.1057(2)
H3 H 0.0837 0.3157 0.0300
C5 C 0.2874(3) 0.4036(3) 0.1581(2)
H4 H 0.3503 0.3347 0.1178
C6 C 0.3530(3) 0.5192(2) 0.2724(2)
C7 C 0.5074(3) 0.5624(2) 0.3525(2)
C8 C 0.6592(3) 0.4938(3) 0.3402(2)
H5 H 0.7150 0.5082 0.2777
H6 H 0.6308 0.3936 0.3120
C9 C 0.7692(3) 0.5571(2) 0.4678(2)
H7 H 0.7266 0.5201 0.5228
H8 H 0.8763 0.5303 0.4561
C10 C 0.6347(2) 0.7730(2) 0.5614(2)
H9 H 0.6103 0.7688 0.6395
C11 C 0.4995(3) 0.6853(2) 0.4544(2)
C12 C 0.9273(3) 0.7924(3) 0.5741(2)
H10 H 1.0187 0.7482 0.5556
C13 C 0.9536(3) 0.9333(3) 0.6443(2)
C14 C 1.1205(3) 1.0026(3) 0.6798(2)
C15 C 1.2951(3) 1.2190(3) 0.7965(2)
H11 H 1.3644 1.1730 0.8325
H12 H 1.2918 1.3123 0.8595
H13 H 1.3367 1.2236 0.7252
C16 C 0.6593(3) 0.9261(2) 0.5833(2)
H14 H 0.5646 0.9683 0.6132
H15 H 0.6683 0.9296 0.5030
C17 C 0.8122(2) 1.0129(2) 0.68071(19)
H16 H 0.8350 1.1006 0.6726
C18 C 0.7822(2) 1.0515(2) 0.8165(2)
C19 C 0.8108(3) 0.9670(3) 0.8768(2)
H17 H 0.8552 0.8853 0.8357
C20 C 0.7744(3) 1.0017(3) 0.9979(2)
H18 H 0.7946 0.9433 1.0369
C21 C 0.7091(3) 1.1213(4) 1.0601(3)
H19 H 0.6833 1.1437 1.1407
C22 C 0.6818(3) 1.2086(3) 1.0018(3)
H20 H 0.6396 1.2912 1.0439
C23 C 0.7172(3) 1.1730(3) 0.8812(2)
H21 H 0.6971 1.2318 0.8425
N1 N 0.3460(2) 0.72245(19) 0.44287(16)
H22 H 0.3131 0.7960 0.4959
N2 N 0.7828(2) 0.7101(2) 0.52855(17)
O1 O 1.24108(19) 0.94676(18) 0.64889(15)
O2 O 1.13321(18) 1.14103(17) 0.75508(14)
loop_
_geom_bond_atom_site_label_1
_geom_bond_atom_site_label_2
_geom_bond_site_symmetry_1
_geom_bond_site_symmetry_2
C1 C2 1_555 1_555
C2 H1 1_555 1_555
C3 C2 1_555 1_555
H2 C3 1_555 1_555
C4 C3 1_555 1_555
H3 C4 1_555 1_555
C5 C4 1_555 1_555
H4 C5 1_555 1_555
C6 C1 1_555 1_555
C7 C6 1_555 1_555
C8 C7 1_555 1_555
H5 C8 1_555 1_555
H6 C8 1_555 1_555
C9 C8 1_555 1_555
H7 C9 1_555 1_555
H8 C9 1_555 1_555
C10 H9 1_555 1_555
C11 C7 1_555 1_555
C12 H10 1_555 1_555
C13 C12 1_555 1_555
C14 C13 1_555 1_555
C15 H11 1_555 1_555
H12 C15 1_555 1_555
H13 C15 1_555 1_555
C16 C10 1_555 1_555
H14 C16 1_555 1_555
H15 C16 1_555 1_555
C17 C13 1_555 1_555
H16 C17 1_555 1_555
C18 C17 1_555 1_555
C19 C18 1_555 1_555
H17 C19 1_555 1_555
C20 C19 1_555 1_555
H18 C20 1_555 1_555
C21 C20 1_555 1_555
H19 C21 1_555 1_555
C22 C21 1_555 1_555
H20 C22 1_555 1_555
C23 C18 1_555 1_555
H21 C23 1_555 1_555
N1 C1 1_555 1_555
H22 N1 1_555 1_555
N2 C9 1_555 1_555
O1 C14 1_555 1_555
O2 C14 1_555 1_555
C5 C6 1_555 1_555
C10 C11 1_555 1_555
C10 N2 1_555 1_555
C11 N1 1_555 1_555
C12 N2 1_555 1_555
C15 O2 1_555 1_555
C16 C17 1_555 1_555
C22 C23 1_555 1_555

#END
