
#######################################################################
#
#                 Cambridge Crystallographic Data Centre
#                                CCDC 
#
#######################################################################
#
# If this CIF has been generated from an entry in the Cambridge 
# Structural Database, then it will include bibliographic, chemical, 
# crystal, experimental, refinement or atomic coordinate data resulting 
# from the CCDC's data processing and validation procedures.
#
#######################################################################

data_GILHER
_chemical_formula_moiety         'C17 H11 N3 S2'
_chemical_name_systematic        
2-amino-4-(10H-phenothiazin-2-yl)thiophene-3-carbonitrile
_symmetry_cell_setting           monoclinic
_symmetry_space_group_name_H-M   'P 21'
_symmetry_Int_Tables_number      4
_space_group_name_Hall           'P 2yb'
loop_
_symmetry_equiv_pos_site_id
_symmetry_equiv_pos_as_xyz
1 x,y,z
2 -x,1/2+y,-z
_cell_length_a                   8.7916(2)
_cell_length_b                   5.62550(10)
_cell_length_c                   14.7562(3)
_cell_angle_alpha                90
_cell_angle_beta                 95.407(2)
_cell_angle_gamma                90
_cell_volume                     726.552
_exptl_crystal_colour            green
_exptl_crystal_description       needle
_cell_formula_units_Z            2
loop_
_atom_site_label
_atom_site_type_symbol
_atom_site_fract_x
_atom_site_fract_y
_atom_site_fract_z
C1 C 0.2989(3) 0.9972(5) -0.17652(14)
H1 H 0.3626 1.1285 -0.1670
C2 C 0.2135(3) 0.9673(5) -0.25978(15)
H2 H 0.2190 1.0799 -0.3055
C3 C 0.1209(3) 0.7724(6) -0.27474(15)
H3 H 0.0655 0.7515 -0.3310
C4 C 0.1099(3) 0.6075(5) -0.20668(16)
H4 H 0.0455 0.4770 -0.2170
C5 C 0.1947(2) 0.6345(4) -0.12213(14)
C6 C 0.2896(2) 0.8321(4) -0.10738(13)
C7 C 0.3217(2) 0.7895(4) 0.05837(12)
C8 C 0.2309(2) 0.5866(4) 0.06118(14)
C9 C 0.1836(3) 0.5143(4) 0.14375(16)
H5 H 0.1214 0.3810 0.1457
C10 C 0.2268(3) 0.6361(4) 0.22326(15)
H6 H 0.1976 0.5800 0.2783
C11 C 0.3139(2) 0.8426(4) 0.22146(13)
C12 C 0.3590(2) 0.9198(4) 0.13761(13)
H7 H 0.4146 1.0598 0.1349
C13 C 0.3590(2) 0.9875(4) 0.30284(13)
C14 C 0.2725(2) 1.0195(4) 0.38117(13)
C15 C 0.1420(2) 0.8890(5) 0.40128(14)
C16 C 0.3319(2) 1.1923(5) 0.44039(13)
C17 C 0.4840(2) 1.1297(5) 0.30972(14)
H8 H 0.5552 1.1309 0.2670
N1 N 0.3792(2) 0.8593(4) -0.02349(11)
N2 N 0.0387(2) 0.7881(6) 0.42251(15)
N3 N 0.2773(2) 1.2693(5) 0.51820(12)
H9 H 0.1954 1.2080 0.5358
H10 H 0.3246 1.3794 0.5500
S1 S 0.18528(7) 0.41566(11) -0.03747(4)
S2 S 0.49857(7) 1.30769(13) 0.40494(4)
H11 H 0.426(2) 0.983(5) -0.0199(15)
loop_
_geom_bond_atom_site_label_1
_geom_bond_atom_site_label_2
_geom_bond_site_symmetry_1
_geom_bond_site_symmetry_2
C1 H1 1_555 1_555
C2 C1 1_555 1_555
H2 C2 1_555 1_555
C3 C2 1_555 1_555
H3 C3 1_555 1_555
C4 C3 1_555 1_555
H4 C4 1_555 1_555
C5 C4 1_555 1_555
C6 C1 1_555 1_555
C7 C8 1_555 1_555
C8 C9 1_555 1_555
C9 H5 1_555 1_555
C10 C9 1_555 1_555
H6 C10 1_555 1_555
C11 C10 1_555 1_555
C12 C7 1_555 1_555
H7 C12 1_555 1_555
C13 C11 1_555 1_555
C14 C13 1_555 1_555
C15 C14 1_555 1_555
C16 C14 1_555 1_555
C17 C13 1_555 1_555
H8 C17 1_555 1_555
N1 C6 1_555 1_555
N2 C15 1_555 1_555
N3 C16 1_555 1_555
H9 N3 1_555 1_555
H10 N3 1_555 1_555
S1 C5 1_555 1_555
S2 C16 1_555 1_555
H11 N1 1_555 1_555
C5 C6 1_555 1_555
C7 N1 1_555 1_555
C8 S1 1_555 1_555
C11 C12 1_555 1_555
C17 S2 1_555 1_555

#END
