
#######################################################################
#
#                 Cambridge Crystallographic Data Centre
#                                CCDC 
#
#######################################################################
#
# If this CIF has been generated from an entry in the Cambridge 
# Structural Database, then it will include bibliographic, chemical, 
# crystal, experimental, refinement or atomic coordinate data resulting 
# from the CCDC's data processing and validation procedures.
#
#######################################################################

data_GILJOC
_chemical_formula_moiety         'C54 H36 S1'
_chemical_name_systematic        
3,4-Diphenyl-2,5-bis(9-phenyl-9H-fluoren-9-yl)thiophene
_symmetry_cell_setting           monoclinic
_symmetry_space_group_name_H-M   'P 21/c'
_symmetry_Int_Tables_number      14
_space_group_name_Hall           '-P 2ybc'
loop_
_symmetry_equiv_pos_site_id
_symmetry_equiv_pos_as_xyz
1 x,y,z
2 -x,1/2+y,1/2-z
3 -x,-y,-z
4 x,1/2-y,1/2+z
_cell_length_a                   12.007(10)
_cell_length_b                   13.674(11)
_cell_length_c                   26.541(17)
_cell_angle_alpha                90
_cell_angle_beta                 116.90(3)
_cell_angle_gamma                90
_cell_volume                     3886.1
_cell_formula_units_Z            4
loop_
_atom_site_label
_atom_site_type_symbol
_atom_site_fract_x
_atom_site_fract_y
_atom_site_fract_z
C1 C 0.4690(3) 0.2551(2) 0.63623(12)
C2 C 0.5150(3) 0.3487(3) 0.64075(14)
H1 H 0.5432 0.3710 0.6154
C3 C 0.5190(3) 0.4090(3) 0.68322(18)
H2 H 0.5492 0.4725 0.6863
C4 C 0.4786(4) 0.3758(3) 0.72089(17)
H3 H 0.4828 0.4167 0.7497
C5 C 0.4319(3) 0.2822(3) 0.71655(15)
H4 H 0.4050 0.2600 0.7423
C6 C 0.4255(3) 0.2211(3) 0.67319(13)
C7 C 0.3744(3) 0.1237(3) 0.65599(13)
C8 C 0.3146(3) 0.0618(3) 0.67744(16)
H5 H 0.3043 0.0806 0.7087
C9 C 0.2710(4) -0.0266(3) 0.6525(2)
H6 H 0.2328 -0.0685 0.6677
C10 C 0.2826(4) -0.0548(3) 0.60557(19)
H7 H 0.2507 -0.1147 0.5886
C11 C 0.3423(3) 0.0065(3) 0.58295(15)
H8 H 0.3517 -0.0127 0.5515
C12 C 0.3867(3) 0.0955(2) 0.60809(13)
C13 C 0.4573(3) 0.1755(2) 0.59405(12)
C14 C 0.5891(3) 0.1352(2) 0.60575(13)
C15 C 0.6991(3) 0.1672(2) 0.65059(14)
H9 H 0.6952 0.2148 0.6748
C16 C 0.8149(4) 0.1300(3) 0.66021(17)
H10 H 0.8873 0.1524 0.6906
C17 C 0.8217(4) 0.0600(3) 0.62450(17)
H11 H 0.8989 0.0356 0.6302
C18 C 0.7124(4) 0.0259(3) 0.57968(15)
H12 H 0.7161 -0.0222 0.5557
C19 C 0.5978(3) 0.0641(2) 0.57100(13)
H13 H 0.5253 0.0410 0.5410
C20 C 0.3855(3) 0.2138(2) 0.53267(12)
C21 C 0.2609(3) 0.2382(2) 0.50132(12)
C22 C 0.1639(3) 0.2289(2) 0.52102(12)
C23 C 0.1548(3) 0.3003(3) 0.55604(15)
H14 H 0.2113 0.3519 0.5680
C24 C 0.0623(4) 0.2950(3) 0.57340(16)
H15 H 0.0555 0.3439 0.5963
C25 C -0.0193(4) 0.2179(4) 0.55688(18)
H16 H -0.0806 0.2141 0.5691
C26 C -0.0116(4) 0.1470(3) 0.52282(19)
H17 H -0.0671 0.0947 0.5118
C27 C 0.0792(3) 0.1531(3) 0.50459(14)
H18 H 0.0833 0.1050 0.4807
C28 C 0.2335(3) 0.2807(2) 0.44717(12)
C29 C 0.1015(3) 0.3044(2) 0.40317(13)
C30 C 0.0403(3) 0.3877(3) 0.40534(14)
H19 H 0.0805 0.4313 0.4350
C31 C -0.0812(4) 0.4091(3) 0.36415(17)
H20 H -0.1204 0.4662 0.3666
C32 C -0.1422(3) 0.3451(3) 0.31990(16)
H21 H -0.2223 0.3593 0.2921
C33 C -0.0842(4) 0.2603(3) 0.31713(15)
H22 H -0.1260 0.2165 0.2878
C34 C 0.0385(3) 0.2390(3) 0.35844(14)
H23 H 0.0774 0.1816 0.3560
C35 C 0.3389(3) 0.2944(2) 0.44014(12)
C36 C 0.3521(3) 0.3320(2) 0.38925(13)
C37 C 0.2683(3) 0.4197(3) 0.36027(15)
C38 C 0.2562(3) 0.5071(3) 0.38225(17)
H24 H 0.3009 0.5190 0.4208
C39 C 0.1749(4) 0.5795(3) 0.3459(3)
H25 H 0.1653 0.6386 0.3608
C40 C 0.1104(4) 0.5629(4) 0.2888(3)
H26 H 0.0595 0.6115 0.2650
C41 C 0.1209(3) 0.4751(4) 0.26688(18)
H27 H 0.0762 0.4639 0.2282
C42 C 0.1982(3) 0.4017(3) 0.30209(15)
C43 C 0.2170(3) 0.3013(3) 0.29020(14)
C44 C 0.1617(3) 0.2442(4) 0.24110(16)
H28 H 0.1056 0.2720 0.2070
C45 C 0.1913(4) 0.1470(4) 0.2440(2)
H29 H 0.1543 0.1088 0.2115
C46 C 0.2753(4) 0.1043(3) 0.2943(2)
H30 H 0.2937 0.0381 0.2954
C47 C 0.3320(3) 0.1599(3) 0.34300(15)
H31 H 0.3892 0.1315 0.3766
C48 C 0.3034(3) 0.2564(3) 0.34137(13)
C49 C 0.4922(3) 0.3597(2) 0.40819(13)
C50 C 0.5653(3) 0.3106(3) 0.38900(16)
H32 H 0.5320 0.2590 0.3637
C51 C 0.6910(4) 0.3384(3) 0.4076(2)
H33 H 0.7397 0.3046 0.3944
C52 C 0.7422(4) 0.4136(3) 0.44452(19)
H34 H 0.8254 0.4306 0.4567
C53 C 0.6709(4) 0.4637(3) 0.46330(16)
H35 H 0.7043 0.5161 0.4879
C54 C 0.5472(3) 0.4360(3) 0.44539(14)
H36 H 0.4996 0.4702 0.4590
S1 S 0.47126(8) 0.24961(7) 0.49855(3)
loop_
_geom_bond_atom_site_label_1
_geom_bond_atom_site_label_2
_geom_bond_site_symmetry_1
_geom_bond_site_symmetry_2
C1 C2 1_555 1_555
C2 H1 1_555 1_555
C3 C2 1_555 1_555
H2 C3 1_555 1_555
C4 C3 1_555 1_555
H3 C4 1_555 1_555
C5 C4 1_555 1_555
H4 C5 1_555 1_555
C6 C1 1_555 1_555
C7 C6 1_555 1_555
C8 C7 1_555 1_555
H5 C8 1_555 1_555
C9 C8 1_555 1_555
H6 C9 1_555 1_555
C10 C9 1_555 1_555
H7 C10 1_555 1_555
C11 C10 1_555 1_555
H8 C11 1_555 1_555
C12 C7 1_555 1_555
C13 C1 1_555 1_555
C14 C13 1_555 1_555
C15 C14 1_555 1_555
H9 C15 1_555 1_555
C16 C15 1_555 1_555
H10 C16 1_555 1_555
C17 C16 1_555 1_555
H11 C17 1_555 1_555
C18 C17 1_555 1_555
H12 C18 1_555 1_555
C19 C14 1_555 1_555
H13 C19 1_555 1_555
C20 C13 1_555 1_555
C21 C20 1_555 1_555
C22 C21 1_555 1_555
C23 C22 1_555 1_555
H14 C23 1_555 1_555
C24 C23 1_555 1_555
H15 C24 1_555 1_555
C25 C24 1_555 1_555
H16 C25 1_555 1_555
C26 C25 1_555 1_555
H17 C26 1_555 1_555
C27 C22 1_555 1_555
H18 C27 1_555 1_555
C28 C21 1_555 1_555
C29 C28 1_555 1_555
C30 C29 1_555 1_555
H19 C30 1_555 1_555
C31 C30 1_555 1_555
H20 C31 1_555 1_555
C32 C31 1_555 1_555
H21 C32 1_555 1_555
C33 C32 1_555 1_555
H22 C33 1_555 1_555
C34 C29 1_555 1_555
H23 C34 1_555 1_555
C35 C28 1_555 1_555
C36 C35 1_555 1_555
C37 C36 1_555 1_555
C38 C37 1_555 1_555
H24 C38 1_555 1_555
C39 C38 1_555 1_555
H25 C39 1_555 1_555
C40 C39 1_555 1_555
H26 C40 1_555 1_555
C41 C40 1_555 1_555
H27 C41 1_555 1_555
C42 C37 1_555 1_555
C43 C42 1_555 1_555
C44 C43 1_555 1_555
H28 C44 1_555 1_555
C45 C44 1_555 1_555
H29 C45 1_555 1_555
C46 C45 1_555 1_555
H30 C46 1_555 1_555
C47 C46 1_555 1_555
H31 C47 1_555 1_555
C48 C36 1_555 1_555
C49 C36 1_555 1_555
C50 C49 1_555 1_555
H32 C50 1_555 1_555
C51 C50 1_555 1_555
H33 C51 1_555 1_555
C52 C51 1_555 1_555
H34 C52 1_555 1_555
C53 C52 1_555 1_555
H35 C53 1_555 1_555
C54 C49 1_555 1_555
H36 C54 1_555 1_555
S1 C20 1_555 1_555
C5 C6 1_555 1_555
C11 C12 1_555 1_555
C12 C13 1_555 1_555
C18 C19 1_555 1_555
C26 C27 1_555 1_555
C33 C34 1_555 1_555
C35 S1 1_555 1_555
C41 C42 1_555 1_555
C43 C48 1_555 1_555
C47 C48 1_555 1_555
C53 C54 1_555 1_555

#END
