
#######################################################################
#
#                 Cambridge Crystallographic Data Centre
#                                CCDC 
#
#######################################################################
#
# If this CIF has been generated from an entry in the Cambridge 
# Structural Database, then it will include bibliographic, chemical, 
# crystal, experimental, refinement or atomic coordinate data resulting 
# from the CCDC's data processing and validation procedures.
#
#######################################################################

data_GILKAP
_chemical_formula_moiety         'C42 H42 N28 O14,C20 H22 N4,23.5(H2 O1)'
_chemical_name_systematic        
"(2)-(2,2'-Hexane-1,6-diylbis(1H-benzimidazole))-(cucurbit[7]uril)-pseudorotaxane hydrate"
_symmetry_cell_setting           monoclinic
_symmetry_space_group_name_H-M   'P 21/n'
_symmetry_Int_Tables_number      14
_space_group_name_Hall           '-P 2yn'
loop_
_symmetry_equiv_pos_site_id
_symmetry_equiv_pos_as_xyz
1 x,y,z
2 1/2-x,1/2+y,1/2-z
3 -x,-y,-z
4 1/2+x,1/2-y,1/2+z
_cell_length_a                   14.3469(8)
_cell_length_b                   21.8947(12)
_cell_length_c                   27.8729(16)
_cell_angle_alpha                90
_cell_angle_beta                 104.446(2)
_cell_angle_gamma                90
_cell_volume                     8478.65
_cell_formula_units_Z            4
loop_
_atom_site_label
_atom_site_type_symbol
_atom_site_fract_x
_atom_site_fract_y
_atom_site_fract_z
O1 O 0.1647(3) -0.0137(2) 0.5401(2)
O2 O 0.1775(12) 0.0102(10) 0.5058(11)
O3 O 0.1099(4) -0.12823(19) 0.92599(15)
O4 O 0.3446(3) 0.0417(2) 0.60784(17)
O5 O 0.1294(3) 0.3036(3) 0.10601(16)
O6 O -0.3594(3) 0.0452(2) 0.65350(16)
O7 O -0.3298(3) 0.0401(2) 0.8945(2)
O8 O 0.2322(3) -0.0396(3) 0.98706(16)
O9 O 0.1386(4) 0.0282(4) 1.0526(2)
O10 O 0.0896(6) -0.1164(3) 0.5805(2)
O11 O -0.1002(6) -0.1271(3) 0.5760(2)
O12 O 0.3530(5) 0.2368(4) 0.8806(2)
O13 O 0.3901(8) -0.1464(4) 1.0447(3)
O14 O 0.1087(6) 0.1811(4) 0.1035(4)
O15 O 0.026(3) 0.1325(12) 0.0733(6)
O16 O -0.3216(6) 0.2604(4) 0.9379(4)
O17 O 0.4247(8) 0.0172(5) 0.9838(4)
O18 O 0.4372(7) 0.0787(8) 0.9105(5)
O19 O -0.0362(9) 0.3789(6) 0.0619(3)
O20 O 0.263(3) 0.0312(14) 0.4619(4)
O21 O 0.4235(13) 0.0226(14) 0.5005(8)
O22 O -0.378(2) 0.052(3) 0.5544(18)
O23 O -0.1507(11) 0.2589(6) 1.0482(10)
O24 O -0.1772(11) 0.3248(11) 0.9967(6)
C1 C 0.1388(3) 0.10210(18) 0.62198(14)
C2 C 0.0052(3) 0.03787(18) 0.60394(14)
H1 H 0.0090 -0.0028 0.5899
C3 C -0.0070(3) 0.08820(18) 0.56400(14)
H2 H -0.0130 0.0709 0.5309
C4 C -0.1378(3) 0.09049(18) 0.59997(14)
C5 C 0.1107(3) 0.16785(18) 0.54839(15)
H3 H 0.0898 0.1537 0.5144
H4 H 0.1805 0.1689 0.5572
C6 C -0.1398(3) 0.16558(18) 0.53319(14)
H5 H -0.2076 0.1675 0.5327
H6 H -0.1349 0.1546 0.5002
C7 C 0.1252(3) 0.27309(19) 0.58054(13)
C8 C -0.0209(3) 0.24958(18) 0.52547(13)
H7 H -0.0338 0.2430 0.4896
C9 C -0.0196(3) 0.31837(18) 0.53853(13)
H8 H -0.0205 0.3443 0.5097
C10 C -0.1491(3) 0.27143(19) 0.56069(13)
C11 C 0.1129(3) 0.38368(19) 0.59394(15)
H9 H 0.1824 0.3795 0.6034
H10 H 0.0968 0.4123 0.5666
C12 C -0.1399(3) 0.3837(2) 0.56923(15)
H11 H -0.2088 0.3808 0.5658
H12 H -0.1292 0.4148 0.5464
C13 C 0.1365(3) 0.40700(17) 0.68347(14)
C14 C -0.0082(3) 0.44042(18) 0.63005(15)
H13 H -0.0149 0.4744 0.6066
C15 C -0.0016(3) 0.46326(18) 0.68352(14)
H14 H 0.0051 0.5078 0.6858
C16 C -0.1460(3) 0.4112(2) 0.65380(16)
C17 C 0.1314(3) 0.45382(18) 0.76233(14)
C18 C -0.1289(3) 0.4682(2) 0.73198(15)
C19 C 0.1433(3) 0.40065(18) 0.84149(15)
C20 C 0.0047(2) 0.45999(18) 0.81120(14)
H15 H 0.0109 0.5046 0.8122
C21 C 0.0031(3) 0.43319(18) 0.86266(15)
H16 H -0.0012 0.4653 0.8865
C22 C -0.1364(3) 0.40364(19) 0.80387(16)
C23 C 0.1343(3) 0.3815(2) 0.92786(15)
H17 H 0.1187 0.4118 0.9500
H18 H 0.2038 0.3805 0.9335
C24 C -0.1202(3) 0.3687(2) 0.88915(17)
H19 H -0.1881 0.3605 0.8756
H20 H -0.1147 0.3983 0.9156
C25 C 0.1576(3) 0.2714(2) 0.94556(13)
C26 C 0.0100(3) 0.3114(2) 0.95210(15)
H21 H 0.0013 0.3382 0.9788
C27 C 0.0164(3) 0.2434(2) 0.96780(14)
H22 H 0.0151 0.2386 1.0026
C28 C -0.1177(3) 0.2572(2) 0.90254(15)
C29 C 0.1517(3) 0.1658(2) 0.97436(14)
H23 H 0.1384 0.1541 1.0055
H24 H 0.2209 0.1699 0.9799
C30 C -0.0993(3) 0.1547(2) 0.94013(17)
H25 H -0.1686 0.1530 0.9272
H26 H -0.0850 0.1446 0.9751
C31 C 0.1709(3) 0.0969(2) 0.90709(15)
C32 C 0.0363(3) 0.08028(19) 0.93724(15)
H27 H 0.0375 0.0636 0.9700
C33 C 0.0427(3) 0.02961(19) 0.90016(15)
H28 H 0.0524 -0.0107 0.9160
C34 C -0.1056(3) 0.0784(2) 0.87454(15)
C35 C 0.1693(3) 0.0088(2) 0.85259(15)
H29 H 0.1704 -0.0326 0.8652
H30 H 0.2354 0.0217 0.8564
C36 C -0.0838(3) -0.0148(2) 0.82854(15)
H31 H -0.0637 -0.0536 0.8445
H32 H -0.1536 -0.0139 0.8199
C37 C 0.1655(3) 0.02827(18) 0.76456(15)
C38 C 0.0408(3) -0.03191(18) 0.77963(14)
H33 H 0.0543 -0.0735 0.7925
C39 C 0.0328(3) -0.02916(17) 0.72310(14)
H34 H 0.0362 -0.0700 0.7092
C40 C -0.1111(3) 0.00660(18) 0.73943(15)
C41 C 0.1478(3) 0.0124(2) 0.67554(15)
H35 H 0.1452 -0.0278 0.6607
H36 H 0.2147 0.0250 0.6848
C42 C -0.1096(3) -0.00288(19) 0.65141(14)
H37 H -0.0983 -0.0424 0.6381
H38 H -0.1783 0.0011 0.6479
N1 N 0.0945(2) 0.05469(16) 0.63868(12)
N2 N 0.0794(2) 0.12466(15) 0.57991(11)
N3 N -0.0790(2) 0.04421(15) 0.62264(12)
N4 N -0.0943(2) 0.11865(15) 0.56758(12)
N5 N 0.0751(2) 0.22929(15) 0.55108(11)
N6 N 0.0706(2) 0.32471(15) 0.57705(11)
N7 N -0.0973(2) 0.22553(15) 0.54555(11)
N8 N -0.1051(2) 0.32567(15) 0.55579(12)
N9 N 0.0817(2) 0.40858(15) 0.63506(12)
N10 N 0.0837(2) 0.43289(14) 0.71281(11)
N11 N -0.0931(2) 0.40229(16) 0.61968(12)
N12 N -0.0908(2) 0.44359(17) 0.69267(12)
N13 N 0.0880(2) 0.43073(15) 0.80044(12)
N14 N 0.0926(2) 0.40013(16) 0.87719(12)
N15 N -0.0854(2) 0.44068(16) 0.77975(12)
N16 N -0.0819(2) 0.39485(15) 0.85137(13)
N17 N 0.1016(2) 0.32210(16) 0.94014(13)
N18 N 0.1079(2) 0.22402(16) 0.95955(12)
N19 N -0.0731(2) 0.31262(16) 0.90984(13)
N20 N -0.0669(2) 0.21626(16) 0.93486(13)
N21 N 0.1186(2) 0.11804(17) 0.93848(12)
N22 N 0.1247(2) 0.04809(17) 0.88177(13)
N23 N -0.0554(2) 0.10950(16) 0.91486(13)
N24 N -0.0487(2) 0.03359(16) 0.86340(12)
N25 N 0.1201(2) 0.00875(15) 0.79987(12)
N26 N 0.1134(2) 0.00806(15) 0.71949(12)
N27 N -0.0515(2) -0.01132(16) 0.78387(12)
N28 N -0.0611(2) -0.00127(15) 0.70351(12)
O25 O 0.22050(19) 0.12124(14) 0.64149(11)
O26 O 0.2080(2) 0.26778(14) 0.60590(11)
O27 O 0.21778(19) 0.38724(13) 0.69713(11)
O28 O 0.22258(19) 0.37921(15) 0.84498(11)
O29 O 0.2390(2) 0.26884(14) 0.94033(10)
O30 O 0.2471(2) 0.11873(16) 0.90253(12)
O31 O 0.23976(19) 0.05748(14) 0.77246(11)
O32 O -0.2160(2) 0.10454(14) 0.60705(12)
O33 O -0.2224(2) 0.26494(14) 0.57433(11)
O34 O -0.2286(2) 0.39468(17) 0.64999(12)
O35 O -0.2155(2) 0.38251(16) 0.78638(13)
O36 O -0.1938(2) 0.24661(15) 0.87182(12)
O37 O -0.1891(2) 0.08855(16) 0.85153(12)
O38 O -0.1925(2) 0.02578(15) 0.73299(11)
C43 C 0.1029(3) 0.3370(2) 0.27657(16)
C44 C 0.0460(3) 0.3533(2) 0.30801(18)
H39 H 0.0689 0.3519 0.3423
C45 C -0.0466(3) 0.3715(2) 0.28561(19)
H40 H -0.0872 0.3829 0.3054
C46 C -0.0806(3) 0.37353(19) 0.23520(18)
H41 H -0.1436 0.3860 0.2216
C47 C -0.0239(3) 0.3576(2) 0.20423(17)
H42 H -0.0474 0.3587 0.1700
C48 C 0.0688(3) 0.33989(18) 0.22568(15)
N29 N 0.1426(3) 0.31925(19) 0.20555(15)
N30 N 0.1965(3) 0.3145(2) 0.28571(16)
C49 C 0.2176(3) 0.3036(3) 0.2430(2)
C50 C 0.3092(4) 0.2725(4) 0.2366(3)
H43 H 0.3252 0.2380 0.2589
H44 H 0.2997 0.2578 0.2029
C51 C 0.3845(8) 0.3159(6) 0.2472(7)
H45 H 0.4001 0.3287 0.2817
H46 H 0.3704 0.3514 0.2258
C52 C 0.4686(10) 0.2730(12) 0.2345(10)
H47 H 0.4680 0.2319 0.2474
H48 H 0.4643 0.2714 0.1992
C53 C 0.5507(11) 0.3073(10) 0.2610(11)
H49 H 0.5385 0.3223 0.2916
H50 H 0.5590 0.3425 0.2413
C54 C 0.6455(13) 0.2692(13) 0.2733(9)
H51 H 0.6899 0.2855 0.3026
H52 H 0.6316 0.2271 0.2798
C55 C 0.6829(4) 0.2721(4) 0.2362(3)
H53 H 0.6849 0.3147 0.2271
H54 H 0.6395 0.2516 0.2086
C56 C 0.7812(3) 0.2460(2) 0.2415(2)
N31 N 0.8446(3) 0.23431(18) 0.28406(15)
N32 N 0.8174(3) 0.23312(17) 0.20391(15)
C57 C 0.9109(3) 0.21123(18) 0.22204(16)
C58 C 0.9813(4) 0.1932(2) 0.1990(2)
H55 H 0.9710 0.1931 0.1647
C59 C 1.0686(4) 0.1752(2) 0.2303(3)
H56 H 1.1178 0.1619 0.2165
C60 C 1.0842(4) 0.1765(2) 0.2809(3)
H57 H 1.1440 0.1644 0.3002
C61 C 1.0162(4) 0.1946(2) 0.3040(2)
H58 H 1.0274 0.1954 0.3384
C62 C 0.9273(3) 0.21228(19) 0.27253(16)
loop_
_geom_bond_atom_site_label_1
_geom_bond_atom_site_label_2
_geom_bond_site_symmetry_1
_geom_bond_site_symmetry_2
C1 N1 1_555 1_555
C2 H1 1_555 1_555
C3 C2 1_555 1_555
H2 C3 1_555 1_555
C4 N3 1_555 1_555
C5 H3 1_555 1_555
H4 C5 1_555 1_555
C6 H5 1_555 1_555
H6 C6 1_555 1_555
C7 N5 1_555 1_555
C8 H7 1_555 1_555
C9 C8 1_555 1_555
H8 C9 1_555 1_555
C10 N7 1_555 1_555
C11 H9 1_555 1_555
H10 C11 1_555 1_555
C12 H11 1_555 1_555
H12 C12 1_555 1_555
C13 N9 1_555 1_555
C14 H13 1_555 1_555
C15 C14 1_555 1_555
H14 C15 1_555 1_555
C16 N11 1_555 1_555
C17 N10 1_555 1_555
C18 N12 1_555 1_555
C19 N13 1_555 1_555
C20 H15 1_555 1_555
C21 C20 1_555 1_555
H16 C21 1_555 1_555
C22 N15 1_555 1_555
C23 H17 1_555 1_555
H18 C23 1_555 1_555
C24 H19 1_555 1_555
H20 C24 1_555 1_555
C25 N17 1_555 1_555
C26 H21 1_555 1_555
C27 C26 1_555 1_555
H22 C27 1_555 1_555
C28 N19 1_555 1_555
C29 H23 1_555 1_555
H24 C29 1_555 1_555
C30 H25 1_555 1_555
H26 C30 1_555 1_555
C31 N21 1_555 1_555
C32 H27 1_555 1_555
C33 C32 1_555 1_555
H28 C33 1_555 1_555
C34 N23 1_555 1_555
C35 H29 1_555 1_555
H30 C35 1_555 1_555
C36 H31 1_555 1_555
H32 C36 1_555 1_555
C37 N25 1_555 1_555
C38 H33 1_555 1_555
C39 C38 1_555 1_555
H34 C39 1_555 1_555
C40 N27 1_555 1_555
C41 H35 1_555 1_555
H36 C41 1_555 1_555
C42 H37 1_555 1_555
H38 C42 1_555 1_555
N1 C2 1_555 1_555
N2 C1 1_555 1_555
N3 C2 1_555 1_555
N4 C3 1_555 1_555
N5 C5 1_555 1_555
N6 C7 1_555 1_555
N7 C6 1_555 1_555
N8 C9 1_555 1_555
N9 C11 1_555 1_555
N10 C13 1_555 1_555
N11 C12 1_555 1_555
N12 C15 1_555 1_555
N13 C17 1_555 1_555
N14 C19 1_555 1_555
N15 C18 1_555 1_555
N16 C21 1_555 1_555
N17 C23 1_555 1_555
N18 C25 1_555 1_555
N19 C24 1_555 1_555
N20 C27 1_555 1_555
N21 C29 1_555 1_555
N22 C31 1_555 1_555
N23 C30 1_555 1_555
N24 C33 1_555 1_555
N25 C35 1_555 1_555
N26 C37 1_555 1_555
N27 C36 1_555 1_555
N28 C39 1_555 1_555
O25 C1 1_555 1_555
O26 C7 1_555 1_555
O27 C13 1_555 1_555
O28 C19 1_555 1_555
O29 C25 1_555 1_555
O30 C31 1_555 1_555
O31 C37 1_555 1_555
O32 C4 1_555 1_555
O33 C10 1_555 1_555
O34 C16 1_555 1_555
O35 C22 1_555 1_555
O36 C28 1_555 1_555
O37 C34 1_555 1_555
O38 C40 1_555 1_555
C43 C44 1_555 1_555
C44 H39 1_555 1_555
C45 C44 1_555 1_555
H40 C45 1_555 1_555
C46 C45 1_555 1_555
H41 C46 1_555 1_555
C47 C46 1_555 1_555
H42 C47 1_555 1_555
C48 C43 1_555 1_555
N29 C48 1_555 1_555
N30 C43 1_555 1_555
C49 N29 1_555 1_555
C50 C49 1_555 1_555
H43 C50 1_555 1_555
H44 C50 1_555 1_555
C51 C50 1_555 1_555
H45 C51 1_555 1_555
H46 C51 1_555 1_555
C52 C51 1_555 1_555
H47 C52 1_555 1_555
H48 C52 1_555 1_555
C53 C52 1_555 1_555
H49 C53 1_555 1_555
H50 C53 1_555 1_555
C54 C53 1_555 1_555
H51 C54 1_555 1_555
H52 C54 1_555 1_555
C55 C54 1_555 1_555
H53 C55 1_555 1_555
H54 C55 1_555 1_555
C56 C55 1_555 1_555
N31 C56 1_555 1_555
N32 C56 1_555 1_555
C57 N32 1_555 1_555
C58 C57 1_555 1_555
H55 C58 1_555 1_555
C59 C58 1_555 1_555
H56 C59 1_555 1_555
C60 C59 1_555 1_555
H57 C60 1_555 1_555
C61 C60 1_555 1_555
H58 C61 1_555 1_555
C62 N31 1_555 1_555
C3 N2 1_555 1_555
C4 N4 1_555 1_555
C5 N2 1_555 1_555
C6 N4 1_555 1_555
C8 N5 1_555 1_555
C8 N7 1_555 1_555
C9 N6 1_555 1_555
C10 N8 1_555 1_555
C11 N6 1_555 1_555
C12 N8 1_555 1_555
C14 N9 1_555 1_555
C14 N11 1_555 1_555
C15 N10 1_555 1_555
C16 N12 1_555 1_555
C20 N13 1_555 1_555
C20 N15 1_555 1_555
C21 N14 1_555 1_555
C22 N16 1_555 1_555
C23 N14 1_555 1_555
C24 N16 1_555 1_555
C26 N17 1_555 1_555
C26 N19 1_555 1_555
C27 N18 1_555 1_555
C28 N20 1_555 1_555
C29 N18 1_555 1_555
C30 N20 1_555 1_555
C32 N21 1_555 1_555
C32 N23 1_555 1_555
C33 N22 1_555 1_555
C34 N24 1_555 1_555
C35 N22 1_555 1_555
C36 N24 1_555 1_555
C38 N25 1_555 1_555
C38 N27 1_555 1_555
C39 N26 1_555 1_555
C40 N28 1_555 1_555
C41 N1 1_555 1_555
C41 N26 1_555 1_555
C42 N3 1_555 1_555
C42 N28 1_555 1_555
C47 C48 1_555 1_555
N30 C49 1_555 1_555
C57 C62 1_555 1_555
C61 C62 1_555 1_555

#END
