
#######################################################################
#
#                 Cambridge Crystallographic Data Centre
#                                CCDC 
#
#######################################################################
#
# If this CIF has been generated from an entry in the Cambridge 
# Structural Database, then it will include bibliographic, chemical, 
# crystal, experimental, refinement or atomic coordinate data resulting 
# from the CCDC's data processing and validation procedures.
#
#######################################################################

data_GILLEU
_chemical_formula_moiety         
'C39 H31 N4 O4 S2 1+,Cl1 O4 1-,0.6(C1 H2 Cl2),0.4(C1 H1 Cl3)'
_chemical_name_systematic        
'3-(3-(1,3-Dioxo-1,3-dihydro-2H-isoindol-2-yl)propyl)-2-(3-(3-(3-(1,3-dioxo-1,3-dihydro-2H-isoindol-2-yl)propyl)-1,3-benzothiazol-2(3H)-ylidene)prop-1-en-1-yl)-1,3-benzothiazol-3-ium perchlorate dichloromethane chloroform solvate'
_symmetry_cell_setting           triclinic
_symmetry_space_group_name_H-M   'P -1'
_symmetry_Int_Tables_number      2
_space_group_name_Hall           '-P 1'
loop_
_symmetry_equiv_pos_site_id
_symmetry_equiv_pos_as_xyz
1 x,y,z
2 -x,-y,-z
_cell_length_a                   9.5883(11)
_cell_length_b                   14.3371(17)
_cell_length_c                   14.9796(18)
_cell_angle_alpha                69.794(5)
_cell_angle_beta                 87.688(5)
_cell_angle_gamma                89.958(5)
_cell_volume                     1930.73
_exptl_crystal_colour            'dark red'
_exptl_crystal_description       block
_cell_formula_units_Z            2
loop_
_atom_site_label
_atom_site_type_symbol
_atom_site_fract_x
_atom_site_fract_y
_atom_site_fract_z
S1 S 0.6046(5) 0.4030(3) 0.4129(3)
S2 S 0.5788(5) 0.6185(3) 0.0618(3)
O5 O -0.0693(16) 0.1243(10) 0.6317(11)
O6 O 0.3182(15) 0.1020(10) 0.4467(11)
O7 O -0.0791(14) 0.8636(10) -0.0934(11)
O8 O 0.3498(17) 0.8413(13) 0.0407(11)
N1 N 0.3755(14) 0.3892(10) 0.5136(10)
N2 N 0.3490(15) 0.5969(11) -0.0115(10)
N3 N 0.1226(18) 0.1395(11) 0.5318(11)
N4 N 0.1291(16) 0.8286(11) -0.0160(10)
C1 C 0.6104(16) 0.3546(12) 0.5386(12)
C2 C 0.7272(19) 0.3200(14) 0.5928(14)
H1 H 0.8171 0.3209 0.5634
C3 C 0.707(2) 0.2847(15) 0.6898(15)
H2 H 0.7842 0.2614 0.7291
C4 C 0.574(2) 0.2831(14) 0.7310(14)
H3 H 0.5626 0.2582 0.7985
C5 C 0.458(2) 0.3156(13) 0.6793(13)
H4 H 0.3683 0.3151 0.7091
C6 C 0.4787(17) 0.3504(12) 0.5783(12)
C7 C 0.4290(17) 0.4194(12) 0.4185(12)
C8 C 0.344(2) 0.4564(13) 0.3396(12)
H5 H 0.2453 0.4531 0.3471
C9 C 0.4098(18) 0.4974(12) 0.2518(13)
H6 H 0.5086 0.5042 0.2478
C10 C 0.3355(17) 0.5304(12) 0.1657(11)
H7 H 0.2371 0.5216 0.1673
C11 C 0.4113(16) 0.5770(11) 0.0771(11)
C12 C 0.438(2) 0.6475(13) -0.0886(14)
C13 C 0.4049(19) 0.6758(15) -0.1835(13)
H8 H 0.3162 0.6623 -0.2028
C14 C 0.5132(19) 0.7263(13) -0.2493(13)
H9 H 0.4930 0.7500 -0.3149
C15 C 0.645(2) 0.7437(16) -0.2261(14)
H10 H 0.7139 0.7747 -0.2745
C16 C 0.677(2) 0.7148(13) -0.1279(13)
H11 H 0.7646 0.7290 -0.1082
C17 C 0.568(2) 0.6632(13) -0.0615(13)
C18 C 0.227(2) 0.3908(13) 0.5404(14)
H12 H 0.1782 0.4348 0.4848
H13 H 0.2175 0.4196 0.5916
C19 C 0.1574(19) 0.2889(13) 0.5744(13)
H14 H 0.2124 0.2426 0.6251
H15 H 0.0632 0.2935 0.6021
C20 C 0.144(2) 0.2479(14) 0.4943(15)
H16 H 0.0649 0.2796 0.4554
H17 H 0.2304 0.2643 0.4528
C21 C 0.025(2) 0.0908(16) 0.5993(14)
C22 C 0.055(2) -0.0218(13) 0.6202(13)
C23 C -0.015(2) -0.1021(15) 0.6826(14)
H18 H -0.0937 -0.0961 0.7209
C24 C 0.039(2) -0.1963(14) 0.6854(15)
H19 H -0.0076 -0.2555 0.7250
C25 C 0.154(2) -0.2027(15) 0.6330(15)
H20 H 0.1893 -0.2668 0.6403
C26 C 0.223(2) -0.1198(15) 0.5687(15)
H21 H 0.3028 -0.1254 0.5309
C27 C 0.168(2) -0.0274(13) 0.5637(14)
C28 C 0.218(2) 0.0759(13) 0.5043(13)
C29 C 0.2016(18) 0.5738(14) -0.0224(14)
H22 H 0.1628 0.5260 0.0384
H23 H 0.1967 0.5424 -0.0716
C30 C 0.114(2) 0.6687(15) -0.0512(13)
H24 H 0.0181 0.6517 -0.0628
H25 H 0.1544 0.7163 -0.1117
C31 C 0.108(3) 0.7204(14) 0.0263(13)
H26 H 0.0154 0.7062 0.0608
H27 H 0.1800 0.6920 0.0730
C32 C 0.031(2) 0.8896(14) -0.0700(13)
C33 C 0.0906(19) 0.9928(13) -0.0962(12)
C34 C 0.038(3) 1.0821(15) -0.1515(14)
H28 H -0.0466 1.0858 -0.1833
C35 C 0.115(2) 1.1675(14) -0.1591(14)
H29 H 0.0807 1.2316 -0.1929
C36 C 0.245(3) 1.1571(15) -0.1160(17)
H30 H 0.2950 1.2164 -0.1228
C37 C 0.304(3) 1.0692(17) -0.0652(16)
H31 H 0.3937 1.0647 -0.0390
C38 C 0.218(2) 0.9852(17) -0.0556(16)
C39 C 0.249(2) 0.8778(17) -0.0022(16)
Cl2 Cl 0.6445(7) -0.0084(5) 0.8047(5)
Cl3 Cl 0.3889(10) 0.0378(10) 0.7077(8)
C40 C 0.5717(8) 0.0394(7) 0.6931(6)
H32 H 0.6002 -0.0013 0.6540
H33 H 0.6059 0.1083 0.6597
Cl1 Cl -0.0644(4) 0.5106(3) 0.2603(3)
O1 O -0.0742(17) 0.4375(10) 0.3558(10)
O2 O 0.0337(16) 0.5873(11) 0.2614(11)
O3 O -0.2000(14) 0.5478(14) 0.2390(10)
O4 O -0.0119(17) 0.4645(13) 0.1963(12)
Cl4? Cl 0.3638(8) -0.0712(7) 0.7715(6)
Cl5? Cl 0.4972(8) 0.1029(7) 0.6331(6)
C41? C 0.5242(8) -0.0144(7) 0.7208(6)
H34? H 0.5673 -0.0570 0.6868
loop_
_geom_bond_atom_site_label_1
_geom_bond_atom_site_label_2
_geom_bond_site_symmetry_1
_geom_bond_site_symmetry_2
Cl1 O1 1_555 1_555
O2 Cl1 1_555 1_555
O3 Cl1 1_555 1_555
O4 Cl1 1_555 1_555
S1 C1 1_555 1_555
S2 C11 1_555 1_555
O5 C21 1_555 1_555
O6 C28 1_555 1_555
O7 C32 1_555 1_555
O8 C39 1_555 1_555
N1 C6 1_555 1_555
N2 C11 1_555 1_555
N3 C20 1_555 1_555
N4 C31 1_555 1_555
C1 C2 1_555 1_555
C2 H1 1_555 1_555
C3 C2 1_555 1_555
H2 C3 1_555 1_555
C4 C3 1_555 1_555
H3 C4 1_555 1_555
C5 C4 1_555 1_555
H4 C5 1_555 1_555
C6 C1 1_555 1_555
C7 S1 1_555 1_555
C8 C7 1_555 1_555
H5 C8 1_555 1_555
C9 C8 1_555 1_555
H6 C9 1_555 1_555
C10 C9 1_555 1_555
H7 C10 1_555 1_555
C11 C10 1_555 1_555
C12 N2 1_555 1_555
C13 C12 1_555 1_555
H8 C13 1_555 1_555
C14 C13 1_555 1_555
H9 C14 1_555 1_555
C15 C14 1_555 1_555
H10 C15 1_555 1_555
C16 C15 1_555 1_555
H11 C16 1_555 1_555
C17 S2 1_555 1_555
C18 N1 1_555 1_555
H12 C18 1_555 1_555
H13 C18 1_555 1_555
C19 C18 1_555 1_555
H14 C19 1_555 1_555
H15 C19 1_555 1_555
C20 C19 1_555 1_555
H16 C20 1_555 1_555
H17 C20 1_555 1_555
C21 N3 1_555 1_555
C22 C21 1_555 1_555
C23 C22 1_555 1_555
H18 C23 1_555 1_555
C24 C23 1_555 1_555
H19 C24 1_555 1_555
C25 C24 1_555 1_555
H20 C25 1_555 1_555
C26 C25 1_555 1_555
H21 C26 1_555 1_555
C27 C22 1_555 1_555
C28 N3 1_555 1_555
C29 N2 1_555 1_555
H22 C29 1_555 1_555
H23 C29 1_555 1_555
C30 C29 1_555 1_555
H24 C30 1_555 1_555
H25 C30 1_555 1_555
C31 C30 1_555 1_555
H26 C31 1_555 1_555
H27 C31 1_555 1_555
C32 N4 1_555 1_555
C33 C32 1_555 1_555
C34 C33 1_555 1_555
H28 C34 1_555 1_555
C35 C34 1_555 1_555
H29 C35 1_555 1_555
C36 C35 1_555 1_555
H30 C36 1_555 1_555
C37 C36 1_555 1_555
H31 C37 1_555 1_555
C38 C33 1_555 1_555
C39 N4 1_555 1_555
Cl2 C40 1_555 1_555
Cl3 C40 1_555 1_555
C40 H32 1_555 1_555
H33 C40 1_555 1_555
N1 C7 1_555 1_555
C5 C6 1_555 1_555
C12 C17 1_555 1_555
C16 C17 1_555 1_555
C26 C27 1_555 1_555
C27 C28 1_555 1_555
C37 C38 1_555 1_555
C38 C39 1_555 1_555

#END
