
#######################################################################
#
#                 Cambridge Crystallographic Data Centre
#                                CCDC 
#
#######################################################################
#
# If this CIF has been generated from an entry in the Cambridge 
# Structural Database, then it will include bibliographic, chemical, 
# crystal, experimental, refinement or atomic coordinate data resulting 
# from the CCDC's data processing and validation procedures.
#
#######################################################################

data_GILREB
_chemical_formula_moiety         'C20 H21 N1 O3 S1'
_chemical_name_systematic        
N-methyl-N-[3-(2-phenylethyl)-1-benzoxepin-2-yl]methanesulfonamide
_symmetry_cell_setting           monoclinic
_symmetry_space_group_name_H-M   'P 21/c'
_symmetry_Int_Tables_number      14
_space_group_name_Hall           '-P 2ybc'
loop_
_symmetry_equiv_pos_site_id
_symmetry_equiv_pos_as_xyz
1 x,y,z
2 -x,1/2+y,1/2-z
3 -x,-y,-z
4 x,1/2-y,1/2+z
_cell_length_a                   13.5862(3)
_cell_length_b                   9.9930(2)
_cell_length_c                   13.1956(3)
_cell_angle_alpha                90
_cell_angle_beta                 94.489(2)
_cell_angle_gamma                90
_cell_volume                     1786.03
_exptl_crystal_colour            colorless
_exptl_crystal_description       block
_cell_formula_units_Z            4
loop_
_atom_site_label
_atom_site_type_symbol
_atom_site_fract_x
_atom_site_fract_y
_atom_site_fract_z
S1 S 0.05912(3) 0.02624(4) 0.16384(3)
O1 O 0.24904(7) 0.20732(10) 0.24595(7)
O2 O 0.10977(8) -0.04335(12) 0.08930(9)
N1 N 0.13433(9) 0.03350(13) 0.26826(9)
O3 O -0.03181(9) -0.02661(15) 0.19438(10)
C1 C 0.30794(11) -0.01839(15) 0.25655(10)
C2 C 0.30345(11) -0.14931(15) 0.46309(11)
C3 C 0.41027(11) 0.02396(16) 0.24813(11)
H1 H 0.450461 -0.032817 0.210972
C4 C 0.34405(12) -0.03254(16) 0.50623(12)
H2 H 0.401939 0.003959 0.481086
C5 C 0.40332(11) 0.23430(15) 0.34772(11)
C6 C 0.45549(11) 0.29841(16) 0.42973(11)
H3 H 0.524318 0.282678 0.442303
C7 C 0.21923(11) -0.20160(16) 0.50253(12)
H4 H 0.190512 -0.281493 0.474636
C8 C 0.34569(11) -0.21509(15) 0.37304(12)
H5 H 0.338405 -0.313357 0.378319
H6 H 0.417041 -0.194513 0.374127
C9 C 0.40878(12) 0.38392(16) 0.49255(12)
H7 H 0.445113 0.424130 0.549001
C10 C 0.25582(12) 0.35211(15) 0.39127(12)
H8 H 0.187805 0.372035 0.376762
C11 C 0.30298(11) 0.26380(15) 0.33070(11)
C12 C 0.23440(10) 0.06947(15) 0.25730(10)
C13 C 0.45238(11) 0.13534(16) 0.28798(11)
H9 H 0.519545 0.151065 0.276400
C14 C 0.30140(13) 0.03151(17) 0.58540(12)
H10 H 0.329915 0.111350 0.613595
C15 C 0.21710(13) -0.02119(17) 0.62331(12)
H11 H 0.187285 0.022594 0.677009
C16 C 0.09144(11) 0.08310(18) 0.36069(12)
H12 H 0.075366 0.178283 0.352495
H13 H 0.139281 0.071213 0.419530
H14 H 0.031242 0.032697 0.371332
C17 C 0.17696(12) -0.13838(17) 0.58191(12)
H15 H 0.119918 -0.175737 0.608201
C18 C 0.03875(14) 0.19107(18) 0.12046(14)
H16 H 0.101647 0.231119 0.104846
H17 H 0.009951 0.243808 0.173333
H18 H -0.006702 0.190138 0.059012
C19 C 0.30885(13) 0.41146(16) 0.47358(12)
H19 H 0.276884 0.470701 0.516766
C20 C 0.29342(11) -0.16661(15) 0.27134(11)
H20 H 0.320080 -0.215949 0.214465
H21 H 0.221940 -0.186291 0.270451
loop_
_geom_bond_atom_site_label_1
_geom_bond_atom_site_label_2
_geom_bond_site_symmetry_1
_geom_bond_site_symmetry_2
S1 O2 1_555 1_555
O1 C11 1_555 1_555
N1 S1 1_555 1_555
O3 S1 1_555 1_555
C1 C3 1_555 1_555
C2 C4 1_555 1_555
C3 H1 1_555 1_555
C4 H2 1_555 1_555
C5 C6 1_555 1_555
C6 H3 1_555 1_555
C7 C2 1_555 1_555
H4 C7 1_555 1_555
C8 C2 1_555 1_555
H5 C8 1_555 1_555
H6 C8 1_555 1_555
C9 C6 1_555 1_555
H7 C9 1_555 1_555
C10 H8 1_555 1_555
C11 C5 1_555 1_555
C12 O1 1_555 1_555
C13 C3 1_555 1_555
H9 C13 1_555 1_555
C14 C4 1_555 1_555
H10 C14 1_555 1_555
C15 C14 1_555 1_555
H11 C15 1_555 1_555
C16 N1 1_555 1_555
H12 C16 1_555 1_555
H13 C16 1_555 1_555
H14 C16 1_555 1_555
C17 C7 1_555 1_555
H15 C17 1_555 1_555
C18 S1 1_555 1_555
H16 C18 1_555 1_555
H17 C18 1_555 1_555
H18 C18 1_555 1_555
C19 C9 1_555 1_555
H19 C19 1_555 1_555
C20 C1 1_555 1_555
H20 C20 1_555 1_555
H21 C20 1_555 1_555
N1 C12 1_555 1_555
C1 C12 1_555 1_555
C5 C13 1_555 1_555
C8 C20 1_555 1_555
C10 C11 1_555 1_555
C10 C19 1_555 1_555
C15 C17 1_555 1_555

#END
