
#######################################################################
#
#                 Cambridge Crystallographic Data Centre
#                                CCDC 
#
#######################################################################
#
# If this CIF has been generated from an entry in the Cambridge 
# Structural Database, then it will include bibliographic, chemical, 
# crystal, experimental, refinement or atomic coordinate data resulting 
# from the CCDC's data processing and validation procedures.
#
#######################################################################

data_GILYEH
_chemical_formula_moiety         'C26 H34 N2 O8'
_chemical_name_systematic        
"Ethyl 5-(2,2-dimethyl-1,3-dioxolan-4-yl)-1',2,2-trimethyl-2''-oxo-1'',2'',3a,6a-tetrahydrodispiro[furo[2,3-d][1,3]dioxole-6,4'-pyrrolidine-2',3''-indole]-3'-carboxylate"
_symmetry_cell_setting           monoclinic
_symmetry_space_group_name_H-M   'P 21'
_symmetry_Int_Tables_number      4
_space_group_name_Hall           'P 2yb'
loop_
_symmetry_equiv_pos_site_id
_symmetry_equiv_pos_as_xyz
1 x,y,z
2 -x,1/2+y,-z
_cell_length_a                   10.1664(8)
_cell_length_b                   9.1320(7)
_cell_length_c                   14.7366(11)
_cell_angle_alpha                90
_cell_angle_beta                 100.027(4)
_cell_angle_gamma                90
_cell_volume                     1347.24
_exptl_crystal_colour            yellow
_chemical_melting_point          '231 deg.C'
_cell_formula_units_Z            2
loop_
_atom_site_label
_atom_site_type_symbol
_atom_site_fract_x
_atom_site_fract_y
_atom_site_fract_z
C1 C 0.9778(8) 0.7571(8) 0.5082(4)
H1 H 0.9449 0.8457 0.5314
H2 H 1.0687 0.7415 0.5375
H3 H 0.9239 0.6760 0.5212
C2 C 1.0978(5) 0.8249(8) 0.3799(5)
H4 H 1.0899 0.8284 0.3140
H5 H 1.1696 0.7604 0.4049
H6 H 1.1160 0.9214 0.4048
C3 C 0.9712(4) 0.7702(5) 0.4044(3)
C4 C 0.7508(4) 0.7788(4) 0.3301(3)
H7 H 0.6799 0.7947 0.3664
C5 C 0.8006(3) 0.6187(3) 0.3375(2)
H8 H 0.7616 0.5608 0.3821
C6 C 0.7635(3) 0.5603(3) 0.2375(2)
C7 C 0.7707(3) 0.7048(3) 0.1849(2)
H9 H 0.8649 0.7330 0.1912
C8 C 0.7087(4) 0.7151(4) 0.0838(2)
H10 H 0.6150 0.6843 0.0742
C9 C 0.7215(5) 0.8665(5) 0.0429(3)
H11 H 0.6515 0.8837 -0.0097
H12 H 0.7183 0.9426 0.0884
C10 C 0.8721(5) 0.7162(5) -0.0102(3)
C11 C 0.8426(9) 0.6906(12) -0.1128(4)
H13 H 0.7492 0.7058 -0.1351
H14 H 0.8661 0.5919 -0.1258
H15 H 0.8938 0.7576 -0.1428
C12 C 1.0162(6) 0.6845(10) 0.0307(6)
H16 H 1.0733 0.7517 0.0059
H17 H 1.0379 0.5861 0.0159
H18 H 1.0290 0.6956 0.0965
C13 C 0.8576(3) 0.4379(3) 0.2179(2)
H19 H 0.8508 0.4214 0.1522
H20 H 0.9497 0.4598 0.2443
C14 C 0.6282(3) 0.4783(3) 0.2164(2)
H21 H 0.5994 0.4824 0.1494
C15 C 0.6623(3) 0.3137(3) 0.2408(2)
C16 C 0.6036(4) 0.2174(3) 0.1545(2)
C17 C 0.6007(3) 0.2409(4) 0.3152(2)
C18 C 0.5226(4) 0.1232(4) 0.2770(3)
C19 C 0.4570(6) 0.0347(6) 0.3323(4)
H22 H 0.4050 -0.0440 0.3073
C20 C 0.4708(7) 0.0661(6) 0.4230(5)
H23 H 0.4265 0.0086 0.4603
C21 C 0.5492(6) 0.1815(6) 0.4621(3)
H24 H 0.5575 0.2000 0.5249
C22 C 0.6151(4) 0.2693(5) 0.4085(3)
H25 H 0.6684 0.3463 0.4347
C23 C 0.5123(3) 0.5322(4) 0.2583(3)
C24 C 0.2768(4) 0.5214(7) 0.2456(4)
H26 H 0.2003 0.5108 0.1965
H27 H 0.2814 0.6229 0.2651
C25 C 0.2578(5) 0.4272(8) 0.3242(5)
H28 H 0.2725 0.3267 0.3097
H29 H 0.1684 0.4386 0.3360
H30 H 0.3203 0.4552 0.3780
C26 C 0.8733(4) 0.1753(4) 0.2499(3)
H31 H 0.8711 0.1589 0.1853
H32 H 0.8273 0.0971 0.2747
H33 H 0.9644 0.1785 0.2811
N1 N 0.8083(3) 0.3134(3) 0.26288(19)
N2 N 0.5259(4) 0.1116(4) 0.1837(2)
H34 H 0.4839 0.0455 0.1484
O1 O 0.8466(4) 0.8607(4) 0.0166(3)
O2 O 0.7838(3) 0.6241(3) 0.03207(19)
O3 O 0.7058(3) 0.8081(3) 0.23619(19)
O4 O 0.8649(3) 0.8624(3) 0.3642(3)
O5 O 0.9414(3) 0.6314(3) 0.3607(2)
O6 O 0.6257(4) 0.2332(4) 0.07666(19)
O7 O 0.5176(4) 0.6024(5) 0.3269(3)
O8 O 0.3983(3) 0.4841(4) 0.2102(2)
loop_
_geom_bond_atom_site_label_1
_geom_bond_atom_site_label_2
_geom_bond_site_symmetry_1
_geom_bond_site_symmetry_2
C1 H1 1_555 1_555
H2 C1 1_555 1_555
H3 C1 1_555 1_555
C2 H4 1_555 1_555
H5 C2 1_555 1_555
H6 C2 1_555 1_555
C3 C1 1_555 1_555
C4 H7 1_555 1_555
C5 C4 1_555 1_555
H8 C5 1_555 1_555
C6 C5 1_555 1_555
C7 C6 1_555 1_555
H9 C7 1_555 1_555
C8 C7 1_555 1_555
H10 C8 1_555 1_555
C9 C8 1_555 1_555
H11 C9 1_555 1_555
H12 C9 1_555 1_555
C10 C11 1_555 1_555
C11 H13 1_555 1_555
H14 C11 1_555 1_555
H15 C11 1_555 1_555
C12 C10 1_555 1_555
H16 C12 1_555 1_555
H17 C12 1_555 1_555
H18 C12 1_555 1_555
C13 C6 1_555 1_555
H19 C13 1_555 1_555
H20 C13 1_555 1_555
C14 C6 1_555 1_555
H21 C14 1_555 1_555
C15 C14 1_555 1_555
C16 C15 1_555 1_555
C17 C15 1_555 1_555
C18 C17 1_555 1_555
C19 C18 1_555 1_555
H22 C19 1_555 1_555
C20 C19 1_555 1_555
H23 C20 1_555 1_555
C21 C20 1_555 1_555
H24 C21 1_555 1_555
C22 C17 1_555 1_555
H25 C22 1_555 1_555
C23 C14 1_555 1_555
C24 H26 1_555 1_555
H27 C24 1_555 1_555
C25 C24 1_555 1_555
H28 C25 1_555 1_555
H29 C25 1_555 1_555
H30 C25 1_555 1_555
C26 H31 1_555 1_555
H32 C26 1_555 1_555
H33 C26 1_555 1_555
N1 C13 1_555 1_555
N2 C16 1_555 1_555
H34 N2 1_555 1_555
O1 C9 1_555 1_555
O2 C8 1_555 1_555
O3 C4 1_555 1_555
O4 C3 1_555 1_555
O5 C3 1_555 1_555
O6 C16 1_555 1_555
O7 C23 1_555 1_555
O8 C23 1_555 1_555
C2 C3 1_555 1_555
C4 O4 1_555 1_555
C5 O5 1_555 1_555
C7 O3 1_555 1_555
C10 O1 1_555 1_555
C10 O2 1_555 1_555
C15 N1 1_555 1_555
C18 N2 1_555 1_555
C21 C22 1_555 1_555
C24 O8 1_555 1_555
C26 N1 1_555 1_555

#END
