
#######################################################################
#
#                 Cambridge Crystallographic Data Centre
#                                CCDC 
#
#######################################################################
#
# If this CIF has been generated from an entry in the Cambridge 
# Structural Database, then it will include bibliographic, chemical, 
# crystal, experimental, refinement or atomic coordinate data resulting 
# from the CCDC's data processing and validation procedures.
#
#######################################################################

data_GIMBOV
_chemical_formula_moiety         'C16 H13 N1 O1'
_chemical_name_systematic        1-Methyl-3-phenylquinolin-2(1H)-one
_symmetry_cell_setting           monoclinic
_symmetry_space_group_name_H-M   'P 21/c'
_symmetry_Int_Tables_number      14
_space_group_name_Hall           '-P 2ybc'
loop_
_symmetry_equiv_pos_site_id
_symmetry_equiv_pos_as_xyz
1 x,y,z
2 -x,1/2+y,1/2-z
3 -x,-y,-z
4 x,1/2-y,1/2+z
_cell_length_a                   11.237(2)
_cell_length_b                   14.637(3)
_cell_length_c                   7.2453(14)
_cell_angle_alpha                90
_cell_angle_beta                 99.56(3)
_cell_angle_gamma                90
_cell_volume                     1175.13
_cell_formula_units_Z            4
loop_
_atom_site_label
_atom_site_type_symbol
_atom_site_fract_x
_atom_site_fract_y
_atom_site_fract_z
O1 O 0.56358(11) 0.18045(8) 0.26780(18)
N1 N 0.38365(12) 0.24192(9) 0.13773(17)
C1 C 0.30901(14) 0.31647(10) 0.0874(2)
C2 C 0.18690(15) 0.30632(13) 0.0134(2)
H1 H 0.1530 0.2483 -0.0007
C3 C 0.11653(16) 0.38189(14) -0.0387(3)
H2 H 0.0354 0.3743 -0.0886
C4 C 0.16470(16) 0.46912(13) -0.0181(2)
H3 H 0.1165 0.5196 -0.0556
C5 C 0.28408(15) 0.48070(12) 0.0581(2)
H4 H 0.3161 0.5393 0.0738
C6 C 0.35780(14) 0.40532(11) 0.1123(2)
C7 C 0.48240(14) 0.41454(11) 0.1904(2)
H5 H 0.5152 0.4729 0.2068
C8 C 0.55440(14) 0.34217(10) 0.2411(2)
C9 C 0.50455(15) 0.24932(11) 0.2184(2)
C10 C 0.33537(16) 0.14901(11) 0.1049(2)
H6 H 0.2780 0.1373 0.1865
H7 H 0.4002 0.1057 0.1296
H8 H 0.2964 0.1434 -0.0229
C11 C 0.68431(14) 0.35315(11) 0.3182(2)
C12 C 0.77209(15) 0.30516(12) 0.2432(2)
H9 H 0.7493 0.2634 0.1472
C13 C 0.89298(16) 0.31945(13) 0.3112(3)
H10 H 0.9512 0.2873 0.2604
C14 C 0.92787(17) 0.38117(14) 0.4542(3)
H11 H 1.0093 0.3909 0.4990
C15 C 0.84214(17) 0.42787(13) 0.5296(3)
H12 H 0.8656 0.4691 0.6265
C16 C 0.72117(15) 0.41439(12) 0.4630(2)
H13 H 0.6637 0.4466 0.5154
loop_
_geom_bond_atom_site_label_1
_geom_bond_atom_site_label_2
_geom_bond_site_symmetry_1
_geom_bond_site_symmetry_2
O1 C9 1_555 1_555
N1 C1 1_555 1_555
C1 C2 1_555 1_555
C2 H1 1_555 1_555
C3 C2 1_555 1_555
H2 C3 1_555 1_555
C4 C3 1_555 1_555
H3 C4 1_555 1_555
C5 C4 1_555 1_555
H4 C5 1_555 1_555
C6 C1 1_555 1_555
C7 C6 1_555 1_555
H5 C7 1_555 1_555
C8 C7 1_555 1_555
C9 N1 1_555 1_555
C10 N1 1_555 1_555
H6 C10 1_555 1_555
H7 C10 1_555 1_555
H8 C10 1_555 1_555
C11 C8 1_555 1_555
C12 C11 1_555 1_555
H9 C12 1_555 1_555
C13 C12 1_555 1_555
H10 C13 1_555 1_555
C14 C13 1_555 1_555
H11 C14 1_555 1_555
C15 C14 1_555 1_555
H12 C15 1_555 1_555
C16 C11 1_555 1_555
H13 C16 1_555 1_555
C5 C6 1_555 1_555
C8 C9 1_555 1_555
C15 C16 1_555 1_555

#END
