
#######################################################################
#
#                 Cambridge Crystallographic Data Centre
#                                CCDC 
#
#######################################################################
#
# If this CIF has been generated from an entry in the Cambridge 
# Structural Database, then it will include bibliographic, chemical, 
# crystal, experimental, refinement or atomic coordinate data resulting 
# from the CCDC's data processing and validation procedures.
#
#######################################################################

data_GIMKIZ
_chemical_formula_moiety         'C27 H25 F1 N2 O5 S1'
_chemical_name_systematic        
2-(4-butylphenyl)-2-(fluoromethyl)-1'-[(4-nitrophenyl)sulfonyl]spiro[cyclopropane-1,3'-indol]-2'(1'H)-one
_symmetry_cell_setting           monoclinic
_symmetry_space_group_name_H-M   'P 21'
_symmetry_Int_Tables_number      4
_space_group_name_Hall           'P 2yb'
loop_
_symmetry_equiv_pos_site_id
_symmetry_equiv_pos_as_xyz
1 x,y,z
2 -x,1/2+y,-z
_cell_length_a                   13.420(2)
_cell_length_b                   5.3749(8)
_cell_length_c                   17.821(3)
_cell_angle_alpha                90
_cell_angle_beta                 105.381(5)
_cell_angle_gamma                90
_cell_volume                     1239.41
_exptl_crystal_colour            colorless
_exptl_crystal_description       block
_cell_formula_units_Z            2
loop_
_atom_site_label
_atom_site_type_symbol
_atom_site_fract_x
_atom_site_fract_y
_atom_site_fract_z
S1 S 0.42560(12) 0.4336(3) 0.14491(8)
O1 O 0.3690(3) 0.5947(9) 0.1818(2)
O2 O 0.4952(3) 0.5321(8) 0.1043(2)
O3 O 0.1752(5) -0.4349(17) -0.0928(4)
O4 O 0.0692(5) -0.3673(16) -0.0278(4)
O5 O 0.6026(3) 0.0833(9) 0.1459(2)
F1 F 0.8168(3) 0.2829(8) 0.2859(2)
N1 N 0.4942(3) 0.2511(10) 0.2153(2)
C1 C 0.7532(4) 0.1408(12) 0.4427(3)
H1 H 0.7075 0.2637 0.4177
C2 C 0.7997(5) 0.1584(16) 0.5209(3)
H2 H 0.7833 0.2916 0.5487
C3 C 0.8703(5) -0.0162(16) 0.5594(4)
C4 C 0.8907(5) -0.2073(17) 0.5172(4)
H3 H 0.9390 -0.3252 0.5419
C5 C 0.8434(4) -0.2369(13) 0.4392(3)
H4 H 0.8582 -0.3754 0.4128
C6 C 0.7747(4) -0.0632(13) 0.4006(3)
C7 C 0.7313(4) -0.0775(13) 0.3136(3)
C8 C 0.6700(4) -0.2940(12) 0.2765(3)
H5 H 0.6584 -0.4263 0.3103
H6 H 0.6792 -0.3502 0.2271
C9 C 0.6119(4) -0.0490(13) 0.2770(3)
C10 C 0.5747(4) 0.0930(12) 0.2045(3)
C11 C 0.4690(4) 0.1776(12) 0.2867(3)
C12 C 0.5372(4) -0.0061(12) 0.3229(3)
C13 C 0.5264(5) -0.1135(13) 0.3903(3)
H7 H 0.5713 -0.2381 0.4151
C14 C 0.4465(6) -0.0308(19) 0.4205(4)
H8 H 0.4370 -0.1032 0.4655
C15 C 0.3817(5) 0.1570(19) 0.3844(4)
H9 H 0.3306 0.2146 0.4065
C16 C 0.3910(5) 0.2601(15) 0.3168(4)
H10 H 0.3456 0.3832 0.2917
C17 C 0.3411(4) 0.2241(12) 0.0851(3)
C18 C 0.3702(4) 0.0994(14) 0.0269(3)
H11 H 0.4333 0.1357 0.0171
C19 C 0.3067(5) -0.0787(16) -0.0168(3)
H12 H 0.3262 -0.1649 -0.0559
C20 C 0.2134(5) -0.1253(13) -0.0009(4)
C21 C 0.1817(5) 0.0001(16) 0.0553(4)
H13 H 0.1175 -0.0322 0.0638
C22 C 0.2463(5) 0.1745(15) 0.0990(3)
H14 H 0.2265 0.2598 0.1381
C23 C 0.8015(5) 0.0331(14) 0.2691(4)
H15 H 0.8674 -0.0528 0.2828
H16 H 0.7710 0.0116 0.2137
C24 C 0.9270(7) 0.012(3) 0.6464(5)
H17 H 0.9465 -0.1534 0.6672
H18 H 0.9905 0.1030 0.6500
C25 C 0.8737(11) 0.132(4) 0.6959(6)
H19 H 0.8165 0.0227 0.6969
H20 H 0.8433 0.2800 0.6681
C26 C 0.9202(13) 0.215(5) 0.7815(7)
H21 H 0.9625 0.3625 0.7838
H22 H 0.8659 0.2500 0.8066
C27 C 0.9830(14) 0.004(5) 0.8186(9)
H23 H 1.0137 0.0410 0.8725
H24 H 1.0364 -0.0274 0.7930
H25 H 0.9400 -0.1412 0.8147
N2 N 0.1480(5) -0.3221(16) -0.0447(4)
loop_
_geom_bond_atom_site_label_1
_geom_bond_atom_site_label_2
_geom_bond_site_symmetry_1
_geom_bond_site_symmetry_2
S1 O1 1_555 1_555
O2 S1 1_555 1_555
O3 N2 1_555 1_555
O4 N2 1_555 1_555
O5 C10 1_555 1_555
F1 C23 1_555 1_555
N1 S1 1_555 1_555
C1 H1 1_555 1_555
C2 C1 1_555 1_555
H2 C2 1_555 1_555
C3 C2 1_555 1_555
C4 C3 1_555 1_555
H3 C4 1_555 1_555
C5 C4 1_555 1_555
H4 C5 1_555 1_555
C6 C1 1_555 1_555
C7 C6 1_555 1_555
C8 C7 1_555 1_555
H5 C8 1_555 1_555
H6 C8 1_555 1_555
C9 C7 1_555 1_555
C10 N1 1_555 1_555
C11 N1 1_555 1_555
C12 C9 1_555 1_555
C13 C12 1_555 1_555
H7 C13 1_555 1_555
C14 C13 1_555 1_555
H8 C14 1_555 1_555
C15 C14 1_555 1_555
H9 C15 1_555 1_555
C16 C11 1_555 1_555
H10 C16 1_555 1_555
C17 S1 1_555 1_555
C18 C17 1_555 1_555
H11 C18 1_555 1_555
C19 C18 1_555 1_555
H12 C19 1_555 1_555
C20 C19 1_555 1_555
C21 C20 1_555 1_555
H13 C21 1_555 1_555
C22 C17 1_555 1_555
H14 C22 1_555 1_555
C23 C7 1_555 1_555
H15 C23 1_555 1_555
H16 C23 1_555 1_555
C24 C3 1_555 1_555
H17 C24 1_555 1_555
H18 C24 1_555 1_555
C25 C24 1_555 1_555
H19 C25 1_555 1_555
H20 C25 1_555 1_555
C26 C25 1_555 1_555
H21 C26 1_555 1_555
H22 C26 1_555 1_555
C27 C26 1_555 1_555
H23 C27 1_555 1_555
H24 C27 1_555 1_555
H25 C27 1_555 1_555
N2 C20 1_555 1_555
C5 C6 1_555 1_555
C8 C9 1_555 1_555
C9 C10 1_555 1_555
C11 C12 1_555 1_555
C15 C16 1_555 1_555
C21 C22 1_555 1_555

#END
