
#######################################################################
#
#                 Cambridge Crystallographic Data Centre
#                                CCDC 
#
#######################################################################
#
# If this CIF has been generated from an entry in the Cambridge 
# Structural Database, then it will include bibliographic, chemical, 
# crystal, experimental, refinement or atomic coordinate data resulting 
# from the CCDC's data processing and validation procedures.
#
#######################################################################

data_GIMROJ10
_chemical_formula_moiety         'C4 H8 O1,C13 H10 N4 O5'
_chemical_name_systematic        
'1,3-bis(m-Nitrophenyl)urea tetrahydrofuran clathrate'
_symmetry_cell_setting           triclinic
_symmetry_space_group_name_H-M   'P -1'
_symmetry_Int_Tables_number      2
_space_group_name_Hall           '-P 1'
loop_
_symmetry_equiv_pos_site_id
_symmetry_equiv_pos_as_xyz
1 x,y,z
2 -x,-y,-z
_cell_length_a                   9.586(3)
_cell_length_b                   11.636(4)
_cell_length_c                   8.289(3)
_cell_angle_alpha                107.24(3)
_cell_angle_beta                 93.94(3)
_cell_angle_gamma                86.73(3)
_cell_volume                     880.298
_exptl_crystal_colour            yellow
_chemical_melting_point          256-258deg.C
_cell_formula_units_Z            2
loop_
_atom_site_label
_atom_site_type_symbol
_atom_site_fract_x
_atom_site_fract_y
_atom_site_fract_z
C1 C 0.3027(2) 0.4208(2) 0.5285(2)
C2 C 0.2513(2) 0.3077(2) 0.4496(2)
C3 C 0.3162(2) 0.2100(2) 0.4879(2)
C4 C 0.4314(2) 0.2174(2) 0.5988(3)
C5 C 0.4823(2) 0.3296(2) 0.6750(3)
C6 C 0.4199(2) 0.4300(2) 0.6409(2)
C7 C 0.1343(2) 0.5385(2) 0.3930(2)
C8 C 0.0081(2) 0.7001(2) 0.2956(2)
C9 C -0.0857(2) 0.6279(2) 0.1786(2)
C10 C -0.1782(2) 0.6819(2) 0.0867(2)
C11 C -0.1817(2) 0.8023(2) 0.1004(3)
C12 C -0.0873(2) 0.8724(2) 0.2160(3)
C13 C 0.0051(2) 0.8226(2) 0.3128(3)
N1 N 0.2445(2) 0.5269(1) 0.5023(2)
N2 N 0.1053(2) 0.6565(1) 0.3984(2)
N3 N 0.2583(2) 0.0912(1) 0.4042(2)
N4 N -0.2818(2) 0.6057(1) -0.0300(2)
O1 O 0.0708(1) 0.4546(1) 0.3010(2)
O2 O 0.1592(2) 0.0847(1) 0.3029(2)
O3 O 0.3105(2) 0.0041(1) 0.4422(2)
O4 O -0.2772(2) 0.4985(1) -0.0441(2)
O5 O -0.3685(2) 0.6542(1) -0.1068(2)
H1 H 0.282(2) 0.594(2) 0.566(2)
H2 H 0.153(2) 0.708(2) 0.476(2)
H3 H 0.173(2) 0.299(1) 0.373(2)
H4 H 0.469(2) 0.147(1) 0.617(2)
H5 H 0.561(2) 0.339(2) 0.749(2)
H6 H 0.457(2) 0.507(1) 0.690(2)
H7 H -0.090(2) 0.543(1) 0.164(2)
H8 H -0.241(2) 0.837(1) 0.031(2)
H9 H -0.086(2) 0.956(2) 0.224(2)
H10 H 0.072(2) 0.872(1) 0.387(2)
O6 O 0.2511(2) 0.7841(1) 0.7164(2)
C14 C 0.3725(2) 0.8501(2) 0.7856(3)
C15 C 0.3728(2) 0.8775(2) 0.9719(3)
C16 C 0.2741(3) 0.7921(2) 0.9985(3)
C17 C 0.1701(3) 0.77842 0.8534(3)
H11 H 0.367(2) 0.919(2) 0.744(3)
H12 H 0.449(2) 0.799(2) 0.738(3)
H13 H 0.462(3) 0.871(2) 1.027(3)
H14 H 0.331(3) 0.965(2) 1.027(3)
H15 H 0.314(4) 0.701(3) 0.963(4)
H16 H 0.228(3) 0.821(2) 1.106(3)
H17 H 0.133(3) 0.710(2) 0.821(3)
H18 H 0.128(3) 0.860(3) 0.917(4)
loop_
_geom_bond_atom_site_label_1
_geom_bond_atom_site_label_2
_geom_bond_site_symmetry_1
_geom_bond_site_symmetry_2
C1 C2 1_555 1_555
C2 C3 1_555 1_555
C3 C4 1_555 1_555
C4 C5 1_555 1_555
C5 C6 1_555 1_555
C6 C1 1_555 1_555
C7 N1 1_555 1_555
C8 C9 1_555 1_555
C9 C10 1_555 1_555
C10 C11 1_555 1_555
C11 C12 1_555 1_555
C12 C13 1_555 1_555
C13 C8 1_555 1_555
N1 C1 1_555 1_555
N2 C7 1_555 1_555
N3 C3 1_555 1_555
N4 C10 1_555 1_555
O1 C7 1_555 1_555
O2 N3 1_555 1_555
O3 N3 1_555 1_555
O4 N4 1_555 1_555
O5 N4 1_555 1_555
O6 C14 1_555 1_555
C14 C15 1_555 1_555
C15 C16 1_555 1_555
C16 C17 1_555 1_555
C17 O6 1_555 1_555
H1 N1 1_555 1_555
H2 N2 1_555 1_555
H3 C2 1_555 1_555
H4 C4 1_555 1_555
H5 C5 1_555 1_555
H6 C6 1_555 1_555
H7 C9 1_555 1_555
H8 C11 1_555 1_555
H9 C12 1_555 1_555
H10 C13 1_555 1_555
H11 C14 1_555 1_555
H12 C14 1_555 1_555
H13 C15 1_555 1_555
H14 C15 1_555 1_555
H15 C16 1_555 1_555
H16 C16 1_555 1_555
H17 C17 1_555 1_555
H18 C17 1_555 1_555
C8 N2 1_555 1_555

#END
