
#######################################################################
#
#                 Cambridge Crystallographic Data Centre
#                                CCDC 
#
#######################################################################
#
# If this CIF has been generated from an entry in the Cambridge 
# Structural Database, then it will include bibliographic, chemical, 
# crystal, experimental, refinement or atomic coordinate data resulting 
# from the CCDC's data processing and validation procedures.
#
#######################################################################

data_GIMRAW
_chemical_formula_moiety         'C23 H36 O3'
_chemical_name_systematic        
'(5R,8R,9S,10S,13R,14S,17R,20R)-3-oxo-5\b-24-norcholanic acid'
_symmetry_cell_setting           orthorhombic
_symmetry_space_group_name_H-M   'P 21 21 21'
_symmetry_Int_Tables_number      19
_space_group_name_Hall           'P 2ac 2ab'
loop_
_symmetry_equiv_pos_site_id
_symmetry_equiv_pos_as_xyz
1 x,y,z
2 1/2-x,-y,1/2+z
3 -x,1/2+y,1/2-z
4 1/2+x,1/2-y,-z
_cell_length_a                   7.47160(11)
_cell_length_b                   8.72260(12)
_cell_length_c                   30.2407(5)
_cell_angle_alpha                90
_cell_angle_beta                 90
_cell_angle_gamma                90
_cell_volume                     1970.84
_exptl_crystal_colour            colorless
_exptl_crystal_description       needle
_chemical_melting_point          '457 K'
_cell_formula_units_Z            4
loop_
_atom_site_label
_atom_site_type_symbol
_atom_site_fract_x
_atom_site_fract_y
_atom_site_fract_z
O1 O 0.6083(3) -0.15613(19) 0.71061(5)
C1 C 0.2064(3) -0.1941(2) 0.76545(6)
H1 H 0.2247 -0.3012 0.7556
H2 H 0.0777 -0.1699 0.7619
O2 O -0.4200(2) 0.60243(15) 0.98058(5)
C2 C 0.3151(3) -0.0876(2) 0.73540(6)
H3 H 0.2799 -0.1034 0.7042
H4 H 0.2912 0.0207 0.7432
O3 O -0.2355(2) 0.78290(16) 1.00117(5)
H5 H -0.113(4) 0.811(3) 1.0039(9)
C3 C 0.5105(3) -0.1221(2) 0.74108(7)
C4 C 0.5744(3) -0.1164(2) 0.78827(7)
H6 H 0.5737 -0.0086 0.7985
H7 H 0.6993 -0.1538 0.7896
C5 C 0.4579(3) -0.2135(2) 0.81969(6)
H8 H 0.4779 -0.3234 0.8117
C6 C 0.5219(3) -0.1934(2) 0.86770(7)
H9 H 0.4666 -0.2736 0.8864
H10 H 0.6534 -0.2072 0.8689
C7 C 0.4741(3) -0.0358(2) 0.88631(6)
H11 H 0.5102 -0.0307 0.9178
H12 H 0.5414 0.0440 0.8700
C8 C 0.2742(3) -0.00339(19) 0.88256(6)
H13 H 0.2081 -0.0786 0.9014
C9 C 0.2100(3) -0.02122(19) 0.83429(6)
H14 H 0.2809 0.0542 0.8166
C10 C 0.2553(3) -0.1823(2) 0.81482(6)
C11 C 0.0154(3) 0.0250(2) 0.82891(6)
H15 H -0.0607 -0.0536 0.8432
H16 H -0.0142 0.0256 0.7970
C12 C -0.0315(3) 0.1824(2) 0.84848(6)
H17 H -0.1623 0.1990 0.8464
H18 H 0.0286 0.2636 0.8311
C13 C 0.0272(3) 0.1943(2) 0.89724(6)
C14 C 0.2283(3) 0.1588(2) 0.89821(6)
H19 H 0.2869 0.2313 0.8771
C15 C 0.2882(3) 0.2058(2) 0.94461(6)
H20 H 0.4164 0.2345 0.9449
H21 H 0.2684 0.1218 0.9661
C16 C 0.1688(3) 0.3450(2) 0.95528(6)
H22 H 0.2419 0.4395 0.9568
H23 H 0.1086 0.3303 0.9841
C17 C 0.0279(3) 0.3582(2) 0.91774(6)
H24 H 0.0776 0.4296 0.8950
C18 C -0.0837(3) 0.0863(2) 0.92663(6)
H25 H -0.0719 -0.0191 0.9158
H26 H -0.2098 0.1171 0.9257
H27 H -0.0400 0.0922 0.9571
C19 C 0.1503(3) -0.3099(2) 0.83858(7)
H28 H 0.0220 -0.2968 0.8329
H29 H 0.1728 -0.3039 0.8705
H30 H 0.1891 -0.4100 0.8275
C20 C -0.1516(3) 0.4259(2) 0.93356(6)
H31 H -0.2007 0.3573 0.9571
C21 C -0.2902(3) 0.4377(2) 0.89678(6)
H32 H -0.2388 0.4934 0.8717
H33 H -0.3956 0.4928 0.9077
H34 H -0.3253 0.3345 0.8873
C22 C -0.1164(3) 0.5847(2) 0.95421(7)
H35 H -0.0129 0.5757 0.9745
H36 H -0.0816 0.6561 0.9302
C23 C -0.2696(3) 0.6550(2) 0.97937(6)
loop_
_geom_bond_atom_site_label_1
_geom_bond_atom_site_label_2
_geom_bond_site_symmetry_1
_geom_bond_site_symmetry_2
O1 C3 1_555 1_555
C1 H1 1_555 1_555
H2 C1 1_555 1_555
O2 C23 1_555 1_555
C2 C1 1_555 1_555
H3 C2 1_555 1_555
H4 C2 1_555 1_555
O3 H5 1_555 1_555
C3 C2 1_555 1_555
C4 C3 1_555 1_555
H6 C4 1_555 1_555
H7 C4 1_555 1_555
C5 C4 1_555 1_555
H8 C5 1_555 1_555
C6 C5 1_555 1_555
H9 C6 1_555 1_555
H10 C6 1_555 1_555
C7 C6 1_555 1_555
H11 C7 1_555 1_555
H12 C7 1_555 1_555
C8 C7 1_555 1_555
H13 C8 1_555 1_555
C9 C8 1_555 1_555
H14 C9 1_555 1_555
C10 C1 1_555 1_555
C11 C9 1_555 1_555
H15 C11 1_555 1_555
H16 C11 1_555 1_555
C12 C11 1_555 1_555
H17 C12 1_555 1_555
H18 C12 1_555 1_555
C13 C12 1_555 1_555
C14 C8 1_555 1_555
H19 C14 1_555 1_555
C15 C14 1_555 1_555
H20 C15 1_555 1_555
H21 C15 1_555 1_555
C16 C15 1_555 1_555
H22 C16 1_555 1_555
H23 C16 1_555 1_555
C17 C13 1_555 1_555
H24 C17 1_555 1_555
C18 C13 1_555 1_555
H25 C18 1_555 1_555
H26 C18 1_555 1_555
H27 C18 1_555 1_555
C19 C10 1_555 1_555
H28 C19 1_555 1_555
H29 C19 1_555 1_555
H30 C19 1_555 1_555
C20 C17 1_555 1_555
H31 C20 1_555 1_555
C21 C20 1_555 1_555
H32 C21 1_555 1_555
H33 C21 1_555 1_555
H34 C21 1_555 1_555
C22 C20 1_555 1_555
H35 C22 1_555 1_555
H36 C22 1_555 1_555
C23 O3 1_555 1_555
C5 C10 1_555 1_555
C9 C10 1_555 1_555
C13 C14 1_555 1_555
C16 C17 1_555 1_555
C22 C23 1_555 1_555

#END
