
#######################################################################
#
#                 Cambridge Crystallographic Data Centre
#                                CCDC 
#
#######################################################################
#
# If this CIF has been generated from an entry in the Cambridge 
# Structural Database, then it will include bibliographic, chemical, 
# crystal, experimental, refinement or atomic coordinate data resulting 
# from the CCDC's data processing and validation procedures.
#
#######################################################################

data_GIMWIK
_chemical_formula_moiety         'C32 H20'
_chemical_name_systematic        1-(2-(9-Anthryl)vinyl)pyrene
_symmetry_cell_setting           monoclinic
_symmetry_space_group_name_H-M   'P 21/c'
_symmetry_Int_Tables_number      14
_space_group_name_Hall           '-P 2ybc'
loop_
_symmetry_equiv_pos_site_id
_symmetry_equiv_pos_as_xyz
1 x,y,z
2 -x,1/2+y,1/2-z
3 -x,-y,-z
4 x,1/2-y,1/2+z
_cell_length_a                   24.8226(11)
_cell_length_b                   5.4310(3)
_cell_length_c                   30.8937(12)
_cell_angle_alpha                90
_cell_angle_beta                 97.148(4)
_cell_angle_gamma                90
_cell_volume                     4132.46
_exptl_crystal_colour            yellow
_exptl_crystal_description       needle
_cell_formula_units_Z            8
loop_
_atom_site_label
_atom_site_type_symbol
_atom_site_fract_x
_atom_site_fract_y
_atom_site_fract_z
C1 C 0.41108(13) 0.9008(8) 0.20795(12)
C2 C 0.56790(14) 0.7011(8) 0.09151(10)
C3 C 0.48787(14) 0.4598(8) 0.06808(11)
H1 H 0.4511 0.4300 0.0686
C4 C 0.57160(14) 0.3529(8) 0.04114(11)
C5 C 0.51253(13) 0.6539(8) 0.09251(10)
C6 C 0.65467(13) 0.5864(8) 0.06498(10)
C7 C 0.59798(13) 0.5442(7) 0.06564(10)
C8 C 0.47930(14) 0.8120(8) 0.11790(11)
H2 H 0.4881 0.9785 0.1193
C9 C 0.68201(15) 0.7765(8) 0.08985(11)
C10 C 0.68413(15) 0.4327(8) 0.03882(11)
C11 C 0.38176(15) 1.0762(8) 0.23138(12)
C12 C 0.34251(14) 1.2603(8) 0.16317(13)
C13 C 0.59725(15) 0.8880(8) 0.11641(11)
H3 H 0.5787 0.9886 0.1339
C14 C 0.37186(13) 1.0881(8) 0.13953(11)
C15 C 0.40657(13) 0.9135(7) 0.16207(11)
C16 C 0.65060(16) 0.9263(9) 0.11590(12)
H4 H 0.6677 1.0524 0.1328
C17 C 0.43890(14) 0.7424(8) 0.13859(11)
H5 H 0.4301 0.5759 0.1385
C18 C 0.73930(16) 0.4765(9) 0.03857(12)
H6 H 0.7589 0.3786 0.0214
C19 C 0.76558(16) 0.6628(10) 0.06333(13)
H7 H 0.8027 0.6865 0.0631
C20 C 0.73713(16) 0.8136(9) 0.08835(13)
H8 H 0.7550 0.9411 0.1043
C21 C 0.51676(14) 0.3106(9) 0.04306(12)
H9 H 0.4994 0.1809 0.0274
C22 C 0.34912(16) 1.2480(9) 0.20838(14)
H10 H 0.3307 1.3608 0.2238
C23 C 0.60279(16) 0.2010(9) 0.01476(12)
H11 H 0.5857 0.0740 -0.0019
C24 C 0.65602(16) 0.2412(9) 0.01401(12)
H12 H 0.6751 0.1410 -0.0032
C25 C 0.4214(2) 0.8990(10) 0.29949(14)
H13 H 0.4257 0.8993 0.3298
C26 C 0.36354(15) 1.1011(8) 0.09306(12)
H14 H 0.3807 0.9876 0.0768
C27 C 0.33126(16) 1.2749(10) 0.07226(14)
H15 H 0.3269 1.2801 0.0419
C28 C 0.30960(16) 1.4402(9) 0.14002(15)
H16 H 0.2915 1.5545 0.1553
C29 C 0.38869(18) 1.0658(9) 0.27787(13)
H17 H 0.3701 1.1771 0.2935
C30 C 0.44427(15) 0.7265(9) 0.23291(13)
H18 H 0.4632 0.6109 0.2185
C31 C 0.44931(18) 0.7229(10) 0.27727(13)
H19 H 0.4710 0.6052 0.2928
C32 C 0.30390(17) 1.4493(9) 0.09551(17)
H20 H 0.2822 1.5694 0.0806
C33 C 0.92280(15) 0.6178(8) -0.03227(12)
C34 C 0.88610(13) 0.4176(8) -0.03828(11)
C35 C 0.86126(14) 0.3558(8) -0.08109(11)
C36 C 0.87290(13) 0.2815(8) -0.00155(11)
C37 C 0.93267(15) 0.5456(8) 0.04527(12)
H21 H 0.9482 0.5912 0.0731
C38 C 0.83170(14) 0.1452(8) 0.17732(11)
C39 C 0.87520(16) 0.4905(10) -0.11762(13)
C40 C 0.83510(15) 0.0833(8) -0.00953(12)
H22 H 0.8260 -0.0088 0.0139
C41 C 0.82169(15) -0.0231(8) 0.21120(11)
C42 C 0.91754(14) -0.0617(8) 0.17114(11)
C43 C 0.87879(15) 0.1191(8) 0.15670(11)
C44 C 0.89722(14) 0.3469(8) 0.04070(11)
C45 C 0.94540(15) 0.6765(9) 0.00998(13)
H23 H 0.9697 0.8073 0.0144
C46 C 0.80205(17) 0.0939(10) -0.12977(13)
H24 H 0.7777 -0.0364 -0.1342
C47 C 0.88683(14) 0.2024(8) 0.07916(11)
H25 H 0.8794 0.0361 0.0744
C48 C 0.81234(15) 0.0267(8) -0.05017(12)
H26 H 0.7876 -0.1024 -0.0538
C49 C 0.90697(16) -0.2277(8) 0.20512(11)
C50 C 0.82444(15) 0.1551(9) -0.08760(12)
C51 C 0.74673(17) 0.3511(9) 0.18544(13)
H27 H 0.7221 0.4771 0.1775
C52 C 0.79209(16) 0.3311(9) 0.16552(12)
H28 H 0.7976 0.4418 0.1435
C53 C 0.88683(14) 0.2811(8) 0.11941(11)
H29 H 0.8922 0.4483 0.1248
C54 C 0.91268(17) 0.6861(10) -0.11027(14)
H30 H 0.9218 0.7742 -0.1341
C55 C 0.77254(17) 0.0026(9) 0.23053(13)
H31 H 0.7653 -0.1073 0.2521
C56 C 0.85947(17) -0.2056(8) 0.22398(11)
H32 H 0.8527 -0.3156 0.2457
C57 C 0.73659(17) 0.1825(10) 0.21813(13)
H33 H 0.7049 0.1954 0.2312
C58 C 0.81581(19) 0.2253(12) -0.16504(14)
H34 H 0.8009 0.1817 -0.1931
C59 C 0.94650(19) -0.4117(9) 0.21900(13)
H35 H 0.9397 -0.5236 0.2405
C60 C 1.00491(18) -0.2574(10) 0.16907(15)
H36 H 1.0378 -0.2665 0.1576
C61 C 0.85104(18) 0.4185(11) -0.15908(13)
H37 H 0.8593 0.5053 -0.1833
C62 C 0.93567(16) 0.7497(9) -0.07020(13)
H38 H 0.9601 0.8801 -0.0669
C63 C 0.96826(16) -0.0819(9) 0.15443(13)
H39 H 0.9764 0.0276 0.1330
C64 C 0.9937(2) -0.4259(10) 0.20137(16)
H40 H 1.0189 -0.5476 0.2107
loop_
_geom_bond_atom_site_label_1
_geom_bond_atom_site_label_2
_geom_bond_site_symmetry_1
_geom_bond_site_symmetry_2
C1 C11 1_555 1_555
C2 C5 1_555 1_555
C3 H1 1_555 1_555
C4 C7 1_555 1_555
C5 C3 1_555 1_555
C6 C7 1_555 1_555
C7 C2 1_555 1_555
C8 C5 1_555 1_555
H2 C8 1_555 1_555
C9 C6 1_555 1_555
C10 C6 1_555 1_555
C11 C22 1_555 1_555
C12 C14 1_555 1_555
C13 C2 1_555 1_555
H3 C13 1_555 1_555
C14 C15 1_555 1_555
C15 C1 1_555 1_555
C16 C9 1_555 1_555
H4 C16 1_555 1_555
C17 C8 1_555 1_555
H5 C17 1_555 1_555
C18 C10 1_555 1_555
H6 C18 1_555 1_555
C19 C18 1_555 1_555
H7 C19 1_555 1_555
C20 C9 1_555 1_555
H8 C20 1_555 1_555
C21 C3 1_555 1_555
H9 C21 1_555 1_555
C22 C12 1_555 1_555
H10 C22 1_555 1_555
C23 C4 1_555 1_555
H11 C23 1_555 1_555
C24 C10 1_555 1_555
H12 C24 1_555 1_555
C25 H13 1_555 1_555
C26 C14 1_555 1_555
H14 C26 1_555 1_555
C27 C26 1_555 1_555
H15 C27 1_555 1_555
C28 C12 1_555 1_555
H16 C28 1_555 1_555
C29 C11 1_555 1_555
H17 C29 1_555 1_555
C30 C1 1_555 1_555
H18 C30 1_555 1_555
C31 C25 1_555 1_555
H19 C31 1_555 1_555
C32 C27 1_555 1_555
H20 C32 1_555 1_555
C33 C34 1_555 1_555
C34 C35 1_555 1_555
C35 C39 1_555 1_555
C36 C34 1_555 1_555
C37 H21 1_555 1_555
C38 C41 1_555 1_555
C39 C54 1_555 1_555
C40 C36 1_555 1_555
H22 C40 1_555 1_555
C41 C55 1_555 1_555
C42 C43 1_555 1_555
C43 C38 1_555 1_555
C44 C36 1_555 1_555
C45 C33 1_555 1_555
H23 C45 1_555 1_555
C46 H24 1_555 1_555
C47 C44 1_555 1_555
H25 C47 1_555 1_555
C48 C40 1_555 1_555
H26 C48 1_555 1_555
C49 C42 1_555 1_555
C50 C35 1_555 1_555
C51 H27 1_555 1_555
C52 C38 1_555 1_555
H28 C52 1_555 1_555
C53 C43 1_555 1_555
H29 C53 1_555 1_555
C54 H30 1_555 1_555
C55 H31 1_555 1_555
C56 C41 1_555 1_555
H32 C56 1_555 1_555
C57 C51 1_555 1_555
H33 C57 1_555 1_555
C58 C46 1_555 1_555
H34 C58 1_555 1_555
C59 C49 1_555 1_555
H35 C59 1_555 1_555
C60 H36 1_555 1_555
C61 C39 1_555 1_555
H37 C61 1_555 1_555
C62 C33 1_555 1_555
H38 C62 1_555 1_555
C63 C42 1_555 1_555
H39 C63 1_555 1_555
C64 C59 1_555 1_555
H40 C64 1_555 1_555
C4 C21 1_555 1_555
C13 C16 1_555 1_555
C15 C17 1_555 1_555
C19 C20 1_555 1_555
C23 C24 1_555 1_555
C25 C29 1_555 1_555
C28 C32 1_555 1_555
C30 C31 1_555 1_555
C37 C44 1_555 1_555
C37 C45 1_555 1_555
C46 C50 1_555 1_555
C47 C53 1_555 1_555
C48 C50 1_555 1_555
C49 C56 1_555 1_555
C51 C52 1_555 1_555
C54 C62 1_555 1_555
C55 C57 1_555 1_555
C58 C61 1_555 1_555
C60 C63 1_555 1_555
C60 C64 1_555 1_555

#END
