
#######################################################################
#
#                 Cambridge Crystallographic Data Centre
#                                CCDC 
#
#######################################################################
#
# If this CIF has been generated from an entry in the Cambridge 
# Structural Database, then it will include bibliographic, chemical, 
# crystal, experimental, refinement or atomic coordinate data resulting 
# from the CCDC's data processing and validation procedures.
#
#######################################################################

data_GIMXOR
_chemical_formula_moiety         'C32 H20'
_chemical_name_systematic        1-(2-(9-Anthryl)vinyl)pyrene
_symmetry_cell_setting           monoclinic
_symmetry_space_group_name_H-M   'P 21/n'
_symmetry_Int_Tables_number      14
_space_group_name_Hall           '-P 2yn'
loop_
_symmetry_equiv_pos_site_id
_symmetry_equiv_pos_as_xyz
1 x,y,z
2 1/2-x,1/2+y,1/2-z
3 -x,-y,-z
4 1/2+x,1/2-y,1/2+z
_cell_length_a                   9.3708(18)
_cell_length_b                   20.465(3)
_cell_length_c                   11.595(3)
_cell_angle_alpha                90
_cell_angle_beta                 108.49(2)
_cell_angle_gamma                90
_cell_volume                     2108.83
_exptl_crystal_colour            yellow
_exptl_crystal_description       plate
_cell_formula_units_Z            4
loop_
_atom_site_label
_atom_site_type_symbol
_atom_site_fract_x
_atom_site_fract_y
_atom_site_fract_z
C1 C 0.8347(2) 0.18370(10) 0.13316(19)
C2 C 0.7911(2) 0.07681(10) 0.2150(2)
C3 C 0.8450(2) 0.14258(10) 0.2339(2)
C4 C 1.1474(2) 0.33517(10) 0.12047(19)
C5 C 1.2436(2) 0.28036(10) 0.14077(19)
C6 C 0.7280(2) 0.05240(10) 0.0950(2)
C7 C 1.2043(2) 0.39616(10) 0.17079(19)
C8 C 1.3966(2) 0.28614(11) 0.2172(2)
C9 C 0.7714(2) 0.15676(10) 0.01319(19)
H1 H 0.7659 0.1826 -0.0541
C10 C 1.3570(2) 0.40187(10) 0.2464(2)
C11 C 0.7199(2) 0.09457(11) -0.0039(2)
H2 H 0.6778 0.0791 -0.0829
C12 C 0.9082(2) 0.16639(12) 0.3544(2)
C13 C 0.8894(2) 0.24826(10) 0.1532(2)
C14 C 0.8012(3) 0.03518(12) 0.3158(3)
C15 C 1.4484(2) 0.34665(11) 0.2685(2)
H3 H 1.5474 0.3503 0.3192
C16 C 0.9504(2) 0.27024(11) 0.2732(2)
H4 H 0.9861 0.3129 0.2870
C17 C 0.9591(2) 0.23088(12) 0.3712(2)
H5 H 0.9993 0.2474 0.4496
C18 C 0.8811(2) 0.29265(10) 0.0507(2)
H6 H 0.7900 0.2940 -0.0121
C19 C 1.4932(3) 0.23077(12) 0.2340(2)
H7 H 1.5924 0.2342 0.2843
C20 C 1.1147(3) 0.45367(11) 0.1504(2)
H8 H 1.0138 0.4510 0.1037
C21 C 0.6766(2) -0.01233(11) 0.0788(3)
H9 H 0.6343 -0.0286 0.0004
C22 C 1.1978(3) 0.21838(10) 0.0839(2)
H10 H 1.0994 0.2131 0.0331
C23 C 0.7488(3) -0.02890(13) 0.2938(3)
H11 H 0.7551 -0.0564 0.3592
C24 C 0.9161(3) 0.12335(14) 0.4540(2)
H12 H 0.9575 0.1386 0.5332
C25 C 1.4114(3) 0.46446(12) 0.2948(2)
H13 H 1.5105 0.4685 0.3450
C26 C 0.6878(3) -0.05220(13) 0.1768(3)
H14 H 0.6539 -0.0951 0.1641
C27 C 0.9900(2) 0.33068(10) 0.0391(2)
H15 H 0.9645 0.3579 -0.0286
C28 C 1.4432(3) 0.17336(13) 0.1781(3)
H16 H 1.5080 0.1378 0.1899
C29 C 1.3233(3) 0.51777(12) 0.2700(3)
H17 H 1.3624 0.5582 0.3010
C30 C 1.2938(3) 0.16730(11) 0.1022(2)
H18 H 1.2604 0.1276 0.0641
C31 C 1.1722(3) 0.51245(11) 0.1972(2)
H19 H 1.1112 0.5494 0.1810
C32 C 0.8653(3) 0.06150(15) 0.4360(3)
H20 H 0.8719 0.0352 0.5029
loop_
_geom_bond_atom_site_label_1
_geom_bond_atom_site_label_2
_geom_bond_site_symmetry_1
_geom_bond_site_symmetry_2
C1 C3 1_555 1_555
C2 C3 1_555 1_555
C3 C12 1_555 1_555
C4 C5 1_555 1_555
C5 C8 1_555 1_555
C6 C2 1_555 1_555
C7 C4 1_555 1_555
C8 C15 1_555 1_555
C9 C1 1_555 1_555
H1 C9 1_555 1_555
C10 C7 1_555 1_555
C11 C6 1_555 1_555
H2 C11 1_555 1_555
C12 C17 1_555 1_555
C13 C1 1_555 1_555
C14 C2 1_555 1_555
C15 C10 1_555 1_555
H3 C15 1_555 1_555
C16 C13 1_555 1_555
H4 C16 1_555 1_555
C17 C16 1_555 1_555
H5 C17 1_555 1_555
C18 C13 1_555 1_555
H6 C18 1_555 1_555
C19 C8 1_555 1_555
H7 C19 1_555 1_555
C20 C7 1_555 1_555
H8 C20 1_555 1_555
C21 C6 1_555 1_555
H9 C21 1_555 1_555
C22 C5 1_555 1_555
H10 C22 1_555 1_555
C23 C14 1_555 1_555
H11 C23 1_555 1_555
C24 C12 1_555 1_555
H12 C24 1_555 1_555
C25 C10 1_555 1_555
H13 C25 1_555 1_555
C26 C21 1_555 1_555
H14 C26 1_555 1_555
C27 C4 1_555 1_555
H15 C27 1_555 1_555
C28 C19 1_555 1_555
H16 C28 1_555 1_555
C29 C25 1_555 1_555
H17 C29 1_555 1_555
C30 C22 1_555 1_555
H18 C30 1_555 1_555
C31 C20 1_555 1_555
H19 C31 1_555 1_555
C32 C14 1_555 1_555
H20 C32 1_555 1_555
C9 C11 1_555 1_555
C18 C27 1_555 1_555
C23 C26 1_555 1_555
C24 C32 1_555 1_555
C28 C30 1_555 1_555
C29 C31 1_555 1_555

#END
