
#######################################################################
#
#                 Cambridge Crystallographic Data Centre
#                                CCDC 
#
#######################################################################
#
# If this CIF has been generated from an entry in the Cambridge 
# Structural Database, then it will include bibliographic, chemical, 
# crystal, experimental, refinement or atomic coordinate data resulting 
# from the CCDC's data processing and validation procedures.
#
#######################################################################

data_GINDEP
_chemical_formula_moiety         'C28 H22 F1 N1 O2,C3 H8 O1,0.5(H2 O1)'
_chemical_name_systematic        
'3-[1-(4-fluorophenyl)prop-2-en-1-yl]-3-hydroxy-1-[(naphthalen-1-yl)methyl]-1,3-dihydro-2H-indol-2-one propan-2-ol solvate hemihydrate'
_symmetry_cell_setting           orthorhombic
_symmetry_space_group_name_H-M   'P 21 21 2'
_symmetry_Int_Tables_number      18
_space_group_name_Hall           'P 2 2ab'
loop_
_symmetry_equiv_pos_site_id
_symmetry_equiv_pos_as_xyz
1 x,y,z
2 -x,-y,z
3 1/2-x,1/2+y,-z
4 1/2+x,1/2-y,-z
_cell_length_a                   21.5078(15)
_cell_length_b                   9.2660(6)
_cell_length_c                   13.4784(8)
_cell_angle_alpha                90
_cell_angle_beta                 90
_cell_angle_gamma                90
_cell_volume                     2686.13
_exptl_crystal_colour            colorless
_exptl_crystal_description       block
_cell_formula_units_Z            4
loop_
_atom_site_label
_atom_site_type_symbol
_atom_site_fract_x
_atom_site_fract_y
_atom_site_fract_z
O1 O 0.4001(2) 0.4970(5) 0.4679(3)
N1 N 0.3151(3) 0.5324(5) 0.3693(3)
C1 C 0.3310(3) 0.3916(7) 0.2141(4)
F1 F 0.4942(3) 0.8179(6) 0.0678(3)
O2 O 0.3249(2) 0.7239(5) 0.5752(3)
C2 C 0.3644(3) 0.5018(8) 0.1755(4)
H1 H 0.374220 0.580431 0.215482
C3 C 0.3848(4) 0.5000(9) 0.0764(5)
H2 H 0.407750 0.577003 0.051674
C4 C 0.3358(3) 0.2722(8) 0.0529(4)
C5 C 0.3711(3) 0.3877(9) 0.0172(5)
H3 H 0.385332 0.386775 -0.048013
C6 C 0.3142(3) 0.2719(7) 0.1522(4)
H4 H 0.362(5) 0.735(10) 0.599(6)
C7 C 0.2777(3) 0.1552(7) 0.1848(4)
H5 H 0.263417 0.153464 0.249955
C8 C 0.2838(4) 0.0447(10) 0.0252(6)
H6 H 0.273113 -0.030952 -0.016795
C9 C 0.2630(4) 0.0451(9) 0.1227(5)
H7 H 0.238631 -0.030875 0.145630
C10 C 0.3193(4) 0.1527(9) -0.0085(5)
H8 H 0.333570 0.149789 -0.073572
C11 C 0.3120(3) 0.3917(7) 0.3223(4)
H9 H 0.269716 0.355778 0.327476
H10 H 0.338694 0.325602 0.358318
C12 C 0.3579(3) 0.5725(7) 0.4383(4)
C13 C 0.3419(3) 0.7265(7) 0.4732(4)
C14 C 0.2846(3) 0.7607(7) 0.4128(4)
C15 C 0.2453(3) 0.8804(8) 0.4112(4)
H11 H 0.253355 0.960725 0.450486
C16 C 0.1939(3) 0.8759(9) 0.3492(5)
H12 H 0.166915 0.954275 0.347150
C17 C 0.1820(3) 0.7567(9) 0.2903(5)
H13 H 0.147061 0.756569 0.249788
C18 C 0.2206(3) 0.6390(8) 0.2902(4)
H14 H 0.212818 0.560136 0.249414
C19 C 0.2713(3) 0.6418(7) 0.3530(4)
C20 C 0.3990(3) 0.8263(7) 0.4570(4)
H15 H 0.432126 0.786159 0.498522
C21 C 0.4236(3) 0.8211(7) 0.3515(5)
C22 C 0.3935(4) 0.8958(8) 0.2750(5)
H16 H 0.357298 0.947467 0.288093
C23 C 0.4177(4) 0.8923(10) 0.1800(6)
H17 H 0.397852 0.942084 0.129135
C24 C 0.4696(4) 0.8178(9) 0.1610(5)
C25 C 0.5010(4) 0.7433(10) 0.2321(5)
H18 H 0.537164 0.692277 0.217612
C26 C 0.4761(3) 0.7473(8) 0.3285(5)
H19 H 0.496523 0.697302 0.378697
C27 C 0.3869(4) 0.9757(11) 0.4972(7)
C28 C 0.4124(7) 1.0793(15) 0.4986(14)
O3 O 0.4244(3) 0.6830(10) 0.7007(4)
H20 H 0.456016 0.658460 0.671072
C29 C 0.5000(7) 0.740(2) 0.8165(11)
H21 H 0.516210 0.643067 0.819601
H22 H 0.503939 0.784455 0.880402
H23 H 0.522934 0.794107 0.768307
C30 C 0.4398(5) 0.7352(16) 0.7904(7)
C31 C 0.3937(6) 0.8283(14) 0.8304(8)
H24 H 0.362893 0.771964 0.864554
H25 H 0.374229 0.881287 0.777650
H26 H 0.412658 0.894439 0.876067
O4 O 0.500000 0.500000 0.5918(4)
loop_
_geom_bond_atom_site_label_1
_geom_bond_atom_site_label_2
_geom_bond_site_symmetry_1
_geom_bond_site_symmetry_2
O1 C12 1_555 1_555
N1 C11 1_555 1_555
C1 C2 1_555 1_555
F1 C24 1_555 1_555
O2 H4 1_555 1_555
C2 H1 1_555 1_555
C3 C2 1_555 1_555
H2 C3 1_555 1_555
C4 C5 1_555 1_555
C5 C3 1_555 1_555
H3 C5 1_555 1_555
C6 C1 1_555 1_555
C7 C6 1_555 1_555
H5 C7 1_555 1_555
C8 H6 1_555 1_555
C9 C7 1_555 1_555
H7 C9 1_555 1_555
C10 C4 1_555 1_555
H8 C10 1_555 1_555
C11 C1 1_555 1_555
H9 C11 1_555 1_555
H10 C11 1_555 1_555
C12 N1 1_555 1_555
C13 O2 1_555 1_555
C14 C13 1_555 1_555
C15 C14 1_555 1_555
H11 C15 1_555 1_555
C16 C15 1_555 1_555
H12 C16 1_555 1_555
C17 C16 1_555 1_555
H13 C17 1_555 1_555
C18 C17 1_555 1_555
H14 C18 1_555 1_555
C19 N1 1_555 1_555
C20 C13 1_555 1_555
H15 C20 1_555 1_555
C21 C20 1_555 1_555
C22 C21 1_555 1_555
H16 C22 1_555 1_555
C23 C22 1_555 1_555
H17 C23 1_555 1_555
C24 C23 1_555 1_555
C25 C24 1_555 1_555
H18 C25 1_555 1_555
C26 C21 1_555 1_555
H19 C26 1_555 1_555
C27 C20 1_555 1_555
C28 C27 1_555 1_555
O3 H20 1_555 1_555
C29 H21 1_555 1_555
H22 C29 1_555 1_555
H23 C29 1_555 1_555
C30 O3 1_555 1_555
C31 C30 1_555 1_555
H24 C31 1_555 1_555
H25 C31 1_555 1_555
H26 C31 1_555 1_555
C4 C6 1_555 1_555
C8 C9 1_555 1_555
C8 C10 1_555 1_555
C12 C13 1_555 1_555
C14 C19 1_555 1_555
C18 C19 1_555 1_555
C25 C26 1_555 1_555
C29 C30 1_555 1_555

#END
