
#######################################################################
#
#                 Cambridge Crystallographic Data Centre
#                                CCDC 
#
#######################################################################
#
# If this CIF has been generated from an entry in the Cambridge 
# Structural Database, then it will include bibliographic, chemical, 
# crystal, experimental, refinement or atomic coordinate data resulting 
# from the CCDC's data processing and validation procedures.
#
#######################################################################

data_GINDOX
_chemical_formula_moiety         'C20 H24 N4 2+,2(Br1 1-),2(H2 O1)'
_chemical_name_systematic        
"3,3'-Diethyl-1,1'-(ethane-1,2-diyl)dibenzimidazolium dibromide dihydrate"
_symmetry_cell_setting           monoclinic
_symmetry_space_group_name_H-M   'C 2/c'
_symmetry_Int_Tables_number      15
_space_group_name_Hall           '-C 2yn'
loop_
_symmetry_equiv_pos_site_id
_symmetry_equiv_pos_as_xyz
1 x,y,z
2 1/2+x,1/2+y,z
3 -x,y,1/2-z
4 1/2-x,1/2+y,1/2-z
5 -x,-y,-z
6 1/2-x,1/2-y,-z
7 x,-y,1/2+z
8 1/2+x,1/2-y,1/2+z
_cell_length_a                   12.807(3)
_cell_length_b                   11.362(2)
_cell_length_c                   15.297(3)
_cell_angle_alpha                90
_cell_angle_beta                 97.912(4)
_cell_angle_gamma                90
_cell_volume                     2204.73
_exptl_crystal_colour            colorless
_exptl_crystal_description       block
_chemical_melting_point          228-230deg.C
_cell_formula_units_Z            4
_exptl_crystal_recrystallization_method methanol/water
loop_
_atom_site_label
_atom_site_type_symbol
_atom_site_fract_x
_atom_site_fract_y
_atom_site_fract_z
Br1 Br 0.12265(2) 0.55655(2) 0.403159(18)
O1 O 0.87303(19) 0.6101(3) 0.31595(17)
H1 H 0.8647 0.5982 0.2606
H2 H 0.9321 0.5892 0.3439
N1 N 0.89057(14) 0.79681(17) 0.52921(12)
N2 N 1.04995(14) 0.77337(16) 0.59769(12)
C1 C 0.79065(17) 0.7711(2) 0.47218(15)
H3 H 0.8022 0.7110 0.4295
H4 H 0.7653 0.8415 0.4402
C2 C 0.92047(17) 0.9044(2) 0.56882(14)
C3 C 0.86951(19) 1.0121(2) 0.56727(16)
H5 H 0.8008 1.0221 0.5395
C4 C 0.9267(2) 1.1036(2) 0.60933(16)
H6 H 0.8956 1.1775 0.6096
C5 C 1.0292(2) 1.0890(2) 0.65129(16)
H7 H 1.0647 1.1535 0.6785
C6 C 1.07951(19) 0.9822(2) 0.65372(15)
H8 H 1.1480 0.9725 0.6819
C7 C 1.02248(16) 0.8893(2) 0.61171(14)
C8 C 0.96988(18) 0.7218(2) 0.54795(16)
H9 H 0.9694 0.6440 0.5289
C9 C 1.15098(19) 0.7166(2) 0.63180(18)
H10 H 1.2087 0.7654 0.6179
H11 H 1.1556 0.6412 0.6028
C10 C 1.1618(3) 0.6980(3) 0.7299(2)
H12 H 1.1574 0.7725 0.7588
H13 H 1.2288 0.6622 0.7499
H14 H 1.1063 0.6475 0.7437
N1E N 0.60943(14) 0.70319(17) 0.47079(12)
N2E N 0.45005(14) 0.72663(16) 0.40231(12)
C1E C 0.70935(17) 0.7289(2) 0.52782(15)
H3E H 0.6978 0.7890 0.5705
H4E H 0.7347 0.6585 0.5598
C2E C 0.57953(17) 0.5956(2) 0.43118(14)
C3E C 0.63049(19) 0.4879(2) 0.43273(16)
H5E H 0.6992 0.4779 0.4605
C4E C 0.5733(2) 0.3964(2) 0.39067(16)
H6E H 0.6044 0.3225 0.3904
C5E C 0.4708(2) 0.4110(2) 0.34871(16)
H7E H 0.4353 0.3465 0.3215
C6E C 0.42049(19) 0.5178(2) 0.34628(15)
H8E H 0.3520 0.5275 0.3181
C7E C 0.47752(16) 0.6107(2) 0.38829(14)
C8E C 0.53012(18) 0.7782(2) 0.45205(16)
H9E H 0.5306 0.8560 0.4711
C9E C 0.34902(19) 0.7834(2) 0.36820(18)
H10E H 0.2913 0.7346 0.3821
H11E H 0.3444 0.8588 0.3972
C10E C 0.3382(3) 0.8020(3) 0.2701(2)
H12E H 0.3426 0.7275 0.2412
H13E H 0.2712 0.8378 0.2501
H14E H 0.3937 0.8525 0.2563
loop_
_geom_bond_atom_site_label_1
_geom_bond_atom_site_label_2
_geom_bond_site_symmetry_1
_geom_bond_site_symmetry_2
O1 H1 1_555 1_555
H2 O1 1_555 1_555
N1 C1 1_555 1_555
N2 C7 1_555 1_555
C1 H3 1_555 1_555
H4 C1 1_555 1_555
C2 N1 1_555 1_555
C3 C2 1_555 1_555
H5 C3 1_555 1_555
C4 C3 1_555 1_555
H6 C4 1_555 1_555
C5 C4 1_555 1_555
H7 C5 1_555 1_555
C6 C5 1_555 1_555
H8 C6 1_555 1_555
C7 C2 1_555 1_555
C8 N1 1_555 1_555
H9 C8 1_555 1_555
C9 N2 1_555 1_555
H10 C9 1_555 1_555
H11 C9 1_555 1_555
C10 C9 1_555 1_555
H12 C10 1_555 1_555
H13 C10 1_555 1_555
H14 C10 1_555 1_555
N1E C1E 1_555 1_555
N2E C7E 1_555 1_555
C1E C1 1_555 1_555
H3E C1E 1_555 1_555
H4E C1E 1_555 1_555
C2E N1E 1_555 1_555
C3E C2E 1_555 1_555
H5E C3E 1_555 1_555
C4E C3E 1_555 1_555
H6E C4E 1_555 1_555
C5E C4E 1_555 1_555
H7E C5E 1_555 1_555
C6E C5E 1_555 1_555
H8E C6E 1_555 1_555
C7E C2E 1_555 1_555
C8E N1E 1_555 1_555
H9E C8E 1_555 1_555
C9E N2E 1_555 1_555
H10E C9E 1_555 1_555
H11E C9E 1_555 1_555
C10E C9E 1_555 1_555
H12E C10E 1_555 1_555
H13E C10E 1_555 1_555
H14E C10E 1_555 1_555
N2 C8 1_555 1_555
C6 C7 1_555 1_555
N2E C8E 1_555 1_555
C6E C7E 1_555 1_555

#END
