
#######################################################################
#
#                 Cambridge Crystallographic Data Centre
#                                CCDC 
#
#######################################################################
#
# If this CIF has been generated from an entry in the Cambridge 
# Structural Database, then it will include bibliographic, chemical, 
# crystal, experimental, refinement or atomic coordinate data resulting 
# from the CCDC's data processing and validation procedures.
#
#######################################################################

data_GINHOB
_chemical_formula_moiety         'C19 H15 N3 O1 S1'
_chemical_name_systematic        
(Z)-2-(2-(Cyanoimino)-1,3-thiazolidin-1-yl)-1,3-diphenylprop-2-en-1-one
_symmetry_cell_setting           monoclinic
_symmetry_space_group_name_H-M   'P 21'
_symmetry_Int_Tables_number      4
_space_group_name_Hall           'P 2yb'
loop_
_symmetry_equiv_pos_site_id
_symmetry_equiv_pos_as_xyz
1 x,y,z
2 -x,1/2+y,-z
_cell_length_a                   9.927(4)
_cell_length_b                   8.389(4)
_cell_length_c                   10.883(5)
_cell_angle_alpha                90
_cell_angle_beta                 112.660(8)
_cell_angle_gamma                90
_cell_volume                     836.35
_exptl_crystal_colour            yellow
_cell_formula_units_Z            2
_exptl_crystal_recrystallization_method 'petroleum ether/ethyl acetate'
loop_
_atom_site_label
_atom_site_type_symbol
_atom_site_fract_x
_atom_site_fract_y
_atom_site_fract_z
S1 S 0.93482(9) 0.39396(12) 0.89044(9)
O1 O 0.3637(2) 0.3867(4) 0.4751(2)
N1 N 0.7396(3) 0.3105(3) 0.6658(3)
N2 N 0.7006(3) 0.5630(4) 0.7268(3)
N3 N 0.7699(3) 0.7903(4) 0.8818(3)
C1 C 0.3495(4) 0.3343(5) 0.7246(4)
H1 H 0.2937 0.4191 0.6762
C2 C 0.3285(5) 0.2780(7) 0.8354(5)
H2 H 0.2601 0.3266 0.8622
C3 C 0.4074(6) 0.1520(7) 0.9055(5)
H3 H 0.3928 0.1151 0.9801
C4 C 0.5074(5) 0.0796(6) 0.8668(5)
H4 H 0.5593 -0.0083 0.9134
C5 C 0.5313(4) 0.1379(4) 0.7574(4)
H5 H 0.6016 0.0900 0.7326
C6 C 0.4531(4) 0.2649(4) 0.6854(4)
C7 C 0.4669(4) 0.3283(4) 0.5640(4)
C8 C 0.6097(3) 0.3175(4) 0.5481(3)
C9 C 0.6117(4) 0.3133(5) 0.4264(3)
H6 H 0.5201 0.3063 0.3578
C10 C 0.7333(2) 0.3179(3) 0.3828(3)
C11 C 0.7150(3) 0.2416(4) 0.2640(3)
H7 H 0.6264 0.1932 0.2141
C12 C 0.8290(4) 0.2376(4) 0.2199(3)
H8 H 0.8167 0.1865 0.1404
C13 C 0.9614(3) 0.3099(5) 0.2945(4)
H9 H 1.0377 0.3073 0.2649
C14 C 0.9797(2) 0.3863(5) 0.4132(3)
H10 H 1.0683 0.4347 0.4631
C15 C 0.8657(3) 0.3903(4) 0.4574(2)
H11 H 0.8780 0.4414 0.5368
C16 C 0.8452(4) 0.1804(4) 0.6972(4)
H12 H 0.9097 0.1940 0.6499
H13 H 0.7955 0.0788 0.6718
C17 C 0.9300(4) 0.1865(5) 0.8442(4)
H14 H 1.0281 0.1461 0.8664
H15 H 0.8826 0.1230 0.8905
C18 C 0.7760(4) 0.4323(4) 0.7513(3)
C19 C 0.7429(4) 0.6805(4) 0.8146(4)
loop_
_geom_bond_atom_site_label_1
_geom_bond_atom_site_label_2
_geom_bond_site_symmetry_1
_geom_bond_site_symmetry_2
S1 C17 1_555 1_555
O1 C7 1_555 1_555
N1 C8 1_555 1_555
N2 C18 1_555 1_555
N3 C19 1_555 1_555
C1 H1 1_555 1_555
C2 C1 1_555 1_555
H2 C2 1_555 1_555
C3 C2 1_555 1_555
H3 C3 1_555 1_555
C4 C3 1_555 1_555
H4 C4 1_555 1_555
C5 C4 1_555 1_555
H5 C5 1_555 1_555
C6 C1 1_555 1_555
C7 C6 1_555 1_555
C8 C7 1_555 1_555
C9 C8 1_555 1_555
H6 C9 1_555 1_555
C10 C9 1_555 1_555
C11 C10 1_555 1_555
H7 C11 1_555 1_555
C12 C11 1_555 1_555
H8 C12 1_555 1_555
C13 C12 1_555 1_555
H9 C13 1_555 1_555
C14 C13 1_555 1_555
H10 C14 1_555 1_555
C15 C10 1_555 1_555
H11 C15 1_555 1_555
C16 N1 1_555 1_555
H12 C16 1_555 1_555
H13 C16 1_555 1_555
C17 C16 1_555 1_555
H14 C17 1_555 1_555
H15 C17 1_555 1_555
C18 S1 1_555 1_555
C19 N2 1_555 1_555
N1 C18 1_555 1_555
C5 C6 1_555 1_555
C14 C15 1_555 1_555

#END
