
#######################################################################
#
#                 Cambridge Crystallographic Data Centre
#                                CCDC 
#
#######################################################################
#
# If this CIF has been generated from an entry in the Cambridge 
# Structural Database, then it will include bibliographic, chemical, 
# crystal, experimental, refinement or atomic coordinate data resulting 
# from the CCDC's data processing and validation procedures.
#
#######################################################################

data_GINLUL
_chemical_formula_moiety         'C10 H17 N1 O4'
_chemical_name_systematic        
't-Butyl N-(3,6-dihydro-1,2-dioxin-4-ylmethyl)carbamate'
_symmetry_cell_setting           orthorhombic
_symmetry_space_group_name_H-M   'P 21 21 21'
_symmetry_Int_Tables_number      19
_space_group_name_Hall           'P 2ac 2ab'
loop_
_symmetry_equiv_pos_site_id
_symmetry_equiv_pos_as_xyz
1 x,y,z
2 1/2-x,-y,1/2+z
3 1/2+x,1/2-y,-z
4 -x,1/2+y,1/2-z
_cell_length_a                   9.435(4)
_cell_length_b                   9.628(4)
_cell_length_c                   12.698(6)
_cell_angle_alpha                90
_cell_angle_beta                 90
_cell_angle_gamma                90
_cell_volume                     1153.49
_exptl_crystal_colour            colorless
_exptl_crystal_description       Prism
_cell_formula_units_Z            4
loop_
_atom_site_label
_atom_site_type_symbol
_atom_site_fract_x
_atom_site_fract_y
_atom_site_fract_z
O1 O 0.45338(14) 0.52172(13) 0.69574(12)
O2 O 0.33495(14) 0.72768(13) 0.68622(11)
C1 C 0.8147(3) 0.6760(3) 1.05230(18)
H1 H 0.8892 0.6070 1.0690
H2 H 0.8385 0.7636 1.0891
C2 C 0.6062(2) 0.5477(2) 0.92708(15)
H3 H 0.5147 0.5971 0.9347
H4 H 0.5905 0.4671 0.8801
O3 O 0.6742(3) 0.6237(2) 1.09082(16)
O4 O 0.6513(2) 0.4980(2) 1.02975(15)
N1 N 0.56110(16) 0.72726(15) 0.73168(12)
H9 H 0.5514 0.8181 0.7329
C5 C 0.71146(19) 0.64320(18) 0.87711(14)
C6 C 0.8118(2) 0.7010(2) 0.93588(16)
H10 H 0.8817 0.7582 0.9041
C7 C 0.69754(18) 0.6658(2) 0.76017(14)
H11 H 0.7748 0.7278 0.7360
H12 H 0.7083 0.5757 0.7235
C8 C 0.45012(19) 0.64797(18) 0.70358(13)
C9 C 0.2026(2) 0.6673(2) 0.64337(17)
C10 C 0.1393(2) 0.5642(2) 0.7209(2)
H13 H 0.2016 0.4832 0.7268
H14 H 0.0458 0.5347 0.6960
H15 H 0.1298 0.6084 0.7901
C11 C 0.1067(2) 0.7929(3) 0.6341(3)
H16 H 0.0893 0.8317 0.7042
H17 H 0.0164 0.7651 0.6022
H18 H 0.1523 0.8632 0.5897
C12 C 0.2326(3) 0.6033(3) 0.53635(19)
H19 H 0.2947 0.5225 0.5450
H20 H 0.2792 0.6721 0.4912
H21 H 0.1433 0.5740 0.5038
C3? C 0.8147(3) 0.6760(3) 1.05230(18)
H5? H 0.9137 0.6753 1.0782
H6? H 0.7621 0.7501 1.0896
C4? C 0.6062(2) 0.5477(2) 0.92708(15)
H7? H 0.5113 0.5591 0.8949
H8? H 0.6361 0.4497 0.9199
O5? O 0.7525(6) 0.5504(6) 1.0696(4)
O6? O 0.6048(6) 0.5901(6) 1.0373(4)
loop_
_geom_bond_atom_site_label_1
_geom_bond_atom_site_label_2
_geom_bond_site_symmetry_1
_geom_bond_site_symmetry_2
O1 C8 1_555 1_555
O2 C8 1_555 1_555
C1 H1 1_555 1_555
H2 C1 1_555 1_555
C2 H3 1_555 1_555
H4 C2 1_555 1_555
O3 C1 1_555 1_555
O4 C2 1_555 1_555
N1 H9 1_555 1_555
C5 C2 1_555 1_555
C6 C1 1_555 1_555
H10 C6 1_555 1_555
C7 N1 1_555 1_555
H11 C7 1_555 1_555
H12 C7 1_555 1_555
C8 N1 1_555 1_555
C9 O2 1_555 1_555
C10 C9 1_555 1_555
H13 C10 1_555 1_555
H14 C10 1_555 1_555
H15 C10 1_555 1_555
C11 C9 1_555 1_555
H16 C11 1_555 1_555
H17 C11 1_555 1_555
H18 C11 1_555 1_555
C12 C9 1_555 1_555
H19 C12 1_555 1_555
H20 C12 1_555 1_555
H21 C12 1_555 1_555
O3 O4 1_555 1_555
C5 C6 1_555 1_555
C5 C7 1_555 1_555

#END
