
#######################################################################
#
#                 Cambridge Crystallographic Data Centre
#                                CCDC 
#
#######################################################################
#
# If this CIF has been generated from an entry in the Cambridge 
# Structural Database, then it will include bibliographic, chemical, 
# crystal, experimental, refinement or atomic coordinate data resulting 
# from the CCDC's data processing and validation procedures.
#
#######################################################################

data_GINLEW
_chemical_formula_moiety         'C12 H10 F1 N1 O1'
_chemical_name_systematic        
(5-Fluoro-2-methyl-1H-pyrrol-3-yl)(phenyl)methanone
_symmetry_cell_setting           triclinic
_symmetry_space_group_name_H-M   'P -1'
_symmetry_Int_Tables_number      2
_space_group_name_Hall           '-P 1'
loop_
_symmetry_equiv_pos_site_id
_symmetry_equiv_pos_as_xyz
1 x,y,z
2 -x,-y,-z
_cell_length_a                   9.8897(16)
_cell_length_b                   9.8944(17)
_cell_length_c                   11.4945(18)
_cell_angle_alpha                107.042(3)
_cell_angle_beta                 92.711(4)
_cell_angle_gamma                99.386(3)
_cell_volume                     1055.58
_exptl_crystal_colour            colorless
_exptl_crystal_description       prismatic
_cell_formula_units_Z            4
loop_
_atom_site_label
_atom_site_type_symbol
_atom_site_fract_x
_atom_site_fract_y
_atom_site_fract_z
F1 F 1.26241(14) 0.29067(17) 0.30527(14)
N1 N 1.1044(2) 0.2861(3) 0.4466(2)
O1 O 0.78174(19) -0.0578(2) 0.42086(18)
C1 C 0.8443(3) -0.0358(3) 0.3357(3)
C2 C 0.9592(2) 0.0822(3) 0.3563(2)
C3 C 1.0647(2) 0.0989(3) 0.2775(2)
H1 H 1.0731 0.0362 0.2013
C4 C 1.1475(3) 0.2220(3) 0.3357(3)
C5 C 0.9881(3) 0.1992(3) 0.4596(2)
C6 C 0.9168(3) 0.2412(3) 0.5730(2)
H2 H 0.9160 0.1697 0.6143
H3 H 0.8238 0.2483 0.5515
H4 H 0.9646 0.3325 0.6259
C7 C 0.7988(2) -0.1328(3) 0.2102(2)
C8 C 0.7957(2) -0.0836(3) 0.1089(2)
H5 H 0.8312 0.0123 0.1178
C9 C 0.7411(3) -0.1742(3) -0.0040(3)
H6 H 0.7378 -0.1394 -0.0707
C10 C 0.6911(3) -0.3168(4) -0.0186(3)
H7 H 0.6545 -0.3786 -0.0953
C11 C 0.6950(3) -0.3672(4) 0.0790(4)
H8 H 0.6626 -0.4642 0.0684
C12 C 0.7462(3) -0.2770(3) 0.1929(3)
H9 H 0.7458 -0.3126 0.2593
H10 H 1.145(3) 0.382(3) 0.506(2)
F2 F 0.35707(17) -0.09679(17) 0.30871(15)
N2 N 0.4335(2) 0.1256(2) 0.4521(2)
O2 O 0.75614(19) 0.4415(2) 0.42176(18)
C13 C 0.6995(2) 0.3336(3) 0.3391(3)
C14 C 0.5915(2) 0.2291(3) 0.3598(2)
C15 C 0.5342(2) 0.0886(3) 0.2805(2)
H11 H 0.5579 0.0452 0.2028
C16 C 0.4400(3) 0.0324(3) 0.3404(3)
C17 C 0.5274(3) 0.2472(3) 0.4671(2)
C18 C 0.5431(3) 0.3692(3) 0.5825(2)
H12 H 0.5415 0.3327 0.6512
H13 H 0.4688 0.4206 0.5823
H14 H 0.6292 0.4330 0.5884
C19 C 0.7449(3) 0.3120(3) 0.2135(3)
C20 C 0.6544(3) 0.2557(3) 0.1082(3)
H15 H 0.5613 0.2272 0.1143
C21 C 0.6995(5) 0.2414(4) -0.0045(3)
H16 H 0.6374 0.2043 -0.0744
C22 C 0.8366(6) 0.2818(5) -0.0140(4)
H17 H 0.8676 0.2703 -0.0908
C23 C 0.9285(4) 0.3389(4) 0.0885(5)
H18 H 1.0215 0.3665 0.0812
C24 C 0.8830(3) 0.3556(3) 0.2030(3)
H19 H 0.9450 0.3961 0.2728
H20 H 0.373(3) 0.113(3) 0.508(2)
loop_
_geom_bond_atom_site_label_1
_geom_bond_atom_site_label_2
_geom_bond_site_symmetry_1
_geom_bond_site_symmetry_2
F1 C4 1_555 1_555
N1 C4 1_555 1_555
O1 C1 1_555 1_555
C1 C2 1_555 1_555
C2 C3 1_555 1_555
C3 H1 1_555 1_555
C4 C3 1_555 1_555
C5 N1 1_555 1_555
C6 C5 1_555 1_555
H2 C6 1_555 1_555
H3 C6 1_555 1_555
H4 C6 1_555 1_555
C7 C1 1_555 1_555
C8 C7 1_555 1_555
H5 C8 1_555 1_555
C9 C8 1_555 1_555
H6 C9 1_555 1_555
C10 C9 1_555 1_555
H7 C10 1_555 1_555
C11 C10 1_555 1_555
H8 C11 1_555 1_555
C12 C7 1_555 1_555
H9 C12 1_555 1_555
H10 N1 1_555 1_555
F2 C16 1_555 1_555
N2 C16 1_555 1_555
O2 C13 1_555 1_555
C13 C14 1_555 1_555
C14 C15 1_555 1_555
C15 H11 1_555 1_555
C16 C15 1_555 1_555
C17 N2 1_555 1_555
C18 C17 1_555 1_555
H12 C18 1_555 1_555
H13 C18 1_555 1_555
H14 C18 1_555 1_555
C19 C13 1_555 1_555
C20 C19 1_555 1_555
H15 C20 1_555 1_555
C21 C20 1_555 1_555
H16 C21 1_555 1_555
C22 C21 1_555 1_555
H17 C22 1_555 1_555
C23 C22 1_555 1_555
H18 C23 1_555 1_555
C24 C19 1_555 1_555
H19 C24 1_555 1_555
H20 N2 1_555 1_555
C2 C5 1_555 1_555
C11 C12 1_555 1_555
C14 C17 1_555 1_555
C23 C24 1_555 1_555

#END
