
#######################################################################
#
#                 Cambridge Crystallographic Data Centre
#                                CCDC 
#
#######################################################################
#
# If this CIF has been generated from an entry in the Cambridge 
# Structural Database, then it will include bibliographic, chemical, 
# crystal, experimental, refinement or atomic coordinate data resulting 
# from the CCDC's data processing and validation procedures.
#
#######################################################################

data_GINNUN
_chemical_formula_moiety         'C9 H12 N2'
_chemical_name_systematic        1,2,3,4-Tetrahydroquinolin-7-amine
_symmetry_cell_setting           monoclinic
_symmetry_space_group_name_H-M   'P 21'
_symmetry_Int_Tables_number      4
_space_group_name_Hall           'P 2yb'
loop_
_symmetry_equiv_pos_site_id
_symmetry_equiv_pos_as_xyz
1 x,y,z
2 -x,1/2+y,-z
_cell_length_a                   8.7642(15)
_cell_length_b                   8.7401(14)
_cell_length_c                   11.0393(18)
_cell_angle_alpha                90
_cell_angle_beta                 106.459(7)
_cell_angle_gamma                90
_cell_volume                     810.959
_exptl_crystal_colour            colorless
_exptl_crystal_description       prism
_chemical_melting_point          91-93deg.C
_cell_formula_units_Z            4
_chemical_properties_physical    air-sensitive
_exptl_crystal_recrystallization_method 'petroleum ether'
loop_
_atom_site_label
_atom_site_type_symbol
_atom_site_fract_x
_atom_site_fract_y
_atom_site_fract_z
N1 N 0.7907(2) 0.5321(2) 0.1189(2)
N2 N 1.2746(3) 0.7827(2) 0.1012(2)
C1 C 0.6786(3) 0.4944(3) 0.1903(2)
H1 H 0.5921 0.4292 0.1385
H2 H 0.6306 0.5892 0.2123
C2 C 0.7669(3) 0.4098(3) 0.3100(2)
H3 H 0.8169 0.3164 0.2879
H4 H 0.6912 0.3787 0.3571
C3 C 0.8946(3) 0.5144(3) 0.3923(2)
H5 H 0.8432 0.5951 0.4300
H6 H 0.9647 0.4540 0.4620
C4 C 0.9940(3) 0.5883(3) 0.3161(2)
C5 C 0.9367(3) 0.5982(3) 0.1844(2)
C6 C 1.0290(3) 0.6669(3) 0.1147(2)
H7 H 0.9884 0.6736 0.0254
C7 C 1.1788(3) 0.7255(3) 0.1737(2)
C8 C 1.2358(3) 0.7169(3) 0.3057(2)
H8 H 1.3378 0.7567 0.3481
C9 C 1.1429(3) 0.6501(3) 0.3738(2)
H9 H 1.1824 0.6465 0.4633
H19 H 0.749(3) 0.574(3) 0.042(2)
H21 H 1.218(3) 0.832(4) 0.031(3)
H22 H 1.360(3) 0.841(4) 0.147(3)
N3 N 0.3190(2) 0.2353(3) 0.1461(2)
N4 N 0.7647(3) -0.0285(3) 0.0695(2)
C10 C 0.2362(3) 0.2950(3) 0.2333(3)
H10 H 0.1309 0.3353 0.1853
H11 H 0.2983 0.3800 0.2831
C11 C 0.2152(3) 0.1690(4) 0.3212(3)
H12 H 0.1514 0.0849 0.2714
H13 H 0.1574 0.2092 0.3796
C12 C 0.3775(3) 0.1080(3) 0.3969(2)
H14 H 0.4321 0.1861 0.4591
H15 H 0.3626 0.0154 0.4439
C13 C 0.4798(3) 0.0691(3) 0.3116(2)
C14 C 0.4495(3) 0.1397(3) 0.1925(2)
C15 C 0.5473(3) 0.1068(3) 0.1147(2)
H16 H 0.5266 0.1549 0.0346
C16 C 0.6734(3) 0.0052(3) 0.1529(2)
C17 C 0.7039(3) -0.0655(3) 0.2708(2)
H17 H 0.7899 -0.1352 0.2984
C18 C 0.6071(3) -0.0325(3) 0.3470(2)
H18 H 0.6284 -0.0814 0.4269
H20 H 0.323(3) 0.297(3) 0.080(3)
H23 H 0.769(3) 0.048(4) 0.015(3)
H24 H 0.866(4) -0.066(4) 0.107(3)
loop_
_geom_bond_atom_site_label_1
_geom_bond_atom_site_label_2
_geom_bond_site_symmetry_1
_geom_bond_site_symmetry_2
N1 C1 1_555 1_555
N2 C7 1_555 1_555
N3 C10 1_555 1_555
N4 C16 1_555 1_555
C1 H1 1_555 1_555
H2 C1 1_555 1_555
C2 C1 1_555 1_555
H3 C2 1_555 1_555
H4 C2 1_555 1_555
C3 C2 1_555 1_555
H5 C3 1_555 1_555
H6 C3 1_555 1_555
C4 C3 1_555 1_555
C5 N1 1_555 1_555
C6 C5 1_555 1_555
H7 C6 1_555 1_555
C7 C6 1_555 1_555
C8 C7 1_555 1_555
H8 C8 1_555 1_555
C9 C4 1_555 1_555
H9 C9 1_555 1_555
C10 H10 1_555 1_555
H11 C10 1_555 1_555
C11 C10 1_555 1_555
H12 C11 1_555 1_555
H13 C11 1_555 1_555
C12 C11 1_555 1_555
H14 C12 1_555 1_555
H15 C12 1_555 1_555
C13 C12 1_555 1_555
C14 N3 1_555 1_555
C15 C14 1_555 1_555
H16 C15 1_555 1_555
C16 C15 1_555 1_555
C17 C16 1_555 1_555
H17 C17 1_555 1_555
C18 C13 1_555 1_555
H18 C18 1_555 1_555
H19 N1 1_555 1_555
H20 N3 1_555 1_555
H21 N2 1_555 1_555
H22 N2 1_555 1_555
H23 N4 1_555 1_555
H24 N4 1_555 1_555
C4 C5 1_555 1_555
C8 C9 1_555 1_555
C13 C14 1_555 1_555
C17 C18 1_555 1_555

#END
