
#######################################################################
#
#                 Cambridge Crystallographic Data Centre
#                                CCDC 
#
#######################################################################
#
# If this CIF has been generated from an entry in the Cambridge 
# Structural Database, then it will include bibliographic, chemical, 
# crystal, experimental, refinement or atomic coordinate data resulting 
# from the CCDC's data processing and validation procedures.
#
#######################################################################

data_GINPEA
_chemical_formula_moiety         'C17 H26 O3'
_chemical_name_systematic        
'(R)-2-(4-t-Butylphenyl)-2-hydroxyethyl pivalate'
_symmetry_cell_setting           orthorhombic
_symmetry_space_group_name_H-M   'P 21 21 21'
_symmetry_Int_Tables_number      19
_space_group_name_Hall           'P 2ac 2ab'
loop_
_symmetry_equiv_pos_site_id
_symmetry_equiv_pos_as_xyz
1 x,y,z
2 1/2-x,-y,1/2+z
3 1/2+x,1/2-y,-z
4 -x,1/2+y,1/2-z
_cell_length_a                   10.0594(3)
_cell_length_b                   11.1797(3)
_cell_length_c                   14.9098(4)
_cell_angle_alpha                90
_cell_angle_beta                 90
_cell_angle_gamma                90
_cell_volume                     1676.77
_exptl_crystal_colour            colorless
_exptl_crystal_description       platelet
_chemical_melting_point          '82-83 deg.C'
_cell_formula_units_Z            4
loop_
_atom_site_label
_atom_site_type_symbol
_atom_site_fract_x
_atom_site_fract_y
_atom_site_fract_z
O1 O 0.0125(2) 0.20408(13) 0.73654(9)
O2 O -0.0178(2) 0.03440(14) 0.80990(11)
C1 C -0.0004(2) 0.14086(19) 0.81128(13)
C2 C -0.1024(2) 0.0490(2) 0.37901(15)
H1 H -0.1863 0.0294 0.3573
C3 C 0.0089(2) 0.00987(16) 0.33302(12)
C4 C 0.0433(2) 0.21646(18) 0.57801(14)
H2 H 0.1372 0.2364 0.5871
C5 C 0.1312(2) 0.0409(2) 0.36855(15)
H3 H 0.2081 0.0161 0.3393
C6 C -0.0923(2) 0.1166(2) 0.45661(15)
H4 H -0.1691 0.1422 0.4856
O3 O -0.0281(3) 0.32259(15) 0.57052(12)
H5 H -0.0198 0.3616 0.6167
C7 C -0.0032(3) -0.06671(18) 0.24749(14)
C8 C 0.0309(2) 0.14663(17) 0.49156(13)
C9 C -0.0006(4) 0.1392(2) 0.65308(13)
H6 H -0.0925 0.1158 0.6442
H7 H 0.0533 0.0673 0.6550
C10 C 0.1425(2) 0.1079(2) 0.44635(15)
H8 H 0.2264 0.1270 0.4684
C11 C 0.0082(3) 0.21853(19) 0.89429(14)
C12 C -0.1153(4) -0.0204(4) 0.1885(2)
H9 H -0.1983 -0.0280 0.2198
H10 H -0.1187 -0.0663 0.1341
H11 H -0.0998 0.0622 0.1743
C13 C 0.1289(4) 0.3016(4) 0.8888(3)
H12 H 0.2087 0.2546 0.8861
H13 H 0.1315 0.3520 0.9409
H14 H 0.1224 0.3503 0.8360
C14 C 0.0148(6) 0.1395(3) 0.97579(18)
H15 H -0.0630 0.0898 0.9781
H16 H 0.0188 0.1883 1.0287
H17 H 0.0927 0.0901 0.9725
C15 C 0.1201(4) -0.0602(6) 0.1907(3)
H18 H 0.1373 0.0215 0.1748
H19 H 0.1075 -0.1066 0.1371
H20 H 0.1942 -0.0915 0.2238
C16 C -0.1140(4) 0.2994(4) 0.8956(3)
H21 H -0.1168 0.3459 0.8415
H22 H -0.1092 0.3520 0.9465
H23 H -0.1927 0.2513 0.8998
C17 C -0.0305(9) -0.1911(3) 0.2742(2)
H24 H 0.0506 -0.2286 0.2931
H25 H -0.0667 -0.2341 0.2241
H26 H -0.0932 -0.1918 0.3227
loop_
_geom_bond_atom_site_label_1
_geom_bond_atom_site_label_2
_geom_bond_site_symmetry_1
_geom_bond_site_symmetry_2
O1 C1 1_555 1_555
O2 C1 1_555 1_555
C1 C11 1_555 1_555
C2 H1 1_555 1_555
C3 C2 1_555 1_555
C4 H2 1_555 1_555
C5 C3 1_555 1_555
H3 C5 1_555 1_555
C6 C2 1_555 1_555
H4 C6 1_555 1_555
O3 C4 1_555 1_555
H5 O3 1_555 1_555
C7 C3 1_555 1_555
C8 C4 1_555 1_555
C9 O1 1_555 1_555
H6 C9 1_555 1_555
H7 C9 1_555 1_555
C10 C5 1_555 1_555
H8 C10 1_555 1_555
C11 C13 1_555 1_555
C12 C7 1_555 1_555
H9 C12 1_555 1_555
H10 C12 1_555 1_555
H11 C12 1_555 1_555
C13 H12 1_555 1_555
H13 C13 1_555 1_555
H14 C13 1_555 1_555
C14 C11 1_555 1_555
H15 C14 1_555 1_555
H16 C14 1_555 1_555
H17 C14 1_555 1_555
C15 C7 1_555 1_555
H18 C15 1_555 1_555
H19 C15 1_555 1_555
H20 C15 1_555 1_555
C16 C11 1_555 1_555
H21 C16 1_555 1_555
H22 C16 1_555 1_555
H23 C16 1_555 1_555
C17 C7 1_555 1_555
H24 C17 1_555 1_555
H25 C17 1_555 1_555
H26 C17 1_555 1_555
C4 C9 1_555 1_555
C6 C8 1_555 1_555
C8 C10 1_555 1_555

#END
