
#######################################################################
#
#                 Cambridge Crystallographic Data Centre
#                                CCDC 
#
#######################################################################
#
# If this CIF has been generated from an entry in the Cambridge 
# Structural Database, then it will include bibliographic, chemical, 
# crystal, experimental, refinement or atomic coordinate data resulting 
# from the CCDC's data processing and validation procedures.
#
#######################################################################

data_GINPOL
_chemical_formula_moiety         'C22 H18 N4 O6'
_chemical_name_systematic        
2,3-dihydroxy-N'^1^,N'^4^-bis[(2-hydroxyphenyl)methylidene]benzene-1,4-dicarbohydrazide
_symmetry_cell_setting           triclinic
_symmetry_space_group_name_H-M   'P -1'
_symmetry_Int_Tables_number      2
_space_group_name_Hall           '-P 1'
loop_
_symmetry_equiv_pos_site_id
_symmetry_equiv_pos_as_xyz
1 x,y,z
2 -x,-y,-z
_cell_length_a                   6.8206(3)
_cell_length_b                   12.1575(5)
_cell_length_c                   12.4766(5)
_cell_angle_alpha                113.072(2)
_cell_angle_beta                 98.877(2)
_cell_angle_gamma                92.179(2)
_cell_volume                     934.887
_exptl_crystal_colour            colorless
_exptl_crystal_description       block
_cell_formula_units_Z            2
loop_
_atom_site_label
_atom_site_type_symbol
_atom_site_fract_x
_atom_site_fract_y
_atom_site_fract_z
O1 O 0.03554(17) 1.07649(12) 0.28303(12)
H1 H 0.0601(5) 1.0266(14) 0.3133(18)
O2 O 0.32620(18) 0.90730(12) 0.43268(11)
O3 O 0.61674(17) 0.83522(12) 0.53315(11)
H2 H 0.5616(2) 0.8806(13) 0.5043(18)
O4 O 0.74780(17) 0.70323(12) 0.64638(12)
H3 H 0.7981(6) 0.7698(9) 0.6519(18)
O5 O 0.35024(19) 0.45527(13) 0.68704(12)
O6 O 0.65721(18) 0.30631(13) 0.86245(12)
H4 H 0.6326(2) 0.3513(16) 0.8265(18)
N1 N -0.0508(2) 0.90760(14) 0.35156(13)
N2 N 0.0070(2) 0.83021(14) 0.40388(13)
H5 H -0.0804(2) 0.77975(14) 0.41128(13)
N3 N 0.6751(2) 0.52765(14) 0.71512(13)
H6 H 0.7619(2) 0.57649(14) 0.70501(13)
N4 N 0.7368(2) 0.45472(14) 0.77104(13)
C1 C -0.1637(3) 1.06315(17) 0.23879(15)
C2 C -0.2301(3) 1.13573(17) 0.18155(15)
H7 H -0.1372(3) 1.18999(17) 0.17208(15)
C3 C -0.4318(3) 1.12931(17) 0.13803(16)
H8 H -0.4764(3) 1.17872(17) 0.09815(16)
C4 C -0.5691(3) 1.05117(17) 0.15233(16)
H9 H -0.7074(3) 1.04812(17) 0.12358(16)
C5 C -0.5035(3) 0.97774(17) 0.20868(16)
H10 H -0.5978(3) 0.92420(17) 0.21812(16)
C6 C -0.3003(3) 0.98123(16) 0.25195(15)
C7 C -0.2369(3) 0.90093(17) 0.30856(15)
H11 H -0.3314(3) 0.84455(17) 0.31367(15)
C8 C 0.2056(3) 0.83557(16) 0.44349(15)
C9 C 0.2711(3) 0.75310(16) 0.50022(15)
C10 C 0.4762(3) 0.76069(16) 0.54303(15)
C11 C 0.5484(3) 0.68869(16) 0.60256(15)
C12 C 0.4184(3) 0.60577(16) 0.61541(15)
C13 C 0.2135(3) 0.59861(17) 0.57117(15)
H12 H 0.1230(3) 0.54277(17) 0.58007(15)
C14 C 0.1409(3) 0.67017(17) 0.51552(15)
H13 H 0.0016(3) 0.66361(17) 0.48712(15)
C15 C 0.4759(3) 0.52284(17) 0.67546(15)
C16 C 0.9243(3) 0.45603(17) 0.80470(15)
H14 H 1.0177(3) 0.50458(17) 0.78829(15)
C17 C 0.9935(3) 0.38266(17) 0.86827(15)
C18 C 1.1983(3) 0.38318(17) 0.90610(16)
H15 H 1.2918(3) 0.43036(17) 0.88817(16)
C19 C 1.2666(3) 0.31611(18) 0.96918(16)
H16 H 1.4057(3) 0.31742(18) 0.99451(16)
C20 C 1.1293(3) 0.24678(18) 0.99502(16)
H17 H 1.1754(3) 0.20057(18) 1.03817(16)
C21 C 0.9266(3) 0.24437(18) 0.95864(16)
H18 H 0.8345(3) 0.19660(18) 0.97681(16)
C22 C 0.8572(3) 0.31164(17) 0.89554(16)
loop_
_geom_bond_atom_site_label_1
_geom_bond_atom_site_label_2
_geom_bond_site_symmetry_1
_geom_bond_site_symmetry_2
O1 H1 1_555 1_555
O2 C8 1_555 1_555
O3 H2 1_555 1_555
O4 H3 1_555 1_555
O5 C15 1_555 1_555
O6 H4 1_555 1_555
N1 N2 1_555 1_555
N2 H5 1_555 1_555
N3 H6 1_555 1_555
N4 N3 1_555 1_555
C1 O1 1_555 1_555
C2 C1 1_555 1_555
H7 C2 1_555 1_555
C3 C2 1_555 1_555
H8 C3 1_555 1_555
C4 C3 1_555 1_555
H9 C4 1_555 1_555
C5 C4 1_555 1_555
H10 C5 1_555 1_555
C6 C1 1_555 1_555
C7 N1 1_555 1_555
H11 C7 1_555 1_555
C8 N2 1_555 1_555
C9 C8 1_555 1_555
C10 O3 1_555 1_555
C11 O4 1_555 1_555
C12 C11 1_555 1_555
C13 C12 1_555 1_555
H12 C13 1_555 1_555
C14 C9 1_555 1_555
H13 C14 1_555 1_555
C15 N3 1_555 1_555
C16 N4 1_555 1_555
H14 C16 1_555 1_555
C17 C16 1_555 1_555
C18 C17 1_555 1_555
H15 C18 1_555 1_555
C19 C18 1_555 1_555
H16 C19 1_555 1_555
C20 C19 1_555 1_555
H17 C20 1_555 1_555
C21 C20 1_555 1_555
H18 C21 1_555 1_555
C22 O6 1_555 1_555
C5 C6 1_555 1_555
C6 C7 1_555 1_555
C9 C10 1_555 1_555
C10 C11 1_555 1_555
C12 C15 1_555 1_555
C13 C14 1_555 1_555
C17 C22 1_555 1_555
C21 C22 1_555 1_555

#END
