
#######################################################################
#
#                 Cambridge Crystallographic Data Centre
#                                CCDC 
#
#######################################################################
#
# If this CIF has been generated from an entry in the Cambridge 
# Structural Database, then it will include bibliographic, chemical, 
# crystal, experimental, refinement or atomic coordinate data resulting 
# from the CCDC's data processing and validation procedures.
#
#######################################################################

data_GINXIL
_chemical_formula_moiety         'C14 H20 N2'
_chemical_name_systematic        
2,9-dimethyl-1,2,3,4,7,8,9,10-octahydro-1,10-phenanthroline
_symmetry_cell_setting           triclinic
_symmetry_space_group_name_H-M   'P -1'
_symmetry_Int_Tables_number      2
_space_group_name_Hall           '-P 1'
loop_
_symmetry_equiv_pos_site_id
_symmetry_equiv_pos_as_xyz
1 x,y,z
2 -x,-y,-z
_cell_length_a                   8.952(2)
_cell_length_b                   10.126(3)
_cell_length_c                   14.757(4)
_cell_angle_alpha                70.511(10)
_cell_angle_beta                 79.526(10)
_cell_angle_gamma                76.960(10)
_cell_volume                     1220.24
_exptl_crystal_colour            colorless
_exptl_crystal_description       prism
_cell_formula_units_Z            4
loop_
_atom_site_label
_atom_site_type_symbol
_atom_site_fract_x
_atom_site_fract_y
_atom_site_fract_z
N1 N 0.8654(5) 0.8682(5) 0.5051(3)
N2 N 0.6483(5) 1.0584(6) 0.5705(3)
C1 C 0.6883(6) 1.0907(6) 0.4692(3)
C2 C 0.8523(5) 1.0171(6) 0.3371(3)
C3 C 0.8055(5) 0.9936(6) 0.4356(3)
C4 C 0.6225(6) 1.2164(6) 0.4058(3)
C5 C 0.5024(6) 1.3224(6) 0.4414(3)
H1 H 0.5299 1.4182 0.4111
H2 H 0.4018 1.3248 0.4215
C6 C 0.9687(6) 0.9100(6) 0.3012(4)
H3 H 1.0663 0.9471 0.2759
H4 H 0.9310 0.8939 0.2473
C7 C 1.0401(6) 0.6425(5) 0.5536(4)
H5 H 0.9535 0.5907 0.5745
H6 H 1.0620 0.6672 0.6080
H7 H 1.1316 0.5824 0.5312
C8 C 0.7836(6) 1.1434(6) 0.2732(4)
H8 H 0.8136 1.1623 0.2056
C9 C 0.9994(7) 0.7749(7) 0.4732(4)
H9 H 1.0857 0.8268 0.4657
C10 C 0.5235(8) 1.1529(8) 0.6065(4)
H10 H 0.4352 1.1140 0.5984
C11 C 0.6734(6) 1.2407(6) 0.3064(4)
H11 H 0.6306 1.3265 0.2612
C12 C 0.4876(8) 1.2886(7) 0.5462(4)
H12 H 0.5513 1.3462 0.5601
H13 H 0.3789 1.3248 0.5669
C13 C 0.5050(6) 1.1120(6) 0.7126(3)
H14 H 0.5902 1.1356 0.7341
H15 H 0.5057 1.0094 0.7394
H16 H 0.4067 1.1637 0.7351
C14 C 0.9987(8) 0.7724(7) 0.3794(4)
H17 H 0.9200 0.7164 0.3816
H18 H 1.1002 0.7196 0.3602
H19 H 0.876(5) 0.874(5) 0.554(3)
H20 H 0.641(6) 0.971(6) 0.593(4)
N3 N 0.6978(5) 1.3644(5) 0.0040(4)
C15 C 0.7757(5) 1.5902(6) -0.0299(3)
N4 N 0.7829(5) 1.5518(6) 0.0709(3)
C16 C 0.7255(5) 1.4959(6) -0.0639(3)
C17 C 0.8049(6) 1.7212(6) -0.0926(4)
C18 C 0.7137(5) 1.5253(6) -0.1619(3)
C19 C 0.8505(6) 1.8251(6) -0.0548(4)
H21 H 0.9549 1.8425 -0.0859
H22 H 0.7779 1.9167 -0.0729
C20 C 0.7901(6) 1.7504(6) -0.1908(4)
H23 H 0.8100 1.8389 -0.2353
C21 C 0.6714(6) 1.4185(6) -0.1983(4)
H24 H 0.5640 1.4506 -0.2148
H25 H 0.7401 1.4124 -0.2580
C22 C 0.6292(7) 1.2744(6) -0.0282(4)
H26 H 0.5188 1.3226 -0.0313
C23 C 0.6214(6) 1.1364(6) 0.0499(4)
H27 H 0.7262 1.0843 0.0609
H28 H 0.5654 1.0794 0.0304
H29 H 0.5674 1.1548 0.1097
C24 C 0.7480(6) 1.6553(7) -0.2238(4)
H30 H 0.7417 1.6782 -0.2911
C25 C 0.9003(17) 1.7723(18) 0.0386(14)
H31 H 0.8946 1.8526 0.0639
H32 H 1.0090 1.7230 0.0346
C26 C 0.7996(19) 1.670(3) 0.1067(15)
H33 H 0.6938 1.7269 0.1137
C27 C 0.8436(6) 1.5909(6) 0.2120(4)
H34 H 0.9012 1.6466 0.2315
H35 H 0.8955 1.4911 0.2288
H36 H 0.7385 1.5972 0.2457
C28 C 0.6846(8) 1.2768(7) -0.1258(4)
H37 H 0.6271 1.2187 -0.1443
H38 H 0.7946 1.2307 -0.1283
H39 H 0.660(6) 1.385(6) 0.049(4)
H40 H 0.831(5) 1.468(5) 0.088(4)
C29? C 0.8141(17) 1.7769(17) 0.0576(11)
H41? H 0.8561 1.8373 0.0839
H42? H 0.7007 1.7918 0.0750
C30? C 0.8789(17) 1.627(2) 0.1029(14)
H43? H 0.9915 1.6029 0.0815
loop_
_geom_bond_atom_site_label_1
_geom_bond_atom_site_label_2
_geom_bond_site_symmetry_1
_geom_bond_site_symmetry_2
N1 C3 1_555 1_555
N2 C1 1_555 1_555
C1 C3 1_555 1_555
C2 C3 1_555 1_555
C4 C1 1_555 1_555
C5 C4 1_555 1_555
H1 C5 1_555 1_555
H2 C5 1_555 1_555
C6 C2 1_555 1_555
H3 C6 1_555 1_555
H4 C6 1_555 1_555
C7 H5 1_555 1_555
H6 C7 1_555 1_555
H7 C7 1_555 1_555
C8 C2 1_555 1_555
H8 C8 1_555 1_555
C9 N1 1_555 1_555
H9 C9 1_555 1_555
C10 N2 1_555 1_555
H10 C10 1_555 1_555
C11 C4 1_555 1_555
H11 C11 1_555 1_555
C12 C5 1_555 1_555
H12 C12 1_555 1_555
H13 C12 1_555 1_555
C13 C10 1_555 1_555
H14 C13 1_555 1_555
H15 C13 1_555 1_555
H16 C13 1_555 1_555
C14 C6 1_555 1_555
H17 C14 1_555 1_555
H18 C14 1_555 1_555
H19 N1 1_555 1_555
H20 N2 1_555 1_555
N3 C16 1_555 1_555
C15 N4 1_555 1_555
N4 C26 1_555 1_555
C16 C15 1_555 1_555
C17 C15 1_555 1_555
C18 C16 1_555 1_555
C19 C17 1_555 1_555
H21 C19 1_555 1_555
H22 C19 1_555 1_555
C20 C17 1_555 1_555
H23 C20 1_555 1_555
C21 C18 1_555 1_555
H24 C21 1_555 1_555
H25 C21 1_555 1_555
C22 N3 1_555 1_555
H26 C22 1_555 1_555
C23 C22 1_555 1_555
H27 C23 1_555 1_555
H28 C23 1_555 1_555
H29 C23 1_555 1_555
C24 C18 1_555 1_555
H30 C24 1_555 1_555
C25 C19 1_555 1_555
H31 C25 1_555 1_555
H32 C25 1_555 1_555
C26 C25 1_555 1_555
H33 C26 1_555 1_555
C27 C26 1_555 1_555
H34 C27 1_555 1_555
H35 C27 1_555 1_555
H36 C27 1_555 1_555
C28 C21 1_555 1_555
H37 C28 1_555 1_555
H38 C28 1_555 1_555
H39 N3 1_555 1_555
H40 N4 1_555 1_555
C7 C9 1_555 1_555
C8 C11 1_555 1_555
C9 C14 1_555 1_555
C10 C12 1_555 1_555
C20 C24 1_555 1_555
C22 C28 1_555 1_555

#END
