
#######################################################################
#
#                 Cambridge Crystallographic Data Centre
#                                CCDC 
#
#######################################################################
#
# If this CIF has been generated from an entry in the Cambridge 
# Structural Database, then it will include bibliographic, chemical, 
# crystal, experimental, refinement or atomic coordinate data resulting 
# from the CCDC's data processing and validation procedures.
#
#######################################################################

data_GINZEL
_chemical_formula_moiety         'C12 H14 N2 O1'
_chemical_name_systematic        
2-phenylhexahydro-1H-pyrrolo[1,2-c]imidazol-1-one
_symmetry_cell_setting           monoclinic
_symmetry_space_group_name_H-M   'P 21'
_symmetry_Int_Tables_number      4
_space_group_name_Hall           'P 2yb'
loop_
_symmetry_equiv_pos_site_id
_symmetry_equiv_pos_as_xyz
1 x,y,z
2 -x,1/2+y,-z
_cell_length_a                   9.50630(10)
_cell_length_b                   10.14340(10)
_cell_length_c                   11.02020(10)
_cell_angle_alpha                90
_cell_angle_beta                 106.7480(10)
_cell_angle_gamma                90
_cell_volume                     1017.56
_exptl_crystal_colour            colorless
_exptl_crystal_description       needle
_cell_formula_units_Z            4
loop_
_atom_site_label
_atom_site_type_symbol
_atom_site_fract_x
_atom_site_fract_y
_atom_site_fract_z
C1 C 0.9047(2) 0.29117(17) 0.12853(16)
H1 H 0.8179 0.3097 0.1551
H2 H 0.9224 0.1969 0.1326
C2 C 0.8889(2) 0.34447(18) -0.00389(16)
H3 H 0.7916 0.3274 -0.0603
H4 H 0.9616 0.3062 -0.0397
C3 C 0.9152(2) 0.49286(18) 0.02030(15)
H5 H 0.8231 0.5392 0.0090
H6 H 0.9658 0.5302 -0.0365
C4 C 1.01139(18) 0.50100(16) 0.15921(15)
H7 H 1.1060 0.5422 0.1638
C5 C 0.93799(18) 0.57174(15) 0.24710(14)
C6 C 1.03673(18) 0.37216(16) 0.33886(14)
H8 H 1.1367 0.3825 0.3927
H9 H 0.9950 0.2933 0.3645
C7 C 0.90118(17) 0.51381(15) 0.45620(14)
C8 C 0.79097(18) 0.60531(16) 0.45376(15)
H10 H 0.7502 0.6554 0.3815
C9 C 0.74264(19) 0.62078(16) 0.56064(16)
H11 H 0.6681 0.6809 0.5588
C10 C 0.80360(19) 0.54808(18) 0.67035(15)
H12 H 0.7708 0.5598 0.7414
C11 C 0.91395(19) 0.45798(17) 0.67230(15)
H13 H 0.9549 0.4085 0.7450
C12 C 0.96370(18) 0.44102(16) 0.56657(15)
H14 H 1.0386 0.3812 0.5691
N1 N 1.03356(15) 0.36398(13) 0.20660(12)
N2 N 0.94782(15) 0.48885(13) 0.34744(12)
O1 O 0.88189(14) 0.68076(11) 0.22977(11)
C13 C 0.3550(2) 0.33541(19) 0.03982(19)
H15 H 0.2859 0.3107 0.0857
H16 H 0.3689 0.2605 -0.0102
C14 C 0.2960(5) 0.4531(4) -0.0465(4)
H17 H 0.2535 0.4249 -0.1334
H18 H 0.2220 0.5002 -0.0186
C15 C 0.4304(2) 0.53873(18) -0.03405(16)
H19 H 0.4038 0.6308 -0.0500
H20 H 0.4852 0.5101 -0.0912
C16 C 0.51737(19) 0.51572(17) 0.10441(15)
H21 H 0.6216 0.5359 0.1179
C17 C 0.45722(18) 0.59132(16) 0.19900(15)
C18 C 0.4987(2) 0.37157(16) 0.26149(16)
H22 H 0.5977 0.3587 0.3163
H23 H 0.4370 0.3006 0.2759
C19 C 0.39962(17) 0.52645(15) 0.39727(14)
C20 C 0.31010(18) 0.63362(15) 0.40456(15)
H24 H 0.2792 0.6918 0.3369
C21 C 0.26772(19) 0.65240(16) 0.51355(16)
H25 H 0.2075 0.7233 0.5181
C22 C 0.3137(2) 0.56684(17) 0.61652(15)
H26 H 0.2845 0.5804 0.6891
C23 C 0.40391(19) 0.46111(17) 0.60922(15)
H27 H 0.4355 0.4036 0.6774
C24 C 0.44698(18) 0.44104(16) 0.50063(15)
H28 H 0.5077 0.3703 0.4965
N3 N 0.49767(16) 0.37513(14) 0.13012(14)
N4 N 0.44046(15) 0.50075(13) 0.28614(13)
O2 O 0.43080(14) 0.70894(11) 0.19677(11)
H29? H 0.3542 0.2415 0.0228
H30? H 0.2745 0.3555 0.0745
H31? H 0.4957 0.5532 -0.0861
H32? H 0.3654 0.6140 -0.0422
C25? C 0.3410(11) 0.4079(10) -0.0722(6)
H33? H 0.2385 0.4276 -0.1134
H34? H 0.3794 0.3575 -0.1304
loop_
_geom_bond_atom_site_label_1
_geom_bond_atom_site_label_2
_geom_bond_site_symmetry_1
_geom_bond_site_symmetry_2
C1 H1 1_555 1_555
H2 C1 1_555 1_555
C2 C1 1_555 1_555
H3 C2 1_555 1_555
H4 C2 1_555 1_555
C3 C2 1_555 1_555
H5 C3 1_555 1_555
H6 C3 1_555 1_555
C4 C3 1_555 1_555
H7 C4 1_555 1_555
C5 C4 1_555 1_555
C6 H8 1_555 1_555
H9 C6 1_555 1_555
C7 C8 1_555 1_555
C8 H10 1_555 1_555
C9 C8 1_555 1_555
H11 C9 1_555 1_555
C10 C9 1_555 1_555
H12 C10 1_555 1_555
C11 C10 1_555 1_555
H13 C11 1_555 1_555
C12 C7 1_555 1_555
H14 C12 1_555 1_555
N1 C1 1_555 1_555
N2 C5 1_555 1_555
O1 C5 1_555 1_555
C13 H15 1_555 1_555
H16 C13 1_555 1_555
C14 C13 1_555 1_555
H17 C14 1_555 1_555
H18 C14 1_555 1_555
C15 C14 1_555 1_555
H19 C15 1_555 1_555
H20 C15 1_555 1_555
C16 C15 1_555 1_555
H21 C16 1_555 1_555
C17 C16 1_555 1_555
C18 H22 1_555 1_555
H23 C18 1_555 1_555
C19 C20 1_555 1_555
C20 H24 1_555 1_555
C21 C20 1_555 1_555
H25 C21 1_555 1_555
C22 C21 1_555 1_555
H26 C22 1_555 1_555
C23 C22 1_555 1_555
H27 C23 1_555 1_555
C24 C19 1_555 1_555
H28 C24 1_555 1_555
N3 C13 1_555 1_555
N4 C17 1_555 1_555
O2 C17 1_555 1_555
C4 N1 1_555 1_555
C6 N1 1_555 1_555
C6 N2 1_555 1_555
C7 N2 1_555 1_555
C11 C12 1_555 1_555
C16 N3 1_555 1_555
C18 N3 1_555 1_555
C18 N4 1_555 1_555
C19 N4 1_555 1_555
C23 C24 1_555 1_555

#END
