
#######################################################################
#
#                 Cambridge Crystallographic Data Centre
#                                CCDC 
#
#######################################################################
#
# If this CIF has been generated from an entry in the Cambridge 
# Structural Database, then it will include bibliographic, chemical, 
# crystal, experimental, refinement or atomic coordinate data resulting 
# from the CCDC's data processing and validation procedures.
#
#######################################################################

data_GIPBIS
_chemical_formula_moiety         'C37 H30 O6'
_chemical_name_systematic        
(2S,6R)-3-Cinnamoyl-2-(2,5-dimethoxyphenyl)-4-hydroxy-6-phenylspiro[cyclohex-3-ene-1,2'-indene]-1',3'-dione
_symmetry_cell_setting           orthorhombic
_symmetry_space_group_name_H-M   'P 21 21 21'
_symmetry_Int_Tables_number      19
_space_group_name_Hall           'P 2ac 2ab'
loop_
_symmetry_equiv_pos_site_id
_symmetry_equiv_pos_as_xyz
1 x,y,z
2 1/2-x,-y,1/2+z
3 1/2+x,1/2-y,-z
4 -x,1/2+y,1/2-z
_cell_length_a                   10.32203(9)
_cell_length_b                   16.61199(17)
_cell_length_c                   17.47167(17)
_cell_angle_alpha                90
_cell_angle_beta                 90
_cell_angle_gamma                90
_cell_volume                     2995.86
_cell_formula_units_Z            4
loop_
_atom_site_label
_atom_site_type_symbol
_atom_site_fract_x
_atom_site_fract_y
_atom_site_fract_z
O1 O -0.91050(10) -0.27545(6) -0.05670(6)
O2 O -0.60479(10) -0.34605(7) -0.24746(6)
O3 O -0.90437(9) -0.46076(6) -0.07163(6)
O4 O -0.64136(13) -0.38795(8) 0.19431(6)
O5 O -0.31548(9) -0.34047(7) -0.10683(6)
H1 H -0.2953 -0.3880 -0.1021
O6 O -0.34090(9) -0.48584(6) -0.08374(6)
C1 C -1.08969(17) -0.30583(12) -0.28492(11)
H2 H -1.1759 -0.2990 -0.2989
C2 C -0.99930(19) -0.32623(14) -0.34069(11)
H3 H -1.0263 -0.3331 -0.3911
C3 C -0.86995(17) -0.33646(12) -0.32248(9)
H4 H -0.8093 -0.3504 -0.3596
C4 C -0.83413(14) -0.32510(9) -0.24667(8)
C5 C -0.92431(13) -0.30541(8) -0.19084(8)
C6 C -1.05443(14) -0.29547(10) -0.20917(10)
H5 H -1.1153 -0.2824 -0.1720
C7 C -0.70330(13) -0.32952(8) -0.21293(8)
C8 C -0.71334(12) -0.31293(8) -0.12657(7)
C9 C -0.85958(13) -0.29635(8) -0.11586(8)
C10 C -0.63431(13) -0.23857(8) -0.09937(7)
H6 H -0.6449 -0.2348 -0.0437
C11 C -0.48989(13) -0.25042(8) -0.11517(8)
H7 H -0.4728 -0.2366 -0.1682
H8 H -0.4412 -0.2133 -0.0834
C12 C -0.44205(13) -0.33307(9) -0.10087(7)
C13 C -0.52072(12) -0.39831(8) -0.08538(8)
C14 C -0.66787(12) -0.39146(8) -0.08497(7)
H9 H -0.6990 -0.4360 -0.1168
C15 C -0.72686(12) -0.40524(8) -0.00636(8)
C16 C -0.66264(13) -0.38723(8) 0.06123(8)
H10 H -0.5834 -0.3607 0.0594
C17 C -0.71531(16) -0.40834(9) 0.13196(9)
C18 C -0.83324(16) -0.44727(10) 0.13540(9)
H11 H -0.8678 -0.4622 0.1825
C19 C -0.90024(15) -0.46410(9) 0.06816(10)
H12 H -0.9809 -0.4889 0.0705
C20 C -0.84759(13) -0.44424(8) -0.00209(9)
C21 C -1.03588(17) -0.48494(15) -0.07132(13)
H13 H -1.0675 -0.4870 -0.1229
H14 H -1.0861 -0.4469 -0.0425
H15 H -1.0432 -0.5372 -0.0483
C22 C -0.6859(3) -0.41244(17) 0.26741(11)
H16 H -0.6968 -0.4698 0.2680
H17 H -0.7673 -0.3869 0.2781
H18 H -0.6236 -0.3972 0.3056
C23 C -0.46244(12) -0.47601(9) -0.07838(8)
C24 C -0.54423(13) -0.54762(8) -0.06650(8)
H19 H -0.6261 -0.5413 -0.0451
C25 C -0.50438(13) -0.62098(8) -0.08552(8)
H20 H -0.4226 -0.6250 -0.1076
C26 C -0.57645(14) -0.69620(8) -0.07521(8)
C27 C -0.53269(16) -0.76605(10) -0.11046(9)
H21 H -0.4600 -0.7639 -0.1418
C28 C -0.59532(18) -0.83867(9) -0.09977(10)
H22 H -0.5660 -0.8846 -0.1248
C29 C -0.70115(18) -0.84289(10) -0.05209(11)
H23 H -0.7416 -0.8920 -0.0431
C30 C -0.74694(17) -0.77375(11) -0.01770(11)
H24 H -0.8193 -0.7765 0.0139
C31 C -0.68691(15) -0.70058(10) -0.02950(9)
H25 H -0.7201 -0.6542 -0.0070
C32 C -0.68658(13) -0.16079(8) -0.13368(8)
C33 C -0.77037(15) -0.11263(9) -0.09133(9)
H26 H -0.7905 -0.1272 -0.0413
C34 C -0.82432(17) -0.04361(10) -0.12192(10)
H27 H -0.8808 -0.0127 -0.0927
C35 C -0.7948(2) -0.02051(10) -0.19560(11)
H28 H -0.8308 0.0260 -0.2162
C36 C -0.7110(2) -0.06707(11) -0.23852(10)
H29 H -0.6902 -0.0517 -0.2882
C37 C -0.65764(17) -0.13653(10) -0.20786(9)
H30 H -0.6016 -0.1674 -0.2374
loop_
_geom_bond_atom_site_label_1
_geom_bond_atom_site_label_2
_geom_bond_site_symmetry_1
_geom_bond_site_symmetry_2
O1 C9 1_555 1_555
O2 C7 1_555 1_555
O3 C20 1_555 1_555
O4 C17 1_555 1_555
O5 H1 1_555 1_555
O6 C23 1_555 1_555
C1 H2 1_555 1_555
C2 C1 1_555 1_555
H3 C2 1_555 1_555
C3 C2 1_555 1_555
H4 C3 1_555 1_555
C4 C3 1_555 1_555
C5 C4 1_555 1_555
C6 C1 1_555 1_555
H5 C6 1_555 1_555
C7 C4 1_555 1_555
C8 C7 1_555 1_555
C9 C5 1_555 1_555
C10 C8 1_555 1_555
H6 C10 1_555 1_555
C11 C10 1_555 1_555
H7 C11 1_555 1_555
H8 C11 1_555 1_555
C12 O5 1_555 1_555
C13 C12 1_555 1_555
C14 C8 1_555 1_555
H9 C14 1_555 1_555
C15 C14 1_555 1_555
C16 C15 1_555 1_555
H10 C16 1_555 1_555
C17 C16 1_555 1_555
C18 C17 1_555 1_555
H11 C18 1_555 1_555
C19 C18 1_555 1_555
H12 C19 1_555 1_555
C20 C15 1_555 1_555
C21 O3 1_555 1_555
H13 C21 1_555 1_555
H14 C21 1_555 1_555
H15 C21 1_555 1_555
C22 O4 1_555 1_555
H16 C22 1_555 1_555
H17 C22 1_555 1_555
H18 C22 1_555 1_555
C23 C13 1_555 1_555
C24 C23 1_555 1_555
H19 C24 1_555 1_555
C25 C24 1_555 1_555
H20 C25 1_555 1_555
C26 C25 1_555 1_555
C27 C26 1_555 1_555
H21 C27 1_555 1_555
C28 C27 1_555 1_555
H22 C28 1_555 1_555
C29 C28 1_555 1_555
H23 C29 1_555 1_555
C30 C29 1_555 1_555
H24 C30 1_555 1_555
C31 C26 1_555 1_555
H25 C31 1_555 1_555
C32 C10 1_555 1_555
C33 C32 1_555 1_555
H26 C33 1_555 1_555
C34 C33 1_555 1_555
H27 C34 1_555 1_555
C35 C34 1_555 1_555
H28 C35 1_555 1_555
C36 C35 1_555 1_555
H29 C36 1_555 1_555
C37 C32 1_555 1_555
H30 C37 1_555 1_555
C5 C6 1_555 1_555
C8 C9 1_555 1_555
C11 C12 1_555 1_555
C13 C14 1_555 1_555
C19 C20 1_555 1_555
C30 C31 1_555 1_555
C36 C37 1_555 1_555

#END
