
#######################################################################
#
#                 Cambridge Crystallographic Data Centre
#                                CCDC 
#
#######################################################################
#
# If this CIF has been generated from an entry in the Cambridge 
# Structural Database, then it will include bibliographic, chemical, 
# crystal, experimental, refinement or atomic coordinate data resulting 
# from the CCDC's data processing and validation procedures.
#
#######################################################################

data_GIPBAK
_chemical_formula_moiety         'C13 H10 N2 O2 S1'
_chemical_name_systematic        
'2-(6-methoxybenzo[d]thiazol-2-yl)pyridine 1-oxide'
_symmetry_cell_setting           orthorhombic
_symmetry_space_group_name_H-M   'P 21 21 21'
_symmetry_Int_Tables_number      19
_space_group_name_Hall           'P 2ac 2ab'
loop_
_symmetry_equiv_pos_site_id
_symmetry_equiv_pos_as_xyz
1 x,y,z
2 1/2-x,-y,1/2+z
3 -x,1/2+y,1/2-z
4 1/2+x,1/2-y,-z
_cell_length_a                   4.5511(9)
_cell_length_b                   12.659(3)
_cell_length_c                   19.489(4)
_cell_angle_alpha                90
_cell_angle_beta                 90
_cell_angle_gamma                90
_cell_volume                     1122.81
_exptl_crystal_colour            yellow
_exptl_crystal_description       rod
_chemical_melting_point          '469 K'
_cell_formula_units_Z            4
_exptl_crystal_recrystallization_method dichloromethane/acetone
loop_
_atom_site_label
_atom_site_type_symbol
_atom_site_fract_x
_atom_site_fract_y
_atom_site_fract_z
S1 S 0.07895(13) 0.10150(4) 0.51357(3)
O1 O -0.2175(4) 0.09776(13) 0.62797(9)
O2 O 0.7406(4) 0.12862(12) 0.29434(8)
N1 N -0.3588(4) 0.00867(14) 0.62138(9)
N2 N -0.0317(4) -0.08467(13) 0.46282(9)
C1 C -0.5593(6) -0.02003(18) 0.66926(11)
H1 H -0.5957 0.0256 0.7070
C2 C -0.7109(5) -0.1132(2) 0.66461(11)
H2 H -0.8523 -0.1313 0.6985
C3 C -0.6566(5) -0.18108(18) 0.60999(11)
H3 H -0.7571 -0.2466 0.6065
C4 C -0.4549(5) -0.15149(16) 0.56123(11)
H4 H -0.4164 -0.1972 0.5236
C5 C -0.3056(5) -0.05553(17) 0.56585(11)
C6 C -0.0955(5) -0.02207(15) 0.51379(11)
C7 C 0.2500(5) 0.06611(16) 0.43738(11)
C8 C 0.1660(5) -0.03681(17) 0.41892(11)
C9 C 0.2854(5) -0.08229(17) 0.35941(11)
H5 H 0.2341 -0.1522 0.3464
C10 C 0.4769(5) -0.02448(17) 0.32042(11)
H6 H 0.5585 -0.0549 0.2801
C11 C 0.5551(5) 0.07936(16) 0.33894(11)
C12 C 0.4430(5) 0.12590(16) 0.39779(10)
H7 H 0.4958 0.1958 0.4106
C13 C 0.8221(6) 0.23507(19) 0.30969(14)
H8 H 0.9557 0.2614 0.2741
H9 H 0.9209 0.2374 0.3543
H10 H 0.6458 0.2794 0.3111
loop_
_geom_bond_atom_site_label_1
_geom_bond_atom_site_label_2
_geom_bond_site_symmetry_1
_geom_bond_site_symmetry_2
S1 C6 1_555 1_555
O1 N1 1_555 1_555
O2 C11 1_555 1_555
N1 C1 1_555 1_555
N2 C6 1_555 1_555
C1 H1 1_555 1_555
C2 C1 1_555 1_555
H2 C2 1_555 1_555
C3 C2 1_555 1_555
H3 C3 1_555 1_555
C4 C3 1_555 1_555
H4 C4 1_555 1_555
C5 N1 1_555 1_555
C6 C5 1_555 1_555
C7 S1 1_555 1_555
C8 N2 1_555 1_555
C9 C8 1_555 1_555
H5 C9 1_555 1_555
C10 C9 1_555 1_555
H6 C10 1_555 1_555
C11 C10 1_555 1_555
C12 C7 1_555 1_555
H7 C12 1_555 1_555
C13 O2 1_555 1_555
H8 C13 1_555 1_555
H9 C13 1_555 1_555
H10 C13 1_555 1_555
C4 C5 1_555 1_555
C7 C8 1_555 1_555
C11 C12 1_555 1_555

#END
