
#######################################################################
#
#                 Cambridge Crystallographic Data Centre
#                                CCDC 
#
#######################################################################
#
# If this CIF has been generated from an entry in the Cambridge 
# Structural Database, then it will include bibliographic, chemical, 
# crystal, experimental, refinement or atomic coordinate data resulting 
# from the CCDC's data processing and validation procedures.
#
#######################################################################

data_GIPBEN
_chemical_name_common            
'(R!P$S$C!)-O-(4-nitrophenyl) P-methyl-N-(1-phenylethyl)phosphonamidothioate'
_chemical_formula_moiety         'C15 H17 N2 O3 P1 S1'
_chemical_name_systematic        
'(R~P~S^C^)-4-Nitrophenyl N-(\a-methylbenzyl)methylphosphoramidothioate'
_symmetry_cell_setting           orthorhombic
_symmetry_space_group_name_H-M   'P 21 21 21'
_symmetry_Int_Tables_number      19
_space_group_name_Hall           'P 2ac 2ab'
loop_
_symmetry_equiv_pos_site_id
_symmetry_equiv_pos_as_xyz
1 x,y,z
2 1/2-x,-y,1/2+z
3 -x,1/2+y,1/2-z
4 1/2+x,1/2-y,-z
_cell_length_a                   5.9873(4)
_cell_length_b                   10.6676(7)
_cell_length_c                   25.4388(18)
_cell_angle_alpha                90
_cell_angle_beta                 90
_cell_angle_gamma                90
_cell_volume                     1624.78
_exptl_crystal_colour            colorless
_exptl_crystal_description       prism
_chemical_melting_point          '121-122 deg.C'
_cell_formula_units_Z            4
_exptl_crystal_recrystallization_method benzene/hexane
loop_
_atom_site_label
_atom_site_type_symbol
_atom_site_fract_x
_atom_site_fract_y
_atom_site_fract_z
S1 S 0.75852(10) 0.04132(6) 0.22203(3)
P1 P 1.04742(10) -0.02934(6) 0.20424(3)
O1 O 0.1369(3) -0.43007(17) 0.11884(9)
O2 O 0.1820(3) -0.33592(19) 0.04388(8)
O3 O 1.0288(3) -0.14031(16) 0.16077(7)
N1 N 1.2226(3) 0.07465(18) 0.18159(9)
N2 N 0.2419(4) -0.36086(19) 0.08888(10)
C1 C 1.1610(4) 0.1767(2) 0.14497(11)
H1 H 1.0178 0.2112 0.1568
C2 C 0.8310(4) -0.1942(2) 0.14382(11)
C3 C 0.7073(4) -0.2700(2) 0.17767(11)
H2 H 0.7550 -0.2831 0.2120
C4 C 0.5131(4) -0.3252(2) 0.15970(10)
H3 H 0.4270 -0.3754 0.1817
C5 C 0.4504(4) -0.3040(2) 0.10827(10)
C6 C 0.5743(5) -0.2316(2) 0.07429(11)
H4 H 0.5285 -0.2203 0.0397
C7 C 0.7674(5) -0.1760(2) 0.09239(10)
H5 H 0.8538 -0.1268 0.0701
C8 C 1.1315(4) 0.1335(2) 0.08851(11)
C9 C 1.2945(4) 0.0635(2) 0.06275(11)
H6 H 1.4215 0.0388 0.0810
C10 C 1.2712(5) 0.0301(2) 0.01059(11)
H7 H 1.3819 -0.0164 -0.0061
C11 C 1.0816(5) 0.0665(2) -0.01683(12)
H8 H 1.0659 0.0448 -0.0520
C12 C 0.9165(5) 0.1345(2) 0.00786(11)
H9 H 0.7887 0.1581 -0.0104
C13 C 0.9433(4) 0.1673(2) 0.06038(11)
H10 H 0.8317 0.2132 0.0770
C14 C 1.1966(4) -0.1034(2) 0.25626(11)
H11 H 1.2172 -0.0449 0.2845
H12 H 1.3396 -0.1308 0.2436
H13 H 1.1133 -0.1744 0.2687
C15 C 1.3344(5) 0.2802(2) 0.14958(11)
H14 H 1.3470 0.3058 0.1856
H15 H 1.2896 0.3505 0.1285
H16 H 1.4763 0.2497 0.1375
H17 H 1.365(3) 0.053(2) 0.1798(11)
loop_
_geom_bond_atom_site_label_1
_geom_bond_atom_site_label_2
_geom_bond_site_symmetry_1
_geom_bond_site_symmetry_2
S1 P1 1_555 1_555
P1 O3 1_555 1_555
O1 N2 1_555 1_555
O2 N2 1_555 1_555
O3 C2 1_555 1_555
N1 P1 1_555 1_555
N2 C5 1_555 1_555
C1 N1 1_555 1_555
H1 C1 1_555 1_555
C2 C3 1_555 1_555
C3 H2 1_555 1_555
C4 C3 1_555 1_555
H3 C4 1_555 1_555
C5 C4 1_555 1_555
C6 C5 1_555 1_555
H4 C6 1_555 1_555
C7 C2 1_555 1_555
H5 C7 1_555 1_555
C8 C1 1_555 1_555
C9 C8 1_555 1_555
H6 C9 1_555 1_555
C10 C9 1_555 1_555
H7 C10 1_555 1_555
C11 C10 1_555 1_555
H8 C11 1_555 1_555
C12 C11 1_555 1_555
H9 C12 1_555 1_555
C13 C8 1_555 1_555
H10 C13 1_555 1_555
C14 P1 1_555 1_555
H11 C14 1_555 1_555
H12 C14 1_555 1_555
H13 C14 1_555 1_555
C15 C1 1_555 1_555
H14 C15 1_555 1_555
H15 C15 1_555 1_555
H16 C15 1_555 1_555
H17 N1 1_555 1_555
C6 C7 1_555 1_555
C12 C13 1_555 1_555

#END
