
#######################################################################
#
#                 Cambridge Crystallographic Data Centre
#                                CCDC 
#
#######################################################################
#
# If this CIF has been generated from an entry in the Cambridge 
# Structural Database, then it will include bibliographic, chemical, 
# crystal, experimental, refinement or atomic coordinate data resulting 
# from the CCDC's data processing and validation procedures.
#
#######################################################################

data_GIPBEO
_chemical_formula_moiety         'C15 H13 Cl1 N2 O2'
_chemical_name_systematic        
5-((Benzyloxy)methyl)-3-(3-chloro-1H-pyrrol-2-yl)-1,2-oxazole
_symmetry_cell_setting           triclinic
_symmetry_space_group_name_H-M   'P -1'
_symmetry_Int_Tables_number      2
_space_group_name_Hall           '-P 1'
loop_
_symmetry_equiv_pos_site_id
_symmetry_equiv_pos_as_xyz
1 x,y,z
2 -x,-y,-z
_cell_length_a                   4.7105(7)
_cell_length_b                   14.536(2)
_cell_length_c                   20.565(3)
_cell_angle_alpha                78.293(2)
_cell_angle_beta                 89.673(2)
_cell_angle_gamma                86.837(2)
_cell_volume                     1376.71
_exptl_crystal_colour            colorless
_exptl_crystal_description       platelet
_cell_formula_units_Z            4
loop_
_atom_site_label
_atom_site_type_symbol
_atom_site_fract_x
_atom_site_fract_y
_atom_site_fract_z
Cl1 Cl 0.26897(10) 0.39593(3) 0.32134(2)
O1 O 0.7088(2) 0.32274(8) 0.56563(5)
O2 O 0.5926(2) 0.11734(7) 0.59028(5)
N1 N 0.8125(3) 0.53657(9) 0.39655(6)
H1 H 0.9184 0.5477 0.4277
N2 N 0.7799(3) 0.39831(9) 0.51492(7)
C1 C 0.5072(3) 0.47150(11) 0.34177(8)
C2 C 0.6059(4) 0.55060(12) 0.29829(8)
H2 H 0.5532 0.5726 0.2541
C3 C 0.7950(4) 0.58870(12) 0.33401(9)
H3 H 0.8954 0.6419 0.3180
C4 C 0.6363(3) 0.46338(10) 0.40280(7)
C5 C 0.6147(3) 0.39510(10) 0.46400(7)
C6 C 0.4334(3) 0.31876(11) 0.47996(8)
H4 H 0.2977 0.3015 0.4527
C7 C 0.5001(3) 0.27715(11) 0.54257(8)
C8 C 0.3938(4) 0.19430(11) 0.58901(9)
H5 H 0.3729 0.2077 0.6332
H6 H 0.2097 0.1795 0.5742
C9 C 0.4898(4) 0.03289(11) 0.62853(9)
H7 H 0.3150 0.0182 0.6091
H8 H 0.4501 0.0408 0.6735
C10 C 0.7105(3) -0.04549(11) 0.62963(8)
C11 C 0.8129(4) -0.06849(13) 0.57137(9)
H9 H 0.7407 -0.0354 0.5308
C12 C 1.0198(4) -0.13959(14) 0.57250(11)
H10 H 1.0880 -0.1537 0.5329
C13 C 1.1251(4) -0.18949(14) 0.63217(13)
H11 H 1.2645 -0.2376 0.6331
C14 C 1.0245(5) -0.16829(14) 0.69026(11)
H12 H 1.0944 -0.2025 0.7307
C15 C 0.8195(4) -0.09620(12) 0.68898(9)
H13 H 0.7542 -0.0817 0.7287
Cl2 Cl 0.09316(12) 0.86295(4) 0.25187(2)
O3 O 0.7849(3) 0.80152(9) 0.05533(6)
O4 O 0.7925(3) 0.58435(8) 0.12009(6)
N3 N 0.1728(3) 1.01601(10) 0.07566(7)
H14 H 0.2446 1.0300 0.0366
N4 N 0.5896(4) 0.87969(11) 0.05177(7)
C16 C 0.0845(4) 0.94300(13) 0.17727(8)
C17 C -0.0958(4) 1.02510(14) 0.16268(10)
H15 H -0.2304 1.0456 0.1906
C18 C -0.0339(4) 1.06839(14) 0.09967(10)
H16 H -0.1194 1.1248 0.0767
C19 C 0.2510(4) 0.93765(12) 0.12261(8)
C20 C 0.4661(4) 0.86854(11) 0.11007(8)
C21 C 0.5758(4) 0.78508(12) 0.15242(8)
H17 H 0.5245 0.7618 0.1962
C22 C 0.7680(4) 0.74686(12) 0.11653(8)
C23 C 0.9547(4) 0.65921(13) 0.12980(10)
H18 H 1.1155 0.6655 0.0998
H19 H 1.0263 0.6472 0.1750
C24 C 0.9587(4) 0.49708(12) 0.13233(10)
H20 H 1.0291 0.4831 0.1777
H21 H 1.1204 0.5012 0.1027
C25 C 0.7745(4) 0.42106(11) 0.12094(8)
C26 C 0.6586(4) 0.36210(14) 0.17296(10)
H22 H 0.6947 0.3689 0.2161
C27 C 0.4882(5) 0.29238(17) 0.16231(15)
H23 H 0.4096 0.2525 0.1982
C28 C 0.4340(5) 0.28163(17) 0.09878(18)
H24 H 0.3220 0.2339 0.0915
C29 C 0.5457(6) 0.3414(2) 0.04652(14)
H25 H 0.5059 0.3359 0.0033
C30 C 0.7164(5) 0.40956(17) 0.05784(10)
H26 H 0.7954 0.4492 0.0219
loop_
_geom_bond_atom_site_label_1
_geom_bond_atom_site_label_2
_geom_bond_site_symmetry_1
_geom_bond_site_symmetry_2
Cl1 C1 1_555 1_555
O1 N2 1_555 1_555
O2 C8 1_555 1_555
N1 H1 1_555 1_555
N2 C5 1_555 1_555
C1 C2 1_555 1_555
C2 H2 1_555 1_555
C3 N1 1_555 1_555
H3 C3 1_555 1_555
C4 N1 1_555 1_555
C5 C4 1_555 1_555
C6 C5 1_555 1_555
H4 C6 1_555 1_555
C7 O1 1_555 1_555
C8 C7 1_555 1_555
H5 C8 1_555 1_555
H6 C8 1_555 1_555
C9 O2 1_555 1_555
H7 C9 1_555 1_555
H8 C9 1_555 1_555
C10 C9 1_555 1_555
C11 C10 1_555 1_555
H9 C11 1_555 1_555
C12 C11 1_555 1_555
H10 C12 1_555 1_555
C13 C12 1_555 1_555
H11 C13 1_555 1_555
C14 C13 1_555 1_555
H12 C14 1_555 1_555
C15 C10 1_555 1_555
H13 C15 1_555 1_555
Cl2 C16 1_555 1_555
O3 N4 1_555 1_555
O4 C23 1_555 1_555
N3 H14 1_555 1_555
N4 C20 1_555 1_555
C16 C17 1_555 1_555
C17 H15 1_555 1_555
C18 N3 1_555 1_555
H16 C18 1_555 1_555
C19 N3 1_555 1_555
C20 C19 1_555 1_555
C21 C20 1_555 1_555
H17 C21 1_555 1_555
C22 O3 1_555 1_555
C23 C22 1_555 1_555
H18 C23 1_555 1_555
H19 C23 1_555 1_555
C24 O4 1_555 1_555
H20 C24 1_555 1_555
H21 C24 1_555 1_555
C25 C24 1_555 1_555
C26 C25 1_555 1_555
H22 C26 1_555 1_555
C27 C26 1_555 1_555
H23 C27 1_555 1_555
C28 C27 1_555 1_555
H24 C28 1_555 1_555
C29 C28 1_555 1_555
H25 C29 1_555 1_555
C30 C25 1_555 1_555
H26 C30 1_555 1_555
C1 C4 1_555 1_555
C2 C3 1_555 1_555
C6 C7 1_555 1_555
C14 C15 1_555 1_555
C16 C19 1_555 1_555
C17 C18 1_555 1_555
C21 C22 1_555 1_555
C29 C30 1_555 1_555

#END
