
#######################################################################
#
#                 Cambridge Crystallographic Data Centre
#                                CCDC 
#
#######################################################################
#
# If this CIF has been generated from an entry in the Cambridge 
# Structural Database, then it will include bibliographic, chemical, 
# crystal, experimental, refinement or atomic coordinate data resulting 
# from the CCDC's data processing and validation procedures.
#
#######################################################################

data_GIPDAN
_chemical_formula_moiety         '2(C41 H29 N5 S1),C1 H1 Cl3'
_chemical_name_systematic        
"4,4'-[1,2,5]thiadiazolo[3,4-c]pyridine-4,7-diylbis(N,N-diphenylaniline) chloroform solvate"
_symmetry_cell_setting           triclinic
_symmetry_space_group_name_H-M   'P -1'
_symmetry_Int_Tables_number      2
_space_group_name_Hall           '-P 1'
loop_
_symmetry_equiv_pos_site_id
_symmetry_equiv_pos_as_xyz
1 x,y,z
2 -x,-y,-z
_cell_length_a                   10.1354(9)
_cell_length_b                   15.8634(15)
_cell_length_c                   22.518(2)
_cell_angle_alpha                71.461(8)
_cell_angle_beta                 79.460(7)
_cell_angle_gamma                88.272(7)
_cell_volume                     3373.17
_exptl_crystal_colour            pink
_exptl_crystal_description       block
_cell_formula_units_Z            2
_chemical_properties_physical    Efflorescent
_exptl_crystal_recrystallization_method chloroform/methanol
_exptl_crystal_preparation       Luminescent
loop_
_atom_site_label
_atom_site_type_symbol
_atom_site_fract_x
_atom_site_fract_y
_atom_site_fract_z
S1 S 0.74639(16) 0.45673(9) -0.07702(7)
N1 N 0.6727(4) 0.3981(3) -0.10931(19)
N2 N 0.6736(4) 0.4173(3) -0.00350(19)
N3 N 0.4270(5) 0.2225(3) -0.0109(2)
N4 N 0.4980(5) 0.1918(3) -0.29467(18)
N5 N 0.5169(5) 0.3106(3) 0.30315(18)
C1 C 0.5856(5) 0.3428(3) -0.0615(2)
C2 C 0.5854(5) 0.3532(3) -0.0009(2)
C3 C 0.5030(5) 0.2954(3) 0.0552(2)
C4 C 0.4285(5) 0.2342(3) 0.0473(2)
H1 H 0.3737 0.1966 0.0831
C5 C 0.5042(6) 0.2737(3) -0.0661(2)
C6 C 0.5044(5) 0.2544(3) -0.1257(2)
C7 C 0.5026(5) 0.3199(3) -0.1833(2)
H2 H 0.5036 0.3793 -0.1853
C8 C 0.4993(5) 0.2989(3) -0.2378(2)
H3 H 0.4959 0.3443 -0.2756
C9 C 0.5009(5) 0.2102(3) -0.2372(2)
C10 C 0.5079(6) 0.1447(3) -0.1805(2)
H4 H 0.5141 0.0856 -0.1792
C11 C 0.5056(6) 0.1662(3) -0.1254(2)
H5 H 0.5050 0.1207 -0.0871
C12 C 0.5524(6) 0.2563(3) -0.3542(2)
C13 C 0.6821(6) 0.2890(3) -0.3656(2)
H6 H 0.7343 0.2697 -0.3342
C14 C 0.7350(6) 0.3502(4) -0.4235(3)
H7 H 0.8228 0.3718 -0.4309
C15 C 0.6590(7) 0.3797(4) -0.4708(3)
H8 H 0.6950 0.4207 -0.5099
C16 C 0.5284(7) 0.3472(4) -0.4588(3)
H9 H 0.4762 0.3667 -0.4902
C17 C 0.4750(6) 0.2867(3) -0.4012(3)
H10 H 0.3867 0.2659 -0.3936
C18 C 0.4344(6) 0.1139(3) -0.2959(2)
C19 C 0.4767(6) 0.0812(4) -0.3464(3)
H11 H 0.5484 0.1091 -0.3782
C20 C 0.4134(7) 0.0078(4) -0.3497(3)
H12 H 0.4432 -0.0135 -0.3837
C21 C 0.3075(7) -0.0346(4) -0.3038(4)
H13 H 0.2634 -0.0831 -0.3070
C22 C 0.2675(6) -0.0042(4) -0.2530(3)
H14 H 0.1979 -0.0339 -0.2206
C23 C 0.3297(6) 0.0710(3) -0.2491(3)
H15 H 0.3000 0.0918 -0.2149
C24 C 0.5035(5) 0.3004(3) 0.1192(2)
C25 C 0.5011(5) 0.3816(3) 0.1314(2)
H16 H 0.4993 0.4342 0.0981
C26 C 0.5014(5) 0.3850(3) 0.1918(2)
H17 H 0.4959 0.4397 0.1989
C27 C 0.5098(5) 0.3076(3) 0.2424(2)
C28 C 0.5107(5) 0.2272(3) 0.2302(2)
H18 H 0.5139 0.1746 0.2633
C29 C 0.5071(5) 0.2233(3) 0.1705(2)
H19 H 0.5070 0.1682 0.1641
C30 C 0.5718(5) 0.3867(3) 0.3121(2)
C31 C 0.6809(5) 0.4353(3) 0.2707(3)
H20 H 0.7204 0.4190 0.2355
C32 C 0.7324(6) 0.5088(4) 0.2815(3)
H21 H 0.8051 0.5420 0.2531
C33 C 0.6754(7) 0.5318(4) 0.3341(3)
H22 H 0.7108 0.5799 0.3418
C34 C 0.5668(7) 0.4845(4) 0.3753(3)
H23 H 0.5279 0.5007 0.4107
C35 C 0.5151(6) 0.4124(3) 0.3643(2)
H24 H 0.4410 0.3806 0.3924
C36 C 0.4662(6) 0.2375(3) 0.3584(2)
C37 C 0.5442(6) 0.2043(3) 0.4051(2)
H25 H 0.6300 0.2281 0.3995
C38 C 0.4940(6) 0.1359(3) 0.4596(2)
H26 H 0.5454 0.1148 0.4912
C39 C 0.3688(7) 0.0986(3) 0.4678(3)
H27 H 0.3355 0.0525 0.5046
C40 C 0.2934(6) 0.1302(3) 0.4209(3)
H28 H 0.2094 0.1043 0.4257
C41 C 0.3410(6) 0.2001(3) 0.3666(2)
H29 H 0.2882 0.2217 0.3356
S2 S 0.7945(2) 0.52688(11) 1.07300(7)
N6 N 0.8489(5) 0.5778(3) 0.9987(2)
N7 N 0.8549(5) 0.5897(3) 1.1059(2)
N8 N 1.0772(5) 0.7798(3) 1.0105(2)
N9 N 0.9857(4) 0.6928(3) 0.69372(18)
N10 N 1.0096(5) 0.8211(3) 1.28558(19)
C42 C 0.9258(6) 0.6552(3) 1.0576(2)
C43 C 0.9229(6) 0.6494(3) 0.9964(2)
C44 C 0.9975(5) 0.7121(3) 0.9411(2)
C45 C 0.9949(5) 0.7111(3) 0.8755(2)
C46 C 1.1083(5) 0.7320(3) 0.8279(2)
H30 H 1.1880 0.7483 0.8369
C47 C 1.1056(5) 0.7291(3) 0.7679(2)
H31 H 1.1829 0.7429 0.7368
C48 C 0.9873(6) 0.7054(3) 0.7537(2)
C49 C 0.8716(6) 0.6899(3) 0.7992(2)
H32 H 0.7908 0.6779 0.7890
C50 C 0.8748(5) 0.6920(3) 0.8594(2)
H33 H 0.7963 0.6807 0.8898
C51 C 1.0406(5) 0.7582(3) 0.6359(2)
C52 C 1.0369(6) 0.8472(3) 0.6313(3)
H34 H 1.0004 0.8640 0.6667
C53 C 1.0869(6) 0.9110(4) 0.5746(3)
H35 H 1.0839 0.9706 0.5723
C54 C 1.1415(6) 0.8888(4) 0.5210(3)
H36 H 1.1721 0.9327 0.4824
C55 C 1.1497(6) 0.8002(4) 0.5258(3)
H37 H 1.1877 0.7838 0.4904
C56 C 1.1018(6) 0.7360(4) 0.5828(2)
H38 H 1.1106 0.6764 0.5857
C57 C 0.9276(5) 0.6105(3) 0.6960(2)
C58 C 0.8621(6) 0.6057(4) 0.6480(3)
H39 H 0.8568 0.6558 0.6132
C59 C 0.8051(6) 0.5253(4) 0.6528(3)
H40 H 0.7635 0.5216 0.6201
C60 C 0.8080(6) 0.4513(4) 0.7037(3)
H41 H 0.7655 0.3986 0.7067
C61 C 0.8742(6) 0.4555(4) 0.7506(3)
H42 H 0.8786 0.4049 0.7851
C62 C 0.9346(5) 0.5344(3) 0.7468(2)
H43 H 0.9804 0.5364 0.7785
C63 C 1.0732(6) 0.7718(3) 0.9518(2)
H44 H 1.1274 0.8110 0.9166
C64 C 1.0024(6) 0.7264(3) 1.0634(2)
C65 C 1.0049(6) 0.7423(3) 1.1238(2)
C66 C 1.1218(5) 0.7771(3) 1.1330(2)
H45 H 1.1991 0.7854 1.1021
C67 C 1.1246(6) 0.7996(3) 1.1874(2)
H46 H 1.2043 0.8203 1.1935
C68 C 1.0091(6) 0.7912(3) 1.2325(2)
C69 C 0.8911(5) 0.7548(3) 1.2253(2)
H47 H 0.8134 0.7474 1.2559
C70 C 0.8932(5) 0.7303(3) 1.1715(2)
H48 H 0.8157 0.7046 1.1672
C71 C 1.0764(6) 0.9038(4) 1.2757(3)
C72 C 1.0750(6) 0.9722(4) 1.2191(3)
H49 H 1.0301 0.9638 1.1888
C73 C 1.1410(7) 1.0538(4) 1.2073(4)
H50 H 1.1398 1.0999 1.1696
C74 C 1.2079(8) 1.0646(5) 1.2528(5)
H51 H 1.2523 1.1185 1.2453
C75 C 1.2099(7) 0.9972(5) 1.3089(4)
H52 H 1.2547 1.0056 1.3392
C76 C 1.1445(6) 0.9166(4) 1.3198(3)
H53 H 1.1467 0.8707 1.3575
C77 C 0.9472(6) 0.7693(4) 1.3473(3)
C78 C 0.8845(6) 0.8078(5) 1.3918(3)
H54 H 0.8786 0.8693 1.3806
C79 C 0.8306(7) 0.7549(6) 1.4528(3)
H55 H 0.7917 0.7814 1.4829
C80 C 0.8336(7) 0.6646(6) 1.4695(3)
H56 H 0.7964 0.6298 1.5106
C81 C 0.8916(6) 0.6250(4) 1.4256(3)
H57 H 0.8930 0.5633 1.4367
C82 C 0.9483(5) 0.6774(4) 1.3645(3)
H58 H 0.9874 0.6504 1.3347
Cl1 Cl 0.3571(2) -0.06419(13) 0.95373(12)
Cl2 Cl 0.1445(2) 0.05509(14) 0.92701(10)
Cl3 Cl 0.2305(3) 0.01374(15) 1.04641(12)
C83 C 0.2074(8) -0.0246(5) 0.9839(4)
H59 H 0.1419 -0.0745 1.0015
loop_
_geom_bond_atom_site_label_1
_geom_bond_atom_site_label_2
_geom_bond_site_symmetry_1
_geom_bond_site_symmetry_2
S1 N1 1_555 1_555
N1 C1 1_555 1_555
N2 S1 1_555 1_555
N3 C4 1_555 1_555
N4 C9 1_555 1_555
N5 C27 1_555 1_555
C1 C2 1_555 1_555
C2 N2 1_555 1_555
C3 C2 1_555 1_555
C4 C3 1_555 1_555
H1 C4 1_555 1_555
C5 N3 1_555 1_555
C6 C5 1_555 1_555
C7 C6 1_555 1_555
H2 C7 1_555 1_555
C8 C7 1_555 1_555
H3 C8 1_555 1_555
C9 C8 1_555 1_555
C10 C9 1_555 1_555
H4 C10 1_555 1_555
C11 C6 1_555 1_555
H5 C11 1_555 1_555
C12 N4 1_555 1_555
C13 C12 1_555 1_555
H6 C13 1_555 1_555
C14 C13 1_555 1_555
H7 C14 1_555 1_555
C15 C14 1_555 1_555
H8 C15 1_555 1_555
C16 C15 1_555 1_555
H9 C16 1_555 1_555
C17 C12 1_555 1_555
H10 C17 1_555 1_555
C18 N4 1_555 1_555
C19 C18 1_555 1_555
H11 C19 1_555 1_555
C20 C19 1_555 1_555
H12 C20 1_555 1_555
C21 C20 1_555 1_555
H13 C21 1_555 1_555
C22 C21 1_555 1_555
H14 C22 1_555 1_555
C23 C18 1_555 1_555
H15 C23 1_555 1_555
C24 C3 1_555 1_555
C25 C24 1_555 1_555
H16 C25 1_555 1_555
C26 C25 1_555 1_555
H17 C26 1_555 1_555
C27 C26 1_555 1_555
C28 C27 1_555 1_555
H18 C28 1_555 1_555
C29 C24 1_555 1_555
H19 C29 1_555 1_555
C30 N5 1_555 1_555
C31 C30 1_555 1_555
H20 C31 1_555 1_555
C32 C31 1_555 1_555
H21 C32 1_555 1_555
C33 C32 1_555 1_555
H22 C33 1_555 1_555
C34 C33 1_555 1_555
H23 C34 1_555 1_555
C35 C30 1_555 1_555
H24 C35 1_555 1_555
C36 N5 1_555 1_555
C37 C36 1_555 1_555
H25 C37 1_555 1_555
C38 C37 1_555 1_555
H26 C38 1_555 1_555
C39 C38 1_555 1_555
H27 C39 1_555 1_555
C40 C39 1_555 1_555
H28 C40 1_555 1_555
C41 C36 1_555 1_555
H29 C41 1_555 1_555
S2 N6 1_555 1_555
N6 C43 1_555 1_555
N7 S2 1_555 1_555
N8 C63 1_555 1_555
N9 C48 1_555 1_555
N10 C68 1_555 1_555
C42 N7 1_555 1_555
C43 C42 1_555 1_555
C44 C43 1_555 1_555
C45 C44 1_555 1_555
C46 C45 1_555 1_555
H30 C46 1_555 1_555
C47 C46 1_555 1_555
H31 C47 1_555 1_555
C48 C47 1_555 1_555
C49 C48 1_555 1_555
H32 C49 1_555 1_555
C50 C45 1_555 1_555
H33 C50 1_555 1_555
C51 N9 1_555 1_555
C52 C51 1_555 1_555
H34 C52 1_555 1_555
C53 C52 1_555 1_555
H35 C53 1_555 1_555
C54 C53 1_555 1_555
H36 C54 1_555 1_555
C55 C54 1_555 1_555
H37 C55 1_555 1_555
C56 C51 1_555 1_555
H38 C56 1_555 1_555
C57 N9 1_555 1_555
C58 C57 1_555 1_555
H39 C58 1_555 1_555
C59 C58 1_555 1_555
H40 C59 1_555 1_555
C60 C59 1_555 1_555
H41 C60 1_555 1_555
C61 C60 1_555 1_555
H42 C61 1_555 1_555
C62 C57 1_555 1_555
H43 C62 1_555 1_555
C63 C44 1_555 1_555
H44 C63 1_555 1_555
C64 N8 1_555 1_555
C65 C64 1_555 1_555
C66 C65 1_555 1_555
H45 C66 1_555 1_555
C67 C66 1_555 1_555
H46 C67 1_555 1_555
C68 C67 1_555 1_555
C69 C68 1_555 1_555
H47 C69 1_555 1_555
C70 C65 1_555 1_555
H48 C70 1_555 1_555
C71 N10 1_555 1_555
C72 C71 1_555 1_555
H49 C72 1_555 1_555
C73 C72 1_555 1_555
H50 C73 1_555 1_555
C74 C73 1_555 1_555
H51 C74 1_555 1_555
C75 C74 1_555 1_555
H52 C75 1_555 1_555
C76 C71 1_555 1_555
H53 C76 1_555 1_555
C77 N10 1_555 1_555
C78 C77 1_555 1_555
H54 C78 1_555 1_555
C79 C78 1_555 1_555
H55 C79 1_555 1_555
C80 C79 1_555 1_555
H56 C80 1_555 1_555
C81 C80 1_555 1_555
H57 C81 1_555 1_555
C82 C77 1_555 1_555
H58 C82 1_555 1_555
Cl1 C83 1_555 1_555
Cl2 C83 1_555 1_555
Cl3 C83 1_555 1_555
C83 H59 1_555 1_555
C1 C5 1_555 1_555
C10 C11 1_555 1_555
C16 C17 1_555 1_555
C22 C23 1_555 1_555
C28 C29 1_555 1_555
C34 C35 1_555 1_555
C40 C41 1_555 1_555
C42 C64 1_555 1_555
C49 C50 1_555 1_555
C55 C56 1_555 1_555
C61 C62 1_555 1_555
C69 C70 1_555 1_555
C75 C76 1_555 1_555
C81 C82 1_555 1_555

#END
