
#######################################################################
#
#                 Cambridge Crystallographic Data Centre
#                                CCDC 
#
#######################################################################
#
# If this CIF has been generated from an entry in the Cambridge 
# Structural Database, then it will include bibliographic, chemical, 
# crystal, experimental, refinement or atomic coordinate data resulting 
# from the CCDC's data processing and validation procedures.
#
#######################################################################

data_GIPFOC
_chemical_formula_moiety         'C21 H14 O2'
_chemical_name_systematic        
1'H,2H-Spiro[naphthalene-1,2'-naphtho[2,1-b]furan]-2-one
_symmetry_cell_setting           monoclinic
_symmetry_space_group_name_H-M   'P 21/c'
_symmetry_Int_Tables_number      14
_space_group_name_Hall           '-P 2ybc'
loop_
_symmetry_equiv_pos_site_id
_symmetry_equiv_pos_as_xyz
1 x,y,z
2 -x,1/2+y,1/2-z
3 -x,-y,-z
4 x,1/2-y,1/2+z
_cell_length_a                   13.783(2)
_cell_length_b                   8.2589(15)
_cell_length_c                   12.809(2)
_cell_angle_alpha                90
_cell_angle_beta                 96.253(3)
_cell_angle_gamma                90
_cell_volume                     1449.4
_exptl_crystal_colour            yellow
_exptl_crystal_description       Plate
_cell_formula_units_Z            4
loop_
_atom_site_label
_atom_site_type_symbol
_atom_site_fract_x
_atom_site_fract_y
_atom_site_fract_z
C1 C 0.95693(9) 0.19202(15) 0.06902(10)
C2 C 1.02768(10) 0.25599(18) 0.00829(12)
H1 H 1.0084 0.3226 -0.0488
C3 C 1.12437(11) 0.2202(2) 0.03329(15)
H2 H 1.1703 0.2621 -0.0074
C4 C 1.15490(11) 0.1215(2) 0.11911(15)
H3 H 1.2209 0.0981 0.1349
C5 C 1.08880(11) 0.0591(2) 0.18007(14)
H4 H 1.1103 -0.0050 0.2377
C6 C 0.98777(10) 0.09072(17) 0.15670(11)
C7 C 0.91711(11) 0.02127(18) 0.21594(11)
H5 H 0.9378 -0.0445 0.2730
C8 C 0.81940(10) 0.04864(16) 0.19131(10)
H6 H 0.7734 0.0022 0.2302
C9 C 0.79121(9) 0.14939(15) 0.10524(10)
C10 C 0.85572(9) 0.21904(14) 0.04598(9)
C11 C 0.80112(9) 0.31016(16) -0.04326(10)
H7 H 0.8081 0.2592 -0.1103
H8 H 0.8226 0.4219 -0.0451
C12 C 0.69310(9) 0.29778(15) -0.01431(10)
C13 C 0.63216(9) 0.22823(16) -0.11089(11)
C14 C 0.59429(10) 0.34615(18) -0.18926(11)
H9 H 0.5771 0.3130 -0.2582
C15 C 0.58392(10) 0.50112(18) -0.16367(11)
H10 H 0.5575 0.5723 -0.2154
C16 C 0.61190(9) 0.56431(15) -0.05859(11)
C17 C 0.65864(8) 0.46215(15) 0.01857(10)
C18 C 0.68001(10) 0.51859(17) 0.12012(11)
H11 H 0.7091 0.4500 0.1720
C19 C 0.65829(11) 0.67707(19) 0.14510(12)
H12 H 0.6725 0.7141 0.2136
C20 C 0.61556(11) 0.78010(18) 0.06834(13)
H13 H 0.6031 0.8873 0.0846
C21 C 0.59151(10) 0.72353(17) -0.03220(13)
H14 H 0.5613 0.7924 -0.0832
O1 O 0.62120(8) 0.08330(12) -0.12329(9)
O2 O 0.69483(6) 0.18471(11) 0.07227(7)
loop_
_geom_bond_atom_site_label_1
_geom_bond_atom_site_label_2
_geom_bond_site_symmetry_1
_geom_bond_site_symmetry_2
C1 C2 1_555 1_555
C2 H1 1_555 1_555
C3 C2 1_555 1_555
H2 C3 1_555 1_555
C4 C3 1_555 1_555
H3 C4 1_555 1_555
C5 C4 1_555 1_555
H4 C5 1_555 1_555
C6 C1 1_555 1_555
C7 C6 1_555 1_555
H5 C7 1_555 1_555
C8 C7 1_555 1_555
H6 C8 1_555 1_555
C9 C8 1_555 1_555
C10 C1 1_555 1_555
C11 C10 1_555 1_555
H7 C11 1_555 1_555
H8 C11 1_555 1_555
C12 C11 1_555 1_555
C13 C12 1_555 1_555
C14 C13 1_555 1_555
H9 C14 1_555 1_555
C15 C14 1_555 1_555
H10 C15 1_555 1_555
C16 C15 1_555 1_555
C17 C12 1_555 1_555
C18 C17 1_555 1_555
H11 C18 1_555 1_555
C19 C18 1_555 1_555
H12 C19 1_555 1_555
C20 C19 1_555 1_555
H13 C20 1_555 1_555
C21 C16 1_555 1_555
H14 C21 1_555 1_555
O1 C13 1_555 1_555
O2 C9 1_555 1_555
C5 C6 1_555 1_555
C9 C10 1_555 1_555
C12 O2 1_555 1_555
C16 C17 1_555 1_555
C20 C21 1_555 1_555

#END
