
#######################################################################
#
#                 Cambridge Crystallographic Data Centre
#                                CCDC 
#
#######################################################################
#
# If this CIF has been generated from an entry in the Cambridge 
# Structural Database, then it will include bibliographic, chemical, 
# crystal, experimental, refinement or atomic coordinate data resulting 
# from the CCDC's data processing and validation procedures.
#
#######################################################################

data_GIPGAP
_chemical_formula_moiety         'C30 H19 Cl1 F1 N1 O4'
_chemical_name_systematic        
'Ethyl 10-benzoyl-5-chloro-2-(4-fluorophenyl)furo[3,2-h]pyrrolo[1,2-a]quinoline-8-carboxylate'
_symmetry_cell_setting           triclinic
_symmetry_space_group_name_H-M   'P -1'
_symmetry_Int_Tables_number      2
_space_group_name_Hall           '-P 1'
loop_
_symmetry_equiv_pos_site_id
_symmetry_equiv_pos_as_xyz
1 x,y,z
2 -x,-y,-z
_cell_length_a                   9.6104(12)
_cell_length_b                   10.8080(14)
_cell_length_c                   12.5795(16)
_cell_angle_alpha                107.713(7)
_cell_angle_beta                 90.495(7)
_cell_angle_gamma                107.065(7)
_cell_volume                     1182.98
_exptl_crystal_colour            yellow
_exptl_crystal_description       Rectangular
_chemical_melting_point          '231 deg.C'
_cell_formula_units_Z            2
loop_
_atom_site_label
_atom_site_type_symbol
_atom_site_fract_x
_atom_site_fract_y
_atom_site_fract_z
Cl1 Cl 0.60533(17) 0.49514(16) 0.37003(13)
N1 N 0.2409(4) 0.6843(4) 0.2191(3)
F1 F 0.6090(4) 0.9716(4) -0.3519(3)
C1 C 0.5957(7) 0.9116(6) -0.2701(5)
C2 C 0.6954(7) 0.8458(6) -0.2597(5)
H1 H 0.7673 0.8418 -0.3085
C3 C 0.6883(6) 0.7861(5) -0.1771(5)
H2 H 0.7551 0.7412 -0.1696
C4 C 0.5793(5) 0.7933(4) -0.1038(4)
C5 C 0.4815(6) 0.8593(5) -0.1190(5)
H3 H 0.4081 0.8635 -0.0716
C6 C 0.4886(7) 0.9192(6) -0.2020(5)
H4 H 0.4218 0.9635 -0.2108
C7 C 0.5713(5) 0.7325(4) -0.0152(4)
C8 C 0.6573(6) 0.6766(5) 0.0241(4)
H5 H 0.7444 0.6657 -0.0025
C9 C 0.5917(5) 0.6361(4) 0.1151(4)
C10 C 0.4627(5) 0.6702(4) 0.1243(4)
C11 C 0.3722(5) 0.6500(4) 0.2065(4)
C12 C 0.4208(5) 0.6022(5) 0.2883(4)
C13 C 0.5497(6) 0.5607(5) 0.2736(4)
C14 C 0.6344(5) 0.5764(5) 0.1896(4)
H6 H 0.7177 0.5486 0.1818
C15 C 0.3478(6) 0.6082(6) 0.3855(5)
H7 H 0.3759 0.5727 0.4379
C16 C 0.2373(6) 0.6645(6) 0.4047(5)
H8 H 0.1974 0.6767 0.4728
C17 C 0.1851(5) 0.7034(5) 0.3208(4)
C18 C 0.0691(6) 0.7550(5) 0.3110(4)
C19 C 0.0558(5) 0.7639(4) 0.2031(4)
H9 H -0.0119 0.7961 0.1758
C20 C 0.1600(5) 0.7168(4) 0.1441(4)
C21 C -0.0241(6) 0.7884(5) 0.3986(5)
C22 C -0.2173(6) 0.8836(5) 0.4486(4)
H10 H -0.1638 0.9462 0.5196
H11 H -0.2810 0.8025 0.4614
C23 C -0.3056(7) 0.9505(6) 0.3982(5)
H12 H -0.2423 1.0348 0.3923
H13 H -0.3801 0.9687 0.4453
H14 H -0.3505 0.8907 0.3249
C24 C 0.1489(5) 0.6508(5) 0.0215(4)
C25 C 0.1101(5) 0.7190(5) -0.0547(4)
C26 C 0.0636(6) 0.6432(6) -0.1665(5)
H15 H 0.0465 0.5493 -0.1899
C27 C 0.0423(6) 0.7051(8) -0.2431(5)
H16 H 0.0119 0.6528 -0.3179
C28 C 0.0658(6) 0.8441(7) -0.2100(6)
H17 H 0.0515 0.8858 -0.2621
C29 C 0.1105(6) 0.9206(6) -0.0992(6)
H18 H 0.1257 1.0143 -0.0765
C30 C 0.1333(5) 0.8600(5) -0.0208(5)
H19 H 0.1638 0.9128 0.0539
O1 O 0.4495(3) 0.7308(3) 0.0448(3)
O2 O -0.1174(4) 0.8477(3) 0.3688(3)
O3 O -0.0218(4) 0.7695(4) 0.4891(4)
O4 O 0.1691(3) 0.5388(3) -0.0155(3)
loop_
_geom_bond_atom_site_label_1
_geom_bond_atom_site_label_2
_geom_bond_site_symmetry_1
_geom_bond_site_symmetry_2
Cl1 C13 1_555 1_555
N1 C11 1_555 1_555
F1 C1 1_555 1_555
C1 C2 1_555 1_555
C2 H1 1_555 1_555
C3 C2 1_555 1_555
H2 C3 1_555 1_555
C4 C3 1_555 1_555
C5 C4 1_555 1_555
H3 C5 1_555 1_555
C6 C1 1_555 1_555
H4 C6 1_555 1_555
C7 C4 1_555 1_555
C8 C7 1_555 1_555
H5 C8 1_555 1_555
C9 C8 1_555 1_555
C10 C9 1_555 1_555
C11 C10 1_555 1_555
C12 C11 1_555 1_555
C13 C12 1_555 1_555
C14 C9 1_555 1_555
H6 C14 1_555 1_555
C15 C12 1_555 1_555
H7 C15 1_555 1_555
C16 C15 1_555 1_555
H8 C16 1_555 1_555
C17 N1 1_555 1_555
C18 C17 1_555 1_555
C19 C18 1_555 1_555
H9 C19 1_555 1_555
C20 N1 1_555 1_555
C21 C18 1_555 1_555
C22 H10 1_555 1_555
H11 C22 1_555 1_555
C23 C22 1_555 1_555
H12 C23 1_555 1_555
H13 C23 1_555 1_555
H14 C23 1_555 1_555
C24 C20 1_555 1_555
C25 C24 1_555 1_555
C26 C25 1_555 1_555
H15 C26 1_555 1_555
C27 C26 1_555 1_555
H16 C27 1_555 1_555
C28 C27 1_555 1_555
H17 C28 1_555 1_555
C29 C28 1_555 1_555
H18 C29 1_555 1_555
C30 C25 1_555 1_555
H19 C30 1_555 1_555
O1 C7 1_555 1_555
O2 C21 1_555 1_555
O3 C21 1_555 1_555
O4 C24 1_555 1_555
C5 C6 1_555 1_555
C10 O1 1_555 1_555
C13 C14 1_555 1_555
C16 C17 1_555 1_555
C19 C20 1_555 1_555
C22 O2 1_555 1_555
C29 C30 1_555 1_555

#END
