
#######################################################################
#
#                 Cambridge Crystallographic Data Centre
#                                CCDC 
#
#######################################################################
#
# If this CIF has been generated from an entry in the Cambridge 
# Structural Database, then it will include bibliographic, chemical, 
# crystal, experimental, refinement or atomic coordinate data resulting 
# from the CCDC's data processing and validation procedures.
#
#######################################################################

data_GIPGOD
_chemical_formula_moiety         'C14 H19 Br1 N2 O4'
_chemical_name_systematic        
't-Butyl (2-bromo-2-nitro-1-phenylpropyl)carbamate'
_symmetry_cell_setting           tetragonal
_symmetry_space_group_name_H-M   'I 41/a'
_symmetry_Int_Tables_number      88
_space_group_name_Hall           '-I 4ad'
loop_
_symmetry_equiv_pos_site_id
_symmetry_equiv_pos_as_xyz
1 x,y,z
2 1/2-x,-y,1/2+z
3 3/4-y,1/4+x,1/4+z
4 3/4+y,3/4-x,3/4+z
5 1/2+x,1/2+y,1/2+z
6 -x,1/2-y,z
7 1/4-y,3/4+x,3/4+z
8 1/4+y,1/4-x,1/4+z
9 -x,-y,-z
10 1/2+x,y,1/2-z
11 1/4+y,3/4-x,3/4-z
12 1/4-y,1/4+x,1/4-z
13 1/2-x,1/2-y,1/2-z
14 x,1/2+y,-z
15 3/4+y,1/4-x,1/4-z
16 3/4-y,3/4+x,3/4-z
_cell_length_a                   19.8969(8)
_cell_length_b                   19.8969(8)
_cell_length_c                   16.7509(13)
_cell_angle_alpha                90
_cell_angle_beta                 90
_cell_angle_gamma                90
_cell_volume                     6631.46
_chemical_melting_point          '116-118 deg.C'
_cell_formula_units_Z            16
loop_
_atom_site_label
_atom_site_type_symbol
_atom_site_fract_x
_atom_site_fract_y
_atom_site_fract_z
Br1 Br 0.44379(2) 0.46492(2) 0.11467(3)
C1 C 0.4240(2) 0.20357(19) 0.0996(3)
H1 H 0.4452 0.1628 0.1100
C2 C 0.41053(19) 0.24851(19) 0.1611(2)
H2 H 0.4220 0.2377 0.2134
C3 C 0.3800(2) 0.3094(2) 0.1443(2)
H3 H 0.3717 0.3395 0.1857
C4 C 0.36127(16) 0.32665(16) 0.0661(2)
C5 C 0.37461(19) 0.27984(18) 0.0061(2)
H4 H 0.3624 0.2892 -0.0463
C6 C 0.4055(2) 0.22033(19) 0.0239(3)
H5 H 0.4143 0.1902 -0.0173
C7 C 0.33007(17) 0.39263(17) 0.0449(2)
H6 H 0.3027 0.3850 -0.0030
C8 C 0.38295(18) 0.45101(17) 0.0232(2)
C9 C 0.3477(2) 0.51729(19) -0.0060(3)
H7 H 0.3809 0.5476 -0.0269
H8 H 0.3250 0.5381 0.0381
H9 H 0.3157 0.5067 -0.0470
C10 C 0.21791(16) 0.42377(16) 0.08914(19)
C11 C 0.11073(18) 0.4407(2) 0.1572(2)
C12 C 0.0871(2) 0.3701(2) 0.1418(3)
H10 H 0.0931 0.3595 0.0863
H11 H 0.0404 0.3664 0.1553
H12 H 0.1127 0.3394 0.1737
C13 C 0.0962(2) 0.4587(2) 0.2439(3)
H13 H 0.1258 0.4339 0.2782
H14 H 0.0504 0.4476 0.2564
H15 H 0.1032 0.5060 0.2517
C14 C 0.0813(2) 0.4908(2) 0.0994(3)
H16 H 0.1103 0.5292 0.0957
H17 H 0.0378 0.5047 0.1180
H18 H 0.0769 0.4703 0.0478
N1 N 0.42601(17) 0.41927(16) -0.0443(2)
N2 N 0.28537(16) 0.41909(17) 0.10579(19)
O1 O 0.18461(12) 0.44044(13) 0.15627(14)
O2 O 0.19310(12) 0.41439(13) 0.02449(15)
O3 O 0.39852(15) 0.41715(15) -0.10473(18)
O4 O 0.48295(14) 0.40114(14) -0.03330(18)
loop_
_geom_bond_atom_site_label_1
_geom_bond_atom_site_label_2
_geom_bond_site_symmetry_1
_geom_bond_site_symmetry_2
Br1 C8 1_555 1_555
C1 H1 1_555 1_555
C2 C1 1_555 1_555
H2 C2 1_555 1_555
C3 C2 1_555 1_555
H3 C3 1_555 1_555
C4 C3 1_555 1_555
C5 C4 1_555 1_555
H4 C5 1_555 1_555
C6 C1 1_555 1_555
H5 C6 1_555 1_555
C7 C4 1_555 1_555
H6 C7 1_555 1_555
C8 C7 1_555 1_555
C9 C8 1_555 1_555
H7 C9 1_555 1_555
H8 C9 1_555 1_555
H9 C9 1_555 1_555
C10 N2 1_555 1_555
C11 C12 1_555 1_555
C12 H10 1_555 1_555
H11 C12 1_555 1_555
H12 C12 1_555 1_555
C13 C11 1_555 1_555
H13 C13 1_555 1_555
H14 C13 1_555 1_555
H15 C13 1_555 1_555
C14 C11 1_555 1_555
H16 C14 1_555 1_555
H17 C14 1_555 1_555
H18 C14 1_555 1_555
N1 C8 1_555 1_555
N2 C7 1_555 1_555
O1 C10 1_555 1_555
O2 C10 1_555 1_555
O3 N1 1_555 1_555
O4 N1 1_555 1_555
C5 C6 1_555 1_555
C11 O1 1_555 1_555

#END
