
#######################################################################
#
#                 Cambridge Crystallographic Data Centre
#                                CCDC 
#
#######################################################################
#
# If this CIF has been generated from an entry in the Cambridge 
# Structural Database, then it will include bibliographic, chemical, 
# crystal, experimental, refinement or atomic coordinate data resulting 
# from the CCDC's data processing and validation procedures.
#
#######################################################################

data_GIPGEU
_chemical_formula_moiety         'C26 H23 N1 O2 S1'
_chemical_name_systematic        
6-((4-methylphenyl)sulfonyl)-7,11b,12,13-tetrahydro-6H-benzo[e]cyclobuta[c]indeno[2,1-b]azepine
_symmetry_cell_setting           monoclinic
_symmetry_space_group_name_H-M   'P 21/n'
_symmetry_Int_Tables_number      14
_space_group_name_Hall           '-P 2yn'
loop_
_symmetry_equiv_pos_site_id
_symmetry_equiv_pos_as_xyz
1 x,y,z
2 1/2-x,1/2+y,1/2-z
3 -x,-y,-z
4 1/2+x,1/2-y,1/2+z
_cell_length_a                   10.875(12)
_cell_length_b                   11.830(14)
_cell_length_c                   16.54(2)
_cell_angle_alpha                90
_cell_angle_beta                 98.80(2)
_cell_angle_gamma                90
_cell_volume                     2102.84
_exptl_crystal_colour            colorless
_exptl_crystal_description       prismatic
_cell_formula_units_Z            4
loop_
_atom_site_label
_atom_site_type_symbol
_atom_site_fract_x
_atom_site_fract_y
_atom_site_fract_z
S1 S 0.35779(5) 0.78868(5) 1.02054(4)
N1 N 0.24180(15) 0.79821(15) 0.94319(11)
O1 O 0.32663(15) 0.70194(15) 1.07371(9)
O2 O 0.38011(15) 0.90045(14) 1.05102(11)
C1 C 0.2327(2) 0.9041(2) 0.89391(15)
H1 H 0.2731 0.8930 0.8461
H2 H 0.2757 0.9645 0.9263
C2 C 0.0994(2) 0.93750(19) 0.86706(14)
C3 C 0.0504(2) 1.0273(2) 0.90565(16)
H3 H 0.1012 1.0668 0.9464
C4 C -0.0720(3) 1.0590(2) 0.88462(18)
H4 H -0.1038 1.1190 0.9113
C5 C -0.1466(3) 1.0018(2) 0.82430(18)
H5 H -0.2296 1.0226 0.8102
C6 C -0.0997(2) 0.9137(2) 0.78438(16)
H6 H -0.1513 0.8762 0.7429
C7 C 0.0237(2) 0.87934(19) 0.80489(14)
C8 C 0.0701(2) 0.78112(19) 0.76156(13)
H7 H -0.0007 0.7449 0.7275
C9 C 0.1770(3) 0.7980(2) 0.70934(15)
H8 H 0.1534 0.7782 0.6521
H9 H 0.2144 0.8726 0.7149
C10 C 0.2549(2) 0.7068(2) 0.75950(15)
H10 H 0.3317 0.7355 0.7902
H11 H 0.2708 0.6412 0.7275
C11 C 0.15006(18) 0.68695(18) 0.81357(13)
C12 C 0.09272(18) 0.57124(19) 0.80727(13)
C13 C 0.0365(2) 0.5135(2) 0.73915(15)
H12 H 0.0304 0.5456 0.6873
C14 C -0.0107(2) 0.4065(2) 0.74962(18)
H13 H -0.0495 0.3665 0.7044
C15 C -0.0008(2) 0.3590(2) 0.8260(2)
H14 H -0.0318 0.2866 0.8316
C16 C 0.0541(2) 0.4165(2) 0.89474(17)
H15 H 0.0600 0.3836 0.9463
C17 C 0.10008(18) 0.52347(19) 0.88550(14)
C18 C 0.15470(19) 0.60578(19) 0.94498(14)
H16 H 0.1676 0.5955 1.0014
C19 C 0.18381(17) 0.69941(18) 0.90613(13)
C20 C 0.48790(19) 0.74448(19) 0.97836(13)
C21 C 0.4952(2) 0.6353(2) 0.94988(18)
H17 H 0.4316 0.5841 0.9542
C22 C 0.5970(2) 0.6022(2) 0.91508(18)
H18 H 0.6006 0.5289 0.8954
C23 C 0.6932(2) 0.6757(2) 0.90900(15)
C24 C 0.6847(2) 0.7838(2) 0.93842(16)
H19 H 0.7493 0.8343 0.9353
C25 C 0.5833(2) 0.8192(2) 0.97237(15)
H20 H 0.5792 0.8930 0.9911
C26 C 0.8026(2) 0.6392(3) 0.86951(19)
H21 H 0.7881 0.6591 0.8126
H22 H 0.8130 0.5589 0.8749
H23 H 0.8765 0.6765 0.8959
loop_
_geom_bond_atom_site_label_1
_geom_bond_atom_site_label_2
_geom_bond_site_symmetry_1
_geom_bond_site_symmetry_2
S1 N1 1_555 1_555
N1 C1 1_555 1_555
O1 S1 1_555 1_555
O2 S1 1_555 1_555
C1 H1 1_555 1_555
H2 C1 1_555 1_555
C2 C1 1_555 1_555
C3 C2 1_555 1_555
H3 C3 1_555 1_555
C4 C3 1_555 1_555
H4 C4 1_555 1_555
C5 C4 1_555 1_555
H5 C5 1_555 1_555
C6 C5 1_555 1_555
H6 C6 1_555 1_555
C7 C2 1_555 1_555
C8 C7 1_555 1_555
H7 C8 1_555 1_555
C9 C8 1_555 1_555
H8 C9 1_555 1_555
H9 C9 1_555 1_555
C10 C9 1_555 1_555
H10 C10 1_555 1_555
H11 C10 1_555 1_555
C11 C8 1_555 1_555
C12 C11 1_555 1_555
C13 C12 1_555 1_555
H12 C13 1_555 1_555
C14 C13 1_555 1_555
H13 C14 1_555 1_555
C15 C14 1_555 1_555
H14 C15 1_555 1_555
C16 C15 1_555 1_555
H15 C16 1_555 1_555
C17 C12 1_555 1_555
C18 C17 1_555 1_555
H16 C18 1_555 1_555
C19 N1 1_555 1_555
C20 S1 1_555 1_555
C21 C20 1_555 1_555
H17 C21 1_555 1_555
C22 C21 1_555 1_555
H18 C22 1_555 1_555
C23 C22 1_555 1_555
C24 C23 1_555 1_555
H19 C24 1_555 1_555
C25 C20 1_555 1_555
H20 C25 1_555 1_555
C26 C23 1_555 1_555
H21 C26 1_555 1_555
H22 C26 1_555 1_555
H23 C26 1_555 1_555
C6 C7 1_555 1_555
C10 C11 1_555 1_555
C11 C19 1_555 1_555
C16 C17 1_555 1_555
C18 C19 1_555 1_555
C24 C25 1_555 1_555

#END
