
#######################################################################
#
#                 Cambridge Crystallographic Data Centre
#                                CCDC 
#
#######################################################################
#
# If this CIF has been generated from an entry in the Cambridge 
# Structural Database, then it will include bibliographic, chemical, 
# crystal, experimental, refinement or atomic coordinate data resulting 
# from the CCDC's data processing and validation procedures.
#
#######################################################################

data_GIPGAQ
_chemical_formula_moiety         'C26 H23 N1 O2 S1'
_chemical_name_systematic        
3-benzylidene-4-((4-methylphenyl)sulfonyl)-2,3,4,5-tetrahydro-1H-cyclobuta[d][2]benzazepine
_symmetry_cell_setting           monoclinic
_symmetry_space_group_name_H-M   'C c'
_symmetry_Int_Tables_number      9
_space_group_name_Hall           'C -2yc'
loop_
_symmetry_equiv_pos_site_id
_symmetry_equiv_pos_as_xyz
1 x,y,z
2 x,-y,1/2+z
3 1/2+x,1/2+y,z
4 1/2+x,1/2-y,1/2+z
_cell_length_a                   12.1152(14)
_cell_length_b                   14.1577(18)
_cell_length_c                   24.768(3)
_cell_angle_alpha                90
_cell_angle_beta                 93.519(2)
_cell_angle_gamma                90
_cell_volume                     4240.28
_exptl_crystal_colour            colorless
_exptl_crystal_description       prismatic
_cell_formula_units_Z            8
loop_
_atom_site_label
_atom_site_type_symbol
_atom_site_fract_x
_atom_site_fract_y
_atom_site_fract_z
S1 S 0.33070(7) 0.94574(6) 0.39527(5)
N1 N 0.4250(2) 0.93570(18) 0.35052(13)
O1 O 0.3316(3) 0.85852(19) 0.42448(15)
O2 O 0.2330(2) 0.9759(2) 0.36502(15)
C1 C 0.4293(3) 1.0089(3) 0.30781(16)
H1 H 0.3576 1.0104 0.2881
H2 H 0.4827 0.9885 0.2826
C2 C 0.4583(3) 1.1086(2) 0.32483(16)
C3 C 0.3931(4) 1.1828(3) 0.3043(2)
H3 H 0.3302 1.1698 0.2821
C4 C 0.4205(5) 1.2758(3) 0.3163(2)
H4 H 0.3765 1.3245 0.3019
C5 C 0.5114(5) 1.2960(3) 0.3492(2)
H5 H 0.5290 1.3586 0.3571
C6 C 0.5781(3) 1.2242(3) 0.37094(19)
H6 H 0.6403 1.2387 0.3933
C7 C 0.5517(3) 1.1296(3) 0.35910(16)
C8 C 0.6214(3) 1.0561(2) 0.38391(16)
C9 C 0.7291(3) 1.0599(3) 0.41727(19)
H7 H 0.7244 1.0897 0.4523
H8 H 0.7904 1.0850 0.3983
C10 C 0.7235(3) 0.9491(3) 0.4186(2)
H9 H 0.7805 0.9178 0.3993
H10 H 0.7174 0.9225 0.4544
C11 C 0.6140(3) 0.9606(2) 0.38607(16)
C12 C 0.5298(3) 0.8943(2) 0.36772(15)
C13 C 0.5489(3) 0.8010(2) 0.36374(17)
H11 H 0.6164 0.7822 0.3801
C14 C 0.4848(3) 0.7236(2) 0.33887(15)
C15 C 0.5413(4) 0.6387(3) 0.33210(18)
H12 H 0.6143 0.6334 0.3457
C16 C 0.4916(5) 0.5629(3) 0.3059(2)
H13 H 0.5308 0.5070 0.3021
C17 C 0.3858(5) 0.5695(3) 0.2856(2)
H14 H 0.3528 0.5187 0.2671
C18 C 0.3260(4) 0.6519(3) 0.29235(19)
H15 H 0.2526 0.6558 0.2792
C19 C 0.3759(3) 0.7280(3) 0.31860(18)
H16 H 0.3357 0.7832 0.3228
C20 C 0.3711(3) 1.0354(2) 0.44144(16)
C21 C 0.3293(3) 1.1261(3) 0.43435(18)
H17 H 0.2762 1.1390 0.4066
C22 C 0.3674(3) 1.1964(3) 0.46871(17)
H18 H 0.3386 1.2569 0.4640
C23 C 0.4470(3) 1.1804(3) 0.51008(16)
C24 C 0.4853(3) 1.0886(3) 0.51673(17)
H19 H 0.5375 1.0752 0.5448
C25 C 0.4481(3) 1.0169(3) 0.48296(17)
H20 H 0.4751 0.9559 0.4883
C26 C 0.4894(4) 1.2595(3) 0.5458(2)
H21 H 0.5227 1.2340 0.5788
H22 H 0.4291 1.3001 0.5538
H23 H 0.5435 1.2950 0.5276
S2 S 0.67684(7) 0.81637(6) 0.60588(4)
N2 N 0.5861(2) 0.82010(19) 0.65283(13)
O3 O 0.7792(2) 0.7911(2) 0.63378(15)
O4 O 0.6665(3) 0.90377(19) 0.57709(14)
C27 C 0.5901(4) 0.7448(3) 0.69455(17)
H24 H 0.5404 0.7627 0.7220
H25 H 0.6642 0.7437 0.7117
C28 C 0.5609(4) 0.6444(3) 0.67665(16)
C29 C 0.6290(4) 0.5730(3) 0.6960(2)
H26 H 0.6920 0.5873 0.7179
C30 C 0.6043(5) 0.4794(3) 0.6830(2)
H27 H 0.6510 0.4313 0.6960
C31 C 0.5109(6) 0.4582(3) 0.6510(2)
H28 H 0.4935 0.3957 0.6425
C32 C 0.4441(4) 0.5294(3) 0.6317(2)
H29 H 0.3813 0.5145 0.6098
C33 C 0.4668(4) 0.6237(3) 0.64357(17)
C34 C 0.3938(3) 0.6967(3) 0.62097(18)
C35 C 0.2847(4) 0.6912(3) 0.5881(2)
H30 H 0.2251 0.6636 0.6072
H31 H 0.2895 0.6630 0.5526
C36 C 0.2858(4) 0.8009(3) 0.5880(3)
H32 H 0.2892 0.8291 0.5525
H33 H 0.2284 0.8297 0.6082
C37 C 0.3964(3) 0.7919(3) 0.61924(19)
C38 C 0.4783(3) 0.8596(3) 0.63838(16)
C39 C 0.4560(3) 0.9514(3) 0.64476(19)
H34 H 0.3858 0.9685 0.6308
C40 C 0.5189(3) 1.0306(2) 0.66908(15)
C41 C 0.6281(4) 1.0279(3) 0.6883(2)
H35 H 0.6688 0.9728 0.6847
C42 C 0.6776(4) 1.1059(3) 0.7128(2)
H36 H 0.7520 1.1034 0.7244
C43 C 0.6183(4) 1.1875(3) 0.7201(2)
H37 H 0.6511 1.2388 0.7382
C44 C 0.5114(4) 1.1917(3) 0.70063(18)
H38 H 0.4710 1.2468 0.7046
C45 C 0.4626(4) 1.1156(3) 0.67519(17)
H39 H 0.3896 1.1205 0.6615
C46 C 0.6392(3) 0.7249(2) 0.56064(15)
C47 C 0.6879(3) 0.6369(3) 0.56669(16)
H40 H 0.7451 0.6273 0.5929
C48 C 0.6509(3) 0.5634(3) 0.53355(16)
H41 H 0.6833 0.5041 0.5380
C49 C 0.5678(3) 0.5759(3) 0.49435(16)
C50 C 0.5211(3) 0.6647(3) 0.48734(16)
H42 H 0.4653 0.6742 0.4604
C51 C 0.5565(3) 0.7390(3) 0.51993(16)
H43 H 0.5251 0.7985 0.5147
C52 C 0.5251(4) 0.4941(3) 0.4596(2)
H44 H 0.5641 0.4375 0.4705
H45 H 0.5366 0.5072 0.4223
H46 H 0.4475 0.4857 0.4640
loop_
_geom_bond_atom_site_label_1
_geom_bond_atom_site_label_2
_geom_bond_site_symmetry_1
_geom_bond_site_symmetry_2
S1 N1 1_555 1_555
N1 C1 1_555 1_555
O1 S1 1_555 1_555
O2 S1 1_555 1_555
C1 H1 1_555 1_555
H2 C1 1_555 1_555
C2 C1 1_555 1_555
C3 C2 1_555 1_555
H3 C3 1_555 1_555
C4 C3 1_555 1_555
H4 C4 1_555 1_555
C5 C4 1_555 1_555
H5 C5 1_555 1_555
C6 C5 1_555 1_555
H6 C6 1_555 1_555
C7 C2 1_555 1_555
C8 C7 1_555 1_555
C9 C8 1_555 1_555
H7 C9 1_555 1_555
H8 C9 1_555 1_555
C10 C9 1_555 1_555
H9 C10 1_555 1_555
H10 C10 1_555 1_555
C11 C8 1_555 1_555
C12 N1 1_555 1_555
C13 C12 1_555 1_555
H11 C13 1_555 1_555
C14 C13 1_555 1_555
C15 C14 1_555 1_555
H12 C15 1_555 1_555
C16 C15 1_555 1_555
H13 C16 1_555 1_555
C17 C16 1_555 1_555
H14 C17 1_555 1_555
C18 C17 1_555 1_555
H15 C18 1_555 1_555
C19 C14 1_555 1_555
H16 C19 1_555 1_555
C20 S1 1_555 1_555
C21 C20 1_555 1_555
H17 C21 1_555 1_555
C22 C21 1_555 1_555
H18 C22 1_555 1_555
C23 C22 1_555 1_555
C24 C23 1_555 1_555
H19 C24 1_555 1_555
C25 C20 1_555 1_555
H20 C25 1_555 1_555
C26 C23 1_555 1_555
H21 C26 1_555 1_555
H22 C26 1_555 1_555
H23 C26 1_555 1_555
S2 N2 1_555 1_555
N2 C27 1_555 1_555
O3 S2 1_555 1_555
O4 S2 1_555 1_555
C27 H24 1_555 1_555
H25 C27 1_555 1_555
C28 C27 1_555 1_555
C29 C28 1_555 1_555
H26 C29 1_555 1_555
C30 C29 1_555 1_555
H27 C30 1_555 1_555
C31 C30 1_555 1_555
H28 C31 1_555 1_555
C32 C31 1_555 1_555
H29 C32 1_555 1_555
C33 C28 1_555 1_555
C34 C33 1_555 1_555
C35 C34 1_555 1_555
H30 C35 1_555 1_555
H31 C35 1_555 1_555
C36 C35 1_555 1_555
H32 C36 1_555 1_555
H33 C36 1_555 1_555
C37 C34 1_555 1_555
C38 N2 1_555 1_555
C39 C38 1_555 1_555
H34 C39 1_555 1_555
C40 C39 1_555 1_555
C41 C40 1_555 1_555
H35 C41 1_555 1_555
C42 C41 1_555 1_555
H36 C42 1_555 1_555
C43 C42 1_555 1_555
H37 C43 1_555 1_555
C44 C43 1_555 1_555
H38 C44 1_555 1_555
C45 C40 1_555 1_555
H39 C45 1_555 1_555
C46 S2 1_555 1_555
C47 C46 1_555 1_555
H40 C47 1_555 1_555
C48 C47 1_555 1_555
H41 C48 1_555 1_555
C49 C48 1_555 1_555
C50 C49 1_555 1_555
H42 C50 1_555 1_555
C51 C46 1_555 1_555
H43 C51 1_555 1_555
C52 C49 1_555 1_555
H44 C52 1_555 1_555
H45 C52 1_555 1_555
H46 C52 1_555 1_555
C6 C7 1_555 1_555
C10 C11 1_555 1_555
C11 C12 1_555 1_555
C18 C19 1_555 1_555
C24 C25 1_555 1_555
C32 C33 1_555 1_555
C36 C37 1_555 1_555
C37 C38 1_555 1_555
C44 C45 1_555 1_555
C50 C51 1_555 1_555

#END
