
#######################################################################
#
#                 Cambridge Crystallographic Data Centre
#                                CCDC 
#
#######################################################################
#
# If this CIF has been generated from an entry in the Cambridge 
# Structural Database, then it will include bibliographic, chemical, 
# crystal, experimental, refinement or atomic coordinate data resulting 
# from the CCDC's data processing and validation procedures.
#
#######################################################################

data_GIPJIA
_chemical_formula_moiety         'C16 H16 O6,H2 O1'
_chemical_name_systematic        
'Dimethyl 8-hydroxy-2-methoxy-3-methylnaphthalene-1,6-dicarboxylate monohydrate'
_symmetry_cell_setting           monoclinic
_symmetry_space_group_name_H-M   'P 21/c'
_symmetry_Int_Tables_number      14
_space_group_name_Hall           '-P 2ybc'
loop_
_symmetry_equiv_pos_site_id
_symmetry_equiv_pos_as_xyz
1 x,y,z
2 -x,1/2+y,1/2-z
3 -x,-y,-z
4 x,1/2-y,1/2+z
_cell_length_a                   14.8978(7)
_cell_length_b                   8.5637(4)
_cell_length_c                   12.7662(7)
_cell_angle_alpha                90
_cell_angle_beta                 106.359(2)
_cell_angle_gamma                90
_cell_volume                     1562.78
_exptl_crystal_colour            yellow
_exptl_crystal_description       BLOCK
_chemical_melting_point          '427 K'
_cell_formula_units_Z            4
loop_
_atom_site_label
_atom_site_type_symbol
_atom_site_fract_x
_atom_site_fract_y
_atom_site_fract_z
O1 O 0.40960(6) 0.60783(11) 0.21180(8)
O2 O 0.31198(7) 0.68876(10) 0.05397(8)
O3 O 0.22047(7) 0.62668(10) 0.23017(8)
H1 H 0.1981(10) 0.6773(17) 0.2757(11)
O4 O 0.04956(7) 0.05342(11) 0.36467(8)
O5 O 0.02353(7) 0.30306(11) 0.39826(8)
O6 O 0.41214(6) 0.37440(11) 0.01357(7)
C1 C 0.44438(11) 0.76605(18) 0.23079(14)
H2 H 0.4891 0.7732 0.3035
H3 H 0.3920 0.8375 0.2263
H4 H 0.4756 0.7946 0.1755
C2 C 0.33960(9) 0.58809(15) 0.12165(10)
C3 C 0.30333(9) 0.42411(14) 0.11246(10)
C4 C 0.23662(9) 0.37293(15) 0.16569(10)
C5 C 0.19682(9) 0.47374(14) 0.22926(10)
C6 C 0.13933(9) 0.41593(15) 0.28687(11)
H5 H 0.1141 0.4839 0.3301
C7 C 0.11759(9) 0.25531(15) 0.28194(10)
C8 C 0.15056(9) 0.15599(15) 0.21694(10)
H6 H 0.1327 0.0491 0.2118
C9 C 0.21109(9) 0.21215(14) 0.15753(10)
C10 C 0.25186(9) 0.11077(15) 0.09565(10)
H7 H 0.2338 0.0040 0.0893
C11 C 0.31635(9) 0.16089(15) 0.04468(10)
C12 C 0.34106(9) 0.32138(15) 0.05434(10)
C13 C 0.06060(9) 0.19149(15) 0.35085(11)
C14 C -0.02783(10) 0.25101(18) 0.47302(12)
H8 H -0.0432 0.3412 0.5120
H9 H 0.0107 0.1775 0.5257
H10 H -0.0857 0.1992 0.4319
C15 C 0.36530(10) 0.05207(15) -0.01338(11)
H11 H 0.3463 -0.0556 -0.0048
H12 H 0.4331 0.0620 0.0179
H13 H 0.3485 0.0789 -0.0911
C16 C 0.38275(10) 0.41845(17) -0.09993(10)
H14 H 0.4370 0.4544 -0.1223
H15 H 0.3366 0.5028 -0.1104
H16 H 0.3546 0.3281 -0.1442
O7 O 0.15921(7) 0.78883(11) 0.37028(8)
H17 H 0.1274(10) 0.8691(15) 0.3617(14)
H18 H 0.2021(9) 0.805(2) 0.4272(10)
loop_
_geom_bond_atom_site_label_1
_geom_bond_atom_site_label_2
_geom_bond_site_symmetry_1
_geom_bond_site_symmetry_2
O1 C1 1_555 1_555
O2 C2 1_555 1_555
O3 H1 1_555 1_555
O4 C13 1_555 1_555
O5 C13 1_555 1_555
O6 C12 1_555 1_555
C1 H2 1_555 1_555
H3 C1 1_555 1_555
H4 C1 1_555 1_555
C2 O1 1_555 1_555
C3 C2 1_555 1_555
C4 C3 1_555 1_555
C5 O3 1_555 1_555
C6 C5 1_555 1_555
H5 C6 1_555 1_555
C7 C6 1_555 1_555
C8 C7 1_555 1_555
H6 C8 1_555 1_555
C9 C4 1_555 1_555
C10 C9 1_555 1_555
H7 C10 1_555 1_555
C11 C10 1_555 1_555
C12 C3 1_555 1_555
C13 C7 1_555 1_555
C14 O5 1_555 1_555
H8 C14 1_555 1_555
H9 C14 1_555 1_555
H10 C14 1_555 1_555
C15 C11 1_555 1_555
H11 C15 1_555 1_555
H12 C15 1_555 1_555
H13 C15 1_555 1_555
C16 O6 1_555 1_555
H14 C16 1_555 1_555
H15 C16 1_555 1_555
H16 C16 1_555 1_555
O7 H17 1_555 1_555
H18 O7 1_555 1_555
C4 C5 1_555 1_555
C8 C9 1_555 1_555
C11 C12 1_555 1_555

#END
