
#######################################################################
#
#                 Cambridge Crystallographic Data Centre
#                                CCDC 
#
#######################################################################
#
# If this CIF has been generated from an entry in the Cambridge 
# Structural Database, then it will include bibliographic, chemical, 
# crystal, experimental, refinement or atomic coordinate data resulting 
# from the CCDC's data processing and validation procedures.
#
#######################################################################

data_GIPJOG
_chemical_formula_moiety         'C15 H12 O5'
_chemical_name_systematic        
'Methyl 3-methoxy-4-methyl-2-oxo-2H-naphtho[1,8-bc]furan-7-carboxylate'
_symmetry_cell_setting           triclinic
_symmetry_space_group_name_H-M   'P -1'
_symmetry_Int_Tables_number      2
_space_group_name_Hall           '-P 1'
loop_
_symmetry_equiv_pos_site_id
_symmetry_equiv_pos_as_xyz
1 x,y,z
2 -x,-y,-z
_cell_length_a                   6.9052(6)
_cell_length_b                   8.5515(7)
_cell_length_c                   11.1439(12)
_cell_angle_alpha                77.961(3)
_cell_angle_beta                 81.615(6)
_cell_angle_gamma                72.971(4)
_cell_volume                     612.824
_exptl_crystal_colour            colorless
_exptl_crystal_description       BLADE
_chemical_melting_point          '448 K'
_cell_formula_units_Z            2
loop_
_atom_site_label
_atom_site_type_symbol
_atom_site_fract_x
_atom_site_fract_y
_atom_site_fract_z
O1 O 0.2109(3) 0.9869(2) 0.18471(18)
O2 O 0.2663(3) 0.8129(2) 0.04923(18)
O3 O 0.2750(3) 0.2565(2) 0.35372(17)
O4 O 0.2646(3) 0.0392(2) 0.50475(18)
O5 O 0.2644(3) 0.2059(2) 0.77602(17)
C1 C 0.2071(5) 1.1232(3) 0.0829(3)
H1 H 0.1879 1.2258 0.1147
H2 H 0.0948 1.1359 0.0339
H3 H 0.3361 1.1005 0.0310
C2 C 0.2429(4) 0.8363(3) 0.1553(3)
C3 C 0.2445(4) 0.7054(3) 0.2650(3)
C4 C 0.2605(4) 0.5418(3) 0.2443(3)
H4 H 0.2681 0.5184 0.1638
C5 C 0.2642(4) 0.4229(3) 0.3459(3)
C6 C 0.2679(4) 0.1813(3) 0.4786(3)
C7 C 0.2619(4) 0.3104(3) 0.5528(2)
C8 C 0.2562(4) 0.3242(3) 0.6754(3)
C9 C 0.2372(4) 0.4856(3) 0.7045(3)
C10 C 0.2315(4) 0.6222(3) 0.6138(2)
H5 H 0.2219 0.7257 0.6361
C11 C 0.2396(4) 0.6126(3) 0.4867(3)
C12 C 0.2330(4) 0.7397(3) 0.3830(3)
H6 H 0.2207 0.8497 0.3936
C13 C 0.2552(4) 0.4549(3) 0.4642(3)
C14 C 0.2273(4) 0.4977(3) 0.8386(3)
H7 H 0.3477 0.4195 0.8749
H8 H 0.1045 0.4704 0.8826
H9 H 0.2233 0.6110 0.8455
C15 C 0.3057(5) 0.0342(3) 0.7616(3)
H10 H 0.3228 -0.0380 0.8423
H11 H 0.4305 0.0046 0.7070
H12 H 0.1918 0.0201 0.7258
loop_
_geom_bond_atom_site_label_1
_geom_bond_atom_site_label_2
_geom_bond_site_symmetry_1
_geom_bond_site_symmetry_2
O1 C1 1_555 1_555
O2 C2 1_555 1_555
O3 C5 1_555 1_555
O4 C6 1_555 1_555
O5 C8 1_555 1_555
C1 H1 1_555 1_555
H2 C1 1_555 1_555
H3 C1 1_555 1_555
C2 O1 1_555 1_555
C3 C2 1_555 1_555
C4 C3 1_555 1_555
H4 C4 1_555 1_555
C5 C4 1_555 1_555
C6 O3 1_555 1_555
C7 C6 1_555 1_555
C8 C7 1_555 1_555
C9 C8 1_555 1_555
C10 C9 1_555 1_555
H5 C10 1_555 1_555
C11 C10 1_555 1_555
C12 C3 1_555 1_555
H6 C12 1_555 1_555
C13 C5 1_555 1_555
C14 C9 1_555 1_555
H7 C14 1_555 1_555
H8 C14 1_555 1_555
H9 C14 1_555 1_555
C15 O5 1_555 1_555
H10 C15 1_555 1_555
H11 C15 1_555 1_555
H12 C15 1_555 1_555
C7 C13 1_555 1_555
C11 C12 1_555 1_555
C11 C13 1_555 1_555

#END
