
#######################################################################
#
#                 Cambridge Crystallographic Data Centre
#                                CCDC 
#
#######################################################################
#
# If this CIF has been generated from an entry in the Cambridge 
# Structural Database, then it will include bibliographic, chemical, 
# crystal, experimental, refinement or atomic coordinate data resulting 
# from the CCDC's data processing and validation procedures.
#
#######################################################################

data_GIPLIC
_chemical_formula_moiety         'C40 H34 N12,0.5(C1 H2 Cl2)'
_chemical_name_systematic        
'7,13,25,31-Tetramethyl-1,7,13,19,25,31,43,44,45,46,47,48-dodecaazanonacyclo[17.17.5.1^2,6^.1^8,12^.1^14,18^.1^20,24^.1^26,30^.1^32,36^.1^37,41^]octatetraconta-2(48),3,5,8(47),9,11,14(46),15,17,20(45),21,23,26(44),27,29,32(43),33,35,37,39,41-henicosaene dichloromethane solvate'
_symmetry_cell_setting           triclinic
_symmetry_space_group_name_H-M   'P -1'
_symmetry_Int_Tables_number      2
_space_group_name_Hall           '-P 1'
loop_
_symmetry_equiv_pos_site_id
_symmetry_equiv_pos_as_xyz
1 x,y,z
2 -x,-y,-z
_cell_length_a                   10.656(4)
_cell_length_b                   13.397(6)
_cell_length_c                   13.468(6)
_cell_angle_alpha                109.710(4)
_cell_angle_beta                 100.824(5)
_cell_angle_gamma                98.752(7)
_cell_volume                     1728.87
_exptl_crystal_colour            colorless
_exptl_crystal_description       block
_cell_formula_units_Z            2
loop_
_atom_site_label
_atom_site_type_symbol
_atom_site_fract_x
_atom_site_fract_y
_atom_site_fract_z
N1 N 0.0947(5) 0.3774(4) 0.2388(4)
N2 N 0.0955(5) 0.1952(4) 0.1909(5)
N3 N 0.3216(5) 0.2709(4) 0.2583(4)
N4 N 0.5433(5) 0.3592(4) 0.3398(4)
N5 N 0.5663(5) 0.5157(4) 0.3007(4)
N6 N 0.5583(5) 0.6623(4) 0.2495(4)
N7 N 0.5353(5) 0.8098(4) 0.2019(4)
N8 N 0.4897(5) 0.9472(4) 0.1446(5)
N9 N 0.3108(5) 0.9353(4) 0.2225(4)
N10 N 0.1466(5) 0.9196(4) 0.3130(5)
N11 N 0.1176(4) 0.7397(4) 0.3008(4)
N12 N 0.1091(5) 0.5598(4) 0.2752(4)
C2 C 0.0368(6) 0.4604(5) 0.2694(5)
C3 C -0.0860(6) 0.4484(5) 0.2897(5)
H3 H -0.1247 0.5090 0.3119
C4 C -0.1507(6) 0.3450(5) 0.2767(5)
H4 H -0.2352 0.3342 0.2899
C5 C -0.0938(6) 0.2586(5) 0.2450(5)
H5 H -0.1372 0.1878 0.2366
C6 C 0.0302(5) 0.2776(4) 0.2253(4)
C7 C 0.0266(7) 0.0829(5) 0.1478(6)
H6 H -0.0544 0.0720 0.0930
H7 H 0.0047 0.0626 0.2070
H8 H 0.0824 0.0372 0.1138
C8 C 0.2191(6) 0.2247(5) 0.1691(5)
C9 C 0.2293(6) 0.2131(5) 0.0665(5)
H9 H 0.1553 0.1778 0.0055
C10 C 0.3502(6) 0.2541(5) 0.0531(5)
H10 H 0.3600 0.2471 -0.0174
C11 C 0.4554(6) 0.3047(5) 0.1429(5)
H11 H 0.5385 0.3349 0.1362
C12 C 0.4363(5) 0.3106(4) 0.2446(5)
C13 C 0.5487(6) 0.3118(6) 0.4236(6)
H12 H 0.5188 0.3573 0.4841
H13 H 0.6393 0.3082 0.4506
H14 H 0.4918 0.2381 0.3920
C14 C 0.6039(5) 0.4692(5) 0.3723(5)
C15 C 0.6974(6) 0.5273(5) 0.4728(5)
H15 H 0.7234 0.4938 0.5227
C16 C 0.7491(6) 0.6351(5) 0.4949(5)
H16 H 0.8137 0.6766 0.5614
C17 C 0.7106(6) 0.6848(5) 0.4243(5)
H17 H 0.7462 0.7599 0.4415
C18 C 0.6169(5) 0.6210(5) 0.3258(5)
C19 C 0.6184(6) 0.7569(5) 0.2381(5)
C20 C 0.7542(6) 0.7910(5) 0.2592(5)
H18 H 0.8115 0.7501 0.2810
C21 C 0.8023(6) 0.8873(5) 0.2471(5)
H19 H 0.8945 0.9138 0.2622
C22 C 0.7180(6) 0.9451(5) 0.2132(5)
H20 H 0.7508 1.0123 0.2071
C23 C 0.5835(6) 0.9019(5) 0.1883(5)
C24 C 0.5238(8) 1.0600(6) 0.1544(8)
H21 H 0.4437 1.0827 0.1312
H22 H 0.5827 1.0668 0.1080
H23 H 0.5680 1.1067 0.2305
C25 C 0.3557(6) 0.9001(5) 0.1327(5)
C26 C 0.2838(7) 0.8199(6) 0.0371(6)
H24 H 0.3198 0.7980 -0.0241
C27 C 0.1567(6) 0.7706(5) 0.0309(5)
H25 H 0.1035 0.7149 -0.0350
C28 C 0.1087(6) 0.8040(5) 0.1224(5)
H26 H 0.0219 0.7723 0.1207
C29 C 0.1899(6) 0.8843(5) 0.2156(5)
C30 C 0.1879(7) 1.0355(5) 0.3849(6)
H27 H 0.1148 1.0584 0.4140
H28 H 0.2139 1.0790 0.3433
H29 H 0.2627 1.0463 0.4454
C31 C 0.1184(5) 0.8431(5) 0.3601(5)
C32 C 0.0922(6) 0.8712(5) 0.4626(5)
H30 H 0.0911 0.9442 0.5038
C33 C 0.0679(6) 0.7892(6) 0.5019(5)
H31 H 0.0493 0.8066 0.5713
C34 C 0.0699(6) 0.6829(5) 0.4438(5)
H32 H 0.0548 0.6269 0.4715
C35 C 0.0954(5) 0.6625(5) 0.3417(5)
C36 C 0.2012(5) 0.5590(4) 0.2093(5)
C37 C 0.3314(5) 0.6101(4) 0.2580(5)
H33 H 0.3606 0.6438 0.3352
C38 C 0.4202(5) 0.6128(4) 0.1958(5)
C39 C 0.3789(6) 0.5656(5) 0.0821(5)
H34 H 0.4394 0.5696 0.0391
C40 C 0.2478(6) 0.5129(5) 0.0331(5)
H35 H 0.2186 0.4796 -0.0442
C41 C 0.1582(6) 0.5079(5) 0.0958(5)
H36 H 0.0691 0.4702 0.0617
Cl1 Cl 0.4550(3) 0.8834(3) 0.4528(3)
C1 C 0.465(2) 1.0023(11) 0.5613(13)
H1 H 0.5105 0.9981 0.6279
H2 H 0.3778 1.0087 0.5662
Cl1A Cl 0.5450(3) 1.1166(3) 0.5472(3)
C1A C 0.535(2) 0.9977(11) 0.4387(13)
H1A H 0.4895 1.0019 0.3721
H2A H 0.6222 0.9913 0.4338
loop_
_geom_bond_atom_site_label_1
_geom_bond_atom_site_label_2
_geom_bond_site_symmetry_1
_geom_bond_site_symmetry_2
Cl1 C1 1_555 1_555
C1 H1 1_555 1_555
H2 C1 1_555 1_555
N1 C2 1_555 1_555
N2 C6 1_555 1_555
N3 C8 1_555 1_555
N4 C12 1_555 1_555
N5 C14 1_555 1_555
N6 C18 1_555 1_555
N7 C19 1_555 1_555
N8 C23 1_555 1_555
N9 C25 1_555 1_555
N10 C29 1_555 1_555
N11 C31 1_555 1_555
N12 C2 1_555 1_555
C2 C3 1_555 1_555
C3 H3 1_555 1_555
C4 C3 1_555 1_555
H4 C4 1_555 1_555
C5 C4 1_555 1_555
H5 C5 1_555 1_555
C6 N1 1_555 1_555
C7 N2 1_555 1_555
H6 C7 1_555 1_555
H7 C7 1_555 1_555
H8 C7 1_555 1_555
C8 N2 1_555 1_555
C9 C8 1_555 1_555
H9 C9 1_555 1_555
C10 C9 1_555 1_555
H10 C10 1_555 1_555
C11 C10 1_555 1_555
H11 C11 1_555 1_555
C12 N3 1_555 1_555
C13 N4 1_555 1_555
H12 C13 1_555 1_555
H13 C13 1_555 1_555
H14 C13 1_555 1_555
C14 N4 1_555 1_555
C15 C14 1_555 1_555
H15 C15 1_555 1_555
C16 C15 1_555 1_555
H16 C16 1_555 1_555
C17 C16 1_555 1_555
H17 C17 1_555 1_555
C18 N5 1_555 1_555
C19 N6 1_555 1_555
C20 C19 1_555 1_555
H18 C20 1_555 1_555
C21 C20 1_555 1_555
H19 C21 1_555 1_555
C22 C21 1_555 1_555
H20 C22 1_555 1_555
C23 N7 1_555 1_555
C24 N8 1_555 1_555
H21 C24 1_555 1_555
H22 C24 1_555 1_555
H23 C24 1_555 1_555
C25 N8 1_555 1_555
C26 C25 1_555 1_555
H24 C26 1_555 1_555
C27 C26 1_555 1_555
H25 C27 1_555 1_555
C28 C27 1_555 1_555
H26 C28 1_555 1_555
C29 N9 1_555 1_555
C30 N10 1_555 1_555
H27 C30 1_555 1_555
H28 C30 1_555 1_555
H29 C30 1_555 1_555
C31 N10 1_555 1_555
C32 C31 1_555 1_555
H30 C32 1_555 1_555
C33 C32 1_555 1_555
H31 C33 1_555 1_555
C34 C33 1_555 1_555
H32 C34 1_555 1_555
C35 N11 1_555 1_555
C36 N12 1_555 1_555
C37 C36 1_555 1_555
H33 C37 1_555 1_555
C38 N6 1_555 1_555
C39 C38 1_555 1_555
H34 C39 1_555 1_555
C40 C39 1_555 1_555
H35 C40 1_555 1_555
C41 C36 1_555 1_555
H36 C41 1_555 1_555
Cl1A C1 1_555 1_555
C1A Cl1 1_555 1_555
H1A C1A 1_555 1_555
H2A C1A 1_555 1_555
N12 C35 1_555 1_555
C5 C6 1_555 1_555
C11 C12 1_555 1_555
C17 C18 1_555 1_555
C22 C23 1_555 1_555
C28 C29 1_555 1_555
C34 C35 1_555 1_555
C37 C38 1_555 1_555
C40 C41 1_555 1_555
Cl1A C1A 1_555 1_555

#END
