
#######################################################################
#
#                 Cambridge Crystallographic Data Centre
#                                CCDC 
#
#######################################################################
#
# If this CIF has been generated from an entry in the Cambridge 
# Structural Database, then it will include bibliographic, chemical, 
# crystal, experimental, refinement or atomic coordinate data resulting 
# from the CCDC's data processing and validation procedures.
#
#######################################################################

data_GIPLOJ
_chemical_formula_moiety         'C19 H26 O3 S3'
_chemical_name_systematic        
"(5-methylspiro[bicyclo[2.2.2]octane-2,2'-[1,3]dithiolan]-5-yl)methyl 4-methylbenzene-1-sulfonate"
_symmetry_cell_setting           monoclinic
_symmetry_space_group_name_H-M   'P 21/c'
_symmetry_Int_Tables_number      14
_space_group_name_Hall           '-P 2ybc'
loop_
_symmetry_equiv_pos_site_id
_symmetry_equiv_pos_as_xyz
1 x,y,z
2 -x,1/2+y,1/2-z
3 -x,-y,-z
4 x,1/2-y,1/2+z
_cell_length_a                   21.2829(7)
_cell_length_b                   6.8607(2)
_cell_length_c                   13.0012(5)
_cell_angle_alpha                90
_cell_angle_beta                 101.917(3)
_cell_angle_gamma                90
_cell_volume                     1857.46
_exptl_crystal_colour            colorless
_exptl_crystal_description       plate
_cell_formula_units_Z            4
_exptl_crystal_recrystallization_method chloroform
loop_
_atom_site_label
_atom_site_type_symbol
_atom_site_fract_x
_atom_site_fract_y
_atom_site_fract_z
S1 S 0.65876(9) 0.2956(3) 0.58341(13)
S2 S 0.92561(8) 0.2331(3) 0.45561(14)
S3 S 0.89848(9) 0.3486(3) 0.23158(14)
O1 O 0.68644(19) 0.4460(7) 0.5117(3)
O2 O 0.6430(2) 0.3903(9) 0.6719(4)
O3 O 0.6958(4) 0.1487(13) 0.6012(7)
C1 C 0.7744(3) 0.6069(9) 0.4561(5)
C2 C 0.7600(3) 0.5036(9) 0.3490(5)
H1 H 0.7138 0.4637 0.3320
C3 C 0.8025(3) 0.3223(9) 0.3504(5)
H2 H 0.7880 0.2459 0.2853
H3 H 0.7990 0.2386 0.4111
C4 C 0.8735(3) 0.3859(10) 0.3590(5)
C5 C 0.8783(3) 0.6032(10) 0.3883(5)
H4 H 0.9245 0.6433 0.4047
C6 C 0.8487(3) 0.6399(10) 0.4845(5)
H5 H 0.8578 0.7753 0.5094
H6 H 0.8682 0.5505 0.5420
C7 C 0.7734(3) 0.6398(11) 0.2633(5)
H7 H 0.7413 0.7463 0.2513
H8 H 0.7702 0.5670 0.1967
C8 C 0.8421(3) 0.7263(11) 0.2986(5)
H9 H 0.8646 0.7248 0.2392
H10 H 0.8395 0.8629 0.3220
C9 C 0.7376(3) 0.8025(10) 0.4504(6)
H11 H 0.7517 0.8887 0.3994
H12 H 0.7464 0.8646 0.5198
H13 H 0.6914 0.7782 0.4283
C10 C 0.7563(3) 0.4810(10) 0.5409(5)
H14 H 0.7799 0.3558 0.5463
H15 H 0.7673 0.5481 0.6097
C11 C 0.9903(3) 0.2211(15) 0.3855(7)
H16 H 1.0143 0.3456 0.3930
H17 H 1.0204 0.1152 0.4145
C12 C 0.9623(4) 0.1831(13) 0.2730(7)
H18 H 0.9463 0.0474 0.2637
H19 H 0.9955 0.2008 0.2304
C13 C 0.5878(3) 0.2402(9) 0.4917(5)
C14 C 0.5922(3) 0.1540(9) 0.3954(5)
H20 H 0.6329 0.1257 0.3795
C15 C 0.5364(3) 0.1116(9) 0.3244(5)
H21 H 0.5389 0.0534 0.2591
C16 C 0.4761(3) 0.1518(9) 0.3457(5)
C17 C 0.4737(3) 0.2326(10) 0.4431(6)
H22 H 0.4330 0.2586 0.4593
C18 C 0.5285(3) 0.2764(10) 0.5170(5)
H23 H 0.5257 0.3298 0.5833
C19 C 0.4162(3) 0.1108(11) 0.2662(5)
H24 H 0.4018 -0.0226 0.2756
H25 H 0.4248 0.1250 0.1954
H26 H 0.3826 0.2029 0.2755
loop_
_geom_bond_atom_site_label_1
_geom_bond_atom_site_label_2
_geom_bond_site_symmetry_1
_geom_bond_site_symmetry_2
S1 O1 1_555 1_555
S2 C4 1_555 1_555
S3 C4 1_555 1_555
O1 C10 1_555 1_555
O2 S1 1_555 1_555
O3 S1 1_555 1_555
C1 C2 1_555 1_555
C2 H1 1_555 1_555
C3 C2 1_555 1_555
H2 C3 1_555 1_555
H3 C3 1_555 1_555
C4 C3 1_555 1_555
C5 C4 1_555 1_555
H4 C5 1_555 1_555
C6 C1 1_555 1_555
H5 C6 1_555 1_555
H6 C6 1_555 1_555
C7 C2 1_555 1_555
H7 C7 1_555 1_555
H8 C7 1_555 1_555
C8 C5 1_555 1_555
H9 C8 1_555 1_555
H10 C8 1_555 1_555
C9 C1 1_555 1_555
H11 C9 1_555 1_555
H12 C9 1_555 1_555
H13 C9 1_555 1_555
C10 C1 1_555 1_555
H14 C10 1_555 1_555
H15 C10 1_555 1_555
C11 S2 1_555 1_555
H16 C11 1_555 1_555
H17 C11 1_555 1_555
C12 S3 1_555 1_555
H18 C12 1_555 1_555
H19 C12 1_555 1_555
C13 S1 1_555 1_555
C14 C13 1_555 1_555
H20 C14 1_555 1_555
C15 C14 1_555 1_555
H21 C15 1_555 1_555
C16 C15 1_555 1_555
C17 C16 1_555 1_555
H22 C17 1_555 1_555
C18 C13 1_555 1_555
H23 C18 1_555 1_555
C19 C16 1_555 1_555
H24 C19 1_555 1_555
H25 C19 1_555 1_555
H26 C19 1_555 1_555
C5 C6 1_555 1_555
C7 C8 1_555 1_555
C11 C12 1_555 1_555
C17 C18 1_555 1_555

#END
