
#######################################################################
#
#                 Cambridge Crystallographic Data Centre
#                                CCDC 
#
#######################################################################
#
# If this CIF has been generated from an entry in the Cambridge 
# Structural Database, then it will include bibliographic, chemical, 
# crystal, experimental, refinement or atomic coordinate data resulting 
# from the CCDC's data processing and validation procedures.
#
#######################################################################

data_GIPLOI
_chemical_formula_moiety         'C39 H33 N13,2(C1 H4 O1)'
_chemical_name_systematic        
'7,13,25,31-tetramethyl-1,7,13,19,25,31,42,43,44,45,46,47,48-tridecaazanonacyclo[17.17.5.1^2,6^.1^8,12^.1^14,18^.1^20,24^.1^26,30^.1^32,36^.1^37,41^]octatetraconta-2(48),3,5,8(47),9,11,14(46),15,17,20(45),21,23,26(44),27,29,32(43),33,35,37,39,41-henicosaene methanol solvate'
_symmetry_cell_setting           monoclinic
_symmetry_space_group_name_H-M   'P 21/c'
_symmetry_Int_Tables_number      14
_space_group_name_Hall           '-P 2ybc'
loop_
_symmetry_equiv_pos_site_id
_symmetry_equiv_pos_as_xyz
1 x,y,z
2 -x,1/2+y,1/2-z
3 -x,-y,-z
4 x,1/2-y,1/2+z
_cell_length_a                   23.581(5)
_cell_length_b                   15.123(3)
_cell_length_c                   10.468(2)
_cell_angle_alpha                90
_cell_angle_beta                 94.086(4)
_cell_angle_gamma                90
_cell_volume                     3723.56
_exptl_crystal_colour            colorless
_exptl_crystal_description       needle
_cell_formula_units_Z            4
loop_
_atom_site_label
_atom_site_type_symbol
_atom_site_fract_x
_atom_site_fract_y
_atom_site_fract_z
O1 O 0.41548(10) 0.62487(17) 0.2938(2)
H1 H 0.4254 0.5740 0.2721
C1 C 0.35555(15) 0.6356(3) 0.2762(3)
H2 H 0.3409 0.6564 0.3562
H3 H 0.3379 0.5788 0.2521
H4 H 0.3465 0.6790 0.2083
O2 O 0.21155(10) 0.64628(16) 0.2415(2)
H5 H 0.2214 0.5929 0.2399
C2 C 0.15215(15) 0.6402(2) 0.2067(3)
H6 H 0.1319 0.6848 0.2538
H7 H 0.1385 0.5812 0.2279
H8 H 0.1452 0.6505 0.1145
N1 N 0.37704(10) 0.42933(17) 0.4138(2)
N2 N 0.46599(11) 0.38461(19) 0.3617(3)
N3 N 0.43148(11) 0.45408(18) 0.1718(2)
N4 N 0.39702(11) 0.53231(18) -0.0107(3)
N5 N 0.30095(11) 0.50521(17) -0.0066(2)
N6 N 0.20793(11) 0.46966(18) 0.0227(2)
N7 N 0.24574(10) 0.46209(17) 0.2358(2)
N8 N 0.28436(10) 0.46468(18) 0.4487(2)
N9 N 0.11572(11) 0.42934(17) 0.0521(2)
N10 N 0.02764(11) 0.38038(18) 0.0994(3)
N11 N 0.05921(11) 0.44829(18) 0.2940(3)
N12 N 0.09425(11) 0.52486(18) 0.4767(2)
N13 N 0.19111(11) 0.49869(18) 0.4763(2)
C3 C 0.34114(13) 0.4563(2) 0.4994(3)
C4 C 0.35740(14) 0.4708(2) 0.6279(3)
H9 H 0.3308 0.4884 0.6870
C5 C 0.41462(14) 0.4582(2) 0.6657(3)
H10 H 0.4278 0.4693 0.7521
C6 C 0.45243(14) 0.4299(2) 0.5803(3)
H11 H 0.4914 0.4206 0.6066
C7 C 0.43185(14) 0.4155(2) 0.4545(3)
C8 C 0.51733(14) 0.3347(2) 0.3998(4)
H12 H 0.5448 0.3735 0.4465
H13 H 0.5339 0.3115 0.3233
H14 H 0.5077 0.2854 0.4551
C9 C 0.44156(13) 0.3773(2) 0.2340(3)
C10 C 0.42833(15) 0.2961(2) 0.1801(3)
H15 H 0.4372 0.2430 0.2258
C11 C 0.40171(14) 0.2937(2) 0.0577(3)
H16 H 0.3914 0.2387 0.0188
C12 C 0.39037(14) 0.3717(2) -0.0071(3)
H17 H 0.3722 0.3717 -0.0911
C13 C 0.40627(13) 0.4507(2) 0.0542(3)
C14 C 0.44287(14) 0.5976(2) -0.0043(4)
H18 H 0.4490 0.6187 -0.0908
H19 H 0.4779 0.5704 0.0334
H20 H 0.4325 0.6476 0.0489
C15 C 0.34143(13) 0.5609(2) -0.0393(3)
C16 C 0.32933(14) 0.6432(2) -0.0948(3)
H21 H 0.3587 0.6812 -0.1195
C17 C 0.27278(14) 0.6668(2) -0.1121(3)
H22 H 0.2630 0.7226 -0.1491
C18 C 0.23030(14) 0.6114(2) -0.0772(3)
H23 H 0.1914 0.6278 -0.0888
C19 C 0.24694(13) 0.5309(2) -0.0246(3)
C20 C 0.22705(12) 0.4169(2) 0.1310(3)
C21 C 0.22760(14) 0.3262(2) 0.1234(3)
H24 H 0.2137 0.2967 0.0474
C22 C 0.24897(14) 0.2789(2) 0.2295(3)
H25 H 0.2501 0.2161 0.2274
C23 C 0.26853(13) 0.3241(2) 0.3381(3)
H26 H 0.2834 0.2933 0.4121
C24 C 0.26598(12) 0.4153(2) 0.3369(3)
C25 C 0.15168(13) 0.4588(2) -0.0306(3)
C26 C 0.13636(14) 0.4748(2) -0.1591(3)
H27 H 0.1633 0.4933 -0.2168
C27 C 0.07961(15) 0.4624(2) -0.1985(3)
H28 H 0.0670 0.4748 -0.2848
C28 C 0.04108(14) 0.4327(2) -0.1157(3)
H29 H 0.0022 0.4244 -0.1431
C29 C 0.06135(13) 0.4150(2) 0.0102(3)
C30 C -0.02771(14) 0.3427(2) 0.0624(4)
H30 H -0.0534 0.3895 0.0287
H31 H -0.0433 0.3154 0.1372
H32 H -0.0238 0.2977 -0.0039
C31 C 0.05139(13) 0.3723(2) 0.2284(3)
C32 C 0.06686(14) 0.2908(2) 0.2778(3)
H33 H 0.0593 0.2382 0.2298
C33 C 0.09397(15) 0.2878(2) 0.4000(4)
H34 H 0.1053 0.2326 0.4368
C34 C 0.10427(13) 0.3643(2) 0.4674(3)
H35 H 0.1233 0.3635 0.5505
C35 C 0.08587(13) 0.4438(2) 0.4099(3)
C36 C 0.04933(14) 0.5916(2) 0.4614(3)
H36 H 0.0434 0.6182 0.5448
H37 H 0.0140 0.5638 0.4268
H38 H 0.0606 0.6377 0.4023
C37 C 0.14993(14) 0.5539(2) 0.5074(3)
C38 C 0.16154(14) 0.6359(2) 0.5645(3)
H39 H 0.1317 0.6737 0.5871
C39 C 0.21772(15) 0.6604(2) 0.5870(3)
H40 H 0.2269 0.7158 0.6261
C40 C 0.26061(14) 0.6050(2) 0.5531(3)
H41 H 0.2994 0.6213 0.5677
C41 C 0.24517(13) 0.5245(2) 0.4969(3)
loop_
_geom_bond_atom_site_label_1
_geom_bond_atom_site_label_2
_geom_bond_site_symmetry_1
_geom_bond_site_symmetry_2
O1 H1 1_555 1_555
C1 O1 1_555 1_555
H2 C1 1_555 1_555
H3 C1 1_555 1_555
H4 C1 1_555 1_555
O2 H5 1_555 1_555
C2 O2 1_555 1_555
H6 C2 1_555 1_555
H7 C2 1_555 1_555
H8 C2 1_555 1_555
N1 C3 1_555 1_555
N2 C7 1_555 1_555
N3 C9 1_555 1_555
N4 C13 1_555 1_555
N5 C15 1_555 1_555
N6 C19 1_555 1_555
N7 C20 1_555 1_555
N8 C3 1_555 1_555
N9 C25 1_555 1_555
N10 C29 1_555 1_555
N11 C31 1_555 1_555
N12 C35 1_555 1_555
N13 C37 1_555 1_555
C3 C4 1_555 1_555
C4 H9 1_555 1_555
C5 C4 1_555 1_555
H10 C5 1_555 1_555
C6 C5 1_555 1_555
H11 C6 1_555 1_555
C7 N1 1_555 1_555
C8 N2 1_555 1_555
H12 C8 1_555 1_555
H13 C8 1_555 1_555
H14 C8 1_555 1_555
C9 N2 1_555 1_555
C10 C9 1_555 1_555
H15 C10 1_555 1_555
C11 C10 1_555 1_555
H16 C11 1_555 1_555
C12 C11 1_555 1_555
H17 C12 1_555 1_555
C13 N3 1_555 1_555
C14 N4 1_555 1_555
H18 C14 1_555 1_555
H19 C14 1_555 1_555
H20 C14 1_555 1_555
C15 N4 1_555 1_555
C16 C15 1_555 1_555
H21 C16 1_555 1_555
C17 C16 1_555 1_555
H22 C17 1_555 1_555
C18 C17 1_555 1_555
H23 C18 1_555 1_555
C19 N5 1_555 1_555
C20 N6 1_555 1_555
C21 C20 1_555 1_555
H24 C21 1_555 1_555
C22 C21 1_555 1_555
H25 C22 1_555 1_555
C23 C22 1_555 1_555
H26 C23 1_555 1_555
C24 N7 1_555 1_555
C25 N6 1_555 1_555
C26 C25 1_555 1_555
H27 C26 1_555 1_555
C27 C26 1_555 1_555
H28 C27 1_555 1_555
C28 C27 1_555 1_555
H29 C28 1_555 1_555
C29 N9 1_555 1_555
C30 N10 1_555 1_555
H30 C30 1_555 1_555
H31 C30 1_555 1_555
H32 C30 1_555 1_555
C31 N10 1_555 1_555
C32 C31 1_555 1_555
H33 C32 1_555 1_555
C33 C32 1_555 1_555
H34 C33 1_555 1_555
C34 C33 1_555 1_555
H35 C34 1_555 1_555
C35 N11 1_555 1_555
C36 N12 1_555 1_555
H36 C36 1_555 1_555
H37 C36 1_555 1_555
H38 C36 1_555 1_555
C37 N12 1_555 1_555
C38 C37 1_555 1_555
H39 C38 1_555 1_555
C39 C38 1_555 1_555
H40 C39 1_555 1_555
C40 C39 1_555 1_555
H41 C40 1_555 1_555
C41 N8 1_555 1_555
N8 C24 1_555 1_555
N13 C41 1_555 1_555
C6 C7 1_555 1_555
C12 C13 1_555 1_555
C18 C19 1_555 1_555
C23 C24 1_555 1_555
C28 C29 1_555 1_555
C34 C35 1_555 1_555
C40 C41 1_555 1_555

#END
