
#######################################################################
#
#                 Cambridge Crystallographic Data Centre
#                                CCDC 
#
#######################################################################
#
# If this CIF has been generated from an entry in the Cambridge 
# Structural Database, then it will include bibliographic, chemical, 
# crystal, experimental, refinement or atomic coordinate data resulting 
# from the CCDC's data processing and validation procedures.
#
#######################################################################

data_GIPLEZ
_chemical_formula_moiety         'C13 H20 O2 S2'
_chemical_name_systematic        
"methyl 5-methylspiro[bicyclo[2.2.2]octane-2,2'-[1,3]dithiolane]-5-carboxylate"
_symmetry_cell_setting           triclinic
_symmetry_space_group_name_H-M   'P -1'
_symmetry_Int_Tables_number      2
_space_group_name_Hall           '-P 1'
loop_
_symmetry_equiv_pos_site_id
_symmetry_equiv_pos_as_xyz
1 x,y,z
2 -x,-y,-z
_cell_length_a                   6.9750(17)
_cell_length_b                   8.6402(18)
_cell_length_c                   11.964(3)
_cell_angle_alpha                89.409(13)
_cell_angle_beta                 73.357(17)
_cell_angle_gamma                72.030(19)
_cell_volume                     654.697
_exptl_crystal_colour            colorless
_cell_formula_units_Z            2
_exptl_crystal_recrystallization_method dichloromethane
loop_
_atom_site_label
_atom_site_type_symbol
_atom_site_fract_x
_atom_site_fract_y
_atom_site_fract_z
S1 S 0.58199(2) 0.396163(16) 0.600843(12)
S2 S 0.76763(2) 0.092922(16) 0.696863(12)
O1 O 0.53104(7) 0.80521(5) 0.90492(4)
O2 O 0.55839(8) 0.78660(5) 0.71393(4)
C1 C 0.83270(8) 0.59996(6) 0.78515(4)
C2 C 0.77656(8) 0.46819(6) 0.86558(4)
H1 H 0.7046 0.5181 0.9479
C3 C 0.97636(9) 0.32625(7) 0.86135(5)
H2 H 0.9373 0.2400 0.9088
H3 H 1.0691 0.3655 0.8948
C4 C 1.09561(8) 0.25518(7) 0.73331(5)
H4 H 1.2332 0.2756 0.7083
H5 H 1.1228 0.1357 0.7272
C5 C 0.96193(8) 0.33622(6) 0.65385(4)
H6 H 1.0349 0.2859 0.5717
C6 C 0.93640(8) 0.51921(6) 0.65781(4)
H7 H 0.8477 0.5733 0.6082
H8 H 1.0766 0.5340 0.6259
C7 C 0.62872(8) 0.40020(6) 0.82236(4)
H9 H 0.5009 0.4906 0.8216
H10 H 0.5840 0.3220 0.8766
C8 C 0.74241(8) 0.31250(6) 0.69674(4)
C9 C 0.98015(9) 0.67417(7) 0.82405(5)
H11 H 0.9961 0.7667 0.7785
H12 H 1.1187 0.5912 0.8110
H13 H 0.9195 0.7118 0.9075
C10 C 0.62843(8) 0.73870(6) 0.79381(4)
C11 C 0.34083(10) 0.94192(8) 0.92100(6)
H14 H 0.3744 1.0298 0.8750
H15 H 0.2806 0.9815 1.0041
H16 H 0.2384 0.9073 0.8948
C12 C 0.68897(10) 0.21699(7) 0.49880(5)
H17 H 0.6042 0.2260 0.4439
H18 H 0.8363 0.2049 0.4529
C13 C 0.68183(9) 0.07061(7) 0.56964(5)
H19 H 0.7758 -0.0314 0.5210
H20 H 0.5363 0.0647 0.5950
loop_
_geom_bond_atom_site_label_1
_geom_bond_atom_site_label_2
_geom_bond_site_symmetry_1
_geom_bond_site_symmetry_2
S1 C8 1_555 1_555
S2 C8 1_555 1_555
O1 C10 1_555 1_555
O2 C10 1_555 1_555
C1 C2 1_555 1_555
C2 H1 1_555 1_555
C3 C2 1_555 1_555
H2 C3 1_555 1_555
H3 C3 1_555 1_555
C4 C3 1_555 1_555
H4 C4 1_555 1_555
H5 C4 1_555 1_555
C5 C4 1_555 1_555
H6 C5 1_555 1_555
C6 C1 1_555 1_555
H7 C6 1_555 1_555
H8 C6 1_555 1_555
C7 C2 1_555 1_555
H9 C7 1_555 1_555
H10 C7 1_555 1_555
C8 C5 1_555 1_555
C9 C1 1_555 1_555
H11 C9 1_555 1_555
H12 C9 1_555 1_555
H13 C9 1_555 1_555
C10 C1 1_555 1_555
C11 O1 1_555 1_555
H14 C11 1_555 1_555
H15 C11 1_555 1_555
H16 C11 1_555 1_555
C12 S1 1_555 1_555
H17 C12 1_555 1_555
H18 C12 1_555 1_555
C13 S2 1_555 1_555
H19 C13 1_555 1_555
H20 C13 1_555 1_555
C5 C6 1_555 1_555
C7 C8 1_555 1_555
C12 C13 1_555 1_555

#END
