
#######################################################################
#
#                 Cambridge Crystallographic Data Centre
#                                CCDC 
#
#######################################################################
#
# If this CIF has been generated from an entry in the Cambridge 
# Structural Database, then it will include bibliographic, chemical, 
# crystal, experimental, refinement or atomic coordinate data resulting 
# from the CCDC's data processing and validation procedures.
#
#######################################################################

data_GIPMAT
_chemical_name_common            
'2-(2,5-bis(Dicyanomethylene)cyclohexadienyloxy)ethyl acetate'
_chemical_formula_moiety         'C16 H10 N4 O3'
_chemical_name_systematic        
2-Acetoxyethoxy-7,7,8,8-tetracyanoquinodimethane
_symmetry_cell_setting           triclinic
_symmetry_space_group_name_H-M   'P -1'
_symmetry_Int_Tables_number      2
_space_group_name_Hall           '-P 1'
loop_
_symmetry_equiv_pos_site_id
_symmetry_equiv_pos_as_xyz
1 x,y,z
2 -x,-y,-z
_cell_length_a                   7.165(3)
_cell_length_b                   9.058(8)
_cell_length_c                   13.244(4)
_cell_angle_alpha                70.06(7)
_cell_angle_beta                 87.14(3)
_cell_angle_gamma                68.22(6)
_cell_volume                     747.436
_exptl_crystal_colour            red
_chemical_melting_point          416K
_cell_formula_units_Z            2
loop_
_atom_site_label
_atom_site_type_symbol
_atom_site_fract_x
_atom_site_fract_y
_atom_site_fract_z
N1 N 1.0971(5) 0.0897(4) 0.6903(3)
C1 C 0.9734(6) 0.1963(5) 0.7101(3)
C2 C 0.8177(5) 0.3283(4) 0.7380(3)
C3 C 0.7916(6) 0.2760(5) 0.8518(3)
N2 N 0.7838(5) 0.2197(4) 0.9424(3)
C4 C 0.7097(5) 0.4786(4) 0.6601(3)
C5 C 0.5544(5) 0.6174(4) 0.6857(3)
C6 C 0.4376(5) 0.7610(4) 0.6070(3)
C7 C 0.4698(5) 0.7834(4) 0.4963(3)
C8 C 0.6295(5) 0.6501(4) 0.4696(3)
C9 C 0.7433(5) 0.5067(4) 0.5476(3)
C10 C 0.3528(5) 0.9284(4) 0.4150(3)
C11 C 0.3807(6) 0.9543(5) 0.3037(3)
N3 N 0.3968(6) 0.9798(5) 0.2141(3)
C12 C 0.1931(6) 1.0662(5) 0.4342(3)
N4 N 0.0645(5) 1.1794(4) 0.4447(3)
O1 O 0.5480(3) 0.5838(3) 0.7922(2)
C13 C 0.3925(5) 0.6967(5) 0.8351(3)
C14 C 0.1971(6) 0.6719(5) 0.8326(3)
O2 O 0.2240(4) 0.5037(4) 0.9050(2)
C15 C 0.2367(6) 0.3863(6) 0.8612(4)
O3 O 0.2217(6) 0.4165(4) 0.7664(3)
C16 C 0.2770(8) 0.2173(6) 0.9473(4)
H1 H 0.3197 0.8591 0.6280
H2 H 0.6568 0.6667 0.3863
H3 H 0.8623 0.4102 0.5259
H4 H 0.4402 0.6713 0.9174
H5 H 0.3697 0.8262 0.7872
H6 H 0.1550 0.6858 0.7517
H7 H 0.0802 0.7649 0.8580
H8 H 0.2865 0.1253 0.9105
H9 H 0.1558 0.2271 0.9996
H10 H 0.4176 0.1774 0.9938
loop_
_geom_bond_atom_site_label_1
_geom_bond_atom_site_label_2
_geom_bond_site_symmetry_1
_geom_bond_site_symmetry_2
N1 C1 1_555 1_555
C1 C2 1_555 1_555
C2 C3 1_555 1_555
C3 N2 1_555 1_555
C4 C2 1_555 1_555
C5 C4 1_555 1_555
C6 C5 1_555 1_555
C7 C6 1_555 1_555
C8 C7 1_555 1_555
C9 C4 1_555 1_555
C10 C7 1_555 1_555
C11 C10 1_555 1_555
N3 C11 1_555 1_555
C12 C10 1_555 1_555
N4 C12 1_555 1_555
O1 C5 1_555 1_555
C13 O1 1_555 1_555
C14 C13 1_555 1_555
O2 C14 1_555 1_555
C15 O2 1_555 1_555
O3 C15 1_555 1_555
C16 C15 1_555 1_555
H1 C6 1_555 1_555
H2 C8 1_555 1_555
H3 C9 1_555 1_555
H4 C13 1_555 1_555
H5 C13 1_555 1_555
H6 C14 1_555 1_555
H7 C14 1_555 1_555
H8 C16 1_555 1_555
H9 C16 1_555 1_555
H10 C16 1_555 1_555
C8 C9 1_555 1_555

#END
