
#######################################################################
#
#                 Cambridge Crystallographic Data Centre
#                                CCDC 
#
#######################################################################
#
# If this CIF has been generated from an entry in the Cambridge 
# Structural Database, then it will include bibliographic, chemical, 
# crystal, experimental, refinement or atomic coordinate data resulting 
# from the CCDC's data processing and validation procedures.
#
#######################################################################

data_GIPQIG
_chemical_formula_moiety         'C11 H12 N4 O6 S1'
_chemical_name_systematic        
'methyl 1-(dimethylsulfamoyl)-6-nitro-1H-benzimidazole-5-carboxylate'
_symmetry_cell_setting           triclinic
_symmetry_space_group_name_H-M   'P -1'
_symmetry_Int_Tables_number      2
_space_group_name_Hall           '-P 1'
loop_
_symmetry_equiv_pos_site_id
_symmetry_equiv_pos_as_xyz
1 x,y,z
2 -x,-y,-z
_cell_length_a                   6.5663(2)
_cell_length_b                   10.0354(3)
_cell_length_c                   11.4088(4)
_cell_angle_alpha                74.2398(14)
_cell_angle_beta                 77.1872(14)
_cell_angle_gamma                81.373(2)
_cell_volume                     702.275
_exptl_crystal_colour            'light yellow'
_exptl_crystal_description       Cube
_chemical_melting_point          '147 deg.C'
_cell_formula_units_Z            2
loop_
_atom_site_label
_atom_site_type_symbol
_atom_site_fract_x
_atom_site_fract_y
_atom_site_fract_z
S1 S 0.53303(5) 0.39029(3) 0.20187(3)
O1 O 0.6175(3) 0.13027(18) 0.90331(13)
O2 O 0.89565(19) 0.24734(15) 0.80290(11)
O3 O 1.0042(3) 0.02746(16) 0.68730(14)
O4 O 1.13232(18) 0.12072(13) 0.49560(14)
O5 O 0.75373(18) 0.37601(15) 0.19108(11)
O6 O 0.4238(2) 0.51430(13) 0.14422(12)
N1 N 0.44188(18) 0.37475(12) 0.35660(11)
N2 N 0.22178(19) 0.41266(13) 0.52847(12)
N3 N 0.9915(2) 0.11055(13) 0.58750(13)
N4 N 0.4652(2) 0.26273(14) 0.16667(12)
C1 C 0.2488(2) 0.43297(15) 0.40944(14)
C2 C 0.4632(2) 0.29291(15) 0.67641(13)
C3 C 0.6601(2) 0.22368(14) 0.68495(13)
C4 C 0.7940(2) 0.19683(13) 0.57712(13)
C5 C 0.7423(2) 0.24021(14) 0.46046(13)
C6 C 0.5467(2) 0.31172(13) 0.45461(12)
C7 C 0.4065(2) 0.33734(14) 0.56031(13)
C8 C 0.7217(3) 0.19041(16) 0.80938(13)
C9 C 0.9614(5) 0.2322(4) 0.9181(2)
C10 C 0.5573(4) 0.12291(19) 0.2192(2)
C11 C 0.2537(4) 0.2706(3) 0.1427(3)
H1 H 0.837(3) 0.2141(19) 0.3990(18)
H2 H 0.364(3) 0.320(2) 0.7476(19)
H3 H 0.866(8) 0.276(5) 0.968(5)
H4 H 0.160(3) 0.488(2) 0.3568(19)
H5 H 0.204(5) 0.360(4) 0.104(3)
H6 H 0.711(4) 0.130(2) 0.218(2)
H7 H 0.547(4) 0.070(3) 0.165(3)
H8 H 0.997(5) 0.138(4) 0.953(3)
H9 H 1.084(12) 0.252(7) 0.905(6)
H10 H 0.254(8) 0.210(5) 0.091(5)
H11 H 0.160(5) 0.253(3) 0.216(3)
H12 H 0.491(4) 0.084(3) 0.299(2)
loop_
_geom_bond_atom_site_label_1
_geom_bond_atom_site_label_2
_geom_bond_site_symmetry_1
_geom_bond_site_symmetry_2
S1 O5 1_555 1_555
O1 C8 1_555 1_555
O2 C8 1_555 1_555
O3 N3 1_555 1_555
O4 N3 1_555 1_555
O6 S1 1_555 1_555
N1 S1 1_555 1_555
N2 C1 1_555 1_555
N3 C4 1_555 1_555
N4 S1 1_555 1_555
C1 N1 1_555 1_555
C2 C3 1_555 1_555
C3 C4 1_555 1_555
C4 C5 1_555 1_555
C5 C6 1_555 1_555
C6 N1 1_555 1_555
C7 N2 1_555 1_555
C8 C3 1_555 1_555
C9 O2 1_555 1_555
C10 N4 1_555 1_555
C11 N4 1_555 1_555
H1 C5 1_555 1_555
H2 C2 1_555 1_555
H3 C9 1_555 1_555
H4 C1 1_555 1_555
H5 C11 1_555 1_555
H6 C10 1_555 1_555
H7 C10 1_555 1_555
H8 C9 1_555 1_555
H9 C9 1_555 1_555
H10 C11 1_555 1_555
H11 C11 1_555 1_555
H12 C10 1_555 1_555
C2 C7 1_555 1_555
C6 C7 1_555 1_555

#END
