
#######################################################################
#
#                 Cambridge Crystallographic Data Centre
#                                CCDC 
#
#######################################################################
#
# If this CIF has been generated from an entry in the Cambridge 
# Structural Database, then it will include bibliographic, chemical, 
# crystal, experimental, refinement or atomic coordinate data resulting 
# from the CCDC's data processing and validation procedures.
#
#######################################################################

data_GIPQOM
_chemical_formula_moiety         'C33 H27 N3 O3'
_chemical_name_systematic        
'(+-)-phenyl 2-(1-acetyl-6H,12H-5,11-methanoindolo[6,5-c][1,5]benzodiazocin-8-yl)-3-methylbenzoate'
_symmetry_cell_setting           orthorhombic
_symmetry_space_group_name_H-M   'P 21 21 21'
_symmetry_Int_Tables_number      19
_space_group_name_Hall           'P 2ac 2ab'
loop_
_symmetry_equiv_pos_site_id
_symmetry_equiv_pos_as_xyz
1 x,y,z
2 1/2-x,-y,1/2+z
3 1/2+x,1/2-y,-z
4 -x,1/2+y,1/2-z
_cell_length_a                   8.1838(2)
_cell_length_b                   10.0312(2)
_cell_length_c                   31.1403(7)
_cell_angle_alpha                90
_cell_angle_beta                 90
_cell_angle_gamma                90
_cell_volume                     2556.41
_exptl_crystal_colour            colorless
_exptl_crystal_description       Cube
_chemical_melting_point          '242-243 deg.C'
_cell_formula_units_Z            4
_exptl_crystal_recrystallization_method 'pentane/chloroform/ethyl acetate'
loop_
_atom_site_label
_atom_site_type_symbol
_atom_site_fract_x
_atom_site_fract_y
_atom_site_fract_z
O1 O 0.6069(3) 0.9239(3) 0.27306(7)
O2 O 0.5155(3) 0.8150(3) 0.00195(7)
O3 O 0.4056(3) 0.7057(2) 0.05813(6)
N1 N 0.8522(3) 0.4071(3) 0.16966(7)
N2 N 1.0667(3) 0.5536(3) 0.14341(7)
N3 N 0.8072(3) 0.9964(3) 0.22904(8)
C1 C 0.8074(4) 0.4976(3) 0.20541(10)
C2 C 0.8074(4) 0.7429(3) 0.22220(10)
C3 C 0.8584(4) 0.8711(3) 0.21287(9)
C4 C 0.9771(4) 0.8959(3) 0.18118(9)
C5 C 1.0449(4) 0.7903(3) 0.15854(9)
C6 C 1.0280(4) 0.4240(3) 0.16250(11)
C7 C 0.8713(4) 0.6375(3) 0.19860(8)
C8 C 0.9927(3) 0.6615(3) 0.16719(9)
C9 C 0.9972(4) 1.0388(3) 0.17850(10)
C10 C 0.8937(4) 1.0952(4) 0.20655(10)
C11 C 0.6808(4) 1.0181(4) 0.25777(11)
C12 C 0.6414(5) 1.1605(4) 0.26861(15)
C13 C 1.0097(4) 0.5492(4) 0.09846(9)
C14 C 0.8370(3) 0.4953(3) 0.09559(8)
C15 C 0.7624(4) 0.4341(3) 0.13081(9)
C16 C 0.6006(4) 0.3940(3) 0.12776(10)
C17 C 0.5151(4) 0.4053(4) 0.08973(9)
C18 C 0.5906(4) 0.4587(3) 0.05327(9)
C19 C 0.7489(4) 0.5047(3) 0.05719(10)
C20 C 0.5036(4) 0.4646(3) 0.01069(8)
C21 C 0.4883(4) 0.3490(3) -0.01451(9)
C22 C 0.4161(4) 0.3593(4) -0.05487(10)
C23 C 0.3582(4) 0.4778(4) -0.07075(9)
C24 C 0.3755(4) 0.5914(4) -0.04676(10)
C25 C 0.4462(4) 0.5858(3) -0.00582(9)
C26 C 0.5491(5) 0.2155(4) 0.00106(13)
C27 C 0.4619(4) 0.7144(3) 0.01741(9)
C28 C 0.4157(4) 0.8198(3) 0.08436(9)
C29 C 0.3336(4) 0.9348(4) 0.07441(10)
C30 C 0.3417(5) 1.0412(4) 0.10223(11)
C31 C 0.4273(5) 1.0313(4) 0.14007(12)
C32 C 0.5075(5) 0.9139(4) 0.14982(12)
C33 C 0.5037(4) 0.8066(4) 0.12203(10)
H1 H 0.691(5) 0.501(3) 0.2076(10)
H2 H 0.847(4) 0.459(3) 0.2333(11)
H3 H 0.733(4) 0.723(3) 0.2427(11)
H4 H 1.126(4) 0.803(3) 0.1357(10)
H5 H 1.065(4) 0.357(4) 0.1402(11)
H6 H 1.093(4) 0.411(3) 0.1910(11)
H7 H 1.068(5) 1.096(4) 0.1567(11)
H8 H 0.870(4) 1.190(4) 0.2107(10)
H9 H 0.546(6) 1.150(4) 0.2934(13)
H10 H 0.584(5) 1.203(4) 0.2418(13)
H11 H 0.740(5) 1.207(4) 0.2834(14)
H12 H 1.082(4) 0.491(3) 0.0818(10)
H13 H 1.017(4) 0.640(4) 0.0857(9)
H14 H 0.543(4) 0.345(4) 0.1517(10)
H15 H 0.385(5) 0.379(3) 0.0881(10)
H16 H 0.799(4) 0.547(3) 0.0352(10)
H17 H 0.420(5) 0.279(4) -0.0721(11)
H18 H 0.302(5) 0.476(4) -0.0985(12)
H19 H 0.342(4) 0.676(4) -0.0567(11)
H20 H 0.5143 0.1471 -0.0185
H21 H 0.5054 0.1979 0.0291
H22 H 0.6663 0.2167 0.0024
H23 H 0.283(5) 0.940(4) 0.0501(12)
H24 H 0.292(5) 1.125(4) 0.0963(12)
H25 H 0.423(5) 1.111(4) 0.1592(12)
H26 H 0.556(5) 0.902(4) 0.1751(12)
H27 H 0.563(5) 0.723(4) 0.1267(11)
loop_
_geom_bond_atom_site_label_1
_geom_bond_atom_site_label_2
_geom_bond_site_symmetry_1
_geom_bond_site_symmetry_2
O1 C11 1_555 1_555
O2 C27 1_555 1_555
O3 C27 1_555 1_555
N1 C1 1_555 1_555
N2 C6 1_555 1_555
N3 C3 1_555 1_555
C1 C7 1_555 1_555
C2 C3 1_555 1_555
C3 C4 1_555 1_555
C4 C5 1_555 1_555
C5 C8 1_555 1_555
C6 N1 1_555 1_555
C7 C2 1_555 1_555
C8 N2 1_555 1_555
C9 C4 1_555 1_555
C10 N3 1_555 1_555
C11 N3 1_555 1_555
C12 C11 1_555 1_555
C13 N2 1_555 1_555
C14 C13 1_555 1_555
C15 N1 1_555 1_555
C16 C15 1_555 1_555
C17 C16 1_555 1_555
C18 C17 1_555 1_555
C19 C14 1_555 1_555
C20 C18 1_555 1_555
C21 C20 1_555 1_555
C22 C21 1_555 1_555
C23 C22 1_555 1_555
C24 C23 1_555 1_555
C25 C20 1_555 1_555
C26 C21 1_555 1_555
C27 C25 1_555 1_555
C28 O3 1_555 1_555
C29 C28 1_555 1_555
C30 C29 1_555 1_555
C31 C30 1_555 1_555
C32 C31 1_555 1_555
C33 C28 1_555 1_555
H1 C1 1_555 1_555
H2 C1 1_555 1_555
H3 C2 1_555 1_555
H4 C5 1_555 1_555
H5 C6 1_555 1_555
H6 C6 1_555 1_555
H7 C9 1_555 1_555
H8 C10 1_555 1_555
H9 C12 1_555 1_555
H10 C12 1_555 1_555
H11 C12 1_555 1_555
H12 C13 1_555 1_555
H13 C13 1_555 1_555
H14 C16 1_555 1_555
H15 C17 1_555 1_555
H16 C19 1_555 1_555
H17 C22 1_555 1_555
H18 C23 1_555 1_555
H19 C24 1_555 1_555
H20 C26 1_555 1_555
H21 C26 1_555 1_555
H22 C26 1_555 1_555
H23 C29 1_555 1_555
H24 C30 1_555 1_555
H25 C31 1_555 1_555
H26 C32 1_555 1_555
H27 C33 1_555 1_555
C7 C8 1_555 1_555
C9 C10 1_555 1_555
C14 C15 1_555 1_555
C18 C19 1_555 1_555
C24 C25 1_555 1_555
C32 C33 1_555 1_555

#END
