
#######################################################################
#
#                 Cambridge Crystallographic Data Centre
#                                CCDC 
#
#######################################################################
#
# If this CIF has been generated from an entry in the Cambridge 
# Structural Database, then it will include bibliographic, chemical, 
# crystal, experimental, refinement or atomic coordinate data resulting 
# from the CCDC's data processing and validation procedures.
#
#######################################################################

data_GIPSIK
_chemical_formula_moiety         'C23 H28 F1 N3 O2'
_chemical_name_systematic        
3-[2-butyl-7-(2-cyanopropan-2-yl)-6-fluoro-4-methyl-1,3-dioxo-1,2,3,4-tetrahydroisoquinolin-4-yl]-2,2-dimethylpropanenitrile
_symmetry_cell_setting           triclinic
_symmetry_space_group_name_H-M   'P -1'
_symmetry_Int_Tables_number      2
_space_group_name_Hall           '-P 1'
loop_
_symmetry_equiv_pos_site_id
_symmetry_equiv_pos_as_xyz
1 x,y,z
2 -x,-y,-z
_cell_length_a                   8.086(5)
_cell_length_b                   11.424(7)
_cell_length_c                   13.417(8)
_cell_angle_alpha                67.878(6)
_cell_angle_beta                 76.150(7)
_cell_angle_gamma                83.591(8)
_cell_volume                     1114.45
_exptl_crystal_colour            colorless
_cell_formula_units_Z            2
loop_
_atom_site_label
_atom_site_type_symbol
_atom_site_fract_x
_atom_site_fract_y
_atom_site_fract_z
O1 O 0.7408(2) 0.62472(14) 0.72232(14)
C1 C 0.9521(3) 0.66360(18) 0.85655(16)
H1 H 0.9591 0.6699 0.9255
H2 H 0.9256 0.5766 0.8732
C2 C 1.1413(3) 0.6664(2) 0.67813(18)
C3 C 0.7804(3) 0.8035(2) 0.52048(17)
H3 H 0.8375 0.7229 0.5250
H4 H 0.8416 0.8683 0.4556
N1 N 0.7859(2) 0.82981(15) 0.61913(13)
C4 C 0.5994(3) 0.7999(3) 0.5084(2)
H5 H 0.5451 0.8826 0.4977
H6 H 0.5354 0.7400 0.5757
C5 C 1.2523(3) 0.5849(2) 0.8449(2)
H7 H 1.2495 0.5934 0.9138
H8 H 1.3665 0.5960 0.8014
H9 H 1.2150 0.5023 0.8585
C6 C 0.8141(3) 1.10561(18) 0.69548(16)
H10 H 0.8181 1.1691 0.6267
O2 O 0.8044(3) 1.03869(15) 0.51853(13)
C7 C 0.8072(3) 0.9136(2) 0.89665(18)
H11 H 0.8077 0.8499 0.9648
C8 C 1.2005(3) 0.8171(2) 0.7545(2)
H12 H 1.1941 0.8315 0.8214
H13 H 1.1328 0.8803 0.7099
H14 H 1.3169 0.8218 0.7148
C9 C 0.8069(2) 0.97969(17) 0.70642(15)
C10 C 0.8727(4) 1.3664(2) 0.6539(2)
H15 H 0.8012 1.3596 0.6087
H16 H 0.9880 1.3439 0.6269
H17 H 0.8678 1.4518 0.6514
C11 C 0.8058(3) 0.88212(18) 0.80671(16)
C12 C 0.8110(3) 1.2775(2) 0.77234(18)
C13 C 0.8002(3) 0.95517(18) 0.60667(16)
C14 C 1.1331(3) 0.68592(19) 0.78230(17)
C15 C 0.7714(3) 0.72885(18) 0.71725(17)
C16 C 0.8152(3) 1.13774(19) 0.78512(17)
C17 C 0.6380(3) 0.6873(2) 0.91171(19)
H18 H 0.6306 0.6002 0.9215
H19 H 0.5368 0.7326 0.8909
H20 H 0.6489 0.6928 0.9795
C18 C 0.9272(5) 1.2948(2) 0.8350(2)
C19 C 0.6288(4) 1.3169(3) 0.8165(3)
H21 H 0.5531 1.3048 0.7761
H22 H 0.6259 1.4044 0.8080
H23 H 0.5935 1.2662 0.8931
N2 N 1.0196(6) 1.3141(3) 0.8779(3)
N3 N 1.1525(3) 0.6487(3) 0.5988(2)
C20 C 0.8078(4) 1.0380(2) 0.88624(19)
C21 C 0.7957(3) 0.74571(18) 0.82012(15)
C22 C 0.5945(4) 0.7623(3) 0.4118(3)
H24 H 0.6628 0.6855 0.4177
H25 H 0.4781 0.7435 0.4168
C23 C 0.6558(7) 0.8573(6) 0.3051(4)
H26 H 0.6483 0.8271 0.2486
H27 H 0.7722 0.8747 0.2982
H28 H 0.5875 0.9332 0.2976
F1 F 0.77812(19) 1.06089(10) 1.01178(7)
H29? H 0.4856 0.7900 0.3911
H30? H 0.6825 0.8074 0.3496
C24? C 0.6164(17) 0.6377(13) 0.4298(10)
H31? H 0.6116 0.6234 0.3645
H32? H 0.5278 0.5918 0.4895
H33? H 0.7252 0.6092 0.4483
loop_
_geom_bond_atom_site_label_1
_geom_bond_atom_site_label_2
_geom_bond_site_symmetry_1
_geom_bond_site_symmetry_2
O1 C15 1_555 1_555
C1 H1 1_555 1_555
H2 C1 1_555 1_555
C2 C14 1_555 1_555
C3 H3 1_555 1_555
H4 C3 1_555 1_555
N1 C3 1_555 1_555
C4 C3 1_555 1_555
H5 C4 1_555 1_555
H6 C4 1_555 1_555
C5 H7 1_555 1_555
H8 C5 1_555 1_555
H9 C5 1_555 1_555
C6 H10 1_555 1_555
O2 C13 1_555 1_555
C7 H11 1_555 1_555
C8 H12 1_555 1_555
H13 C8 1_555 1_555
H14 C8 1_555 1_555
C9 C6 1_555 1_555
C10 H15 1_555 1_555
H16 C10 1_555 1_555
H17 C10 1_555 1_555
C11 C7 1_555 1_555
C12 C10 1_555 1_555
C13 N1 1_555 1_555
C14 C1 1_555 1_555
C15 N1 1_555 1_555
C16 C6 1_555 1_555
C17 H18 1_555 1_555
H19 C17 1_555 1_555
H20 C17 1_555 1_555
C18 C12 1_555 1_555
C19 C12 1_555 1_555
H21 C19 1_555 1_555
H22 C19 1_555 1_555
H23 C19 1_555 1_555
N2 C18 1_555 1_555
N3 C2 1_555 1_555
C20 C7 1_555 1_555
C21 C1 1_555 1_555
C22 C4 1_555 1_555
H24 C22 1_555 1_555
H25 C22 1_555 1_555
C23 C22 1_555 1_555
H26 C23 1_555 1_555
H27 C23 1_555 1_555
H28 C23 1_555 1_555
F1 C20 1_555 1_555
C5 C14 1_555 1_555
C8 C14 1_555 1_555
C9 C11 1_555 1_555
C9 C13 1_555 1_555
C11 C21 1_555 1_555
C12 C16 1_555 1_555
C15 C21 1_555 1_555
C16 C20 1_555 1_555
C17 C21 1_555 1_555

#END
