
#######################################################################
#
#                 Cambridge Crystallographic Data Centre
#                                CCDC 
#
#######################################################################
#
# If this CIF has been generated from an entry in the Cambridge 
# Structural Database, then it will include bibliographic, chemical, 
# crystal, experimental, refinement or atomic coordinate data resulting 
# from the CCDC's data processing and validation procedures.
#
#######################################################################

data_GIPTUW
_chemical_formula_moiety         
'C116 H106 N8 O2,C16 H36 N1 1+,2(C4 H8 O2),Cl1 1-'
_chemical_name_systematic        
"tetra-n-butylammonium chloride 3,3'-((3,8-di-t-butyl-11,12-dihydroindolo[2,3-a]carbazole-1,10-diyl)bis(ethyne-2,1-diyl(3,8-di-tert-butyl-11,12-dihydroindolo[2,3-a]carbazole-10,1-diyl)ethyne-2,1-diyl))bis(N-(1-phenylethyl)benzamide) ethyl acetate solvate"
_symmetry_cell_setting           orthorhombic
_symmetry_space_group_name_H-M   'P 21 21 2'
_symmetry_Int_Tables_number      18
_space_group_name_Hall           'P 2 2ab'
loop_
_symmetry_equiv_pos_site_id
_symmetry_equiv_pos_as_xyz
1 x,y,z
2 -x,-y,z
3 1/2+x,1/2-y,-z
4 1/2-x,1/2+y,-z
_cell_length_a                   37.1603(8)
_cell_length_b                   11.1559(3)
_cell_length_c                   15.1723(3)
_cell_angle_alpha                90
_cell_angle_beta                 90
_cell_angle_gamma                90
_cell_volume                     6289.78
_exptl_crystal_colour            'dark yellow'
_exptl_crystal_description       block
_cell_formula_units_Z            2
loop_
_atom_site_label
_atom_site_type_symbol
_atom_site_fract_x
_atom_site_fract_y
_atom_site_fract_z
Cl1 Cl 0.0000 -0.5000 -0.14687(9)
C1 C -0.09457(9) -0.2577(3) -0.1379(2)
N1 N -0.03373(8) -0.4074(3) 0.03866(19)
H1 H -0.0302 -0.4195 -0.0180
C2 C -0.08898(9) -0.2560(4) -0.0600(2)
N2 N -0.04036(8) -0.3172(3) -0.27843(19)
H2 H -0.0302 -0.3309 -0.2270
N3 N 0.04085(8) -0.3816(3) -0.3299(2)
H3 H 0.0405 -0.3925 -0.2725
C3 C -0.08200(9) -0.2669(4) -0.3822(2)
C4 C -0.02382(10) -0.3270(4) -0.3598(2)
C5 C -0.13557(9) -0.2185(4) -0.2621(3)
H4 H -0.1544 -0.2038 -0.2211
C6 C -0.05935(10) -0.3321(4) 0.0745(2)
C7 C -0.10185(9) -0.2546(3) -0.2297(2)
C8 C 0.01141(9) -0.3523(4) -0.3824(3)
C9 C -0.07554(9) -0.2820(4) -0.2921(2)
C10 C -0.08459(9) -0.2584(4) 0.0342(2)
C11 C -0.05733(11) -0.3395(4) 0.1678(2)
C12 C 0.16775(10) -0.5457(4) -0.0967(3)
H5 H 0.1819 -0.5681 -0.1462
N4 N 0.23702(9) -0.6554(4) -0.0614(3)
H6 H 0.2325 -0.6218 -0.1127
C13 C -0.14270(10) -0.2033(4) -0.3517(3)
C14 C -0.04843(10) -0.2943(4) -0.4267(2)
C15 C -0.10569(11) -0.1953(4) 0.1811(3)
C16 C -0.01443(10) -0.4609(4) 0.1064(2)
C17 C -0.08081(11) -0.2719(4) 0.2198(3)
H7 H -0.0797 -0.2784 0.2822
C18 C 0.13564(10) -0.4825(4) -0.1099(3)
C19 C 0.11679(10) -0.4352(4) -0.2737(4)
C20 C 0.07091(10) -0.3907(4) -0.3843(3)
C21 C -0.02898(12) -0.4232(4) 0.1878(3)
C22 C 0.12428(10) -0.4548(4) -0.1978(4)
C23 C 0.29752(10) -0.6470(4) 0.0055(3)
C24 C -0.17893(11) -0.1546(5) -0.3836(3)
C25 C -0.10692(10) -0.1908(4) 0.0884(2)
H8 H -0.1239 -0.1387 0.0615
C26 C -0.13186(12) -0.1223(5) 0.2370(3)
C27 C 0.17922(11) -0.5760(4) -0.0132(3)
C28 C 0.10651(11) -0.4145(4) -0.3619(3)
C29 C 0.02238(10) -0.3434(4) -0.4702(3)
C30 C 0.35018(13) -0.5262(5) 0.1009(4)
H9 H 0.3683 -0.4851 0.1333
C31 C -0.00202(12) -0.3084(5) -0.5364(3)
H10 H 0.0059 -0.3002 -0.5956
C32 C -0.03735(12) -0.2860(5) -0.5150(3)
H11 H -0.0541 -0.2650 -0.5596
C33 C -0.11549(10) -0.2284(4) -0.4117(3)
H12 H -0.1198 -0.2193 -0.4730
C34 C 0.29760(13) -0.5234(4) 0.0109(3)
H13 H 0.2793 -0.4793 -0.0185
C35 C 0.08627(12) -0.3692(5) -0.5388(3)
H14 H 0.0792 -0.3546 -0.5980
C36 C -0.20715(12) -0.1517(6) -0.3114(3)
H15 H -0.2096 -0.2318 -0.2855
H16 H -0.2303 -0.1267 -0.3363
H17 H -0.1998 -0.0947 -0.2656
C37 C 0.12213(12) -0.3917(5) -0.5192(4)
O1 O 0.21734(10) -0.6977(4) 0.0756(3)
C38 C 0.11527(12) -0.4500(5) -0.0369(4)
H18 H 0.0933 -0.4081 -0.0450
C39 C 0.06057(11) -0.3678(4) -0.4715(3)
C40 C 0.13167(12) -0.4140(5) -0.4310(4)
H19 H 0.1562 -0.4293 -0.4176
C41 C 0.12662(13) -0.4779(5) 0.0471(4)
H20 H 0.1129 -0.4530 0.0967
C42 C 0.27051(12) -0.7184(5) -0.0485(4)
H21 H 0.2650 -0.7935 -0.0152
C43 C 0.15845(13) -0.5429(5) 0.0592(3)
H22 H 0.1659 -0.5645 0.1170
C44 C 0.21273(12) -0.6473(5) 0.0038(4)
C45 C 0.35032(13) -0.6474(5) 0.0967(4)
H23 H 0.3686 -0.6910 0.1264
C46 C -0.01460(14) -0.4621(5) 0.2685(3)
H24 H -0.0249 -0.4363 0.3226
C47 C 0.32418(12) -0.7087(5) 0.0497(4)
H25 H 0.3246 -0.7938 0.0480
C48 C 0.32360(13) -0.4625(5) 0.0579(3)
H26 H 0.3232 -0.3774 0.0606
C49 C -0.19313(13) -0.2331(7) -0.4592(4)
H27 H -0.1760 -0.2314 -0.5083
H28 H -0.2164 -0.2021 -0.4791
H29 H -0.1960 -0.3157 -0.4384
C50 C 0.15054(14) -0.3871(6) -0.5925(4)
C51 C 0.28601(16) -0.7547(7) -0.1373(4)
H30 H 0.2700 -0.8131 -0.1655
H31 H 0.3098 -0.7907 -0.1288
H32 H 0.2882 -0.6838 -0.1750
C52 C -0.17307(14) -0.0262(6) -0.4185(4)
H33 H -0.1631 0.0239 -0.3715
H34 H -0.1961 0.0072 -0.4380
H35 H -0.1563 -0.0282 -0.4683
C53 C -0.1224(3) -0.1271(16) 0.3342(7)
H36 H -0.1265 -0.2084 0.3565
H37 H -0.1377 -0.0706 0.3667
H38 H -0.0971 -0.1053 0.3421
C54 C -0.1683(2) -0.1744(14) 0.2243(11)
H39 H -0.1776 -0.1509 0.1665
H40 H -0.1844 -0.1448 0.2705
H41 H -0.1668 -0.2620 0.2277
C55 C -0.1289(4) 0.0122(12) 0.2049(8)
H42 H -0.1040 0.0400 0.2118
H43 H -0.1449 0.0627 0.2402
H44 H -0.1358 0.0173 0.1427
C56 C 0.1493(4) -0.2636(15) -0.6342(12)
H45 H 0.1255 -0.2501 -0.6601
H46 H 0.1677 -0.2583 -0.6804
H47 H 0.1540 -0.2027 -0.5892
C57 C 0.1888(4) -0.399(2) -0.5544(16)
H48 H 0.1934 -0.3323 -0.5139
H49 H 0.2063 -0.3972 -0.6025
H50 H 0.1909 -0.4750 -0.5225
C58 C 0.1417(5) -0.485(2) -0.6549(15)
H51 H 0.1456 -0.5622 -0.6264
H52 H 0.1571 -0.4781 -0.7071
H53 H 0.1164 -0.4778 -0.6726
C1A C 0.09457(9) -0.7423(3) -0.1379(2)
N1A N 0.03373(8) -0.5926(3) 0.03866(19)
H1A H 0.0302 -0.5805 -0.0180
C2A C 0.08898(9) -0.7440(4) -0.0600(2)
N2A N 0.04036(8) -0.6828(3) -0.27843(19)
H2A H 0.0302 -0.6691 -0.2270
N3A N -0.04085(8) -0.6184(3) -0.3299(2)
H3A H -0.0405 -0.6075 -0.2725
C3A C 0.08200(9) -0.7331(4) -0.3822(2)
C4A C 0.02382(10) -0.6730(4) -0.3598(2)
C5A C 0.13557(9) -0.7815(4) -0.2621(3)
H4A H 0.1544 -0.7962 -0.2211
C6A C 0.05935(10) -0.6679(4) 0.0745(2)
C7A C 0.10185(9) -0.7454(3) -0.2297(2)
C8A C -0.01141(9) -0.6477(4) -0.3824(3)
C9A C 0.07554(9) -0.7180(4) -0.2921(2)
C10A C 0.08459(9) -0.7416(4) 0.0342(2)
C11A C 0.05733(11) -0.6605(4) 0.1678(2)
C12A C -0.16775(10) -0.4543(4) -0.0967(3)
H5A H -0.1819 -0.4319 -0.1462
N4A N -0.23702(9) -0.3446(4) -0.0614(3)
H6A H -0.2325 -0.3782 -0.1127
C13A C 0.14270(10) -0.7967(4) -0.3517(3)
C14A C 0.04843(10) -0.7057(4) -0.4267(2)
C15A C 0.10569(11) -0.8047(4) 0.1811(3)
C16A C 0.01443(10) -0.5391(4) 0.1064(2)
C17A C 0.08081(11) -0.7281(4) 0.2198(3)
H7A H 0.0797 -0.7216 0.2822
C18A C -0.13564(10) -0.5175(4) -0.1099(3)
C19A C -0.11679(10) -0.5648(4) -0.2737(4)
C20A C -0.07091(10) -0.6093(4) -0.3843(3)
C21A C 0.02898(12) -0.5768(4) 0.1878(3)
C22A C -0.12428(10) -0.5452(4) -0.1978(4)
C23A C -0.29752(10) -0.3530(4) 0.0055(3)
C24A C 0.17893(11) -0.8454(5) -0.3836(3)
C25A C 0.10692(10) -0.8092(4) 0.0884(2)
H8A H 0.1239 -0.8613 0.0615
C26A C 0.13186(12) -0.8777(5) 0.2370(3)
C27A C -0.17922(11) -0.4240(4) -0.0132(3)
C28A C -0.10651(11) -0.5855(4) -0.3619(3)
C29A C -0.02238(10) -0.6566(4) -0.4702(3)
C30A C -0.35018(13) -0.4738(5) 0.1009(4)
H9A H -0.3683 -0.5149 0.1333
C31A C 0.00202(12) -0.6916(5) -0.5364(3)
H10A H -0.0059 -0.6998 -0.5956
C32A C 0.03735(12) -0.7140(5) -0.5150(3)
H11A H 0.0541 -0.7350 -0.5596
C33A C 0.11549(10) -0.7716(4) -0.4117(3)
H12A H 0.1198 -0.7807 -0.4730
C34A C -0.29760(13) -0.4766(4) 0.0109(3)
H13A H -0.2793 -0.5207 -0.0185
C35A C -0.08627(12) -0.6308(5) -0.5388(3)
H14A H -0.0792 -0.6454 -0.5980
C36A C 0.20715(12) -0.8483(6) -0.3114(3)
H15A H 0.2096 -0.7682 -0.2855
H16A H 0.2303 -0.8733 -0.3363
H17A H 0.1998 -0.9053 -0.2656
C37A C -0.12213(12) -0.6083(5) -0.5192(4)
O1A O -0.21734(10) -0.3023(4) 0.0756(3)
C38A C -0.11527(12) -0.5500(5) -0.0369(4)
H18A H -0.0933 -0.5919 -0.0450
C39A C -0.06057(11) -0.6322(4) -0.4715(3)
C40A C -0.13167(12) -0.5860(5) -0.4310(4)
H19A H -0.1562 -0.5707 -0.4176
C41A C -0.12662(13) -0.5221(5) 0.0471(4)
H20A H -0.1129 -0.5470 0.0967
C42A C -0.27051(12) -0.2816(5) -0.0485(4)
H21A H -0.2650 -0.2065 -0.0152
C43A C -0.15845(13) -0.4571(5) 0.0592(3)
H22A H -0.1659 -0.4355 0.1170
C44A C -0.21273(12) -0.3527(5) 0.0038(4)
C45A C -0.35032(13) -0.3526(5) 0.0967(4)
H23A H -0.3686 -0.3090 0.1264
C46A C 0.01460(14) -0.5379(5) 0.2685(3)
H24A H 0.0249 -0.5637 0.3226
C47A C -0.32418(12) -0.2913(5) 0.0497(4)
H25A H -0.3246 -0.2062 0.0480
C48A C -0.32360(13) -0.5375(5) 0.0579(3)
H26A H -0.3232 -0.6226 0.0606
C49A C 0.19313(13) -0.7669(7) -0.4592(4)
H27A H 0.1760 -0.7686 -0.5083
H28A H 0.2164 -0.7979 -0.4791
H29A H 0.1960 -0.6843 -0.4384
C50A C -0.15054(14) -0.6129(6) -0.5925(4)
C51A C -0.28601(16) -0.2453(7) -0.1373(4)
H30A H -0.2700 -0.1869 -0.1655
H31A H -0.3098 -0.2093 -0.1288
H32A H -0.2882 -0.3162 -0.1750
C52A C 0.17307(14) -0.9738(6) -0.4185(4)
H33A H 0.1631 -1.0239 -0.3715
H34A H 0.1961 -1.0072 -0.4380
H35A H 0.1563 -0.9718 -0.4683
C53A C 0.1224(3) -0.8729(16) 0.3342(7)
H36A H 0.1265 -0.7916 0.3565
H37A H 0.1377 -0.9294 0.3667
H38A H 0.0971 -0.8947 0.3421
C54A C 0.1683(2) -0.8256(14) 0.2243(11)
H39A H 0.1776 -0.8491 0.1665
H40A H 0.1844 -0.8552 0.2705
H41A H 0.1668 -0.7380 0.2277
C55A C 0.1289(4) -1.0122(12) 0.2049(8)
H42A H 0.1040 -1.0400 0.2118
H43A H 0.1449 -1.0627 0.2402
H44A H 0.1358 -1.0173 0.1427
C56A C -0.1493(4) -0.7364(15) -0.6342(12)
H45A H -0.1255 -0.7499 -0.6601
H46A H -0.1677 -0.7417 -0.6804
H47A H -0.1540 -0.7973 -0.5892
C57A C -0.1888(4) -0.601(2) -0.5544(16)
H48A H -0.1934 -0.6677 -0.5139
H49A H -0.2063 -0.6028 -0.6025
H50A H -0.1909 -0.5250 -0.5225
C58A C -0.1417(5) -0.515(2) -0.6549(15)
H51A H -0.1456 -0.4378 -0.6264
H52A H -0.1571 -0.5219 -0.7071
H53A H -0.1164 -0.5222 -0.6726
C65 C 0.24626(14) -0.4828(6) -0.3015(4)
O2 O 0.24171(13) -0.3692(5) -0.3132(3)
C66 C 0.26447(17) -0.5434(7) -0.3761(5)
H72 H 0.2507 -0.5299 -0.4303
H73 H 0.2659 -0.6296 -0.3642
H74 H 0.2888 -0.5108 -0.3830
C67 C 0.2271(2) -0.3008(8) -0.2409(5)
H75 H 0.2015 -0.3217 -0.2319
H76 H 0.2404 -0.3191 -0.1860
C68 C 0.2304(3) -0.1770(9) -0.2616(8)
H77 H 0.2499 -0.1659 -0.3044
H78 H 0.2359 -0.1319 -0.2079
H79 H 0.2078 -0.1479 -0.2869
O3 O 0.23746(11) -0.5316(5) -0.2359(3)
N5 N 0.0000 0.0000 -0.1312(7)
C69 C 0.03320(16) 0.0166(6) -0.1911(6)
H80 H 0.0273 0.0769 -0.2368
H81 H 0.0531 0.0495 -0.1551
C70 C 0.03535(16) -0.1070(7) -0.0124(8)
H82 H 0.0331 -0.0359 0.0262
H83 H 0.0581 -0.0994 -0.0459
C71 C 0.00424(15) -0.1095(5) -0.0758(6)
H84 H 0.0072 -0.1795 -0.1153
H85 H -0.0182 -0.1217 -0.0418
C72 C 0.0726(2) -0.0671(8) -0.3109(9)
H86 H 0.0885 -0.0009 -0.2920
H87 H 0.0878 -0.1380 -0.3230
C73 C 0.04657(19) -0.0967(7) -0.2370(7)
H88 H 0.0587 -0.1489 -0.1934
H89 H 0.0258 -0.1413 -0.2612
C74 C 0.03692(19) -0.2199(7) 0.0446(8)
H90 H 0.0140 -0.2271 0.0776
H91 H 0.0389 -0.2906 0.0055
C75 C 0.0672(2) -0.2220(9) 0.1083(9)
H92 H 0.0900 -0.2156 0.0764
H93 H 0.0667 -0.2974 0.1415
H94 H 0.0648 -0.1545 0.1492
C76 C 0.0537(4) -0.0316(10) -0.3932(10)
H95 H 0.0714 -0.0042 -0.4367
H96 H 0.0368 0.0334 -0.3804
H97 H 0.0405 -0.1007 -0.4168
C69A C -0.03320(16) -0.0166(6) -0.1911(6)
H80A H -0.0273 -0.0769 -0.2368
H81A H -0.0531 -0.0495 -0.1551
C70A C -0.03535(16) 0.1070(7) -0.0124(8)
H82A H -0.0331 0.0359 0.0262
H83A H -0.0581 0.0994 -0.0459
C71A C -0.00424(15) 0.1095(5) -0.0758(6)
H84A H -0.0072 0.1795 -0.1153
H85A H 0.0182 0.1217 -0.0418
C72A C -0.0726(2) 0.0671(8) -0.3109(9)
H86A H -0.0885 0.0009 -0.2920
H87A H -0.0878 0.1380 -0.3230
C73A C -0.04657(19) 0.0967(7) -0.2370(7)
H88A H -0.0587 0.1489 -0.1934
H89A H -0.0258 0.1413 -0.2612
C74A C -0.03692(19) 0.2199(7) 0.0446(8)
H90A H -0.0140 0.2271 0.0776
H91A H -0.0389 0.2906 0.0055
C75A C -0.0672(2) 0.2220(9) 0.1083(9)
H92A H -0.0900 0.2156 0.0764
H93A H -0.0667 0.2974 0.1415
H94A H -0.0648 0.1545 0.1492
C76A C -0.0537(4) 0.0316(10) -0.3932(10)
H95A H -0.0714 0.0042 -0.4367
H96A H -0.0368 -0.0334 -0.3804
H97A H -0.0405 0.1007 -0.4168
C59? C -0.1549(7) -0.0357(19) 0.1854(11)
H54? H -0.1399 0.0070 0.1425
H55? H -0.1659 0.0221 0.2259
H56? H -0.1738 -0.0800 0.1543
C60? C -0.1124(6) -0.057(2) 0.3074(13)
H57? H -0.0995 -0.1146 0.3447
H58? H -0.1296 -0.0119 0.3433
H59? H -0.0951 -0.0016 0.2807
C61? C -0.1580(5) -0.218(2) 0.2880(15)
H60? H -0.1710 -0.2668 0.2445
H61? H -0.1754 -0.1746 0.3246
H62? H -0.1434 -0.2706 0.3254
C62? C 0.1785(10) -0.482(4) -0.583(2)
H63? H 0.1886 -0.4792 -0.5236
H64? H 0.1976 -0.4683 -0.6265
H65? H 0.1676 -0.5607 -0.5934
C63? C 0.1344(6) -0.391(4) -0.6886(12)
H66? H 0.1188 -0.4616 -0.6945
H67? H 0.1540 -0.3964 -0.7315
H68? H 0.1203 -0.3184 -0.6995
C64? C 0.1712(11) -0.271(2) -0.584(3)
H69? H 0.1543 -0.2046 -0.5751
H70? H 0.1850 -0.2568 -0.6384
H71? H 0.1877 -0.2758 -0.5341
loop_
_geom_bond_atom_site_label_1
_geom_bond_atom_site_label_2
_geom_bond_site_symmetry_1
_geom_bond_site_symmetry_2
C1 C2 1_555 1_555
N1 H1 1_555 1_555
C2 C10 1_555 1_555
N2 H2 1_555 1_555
N3 H3 1_555 1_555
C3 C9 1_555 1_555
C4 N2 1_555 1_555
C5 H4 1_555 1_555
C6 N1 1_555 1_555
C7 C1 1_555 1_555
C8 N3 1_555 1_555
C9 N2 1_555 1_555
C10 C6 1_555 1_555
C11 C6 1_555 1_555
C12 H5 1_555 1_555
N4 H6 1_555 1_555
C13 C5 1_555 1_555
C14 C3 1_555 1_555
C15 C17 1_555 1_555
C16 N1 1_555 1_555
C17 C11 1_555 1_555
H7 C17 1_555 1_555
C18 C12 1_555 1_555
C19 C22 1_555 1_555
C20 N3 1_555 1_555
C21 C11 1_555 1_555
C22 C18 1_555 1_555
C23 C34 1_555 1_555
C24 C13 1_555 1_555
C25 C10 1_555 1_555
H8 C25 1_555 1_555
C26 C15 1_555 1_555
C27 C12 1_555 1_555
C28 C19 1_555 1_555
C29 C8 1_555 1_555
C30 H9 1_555 1_555
C31 C29 1_555 1_555
H10 C31 1_555 1_555
C32 C14 1_555 1_555
H11 C32 1_555 1_555
C33 C3 1_555 1_555
H12 C33 1_555 1_555
C34 H13 1_555 1_555
C35 H14 1_555 1_555
C36 C24 1_555 1_555
H15 C36 1_555 1_555
H16 C36 1_555 1_555
H17 C36 1_555 1_555
C37 C35 1_555 1_555
O1 C44 1_555 1_555
C38 C18 1_555 1_555
H18 C38 1_555 1_555
C39 C20 1_555 1_555
C40 C28 1_555 1_555
H19 C40 1_555 1_555
C41 C38 1_555 1_555
H20 C41 1_555 1_555
C42 N4 1_555 1_555
H21 C42 1_555 1_555
C43 C27 1_555 1_555
H22 C43 1_555 1_555
C44 N4 1_555 1_555
C45 C30 1_555 1_555
H23 C45 1_555 1_555
C46 C21 1_555 1_555
H24 C46 1_555 1_555
C47 C23 1_555 1_555
H25 C47 1_555 1_555
C48 C30 1_555 1_555
H26 C48 1_555 1_555
C49 C24 1_555 1_555
H27 C49 1_555 1_555
H28 C49 1_555 1_555
H29 C49 1_555 1_555
C50 C37 1_555 1_555
C51 C42 1_555 1_555
H30 C51 1_555 1_555
H31 C51 1_555 1_555
H32 C51 1_555 1_555
C52 C24 1_555 1_555
H33 C52 1_555 1_555
H34 C52 1_555 1_555
H35 C52 1_555 1_555
C53 C26 1_555 1_555
H36 C53 1_555 1_555
H37 C53 1_555 1_555
H38 C53 1_555 1_555
C54 C26 1_555 1_555
H39 C54 1_555 1_555
H40 C54 1_555 1_555
H41 C54 1_555 1_555
C55 C26 1_555 1_555
H42 C55 1_555 1_555
H43 C55 1_555 1_555
H44 C55 1_555 1_555
C56 C50 1_555 1_555
H45 C56 1_555 1_555
H46 C56 1_555 1_555
H47 C56 1_555 1_555
C57 C50 1_555 1_555
H48 C57 1_555 1_555
H49 C57 1_555 1_555
H50 C57 1_555 1_555
C58 C50 1_555 1_555
H51 C58 1_555 1_555
H52 C58 1_555 1_555
H53 C58 1_555 1_555
C65 O2 1_555 1_555
O2 C67 1_555 1_555
C66 C65 1_555 1_555
H72 C66 1_555 1_555
H73 C66 1_555 1_555
H74 C66 1_555 1_555
C67 H75 1_555 1_555
H76 C67 1_555 1_555
C68 C67 1_555 1_555
H77 C68 1_555 1_555
H78 C68 1_555 1_555
H79 C68 1_555 1_555
O3 C65 1_555 1_555
N5 C69 1_555 1_555
C69 H80 1_555 1_555
H81 C69 1_555 1_555
C70 H82 1_555 1_555
H83 C70 1_555 1_555
C71 N5 1_555 1_555
H84 C71 1_555 1_555
H85 C71 1_555 1_555
C72 H86 1_555 1_555
H87 C72 1_555 1_555
C73 C69 1_555 1_555
H88 C73 1_555 1_555
H89 C73 1_555 1_555
C74 C70 1_555 1_555
H90 C74 1_555 1_555
H91 C74 1_555 1_555
C75 C74 1_555 1_555
H92 C75 1_555 1_555
H93 C75 1_555 1_555
H94 C75 1_555 1_555
C76 C72 1_555 1_555
H95 C76 1_555 1_555
H96 C76 1_555 1_555
H97 C76 1_555 1_555
C1A C2A 1_555 1_555
N1A H1A 1_555 1_555
C2A C10A 1_555 1_555
N2A H2A 1_555 1_555
N3A H3A 1_555 1_555
C3A C9A 1_555 1_555
C4A N2A 1_555 1_555
C5A H4A 1_555 1_555
C6A N1A 1_555 1_555
C7A C1A 1_555 1_555
C8A N3A 1_555 1_555
C9A N2A 1_555 1_555
C10A C6A 1_555 1_555
C11A C6A 1_555 1_555
C12A H5A 1_555 1_555
N4A H6A 1_555 1_555
C13A C5A 1_555 1_555
C14A C3A 1_555 1_555
C15A C17A 1_555 1_555
C16A C16 1_555 1_555
C17A C11A 1_555 1_555
H7A C17A 1_555 1_555
C18A C12A 1_555 1_555
C19A C22A 1_555 1_555
C20A N3A 1_555 1_555
C21A C11A 1_555 1_555
C22A C18A 1_555 1_555
C23A C34A 1_555 1_555
C24A C13A 1_555 1_555
C25A C10A 1_555 1_555
H8A C25A 1_555 1_555
C26A C15A 1_555 1_555
C27A C12A 1_555 1_555
C28A C19A 1_555 1_555
C29A C8A 1_555 1_555
C30A H9A 1_555 1_555
C31A C29A 1_555 1_555
H10A C31A 1_555 1_555
C32A C14A 1_555 1_555
H11A C32A 1_555 1_555
C33A C3A 1_555 1_555
H12A C33A 1_555 1_555
C34A H13A 1_555 1_555
C35A H14A 1_555 1_555
C36A C24A 1_555 1_555
H15A C36A 1_555 1_555
H16A C36A 1_555 1_555
H17A C36A 1_555 1_555
C37A C35A 1_555 1_555
O1A C44A 1_555 1_555
C38A C18A 1_555 1_555
H18A C38A 1_555 1_555
C39A C20A 1_555 1_555
C40A C28A 1_555 1_555
H19A C40A 1_555 1_555
C41A C38A 1_555 1_555
H20A C41A 1_555 1_555
C42A N4A 1_555 1_555
H21A C42A 1_555 1_555
C43A C27A 1_555 1_555
H22A C43A 1_555 1_555
C44A N4A 1_555 1_555
C45A C30A 1_555 1_555
H23A C45A 1_555 1_555
C46A C46 1_555 1_555
H24A C46A 1_555 1_555
C47A C23A 1_555 1_555
H25A C47A 1_555 1_555
C48A C30A 1_555 1_555
H26A C48A 1_555 1_555
C49A C24A 1_555 1_555
H27A C49A 1_555 1_555
H28A C49A 1_555 1_555
H29A C49A 1_555 1_555
C50A C37A 1_555 1_555
C51A C42A 1_555 1_555
H30A C51A 1_555 1_555
H31A C51A 1_555 1_555
H32A C51A 1_555 1_555
C52A C24A 1_555 1_555
H33A C52A 1_555 1_555
H34A C52A 1_555 1_555
H35A C52A 1_555 1_555
C53A C26A 1_555 1_555
H36A C53A 1_555 1_555
H37A C53A 1_555 1_555
H38A C53A 1_555 1_555
C54A C26A 1_555 1_555
H39A C54A 1_555 1_555
H40A C54A 1_555 1_555
H41A C54A 1_555 1_555
C55A C26A 1_555 1_555
H42A C55A 1_555 1_555
H43A C55A 1_555 1_555
H44A C55A 1_555 1_555
C56A C50A 1_555 1_555
H45A C56A 1_555 1_555
H46A C56A 1_555 1_555
H47A C56A 1_555 1_555
C57A C50A 1_555 1_555
H48A C57A 1_555 1_555
H49A C57A 1_555 1_555
H50A C57A 1_555 1_555
C58A C50A 1_555 1_555
H51A C58A 1_555 1_555
H52A C58A 1_555 1_555
H53A C58A 1_555 1_555
C69A N5 1_555 1_555
H80A C69A 1_555 1_555
H81A C69A 1_555 1_555
C70A H82A 1_555 1_555
H83A C70A 1_555 1_555
C71A N5 1_555 1_555
H84A C71A 1_555 1_555
H85A C71A 1_555 1_555
C72A H86A 1_555 1_555
H87A C72A 1_555 1_555
C73A C69A 1_555 1_555
H88A C73A 1_555 1_555
H89A C73A 1_555 1_555
C74A C70A 1_555 1_555
H90A C74A 1_555 1_555
H91A C74A 1_555 1_555
C75A C74A 1_555 1_555
H92A C75A 1_555 1_555
H93A C75A 1_555 1_555
H94A C75A 1_555 1_555
C76A C72A 1_555 1_555
H95A C76A 1_555 1_555
H96A C76A 1_555 1_555
H97A C76A 1_555 1_555
C4 C8 1_555 1_555
C4 C14 1_555 1_555
C5 C7 1_555 1_555
C7 C9 1_555 1_555
C13 C33 1_555 1_555
C15 C25 1_555 1_555
C16 C21 1_555 1_555
C20 C28 1_555 1_555
C23 C42 1_555 1_555
C27 C44 1_555 1_555
C29 C39 1_555 1_555
C31 C32 1_555 1_555
C34 C48 1_555 1_555
C35 C39 1_555 1_555
C37 C40 1_555 1_555
C41 C43 1_555 1_555
C45 C47 1_555 1_555
C70 C71 1_555 1_555
C72 C73 1_555 1_555
N1A C16A 1_555 1_555
C4A C8A 1_555 1_555
C4A C14A 1_555 1_555
C5A C7A 1_555 1_555
C7A C9A 1_555 1_555
C13A C33A 1_555 1_555
C15A C25A 1_555 1_555
C16A C21A 1_555 1_555
C20A C28A 1_555 1_555
C21A C46A 1_555 1_555
C23A C42A 1_555 1_555
C27A C44A 1_555 1_555
C29A C39A 1_555 1_555
C31A C32A 1_555 1_555
C34A C48A 1_555 1_555
C35A C39A 1_555 1_555
C37A C40A 1_555 1_555
C41A C43A 1_555 1_555
C45A C47A 1_555 1_555
C70A C71A 1_555 1_555
C72A C73A 1_555 1_555

#END
