
#######################################################################
#
#                 Cambridge Crystallographic Data Centre
#                                CCDC 
#
#######################################################################
#
# If this CIF has been generated from an entry in the Cambridge 
# Structural Database, then it will include bibliographic, chemical, 
# crystal, experimental, refinement or atomic coordinate data resulting 
# from the CCDC's data processing and validation procedures.
#
#######################################################################

data_GIPVUX
_chemical_formula_moiety         'C64 H42 N8'
_chemical_name_systematic        
bis(3,3'-(N-(4-(2-(2-pyridyl)indolyl)phenyl)-2-(2-pyridyl)indolyl))
_symmetry_cell_setting           orthorhombic
_symmetry_space_group_name_H-M   'P b c n'
_symmetry_Int_Tables_number      60
_space_group_name_Hall           '-P 2n 2ab'
loop_
_symmetry_equiv_pos_site_id
_symmetry_equiv_pos_as_xyz
1 x,y,z
2 1/2-x,1/2-y,1/2+z
3 1/2+x,1/2-y,-z
4 -x,y,1/2-z
5 -x,-y,-z
6 1/2+x,1/2+y,1/2-z
7 1/2-x,1/2+y,z
8 x,-y,1/2+z
_cell_length_a                   14.4704(12)
_cell_length_b                   15.2828(13)
_cell_length_c                   21.9590(18)
_cell_angle_alpha                90
_cell_angle_beta                 90
_cell_angle_gamma                90
_cell_volume                     4856.19
_cell_formula_units_Z            4
loop_
_atom_site_label
_atom_site_type_symbol
_atom_site_fract_x
_atom_site_fract_y
_atom_site_fract_z
N1 N 0.8693(1) 0.3860(1) 0.1515(1)
N2 N 0.9476(1) 0.5616(1) 0.1762(1)
N3 N 0.7420(1) 0.5847(1) -0.0474(1)
N4 N 0.8654(2) 0.7154(2) 0.0133(1)
C1 C 0.8378(2) 0.3038(2) 0.1693(1)
C2 C 0.7665(2) 0.2536(2) 0.1455(1)
C3 C 0.7527(2) 0.1730(2) 0.1715(1)
C4 C 0.8069(2) 0.1425(2) 0.2192(1)
C5 C 0.8779(2) 0.1916(2) 0.2422(1)
C6 C 0.8953(2) 0.2738(1) 0.2164(1)
C7 C 0.9639(2) 0.3399(1) 0.2264(1)
C8 C 0.9469(2) 0.4059(1) 0.1859(1)
C9 C 0.9981(2) 0.4886(1) 0.1778(1)
C10 C 1.0933(2) 0.4884(2) 0.1729(1)
C11 C 1.1383(2) 0.5670(2) 0.1652(1)
C12 C 1.0873(2) 0.6423(2) 0.1639(2)
C13 C 0.9942(2) 0.6368(2) 0.1703(1)
C14 C 0.6697(2) 0.5594(2) -0.0848(1)
C15 C 0.6074(2) 0.4904(2) -0.0785(1)
C16 C 0.5402(2) 0.4817(2) -0.1226(1)
C17 C 0.5362(3) 0.5400(2) -0.1712(2)
C18 C 0.5990(2) 0.6060(2) -0.1789(1)
C19 C 0.6674(2) 0.6165(2) -0.1350(1)
C20 C 0.7431(2) 0.6758(2) -0.1278(1)
C21 C 0.7868(2) 0.6556(2) -0.0744(1)
C22 C 0.8658(2) 0.7008(2) -0.0471(1)
C23 C 0.9371(2) 0.7303(2) -0.0835(1)
C24 C 1.0112(2) 0.7737(2) -0.0570(2)
C25 C 1.0114(2) 0.7879(2) 0.0040(2)
C26 C 0.9378(3) 0.7590(2) 0.0363(2)
C27 C 0.8356(2) 0.4344(2) 0.1003(1)
C28 C 0.7469(2) 0.4672(2) 0.1006(1)
C29 C 0.7161(2) 0.5168(2) 0.0516(1)
C30 C 0.7741(2) 0.5332(2) 0.0031(1)
C31 C 0.8614(2) 0.4973(2) 0.0017(1)
C32 C 0.8923(2) 0.4484(2) 0.0506(1)
H1 H 0.7292 0.2741 0.1129
H2 H 0.7044 0.1369 0.1564
H3 H 0.7946 0.0865 0.2362
H4 H 0.9144 0.1704 0.2750
H5 H 1.1270 0.4351 0.1749
H6 H 1.2036 0.5689 0.1609
H7 H 1.1165 0.6974 0.1585
H8 H 0.9599 0.6898 0.1706
H9 H 0.6111 0.4510 -0.0451
H10 H 0.4963 0.4356 -0.1198
H11 H 0.4879 0.5338 -0.2002
H12 H 0.5960 0.6436 -0.2132
H13 H 0.7599 0.7211 -0.1552
H14 H 0.9354 0.7209 -0.1263
H15 H 1.0614 0.7933 -0.0814
H16 H 1.0615 0.8170 0.0233
H17 H 0.9374 0.7707 0.0788
H18 H 0.7071 0.4560 0.1341
H19 H 0.6550 0.5395 0.0515
H20 H 0.9001 0.5060 -0.0327
H21 H 0.9528 0.4243 0.0501
N1C N 1.1307(1) 0.3860(1) 0.3485(1)
N2C N 1.0524(1) 0.5616(1) 0.3238(1)
N3C N 1.2580(1) 0.5847(1) 0.5474(1)
N4C N 1.1346(2) 0.7154(2) 0.4867(1)
C1C C 1.1622(2) 0.3038(2) 0.3307(1)
C2C C 1.2335(2) 0.2536(2) 0.3545(1)
C3C C 1.2473(2) 0.1730(2) 0.3285(1)
C4C C 1.1931(2) 0.1425(2) 0.2808(1)
C5C C 1.1221(2) 0.1916(2) 0.2578(1)
C6C C 1.1047(2) 0.2738(1) 0.2836(1)
C7C C 1.0361(2) 0.3399(1) 0.2736(1)
C8C C 1.0531(2) 0.4059(1) 0.3141(1)
C9C C 1.0019(2) 0.4886(1) 0.3222(1)
C10C C 0.9067(2) 0.4884(2) 0.3271(1)
C11C C 0.8617(2) 0.5670(2) 0.3348(1)
C12C C 0.9127(2) 0.6423(2) 0.3361(2)
C13C C 1.0058(2) 0.6368(2) 0.3297(1)
C14C C 1.3303(2) 0.5594(2) 0.5848(1)
C15C C 1.3926(2) 0.4904(2) 0.5785(1)
C16C C 1.4598(2) 0.4817(2) 0.6226(1)
C17C C 1.4638(3) 0.5400(2) 0.6712(2)
C18C C 1.4010(2) 0.6060(2) 0.6789(1)
C19C C 1.3326(2) 0.6165(2) 0.6350(1)
C20C C 1.2569(2) 0.6758(2) 0.6278(1)
C21C C 1.2132(2) 0.6556(2) 0.5744(1)
C22C C 1.1342(2) 0.7008(2) 0.5471(1)
C23C C 1.0629(2) 0.7303(2) 0.5835(1)
C24C C 0.9888(2) 0.7737(2) 0.5570(2)
C25C C 0.9886(2) 0.7879(2) 0.4960(2)
C26C C 1.0622(3) 0.7590(2) 0.4637(2)
C27C C 1.1644(2) 0.4344(2) 0.3997(1)
C28C C 1.2531(2) 0.4672(2) 0.3994(1)
C29C C 1.2839(2) 0.5168(2) 0.4484(1)
C30C C 1.2259(2) 0.5332(2) 0.4969(1)
C31C C 1.1386(2) 0.4973(2) 0.4983(1)
C32C C 1.1077(2) 0.4484(2) 0.4494(1)
H1C H 1.2708 0.2741 0.3871
H2C H 1.2956 0.1369 0.3436
H3C H 1.2054 0.0865 0.2638
H4C H 1.0856 0.1704 0.2250
H5C H 0.8730 0.4351 0.3251
H6C H 0.7964 0.5689 0.3391
H7C H 0.8835 0.6974 0.3415
H8C H 1.0401 0.6898 0.3294
H9C H 1.3889 0.4510 0.5451
H10C H 1.5037 0.4356 0.6198
H11C H 1.5121 0.5338 0.7002
H12C H 1.4040 0.6436 0.7132
H13C H 1.2401 0.7211 0.6552
H14C H 1.0646 0.7209 0.6263
H15C H 0.9386 0.7933 0.5814
H16C H 0.9385 0.8170 0.4767
H17C H 1.0626 0.7707 0.4212
H18C H 1.2929 0.4560 0.3659
H19C H 1.3450 0.5395 0.4485
H20C H 1.0999 0.5060 0.5327
H21C H 1.0472 0.4243 0.4499
loop_
_geom_bond_atom_site_label_1
_geom_bond_atom_site_label_2
_geom_bond_site_symmetry_1
_geom_bond_site_symmetry_2
N1 C1 1_555 1_555
N2 C9 1_555 1_555
N3 C14 1_555 1_555
N4 C22 1_555 1_555
C1 C2 1_555 1_555
C2 C3 1_555 1_555
C3 C4 1_555 1_555
C4 C5 1_555 1_555
C5 C6 1_555 1_555
C6 C1 1_555 1_555
C7 C6 1_555 1_555
C8 N1 1_555 1_555
C9 C8 1_555 1_555
C10 C9 1_555 1_555
C11 C10 1_555 1_555
C12 C11 1_555 1_555
C13 N2 1_555 1_555
C14 C15 1_555 1_555
C15 C16 1_555 1_555
C16 C17 1_555 1_555
C17 C18 1_555 1_555
C18 C19 1_555 1_555
C19 C14 1_555 1_555
C20 C19 1_555 1_555
C21 N3 1_555 1_555
C22 C21 1_555 1_555
C23 C22 1_555 1_555
C24 C23 1_555 1_555
C25 C24 1_555 1_555
C26 N4 1_555 1_555
C27 N1 1_555 1_555
C28 C27 1_555 1_555
C29 C28 1_555 1_555
C30 N3 1_555 1_555
C31 C30 1_555 1_555
C32 C27 1_555 1_555
H1 C2 1_555 1_555
H2 C3 1_555 1_555
H3 C4 1_555 1_555
H4 C5 1_555 1_555
H5 C10 1_555 1_555
H6 C11 1_555 1_555
H7 C12 1_555 1_555
H8 C13 1_555 1_555
H9 C15 1_555 1_555
H10 C16 1_555 1_555
H11 C17 1_555 1_555
H12 C18 1_555 1_555
H13 C20 1_555 1_555
H14 C23 1_555 1_555
H15 C24 1_555 1_555
H16 C25 1_555 1_555
H17 C26 1_555 1_555
H18 C28 1_555 1_555
H19 C29 1_555 1_555
H20 C31 1_555 1_555
H21 C32 1_555 1_555
N1C C1C 1_555 1_555
N2C C9C 1_555 1_555
N3C C14C 1_555 1_555
N4C C22C 1_555 1_555
C1C C2C 1_555 1_555
C2C C3C 1_555 1_555
C3C C4C 1_555 1_555
C4C C5C 1_555 1_555
C5C C6C 1_555 1_555
C6C C1C 1_555 1_555
C7C C7 1_555 1_555
C8C N1C 1_555 1_555
C9C C8C 1_555 1_555
C10C C9C 1_555 1_555
C11C C10C 1_555 1_555
C12C C11C 1_555 1_555
C13C N2C 1_555 1_555
C14C C15C 1_555 1_555
C15C C16C 1_555 1_555
C16C C17C 1_555 1_555
C17C C18C 1_555 1_555
C18C C19C 1_555 1_555
C19C C14C 1_555 1_555
C20C C19C 1_555 1_555
C21C N3C 1_555 1_555
C22C C21C 1_555 1_555
C23C C22C 1_555 1_555
C24C C23C 1_555 1_555
C25C C24C 1_555 1_555
C26C N4C 1_555 1_555
C27C N1C 1_555 1_555
C28C C27C 1_555 1_555
C29C C28C 1_555 1_555
C30C N3C 1_555 1_555
C31C C30C 1_555 1_555
C32C C27C 1_555 1_555
H1C C2C 1_555 1_555
H2C C3C 1_555 1_555
H3C C4C 1_555 1_555
H4C C5C 1_555 1_555
H5C C10C 1_555 1_555
H6C C11C 1_555 1_555
H7C C12C 1_555 1_555
H8C C13C 1_555 1_555
H9C C15C 1_555 1_555
H10C C16C 1_555 1_555
H11C C17C 1_555 1_555
H12C C18C 1_555 1_555
H13C C20C 1_555 1_555
H14C C23C 1_555 1_555
H15C C24C 1_555 1_555
H16C C25C 1_555 1_555
H17C C26C 1_555 1_555
H18C C28C 1_555 1_555
H19C C29C 1_555 1_555
H20C C31C 1_555 1_555
H21C C32C 1_555 1_555
C7 C8 1_555 1_555
C12 C13 1_555 1_555
C20 C21 1_555 1_555
C25 C26 1_555 1_555
C29 C30 1_555 1_555
C31 C32 1_555 1_555
C6C C7C 1_555 1_555
C7C C8C 1_555 1_555
C12C C13C 1_555 1_555
C20C C21C 1_555 1_555
C25C C26C 1_555 1_555
C29C C30C 1_555 1_555
C31C C32C 1_555 1_555

#END
