
#######################################################################
#
#                 Cambridge Crystallographic Data Centre
#                                CCDC 
#
#######################################################################
#
# If this CIF has been generated from an entry in the Cambridge 
# Structural Database, then it will include bibliographic, chemical, 
# crystal, experimental, refinement or atomic coordinate data resulting 
# from the CCDC's data processing and validation procedures.
#
#######################################################################

data_GIPWUA
_chemical_formula_moiety         'C57 H54 B3 N9 O12'
_chemical_name_systematic        
'7,19,28-tris[4-(4,4,5,5-tetramethyl-1,3,2-dioxaborolan-2-yl)phenyl]-4,10,16,22,25,31-hexaoxa-6,8,18,20,27,29,32,34,36-nona-azaheptacyclo[11.11.7.1^3,23^.1^5,9^.1^11,15^.1^17,21^.1^26,30^]hexatriaconta-1,3(33),5(36),6,8,11(35),12,14,17(34),18,20,23,26(32),27,29-pentadecaene unknown solvate'
_symmetry_cell_setting           monoclinic
_symmetry_space_group_name_H-M   'P 21/c'
_symmetry_Int_Tables_number      14
_space_group_name_Hall           '-P 2ybc'
loop_
_symmetry_equiv_pos_site_id
_symmetry_equiv_pos_as_xyz
1 x,y,z
2 -x,1/2+y,1/2-z
3 -x,-y,-z
4 x,1/2-y,1/2+z
_cell_length_a                   15.047(3)
_cell_length_b                   17.630(4)
_cell_length_c                   26.271(5)
_cell_angle_alpha                90
_cell_angle_beta                 96.42(3)
_cell_angle_gamma                90
_cell_volume                     6925.43
_exptl_crystal_colour            colorless
_exptl_crystal_description       needle
_cell_formula_units_Z            4
loop_
_atom_site_label
_atom_site_type_symbol
_atom_site_fract_x
_atom_site_fract_y
_atom_site_fract_z
O1 O 0.97748(12) 0.27875(11) 0.17777(8)
O2 O 0.89723(12) 0.29785(11) 0.09976(8)
O3 O 0.47055(11) 0.61274(9) 0.21076(7)
O4 O 0.72324(11) 0.73112(10) 0.28630(8)
O5 O 0.58050(12) 0.96190(10) 0.22359(7)
O6 O 0.56455(12) 0.88525(11) 0.39751(7)
O7 O 0.33225(12) 0.72244(10) 0.34970(7)
O8 O 0.30765(12) 0.84644(10) 0.18610(7)
O9 O 0.23972(13) 0.93898(12) 0.68178(8)
O10 O 0.11692(13) 0.87897(12) 0.64091(8)
O11 O 0.19566(16) 1.29053(13) -0.00101(10)
O12 O 0.34035(16) 1.30819(13) -0.01600(9)
N1 N 0.60372(14) 0.55564(12) 0.21045(9)
N2 N 0.59296(14) 0.67655(12) 0.24995(9)
N3 N 0.44988(14) 0.80391(12) 0.36996(8)
N4 N 0.34281(15) 0.77674(14) 0.42761(9)
N5 N 0.45806(15) 0.86794(13) 0.44998(9)
N6 N 0.44553(14) 0.90008(12) 0.20752(9)
N7 N 0.47556(15) 1.01647(12) 0.16758(9)
N8 N 0.33240(15) 0.95951(12) 0.15068(9)
N9 N 0.73430(14) 0.61388(12) 0.25320(9)
C1 C 1.02201(19) 0.23436(17) 0.14099(13)
C2 C 1.0541(2) 0.15982(19) 0.16522(14)
H1 H 1.1009 0.1697 0.1935
H2 H 1.0784 0.1280 0.1395
H3 H 1.0039 0.1337 0.1783
C3 C 1.1007(2) 0.2827(2) 0.12840(15)
H4 H 1.1453 0.2857 0.1585
H5 H 1.0796 0.3338 0.1187
H6 H 1.1278 0.2596 0.0999
C4 C 0.9474(2) 0.22698(18) 0.09569(13)
C5 C 0.8817(2) 0.16262(18) 0.10162(16)
H7 H 0.8627 0.1641 0.1361
H8 H 0.9107 0.1139 0.0964
H9 H 0.8293 0.1685 0.0762
C6 C 0.9796(2) 0.2249(2) 0.04239(13)
H10 H 0.9281 0.2196 0.0164
H11 H 1.0201 0.1818 0.0402
H12 H 1.0113 0.2721 0.0365
C7 C 0.85539(18) 0.38307(15) 0.17231(11)
C8 C 0.78014(18) 0.40990(15) 0.14233(11)
H13 H 0.7662 0.3909 0.1085
C9 C 0.72461(18) 0.46425(15) 0.16087(11)
H14 H 0.6715 0.4797 0.1406
C10 C 0.74711(17) 0.49595(14) 0.20921(11)
C11 C 0.82337(18) 0.46982(15) 0.23979(11)
H15 H 0.8397 0.4906 0.2729
C12 C 0.87477(18) 0.41295(16) 0.22089(12)
H16 H 0.9250 0.3940 0.2422
C13 C 0.69206(18) 0.55824(14) 0.22595(10)
C14 C 0.55968(17) 0.61565(14) 0.22469(10)
C15 C 0.68147(18) 0.67145(15) 0.26216(11)
C16 C 0.67099(17) 0.79660(14) 0.29427(11)
C17 C 0.65082(17) 0.84606(15) 0.25340(11)
H17 H 0.6701 0.8373 0.2207
C18 C 0.60073(17) 0.90905(14) 0.26364(11)
C19 C 0.57198(17) 0.92379(15) 0.31041(11)
H18 H 0.5380 0.9678 0.3161
C20 C 0.59488(17) 0.87134(15) 0.34904(11)
C21 C 0.64479(16) 0.80760(15) 0.34182(11)
H19 H 0.6604 0.7726 0.3689
C22 C 0.37791(18) 0.77082(15) 0.38333(11)
C23 C 0.38478(18) 0.82954(16) 0.45929(11)
C24 C 0.48709(18) 0.85059(15) 0.40620(11)
C25 C 0.34240(19) 0.84655(17) 0.50614(11)
C26 C 0.2559(2) 0.8214(2) 0.50968(13)
H20 H 0.2258 0.7917 0.4829
C27 C 0.2136(2) 0.8395(2) 0.55206(13)
H21 H 0.1540 0.8227 0.5537
C28 C 0.25587(19) 0.88157(17) 0.59229(11)
C29 C 0.3422(2) 0.90667(19) 0.58800(12)
H22 H 0.3726 0.9360 0.6149
C30 C 0.3852(2) 0.88961(18) 0.54501(11)
H23 H 0.4440 0.9078 0.5426
C31 C 0.09647(19) 0.89371(17) 0.69329(12)
C32 C 0.1131(2) 0.81842(19) 0.72213(15)
H24 H 0.1763 0.8045 0.7231
H25 H 0.0760 0.7786 0.7045
H26 H 0.0976 0.8241 0.7572
C33 C -0.0013(2) 0.9157(2) 0.69185(14)
H27 H -0.0115 0.9640 0.6737
H28 H -0.0168 0.9210 0.7269
H29 H -0.0386 0.8762 0.6740
C34 C 0.16417(19) 0.95677(18) 0.71119(12)
C35 C 0.1321(2) 1.03473(18) 0.69386(15)
H30 H 0.1110 1.0335 0.6572
H31 H 0.1815 1.0710 0.7000
H32 H 0.0830 1.0503 0.7131
C36 C 0.1977(2) 0.9566(2) 0.76776(13)
H33 H 0.2178 0.9055 0.7782
H34 H 0.1493 0.9721 0.7875
H35 H 0.2478 0.9922 0.7742
C37 C 0.41947(16) 0.67091(14) 0.23057(11)
C38 C 0.38877(16) 0.72918(14) 0.19723(11)
H36 H 0.4001 0.7298 0.1624
C39 C 0.34064(16) 0.78622(14) 0.21801(11)
C40 C 0.32180(16) 0.78603(15) 0.26809(11)
H37 H 0.2884 0.8258 0.2812
C41 C 0.35338(16) 0.72560(15) 0.29859(11)
C42 C 0.40222(17) 0.66709(14) 0.28092(11)
H38 H 0.4230 0.6260 0.3024
C43 C 0.49591(18) 0.95928(14) 0.19900(10)
C44 C 0.39225(19) 1.01421(15) 0.14435(11)
C45 C 0.36481(18) 0.90466(14) 0.18152(11)
C46 C 0.3635(2) 1.07589(15) 0.10789(11)
C47 C 0.4271(2) 1.12276(16) 0.08819(11)
H39 H 0.4890 1.1153 0.0985
C48 C 0.3998(2) 1.17922(16) 0.05403(11)
H40 H 0.4437 1.2098 0.0406
C49 C 0.3091(2) 1.19316(16) 0.03833(12)
C50 C 0.2470(2) 1.14548(17) 0.05798(13)
H41 H 0.1850 1.1529 0.0477
C51 C 0.2735(2) 1.08786(17) 0.09204(12)
H42 H 0.2298 1.0562 0.1047
C52 C 0.2894(3) 1.3685(2) -0.04536(14)
C53 C 0.2786(4) 1.3420(2) -0.10102(16)
H43 H 0.3369 1.3427 -0.1143
H44 H 0.2374 1.3760 -0.1216
H45 H 0.2546 1.2903 -0.1029
C54 C 0.3425(3) 1.4417(2) -0.03896(16)
H46 H 0.3970 1.4369 -0.0560
H47 H 0.3587 1.4518 -0.0024
H48 H 0.3061 1.4836 -0.0544
C55 C 0.2000(3) 1.3696(2) -0.02020(16)
C56 C 0.1164(3) 1.3834(3) -0.0565(2)
H49 H 0.0642 1.3836 -0.0372
H50 H 0.1097 1.3430 -0.0823
H51 H 0.1210 1.4325 -0.0735
C57 C 0.2031(4) 1.4210(2) 0.02687(18)
H52 H 0.1454 1.4191 0.0408
H53 H 0.2155 1.4733 0.0170
H54 H 0.2505 1.4037 0.0529
B1 B 0.9118(2) 0.3191(2) 0.14968(14)
B2 B 0.2046(2) 0.9004(2) 0.63940(14)
B3 B 0.2807(3) 1.2643(2) 0.00548(14)
loop_
_geom_bond_atom_site_label_1
_geom_bond_atom_site_label_2
_geom_bond_site_symmetry_1
_geom_bond_site_symmetry_2
O1 C1 1_555 1_555
O2 C4 1_555 1_555
O3 C14 1_555 1_555
O4 C15 1_555 1_555
O5 C18 1_555 1_555
O6 C20 1_555 1_555
O7 C22 1_555 1_555
O8 C39 1_555 1_555
O9 C34 1_555 1_555
O10 C31 1_555 1_555
O11 C55 1_555 1_555
O12 C52 1_555 1_555
N1 C13 1_555 1_555
N2 C14 1_555 1_555
N3 C22 1_555 1_555
N4 C22 1_555 1_555
N5 C23 1_555 1_555
N6 C43 1_555 1_555
N7 C43 1_555 1_555
N8 C44 1_555 1_555
N9 C13 1_555 1_555
C1 C2 1_555 1_555
C2 H1 1_555 1_555
H2 C2 1_555 1_555
H3 C2 1_555 1_555
C3 C1 1_555 1_555
H4 C3 1_555 1_555
H5 C3 1_555 1_555
H6 C3 1_555 1_555
C4 C1 1_555 1_555
C5 C4 1_555 1_555
H7 C5 1_555 1_555
H8 C5 1_555 1_555
H9 C5 1_555 1_555
C6 C4 1_555 1_555
H10 C6 1_555 1_555
H11 C6 1_555 1_555
H12 C6 1_555 1_555
C7 C8 1_555 1_555
C8 H13 1_555 1_555
C9 C8 1_555 1_555
H14 C9 1_555 1_555
C10 C9 1_555 1_555
C11 C10 1_555 1_555
H15 C11 1_555 1_555
C12 C7 1_555 1_555
H16 C12 1_555 1_555
C13 C10 1_555 1_555
C14 N1 1_555 1_555
C15 N2 1_555 1_555
C16 O4 1_555 1_555
C17 C16 1_555 1_555
H17 C17 1_555 1_555
C18 C17 1_555 1_555
C19 C18 1_555 1_555
H18 C19 1_555 1_555
C20 C19 1_555 1_555
C21 C16 1_555 1_555
H19 C21 1_555 1_555
C23 N4 1_555 1_555
C24 O6 1_555 1_555
C25 C23 1_555 1_555
C26 C25 1_555 1_555
H20 C26 1_555 1_555
C27 C26 1_555 1_555
H21 C27 1_555 1_555
C28 C27 1_555 1_555
C29 C28 1_555 1_555
H22 C29 1_555 1_555
C30 C25 1_555 1_555
H23 C30 1_555 1_555
C31 C32 1_555 1_555
C32 H24 1_555 1_555
H25 C32 1_555 1_555
H26 C32 1_555 1_555
C33 C31 1_555 1_555
H27 C33 1_555 1_555
H28 C33 1_555 1_555
H29 C33 1_555 1_555
C34 C31 1_555 1_555
C35 C34 1_555 1_555
H30 C35 1_555 1_555
H31 C35 1_555 1_555
H32 C35 1_555 1_555
C36 C34 1_555 1_555
H33 C36 1_555 1_555
H34 C36 1_555 1_555
H35 C36 1_555 1_555
C37 O3 1_555 1_555
C38 C37 1_555 1_555
H36 C38 1_555 1_555
C39 C38 1_555 1_555
C40 C39 1_555 1_555
H37 C40 1_555 1_555
C41 O7 1_555 1_555
C42 C37 1_555 1_555
H38 C42 1_555 1_555
C43 O5 1_555 1_555
C44 N7 1_555 1_555
C45 O8 1_555 1_555
C46 C44 1_555 1_555
C47 C46 1_555 1_555
H39 C47 1_555 1_555
C48 C47 1_555 1_555
H40 C48 1_555 1_555
C49 C48 1_555 1_555
C50 C49 1_555 1_555
H41 C50 1_555 1_555
C51 C46 1_555 1_555
H42 C51 1_555 1_555
C52 C53 1_555 1_555
C53 H43 1_555 1_555
H44 C53 1_555 1_555
H45 C53 1_555 1_555
C54 C52 1_555 1_555
H46 C54 1_555 1_555
H47 C54 1_555 1_555
H48 C54 1_555 1_555
C55 C52 1_555 1_555
C56 C55 1_555 1_555
H49 C56 1_555 1_555
H50 C56 1_555 1_555
H51 C56 1_555 1_555
C57 C55 1_555 1_555
H52 C57 1_555 1_555
H53 C57 1_555 1_555
H54 C57 1_555 1_555
B1 O1 1_555 1_555
B2 O9 1_555 1_555
B3 O11 1_555 1_555
O2 B1 1_555 1_555
O10 B2 1_555 1_555
O12 B3 1_555 1_555
N3 C24 1_555 1_555
N5 C24 1_555 1_555
N6 C45 1_555 1_555
N8 C45 1_555 1_555
N9 C15 1_555 1_555
C7 B1 1_555 1_555
C11 C12 1_555 1_555
C20 C21 1_555 1_555
C28 B2 1_555 1_555
C29 C30 1_555 1_555
C40 C41 1_555 1_555
C41 C42 1_555 1_555
C49 B3 1_555 1_555
C50 C51 1_555 1_555

#END
