
#######################################################################
#
#                 Cambridge Crystallographic Data Centre
#                                CCDC 
#
#######################################################################
#
# If this CIF has been generated from an entry in the Cambridge 
# Structural Database, then it will include bibliographic, chemical, 
# crystal, experimental, refinement or atomic coordinate data resulting 
# from the CCDC's data processing and validation procedures.
#
#######################################################################

data_GIPXIP
_chemical_formula_moiety         'C42 H21 N9 O12'
_chemical_name_systematic        
"4,4',4''-[4,10,16,22,25,31-hexaoxa-6,8,18,20,27,29,32,34,36-nona-azaheptacyclo[11.11.7.1^3,23^.1^5,9^.1^11,15^.1^17,21^.1^26,30^]hexatriaconta-1,3(33),5(36),6,8,11(35),12,14,17(34),18,20,23,26(32),27,29-pentadecaene-7,19,28-triyl]tribenzoic acid unknown solvate"
_symmetry_cell_setting           monoclinic
_symmetry_space_group_name_H-M   'C 2/c'
_symmetry_Int_Tables_number      15
_space_group_name_Hall           '-C 2yn'
loop_
_symmetry_equiv_pos_site_id
_symmetry_equiv_pos_as_xyz
1 x,y,z
2 -x,y,1/2-z
3 1/2+x,1/2+y,z
4 1/2-x,1/2+y,1/2-z
5 -x,-y,-z
6 x,-y,1/2+z
7 1/2-x,1/2-y,-z
8 1/2+x,1/2-y,1/2+z
_cell_length_a                   15.431(3)
_cell_length_b                   21.027(4)
_cell_length_c                   19.043(4)
_cell_angle_alpha                90
_cell_angle_beta                 94.54(3)
_cell_angle_gamma                90
_cell_volume                     6159.45
_exptl_crystal_colour            colorless
_exptl_crystal_description       plate
_cell_formula_units_Z            4
loop_
_atom_site_label
_atom_site_type_symbol
_atom_site_fract_x
_atom_site_fract_y
_atom_site_fract_z
O1 O 0.78944(11) -0.19625(9) 0.25920(9)
O2 O 0.87502(10) 0.00900(8) 0.17565(8)
O3 O 0.98022(11) -0.18394(9) 0.07312(9)
O4 O 0.92997(18) 0.43346(11) 0.22957(17)
O5 O 1.39976(13) -0.49127(9) -0.04784(10)
H1 H 1.4176 -0.5265 -0.0618
O6 O 1.29271(14) -0.48612(9) -0.13594(10)
N1 N 1.0000 0.00347(13) 0.2500
N2 N 0.93253(13) 0.10203(10) 0.21492(10)
N3 N 1.09144(12) -0.18752(10) 0.16017(11)
N4 N 1.21230(13) -0.25502(10) 0.14236(11)
N5 N 1.09251(13) -0.24863(10) 0.05569(11)
C1 C 0.83815(14) -0.15784(12) 0.21421(13)
C2 C 0.83412(14) -0.09302(12) 0.21891(12)
H2 H 0.8011 -0.0728 0.2526
C3 C 0.87968(13) -0.05843(11) 0.17303(11)
C4 C 0.92798(14) -0.08726(13) 0.12258(12)
H3 H 0.9572 -0.0626 0.0899
C5 C 0.93153(14) -0.15227(12) 0.12207(12)
C6 C 0.88570(14) -0.18878(12) 0.16684(12)
H4 H 0.8871 -0.2339 0.1648
C7 C 0.93895(14) 0.03943(12) 0.21592(12)
C8 C 1.0000 0.13065(16) 0.2500
C9 C 1.0000 0.20211(16) 0.2500
C10 C 0.92326(16) 0.23557(12) 0.23046(13)
H5 H 0.8711 0.2131 0.2172
C11 C 0.92354(16) 0.30207(14) 0.23050(15)
H6 H 0.8717 0.3250 0.2173
C12 C 1.0000 0.33431(17) 0.2500
C13 C 1.0000 0.4063(2) 0.2500
C14 C 1.05756(15) -0.20684(12) 0.09763(13)
C15 C 1.16843(15) -0.21267(12) 0.17881(14)
C16 C 1.17113(16) -0.27170(12) 0.08081(14)
C17 C 1.21311(16) -0.31833(12) 0.03738(14)
C18 C 1.29169(17) -0.34677(13) 0.06359(14)
H7 H 1.3193 -0.3333 0.1075
C19 C 1.32967(18) -0.39523(12) 0.02493(14)
H8 H 1.3819 -0.4153 0.0431
C20 C 1.29024(16) -0.41312(11) -0.03940(14)
C21 C 1.21329(17) -0.38438(12) -0.06619(14)
H9 H 1.1867 -0.3973 -0.1106
C22 C 1.17584(17) -0.33749(12) -0.02867(13)
H10 H 1.1239 -0.3177 -0.0478
C23 C 1.32857(19) -0.46668(12) -0.07900(14)
O1A O 1.21056(11) -0.19625(9) 0.24080(9)
O2A O 1.12498(10) 0.00900(8) 0.32435(8)
O3A O 1.01978(11) -0.18394(9) 0.42688(9)
O4A O 1.07003(18) 0.43346(11) 0.27043(17)
O5A O 0.60024(13) -0.49127(9) 0.54784(10)
H1A H 0.5824 -0.5265 0.5618
O6A O 0.70729(14) -0.48612(9) 0.63594(10)
N2A N 1.06747(13) 0.10203(10) 0.28508(10)
N3A N 0.90856(12) -0.18752(10) 0.33983(11)
N4A N 0.78770(13) -0.25502(10) 0.35764(11)
N5A N 0.90749(13) -0.24863(10) 0.44431(11)
C1A C 1.16185(14) -0.15784(12) 0.28579(13)
C2A C 1.16588(14) -0.09302(12) 0.28109(12)
H2A H 1.1989 -0.0728 0.2474
C3A C 1.12032(13) -0.05843(11) 0.32697(11)
C4A C 1.07202(14) -0.08726(13) 0.37742(12)
H3A H 1.0428 -0.0626 0.4101
C5A C 1.06847(14) -0.15227(12) 0.37793(12)
C6A C 1.11430(14) -0.18878(12) 0.33316(12)
H4A H 1.1129 -0.2339 0.3352
C7A C 1.06105(14) 0.03943(12) 0.28408(12)
C10A C 1.07674(16) 0.23557(12) 0.26954(13)
H5A H 1.1289 0.2131 0.2828
C11A C 1.07646(16) 0.30207(14) 0.26950(15)
H6A H 1.1283 0.3250 0.2827
C14A C 0.94244(15) -0.20684(12) 0.40237(13)
C15A C 0.83157(15) -0.21267(12) 0.32119(14)
C16A C 0.82887(16) -0.27170(12) 0.41919(14)
C17A C 0.78689(16) -0.31833(12) 0.46262(14)
C18A C 0.70831(17) -0.34677(13) 0.43641(14)
H7A H 0.6807 -0.3333 0.3925
C19A C 0.67033(18) -0.39523(12) 0.47507(14)
H8A H 0.6181 -0.4153 0.4569
C20A C 0.70976(16) -0.41312(11) 0.53940(14)
C21A C 0.78671(17) -0.38438(12) 0.56619(14)
H9A H 0.8133 -0.3973 0.6106
C22A C 0.82416(17) -0.33749(12) 0.52867(13)
H10A H 0.8761 -0.3177 0.5478
C23A C 0.67143(19) -0.46668(12) 0.57900(14)
H11? H 0.9276 0.4732 0.2249
loop_
_geom_bond_atom_site_label_1
_geom_bond_atom_site_label_2
_geom_bond_site_symmetry_1
_geom_bond_site_symmetry_2
O1 C1 1_555 1_555
O2 C3 1_555 1_555
O3 C5 1_555 1_555
O4 C13 1_555 1_555
O5 H1 1_555 1_555
O6 C23 1_555 1_555
N1 C7 1_555 1_555
N2 C7 1_555 1_555
N3 C14 1_555 1_555
N4 C15 1_555 1_555
N5 C14 1_555 1_555
C1 C2 1_555 1_555
C2 H2 1_555 1_555
C3 C2 1_555 1_555
C4 C3 1_555 1_555
H3 C4 1_555 1_555
C5 C4 1_555 1_555
C6 C1 1_555 1_555
H4 C6 1_555 1_555
C7 O2 1_555 1_555
C8 N2 1_555 1_555
C9 C8 1_555 1_555
C10 C9 1_555 1_555
H5 C10 1_555 1_555
C11 C10 1_555 1_555
H6 C11 1_555 1_555
C12 C11 1_555 1_555
C13 C12 1_555 1_555
C14 O3 1_555 1_555
C15 N3 1_555 1_555
C16 N4 1_555 1_555
C17 C16 1_555 1_555
C18 C17 1_555 1_555
H7 C18 1_555 1_555
C19 C18 1_555 1_555
H8 C19 1_555 1_555
C20 C19 1_555 1_555
C21 C20 1_555 1_555
H9 C21 1_555 1_555
C22 C17 1_555 1_555
H10 C22 1_555 1_555
C23 O5 1_555 1_555
O1A C15 1_555 1_555
O2A C3A 1_555 1_555
O3A C5A 1_555 1_555
O4A C13 1_555 1_555
O5A H1A 1_555 1_555
O6A C23A 1_555 1_555
N2A C8 1_555 1_555
N3A C14A 1_555 1_555
N4A C15A 1_555 1_555
N5A C14A 1_555 1_555
C1A O1A 1_555 1_555
C2A C1A 1_555 1_555
H2A C2A 1_555 1_555
C3A C2A 1_555 1_555
C4A C3A 1_555 1_555
H3A C4A 1_555 1_555
C5A C4A 1_555 1_555
C6A C1A 1_555 1_555
H4A C6A 1_555 1_555
C7A N1 1_555 1_555
C10A C9 1_555 1_555
H5A C10A 1_555 1_555
C11A C12 1_555 1_555
H6A C11A 1_555 1_555
C14A O3A 1_555 1_555
C15A O1 1_555 1_555
C16A N4A 1_555 1_555
C17A C16A 1_555 1_555
C18A C17A 1_555 1_555
H7A C18A 1_555 1_555
C19A C18A 1_555 1_555
H8A C19A 1_555 1_555
C20A C19A 1_555 1_555
C21A C20A 1_555 1_555
H9A C21A 1_555 1_555
C22A C17A 1_555 1_555
H10A C22A 1_555 1_555
C23A O5A 1_555 1_555
N5 C16 1_555 1_555
C5 C6 1_555 1_555
C20 C23 1_555 1_555
C21 C22 1_555 1_555
O2A C7A 1_555 1_555
N2A C7A 1_555 1_555
N3A C15A 1_555 1_555
N5A C16A 1_555 1_555
C5A C6A 1_555 1_555
C10A C11A 1_555 1_555
C20A C23A 1_555 1_555
C21A C22A 1_555 1_555

#END
