
#######################################################################
#
#                 Cambridge Crystallographic Data Centre
#                                CCDC 
#
#######################################################################
#
# If this CIF has been generated from an entry in the Cambridge 
# Structural Database, then it will include bibliographic, chemical, 
# crystal, experimental, refinement or atomic coordinate data resulting 
# from the CCDC's data processing and validation procedures.
#
#######################################################################

data_GIPXUZ
_chemical_formula_moiety         'C33 H47 Br1 O8'
_chemical_name_systematic        
(3R,1'S)-1'-bromo-4-(furan-2-ylmethoxy)-4',5-bis[((2S,5R)-5-methyl-2-isopropylcyclohexyl)oxy]dihydro-2'H-spiro[furan-3,6'-[3]oxabicyclo[3.1.0]hexane]-2,2'-dione
_symmetry_cell_setting           orthorhombic
_symmetry_space_group_name_H-M   'P 21 21 21'
_symmetry_Int_Tables_number      19
_space_group_name_Hall           'P 2ac 2ab'
loop_
_symmetry_equiv_pos_site_id
_symmetry_equiv_pos_as_xyz
1 x,y,z
2 1/2-x,-y,1/2+z
3 1/2+x,1/2-y,-z
4 -x,1/2+y,1/2-z
_cell_length_a                   10.166(2)
_cell_length_b                   14.980(3)
_cell_length_c                   23.202(5)
_cell_angle_alpha                90
_cell_angle_beta                 90
_cell_angle_gamma                90
_cell_volume                     3533.36
_cell_formula_units_Z            4
loop_
_atom_site_label
_atom_site_type_symbol
_atom_site_fract_x
_atom_site_fract_y
_atom_site_fract_z
Br1 Br 0.6063(1) 0.9023(1) 0.1679(1)
O1 O 0.8719(2) 0.8044(2) 0.1257(1)
O2 O 0.7759(2) 0.6696(2) 0.1276(1)
O3 O 0.6525(2) 0.6014(2) 0.2004(1)
O4 O 0.3361(2) 0.8296(2) 0.1006(1)
O5 O 0.4179(2) 0.8179(2) 0.0108(1)
O6 O 0.6297(2) 0.8588(1) -0.0179(1)
O7 O 0.5290(2) 0.6358(1) 0.0198(1)
O8 O 0.5614(3) 0.4490(2) 0.0303(1)
C1 C 0.6990(4) 0.4427(3) 0.1847(2)
C2 C 0.7873(4) 0.3634(3) 0.1984(2)
C3 C 0.8002(5) 0.3548(3) 0.2664(2)
C4 C 0.8419(4) 0.4408(3) 0.2922(2)
C5 C 0.7466(4) 0.5196(3) 0.2781(2)
C6 C 0.7412(3) 0.5292(3) 0.2121(2)
C7 C 0.7422(6) 0.2792(3) 0.1690(3)
C8 C 0.7872(6) 0.6051(4) 0.3100(2)
C9 C 0.9073(5) 0.6526(7) 0.2907(3)
C10 C 0.6782(7) 0.6667(5) 0.3243(5)
C11 C 0.6488(3) 0.6313(2) 0.1439(11)
C12 C 0.5525(3) 0.7083(2) 0.1403(2)
C13 C 0.6346(3) 0.7907(2) 0.1312(2)
C14 C 0.7751(4) 0.7602(3) 0.1285(2)
C15 C 0.4220(3) 0.8050(2) 0.0686(2)
C16 C 0.5463(3) 0.7554(2) 0.0835(2)
C17 C 0.5951(3) 0.7190(2) 0.0265(1)
C18 C 0.5418(3) 0.7889(2) -0.0155(2)
C19 C 0.5767(3) 0.5832(2) -0.0276(2)
C20 C 0.5282(3) 0.4913(2) -0.0204(2)
C21 C 0.4629(5) 0.4356(3) -0.0537(2)
C22 C 0.4534(5) 0.3535(4) -0.0233(3)
C23 C 0.5154(6) 0.3648(3) 0.0270(3)
C24 C 0.6076(3) 0.9222(2) -0.0644(1)
C25 C 0.6320(3) 1.0158(2) -0.0410(2)
C26 C 0.6296(4) 1.0837(3) -0.0917(2)
loop_
_geom_bond_atom_site_label_1
_geom_bond_atom_site_label_2
_geom_bond_site_symmetry_1
_geom_bond_site_symmetry_2
Br1 C13 1_555 1_555
O1 C14 1_555 1_555
O2 C11 1_555 1_555
O3 C6 1_555 1_555
O4 C15 1_555 1_555
O5 C15 1_555 1_555
O6 C18 1_555 1_555
O7 C17 1_555 1_555
O8 C20 1_555 1_555
C1 C2 1_555 1_555
C2 C3 1_555 1_555
C3 C4 1_555 1_555
C4 C5 1_555 1_555
C5 C6 1_555 1_555
C6 C1 1_555 1_555
C7 C2 1_555 1_555
C8 C5 1_555 1_555
C9 C8 1_555 1_555
C10 C8 1_555 1_555
C11 O3 1_555 1_555
C12 C11 1_555 1_555
C13 C12 1_555 1_555
C14 O2 1_555 1_555
C15 C16 1_555 1_555
C16 C12 1_555 1_555
C17 C16 1_555 1_555
C18 O5 1_555 1_555
C19 O7 1_555 1_555
C20 C19 1_555 1_555
C21 C20 1_555 1_555
C22 C21 1_555 1_555
C23 O8 1_555 1_555
C24 O6 1_555 1_555
C25 C24 1_555 1_555
C26 C25 1_555 1_555
C13 C14 1_555 1_555
C13 C16 1_555 1_555
C17 C18 1_555 1_555
C22 C23 1_555 1_555

#END
