
#######################################################################
#
#                 Cambridge Crystallographic Data Centre
#                                CCDC 
#
#######################################################################
#
# If this CIF has been generated from an entry in the Cambridge 
# Structural Database, then it will include bibliographic, chemical, 
# crystal, experimental, refinement or atomic coordinate data resulting 
# from the CCDC's data processing and validation procedures.
#
#######################################################################

data_GIPXOU
_chemical_formula_moiety         'C27 H40 N1 O3 1+,Cl1 1-,C1 H4 O1,H2 O1'
_chemical_name_systematic        
'3-Hydroxy-11-oxo-17,23-epoxyveratraman-28-ium chloride methanol solvate monohydrate'
_symmetry_cell_setting           orthorhombic
_symmetry_space_group_name_H-M   'P 21 21 21'
_symmetry_Int_Tables_number      19
_space_group_name_Hall           'P 2ac 2ab'
loop_
_symmetry_equiv_pos_site_id
_symmetry_equiv_pos_as_xyz
1 x,y,z
2 1/2+x,1/2-y,-z
3 -x,1/2+y,1/2-z
4 1/2-x,-y,1/2+z
_cell_length_a                   7.44120(10)
_cell_length_b                   9.94460(10)
_cell_length_c                   36.9172(3)
_cell_angle_alpha                90
_cell_angle_beta                 90
_cell_angle_gamma                90
_cell_volume                     2731.86
_exptl_crystal_colour            colorless
_exptl_crystal_description       block
_cell_formula_units_Z            4
loop_
_atom_site_label
_atom_site_type_symbol
_atom_site_fract_x
_atom_site_fract_y
_atom_site_fract_z
Cl1 Cl 0.38217(5) 0.57922(3) 0.003772(9)
N1 N -0.19694(16) 0.62055(12) 0.01312(3)
H1 H -0.1749 0.7091 0.0075
H2 H -0.3193 0.6090 0.0150
O1 O 0.41521(16) 0.51455(13) 0.37612(3)
H3 H 0.3423 0.5034 0.3932
O2 O 0.32942(16) 0.62767(14) 0.19244(3)
O3 O -0.08098(14) 0.43037(11) 0.09311(3)
C1 C 0.3522(2) 0.60533(15) 0.27834(4)
H4 H 0.4423 0.6243 0.2593
H5 H 0.2800 0.6880 0.2818
C2 C 0.4513(2) 0.57408(17) 0.31373(4)
H6 H 0.5337 0.4972 0.3100
H7 H 0.5239 0.6529 0.3211
C3 C 0.3178(2) 0.54046(16) 0.34319(4)
H8 H 0.2363 0.6191 0.3470
C4 C 0.2055(2) 0.41839(16) 0.33187(4)
H9 H 0.2849 0.3392 0.3292
H10 H 0.1164 0.3981 0.3510
C5 C 0.1085(2) 0.44432(14) 0.29643(4)
C6 C -0.0681(2) 0.42846(16) 0.29379(4)
H11 H -0.1304 0.4017 0.3151
C7 C -0.1785(2) 0.44925(16) 0.25990(4)
H12 H -0.2506 0.5324 0.2624
H13 H -0.2624 0.3728 0.2568
C8 C -0.05829(19) 0.46023(15) 0.22662(4)
H14 H -0.0135 0.3686 0.2201
C9 C 0.10277(19) 0.55046(14) 0.23561(4)
H15 H 0.0512 0.6347 0.2461
C10 C 0.2268(2) 0.49234(15) 0.26486(4)
C11 C 0.1774(2) 0.58940(16) 0.19848(4)
C12 C 0.02468(19) 0.57383(15) 0.17208(4)
C13 C 0.0321(2) 0.58575(16) 0.13593(4)
C14 C -0.1395(2) 0.52621(15) 0.19290(4)
H16 H -0.2099 0.6068 0.2007
C15 C -0.2576(2) 0.44017(16) 0.16885(4)
H17 H -0.3698 0.4161 0.1817
H18 H -0.1942 0.3562 0.1622
C16 C -0.3007(2) 0.52175(16) 0.13500(4)
H19 H -0.3592 0.6071 0.1422
H20 H -0.3866 0.4708 0.1198
C17 C -0.1325(2) 0.55347(15) 0.11264(4)
C18 C 0.2009(2) 0.6232(2) 0.11598(4)
H21 H 0.1982 0.7193 0.1101
H22 H 0.2091 0.5708 0.0936
H23 H 0.3055 0.6041 0.1313
C19 C 0.3366(2) 0.37341(16) 0.25018(4)
H24 H 0.4083 0.3344 0.2698
H25 H 0.4167 0.4049 0.2309
H26 H 0.2549 0.3050 0.2405
C20 C -0.1679(2) 0.66326(15) 0.08233(4)
H27 H -0.0843 0.7406 0.0862
C21 C -0.3601(2) 0.71651(16) 0.07962(4)
H28 H -0.3680 0.7812 0.0597
H29 H -0.3929 0.7610 0.1024
H30 H -0.4425 0.6415 0.0751
C22 C -0.10938(19) 0.58603(15) 0.04826(4)
H31 H 0.0236 0.5959 0.0454
C23 C -0.1505(2) 0.44124(15) 0.05736(4)
H32 H -0.2836 0.4275 0.0578
C24 C -0.0672(2) 0.34714(15) 0.03017(4)
H33 H -0.0954 0.2527 0.0365
H34 H 0.0650 0.3581 0.0300
C25 C -0.1452(2) 0.38177(15) -0.00734(4)
H35 H -0.2767 0.3609 -0.0069
C26 C -0.1236(2) 0.53123(15) -0.01615(4)
H36 H 0.0055 0.5514 -0.0197
H37 H -0.1866 0.5511 -0.0392
C27 C -0.0596(2) 0.29869(17) -0.03739(4)
H38 H -0.1202 0.3178 -0.0604
H39 H -0.0715 0.2029 -0.0317
H40 H 0.0680 0.3219 -0.0394
C28 C 0.1799(3) 0.1899(2) 0.13043(6)
H41 H 0.1578 0.1795 0.1564
H42 H 0.0747 0.2312 0.1190
H43 H 0.2852 0.2475 0.1267
O4 O 0.21195(18) 0.06080(16) 0.11460(4)
H44 H 0.3208 0.0404 0.1171
O5 O 0.8827(2) 0.01540(15) 0.07847(4)
H45 H 0.891(4) -0.010(3) 0.0566(8)
H46 H 0.986(4) 0.025(3) 0.0864(8)
loop_
_geom_bond_atom_site_label_1
_geom_bond_atom_site_label_2
_geom_bond_site_symmetry_1
_geom_bond_site_symmetry_2
N1 H1 1_555 1_555
H2 N1 1_555 1_555
O1 H3 1_555 1_555
O2 C11 1_555 1_555
O3 C17 1_555 1_555
C1 H4 1_555 1_555
H5 C1 1_555 1_555
C2 C1 1_555 1_555
H6 C2 1_555 1_555
H7 C2 1_555 1_555
C3 O1 1_555 1_555
H8 C3 1_555 1_555
C4 C3 1_555 1_555
H9 C4 1_555 1_555
H10 C4 1_555 1_555
C5 C4 1_555 1_555
C6 C5 1_555 1_555
H11 C6 1_555 1_555
C7 C6 1_555 1_555
H12 C7 1_555 1_555
H13 C7 1_555 1_555
C8 C7 1_555 1_555
H14 C8 1_555 1_555
C9 C8 1_555 1_555
H15 C9 1_555 1_555
C10 C1 1_555 1_555
C11 C9 1_555 1_555
C12 C11 1_555 1_555
C13 C12 1_555 1_555
C14 C8 1_555 1_555
H16 C14 1_555 1_555
C15 C14 1_555 1_555
H17 C15 1_555 1_555
H18 C15 1_555 1_555
C16 C15 1_555 1_555
H19 C16 1_555 1_555
H20 C16 1_555 1_555
C17 C13 1_555 1_555
C18 C13 1_555 1_555
H21 C18 1_555 1_555
H22 C18 1_555 1_555
H23 C18 1_555 1_555
C19 C10 1_555 1_555
H24 C19 1_555 1_555
H25 C19 1_555 1_555
H26 C19 1_555 1_555
C20 C17 1_555 1_555
H27 C20 1_555 1_555
C21 C20 1_555 1_555
H28 C21 1_555 1_555
H29 C21 1_555 1_555
H30 C21 1_555 1_555
C22 N1 1_555 1_555
H31 C22 1_555 1_555
C23 O3 1_555 1_555
H32 C23 1_555 1_555
C24 C23 1_555 1_555
H33 C24 1_555 1_555
H34 C24 1_555 1_555
C25 C24 1_555 1_555
H35 C25 1_555 1_555
C26 N1 1_555 1_555
H36 C26 1_555 1_555
H37 C26 1_555 1_555
C27 C25 1_555 1_555
H38 C27 1_555 1_555
H39 C27 1_555 1_555
H40 C27 1_555 1_555
C28 H41 1_555 1_555
H42 C28 1_555 1_555
H43 C28 1_555 1_555
O4 C28 1_555 1_555
H44 O4 1_555 1_555
O5 H45 1_555 1_555
H46 O5 1_555 1_555
C2 C3 1_555 1_555
C5 C10 1_555 1_555
C9 C10 1_555 1_555
C12 C14 1_555 1_555
C16 C17 1_555 1_555
C20 C22 1_555 1_555
C22 C23 1_555 1_555
C25 C26 1_555 1_555

#END
