
#######################################################################
#
#                 Cambridge Crystallographic Data Centre
#                                CCDC 
#
#######################################################################
#
# If this CIF has been generated from an entry in the Cambridge 
# Structural Database, then it will include bibliographic, chemical, 
# crystal, experimental, refinement or atomic coordinate data resulting 
# from the CCDC's data processing and validation procedures.
#
#######################################################################

data_GIPZAH
_chemical_formula_moiety         'C17 H16 Cl1 N3 O3 S2'
_chemical_name_systematic        
2-chloro-5-(((5-(3,4,5-trimethoxyphenyl)-1,3,4-thiadiazol-2-yl)thio)methyl)pyridine
_chemical_properties_biological  
'Good antitumour activity to PC3 and BGC-823 cells'
_symmetry_cell_setting           monoclinic
_symmetry_space_group_name_H-M   'C 2/c'
_symmetry_Int_Tables_number      15
_space_group_name_Hall           '-C 2yn'
loop_
_symmetry_equiv_pos_site_id
_symmetry_equiv_pos_as_xyz
1 x,y,z
2 -x,y,1/2-z
3 1/2+x,1/2+y,z
4 1/2-x,1/2+y,1/2-z
5 -x,-y,-z
6 x,-y,1/2+z
7 1/2-x,1/2-y,-z
8 1/2+x,1/2-y,1/2+z
_cell_length_a                   15.730(19)
_cell_length_b                   5.477
_cell_length_c                   42.244
_cell_angle_alpha                90
_cell_angle_beta                 92.015(6)
_cell_angle_gamma                90
_cell_volume                     3637.21
_chemical_melting_point          '139-140 deg.C'
_cell_formula_units_Z            8
loop_
_atom_site_label
_atom_site_type_symbol
_atom_site_fract_x
_atom_site_fract_y
_atom_site_fract_z
S1 S 0.3214(1) 0.3484(3) 0.1655(1)
S2 S 0.3853(1) 0.1604(3) 0.2296(1)
Cl1 Cl 0.5636(1) -0.1699(3) 0.3698(1)
O1 O 0.2314(3) 0.6136(9) 0.0443(1)
O2 O 0.0989(4) 0.3556(12) 0.0255(1)
O3 O 0.0328(3) 0.0002(10) 0.0620(1)
N1 N 0.2197(3) -0.0127(9) 0.1627(1)
N2 N 0.2628(3) -0.0331(9) 0.1915(1)
N3 N 0.5042(3) -0.3274(9) 0.3153(1)
C1 C 0.2396(4) 0.4101(11) 0.0957(1)
C2 C 0.2049(4) 0.4446(12) 0.0652(2)
C3 C 0.1359(4) 0.3036(14) 0.0543(1)
C4 C 0.1025(4) 0.1239(12) 0.0740(1)
C5 C 0.1379(4) 0.0857(12) 0.1038(1)
C6 C 0.2068(3) 0.2286(10) 0.1146(1)
C7 C 0.3011(5) 0.7645(15) 0.0536(2)
C8 C 0.1121(8) 0.1750(20) 0.0024(2)
C9 C 0.0020(4) -0.1982(13) 0.0803(2)
C10 C 0.2430(3) 0.1754(10) 0.1466(1)
C11 C 0.3182(3) 0.1391(9) 0.1961(1)
C12 C 0.3485(3) -0.1042(10) 0.2517(1)
C13 C 0.3994(3) -0.1176(9) 0.2823(1)
C14 C 0.3941(4) 0.0612(11) 0.3052(1)
C15 C 0.4441(4) 0.0462(11) 0.3325(1)
C16 C 0.4976(3) -0.1503(10) 0.3357(1)
C17 C 0.4544(3) -0.3081(9) 0.2887(1)
loop_
_geom_bond_atom_site_label_1
_geom_bond_atom_site_label_2
_geom_bond_site_symmetry_1
_geom_bond_site_symmetry_2
S1 C10 1_555 1_555
S2 C11 1_555 1_555
Cl1 C16 1_555 1_555
O1 C2 1_555 1_555
O2 C3 1_555 1_555
O3 C4 1_555 1_555
N1 N2 1_555 1_555
N2 C11 1_555 1_555
N3 C16 1_555 1_555
C1 C2 1_555 1_555
C2 C3 1_555 1_555
C3 C4 1_555 1_555
C4 C5 1_555 1_555
C5 C6 1_555 1_555
C6 C1 1_555 1_555
C7 O1 1_555 1_555
C8 O2 1_555 1_555
C9 O3 1_555 1_555
C10 N1 1_555 1_555
C11 S1 1_555 1_555
C12 S2 1_555 1_555
C13 C12 1_555 1_555
C14 C13 1_555 1_555
C15 C14 1_555 1_555
C16 C15 1_555 1_555
C17 N3 1_555 1_555
C6 C10 1_555 1_555
C13 C17 1_555 1_555

#END
