
#######################################################################
#
#                 Cambridge Crystallographic Data Centre
#                                CCDC 
#
#######################################################################
#
# If this CIF has been generated from an entry in the Cambridge 
# Structural Database, then it will include bibliographic, chemical, 
# crystal, experimental, refinement or atomic coordinate data resulting 
# from the CCDC's data processing and validation procedures.
#
#######################################################################

data_GIQGOF
_chemical_formula_moiety         'C31 H24 Cl2 O4'
_chemical_name_systematic        
'2,6-dichlorophenyl 2-(4-methylbenzene-1-carbonyl)-4-(4-methylphenyl)-4-oxo-2-phenylbutanoate'
_symmetry_cell_setting           monoclinic
_symmetry_space_group_name_H-M   'P 21/n'
_symmetry_Int_Tables_number      14
_space_group_name_Hall           '-P 2yn'
loop_
_symmetry_equiv_pos_site_id
_symmetry_equiv_pos_as_xyz
1 x,y,z
2 1/2-x,1/2+y,1/2-z
3 -x,-y,-z
4 1/2+x,1/2-y,1/2+z
_cell_length_a                   9.1884(13)
_cell_length_b                   15.7638(19)
_cell_length_c                   17.756(2)
_cell_angle_alpha                90
_cell_angle_beta                 100.939(3)
_cell_angle_gamma                90
_cell_volume                     2525.12
_exptl_crystal_colour            colorless
_exptl_crystal_description       Prism
_cell_formula_units_Z            4
loop_
_atom_site_label
_atom_site_type_symbol
_atom_site_fract_x
_atom_site_fract_y
_atom_site_fract_z
Cl1 Cl 0.36003(3) 0.150388(17) 1.025299(16)
Cl2 Cl 0.61527(4) 0.15906(2) 0.776839(17)
O1 O 0.52677(8) 0.22749(5) 0.91731(4)
O2 O 0.72443(8) 0.18011(5) 1.00252(4)
O3 O 0.77374(9) 0.32250(5) 0.85926(4)
O4 O 0.46435(9) 0.39163(5) 1.04446(4)
C1 C 0.48373(12) 0.14408(7) 0.89972(6)
C2 C 0.40136(12) 0.10022(7) 0.94524(7)
C3 C 0.35348(13) 0.01776(7) 0.92736(8)
H1 H 0.2996 -0.0123 0.9595
C4 C 0.38564(14) -0.01988(8) 0.86198(8)
H2 H 0.3530 -0.0762 0.8492
C5 C 0.46458(14) 0.02331(8) 0.81510(8)
H3 H 0.4847 -0.0029 0.7700
C6 C 0.51436(13) 0.10525(7) 0.83415(7)
C7 C 0.65185(11) 0.23832(6) 0.97345(6)
C8 C 0.66883(11) 0.33246(6) 0.99519(6)
C9 C 0.60384(11) 0.38947(6) 0.92666(6)
H4 H 0.4962 0.3783 0.9117
H5 H 0.6166 0.4496 0.9426
C10 C 0.67602(11) 0.37533(7) 0.85775(6)
C11 C 0.62457(12) 0.42809(7) 0.78816(6)
C12 C 0.51056(12) 0.48756(7) 0.78369(6)
H6 H 0.4598 0.4936 0.8253
C13 C 0.47097(13) 0.53792(7) 0.71891(6)
H7 H 0.3920 0.5774 0.7163
C14 C 0.54511(13) 0.53155(8) 0.65770(7)
C15 C 0.65622(14) 0.47068(9) 0.66160(7)
H8 H 0.7060 0.4643 0.6197
C16 C 0.69520(14) 0.41939(8) 0.72539(7)
H9 H 0.7706 0.3779 0.7266
C17 C 0.51167(15) 0.59119(10) 0.59047(7)
H10 H 0.4339 0.6310 0.5982
H11 H 0.4778 0.5586 0.5434
H12 H 0.6015 0.6228 0.5860
C18 C 0.57070(11) 0.34442(6) 1.05813(6)
C19 C 0.60478(12) 0.29782(6) 1.13288(6)
C20 C 0.48842(12) 0.29014(7) 1.17321(6)
H13 H 0.3939 0.3130 1.1520
C21 C 0.50954(12) 0.24949(7) 1.24383(6)
H14 H 0.4289 0.2441 1.2700
C22 C 0.64773(12) 0.21657(7) 1.27669(6)
C23 C 0.76344(12) 0.22393(7) 1.23634(6)
H15 H 0.8582 0.2016 1.2580
C24 C 0.74268(12) 0.26331(7) 1.16497(6)
H16 H 0.8224 0.2667 1.1380
C25 C 0.67209(14) 0.17495(8) 1.35455(7)
H17 H 0.5778 0.1721 1.3726
H18 H 0.7436 0.2082 1.3908
H19 H 0.7107 0.1175 1.3508
C26 C 0.82900(11) 0.35965(6) 1.02786(6)
C27 C 0.84992(12) 0.43763(7) 1.06594(6)
H20 H 0.7662 0.4705 1.0718
C28 C 0.99160(13) 0.46761(7) 1.09531(6)
H21 H 1.0041 0.5206 1.1213
C29 C 1.11468(12) 0.42036(7) 1.08671(6)
H22 H 1.2116 0.4404 1.1072
C30 C 1.09508(12) 0.34360(7) 1.04797(6)
H23 H 1.1792 0.3115 1.0413
C31 C 0.95369(12) 0.31310(7) 1.01875(6)
H24 H 0.9419 0.2603 0.9925
loop_
_geom_bond_atom_site_label_1
_geom_bond_atom_site_label_2
_geom_bond_site_symmetry_1
_geom_bond_site_symmetry_2
Cl1 C2 1_555 1_555
Cl2 C6 1_555 1_555
O1 C1 1_555 1_555
O2 C7 1_555 1_555
O3 C10 1_555 1_555
O4 C18 1_555 1_555
C1 C2 1_555 1_555
C2 C3 1_555 1_555
C3 H1 1_555 1_555
C4 C3 1_555 1_555
H2 C4 1_555 1_555
C5 C4 1_555 1_555
H3 C5 1_555 1_555
C6 C1 1_555 1_555
C7 O1 1_555 1_555
C8 C7 1_555 1_555
C9 C8 1_555 1_555
H4 C9 1_555 1_555
H5 C9 1_555 1_555
C10 C9 1_555 1_555
C11 C10 1_555 1_555
C12 C11 1_555 1_555
H6 C12 1_555 1_555
C13 C12 1_555 1_555
H7 C13 1_555 1_555
C14 C13 1_555 1_555
C15 C14 1_555 1_555
H8 C15 1_555 1_555
C16 C11 1_555 1_555
H9 C16 1_555 1_555
C17 C14 1_555 1_555
H10 C17 1_555 1_555
H11 C17 1_555 1_555
H12 C17 1_555 1_555
C18 C8 1_555 1_555
C19 C18 1_555 1_555
C20 C19 1_555 1_555
H13 C20 1_555 1_555
C21 C20 1_555 1_555
H14 C21 1_555 1_555
C22 C21 1_555 1_555
C23 C22 1_555 1_555
H15 C23 1_555 1_555
C24 C19 1_555 1_555
H16 C24 1_555 1_555
C25 C22 1_555 1_555
H17 C25 1_555 1_555
H18 C25 1_555 1_555
H19 C25 1_555 1_555
C26 C8 1_555 1_555
C27 C26 1_555 1_555
H20 C27 1_555 1_555
C28 C27 1_555 1_555
H21 C28 1_555 1_555
C29 C28 1_555 1_555
H22 C29 1_555 1_555
C30 C29 1_555 1_555
H23 C30 1_555 1_555
C31 C26 1_555 1_555
H24 C31 1_555 1_555
C5 C6 1_555 1_555
C15 C16 1_555 1_555
C23 C24 1_555 1_555
C30 C31 1_555 1_555

#END
