
#######################################################################
#
#                 Cambridge Crystallographic Data Centre
#                                CCDC 
#
#######################################################################
#
# If this CIF has been generated from an entry in the Cambridge 
# Structural Database, then it will include bibliographic, chemical, 
# crystal, experimental, refinement or atomic coordinate data resulting 
# from the CCDC's data processing and validation procedures.
#
#######################################################################

data_GIQXAI
_chemical_formula_moiety         'C28 H33 Br1 O3'
_chemical_name_systematic        
'4,4,6a,12b-tetramethyl-1,3,4,4a,5,6,6a,12,12a,12b-decahydro-2H-benzo[a]xanthen-10-yl 4-bromobenzoate'
_symmetry_cell_setting           monoclinic
_symmetry_space_group_name_H-M   'I 2'
_symmetry_Int_Tables_number      5
_space_group_name_Hall           'I 2y'
loop_
_symmetry_equiv_pos_site_id
_symmetry_equiv_pos_as_xyz
1 x,y,z
2 -x,y,-z
3 1/2+x,1/2+y,1/2+z
4 1/2-x,1/2+y,1/2-z
_cell_length_a                   26.3570(8)
_cell_length_b                   7.5712(3)
_cell_length_c                   24.9141(8)
_cell_angle_alpha                90
_cell_angle_beta                 92.458(3)
_cell_angle_gamma                90
_cell_volume                     4967.14
_cell_formula_units_Z            8
loop_
_atom_site_label
_atom_site_type_symbol
_atom_site_fract_x
_atom_site_fract_y
_atom_site_fract_z
Br1 Br 0.49135(2) -0.23671(11) 0.39297(3)
O1 O 0.64164(11) 0.3479(4) 0.53237(11)
O2 O 0.61201(19) 0.5271(6) 0.46690(16)
O3 O 0.74915(11) 0.8802(4) 0.63669(14)
C1 C 0.66884(15) 0.4888(6) 0.55676(15)
C2 C 0.64393(16) 0.6290(8) 0.57930(18)
H1 H 0.6087 0.6353 0.5768
C3 C 0.67139(16) 0.7582(8) 0.60528(19)
H2 H 0.6548 0.8529 0.6206
C4 C 0.72441(15) 0.7486(6) 0.60897(16)
C5 C 0.74967(14) 0.6070(6) 0.58762(15)
C6 C 0.72103(14) 0.4766(6) 0.56066(14)
H3 H 0.7372 0.3812 0.5453
C7 C 0.80703(14) 0.5932(7) 0.59198(16)
H4 H 0.8204 0.6096 0.5566
H5 H 0.8164 0.4755 0.6042
C8 C 0.83161(14) 0.7303(6) 0.63095(15)
H6 H 0.8654 0.7534 0.6176
C9 C 0.80258(18) 0.9043(7) 0.6246(2)
C10 C 0.8221(2) 1.0445(7) 0.6639(2)
H7 H 0.7984 1.1426 0.6633
H8 H 0.8544 1.0884 0.6523
C11 C 0.82895(18) 0.9762(7) 0.7211(2)
H9 H 0.8427 1.0692 0.7442
H10 H 0.7963 0.9414 0.7342
C12 C 0.86468(15) 0.8193(6) 0.72278(17)
H11 H 0.8936 0.8573 0.7022
C13 C 0.84078(14) 0.6623(6) 0.68976(16)
C14 C 0.88046(18) 0.5143(6) 0.6896(2)
H12 H 0.8657 0.4125 0.6712
H13 H 0.9090 0.5536 0.6694
C15 C 0.8999(2) 0.4582(8) 0.7454(3)
H14 H 0.8721 0.4107 0.7652
H15 H 0.9253 0.3663 0.7424
C16 C 0.9230(2) 0.6146(9) 0.7754(3)
H16 H 0.9533 0.6509 0.7577
H17 H 0.9334 0.5769 0.8115
C17 C 0.88826(19) 0.7736(8) 0.77953(19)
C18 C 0.61295(17) 0.3853(8) 0.48735(17)
C19 C 0.58479(15) 0.2287(7) 0.46688(16)
C20 C 0.5542(2) 0.2536(10) 0.4206(2)
H18 H 0.5530 0.3630 0.4036
C21 C 0.5258(2) 0.1137(11) 0.4003(3)
H19 H 0.5037 0.1305 0.3706
C22 C 0.52979(17) -0.0457(9) 0.4231(2)
C23 C 0.5613(2) -0.0763(9) 0.4679(2)
H20 H 0.5643 -0.1884 0.4829
C24 C 0.58851(18) 0.0661(7) 0.48973(17)
H21 H 0.6095 0.0497 0.5203
C25 C 0.8042(3) 0.9754(9) 0.5668(2)
H22 H 0.7837 0.9018 0.5432
H23 H 0.8386 0.9749 0.5556
H24 H 0.7912 1.0939 0.5656
C26 C 0.79152(16) 0.5886(7) 0.71195(18)
H25 H 0.7982 0.5457 0.7478
H26 H 0.7792 0.4935 0.6895
H27 H 0.7664 0.6804 0.7124
C27 C 0.8485(3) 0.7456(12) 0.8217(2)
H28 H 0.8258 0.8449 0.8216
H29 H 0.8651 0.7345 0.8566
H30 H 0.8295 0.6400 0.8135
C28 C 0.9222(2) 0.9291(10) 0.7986(2)
H31 H 0.9484 0.9469 0.7736
H32 H 0.9372 0.9030 0.8334
H33 H 0.9019 1.0342 0.8005
Br2 Br 1.00016(3) -0.07062(12) 0.64286(3)
O4 O 0.88212(13) 0.4841(5) 0.46249(14)
O5 O 0.9218(2) 0.6808(7) 0.5146(3)
O6 O 0.77107(11) 1.0104(5) 0.35794(14)
C29 C 0.85480(17) 0.6217(7) 0.43653(19)
C30 C 0.87813(17) 0.7455(9) 0.4068(2)
H34 H 0.9132 0.7427 0.4040
C31 C 0.84975(17) 0.8755(8) 0.3807(2)
H35 H 0.8657 0.9609 0.3606
C32 C 0.79690(15) 0.8782(6) 0.38461(19)
C33 C 0.77305(14) 0.7511(7) 0.41433(15)
C34 C 0.80219(16) 0.6221(7) 0.43984(16)
H36 H 0.7865 0.5346 0.4594
C35 C 0.71548(14) 0.7505(8) 0.41840(16)
H37 H 0.7073 0.7755 0.4552
H38 H 0.7027 0.6336 0.4095
C36 C 0.68846(14) 0.8866(6) 0.38106(15)
H39 H 0.6579 0.9223 0.3994
C37 C 0.72143(17) 1.0537(7) 0.3783(2)
C38 C 0.6992(2) 1.1876(7) 0.3387(3)
H40 H 0.6712 1.2472 0.3551
H41 H 0.7249 1.2758 0.3322
C39 C 0.68038(19) 1.1128(7) 0.2856(2)
H42 H 0.7088 1.0678 0.2663
H43 H 0.6642 1.2053 0.2641
C40 C 0.64285(16) 0.9653(6) 0.29416(16)
H44 H 0.6193 1.0147 0.3196
C41 C 0.66894(15) 0.8095(5) 0.32525(15)
C42 C 0.62848(17) 0.6679(7) 0.33575(19)
H45 H 0.6449 0.5657 0.3523
H46 H 0.6047 0.7145 0.3608
C43 C 0.5994(2) 0.6103(8) 0.2847(2)
H47 H 0.6227 0.5572 0.2603
H48 H 0.5744 0.5221 0.2933
C44 C 0.5732(2) 0.7659(9) 0.2576(2)
H49 H 0.5477 0.8105 0.2810
H50 H 0.5558 0.7252 0.2248
C45 C 0.60853(19) 0.9171(8) 0.24384(18)
C46 C 0.9141(2) 0.5319(8) 0.5026(2)
C47 C 0.93684(18) 0.3813(8) 0.5327(2)
C48 C 0.9271(2) 0.2096(9) 0.5185(2)
H51 H 0.9072 0.1860 0.4876
C49 C 0.9468(2) 0.0671(10) 0.5498(3)
H52 H 0.9404 -0.0496 0.5399
C50 C 0.97590(18) 0.1087(9) 0.5960(2)
C51 C 0.9867(3) 0.2786(10) 0.6075(2)
H53 H 1.0077 0.3035 0.6375
C52 C 0.9682(2) 0.4174(11) 0.5767(2)
H54 H 0.9768 0.5332 0.5855
C53 C 0.7302(3) 1.1379(10) 0.4341(3)
H55 H 0.7496 1.0586 0.4570
H56 H 0.6981 1.1608 0.4495
H57 H 0.7485 1.2468 0.4307
C54 C 0.71244(17) 0.7224(7) 0.29579(18)
H58 H 0.7331 0.8122 0.2806
H59 H 0.6986 0.6478 0.2677
H60 H 0.7328 0.6528 0.3207
C55 C 0.6392(3) 0.8685(10) 0.1941(2)
H61 H 0.6628 0.9615 0.1871
H62 H 0.6163 0.8535 0.1634
H63 H 0.6574 0.7605 0.2009
C56 C 0.5756(2) 1.0787(10) 0.2278(2)
H64 H 0.5969 1.1706 0.2147
H65 H 0.5585 1.1207 0.2586
H66 H 0.5509 1.0454 0.2002
loop_
_geom_bond_atom_site_label_1
_geom_bond_atom_site_label_2
_geom_bond_site_symmetry_1
_geom_bond_site_symmetry_2
Br1 C22 1_555 1_555
O1 C1 1_555 1_555
O2 C18 1_555 1_555
O3 C4 1_555 1_555
C1 C2 1_555 1_555
C2 H1 1_555 1_555
C3 C2 1_555 1_555
H2 C3 1_555 1_555
C4 C3 1_555 1_555
C5 C4 1_555 1_555
C6 C1 1_555 1_555
H3 C6 1_555 1_555
C7 C5 1_555 1_555
H4 C7 1_555 1_555
H5 C7 1_555 1_555
C8 C7 1_555 1_555
H6 C8 1_555 1_555
C9 O3 1_555 1_555
C10 C9 1_555 1_555
H7 C10 1_555 1_555
H8 C10 1_555 1_555
C11 C10 1_555 1_555
H9 C11 1_555 1_555
H10 C11 1_555 1_555
C12 C11 1_555 1_555
H11 C12 1_555 1_555
C13 C8 1_555 1_555
C14 C13 1_555 1_555
H12 C14 1_555 1_555
H13 C14 1_555 1_555
C15 C14 1_555 1_555
H14 C15 1_555 1_555
H15 C15 1_555 1_555
C16 C15 1_555 1_555
H16 C16 1_555 1_555
H17 C16 1_555 1_555
C17 C12 1_555 1_555
C18 O1 1_555 1_555
C19 C18 1_555 1_555
C20 C19 1_555 1_555
H18 C20 1_555 1_555
C21 C20 1_555 1_555
H19 C21 1_555 1_555
C22 C21 1_555 1_555
C23 C22 1_555 1_555
H20 C23 1_555 1_555
C24 C19 1_555 1_555
H21 C24 1_555 1_555
C25 C9 1_555 1_555
H22 C25 1_555 1_555
H23 C25 1_555 1_555
H24 C25 1_555 1_555
C26 C13 1_555 1_555
H25 C26 1_555 1_555
H26 C26 1_555 1_555
H27 C26 1_555 1_555
C27 C17 1_555 1_555
H28 C27 1_555 1_555
H29 C27 1_555 1_555
H30 C27 1_555 1_555
C28 C17 1_555 1_555
H31 C28 1_555 1_555
H32 C28 1_555 1_555
H33 C28 1_555 1_555
Br2 C50 1_555 1_555
O4 C29 1_555 1_555
O5 C46 1_555 1_555
O6 C32 1_555 1_555
C29 C30 1_555 1_555
C30 H34 1_555 1_555
C31 C30 1_555 1_555
H35 C31 1_555 1_555
C32 C31 1_555 1_555
C33 C32 1_555 1_555
C34 C29 1_555 1_555
H36 C34 1_555 1_555
C35 C33 1_555 1_555
H37 C35 1_555 1_555
H38 C35 1_555 1_555
C36 C35 1_555 1_555
H39 C36 1_555 1_555
C37 O6 1_555 1_555
C38 C37 1_555 1_555
H40 C38 1_555 1_555
H41 C38 1_555 1_555
C39 C38 1_555 1_555
H42 C39 1_555 1_555
H43 C39 1_555 1_555
C40 C39 1_555 1_555
H44 C40 1_555 1_555
C41 C36 1_555 1_555
C42 C41 1_555 1_555
H45 C42 1_555 1_555
H46 C42 1_555 1_555
C43 C42 1_555 1_555
H47 C43 1_555 1_555
H48 C43 1_555 1_555
C44 C43 1_555 1_555
H49 C44 1_555 1_555
H50 C44 1_555 1_555
C45 C40 1_555 1_555
C46 O4 1_555 1_555
C47 C46 1_555 1_555
C48 C47 1_555 1_555
H51 C48 1_555 1_555
C49 C48 1_555 1_555
H52 C49 1_555 1_555
C50 C49 1_555 1_555
C51 C50 1_555 1_555
H53 C51 1_555 1_555
C52 C47 1_555 1_555
H54 C52 1_555 1_555
C53 C37 1_555 1_555
H55 C53 1_555 1_555
H56 C53 1_555 1_555
H57 C53 1_555 1_555
C54 C41 1_555 1_555
H58 C54 1_555 1_555
H59 C54 1_555 1_555
H60 C54 1_555 1_555
C55 C45 1_555 1_555
H61 C55 1_555 1_555
H62 C55 1_555 1_555
H63 C55 1_555 1_555
C56 C45 1_555 1_555
H64 C56 1_555 1_555
H65 C56 1_555 1_555
H66 C56 1_555 1_555
C5 C6 1_555 1_555
C8 C9 1_555 1_555
C12 C13 1_555 1_555
C16 C17 1_555 1_555
C23 C24 1_555 1_555
C33 C34 1_555 1_555
C36 C37 1_555 1_555
C40 C41 1_555 1_555
C44 C45 1_555 1_555
C51 C52 1_555 1_555

#END
