
#######################################################################
#
#                 Cambridge Crystallographic Data Centre
#                                CCDC 
#
#######################################################################
#
# If this CIF has been generated from an entry in the Cambridge 
# Structural Database, then it will include bibliographic, chemical, 
# crystal, experimental, refinement or atomic coordinate data resulting 
# from the CCDC's data processing and validation procedures.
#
#######################################################################

data_GIRBUH
_chemical_formula_moiety         'C22 H24 N2'
_chemical_name_systematic        
4-(3,3-dimethyl-3H-indol-2-yl)-1,2,3,3a,4,5-hexahydropyrrolo[1,2-a]quinoline
_symmetry_cell_setting           monoclinic
_symmetry_space_group_name_H-M   'P 21/c'
_symmetry_Int_Tables_number      14
_space_group_name_Hall           '-P 2ybc'
loop_
_symmetry_equiv_pos_site_id
_symmetry_equiv_pos_as_xyz
1 x,y,z
2 -x,1/2+y,1/2-z
3 -x,-y,-z
4 x,1/2-y,1/2+z
_cell_length_a                   22.090(6)
_cell_length_b                   8.574(2)
_cell_length_c                   9.447(3)
_cell_angle_alpha                90
_cell_angle_beta                 101.60(2)
_cell_angle_gamma                90
_cell_volume                     1752.71
_exptl_crystal_colour            coloress
_exptl_crystal_description       block
_cell_formula_units_Z            4
loop_
_atom_site_label
_atom_site_type_symbol
_atom_site_fract_x
_atom_site_fract_y
_atom_site_fract_z
C1 C 0.29248(4) 0.40303(10) 0.21619(9)
C2 C 0.36329(4) 0.23637(10) 0.18692(10)
C3 C 0.39620(5) 0.09898(12) 0.18804(12)
H1 H 0.3795(4) 0.0045(10) 0.2253(9)
C4 C 0.44976(5) 0.10274(13) 0.13238(12)
H2 H 0.4724(4) 0.0149(11) 0.1305(10)
C5 C 0.46938(5) 0.23741(14) 0.07726(13)
H3 H 0.5106(4) 0.2400(11) 0.0359(11)
C6 C 0.43617(5) 0.37476(13) 0.07691(12)
H4 H 0.4475(4) 0.4764(12) 0.0346(10)
C7 C 0.38294(4) 0.37257(10) 0.13253(10)
C8 C 0.33715(4) 0.49816(10) 0.14734(10)
C9 C 0.30530(5) 0.56380(13) -0.00043(12)
H5 H 0.2850(5) 0.4805(13) -0.0710(12)
H6 H 0.2711(5) 0.6368(11) 0.0125(11)
H7 H 0.3367(5) 0.6253(11) -0.0393(10)
C10 C 0.36601(5) 0.62873(12) 0.24931(13)
H8 H 0.3968(4) 0.6786(11) 0.2087(11)
H9 H 0.3320(4) 0.7082(11) 0.2599(10)
H10 H 0.3856(5) 0.5816(13) 0.3509(11)
C11 C 0.23694(4) 0.47034(10) 0.26330(10)
H11 H 0.2317(3) 0.5778(9) 0.2329(8)
C12 C 0.17785(4) 0.38509(11) 0.19312(11)
H12 H 0.1841(4) 0.2765(10) 0.2189(9)
C13 C 0.15587(5) 0.40846(13) 0.03227(12)
H13 H 0.1622(4) 0.5215(11) 0.0099(10)
H14 H 0.1795(4) 0.3429(11) -0.0276(10)
C14 C 0.08732(5) 0.37284(14) 0.00833(14)
H15 H 0.0623(5) 0.4188(14) -0.0856(12)
H16 H 0.0792(5) 0.2605(15) 0.0089(13)
C15 C 0.06797(5) 0.43973(14) 0.14172(14)
H17 H 0.0486(5) 0.5450(13) 0.1260(11)
H18 H 0.0336(5) 0.3757(12) 0.1732(11)
C16 C 0.24435(4) 0.46271(11) 0.42826(10)
H19 H 0.2828(4) 0.5247(10) 0.4768(10)
H20 H 0.2532(4) 0.3510(10) 0.4557(9)
C17 C 0.18743(4) 0.51866(10) 0.47778(11)
C18 C 0.12943(4) 0.50794(11) 0.38446(11)
C19 C 0.07702(5) 0.56469(12) 0.43145(13)
H21 H 0.0356(4) 0.5572(12) 0.3631(11)
C20 C 0.08250(5) 0.62610(13) 0.56808(14)
H22 H 0.0448(4) 0.6655(11) 0.5962(11)
C21 C 0.13846(6) 0.63463(13) 0.66141(13)
H23 H 0.1451(5) 0.6757(13) 0.7613(12)
C22 C 0.19074(5) 0.58127(12) 0.61459(12)
H24 H 0.2329(4) 0.5822(11) 0.6788(10)
N1 N 0.30718(3) 0.25840(8) 0.23885(9)
N2 N 0.12469(3) 0.44151(10) 0.25073(10)
loop_
_geom_bond_atom_site_label_1
_geom_bond_atom_site_label_2
_geom_bond_site_symmetry_1
_geom_bond_site_symmetry_2
C1 C8 1_555 1_555
C2 C3 1_555 1_555
C3 H1 1_555 1_555
C4 C3 1_555 1_555
H2 C4 1_555 1_555
C5 C4 1_555 1_555
H3 C5 1_555 1_555
C6 C5 1_555 1_555
H4 C6 1_555 1_555
C7 C2 1_555 1_555
C8 C7 1_555 1_555
C9 C8 1_555 1_555
H5 C9 1_555 1_555
H6 C9 1_555 1_555
H7 C9 1_555 1_555
C10 C8 1_555 1_555
H8 C10 1_555 1_555
H9 C10 1_555 1_555
H10 C10 1_555 1_555
C11 C1 1_555 1_555
H11 C11 1_555 1_555
C12 C11 1_555 1_555
H12 C12 1_555 1_555
C13 C12 1_555 1_555
H13 C13 1_555 1_555
H14 C13 1_555 1_555
C14 C13 1_555 1_555
H15 C14 1_555 1_555
H16 C14 1_555 1_555
C15 C14 1_555 1_555
H17 C15 1_555 1_555
H18 C15 1_555 1_555
C16 C11 1_555 1_555
H19 C16 1_555 1_555
H20 C16 1_555 1_555
C17 C16 1_555 1_555
C18 C17 1_555 1_555
C19 C18 1_555 1_555
H21 C19 1_555 1_555
C20 C19 1_555 1_555
H22 C20 1_555 1_555
C21 C20 1_555 1_555
H23 C21 1_555 1_555
C22 C17 1_555 1_555
H24 C22 1_555 1_555
N1 C1 1_555 1_555
N2 C12 1_555 1_555
C2 N1 1_555 1_555
C6 C7 1_555 1_555
C15 N2 1_555 1_555
C18 N2 1_555 1_555
C21 C22 1_555 1_555

#END
