
#######################################################################
#
#                 Cambridge Crystallographic Data Centre
#                                CCDC 
#
#######################################################################
#
# If this CIF has been generated from an entry in the Cambridge 
# Structural Database, then it will include bibliographic, chemical, 
# crystal, experimental, refinement or atomic coordinate data resulting 
# from the CCDC's data processing and validation procedures.
#
#######################################################################

data_GIRDOC
_chemical_formula_moiety         'C22 H10 N2 S5'
_chemical_name_systematic        
2,2'-bisthieno[2,3-b:3',2'-d]thiene-2,5-diylbis(1,3-benzothiazole)
_symmetry_cell_setting           orthorhombic
_symmetry_space_group_name_H-M   'P b c n'
_symmetry_Int_Tables_number      60
_space_group_name_Hall           '-P 2n 2ab'
loop_
_symmetry_equiv_pos_site_id
_symmetry_equiv_pos_as_xyz
1 x,y,z
2 1/2-x,1/2-y,1/2+z
3 -x,y,1/2-z
4 1/2+x,1/2-y,-z
5 -x,-y,-z
6 1/2+x,1/2+y,1/2-z
7 x,-y,1/2+z
8 1/2-x,1/2+y,z
_cell_length_a                   4.5290(8)
_cell_length_b                   13.576(3)
_cell_length_c                   32.033(6)
_cell_angle_alpha                90
_cell_angle_beta                 90
_cell_angle_gamma                90
_cell_volume                     1969.57
_exptl_crystal_colour            'light yellow'
_exptl_crystal_description       block
_cell_formula_units_Z            4
loop_
_atom_site_label
_atom_site_type_symbol
_atom_site_fract_x
_atom_site_fract_y
_atom_site_fract_z
S1 S 0.10820(18) 0.67798(6) 0.14151(2)
S2 S -0.1069(2) 0.37526(5) 0.17736(3)
S3 S -0.5000 0.28974(8) 0.2500
C1 C -0.4041(6) 0.47545(18) 0.23224(8)
C2 C 0.0845(6) 0.5494(2) 0.14376(8)
C3 C -0.2635(6) 0.54544(19) 0.20609(8)
H1 H -0.2841 0.6132 0.2093
C4 C -0.3377(7) 0.38061(19) 0.21978(9)
N1 N 0.2404(6) 0.49979(18) 0.11584(7)
C5 C -0.0950(6) 0.50288(19) 0.17580(8)
C6 C 0.3866(6) 0.5676(2) 0.09004(8)
C7 C 0.3385(6) 0.6673(2) 0.09921(8)
C8 C 0.4704(8) 0.7427(3) 0.07547(10)
H2 H 0.4353 0.8087 0.0813
C9 C 0.5725(8) 0.5419(3) 0.05719(10)
H3 H 0.6089 0.4762 0.0508
C10 C 0.6526(8) 0.7147(3) 0.04350(10)
H4 H 0.7461 0.7627 0.0276
C11 C 0.7008(8) 0.6161(4) 0.03436(11)
H5 H 0.8235 0.5998 0.0121
S1B S -1.10820(18) 0.67798(6) 0.35849(2)
S2B S -0.8931(2) 0.37526(5) 0.32264(3)
C1B C -0.5959(6) 0.47545(18) 0.26776(8)
C2B C -1.0845(6) 0.5494(2) 0.35624(8)
C3B C -0.7365(6) 0.54544(19) 0.29391(8)
H1B H -0.7159 0.6132 0.2907
C4B C -0.6623(7) 0.38061(19) 0.28022(9)
N1B N -1.2404(6) 0.49979(18) 0.38416(7)
C5B C -0.9050(6) 0.50288(19) 0.32420(8)
C6B C -1.3866(6) 0.5676(2) 0.40996(8)
C7B C -1.3385(6) 0.6673(2) 0.40079(8)
C8B C -1.4704(8) 0.7427(3) 0.42453(10)
H2B H -1.4353 0.8087 0.4187
C9B C -1.5725(8) 0.5419(3) 0.44281(10)
H3B H -1.6089 0.4762 0.4492
C10B C -1.6526(8) 0.7147(3) 0.45650(10)
H4B H -1.7461 0.7627 0.4724
C11B C -1.7008(8) 0.6161(4) 0.46564(11)
H5B H -1.8235 0.5998 0.4879
loop_
_geom_bond_atom_site_label_1
_geom_bond_atom_site_label_2
_geom_bond_site_symmetry_1
_geom_bond_site_symmetry_2
S1 C2 1_555 1_555
S2 C4 1_555 1_555
S3 C4 1_555 1_555
C1 C3 1_555 1_555
C2 N1 1_555 1_555
C3 H1 1_555 1_555
C4 C1 1_555 1_555
N1 C6 1_555 1_555
C5 S2 1_555 1_555
C6 C7 1_555 1_555
C7 S1 1_555 1_555
C8 C7 1_555 1_555
H2 C8 1_555 1_555
C9 C6 1_555 1_555
H3 C9 1_555 1_555
C10 C8 1_555 1_555
H4 C10 1_555 1_555
C11 C9 1_555 1_555
H5 C11 1_555 1_555
S1B C2B 1_555 1_555
S2B C4B 1_555 1_555
C1B C1 1_555 1_555
C2B N1B 1_555 1_555
C3B C1B 1_555 1_555
H1B C3B 1_555 1_555
C4B S3 1_555 1_555
N1B C6B 1_555 1_555
C5B S2B 1_555 1_555
C6B C7B 1_555 1_555
C7B S1B 1_555 1_555
C8B C7B 1_555 1_555
H2B C8B 1_555 1_555
C9B C6B 1_555 1_555
H3B C9B 1_555 1_555
C10B C8B 1_555 1_555
H4B C10B 1_555 1_555
C11B C9B 1_555 1_555
H5B C11B 1_555 1_555
C2 C5 1_555 1_555
C3 C5 1_555 1_555
C10 C11 1_555 1_555
C1B C4B 1_555 1_555
C2B C5B 1_555 1_555
C3B C5B 1_555 1_555
C10B C11B 1_555 1_555

#END
