
#######################################################################
#
#                 Cambridge Crystallographic Data Centre
#                                CCDC 
#
#######################################################################
#
# If this CIF has been generated from an entry in the Cambridge 
# Structural Database, then it will include bibliographic, chemical, 
# crystal, experimental, refinement or atomic coordinate data resulting 
# from the CCDC's data processing and validation procedures.
#
#######################################################################

data_GIRFIZ
_chemical_formula_moiety         'C23 H16 Br1 N3 O3'
_chemical_name_systematic        
8-bromo-4-(4-nitrophenyl)-3-phenyl-3,4-dihydropyrido[1,2-a]benzimidazol-1(2H)-one
_symmetry_cell_setting           monoclinic
_symmetry_space_group_name_H-M   'P 21'
_symmetry_Int_Tables_number      4
_space_group_name_Hall           'P 2yb'
loop_
_symmetry_equiv_pos_site_id
_symmetry_equiv_pos_as_xyz
1 x,y,z
2 -x,1/2+y,-z
_cell_length_a                   5.73550(10)
_cell_length_b                   16.4707(3)
_cell_length_c                   10.5767(2)
_cell_angle_alpha                90
_cell_angle_beta                 105.4810(9)
_cell_angle_gamma                90
_cell_volume                     962.906
_exptl_crystal_colour            'light yellow'
_exptl_crystal_description       block
_cell_formula_units_Z            2
loop_
_atom_site_label
_atom_site_type_symbol
_atom_site_fract_x
_atom_site_fract_y
_atom_site_fract_z
Br1 Br -0.99868(4) 0.31881(2) 0.47750(2)
C1 C -0.1635(5) 0.47155(15) 0.8575(3)
C2 C 0.0634(5) 0.50336(15) 0.9506(3)
H1 H 0.024584 0.553385 0.992727
H2 H 0.180434 0.517943 0.900406
C3 C 0.1819(5) 0.44181(15) 1.0577(3)
H3 H 0.059757 0.425602 1.10503
C4 C 0.2497(5) 0.36524(15) 0.9888(2)
H4 H 0.367068 0.382721 0.939137
C5 C 0.0272(4) 0.33416(13) 0.8903(2)
C6 C -0.3361(5) 0.34173(15) 0.7452(2)
C7 C -0.2483(5) 0.26236(15) 0.7623(3)
C8 C -0.3859(5) 0.19879(16) 0.6934(3)
H5 H -0.328783 0.14441 0.703976
C9 C -0.6091(5) 0.21768(16) 0.6090(3)
H6 H -0.707585 0.175694 0.560942
C10 C -0.6897(5) 0.29765(15) 0.5941(3)
C11 C -0.5595(5) 0.36269(15) 0.6606(3)
H7 H -0.617314 0.416975 0.649529
C12 C 0.4008(5) 0.47655(15) 1.1571(3)
C13 C 0.5724(5) 0.52285(17) 1.1181(3)
H8 H 0.549167 0.53556 1.027961
C14 C 0.7778(5) 0.55060(18) 1.2104(3)
H9 H 0.893812 0.582299 1.182927
C15 C 0.8142(6) 0.5324(2) 1.3417(3)
H10 H 0.957858 0.549639 1.403808
C16 C 0.6408(5) 0.48884(18) 1.3826(3)
H11 H 0.662333 0.477702 1.473113
C17 C 0.4347(5) 0.46155(17) 1.2901(3)
H12 H 0.315205 0.432171 1.318375
C18 C 0.3691(4) 0.29838(14) 1.0818(2)
C19 C 0.2710(5) 0.27175(16) 1.1820(3)
H13 H 0.126686 0.29603 1.191937
C20 C 0.3804(5) 0.21054(17) 1.2673(3)
H14 H 0.312634 0.192345 1.335038
C21 C 0.5912(5) 0.17673(14) 1.2510(3)
C22 C 0.6918(5) 0.20034(16) 1.1518(3)
H15 H 0.834757 0.175261 1.141538
C23 C 0.5786(5) 0.26166(16) 1.0675(3)
H16 H 0.64545 0.278766 0.998818
N1 N -0.1552(4) 0.38849(13) 0.8287(2)
N2 N -0.0218(4) 0.25943(13) 0.8540(2)
N3 N 0.7118(4) 0.11343(14) 1.3431(2)
O1 O -0.3425(4) 0.51072(12) 0.8092(2)
O2 O 0.6272(4) 0.09468(12) 1.4331(2)
O3 O 0.8963(4) 0.08204(14) 1.3252(2)
loop_
_geom_bond_atom_site_label_1
_geom_bond_atom_site_label_2
_geom_bond_site_symmetry_1
_geom_bond_site_symmetry_2
Br1 C10 1_555 1_555
C1 C2 1_555 1_555
C2 H1 1_555 1_555
H2 C2 1_555 1_555
C3 C2 1_555 1_555
H3 C3 1_555 1_555
C4 C3 1_555 1_555
H4 C4 1_555 1_555
C5 C4 1_555 1_555
C6 C7 1_555 1_555
C7 C8 1_555 1_555
C8 H5 1_555 1_555
C9 C8 1_555 1_555
H6 C9 1_555 1_555
C10 C9 1_555 1_555
C11 C6 1_555 1_555
H7 C11 1_555 1_555
C12 C3 1_555 1_555
C13 C12 1_555 1_555
H8 C13 1_555 1_555
C14 C13 1_555 1_555
H9 C14 1_555 1_555
C15 C14 1_555 1_555
H10 C15 1_555 1_555
C16 C15 1_555 1_555
H11 C16 1_555 1_555
C17 C12 1_555 1_555
H12 C17 1_555 1_555
C18 C4 1_555 1_555
C19 C18 1_555 1_555
H13 C19 1_555 1_555
C20 C19 1_555 1_555
H14 C20 1_555 1_555
C21 C20 1_555 1_555
C22 C21 1_555 1_555
H15 C22 1_555 1_555
C23 C18 1_555 1_555
H16 C23 1_555 1_555
N1 C1 1_555 1_555
N2 C5 1_555 1_555
N3 C21 1_555 1_555
O1 C1 1_555 1_555
O2 N3 1_555 1_555
O3 N3 1_555 1_555
C5 N1 1_555 1_555
C6 N1 1_555 1_555
C7 N2 1_555 1_555
C10 C11 1_555 1_555
C16 C17 1_555 1_555
C22 C23 1_555 1_555

#END
