
#######################################################################
#
#                 Cambridge Crystallographic Data Centre
#                                CCDC 
#
#######################################################################
#
# If this CIF has been generated from an entry in the Cambridge 
# Structural Database, then it will include bibliographic, chemical, 
# crystal, experimental, refinement or atomic coordinate data resulting 
# from the CCDC's data processing and validation procedures.
#
#######################################################################

data_GIRGAR
_chemical_formula_moiety         'C21 H15 F1 N2 O6'
_chemical_name_systematic        
'2-((2-Methoxy-4-nitrophenyl)carbamoyl)phenyl 4-fluorobenzoate'
_symmetry_cell_setting           monoclinic
_symmetry_space_group_name_H-M   'P 21/c'
_symmetry_Int_Tables_number      14
_space_group_name_Hall           '-P 2ybc'
loop_
_symmetry_equiv_pos_site_id
_symmetry_equiv_pos_as_xyz
1 x,y,z
2 -x,1/2+y,1/2-z
3 -x,-y,-z
4 x,1/2-y,1/2+z
_cell_length_a                   7.6453(15)
_cell_length_b                   14.323(3)
_cell_length_c                   17.035(3)
_cell_angle_alpha                90
_cell_angle_beta                 89.740(3)
_cell_angle_gamma                90
_cell_volume                     1865.38
_cell_formula_units_Z            4
loop_
_atom_site_label
_atom_site_type_symbol
_atom_site_fract_x
_atom_site_fract_y
_atom_site_fract_z
C1 C 0.3648(3) 0.61455(15) 0.60981(14)
C2 C 0.3847(3) 0.52057(16) 0.62819(14)
H1 H 0.4365 0.5021 0.6750
C3 C 0.3254(3) 0.45562(14) 0.57481(13)
C4 C 0.2512(3) 0.48373(14) 0.50338(12)
C5 C 0.2311(3) 0.57893(15) 0.48797(14)
H2 H 0.1797 0.5984 0.4414
C6 C 0.2880(3) 0.64441(15) 0.54223(15)
H3 H 0.2739 0.7079 0.5326
C7 C 0.4117(5) 0.32683(19) 0.65623(16)
H4 H 0.5316 0.3466 0.6586
H5 H 0.4066 0.2599 0.6567
H6 H 0.3490 0.3510 0.7007
C8 C 0.1340(3) 0.42064(15) 0.37870(14)
C9 C 0.0777(3) 0.33466(15) 0.33570(13)
C10 C -0.0082(4) 0.34968(19) 0.26453(15)
H7 H -0.0255 0.4107 0.2477
C11 C -0.0683(4) 0.2777(2) 0.21848(17)
H8 H -0.1242 0.2900 0.1712
C12 C -0.0441(4) 0.1866(2) 0.24362(18)
H9 H -0.0854 0.1371 0.2136
C13 C 0.0410(4) 0.16952(17) 0.31301(17)
H10 H 0.0594 0.1082 0.3290
C14 C 0.0996(3) 0.24199(15) 0.35939(14)
C15 C 0.1298(3) 0.16183(15) 0.48192(14)
C16 C 0.2690(3) 0.12014(14) 0.53127(13)
C17 C 0.4457(3) 0.13549(14) 0.51711(14)
H11 H 0.4797 0.1748 0.4764
C18 C 0.5717(3) 0.09282(17) 0.56295(15)
H12 H 0.6901 0.1035 0.5540
C19 C 0.5167(4) 0.03436(18) 0.62184(15)
C20 C 0.3442(4) 0.0169(2) 0.63716(18)
H13 H 0.3113 -0.0231 0.6776
C21 C 0.2197(3) 0.06006(18) 0.59111(15)
H14 H 0.1017 0.0487 0.6004
F1 F 0.6399(3) -0.00857(14) 0.66612(12)
N1 N 0.4300(3) 0.68328(15) 0.66675(13)
N2 N 0.1994(2) 0.41233(12) 0.45221(11)
H15 H 0.2105 0.3563 0.4696
O1 O 0.4092(3) 0.76634(13) 0.65203(13)
O2 O 0.5026(4) 0.65558(17) 0.72581(16)
O3 O 0.3339(2) 0.36126(11) 0.58525(10)
O4 O 0.1229(5) 0.49595(13) 0.34574(14)
O5 O 0.1985(2) 0.22177(10) 0.42649(10)
O6 O -0.0236(2) 0.14788(17) 0.48709(14)
loop_
_geom_bond_atom_site_label_1
_geom_bond_atom_site_label_2
_geom_bond_site_symmetry_1
_geom_bond_site_symmetry_2
C1 C2 1_555 1_555
C2 H1 1_555 1_555
C3 C2 1_555 1_555
C4 C3 1_555 1_555
C5 C4 1_555 1_555
H2 C5 1_555 1_555
C6 C1 1_555 1_555
H3 C6 1_555 1_555
C7 H4 1_555 1_555
H5 C7 1_555 1_555
H6 C7 1_555 1_555
C8 C9 1_555 1_555
C9 C10 1_555 1_555
C10 H7 1_555 1_555
C11 C10 1_555 1_555
H8 C11 1_555 1_555
C12 C11 1_555 1_555
H9 C12 1_555 1_555
C13 C12 1_555 1_555
H10 C13 1_555 1_555
C14 C9 1_555 1_555
C15 C16 1_555 1_555
C16 C17 1_555 1_555
C17 H11 1_555 1_555
C18 C17 1_555 1_555
H12 C18 1_555 1_555
C19 C18 1_555 1_555
C20 C19 1_555 1_555
H13 C20 1_555 1_555
C21 C16 1_555 1_555
H14 C21 1_555 1_555
F1 C19 1_555 1_555
N1 C1 1_555 1_555
N2 C4 1_555 1_555
H15 N2 1_555 1_555
O1 N1 1_555 1_555
O2 N1 1_555 1_555
O3 C3 1_555 1_555
O4 C8 1_555 1_555
O5 C14 1_555 1_555
O6 C15 1_555 1_555
C5 C6 1_555 1_555
C7 O3 1_555 1_555
C8 N2 1_555 1_555
C13 C14 1_555 1_555
C15 O5 1_555 1_555
C20 C21 1_555 1_555

#END
