
#######################################################################
#
#                 Cambridge Crystallographic Data Centre
#                                CCDC 
#
#######################################################################
#
# If this CIF has been generated from an entry in the Cambridge 
# Structural Database, then it will include bibliographic, chemical, 
# crystal, experimental, refinement or atomic coordinate data resulting 
# from the CCDC's data processing and validation procedures.
#
#######################################################################

data_GIRQUW
_chemical_formula_moiety         'C9 H11 I1 O2'
_chemical_name_systematic        
6-iodo-3-methylhexahydro-2H-3,5-methanocyclopenta[b]furan-2-one
_symmetry_cell_setting           orthorhombic
_symmetry_space_group_name_H-M   'P b c a'
_symmetry_Int_Tables_number      61
_space_group_name_Hall           '-P 2ac 2ab'
loop_
_symmetry_equiv_pos_site_id
_symmetry_equiv_pos_as_xyz
1 x,y,z
2 1/2-x,-y,1/2+z
3 -x,1/2+y,1/2-z
4 1/2+x,1/2-y,-z
5 -x,-y,-z
6 1/2+x,y,1/2-z
7 x,1/2-y,1/2+z
8 1/2-x,1/2+y,z
_cell_length_a                   6.5590(9)
_cell_length_b                   10.8981(18)
_cell_length_c                   25.327(4)
_cell_angle_alpha                90
_cell_angle_beta                 90
_cell_angle_gamma                90
_cell_volume                     1810.39
_exptl_crystal_colour            colorless
_exptl_crystal_description       prism
_cell_formula_units_Z            8
_exptl_crystal_recrystallization_method 'hexane/ethyl acetate/dichloromethane'
loop_
_atom_site_label
_atom_site_type_symbol
_atom_site_fract_x
_atom_site_fract_y
_atom_site_fract_z
I1 I 0.85215(4) 0.66194(3) 0.467840(10)
O1 O 0.7469(5) 0.4082(3) 0.34546(10)
O2 O 0.5388(5) 0.2665(3) 0.31099(12)
C1 C 0.6690(6) 0.5328(4) 0.42349(15)
H1 H 0.6856 0.4483 0.4383
C2 C 0.7268(7) 0.5336(4) 0.36418(16)
H2 H 0.8516 0.5837 0.3570
C3 C 0.5363(6) 0.5866(4) 0.33709(16)
H3 H 0.5603 0.6270 0.3022
C4 C 0.4059(6) 0.4684(4) 0.33558(16)
C5 C 0.3290(6) 0.4633(4) 0.39454(15)
H4 H 0.1797 0.4757 0.3964
H5 H 0.3630 0.3833 0.4109
C6 C 0.4419(6) 0.5680(4) 0.42228(16)
H6 H 0.3834 0.5929 0.4571
C7 C 0.4363(6) 0.6678(5) 0.37949(15)
H7 H 0.5196 0.7405 0.3886
H8 H 0.2959 0.6931 0.3701
C8 C 0.5615(7) 0.3689(4) 0.32806(16)
C9 C 0.2369(7) 0.4647(5) 0.29460(16)
H9 H 0.2969 0.4623 0.2592
H10 H 0.1515 0.5381 0.2981
H11 H 0.1532 0.3913 0.3001
loop_
_geom_bond_atom_site_label_1
_geom_bond_atom_site_label_2
_geom_bond_site_symmetry_1
_geom_bond_site_symmetry_2
I1 C1 1_555 1_555
O1 C2 1_555 1_555
O2 C8 1_555 1_555
C1 H1 1_555 1_555
C2 C1 1_555 1_555
H2 C2 1_555 1_555
C3 C2 1_555 1_555
H3 C3 1_555 1_555
C4 C3 1_555 1_555
C5 C4 1_555 1_555
H4 C5 1_555 1_555
H5 C5 1_555 1_555
C6 C1 1_555 1_555
H6 C6 1_555 1_555
C7 C3 1_555 1_555
H7 C7 1_555 1_555
H8 C7 1_555 1_555
C8 O1 1_555 1_555
C9 C4 1_555 1_555
H9 C9 1_555 1_555
H10 C9 1_555 1_555
H11 C9 1_555 1_555
C4 C8 1_555 1_555
C5 C6 1_555 1_555
C6 C7 1_555 1_555

#END
