
#######################################################################
#
#                 Cambridge Crystallographic Data Centre
#                                CCDC 
#
#######################################################################
#
# If this CIF has been generated from an entry in the Cambridge 
# Structural Database, then it will include bibliographic, chemical, 
# crystal, experimental, refinement or atomic coordinate data resulting 
# from the CCDC's data processing and validation procedures.
#
#######################################################################

data_GIRQII
_chemical_name_common            3alpha,6alpha-bis(Ethoxycarbonyl)glycoluril
_chemical_formula_moiety         'C10 H14 N4 O6'
_chemical_name_systematic        
'Diethyl 2,5-dioxoperhydroimidazo(4,5-d)imidazole-3a,6a-dicarboxylate'
_symmetry_cell_setting           orthorhombic
_symmetry_space_group_name_H-M   'P b c a'
_symmetry_Int_Tables_number      61
_space_group_name_Hall           '-P 2ac 2ab'
loop_
_symmetry_equiv_pos_site_id
_symmetry_equiv_pos_as_xyz
1 x,y,z
2 1/2-x,-y,1/2+z
3 -x,1/2+y,1/2-z
4 1/2+x,1/2-y,-z
5 -x,-y,-z
6 1/2+x,y,1/2-z
7 x,1/2-y,1/2+z
8 1/2-x,1/2+y,z
_cell_length_a                   15.7555(13)
_cell_length_b                   11.2726(9)
_cell_length_c                   28.742(2)
_cell_angle_alpha                90
_cell_angle_beta                 90
_cell_angle_gamma                90
_cell_volume                     5104.74
_exptl_crystal_colour            colorless
_exptl_crystal_description       block
_cell_formula_units_Z            16
_exptl_crystal_recrystallization_method methanol
loop_
_atom_site_label
_atom_site_type_symbol
_atom_site_fract_x
_atom_site_fract_y
_atom_site_fract_z
C1 C 0.04208(19) 0.0660(3) 0.18565(10)
C2 C -0.0170(2) 0.4006(3) 0.18911(10)
C3 C 0.0813(2) 0.2558(2) 0.21072(10)
C4 C 0.1717(2) 0.2877(3) 0.22674(12)
C5 C 0.3149(3) 0.2426(8) 0.2249(3)
H1 H 0.3278 0.2316 0.2576
H2 H 0.3233 0.3254 0.2170
C6 C 0.3700(4) 0.1644(8) 0.1953(4)
H3 H 0.3601 0.0828 0.2033
H4 H 0.4286 0.1835 0.2007
H5 H 0.3566 0.1767 0.1631
C9 C 0.0685(2) 0.2544(2) 0.15577(10)
C10 C 0.1431(2) 0.2921(3) 0.12516(13)
C11 C 0.2477(3) 0.4440(4) 0.11294(16)
H11 H 0.2828 0.4932 0.1329
H12 H 0.2830 0.3815 0.1001
C12 C 0.2119(3) 0.5147(4) 0.07577(17)
H13 H 0.1835 0.4638 0.0540
H14 H 0.2565 0.5569 0.0601
H15 H 0.1721 0.5704 0.0885
N1 N 0.05846(16) 0.1358(2) 0.22301(8)
H26 H 0.0555 0.1110 0.2513
N2 N 0.04634(17) 0.1327(2) 0.14663(8)
H27 H 0.0368 0.1053 0.1192
N3 N 0.02328(17) 0.3466(2) 0.22512(9)
H28 H 0.0148 0.3650 0.2538
N4 N 0.00082(17) 0.3390(2) 0.14951(9)
H29 H -0.0254 0.3495 0.1236
O1 O 0.02606(15) -0.04068(18) 0.18682(7)
O2 O -0.06149(16) 0.48901(19) 0.19152(7)
O3 O 0.18984(19) 0.3785(3) 0.24553(10)
O4 O 0.22562(15) 0.2053(3) 0.21459(10)
O5 O 0.17702(17) 0.3914(2) 0.14036(9)
O6 O 0.1614(3) 0.2417(2) 0.09063(13)
C13 C 0.4936(2) 0.4078(3) 0.06138(11)
C14 C 0.52703(19) 0.0688(3) 0.06489(10)
C15 C 0.56575(19) 0.2511(2) 0.09612(10)
C16 C 0.6371(2) 0.2861(3) 0.12889(12)
C17 C 0.7460(3) 0.4299(4) 0.14264(16)
H16 H 0.7656 0.3726 0.1654
H17 H 0.7944 0.4544 0.1241
C18 C 0.7102(3) 0.5323(4) 0.16631(17)
H18 H 0.6913 0.5892 0.1437
H19 H 0.7526 0.5678 0.1858
H20 H 0.6629 0.5076 0.1850
C19 C 0.5822(2) 0.2525(2) 0.04197(10)
C20 C 0.6762(2) 0.2567(3) 0.02697(11)
C21 C 0.8066(2) 0.1494(4) 0.02685(19)
H21 H 0.8121 0.1722 -0.0056
H22 H 0.8237 0.0671 0.0296
C22 C 0.8641(3) 0.2246(4) 0.05570(17)
H23 H 0.8512 0.3068 0.0505
H24 H 0.9220 0.2094 0.0471
H25 H 0.8561 0.2060 0.0880
N5 N 0.49893(16) 0.3389(2) 0.09994(9)
H30 H 0.4665 0.3463 0.1238
N6 N 0.53960(17) 0.3573(2) 0.02693(9)
H31 H 0.5428 0.3853 -0.0009
N7 N 0.54036(16) 0.1301(2) 0.10487(8)
H32 H 0.5344 0.1003 0.1322
N8 N 0.54353(16) 0.1409(2) 0.02829(8)
H33 H 0.5323 0.1225 -0.0001
O7 O 0.45447(16) 0.50226(19) 0.05859(8)
O8 O 0.50442(15) -0.03524(18) 0.06237(7)
O9 O 0.6426(2) 0.2439(2) 0.16701(10)
O10 O 0.68161(17) 0.3742(2) 0.11215(9)
O11 O 0.70598(17) 0.3366(2) 0.00593(10)
O12 O 0.71686(14) 0.1612(2) 0.04116(10)
C7? C 0.3127(6) 0.169(2) 0.2260(7)
H6? H 0.3173 0.0833 0.2257
H7? H 0.3278 0.1970 0.2569
C8? C 0.3725(8) 0.223(2) 0.1899(9)
H8? H 0.3641 0.1839 0.1605
H9? H 0.4302 0.2122 0.1997
H10? H 0.3607 0.3059 0.1866
loop_
_geom_bond_atom_site_label_1
_geom_bond_atom_site_label_2
_geom_bond_site_symmetry_1
_geom_bond_site_symmetry_2
C1 N1 1_555 1_555
C2 N3 1_555 1_555
C3 C4 1_555 1_555
C4 O3 1_555 1_555
C5 H1 1_555 1_555
H2 C5 1_555 1_555
C6 C5 1_555 1_555
H3 C6 1_555 1_555
H4 C6 1_555 1_555
H5 C6 1_555 1_555
C9 C3 1_555 1_555
C10 C9 1_555 1_555
C11 H11 1_555 1_555
H12 C11 1_555 1_555
C12 C11 1_555 1_555
H13 C12 1_555 1_555
H14 C12 1_555 1_555
H15 C12 1_555 1_555
C13 N5 1_555 1_555
C14 N7 1_555 1_555
C15 C16 1_555 1_555
C16 O9 1_555 1_555
C17 H16 1_555 1_555
H17 C17 1_555 1_555
C18 C17 1_555 1_555
H18 C18 1_555 1_555
H19 C18 1_555 1_555
H20 C18 1_555 1_555
C19 C15 1_555 1_555
C20 C19 1_555 1_555
C21 H21 1_555 1_555
H22 C21 1_555 1_555
C22 C21 1_555 1_555
H23 C22 1_555 1_555
H24 C22 1_555 1_555
H25 C22 1_555 1_555
N1 C3 1_555 1_555
H26 N1 1_555 1_555
N2 C1 1_555 1_555
H27 N2 1_555 1_555
N3 C3 1_555 1_555
H28 N3 1_555 1_555
N4 C2 1_555 1_555
H29 N4 1_555 1_555
N5 C15 1_555 1_555
H30 N5 1_555 1_555
N6 C13 1_555 1_555
H31 N6 1_555 1_555
N7 C15 1_555 1_555
H32 N7 1_555 1_555
N8 C14 1_555 1_555
H33 N8 1_555 1_555
O1 C1 1_555 1_555
O2 C2 1_555 1_555
O4 C4 1_555 1_555
O5 C10 1_555 1_555
O6 C10 1_555 1_555
O7 C13 1_555 1_555
O8 C14 1_555 1_555
O10 C16 1_555 1_555
O11 C20 1_555 1_555
O12 C20 1_555 1_555
C5 O4 1_555 1_555
C9 N2 1_555 1_555
C9 N4 1_555 1_555
C11 O5 1_555 1_555
C17 O10 1_555 1_555
C19 N6 1_555 1_555
C19 N8 1_555 1_555
C21 O12 1_555 1_555

#END
