
#######################################################################
#
#                 Cambridge Crystallographic Data Centre
#                                CCDC 
#
#######################################################################
#
# If this CIF has been generated from an entry in the Cambridge 
# Structural Database, then it will include bibliographic, chemical, 
# crystal, experimental, refinement or atomic coordinate data resulting 
# from the CCDC's data processing and validation procedures.
#
#######################################################################

data_GIRQOQ
_chemical_formula_moiety         'C9 H12 O2'
_chemical_name_systematic        
'2-methylbicyclo[2.2.1]hept-5-ene-2-carboxylic acid'
_symmetry_cell_setting           monoclinic
_symmetry_space_group_name_H-M   'P 21/c'
_symmetry_Int_Tables_number      14
_space_group_name_Hall           '-P 2ybc'
loop_
_symmetry_equiv_pos_site_id
_symmetry_equiv_pos_as_xyz
1 x,y,z
2 -x,1/2+y,1/2-z
3 -x,-y,-z
4 x,1/2-y,1/2+z
_cell_length_a                   7.2796(2)
_cell_length_b                   5.6988(2)
_cell_length_c                   18.7798(5)
_cell_angle_alpha                90
_cell_angle_beta                 98.213(2)
_cell_angle_gamma                90
_cell_volume                     771.089
_exptl_crystal_colour            colorless
_exptl_crystal_description       plate
_cell_formula_units_Z            4
loop_
_atom_site_label
_atom_site_type_symbol
_atom_site_fract_x
_atom_site_fract_y
_atom_site_fract_z
O1 O 0.42423(10) 0.88740(13) 0.40893(4)
H1 H 0.403(2) 0.994(3) 0.4415(8)
O2 O 0.64051(10) 0.77972(13) 0.49919(4)
C1 C 0.61943(13) 0.57020(17) 0.38584(5)
C2 C 0.75192(13) 0.69850(17) 0.33775(5)
H2 H 0.7095 0.8559 0.3184
C3 C 0.79199(14) 0.51798(19) 0.28247(5)
H3 H 0.7458 0.5198 0.2325
C4 C 0.90400(14) 0.35644(19) 0.31697(6)
H4 H 0.9528 0.2228 0.2959
C5 C 0.93933(14) 0.42469(18) 0.39574(5)
H5 H 1.0523 0.3550 0.4246
C6 C 0.75235(13) 0.38266(17) 0.42533(5)
H6 H 0.7051 0.2221 0.4139
H7 H 0.7675 0.4057 0.4781
C7 C 0.93742(13) 0.69427(18) 0.38876(6)
H8 H 0.9309 0.7751 0.4350
H9 H 1.0425 0.7556 0.3662
C8 C 0.56319(13) 0.75210(17) 0.43747(5)
C9 C 0.44635(13) 0.46667(18) 0.34086(5)
H10 H 0.3625 0.4057 0.3729
H11 H 0.4829 0.3389 0.3109
H12 H 0.3829 0.5891 0.3100
loop_
_geom_bond_atom_site_label_1
_geom_bond_atom_site_label_2
_geom_bond_site_symmetry_1
_geom_bond_site_symmetry_2
O1 H1 1_555 1_555
O2 C8 1_555 1_555
C1 C2 1_555 1_555
C2 H2 1_555 1_555
C3 C2 1_555 1_555
H3 C3 1_555 1_555
C4 C3 1_555 1_555
H4 C4 1_555 1_555
C5 C4 1_555 1_555
H5 C5 1_555 1_555
C6 C1 1_555 1_555
H6 C6 1_555 1_555
H7 C6 1_555 1_555
C7 C2 1_555 1_555
H8 C7 1_555 1_555
H9 C7 1_555 1_555
C8 O1 1_555 1_555
C9 C1 1_555 1_555
H10 C9 1_555 1_555
H11 C9 1_555 1_555
H12 C9 1_555 1_555
C1 C8 1_555 1_555
C5 C6 1_555 1_555
C5 C7 1_555 1_555

#END
