
#######################################################################
#
#                 Cambridge Crystallographic Data Centre
#                                CCDC 
#
#######################################################################
#
# If this CIF has been generated from an entry in the Cambridge 
# Structural Database, then it will include bibliographic, chemical, 
# crystal, experimental, refinement or atomic coordinate data resulting 
# from the CCDC's data processing and validation procedures.
#
#######################################################################

data_GIRWUB
_chemical_formula_moiety         'C23 H19 B1 F2 O2'
_chemical_name_systematic        
difluoro-(1,10-diphenyl-7-oxoundeca-1,3,5,8,10-pentaen-5-olato)-boron
_symmetry_cell_setting           monoclinic
_symmetry_space_group_name_H-M   'C 2/c'
_symmetry_Int_Tables_number      15
_space_group_name_Hall           '-C 2yn'
loop_
_symmetry_equiv_pos_site_id
_symmetry_equiv_pos_as_xyz
1 x,y,z
2 -x,y,1/2-z
3 1/2+x,1/2+y,z
4 1/2-x,1/2+y,1/2-z
5 -x,-y,-z
6 x,-y,1/2+z
7 1/2-x,1/2-y,-z
8 1/2+x,1/2-y,1/2+z
_cell_length_a                   16.957(2)
_cell_length_b                   11.8082(16)
_cell_length_c                   9.9913(14)
_cell_angle_alpha                90
_cell_angle_beta                 95.180(2)
_cell_angle_gamma                90
_cell_volume                     1992.4
_exptl_crystal_colour            red
_exptl_crystal_description       block
_cell_formula_units_Z            4
loop_
_atom_site_label
_atom_site_type_symbol
_atom_site_fract_x
_atom_site_fract_y
_atom_site_fract_z
C1 C 0.31136(12) 0.9417(2) 0.77497(19)
C2 C 0.41567(16) 0.9727(3) 0.6313(2)
H1 H 0.4519 1.0213 0.5967
C3 C 0.36586(14) 1.0126(2) 0.7217(2)
H2 H 0.3687 1.0883 0.7476
C4 C 0.30882(16) 0.8312(2) 0.7338(3)
H3 H 0.2726 0.7819 0.7673
C5 C 0.41225(16) 0.8631(3) 0.5923(3)
H4 H 0.4459 0.8362 0.5310
C6 C 0.3589(2) 0.7921(3) 0.6438(3)
H5 H 0.3565 0.7165 0.6175
C7 C 0.20570(12) 0.9335(2) 0.9341(2)
H6 H 0.1996 0.8559 0.9205
C8 C 0.10130(12) 0.9380(2) 1.08917(17)
H7 H 0.0957 0.8599 1.0805
C9 C 0.15636(12) 0.9894(2) 1.02318(18)
H8 H 0.1632 1.0669 1.0359
C10 C 0.25988(13) 0.9880(2) 0.8702(2)
H9 H 0.2655 1.0650 0.8886
C11 C 0.0000 0.9394(3) 1.2500
H10 H 0.0000 0.8606 1.2500
O1 O 0.05256(8) 1.10657(14) 1.17352(14)
C12 C 0.05021(11) 0.99731(19) 1.17300(18)
B1 B 0.0000 1.1763(3) 1.2500
F1 F -0.04585(9) 1.24176(12) 1.16120(14)
C1A C -0.31136(12) 0.9417(2) 1.72503(19)
C2A C -0.41567(16) 0.9727(3) 1.8687(2)
H1A H -0.4519 1.0213 1.9033
C3A C -0.36586(14) 1.0126(2) 1.7783(2)
H2A H -0.3687 1.0883 1.7524
C4A C -0.30882(16) 0.8312(2) 1.7662(3)
H3A H -0.2726 0.7819 1.7327
C5A C -0.41225(16) 0.8631(3) 1.9077(3)
H4A H -0.4459 0.8362 1.9690
C6A C -0.3589(2) 0.7921(3) 1.8562(3)
H5A H -0.3565 0.7165 1.8825
C7A C -0.20570(12) 0.9335(2) 1.5659(2)
H6A H -0.1996 0.8559 1.5795
C8A C -0.10130(12) 0.9380(2) 1.41083(17)
H7A H -0.0957 0.8599 1.4195
C9A C -0.15636(12) 0.9894(2) 1.47682(18)
H8A H -0.1632 1.0669 1.4641
C10A C -0.25988(13) 0.9880(2) 1.6298(2)
H9A H -0.2655 1.0650 1.6114
O1A O -0.05256(8) 1.10657(14) 1.32648(14)
C12A C -0.05021(11) 0.99731(19) 1.32700(18)
F1A F 0.04585(9) 1.24176(12) 1.33880(14)
loop_
_geom_bond_atom_site_label_1
_geom_bond_atom_site_label_2
_geom_bond_site_symmetry_1
_geom_bond_site_symmetry_2
C1 C3 1_555 1_555
C2 H1 1_555 1_555
C3 C2 1_555 1_555
H2 C3 1_555 1_555
C4 C1 1_555 1_555
H3 C4 1_555 1_555
C5 C2 1_555 1_555
H4 C5 1_555 1_555
C6 C4 1_555 1_555
H5 C6 1_555 1_555
C7 H6 1_555 1_555
C8 H7 1_555 1_555
C9 C7 1_555 1_555
H8 C9 1_555 1_555
C10 C1 1_555 1_555
H9 C10 1_555 1_555
C11 H10 1_555 1_555
O1 C12 1_555 1_555
C12 C8 1_555 1_555
B1 O1 1_555 1_555
F1 B1 1_555 1_555
C1A C3A 1_555 1_555
C2A H1A 1_555 1_555
C3A C2A 1_555 1_555
H2A C3A 1_555 1_555
C4A C1A 1_555 1_555
H3A C4A 1_555 1_555
C5A C2A 1_555 1_555
H4A C5A 1_555 1_555
C6A C4A 1_555 1_555
H5A C6A 1_555 1_555
C7A H6A 1_555 1_555
C8A H7A 1_555 1_555
C9A C7A 1_555 1_555
H8A C9A 1_555 1_555
C10A C1A 1_555 1_555
H9A C10A 1_555 1_555
O1A B1 1_555 1_555
C12A C11 1_555 1_555
F1A B1 1_555 1_555
C5 C6 1_555 1_555
C7 C10 1_555 1_555
C8 C9 1_555 1_555
C11 C12 1_555 1_555
C5A C6A 1_555 1_555
C7A C10A 1_555 1_555
C8A C9A 1_555 1_555
C8A C12A 1_555 1_555
O1A C12A 1_555 1_555

#END
