
#######################################################################
#
#                 Cambridge Crystallographic Data Centre
#                                CCDC 
#
#######################################################################
#
# If this CIF has been generated from an entry in the Cambridge 
# Structural Database, then it will include bibliographic, chemical, 
# crystal, experimental, refinement or atomic coordinate data resulting 
# from the CCDC's data processing and validation procedures.
#
#######################################################################

data_GIRWAH
_chemical_formula_moiety         'C15 H15 N1 O6'
_chemical_name_systematic        
'trans-Methyl 5-(3-methoxy-3-oxoprop-1-en-2-yl)-4-phenyl-4,5-dihydro-1,2-oxazole-3-carboxylate 2-oxide'
_symmetry_cell_setting           triclinic
_symmetry_space_group_name_H-M   'P -1'
_symmetry_Int_Tables_number      2
_space_group_name_Hall           '-P 1'
loop_
_symmetry_equiv_pos_site_id
_symmetry_equiv_pos_as_xyz
1 x,y,z
2 -x,-y,-z
_cell_length_a                   6.3843(13)
_cell_length_b                   9.780(2)
_cell_length_c                   12.452(3)
_cell_angle_alpha                87.57(3)
_cell_angle_beta                 80.83(3)
_cell_angle_gamma                73.50(3)
_cell_volume                     735.936
_cell_formula_units_Z            2
loop_
_atom_site_label
_atom_site_type_symbol
_atom_site_fract_x
_atom_site_fract_y
_atom_site_fract_z
O1 O 0.16342(18) 0.76580(14) 0.49351(8)
O2 O 0.23957(19) 0.53783(14) 0.55381(10)
O3 O 0.2804(2) 0.34498(13) 0.37915(10)
O4 O 0.25758(19) 0.45652(13) 0.21635(10)
O5 O 0.4025(2) 0.79236(15) 0.02882(10)
O6 O 0.76851(19) 0.69110(14) 0.02106(10)
N1 N 0.2537(2) 0.46220(17) 0.33335(12)
C1 C 0.1452(3) 0.8163(2) 0.60282(14)
H1 H 0.0405 0.7795 0.6505
H2 H 0.0962 0.9186 0.6039
H3 H 0.2869 0.7844 0.6267
C2 C 0.2103(3) 0.6242(2) 0.48162(14)
C3 C 0.2185(3) 0.59411(18) 0.36562(13)
C4 C 0.1934(2) 0.69756(17) 0.27290(12)
H4 H 0.2961 0.7551 0.2741
C5 C -0.0400(3) 0.79924(18) 0.27357(12)
C6 C -0.0709(3) 0.9095(2) 0.19875(13)
H5 H 0.0487 0.9185 0.1484
C7 C -0.2768(3) 1.0068(2) 0.19759(14)
H6 H -0.2953 1.0788 0.1457
C8 C -0.4540(3) 0.9965(2) 0.27368(16)
H7 H -0.5916 1.0624 0.2743
C9 C -0.4257(3) 0.8878(2) 0.34884(16)
H8 H -0.5449 0.8807 0.4002
C10 C -0.2200(3) 0.7882(2) 0.34859(14)
H9 H -0.2034 0.7143 0.3988
C11 C 0.2822(3) 0.59299(18) 0.17441(13)
H10 H 0.1912 0.6250 0.1168
C12 C 0.5233(3) 0.5801(2) 0.12938(13)
C13 C 0.6900(3) 0.4758(2) 0.15473(15)
H11 H 0.8344 0.4743 0.1261
H12 H 0.6633 0.4037 0.2013
C14 C 0.5550(3) 0.6985(2) 0.05545(13)
C15 C 0.8088(3) 0.8036(2) -0.05277(15)
H13 H 0.7779 0.7872 -0.1233
H14 H 0.9605 0.8035 -0.0583
H15 H 0.7144 0.8942 -0.0254
loop_
_geom_bond_atom_site_label_1
_geom_bond_atom_site_label_2
_geom_bond_site_symmetry_1
_geom_bond_site_symmetry_2
O1 C1 1_555 1_555
O2 C2 1_555 1_555
O3 N1 1_555 1_555
O4 N1 1_555 1_555
O5 C14 1_555 1_555
O6 C14 1_555 1_555
N1 C3 1_555 1_555
C1 H1 1_555 1_555
H2 C1 1_555 1_555
H3 C1 1_555 1_555
C2 O1 1_555 1_555
C3 C2 1_555 1_555
C4 C3 1_555 1_555
H4 C4 1_555 1_555
C5 C4 1_555 1_555
C6 C5 1_555 1_555
H5 C6 1_555 1_555
C7 C6 1_555 1_555
H6 C7 1_555 1_555
C8 C7 1_555 1_555
H7 C8 1_555 1_555
C9 C8 1_555 1_555
H8 C9 1_555 1_555
C10 C5 1_555 1_555
H9 C10 1_555 1_555
C11 O4 1_555 1_555
H10 C11 1_555 1_555
C12 C11 1_555 1_555
C13 C12 1_555 1_555
H11 C13 1_555 1_555
H12 C13 1_555 1_555
C14 C12 1_555 1_555
C15 O6 1_555 1_555
H13 C15 1_555 1_555
H14 C15 1_555 1_555
H15 C15 1_555 1_555
C4 C11 1_555 1_555
C9 C10 1_555 1_555

#END
