
#######################################################################
#
#                 Cambridge Crystallographic Data Centre
#                                CCDC 
#
#######################################################################
#
# If this CIF has been generated from an entry in the Cambridge 
# Structural Database, then it will include bibliographic, chemical, 
# crystal, experimental, refinement or atomic coordinate data resulting 
# from the CCDC's data processing and validation procedures.
#
#######################################################################

data_GIRWOV
_chemical_formula_moiety         'C15 H11 B1 F2 O4'
_chemical_name_systematic        
difluoro-(1,7-bis(2-furyl)-5-oxohepta-1,3-dien-3-olato)-boron
_symmetry_cell_setting           monoclinic
_symmetry_space_group_name_H-M   'P 21/n'
_symmetry_Int_Tables_number      14
_space_group_name_Hall           '-P 2yn'
loop_
_symmetry_equiv_pos_site_id
_symmetry_equiv_pos_as_xyz
1 x,y,z
2 1/2-x,1/2+y,1/2-z
3 -x,-y,-z
4 1/2+x,1/2-y,1/2+z
_cell_length_a                   7.3288(7)
_cell_length_b                   19.338(2)
_cell_length_c                   10.3913(11)
_cell_angle_alpha                90
_cell_angle_beta                 103.1170(10)
_cell_angle_gamma                90
_cell_volume                     1434.28
_exptl_crystal_colour            red
_exptl_crystal_description       block
_cell_formula_units_Z            4
loop_
_atom_site_label
_atom_site_type_symbol
_atom_site_fract_x
_atom_site_fract_y
_atom_site_fract_z
B1 B 0.3000(5) 0.10469(14) 0.1235(3)
C1 C 0.6222(4) -0.25251(13) 0.4081(3)
H1 H 0.6221 -0.3002 0.3964
C2 C 0.6992(3) -0.22067(13) 0.5202(3)
H2 H 0.7618 -0.2411 0.5989
C3 C 0.6671(3) -0.15008(11) 0.4963(2)
H3 H 0.7042 -0.1144 0.5566
C4 C 0.5723(3) -0.14324(10) 0.36968(19)
C5 C 0.4997(3) -0.08412(10) 0.29451(19)
H4 H 0.5180 -0.0419 0.3384
C6 C 0.4076(3) -0.08218(10) 0.16720(19)
H5 H 0.3901 -0.1231 0.1189
C7 C 0.3353(3) -0.01896(10) 0.10333(19)
C8 C 0.2335(3) -0.01599(10) -0.02576(19)
H6 H 0.2087 -0.0564 -0.0751
C9 C 0.1680(3) 0.04652(10) -0.08234(19)
C10 C 0.0621(3) 0.05307(11) -0.21645(18)
H7 H 0.0302 0.0134 -0.2672
C11 C 0.0080(3) 0.11488(11) -0.27022(19)
H8 H 0.0423 0.1531 -0.2158
C12 C -0.0954(3) 0.12872(11) -0.40045(19)
C13 C -0.1507(3) 0.18880(12) -0.4630(2)
H9 H -0.1299 0.2329 -0.4271
C14 C -0.2455(3) 0.17235(14) -0.5924(2)
H10 H -0.2992 0.2033 -0.6587
C15 C -0.2434(3) 0.10425(15) -0.6016(2)
H11 H -0.2975 0.0795 -0.6774
F1 F 0.1753(4) 0.12499(13) 0.19404(16)
F2 F 0.4476(3) 0.14707(9) 0.1353(2)
O1 O 0.5434(2) -0.20673(8) 0.31202(15)
O2 O 0.3706(2) 0.03723(7) 0.17428(14)
O3 O 0.2008(2) 0.10377(7) -0.01499(14)
O4 O -0.1516(2) 0.07502(8) -0.48551(14)
loop_
_geom_bond_atom_site_label_1
_geom_bond_atom_site_label_2
_geom_bond_site_symmetry_1
_geom_bond_site_symmetry_2
B1 F1 1_555 1_555
C1 H1 1_555 1_555
C2 C1 1_555 1_555
H2 C2 1_555 1_555
C3 C2 1_555 1_555
H3 C3 1_555 1_555
C4 C3 1_555 1_555
C5 C4 1_555 1_555
H4 C5 1_555 1_555
C6 C5 1_555 1_555
H5 C6 1_555 1_555
C7 C6 1_555 1_555
C8 C7 1_555 1_555
H6 C8 1_555 1_555
C9 C8 1_555 1_555
C10 C9 1_555 1_555
H7 C10 1_555 1_555
C11 C10 1_555 1_555
H8 C11 1_555 1_555
C12 C11 1_555 1_555
C13 C12 1_555 1_555
H9 C13 1_555 1_555
C14 C13 1_555 1_555
H10 C14 1_555 1_555
C15 C14 1_555 1_555
H11 C15 1_555 1_555
F2 B1 1_555 1_555
O1 C1 1_555 1_555
O2 B1 1_555 1_555
O3 B1 1_555 1_555
O4 C12 1_555 1_555
C4 O1 1_555 1_555
C7 O2 1_555 1_555
C9 O3 1_555 1_555
C15 O4 1_555 1_555

#END
