
#######################################################################
#
#                 Cambridge Crystallographic Data Centre
#                                CCDC 
#
#######################################################################
#
# If this CIF has been generated from an entry in the Cambridge 
# Structural Database, then it will include bibliographic, chemical, 
# crystal, experimental, refinement or atomic coordinate data resulting 
# from the CCDC's data processing and validation procedures.
#
#######################################################################

data_GIRXIP
_chemical_formula_moiety         'C12 H9 N1 O4'
_chemical_name_systematic        'Methyl 2-(1,3-dioxoisoindolin-2-yl)acrylate'
_symmetry_cell_setting           triclinic
_symmetry_space_group_name_H-M   'P -1'
_symmetry_Int_Tables_number      2
_space_group_name_Hall           '-P 1'
loop_
_symmetry_equiv_pos_site_id
_symmetry_equiv_pos_as_xyz
1 x,y,z
2 -x,-y,-z
_cell_length_a                   6.5179(3)
_cell_length_b                   7.4817(4)
_cell_length_c                   11.7322(6)
_cell_angle_alpha                80.954(2)
_cell_angle_beta                 78.866(2)
_cell_angle_gamma                76.723(2)
_cell_volume                     542.518
_exptl_crystal_colour            colorless
_exptl_crystal_description       block
_cell_formula_units_Z            2
_exptl_crystal_recrystallization_method 'ethyl acetate'
loop_
_atom_site_label
_atom_site_type_symbol
_atom_site_fract_x
_atom_site_fract_y
_atom_site_fract_z
C1 C 0.3823(3) 0.8001(2) 0.03710(15)
C2 C 0.5949(3) 0.7126(2) 0.02643(15)
C3 C 0.7069(3) 0.6511(3) -0.07723(18)
H1 H 0.8502 0.5927 -0.0841
C4 C 0.5971(4) 0.6799(3) -0.17070(18)
H2 H 0.6677 0.6396 -0.2418
C5 C 0.2737(3) 0.8285(3) -0.05580(18)
H3 H 0.1303 0.8869 -0.0489
C6 C 0.3854(4) 0.7671(3) -0.15998(18)
H4 H 0.3157 0.7852 -0.2242
C7 C 0.6660(3) 0.6964(3) 0.14049(16)
C8 C 0.3091(3) 0.8473(2) 0.15854(16)
N1 N 0.4864(2) 0.7786(2) 0.21650(12)
C9 C 0.4784(3) 0.7876(3) 0.33739(16)
C10 C 0.2984(3) 0.7159(3) 0.41433(16)
C11 C 0.0631(4) 0.7296(4) 0.59378(18)
H5 H -0.0473 0.7213 0.5525
H6 H 0.0054 0.8140 0.6513
H7 H 0.1182 0.6097 0.6318
O1 O 0.2339(2) 0.7960(2) 0.51181(11)
O2 O 0.2230(3) 0.5971(3) 0.39155(13)
O3 O 0.1388(2) 0.9302(2) 0.20287(13)
O4 O 0.8377(2) 0.6270(2) 0.16799(13)
C12 C 0.6314(3) 0.8332(3) 0.3783(2)
H8 H 0.7511 0.8612 0.3274
H9 H 0.6198 0.8374 0.4582
loop_
_geom_bond_atom_site_label_1
_geom_bond_atom_site_label_2
_geom_bond_site_symmetry_1
_geom_bond_site_symmetry_2
C1 C2 1_555 1_555
C2 C3 1_555 1_555
C3 H1 1_555 1_555
C4 C3 1_555 1_555
H2 C4 1_555 1_555
C5 C1 1_555 1_555
H3 C5 1_555 1_555
C6 C4 1_555 1_555
H4 C6 1_555 1_555
C7 C2 1_555 1_555
C8 C1 1_555 1_555
N1 C7 1_555 1_555
C9 N1 1_555 1_555
C10 C9 1_555 1_555
C11 H5 1_555 1_555
H6 C11 1_555 1_555
H7 C11 1_555 1_555
O1 C10 1_555 1_555
O2 C10 1_555 1_555
O3 C8 1_555 1_555
O4 C7 1_555 1_555
C12 C9 1_555 1_555
H8 C12 1_555 1_555
H9 C12 1_555 1_555
C5 C6 1_555 1_555
C8 N1 1_555 1_555
C11 O1 1_555 1_555

#END
