
#######################################################################
#
#                 Cambridge Crystallographic Data Centre
#                                CCDC 
#
#######################################################################
#
# If this CIF has been generated from an entry in the Cambridge 
# Structural Database, then it will include bibliographic, chemical, 
# crystal, experimental, refinement or atomic coordinate data resulting 
# from the CCDC's data processing and validation procedures.
#
#######################################################################

data_GIRYUE
_chemical_compound_source        synthesis
_chemical_formula_moiety         'C45 H67 N7 O9'
_chemical_name_systematic        
'benzyl N-(2-{[N-(2-{[N-(2-{[N-(cyclopropanecarbonyl)-2-methylalanyl]amino}cyclopentane-1-carbonyl)-2-methylalanyl]amino}cyclopentane-1-carbonyl)-2-methylalanyl]amino}cyclopentane-1-carbonyl)-2-methylalaninate'
_symmetry_cell_setting           tetragonal
_symmetry_space_group_name_H-M   'P 41'
_symmetry_Int_Tables_number      76
_space_group_name_Hall           'P 4w'
loop_
_symmetry_equiv_pos_site_id
_symmetry_equiv_pos_as_xyz
1 x,y,z
2 -y,x,1/4+z
3 -x,-y,1/2+z
4 y,-x,3/4+z
_cell_length_a                   10.5708(9)
_cell_length_b                   10.5708(9)
_cell_length_c                   46.229(4)
_cell_angle_alpha                90
_cell_angle_beta                 90
_cell_angle_gamma                90
_cell_volume                     5165.71
_exptl_crystal_colour            'pale colorless'
_exptl_crystal_description       block
_cell_formula_units_Z            4
_exptl_crystal_recrystallization_method 
'Re-crystallisation from solvent: hexanes/ ethyl acetate'
loop_
_atom_site_label
_atom_site_type_symbol
_atom_site_fract_x
_atom_site_fract_y
_atom_site_fract_z
O1 O 0.3294(4) 0.5877(12) 0.4974(2)
C1 C 0.3337(4) 0.5491(11) 0.4728(2)
N1 N 0.3365(4) 0.4324(9) 0.4638(2)
C2 C 0.3206(10) 0.3271(11) 0.4842(2)
C3 C 0.4284(10) 0.3165(4) 0.50722(18)
O2 O 0.4036(10) 0.2713(4) 0.53122(15)
N2 N 0.5362(8) 0.3712(4) 0.49991(18)
C4 C 0.6516(9) 0.3559(9) 0.5192(3)
C5 C 0.7274(9) 0.4790(9) 0.5202(3)
C6 C 0.6725(6) 0.5745(11) 0.5401(2)
O3 O 0.6807(6) 0.5566(10) 0.56791(17)
N3 N 0.6282(6) 0.6748(9) 0.52960(18)
C7 C 0.5679(13) 0.7745(10) 0.5477(2)
C8 C 0.6562(13) 0.8234(12) 0.5706(2)
O4 O 0.6216(10) 0.8386(9) 0.59504(16)
O5 O 0.7587(9) 0.8431(11) 0.5614(2)
C9 C 0.8601(16) 0.8876(16) 0.5830(3)
C10 C 0.9761(8) 0.9270(13) 0.56873(17)
C11 C 1.0318(10) 1.0433(11) 0.57184(15)
C12 C 1.1417(10) 1.0703(10) 0.55737(19)
C13 C 1.1957(8) 0.9812(12) 0.53972(17)
C14 C 1.1399(10) 0.8649(11) 0.53661(15)
C15 C 1.0301(10) 0.8378(10) 0.55109(19)
C16 C 0.5373(18) 0.8834(14) 0.5270(3)
C17 C 0.4415(14) 0.723(2) 0.5586(3)
C18 C 0.8560(10) 0.4253(10) 0.5289(3)
C19 C 0.7334(10) 0.2463(12) 0.5092(4)
C20 C 0.1909(9) 0.3231(17) 0.4980(3)
C21 C 0.3364(16) 0.2023(11) 0.4678(2)
C22 C 0.3285(10) 0.6442(12) 0.4487(2)
C23 C 0.4468(12) 0.7267(11) 0.4492(3)
N4 N 0.5508(10) 0.6718(6) 0.4311(2)
C24 C 0.6646(11) 0.6520(7) 0.4431(2)
O6 O 0.6850(10) 0.6902(6) 0.46770(17)
C25 C 0.7652(10) 0.5939(12) 0.42259(19)
N5 N 0.7129(6) 0.5027(10) 0.4044(2)
C26 C 0.6530(6) 0.4011(11) 0.41486(18)
O7 O 0.6270(5) 0.3923(9) 0.43997(18)
C27 C 0.6264(12) 0.2962(13) 0.3931(3)
C28 C 0.4864(12) 0.2665(13) 0.3909(3)
N6 N 0.4142(9) 0.3567(8) 0.37329(19)
C29 C 0.3085(11) 0.4148(11) 0.3811(2)
O8 O 0.2622(9) 0.3845(8) 0.40496(17)
C30 C 0.2344(13) 0.4826(18) 0.3601(2)
N7 N 0.3315(7) 0.5515(10) 0.3416(2)
C31 C 0.3927(6) 0.6384(8) 0.35131(18)
O9 O 0.4019(7) 0.6542(8) 0.3785(2)
C32 C 0.4576(8) 0.7261(10) 0.3288(2)
C33 C 0.5764(11) 0.7945(14) 0.3378(3)
C34 C 0.4538(16) 0.8661(9) 0.3350(3)
C35 C 0.1658(14) 0.394(2) 0.3389(3)
C36 C 0.1483(17) 0.564(3) 0.3752(4)
C37 C 0.4796(17) 0.1336(14) 0.3783(3)
C38 C 0.6821(17) 0.1683(13) 0.4013(3)
C39 C 0.8791(13) 0.5428(18) 0.4397(3)
C40 C 0.8064(17) 0.7032(15) 0.4028(3)
C41 C 0.3966(13) 0.8511(13) 0.4376(3)
C42 C 0.2720(13) 0.8659(14) 0.4538(3)
C43 C 0.2175(13) 0.7336(13) 0.4534(3)
C44 C 0.6058(16) 0.0710(16) 0.3845(4)
H1 H 0.6235 0.3384 0.5390
H2 H 0.7300 0.5151 0.5007
H3 H 0.8252 0.9642 0.5914
H4 H 0.8765 0.8267 0.5982
H5 H 0.5541 0.9608 0.5372
H6 H 0.5895 0.8807 0.5100
H7 H 0.4499 0.8812 0.5213
H8 H 0.1703 0.2460 0.5080
H9 H 0.1931 0.3919 0.5116
H10 H 0.1278 0.3397 0.4834
H11 H 0.3021 0.1338 0.4790
H12 H 0.4242 0.1853 0.4634
H13 H 0.2900 0.2094 0.4500
H14 H 0.3188 0.5999 0.4301
H15 H 0.4778 0.7374 0.4690
H16 H 0.6570 0.3203 0.3738
H17 H 0.4514 0.2669 0.4106
H18 H 0.4532 0.7073 0.3080
H19 H 0.6142 0.7775 0.3565
H20 H 0.6414 0.8226 0.3244
H21 H 0.4103 0.8866 0.3528
H22 H 0.4370 0.9307 0.3206
H23 H 0.1433 0.4358 0.3212
H24 H 0.0903 0.3693 0.3490
H25 H 0.2147 0.3197 0.3345
H26 H 0.4090 0.0904 0.3873
H27 H 0.4696 0.1324 0.3575
H28 H 0.6856 0.1579 0.4221
H29 H 0.7668 0.1640 0.3934
H30 H 0.9366 0.5052 0.4260
H31 H 0.9213 0.6088 0.4501
H32 H 0.8524 0.4787 0.4531
H33 H 0.4535 0.9197 0.4427
H34 H 0.3843 0.8505 0.4168
H35 H 0.5915 0.0051 0.3988
H36 H 0.6483 0.0350 0.3678
H37 H 0.1727 0.7163 0.4713
H38 H 0.1602 0.7226 0.4370
H39 H 0.3286(14) 0.542(2) 0.3232(5)
H40 H 0.446(2) 0.3775(17) 0.3568(4)
H41 H 0.535(2) 0.6456(12) 0.4139(4)
H42 H 0.3395(5) 0.417(2) 0.4456(5)
H43 H 0.545(2) 0.4001(10) 0.4827(4)
H44 H 0.6245(10) 0.682(2) 0.5110(5)
H45 H 0.7302(12) 0.506(2) 0.3862(5)
H46 H 1.1803 0.8066 0.5248
H47 H 1.2717 1.0023 0.5308
H48 H 1.1778 1.1492 0.5604
H49 H 0.9934 0.7584 0.5480
H50 H 0.9912 1.1019 0.5835
C45 C 0.8623(11) 0.2873(10) 0.5202(4)
H51 H 0.8719 0.2417 0.5384
H52 H 0.9318 0.2665 0.5075
H53 H 0.8692 0.4406 0.5494
H54 H 0.9219 0.4674 0.5179
H55 H 0.7045 0.1632 0.5154
H56 H 0.7399 0.2478 0.4883
H57 H 0.2829 0.8975 0.4728
H58 H 0.2196 0.9221 0.4431
H59 H 0.4575 0.6541 0.5716
H60 H 0.3974 0.7873 0.5684
H61 H 0.3937 0.6929 0.5427
H62 H 0.1944 0.6180 0.3879
H63 H 0.0902 0.5150 0.3861
H64 H 0.1034 0.6146 0.3616
H65 H 0.7363 0.7340 0.3923
H66 H 0.8412 0.7698 0.4143
H67 H 0.8698 0.6741 0.3897
loop_
_geom_bond_atom_site_label_1
_geom_bond_atom_site_label_2
_geom_bond_site_symmetry_1
_geom_bond_site_symmetry_2
O1 C1 1_555 1_555
C1 N1 1_555 1_555
N1 C2 1_555 1_555
C2 C3 1_555 1_555
C3 O2 1_555 1_555
N2 C3 1_555 1_555
C4 N2 1_555 1_555
C5 C4 1_555 1_555
C6 C5 1_555 1_555
O3 C6 1_555 1_555
N3 C6 1_555 1_555
C7 N3 1_555 1_555
C8 C7 1_555 1_555
O4 C8 1_555 1_555
O5 C8 1_555 1_555
C9 O5 1_555 1_555
C10 C9 1_555 1_555
C11 C10 1_555 1_555
C12 C11 1_555 1_555
C13 C12 1_555 1_555
C14 C13 1_555 1_555
C15 C10 1_555 1_555
C16 C7 1_555 1_555
C17 C7 1_555 1_555
C18 C5 1_555 1_555
C19 C4 1_555 1_555
C20 C2 1_555 1_555
C21 C2 1_555 1_555
C22 C1 1_555 1_555
C23 C22 1_555 1_555
N4 C23 1_555 1_555
C24 N4 1_555 1_555
O6 C24 1_555 1_555
C25 C24 1_555 1_555
N5 C25 1_555 1_555
C26 N5 1_555 1_555
O7 C26 1_555 1_555
C27 C26 1_555 1_555
C28 C27 1_555 1_555
N6 C28 1_555 1_555
C29 N6 1_555 1_555
O8 C29 1_555 1_555
C30 C29 1_555 1_555
N7 C30 1_555 1_555
C31 N7 1_555 1_555
O9 C31 1_555 1_555
C32 C31 1_555 1_555
C33 C32 1_555 1_555
C34 C32 1_555 1_555
C35 C30 1_555 1_555
C36 C30 1_555 1_555
C37 C28 1_555 1_555
C38 C27 1_555 1_555
C39 C25 1_555 1_555
C40 C25 1_555 1_555
C41 C23 1_555 1_555
C42 C41 1_555 1_555
C43 C22 1_555 1_555
C44 C37 1_555 1_555
H1 C4 1_555 1_555
H2 C5 1_555 1_555
H3 C9 1_555 1_555
H4 C9 1_555 1_555
H5 C16 1_555 1_555
H6 C16 1_555 1_555
H7 C16 1_555 1_555
H8 C20 1_555 1_555
H9 C20 1_555 1_555
H10 C20 1_555 1_555
H11 C21 1_555 1_555
H12 C21 1_555 1_555
H13 C21 1_555 1_555
H14 C22 1_555 1_555
H15 C23 1_555 1_555
H16 C27 1_555 1_555
H17 C28 1_555 1_555
H18 C32 1_555 1_555
H19 C33 1_555 1_555
H20 C33 1_555 1_555
H21 C34 1_555 1_555
H22 C34 1_555 1_555
H23 C35 1_555 1_555
H24 C35 1_555 1_555
H25 C35 1_555 1_555
H26 C37 1_555 1_555
H27 C37 1_555 1_555
H28 C38 1_555 1_555
H29 C38 1_555 1_555
H30 C39 1_555 1_555
H31 C39 1_555 1_555
H32 C39 1_555 1_555
H33 C41 1_555 1_555
H34 C41 1_555 1_555
H35 C44 1_555 1_555
H36 C44 1_555 1_555
H37 C43 1_555 1_555
H38 C43 1_555 1_555
H39 N7 1_555 1_555
H40 N6 1_555 1_555
H41 N4 1_555 1_555
H42 N1 1_555 1_555
H43 N2 1_555 1_555
H44 N3 1_555 1_555
H45 N5 1_555 1_555
H46 C14 1_555 1_555
H47 C13 1_555 1_555
H48 C12 1_555 1_555
H49 C15 1_555 1_555
H50 C11 1_555 1_555
C45 C18 1_555 1_555
H51 C45 1_555 1_555
H52 C45 1_555 1_555
H53 C18 1_555 1_555
H54 C18 1_555 1_555
H55 C19 1_555 1_555
H56 C19 1_555 1_555
H57 C42 1_555 1_555
H58 C42 1_555 1_555
H59 C17 1_555 1_555
H60 C17 1_555 1_555
H61 C17 1_555 1_555
H62 C36 1_555 1_555
H63 C36 1_555 1_555
H64 C36 1_555 1_555
H65 C40 1_555 1_555
H66 C40 1_555 1_555
H67 C40 1_555 1_555
C14 C15 1_555 1_555
C19 C45 1_555 1_555
C33 C34 1_555 1_555
C38 C44 1_555 1_555
C42 C43 1_555 1_555

#END
