
#######################################################################
#
#                 Cambridge Crystallographic Data Centre
#                                CCDC 
#
#######################################################################
#
# If this CIF has been generated from an entry in the Cambridge 
# Structural Database, then it will include bibliographic, chemical, 
# crystal, experimental, refinement or atomic coordinate data resulting 
# from the CCDC's data processing and validation procedures.
#
#######################################################################

data_GIRYIS
_chemical_compound_source        synthesis
_chemical_formula_moiety         'C41 H60 N6 O8'
_chemical_name_systematic        
'benzyl N-((2-((N-((2-((N-((2-((cyclopropylcarbonyl)amino)cyclopentyl)carbonyl)-2-methylalanyl)amino)cyclopentyl)carbonyl)-2-methylalanyl)amino)cyclopentyl)carbonyl)-2-methylalaninate'
_symmetry_cell_setting           monoclinic
_symmetry_space_group_name_H-M   'P 21'
_symmetry_Int_Tables_number      4
_space_group_name_Hall           'P 2yb'
loop_
_symmetry_equiv_pos_site_id
_symmetry_equiv_pos_as_xyz
1 x,y,z
2 -x,1/2+y,-z
_cell_length_a                   10.3098(6)
_cell_length_b                   18.6874(12)
_cell_length_c                   10.7648(7)
_cell_angle_alpha                90
_cell_angle_beta                 95.265(2)
_cell_angle_gamma                90
_cell_volume                     2065.23
_exptl_crystal_colour            colorless
_exptl_crystal_description       block
_cell_formula_units_Z            2
_exptl_crystal_recrystallization_method 
'Re-crystallisation from solvent: dichloromethane/diethyl ether'
loop_
_atom_site_label
_atom_site_type_symbol
_atom_site_fract_x
_atom_site_fract_y
_atom_site_fract_z
O1 O 0.70880(12) 0.49829(8) 0.47441(12)
C1 C 0.60398(16) 0.48814(10) 0.41214(15)
N1 N 0.56846(13) 0.42426(9) 0.36334(14)
C2 C 0.65854(17) 0.36406(10) 0.36895(16)
C3 C 0.72335(17) 0.35340(10) 0.24553(17)
C4 C 0.84955(16) 0.39567(10) 0.24762(16)
O2 O 0.95309(12) 0.37232(8) 0.29726(13)
N2 N 0.83994(13) 0.46051(8) 0.19313(13)
C5 C 0.95352(16) 0.50456(10) 0.17201(15)
C6 C 1.03184(15) 0.52656(10) 0.29501(16)
O3 O 1.14650(12) 0.54505(9) 0.29481(12)
N3 N 0.96702(14) 0.52751(9) 0.39701(13)
C7 C 1.02450(15) 0.54562(10) 0.52085(15)
C8 C 0.99056(17) 0.48964(10) 0.61945(15)
C9 C 1.09019(12) 0.43010(7) 0.64295(16)
O4 O 1.14056(9) 0.41667(6) 0.74827(12)
N4 N 1.11969(10) 0.39245(6) 0.54308(14)
C10 C 1.20179(17) 0.32833(10) 0.55677(16)
C11 C 1.14807(17) 0.27546(10) 0.64760(16)
O5 O 1.01778(13) 0.27838(8) 0.64383(13)
C12 C 0.9596(2) 0.23011(12) 0.7290(2)
C13 C 0.83938(14) 0.26448(9) 0.77090(18)
C14 C 0.72216(16) 0.22784(8) 0.75923(19)
C15 C 0.61281(13) 0.25762(9) 0.8052(2)
C16 C 0.62089(15) 0.32373(11) 0.8623(2)
C17 C 0.73805(19) 0.36052(10) 0.8735(3)
C18 C 0.84738(15) 0.33072(11) 0.8278(2)
O6 O 1.21400(14) 0.23380(9) 0.70981(13)
C19 C 1.1980(2) 0.29158(11) 0.42959(18)
C20 C 1.34328(19) 0.34620(12) 0.6020(2)
C21 C 0.9679(3) 0.53297(12) 0.73623(19)
H1 H 0.5122 0.4820 -0.2073
C22 C 0.9761(2) 0.61723(11) 0.56984(18)
C23 C 1.04209(19) 0.46476(13) 0.08949(19)
C24 C 0.9028(2) 0.57356(11) 0.10709(18)
C25 C 0.7446(2) 0.27199(13) 0.2352(2)
C26 C 0.6986(2) 0.23959(12) 0.3532(3)
C27 C 0.5950(2) 0.29170(11) 0.3901(2)
C28 C 0.50296(15) 0.54912(10) 0.39658(14)
N5 N 0.42683(12) 0.54470(9) 0.27482(13)
C29 C 0.48428(15) 0.54363(10) 0.16785(15)
O7 O 0.60370(11) 0.54356(8) 0.16591(12)
C30 C 0.39566(16) 0.54265(11) 0.04792(16)
C31 C 0.43114(17) 0.47786(11) -0.03360(16)
N6 N 0.33678(10) 0.42038(8) -0.04378(13)
C32 C 0.32894(12) 0.36998(9) 0.04342(14)
H2 H 0.8852(15) 0.5166(12) 0.3890(15)
C33 C 0.24370(13) 0.30821(9) 0.00281(11)
H3 H 0.9920 0.4499 0.0140
H4 H 1.0787 0.4227 0.1286
C34 C 0.4509(2) 0.50967(13) -0.16186(19)
C35 C 0.5042(3) 0.58379(14) -0.1310(2)
C36 C 0.4190(3) 0.60941(13) -0.0317(2)
C37 C 0.40852(17) 0.54018(12) 0.49720(16)
C38 C 0.57205(19) 0.62150(11) 0.41360(19)
H5 H 0.7284 0.3726 0.4365
H6 H 0.6614 0.3716 0.1748
H7 H 1.1174 0.5482 0.5168
H8 H 0.9085 0.4680 0.5885
H9 H 0.9343 0.1862 0.6880
H10 H 1.0227 0.2191 0.7998
H11 H 0.7187 0.1813 0.7229
H12 H 0.5337 0.2325 0.7943
H13 H 0.5455 0.3438 0.8955
H14 H 0.7448 0.4063 0.9112
H15 H 0.9283 0.3546 0.8344
H16 H 1.2518 0.2497 0.4372
H17 H 1.1090 0.2797 0.3993
H18 H 1.2313 0.3251 0.3706
H19 H 1.3945 0.3027 0.6126
H20 H 1.3490 0.3721 0.6814
H21 H 1.3773 0.3754 0.5385
H22 H 0.7632(15) 0.4767(9) 0.170(2)
H23 H 0.2880(11) 0.4158(7) -0.1125(14)
H24 H 1.1099 0.4955 0.0645
H25 H 0.4962 0.6153 -0.2040
H26 H 0.5959 0.5811 -0.0934
H27 H 0.9748 0.6022 0.0908
H28 H 0.8542 0.5611 0.0272
H29 H 0.8499 0.5996 0.1601
H30 H 0.6933 0.2532 0.1623
H31 H 0.8384 0.2632 0.2303
H32 H 0.6619 0.1908 0.3350
H33 H 0.7715 0.2391 0.4192
H34 H 0.5120 0.2848 0.3379
H35 H 0.5797 0.2858 0.4777
H36 H 0.3060 0.5411 0.0661
H37 H 0.5149 0.4577 0.0055
H38 H 0.3682 0.5123 -0.2119
H39 H 0.3425(15) 0.5426(13) 0.2733(14)
H40 H 0.6213 0.6234 0.4951
H41 H 0.3350 0.6265 -0.0716
H42 H 0.4585 0.6470 0.0210
H43 H 0.3475 0.5806 0.4922
H44 H 0.3581 0.4956 0.4853
H45 H 0.4577 0.5395 0.5791
H46 H 0.5080 0.6599 0.4080
H47 H 0.6299 0.6284 0.3522
H48 H 0.4970(17) 0.4211(9) 0.3125(18)
H49 H 1.0832(10) 0.4029(6) 0.4708(15)
C39 C 0.2699(3) 0.23645(11) 0.0656(3)
C40 C 0.1510(3) 0.27937(15) 0.0921(2)
O8 O 0.39514(10) 0.37206(7) 0.14489(12)
H50 H 1.1028 0.6116 0.7298
H51 H 0.9681 0.6445 0.7575
C41 C 1.0094(4) 0.60857(17) 0.7103(3)
H52 H 1.0186 0.5159 0.8069
H53 H 0.8784 0.5336 0.7506
H54 H 1.0214 0.6578 0.5385
H55 H 0.8852 0.6244 0.5496
H56 H 0.2098 0.3086 -0.0836
H57 H 0.1469 0.3017 0.1709
H58 H 0.0667 0.2630 0.0618
H59 H 0.3406 0.2319 0.1282
H60 H 0.2604 0.1933 0.0191
C42? C 0.9045(6) 0.6021(3) 0.6858(4)
H61? H 0.8117 0.5946 0.6638
H62? H 0.9132 0.6408 0.7453
C43? C 0.2980(3) 0.23484(13) 0.0170(4)
C44? C 0.1995(4) 0.25966(19) 0.0995(2)
H63? H 1.0483 0.5431 0.7833
H64? H 0.9124 0.5079 0.7870
H65? H 1.0481 0.6479 0.5915
H66? H 0.9186 0.6394 0.5075
H67? H 0.1789 0.3168 -0.0646
H68? H 0.2231 0.2697 0.1851
H69? H 0.1143 0.2399 0.0900
H70? H 0.3857 0.2288 0.0510
H71? H 0.2769 0.1990 -0.0442
loop_
_geom_bond_atom_site_label_1
_geom_bond_atom_site_label_2
_geom_bond_site_symmetry_1
_geom_bond_site_symmetry_2
O1 C1 1_555 1_555
C1 N1 1_555 1_555
N1 C2 1_555 1_555
C2 C3 1_555 1_555
C3 C4 1_555 1_555
C4 O2 1_555 1_555
N2 C4 1_555 1_555
C5 N2 1_555 1_555
C6 C5 1_555 1_555
O3 C6 1_555 1_555
N3 C6 1_555 1_555
C7 N3 1_555 1_555
C8 C7 1_555 1_555
C9 C8 1_555 1_555
O4 C9 1_555 1_555
N4 C9 1_555 1_555
C10 N4 1_555 1_555
C11 C10 1_555 1_555
O5 C11 1_555 1_555
C12 O5 1_555 1_555
C13 C12 1_555 1_555
C14 C13 1_555 1_555
C15 C14 1_555 1_555
C16 C15 1_555 1_555
C17 C16 1_555 1_555
C18 C13 1_555 1_555
O6 C11 1_555 1_555
C19 C10 1_555 1_555
C20 C10 1_555 1_555
C21 C8 1_555 1_555
H1 C34 1_555 1_555
C22 C7 1_555 1_555
C23 C5 1_555 1_555
C24 C5 1_555 1_555
C25 C3 1_555 1_555
C26 C25 1_555 1_555
C27 C2 1_555 1_555
C28 C1 1_555 1_555
N5 C28 1_555 1_555
C29 N5 1_555 1_555
O7 C29 1_555 1_555
C30 C29 1_555 1_555
C31 C30 1_555 1_555
N6 C31 1_555 1_555
C32 N6 1_555 1_555
H2 N3 1_555 1_555
C33 C32 1_555 1_555
H3 C23 1_555 1_555
H4 C23 1_555 1_555
C34 C31 1_555 1_555
C35 C34 1_555 1_555
C36 C30 1_555 1_555
C37 C28 1_555 1_555
C38 C28 1_555 1_555
H5 C2 1_555 1_555
H6 C3 1_555 1_555
H7 C7 1_555 1_555
H8 C8 1_555 1_555
H9 C12 1_555 1_555
H10 C12 1_555 1_555
H11 C14 1_555 1_555
H12 C15 1_555 1_555
H13 C16 1_555 1_555
H14 C17 1_555 1_555
H15 C18 1_555 1_555
H16 C19 1_555 1_555
H17 C19 1_555 1_555
H18 C19 1_555 1_555
H19 C20 1_555 1_555
H20 C20 1_555 1_555
H21 C20 1_555 1_555
H22 N2 1_555 1_555
H23 N6 1_555 1_555
H24 C23 1_555 1_555
H25 C35 1_555 1_555
H26 C35 1_555 1_555
H27 C24 1_555 1_555
H28 C24 1_555 1_555
H29 C24 1_555 1_555
H30 C25 1_555 1_555
H31 C25 1_555 1_555
H32 C26 1_555 1_555
H33 C26 1_555 1_555
H34 C27 1_555 1_555
H35 C27 1_555 1_555
H36 C30 1_555 1_555
H37 C31 1_555 1_555
H38 C34 1_555 1_555
H39 N5 1_555 1_555
H40 C38 1_555 1_555
H41 C36 1_555 1_555
H42 C36 1_555 1_555
H43 C37 1_555 1_555
H44 C37 1_555 1_555
H45 C37 1_555 1_555
H46 C38 1_555 1_555
H47 C38 1_555 1_555
H48 N1 1_555 1_555
H49 N4 1_555 1_555
C39 C33 1_555 1_555
C40 C33 1_555 1_555
O8 C32 1_555 1_555
H50 C41 1_555 1_555
H51 C41 1_555 1_555
C41 C21 1_555 1_555
H52 C21 1_555 1_555
H53 C21 1_555 1_555
H54 C22 1_555 1_555
H55 C22 1_555 1_555
H56 C33 1_555 1_555
H57 C40 1_555 1_555
H58 C40 1_555 1_555
H59 C39 1_555 1_555
H60 C39 1_555 1_555
C17 C18 1_555 1_555
C22 C41 1_555 1_555
C26 C27 1_555 1_555
C35 C36 1_555 1_555
C39 C40 1_555 1_555

#END
