
#######################################################################
#
#                 Cambridge Crystallographic Data Centre
#                                CCDC 
#
#######################################################################
#
# If this CIF has been generated from an entry in the Cambridge 
# Structural Database, then it will include bibliographic, chemical, 
# crystal, experimental, refinement or atomic coordinate data resulting 
# from the CCDC's data processing and validation procedures.
#
#######################################################################

data_GIRYOW
_chemical_formula_moiety         'C18 H14 O2'
_chemical_name_systematic        4,4'-bis(Prop-2-ynyloxy)biphenyl
_symmetry_cell_setting           orthorhombic
_symmetry_space_group_name_H-M   'P b c a'
_symmetry_Int_Tables_number      61
_space_group_name_Hall           '-P 2ac 2ab'
loop_
_symmetry_equiv_pos_site_id
_symmetry_equiv_pos_as_xyz
1 x,y,z
2 1/2-x,-y,1/2+z
3 -x,1/2+y,1/2-z
4 1/2+x,1/2-y,-z
5 -x,-y,-z
6 1/2+x,y,1/2-z
7 x,1/2-y,1/2+z
8 1/2-x,1/2+y,z
_cell_length_a                   7.5881(16)
_cell_length_b                   8.2061(18)
_cell_length_c                   22.873(5)
_cell_angle_alpha                90
_cell_angle_beta                 90
_cell_angle_gamma                90
_cell_volume                     1424.27
_exptl_crystal_colour            colorless
_exptl_crystal_description       block
_cell_formula_units_Z            4
_exptl_crystal_recrystallization_method methanol/acetone
loop_
_atom_site_label
_atom_site_type_symbol
_atom_site_fract_x
_atom_site_fract_y
_atom_site_fract_z
C1 C 0.0440(4) 0.7955(3) 0.21976(10)
H1 H 0.0256 0.8708 0.2495
C2 C 0.0669(3) 0.7021(2) 0.18279(8)
C3 C 0.0975(3) 0.5881(2) 0.13510(8)
H2 H 0.0660 0.6382 0.0981
H3 H 0.2212 0.5586 0.1336
C4 C 0.0023(2) 0.32626(19) 0.10298(7)
C5 C -0.0877(2) 0.1838(2) 0.11486(7)
H4 H -0.1484 0.1728 0.1500
C6 C -0.0879(2) 0.0580(2) 0.07515(7)
H5 H -0.1493 -0.0369 0.0842
C7 C 0.0007(2) 0.06755(18) 0.02165(6)
C8 C 0.0918(2) 0.2113(2) 0.01155(7)
H6 H 0.1545 0.2222 -0.0232
C9 C 0.0934(2) 0.3391(2) 0.05092(7)
H7 H 0.1558 0.4337 0.0424
O1 O -0.00711(15) 0.44653(14) 0.14459(5)
C1D C -0.0440(4) -0.7955(3) -0.21976(10)
H1D H -0.0256 -0.8708 -0.2495
C2D C -0.0669(3) -0.7021(2) -0.18279(8)
C3D C -0.0975(3) -0.5881(2) -0.13510(8)
H2D H -0.0660 -0.6382 -0.0981
H3D H -0.2212 -0.5586 -0.1336
C4D C -0.0023(2) -0.32626(19) -0.10298(7)
C5D C 0.0877(2) -0.1838(2) -0.11486(7)
H4D H 0.1484 -0.1728 -0.1500
C6D C 0.0879(2) -0.0580(2) -0.07515(7)
H5D H 0.1493 0.0369 -0.0842
C7D C -0.0007(2) -0.06755(18) -0.02165(6)
C8D C -0.0918(2) -0.2113(2) -0.01155(7)
H6D H -0.1545 -0.2222 0.0232
C9D C -0.0934(2) -0.3391(2) -0.05092(7)
H7D H -0.1558 -0.4337 -0.0424
O1D O 0.00711(15) -0.44653(14) -0.14459(5)
loop_
_geom_bond_atom_site_label_1
_geom_bond_atom_site_label_2
_geom_bond_site_symmetry_1
_geom_bond_site_symmetry_2
C1 H1 1_555 1_555
C2 C1 1_555 1_555
C3 C2 1_555 1_555
H2 C3 1_555 1_555
H3 C3 1_555 1_555
C4 C5 1_555 1_555
C5 H4 1_555 1_555
C6 C5 1_555 1_555
H5 C6 1_555 1_555
C7 C6 1_555 1_555
C8 C7 1_555 1_555
H6 C8 1_555 1_555
C9 C4 1_555 1_555
H7 C9 1_555 1_555
O1 C3 1_555 1_555
C1D H1D 1_555 1_555
C2D C1D 1_555 1_555
C3D C2D 1_555 1_555
H2D C3D 1_555 1_555
H3D C3D 1_555 1_555
C4D C5D 1_555 1_555
C5D H4D 1_555 1_555
C6D C5D 1_555 1_555
H5D C6D 1_555 1_555
C7D C7 1_555 1_555
C8D C7D 1_555 1_555
H6D C8D 1_555 1_555
C9D C4D 1_555 1_555
H7D C9D 1_555 1_555
O1D C3D 1_555 1_555
C4 O1 1_555 1_555
C8 C9 1_555 1_555
C4D O1D 1_555 1_555
C6D C7D 1_555 1_555
C8D C9D 1_555 1_555

#END
