
#######################################################################
#
#                 Cambridge Crystallographic Data Centre
#                                CCDC 
#
#######################################################################
#
# If this CIF has been generated from an entry in the Cambridge 
# Structural Database, then it will include bibliographic, chemical, 
# crystal, experimental, refinement or atomic coordinate data resulting 
# from the CCDC's data processing and validation procedures.
#
#######################################################################

data_GIRZAL
_chemical_compound_source        synthesis
_chemical_formula_moiety         'C42 H64 N6 O9'
_chemical_name_systematic        
'benzyl N-{2-[(N-{2-[(N-{2-[(t-butoxycarbonyl)amino]cyclopentane-1-carbonyl}-2-methylalanyl)amino]cyclopentane-1-carbonyl}-2-methylalanyl)amino]cyclopentane-1-carbonyl}-2-methylalaninate'
_symmetry_cell_setting           orthorhombic
_symmetry_space_group_name_H-M   'P 21 21 21'
_symmetry_Int_Tables_number      19
_space_group_name_Hall           'P 2ac 2ab'
loop_
_symmetry_equiv_pos_site_id
_symmetry_equiv_pos_as_xyz
1 x,y,z
2 1/2-x,-y,1/2+z
3 1/2+x,1/2-y,-z
4 -x,1/2+y,1/2-z
_cell_length_a                   9.6654(4)
_cell_length_b                   18.8820(9)
_cell_length_c                   26.4520(12)
_cell_angle_alpha                90
_cell_angle_beta                 90
_cell_angle_gamma                90
_cell_volume                     4827.55
_exptl_crystal_colour            colorless
_exptl_crystal_description       block
_cell_formula_units_Z            4
_exptl_crystal_recrystallization_method 
'Re-crystallisation from solvent: diethyl ether and chloroform'
loop_
_atom_site_label
_atom_site_type_symbol
_atom_site_fract_x
_atom_site_fract_y
_atom_site_fract_z
O1 O 0.5158(3) 0.47845(18) 0.60163(12)
C1 C 0.4880(4) 0.4860(2) 0.64635(15)
O2 O 0.5037(4) 0.5454(2) 0.67363(13)
C2 C 0.5632(5) 0.6100(3) 0.6509(2)
C3 C 0.7113(6) 0.5953(4) 0.6318(3)
C4 C 0.5663(8) 0.6587(4) 0.6963(3)
C5 C 0.4700(7) 0.6374(3) 0.6102(3)
N1 N 0.4346(4) 0.4354(2) 0.67670(13)
C6 C 0.3974(5) 0.3656(2) 0.65944(17)
C7 C 0.2423(6) 0.3570(3) 0.64671(17)
C8 C 0.2032(5) 0.3891(3) 0.59617(16)
O3 O 0.2158(5) 0.35685(18) 0.55608(13)
N2 N 0.1600(4) 0.4573(2) 0.59818(13)
C9 C 0.0959(5) 0.4942(2) 0.55481(15)
C10 C 0.1898(5) 0.4907(2) 0.50801(15)
O4 O 0.1369(4) 0.48945(19) 0.46552(11)
N3 N 0.3259(4) 0.4960(2) 0.51527(12)
C11 C 0.4265(5) 0.4891(2) 0.47430(15)
C12 C 0.4951(5) 0.4147(3) 0.47209(16)
C13 C 0.4185(4) 0.3672(2) 0.43551(15)
O5 O 0.4466(4) 0.36672(19) 0.38994(11)
N4 N 0.3136(4) 0.32840(19) 0.45521(14)
C14 C 0.2303(6) 0.2803(2) 0.42430(18)
C15 C 0.1762(4) 0.3183(2) 0.37629(17)
O6 O 0.1752(4) 0.2884(2) 0.33518(14)
N5 N 0.1265(4) 0.3836(2) 0.38451(13)
C16 C 0.0734(5) 0.4295(3) 0.34510(16)
C17 C 0.1547(5) 0.5000(2) 0.33982(16)
C18 C 0.2542(5) 0.4953(2) 0.29609(15)
O7 O 0.2435(4) 0.5311(2) 0.25755(12)
N6 N 0.3575(4) 0.4476(2) 0.30136(13)
C19 C 0.4438(5) 0.4282(3) 0.25804(17)
C20 C 0.5003(5) 0.4950(3) 0.23256(19)
O8 O 0.5072(4) 0.5060(3) 0.18830(13)
O9 O 0.5512(5) 0.5398(2) 0.26746(15)
C21 C 0.5990(9) 0.6081(4) 0.2489(3)
C22 C 0.5858(8) 0.6578(4) 0.2924(3)
C23 C 0.6938(7) 0.6863(4) 0.3195(3)
C24 C 0.6674(8) 0.7300(4) 0.3600(3)
C25 C 0.4517(7) 0.6724(5) 0.3060(4)
C26 C 0.5671(6) 0.3851(4) 0.2773(2)
C27 C 0.3594(8) 0.3853(3) 0.2196(2)
C28 C 0.0420(8) 0.5575(4) 0.3328(3)
C29 C -0.0926(8) 0.5173(5) 0.3225(3)
C30 C -0.0769(6) 0.4522(4) 0.3543(2)
C31 C 0.3136(9) 0.2155(3) 0.4095(3)
C32 C 0.1035(8) 0.2591(3) 0.4567(2)
C33 C 0.6461(5) 0.4282(3) 0.4555(2)
C34 C 0.6519(6) 0.5064(3) 0.4415(2)
C35 C 0.5480(6) 0.5409(3) 0.4772(2)
C36 C 0.0822(5) 0.5720(3) 0.57067(17)
C37 C -0.0446(5) 0.4622(3) 0.5430(2)
C38 C 0.2220(10) 0.2763(3) 0.6490(3)
C39 C 0.3272(8) 0.2481(4) 0.6839(4)
C40 C 0.4203(6) 0.3091(3) 0.7002(2)
C41 C 0.4254(7) 0.7152(5) 0.3470(4)
C42 C 0.5332(10) 0.7433(5) 0.3743(3)
H1 H 0.7558 0.6394 0.6242
H2 H 0.7061 0.5670 0.6016
H3 H 0.7617 0.5705 0.6575
H4 H 0.6171 0.7007 0.6875
H5 H 0.6123 0.6360 0.7242
H6 H 0.4735 0.6715 0.7053
H7 H 0.4926 0.6867 0.6041
H8 H 0.4819 0.6099 0.5798
H9 H 0.3770 0.6331 0.6219
H10 H 0.4543 0.3548 0.6290
H11 H 0.1894 0.3786 0.6737
H12 H 0.3779 0.4960 0.4420
H13 H 0.4940 0.3932 0.5059
H14 H 0.0765 0.4035 0.3128
H15 H 0.2059 0.5087 0.3712
H16 H 0.5441 0.6252 0.2209
H17 H 0.6956 0.6052 0.2387
H18 H 0.7843 0.6767 0.3088
H19 H 0.7410 0.7499 0.3774
H20 H 0.3778 0.6522 0.2885
H21 H 0.6296 0.3735 0.2503
H22 H 0.5350 0.3425 0.2934
H23 H 0.6146 0.4128 0.3022
H24 H 0.4173 0.3721 0.1916
H25 H 0.3224 0.3432 0.2355
H26 H 0.2842 0.4147 0.2080
H27 H 0.0645 0.5908 0.3059
H28 H 0.0298 0.5833 0.3638
H29 H -0.0984 0.5050 0.2869
H30 H -0.1736 0.5452 0.3324
H31 H -0.1419 0.4159 0.3427
H32 H -0.0929 0.4625 0.3900
H33 H 0.2530 0.1849 0.3900
H34 H 0.3905 0.2310 0.3890
H35 H 0.3472 0.1913 0.4389
H36 H 0.0458 0.2281 0.4365
H37 H 0.1352 0.2344 0.4863
H38 H 0.0516 0.3006 0.4657
H39 H 0.6705 0.3985 0.4272
H40 H 0.7102 0.4179 0.4833
H41 H 0.6265 0.5140 0.4060
H42 H 0.7442 0.5246 0.4484
H43 H 0.5215 0.5885 0.4662
H44 H 0.5848 0.5430 0.5114
H45 H 0.0432 0.5987 0.5437
H46 H 0.0212 0.5757 0.5995
H47 H 0.1707 0.5916 0.5796
H48 H -0.0915 0.4893 0.5181
H49 H -0.0325 0.4145 0.5311
H50 H -0.1022 0.4605 0.5724
H51 H 0.2362 0.2558 0.6157
H52 H 0.1289 0.2648 0.6596
H53 H 0.3812 0.2116 0.6669
H54 H 0.2802 0.2278 0.7132
H55 H 0.5172 0.2951 0.7026
H56 H 0.3889 0.3281 0.7326
H57 H 0.3346 0.7291 0.3549
H58 H 0.5169 0.7693 0.4034
H59 H 0.356(2) 0.496(3) 0.5461(7)
H60 H 0.372(4) 0.429(3) 0.3307(9)
H61 H 0.306(4) 0.327(2) 0.4877(7)
H62 H 0.137(6) 0.4014(14) 0.4138(9)
H63 H 0.142(5) 0.4741(16) 0.6270(7)
H64 H 0.4185(12) 0.4465(11) 0.7076(7)
loop_
_geom_bond_atom_site_label_1
_geom_bond_atom_site_label_2
_geom_bond_site_symmetry_1
_geom_bond_site_symmetry_2
O1 C1 1_555 1_555
C1 O2 1_555 1_555
O2 C2 1_555 1_555
C2 C3 1_555 1_555
C3 H1 1_555 1_555
C4 C2 1_555 1_555
C5 C2 1_555 1_555
N1 C1 1_555 1_555
C6 N1 1_555 1_555
C7 C6 1_555 1_555
C8 C7 1_555 1_555
O3 C8 1_555 1_555
N2 C8 1_555 1_555
C9 N2 1_555 1_555
C10 C9 1_555 1_555
O4 C10 1_555 1_555
N3 C10 1_555 1_555
C11 N3 1_555 1_555
C12 C11 1_555 1_555
C13 C12 1_555 1_555
O5 C13 1_555 1_555
N4 C13 1_555 1_555
C14 N4 1_555 1_555
C15 C14 1_555 1_555
O6 C15 1_555 1_555
N5 C15 1_555 1_555
C16 N5 1_555 1_555
C17 C16 1_555 1_555
C18 C17 1_555 1_555
O7 C18 1_555 1_555
N6 C18 1_555 1_555
C19 N6 1_555 1_555
C20 C19 1_555 1_555
O8 C20 1_555 1_555
O9 C20 1_555 1_555
C21 O9 1_555 1_555
C22 C21 1_555 1_555
C23 C22 1_555 1_555
C24 C23 1_555 1_555
C25 C22 1_555 1_555
C26 C19 1_555 1_555
C27 C19 1_555 1_555
C28 C17 1_555 1_555
C29 C28 1_555 1_555
C30 C16 1_555 1_555
C31 C14 1_555 1_555
C32 C14 1_555 1_555
C33 C12 1_555 1_555
C34 C33 1_555 1_555
C35 C11 1_555 1_555
C36 C9 1_555 1_555
C37 C9 1_555 1_555
C38 C7 1_555 1_555
C39 C38 1_555 1_555
C40 C6 1_555 1_555
C41 C25 1_555 1_555
C42 C24 1_555 1_555
H2 C3 1_555 1_555
H3 C3 1_555 1_555
H4 C4 1_555 1_555
H5 C4 1_555 1_555
H6 C4 1_555 1_555
H7 C5 1_555 1_555
H8 C5 1_555 1_555
H9 C5 1_555 1_555
H10 C6 1_555 1_555
H11 C7 1_555 1_555
H12 C11 1_555 1_555
H13 C12 1_555 1_555
H14 C16 1_555 1_555
H15 C17 1_555 1_555
H16 C21 1_555 1_555
H17 C21 1_555 1_555
H18 C23 1_555 1_555
H19 C24 1_555 1_555
H20 C25 1_555 1_555
H21 C26 1_555 1_555
H22 C26 1_555 1_555
H23 C26 1_555 1_555
H24 C27 1_555 1_555
H25 C27 1_555 1_555
H26 C27 1_555 1_555
H27 C28 1_555 1_555
H28 C28 1_555 1_555
H29 C29 1_555 1_555
H30 C29 1_555 1_555
H31 C30 1_555 1_555
H32 C30 1_555 1_555
H33 C31 1_555 1_555
H34 C31 1_555 1_555
H35 C31 1_555 1_555
H36 C32 1_555 1_555
H37 C32 1_555 1_555
H38 C32 1_555 1_555
H39 C33 1_555 1_555
H40 C33 1_555 1_555
H41 C34 1_555 1_555
H42 C34 1_555 1_555
H43 C35 1_555 1_555
H44 C35 1_555 1_555
H45 C36 1_555 1_555
H46 C36 1_555 1_555
H47 C36 1_555 1_555
H48 C37 1_555 1_555
H49 C37 1_555 1_555
H50 C37 1_555 1_555
H51 C38 1_555 1_555
H52 C38 1_555 1_555
H53 C39 1_555 1_555
H54 C39 1_555 1_555
H55 C40 1_555 1_555
H56 C40 1_555 1_555
H57 C41 1_555 1_555
H58 C42 1_555 1_555
H59 N3 1_555 1_555
H60 N6 1_555 1_555
H61 N4 1_555 1_555
H62 N5 1_555 1_555
H63 N2 1_555 1_555
H64 N1 1_555 1_555
C29 C30 1_555 1_555
C34 C35 1_555 1_555
C39 C40 1_555 1_555
C41 C42 1_555 1_555

#END
