
#######################################################################
#
#                 Cambridge Crystallographic Data Centre
#                                CCDC 
#
#######################################################################
#
# If this CIF has been generated from an entry in the Cambridge 
# Structural Database, then it will include bibliographic, chemical, 
# crystal, experimental, refinement or atomic coordinate data resulting 
# from the CCDC's data processing and validation procedures.
#
#######################################################################

data_GISCIV
_chemical_formula_moiety         'C17 H14 O6'
_chemical_name_systematic        5,7-Dihydroxy-6,4'-dimethoxyflavone
_symmetry_cell_setting           triclinic
_symmetry_space_group_name_H-M   'P -1'
_symmetry_Int_Tables_number      2
_space_group_name_Hall           '-P 1'
loop_
_symmetry_equiv_pos_site_id
_symmetry_equiv_pos_as_xyz
1 x,y,z
2 -x,-y,-z
_cell_length_a                   6.9115(11)
_cell_length_b                   7.2583(12)
_cell_length_c                   14.649(2)
_cell_angle_alpha                82.739(6)
_cell_angle_beta                 88.424(6)
_cell_angle_gamma                76.907(6)
_cell_volume                     710.033
_exptl_crystal_colour            colorless
_exptl_crystal_description       prism
_chemical_melting_point          '497-499 K'
_cell_formula_units_Z            2
_exptl_crystal_recrystallization_method ether/chloroform
loop_
_atom_site_label
_atom_site_type_symbol
_atom_site_fract_x
_atom_site_fract_y
_atom_site_fract_z
C1 C -0.3004(3) 0.9240(3) 0.86019(11)
H1 H -0.3983 0.9715 0.9043
H2 H -0.1984 0.9951 0.8563
H3 H -0.2428 0.7918 0.8791
C2 C -0.2756(2) 0.8843(2) 0.70068(10)
C3 C -0.0702(2) 0.8314(2) 0.70196(10)
H4 H -0.0005 0.8308 0.7555
C4 C 0.0309(2) 0.7793(2) 0.62275(10)
H5 H 0.1689 0.7443 0.6237
C5 C -0.0691(2) 0.77829(18) 0.54212(9)
C6 C -0.2764(2) 0.8273(2) 0.54371(10)
H6 H -0.3473 0.8244 0.4911
C7 C -0.3773(2) 0.8797(2) 0.62189(11)
H7 H -0.5154 0.9123 0.6215
C8 C 0.0387(2) 0.72640(18) 0.45786(9)
C9 C 0.2359(2) 0.6569(2) 0.44969(10)
H8 H 0.3163 0.6392 0.5014
C10 C 0.3248(2) 0.6095(2) 0.36394(10)
C11 C 0.18831(19) 0.63688(18) 0.28746(9)
C12 C -0.0140(2) 0.71097(19) 0.30008(9)
C13 C -0.1511(2) 0.7425(2) 0.22975(10)
H9 H -0.2849 0.7941 0.2395
C14 C -0.0826(2) 0.6948(2) 0.14458(10)
C15 C 0.1185(2) 0.6180(2) 0.12867(9)
C16 C 0.2539(2) 0.5884(2) 0.19985(10)
C17 C 0.2732(3) 0.7014(3) -0.01218(11)
H10 H 0.3096 0.6582 -0.0709
H11 H 0.3904 0.7090 0.0195
H12 H 0.1849 0.8250 -0.0211
O1 O -0.39076(18) 0.94398(18) 0.77344(8)
O2 O 0.50778(15) 0.54639(17) 0.35414(7)
O3 O 0.44741(15) 0.51494(17) 0.18454(7)
H13 H 0.5105 0.5051 0.2322
O4 O 0.17552(15) 0.56933(15) 0.04163(7)
O5 O -0.21639(15) 0.72526(17) 0.07437(7)
H14 H -0.1587 0.6919 0.0275
O6 O -0.08666(13) 0.75600(14) 0.38456(6)
loop_
_geom_bond_atom_site_label_1
_geom_bond_atom_site_label_2
_geom_bond_site_symmetry_1
_geom_bond_site_symmetry_2
C1 H1 1_555 1_555
H2 C1 1_555 1_555
H3 C1 1_555 1_555
C2 C3 1_555 1_555
C3 H4 1_555 1_555
C4 C3 1_555 1_555
H5 C4 1_555 1_555
C5 C4 1_555 1_555
C6 C5 1_555 1_555
H6 C6 1_555 1_555
C7 C2 1_555 1_555
H7 C7 1_555 1_555
C8 C5 1_555 1_555
C9 C8 1_555 1_555
H8 C9 1_555 1_555
C10 C9 1_555 1_555
C11 C10 1_555 1_555
C12 C11 1_555 1_555
C13 C12 1_555 1_555
H9 C13 1_555 1_555
C14 C13 1_555 1_555
C15 C14 1_555 1_555
C16 C11 1_555 1_555
C17 H10 1_555 1_555
H11 C17 1_555 1_555
H12 C17 1_555 1_555
O1 C1 1_555 1_555
O2 C10 1_555 1_555
O3 C16 1_555 1_555
H13 O3 1_555 1_555
O4 C15 1_555 1_555
O5 C14 1_555 1_555
H14 O5 1_555 1_555
O6 C8 1_555 1_555
C2 O1 1_555 1_555
C6 C7 1_555 1_555
C12 O6 1_555 1_555
C15 C16 1_555 1_555
C17 O4 1_555 1_555

#END
