
#######################################################################
#
#                 Cambridge Crystallographic Data Centre
#                                CCDC 
#
#######################################################################
#
# If this CIF has been generated from an entry in the Cambridge 
# Structural Database, then it will include bibliographic, chemical, 
# crystal, experimental, refinement or atomic coordinate data resulting 
# from the CCDC's data processing and validation procedures.
#
#######################################################################

data_GISFOG
_chemical_formula_moiety         'C18 H22 O6'
_chemical_name_systematic        
4-(2-(2-oxo-1,3-dioxaspiro[4.5]decan-4-ylidene)ethylidene)-1,3-dioxaspiro[4.5]decan-2-one
_symmetry_cell_setting           monoclinic
_symmetry_space_group_name_H-M   'P 21/c'
_symmetry_Int_Tables_number      14
_space_group_name_Hall           '-P 2ybc'
loop_
_symmetry_equiv_pos_site_id
_symmetry_equiv_pos_as_xyz
1 x,y,z
2 -x,1/2+y,1/2-z
3 -x,-y,-z
4 x,1/2-y,1/2+z
_cell_length_a                   10.7599(5)
_cell_length_b                   7.2318(4)
_cell_length_c                   11.2408(6)
_cell_angle_alpha                90
_cell_angle_beta                 97.892(3)
_cell_angle_gamma                90
_cell_volume                     866.401
_exptl_crystal_colour            colorless
_exptl_crystal_description       block
_cell_formula_units_Z            2
loop_
_atom_site_label
_atom_site_type_symbol
_atom_site_fract_x
_atom_site_fract_y
_atom_site_fract_z
O1 O 0.40898(9) 0.21163(13) 0.39502(9)
O2 O 0.25481(8) 0.23224(13) 0.24371(9)
O3 O 0.33313(11) -0.04527(15) 0.30079(11)
C1 C 0.38563(11) 0.39965(18) 0.38181(12)
C2 C 0.33124(12) 0.1170(2) 0.31073(13)
C3 C 0.28144(11) 0.42534(17) 0.27949(12)
C4 C 0.45050(12) 0.52275(19) 0.45207(13)
H1 H 0.4310 0.6470 0.4389
C5 C 0.32272(13) 0.5265(2) 0.17370(13)
H2 H 0.3897 0.4573 0.1446
H3 H 0.3558 0.6467 0.2001
C6 C 0.05876(13) 0.5328(2) 0.21335(15)
H4 H 0.0307 0.4126 0.1822
H5 H -0.0120 0.5946 0.2411
C7 C 0.16338(12) 0.5081(2) 0.31828(14)
H6 H 0.1835 0.6274 0.3555
H7 H 0.1340 0.4282 0.3778
C8 C 0.10393(15) 0.6451(2) 0.11485(16)
H8 H 0.1275 0.7678 0.1447
H9 H 0.0366 0.6579 0.0485
C9 C 0.21564(16) 0.5526(3) 0.07117(14)
H10 H 0.2444 0.6277 0.0089
H11 H 0.1905 0.4332 0.0367
O1B O 0.59102(9) 0.78837(13) 0.60498(9)
O2B O 0.74519(8) 0.76776(13) 0.75629(9)
O3B O 0.66687(11) 1.04527(15) 0.69921(11)
C1B C 0.61437(11) 0.60035(18) 0.61819(12)
C2B C 0.66876(12) 0.8830(2) 0.68927(13)
C3B C 0.71856(11) 0.57466(17) 0.72051(12)
C4B C 0.54950(12) 0.47725(19) 0.54793(13)
H1B H 0.5690 0.3530 0.5611
C5B C 0.67728(13) 0.4735(2) 0.82630(13)
H2B H 0.6103 0.5427 0.8554
H3B H 0.6442 0.3533 0.7999
C6B C 0.94124(13) 0.4672(2) 0.78665(15)
H4B H 0.9693 0.5874 0.8178
H5B H 1.0120 0.4054 0.7589
C7B C 0.83662(12) 0.4919(2) 0.68172(14)
H6B H 0.8165 0.3726 0.6445
H7B H 0.8660 0.5718 0.6222
C8B C 0.89607(15) 0.3549(2) 0.88515(16)
H8B H 0.8725 0.2322 0.8553
H9B H 0.9634 0.3421 0.9515
C9B C 0.78436(16) 0.4474(3) 0.92883(14)
H10B H 0.7556 0.3723 0.9911
H11B H 0.8095 0.5668 0.9633
loop_
_geom_bond_atom_site_label_1
_geom_bond_atom_site_label_2
_geom_bond_site_symmetry_1
_geom_bond_site_symmetry_2
O1 C1 1_555 1_555
O2 C2 1_555 1_555
O3 C2 1_555 1_555
C1 C3 1_555 1_555
C2 O1 1_555 1_555
C3 O2 1_555 1_555
C4 C1 1_555 1_555
H1 C4 1_555 1_555
C5 C3 1_555 1_555
H2 C5 1_555 1_555
H3 C5 1_555 1_555
C6 H4 1_555 1_555
H5 C6 1_555 1_555
C7 C3 1_555 1_555
H6 C7 1_555 1_555
H7 C7 1_555 1_555
C8 C6 1_555 1_555
H8 C8 1_555 1_555
H9 C8 1_555 1_555
C9 C5 1_555 1_555
H10 C9 1_555 1_555
H11 C9 1_555 1_555
O1B C1B 1_555 1_555
O2B C2B 1_555 1_555
O3B C2B 1_555 1_555
C1B C3B 1_555 1_555
C2B O1B 1_555 1_555
C3B O2B 1_555 1_555
C4B C4 1_555 1_555
H1B C4B 1_555 1_555
C5B C3B 1_555 1_555
H2B C5B 1_555 1_555
H3B C5B 1_555 1_555
C6B H4B 1_555 1_555
H5B C6B 1_555 1_555
C7B C3B 1_555 1_555
H6B C7B 1_555 1_555
H7B C7B 1_555 1_555
C8B C6B 1_555 1_555
H8B C8B 1_555 1_555
H9B C8B 1_555 1_555
C9B C5B 1_555 1_555
H10B C9B 1_555 1_555
H11B C9B 1_555 1_555
C6 C7 1_555 1_555
C8 C9 1_555 1_555
C1B C4B 1_555 1_555
C6B C7B 1_555 1_555
C8B C9B 1_555 1_555

#END
