
#######################################################################
#
#                 Cambridge Crystallographic Data Centre
#                                CCDC 
#
#######################################################################
#
# If this CIF has been generated from an entry in the Cambridge 
# Structural Database, then it will include bibliographic, chemical, 
# crystal, experimental, refinement or atomic coordinate data resulting 
# from the CCDC's data processing and validation procedures.
#
#######################################################################

data_GISFIY
_chemical_name_common            
"alpha,alpha'-bis(acetyloxy)-4,6-dibromo-1,3-benzenedimethanol diacetate"
_chemical_formula_moiety         'C16 H16 Br2 O8'
_chemical_name_systematic        
'(4,6-Dibromo-m-phenylenedimethylidyne) tetraacetate'
_symmetry_cell_setting           orthorhombic
_symmetry_space_group_name_H-M   'P b c n'
_symmetry_Int_Tables_number      60
_space_group_name_Hall           '-P 2n 2ab'
loop_
_symmetry_equiv_pos_site_id
_symmetry_equiv_pos_as_xyz
1 x,y,z
2 1/2-x,1/2-y,1/2+z
3 -x,y,1/2-z
4 1/2+x,1/2-y,-z
5 -x,-y,-z
6 1/2+x,1/2+y,1/2-z
7 x,-y,1/2+z
8 1/2-x,1/2+y,z
_cell_length_a                   20.639(4)
_cell_length_b                   10.150(2)
_cell_length_c                   9.0880(18)
_cell_angle_alpha                90
_cell_angle_beta                 90
_cell_angle_gamma                90
_cell_volume                     1903.81
_exptl_crystal_colour            colorless
_exptl_crystal_description       plate
_cell_formula_units_Z            4
_exptl_crystal_recrystallization_method acetone
loop_
_atom_site_label
_atom_site_type_symbol
_atom_site_fract_x
_atom_site_fract_y
_atom_site_fract_z
Br1 Br 0.61944(4) 0.39329(6) 0.10603(9)
O1 O 0.6622(2) 0.6733(4) 0.2433(6)
O2 O 0.7386(3) 0.6717(7) 0.0680(7)
O3 O 0.6065(2) 0.8406(5) 0.1438(5)
O4 O 0.5702(3) 0.8387(5) -0.0882(6)
C1 C 0.5000 0.4229(8) 0.2500
H1 H 0.5000 0.3313 0.2500
C2 C 0.5520(3) 0.4888(6) 0.1917(7)
C3 C 0.5535(3) 0.6316(6) 0.1962(7)
C4 C 0.5000 0.6958(9) 0.2500
H2 H 0.5000 0.7874 0.2500
C5 C 0.6135(3) 0.6973(7) 0.1474(7)
H3 H 0.6256 0.6652 0.0494
C6 C 0.7244(4) 0.6543(8) 0.1961(9)
C7 C 0.7671(4) 0.6004(9) 0.3066(9)
H4 H 0.8098 0.5906 0.2661
H5 H 0.7513 0.5159 0.3375
H6 H 0.7688 0.6588 0.3896
C8 C 0.5877(3) 0.8970(7) 0.0164(10)
C9 C 0.5899(4) 1.0491(6) 0.0331(9)
H7 H 0.5761 1.0896 -0.0571
H8 H 0.6334 1.0762 0.0552
H9 H 0.5616 1.0757 0.1116
Br1B Br 0.38056(4) 0.39329(6) 0.39397(9)
O1B O 0.3378(2) 0.6733(4) 0.2567(6)
O2B O 0.2614(3) 0.6717(7) 0.4320(7)
O3B O 0.3935(2) 0.8406(5) 0.3562(5)
O4B O 0.4298(3) 0.8387(5) 0.5882(6)
C2B C 0.4480(3) 0.4888(6) 0.3083(7)
C3B C 0.4465(3) 0.6316(6) 0.3038(7)
C5B C 0.3865(3) 0.6973(7) 0.3526(7)
H3B H 0.3744 0.6652 0.4506
C6B C 0.2756(4) 0.6543(8) 0.3039(9)
C7B C 0.2329(4) 0.6004(9) 0.1934(9)
H4B H 0.1902 0.5906 0.2339
H5B H 0.2487 0.5159 0.1625
H6B H 0.2312 0.6588 0.1104
C8B C 0.4123(3) 0.8970(7) 0.4836(10)
C9B C 0.4101(4) 1.0491(6) 0.4669(9)
H7B H 0.4239 1.0896 0.5571
H8B H 0.3666 1.0762 0.4448
H9B H 0.4384 1.0757 0.3884
loop_
_geom_bond_atom_site_label_1
_geom_bond_atom_site_label_2
_geom_bond_site_symmetry_1
_geom_bond_site_symmetry_2
Br1 C2 1_555 1_555
O1 C5 1_555 1_555
O2 C6 1_555 1_555
O3 C5 1_555 1_555
O4 C8 1_555 1_555
C1 H1 1_555 1_555
C2 C1 1_555 1_555
C3 C2 1_555 1_555
C4 C3 1_555 1_555
H2 C4 1_555 1_555
C5 C3 1_555 1_555
H3 C5 1_555 1_555
C6 O1 1_555 1_555
C7 C6 1_555 1_555
H4 C7 1_555 1_555
H5 C7 1_555 1_555
H6 C7 1_555 1_555
C8 O3 1_555 1_555
C9 C8 1_555 1_555
H7 C9 1_555 1_555
H8 C9 1_555 1_555
H9 C9 1_555 1_555
Br1B C2B 1_555 1_555
O1B C5B 1_555 1_555
O2B C6B 1_555 1_555
O3B C5B 1_555 1_555
O4B C8B 1_555 1_555
C2B C1 1_555 1_555
C3B C4 1_555 1_555
C5B C3B 1_555 1_555
H3B C5B 1_555 1_555
C6B O1B 1_555 1_555
C7B C6B 1_555 1_555
H4B C7B 1_555 1_555
H5B C7B 1_555 1_555
H6B C7B 1_555 1_555
C8B O3B 1_555 1_555
C9B C8B 1_555 1_555
H7B C9B 1_555 1_555
H8B C9B 1_555 1_555
H9B C9B 1_555 1_555
C2B C3B 1_555 1_555

#END
