
#######################################################################
#
#                 Cambridge Crystallographic Data Centre
#                                CCDC 
#
#######################################################################
#
# If this CIF has been generated from an entry in the Cambridge 
# Structural Database, then it will include bibliographic, chemical, 
# crystal, experimental, refinement or atomic coordinate data resulting 
# from the CCDC's data processing and validation procedures.
#
#######################################################################

data_GISNOM
_chemical_formula_moiety         'C10 H9 Br1 N4 O1 S1'
_chemical_name_systematic        
4-(5-Bromo-2-hydroxylbenzylideneamino)-3-methyl-1H-1,2,4-triazole-5(4H)-thione
_symmetry_cell_setting           triclinic
_symmetry_space_group_name_H-M   'P -1'
_symmetry_Int_Tables_number      2
_space_group_name_Hall           '-P 1'
loop_
_symmetry_equiv_pos_site_id
_symmetry_equiv_pos_as_xyz
1 x,y,z
2 -x,-y,-z
_cell_length_a                   6.9780(8)
_cell_length_b                   7.1529(8)
_cell_length_c                   12.3119(14)
_cell_angle_alpha                83.561(2)
_cell_angle_beta                 88.820(2)
_cell_angle_gamma                79.987(2)
_cell_volume                     601.345
_exptl_crystal_colour            yellow
_exptl_crystal_description       plate
_cell_formula_units_Z            2
_exptl_crystal_recrystallization_method ethanol
loop_
_atom_site_label
_atom_site_type_symbol
_atom_site_fract_x
_atom_site_fract_y
_atom_site_fract_z
Br1 Br 0.79546(7) 0.36351(7) 0.64076(4)
C1 C 0.2803(6) 0.3219(6) 0.0688(3)
C2 C 0.5585(6) 0.2362(6) -0.0218(3)
C3 C 0.7615(6) 0.1524(7) -0.0409(4)
H1 H 0.7832 0.1481 -0.1178
H2 H 0.7886 0.0253 -0.0038
H3 H 0.8457 0.2290 -0.0134
C4 C 0.5834(6) 0.2340(6) 0.2504(3)
H4 H 0.5514 0.3663 0.2371
C5 C 0.6609(5) 0.1469(6) 0.3552(3)
C6 C 0.6983(5) -0.0480(6) 0.3857(3)
C7 C 0.7585(6) -0.1188(6) 0.4911(3)
H5 H 0.7807 -0.2500 0.5114
C8 C 0.7855(6) 0.0030(6) 0.5659(3)
H6 H 0.8259 -0.0456 0.6365
C9 C 0.7521(5) 0.2008(6) 0.5355(3)
C10 C 0.6892(6) 0.2752(6) 0.4322(3)
H7 H 0.6654 0.4065 0.4126
N1 N 0.4330(5) 0.3251(5) -0.0963(3)
N2 N 0.2652(5) 0.3746(5) -0.0387(3)
N3 N 0.4714(5) 0.2332(4) 0.0799(3)
N4 N 0.5586(5) 0.1292(5) 0.1755(3)
O1 O 0.6727(5) -0.1790(4) 0.3183(3)
S1 S 0.10932(16) 0.35060(17) 0.16652(9)
H8 H 0.161(5) 0.440(6) -0.069(4)
H9 H 0.640(8) -0.123(7) 0.258(2)
loop_
_geom_bond_atom_site_label_1
_geom_bond_atom_site_label_2
_geom_bond_site_symmetry_1
_geom_bond_site_symmetry_2
Br1 C9 1_555 1_555
C1 N2 1_555 1_555
C2 C3 1_555 1_555
C3 H1 1_555 1_555
H2 C3 1_555 1_555
H3 C3 1_555 1_555
C4 H4 1_555 1_555
C5 C4 1_555 1_555
C6 C5 1_555 1_555
C7 C6 1_555 1_555
H5 C7 1_555 1_555
C8 C7 1_555 1_555
H6 C8 1_555 1_555
C9 C8 1_555 1_555
C10 C5 1_555 1_555
H7 C10 1_555 1_555
N1 C2 1_555 1_555
N2 N1 1_555 1_555
N3 C1 1_555 1_555
N4 C4 1_555 1_555
O1 C6 1_555 1_555
S1 C1 1_555 1_555
H8 N2 1_555 1_555
H9 O1 1_555 1_555
C2 N3 1_555 1_555
C9 C10 1_555 1_555
N3 N4 1_555 1_555

#END
