
#######################################################################
#
#                 Cambridge Crystallographic Data Centre
#                                CCDC 
#
#######################################################################
#
# If this CIF has been generated from an entry in the Cambridge 
# Structural Database, then it will include bibliographic, chemical, 
# crystal, experimental, refinement or atomic coordinate data resulting 
# from the CCDC's data processing and validation procedures.
#
#######################################################################

data_GISNAZ
_chemical_formula_moiety         'C28 H32 N2 O2'
_chemical_name_systematic        
4,4'-((2,5-Dibutoxy-1,4-phenylene)diethene-2,1-diyl)dipyridine
_symmetry_cell_setting           tetragonal
_symmetry_space_group_name_H-M   'I 41/a'
_symmetry_Int_Tables_number      88
_space_group_name_Hall           '-I 4ad'
loop_
_symmetry_equiv_pos_site_id
_symmetry_equiv_pos_as_xyz
1 x,y,z
2 -x,1/2-y,z
3 3/4-y,1/4+x,1/4+z
4 1/4+y,1/4-x,1/4+z
5 1/2+x,1/2+y,1/2+z
6 1/2-x,-y,1/2+z
7 1/4-y,3/4+x,3/4+z
8 3/4+y,3/4-x,3/4+z
9 -x,-y,-z
10 x,1/2+y,-z
11 1/4+y,3/4-x,3/4-z
12 3/4-y,3/4+x,3/4-z
13 1/2-x,1/2-y,1/2-z
14 1/2+x,y,1/2-z
15 3/4+y,1/4-x,1/4-z
16 1/4-y,1/4+x,1/4-z
_cell_length_a                   27.908(5)
_cell_length_b                   27.908(5)
_cell_length_c                   6.521(5)
_cell_angle_alpha                90
_cell_angle_beta                 90
_cell_angle_gamma                90
_cell_volume                     5078.92
_exptl_crystal_colour            green
_exptl_crystal_description       block
_cell_formula_units_Z            8
loop_
_atom_site_label
_atom_site_type_symbol
_atom_site_fract_x
_atom_site_fract_y
_atom_site_fract_z
C1 C 0.48592(14) 0.95961(15) 0.3895(6)
C2 C 0.40155(15) 1.02051(14) 0.9017(6)
H1 H 0.3853 0.9994 0.8159
O1 O 0.47592(11) 0.91908(11) 0.2770(5)
C3 C 0.47350(14) 1.01439(14) 0.6753(6)
C4 C 0.44654(15) 1.03061(14) 0.8559(6)
H2 H 0.4629 1.0501 0.9479
C5 C 0.46028(14) 0.97387(14) 0.5611(6)
H3 H 0.4337 0.9562 0.6016
C6 C 0.39788(16) 1.05751(14) 1.2525(7)
H4 H 0.4311 1.0560 1.2638
N1 N 0.32323(16) 1.08113(14) 1.4070(6)
C7 C 0.37523(14) 1.04003(13) 1.0775(6)
C8 C 0.37067(19) 1.07724(15) 1.4106(7)
H5 H 0.3868 1.0884 1.5260
C9 C 0.32537(16) 1.04330(16) 1.0749(7)
H6 H 0.3081 1.0315 0.9638
C10 C 0.30165(17) 1.06429(17) 1.2391(9)
H7 H 0.2685 1.0668 1.2316
C11 C 0.42910(17) 0.90028(18) 0.2775(8)
H8 H 0.4067 0.9243 0.2294
H9 H 0.4201 0.8912 0.4158
C12 C 0.4493(3) 0.8550(3) -0.0477(11)
H10 H 0.4830 0.8613 -0.0248
H11 H 0.4370 0.8816 -0.1279
C13 C 0.4273(2) 0.8570(3) 0.1389(10)
H12 H 0.4398 0.8303 0.2181
H13 H 0.3937 0.8503 0.1150
C14 C 0.4462(2) 0.8120(2) -0.1784(9)
H14 H 0.4665 0.7873 -0.1234
H15 H 0.4564 0.8198 -0.3149
H16 H 0.4137 0.8008 -0.1819
C1H C 0.51408(14) 1.04039(15) 0.6105(6)
C2H C 0.59845(15) 0.97949(14) 0.0983(6)
H1H H 0.6147 1.0006 0.1841
O1H O 0.52408(11) 1.08092(11) 0.7230(5)
C3H C 0.52650(14) 0.98561(14) 0.3247(6)
C4H C 0.55346(15) 0.96939(14) 0.1441(6)
H2H H 0.5371 0.9499 0.0521
C5H C 0.53972(14) 1.02613(14) 0.4389(6)
H3H H 0.5663 1.0438 0.3984
C6H C 0.60212(16) 0.94249(14) -0.2525(7)
H4H H 0.5689 0.9440 -0.2638
N1H N 0.67677(16) 0.91887(14) -0.4070(6)
C7H C 0.62477(14) 0.95997(13) -0.0775(6)
C8H C 0.62933(19) 0.92276(15) -0.4106(7)
H5H H 0.6132 0.9116 -0.5260
C9H C 0.67463(16) 0.95670(16) -0.0749(7)
H6H H 0.6919 0.9685 0.0362
C10H C 0.69835(17) 0.93571(17) -0.2391(9)
H7H H 0.7315 0.9332 -0.2316
C11H C 0.57090(17) 1.09972(18) 0.7225(8)
H8H H 0.5933 1.0757 0.7706
H9H H 0.5799 1.1088 0.5842
C12H C 0.5507(3) 1.1450(3) 1.0477(11)
H10H H 0.5170 1.1387 1.0248
H11H H 0.5630 1.1184 1.1279
C13H C 0.5727(2) 1.1430(3) 0.8611(10)
H12H H 0.5602 1.1697 0.7819
H13H H 0.6063 1.1497 0.8850
C14H C 0.5538(2) 1.1880(2) 1.1784(9)
H14H H 0.5335 1.2127 1.1234
H15H H 0.5436 1.1802 1.3149
H16H H 0.5863 1.1992 1.1819
loop_
_geom_bond_atom_site_label_1
_geom_bond_atom_site_label_2
_geom_bond_site_symmetry_1
_geom_bond_site_symmetry_2
C1 O1 1_555 1_555
C2 H1 1_555 1_555
O1 C11 1_555 1_555
C3 C4 1_555 1_555
C4 C2 1_555 1_555
H2 C4 1_555 1_555
C5 C1 1_555 1_555
H3 C5 1_555 1_555
C6 H4 1_555 1_555
N1 C8 1_555 1_555
C7 C2 1_555 1_555
C8 C6 1_555 1_555
H5 C8 1_555 1_555
C9 C7 1_555 1_555
H6 C9 1_555 1_555
C10 N1 1_555 1_555
H7 C10 1_555 1_555
C11 H8 1_555 1_555
H9 C11 1_555 1_555
C12 H10 1_555 1_555
H11 C12 1_555 1_555
C13 C11 1_555 1_555
H12 C13 1_555 1_555
H13 C13 1_555 1_555
C14 C12 1_555 1_555
H14 C14 1_555 1_555
H15 C14 1_555 1_555
H16 C14 1_555 1_555
C1H C3 1_555 1_555
C2H H1H 1_555 1_555
O1H C1H 1_555 1_555
C3H C1 1_555 1_555
C4H C2H 1_555 1_555
H2H C4H 1_555 1_555
C5H C1H 1_555 1_555
H3H C5H 1_555 1_555
C6H H4H 1_555 1_555
N1H C8H 1_555 1_555
C7H C2H 1_555 1_555
C8H C6H 1_555 1_555
H5H C8H 1_555 1_555
C9H C7H 1_555 1_555
H6H C9H 1_555 1_555
C10H N1H 1_555 1_555
H7H C10H 1_555 1_555
C11H O1H 1_555 1_555
H8H C11H 1_555 1_555
H9H C11H 1_555 1_555
C12H H10H 1_555 1_555
H11H C12H 1_555 1_555
C13H C11H 1_555 1_555
H12H C13H 1_555 1_555
H13H C13H 1_555 1_555
C14H C12H 1_555 1_555
H14H C14H 1_555 1_555
H15H C14H 1_555 1_555
H16H C14H 1_555 1_555
C3 C5 1_555 1_555
C6 C7 1_555 1_555
C9 C10 1_555 1_555
C12 C13 1_555 1_555
C3H C4H 1_555 1_555
C3H C5H 1_555 1_555
C6H C7H 1_555 1_555
C9H C10H 1_555 1_555
C12H C13H 1_555 1_555

#END
