
#######################################################################
#
#                 Cambridge Crystallographic Data Centre
#                                CCDC 
#
#######################################################################
#
# If this CIF has been generated from an entry in the Cambridge 
# Structural Database, then it will include bibliographic, chemical, 
# crystal, experimental, refinement or atomic coordinate data resulting 
# from the CCDC's data processing and validation procedures.
#
#######################################################################

data_GISPEE01
_chemical_formula_moiety         'C12 H15 N1 O7,0.5(H2 O1)'
_chemical_name_systematic        
'4-Nitrophenyl \a-L-rhamnopyranoside hemihydrate'
_symmetry_cell_setting           monoclinic
_symmetry_space_group_name_H-M   'P 21'
_symmetry_Int_Tables_number      4
_space_group_name_Hall           'P 2yb'
loop_
_symmetry_equiv_pos_site_id
_symmetry_equiv_pos_as_xyz
1 x,y,z
2 -x,1/2+y,-z
_cell_length_a                   10.6189(10)
_cell_length_b                   6.9002(7)
_cell_length_c                   18.9318(18)
_cell_angle_alpha                90
_cell_angle_beta                 100.909(2)
_cell_angle_gamma                90
_cell_volume                     1362.11
_exptl_crystal_colour            colorless
_exptl_crystal_description       prismatic
_chemical_melting_point          '452-453 K'
_cell_formula_units_Z            4
_exptl_crystal_recrystallization_method ethanol
loop_
_atom_site_label
_atom_site_type_symbol
_atom_site_fract_x
_atom_site_fract_y
_atom_site_fract_z
O1 O 0.19455(17) 1.0324(2) 0.33890(9)
O2 O 0.1174(2) 0.9293(3) 0.47272(10)
O3 O 0.33922(18) 0.7408(3) 0.52541(9)
O4 O 0.51029(17) 0.9318(3) 0.44976(10)
O5 O 0.16218(18) 0.7063(2) 0.30768(9)
O6 O 0.0339(3) 0.8596(5) -0.02333(13)
O7 O 0.1729(2) 0.6342(4) -0.01726(11)
N1 N 0.1080(2) 0.7455(4) 0.01055(13)
C1 C 0.1293(2) 0.8625(4) 0.34999(14)
H1 H 0.0367 0.8859 0.3373
C2 C 0.1625(2) 0.7922(4) 0.42766(14)
H2 H 0.1225 0.6659 0.4321
C3 C 0.3070(2) 0.7757(4) 0.45007(12)
H3 H 0.3366 0.6660 0.4247
C4 C 0.3743(2) 0.9566(4) 0.43259(12)
H4 H 0.3514 1.0619 0.4625
C5 C 0.3317(2) 1.0148(4) 0.35410(13)
H5 H 0.3574 0.9137 0.3233
C6 C 0.3851(3) 1.2050(5) 0.33591(17)
H6 H 0.3556 1.2323 0.2858
H7 H 0.4771 1.1991 0.3460
H8 H 0.3569 1.3056 0.3643
C7 C 0.1446(2) 0.7275(4) 0.23480(13)
C8 C 0.0812(3) 0.8810(4) 0.19674(15)
H9 H 0.0478 0.9806 0.2207
C9 C 0.0680(3) 0.8846(5) 0.12280(16)
H10 H 0.0243 0.9858 0.0964
C10 C 0.1192(3) 0.7394(4) 0.08867(14)
C11 C 0.1813(3) 0.5855(5) 0.12565(15)
H11 H 0.2150 0.4869 0.1013
C12 C 0.1930(3) 0.5790(4) 0.19884(15)
H12 H 0.2336 0.4743 0.2245
H26 H 0.038(4) 0.906(6) 0.476(2)
H27 H 0.389(3) 0.639(5) 0.5343(16)
H28 H 0.530(3) 0.830(4) 0.4316(18)
O8 O 0.82087(17) 0.6288(2) 0.22589(9)
O9 O 0.7702(2) 0.8782(3) 0.33951(12)
O10 O 0.6155(2) 0.6111(3) 0.39139(10)
O11 O 0.7502(2) 0.2697(2) 0.35244(11)
O12 O 0.60585(18) 0.6789(3) 0.17194(10)
O13 O 0.4597(3) 0.6372(5) -0.16104(13)
O14 O 0.6635(3) 0.6568(6) -0.14965(14)
N2 N 0.5671(3) 0.6494(4) -0.12425(14)
C13 C 0.7158(2) 0.7509(4) 0.21975(14)
H13 H 0.7388 0.8774 0.2023
C14 C 0.6727(3) 0.7788(4) 0.29176(14)
H14 H 0.5930 0.8540 0.2846
C15 C 0.6516(2) 0.5824(4) 0.32289(13)
H15 H 0.5806 0.5181 0.2908
C16 C 0.7705(3) 0.4593(3) 0.32767(13)
H16 H 0.8422 0.5205 0.3603
C17 C 0.8030(3) 0.4388(4) 0.25371(14)
H17 H 0.7318 0.3744 0.2218
C18 C 0.9237(3) 0.3276(5) 0.2535(2)
H18 H 0.9419 0.3265 0.2057
H19 H 0.9132 0.1970 0.2688
H20 H 0.9933 0.3879 0.2857
C19 C 0.6052(3) 0.6749(4) 0.09986(14)
C20 C 0.4846(3) 0.6600(4) 0.05670(15)
H21 H 0.4122 0.6551 0.0776
C21 C 0.4716(3) 0.6523(4) -0.01641(15)
H22 H 0.3908 0.6428 -0.0455
C22 C 0.5802(3) 0.6590(4) -0.04625(15)
C23 C 0.7006(3) 0.6735(5) -0.00431(16)
H23 H 0.7725 0.6778 -0.0256
C24 C 0.7141(3) 0.6817(5) 0.06912(16)
H24 H 0.7950 0.6916 0.0980
H25 H 0.617(4) 0.501(3) 0.4090(18)
H29 H 0.753(3) 0.991(5) 0.3344(17)
H30 H 0.743(3) 0.284(5) 0.3943(11)
O15 O 0.8807(2) 0.8258(3) 0.49102(14)
H31 H 0.835(5) 0.829(8) 0.4467(15)
H32 H 0.873(5) 0.708(4) 0.507(3)
loop_
_geom_bond_atom_site_label_1
_geom_bond_atom_site_label_2
_geom_bond_site_symmetry_1
_geom_bond_site_symmetry_2
O1 C1 1_555 1_555
O2 C2 1_555 1_555
O3 C3 1_555 1_555
O4 C4 1_555 1_555
O5 C1 1_555 1_555
O6 N1 1_555 1_555
O7 N1 1_555 1_555
O8 C13 1_555 1_555
O9 C14 1_555 1_555
O10 C15 1_555 1_555
O11 C16 1_555 1_555
O12 C13 1_555 1_555
O13 N2 1_555 1_555
O14 N2 1_555 1_555
O15 H31 1_555 1_555
N1 C10 1_555 1_555
N2 C22 1_555 1_555
C1 H1 1_555 1_555
C2 C1 1_555 1_555
H2 C2 1_555 1_555
C3 C2 1_555 1_555
H3 C3 1_555 1_555
C4 C3 1_555 1_555
H4 C4 1_555 1_555
C5 O1 1_555 1_555
H5 C5 1_555 1_555
C6 C5 1_555 1_555
H6 C6 1_555 1_555
H7 C6 1_555 1_555
H8 C6 1_555 1_555
C7 O5 1_555 1_555
C8 C7 1_555 1_555
H9 C8 1_555 1_555
C9 C8 1_555 1_555
H10 C9 1_555 1_555
C10 C9 1_555 1_555
C11 C10 1_555 1_555
H11 C11 1_555 1_555
C12 C7 1_555 1_555
H12 C12 1_555 1_555
C13 H13 1_555 1_555
C14 C13 1_555 1_555
H14 C14 1_555 1_555
C15 C14 1_555 1_555
H15 C15 1_555 1_555
C16 C15 1_555 1_555
H16 C16 1_555 1_555
C17 O8 1_555 1_555
H17 C17 1_555 1_555
C18 C17 1_555 1_555
H18 C18 1_555 1_555
H19 C18 1_555 1_555
H20 C18 1_555 1_555
C19 O12 1_555 1_555
C20 C19 1_555 1_555
H21 C20 1_555 1_555
C21 C20 1_555 1_555
H22 C21 1_555 1_555
C22 C21 1_555 1_555
C23 C22 1_555 1_555
H23 C23 1_555 1_555
C24 C19 1_555 1_555
H24 C24 1_555 1_555
H25 O10 1_555 1_555
H26 O2 1_555 1_555
H27 O3 1_555 1_555
H28 O4 1_555 1_555
H29 O9 1_555 1_555
H30 O11 1_555 1_555
H32 O15 1_555 1_555
C4 C5 1_555 1_555
C11 C12 1_555 1_555
C16 C17 1_555 1_555
C23 C24 1_555 1_555

#END
