
#######################################################################
#
#                 Cambridge Crystallographic Data Centre
#                                CCDC 
#
#######################################################################
#
# If this CIF has been generated from an entry in the Cambridge 
# Structural Database, then it will include bibliographic, chemical, 
# crystal, experimental, refinement or atomic coordinate data resulting 
# from the CCDC's data processing and validation procedures.
#
#######################################################################

data_GISROQ
_chemical_name_common            'Fluorescein hydrazide'
_chemical_formula_moiety         'C20 H14 N2 O4,H2 O1'
_chemical_name_systematic        
"2'-Amino-3,6-dihydroxyxanthene-9-spiro-1'-isoindolin-3'-one monohydrate"
_symmetry_cell_setting           triclinic
_symmetry_space_group_name_H-M   'P -1'
_symmetry_Int_Tables_number      2
_space_group_name_Hall           '-P 1'
loop_
_symmetry_equiv_pos_site_id
_symmetry_equiv_pos_as_xyz
1 x,y,z
2 -x,-y,-z
_cell_length_a                   7.8524(9)
_cell_length_b                   10.7077(13)
_cell_length_c                   11.2137(13)
_cell_angle_alpha                103.857(2)
_cell_angle_beta                 110.432(2)
_cell_angle_gamma                99.704(2)
_cell_volume                     824.221
_exptl_crystal_colour            'light orange'
_exptl_crystal_description       block
_cell_formula_units_Z            2
_exptl_crystal_preparation       fluorescent
loop_
_atom_site_label
_atom_site_type_symbol
_atom_site_fract_x
_atom_site_fract_y
_atom_site_fract_z
C1 C 0.7582(4) 0.8546(3) 1.0078(3)
C2 C 0.8972(4) 0.7821(3) 0.9920(3)
C3 C 1.0760(4) 0.7941(3) 1.0832(3)
H1 H 1.1261 0.8547 1.1699
C4 C 1.1785(4) 0.7131(3) 1.0418(3)
H2 H 1.2993 0.7193 1.1012
C5 C 1.1019(4) 0.6226(3) 0.9121(3)
H3 H 1.1725 0.5688 0.8859
C6 C 0.9215(4) 0.6111(3) 0.8207(3)
H4 H 0.8709 0.5510 0.7337
C7 C 0.8206(4) 0.6910(3) 0.8629(3)
C8 C 0.6212(4) 0.6958(2) 0.7840(2)
C9 C 0.4728(4) 0.5651(3) 0.7417(2)
C10 C 0.4807(4) 0.4862(3) 0.8257(3)
H5 H 0.5825 0.5137 0.9089
C11 C 0.3430(4) 0.3696(3) 0.7891(3)
H6 H 0.3522 0.3195 0.8471
C12 C 0.1896(4) 0.3268(3) 0.6649(3)
C13 C 0.1775(4) 0.4022(3) 0.5803(3)
H7 H 0.0753 0.3747 0.4973
C14 C 0.3180(4) 0.5193(3) 0.6192(3)
C15 C 0.4389(4) 0.6917(3) 0.5467(3)
C16 C 0.4123(4) 0.7408(3) 0.4402(3)
H8 H 0.3018 0.7034 0.3621
C17 C 0.5519(4) 0.8459(3) 0.4512(3)
C18 C 0.7171(4) 0.9011(3) 0.5690(3)
H9 H 0.8112 0.9723 0.5770
C19 C 0.7401(4) 0.8499(3) 0.6729(3)
H10 H 0.8511 0.8870 0.7507
C20 C 0.6026(4) 0.7444(2) 0.6654(2)
N1 N 0.4419(4) 0.8470(3) 0.8590(3)
N2 N 0.6013(3) 0.7991(2) 0.8911(2)
O1 O 0.7722(3) 0.9475(2) 1.1028(2)
O2 O 0.0591(3) 0.2089(2) 0.6320(2)
H11 H -0.0062 0.1822 0.5509
O3 O 0.2926(3) 0.5867(2) 0.52644(19)
O4 O 0.5213(3) 0.8911(2) 0.34392(19)
H12 H 0.6073 0.9578 0.3637
H13 H 0.379(6) 0.820(4) 0.896(4)
H14 H 0.481(4) 0.936(3) 0.889(2)
O5 O 0.1874(3) 0.9043(2) 0.6353(2)
H15 H 0.2675 0.8615 0.6600
H16 H 0.1586 0.9439 0.7003
loop_
_geom_bond_atom_site_label_1
_geom_bond_atom_site_label_2
_geom_bond_site_symmetry_1
_geom_bond_site_symmetry_2
C1 C2 1_555 1_555
C2 C3 1_555 1_555
C3 H1 1_555 1_555
C4 C3 1_555 1_555
H2 C4 1_555 1_555
C5 C4 1_555 1_555
H3 C5 1_555 1_555
C6 C5 1_555 1_555
H4 C6 1_555 1_555
C7 C2 1_555 1_555
C8 C7 1_555 1_555
C9 C8 1_555 1_555
C10 C9 1_555 1_555
H5 C10 1_555 1_555
C11 C10 1_555 1_555
H6 C11 1_555 1_555
C12 C11 1_555 1_555
C13 C12 1_555 1_555
H7 C13 1_555 1_555
C14 C9 1_555 1_555
C15 C16 1_555 1_555
C16 H8 1_555 1_555
C17 C16 1_555 1_555
C18 C17 1_555 1_555
H9 C18 1_555 1_555
C19 C18 1_555 1_555
H10 C19 1_555 1_555
C20 C8 1_555 1_555
N1 N2 1_555 1_555
N2 C1 1_555 1_555
O1 C1 1_555 1_555
O2 C12 1_555 1_555
H11 O2 1_555 1_555
O3 C14 1_555 1_555
O4 C17 1_555 1_555
H12 O4 1_555 1_555
O5 H15 1_555 1_555
H13 N1 1_555 1_555
H14 N1 1_555 1_555
H16 O5 1_555 1_555
C6 C7 1_555 1_555
C8 N2 1_555 1_555
C13 C14 1_555 1_555
C15 C20 1_555 1_555
C15 O3 1_555 1_555
C19 C20 1_555 1_555

#END
