
#######################################################################
#
#                 Cambridge Crystallographic Data Centre
#                                CCDC 
#
#######################################################################
#
# If this CIF has been generated from an entry in the Cambridge 
# Structural Database, then it will include bibliographic, chemical, 
# crystal, experimental, refinement or atomic coordinate data resulting 
# from the CCDC's data processing and validation procedures.
#
#######################################################################

data_GISRAC
_chemical_formula_moiety         'C11 H14 N2 O1'
_chemical_name_systematic        
3,3'-(2-Oxocyclopentane-1,3-diyl)dipropanenitrile
_symmetry_cell_setting           monoclinic
_symmetry_space_group_name_H-M   'C 2/c'
_symmetry_Int_Tables_number      15
_space_group_name_Hall           '-C 2yn'
loop_
_symmetry_equiv_pos_site_id
_symmetry_equiv_pos_as_xyz
1 x,y,z
2 1/2+x,1/2+y,z
3 -x,y,1/2-z
4 1/2-x,1/2+y,1/2-z
5 -x,-y,-z
6 1/2-x,1/2-y,-z
7 x,-y,1/2+z
8 1/2+x,1/2-y,1/2+z
_cell_length_a                   18.261(3)
_cell_length_b                   7.8182(10)
_cell_length_c                   8.1943(11)
_cell_angle_alpha                90
_cell_angle_beta                 111.510(9)
_cell_angle_gamma                90
_cell_volume                     1088.41
_exptl_crystal_colour            colorless
_exptl_crystal_description       block
_chemical_melting_point          '335-336 K'
_cell_formula_units_Z            4
_exptl_crystal_recrystallization_method methanol
loop_
_atom_site_label
_atom_site_type_symbol
_atom_site_fract_x
_atom_site_fract_y
_atom_site_fract_z
O1 O 1.0000 1.0500(2) 0.2500
N1 N 0.69534(13) 0.8243(3) -0.3591(3)
C1 C 1.0000 0.8948(3) 0.2500
C2 C 0.95717(10) 0.7841(2) 0.0927(2)
H1 H 0.9889 0.7818 0.0189
C3 C 0.96129(10) 0.6064(2) 0.1722(2)
H2 H 0.9174 0.5874 0.2097
H3 H 0.9609 0.5184 0.0884
C4 C 0.87656(11) 0.8505(2) -0.0189(2)
H4 H 0.8805 0.9706 -0.0443
H5 H 0.8417 0.8409 0.0461
C5 C 0.84170(11) 0.7522(3) -0.1902(3)
H6 H 0.8720 0.7769 -0.2630
H7 H 0.8460 0.6305 -0.1651
C6 C 0.75994(14) 0.7945(3) -0.2864(3)
N1B N 1.30466(13) 0.8243(3) 0.8591(3)
C2B C 1.04283(10) 0.7841(2) 0.4073(2)
H1B H 1.0111 0.7818 0.4811
C3B C 1.03871(10) 0.6064(2) 0.3278(2)
H2B H 1.0826 0.5874 0.2903
H3B H 1.0391 0.5184 0.4116
C4B C 1.12344(11) 0.8505(2) 0.5189(2)
H4B H 1.1195 0.9706 0.5443
H5B H 1.1583 0.8409 0.4539
C5B C 1.15830(11) 0.7522(3) 0.6902(3)
H6B H 1.1280 0.7769 0.7630
H7B H 1.1540 0.6305 0.6651
C6B C 1.24006(14) 0.7945(3) 0.7864(3)
loop_
_geom_bond_atom_site_label_1
_geom_bond_atom_site_label_2
_geom_bond_site_symmetry_1
_geom_bond_site_symmetry_2
O1 C1 1_555 1_555
N1 C6 1_555 1_555
C1 C2 1_555 1_555
C2 H1 1_555 1_555
C3 C2 1_555 1_555
H2 C3 1_555 1_555
H3 C3 1_555 1_555
C4 C2 1_555 1_555
H4 C4 1_555 1_555
H5 C4 1_555 1_555
C5 C4 1_555 1_555
H6 C5 1_555 1_555
H7 C5 1_555 1_555
C6 C5 1_555 1_555
N1B C6B 1_555 1_555
C2B C1 1_555 1_555
H1B C2B 1_555 1_555
C3B C3 1_555 1_555
H2B C3B 1_555 1_555
H3B C3B 1_555 1_555
C4B C2B 1_555 1_555
H4B C4B 1_555 1_555
H5B C4B 1_555 1_555
C5B C4B 1_555 1_555
H6B C5B 1_555 1_555
H7B C5B 1_555 1_555
C6B C5B 1_555 1_555
C2B C3B 1_555 1_555

#END
