
#######################################################################
#
#                 Cambridge Crystallographic Data Centre
#                                CCDC 
#
#######################################################################
#
# If this CIF has been generated from an entry in the Cambridge 
# Structural Database, then it will include bibliographic, chemical, 
# crystal, experimental, refinement or atomic coordinate data resulting 
# from the CCDC's data processing and validation procedures.
#
#######################################################################

data_GISSUX
_chemical_formula_moiety         'C35 H36 N4 O3'
_chemical_name_systematic        
2-(((3',6'-bis(ethylamino)-2',7'-dimethyl-3-oxospiro(1H-isoindole-1,9'-9H-xanthen)-2-yl)ethyl)iminomethyl)phenol
_symmetry_cell_setting           triclinic
_symmetry_space_group_name_H-M   'P -1'
_symmetry_Int_Tables_number      2
_space_group_name_Hall           '-P 1'
loop_
_symmetry_equiv_pos_site_id
_symmetry_equiv_pos_as_xyz
1 x,y,z
2 -x,-y,-z
_cell_length_a                   11.6453(5)
_cell_length_b                   11.8588(3)
_cell_length_c                   12.9822(3)
_cell_angle_alpha                116.3210(10)
_cell_angle_beta                 103.173(2)
_cell_angle_gamma                98.337(2)
_cell_volume                     1501.21
_exptl_crystal_colour            white
_exptl_crystal_description       block
_cell_formula_units_Z            2
_exptl_crystal_recrystallization_method hexane/dichloromethane
loop_
_atom_site_label
_atom_site_type_symbol
_atom_site_fract_x
_atom_site_fract_y
_atom_site_fract_z
O1 O 0.61529(16) 0.99784(14) 0.12430(14)
O2 O 0.52746(17) 1.55773(17) 0.38418(16)
O3 O 0.10319(17) 1.2888(2) -0.06993(17)
H1 H 0.1732 1.3180 -0.0213
N1 N 0.55473(16) 1.35526(16) 0.27576(15)
N2 N 0.34153(17) 1.29474(18) -0.01746(17)
N3 N 0.88189(19) 1.10924(19) -0.06256(18)
H2 H 0.9285 1.1680 -0.0682
N4 N 0.35515(18) 0.83845(18) 0.29282(19)
H3 H 0.3082 0.8541 0.3369
C1 C 0.6847(2) 1.0985(2) 0.11824(19)
C2 C 0.7442(2) 1.0584(2) 0.0336(2)
H4 H 0.7345 0.9694 -0.0143
C3 C 0.8187(2) 1.1487(2) 0.0184(2)
C4 C 0.82894(19) 1.2838(2) 0.0902(2)
C5 C 0.7681(2) 1.3186(2) 0.1733(2)
H5 H 0.7758 1.4072 0.2205
C6 C 0.69504(19) 1.2290(2) 0.19164(19)
C7 C 0.63690(19) 1.2743(2) 0.29058(19)
C8 C 0.56535(19) 1.1577(2) 0.29171(19)
C9 C 0.5015(2) 1.1743(2) 0.37370(19)
H6 H 0.5057 1.2593 0.4294
C10 C 0.4326(2) 1.0719(2) 0.3771(2)
C11 C 0.4261(2) 0.9423(2) 0.2921(2)
C12 C 0.4884(2) 0.9238(2) 0.2102(2)
H7 H 0.4847 0.8392 0.1540
C13 C 0.5566(2) 1.0302(2) 0.21049(19)
C14 C 0.9068(2) 1.3854(2) 0.0759(2)
H8 H 0.8967 1.4698 0.1244
H9 H 0.8818 1.3633 -0.0080
H10 H 0.9916 1.3879 0.1023
C15 C 0.8734(3) 0.9726(2) -0.1390(2)
H11 H 0.7899 0.9267 -0.1946
H12 H 0.8922 0.9328 -0.0884
C16 C 0.9601(3) 0.9574(3) -0.2109(3)
H13 H 0.9549 0.8663 -0.2572
H14 H 1.0426 1.0050 -0.1563
H15 H 0.9382 0.9914 -0.2651
C17 C 0.3645(2) 1.0961(2) 0.4661(2)
H16 H 0.3775 1.1887 0.5149
H17 H 0.3941 1.0612 0.5177
H18 H 0.2783 1.0540 0.4229
C18 C 0.3572(2) 0.7054(2) 0.2223(2)
H19 H 0.4406 0.6995 0.2449
H20 H 0.3307 0.6794 0.1366
C19 C 0.2740(3) 0.6137(3) 0.2434(3)
H21 H 0.2798 0.5262 0.1987
H22 H 0.1907 0.6153 0.2162
H23 H 0.2986 0.6411 0.3286
C20 C 0.7308(2) 1.3743(2) 0.41426(19)
C21 C 0.8369(2) 1.3621(2) 0.4758(2)
H24 H 0.8599 1.2852 0.4427
C22 C 0.9085(3) 1.4675(3) 0.5882(3)
H25 H 0.9807 1.4613 0.6312
C23 C 0.8745(3) 1.5813(3) 0.6375(2)
H26 H 0.9235 1.6504 0.7138
C24 C 0.7691(3) 1.5944(2) 0.5756(2)
H27 H 0.7464 1.6715 0.6087
C25 C 0.6977(2) 1.4891(2) 0.4624(2)
C26 C 0.5851(2) 1.4766(2) 0.3749(2)
C27 C 0.4445(2) 1.3027(2) 0.1728(2)
H28 H 0.3760 1.3217 0.2018
H29 H 0.4277 1.2082 0.1272
C28 C 0.4528(2) 1.3576(2) 0.0890(2)
H30 H 0.4637 1.4514 0.1323
H31 H 0.5237 1.3433 0.0629
C29 C 0.3371(2) 1.3596(2) -0.0916(2)
H32 H 0.3996 1.4300 -0.0749
C30 C 0.2200(2) 1.2987(2) -0.1972(2)
C31 C 0.2189(3) 1.2780(3) -0.3105(3)
H33 H 0.2927 1.2992 -0.3230
C32 C 0.1091(5) 1.2257(4) -0.4065(3)
H34 H 0.1095 1.2120 -0.4827
C33 C 0.0009(4) 1.1948(4) -0.3886(4)
H35 H -0.0724 1.1579 -0.4533
C34 C -0.0008(3) 1.2176(3) -0.2758(3)
H36 H -0.0752 1.1992 -0.2633
C35 C 0.1079(2) 1.2677(2) -0.1814(2)
loop_
_geom_bond_atom_site_label_1
_geom_bond_atom_site_label_2
_geom_bond_site_symmetry_1
_geom_bond_site_symmetry_2
O1 C1 1_555 1_555
O2 C26 1_555 1_555
O3 H1 1_555 1_555
N1 C7 1_555 1_555
N2 C28 1_555 1_555
N3 H2 1_555 1_555
N4 H3 1_555 1_555
C1 C2 1_555 1_555
C2 H4 1_555 1_555
C3 N3 1_555 1_555
C4 C3 1_555 1_555
C5 C4 1_555 1_555
H5 C5 1_555 1_555
C6 C1 1_555 1_555
C7 C6 1_555 1_555
C8 C7 1_555 1_555
C9 C8 1_555 1_555
H6 C9 1_555 1_555
C10 C9 1_555 1_555
C11 N4 1_555 1_555
C12 C11 1_555 1_555
H7 C12 1_555 1_555
C13 O1 1_555 1_555
C14 C4 1_555 1_555
H8 C14 1_555 1_555
H9 C14 1_555 1_555
H10 C14 1_555 1_555
C15 N3 1_555 1_555
H11 C15 1_555 1_555
H12 C15 1_555 1_555
C16 C15 1_555 1_555
H13 C16 1_555 1_555
H14 C16 1_555 1_555
H15 C16 1_555 1_555
C17 C10 1_555 1_555
H16 C17 1_555 1_555
H17 C17 1_555 1_555
H18 C17 1_555 1_555
C18 N4 1_555 1_555
H19 C18 1_555 1_555
H20 C18 1_555 1_555
C19 C18 1_555 1_555
H21 C19 1_555 1_555
H22 C19 1_555 1_555
H23 C19 1_555 1_555
C20 C7 1_555 1_555
C21 C20 1_555 1_555
H24 C21 1_555 1_555
C22 C21 1_555 1_555
H25 C22 1_555 1_555
C23 C22 1_555 1_555
H26 C23 1_555 1_555
C24 C23 1_555 1_555
H27 C24 1_555 1_555
C25 C20 1_555 1_555
C26 N1 1_555 1_555
C27 N1 1_555 1_555
H28 C27 1_555 1_555
H29 C27 1_555 1_555
C28 C27 1_555 1_555
H30 C28 1_555 1_555
H31 C28 1_555 1_555
C29 N2 1_555 1_555
H32 C29 1_555 1_555
C30 C29 1_555 1_555
C31 C30 1_555 1_555
H33 C31 1_555 1_555
C32 C31 1_555 1_555
H34 C32 1_555 1_555
C33 C32 1_555 1_555
H35 C33 1_555 1_555
C34 C33 1_555 1_555
H36 C34 1_555 1_555
C35 O3 1_555 1_555
C2 C3 1_555 1_555
C5 C6 1_555 1_555
C8 C13 1_555 1_555
C10 C11 1_555 1_555
C12 C13 1_555 1_555
C24 C25 1_555 1_555
C25 C26 1_555 1_555
C30 C35 1_555 1_555
C34 C35 1_555 1_555

#END
