
#######################################################################
#
#                 Cambridge Crystallographic Data Centre
#                                CCDC 
#
#######################################################################
#
# If this CIF has been generated from an entry in the Cambridge 
# Structural Database, then it will include bibliographic, chemical, 
# crystal, experimental, refinement or atomic coordinate data resulting 
# from the CCDC's data processing and validation procedures.
#
#######################################################################

data_GISVUA
_chemical_formula_moiety         'C14 H30 N2 2+,2(Br1 1-),2(C1 H4 O1)'
_chemical_name_systematic        
"1,1'-Dimethyl-1,1'-(butane-1,4-diyl)dipyrrolidinium dibromide methanol solvate"
_symmetry_cell_setting           monoclinic
_symmetry_space_group_name_H-M   'P 21/n'
_symmetry_Int_Tables_number      14
_space_group_name_Hall           '-P 2yn'
loop_
_symmetry_equiv_pos_site_id
_symmetry_equiv_pos_as_xyz
1 x,y,z
2 1/2-x,1/2+y,1/2-z
3 -x,-y,-z
4 1/2+x,1/2-y,1/2+z
_cell_length_a                   6.4919(7)
_cell_length_b                   12.4861(13)
_cell_length_c                   12.9683(13)
_cell_angle_alpha                90
_cell_angle_beta                 90.748(2)
_cell_angle_gamma                90
_cell_volume                     1051.1
_exptl_crystal_colour            colorless
_exptl_crystal_description       block
_cell_formula_units_Z            2
_exptl_crystal_recrystallization_method 'methanol/diethyl ether'
loop_
_atom_site_label
_atom_site_type_symbol
_atom_site_fract_x
_atom_site_fract_y
_atom_site_fract_z
Br1 Br 0.22798(4) 0.222545(19) 0.645609(19)
N1 N 0.6827(3) 0.01906(14) 0.77454(14)
C1 C 0.8754(4) -0.04680(19) 0.79320(18)
H1 H 0.8411 -0.1171 0.8198
H2 H 0.9671 -0.0113 0.8420
C2 C 0.9755(4) -0.0559(2) 0.68752(18)
H3 H 1.0286 -0.1276 0.6772
H4 H 1.0884 -0.0054 0.6820
C3 C 0.8074(4) -0.0306(2) 0.60735(19)
H5 H 0.8386 0.0351 0.5708
H6 H 0.7939 -0.0884 0.5577
C4 C 0.6110(4) -0.0184(2) 0.66926(17)
H7 H 0.5197 0.0339 0.6375
H8 H 0.5390 -0.0862 0.6741
C5 C 0.5187(3) -0.00229(18) 0.85296(17)
H9 H 0.4768 -0.0767 0.8475
H10 H 0.3994 0.0415 0.8364
C6 C 0.5842(3) 0.01998(18) 0.96372(16)
H11 H 0.6052 0.0962 0.9734
H12 H 0.7129 -0.0164 0.9792
C7 C 0.7340(4) 0.13607(17) 0.77065(18)
H13 H 0.7800 0.1595 0.8376
H14 H 0.6137 0.1759 0.7503
H15 H 0.8412 0.1477 0.7216
N1B N 0.3173(3) -0.01906(14) 1.22546(14)
C1B C 0.1246(4) 0.04680(19) 1.20680(18)
H1B H 0.1589 0.1171 1.1802
H2B H 0.0329 0.0113 1.1580
C2B C 0.0245(4) 0.0559(2) 1.31248(18)
H3B H -0.0286 0.1276 1.3228
H4B H -0.0884 0.0054 1.3180
C3B C 0.1926(4) 0.0306(2) 1.39265(19)
H5B H 0.1614 -0.0351 1.4292
H6B H 0.2061 0.0884 1.4423
C4B C 0.3890(4) 0.0184(2) 1.33074(17)
H7B H 0.4803 -0.0339 1.3625
H8B H 0.4610 0.0862 1.3259
C5B C 0.4813(3) 0.00229(18) 1.14704(17)
H9B H 0.5232 0.0767 1.1525
H10B H 0.6006 -0.0415 1.1636
C6B C 0.4158(3) -0.01998(18) 1.03628(16)
H11B H 0.3948 -0.0962 1.0266
H12B H 0.2871 0.0164 1.0208
C7B C 0.2660(4) -0.13607(17) 1.22935(18)
H13B H 0.2200 -0.1595 1.1624
H14B H 0.3863 -0.1759 1.2497
H15B H 0.1588 -0.1477 1.2784
O1 O 0.5324(3) 0.32947(15) 0.47786(14)
H16 H 0.4456 0.3057 0.5171
C8 C 0.6858(4) 0.2517(2) 0.4620(2)
H17 H 0.7952 0.2615 0.5116
H18 H 0.7392 0.2590 0.3937
H19 H 0.6275 0.1816 0.4700
loop_
_geom_bond_atom_site_label_1
_geom_bond_atom_site_label_2
_geom_bond_site_symmetry_1
_geom_bond_site_symmetry_2
N1 C1 1_555 1_555
C1 H1 1_555 1_555
H2 C1 1_555 1_555
C2 C1 1_555 1_555
H3 C2 1_555 1_555
H4 C2 1_555 1_555
C3 C2 1_555 1_555
H5 C3 1_555 1_555
H6 C3 1_555 1_555
C4 N1 1_555 1_555
H7 C4 1_555 1_555
H8 C4 1_555 1_555
C5 N1 1_555 1_555
H9 C5 1_555 1_555
H10 C5 1_555 1_555
C6 C5 1_555 1_555
H11 C6 1_555 1_555
H12 C6 1_555 1_555
C7 N1 1_555 1_555
H13 C7 1_555 1_555
H14 C7 1_555 1_555
H15 C7 1_555 1_555
O1 H16 1_555 1_555
C8 O1 1_555 1_555
H17 C8 1_555 1_555
H18 C8 1_555 1_555
H19 C8 1_555 1_555
N1B C1B 1_555 1_555
C1B H1B 1_555 1_555
H2B C1B 1_555 1_555
C2B C1B 1_555 1_555
H3B C2B 1_555 1_555
H4B C2B 1_555 1_555
C3B C2B 1_555 1_555
H5B C3B 1_555 1_555
H6B C3B 1_555 1_555
C4B N1B 1_555 1_555
H7B C4B 1_555 1_555
H8B C4B 1_555 1_555
C5B N1B 1_555 1_555
H9B C5B 1_555 1_555
H10B C5B 1_555 1_555
C6B C6 1_555 1_555
H11B C6B 1_555 1_555
H12B C6B 1_555 1_555
C7B N1B 1_555 1_555
H13B C7B 1_555 1_555
H14B C7B 1_555 1_555
H15B C7B 1_555 1_555
C3 C4 1_555 1_555
C3B C4B 1_555 1_555
C5B C6B 1_555 1_555

#END
