
#######################################################################
#
#                 Cambridge Crystallographic Data Centre
#                                CCDC 
#
#######################################################################
#
# If this CIF has been generated from an entry in the Cambridge 
# Structural Database, then it will include bibliographic, chemical, 
# crystal, experimental, refinement or atomic coordinate data resulting 
# from the CCDC's data processing and validation procedures.
#
#######################################################################

data_GISWUB
_chemical_formula_moiety         'C3 H10 N1 O1 1+,C4 H5 O6 1-,H2 O1'
_chemical_name_systematic        
'(S)-1-Hydroxypropan-2-aminium (2R,3R)-3-carboxy -2,3-dihydroxypropanoate monohydrate'
_symmetry_cell_setting           orthorhombic
_symmetry_space_group_name_H-M   'P 21 21 21'
_symmetry_Int_Tables_number      19
_space_group_name_Hall           'P 2ac 2ab'
loop_
_symmetry_equiv_pos_site_id
_symmetry_equiv_pos_as_xyz
1 x,y,z
2 1/2-x,-y,1/2+z
3 -x,1/2+y,1/2-z
4 1/2+x,1/2-y,-z
_cell_length_a                   7.533(2)
_cell_length_b                   7.701(2)
_cell_length_c                   19.288(5)
_cell_angle_alpha                90
_cell_angle_beta                 90
_cell_angle_gamma                90
_cell_volume                     1118.93
_exptl_crystal_colour            colorless
_exptl_crystal_description       block
_cell_formula_units_Z            4
_exptl_crystal_recrystallization_method methanol/water
loop_
_atom_site_label
_atom_site_type_symbol
_atom_site_fract_x
_atom_site_fract_y
_atom_site_fract_z
O1 O 0.5541(2) 0.9115(2) 0.77366(8)
H1 H 0.611(4) 0.989(4) 0.7999(16)
N1 N 0.6127(2) 0.5901(2) 0.84455(8)
H5 H 0.561(3) 0.510(3) 0.8145(13)
H6 H 0.665(3) 0.529(3) 0.8822(13)
H7 H 0.521(3) 0.666(3) 0.8599(12)
C1 C 0.8957(3) 0.5543(4) 0.78287(12)
H8 H 0.8387 0.4739 0.7520
H9 H 0.9459 0.4921 0.8213
H10 H 0.9882 0.6146 0.7585
C2 C 0.7608(3) 0.6838(2) 0.80928(9)
H11 H 0.8185 0.7610 0.8428
C3 C 0.6849(3) 0.7920(3) 0.75103(10)
H12 H 0.7805 0.8555 0.7289
H13 H 0.6330 0.7154 0.7167
O2 O 0.14604(17) 0.39481(16) 0.92596(8)
O3 O 0.42454(16) 0.30294(16) 0.92082(7)
O4 O 0.01406(16) 0.07039(17) 0.94283(7)
H2 H 0.002(3) 0.110(3) 0.9859(13)
O5 O 0.30427(18) 0.05497(16) 1.04183(6)
H3 H 0.406(3) 0.086(3) 1.0507(12)
O6 O 0.2651(2) -0.28770(17) 0.91791(7)
H4 H 0.218(4) -0.387(4) 0.9212(13)
O7 O 0.1836(2) -0.27117(18) 1.02899(7)
C4 C 0.2611(2) 0.2769(2) 0.92464(8)
C5 C 0.1966(2) 0.0871(2) 0.92587(8)
H14 H 0.2126 0.0400 0.8791
C6 C 0.3130(2) -0.0200(2) 0.97483(8)
H15 H 0.4360 -0.0185 0.9583
C7 C 0.2464(2) -0.2062(2) 0.97795(9)
O8 O 0.7125(2) 0.1422(2) 0.85702(9)
H16 H 0.633(4) 0.190(4) 0.8814(15)
H17 H 0.802(4) 0.119(4) 0.8783(15)
loop_
_geom_bond_atom_site_label_1
_geom_bond_atom_site_label_2
_geom_bond_site_symmetry_1
_geom_bond_site_symmetry_2
O1 H1 1_555 1_555
O2 C4 1_555 1_555
O3 C4 1_555 1_555
O4 H2 1_555 1_555
O5 H3 1_555 1_555
O6 H4 1_555 1_555
O7 C7 1_555 1_555
N1 H5 1_555 1_555
H6 N1 1_555 1_555
H7 N1 1_555 1_555
C1 H8 1_555 1_555
H9 C1 1_555 1_555
H10 C1 1_555 1_555
C2 N1 1_555 1_555
H11 C2 1_555 1_555
C3 O1 1_555 1_555
H12 C3 1_555 1_555
H13 C3 1_555 1_555
C4 C5 1_555 1_555
C5 O4 1_555 1_555
H14 C5 1_555 1_555
C6 O5 1_555 1_555
H15 C6 1_555 1_555
C7 O6 1_555 1_555
O8 H16 1_555 1_555
H17 O8 1_555 1_555
C1 C2 1_555 1_555
C2 C3 1_555 1_555
C5 C6 1_555 1_555
C6 C7 1_555 1_555

#END
