
#######################################################################
#
#                 Cambridge Crystallographic Data Centre
#                                CCDC 
#
#######################################################################
#
# If this CIF has been generated from an entry in the Cambridge 
# Structural Database, then it will include bibliographic, chemical, 
# crystal, experimental, refinement or atomic coordinate data resulting 
# from the CCDC's data processing and validation procedures.
#
#######################################################################

data_GISWUC
_chemical_formula_moiety         'C17 H9 B1 F2 N4 O1,C2 H6 O1 S1'
_chemical_name_systematic        
'(2-(Cyano(3-oxo-2,3-dihydro-1H-isoindol-1-ylidene)methyl)-1H-benzimidazol-3-iumato)-difluoro-boron dimethylsulfoxide solvate'
_symmetry_cell_setting           triclinic
_symmetry_space_group_name_H-M   'P -1'
_symmetry_Int_Tables_number      2
_space_group_name_Hall           '-P 1'
loop_
_symmetry_equiv_pos_site_id
_symmetry_equiv_pos_as_xyz
1 x,y,z
2 -x,-y,-z
_cell_length_a                   7.8205(9)
_cell_length_b                   10.3904(11)
_cell_length_c                   12.6744(14)
_cell_angle_alpha                111.822(10)
_cell_angle_beta                 97.397(9)
_cell_angle_gamma                98.633(9)
_cell_volume                     925.962
_exptl_crystal_colour            yellow
_exptl_crystal_description       block
_cell_formula_units_Z            2
loop_
_atom_site_label
_atom_site_type_symbol
_atom_site_fract_x
_atom_site_fract_y
_atom_site_fract_z
S1 S 0.41033(18) 0.70210(14) 0.04827(11)
O1 O 0.3266(7) 0.7938(5) -0.0004(4)
C1 C 0.4257(8) 0.7869(6) 0.2005(4)
H1 H 0.5088 0.8763 0.2304
H2 H 0.4647 0.7277 0.2372
H3 H 0.3120 0.8027 0.2160
C2 C 0.2423(9) 0.5531(7) 0.0190(5)
H4 H 0.1393 0.5840 0.0443
H5 H 0.2822 0.4981 0.0596
H6 H 0.2136 0.4960 -0.0629
B1 B 0.1592(7) 0.7422(5) 0.4827(4)
F1 F 0.2823(4) 0.8283(3) 0.4561(2)
F2 F -0.0099(4) 0.7428(3) 0.4359(2)
N1 N 0.3937(7) 0.4785(5) 0.7678(4)
N2 N 0.1807(5) 0.7952(4) 0.6175(3)
N3 N 0.2402(5) 0.7986(4) 0.7933(3)
H7 H 0.2725 0.7733 0.8488
N4 N 0.1918(5) 0.5886(4) 0.4421(3)
O2 O 0.1183(5) 0.5265(4) 0.2432(3)
C3 C 0.1719(7) 0.4976(5) 0.3233(4)
C4 C 0.2315(6) 0.3690(5) 0.3236(4)
C5 C 0.2430(8) 0.2493(5) 0.2302(4)
H8 H 0.2115 0.2410 0.1543
C6 C 0.3033(7) 0.1425(5) 0.2545(4)
H9 H 0.3137 0.0610 0.1941
C7 C 0.3480(7) 0.1564(5) 0.3682(5)
H10 H 0.3866 0.0828 0.3822
C8 C 0.3374(6) 0.2756(5) 0.4614(4)
H11 H 0.3682 0.2834 0.5372
C9 C 0.2792(6) 0.3829(5) 0.4375(4)
C10 C 0.2507(6) 0.5238(5) 0.5115(4)
C11 C 0.2733(6) 0.5865(5) 0.6292(4)
C12 C 0.3387(7) 0.5233(5) 0.7045(4)
C13 C 0.2338(6) 0.7249(4) 0.6810(4)
C14 C 0.1857(6) 0.9235(5) 0.8050(4)
C15 C 0.1679(8) 1.0354(5) 0.9027(4)
H12 H 0.1937 1.0362 0.9767
C16 C 0.1094(8) 1.1459(5) 0.8836(4)
H13 H 0.0918 1.2218 0.9461
C17 C 0.0764(7) 1.1460(5) 0.7727(4)
H14 H 0.0405 1.2234 0.7639
C18 C 0.0951(7) 1.0349(5) 0.6757(4)
H15 H 0.0720 1.0350 0.6019
C19 C 0.1506(6) 0.9226(5) 0.6949(4)
loop_
_geom_bond_atom_site_label_1
_geom_bond_atom_site_label_2
_geom_bond_site_symmetry_1
_geom_bond_site_symmetry_2
S1 O1 1_555 1_555
C1 S1 1_555 1_555
H1 C1 1_555 1_555
H2 C1 1_555 1_555
H3 C1 1_555 1_555
C2 S1 1_555 1_555
H4 C2 1_555 1_555
H5 C2 1_555 1_555
H6 C2 1_555 1_555
B1 F1 1_555 1_555
F2 B1 1_555 1_555
N1 C12 1_555 1_555
N2 B1 1_555 1_555
N3 H7 1_555 1_555
N4 B1 1_555 1_555
O2 C3 1_555 1_555
C3 N4 1_555 1_555
C4 C3 1_555 1_555
C5 C4 1_555 1_555
H8 C5 1_555 1_555
C6 C5 1_555 1_555
H9 C6 1_555 1_555
C7 C6 1_555 1_555
H10 C7 1_555 1_555
C8 C7 1_555 1_555
H11 C8 1_555 1_555
C9 C4 1_555 1_555
C10 N4 1_555 1_555
C11 C10 1_555 1_555
C12 C11 1_555 1_555
C13 N2 1_555 1_555
C14 N3 1_555 1_555
C15 C14 1_555 1_555
H12 C15 1_555 1_555
C16 C15 1_555 1_555
H13 C16 1_555 1_555
C17 C16 1_555 1_555
H14 C17 1_555 1_555
C18 C17 1_555 1_555
H15 C18 1_555 1_555
C19 N2 1_555 1_555
N3 C13 1_555 1_555
C8 C9 1_555 1_555
C9 C10 1_555 1_555
C11 C13 1_555 1_555
C14 C19 1_555 1_555
C18 C19 1_555 1_555

#END
