
#######################################################################
#
#                 Cambridge Crystallographic Data Centre
#                                CCDC 
#
#######################################################################
#
# If this CIF has been generated from an entry in the Cambridge 
# Structural Database, then it will include bibliographic, chemical, 
# crystal, experimental, refinement or atomic coordinate data resulting 
# from the CCDC's data processing and validation procedures.
#
#######################################################################

data_GISXIR
_chemical_formula_moiety         'C15 H8 B1 F2 N3 O1 S1'
_chemical_name_systematic        
6,6-Difluoro-5\l^5^,6\l^5^-isoindolo[2',1':3,4][1,3,5,2]triazaborinino[6,1-b][1,3]benzothiazol-8(6H)-one
_symmetry_cell_setting           triclinic
_symmetry_space_group_name_H-M   'P -1'
_symmetry_Int_Tables_number      2
_space_group_name_Hall           '-P 1'
loop_
_symmetry_equiv_pos_site_id
_symmetry_equiv_pos_as_xyz
1 x,y,z
2 -x,-y,-z
_cell_length_a                   8.3276(6)
_cell_length_b                   9.7084(6)
_cell_length_c                   19.6254(12)
_cell_angle_alpha                103.803(5)
_cell_angle_beta                 90.192(6)
_cell_angle_gamma                115.396(7)
_cell_volume                     1381.81
_exptl_crystal_colour            yellow
_exptl_crystal_description       block
_cell_formula_units_Z            4
loop_
_atom_site_label
_atom_site_type_symbol
_atom_site_fract_x
_atom_site_fract_y
_atom_site_fract_z
S1 S 1.0375(3) 1.3076(3) 0.00325(14)
B1 B 0.6443(14) 0.9577(13) 0.0717(6)
F1 F 0.4997(8) 0.9759(7) 0.0910(3)
F2 F 0.7147(8) 0.9123(7) 0.1232(3)
N1 N 0.7957(10) 1.1163(9) 0.0604(4)
N2 N 0.8386(10) 1.0030(10) -0.0569(4)
N3 N 0.6089(10) 0.8348(9) 0.0002(4)
O1 O 0.3665(10) 0.6173(9) 0.0175(4)
C1 C 1.0034(13) 1.3851(12) 0.0892(6)
C2 C 1.0869(14) 1.5328(11) 0.1315(6)
H1 H 1.1749 1.6129 0.1158
C3 C 1.0381(15) 1.5643(12) 0.2009(6)
H2 H 1.0979 1.6650 0.2315
C4 C 0.9000(14) 1.4442(12) 0.2237(6)
H3 H 0.8665 1.4664 0.2686
C5 C 0.8128(13) 1.2905(11) 0.1782(5)
H4 H 0.7215 1.2103 0.1928
C6 C 0.8650(12) 1.2605(11) 0.1115(5)
C7 C 0.8784(12) 1.1248(11) 0.0034(5)
C8 C 0.7053(12) 0.8706(11) -0.0553(5)
C9 C 0.6350(12) 0.7216(11) -0.1150(5)
C10 C 0.6875(14) 0.6898(13) -0.1816(5)
H5 H 0.7821 0.7668 -0.1965
C11 C 0.5954(15) 0.5424(13) -0.2237(6)
H6 H 0.6259 0.5171 -0.2690
C12 C 0.4581(14) 0.4291(14) -0.2014(6)
H7 H 0.4001 0.3282 -0.2320
C13 C 0.4026(14) 0.4558(13) -0.1379(6)
H8 H 0.3073 0.3769 -0.1244
C14 C 0.4970(12) 0.6115(11) -0.0918(5)
C15 C 0.4717(12) 0.6818(11) -0.0173(5)
S2 S 0.2393(4) 0.2006(3) 0.50251(14)
B2 B 0.1933(15) 0.5499(13) 0.4353(6)
F3 F 0.3047(8) 0.5927(7) 0.3821(3)
F4 F 0.0263(8) 0.5299(7) 0.4138(3)
N4 N 0.1836(10) 0.3899(9) 0.4458(4)
N5 N 0.3406(11) 0.5042(9) 0.5646(4)
N6 N 0.2785(10) 0.6721(9) 0.5062(4)
O2 O 0.2590(11) 0.8905(9) 0.4881(4)
C16 C 0.1288(12) 0.1249(11) 0.4166(5)
C17 C 0.0620(13) -0.0294(11) 0.3729(5)
H9 H 0.0706 -0.1101 0.3880
C18 C -0.0165(14) -0.0552(12) 0.3071(6)
H10 H -0.0568 -0.1555 0.2762
C19 C -0.0394(14) 0.0590(13) 0.2839(6)
H11 H -0.0976 0.0329 0.2389
C20 C 0.0239(13) 0.2152(11) 0.3273(5)
H12 H 0.0085 0.2933 0.3124
C21 C 0.1115(12) 0.2451(11) 0.3943(5)
C22 C 0.2587(12) 0.3855(10) 0.5040(5)
C23 C 0.3401(12) 0.6365(11) 0.5622(5)
C24 C 0.4186(12) 0.7815(11) 0.6201(5)
C25 C 0.4988(13) 0.8128(12) 0.6872(5)
H13 H 0.5127 0.7340 0.7019
C26 C 0.5562(14) 0.9576(13) 0.7307(6)
H14 H 0.6089 0.9773 0.7760
C27 C 0.5403(14) 1.0811(13) 0.7109(6)
H15 H 0.5841 1.1815 0.7419
C28 C 0.4573(14) 1.0491(13) 0.6436(6)
H16 H 0.4422 1.1279 0.6293
C29 C 0.3974(13) 0.8998(11) 0.5982(5)
C30 C 0.3004(11) 0.8266(10) 0.5220(4)
loop_
_geom_bond_atom_site_label_1
_geom_bond_atom_site_label_2
_geom_bond_site_symmetry_1
_geom_bond_site_symmetry_2
S1 C1 1_555 1_555
B1 F1 1_555 1_555
F2 B1 1_555 1_555
N1 B1 1_555 1_555
N2 C7 1_555 1_555
N3 B1 1_555 1_555
O1 C15 1_555 1_555
C1 C2 1_555 1_555
C2 H1 1_555 1_555
C3 C2 1_555 1_555
H2 C3 1_555 1_555
C4 C3 1_555 1_555
H3 C4 1_555 1_555
C5 C4 1_555 1_555
H4 C5 1_555 1_555
C6 N1 1_555 1_555
C7 S1 1_555 1_555
C8 N2 1_555 1_555
C9 C8 1_555 1_555
C10 C9 1_555 1_555
H5 C10 1_555 1_555
C11 C10 1_555 1_555
H6 C11 1_555 1_555
C12 C11 1_555 1_555
H7 C12 1_555 1_555
C13 C12 1_555 1_555
H8 C13 1_555 1_555
C14 C9 1_555 1_555
C15 N3 1_555 1_555
S2 C16 1_555 1_555
B2 F3 1_555 1_555
F4 B2 1_555 1_555
N4 B2 1_555 1_555
N5 C22 1_555 1_555
N6 B2 1_555 1_555
O2 C30 1_555 1_555
C16 C17 1_555 1_555
C17 H9 1_555 1_555
C18 C17 1_555 1_555
H10 C18 1_555 1_555
C19 C18 1_555 1_555
H11 C19 1_555 1_555
C20 C19 1_555 1_555
H12 C20 1_555 1_555
C21 N4 1_555 1_555
C22 S2 1_555 1_555
C23 N5 1_555 1_555
C24 C23 1_555 1_555
C25 C24 1_555 1_555
H13 C25 1_555 1_555
C26 C25 1_555 1_555
H14 C26 1_555 1_555
C27 C26 1_555 1_555
H15 C27 1_555 1_555
C28 C27 1_555 1_555
H16 C28 1_555 1_555
C29 C24 1_555 1_555
C30 N6 1_555 1_555
N1 C7 1_555 1_555
N3 C8 1_555 1_555
C1 C6 1_555 1_555
C5 C6 1_555 1_555
C13 C14 1_555 1_555
C14 C15 1_555 1_555
N4 C22 1_555 1_555
N6 C23 1_555 1_555
C16 C21 1_555 1_555
C20 C21 1_555 1_555
C28 C29 1_555 1_555
C29 C30 1_555 1_555

#END
