
#######################################################################
#
#                 Cambridge Crystallographic Data Centre
#                                CCDC 
#
#######################################################################
#
# If this CIF has been generated from an entry in the Cambridge 
# Structural Database, then it will include bibliographic, chemical, 
# crystal, experimental, refinement or atomic coordinate data resulting 
# from the CCDC's data processing and validation procedures.
#
#######################################################################

data_GITDIX
_chemical_formula_moiety         'C17 H16 O2'
_chemical_name_systematic        9-(Dimethoxymethyl)anthracene
_symmetry_cell_setting           orthorhombic
_symmetry_space_group_name_H-M   'P b c a'
_symmetry_Int_Tables_number      61
_space_group_name_Hall           '-P 2ac 2ab'
loop_
_symmetry_equiv_pos_site_id
_symmetry_equiv_pos_as_xyz
1 x,y,z
2 1/2-x,-y,1/2+z
3 -x,1/2+y,1/2-z
4 1/2+x,1/2-y,-z
5 -x,-y,-z
6 1/2+x,y,1/2-z
7 x,1/2-y,1/2+z
8 1/2-x,1/2+y,z
_cell_length_a                   8.2310(16)
_cell_length_b                   17.446(4)
_cell_length_c                   19.261(4)
_cell_angle_alpha                90
_cell_angle_beta                 90
_cell_angle_gamma                90
_cell_volume                     2765.84
_exptl_crystal_colour            yellow
_exptl_crystal_description       block
_cell_formula_units_Z            8
loop_
_atom_site_label
_atom_site_type_symbol
_atom_site_fract_x
_atom_site_fract_y
_atom_site_fract_z
C1 C 0.9017(2) 0.20745(12) 0.59464(10)
C2 C 1.0164(3) 0.15624(15) 0.62298(12)
C3 C 1.0584(3) 0.08576(16) 0.59060(17)
H1 H 1.0052 0.0709 0.5502
C4 C 1.1755(4) 0.03974(19) 0.6180(2)
H2 H 1.2030 -0.0056 0.5956
C5 C 1.2563(5) 0.0603(4) 0.6806(3)
H3 H 1.3356 0.0282 0.6991
C6 C 1.2182(5) 0.1251(3) 0.7122(2)
H4 H 1.2704 0.1376 0.7535
C7 C 1.0996(3) 0.1764(2) 0.68494(16)
C8 C 1.0683(4) 0.2472(3) 0.71548(15)
H5 H 1.1193 0.2591 0.7572
C9 C 0.9649(4) 0.3003(2) 0.68643(14)
C10 C 0.9437(5) 0.3758(3) 0.71550(19)
H6 H 0.9967 0.3890 0.7564
C11 C 0.8487(6) 0.4268(3) 0.6839(3)
H7 H 0.8379 0.4755 0.7029
C12 C 0.7655(4) 0.40904(18) 0.6236(2)
H8 H 0.7001 0.4458 0.6027
C13 C 0.7787(3) 0.33873(15) 0.59484(15)
H9 H 0.7208 0.3279 0.5545
C14 C 0.8787(3) 0.28072(14) 0.62451(11)
C15 C 0.8077(3) 0.18624(13) 0.53064(11)
H10 H 0.7224 0.2244 0.5228
C16 C 0.8383(4) 0.19124(18) 0.40849(13)
H11 H 0.7751 0.1457 0.4013
H12 H 0.9189 0.1954 0.3727
H13 H 0.7683 0.2352 0.4071
C17 C 0.5853(4) 0.11064(19) 0.5615(2)
H14 H 0.5903 0.1194 0.6106
H15 H 0.5388 0.0611 0.5528
H16 H 0.5191 0.1494 0.5402
O1 O 0.91609(19) 0.18736(10) 0.47445(8)
O2 O 0.7373(2) 0.11349(10) 0.53439(10)
loop_
_geom_bond_atom_site_label_1
_geom_bond_atom_site_label_2
_geom_bond_site_symmetry_1
_geom_bond_site_symmetry_2
C1 C2 1_555 1_555
C2 C3 1_555 1_555
C3 H1 1_555 1_555
C4 C3 1_555 1_555
H2 C4 1_555 1_555
C5 C4 1_555 1_555
H3 C5 1_555 1_555
C6 C5 1_555 1_555
H4 C6 1_555 1_555
C7 C2 1_555 1_555
C8 C7 1_555 1_555
H5 C8 1_555 1_555
C9 C8 1_555 1_555
C10 C9 1_555 1_555
H6 C10 1_555 1_555
C11 C10 1_555 1_555
H7 C11 1_555 1_555
C12 C11 1_555 1_555
H8 C12 1_555 1_555
C13 C12 1_555 1_555
H9 C13 1_555 1_555
C14 C1 1_555 1_555
C15 C1 1_555 1_555
H10 C15 1_555 1_555
C16 H11 1_555 1_555
H12 C16 1_555 1_555
H13 C16 1_555 1_555
C17 H14 1_555 1_555
H15 C17 1_555 1_555
H16 C17 1_555 1_555
O1 C15 1_555 1_555
O2 C15 1_555 1_555
C6 C7 1_555 1_555
C9 C14 1_555 1_555
C13 C14 1_555 1_555
C16 O1 1_555 1_555
C17 O2 1_555 1_555

#END
