
#######################################################################
#
#                 Cambridge Crystallographic Data Centre
#                                CCDC 
#
#######################################################################
#
# If this CIF has been generated from an entry in the Cambridge 
# Structural Database, then it will include bibliographic, chemical, 
# crystal, experimental, refinement or atomic coordinate data resulting 
# from the CCDC's data processing and validation procedures.
#
#######################################################################

data_GITDUJ
_chemical_formula_moiety         'C18 H18 F1 N1 O3'
_chemical_name_systematic        
'(E)-Ethyl 3-(2-fluoroanilino)-2-(4-methoxyphenyl)acrylate'
_symmetry_cell_setting           triclinic
_symmetry_space_group_name_H-M   'P -1'
_symmetry_Int_Tables_number      2
_space_group_name_Hall           '-P 1'
loop_
_symmetry_equiv_pos_site_id
_symmetry_equiv_pos_as_xyz
1 x,y,z
2 -x,-y,-z
_cell_length_a                   6.3630(13)
_cell_length_b                   9.4700(19)
_cell_length_c                   13.981(3)
_cell_angle_alpha                97.68(3)
_cell_angle_beta                 97.38(3)
_cell_angle_gamma                95.40(3)
_cell_volume                     822.664
_exptl_crystal_colour            colorless
_exptl_crystal_description       block
_cell_formula_units_Z            2
loop_
_atom_site_label
_atom_site_type_symbol
_atom_site_fract_x
_atom_site_fract_y
_atom_site_fract_z
O1 O 0.4465(3) 0.2358(2) 0.49646(15)
O2 O -0.0514(3) 0.6582(2) 0.10142(15)
O3 O -0.1278(3) 0.4580(2) 0.16366(17)
F1 F 0.9092(3) 0.8076(2) 0.36459(16)
C1 C 0.2001(4) 0.6001(3) 0.2237(2)
C2 C 0.2661(4) 0.5043(3) 0.29442(19)
C3 C 0.4551(4) 0.4418(3) 0.2923(2)
H1 H 0.5395 0.4604 0.2448
N1 N 0.5153(4) 0.7686(3) 0.26886(18)
C4 C 0.2078(4) 0.3844(3) 0.4321(2)
H2 H 0.1244 0.3656 0.4799
C5 C -0.0076(4) 0.5629(3) 0.1627(2)
C6 C 0.6532(4) 0.8864(3) 0.25557(19)
C7 C 0.3977(4) 0.3237(3) 0.4281(2)
C8 C 0.1423(4) 0.4720(3) 0.3660(2)
H3 H 0.0137 0.5105 0.3689
C9 C 0.3239(4) 0.7195(3) 0.2132(2)
H4 H 0.2752 0.7717 0.1646
C10 C 1.0048(5) 1.0171(3) 0.2990(3)
H5 H 1.1400 1.0267 0.3351
C11 C 0.5217(4) 0.3533(3) 0.3579(2)
H6 H 0.6496 0.3139 0.3549
C12 C 0.8571(4) 0.9063(3) 0.3057(2)
C13 C 0.6015(5) 0.9858(3) 0.1961(2)
H7 H 0.4652 0.9776 0.1612
C14 C 0.9513(5) 1.1144(3) 0.2383(2)
H8 H 1.0502 1.1902 0.2319
C15 C 0.7505(6) 1.0982(3) 0.1874(3)
H9 H 0.7130 1.1638 0.1461
C16 C 0.6409(5) 0.1735(4) 0.4950(3)
H10 H 0.6384 0.1153 0.4330
H11 H 0.6575 0.1151 0.5459
H12 H 0.7581 0.2480 0.5050
C17 C -0.2489(5) 0.6276(4) 0.0363(3)
H13 H -0.3683 0.6266 0.0731
H14 H -0.2552 0.5344 -0.0031
C18 C -0.2589(7) 0.7410(5) -0.0268(3)
H15 H -0.2568 0.8323 0.0128
H16 H -0.3881 0.7218 -0.0724
H17 H -0.1384 0.7425 -0.0616
H18 H 0.567(5) 0.714(4) 0.313(3)
loop_
_geom_bond_atom_site_label_1
_geom_bond_atom_site_label_2
_geom_bond_site_symmetry_1
_geom_bond_site_symmetry_2
O1 C7 1_555 1_555
O2 C5 1_555 1_555
O3 C5 1_555 1_555
F1 C12 1_555 1_555
C1 C2 1_555 1_555
C2 C3 1_555 1_555
C3 H1 1_555 1_555
N1 C6 1_555 1_555
C4 H2 1_555 1_555
C5 C1 1_555 1_555
C6 C12 1_555 1_555
C7 C4 1_555 1_555
C8 C2 1_555 1_555
H3 C8 1_555 1_555
C9 C1 1_555 1_555
H4 C9 1_555 1_555
C10 H5 1_555 1_555
C11 C3 1_555 1_555
H6 C11 1_555 1_555
C12 C10 1_555 1_555
C13 C6 1_555 1_555
H7 C13 1_555 1_555
C14 C10 1_555 1_555
H8 C14 1_555 1_555
C15 C13 1_555 1_555
H9 C15 1_555 1_555
C16 O1 1_555 1_555
H10 C16 1_555 1_555
H11 C16 1_555 1_555
H12 C16 1_555 1_555
C17 O2 1_555 1_555
H13 C17 1_555 1_555
H14 C17 1_555 1_555
C18 C17 1_555 1_555
H15 C18 1_555 1_555
H16 C18 1_555 1_555
H17 C18 1_555 1_555
H18 N1 1_555 1_555
N1 C9 1_555 1_555
C4 C8 1_555 1_555
C7 C11 1_555 1_555
C14 C15 1_555 1_555

#END
