
#######################################################################
#
#                 Cambridge Crystallographic Data Centre
#                                CCDC 
#
#######################################################################
#
# If this CIF has been generated from an entry in the Cambridge 
# Structural Database, then it will include bibliographic, chemical, 
# crystal, experimental, refinement or atomic coordinate data resulting 
# from the CCDC's data processing and validation procedures.
#
#######################################################################

data_GITGEW
_chemical_formula_moiety         'C15 H24 O4'
_chemical_name_systematic        
6,10,16,19-Tetraoxatrispiro(4.2.2.4.2.2)nonadecane
_symmetry_cell_setting           monoclinic
_symmetry_space_group_name_H-M   'C 2/c'
_symmetry_Int_Tables_number      15
_space_group_name_Hall           '-C 2yn'
loop_
_symmetry_equiv_pos_site_id
_symmetry_equiv_pos_as_xyz
1 x,y,z
2 1/2+x,1/2+y,z
3 -x,y,1/2-z
4 1/2-x,1/2+y,1/2-z
5 -x,-y,-z
6 1/2-x,1/2-y,-z
7 x,-y,1/2+z
8 1/2+x,1/2-y,1/2+z
_cell_length_a                   25.605(5)
_cell_length_b                   5.5820(11)
_cell_length_c                   10.337(2)
_cell_angle_alpha                90
_cell_angle_beta                 90.22(3)
_cell_angle_gamma                90
_cell_volume                     1477.43
_exptl_crystal_colour            colorless
_exptl_crystal_description       block
_chemical_melting_point          '401 K'
_cell_formula_units_Z            4
_exptl_crystal_recrystallization_method toluene
loop_
_atom_site_label
_atom_site_type_symbol
_atom_site_fract_x
_atom_site_fract_y
_atom_site_fract_z
O1 O 0.43380(7) 0.3857(4) 0.41870(16)
O2 O 0.42692(7) 0.0861(3) 0.26166(16)
C1 C 0.30826(17) 0.3438(9) 0.3294(5)
H1 H 0.2819 0.3125 0.2638
H2 H 0.2974 0.4816 0.3797
C2 C 0.31481(15) 0.1237(9) 0.4179(4)
H3 H 0.2973 0.1514 0.4996
H4 H 0.2993 -0.0159 0.3773
C3 C 0.36848(12) 0.0842(7) 0.4393(3)
H5 H 0.3768 -0.0835 0.4262
H6 H 0.3777 0.1271 0.5274
C4 C 0.35773(13) 0.3897(7) 0.2697(3)
H7 H 0.3662 0.5588 0.2750
H8 H 0.3567 0.3436 0.1792
C5 C 0.39900(11) 0.2397(5) 0.3435(3)
C6 C 0.46853(11) 0.5234(5) 0.3396(2)
H9 H 0.4922 0.6138 0.3945
H10 H 0.4484 0.6366 0.2884
C7 C 0.5000 0.3637(7) 0.2500
C8 C 0.46173(10) 0.2072(5) 0.1738(2)
H11 H 0.4417 0.3060 0.1145
H12 H 0.4809 0.0901 0.1235
O1B O 0.56620(7) 0.3857(4) 0.08130(16)
O2B O 0.57308(7) 0.0861(3) 0.23834(16)
C1B C 0.69174(17) 0.3438(9) 0.1706(5)
H1B H 0.7181 0.3125 0.2362
H2B H 0.7026 0.4816 0.1203
C2B C 0.68519(15) 0.1237(9) 0.0821(4)
H3B H 0.7027 0.1514 0.0004
H4B H 0.7007 -0.0159 0.1227
C3B C 0.63152(12) 0.0842(7) 0.0607(3)
H5B H 0.6232 -0.0835 0.0738
H6B H 0.6223 0.1271 -0.0274
C4B C 0.64227(13) 0.3897(7) 0.2303(3)
H7B H 0.6338 0.5588 0.2250
H8B H 0.6433 0.3436 0.3208
C5B C 0.60100(11) 0.2397(5) 0.1565(3)
C6B C 0.53147(11) 0.5234(5) 0.1604(2)
H9B H 0.5078 0.6138 0.1055
H10B H 0.5516 0.6366 0.2116
C8B C 0.53827(10) 0.2072(5) 0.3262(2)
H11B H 0.5583 0.3060 0.3855
H12B H 0.5191 0.0901 0.3765
loop_
_geom_bond_atom_site_label_1
_geom_bond_atom_site_label_2
_geom_bond_site_symmetry_1
_geom_bond_site_symmetry_2
O1 C5 1_555 1_555
O2 C5 1_555 1_555
C1 H1 1_555 1_555
H2 C1 1_555 1_555
C2 C1 1_555 1_555
H3 C2 1_555 1_555
H4 C2 1_555 1_555
C3 C2 1_555 1_555
H5 C3 1_555 1_555
H6 C3 1_555 1_555
C4 C1 1_555 1_555
H7 C4 1_555 1_555
H8 C4 1_555 1_555
C5 C3 1_555 1_555
C6 O1 1_555 1_555
H9 C6 1_555 1_555
H10 C6 1_555 1_555
C7 C6 1_555 1_555
C8 O2 1_555 1_555
H11 C8 1_555 1_555
H12 C8 1_555 1_555
O1B C5B 1_555 1_555
O2B C5B 1_555 1_555
C1B H1B 1_555 1_555
H2B C1B 1_555 1_555
C2B C1B 1_555 1_555
H3B C2B 1_555 1_555
H4B C2B 1_555 1_555
C3B C2B 1_555 1_555
H5B C3B 1_555 1_555
H6B C3B 1_555 1_555
C4B C1B 1_555 1_555
H7B C4B 1_555 1_555
H8B C4B 1_555 1_555
C5B C3B 1_555 1_555
C6B C7 1_555 1_555
H9B C6B 1_555 1_555
H10B C6B 1_555 1_555
C8B C7 1_555 1_555
H11B C8B 1_555 1_555
H12B C8B 1_555 1_555
C4 C5 1_555 1_555
C7 C8 1_555 1_555
O1B C6B 1_555 1_555
O2B C8B 1_555 1_555
C4B C5B 1_555 1_555

#END
