
#######################################################################
#
#                 Cambridge Crystallographic Data Centre
#                                CCDC 
#
#######################################################################
#
# If this CIF has been generated from an entry in the Cambridge 
# Structural Database, then it will include bibliographic, chemical, 
# crystal, experimental, refinement or atomic coordinate data resulting 
# from the CCDC's data processing and validation procedures.
#
#######################################################################

data_GITHIB
_chemical_formula_moiety         'C26 H24 N2 O3'
_chemical_name_systematic        'bis(4-(2-hydroxybenzylamino)phenyl) ether'
_symmetry_cell_setting           monoclinic
_symmetry_space_group_name_H-M   'P 21/n'
_symmetry_Int_Tables_number      14
_space_group_name_Hall           '-P 2yn'
loop_
_symmetry_equiv_pos_site_id
_symmetry_equiv_pos_as_xyz
1 x,y,z
2 1/2-x,1/2+y,1/2-z
3 -x,-y,-z
4 1/2+x,1/2-y,1/2+z
_cell_length_a                   5.8241(5)
_cell_length_b                   43.960(4)
_cell_length_c                   8.2874(7)
_cell_angle_alpha                90
_cell_angle_beta                 92.2870(10)
_cell_angle_gamma                90
_cell_volume                     2120.11
_exptl_crystal_colour            colorless
_exptl_crystal_description       Block
_cell_formula_units_Z            4
loop_
_atom_site_label
_atom_site_type_symbol
_atom_site_fract_x
_atom_site_fract_y
_atom_site_fract_z
O1 O -0.1278(2) 0.10829(3) 0.88351(16)
O2 O 0.5755(2) 0.23713(3) 0.53721(16)
N1 N 0.1605(3) 0.12562(3) 0.66554(19)
N2 N 0.2491(3) 0.35409(3) 0.65634(19)
C1 C 0.3126(3) 0.32377(4) 0.6221(2)
C2 C 0.5823(3) 0.28987(4) 0.4995(2)
H1 H 0.7096 0.2870 0.4369
C3 C 0.1360(3) 0.07358(4) 0.7657(2)
C4 C 0.5022(3) 0.31878(4) 0.5268(2)
H2 H 0.5753 0.3353 0.4812
C5 C -0.0656(3) 0.07893(4) 0.8465(2)
O3 O 0.3648(2) 0.39237(3) 0.89618(17)
C6 C 0.2522(3) 0.20261(4) 0.5023(2)
H3 H 0.1763 0.2162 0.4325
C7 C 0.2036(3) 0.29862(4) 0.6834(2)
H4 H 0.0741 0.3013 0.7439
C8 C 0.4741(3) 0.26513(4) 0.5647(2)
C9 C 0.1566(3) 0.17455(4) 0.5332(2)
H5 H 0.0145 0.1695 0.4853
C10 C 0.4610(3) 0.21042(4) 0.5755(2)
C11 C 0.2846(3) 0.26944(4) 0.6559(2)
H6 H 0.2106 0.2528 0.6994
C12 C 0.5729(3) 0.19037(4) 0.6786(2)
H7 H 0.7122 0.1958 0.7294
C13 C 0.0224(3) 0.36069(4) 0.7182(2)
H8 H 0.0016 0.3493 0.8169
H9 H -0.0964 0.3545 0.6396
C14 C 0.1751(3) 0.40877(4) 0.8431(2)
C15 C 0.0020(3) 0.39425(4) 0.7514(2)
C16 C -0.2046(3) 0.05532(4) 0.8928(2)
H10 H -0.3369 0.0593 0.9483
C17 C 0.2693(3) 0.15367(4) 0.6348(2)
C18 C 0.1885(3) 0.04368(4) 0.7293(2)
H11 H 0.3207 0.0395 0.6740
C19 C -0.1467(3) 0.02578(4) 0.8566(2)
H12 H -0.2396 0.0098 0.8882
C20 C 0.2944(3) 0.09951(4) 0.7283(2)
H13 H 0.3815 0.1054 0.8255
H14 H 0.4021 0.0931 0.6488
C21 C 0.4781(3) 0.16194(4) 0.7071(2)
H15 H 0.5560 0.1483 0.7756
C22 C 0.1609(3) 0.43923(4) 0.8814(2)
H16 H 0.2769 0.4486 0.9438
C23 C -0.1831(3) 0.41142(4) 0.6961(2)
H17 H -0.2991 0.4022 0.6331
C24 C -0.0287(4) 0.45572(5) 0.8255(2)
H18 H -0.0403 0.4762 0.8510
C25 C 0.0490(3) 0.01987(4) 0.7735(3)
H19 H 0.0869 0.0000 0.7473
C26 C -0.1999(4) 0.44200(5) 0.7326(2)
H20 H -0.3261 0.4532 0.6945
H21 H -0.051(3) 0.1201(5) 0.815(2)
H22 H 0.369(4) 0.3753(6) 0.828(3)
H23 H 0.071(3) 0.1200(4) 0.583(2)
H24 H 0.283(3) 0.3663(4) 0.576(2)
loop_
_geom_bond_atom_site_label_1
_geom_bond_atom_site_label_2
_geom_bond_site_symmetry_1
_geom_bond_site_symmetry_2
O1 C5 1_555 1_555
O2 C8 1_555 1_555
N1 C17 1_555 1_555
N2 C1 1_555 1_555
C1 C4 1_555 1_555
C2 H1 1_555 1_555
C3 C5 1_555 1_555
C4 C2 1_555 1_555
H2 C4 1_555 1_555
C5 C16 1_555 1_555
O3 C14 1_555 1_555
C6 H3 1_555 1_555
C7 C1 1_555 1_555
H4 C7 1_555 1_555
C8 C2 1_555 1_555
C9 C6 1_555 1_555
H5 C9 1_555 1_555
C10 O2 1_555 1_555
C11 C7 1_555 1_555
H6 C11 1_555 1_555
C12 C10 1_555 1_555
H7 C12 1_555 1_555
C13 N2 1_555 1_555
H8 C13 1_555 1_555
H9 C13 1_555 1_555
C14 C15 1_555 1_555
C15 C13 1_555 1_555
C16 H10 1_555 1_555
C17 C9 1_555 1_555
C18 C3 1_555 1_555
H11 C18 1_555 1_555
C19 C16 1_555 1_555
H12 C19 1_555 1_555
C20 N1 1_555 1_555
H13 C20 1_555 1_555
H14 C20 1_555 1_555
C21 C12 1_555 1_555
H15 C21 1_555 1_555
C22 C14 1_555 1_555
H16 C22 1_555 1_555
C23 C15 1_555 1_555
H17 C23 1_555 1_555
C24 C22 1_555 1_555
H18 C24 1_555 1_555
C25 C18 1_555 1_555
H19 C25 1_555 1_555
C26 C23 1_555 1_555
H20 C26 1_555 1_555
H21 O1 1_555 1_555
H22 O3 1_555 1_555
H23 N1 1_555 1_555
H24 N2 1_555 1_555
C3 C20 1_555 1_555
C6 C10 1_555 1_555
C8 C11 1_555 1_555
C17 C21 1_555 1_555
C19 C25 1_555 1_555
C24 C26 1_555 1_555

#END
