
#######################################################################
#
#                 Cambridge Crystallographic Data Centre
#                                CCDC 
#
#######################################################################
#
# If this CIF has been generated from an entry in the Cambridge 
# Structural Database, then it will include bibliographic, chemical, 
# crystal, experimental, refinement or atomic coordinate data resulting 
# from the CCDC's data processing and validation procedures.
#
#######################################################################

data_GITLOL
_chemical_formula_moiety         'C15 H14 Cl1 N3 O6'
_chemical_name_systematic        
'2-(1-Chloro-3-(2-methyl-5-nitro-1H-imidazol-1-yl)propan-2-yloxycarbonyl)benzoic acid'
_symmetry_cell_setting           monoclinic
_symmetry_space_group_name_H-M   'P 21/c'
_symmetry_Int_Tables_number      14
_space_group_name_Hall           '-P 2ybc'
loop_
_symmetry_equiv_pos_site_id
_symmetry_equiv_pos_as_xyz
1 x,y,z
2 -x,1/2+y,1/2-z
3 -x,-y,-z
4 x,1/2-y,1/2+z
_cell_length_a                   15.214(3)
_cell_length_b                   16.271(3)
_cell_length_c                   15.069(3)
_cell_angle_alpha                90
_cell_angle_beta                 113.86(3)
_cell_angle_gamma                90
_cell_volume                     3411.48
_exptl_crystal_colour            colorless
_exptl_crystal_description       block
_chemical_melting_point          '444-447 K'
_cell_formula_units_Z            8
loop_
_atom_site_label
_atom_site_type_symbol
_atom_site_fract_x
_atom_site_fract_y
_atom_site_fract_z
Cl1 Cl 0.11705(11) 0.43257(8) 0.72492(11)
O1 O 0.3761(2) 0.03250(17) 1.0499(2)
H1 H 0.3710 0.0047 1.0026
O2 O 0.3562(2) 0.13615(16) 0.94718(18)
O3 O 0.3744(2) 0.32764(19) 0.96664(19)
O4 O 0.23091(17) 0.27469(14) 0.94386(16)
O5 O 0.1328(2) 0.2233(2) 0.6314(2)
O6 O 0.1459(2) 0.0990(2) 0.5886(2)
N1 N 0.11477(19) 0.16366(16) 0.7989(2)
N2 N 0.1320(2) 0.03336(18) 0.8448(2)
N3 N 0.1364(2) 0.1490(2) 0.6445(2)
C1 C 0.3666(3) 0.3017(3) 1.1689(3)
H3 H 0.3550 0.3577 1.1582
C2 C 0.3935(3) 0.2701(3) 1.2607(3)
H4 H 0.3988 0.3047 1.3117
C3 C 0.4129(3) 0.1871(3) 1.2777(3)
H5 H 0.4320 0.1663 1.3402
C4 C 0.4037(3) 0.1351(3) 1.2018(3)
H6 H 0.4166 0.0793 1.2133
C5 C 0.3755(2) 0.1661(2) 1.1088(2)
C6 C 0.3568(2) 0.2497(2) 1.0920(2)
C7 C 0.3675(3) 0.1105(2) 1.0262(3)
C8 C 0.3245(3) 0.2879(2) 0.9941(3)
C9 C 0.1664(3) 0.3935(2) 0.8436(3)
H7 H 0.2255 0.4225 0.8812
H8 H 0.1219 0.4027 0.8740
C10 C 0.1872(3) 0.3018(2) 0.8441(2)
H9 H 0.2298 0.2909 0.8110
C11 C 0.0955(2) 0.2518(2) 0.7990(3)
H10 H 0.0560 0.2615 0.8349
H11 H 0.0596 0.2701 0.7328
C12 C 0.1003(3) 0.1285(3) 0.9559(3)
H12 H 0.1046 0.0788 0.9918
H13 H 0.0378 0.1523 0.9380
H14 H 0.1484 0.1666 0.9954
C13 C 0.1158(2) 0.1095(2) 0.8677(3)
C14 C 0.1408(3) 0.0381(2) 0.7593(3)
H15 H 0.1517 -0.0061 0.7259
C15 C 0.1311(3) 0.1176(2) 0.7298(3)
Cl2 Cl -0.38901(14) 0.04807(9) 0.66545(14)
O7 O -0.1465(2) 0.39839(15) 0.55531(19)
H2 H -0.1519 0.4404 0.5828
O8 O -0.1401(2) 0.33919(14) 0.69075(19)
O9 O -0.11021(18) 0.16192(17) 0.77884(18)
O10 O -0.25765(16) 0.19193(14) 0.66714(15)
O11 O -0.3413(3) 0.4576(2) 0.8743(2)
O12 O -0.3404(2) 0.3246(2) 0.8740(2)
N4 N -0.37734(19) 0.32555(17) 0.6748(2)
N5 N -0.3757(2) 0.4369(2) 0.5904(2)
N6 N -0.3466(3) 0.3912(3) 0.8340(2)
C16 C -0.1188(3) 0.1073(2) 0.5763(3)
H16 H -0.1214 0.0583 0.6069
C17 C -0.0988(3) 0.1060(3) 0.4947(3)
H17 H -0.0887 0.0560 0.4703
C18 C -0.0939(3) 0.1783(3) 0.4494(3)
H18 H -0.0811 0.1773 0.3940
C19 C -0.1079(2) 0.2521(2) 0.4867(2)
H19 H -0.1032 0.3009 0.4568
C20 C -0.1288(2) 0.2548(2) 0.5676(2)
C21 C -0.1352(2) 0.1814(2) 0.6130(2)
C22 C -0.1395(3) 0.3347(2) 0.6110(3)
C23 C -0.1631(3) 0.1788(2) 0.6968(3)
C24 C -0.3119(3) 0.1052(3) 0.7666(3)
H20 H -0.3391 0.1072 0.8147
H21 H -0.2503 0.0777 0.7955
C25 C -0.2968(3) 0.1925(2) 0.7394(3)
H22 H -0.2528 0.2216 0.7972
C26 C -0.3904(2) 0.2392(2) 0.6947(3)
H23 H -0.4314 0.2125 0.6345
H24 H -0.4229 0.2368 0.7384
C27 C -0.4060(3) 0.3050(3) 0.5004(3)
H25 H -0.4093 0.3398 0.4476
H26 H -0.4660 0.2767 0.4832
H27 H -0.3553 0.2656 0.5136
C28 C -0.3866(3) 0.3556(2) 0.5877(3)
C29 C -0.3610(3) 0.4604(3) 0.6814(3)
H28 H -0.3517 0.5142 0.7039
C30 C -0.3617(3) 0.3934(2) 0.7348(3)
loop_
_geom_bond_atom_site_label_1
_geom_bond_atom_site_label_2
_geom_bond_site_symmetry_1
_geom_bond_site_symmetry_2
Cl1 C9 1_555 1_555
Cl2 C24 1_555 1_555
O1 H1 1_555 1_555
O2 C7 1_555 1_555
O3 C8 1_555 1_555
O4 C8 1_555 1_555
O5 N3 1_555 1_555
O6 N3 1_555 1_555
O7 H2 1_555 1_555
O8 C22 1_555 1_555
O9 C23 1_555 1_555
O10 C23 1_555 1_555
O11 N6 1_555 1_555
O12 N6 1_555 1_555
N1 C11 1_555 1_555
N2 C13 1_555 1_555
N3 C15 1_555 1_555
N4 C26 1_555 1_555
N5 C28 1_555 1_555
N6 C30 1_555 1_555
C1 H3 1_555 1_555
C2 C1 1_555 1_555
H4 C2 1_555 1_555
C3 C2 1_555 1_555
H5 C3 1_555 1_555
C4 C3 1_555 1_555
H6 C4 1_555 1_555
C5 C4 1_555 1_555
C6 C1 1_555 1_555
C7 O1 1_555 1_555
C8 C6 1_555 1_555
C9 H7 1_555 1_555
H8 C9 1_555 1_555
C10 O4 1_555 1_555
H9 C10 1_555 1_555
C11 C10 1_555 1_555
H10 C11 1_555 1_555
H11 C11 1_555 1_555
C12 H12 1_555 1_555
H13 C12 1_555 1_555
H14 C12 1_555 1_555
C13 N1 1_555 1_555
C14 N2 1_555 1_555
H15 C14 1_555 1_555
C15 N1 1_555 1_555
C16 H16 1_555 1_555
C17 C16 1_555 1_555
H17 C17 1_555 1_555
C18 C17 1_555 1_555
H18 C18 1_555 1_555
C19 C18 1_555 1_555
H19 C19 1_555 1_555
C20 C19 1_555 1_555
C21 C16 1_555 1_555
C22 O7 1_555 1_555
C23 C21 1_555 1_555
C24 H20 1_555 1_555
H21 C24 1_555 1_555
C25 O10 1_555 1_555
H22 C25 1_555 1_555
C26 C25 1_555 1_555
H23 C26 1_555 1_555
H24 C26 1_555 1_555
C27 H25 1_555 1_555
H26 C27 1_555 1_555
H27 C27 1_555 1_555
C28 N4 1_555 1_555
C29 N5 1_555 1_555
H28 C29 1_555 1_555
C30 N4 1_555 1_555
C5 C6 1_555 1_555
C5 C7 1_555 1_555
C9 C10 1_555 1_555
C12 C13 1_555 1_555
C14 C15 1_555 1_555
C20 C21 1_555 1_555
C20 C22 1_555 1_555
C24 C25 1_555 1_555
C27 C28 1_555 1_555
C29 C30 1_555 1_555

#END
