
#######################################################################
#
#                 Cambridge Crystallographic Data Centre
#                                CCDC 
#
#######################################################################
#
# If this CIF has been generated from an entry in the Cambridge 
# Structural Database, then it will include bibliographic, chemical, 
# crystal, experimental, refinement or atomic coordinate data resulting 
# from the CCDC's data processing and validation procedures.
#
#######################################################################

data_GITMEC
_chemical_formula_moiety         'C31 H26 F6 N4 S2'
_chemical_name_systematic        
1,2-bis(5-(2,2-dicyanovinyl)-2-n-pentyl-3-thienyl)-3,3,4,4,5,5-hexafluorocyclopent-1-ene
_symmetry_cell_setting           triclinic
_symmetry_space_group_name_H-M   'P -1'
_symmetry_Int_Tables_number      2
_space_group_name_Hall           '-P 1'
loop_
_symmetry_equiv_pos_site_id
_symmetry_equiv_pos_as_xyz
1 x,y,z
2 -x,-y,-z
_cell_length_a                   9.2500(12)
_cell_length_b                   12.3670(16)
_cell_length_c                   15.596(2)
_cell_angle_alpha                67.730(2)
_cell_angle_beta                 85.482(2)
_cell_angle_gamma                72.804(2)
_cell_volume                     1576.1
_exptl_crystal_colour            colorless
_exptl_crystal_description       block
_cell_formula_units_Z            2
loop_
_atom_site_label
_atom_site_type_symbol
_atom_site_fract_x
_atom_site_fract_y
_atom_site_fract_z
C1 C 0.0738(10) 0.5361(5) 0.1944(6)
H1 H 0.0469 0.5186 0.2586
H2 H -0.0188 0.5756 0.1561
C2 C 0.1731(7) 0.6202(4) 0.1681(4)
H3 H 0.1967 0.6405 0.1032
H4 H 0.2675 0.5796 0.2047
C3 C 0.0917(9) 0.7364(5) 0.1853(6)
H5 H 0.0622 0.7165 0.2493
H6 H 0.0013 0.7810 0.1453
C4 C 0.2017(10) 0.8131(7) 0.1643(8)
H7 H 0.2972 0.7654 0.1985
H8 H 0.2207 0.8426 0.0986
C5 C 0.1254(12) 0.9188(8) 0.1944(8)
H9 H 0.0841 0.9908 0.1409
H10 H 0.1984 0.9328 0.2264
H11 H 0.0454 0.8997 0.2351
S1 S 0.54960(7) 0.43367(6) 0.36166(5)
S2 S 0.20706(10) 0.42398(7) 0.07217(5)
F1 F 0.0147(2) 0.34601(17) 0.51006(14)
F2 F 0.2160(2) 0.19833(18) 0.57123(12)
F3 F -0.0882(2) 0.16733(18) 0.52585(13)
F4 F 0.1357(2) 0.04837(15) 0.52487(12)
F5 F -0.10645(19) 0.26980(18) 0.34770(14)
F6 F 0.0564(2) 0.10029(16) 0.35753(12)
N1 N 0.4134(3) 0.9211(3) 0.3802(2)
N2 N 0.7516(4) 0.6262(3) 0.3235(2)
N3 N 0.3211(8) 0.4646(4) -0.1383(3)
N4 N 0.4656(6) 0.0932(4) -0.1258(3)
C11 C 0.3935(3) 0.5249(2) 0.39481(17)
C12 C 0.2763(3) 0.4738(2) 0.41300(18)
H23 H 0.1835 0.5082 0.4336
C13 C 0.3096(3) 0.3639(2) 0.39759(17)
C14 C 0.4564(3) 0.3291(2) 0.37081(17)
C15 C 0.3828(3) 0.6420(2) 0.39757(18)
H24 H 0.2917 0.6792 0.4181
C16 C 0.4850(3) 0.7060(2) 0.37491(18)
C17 C 0.4460(4) 0.8258(3) 0.3783(2)
C18 C 0.6336(4) 0.6619(3) 0.3461(2)
C19 C 0.5378(3) 0.2175(2) 0.35037(19)
H25 H 0.4696 0.1680 0.3591
H26 H 0.6229 0.1695 0.3942
C20 C 0.5953(3) 0.2475(3) 0.2522(2)
H27 H 0.5105 0.2977 0.2085
H28 H 0.6657 0.2950 0.2442
C21 C 0.6736(4) 0.1358(3) 0.2297(2)
H29 H 0.6025 0.0894 0.2363
H30 H 0.7569 0.0847 0.2743
C22 C 0.7343(4) 0.1657(4) 0.1326(3)
H31 H 0.6531 0.2226 0.0881
H32 H 0.7681 0.0916 0.1194
C23 C 0.8652(5) 0.2208(5) 0.1202(3)
H33 H 0.8294 0.2992 0.1253
H34 H 0.9061 0.2299 0.0602
H35 H 0.9426 0.1680 0.1673
C24 C 0.1988(3) 0.2956(2) 0.40680(17)
C25 C 0.1214(3) 0.2522(3) 0.4965(2)
C26 C 0.0457(3) 0.1630(3) 0.4854(2)
C27 C 0.0347(3) 0.1976(3) 0.3810(2)
C28 C 0.1484(3) 0.2668(2) 0.34215(18)
C29 C 0.1555(3) 0.4185(2) 0.1814(2)
C30 C 0.1842(3) 0.2997(2) 0.24345(17)
C31 C 0.2443(3) 0.2151(3) 0.20116(19)
H36 H 0.2675 0.1312 0.2333
C32 C 0.2661(3) 0.2669(3) 0.10779(19)
C33 C 0.3278(4) 0.2002(3) 0.0501(2)
H37 H 0.3487 0.1160 0.0791
C34 C 0.3606(4) 0.2403(3) -0.0400(2)
C35 C 0.3392(6) 0.3643(4) -0.0944(3)
C36 C 0.4193(5) 0.1571(4) -0.0867(3)
C6? C 0.107(2) 0.5317(7) 0.2059(9)
H12? H 0.0190 0.5287 0.2440
H13? H 0.1878 0.5300 0.2428
C7? C 0.0688(15) 0.6515(6) 0.1228(7)
H14? H 0.0010 0.6478 0.0802
H15? H 0.1609 0.6616 0.0908
C8? C -0.0056(14) 0.7626(8) 0.1487(10)
H16? H -0.0664 0.8274 0.0960
H17? H -0.0728 0.7408 0.1993
C9? C 0.110(2) 0.8096(15) 0.1777(11)
H18? H 0.2040 0.7451 0.1986
H19? H 0.0719 0.8365 0.2283
C10? C 0.136(2) 0.9190(14) 0.0918(13)
H20? H 0.2034 0.8880 0.0508
H21? H 0.1809 0.9664 0.1123
H22? H 0.0414 0.9695 0.0596
loop_
_geom_bond_atom_site_label_1
_geom_bond_atom_site_label_2
_geom_bond_site_symmetry_1
_geom_bond_site_symmetry_2
C1 H1 1_555 1_555
H2 C1 1_555 1_555
C2 C1 1_555 1_555
H3 C2 1_555 1_555
H4 C2 1_555 1_555
C3 C2 1_555 1_555
H5 C3 1_555 1_555
H6 C3 1_555 1_555
C4 C3 1_555 1_555
H7 C4 1_555 1_555
H8 C4 1_555 1_555
C5 C4 1_555 1_555
H9 C5 1_555 1_555
H10 C5 1_555 1_555
H11 C5 1_555 1_555
S1 C11 1_555 1_555
S2 C29 1_555 1_555
F1 C25 1_555 1_555
F2 C25 1_555 1_555
F3 C26 1_555 1_555
F4 C26 1_555 1_555
F5 C27 1_555 1_555
F6 C27 1_555 1_555
N1 C17 1_555 1_555
N2 C18 1_555 1_555
N3 C35 1_555 1_555
N4 C36 1_555 1_555
C11 C12 1_555 1_555
C12 H23 1_555 1_555
C13 C12 1_555 1_555
C14 S1 1_555 1_555
C15 C11 1_555 1_555
H24 C15 1_555 1_555
C16 C15 1_555 1_555
C17 C16 1_555 1_555
C18 C16 1_555 1_555
C19 C14 1_555 1_555
H25 C19 1_555 1_555
H26 C19 1_555 1_555
C20 C19 1_555 1_555
H27 C20 1_555 1_555
H28 C20 1_555 1_555
C21 C20 1_555 1_555
H29 C21 1_555 1_555
H30 C21 1_555 1_555
C22 C21 1_555 1_555
H31 C22 1_555 1_555
H32 C22 1_555 1_555
C23 C22 1_555 1_555
H33 C23 1_555 1_555
H34 C23 1_555 1_555
H35 C23 1_555 1_555
C24 C13 1_555 1_555
C25 C24 1_555 1_555
C26 C25 1_555 1_555
C27 C26 1_555 1_555
C28 C24 1_555 1_555
C29 C1 1_555 1_555
C30 C28 1_555 1_555
C31 C30 1_555 1_555
H36 C31 1_555 1_555
C32 S2 1_555 1_555
C33 C32 1_555 1_555
H37 C33 1_555 1_555
C34 C33 1_555 1_555
C35 C34 1_555 1_555
C36 C34 1_555 1_555
C13 C14 1_555 1_555
C27 C28 1_555 1_555
C29 C30 1_555 1_555
C31 C32 1_555 1_555

#END
