
#######################################################################
#
#                 Cambridge Crystallographic Data Centre
#                                CCDC 
#
#######################################################################
#
# If this CIF has been generated from an entry in the Cambridge 
# Structural Database, then it will include bibliographic, chemical, 
# crystal, experimental, refinement or atomic coordinate data resulting 
# from the CCDC's data processing and validation procedures.
#
#######################################################################

data_GITQUW
_chemical_formula_moiety         'C19 H32 N1 O12 P1'
_chemical_name_systematic        
'Diethyl (2-(acetylamino)-3,4,6-tri-O-acetyl-2-deoxy-\a-D-glucopyranosyl)-1-hydroxymethylphosphonate'
_chemical_properties_biological  'no detectable activity as an inhibitor of OGT'
_symmetry_cell_setting           monoclinic
_symmetry_space_group_name_H-M   'P 21'
_symmetry_Int_Tables_number      4
_space_group_name_Hall           'P 2yb'
loop_
_symmetry_equiv_pos_site_id
_symmetry_equiv_pos_as_xyz
1 x,y,z
2 -x,1/2+y,-z
_cell_length_a                   9.4518(1)
_cell_length_b                   9.4016(1)
_cell_length_c                   14.8704(1)
_cell_angle_alpha                90
_cell_angle_beta                 107.655(1)
_cell_angle_gamma                90
_cell_volume                     1259.18
_exptl_crystal_colour            colorless
_exptl_crystal_description       needle
_chemical_melting_point          170-172deg.C
_cell_formula_units_Z            2
loop_
_atom_site_label
_atom_site_type_symbol
_atom_site_fract_x
_atom_site_fract_y
_atom_site_fract_z
O1 O 0.55051(18) 1.02791(19) -0.13570(12)
C1 C 0.4489(2) 0.9303(3) -0.11438(16)
H1 H 0.3923 0.9863 -0.0806
C2 C 0.5270(2) 0.8116(3) -0.04579(15)
H2 H 0.4520 0.7667 -0.0207
O2 O 0.58920(18) 0.70253(19) -0.08917(11)
H3 H 0.5520 0.6247 -0.0827
P1 P 0.67337(6) 0.88384(7) 0.05416(4)
O3 O 0.6263(2) 1.0125(2) 0.09315(13)
O4 O 0.81532(17) 0.9160(2) 0.02280(12)
C3 C 0.9253(3) 0.8096(4) 0.0178(2)
H4 H 0.8829 0.7447 -0.0351
H5 H 0.9555 0.7537 0.0762
C4 C 1.0577(3) 0.8859(5) 0.0043(2)
H6 H 1.0264 0.9424 -0.0529
H7 H 1.1310 0.8168 -0.0008
H8 H 1.1007 0.9477 0.0579
O5 O 0.7135(2) 0.7539(2) 0.12366(12)
C5 C 0.8234(5) 0.7539(6) 0.2148(3)
H9 H 0.8911 0.8345 0.2197
H10 H 0.8817 0.6660 0.2233
C6 C 0.7499(10) 0.7646(8) 0.2882(5)
H11 H 0.6929 0.8521 0.2798
H12 H 0.8241 0.7649 0.3498
H13 H 0.6840 0.6840 0.2836
C9 C 0.3336(2) 0.8804(3) -0.20759(15)
H19 H 0.2745 0.9652 -0.2354
N1 N 0.2301(2) 0.7774(2) -0.19108(14)
H20 H 0.254(3) 0.699(4) -0.176(2)
C10 C 0.0804(3) 0.7953(3) -0.22528(18)
O6 O 0.0234(2) 0.9063(3) -0.26030(19)
C11 C -0.0094(3) 0.6664(4) -0.2169(2)
H21 H -0.1087 0.6957 -0.2187
H22 H 0.0378 0.6184 -0.1576
H23 H -0.0153 0.6020 -0.2688
C12 C 0.4064(2) 0.8276(3) -0.28029(15)
H24 H 0.4504 0.7322 -0.2626
O7 O 0.29400(19) 0.8226(2) -0.37190(11)
C13 C 0.2326(3) 0.6971(4) -0.40411(18)
O8 O 0.2627(3) 0.5869(3) -0.36127(15)
C14 C 0.1206(4) 0.7133(5) -0.5000(2)
H25 H 0.1716 0.7339 -0.5461
H26 H 0.0534 0.7906 -0.4986
H27 H 0.0647 0.6257 -0.5170
C15 C 0.5234(2) 0.9312(3) -0.29131(17)
H28 H 0.4751 1.0163 -0.3267
O9 O 0.60732(18) 0.8574(2) -0.34367(12)
C16 C 0.6256(3) 0.9231(4) -0.4209(2)
O10 O 0.5794(4) 1.0384(3) -0.4465(2)
C17 C 0.7121(4) 0.8281(5) -0.4659(2)
H29 H 0.7282 0.8762 -0.5197
H30 H 0.6569 0.7410 -0.4869
H31 H 0.8071 0.8055 -0.4204
C18 C 0.6308(3) 0.9754(3) -0.19622(18)
H32 H 0.6897 0.8915 -0.1662
C19 C 0.7357(3) 1.0933(3) -0.2037(2)
H33 H 0.8028 1.1169 -0.1411
H34 H 0.7955 1.0631 -0.2439
O11 O 0.6466(2) 1.2157(2) -0.24451(17)
C20 C 0.7152(3) 1.3257(3) -0.2675(2)
O12 O 0.8441(3) 1.3248(4) -0.2568(3)
C21 C 0.6155(4) 1.4461(5) -0.3071(4)
H35 H 0.6743 1.5301 -0.3087
H36 H 0.5520 1.4645 -0.2680
H37 H 0.5548 1.4229 -0.3707
C7? C 0.6999(9) 0.7844(9) 0.2224(6)
H14? H 0.6741 0.8845 0.2268
H15? H 0.6209 0.7257 0.2330
C8? C 0.8402(14) 0.7528(13) 0.2937(6)
H16? H 0.9117 0.8267 0.2936
H17? H 0.8774 0.6619 0.2798
H18? H 0.8249 0.7486 0.3553
loop_
_geom_bond_atom_site_label_1
_geom_bond_atom_site_label_2
_geom_bond_site_symmetry_1
_geom_bond_site_symmetry_2
O1 C1 1_555 1_555
C1 H1 1_555 1_555
C2 C1 1_555 1_555
H2 C2 1_555 1_555
O2 C2 1_555 1_555
H3 O2 1_555 1_555
P1 C2 1_555 1_555
O3 P1 1_555 1_555
O4 P1 1_555 1_555
C3 O4 1_555 1_555
H4 C3 1_555 1_555
H5 C3 1_555 1_555
C4 C3 1_555 1_555
H6 C4 1_555 1_555
H7 C4 1_555 1_555
H8 C4 1_555 1_555
O5 P1 1_555 1_555
C5 O5 1_555 1_555
H9 C5 1_555 1_555
H10 C5 1_555 1_555
C6 C5 1_555 1_555
H11 C6 1_555 1_555
H12 C6 1_555 1_555
H13 C6 1_555 1_555
C9 C1 1_555 1_555
H19 C9 1_555 1_555
N1 C9 1_555 1_555
H20 N1 1_555 1_555
C10 N1 1_555 1_555
O6 C10 1_555 1_555
C11 C10 1_555 1_555
H21 C11 1_555 1_555
H22 C11 1_555 1_555
H23 C11 1_555 1_555
C12 C9 1_555 1_555
H24 C12 1_555 1_555
O7 C12 1_555 1_555
C13 O7 1_555 1_555
O8 C13 1_555 1_555
C14 C13 1_555 1_555
H25 C14 1_555 1_555
H26 C14 1_555 1_555
H27 C14 1_555 1_555
C15 C12 1_555 1_555
H28 C15 1_555 1_555
O9 C15 1_555 1_555
C16 O9 1_555 1_555
O10 C16 1_555 1_555
C17 C16 1_555 1_555
H29 C17 1_555 1_555
H30 C17 1_555 1_555
H31 C17 1_555 1_555
C18 O1 1_555 1_555
H32 C18 1_555 1_555
C19 C18 1_555 1_555
H33 C19 1_555 1_555
H34 C19 1_555 1_555
O11 C19 1_555 1_555
C20 O11 1_555 1_555
O12 C20 1_555 1_555
C21 C20 1_555 1_555
H35 C21 1_555 1_555
H36 C21 1_555 1_555
H37 C21 1_555 1_555
C15 C18 1_555 1_555

#END
