
#######################################################################
#
#                 Cambridge Crystallographic Data Centre
#                                CCDC 
#
#######################################################################
#
# If this CIF has been generated from an entry in the Cambridge 
# Structural Database, then it will include bibliographic, chemical, 
# crystal, experimental, refinement or atomic coordinate data resulting 
# from the CCDC's data processing and validation procedures.
#
#######################################################################

data_GIVLAA
_chemical_formula_moiety         'C18 H8 Cl2 N6 O6,C8 H20 N1 1+,Cl1 1-'
_chemical_name_systematic        
'tetraethylammonium chloride 5,17-dichloro-2,8,14,20-tetraoxa-4,6,16,18,26,28-hexaazapentacyclo[19.3.1.1^3,7^.1^9,13^.1^15,19^]octacosa-1(25),3(28),4,6,9(27),10,12,15(26),16,18,21,23-dodecaene-11,23-diol'
_symmetry_cell_setting           orthorhombic
_symmetry_space_group_name_H-M   'P b c a'
_symmetry_Int_Tables_number      61
_space_group_name_Hall           '-P 2ac 2ab'
loop_
_symmetry_equiv_pos_site_id
_symmetry_equiv_pos_as_xyz
1 x,y,z
2 1/2-x,-y,1/2+z
3 -x,1/2+y,1/2-z
4 1/2+x,1/2-y,-z
5 -x,-y,-z
6 1/2+x,y,1/2-z
7 x,1/2-y,1/2+z
8 1/2-x,1/2+y,z
_cell_length_a                   17.004(3)
_cell_length_b                   18.042(4)
_cell_length_c                   19.082(4)
_cell_angle_alpha                90
_cell_angle_beta                 90
_cell_angle_gamma                90
_cell_volume                     5854.09
_exptl_crystal_colour            colorless
_exptl_crystal_description       rod
_cell_formula_units_Z            8
loop_
_atom_site_label
_atom_site_type_symbol
_atom_site_fract_x
_atom_site_fract_y
_atom_site_fract_z
Cl1 Cl -0.22571(13) -0.09029(11) 0.37564(14)
Cl2 Cl -0.01759(13) 0.40228(11) 0.00762(9)
O1 O -0.0013(3) 0.0213(2) 0.2623(2)
O2 O 0.1214(3) 0.2394(3) 0.1640(2)
O3 O -0.0865(2) 0.3734(2) 0.2507(2)
O4 O -0.1670(3) 0.1671(2) 0.3944(2)
O5 O 0.2679(3) 0.0725(3) 0.3025(3)
H1 H 0.2943 0.1094 0.3153
O6 O -0.0861(3) 0.3941(2) 0.4973(2)
H2 H -0.0971 0.3663 0.5311
N1 N -0.1082(3) -0.0272(3) 0.3119(3)
N2 N -0.1926(3) 0.0487(3) 0.3798(3)
N3 N -0.0778(3) 0.1010(3) 0.3282(3)
N4 N 0.0536(3) 0.3143(3) 0.0931(3)
N5 N 0.0175(3) 0.3020(3) 0.2137(3)
N6 N -0.0531(3) 0.3832(3) 0.1382(3)
C1 C -0.1689(4) -0.0146(4) 0.3527(4)
C2 C -0.0641(3) 0.0340(3) 0.3017(3)
C3 C -0.1435(4) 0.1040(3) 0.3647(3)
C4 C 0.0610(4) 0.0731(3) 0.2580(3)
C5 C 0.1307(4) 0.0517(4) 0.2869(4)
H3 H 0.1341 0.0068 0.3127
C6 C 0.1969(4) 0.0963(4) 0.2783(4)
C7 C 0.1901(4) 0.1618(3) 0.2408(4)
H4 H 0.2341 0.1937 0.2357
C8 C 0.1197(4) 0.1800(3) 0.2113(3)
C9 C 0.0530(4) 0.1361(3) 0.2182(3)
H5 H 0.0045 0.1490 0.1966
C10 C 0.0607(4) 0.2862(3) 0.1582(3)
C11 C -0.0047(4) 0.3624(3) 0.0891(3)
C12 C -0.0386(3) 0.3503(3) 0.1997(3)
C13 C -0.0909(3) 0.3365(3) 0.3158(3)
C14 C -0.0803(4) 0.3806(3) 0.3740(3)
H6 H -0.0628 0.4303 0.3695
C15 C -0.0959(3) 0.3499(3) 0.4400(3)
C16 C -0.1213(4) 0.2772(3) 0.4453(3)
H7 H -0.1324 0.2559 0.4897
C17 C -0.1302(4) 0.2362(3) 0.3841(3)
C18 C -0.1153(3) 0.2638(3) 0.3177(3)
H8 H -0.1214 0.2348 0.2766
Cl3 Cl 0.36768(9) 0.19330(10) 0.36820(8)
N7 N 0.6740(3) 0.1281(3) 0.5698(3)
C19 C 0.7540(5) 0.0997(5) 0.5450(4)
H9 H 0.7622 0.1166 0.4962
H10 H 0.7953 0.1229 0.5742
C20 C 0.7656(6) 0.0159(6) 0.5472(5)
H11 H 0.7252 -0.0082 0.5184
H12 H 0.7611 -0.0015 0.5957
H13 H 0.8178 0.0035 0.5289
C21 C 0.6750(5) 0.2097(5) 0.5583(5)
H14 H 0.6793 0.2193 0.5074
H15 H 0.7225 0.2304 0.5810
C22 C 0.6026(6) 0.2514(5) 0.5865(5)
H16 H 0.5549 0.2312 0.5648
H17 H 0.6072 0.3042 0.5751
H18 H 0.5996 0.2453 0.6374
C23 C 0.6634(5) 0.1102(5) 0.6474(4)
H19 H 0.6116 0.1293 0.6628
H20 H 0.6627 0.0557 0.6532
C24 C 0.7261(5) 0.1420(6) 0.6944(4)
H21 H 0.7762 0.1171 0.6851
H22 H 0.7112 0.1344 0.7435
H23 H 0.7316 0.1952 0.6852
C25 C 0.6092(5) 0.0893(5) 0.5329(4)
H24 H 0.5585 0.1081 0.5511
H25 H 0.6122 0.0358 0.5443
C26 C 0.6094(5) 0.0978(6) 0.4536(4)
H26 H 0.5641 0.0715 0.4338
H27 H 0.6580 0.0768 0.4344
H28 H 0.6061 0.1504 0.4414
loop_
_geom_bond_atom_site_label_1
_geom_bond_atom_site_label_2
_geom_bond_site_symmetry_1
_geom_bond_site_symmetry_2
Cl1 C1 1_555 1_555
Cl2 C11 1_555 1_555
O1 C2 1_555 1_555
O2 C8 1_555 1_555
O3 C12 1_555 1_555
O4 C3 1_555 1_555
O5 H1 1_555 1_555
O6 H2 1_555 1_555
N1 C1 1_555 1_555
N2 C1 1_555 1_555
N3 C2 1_555 1_555
N4 C10 1_555 1_555
N5 C10 1_555 1_555
N6 C11 1_555 1_555
C2 N1 1_555 1_555
C3 N2 1_555 1_555
C4 O1 1_555 1_555
C5 C4 1_555 1_555
H3 C5 1_555 1_555
C6 O5 1_555 1_555
C7 C6 1_555 1_555
H4 C7 1_555 1_555
C8 C7 1_555 1_555
C9 C4 1_555 1_555
H5 C9 1_555 1_555
C10 O2 1_555 1_555
C11 N4 1_555 1_555
C12 N5 1_555 1_555
C13 O3 1_555 1_555
C14 C13 1_555 1_555
H6 C14 1_555 1_555
C15 O6 1_555 1_555
C16 C15 1_555 1_555
H7 C16 1_555 1_555
C17 O4 1_555 1_555
C18 C13 1_555 1_555
H8 C18 1_555 1_555
N7 C19 1_555 1_555
C19 H9 1_555 1_555
H10 C19 1_555 1_555
C20 C19 1_555 1_555
H11 C20 1_555 1_555
H12 C20 1_555 1_555
H13 C20 1_555 1_555
C21 N7 1_555 1_555
H14 C21 1_555 1_555
H15 C21 1_555 1_555
C22 C21 1_555 1_555
H16 C22 1_555 1_555
H17 C22 1_555 1_555
H18 C22 1_555 1_555
C23 N7 1_555 1_555
H19 C23 1_555 1_555
H20 C23 1_555 1_555
C24 C23 1_555 1_555
H21 C24 1_555 1_555
H22 C24 1_555 1_555
H23 C24 1_555 1_555
C25 N7 1_555 1_555
H24 C25 1_555 1_555
H25 C25 1_555 1_555
C26 C25 1_555 1_555
H26 C26 1_555 1_555
H27 C26 1_555 1_555
H28 C26 1_555 1_555
N3 C3 1_555 1_555
N6 C12 1_555 1_555
C5 C6 1_555 1_555
C8 C9 1_555 1_555
C14 C15 1_555 1_555
C16 C17 1_555 1_555
C17 C18 1_555 1_555

#END
