
#######################################################################
#
#                 Cambridge Crystallographic Data Centre
#                                CCDC 
#
#######################################################################
#
# If this CIF has been generated from an entry in the Cambridge 
# Structural Database, then it will include bibliographic, chemical, 
# crystal, experimental, refinement or atomic coordinate data resulting 
# from the CCDC's data processing and validation procedures.
#
#######################################################################

data_GIVLEF
_chemical_formula_moiety         'C12 H14 Cl3 N1 O1'
_chemical_name_systematic        
2-ethyl-3-phenyl-2-(trichloromethyl)-1,3-oxazolidine
_symmetry_cell_setting           orthorhombic
_symmetry_space_group_name_H-M   'P b c a'
_symmetry_Int_Tables_number      61
_space_group_name_Hall           '-P 2ac 2ab'
loop_
_symmetry_equiv_pos_site_id
_symmetry_equiv_pos_as_xyz
1 x,y,z
2 1/2-x,-y,1/2+z
3 -x,1/2+y,1/2-z
4 1/2+x,1/2-y,-z
5 -x,-y,-z
6 1/2+x,y,1/2-z
7 x,1/2-y,1/2+z
8 1/2-x,1/2+y,z
_cell_length_a                   10.103(2)
_cell_length_b                   15.864(4)
_cell_length_c                   16.920(4)
_cell_angle_alpha                90
_cell_angle_beta                 90
_cell_angle_gamma                90
_cell_volume                     2711.84
_exptl_crystal_colour            colorless
_exptl_crystal_description       block
_cell_formula_units_Z            8
loop_
_atom_site_label
_atom_site_type_symbol
_atom_site_fract_x
_atom_site_fract_y
_atom_site_fract_z
C1 C 0.6852(6) 0.5144(3) 0.3201(3)
H1 H 0.7476 0.5474 0.2940
C2 C 0.7218(5) 0.4643(4) 0.3830(4)
H2 H 0.8094 0.4642 0.3999
C3 C 0.5555(6) 0.5148(3) 0.2965(3)
H3 H 0.5302 0.5488 0.2543
C4 C 0.6280(4) 0.4132(3) 0.4220(3)
H4 H 0.6530 0.3797 0.4646
C5 C 0.4636(5) 0.4670(2) 0.3331(2)
H5 H 0.3761 0.4695 0.3163
C6 C 0.4970(3) 0.4138(2) 0.3958(2)
C7 C 0.4389(4) 0.3376(3) 0.5195(2)
H6 H 0.4643 0.3851 0.5524
H7 H 0.5098 0.2964 0.5193
C8 C 0.3106(5) 0.2994(4) 0.5466(3)
H8 H 0.3271 0.2496 0.5783
H9 H 0.2608 0.3396 0.5779
C9 C 0.2958(3) 0.3159(2) 0.4087(2)
C10 C 0.1832(4) 0.3686(3) 0.3689(2)
H10 H 0.2144 0.3904 0.3187
H11 H 0.1079 0.3323 0.3586
C11 C 0.1407(5) 0.4405(4) 0.4206(3)
H12 H 0.0717 0.4716 0.3947
H13 H 0.2149 0.4769 0.4302
H14 H 0.1084 0.4189 0.4700
C12 C 0.3364(4) 0.2422(3) 0.3523(2)
N1 N 0.4048(3) 0.3650(2) 0.43829(17)
O1 O 0.2392(3) 0.27774(17) 0.47635(15)
Cl1 Cl 0.20360(13) 0.17120(8) 0.33654(7)
Cl2 Cl 0.39497(16) 0.27591(10) 0.26054(8)
Cl3 Cl 0.46514(15) 0.18192(9) 0.39751(11)
loop_
_geom_bond_atom_site_label_1
_geom_bond_atom_site_label_2
_geom_bond_site_symmetry_1
_geom_bond_site_symmetry_2
C1 H1 1_555 1_555
C2 C1 1_555 1_555
H2 C2 1_555 1_555
C3 C1 1_555 1_555
H3 C3 1_555 1_555
C4 C2 1_555 1_555
H4 C4 1_555 1_555
C5 C3 1_555 1_555
H5 C5 1_555 1_555
C6 C4 1_555 1_555
C7 H6 1_555 1_555
H7 C7 1_555 1_555
C8 C7 1_555 1_555
H8 C8 1_555 1_555
H9 C8 1_555 1_555
C9 C10 1_555 1_555
C10 H10 1_555 1_555
H11 C10 1_555 1_555
C11 C10 1_555 1_555
H12 C11 1_555 1_555
H13 C11 1_555 1_555
H14 C11 1_555 1_555
C12 C9 1_555 1_555
N1 C6 1_555 1_555
O1 C8 1_555 1_555
Cl1 C12 1_555 1_555
Cl2 C12 1_555 1_555
Cl3 C12 1_555 1_555
C5 C6 1_555 1_555
C7 N1 1_555 1_555
C9 N1 1_555 1_555
C9 O1 1_555 1_555

#END
