
#######################################################################
#
#                 Cambridge Crystallographic Data Centre
#                                CCDC 
#
#######################################################################
#
# If this CIF has been generated from an entry in the Cambridge 
# Structural Database, then it will include bibliographic, chemical, 
# crystal, experimental, refinement or atomic coordinate data resulting 
# from the CCDC's data processing and validation procedures.
#
#######################################################################

data_GIVZOA
_chemical_formula_moiety         'C8 H7 N1 S5 1+,Br1 1-'
_chemical_name_systematic        
'4-(N-Methylthiocarbamoyl)-tetrathiafulvalene radical bromide'
_symmetry_cell_setting           monoclinic
_symmetry_space_group_name_H-M   'P 21/c'
_symmetry_Int_Tables_number      14
_space_group_name_Hall           '-P 2ybc'
loop_
_symmetry_equiv_pos_site_id
_symmetry_equiv_pos_as_xyz
1 x,y,z
2 -x,1/2+y,1/2-z
3 -x,-y,-z
4 x,1/2-y,1/2+z
_cell_length_a                   13.126(4)
_cell_length_b                   7.392(2)
_cell_length_c                   13.570(4)
_cell_angle_alpha                90
_cell_angle_beta                 111.72(2)
_cell_angle_gamma                90
_cell_volume                     1223.18
_exptl_crystal_colour            black
_cell_formula_units_Z            4
loop_
_atom_site_label
_atom_site_type_symbol
_atom_site_fract_x
_atom_site_fract_y
_atom_site_fract_z
Br1 Br 0.10417(3) -0.07448(5) 0.15190(3)
S1 S 0.44504(7) 0.2042(1) 0.55703(6)
S2 S 0.45033(7) 0.2622(1) 0.34452(6)
S3 S 0.69083(7) 0.3510(1) 0.66267(7)
S4 S 0.69948(7) 0.4172(1) 0.45387(7)
S5 S 0.2474(1) 0.0906(1) 0.60235(7)
N1 N 0.1560(2) -0.0096(4) 0.3998(2)
C1 C 0.5180(3) 0.2756(4) 0.4812(2)
C2 C 0.3302(3) 0.1369(4) 0.4484(3)
C3 C 0.3339(3) 0.1637(5) 0.3512(3)
C4 C 0.6248(3) 0.3419(4) 0.5273(3)
C5 C 0.8090(3) 0.4443(5) 0.6585(3)
C6 C 0.8134(3) 0.4768(5) 0.5630(3)
C7 C 0.2381(3) 0.0660(4) 0.4763(3)
C8 C 0.0566(3) -0.0760(5) 0.4120(3)
H1 H 0.1571(33) -0.0199(55) 0.3362(33)
H2 H 0.2829(34) 0.1396(57) 0.2945(32)
H3 H 0.8648(30) 0.4636(49) 0.7204(29)
H4 H 0.8750(30) 0.5200(47) 0.5545(27)
H5 H 0.0180(34) -0.1515(56) 0.3580(33)
H6 H 0.0782(36) -0.1414(61) 0.4765(36)
H7 H 0.0013(34) 0.0308(53) 0.4091(31)
loop_
_geom_bond_atom_site_label_1
_geom_bond_atom_site_label_2
_geom_bond_site_symmetry_1
_geom_bond_site_symmetry_2
S1 C1 1_555 1_555
S2 C1 1_555 1_555
S3 C4 1_555 1_555
S4 C4 1_555 1_555
S5 C7 1_555 1_555
N1 C7 1_555 1_555
C1 C4 1_555 1_555
C2 S1 1_555 1_555
C3 S2 1_555 1_555
C5 S3 1_555 1_555
C6 S4 1_555 1_555
C7 C2 1_555 1_555
C8 N1 1_555 1_555
H1 N1 1_555 1_555
H2 C3 1_555 1_555
H3 C5 1_555 1_555
H4 C6 1_555 1_555
H5 C8 1_555 1_555
H6 C8 1_555 1_555
H7 C8 1_555 1_555
C2 C3 1_555 1_555
C5 C6 1_555 1_555

#END
