
#######################################################################
#
#                 Cambridge Crystallographic Data Centre
#                                CCDC 
#
#######################################################################
#
# If this CIF has been generated from an entry in the Cambridge 
# Structural Database, then it will include bibliographic, chemical, 
# crystal, experimental, refinement or atomic coordinate data resulting 
# from the CCDC's data processing and validation procedures.
#
#######################################################################

data_GIWBUJ
_chemical_formula_moiety         'C20 H28 S7'
_chemical_name_systematic        
2-(4,5-bis(Hexylthio)-1,3-dithiol-2-ylidene)thieno(3,4-d)-1,3-dithiole
_symmetry_cell_setting           monoclinic
_symmetry_space_group_name_H-M   'P 21/c'
_symmetry_Int_Tables_number      14
_space_group_name_Hall           '-P 2ybc'
loop_
_symmetry_equiv_pos_site_id
_symmetry_equiv_pos_as_xyz
1 x,y,z
2 -x,1/2+y,1/2-z
3 -x,-y,-z
4 x,1/2-y,1/2+z
_cell_length_a                   17.113(2)
_cell_length_b                   12.259(2)
_cell_length_c                   12.338(2)
_cell_angle_alpha                90
_cell_angle_beta                 110.42(1)
_cell_angle_gamma                90
_cell_volume                     2425.72
_exptl_crystal_colour            'bright yellow'
_exptl_crystal_description       needles
_chemical_melting_point          73-74deg.C
_cell_formula_units_Z            4
_exptl_crystal_recrystallization_method dichloromethane/acetonitrile
loop_
_atom_site_label
_atom_site_type_symbol
_atom_site_fract_x
_atom_site_fract_y
_atom_site_fract_z
S1 S 0.65967(5) 0.93882(6) 0.71560(6)
S2 S 0.57393(4) 0.95979(5) 0.34723(6)
S3 S 0.49327(4) 0.77105(5) 0.42161(6)
S4 S 0.44693(4) 0.92941(5) 0.08621(5)
S5 S 0.36586(4) 0.74530(5) 0.15823(6)
S6 S 0.31217(5) 0.94997(6) -0.14693(6)
S7 S 0.21731(5) 0.74345(6) -0.06056(7)
C1 C 0.6544(2) 0.9965(2) 0.5867(2)
C2 C 0.5997(2) 0.9414(2) 0.4965(2)
C3 C 0.5615(2) 0.8519(2) 0.5324(2)
C4 C 0.5876(2) 0.8402(2) 0.6486(2)
C5 C 0.4957(2) 0.8589(2) 0.3093(2)
C6 C 0.4430(2) 0.8473(2) 0.2012(2)
C7 C 0.3478(2) 0.8894(2) -0.0105(2)
C8 C 0.3110(2) 0.8055(2) 0.0234(2)
C9 C 0.3100(2) 1.0921(2) -0.1070(3)
C10 C 0.2466(2) 1.1175(2) -0.0500(3)
C11 C 0.2463(2) 1.2377(2) -0.0197(3)
C12 C 0.1824(2) 1.2667(2) 0.0358(3)
C13 C 0.1771(2) 1.3891(3) 0.0559(3)
C14 C 0.1110(3) 1.4177(4) 0.1071(4)
C15 C 0.1587(2) 0.7529(2) 0.0368(3)
C16 C 0.1467(2) 0.8703(2) 0.0682(3)
C17 C 0.0894(2) 0.8822(3) 0.1372(3)
C18 C 0.0793(2) 1.0006(3) 0.1685(3)
C19 C 0.0208(2) 1.0158(3) 0.2351(3)
C20 C 0.0073(3) 1.1336(4) 0.2587(4)
H1 H 0.6839(20) 1.0555(26) 0.5828(27)
H2 H 0.5728(21) 0.7878(28) 0.6920(28)
H3 H 0.3679(20) 1.1134(25) -0.0558(27)
H4 H 0.2981(20) 1.1292(27) -0.1731(29)
H5 H 0.2579(22) 1.0780(30) 0.0173(32)
H6 H 0.1915(20) 1.0958(25) -0.1041(28)
H7 H 0.3011(22) 1.2576(25) 0.0331(28)
H8 H 0.2364(20) 1.2795(27) -0.0880(29)
H9 H 0.1944(20) 1.2299(26) 0.1075(28)
H10 H 0.1288(21) 1.2390(25) -0.0111(28)
H11 H 0.2306(22) 1.4110(26) 0.1065(29)
H12 H 0.1659(21) 1.4303(27) -0.0196(30)
H13 H 0.1095(29) 1.4885(41) 0.1187(38)
H14 H 0.1213(25) 1.3773(34) 0.1780(38)
H15 H 0.0586(28) 1.3999(34) 0.0521(37)
H16 H 0.1043(20) 0.7201(25) -0.0130(27)
H17 H 0.1836(21) 0.7145(28) 0.1034(29)
H18 H 0.2016(21) 0.9030(27) 0.1135(29)
H19 H 0.1274(24) 0.9157(31) -0.0022(35)
H20 H 0.0362(21) 0.8500(27) 0.0924(28)
H21 H 0.1085(24) 0.8365(31) 0.2043(33)
H22 H 0.1367(23) 1.0340(28) 0.2136(31)
H23 H 0.0615(24) 1.0410(31) 0.1011(34)
H24 H 0.0448(25) 0.9735(33) 0.3087(36)
H25 H -0.0301(27) 0.9869(32) 0.1915(34)
H26 H -0.0313(33) 1.1396(44) 0.3104(44)
H27 H -0.0120(25) 1.1737(33) 0.1877(35)
H28 H 0.0628(26) 1.1755(33) 0.3004(34)
loop_
_geom_bond_atom_site_label_1
_geom_bond_atom_site_label_2
_geom_bond_site_symmetry_1
_geom_bond_site_symmetry_2
S1 C1 1_555 1_555
S2 C2 1_555 1_555
S3 C3 1_555 1_555
S4 C6 1_555 1_555
S5 C6 1_555 1_555
S6 C7 1_555 1_555
S7 C8 1_555 1_555
C1 C2 1_555 1_555
C2 C3 1_555 1_555
C3 C4 1_555 1_555
C4 S1 1_555 1_555
C5 S2 1_555 1_555
C6 C5 1_555 1_555
C7 S4 1_555 1_555
C8 S5 1_555 1_555
C9 S6 1_555 1_555
C10 C9 1_555 1_555
C11 C10 1_555 1_555
C12 C11 1_555 1_555
C13 C12 1_555 1_555
C14 C13 1_555 1_555
C15 S7 1_555 1_555
C16 C15 1_555 1_555
C17 C16 1_555 1_555
C18 C17 1_555 1_555
C19 C18 1_555 1_555
C20 C19 1_555 1_555
H1 C1 1_555 1_555
H2 C4 1_555 1_555
H3 C9 1_555 1_555
H4 C9 1_555 1_555
H5 C10 1_555 1_555
H6 C10 1_555 1_555
H7 C11 1_555 1_555
H8 C11 1_555 1_555
H9 C12 1_555 1_555
H10 C12 1_555 1_555
H11 C13 1_555 1_555
H12 C13 1_555 1_555
H13 C14 1_555 1_555
H14 C14 1_555 1_555
H15 C14 1_555 1_555
H16 C15 1_555 1_555
H17 C15 1_555 1_555
H18 C16 1_555 1_555
H19 C16 1_555 1_555
H20 C17 1_555 1_555
H21 C17 1_555 1_555
H22 C18 1_555 1_555
H23 C18 1_555 1_555
H24 C19 1_555 1_555
H25 C19 1_555 1_555
H26 C20 1_555 1_555
H27 C20 1_555 1_555
H28 C20 1_555 1_555
S3 C5 1_555 1_555
C7 C8 1_555 1_555

#END
