
#######################################################################
#
#                 Cambridge Crystallographic Data Centre
#                                CCDC 
#
#######################################################################
#
# If this CIF has been generated from an entry in the Cambridge 
# Structural Database, then it will include bibliographic, chemical, 
# crystal, experimental, refinement or atomic coordinate data resulting 
# from the CCDC's data processing and validation procedures.
#
#######################################################################

data_GIWBIA
_chemical_formula_moiety         'C14 H14 Br1 N3'
_chemical_name_systematic        
4-[(4-bromophenyl)diazenyl]-N,N-dimethylaniline
_symmetry_cell_setting           orthorhombic
_symmetry_space_group_name_H-M   'P n a 21'
_symmetry_Int_Tables_number      33
_space_group_name_Hall           'P 2c -2n'
loop_
_symmetry_equiv_pos_site_id
_symmetry_equiv_pos_as_xyz
1 x,y,z
2 -x,-y,1/2+z
3 1/2-x,1/2+y,1/2+z
4 1/2+x,1/2-y,z
_cell_length_a                   15.7361(13)
_cell_length_b                   14.0279(12)
_cell_length_c                   6.1900(6)
_cell_angle_alpha                90
_cell_angle_beta                 90
_cell_angle_gamma                90
_cell_volume                     1366.41
_cell_formula_units_Z            4
loop_
_atom_site_label
_atom_site_type_symbol
_atom_site_fract_x
_atom_site_fract_y
_atom_site_fract_z
N1 N 1.1140(5) 0.6309(6) 0.5442(11)
N2 N 0.7637(4) 0.6320(4) 0.3552(14)
N3 N 0.7416(5) 0.6096(4) 0.1651(13)
Br1 Br 0.36109(5) 0.62328(9) -0.0250(2)
C1 C 1.0283(4) 0.6278(7) 0.4936(18)
C2 C 0.9673(5) 0.6544(6) 0.6561(16)
H1 H 0.9852 0.6725 0.7933
C3 C 0.8799(6) 0.6525(7) 0.6041(16)
H2 H 0.8402 0.6687 0.7092
C4 C 0.8521(5) 0.6272(6) 0.3996(16)
C5 C 0.9147(6) 0.6003(6) 0.2444(17)
H3 H 0.8973 0.5830 0.1062
C6 C 1.0004(6) 0.5990(6) 0.2931(15)
H4 H 1.0393 0.5787 0.1900
C7 C 0.6512(5) 0.6142(6) 0.1321(17)
C8 C 0.5916(6) 0.6479(6) 0.2882(17)
H5 H 0.6100 0.6684 0.4232
C9 C 0.5073(6) 0.6495(6) 0.2367(16)
H6 H 0.4681 0.6695 0.3396
C10 C 0.4790(5) 0.6222(7) 0.0355(14)
C11 C 0.5347(7) 0.5891(6) -0.1125(16)
H7 H 0.5151 0.5680 -0.2459
C12 C 0.6214(6) 0.5863(7) -0.0665(17)
H8 H 0.6593 0.5653 -0.1714
C13 C 1.1790(6) 0.6092(6) 0.3807(17)
H9 H 1.1653 0.5501 0.3108
H10 H 1.2335 0.6040 0.4492
H11 H 1.1806 0.6594 0.2754
C14 C 1.1444(6) 0.6529(8) 0.757(2)
H12 H 1.1088 0.7009 0.8205
H13 H 1.2017 0.6761 0.7478
H14 H 1.1431 0.5965 0.8444
loop_
_geom_bond_atom_site_label_1
_geom_bond_atom_site_label_2
_geom_bond_site_symmetry_1
_geom_bond_site_symmetry_2
N1 C1 1_555 1_555
N2 N3 1_555 1_555
N3 C7 1_555 1_555
Br1 C10 1_555 1_555
C1 C2 1_555 1_555
C2 H1 1_555 1_555
C3 C2 1_555 1_555
H2 C3 1_555 1_555
C4 N2 1_555 1_555
C5 C4 1_555 1_555
H3 C5 1_555 1_555
C6 C1 1_555 1_555
H4 C6 1_555 1_555
C7 C8 1_555 1_555
C8 H5 1_555 1_555
C9 C8 1_555 1_555
H6 C9 1_555 1_555
C10 C9 1_555 1_555
C11 C10 1_555 1_555
H7 C11 1_555 1_555
C12 C7 1_555 1_555
H8 C12 1_555 1_555
C13 N1 1_555 1_555
H9 C13 1_555 1_555
H10 C13 1_555 1_555
H11 C13 1_555 1_555
C14 N1 1_555 1_555
H12 C14 1_555 1_555
H13 C14 1_555 1_555
H14 C14 1_555 1_555
C3 C4 1_555 1_555
C5 C6 1_555 1_555
C11 C12 1_555 1_555

#END
