
#######################################################################
#
#                 Cambridge Crystallographic Data Centre
#                                CCDC 
#
#######################################################################
#
# If this CIF has been generated from an entry in the Cambridge 
# Structural Database, then it will include bibliographic, chemical, 
# crystal, experimental, refinement or atomic coordinate data resulting 
# from the CCDC's data processing and validation procedures.
#
#######################################################################

data_GIWJUU
_chemical_formula_moiety         
'C20 H40 N6 O2 2+,2(C2 F3 O2 1-),2(C1 H4 O1),0.793(H2 O1)'
_chemical_name_systematic        
"2,2'-[cyclohexane-1,2-diylbis(carbamoylazanediyl)]bis(cyclohexan-1-aminium) bis(trifluoroacetate) methanol solvate hydrate"
_symmetry_cell_setting           orthorhombic
_symmetry_space_group_name_H-M   'P 21 21 2'
_symmetry_Int_Tables_number      18
_space_group_name_Hall           'P 2 2ab'
loop_
_symmetry_equiv_pos_site_id
_symmetry_equiv_pos_as_xyz
1 x,y,z
2 -x,-y,z
3 1/2-x,1/2+y,-z
4 1/2+x,1/2-y,-z
_cell_length_a                   18.5016(5)
_cell_length_b                   9.7204(2)
_cell_length_c                   9.9096(2)
_cell_angle_alpha                90
_cell_angle_beta                 90
_cell_angle_gamma                90
_cell_volume                     1782.17
_exptl_crystal_colour            colorless
_exptl_crystal_description       block
_cell_formula_units_Z            2
loop_
_atom_site_label
_atom_site_type_symbol
_atom_site_fract_x
_atom_site_fract_y
_atom_site_fract_z
C1 C 0.70009(16) 0.4135(3) 0.6793(3)
H1 H 0.662571 0.486232 0.692900
C2 C 0.76388(17) 0.4443(3) 0.7716(3)
H2 H 0.783212 0.536884 0.750619
H3 H 0.802747 0.376355 0.755218
C3 C 0.74110(18) 0.4387(3) 0.9201(3)
H4 H 0.783739 0.454707 0.978402
H5 H 0.705361 0.512154 0.938589
C4 C 0.70808(19) 0.2990(3) 0.9527(3)
H6 H 0.745432 0.226736 0.943339
H7 H 0.690966 0.298627 1.047398
C5 C 0.64534(17) 0.2674(3) 0.8593(3)
H8 H 0.605896 0.333973 0.876411
H9 H 0.626709 0.174223 0.879742
C6 C 0.66654(15) 0.2742(3) 0.7113(3)
H10 H 0.703623 0.201489 0.693867
C7 C 0.60710(15) 0.1549(3) 0.5214(3)
C8 C 0.53648(15) 0.0381(3) 0.3457(3)
H11 H 0.576174 -0.031673 0.345679
C9 C 0.54328(18) 0.1253(4) 0.2186(3)
H12 H 0.505443 0.197267 0.219189
H13 H 0.590928 0.171609 0.218223
C10 C 0.5357(2) 0.0391(5) 0.0916(3)
H14 H 0.576289 -0.027146 0.086191
H15 H 0.538050 0.099591 0.011360
N1 N 0.72428(13) 0.4174(2) 0.5355(2)
H16 H 0.751487 0.341626 0.517336
H17 H 0.751139 0.494452 0.521142
H18 H 0.684948 0.418499 0.480344
N2 N 0.60423(13) 0.2465(2) 0.6260(3)
H19 H 0.563446 0.290097 0.642117
N3 N 0.54275(13) 0.1211(2) 0.4675(3)
H20 H 0.503048 0.150084 0.507278
O1 O 0.66487(11) 0.1081(2) 0.4805(2)
C1A C 0.29991(16) -0.4135(3) 0.6793(3)
H1A H 0.337429 -0.486232 0.692900
C2A C 0.23612(17) -0.4443(3) 0.7716(3)
H2A H 0.216788 -0.536884 0.750619
H3A H 0.197253 -0.376355 0.755218
C3A C 0.25890(18) -0.4387(3) 0.9201(3)
H4A H 0.216261 -0.454707 0.978402
H5A H 0.294639 -0.512154 0.938589
C4A C 0.29192(19) -0.2990(3) 0.9527(3)
H6A H 0.254568 -0.226736 0.943339
H7A H 0.309034 -0.298627 1.047398
C5A C 0.35466(17) -0.2674(3) 0.8593(3)
H8A H 0.394104 -0.333973 0.876411
H9A H 0.373291 -0.174223 0.879742
C6A C 0.33346(15) -0.2742(3) 0.7113(3)
H10A H 0.296377 -0.201489 0.693867
C7A C 0.39290(15) -0.1549(3) 0.5214(3)
C8A C 0.46352(15) -0.0381(3) 0.3457(3)
H11A H 0.423826 0.031673 0.345679
C9A C 0.45672(18) -0.1253(4) 0.2186(3)
H12A H 0.494557 -0.197267 0.219189
H13A H 0.409072 -0.171609 0.218223
C10A C 0.4643(2) -0.0391(5) 0.0916(3)
H14A H 0.423711 0.027146 0.086191
H15A H 0.461950 -0.099591 0.011360
N1A N 0.27572(13) -0.4174(2) 0.5355(2)
H16A H 0.248513 -0.341626 0.517336
H17A H 0.248861 -0.494452 0.521142
H18A H 0.315052 -0.418499 0.480344
N2A N 0.39577(13) -0.2465(2) 0.6260(3)
H19A H 0.436554 -0.290097 0.642117
N3A N 0.45725(13) -0.1211(2) 0.4675(3)
H20A H 0.496952 -0.150084 0.507278
O1A O 0.33513(11) -0.1081(2) 0.4805(2)
C11 C 0.3647(2) 0.1709(3) 0.7426(3)
C12 C 0.38214(17) 0.2585(3) 0.6178(3)
F1 F 0.30154(16) 0.1059(3) 0.7358(2)
F2 F 0.41334(16) 0.0734(2) 0.7633(3)
F3 F 0.36298(12) 0.2484(2) 0.8543(2)
O2 O 0.33328(13) 0.2751(2) 0.5346(3)
O3 O 0.44444(13) 0.3059(3) 0.6185(3)
O4 O 0.62384(17) 0.4322(3) 0.3260(3)
H21 H 0.585503 0.453264 0.366465
C13 C 0.6344(3) 0.5435(5) 0.2374(5)
H22 H 0.632693 0.629875 0.288256
H23 H 0.596309 0.543485 0.168738
H24 H 0.681655 0.534546 0.193494
O6 O 0.500000 0.500000 0.4565(5)
H29 H 0.476(2) 0.439(4) 0.502(4)
H29A H 0.524(2) 0.561(4) 0.502(4)
O4A O 0.37616(17) 0.5678(3) 0.3260(3)
H21A H 0.414497 0.546736 0.366465
C13A C 0.3656(3) 0.4565(5) 0.2374(5)
H22A H 0.367307 0.370125 0.288256
H23A H 0.403691 0.456515 0.168738
H24A H 0.318345 0.465454 0.193494
O5? O 0.5883(6) 0.4789(12) 0.3853(11)
H25? H 0.552720 0.490702 0.436731
C14? C 0.5986(12) 0.549(2) 0.2656(19)
H26? H 0.562640 0.526496 0.196428
H27? H 0.646955 0.525005 0.232443
H28? H 0.596677 0.647537 0.285562
loop_
_geom_bond_atom_site_label_1
_geom_bond_atom_site_label_2
_geom_bond_site_symmetry_1
_geom_bond_site_symmetry_2
C1 H1 1_555 1_555
C2 C1 1_555 1_555
H2 C2 1_555 1_555
H3 C2 1_555 1_555
C3 C2 1_555 1_555
H4 C3 1_555 1_555
H5 C3 1_555 1_555
C4 C3 1_555 1_555
H6 C4 1_555 1_555
H7 C4 1_555 1_555
C5 C4 1_555 1_555
H8 C5 1_555 1_555
H9 C5 1_555 1_555
C6 C1 1_555 1_555
H10 C6 1_555 1_555
C7 N2 1_555 1_555
C8 H11 1_555 1_555
C9 C8 1_555 1_555
H12 C9 1_555 1_555
H13 C9 1_555 1_555
C10 C9 1_555 1_555
H14 C10 1_555 1_555
H15 C10 1_555 1_555
N1 C1 1_555 1_555
H16 N1 1_555 1_555
H17 N1 1_555 1_555
H18 N1 1_555 1_555
N2 C6 1_555 1_555
H19 N2 1_555 1_555
N3 C7 1_555 1_555
H20 N3 1_555 1_555
O1 C7 1_555 1_555
C11 C12 1_555 1_555
C12 O2 1_555 1_555
F1 C11 1_555 1_555
F2 C11 1_555 1_555
F3 C11 1_555 1_555
O3 C12 1_555 1_555
O4 H21 1_555 1_555
C13 O4 1_555 1_555
H22 C13 1_555 1_555
H23 C13 1_555 1_555
H24 C13 1_555 1_555
O6 H29 1_555 1_555
C1A H1A 1_555 1_555
C2A C1A 1_555 1_555
H2A C2A 1_555 1_555
H3A C2A 1_555 1_555
C3A C2A 1_555 1_555
H4A C3A 1_555 1_555
H5A C3A 1_555 1_555
C4A C3A 1_555 1_555
H6A C4A 1_555 1_555
H7A C4A 1_555 1_555
C5A C4A 1_555 1_555
H8A C5A 1_555 1_555
H9A C5A 1_555 1_555
C6A C1A 1_555 1_555
H10A C6A 1_555 1_555
C7A N2A 1_555 1_555
C8A C8 1_555 1_555
H11A C8A 1_555 1_555
C9A C8A 1_555 1_555
H12A C9A 1_555 1_555
H13A C9A 1_555 1_555
C10A C10 1_555 1_555
H14A C10A 1_555 1_555
H15A C10A 1_555 1_555
N1A C1A 1_555 1_555
H16A N1A 1_555 1_555
H17A N1A 1_555 1_555
H18A N1A 1_555 1_555
N2A C6A 1_555 1_555
H19A N2A 1_555 1_555
N3A C7A 1_555 1_555
H20A N3A 1_555 1_555
O1A C7A 1_555 1_555
H29A O6 1_555 1_555
O4A H21A 1_555 1_555
C13A O4A 1_555 1_555
H22A C13A 1_555 1_555
H23A C13A 1_555 1_555
H24A C13A 1_555 1_555
C5 C6 1_555 1_555
C8 N3 1_555 1_555
C5A C6A 1_555 1_555
C8A N3A 1_555 1_555
C9A C10A 1_555 1_555

#END
