
#######################################################################
#
#                 Cambridge Crystallographic Data Centre
#                                CCDC 
#
#######################################################################
#
# If this CIF has been generated from an entry in the Cambridge 
# Structural Database, then it will include bibliographic, chemical, 
# crystal, experimental, refinement or atomic coordinate data resulting 
# from the CCDC's data processing and validation procedures.
#
#######################################################################

data_GIWJII
_chemical_formula_moiety         'C38 H56 N6 O6'
_chemical_name_systematic        
'di-t-butyl [(1,2-diphenylethane-1,2-diyl)bis(carbamoylazanediylcyclohexane-2,1-diyl)]biscarbamate'
_symmetry_cell_setting           orthorhombic
_symmetry_space_group_name_H-M   'P 21 21 21'
_symmetry_Int_Tables_number      19
_space_group_name_Hall           'P 2ac 2ab'
loop_
_symmetry_equiv_pos_site_id
_symmetry_equiv_pos_as_xyz
1 x,y,z
2 1/2-x,-y,1/2+z
3 -x,1/2+y,1/2-z
4 1/2+x,1/2-y,-z
_cell_length_a                   5.1332(3)
_cell_length_b                   21.8171(14)
_cell_length_c                   33.141(2)
_cell_angle_alpha                90
_cell_angle_beta                 90
_cell_angle_gamma                90
_cell_volume                     3711.51
_exptl_crystal_colour            colorless
_exptl_crystal_description       needle
_cell_formula_units_Z            4
loop_
_atom_site_label
_atom_site_type_symbol
_atom_site_fract_x
_atom_site_fract_y
_atom_site_fract_z
C1 C 0.7574(10) 1.0510(2) 0.76313(14)
H1 H 0.943277 1.064332 0.760935
C2 C 0.6468(10) 1.0462(2) 0.72075(14)
H2 H 0.461124 1.032876 0.723270
C3 C 0.6469(11) 1.1095(2) 0.70051(15)
H3 H 0.829306 1.123216 0.696976
H4 H 0.567832 1.105827 0.673375
C4 C 0.4997(11) 1.1576(2) 0.72426(14)
H5 H 0.312453 1.146907 0.725270
H6 H 0.517168 1.197970 0.710858
C5 C 0.6102(11) 1.1612(2) 0.76735(14)
H7 H 0.790515 1.177188 0.766286
H8 H 0.504208 1.190185 0.783424
C6 C 0.6108(10) 1.0989(2) 0.78806(14)
H9 H 0.428934 1.085142 0.792164
H10 H 0.693887 1.102731 0.814901
N1 N 0.7800(9) 1.0010(2) 0.69698(13)
H11 H 0.945(5) 1.001(2) 0.6963(15)
C7 C 0.6480(13) 0.9628(3) 0.67064(16)
N2 N 0.8085(9) 0.9290(2) 0.64642(13)
H12 H 0.964(6) 0.939(2) 0.6520(15)
C8 C 0.7118(11) 0.8927(2) 0.61325(14)
H13 H 0.521653 0.901657 0.610358
C9 C 0.848(1) 0.9139(2) 0.57390(14)
H14 H 1.037613 0.904170 0.576603
N3 N 0.8245(8) 0.9794(2) 0.56905(14)
H15 H 0.667(5) 0.990(2) 0.5715(15)
C10 C 1.0324(11) 1.0177(2) 0.57410(15)
N4 N 0.9761(8) 1.0787(2) 0.57280(12)
H16 H 0.846(7) 1.084(2) 0.5581(12)
C11 C 1.1792(10) 1.1246(2) 0.57285(15)
H17 H 1.350090 1.103739 0.577516
C12 C 1.1933(10) 1.1597(2) 0.53259(14)
H18 H 1.023944 1.181553 0.528734
C13 C 1.4072(10) 1.2072(2) 0.53351(14)
H19 H 1.411260 1.229134 0.507361
H20 H 1.577177 1.186476 0.537107
C14 C 1.3676(11) 1.2538(2) 0.56775(15)
H21 H 1.517324 1.282366 0.568772
H22 H 1.207719 1.277998 0.562769
C15 C 1.3441(11) 1.2199(2) 0.60755(16)
H23 H 1.304297 1.249723 0.629203
H24 H 1.513434 1.200499 0.614001
C16 C 1.1341(10) 1.1710(2) 0.60690(15)
H25 H 0.961989 1.190661 0.603221
H26 H 1.132473 1.149226 0.633115
N5 N 1.2303(9) 1.1188(2) 0.49844(13)
H27 H 1.380(6) 1.106(2) 0.4949(14)
C17 C 1.0299(11) 1.0953(2) 0.47650(16)
O1 O 0.8033(7) 1.10511(15) 0.48466(10)
O2 O 1.1217(7) 1.06240(15) 0.44506(10)
C18 C 0.9409(11) 1.0313(2) 0.41766(15)
C19 C 0.7794(11) 0.9849(2) 0.44075(15)
H28 H 0.654717 1.006396 0.458091
H29 H 0.894316 0.959476 0.457418
H30 H 0.684825 0.958777 0.421659
C20 C 1.1239(11) 0.9995(2) 0.38814(15)
H31 H 1.242064 0.972393 0.403013
H32 H 1.225562 1.030322 0.373501
H33 H 1.021709 0.975264 0.368906
C21 C 0.7708(10) 1.0788(2) 0.39601(14)
H34 H 0.882148 1.110257 0.383862
H35 H 0.652399 1.097949 0.415481
H36 H 0.669011 1.058504 0.374850
N6 N 0.7522(9) 0.9909(2) 0.78326(13)
H37 H 0.600(6) 0.977(2) 0.7813(15)
C22 C 0.9665(11) 0.9543(2) 0.78108(15)
C23 C 1.0839(10) 0.8455(2) 0.78374(15)
C24 C 1.2486(10) 0.8495(2) 0.74488(14)
H38 H 1.374615 0.882993 0.747367
H39 H 1.134052 0.857205 0.721770
H40 H 1.341589 0.810736 0.740814
C25 C 0.9161(11) 0.7882(2) 0.78372(16)
H41 H 0.821268 0.785426 0.758126
H42 H 0.791540 0.790212 0.806091
H43 H 1.027245 0.752019 0.786940
C26 C 1.250(1) 0.8478(2) 0.82168(14)
H44 H 1.136820 0.847838 0.845493
H45 H 1.355858 0.885199 0.821496
H46 H 1.364528 0.811892 0.822517
O3 O 0.8905(7) 0.89451(15) 0.78573(9)
O4 O 1.1861(7) 0.97229(15) 0.77734(10)
C27 C 0.7405(10) 0.8235(2) 0.62175(14)
C28 C 0.9456(12) 0.8006(3) 0.64355(16)
H47 H 1.074217 0.828185 0.653343
C29 C 0.9714(12) 0.7392(2) 0.65170(16)
H48 H 1.111863 0.725109 0.667907
C30 C 0.7988(11) 0.6991(2) 0.63682(15)
H49 H 0.819018 0.656535 0.642018
C31 C 0.5874(11) 0.7199(2) 0.61349(15)
H50 H 0.464820 0.691551 0.602848
C32 C 0.560(1) 0.7816(2) 0.60625(14)
H51 H 0.417319 0.795960 0.590604
C33 C 0.7478(10) 0.8804(2) 0.53687(14)
C34 C 0.889(1) 0.8316(2) 0.52120(14)
H52 H 1.040045 0.818167 0.535200
C35 C 0.8182(10) 0.8016(2) 0.48588(14)
H53 H 0.919599 0.768464 0.475858
C36 C 0.5966(11) 0.8209(2) 0.46551(16)
H54 H 0.545222 0.801558 0.441077
C37 C 0.4518(11) 0.8685(2) 0.48131(15)
H55 H 0.296228 0.880940 0.468104
C38 C 0.5290(9) 0.8982(2) 0.51569(14)
H56 H 0.429250 0.931858 0.525235
O5 O 1.2559(7) 0.99851(15) 0.57928(10)
O6 O 0.4065(8) 0.95996(16) 0.66957(10)
loop_
_geom_bond_atom_site_label_1
_geom_bond_atom_site_label_2
_geom_bond_site_symmetry_1
_geom_bond_site_symmetry_2
C1 H1 1_555 1_555
C2 C1 1_555 1_555
H2 C2 1_555 1_555
C3 C2 1_555 1_555
H3 C3 1_555 1_555
H4 C3 1_555 1_555
C4 C3 1_555 1_555
H5 C4 1_555 1_555
H6 C4 1_555 1_555
C5 C4 1_555 1_555
H7 C5 1_555 1_555
H8 C5 1_555 1_555
C6 C1 1_555 1_555
H9 C6 1_555 1_555
H10 C6 1_555 1_555
N1 C2 1_555 1_555
H11 N1 1_555 1_555
C7 N1 1_555 1_555
N2 C7 1_555 1_555
H12 N2 1_555 1_555
C8 N2 1_555 1_555
H13 C8 1_555 1_555
C9 C8 1_555 1_555
H14 C9 1_555 1_555
N3 C9 1_555 1_555
H15 N3 1_555 1_555
C10 N3 1_555 1_555
N4 C10 1_555 1_555
H16 N4 1_555 1_555
C11 N4 1_555 1_555
H17 C11 1_555 1_555
C12 C11 1_555 1_555
H18 C12 1_555 1_555
C13 C12 1_555 1_555
H19 C13 1_555 1_555
H20 C13 1_555 1_555
C14 C13 1_555 1_555
H21 C14 1_555 1_555
H22 C14 1_555 1_555
C15 C14 1_555 1_555
H23 C15 1_555 1_555
H24 C15 1_555 1_555
C16 C11 1_555 1_555
H25 C16 1_555 1_555
H26 C16 1_555 1_555
N5 C12 1_555 1_555
H27 N5 1_555 1_555
C17 N5 1_555 1_555
O1 C17 1_555 1_555
O2 C17 1_555 1_555
C18 O2 1_555 1_555
C19 C18 1_555 1_555
H28 C19 1_555 1_555
H29 C19 1_555 1_555
H30 C19 1_555 1_555
C20 C18 1_555 1_555
H31 C20 1_555 1_555
H32 C20 1_555 1_555
H33 C20 1_555 1_555
C21 C18 1_555 1_555
H34 C21 1_555 1_555
H35 C21 1_555 1_555
H36 C21 1_555 1_555
N6 C1 1_555 1_555
H37 N6 1_555 1_555
C22 N6 1_555 1_555
C23 C24 1_555 1_555
C24 H38 1_555 1_555
H39 C24 1_555 1_555
H40 C24 1_555 1_555
C25 C23 1_555 1_555
H41 C25 1_555 1_555
H42 C25 1_555 1_555
H43 C25 1_555 1_555
C26 C23 1_555 1_555
H44 C26 1_555 1_555
H45 C26 1_555 1_555
H46 C26 1_555 1_555
O3 C22 1_555 1_555
O4 C22 1_555 1_555
C27 C8 1_555 1_555
C28 C27 1_555 1_555
H47 C28 1_555 1_555
C29 C28 1_555 1_555
H48 C29 1_555 1_555
C30 C29 1_555 1_555
H49 C30 1_555 1_555
C31 C30 1_555 1_555
H50 C31 1_555 1_555
C32 C27 1_555 1_555
H51 C32 1_555 1_555
C33 C9 1_555 1_555
C34 C33 1_555 1_555
H52 C34 1_555 1_555
C35 C34 1_555 1_555
H53 C35 1_555 1_555
C36 C35 1_555 1_555
H54 C36 1_555 1_555
C37 C36 1_555 1_555
H55 C37 1_555 1_555
C38 C33 1_555 1_555
H56 C38 1_555 1_555
O5 C10 1_555 1_555
O6 C7 1_555 1_555
C5 C6 1_555 1_555
C15 C16 1_555 1_555
C23 O3 1_555 1_555
C31 C32 1_555 1_555
C37 C38 1_555 1_555

#END
