
#######################################################################
#
#                 Cambridge Crystallographic Data Centre
#                                CCDC 
#
#######################################################################
#
# If this CIF has been generated from an entry in the Cambridge 
# Structural Database, then it will include bibliographic, chemical, 
# crystal, experimental, refinement or atomic coordinate data resulting 
# from the CCDC's data processing and validation procedures.
#
#######################################################################

data_GIWKOP
_chemical_formula_moiety         'C30 H54 N6 O6,0.667(H2 O1)'
_chemical_name_systematic        
'di-t-butyl [cyclohexane-1,2-diylbis(carbamoylazanediylcyclohexane-2,1-diyl)]biscarbamate hydrate'
_symmetry_cell_setting           monoclinic
_symmetry_space_group_name_H-M   'P 21'
_symmetry_Int_Tables_number      4
_space_group_name_Hall           'P 2yb'
loop_
_symmetry_equiv_pos_site_id
_symmetry_equiv_pos_as_xyz
1 x,y,z
2 -x,1/2+y,-z
_cell_length_a                   14.9839(5)
_cell_length_b                   21.4941(8)
_cell_length_c                   16.6980(7)
_cell_angle_alpha                90
_cell_angle_beta                 107.014(2)
_cell_angle_gamma                90
_cell_volume                     5142.48
_exptl_crystal_colour            colorless
_exptl_crystal_description       block
_cell_formula_units_Z            6
loop_
_atom_site_label
_atom_site_type_symbol
_atom_site_fract_x
_atom_site_fract_y
_atom_site_fract_z
O1 O 0.0856(2) -0.13763(13) 0.3875(2)
O2 O 0.19698(18) -0.06426(12) 0.39441(18)
C1 C 0.1175(3) -0.07848(17) 0.3903(3)
N1 N 0.0475(2) -0.03787(14) 0.3854(2)
H1 H -0.009693 -0.051941 0.377004
C2 C 0.0648(3) 0.02906(16) 0.3939(3)
H2 H 0.129522 0.036900 0.390828
C3 C -0.0029(3) 0.06483(18) 0.3227(3)
H3 H 0.002970 0.049849 0.268360
H4 H -0.067699 0.056949 0.323604
C4 C 0.0168(3) 0.13446(19) 0.3307(3)
H5 H -0.029394 0.156818 0.285171
H6 H 0.079706 0.142786 0.325037
C5 C 0.0117(4) 0.15817(19) 0.4153(3)
H7 H -0.053120 0.154044 0.418086
H8 H 0.028466 0.202843 0.420794
C6 C 0.0773(3) 0.12222(19) 0.4876(3)
H9 H 0.142632 0.130571 0.488873
H10 H 0.068937 0.137093 0.541089
C7 C 0.0594(3) 0.05239(18) 0.4799(3)
H11 H -0.005319 0.044594 0.483038
N2 N 0.1243(2) 0.01744(17) 0.5474(2)
H12 H 0.184688 0.020478 0.554610
O3 O 0.0118(2) -0.01824(14) 0.6023(2)
C8 C 0.0927(3) -0.01951(19) 0.5988(2)
N3 N 0.1585(3) -0.05803(18) 0.6486(2)
H13 H 0.216842 -0.054419 0.648282
C9 C 0.1352(3) -0.1044(2) 0.7017(3)
H14 H 0.066197 -0.102784 0.692162
C10 C 0.1594(3) -0.1697(2) 0.6763(3)
H15 H 0.124136 -0.177351 0.616966
H16 H 0.226733 -0.171416 0.681028
C11 C 0.1364(4) -0.2206(2) 0.7304(3)
H17 H 0.156433 -0.261436 0.714186
H18 H 0.068138 -0.222138 0.721340
C12 C 0.1860(4) -0.2081(2) 0.8227(3)
H19 H 0.167822 -0.240298 0.857320
H20 H 0.254292 -0.210868 0.832506
C13 C 0.1618(3) -0.1446(2) 0.8491(3)
H21 H 0.198090 -0.137257 0.908242
H22 H 0.094754 -0.143695 0.845741
C14 C 0.1822(3) -0.09220(19) 0.7949(3)
H23 H 0.251141 -0.091283 0.803812
N4 N 0.1556(2) -0.03277(16) 0.8215(2)
H24 H 0.099432 -0.028519 0.827420
C15 C 0.2155(3) 0.01746(19) 0.8379(3)
O4 O 0.2947(2) 0.01384(13) 0.8315(2)
N5 N 0.1787(2) 0.07019(15) 0.8601(2)
H25 H 0.118142 0.072727 0.852557
C16 C 0.2388(3) 0.12263(17) 0.8962(3)
H26 H 0.304350 0.110612 0.899750
C17 C 0.2146(3) 0.18079(19) 0.8410(3)
H27 H 0.220371 0.171444 0.784678
H28 H 0.149246 0.193072 0.834665
C18 C 0.2800(3) 0.2345(2) 0.8800(4)
H29 H 0.344554 0.223620 0.881184
H30 H 0.261385 0.272133 0.844937
C19 C 0.2772(3) 0.24840(18) 0.9688(3)
H31 H 0.214282 0.263671 0.967049
H32 H 0.322786 0.281584 0.993410
C20 C 0.3000(3) 0.19035(17) 1.0240(3)
H33 H 0.365676 0.178084 1.031552
H34 H 0.293149 0.199873 1.079941
C21 C 0.2355(3) 0.13644(16) 0.9849(3)
H35 H 0.170247 0.148845 0.981605
N6 N 0.2584(2) 0.08093(14) 1.0368(2)
H36 H 0.317153 0.069336 1.056245
O5 O 0.11260(17) 0.06549(12) 1.04749(19)
C22 C 0.1921(3) 0.04693(17) 1.0559(3)
O6 O 0.22441(18) -0.00949(12) 1.08576(19)
C23 C 0.1611(3) -0.05576(16) 1.1055(3)
C24 C 0.0775(3) -0.06739(18) 1.0292(3)
H37 H 0.034245 -0.032199 1.021553
H38 H 0.045641 -0.105563 1.037641
H39 H 0.098878 -0.071891 0.979371
C25 C 0.2218(3) -0.11381(18) 1.1249(3)
H40 H 0.237745 -0.126916 1.074615
H41 H 0.187537 -0.147255 1.142942
H42 H 0.279089 -0.104660 1.169768
C26 C 0.1340(3) -0.03490(18) 1.1817(2)
H43 H 0.190410 -0.028254 1.228601
H44 H 0.095326 -0.066964 1.196885
H45 H 0.098631 0.004047 1.169084
C27 C 0.1498(3) -0.19005(18) 0.3882(3)
C28 C 0.1810(3) -0.1883(2) 0.3100(3)
H46 H 0.126798 -0.181043 0.261128
H47 H 0.210091 -0.228018 0.303512
H48 H 0.226191 -0.154531 0.314552
C29 C 0.0876(4) -0.2464(2) 0.3851(6)
H49 H 0.068536 -0.248138 0.436358
H50 H 0.122067 -0.284297 0.380350
H51 H 0.032125 -0.243066 0.336429
C30 C 0.2313(4) -0.1894(2) 0.4685(3)
H52 H 0.270601 -0.152996 0.468468
H53 H 0.268389 -0.227386 0.471417
H54 H 0.207230 -0.187552 0.517020
O7 O 0.4168(2) -0.12944(13) 0.3729(2)
O8 O 0.52464(18) -0.05264(13) 0.38490(18)
C31 C 0.4452(3) -0.06947(18) 0.3772(3)
N7 N 0.3718(2) -0.03124(14) 0.3684(2)
H55 H 0.314819 -0.046467 0.354554
C32 C 0.3869(3) 0.03542(16) 0.3818(3)
H56 H 0.451604 0.045090 0.379971
C33 C 0.3180(3) 0.07309(17) 0.3117(3)
H57 H 0.324502 0.060461 0.256698
H58 H 0.253258 0.063937 0.311827
C34 C 0.3364(3) 0.14257(18) 0.3243(3)
H59 H 0.399046 0.152251 0.318949
H60 H 0.289723 0.165825 0.280175
C35 C 0.3313(3) 0.16322(18) 0.4098(3)
H61 H 0.266518 0.158359 0.412406
H62 H 0.347952 0.207841 0.417828
C36 C 0.3969(3) 0.12560(18) 0.4803(3)
H63 H 0.388171 0.138321 0.534472
H64 H 0.462349 0.134701 0.482370
C37 C 0.3792(3) 0.05564(17) 0.4679(3)
H65 H 0.314103 0.046992 0.469430
N8 N 0.4426(2) 0.01879(16) 0.5326(2)
H66 H 0.502653 0.020250 0.537444
O9 O 0.33444(19) -0.01311(13) 0.59631(18)
C38 C 0.4129(3) -0.01816(18) 0.5863(2)
N9 N 0.4768(2) -0.06156(17) 0.6264(2)
H67 H 0.526245 -0.067781 0.609125
C39 C 0.4666(3) -0.09755(18) 0.6957(2)
H68 H 0.401084 -0.092749 0.698111
C40 C 0.4838(3) -0.1669(2) 0.6823(3)
H69 H 0.438047 -0.181212 0.629829
H70 H 0.546996 -0.171969 0.675845
C41 C 0.4754(4) -0.2075(2) 0.7547(3)
H71 H 0.490416 -0.251200 0.744821
H72 H 0.410392 -0.206228 0.757726
C42 C 0.5419(4) -0.1846(2) 0.8374(3)
H73 H 0.533310 -0.209942 0.884108
H74 H 0.607193 -0.189772 0.836290
C43 C 0.5238(3) -0.1167(2) 0.8518(3)
H75 H 0.568935 -0.102491 0.904621
H76 H 0.460237 -0.112215 0.857581
C44 C 0.5328(3) -0.07574(18) 0.7795(3)
H77 H 0.598183 -0.079645 0.776255
N10 N 0.5150(3) -0.01055(18) 0.7905(3)
H78 H 0.457713 0.003369 0.769137
O10 O 0.6639(2) 0.01604(13) 0.8610(2)
C45 C 0.5815(3) 0.03014(19) 0.8317(3)
N11 N 0.5518(3) 0.09017(18) 0.8319(3)
H79 H 0.501379 0.102203 0.792832
C46 C 0.6011(3) 0.13479(18) 0.8946(3)
H80 H 0.669085 0.124252 0.911354
C47 C 0.5886(4) 0.1996(2) 0.8550(3)
H81 H 0.614877 0.200081 0.807124
H82 H 0.521166 0.209241 0.833433
C48 C 0.6359(3) 0.24875(18) 0.9170(3)
H83 H 0.624004 0.290089 0.889795
H84 H 0.704152 0.241492 0.934294
C49 C 0.6013(4) 0.24864(18) 0.9946(3)
H85 H 0.635682 0.280363 1.034876
H86 H 0.534122 0.259250 0.978322
C50 C 0.6165(3) 0.18498(19) 1.0352(3)
H87 H 0.591557 0.184695 1.083981
H88 H 0.684211 0.176199 1.055773
C51 C 0.5684(3) 0.13428(18) 0.9738(3)
H89 H 0.499736 0.142480 0.956587
N12 N 0.5843(2) 0.07290(16) 1.0102(3)
H90 H 0.638916 0.055269 1.016479
O11 O 0.44299(18) 0.06235(13) 1.0327(2)
C52 C 0.5195(3) 0.04138(18) 1.0351(3)
O12 O 0.55078(19) -0.01540(12) 1.0634(2)
C53 C 0.4905(3) -0.05969(17) 1.0904(3)
C54 C 0.4028(3) -0.07230(18) 1.0180(3)
H91 H 0.360077 -0.036898 1.011414
H92 H 0.372069 -0.109970 1.029801
H93 H 0.420131 -0.078121 0.966239
C55 C 0.5504(3) -0.11804(18) 1.1085(3)
H94 H 0.563900 -0.131614 1.057175
H95 H 0.516942 -0.151089 1.128112
H96 H 0.609089 -0.109016 1.151717
C56 C 0.4692(3) -0.03619(19) 1.1684(3)
H97 H 0.527790 -0.028569 1.212435
H98 H 0.432523 -0.067433 1.187692
H99 H 0.433558 0.002622 1.155520
C57 C 0.4867(3) -0.17960(19) 0.3860(3)
C58 C 0.5315(3) -0.1789(2) 0.3146(3)
H100 H 0.482491 -0.177604 0.260828
H101 H 0.569222 -0.216476 0.317409
H102 H 0.571348 -0.142050 0.319898
C59 C 0.4279(4) -0.2376(2) 0.3787(4)
H103 H 0.402162 -0.239850 0.426231
H104 H 0.466742 -0.274372 0.378846
H105 H 0.376805 -0.236352 0.326344
C60 C 0.5571(3) -0.1743(2) 0.4718(3)
H106 H 0.596512 -0.137656 0.473351
H107 H 0.596204 -0.211712 0.483162
H108 H 0.524214 -0.170119 0.514288
O13 O 0.7694(2) -0.12270(13) 0.4308(2)
O14 O 0.86231(18) -0.04782(13) 0.40151(19)
C61 C 0.7899(3) -0.06369(19) 0.4140(3)
N13 N 0.7189(2) -0.02597(16) 0.4153(3)
H109 H 0.666661 -0.042402 0.419554
C62 C 0.7258(3) 0.04089(17) 0.4098(3)
H110 H 0.792917 0.051861 0.418911
C63 C 0.6689(3) 0.06648(18) 0.3234(3)
H111 H 0.691406 0.047189 0.279059
H112 H 0.602336 0.055421 0.312753
C64 C 0.6787(3) 0.13705(19) 0.3203(3)
H113 H 0.744516 0.147980 0.326354
H114 H 0.639880 0.152791 0.265474
C65 C 0.6482(4) 0.16739(19) 0.3899(3)
H115 H 0.580372 0.160691 0.379230
H116 H 0.659011 0.212789 0.388847
C66 C 0.6991(4) 0.1426(2) 0.4760(3)
H117 H 0.671724 0.161150 0.517693
H118 H 0.765458 0.155210 0.490690
C67 C 0.6932(3) 0.07135(19) 0.4802(3)
H119 H 0.626282 0.059921 0.471012
N14 N 0.7448(3) 0.05133(18) 0.5630(3)
H120 H 0.792025 0.074136 0.591946
O15 O 0.6447(2) -0.02288(14) 0.57927(19)
C68 C 0.7232(3) -0.00195(18) 0.5985(3)
N15 N 0.7944(2) -0.02584(18) 0.6611(2)
H121 H 0.848278 -0.006219 0.674993
C69 C 0.7859(3) -0.08182(17) 0.7058(2)
H122 H 0.721015 -0.083316 0.710756
C70 C 0.8016(3) -0.1408(2) 0.6620(3)
H123 H 0.864888 -0.139693 0.654905
H124 H 0.755936 -0.142385 0.605523
C71 C 0.7917(3) -0.1995(2) 0.7102(3)
H125 H 0.726623 -0.203181 0.712599
H126 H 0.805946 -0.236546 0.681034
C72 C 0.8582(3) -0.19658(18) 0.7988(3)
H127 H 0.847739 -0.233233 0.830825
H128 H 0.923312 -0.198216 0.796265
C73 C 0.8443(3) -0.13749(18) 0.8439(3)
H129 H 0.891160 -0.136062 0.899751
H130 H 0.781576 -0.138263 0.852404
C74 C 0.8536(3) -0.07892(16) 0.7945(2)
H131 H 0.918604 -0.077352 0.789989
N16 N 0.8387(2) -0.02420(15) 0.8391(2)
H132 H 0.790671 -0.023565 0.859282
O16 O 0.97232(19) 0.02658(12) 0.83651(19)
C75 C 0.8955(3) 0.02638(16) 0.8512(2)
N17 N 0.8616(2) 0.07690(14) 0.8824(2)
H133 H 0.801894 0.078109 0.879030
C76 C 0.9209(3) 0.12874(16) 0.9211(3)
H134 H 0.987109 0.116813 0.927232
C77 C 0.8996(3) 0.18790(17) 0.8689(3)
H135 H 0.833799 0.199975 0.860607
H136 H 0.908010 0.179979 0.813109
C78 C 0.9640(3) 0.24145(17) 0.9117(3)
H137 H 1.029463 0.230920 0.915831
H138 H 0.947094 0.279721 0.877658
C79 C 0.9549(3) 0.25310(17) 0.9994(3)
H139 H 0.999182 0.286122 1.027311
H140 H 0.890939 0.267625 0.994861
C80 C 0.9753(3) 0.19395(17) 1.0519(3)
H141 H 0.966194 0.202092 1.107305
H142 H 1.041223 0.181773 1.060890
C81 C 0.9117(3) 0.14064(16) 1.0092(3)
H143 H 0.845760 0.153079 1.003127
N18 N 0.9320(2) 0.08480(14) 1.0606(2)
H144 H 0.990438 0.074874 1.085742
O17 O 0.78107(17) 0.06334(12) 1.05145(18)
C82 C 0.8631(3) 0.04783(17) 1.0705(2)
O18 O 0.89773(18) -0.00662(12) 1.10633(18)
C83 C 0.8345(3) -0.05544(17) 1.1195(3)
C84 C 0.7667(3) -0.07488(19) 1.0368(3)
H145 H 0.723057 -0.040775 1.014603
H146 H 0.731903 -0.111652 1.045280
H147 H 0.801325 -0.084785 0.996869
C85 C 0.9013(3) -0.10807(19) 1.1575(3)
H148 H 0.936590 -0.119844 1.118873
H149 H 0.865757 -0.144020 1.167525
H150 H 0.944597 -0.094259 1.210717
C86 C 0.7868(3) -0.03298(18) 1.1829(3)
H151 H 0.833401 -0.015165 1.231424
H152 H 0.755734 -0.068106 1.201039
H153 H 0.740374 -0.001192 1.157099
C87 C 0.8329(3) -0.17445(19) 0.4259(3)
C88 C 0.8413(3) -0.1796(2) 0.3378(3)
H154 H 0.778863 -0.180264 0.297513
H155 H 0.874391 -0.218030 0.332743
H156 H 0.876148 -0.143776 0.326331
C89 C 0.7833(4) -0.2307(2) 0.4475(4)
H157 H 0.773693 -0.224588 0.502533
H158 H 0.821499 -0.267918 0.448817
H159 H 0.722808 -0.235913 0.405111
C90 C 0.9269(3) -0.1658(2) 0.4928(3)
H160 H 0.957580 -0.128324 0.480243
H161 H 0.966508 -0.202094 0.493041
H162 H 0.916647 -0.161396 0.547849
O19 O 0.3530(2) 0.08796(18) 0.7241(2)
H163 H 0.297669 0.090243 0.691394
H164 H 0.334881 0.064851 0.757625
O20 O 0.9415(2) 0.08144(17) 0.6644(2)
H165 H 0.961452 0.086882 0.724334
H166 H 0.982651 0.057782 0.643035
loop_
_geom_bond_atom_site_label_1
_geom_bond_atom_site_label_2
_geom_bond_site_symmetry_1
_geom_bond_site_symmetry_2
O1 C1 1_555 1_555
O2 C1 1_555 1_555
C1 N1 1_555 1_555
N1 H1 1_555 1_555
C2 N1 1_555 1_555
H2 C2 1_555 1_555
C3 C2 1_555 1_555
H3 C3 1_555 1_555
H4 C3 1_555 1_555
C4 C3 1_555 1_555
H5 C4 1_555 1_555
H6 C4 1_555 1_555
C5 C4 1_555 1_555
H7 C5 1_555 1_555
H8 C5 1_555 1_555
C6 C5 1_555 1_555
H9 C6 1_555 1_555
H10 C6 1_555 1_555
C7 C2 1_555 1_555
H11 C7 1_555 1_555
N2 C7 1_555 1_555
H12 N2 1_555 1_555
O3 C8 1_555 1_555
C8 N2 1_555 1_555
N3 C8 1_555 1_555
H13 N3 1_555 1_555
C9 N3 1_555 1_555
H14 C9 1_555 1_555
C10 C9 1_555 1_555
H15 C10 1_555 1_555
H16 C10 1_555 1_555
C11 C10 1_555 1_555
H17 C11 1_555 1_555
H18 C11 1_555 1_555
C12 C11 1_555 1_555
H19 C12 1_555 1_555
H20 C12 1_555 1_555
C13 C12 1_555 1_555
H21 C13 1_555 1_555
H22 C13 1_555 1_555
C14 C9 1_555 1_555
H23 C14 1_555 1_555
N4 C14 1_555 1_555
H24 N4 1_555 1_555
C15 N4 1_555 1_555
O4 C15 1_555 1_555
N5 C15 1_555 1_555
H25 N5 1_555 1_555
C16 N5 1_555 1_555
H26 C16 1_555 1_555
C17 C16 1_555 1_555
H27 C17 1_555 1_555
H28 C17 1_555 1_555
C18 C17 1_555 1_555
H29 C18 1_555 1_555
H30 C18 1_555 1_555
C19 C18 1_555 1_555
H31 C19 1_555 1_555
H32 C19 1_555 1_555
C20 C19 1_555 1_555
H33 C20 1_555 1_555
H34 C20 1_555 1_555
C21 C16 1_555 1_555
H35 C21 1_555 1_555
N6 C21 1_555 1_555
H36 N6 1_555 1_555
O5 C22 1_555 1_555
C22 N6 1_555 1_555
O6 C22 1_555 1_555
C23 O6 1_555 1_555
C24 C23 1_555 1_555
H37 C24 1_555 1_555
H38 C24 1_555 1_555
H39 C24 1_555 1_555
C25 C23 1_555 1_555
H40 C25 1_555 1_555
H41 C25 1_555 1_555
H42 C25 1_555 1_555
C26 C23 1_555 1_555
H43 C26 1_555 1_555
H44 C26 1_555 1_555
H45 C26 1_555 1_555
C27 O1 1_555 1_555
C28 C27 1_555 1_555
H46 C28 1_555 1_555
H47 C28 1_555 1_555
H48 C28 1_555 1_555
C29 C27 1_555 1_555
H49 C29 1_555 1_555
H50 C29 1_555 1_555
H51 C29 1_555 1_555
C30 C27 1_555 1_555
H52 C30 1_555 1_555
H53 C30 1_555 1_555
H54 C30 1_555 1_555
O7 C31 1_555 1_555
O8 C31 1_555 1_555
C31 N7 1_555 1_555
N7 H55 1_555 1_555
C32 N7 1_555 1_555
H56 C32 1_555 1_555
C33 C32 1_555 1_555
H57 C33 1_555 1_555
H58 C33 1_555 1_555
C34 C33 1_555 1_555
H59 C34 1_555 1_555
H60 C34 1_555 1_555
C35 C34 1_555 1_555
H61 C35 1_555 1_555
H62 C35 1_555 1_555
C36 C35 1_555 1_555
H63 C36 1_555 1_555
H64 C36 1_555 1_555
C37 C32 1_555 1_555
H65 C37 1_555 1_555
N8 C37 1_555 1_555
H66 N8 1_555 1_555
O9 C38 1_555 1_555
C38 N8 1_555 1_555
N9 C38 1_555 1_555
H67 N9 1_555 1_555
C39 N9 1_555 1_555
H68 C39 1_555 1_555
C40 C39 1_555 1_555
H69 C40 1_555 1_555
H70 C40 1_555 1_555
C41 C40 1_555 1_555
H71 C41 1_555 1_555
H72 C41 1_555 1_555
C42 C41 1_555 1_555
H73 C42 1_555 1_555
H74 C42 1_555 1_555
C43 C42 1_555 1_555
H75 C43 1_555 1_555
H76 C43 1_555 1_555
C44 C39 1_555 1_555
H77 C44 1_555 1_555
N10 C44 1_555 1_555
H78 N10 1_555 1_555
O10 C45 1_555 1_555
C45 N10 1_555 1_555
N11 C45 1_555 1_555
H79 N11 1_555 1_555
C46 N11 1_555 1_555
H80 C46 1_555 1_555
C47 C46 1_555 1_555
H81 C47 1_555 1_555
H82 C47 1_555 1_555
C48 C47 1_555 1_555
H83 C48 1_555 1_555
H84 C48 1_555 1_555
C49 C48 1_555 1_555
H85 C49 1_555 1_555
H86 C49 1_555 1_555
C50 C49 1_555 1_555
H87 C50 1_555 1_555
H88 C50 1_555 1_555
C51 C46 1_555 1_555
H89 C51 1_555 1_555
N12 C51 1_555 1_555
H90 N12 1_555 1_555
O11 C52 1_555 1_555
C52 N12 1_555 1_555
O12 C52 1_555 1_555
C53 O12 1_555 1_555
C54 C53 1_555 1_555
H91 C54 1_555 1_555
H92 C54 1_555 1_555
H93 C54 1_555 1_555
C55 C53 1_555 1_555
H94 C55 1_555 1_555
H95 C55 1_555 1_555
H96 C55 1_555 1_555
C56 C53 1_555 1_555
H97 C56 1_555 1_555
H98 C56 1_555 1_555
H99 C56 1_555 1_555
C57 O7 1_555 1_555
C58 C57 1_555 1_555
H100 C58 1_555 1_555
H101 C58 1_555 1_555
H102 C58 1_555 1_555
C59 C57 1_555 1_555
H103 C59 1_555 1_555
H104 C59 1_555 1_555
H105 C59 1_555 1_555
C60 C57 1_555 1_555
H106 C60 1_555 1_555
H107 C60 1_555 1_555
H108 C60 1_555 1_555
O13 C61 1_555 1_555
O14 C61 1_555 1_555
C61 N13 1_555 1_555
N13 H109 1_555 1_555
C62 N13 1_555 1_555
H110 C62 1_555 1_555
C63 C62 1_555 1_555
H111 C63 1_555 1_555
H112 C63 1_555 1_555
C64 C63 1_555 1_555
H113 C64 1_555 1_555
H114 C64 1_555 1_555
C65 C64 1_555 1_555
H115 C65 1_555 1_555
H116 C65 1_555 1_555
C66 C65 1_555 1_555
H117 C66 1_555 1_555
H118 C66 1_555 1_555
C67 C62 1_555 1_555
H119 C67 1_555 1_555
N14 C67 1_555 1_555
H120 N14 1_555 1_555
O15 C68 1_555 1_555
C68 N14 1_555 1_555
N15 C68 1_555 1_555
H121 N15 1_555 1_555
C69 N15 1_555 1_555
H122 C69 1_555 1_555
C70 C69 1_555 1_555
H123 C70 1_555 1_555
H124 C70 1_555 1_555
C71 C70 1_555 1_555
H125 C71 1_555 1_555
H126 C71 1_555 1_555
C72 C71 1_555 1_555
H127 C72 1_555 1_555
H128 C72 1_555 1_555
C73 C72 1_555 1_555
H129 C73 1_555 1_555
H130 C73 1_555 1_555
C74 C69 1_555 1_555
H131 C74 1_555 1_555
N16 C74 1_555 1_555
H132 N16 1_555 1_555
O16 C75 1_555 1_555
C75 N16 1_555 1_555
N17 C75 1_555 1_555
H133 N17 1_555 1_555
C76 N17 1_555 1_555
H134 C76 1_555 1_555
C77 C76 1_555 1_555
H135 C77 1_555 1_555
H136 C77 1_555 1_555
C78 C77 1_555 1_555
H137 C78 1_555 1_555
H138 C78 1_555 1_555
C79 C78 1_555 1_555
H139 C79 1_555 1_555
H140 C79 1_555 1_555
C80 C79 1_555 1_555
H141 C80 1_555 1_555
H142 C80 1_555 1_555
C81 C76 1_555 1_555
H143 C81 1_555 1_555
N18 C81 1_555 1_555
H144 N18 1_555 1_555
O17 C82 1_555 1_555
C82 N18 1_555 1_555
O18 C82 1_555 1_555
C83 O18 1_555 1_555
C84 C83 1_555 1_555
H145 C84 1_555 1_555
H146 C84 1_555 1_555
H147 C84 1_555 1_555
C85 C83 1_555 1_555
H148 C85 1_555 1_555
H149 C85 1_555 1_555
H150 C85 1_555 1_555
C86 C83 1_555 1_555
H151 C86 1_555 1_555
H152 C86 1_555 1_555
H153 C86 1_555 1_555
C87 O13 1_555 1_555
C88 C87 1_555 1_555
H154 C88 1_555 1_555
H155 C88 1_555 1_555
H156 C88 1_555 1_555
C89 C87 1_555 1_555
H157 C89 1_555 1_555
H158 C89 1_555 1_555
H159 C89 1_555 1_555
C90 C87 1_555 1_555
H160 C90 1_555 1_555
H161 C90 1_555 1_555
H162 C90 1_555 1_555
O19 H163 1_555 1_555
H164 O19 1_555 1_555
O20 H165 1_555 1_555
H166 O20 1_555 1_555
C6 C7 1_555 1_555
C13 C14 1_555 1_555
C20 C21 1_555 1_555
C36 C37 1_555 1_555
C43 C44 1_555 1_555
C50 C51 1_555 1_555
C66 C67 1_555 1_555
C73 C74 1_555 1_555
C80 C81 1_555 1_555

#END
