
#######################################################################
#
#                 Cambridge Crystallographic Data Centre
#                                CCDC 
#
#######################################################################
#
# If this CIF has been generated from an entry in the Cambridge 
# Structural Database, then it will include bibliographic, chemical, 
# crystal, experimental, refinement or atomic coordinate data resulting 
# from the CCDC's data processing and validation procedures.
#
#######################################################################

data_GIWKEF
_chemical_formula_moiety         
'C42 H66 N10 O4 2+,1.84(C2 H6 O1),2(C2 F3 O2 1-),2.5(H2 O1)'
_chemical_name_systematic        
"2,2'-[(1,2-diphenylethane-1,2-diyl)bis(carbamoylazanediylcyclohexane-2,1-diylcarbamoylazanediyl)]bis(cyclohexan-1-aminium) bis(trifluoroacetate) ethanol solvate hydrate"
_symmetry_cell_setting           orthorhombic
_symmetry_space_group_name_H-M   'P 21 21 21'
_symmetry_Int_Tables_number      19
_space_group_name_Hall           'P 2ac 2ab'
loop_
_symmetry_equiv_pos_site_id
_symmetry_equiv_pos_as_xyz
1 x,y,z
2 1/2-x,-y,1/2+z
3 -x,1/2+y,1/2-z
4 1/2+x,1/2-y,-z
_cell_length_a                   9.8175(3)
_cell_length_b                   23.3594(7)
_cell_length_c                   25.2881(7)
_cell_angle_alpha                90
_cell_angle_beta                 90
_cell_angle_gamma                90
_cell_volume                     5799.34
_exptl_crystal_colour            colorless
_exptl_crystal_description       block
_cell_formula_units_Z            4
loop_
_atom_site_label
_atom_site_type_symbol
_atom_site_fract_x
_atom_site_fract_y
_atom_site_fract_z
N1 N 1.7095(4) 0.00333(15) 1.20689(14)
H1 H 1.783722 0.006412 1.228262
H2 H 1.727746 -0.021678 1.180223
H3 H 1.637389 -0.009677 1.226046
C1 C 1.6766(4) 0.05988(18) 1.18446(17)
H4 H 1.750416 0.070634 1.159107
C2 C 1.6718(5) 0.10448(19) 1.22764(18)
H5 H 1.762354 0.107229 1.244686
H6 H 1.605081 0.092686 1.254897
C3 C 1.6314(6) 0.1634(2) 1.2055(2)
H7 H 1.625673 0.191555 1.234703
H8 H 1.701641 0.176777 1.180248
C4 C 1.4942(6) 0.1594(2) 1.1776(3)
H9 H 1.423114 0.148647 1.203528
H10 H 1.470068 0.197206 1.162673
C5 C 1.4981(5) 0.1152(2) 1.1334(2)
H11 H 1.562476 0.127997 1.105729
H12 H 1.406603 0.112129 1.117215
C6 C 1.5420(4) 0.05620(18) 1.15367(17)
H13 H 1.470195 0.042323 1.178626
N2 N 1.5524(3) 0.01502(15) 1.11100(14)
H14 H 1.614046 0.020762 1.086299
O1 O 1.3864(3) -0.04369(14) 1.14170(12)
C7 C 1.4723(4) -0.03162(17) 1.10734(16)
N3 N 1.4907(3) -0.06379(14) 1.06372(14)
H15 H 1.544909 -0.051586 1.038413
C8 C 1.4211(11) -0.1189(4) 1.0581(5)
H16 H 1.387997 -0.131866 1.093514
C9 C 1.5265(12) -0.1612(5) 1.0375(6)
H17 H 1.598661 -0.166438 1.064418
H18 H 1.569401 -0.145541 1.005183
C10 C 1.4625(13) -0.2191(5) 1.0249(6)
H19 H 1.531735 -0.244261 1.008446
H20 H 1.431700 -0.237425 1.058074
C11 C 1.3418(11) -0.2129(5) 0.9875(6)
H21 H 1.298455 -0.250735 0.982289
H22 H 1.374488 -0.199279 0.952619
C12 C 1.2364(9) -0.1708(4) 1.0090(6)
H23 H 1.162368 -0.165936 0.982796
H24 H 1.195928 -0.186509 1.041804
C13 C 1.3005(9) -0.1128(4) 1.0208(5)
H25 H 1.335907 -0.097237 0.986593
N4 N 1.1993(4) -0.07221(16) 1.04085(15)
H26 H 1.142335 -0.085470 1.064778
O2 O 1.2379(4) 0.0046(2) 0.98701(13)
C14 C 1.1831(4) -0.0169(2) 1.02700(17)
N5 N 1.0987(4) 0.01394(15) 1.05809(14)
H27 H 1.061108 -0.003430 1.085314
C15 C 1.0660(4) 0.07339(19) 1.04964(17)
H28 H 1.129286 0.088600 1.022027
C16 C 0.9173(4) 0.0803(2) 1.02873(18)
H29 H 0.856882 0.063057 1.056284
N6 N 0.8983(4) 0.0463(2) 0.98160(16)
H30 H 0.952724 0.052822 0.954597
O3 O 0.7230(4) -0.00608(14) 1.01190(13)
C17 C 0.8021(4) 0.00499(19) 0.97619(16)
N7 N 0.7995(4) -0.0213(2) 0.92854(15)
H31 H 0.854053 -0.008245 0.903705
C18 C 0.7131(5) -0.0696(2) 0.91562(17)
H32 H 0.640462 -0.072439 0.943203
C19 C 0.7918(7) -0.1263(3) 0.9149(2)
H33 H 0.868520 -0.122766 0.889743
H34 H 0.830891 -0.132855 0.950501
C20 C 0.7071(8) -0.1779(2) 0.8997(2)
H35 H 0.640077 -0.185836 0.928025
H36 H 0.767181 -0.211715 0.896335
C21 C 0.6320(9) -0.1682(2) 0.8476(2)
H37 H 0.698409 -0.166482 0.818197
H38 H 0.569258 -0.200605 0.840872
C22 C 0.5515(7) -0.11246(19) 0.85013(19)
H39 H 0.481395 -0.115461 0.878136
H40 H 0.504220 -0.106363 0.816014
C23 C 0.6437(5) -0.06086(18) 0.86169(16)
H41 H 0.715528 -0.058632 0.833712
N8 N 0.5666(4) -0.00790(14) 0.86154(12)
H42 H 0.544901 0.007862 0.892007
O4 O 0.5625(3) 0.00034(12) 0.77193(10)
C24 C 0.5267(4) 0.01813(16) 0.81644(15)
N9 N 0.4441(3) 0.06370(14) 0.82235(13)
H43 H 0.402198 0.068192 0.852835
C25 C 0.4203(4) 0.10587(16) 0.78113(16)
H44 H 0.498503 0.104468 0.755822
C26 C 0.4157(5) 0.16582(17) 0.80593(18)
H45 H 0.344898 0.166614 0.833781
H46 H 0.504516 0.174056 0.822865
C27 C 0.3850(5) 0.21227(18) 0.7651(2)
H47 H 0.379946 0.249988 0.782847
H48 H 0.459238 0.213762 0.738665
C28 C 0.2505(5) 0.19978(18) 0.73746(19)
H49 H 0.175393 0.200637 0.763587
H50 H 0.232452 0.229630 0.710567
C29 C 0.2554(5) 0.14161(18) 0.71112(18)
H51 H 0.324716 0.142133 0.682696
H52 H 0.165933 0.133380 0.694723
C30 C 0.2898(4) 0.09451(16) 0.75040(17)
H53 H 0.212728 0.090373 0.775962
N10 N 0.3047(4) 0.03974(15) 0.71983(15)
H54 H 0.387151 0.039214 0.703380
H55 H 0.237316 0.037352 0.695225
H56 H 0.298711 0.009468 0.742359
C31 C 1.0872(4) 0.10811(17) 1.09975(17)
C32 C 1.0525(4) 0.08630(19) 1.14890(17)
H57 H 1.018059 0.048388 1.151321
C33 C 1.0668(5) 0.1185(2) 1.1946(2)
H58 H 1.043363 0.102582 1.227961
C34 C 1.1153(6) 0.1737(3) 1.1914(3)
H59 H 1.125808 0.195821 1.222601
C35 C 1.1487(6) 0.1968(2) 1.1431(3)
H60 H 1.181090 0.235102 1.141129
C36 C 1.1354(5) 0.16481(19) 1.0973(2)
H61 H 1.158884 0.181152 1.064133
C37 C 0.8775(16) 0.1455(5) 1.0256(5)
C38 C 0.8059(14) 0.1724(4) 1.0655(4)
H62 H 0.779190 0.150981 1.095787
C39 C 0.7722(11) 0.2298(4) 1.0623(5)
H63 H 0.723475 0.247872 1.090148
C40 C 0.8105(10) 0.2601(5) 1.0184(6)
H64 H 0.785799 0.299336 1.015937
C41 C 0.8832(17) 0.2359(7) 0.9776(8)
H65 H 0.908151 0.257788 0.947465
C42 C 0.9193(10) 0.1783(6) 0.9820(5)
H66 H 0.972854 0.161083 0.955033
C55 C 0.8902(5) -0.09630(18) 1.13051(17)
O5 O 0.7720(4) -0.0853(2) 1.1415(2)
O6 O 0.9952(4) -0.06743(13) 1.13677(13)
C56 C 0.9072(5) -0.1546(2) 1.1036(2)
F1 F 0.8945(4) -0.14951(15) 1.05161(13)
F2 F 1.0281(4) -0.17846(14) 1.11271(15)
F3 F 0.8144(4) -0.19260(15) 1.1182(2)
C57 C 0.9580(6) 0.0628(3) 0.8230(2)
O7 O 1.0068(7) 0.0631(3) 0.86789(18)
O8 O 0.9702(5) 0.0254(2) 0.78830(17)
C58 C 0.8779(7) 0.1168(3) 0.8063(3)
F4 F 0.9439(14) 0.1630(6) 0.8098(9)
F5 F 0.7726(14) 0.1182(7) 0.8400(7)
F6 F 0.818(2) 0.1128(5) 0.7603(5)
O9 O 1.1573(16) -0.1421(3) 0.8327(3)
H82 H 1.195547 -0.141121 0.803003
C59 C 1.1325(18) -0.1933(5) 0.8450(6)
H83 H 1.045913 -0.192592 0.865095
H84 H 1.204144 -0.204628 0.870482
C60 C 1.1204(19) -0.2414(6) 0.8070(7)
H85 H 1.073459 -0.228099 0.775024
H86 H 1.068169 -0.272528 0.823153
H87 H 1.211455 -0.255176 0.797588
O10 O 0.4363(8) 0.0634(2) 0.9417(2)
H88 H 0.352044 0.063352 0.947575
C61 C 0.5020(9) 0.1029(3) 0.9772(2)
H89 H 0.567224 0.082195 1.000088
H90 H 0.433360 0.121689 0.999989
C62 C 0.5729(6) 0.1452(3) 0.9460(2)
H91 H 0.639555 0.126227 0.923128
H92 H 0.619991 0.172037 0.969566
H93 H 0.507263 0.166239 0.924169
O11 O 1.1903(6) -0.0494(2) 0.7698(3)
O13 O 1.1342(11) -0.0443(4) 0.8938(3)
O14 O 0.2056(14) 0.1246(7) 0.9107(4)
C43? C 1.419(2) -0.1152(9) 1.0455(12)
H67? H 1.378083 -0.133370 1.077554
C44? C 1.516(3) -0.1592(11) 1.0217(13)
H68? H 1.586850 -0.169139 1.047818
H69? H 1.561024 -0.142602 0.990250
C45? C 1.438(3) -0.214(1) 1.0054(11)
H70? H 1.501329 -0.242074 0.989654
H71? H 1.394882 -0.231719 1.036872
C46? C 1.328(2) -0.1979(11) 0.9651(10)
H72? H 1.278415 -0.232814 0.953928
H73? H 1.371404 -0.180987 0.933453
C47? C 1.226(2) -0.1546(11) 0.9889(12)
H74? H 1.158061 -0.143524 0.961789
H75? H 1.176736 -0.172467 1.018834
C48? C 1.302(2) -0.1015(11) 1.0081(11)
H76? H 1.331985 -0.077052 0.977922
C49? C 0.895(5) 0.1378(12) 1.0104(14)
C50? C 0.833(4) 0.1722(12) 1.0477(16)
H77? H 0.803595 0.155375 1.079959
C51? C 0.813(4) 0.2302(12) 1.0401(17)
H78? H 0.768265 0.254337 1.064792
C52? C 0.865(8) 0.2491(14) 0.9931(18)
H79? H 0.862402 0.289225 0.987216
C53? C 0.921(5) 0.2168(12) 0.9536(15)
H80? H 0.945904 0.234153 0.921019
C54? C 0.942(4) 0.1585(11) 0.9611(13)
H81? H 0.984388 0.134720 0.935466
F7? F 0.7537(14) 0.1122(10) 0.8035(15)
F8? F 0.922(2) 0.1327(9) 0.7575(7)
F9? F 0.913(4) 0.1621(10) 0.8336(10)
O12? O 1.2721(15) -0.0562(6) 0.7970(6)
loop_
_geom_bond_atom_site_label_1
_geom_bond_atom_site_label_2
_geom_bond_site_symmetry_1
_geom_bond_site_symmetry_2
N1 H1 1_555 1_555
H2 N1 1_555 1_555
H3 N1 1_555 1_555
C1 N1 1_555 1_555
H4 C1 1_555 1_555
C2 C1 1_555 1_555
H5 C2 1_555 1_555
H6 C2 1_555 1_555
C3 C2 1_555 1_555
H7 C3 1_555 1_555
H8 C3 1_555 1_555
C4 C3 1_555 1_555
H9 C4 1_555 1_555
H10 C4 1_555 1_555
C5 C4 1_555 1_555
H11 C5 1_555 1_555
H12 C5 1_555 1_555
C6 C1 1_555 1_555
H13 C6 1_555 1_555
N2 C6 1_555 1_555
H14 N2 1_555 1_555
O1 C7 1_555 1_555
C7 N2 1_555 1_555
N3 C7 1_555 1_555
H15 N3 1_555 1_555
C8 N3 1_555 1_555
H16 C8 1_555 1_555
C9 C8 1_555 1_555
H17 C9 1_555 1_555
H18 C9 1_555 1_555
C10 C9 1_555 1_555
H19 C10 1_555 1_555
H20 C10 1_555 1_555
C11 C10 1_555 1_555
H21 C11 1_555 1_555
H22 C11 1_555 1_555
C12 C11 1_555 1_555
H23 C12 1_555 1_555
H24 C12 1_555 1_555
C13 C8 1_555 1_555
H25 C13 1_555 1_555
N4 C13 1_555 1_555
H26 N4 1_555 1_555
O2 C14 1_555 1_555
C14 N4 1_555 1_555
N5 C14 1_555 1_555
H27 N5 1_555 1_555
C15 N5 1_555 1_555
H28 C15 1_555 1_555
C16 C15 1_555 1_555
H29 C16 1_555 1_555
N6 C16 1_555 1_555
H30 N6 1_555 1_555
O3 C17 1_555 1_555
C17 N6 1_555 1_555
N7 C17 1_555 1_555
H31 N7 1_555 1_555
C18 N7 1_555 1_555
H32 C18 1_555 1_555
C19 C18 1_555 1_555
H33 C19 1_555 1_555
H34 C19 1_555 1_555
C20 C19 1_555 1_555
H35 C20 1_555 1_555
H36 C20 1_555 1_555
C21 C20 1_555 1_555
H37 C21 1_555 1_555
H38 C21 1_555 1_555
C22 C21 1_555 1_555
H39 C22 1_555 1_555
H40 C22 1_555 1_555
C23 C18 1_555 1_555
H41 C23 1_555 1_555
N8 C23 1_555 1_555
H42 N8 1_555 1_555
O4 C24 1_555 1_555
C24 N8 1_555 1_555
N9 C24 1_555 1_555
H43 N9 1_555 1_555
C25 N9 1_555 1_555
H44 C25 1_555 1_555
C26 C25 1_555 1_555
H45 C26 1_555 1_555
H46 C26 1_555 1_555
C27 C26 1_555 1_555
H47 C27 1_555 1_555
H48 C27 1_555 1_555
C28 C27 1_555 1_555
H49 C28 1_555 1_555
H50 C28 1_555 1_555
C29 C28 1_555 1_555
H51 C29 1_555 1_555
H52 C29 1_555 1_555
C30 C25 1_555 1_555
H53 C30 1_555 1_555
N10 C30 1_555 1_555
H54 N10 1_555 1_555
H55 N10 1_555 1_555
H56 N10 1_555 1_555
C31 C15 1_555 1_555
C32 C31 1_555 1_555
H57 C32 1_555 1_555
C33 C32 1_555 1_555
H58 C33 1_555 1_555
C34 C33 1_555 1_555
H59 C34 1_555 1_555
C35 C34 1_555 1_555
H60 C35 1_555 1_555
C36 C31 1_555 1_555
H61 C36 1_555 1_555
C37 C16 1_555 1_555
C38 C37 1_555 1_555
H62 C38 1_555 1_555
C39 C38 1_555 1_555
H63 C39 1_555 1_555
C40 C39 1_555 1_555
H64 C40 1_555 1_555
C41 C40 1_555 1_555
H65 C41 1_555 1_555
C42 C37 1_555 1_555
H66 C42 1_555 1_555
C55 O5 1_555 1_555
O6 C55 1_555 1_555
C56 C55 1_555 1_555
F1 C56 1_555 1_555
F2 C56 1_555 1_555
F3 C56 1_555 1_555
C57 O7 1_555 1_555
O8 C57 1_555 1_555
C58 C57 1_555 1_555
F4 C58 1_555 1_555
F5 C58 1_555 1_555
F6 C58 1_555 1_555
O9 H82 1_555 1_555
C59 O9 1_555 1_555
H83 C59 1_555 1_555
H84 C59 1_555 1_555
C60 C59 1_555 1_555
H85 C60 1_555 1_555
H86 C60 1_555 1_555
H87 C60 1_555 1_555
O10 H88 1_555 1_555
C61 O10 1_555 1_555
H89 C61 1_555 1_555
H90 C61 1_555 1_555
C62 C61 1_555 1_555
H91 C62 1_555 1_555
H92 C62 1_555 1_555
H93 C62 1_555 1_555
C5 C6 1_555 1_555
C12 C13 1_555 1_555
C22 C23 1_555 1_555
C29 C30 1_555 1_555
C35 C36 1_555 1_555
C41 C42 1_555 1_555

#END
