
#######################################################################
#
#                 Cambridge Crystallographic Data Centre
#                                CCDC 
#
#######################################################################
#
# If this CIF has been generated from an entry in the Cambridge 
# Structural Database, then it will include bibliographic, chemical, 
# crystal, experimental, refinement or atomic coordinate data resulting 
# from the CCDC's data processing and validation procedures.
#
#######################################################################

data_GIWPUX
_chemical_formula_moiety         'C24 H40 O4'
_chemical_name_systematic        
1,6,17,23-Tetraoxa-tetraspiro(6.2.2.2.6.2.2.2)octacosane
_symmetry_cell_setting           triclinic
_symmetry_space_group_name_H-M   'P -1'
_symmetry_Int_Tables_number      2
_space_group_name_Hall           '-P 1'
loop_
_symmetry_equiv_pos_site_id
_symmetry_equiv_pos_as_xyz
1 x,y,z
2 -x,-y,-z
_cell_length_a                   6.632(1)
_cell_length_b                   7.854(1)
_cell_length_c                   10.580(2)
_cell_angle_alpha                80.73(1)
_cell_angle_beta                 78.93(1)
_cell_angle_gamma                84.78(1)
_cell_volume                     532.744
_exptl_crystal_colour            colorless
_exptl_crystal_description       prisms
_chemical_melting_point          224deg.C
_cell_formula_units_Z            1
_exptl_crystal_recrystallization_method dichloromethane/methanol
loop_
_atom_site_label
_atom_site_type_symbol
_atom_site_fract_x
_atom_site_fract_y
_atom_site_fract_z
C1 C 0.2834(3) 0.0613(3) 0.5275(2)
H1 H 0.1801(3) 0.1526(3) 0.5495(2)
H2 H 0.2121(3) -0.0402(3) 0.5250(2)
C2 C 0.4090(3) 0.1182(3) 0.3913(2)
C3 C 0.2749(3) 0.1255(3) 0.2867(2)
H3 H 0.3628(3) 0.1378(3) 0.2016(2)
H4 H 0.2095(3) 0.0170(3) 0.2990(2)
C4 C 0.1082(3) 0.2739(3) 0.2894(2)
H5 H 0.0357(3) 0.2754(3) 0.2179(2)
H6 H 0.0095(3) 0.2540(3) 0.3700(2)
C5 C 0.1964(3) 0.4489(3) 0.2788(2)
O1 O 0.0396(2) 0.5820(2) 0.30022(15)
C6 C -0.0772(3) 0.6334(3) 0.1986(3)
H7 H -0.2195(3) 0.6604(3) 0.2364(3)
H8 H -0.0740(3) 0.5385(3) 0.1496(3)
C7 C 0.0080(4) 0.7896(3) 0.1078(3)
H9 H 0.0145(4) 0.8806(3) 0.1587(3)
H10 H -0.0860(4) 0.8312(3) 0.0482(3)
C8 C 0.2206(4) 0.7544(3) 0.0293(2)
H11 H 0.2071(4) 0.6903(3) -0.0394(2)
H12 H 0.2762(4) 0.8640(3) -0.0117(2)
C9 C 0.3721(3) 0.6543(3) 0.1079(2)
H13 H 0.5086(3) 0.6530(3) 0.0547(2)
H14 H 0.3767(3) 0.7111(3) 0.1822(2)
O2 O 0.3147(2) 0.4818(2) 0.15216(13)
C10 C 0.3257(3) 0.4443(3) 0.3840(2)
H15 H 0.2371(3) 0.4298(3) 0.4689(2)
H16 H 0.3892(3) 0.5535(3) 0.3728(2)
C11 C 0.4929(3) 0.2974(3) 0.3785(2)
H17 H 0.5692(3) 0.2975(3) 0.4481(2)
H18 H 0.5881(3) 0.3184(3) 0.2966(2)
C12 C 0.4134(3) 0.0199(3) 0.6339(2)
H19 H 0.4707(3) 0.1254(3) 0.6436(2)
H20 H 0.3245(3) -0.0193(3) 0.7155(2)
C12A C 0.5866(3) -0.0199(3) 0.3661(2)
C1A C 0.7166(3) -0.0613(3) 0.4725(2)
H1A H 0.8199(3) -0.1526(3) 0.4505(2)
H2A H 0.7879(3) 0.0402(3) 0.4750(2)
C2A C 0.5910(3) -0.1182(3) 0.6087(2)
C3A C 0.7251(3) -0.1255(3) 0.7133(2)
H3A H 0.6372(3) -0.1378(3) 0.7984(2)
H4A H 0.7905(3) -0.0170(3) 0.7010(2)
C4A C 0.8918(3) -0.2739(3) 0.7106(2)
H5A H 0.9643(3) -0.2754(3) 0.7821(2)
H6A H 0.9905(3) -0.2540(3) 0.6300(2)
C5A C 0.8036(3) -0.4489(3) 0.7212(2)
O1A O 0.9604(2) -0.5820(2) 0.69978(15)
C6A C 1.0772(3) -0.6334(3) 0.8014(3)
H7A H 1.2195(3) -0.6604(3) 0.7636(3)
H8A H 1.0740(3) -0.5385(3) 0.8504(3)
C7A C 0.9920(4) -0.7896(3) 0.8922(3)
H9A H 0.9855(4) -0.8806(3) 0.8413(3)
H10A H 1.0860(4) -0.8312(3) 0.9518(3)
C8A C 0.7794(4) -0.7544(3) 0.9707(2)
H11A H 0.7929(4) -0.6903(3) 1.0394(2)
H12A H 0.7238(4) -0.8640(3) 1.0117(2)
C9A C 0.6279(3) -0.6543(3) 0.8921(2)
H13A H 0.4914(3) -0.6530(3) 0.9453(2)
H14A H 0.6233(3) -0.7111(3) 0.8178(2)
O2A O 0.6853(2) -0.4818(2) 0.84784(13)
C10A C 0.6743(3) -0.4443(3) 0.6160(2)
H15A H 0.7629(3) -0.4298(3) 0.5311(2)
H16A H 0.6108(3) -0.5535(3) 0.6272(2)
C11A C 0.5071(3) -0.2974(3) 0.6215(2)
H17A H 0.4308(3) -0.2975(3) 0.5519(2)
H18A H 0.4119(3) -0.3184(3) 0.7034(2)
H19A H 0.5293(3) -0.1254(3) 0.3564(2)
H20A H 0.6755(3) 0.0193(3) 0.2845(2)
loop_
_geom_bond_atom_site_label_1
_geom_bond_atom_site_label_2
_geom_bond_site_symmetry_1
_geom_bond_site_symmetry_2
C1 H1 1_555 1_555
H2 C1 1_555 1_555
C2 C1 1_555 1_555
C3 C2 1_555 1_555
H3 C3 1_555 1_555
H4 C3 1_555 1_555
C4 C3 1_555 1_555
H5 C4 1_555 1_555
H6 C4 1_555 1_555
C5 C4 1_555 1_555
O1 C5 1_555 1_555
C6 O1 1_555 1_555
H7 C6 1_555 1_555
H8 C6 1_555 1_555
C7 C6 1_555 1_555
H9 C7 1_555 1_555
H10 C7 1_555 1_555
C8 C7 1_555 1_555
H11 C8 1_555 1_555
H12 C8 1_555 1_555
C9 C8 1_555 1_555
H13 C9 1_555 1_555
H14 C9 1_555 1_555
O2 C5 1_555 1_555
C10 C5 1_555 1_555
H15 C10 1_555 1_555
H16 C10 1_555 1_555
C11 C2 1_555 1_555
H17 C11 1_555 1_555
H18 C11 1_555 1_555
C12 C1 1_555 1_555
H19 C12 1_555 1_555
H20 C12 1_555 1_555
C12A C2 1_555 1_555
C1A C12A 1_555 1_555
H1A C1A 1_555 1_555
H2A C1A 1_555 1_555
C2A C12 1_555 1_555
C3A C2A 1_555 1_555
H3A C3A 1_555 1_555
H4A C3A 1_555 1_555
C4A C3A 1_555 1_555
H5A C4A 1_555 1_555
H6A C4A 1_555 1_555
C5A C4A 1_555 1_555
O1A C5A 1_555 1_555
C6A O1A 1_555 1_555
H7A C6A 1_555 1_555
H8A C6A 1_555 1_555
C7A C6A 1_555 1_555
H9A C7A 1_555 1_555
H10A C7A 1_555 1_555
C8A C7A 1_555 1_555
H11A C8A 1_555 1_555
H12A C8A 1_555 1_555
C9A C8A 1_555 1_555
H13A C9A 1_555 1_555
H14A C9A 1_555 1_555
O2A C5A 1_555 1_555
C10A C5A 1_555 1_555
H15A C10A 1_555 1_555
H16A C10A 1_555 1_555
C11A C2A 1_555 1_555
H17A C11A 1_555 1_555
H18A C11A 1_555 1_555
H19A C12A 1_555 1_555
H20A C12A 1_555 1_555
C9 O2 1_555 1_555
C10 C11 1_555 1_555
C1A C2A 1_555 1_555
C9A O2A 1_555 1_555
C10A C11A 1_555 1_555

#END
