
#######################################################################
#
#                 Cambridge Crystallographic Data Centre
#                                CCDC 
#
#######################################################################
#
# If this CIF has been generated from an entry in the Cambridge 
# Structural Database, then it will include bibliographic, chemical, 
# crystal, experimental, refinement or atomic coordinate data resulting 
# from the CCDC's data processing and validation procedures.
#
#######################################################################

data_GIWQIN
_chemical_name_common            
2,2'-(3,8-Dioxa-2,9-diazadeca-1,9-diene-1,10-diyl)bis(4-chlorophenol)
_chemical_formula_moiety         'C18 H18 Cl2 N2 O4'
_chemical_name_systematic        
4,4'-Dichloro-2,2'-((1,4-butylene)dioxybis(nitrilomethylidyne))diphenol
_symmetry_cell_setting           monoclinic
_symmetry_space_group_name_H-M   'P 21/n'
_symmetry_Int_Tables_number      14
_space_group_name_Hall           '-P 2yn'
loop_
_symmetry_equiv_pos_site_id
_symmetry_equiv_pos_as_xyz
1 x,y,z
2 1/2-x,1/2+y,1/2-z
3 -x,-y,-z
4 1/2+x,1/2-y,1/2+z
_cell_length_a                   4.9390(7)
_cell_length_b                   30.235(3)
_cell_length_c                   6.1349(14)
_cell_angle_alpha                90
_cell_angle_beta                 90.818(2)
_cell_angle_gamma                90
_cell_volume                     916.035
_exptl_crystal_colour            colorless
_exptl_crystal_description       prismatic
_chemical_melting_point          '424-425 K'
_cell_formula_units_Z            2
loop_
_atom_site_label
_atom_site_type_symbol
_atom_site_fract_x
_atom_site_fract_y
_atom_site_fract_z
Cl1 Cl 0.78057(16) 0.23951(2) 0.33504(14)
N1 N -0.0724(4) 0.08359(7) 0.3320(3)
O1 O -0.2541(4) 0.06674(5) 0.1757(3)
O2 O 0.1967(4) 0.08852(6) 0.7055(3)
H1 H 0.0808 0.0791 0.6205
C1 C -0.3884(6) 0.02891(8) 0.2685(4)
H2 H -0.4920 0.0379 0.3942
H3 H -0.2557 0.0071 0.3154
C2 C -0.5738(5) 0.00939(9) 0.0971(4)
H4 H -0.6981 0.0321 0.0463
H5 H -0.6801 -0.0139 0.1626
C3 C 0.0612(5) 0.11679(8) 0.2622(4)
H6 H 0.0286 0.1274 0.1219
C4 C 0.2638(5) 0.13812(8) 0.4008(4)
C5 C 0.3296(5) 0.12300(8) 0.6117(4)
C6 C 0.5335(6) 0.14329(9) 0.7323(4)
H7 H 0.5774 0.1327 0.8707
C7 C 0.6725(5) 0.17897(9) 0.6493(4)
H8 H 0.8089 0.1925 0.7312
C8 C 0.6067(5) 0.19443(8) 0.4427(4)
C9 C 0.4067(5) 0.17450(8) 0.3194(4)
H9 H 0.3658 0.1852 0.1807
Cl1B Cl -1.78057(16) -0.23951(2) -0.33504(14)
N1B N -0.9276(4) -0.08359(7) -0.3320(3)
O1B O -0.7459(4) -0.06674(5) -0.1757(3)
O2B O -1.1967(4) -0.08852(6) -0.7055(3)
H1B H -1.0808 -0.0791 -0.6205
C1B C -0.6116(6) -0.02891(8) -0.2685(4)
H2B H -0.5080 -0.0379 -0.3942
H3B H -0.7443 -0.0071 -0.3154
C2B C -0.4262(5) -0.00939(9) -0.0971(4)
H4B H -0.3019 -0.0321 -0.0463
H5B H -0.3199 0.0139 -0.1626
C3B C -1.0612(5) -0.11679(8) -0.2622(4)
H6B H -1.0286 -0.1274 -0.1219
C4B C -1.2638(5) -0.13812(8) -0.4008(4)
C5B C -1.3296(5) -0.12300(8) -0.6117(4)
C6B C -1.5335(6) -0.14329(9) -0.7323(4)
H7B H -1.5774 -0.1327 -0.8707
C7B C -1.6725(5) -0.17897(9) -0.6493(4)
H8B H -1.8089 -0.1925 -0.7312
C8B C -1.6067(5) -0.19443(8) -0.4427(4)
C9B C -1.4067(5) -0.17450(8) -0.3194(4)
H9B H -1.3658 -0.1852 -0.1807
loop_
_geom_bond_atom_site_label_1
_geom_bond_atom_site_label_2
_geom_bond_site_symmetry_1
_geom_bond_site_symmetry_2
Cl1 C8 1_555 1_555
N1 O1 1_555 1_555
O1 C1 1_555 1_555
O2 H1 1_555 1_555
C1 H2 1_555 1_555
H3 C1 1_555 1_555
C2 C1 1_555 1_555
H4 C2 1_555 1_555
H5 C2 1_555 1_555
C3 N1 1_555 1_555
H6 C3 1_555 1_555
C4 C3 1_555 1_555
C5 O2 1_555 1_555
C6 C5 1_555 1_555
H7 C6 1_555 1_555
C7 C6 1_555 1_555
H8 C7 1_555 1_555
C8 C7 1_555 1_555
C9 C4 1_555 1_555
H9 C9 1_555 1_555
Cl1B C8B 1_555 1_555
N1B O1B 1_555 1_555
O1B C1B 1_555 1_555
O2B H1B 1_555 1_555
C1B H2B 1_555 1_555
H3B C1B 1_555 1_555
C2B C2 1_555 1_555
H4B C2B 1_555 1_555
H5B C2B 1_555 1_555
C3B N1B 1_555 1_555
H6B C3B 1_555 1_555
C4B C3B 1_555 1_555
C5B O2B 1_555 1_555
C6B C5B 1_555 1_555
H7B C6B 1_555 1_555
C7B C6B 1_555 1_555
H8B C7B 1_555 1_555
C8B C7B 1_555 1_555
C9B C4B 1_555 1_555
H9B C9B 1_555 1_555
C4 C5 1_555 1_555
C8 C9 1_555 1_555
C1B C2B 1_555 1_555
C4B C5B 1_555 1_555
C8B C9B 1_555 1_555

#END
