
#######################################################################
#
#                 Cambridge Crystallographic Data Centre
#                                CCDC 
#
#######################################################################
#
# If this CIF has been generated from an entry in the Cambridge 
# Structural Database, then it will include bibliographic, chemical, 
# crystal, experimental, refinement or atomic coordinate data resulting 
# from the CCDC's data processing and validation procedures.
#
#######################################################################

data_GIWRAG
_chemical_formula_moiety         'C14 H12 N6 Se1'
_chemical_name_systematic        
meso-1,1-(Selanyldimethanediyl)bis(1H-benzotriazole)
_chemical_properties_biological  
'Tested for super oxide dismutase activity using the pyrogallol autoxidation method'
_symmetry_cell_setting           monoclinic
_symmetry_space_group_name_H-M   'P 21/c'
_symmetry_Int_Tables_number      14
_space_group_name_Hall           '-P 2ybc'
loop_
_symmetry_equiv_pos_site_id
_symmetry_equiv_pos_as_xyz
1 x,y,z
2 -x,1/2+y,1/2-z
3 -x,-y,-z
4 x,1/2-y,1/2+z
_cell_length_a                   11.2064(12)
_cell_length_b                   9.3363(10)
_cell_length_c                   13.8543(15)
_cell_angle_alpha                90
_cell_angle_beta                 103.424(1)
_cell_angle_gamma                90
_cell_volume                     1409.92
_exptl_crystal_colour            'straw yellow'
_exptl_crystal_description       block
_cell_formula_units_Z            4
_exptl_crystal_recrystallization_method methanol
loop_
_atom_site_label
_atom_site_type_symbol
_atom_site_fract_x
_atom_site_fract_y
_atom_site_fract_z
Se1 Se 0.615834(19) 0.55482(2) 0.119400(15)
N1 N 0.86844(15) 0.50678(18) 0.13280(11)
N2 N 0.94305(17) 0.46037(19) 0.21898(12)
N3 N 1.00624(16) 0.35175(19) 0.20004(12)
N4 N 0.60229(16) 0.53640(19) 0.32158(13)
N5 N 0.67543(17) 0.6363(2) 0.37594(15)
N6 N 0.61467(18) 0.7022(2) 0.43201(14)
C1 C 0.8307(2) 0.4232(2) -0.04576(15)
H1 H 0.7707 0.4890 -0.0747
C2 C 0.8724(2) 0.3202(3) -0.10010(15)
H2 H 0.8402 0.3167 -0.1683
C3 C 0.9620(2) 0.2198(3) -0.05659(17)
H3 H 0.9866 0.1511 -0.0965
C4 C 1.01387(19) 0.2204(2) 0.04272(17)
H4 H 1.0740 0.1545 0.0712
C5 C 0.97260(17) 0.3245(2) 0.09958(14)
C6 C 0.88408(17) 0.42301(19) 0.05617(14)
C7 C 0.7841(2) 0.6219(2) 0.13400(15)
H5 H 0.7870 0.6878 0.0805
H6 H 0.8093 0.6738 0.1961
C8 C 0.6432(2) 0.4551(2) 0.24687(18)
H7 H 0.6000 0.3643 0.2374
H8 H 0.7300 0.4350 0.2701
C9 C 0.49830(18) 0.6451(2) 0.41338(14)
C10 C 0.3991(2) 0.6760(2) 0.45493(17)
H9 H 0.4048 0.7442 0.5047
C11 C 0.2942(2) 0.6021(3) 0.4195(2)
H10 H 0.2266 0.6200 0.4459
C12 C 0.2844(2) 0.4996(3) 0.3445(2)
H11 H 0.2097 0.4533 0.3215
C13 C 0.3809(2) 0.4650(2) 0.30358(17)
H12 H 0.3745 0.3959 0.2543
C14 C 0.48938(18) 0.54030(19) 0.34090(14)
loop_
_geom_bond_atom_site_label_1
_geom_bond_atom_site_label_2
_geom_bond_site_symmetry_1
_geom_bond_site_symmetry_2
Se1 C7 1_555 1_555
N1 N2 1_555 1_555
N2 N3 1_555 1_555
N3 C5 1_555 1_555
N4 N5 1_555 1_555
N5 N6 1_555 1_555
N6 C9 1_555 1_555
C1 H1 1_555 1_555
C2 C1 1_555 1_555
H2 C2 1_555 1_555
C3 C2 1_555 1_555
H3 C3 1_555 1_555
C4 C3 1_555 1_555
H4 C4 1_555 1_555
C5 C4 1_555 1_555
C6 N1 1_555 1_555
C7 N1 1_555 1_555
H5 C7 1_555 1_555
H6 C7 1_555 1_555
C8 Se1 1_555 1_555
H7 C8 1_555 1_555
H8 C8 1_555 1_555
C9 C10 1_555 1_555
C10 H9 1_555 1_555
C11 C10 1_555 1_555
H10 C11 1_555 1_555
C12 C11 1_555 1_555
H11 C12 1_555 1_555
C13 C12 1_555 1_555
H12 C13 1_555 1_555
C14 N4 1_555 1_555
N4 C8 1_555 1_555
C1 C6 1_555 1_555
C5 C6 1_555 1_555
C9 C14 1_555 1_555
C13 C14 1_555 1_555

#END
