
#######################################################################
#
#                 Cambridge Crystallographic Data Centre
#                                CCDC 
#
#######################################################################
#
# If this CIF has been generated from an entry in the Cambridge 
# Structural Database, then it will include bibliographic, chemical, 
# crystal, experimental, refinement or atomic coordinate data resulting 
# from the CCDC's data processing and validation procedures.
#
#######################################################################

data_GIWTAK
_chemical_formula_moiety         'C2 N10 O2 2-,2(C1 H6 N3 O1 1+)'
_chemical_name_systematic        
"bis(2-carbamoylhydrazinium) 5,5'-(diazene-1,2-diyl)bis(1H-tetrazol-1-olate)"
_symmetry_cell_setting           monoclinic
_symmetry_space_group_name_H-M   'P 21/c'
_symmetry_Int_Tables_number      14
_space_group_name_Hall           '-P 2ybc'
loop_
_symmetry_equiv_pos_site_id
_symmetry_equiv_pos_as_xyz
1 x,y,z
2 -x,1/2+y,1/2-z
3 -x,-y,-z
4 x,1/2-y,1/2+z
_cell_length_a                   9.5799(19)
_cell_length_b                   6.8911(14)
_cell_length_c                   10.540(2)
_cell_angle_alpha                90
_cell_angle_beta                 105.94(3)
_cell_angle_gamma                90
_cell_volume                     669.055
_exptl_crystal_colour            orange
_exptl_crystal_description       block
_cell_formula_units_Z            2
loop_
_atom_site_label
_atom_site_type_symbol
_atom_site_fract_x
_atom_site_fract_y
_atom_site_fract_z
O1 O 0.28278(11) 0.07487(17) 0.28636(10)
N1 N -0.08822(15) -0.0039(2) 0.20620(13)
N2 N -0.04776(15) 0.0106(2) 0.33795(13)
N3 N 0.09412(15) 0.0398(2) 0.38316(13)
N4 N 0.14592(14) 0.04426(19) 0.27766(12)
N5 N 0.05836(15) 0.0147(2) 0.04554(13)
C1 C 0.03394(17) 0.0167(2) 0.16925(14)
O1B O -0.28278(11) -0.07487(17) -0.28636(10)
N1B N 0.08822(15) 0.0039(2) -0.20620(13)
N2B N 0.04776(15) -0.0106(2) -0.33795(13)
N3B N -0.09412(15) -0.0398(2) -0.38316(13)
N4B N -0.14592(14) -0.04426(19) -0.27766(12)
N5B N -0.05836(15) -0.0147(2) -0.04554(13)
C1B C -0.03394(17) -0.0167(2) -0.16925(14)
O2 O 0.56401(12) 0.31914(18) 0.72758(11)
N6 N 0.31907(14) 0.1341(2) 0.62582(12)
H1 H 0.3146 0.2284 0.6750
H2 H 0.3526 0.0419 0.6773
H3 H 0.2398 0.1033 0.5722
N7 N 0.41562(15) 0.1757(2) 0.54893(13)
H4 H 0.3862 0.1509 0.4679
N8 N 0.62435(15) 0.3210(2) 0.53232(14)
H5 H 0.6000 0.3038 0.4503
H6 H 0.7026 0.3769 0.5701
C2 C 0.53790(17) 0.2760(2) 0.60874(15)
loop_
_geom_bond_atom_site_label_1
_geom_bond_atom_site_label_2
_geom_bond_site_symmetry_1
_geom_bond_site_symmetry_2
O1 N4 1_555 1_555
N1 N2 1_555 1_555
N2 N3 1_555 1_555
N3 N4 1_555 1_555
N4 C1 1_555 1_555
N5 C1 1_555 1_555
C1 N1 1_555 1_555
O2 C2 1_555 1_555
N6 H1 1_555 1_555
H2 N6 1_555 1_555
H3 N6 1_555 1_555
N7 N6 1_555 1_555
H4 N7 1_555 1_555
N8 H5 1_555 1_555
H6 N8 1_555 1_555
C2 N7 1_555 1_555
O1B N4B 1_555 1_555
N1B N2B 1_555 1_555
N2B N3B 1_555 1_555
N3B N4B 1_555 1_555
N4B C1B 1_555 1_555
N5B N5 1_555 1_555
C1B N1B 1_555 1_555
N8 C2 1_555 1_555
N5B C1B 1_555 1_555

#END
