
#######################################################################
#
#                 Cambridge Crystallographic Data Centre
#                                CCDC 
#
#######################################################################
#
# If this CIF has been generated from an entry in the Cambridge 
# Structural Database, then it will include bibliographic, chemical, 
# crystal, experimental, refinement or atomic coordinate data resulting 
# from the CCDC's data processing and validation procedures.
#
#######################################################################

data_GIWTOY
_chemical_formula_moiety         'C2 N10 O2 2-,C2 H10 N2 2+'
_chemical_name_systematic        
"ethane-1,2-diaminium 5,5'-(diazene-1,2-diyl)bis(1H-tetrazol-1-olate)"
_symmetry_cell_setting           monoclinic
_symmetry_space_group_name_H-M   'C 2/c'
_symmetry_Int_Tables_number      15
_space_group_name_Hall           '-C 2yn'
loop_
_symmetry_equiv_pos_site_id
_symmetry_equiv_pos_as_xyz
1 x,y,z
2 -x,y,1/2-z
3 1/2+x,1/2+y,z
4 1/2-x,1/2+y,1/2-z
5 -x,-y,-z
6 x,-y,1/2+z
7 1/2-x,1/2-y,-z
8 1/2+x,1/2-y,1/2+z
_cell_length_a                   11.135(17)
_cell_length_b                   6.331(7)
_cell_length_c                   14.393(17)
_cell_angle_alpha                90
_cell_angle_beta                 96.72(4)
_cell_angle_gamma                90
_cell_volume                     1007.67
_exptl_crystal_colour            orange
_exptl_crystal_description       Block
_cell_formula_units_Z            4
loop_
_atom_site_label
_atom_site_type_symbol
_atom_site_fract_x
_atom_site_fract_y
_atom_site_fract_z
C1 C 0.8284(4) 1.0131(7) 0.0171(3)
N1 N 0.7625(3) 1.1920(6) 0.0355(2)
N2 N 0.8621(3) 0.9359(6) -0.0614(2)
N3 N 0.9220(3) 0.7563(6) -0.0362(2)
N4 N 0.9254(3) 0.7222(6) 0.0550(2)
N5 N 0.8656(3) 0.8825(5) 0.0893(2)
O1 O 0.8500(3) 0.8991(5) 0.17746(19)
C1F C 0.6716(4) 1.4869(7) -0.0171(3)
N1F N 0.7375(3) 1.3080(6) -0.0355(2)
N2F N 0.6379(3) 1.5641(6) 0.0614(2)
N3F N 0.5780(3) 1.7437(6) 0.0362(2)
N4F N 0.5746(3) 1.7778(6) -0.0550(2)
N5F N 0.6344(3) 1.6175(5) -0.0893(2)
O1F O 0.6500(3) 1.6009(5) -0.17746(19)
C2 C 0.9320(4) 0.3681(7) 0.2469(3)
H1 H 0.8987 0.3716 0.1815
H2 H 0.9056 0.2379 0.2736
N6 N 0.8832(3) 0.5510(6) 0.2963(2)
H3 H 0.9296 0.5739 0.3500
H4 H 0.8081 0.5224 0.3079
H5 H 0.8828 0.6656 0.2605
C2A C 1.0680(4) 0.3681(7) 0.2531(3)
H1A H 1.1013 0.3716 0.3185
H2A H 1.0944 0.2379 0.2264
N6A N 1.1168(3) 0.5510(6) 0.2037(2)
H3A H 1.0704 0.5739 0.1500
H4A H 1.1919 0.5224 0.1921
H5A H 1.1172 0.6656 0.2395
loop_
_geom_bond_atom_site_label_1
_geom_bond_atom_site_label_2
_geom_bond_site_symmetry_1
_geom_bond_site_symmetry_2
C1 N1 1_555 1_555
N1 N1F 1_555 1_555
N2 C1 1_555 1_555
N3 N2 1_555 1_555
N4 N3 1_555 1_555
N5 C1 1_555 1_555
O1 N5 1_555 1_555
C2 H1 1_555 1_555
H2 C2 1_555 1_555
N6 C2 1_555 1_555
H3 N6 1_555 1_555
H4 N6 1_555 1_555
H5 N6 1_555 1_555
C1F N1F 1_555 1_555
N2F C1F 1_555 1_555
N3F N2F 1_555 1_555
N4F N3F 1_555 1_555
N5F C1F 1_555 1_555
O1F N5F 1_555 1_555
C2A C2 1_555 1_555
H1A C2A 1_555 1_555
H2A C2A 1_555 1_555
N6A C2A 1_555 1_555
H3A N6A 1_555 1_555
H4A N6A 1_555 1_555
H5A N6A 1_555 1_555
N4 N5 1_555 1_555
N4F N5F 1_555 1_555

#END
