
#######################################################################
#
#                 Cambridge Crystallographic Data Centre
#                                CCDC 
#
#######################################################################
#
# If this CIF has been generated from an entry in the Cambridge 
# Structural Database, then it will include bibliographic, chemical, 
# crystal, experimental, refinement or atomic coordinate data resulting 
# from the CCDC's data processing and validation procedures.
#
#######################################################################

data_GIWTIS
_chemical_formula_moiety         'C4 N7 O6 1-,C1 H4 O1,H2 O1,Na1 1+'
_chemical_name_systematic        
'sodium 7,8-dinitro-2,4-dioxo-4H-pyrazolo[5,1-d][1,2,3,5]tetrazin-6-ide methanol solvate monohydrate'
_symmetry_cell_setting           orthorhombic
_symmetry_space_group_name_H-M   'P c a 21'
_symmetry_Int_Tables_number      29
_space_group_name_Hall           'P 2c -2ac'
loop_
_symmetry_equiv_pos_site_id
_symmetry_equiv_pos_as_xyz
1 x,y,z
2 -x,-y,1/2+z
3 1/2-x,y,1/2+z
4 1/2+x,-y,z
_cell_length_a                   5.8882(12)
_cell_length_b                   10.354(2)
_cell_length_c                   18.821(4)
_cell_angle_alpha                90
_cell_angle_beta                 90
_cell_angle_gamma                90
_cell_volume                     1147.45
_exptl_crystal_colour            colorless
_exptl_crystal_description       plate
_cell_formula_units_Z            4
loop_
_atom_site_label
_atom_site_type_symbol
_atom_site_fract_x
_atom_site_fract_y
_atom_site_fract_z
Na1 Na 0.9826(4) 0.9086(3) 0.70629(16)
O1 O 0.4406(9) 0.9171(5) 1.0115(3)
O2 O 1.1419(9) 0.6695(5) 1.0471(3)
O3 O 1.2793(8) 0.5239(5) 0.9760(3)
O4 O 1.5070(8) 0.6149(5) 0.8574(3)
O5 O 1.3168(11) 0.6070(7) 0.7596(3)
O6 O 0.6513(8) 0.9309(5) 0.7836(3)
N1 N 0.5338(10) 0.9280(6) 0.8991(3)
N2 N 0.5777(10) 0.8827(5) 0.9640(3)
N3 N 0.7483(10) 0.8089(5) 0.9849(3)
N4 N 0.8569(9) 0.8119(6) 0.8631(3)
N5 N 1.0097(8) 0.7679(5) 0.8164(3)
N6 N 1.3359(9) 0.6351(6) 0.8222(3)
N7 N 1.1759(10) 0.6240(6) 0.9876(3)
C1 C 0.6740(10) 0.8943(6) 0.8447(4)
C2 C 0.8898(10) 0.7726(6) 0.9319(4)
C3 C 1.0812(11) 0.6947(7) 0.9283(4)
C4 C 1.1429(10) 0.6944(6) 0.8566(4)
O7 O 0.8348(8) 1.0963(4) 0.6469(3)
H1 H 0.9197 1.1609 0.6419
H2 H 0.7749 1.1062 0.6068
O8 O 0.7582(8) 0.7698(5) 0.6380(3)
H3 H 0.7009 0.7753 0.5973
C5 C 0.8002(15) 0.6358(7) 0.6508(5)
H4 H 0.7959 0.6190 0.7021
H5 H 0.9500 0.6125 0.6321
H6 H 0.6833 0.5839 0.6271
loop_
_geom_bond_atom_site_label_1
_geom_bond_atom_site_label_2
_geom_bond_site_symmetry_1
_geom_bond_site_symmetry_2
O1 N2 1_555 1_555
O2 N7 1_555 1_555
O3 N7 1_555 1_555
O4 N6 1_555 1_555
O5 N6 1_555 1_555
O6 C1 1_555 1_555
N1 N2 1_555 1_555
N2 N3 1_555 1_555
N3 C2 1_555 1_555
N4 N5 1_555 1_555
N5 C4 1_555 1_555
N6 C4 1_555 1_555
N7 C3 1_555 1_555
C1 N1 1_555 1_555
C2 N4 1_555 1_555
C3 C2 1_555 1_555
C4 C3 1_555 1_555
O7 H1 1_555 1_555
H2 O7 1_555 1_555
O8 H3 1_555 1_555
C5 O8 1_555 1_555
H4 C5 1_555 1_555
H5 C5 1_555 1_555
H6 C5 1_555 1_555
N4 C1 1_555 1_555

#END
