
#######################################################################
#
#                 Cambridge Crystallographic Data Centre
#                                CCDC 
#
#######################################################################
#
# If this CIF has been generated from an entry in the Cambridge 
# Structural Database, then it will include bibliographic, chemical, 
# crystal, experimental, refinement or atomic coordinate data resulting 
# from the CCDC's data processing and validation procedures.
#
#######################################################################

data_GIXCUO
_chemical_formula_moiety         'C41 H32'
_chemical_name_systematic        
2,3,4,5-tetraphenyl-2'-propylidene-2'H-spiro[cyclopenta-2,4-diene-1,1'-naphthalene]
_symmetry_cell_setting           monoclinic
_symmetry_space_group_name_H-M   'P 21/c'
_symmetry_Int_Tables_number      14
_space_group_name_Hall           '-P 2ybc'
loop_
_symmetry_equiv_pos_site_id
_symmetry_equiv_pos_as_xyz
1 x,y,z
2 -x,1/2+y,1/2-z
3 -x,-y,-z
4 x,1/2-y,1/2+z
_cell_length_a                   15.5326(5)
_cell_length_b                   9.8514(2)
_cell_length_c                   18.7393(5)
_cell_angle_alpha                90
_cell_angle_beta                 95.579(3)
_cell_angle_gamma                90
_cell_volume                     2853.86
_exptl_crystal_colour            colorless
_exptl_crystal_description       needle
_cell_formula_units_Z            4
loop_
_atom_site_label
_atom_site_type_symbol
_atom_site_fract_x
_atom_site_fract_y
_atom_site_fract_z
C1 C 0.68321(10) 0.60318(15) 0.33813(8)
C2 C 0.77005(10) 0.59980(15) 0.33755(8)
C3 C 0.54670(10) 0.53368(15) 0.25309(8)
C4 C 0.64153(10) 0.54433(15) 0.27034(8)
C5 C 0.70324(10) 0.50141(15) 0.23008(8)
C6 C 0.63229(10) 0.64974(16) 0.39638(8)
C7 C 0.69493(9) 0.43511(16) 0.15869(8)
C8 C 0.79288(10) 0.52549(15) 0.27076(8)
C9 C 0.56947(11) 0.75006(17) 0.38481(9)
H1 H 0.5592 0.7908 0.3388
C10 C 0.82868(10) 0.38197(16) 0.29065(9)
C11 C 0.83635(10) 0.66054(16) 0.38996(8)
C12 C 0.88462(10) 0.31847(16) 0.24700(9)
C13 C 0.84918(10) 0.60583(17) 0.22326(8)
C14 C 0.69131(11) 0.51282(17) 0.09622(9)
H2 H 0.6901 0.6090 0.0994
C15 C 0.84459(11) 0.74092(18) 0.22039(9)
H3 H 0.8093 0.7829 0.2527
C16 C 0.49602(11) 0.46219(18) 0.29749(9)
H4 H 0.5227 0.4185 0.3391
C17 C 0.91055(11) 0.18453(18) 0.26195(10)
H5 H 0.9483 0.1410 0.2322
C18 C 0.91621(11) 0.39330(18) 0.18819(9)
H6 H 0.9490 0.3460 0.1559
C19 C 0.40699(11) 0.4538(2) 0.28179(9)
H7 H 0.3734 0.4032 0.3121
C20 C 0.69580(11) 0.29452(17) 0.15250(9)
H8 H 0.6970 0.2399 0.1944
C21 C 0.52186(12) 0.79114(19) 0.43963(10)
H9 H 0.4808 0.8623 0.4317
C22 C 0.80130(11) 0.31087(17) 0.34849(9)
H10 H 0.7637 0.3537 0.3786
C23 C 0.50543(12) 0.59694(17) 0.19262(9)
H11 H 0.5388 0.6451 0.1611
C24 C 0.90144(11) 0.52523(17) 0.17738(9)
H12 H 0.9255 0.5688 0.1387
C25 C 0.88236(12) 0.11444(18) 0.31906(11)
H13 H 0.9000 0.0232 0.3282
C26 C 0.82808(12) 0.17822(18) 0.36299(10)
H14 H 0.8092 0.1314 0.4030
C27 C 0.68946(12) 0.45116(19) 0.02949(9)
H15 H 0.6864 0.5051 -0.0127
C28 C 0.69486(13) 0.23307(18) 0.08587(10)
H16 H 0.6961 0.1369 0.0824
C29 C 0.91895(11) 0.60478(18) 0.40360(10)
H17 H 0.9331 0.5241 0.3796
C30 C 0.64468(13) 0.5895(2) 0.46372(9)
H18 H 0.6878 0.5216 0.4728
C31 C 0.81918(12) 0.78111(19) 0.42529(10)
H19 H 0.7638 0.8221 0.4163
C32 C 0.36701(11) 0.5189(2) 0.22213(10)
H20 H 0.3060 0.5143 0.2118
C33 C 0.69212(12) 0.3113(2) 0.02449(9)
H21 H 0.6921 0.2690 -0.0211
C34 C 0.96190(13) 0.7846(2) 0.48690(10)
H22 H 1.0043 0.8259 0.5200
C35 C 0.88874(12) 0.83484(18) 0.17204(10)
H23 H 0.9287 0.8953 0.2016
H24 H 0.9234 0.7806 0.1408
C36 C 0.59478(14) 0.6275(3) 0.51765(10)
H25 H 0.6025 0.5835 0.5629
C37 C 0.98058(12) 0.6658(2) 0.45182(11)
H26 H 1.0362 0.6258 0.4609
C38 C 0.53402(13) 0.7286(2) 0.50601(10)
H27 H 0.5005 0.7555 0.5434
C39 C 0.88085(14) 0.8423(2) 0.47314(11)
H28 H 0.8674 0.9240 0.4966
C40 C 0.41643(12) 0.5906(2) 0.17777(10)
H29 H 0.3893 0.6359 0.1368
C41 C 0.82446(16) 0.9196(3) 0.12613(14)
H30 H 0.7876 0.8603 0.0942
H31 H 0.8554 0.9830 0.0975
H32 H 0.7885 0.9707 0.1569
loop_
_geom_bond_atom_site_label_1
_geom_bond_atom_site_label_2
_geom_bond_site_symmetry_1
_geom_bond_site_symmetry_2
C1 C2 1_555 1_555
C2 C8 1_555 1_555
C3 C4 1_555 1_555
C4 C1 1_555 1_555
C5 C4 1_555 1_555
C6 C1 1_555 1_555
C7 C5 1_555 1_555
C8 C5 1_555 1_555
C9 C6 1_555 1_555
H1 C9 1_555 1_555
C10 C8 1_555 1_555
C11 C2 1_555 1_555
C12 C10 1_555 1_555
C13 C8 1_555 1_555
C14 C7 1_555 1_555
H2 C14 1_555 1_555
C15 C13 1_555 1_555
H3 C15 1_555 1_555
C16 C3 1_555 1_555
H4 C16 1_555 1_555
C17 C12 1_555 1_555
H5 C17 1_555 1_555
C18 C12 1_555 1_555
H6 C18 1_555 1_555
C19 C16 1_555 1_555
H7 C19 1_555 1_555
C20 C7 1_555 1_555
H8 C20 1_555 1_555
C21 C9 1_555 1_555
H9 C21 1_555 1_555
C22 C10 1_555 1_555
H10 C22 1_555 1_555
C23 C3 1_555 1_555
H11 C23 1_555 1_555
C24 C13 1_555 1_555
H12 C24 1_555 1_555
C25 C17 1_555 1_555
H13 C25 1_555 1_555
C26 C22 1_555 1_555
H14 C26 1_555 1_555
C27 C14 1_555 1_555
H15 C27 1_555 1_555
C28 C20 1_555 1_555
H16 C28 1_555 1_555
C29 C11 1_555 1_555
H17 C29 1_555 1_555
C30 C6 1_555 1_555
H18 C30 1_555 1_555
C31 C11 1_555 1_555
H19 C31 1_555 1_555
C32 C19 1_555 1_555
H20 C32 1_555 1_555
C33 C27 1_555 1_555
H21 C33 1_555 1_555
C34 H22 1_555 1_555
C35 C15 1_555 1_555
H23 C35 1_555 1_555
H24 C35 1_555 1_555
C36 C30 1_555 1_555
H25 C36 1_555 1_555
C37 C29 1_555 1_555
H26 C37 1_555 1_555
C38 C21 1_555 1_555
H27 C38 1_555 1_555
C39 C31 1_555 1_555
H28 C39 1_555 1_555
C40 C23 1_555 1_555
H29 C40 1_555 1_555
C41 C35 1_555 1_555
H30 C41 1_555 1_555
H31 C41 1_555 1_555
H32 C41 1_555 1_555
C18 C24 1_555 1_555
C25 C26 1_555 1_555
C28 C33 1_555 1_555
C32 C40 1_555 1_555
C34 C37 1_555 1_555
C34 C39 1_555 1_555
C36 C38 1_555 1_555

#END
