
#######################################################################
#
#                 Cambridge Crystallographic Data Centre
#                                CCDC 
#
#######################################################################
#
# If this CIF has been generated from an entry in the Cambridge 
# Structural Database, then it will include bibliographic, chemical, 
# crystal, experimental, refinement or atomic coordinate data resulting 
# from the CCDC's data processing and validation procedures.
#
#######################################################################

data_GIXDUO
_chemical_formula_moiety         'C15 H9 F5 N2 O2'
_chemical_name_systematic        
N-(2-anilino-2-oxoethyl)-2,3,4,5,6-pentafluorobenzamide
_symmetry_cell_setting           triclinic
_symmetry_space_group_name_H-M   'P -1'
_symmetry_Int_Tables_number      2
_space_group_name_Hall           '-P 1'
loop_
_symmetry_equiv_pos_site_id
_symmetry_equiv_pos_as_xyz
1 x,y,z
2 -x,-y,-z
_cell_length_a                   6.214(6)
_cell_length_b                   7.246(7)
_cell_length_c                   15.518(14)
_cell_angle_alpha                93.009(12)
_cell_angle_beta                 96.517(12)
_cell_angle_gamma                95.237(13)
_cell_volume                     689.914
_exptl_crystal_colour            colorless
_exptl_crystal_description       sheet
_cell_formula_units_Z            2
loop_
_atom_site_label
_atom_site_type_symbol
_atom_site_fract_x
_atom_site_fract_y
_atom_site_fract_z
F1 F 0.3427(4) 0.6759(3) 1.32207(14)
F2 F 0.6676(4) 0.7942(4) 1.44379(15)
F3 F 1.0578(4) 0.9289(4) 1.40073(17)
F4 F 1.1178(4) 0.9488(4) 1.23061(17)
F5 F 0.8036(4) 0.8191(4) 1.10681(15)
O1 O 0.2517(5) 0.5349(4) 1.15025(19)
O2 O 0.4697(5) 0.8462(4) 0.91292(17)
N1 N 0.3553(6) 0.7649(6) 1.0688(2)
H1 H 0.422(6) 0.873(5) 1.070(2)
N2 N 0.1807(6) 0.6702(5) 0.83923(19)
H2 H 0.065(7) 0.614(5) 0.848(3)
C1 C 0.5326(6) 0.7380(5) 1.2958(2)
C2 C 0.6986(7) 0.8001(6) 1.3602(2)
C3 C 0.8970(6) 0.8687(6) 1.3388(3)
C4 C 0.9276(6) 0.8776(5) 1.2532(3)
C5 C 0.7598(6) 0.8136(5) 1.1895(2)
C6 C 0.5565(6) 0.7444(5) 1.2084(2)
C7 C 0.3727(6) 0.6716(5) 1.1400(2)
C8 C 0.2040(8) 0.7000(8) 0.9944(3)
H3 H 0.0695 0.7575 0.9968
H4 H 0.1708 0.5666 0.9946
C9 C 0.3004(6) 0.7477(5) 0.9113(2)
C10 C 0.2217(6) 0.6864(5) 0.7518(2)
C11 C 0.4248(7) 0.7414(6) 0.7282(2)
H5 H 0.5437 0.7717 0.7702
C12 C 0.4475(7) 0.7503(6) 0.6408(3)
H6 H 0.5831 0.7885 0.6244
C13 C 0.2751(7) 0.7042(7) 0.5779(3)
H7 H 0.2941 0.7092 0.5194
C14 C 0.0728(8) 0.6503(6) 0.6022(3)
H8 H -0.0458 0.6201 0.5600
C15 C 0.0468(7) 0.6413(5) 0.6894(2)
H9 H -0.0893 0.6046 0.7057
loop_
_geom_bond_atom_site_label_1
_geom_bond_atom_site_label_2
_geom_bond_site_symmetry_1
_geom_bond_site_symmetry_2
F1 C1 1_555 1_555
F2 C2 1_555 1_555
F3 C3 1_555 1_555
F4 C4 1_555 1_555
F5 C5 1_555 1_555
O1 C7 1_555 1_555
O2 C9 1_555 1_555
N1 H1 1_555 1_555
N2 H2 1_555 1_555
C1 C2 1_555 1_555
C2 C3 1_555 1_555
C3 C4 1_555 1_555
C4 C5 1_555 1_555
C5 C6 1_555 1_555
C6 C1 1_555 1_555
C7 N1 1_555 1_555
C8 N1 1_555 1_555
H3 C8 1_555 1_555
H4 C8 1_555 1_555
C9 N2 1_555 1_555
C10 N2 1_555 1_555
C11 C10 1_555 1_555
H5 C11 1_555 1_555
C12 C11 1_555 1_555
H6 C12 1_555 1_555
C13 C12 1_555 1_555
H7 C13 1_555 1_555
C14 C13 1_555 1_555
H8 C14 1_555 1_555
C15 C10 1_555 1_555
H9 C15 1_555 1_555
C6 C7 1_555 1_555
C8 C9 1_555 1_555
C14 C15 1_555 1_555

#END
