
#######################################################################
#
#                 Cambridge Crystallographic Data Centre
#                                CCDC 
#
#######################################################################
#
# If this CIF has been generated from an entry in the Cambridge 
# Structural Database, then it will include bibliographic, chemical, 
# crystal, experimental, refinement or atomic coordinate data resulting 
# from the CCDC's data processing and validation procedures.
#
#######################################################################

data_GIXDEZ
_chemical_formula_moiety         'C42 H46 N2 O6'
_chemical_name_systematic        
26,28-bis{2-[2-(2-methoxyethoxy)ethoxy]ethyl}-26,28-diazaheptacyclo[19.3.1.1^2,6^.1^3,24^.1^9,13^.1^12,15^.1^14,18^]triaconta-1(25),2(30),3,5,7,9(29),10,12,14(27),15,17,19,21,23-tetradecaene
_symmetry_cell_setting           monoclinic
_symmetry_space_group_name_H-M   'P 21/c'
_symmetry_Int_Tables_number      14
_space_group_name_Hall           '-P 2ybc'
loop_
_symmetry_equiv_pos_site_id
_symmetry_equiv_pos_as_xyz
1 x,y,z
2 -x,1/2+y,1/2-z
3 -x,-y,-z
4 x,1/2-y,1/2+z
_cell_length_a                   14.0275(4)
_cell_length_b                   14.5544(4)
_cell_length_c                   8.5313(2)
_cell_angle_alpha                90
_cell_angle_beta                 96.7600(10)
_cell_angle_gamma                90
_cell_volume                     1729.66
_exptl_crystal_colour            yellow
_exptl_crystal_description       prism
_cell_formula_units_Z            2
loop_
_atom_site_label
_atom_site_type_symbol
_atom_site_fract_x
_atom_site_fract_y
_atom_site_fract_z
C1 C 0.46978(18) 0.62709(16) 0.3967(3)
C2 C 0.39071(19) 0.68432(18) 0.4005(3)
H1 H 0.3873 0.7267 0.4843
C3 C 0.31755(19) 0.67730(18) 0.2784(3)
H2 H 0.2637 0.7169 0.2789
C4 C 0.31834(17) 0.61427(17) 0.1524(3)
C5 C 0.39467(17) 0.55222(16) 0.1594(3)
H3 H 0.3942 0.5047 0.0829
C6 C 0.47127(17) 0.55973(16) 0.2778(3)
C7 C 0.56591(17) 0.51869(16) 0.2992(3)
C8 C 0.61729(18) 0.56333(16) 0.4301(3)
C9 C 0.71432(19) 0.54689(18) 0.4707(3)
H4 H 0.7482 0.5735 0.5626
C10 C 0.76002(19) 0.49039(18) 0.3729(3)
H5 H 0.8268 0.4794 0.3985
C11 C 0.71231(18) 0.44829(16) 0.2368(3)
C12 C 0.61295(17) 0.45871(16) 0.2072(3)
H6 H 0.5775 0.4250 0.1246
C13 C 0.77198(18) 0.40116(17) 0.1310(3)
H7 H 0.8324 0.3826 0.1834
C14 C 0.76072(18) 0.37819(18) -0.0231(3)
H8 H 0.8166 0.3508 -0.0558
C15 C 0.5809(2) 0.68132(19) 0.6325(3)
H9 H 0.6278 0.6471 0.7066
H10 H 0.5223 0.6903 0.6848
C16 C 0.6226(2) 0.77415(19) 0.6012(3)
H11 H 0.5752 0.8110 0.5325
H12 H 0.6388 0.8077 0.7017
C17 C 0.7641(2) 0.8400(2) 0.5274(4)
H13 H 0.7917 0.8540 0.6370
H14 H 0.7244 0.8931 0.4869
C18 C 0.8424(2) 0.8258(2) 0.4283(4)
H15 H 0.8151 0.8057 0.3215
H16 H 0.8768 0.8845 0.4176
C19 C 0.9836(3) 0.7533(3) 0.3977(7)
H17 H 1.0211 0.8111 0.4035
H18 H 0.9574 0.7426 0.2863
C20 C 1.0467(5) 0.6746(5) 0.4572(9)
H19 H 1.1080 0.6805 0.4113
H20 H 1.0615 0.6816 0.5729
C21 C 1.0287(6) 0.5547(6) 0.2780(10)
H21 H 0.9981 0.4944 0.2609
H22 H 1.0978 0.5488 0.2723
H23 H 1.0009 0.5976 0.1964
N1 N 0.55692(15) 0.62610(15) 0.4917(2)
O1 O 0.70619(14) 0.76058(12) 0.5261(2)
O2 O 0.90643(16) 0.75987(18) 0.4951(3)
O3 O 1.0133(3) 0.5883(3) 0.4281(6)
C1B C 0.53022(18) 0.37291(16) -0.3967(3)
C2B C 0.60929(19) 0.31568(18) -0.4005(3)
H1B H 0.6127 0.2733 -0.4843
C3B C 0.68245(19) 0.32270(18) -0.2784(3)
H2B H 0.7363 0.2831 -0.2789
C4B C 0.68166(17) 0.38573(17) -0.1524(3)
C5B C 0.60533(17) 0.44778(16) -0.1594(3)
H3B H 0.6058 0.4953 -0.0829
C6B C 0.52873(17) 0.44027(16) -0.2778(3)
C7B C 0.43409(17) 0.48131(16) -0.2992(3)
C8B C 0.38271(18) 0.43667(16) -0.4301(3)
C9B C 0.28568(19) 0.45311(18) -0.4707(3)
H4B H 0.2518 0.4265 -0.5626
C10B C 0.23998(19) 0.50961(18) -0.3729(3)
H5B H 0.1732 0.5206 -0.3985
C11B C 0.28769(18) 0.55171(16) -0.2368(3)
C12B C 0.38705(17) 0.54129(16) -0.2072(3)
H6B H 0.4225 0.5750 -0.1246
C13B C 0.22802(18) 0.59884(17) -0.1310(3)
H7B H 0.1676 0.6174 -0.1834
C14B C 0.23928(18) 0.62181(18) 0.0231(3)
H8B H 0.1834 0.6492 0.0558
C15B C 0.4191(2) 0.31868(19) -0.6325(3)
H9B H 0.3722 0.3529 -0.7066
H10B H 0.4777 0.3097 -0.6848
C16B C 0.3774(2) 0.22585(19) -0.6012(3)
H11B H 0.4248 0.1890 -0.5325
H12B H 0.3612 0.1923 -0.7017
C17B C 0.2359(2) 0.1600(2) -0.5274(4)
H13B H 0.2083 0.1460 -0.6370
H14B H 0.2756 0.1069 -0.4869
C18B C 0.1576(2) 0.1742(2) -0.4283(4)
H15B H 0.1849 0.1943 -0.3215
H16B H 0.1232 0.1155 -0.4176
C19B C 0.0164(3) 0.2467(3) -0.3977(7)
H17B H -0.0211 0.1889 -0.4035
H18B H 0.0426 0.2574 -0.2863
C20B C -0.0467(5) 0.3254(5) -0.4572(9)
H19B H -0.1080 0.3195 -0.4113
H20B H -0.0615 0.3184 -0.5729
C21B C -0.0287(6) 0.4453(6) -0.2780(10)
H21B H 0.0019 0.5056 -0.2609
H22B H -0.0978 0.4512 -0.2723
H23B H -0.0009 0.4024 -0.1964
N1B N 0.44308(15) 0.37390(15) -0.4917(2)
O1B O 0.29381(14) 0.23942(12) -0.5261(2)
O2B O 0.09357(16) 0.24013(18) -0.4951(3)
O3B O -0.0133(3) 0.4117(3) -0.4281(6)
C22? C 1.0002(11) 0.7386(10) 0.477(2)
H24? H 1.0384 0.7270 0.5803
H25? H 1.0308 0.7884 0.4219
C23? C 0.9893(10) 0.6502(9) 0.3757(16)
H26? H 0.9683 0.5994 0.4408
H27? H 0.9385 0.6600 0.2865
C24? C 1.0561(10) 0.5319 0.2516
H28? H 1.1152 0.5120 0.2109
H29? H 1.0033 0.5325 0.1654
H30? H 1.0407 0.4893 0.3339
O4? O 1.0696(7) 0.6253(7) 0.3188(11)
loop_
_geom_bond_atom_site_label_1
_geom_bond_atom_site_label_2
_geom_bond_site_symmetry_1
_geom_bond_site_symmetry_2
C1 C2 1_555 1_555
C2 H1 1_555 1_555
C3 C2 1_555 1_555
H2 C3 1_555 1_555
C4 C3 1_555 1_555
C5 C4 1_555 1_555
H3 C5 1_555 1_555
C6 C1 1_555 1_555
C7 C6 1_555 1_555
C8 C7 1_555 1_555
C9 C8 1_555 1_555
H4 C9 1_555 1_555
C10 C9 1_555 1_555
H5 C10 1_555 1_555
C11 C10 1_555 1_555
C12 C7 1_555 1_555
H6 C12 1_555 1_555
C13 C11 1_555 1_555
H7 C13 1_555 1_555
C14 C13 1_555 1_555
H8 C14 1_555 1_555
C15 H9 1_555 1_555
H10 C15 1_555 1_555
C16 C15 1_555 1_555
H11 C16 1_555 1_555
H12 C16 1_555 1_555
C17 H13 1_555 1_555
H14 C17 1_555 1_555
C18 C17 1_555 1_555
H15 C18 1_555 1_555
H16 C18 1_555 1_555
C19 H17 1_555 1_555
H18 C19 1_555 1_555
C20 C19 1_555 1_555
H19 C20 1_555 1_555
H20 C20 1_555 1_555
C21 H21 1_555 1_555
H22 C21 1_555 1_555
H23 C21 1_555 1_555
N1 C1 1_555 1_555
O1 C16 1_555 1_555
O2 C18 1_555 1_555
O3 C20 1_555 1_555
C1B C2B 1_555 1_555
C2B H1B 1_555 1_555
C3B C2B 1_555 1_555
H2B C3B 1_555 1_555
C4B C14 1_555 1_555
C5B C4B 1_555 1_555
H3B C5B 1_555 1_555
C6B C1B 1_555 1_555
C7B C6B 1_555 1_555
C8B C7B 1_555 1_555
C9B C8B 1_555 1_555
H4B C9B 1_555 1_555
C10B C9B 1_555 1_555
H5B C10B 1_555 1_555
C11B C10B 1_555 1_555
C12B C7B 1_555 1_555
H6B C12B 1_555 1_555
C13B C11B 1_555 1_555
H7B C13B 1_555 1_555
C14B C4 1_555 1_555
H8B C14B 1_555 1_555
C15B H9B 1_555 1_555
H10B C15B 1_555 1_555
C16B C15B 1_555 1_555
H11B C16B 1_555 1_555
H12B C16B 1_555 1_555
C17B H13B 1_555 1_555
H14B C17B 1_555 1_555
C18B C17B 1_555 1_555
H15B C18B 1_555 1_555
H16B C18B 1_555 1_555
C19B H17B 1_555 1_555
H18B C19B 1_555 1_555
C20B C19B 1_555 1_555
H19B C20B 1_555 1_555
H20B C20B 1_555 1_555
C21B H21B 1_555 1_555
H22B C21B 1_555 1_555
H23B C21B 1_555 1_555
N1B C1B 1_555 1_555
O1B C16B 1_555 1_555
O2B C18B 1_555 1_555
O3B C20B 1_555 1_555
C5 C6 1_555 1_555
C8 N1 1_555 1_555
C11 C12 1_555 1_555
C15 N1 1_555 1_555
C17 O1 1_555 1_555
C19 O2 1_555 1_555
C21 O3 1_555 1_555
C3B C4B 1_555 1_555
C5B C6B 1_555 1_555
C8B N1B 1_555 1_555
C11B C12B 1_555 1_555
C13B C14B 1_555 1_555
C15B N1B 1_555 1_555
C17B O1B 1_555 1_555
C19B O2B 1_555 1_555
C21B O3B 1_555 1_555

#END
