
#######################################################################
#
#                 Cambridge Crystallographic Data Centre
#                                CCDC 
#
#######################################################################
#
# If this CIF has been generated from an entry in the Cambridge 
# Structural Database, then it will include bibliographic, chemical, 
# crystal, experimental, refinement or atomic coordinate data resulting 
# from the CCDC's data processing and validation procedures.
#
#######################################################################

data_GIXFEA
_chemical_formula_moiety         'C17 H13 F5 N2 O2'
_chemical_name_systematic        
N-(4-anilino-4-oxobutyl)-2,3,4,5,6-pentafluorobenzamide
_symmetry_cell_setting           triclinic
_symmetry_space_group_name_H-M   'P -1'
_symmetry_Int_Tables_number      2
_space_group_name_Hall           '-P 1'
loop_
_symmetry_equiv_pos_site_id
_symmetry_equiv_pos_as_xyz
1 x,y,z
2 -x,-y,-z
_cell_length_a                   6.303(6)
_cell_length_b                   7.483(7)
_cell_length_c                   17.132(15)
_cell_angle_alpha                85.192(18)
_cell_angle_beta                 81.417(18)
_cell_angle_gamma                83.941(18)
_cell_volume                     792.618
_exptl_crystal_colour            colorless
_exptl_crystal_description       prismatic
_cell_formula_units_Z            2
loop_
_atom_site_label
_atom_site_type_symbol
_atom_site_fract_x
_atom_site_fract_y
_atom_site_fract_z
F1 F 0.4580(2) 0.8163(2) 0.34271(8)
F2 F 0.7008(3) 0.7056(3) 0.45590(9)
F3 F 1.1183(3) 0.5668(3) 0.41857(9)
F4 F 1.2895(2) 0.5397(2) 0.26426(9)
F5 F 1.0571(2) 0.6587(2) 0.14942(8)
N1 N 0.6322(3) 0.7001(3) 0.11654(11)
N2 N 0.9619(4) 0.8524(3) -0.18418(11)
O1 O 0.4893(3) 0.9473(2) 0.18118(11)
O2 O 1.1934(3) 0.6707(2) -0.11529(10)
C1 C 0.6084(3) 0.8054(3) 0.17634(13)
C2 C 0.7463(4) 0.7413(3) 0.24116(13)
C3 C 0.6644(4) 0.7528(3) 0.32051(13)
C4 C 0.7877(4) 0.6943(4) 0.37997(14)
C5 C 0.9978(4) 0.6232(4) 0.36104(15)
C6 C 1.0851(4) 0.6103(3) 0.28333(15)
C7 C 0.9591(4) 0.6695(3) 0.22474(13)
C8 C 0.5305(4) 0.7488(3) 0.04528(13)
H1 H 0.4832 0.8765 0.0429
H2 H 0.4045 0.6833 0.0479
C9 C 0.6852(4) 0.7059(4) -0.02907(14)
H3 H 0.6082 0.7277 -0.0744
H4 H 0.7367 0.5791 -0.0254
C10 C 0.8784(4) 0.8177(3) -0.04230(13)
H5 H 0.8275 0.9446 -0.0457
H6 H 0.9571 0.7949 0.0026
C11 C 1.0286(4) 0.7736(3) -0.11709(13)
C12 C 1.0570(4) 0.8286(3) -0.26369(14)
C13 C 0.9227(4) 0.8704(4) -0.32172(15)
H7 H 0.7777 0.9078 -0.3074
C14 C 1.0050(5) 0.8561(4) -0.40026(16)
H8 H 0.9152 0.8844 -0.4388
C15 C 1.2199(5) 0.8001(5) -0.42224(16)
H9 H 1.2752 0.7913 -0.4754
C16 C 1.3524(5) 0.7570(4) -0.36432(16)
H10 H 1.4967 0.7176 -0.3790
C17 C 1.2734(4) 0.7718(4) -0.28496(15)
H11 H 1.3638 0.7442 -0.2465
H12 H 0.704(4) 0.588(4) 0.1164(15)
H13 H 0.837(5) 0.912(4) -0.1780(16)
loop_
_geom_bond_atom_site_label_1
_geom_bond_atom_site_label_2
_geom_bond_site_symmetry_1
_geom_bond_site_symmetry_2
F1 C3 1_555 1_555
F2 C4 1_555 1_555
F3 C5 1_555 1_555
F4 C6 1_555 1_555
F5 C7 1_555 1_555
N1 C1 1_555 1_555
N2 C11 1_555 1_555
O1 C1 1_555 1_555
O2 C11 1_555 1_555
C1 C2 1_555 1_555
C2 C3 1_555 1_555
C3 C4 1_555 1_555
C4 C5 1_555 1_555
C5 C6 1_555 1_555
C6 C7 1_555 1_555
C7 C2 1_555 1_555
C8 N1 1_555 1_555
H1 C8 1_555 1_555
H2 C8 1_555 1_555
C9 C8 1_555 1_555
H3 C9 1_555 1_555
H4 C9 1_555 1_555
C10 C9 1_555 1_555
H5 C10 1_555 1_555
H6 C10 1_555 1_555
C11 C10 1_555 1_555
C12 N2 1_555 1_555
C13 C12 1_555 1_555
H7 C13 1_555 1_555
C14 C13 1_555 1_555
H8 C14 1_555 1_555
C15 C14 1_555 1_555
H9 C15 1_555 1_555
C16 C15 1_555 1_555
H10 C16 1_555 1_555
C17 C12 1_555 1_555
H11 C17 1_555 1_555
H12 N1 1_555 1_555
H13 N2 1_555 1_555
C16 C17 1_555 1_555

#END
