
#######################################################################
#
#                 Cambridge Crystallographic Data Centre
#                                CCDC 
#
#######################################################################
#
# If this CIF has been generated from an entry in the Cambridge 
# Structural Database, then it will include bibliographic, chemical, 
# crystal, experimental, refinement or atomic coordinate data resulting 
# from the CCDC's data processing and validation procedures.
#
#######################################################################

data_GIXGAX
_chemical_formula_moiety         'C25 H28 F5 N3 O3'
_chemical_name_systematic        
N-(6-((6-anilino-6-oxohexyl)amino)-6-oxohexyl)-2,3,4,5,6-pentafluorobenzamide
_symmetry_cell_setting           monoclinic
_symmetry_space_group_name_H-M   'P 21/c'
_symmetry_Int_Tables_number      14
_space_group_name_Hall           '-P 2ybc'
loop_
_symmetry_equiv_pos_site_id
_symmetry_equiv_pos_as_xyz
1 x,y,z
2 -x,1/2+y,1/2-z
3 -x,-y,-z
4 x,1/2-y,1/2+z
_cell_length_a                   18.850(3)
_cell_length_b                   9.5190(13)
_cell_length_c                   13.5917(19)
_cell_angle_alpha                90
_cell_angle_beta                 100.231(2)
_cell_angle_gamma                90
_cell_volume                     2400.02
_exptl_crystal_colour            colorless
_exptl_crystal_description       plate
_cell_formula_units_Z            4
loop_
_atom_site_label
_atom_site_type_symbol
_atom_site_fract_x
_atom_site_fract_y
_atom_site_fract_z
F1 F 0.85200(18) 0.1129(3) -0.3892(2)
F2 F 0.96305(18) 0.2674(3) -0.4291(2)
F3 F 1.02187(17) 0.4701(4) -0.2995(3)
F4 F 0.9696(2) 0.5162(4) -0.1292(3)
F5 F 0.85860(17) 0.3654(3) -0.0882(2)
O1 O 0.7976(2) 0.0100(4) -0.2194(3)
O2 O 0.5092(2) 0.3500(4) 0.2177(3)
O3 O 0.2736(2) 0.0029(3) 0.7226(3)
N1 N 0.7389(2) 0.2041(4) -0.1799(3)
H1 H 0.7358 0.2961 -0.1851
N2 N 0.4765(2) 0.1507(4) 0.2845(3)
H2 H 0.4774 0.0582 0.2849
N3 N 0.2199(2) 0.2081(4) 0.7555(3)
H3 H 0.2143 0.2961 0.7358
C1 C 0.8813(3) 0.2102(5) -0.3229(3)
C2 C 0.9370(3) 0.2872(5) -0.3446(4)
C3 C 0.9677(3) 0.3913(6) -0.2788(4)
C4 C 0.9396(3) 0.4161(6) -0.1933(4)
C5 C 0.8830(3) 0.3382(5) -0.1738(3)
C6 C 0.8514(3) 0.2326(5) -0.2368(3)
C7 C 0.7926(3) 0.1382(5) -0.2123(3)
C8 C 0.6847(3) 0.1268(5) -0.1354(4)
H4 H 0.7046 0.0347 -0.1103
H5 H 0.6415 0.1096 -0.1870
C9 C 0.6638(3) 0.2113(5) -0.0495(4)
H6 H 0.7081 0.2436 -0.0049
H7 H 0.6365 0.2956 -0.0770
C10 C 0.6183(2) 0.1273(5) 0.0116(4)
H8 H 0.5767 0.0861 -0.0340
H9 H 0.6475 0.0490 0.0454
C11 C 0.5907(3) 0.2163(5) 0.0897(4)
H10 H 0.6321 0.2625 0.1324
H11 H 0.5589 0.2909 0.0555
C12 C 0.5493(3) 0.1317(5) 0.1553(4)
H12 H 0.5834 0.0683 0.1980
H13 H 0.5135 0.0723 0.1120
C13 C 0.5104(2) 0.2204(5) 0.2218(4)
C14 C 0.4380(3) 0.2246(5) 0.3525(4)
H14 H 0.4014 0.2868 0.3132
H15 H 0.4724 0.2845 0.3975
C15 C 0.4007(3) 0.1255(5) 0.4155(4)
H16 H 0.3647 0.0679 0.3711
H17 H 0.4367 0.0614 0.4538
C16 C 0.3635(3) 0.2084(5) 0.4871(4)
H18 H 0.3259 0.2684 0.4477
H19 H 0.3993 0.2712 0.5273
C17 C 0.3288(3) 0.1176(5) 0.5578(4)
H20 H 0.2939 0.0524 0.5184
H21 H 0.3663 0.0607 0.6001
C18 C 0.2901(3) 0.2078(5) 0.6242(4)
H22 H 0.3242 0.2797 0.6572
H23 H 0.2500 0.2576 0.5814
C19 C 0.2600(2) 0.1274(5) 0.7043(4)
C20 C 0.1854(2) 0.1702(5) 0.8365(3)
C21 C 0.1963(3) 0.0428(5) 0.8872(3)
H24 H 0.2275 -0.0260 0.8674
C22 C 0.1611(3) 0.0174(5) 0.9669(4)
H25 H 0.1688 -0.0693 1.0017
C23 C 0.1150(3) 0.1158(6) 0.9967(4)
H26 H 0.0908 0.0964 1.0508
C24 C 0.1402(3) 0.2700(6) 0.8679(4)
H27 H 0.1337 0.3580 0.8347
C25 C 0.1049(3) 0.2432(6) 0.9463(4)
H28 H 0.0736 0.3119 0.9660
loop_
_geom_bond_atom_site_label_1
_geom_bond_atom_site_label_2
_geom_bond_site_symmetry_1
_geom_bond_site_symmetry_2
F1 C1 1_555 1_555
F2 C2 1_555 1_555
F3 C3 1_555 1_555
F4 C4 1_555 1_555
F5 C5 1_555 1_555
O1 C7 1_555 1_555
O2 C13 1_555 1_555
O3 C19 1_555 1_555
N1 H1 1_555 1_555
N2 H2 1_555 1_555
N3 H3 1_555 1_555
C1 C2 1_555 1_555
C2 C3 1_555 1_555
C3 C4 1_555 1_555
C4 C5 1_555 1_555
C5 C6 1_555 1_555
C6 C1 1_555 1_555
C7 N1 1_555 1_555
C8 N1 1_555 1_555
H4 C8 1_555 1_555
H5 C8 1_555 1_555
C9 C8 1_555 1_555
H6 C9 1_555 1_555
H7 C9 1_555 1_555
C10 C9 1_555 1_555
H8 C10 1_555 1_555
H9 C10 1_555 1_555
C11 C10 1_555 1_555
H10 C11 1_555 1_555
H11 C11 1_555 1_555
C12 C11 1_555 1_555
H12 C12 1_555 1_555
H13 C12 1_555 1_555
C13 N2 1_555 1_555
C14 N2 1_555 1_555
H14 C14 1_555 1_555
H15 C14 1_555 1_555
C15 C14 1_555 1_555
H16 C15 1_555 1_555
H17 C15 1_555 1_555
C16 C15 1_555 1_555
H18 C16 1_555 1_555
H19 C16 1_555 1_555
C17 C16 1_555 1_555
H20 C17 1_555 1_555
H21 C17 1_555 1_555
C18 C17 1_555 1_555
H22 C18 1_555 1_555
H23 C18 1_555 1_555
C19 N3 1_555 1_555
C20 N3 1_555 1_555
C21 C20 1_555 1_555
H24 C21 1_555 1_555
C22 C21 1_555 1_555
H25 C22 1_555 1_555
C23 C22 1_555 1_555
H26 C23 1_555 1_555
C24 C20 1_555 1_555
H27 C24 1_555 1_555
C25 C23 1_555 1_555
H28 C25 1_555 1_555
C6 C7 1_555 1_555
C12 C13 1_555 1_555
C18 C19 1_555 1_555
C24 C25 1_555 1_555

#END
