
#######################################################################
#
#                 Cambridge Crystallographic Data Centre
#                                CCDC 
#
#######################################################################
#
# If this CIF has been generated from an entry in the Cambridge 
# Structural Database, then it will include bibliographic, chemical, 
# crystal, experimental, refinement or atomic coordinate data resulting 
# from the CCDC's data processing and validation procedures.
#
#######################################################################

data_GIXGOL
_chemical_formula_moiety         'C16 H15 Cl2 N1 O3'
_chemical_name_systematic        
'Methyl N-(2,6-dichlorophenyl)-2-phenylserinate'
_symmetry_cell_setting           monoclinic
_symmetry_space_group_name_H-M   'P 21/c'
_symmetry_Int_Tables_number      14
_space_group_name_Hall           '-P 2ybc'
loop_
_symmetry_equiv_pos_site_id
_symmetry_equiv_pos_as_xyz
1 x,y,z
2 -x,1/2+y,1/2-z
3 -x,-y,-z
4 x,1/2-y,1/2+z
_cell_length_a                   13.3147(6)
_cell_length_b                   13.9822(6)
_cell_length_c                   8.6877(4)
_cell_angle_alpha                90
_cell_angle_beta                 102.7060(10)
_cell_angle_gamma                90
_cell_volume                     1577.77
_exptl_crystal_colour            colorless
_exptl_crystal_description       block
_cell_formula_units_Z            4
loop_
_atom_site_label
_atom_site_type_symbol
_atom_site_fract_x
_atom_site_fract_y
_atom_site_fract_z
N1 N 0.70246(14) 1.00708(13) -0.0076(2)
H1 H 0.6921 1.0164 0.0855
Cl1 Cl 0.85917(6) 0.85930(5) 0.13172(8)
Cl2 Cl 0.50684(6) 0.97699(7) -0.26297(12)
O1 O 0.86635(12) 1.20874(11) -0.03184(18)
O2 O 0.85898(13) 1.10542(13) 0.16014(18)
O3 O 0.61933(15) 1.18843(15) 0.0135(2)
C1 C 0.59916(19) 0.8914(2) -0.1916(3)
C2 C 0.5823(3) 0.7992(3) -0.2505(4)
H2 H 0.5261 0.7865 -0.3326
C3 C 0.6478(3) 0.7271(3) -0.1885(5)
H3 H 0.6355 0.6651 -0.2270
C4 C 0.7314(3) 0.7460(2) -0.0697(4)
H4 H 0.7756 0.6968 -0.0257
C5 C 0.7498(2) 0.83839(17) -0.0158(3)
C6 C 0.68531(16) 0.91504(16) -0.0736(2)
C7 C 0.73778(15) 1.08914(14) -0.0915(2)
C8 C 0.77621(15) 1.05824(14) -0.2369(2)
C9 C 0.72621(16) 1.08341(17) -0.3888(2)
H5 H 0.6669 1.1205 -0.4048
C10 C 0.76430(19) 1.0535(2) -0.5168(3)
H6 H 0.7300 1.0701 -0.6184
C11 C 0.8524(2) 0.99930(18) -0.4947(3)
H7 H 0.8778 0.9797 -0.5810
C12 C 0.90251(19) 0.97419(17) -0.3454(3)
H8 H 0.9620 0.9373 -0.3302
C13 C 0.86491(17) 1.00361(15) -0.2173(2)
H9 H 0.8997 0.9865 -0.1162
C14 C 0.65362(17) 1.16635(18) -0.1251(3)
H10 H 0.6807 1.2236 -0.1644
H11 H 0.5961 1.1437 -0.2057
C15 C 0.82818(16) 1.13396(15) 0.0284(2)
C16 C 0.9494(2) 1.25826(19) 0.0729(3)
H12 H 0.9715 1.3112 0.0182
H13 H 1.0059 1.2151 0.1072
H14 H 0.9258 1.2814 0.1629
H15 H 0.597(3) 1.137(2) 0.045(4)
loop_
_geom_bond_atom_site_label_1
_geom_bond_atom_site_label_2
_geom_bond_site_symmetry_1
_geom_bond_site_symmetry_2
N1 H1 1_555 1_555
Cl1 C5 1_555 1_555
Cl2 C1 1_555 1_555
O1 C15 1_555 1_555
O2 C15 1_555 1_555
O3 C14 1_555 1_555
C1 C2 1_555 1_555
C2 H2 1_555 1_555
C3 C2 1_555 1_555
H3 C3 1_555 1_555
C4 C3 1_555 1_555
H4 C4 1_555 1_555
C5 C4 1_555 1_555
C6 N1 1_555 1_555
C7 N1 1_555 1_555
C8 C7 1_555 1_555
C9 C8 1_555 1_555
H5 C9 1_555 1_555
C10 C9 1_555 1_555
H6 C10 1_555 1_555
C11 C10 1_555 1_555
H7 C11 1_555 1_555
C12 C11 1_555 1_555
H8 C12 1_555 1_555
C13 C8 1_555 1_555
H9 C13 1_555 1_555
C14 C7 1_555 1_555
H10 C14 1_555 1_555
H11 C14 1_555 1_555
C15 C7 1_555 1_555
C16 O1 1_555 1_555
H12 C16 1_555 1_555
H13 C16 1_555 1_555
H14 C16 1_555 1_555
H15 O3 1_555 1_555
C1 C6 1_555 1_555
C5 C6 1_555 1_555
C12 C13 1_555 1_555

#END
