
#######################################################################
#
#                 Cambridge Crystallographic Data Centre
#                                CCDC 
#
#######################################################################
#
# If this CIF has been generated from an entry in the Cambridge 
# Structural Database, then it will include bibliographic, chemical, 
# crystal, experimental, refinement or atomic coordinate data resulting 
# from the CCDC's data processing and validation procedures.
#
#######################################################################

data_GIXHOL
_chemical_formula_moiety         'C16 H32 Li1 O8 1+,C6 H4 P3 1-'
_chemical_name_systematic        
'bis(12-Crown-4)-lithium 1,2,3-triphosphaindenyl'
_symmetry_cell_setting           monoclinic
_symmetry_space_group_name_H-M   'P 21/n'
_symmetry_Int_Tables_number      14
_space_group_name_Hall           '-P 2yn'
loop_
_symmetry_equiv_pos_site_id
_symmetry_equiv_pos_as_xyz
1 x,y,z
2 1/2-x,1/2+y,1/2-z
3 -x,-y,-z
4 1/2+x,1/2-y,1/2+z
_cell_length_a                   11.7697(2)
_cell_length_b                   8.3447(2)
_cell_length_c                   26.3675(5)
_cell_angle_alpha                90
_cell_angle_beta                 94.2550(10)
_cell_angle_gamma                90
_cell_volume                     2582.54
_exptl_crystal_colour            yellow
_exptl_crystal_description       plate
_chemical_melting_point          'decomposes above 169 deg.C'
_cell_formula_units_Z            4
_exptl_crystal_recrystallization_method tetrahydrofuran
loop_
_atom_site_label
_atom_site_type_symbol
_atom_site_fract_x
_atom_site_fract_y
_atom_site_fract_z
P1 P 0.79946(4) 0.41479(7) 0.05455(2)
P2 P 0.79094(4) 0.64711(7) 0.08408(2)
P3 P 0.79410(4) 0.59938(6) 0.16212(2)
C1 C 0.80730(15) 0.3055(3) 0.11266(8)
C2 C 0.80413(15) 0.3861(2) 0.16022(8)
C3 C 0.81168(15) 0.2944(3) 0.20541(8)
H1 H 0.8080 0.3470 0.2372
C4 C 0.82414(16) 0.1308(3) 0.20440(8)
H2 H 0.8302 0.0718 0.2353
C5 C 0.82789(16) 0.0507(3) 0.15759(8)
H3 H 0.8366 -0.0624 0.1569
C6 C 0.81891(16) 0.1363(3) 0.11288(8)
H4 H 0.8205 0.0808 0.0815
Li1 Li 0.3137(3) 0.1697(4) 0.12173(13)
O1 O 0.18518(11) 0.38036(18) 0.12974(5)
C7 C 0.14104(17) 0.4246(3) 0.07957(8)
H5 H 0.2002 0.4833 0.0623
H6 H 0.0749 0.4969 0.0819
C8 C 0.10485(17) 0.2791(3) 0.04884(8)
H7 H 0.0400 0.2256 0.0637
H8 H 0.0810 0.3101 0.0134
O2 O 0.20059(11) 0.17374(18) 0.04981(5)
C9 C 0.17330(17) 0.0189(3) 0.02970(8)
H9 H 0.2418 -0.0288 0.0161
H10 H 0.1138 0.0289 0.0013
C10 C 0.13123(18) -0.0901(3) 0.07007(9)
H11 H 0.0608 -0.0465 0.0831
H12 H 0.1149 -0.1983 0.0560
O3 O 0.22026(12) -0.0968(2) 0.10958(6)
C11 C 0.18550(18) -0.1510(3) 0.15722(8)
H13 H 0.2528 -0.1905 0.1783
H14 H 0.1316 -0.2414 0.1515
C12 C 0.12898(17) -0.0190(3) 0.18541(9)
H15 H 0.0582 0.0159 0.1659
H16 H 0.1089 -0.0582 0.2190
O4 O 0.20689(11) 0.11176(19) 0.19163(6)
C13 C 0.15482(17) 0.2564(3) 0.20777(8)
H17 H 0.2135 0.3258 0.2254
H18 H 0.0975 0.2302 0.2321
C14 C 0.09815(17) 0.3448(3) 0.16292(8)
H19 H 0.0383 0.2775 0.1453
H20 H 0.0626 0.4449 0.1743
O5 O 0.41615(11) 0.33277(18) 0.18745(6)
C15 C 0.44507(17) 0.4809(3) 0.16468(9)
H21 H 0.5005 0.5391 0.1880
H22 H 0.3758 0.5481 0.1594
C16 C 0.49561(17) 0.4555(3) 0.11445(8)
H23 H 0.5108 0.5598 0.0984
H24 H 0.5682 0.3956 0.1194
O6 O 0.41430(11) 0.36591(17) 0.08309(6)
C17 C 0.46115(17) 0.3016(3) 0.03862(8)
H25 H 0.5150 0.3796 0.0254
H26 H 0.3992 0.2824 0.0118
C18 C 0.52212(17) 0.1471(3) 0.05133(8)
H27 H 0.5551 0.1029 0.0208
H28 H 0.5845 0.1648 0.0781
O7 O 0.43919(11) 0.03905(18) 0.06907(5)
C19 C 0.48710(17) -0.1001(3) 0.09387(8)
H29 H 0.5506 -0.1405 0.0748
H30 H 0.4284 -0.1851 0.0939
C20 C 0.53063(17) -0.0637(3) 0.14785(8)
H31 H 0.5589 -0.1627 0.1652
H32 H 0.5940 0.0145 0.1483
O8 O 0.43733(11) 0.00155(18) 0.17299(5)
C21 C 0.47255(17) 0.0797(3) 0.21963(8)
H33 H 0.5355 0.0183 0.2374
H34 H 0.4082 0.0820 0.2418
C22 C 0.51160(16) 0.2480(3) 0.21060(9)
H35 H 0.5384 0.2992 0.2432
H36 H 0.5750 0.2479 0.1879
loop_
_geom_bond_atom_site_label_1
_geom_bond_atom_site_label_2
_geom_bond_site_symmetry_1
_geom_bond_site_symmetry_2
P1 P2 1_555 1_555
P2 P3 1_555 1_555
P3 C2 1_555 1_555
C1 P1 1_555 1_555
C2 C1 1_555 1_555
C3 C2 1_555 1_555
H1 C3 1_555 1_555
C4 C3 1_555 1_555
H2 C4 1_555 1_555
C5 C4 1_555 1_555
H3 C5 1_555 1_555
C6 C1 1_555 1_555
H4 C6 1_555 1_555
Li1 O1 1_555 1_555
O1 C7 1_555 1_555
C7 H5 1_555 1_555
H6 C7 1_555 1_555
C8 C7 1_555 1_555
H7 C8 1_555 1_555
H8 C8 1_555 1_555
O2 Li1 1_555 1_555
C9 O2 1_555 1_555
H9 C9 1_555 1_555
H10 C9 1_555 1_555
C10 C9 1_555 1_555
H11 C10 1_555 1_555
H12 C10 1_555 1_555
O3 Li1 1_555 1_555
C11 O3 1_555 1_555
H13 C11 1_555 1_555
H14 C11 1_555 1_555
C12 C11 1_555 1_555
H15 C12 1_555 1_555
H16 C12 1_555 1_555
O4 Li1 1_555 1_555
C13 O4 1_555 1_555
H17 C13 1_555 1_555
H18 C13 1_555 1_555
C14 O1 1_555 1_555
H19 C14 1_555 1_555
H20 C14 1_555 1_555
O5 Li1 1_555 1_555
C15 O5 1_555 1_555
H21 C15 1_555 1_555
H22 C15 1_555 1_555
C16 C15 1_555 1_555
H23 C16 1_555 1_555
H24 C16 1_555 1_555
O6 Li1 1_555 1_555
C17 O6 1_555 1_555
H25 C17 1_555 1_555
H26 C17 1_555 1_555
C18 C17 1_555 1_555
H27 C18 1_555 1_555
H28 C18 1_555 1_555
O7 Li1 1_555 1_555
C19 O7 1_555 1_555
H29 C19 1_555 1_555
H30 C19 1_555 1_555
C20 C19 1_555 1_555
H31 C20 1_555 1_555
H32 C20 1_555 1_555
O8 Li1 1_555 1_555
C21 O8 1_555 1_555
H33 C21 1_555 1_555
H34 C21 1_555 1_555
C22 O5 1_555 1_555
H35 C22 1_555 1_555
H36 C22 1_555 1_555
C5 C6 1_555 1_555
C8 O2 1_555 1_555
C10 O3 1_555 1_555
C12 O4 1_555 1_555
C13 C14 1_555 1_555
C16 O6 1_555 1_555
C18 O7 1_555 1_555
C20 O8 1_555 1_555
C21 C22 1_555 1_555

#END
