
#######################################################################
#
#                 Cambridge Crystallographic Data Centre
#                                CCDC 
#
#######################################################################
#
# If this CIF has been generated from an entry in the Cambridge 
# Structural Database, then it will include bibliographic, chemical, 
# crystal, experimental, refinement or atomic coordinate data resulting 
# from the CCDC's data processing and validation procedures.
#
#######################################################################

data_GIXJAZ
_chemical_formula_moiety         'C16 H32 Li1 O8 1+,C6 H4 As1 P2 1-'
_chemical_name_systematic        
'bis(12-Crown-4)-lithium 2-arsa-1,3-diphosphaindenyl'
_symmetry_cell_setting           monoclinic
_symmetry_space_group_name_H-M   'P 21/n'
_symmetry_Int_Tables_number      14
_space_group_name_Hall           '-P 2yn'
loop_
_symmetry_equiv_pos_site_id
_symmetry_equiv_pos_as_xyz
1 x,y,z
2 1/2-x,1/2+y,1/2-z
3 -x,-y,-z
4 1/2+x,1/2-y,1/2+z
_cell_length_a                   11.796(2)
_cell_length_b                   8.3443(17)
_cell_length_c                   26.460(5)
_cell_angle_alpha                90
_cell_angle_beta                 94.13(3)
_cell_angle_gamma                90
_cell_volume                     2597.68
_exptl_crystal_colour            green
_exptl_crystal_description       plate
_chemical_melting_point          'decomposes above 198 deg.C'
_cell_formula_units_Z            4
_exptl_crystal_recrystallization_method tetrahydrofuran
loop_
_atom_site_label
_atom_site_type_symbol
_atom_site_fract_x
_atom_site_fract_y
_atom_site_fract_z
As1 As 0.79193(4) 1.15383(5) 0.081821(16)
P1 P 0.80007(9) 0.90616(14) 0.05362(4)
P2 P 0.79501(9) 1.09768(13) 0.16323(4)
C1 C 0.8077(3) 0.8033(5) 0.11240(14)
C2 C 0.8049(3) 0.8863(5) 0.15988(14)
C3 C 0.8116(3) 0.7931(5) 0.20514(14)
H1 H 0.8076 0.8448 0.2361
C4 C 0.8236(3) 0.6302(5) 0.20449(15)
H2 H 0.8287 0.5729 0.2347
C5 C 0.8285(3) 0.5488(5) 0.15785(17)
H3 H 0.8382 0.4382 0.1573
C6 C 0.8188(3) 0.6335(5) 0.11336(16)
H4 H 0.8194 0.5783 0.0829
Li1 Li 0.3141(5) 0.6677(7) 0.1225(2)
O1 O 0.1847(2) 0.8773(3) 0.13038(10)
C7 C 0.1398(4) 0.9223(5) 0.08060(16)
H5 H 0.1972 0.9805 0.0635
H6 H 0.0750 0.9926 0.0832
C8 C 0.1038(3) 0.7753(5) 0.04993(15)
H7 H 0.0415 0.7215 0.0649
H8 H 0.0790 0.8054 0.0155
O2 O 0.2001(2) 0.6725(4) 0.05018(10)
C9 C 0.1732(4) 0.5165(5) 0.03026(15)
H9 H 0.2404 0.4697 0.0171
H10 H 0.1153 0.5257 0.0025
C10 C 0.1308(4) 0.4083(6) 0.07081(16)
H11 H 0.0620 0.4515 0.0835
H12 H 0.1147 0.3019 0.0573
O3 O 0.2201(2) 0.4023(4) 0.11025(11)
C11 C 0.1850(4) 0.3476(6) 0.15760(16)
H13 H 0.2506 0.3081 0.1781
H14 H 0.1322 0.2592 0.1518
C12 C 0.1288(4) 0.4785(5) 0.18607(16)
H15 H 0.0596 0.5133 0.1672
H16 H 0.1094 0.4395 0.2189
O4 O 0.2069(2) 0.6090(4) 0.19235(11)
C13 C 0.1550(4) 0.7536(5) 0.20798(15)
H17 H 0.2124 0.8222 0.2248
H18 H 0.0994 0.7285 0.2321
C14 C 0.0977(3) 0.8414(6) 0.16365(15)
H19 H 0.0393 0.7750 0.1466
H20 H 0.0628 0.9393 0.1748
O5 O 0.4168(2) 0.8290(4) 0.18762(11)
C15 C 0.4449(4) 0.9790(5) 0.16482(17)
H21 H 0.4987 1.0367 0.1875
H22 H 0.3768 1.0439 0.1596
C16 C 0.4955(4) 0.9530(5) 0.11481(16)
H23 H 0.5113 1.0551 0.0993
H24 H 0.5661 0.8934 0.1197
O6 O 0.4147(2) 0.8651(3) 0.08346(11)
C17 C 0.4612(4) 0.8008(5) 0.03913(15)
H25 H 0.5139 0.8772 0.0262
H26 H 0.4006 0.7825 0.0130
C18 C 0.5221(3) 0.6451(5) 0.05158(15)
H27 H 0.5540 0.6018 0.0217
H28 H 0.5831 0.6617 0.0776
O7 O 0.4389(2) 0.5387(3) 0.06912(11)
C19 C 0.4865(4) 0.3989(5) 0.09393(16)
H29 H 0.5482 0.3587 0.0752
H30 H 0.4289 0.3161 0.0942
C20 C 0.5305(4) 0.4353(5) 0.14755(16)
H31 H 0.5585 0.3383 0.1644
H32 H 0.5922 0.5122 0.1478
O8 O 0.4382(2) 0.4995(4) 0.17261(10)
C21 C 0.4730(4) 0.5772(5) 0.21922(15)
H33 H 0.5345 0.5170 0.2365
H34 H 0.4100 0.5792 0.2408
C22 C 0.5120(4) 0.7457(5) 0.21039(16)
H35 H 0.5380 0.7957 0.2422
H36 H 0.5739 0.7460 0.1882
loop_
_geom_bond_atom_site_label_1
_geom_bond_atom_site_label_2
_geom_bond_site_symmetry_1
_geom_bond_site_symmetry_2
As1 P1 1_555 1_555
P1 C1 1_555 1_555
P2 As1 1_555 1_555
C1 C2 1_555 1_555
C2 P2 1_555 1_555
C3 C2 1_555 1_555
H1 C3 1_555 1_555
C4 C3 1_555 1_555
H2 C4 1_555 1_555
C5 C4 1_555 1_555
H3 C5 1_555 1_555
C6 C1 1_555 1_555
H4 C6 1_555 1_555
Li1 O1 1_555 1_555
O1 C7 1_555 1_555
C7 H5 1_555 1_555
H6 C7 1_555 1_555
C8 C7 1_555 1_555
H7 C8 1_555 1_555
H8 C8 1_555 1_555
O2 Li1 1_555 1_555
C9 O2 1_555 1_555
H9 C9 1_555 1_555
H10 C9 1_555 1_555
C10 C9 1_555 1_555
H11 C10 1_555 1_555
H12 C10 1_555 1_555
O3 Li1 1_555 1_555
C11 O3 1_555 1_555
H13 C11 1_555 1_555
H14 C11 1_555 1_555
C12 C11 1_555 1_555
H15 C12 1_555 1_555
H16 C12 1_555 1_555
O4 Li1 1_555 1_555
C13 O4 1_555 1_555
H17 C13 1_555 1_555
H18 C13 1_555 1_555
C14 O1 1_555 1_555
H19 C14 1_555 1_555
H20 C14 1_555 1_555
O5 Li1 1_555 1_555
C15 O5 1_555 1_555
H21 C15 1_555 1_555
H22 C15 1_555 1_555
C16 C15 1_555 1_555
H23 C16 1_555 1_555
H24 C16 1_555 1_555
O6 Li1 1_555 1_555
C17 O6 1_555 1_555
H25 C17 1_555 1_555
H26 C17 1_555 1_555
C18 C17 1_555 1_555
H27 C18 1_555 1_555
H28 C18 1_555 1_555
O7 Li1 1_555 1_555
C19 O7 1_555 1_555
H29 C19 1_555 1_555
H30 C19 1_555 1_555
C20 C19 1_555 1_555
H31 C20 1_555 1_555
H32 C20 1_555 1_555
O8 Li1 1_555 1_555
C21 O8 1_555 1_555
H33 C21 1_555 1_555
H34 C21 1_555 1_555
C22 O5 1_555 1_555
H35 C22 1_555 1_555
H36 C22 1_555 1_555
C5 C6 1_555 1_555
C8 O2 1_555 1_555
C10 O3 1_555 1_555
C12 O4 1_555 1_555
C13 C14 1_555 1_555
C16 O6 1_555 1_555
C18 O7 1_555 1_555
C20 O8 1_555 1_555
C21 C22 1_555 1_555

#END
