
#######################################################################
#
#                 Cambridge Crystallographic Data Centre
#                                CCDC 
#
#######################################################################
#
# If this CIF has been generated from an entry in the Cambridge 
# Structural Database, then it will include bibliographic, chemical, 
# crystal, experimental, refinement or atomic coordinate data resulting 
# from the CCDC's data processing and validation procedures.
#
#######################################################################

data_GIXKUW
_chemical_formula_moiety         'C33 H32 Cl1 N1 O9'
_chemical_name_systematic        
'4-benzyl 2,2-diethyl 4-(acetyloxy)-9-chloro-3-phenyl-1,3a,4,9b-tetrahydro[1]benzopyrano[4,3-b]pyrrole-2,2,4(3H)-tricarboxylate'
_symmetry_cell_setting           orthorhombic
_symmetry_space_group_name_H-M   'P 21 21 21'
_symmetry_Int_Tables_number      19
_space_group_name_Hall           'P 2ac 2ab'
loop_
_symmetry_equiv_pos_site_id
_symmetry_equiv_pos_as_xyz
1 x,y,z
2 1/2-x,-y,1/2+z
3 1/2+x,1/2-y,-z
4 -x,1/2+y,1/2-z
_cell_length_a                   11.0158(17)
_cell_length_b                   12.1300(16)
_cell_length_c                   23.587(3)
_cell_angle_alpha                90
_cell_angle_beta                 90
_cell_angle_gamma                90
_cell_volume                     3151.73
_exptl_crystal_colour            colorless
_exptl_crystal_description       block
_cell_formula_units_Z            4
loop_
_atom_site_label
_atom_site_type_symbol
_atom_site_fract_x
_atom_site_fract_y
_atom_site_fract_z
Cl1 Cl 0.8730(2) 0.2597(2) 0.19340(10)
O1 O 1.0009(4) 0.2384(4) -0.0230(2)
O2 O 1.1727(5) 0.2978(4) 0.0267(3)
O3 O 1.2379(5) 0.4168(5) -0.0598(3)
O4 O 1.0573(5) 0.3946(4) -0.1013(2)
C1 C 1.0754(7) 0.3299(6) -0.0086(3)
O5 O 1.0850(7) 0.5111(6) 0.1913(3)
C2 C 0.9398(7) 0.3601(7) 0.0776(3)
H1 H 0.8639 0.3204 0.0704
C3 C 1.0105(8) 0.6106(7) -0.0063(3)
C4 C 1.1399(7) 0.2536(7) 0.0795(4)
C5 C 1.0096(7) 0.4580(7) -0.1961(4)
C6 C 1.0315(7) 0.2821(7) 0.1055(4)
C7 C 0.9878(7) 0.4089(6) 0.0220(3)
H2 H 0.9181 0.4212 -0.0031
C8 C 1.2245(8) 0.1825(7) 0.1037(5)
H3 H 1.2971 0.1658 0.0855
C9 C 1.0483(9) 0.1591(7) -0.0590(4)
C10 C 1.1962(9) 0.1383(8) 0.1556(5)
H4 H 1.2524 0.0926 0.1733
C11 C 1.0978(9) 0.6719(7) -0.0339(4)
H5 H 1.1795 0.6594 -0.0263
O6 O 0.8529(10) 0.6748(7) 0.1231(4)
C12 C 0.9474(13) 0.7729(7) -0.0847(5)
H6 H 0.9265 0.8257 -0.1116
C13 C 1.1214(10) 0.5304(7) 0.1374(5)
C14 C 1.1063(9) 0.4539(9) -0.1510(4)
H7 H 1.1775 0.4160 -0.1654
H8 H 1.1298 0.5281 -0.1403
C15 C 1.0887(10) 0.1591(8) 0.1821(4)
H9 H 1.0702 0.1249 0.2163
O7 O 1.0399(9) 0.7320(6) 0.1057(3)
C16 C 0.8873(9) 0.6331(8) -0.0185(4)
H10 H 0.8262 0.5927 -0.0009
O8 O 1.2205(7) 0.5340(6) 0.1224(3)
C17 C 1.0086(7) 0.2308(7) 0.1579(4)
O9 O 1.1481(6) 0.1671(6) -0.0784(3)
C18 C 1.1362(8) 0.3829(6) -0.0588(4)
C19 C 1.0642(12) 0.7528(8) -0.0733(4)
H11 H 1.1241 0.7931 -0.0917
C20 C 0.9531(13) 0.6570(9) 0.1094(5)
C21 C 1.0451(8) 0.5222(6) 0.0349(3)
H12 H 1.1335 0.5137 0.0336
C22 C 1.0075(8) 0.5421(7) 0.0989(3)
C23 C 0.8617(16) 0.4586(17) -0.2855(6)
H13 H 0.8176 0.4614 -0.3191
N1 N 0.9142(6) 0.4603(7) 0.1121(3)
H14 H 0.847(4) 0.461(8) 0.097(3)
C24 C 0.9589(9) 0.0735(7) -0.0691(5)
H15 H 0.9224 0.0523 -0.0338
H16 H 0.9978 0.0107 -0.0860
H17 H 0.8973 0.1008 -0.0943
C25 C 1.1856(14) 0.4990(13) 0.2286(6)
H18 H 1.2589 0.5168 0.2078
H19 H 1.1775 0.5529 0.2587
C26 C 0.8581(11) 0.7152(8) -0.0566(4)
H20 H 0.7770 0.7319 -0.0634
C27 C 0.9911(12) 0.3674(9) -0.2292(5)
H21 H 1.0343 0.3034 -0.2213
C28 C 0.8678(17) 0.5558(14) -0.2512(7)
H22 H 0.8201 0.6174 -0.2585
C29 C 0.9505(11) 0.5524(9) -0.2057(6)
H23 H 0.9636 0.6141 -0.1831
C30 C 0.9141(16) 0.3674(15) -0.2722(7)
H24 H 0.8982 0.3030 -0.2922
C31 C 1.0019(17) 0.9143(12) 0.0707(6)
H25 H 1.0785 0.9330 0.0539
H26 H 0.9583 0.9806 0.0797
H27 H 0.9553 0.8711 0.0445
C32 C 1.0218(17) 0.8525(11) 0.1212(6)
H28 H 0.9526 0.8599 0.1463
H29 H 1.0931 0.8800 0.1407
C33 C 1.2011(19) 0.3951(13) 0.2534(8)
H30 H 1.1288 0.3752 0.2737
H31 H 1.2685 0.3974 0.2792
H32 H 1.2167 0.3415 0.2244
loop_
_geom_bond_atom_site_label_1
_geom_bond_atom_site_label_2
_geom_bond_site_symmetry_1
_geom_bond_site_symmetry_2
Cl1 C17 1_555 1_555
O1 C1 1_555 1_555
O2 C1 1_555 1_555
O3 C18 1_555 1_555
O4 C14 1_555 1_555
C1 C7 1_555 1_555
O5 C13 1_555 1_555
C2 H1 1_555 1_555
C3 C11 1_555 1_555
C4 O2 1_555 1_555
C5 C14 1_555 1_555
C6 C2 1_555 1_555
C7 C2 1_555 1_555
H2 C7 1_555 1_555
C8 C4 1_555 1_555
H3 C8 1_555 1_555
C9 O1 1_555 1_555
C10 C8 1_555 1_555
H4 C10 1_555 1_555
C11 H5 1_555 1_555
O6 C20 1_555 1_555
C12 H6 1_555 1_555
C13 O8 1_555 1_555
C14 H7 1_555 1_555
H8 C14 1_555 1_555
C15 C10 1_555 1_555
H9 C15 1_555 1_555
O7 C20 1_555 1_555
C16 C3 1_555 1_555
H10 C16 1_555 1_555
C17 C6 1_555 1_555
O9 C9 1_555 1_555
C18 O4 1_555 1_555
C19 C11 1_555 1_555
H11 C19 1_555 1_555
C20 C22 1_555 1_555
C21 C3 1_555 1_555
H12 C21 1_555 1_555
C22 C13 1_555 1_555
C23 H13 1_555 1_555
N1 C2 1_555 1_555
H14 N1 1_555 1_555
C24 C9 1_555 1_555
H15 C24 1_555 1_555
H16 C24 1_555 1_555
H17 C24 1_555 1_555
C25 O5 1_555 1_555
H18 C25 1_555 1_555
H19 C25 1_555 1_555
C26 C12 1_555 1_555
H20 C26 1_555 1_555
C27 C5 1_555 1_555
H21 C27 1_555 1_555
C28 C23 1_555 1_555
H22 C28 1_555 1_555
C29 C5 1_555 1_555
H23 C29 1_555 1_555
C30 C23 1_555 1_555
H24 C30 1_555 1_555
C31 H25 1_555 1_555
H26 C31 1_555 1_555
H27 C31 1_555 1_555
C32 O7 1_555 1_555
H28 C32 1_555 1_555
H29 C32 1_555 1_555
C33 C25 1_555 1_555
H30 C33 1_555 1_555
H31 C33 1_555 1_555
H32 C33 1_555 1_555
C1 C18 1_555 1_555
C4 C6 1_555 1_555
C7 C21 1_555 1_555
C12 C19 1_555 1_555
C15 C17 1_555 1_555
C16 C26 1_555 1_555
C21 C22 1_555 1_555
C22 N1 1_555 1_555
C27 C30 1_555 1_555
C28 C29 1_555 1_555
C31 C32 1_555 1_555

#END
