
#######################################################################
#
#                 Cambridge Crystallographic Data Centre
#                                CCDC 
#
#######################################################################
#
# If this CIF has been generated from an entry in the Cambridge 
# Structural Database, then it will include bibliographic, chemical, 
# crystal, experimental, refinement or atomic coordinate data resulting 
# from the CCDC's data processing and validation procedures.
#
#######################################################################

data_GIXMIM
_chemical_formula_moiety         'C10 H6 Cl2 N2'
_chemical_name_systematic        4,4'-dichloro-2,2'-bipyridine
_symmetry_cell_setting           triclinic
_symmetry_space_group_name_H-M   'P -1'
_symmetry_Int_Tables_number      2
_space_group_name_Hall           '-P 1'
loop_
_symmetry_equiv_pos_site_id
_symmetry_equiv_pos_as_xyz
1 x,y,z
2 -x,-y,-z
_cell_length_a                   3.7835(6)
_cell_length_b                   11.0123(18)
_cell_length_c                   12.199(2)
_cell_angle_alpha                110.837(2)
_cell_angle_beta                 93.922(2)
_cell_angle_gamma                97.143(2)
_cell_volume                     467.853
_exptl_crystal_colour            colorless
_exptl_crystal_description       block
_cell_formula_units_Z            2
_exptl_crystal_recrystallization_method chloroform
loop_
_atom_site_label
_atom_site_type_symbol
_atom_site_fract_x
_atom_site_fract_y
_atom_site_fract_z
N1 N 0.1877(8) 0.0411(3) 0.3837(2)
Cl1 Cl 0.1535(3) 0.44832(8) 0.64248(8)
C1 C 0.0625(8) 0.0601(3) 0.4872(3)
C2 C 0.0474(8) 0.1843(3) 0.5699(3)
H1 H -0.0444 0.1947 0.6427
C3 C 0.1701(9) 0.2906(3) 0.5422(3)
C4 C 0.3013(9) 0.2755(3) 0.4366(3)
H2 H 0.3843 0.3491 0.4165
C5 C 0.3064(9) 0.1476(3) 0.3607(3)
H3 H 0.4003 0.1351 0.2879
N1A N -0.1877(8) -0.0411(3) 0.6163(2)
Cl1A Cl -0.1535(3) -0.44832(8) 0.35752(8)
C1A C -0.0625(8) -0.0601(3) 0.5128(3)
C2A C -0.0474(8) -0.1843(3) 0.4301(3)
H1A H 0.0444 -0.1947 0.3573
C3A C -0.1701(9) -0.2906(3) 0.4578(3)
C4A C -0.3013(9) -0.2755(3) 0.5634(3)
H2A H -0.3843 -0.3491 0.5835
C5A C -0.3064(9) -0.1476(3) 0.6393(3)
H3A H -0.4003 -0.1351 0.7121
N2 N 0.2165(7) 0.8629(3) -0.1126(2)
Cl2 Cl 0.4685(2) 0.67028(8) 0.14615(8)
C6 C 0.4274(8) 0.9311(3) -0.0100(3)
C7 C 0.5060(8) 0.8759(3) 0.0730(3)
H4 H 0.6518 0.9262 0.1455
C8 C 0.3665(9) 0.7462(3) 0.0472(3)
C9 C 0.1506(9) 0.6740(3) -0.0566(3)
H5 H 0.0516 0.5845 -0.0749
C10 C 0.0843(9) 0.7378(3) -0.1332(3)
H6 H -0.0656 0.6893 -0.2053
N2A N 0.7835(7) 1.1371(3) 0.1126(2)
Cl2A Cl 0.5315(2) 1.32972(8) -0.14615(8)
C6A C 0.5726(8) 1.0689(3) 0.0100(3)
C7A C 0.4940(8) 1.1241(3) -0.0730(3)
H4A H 0.3482 1.0738 -0.1455
C8A C 0.6335(9) 1.2538(3) -0.0472(3)
C9A C 0.8494(9) 1.3260(3) 0.0566(3)
H5A H 0.9484 1.4155 0.0749
C10A C 0.9157(9) 1.2622(3) 0.1332(3)
H6A H 1.0656 1.3107 0.2053
loop_
_geom_bond_atom_site_label_1
_geom_bond_atom_site_label_2
_geom_bond_site_symmetry_1
_geom_bond_site_symmetry_2
N1 C1 1_555 1_555
Cl1 C3 1_555 1_555
C1 C2 1_555 1_555
C2 H1 1_555 1_555
C3 C2 1_555 1_555
C4 C3 1_555 1_555
H2 C4 1_555 1_555
C5 N1 1_555 1_555
H3 C5 1_555 1_555
N2 C6 1_555 1_555
Cl2 C8 1_555 1_555
C6 C7 1_555 1_555
C7 H4 1_555 1_555
C8 C7 1_555 1_555
C9 C8 1_555 1_555
H5 C9 1_555 1_555
C10 N2 1_555 1_555
H6 C10 1_555 1_555
N1A C1A 1_555 1_555
Cl1A C3A 1_555 1_555
C1A C1 1_555 1_555
C2A C1A 1_555 1_555
H1A C2A 1_555 1_555
C3A C2A 1_555 1_555
C4A C3A 1_555 1_555
H2A C4A 1_555 1_555
C5A N1A 1_555 1_555
H3A C5A 1_555 1_555
N2A C6A 1_555 1_555
Cl2A C8A 1_555 1_555
C6A C6 1_555 1_555
C7A C6A 1_555 1_555
H4A C7A 1_555 1_555
C8A C7A 1_555 1_555
C9A C8A 1_555 1_555
H5A C9A 1_555 1_555
C10A N2A 1_555 1_555
H6A C10A 1_555 1_555
C4 C5 1_555 1_555
C9 C10 1_555 1_555
C4A C5A 1_555 1_555
C9A C10A 1_555 1_555

#END
