
#######################################################################
#
#                 Cambridge Crystallographic Data Centre
#                                CCDC 
#
#######################################################################
#
# If this CIF has been generated from an entry in the Cambridge 
# Structural Database, then it will include bibliographic, chemical, 
# crystal, experimental, refinement or atomic coordinate data resulting 
# from the CCDC's data processing and validation procedures.
#
#######################################################################

data_GIXMEI
_chemical_formula_moiety         'C10 H9 Br2 N3 O2'
_chemical_name_systematic        
'methyl 3-azido-2-bromo-3-(4-bromophenyl)propanoate'
_symmetry_cell_setting           monoclinic
_symmetry_space_group_name_H-M   'P 21'
_symmetry_Int_Tables_number      4
_space_group_name_Hall           'P 2yb'
loop_
_symmetry_equiv_pos_site_id
_symmetry_equiv_pos_as_xyz
1 x,y,z
2 -x,1/2+y,-z
_cell_length_a                   8.4163(9)
_cell_length_b                   6.4122(10)
_cell_length_c                   12.0547(11)
_cell_angle_alpha                90
_cell_angle_beta                 101.337(10)
_cell_angle_gamma                90
_cell_volume                     637.862
_exptl_crystal_colour            colorless
_exptl_crystal_description       needle
_cell_formula_units_Z            2
loop_
_atom_site_label
_atom_site_type_symbol
_atom_site_fract_x
_atom_site_fract_y
_atom_site_fract_z
H1 H 0.9554 0.0669 0.3708
H2 H 0.8632 -0.1293 0.4033
H3 H 0.2073 1.0725 0.0887
H4 H 0.8897 0.0650 0.4838
H5 H 0.4486 0.9224 0.1770
H6 H 0.2057 0.4801 0.3071
H7 H -0.0363 0.6190 0.2116
H8 H 0.5984 0.6962 0.3129
H9 H 0.4679 0.2845 0.2775
C1 C 0.7145(8) 0.3081(14) 0.3311(6)
C2 C 0.2076(10) 0.9531(15) 0.1325(6)
C3 C 0.0650(9) 0.8619(16) 0.1457(6)
C4 C 0.3507(10) 0.8638(14) 0.1857(6)
C5 C 0.8692(11) 0.020(2) 0.4063(10)
C6 C 0.2059(9) 0.5983(16) 0.2624(7)
C7 C 0.0617(9) 0.6824(19) 0.2073(7)
C8 C 0.3507(8) 0.6880(14) 0.2517(6)
C9 C 0.5102(8) 0.5971(13) 0.3142(6)
C10 C 0.5519(7) 0.3860(13) 0.2695(5)
N1 N 0.7166(9) 0.6136(16) 0.5826(6)
N2 N 0.4933(7) 0.5567(14) 0.4341(5)
N3 N 0.6147(8) 0.5895(13) 0.5060(5)
O1 O 0.7162(6) 0.1082(11) 0.3471(5)
O2 O 0.8284(6) 0.4225(12) 0.3638(5)
Br1 Br 0.56733(10) 0.40919(19) 0.11003(6)
Br2 Br -0.13601(13) 0.9843(2) 0.07551(11)
loop_
_geom_bond_atom_site_label_1
_geom_bond_atom_site_label_2
_geom_bond_site_symmetry_1
_geom_bond_site_symmetry_2
H1 C5 1_555 1_555
H2 C5 1_555 1_555
H3 C2 1_555 1_555
H4 C5 1_555 1_555
H5 C4 1_555 1_555
H6 C6 1_555 1_555
H7 C7 1_555 1_555
H8 C9 1_555 1_555
H9 C10 1_555 1_555
C1 C10 1_555 1_555
C2 C3 1_555 1_555
C3 C7 1_555 1_555
C4 C2 1_555 1_555
C5 O1 1_555 1_555
C6 C7 1_555 1_555
C8 C4 1_555 1_555
C9 C8 1_555 1_555
C10 C9 1_555 1_555
N1 N3 1_555 1_555
N2 C9 1_555 1_555
N3 N2 1_555 1_555
O1 C1 1_555 1_555
O2 C1 1_555 1_555
Br1 C10 1_555 1_555
Br2 C3 1_555 1_555
C6 C8 1_555 1_555

#END
