
#######################################################################
#
#                 Cambridge Crystallographic Data Centre
#                                CCDC 
#
#######################################################################
#
# If this CIF has been generated from an entry in the Cambridge 
# Structural Database, then it will include bibliographic, chemical, 
# crystal, experimental, refinement or atomic coordinate data resulting 
# from the CCDC's data processing and validation procedures.
#
#######################################################################

data_GIXQIQ
_chemical_formula_moiety         'C2 N10 O2 2-,2(C1 H6 N3 1+),2(H2 O1)'
_chemical_name_systematic        
"bis(guanidinium) 5,5'-(diazene-1,2-diyl)bis(1H-tetrazol-1-olate) dihydrate"
_symmetry_cell_setting           monoclinic
_symmetry_space_group_name_H-M   'P 21/c'
_symmetry_Int_Tables_number      14
_space_group_name_Hall           '-P 2ybc'
loop_
_symmetry_equiv_pos_site_id
_symmetry_equiv_pos_as_xyz
1 x,y,z
2 -x,1/2+y,1/2-z
3 -x,-y,-z
4 x,1/2-y,1/2+z
_cell_length_a                   3.7518(8)
_cell_length_b                   14.769(3)
_cell_length_c                   13.855(3)
_cell_angle_alpha                90
_cell_angle_beta                 97.40(3)
_cell_angle_gamma                90
_cell_volume                     761.316
_exptl_crystal_colour            orange
_exptl_crystal_description       rod
_cell_formula_units_Z            2
loop_
_atom_site_label
_atom_site_type_symbol
_atom_site_fract_x
_atom_site_fract_y
_atom_site_fract_z
O1 O -0.2889(5) 0.66372(11) 0.65638(12)
N1 N 0.1189(5) 0.65997(13) 0.44705(13)
N2 N -0.0661(5) 0.52414(13) 0.53182(13)
N3 N -0.1364(5) 0.67711(13) 0.57920(13)
N4 N 0.0858(5) 0.74812(14) 0.46726(14)
N5 N -0.0668(5) 0.76006(13) 0.54725(14)
C1 C -0.0216(6) 0.61536(14) 0.51727(15)
O1B O 0.2889(5) 0.33628(11) 0.34362(12)
N1B N -0.1189(5) 0.34003(13) 0.55295(13)
N2B N 0.0661(5) 0.47586(13) 0.46818(13)
N3B N 0.1364(5) 0.32289(13) 0.42080(13)
N4B N -0.0858(5) 0.25188(14) 0.53274(14)
N5B N 0.0668(5) 0.23994(13) 0.45275(14)
C1B C 0.0216(6) 0.38464(14) 0.48273(15)
N6 N -0.4583(5) 0.32080(13) 0.74721(15)
H1 H -0.3593 0.3118 0.6970
H2 H -0.5254 0.2793 0.7823
C2 C -0.5218(6) 0.40597(16) 0.77058(16)
N7 N -0.6557(6) 0.42519(13) 0.85199(14)
H3 H -0.7218 0.4784 0.8614
H4 H -0.7317 0.3784 0.8770
N8 N -0.4464(6) 0.47253(14) 0.71214(15)
H5 H -0.4670 0.5252 0.7337
H6 H -0.3432 0.4634 0.6627
O2 O -0.7901(5) 0.61759(11) 0.82225(14)
H7 H -0.9067 0.6410 0.7727
H8 H -0.8919 0.6431 0.8655
loop_
_geom_bond_atom_site_label_1
_geom_bond_atom_site_label_2
_geom_bond_site_symmetry_1
_geom_bond_site_symmetry_2
O1 N3 1_555 1_555
N1 N4 1_555 1_555
N2 C1 1_555 1_555
N3 N5 1_555 1_555
N4 N5 1_555 1_555
C1 N1 1_555 1_555
N6 H1 1_555 1_555
H2 N6 1_555 1_555
C2 N6 1_555 1_555
N7 C2 1_555 1_555
H3 N7 1_555 1_555
H4 N7 1_555 1_555
N8 C2 1_555 1_555
H5 N8 1_555 1_555
H6 N8 1_555 1_555
O2 H7 1_555 1_555
H8 O2 1_555 1_555
O1B N3B 1_555 1_555
N1B N4B 1_555 1_555
N2B N2 1_555 1_555
N3B N5B 1_555 1_555
N4B N5B 1_555 1_555
C1B N1B 1_555 1_555
N3 C1 1_555 1_555
N2B C1B 1_555 1_555
N3B C1B 1_555 1_555

#END
