
#######################################################################
#
#                 Cambridge Crystallographic Data Centre
#                                CCDC 
#
#######################################################################
#
# If this CIF has been generated from an entry in the Cambridge 
# Structural Database, then it will include bibliographic, chemical, 
# crystal, experimental, refinement or atomic coordinate data resulting 
# from the CCDC's data processing and validation procedures.
#
#######################################################################

data_GIXQUC
_chemical_formula_moiety         'C2 N10 O2 2-,2(C1 H4 N5 1+)'
_chemical_name_systematic        
"bis(1,4-dihydro-5H-tetrazol-5-iminium) 5,5'-(diazene-1,2-diyl)bis(1H-tetrazol-1-olate)"
_symmetry_cell_setting           monoclinic
_symmetry_space_group_name_H-M   'P 21/n'
_symmetry_Int_Tables_number      14
_space_group_name_Hall           '-P 2yn'
loop_
_symmetry_equiv_pos_site_id
_symmetry_equiv_pos_as_xyz
1 x,y,z
2 1/2-x,1/2+y,1/2-z
3 -x,-y,-z
4 1/2+x,1/2-y,1/2+z
_cell_length_a                   5.1599(10)
_cell_length_b                   12.371(3)
_cell_length_c                   10.980(2)
_cell_angle_alpha                90
_cell_angle_beta                 102.09(3)
_cell_angle_gamma                90
_cell_volume                     685.342
_exptl_crystal_colour            yellow
_exptl_crystal_description       block
_cell_formula_units_Z            2
loop_
_atom_site_label
_atom_site_type_symbol
_atom_site_fract_x
_atom_site_fract_y
_atom_site_fract_z
O1 O 0.03535(18) 0.61897(8) 0.64862(8)
N1 N 0.2250(2) 0.54985(9) 0.69692(10)
N2 N 0.2644(2) 0.51892(10) 0.81537(11)
N3 N 0.4701(3) 0.45183(11) 0.83242(12)
N4 N 0.5618(2) 0.44046(10) 0.72796(12)
N5 N 0.4121(2) 0.52606(9) 0.52000(11)
C1 C 0.4075(2) 0.50215(10) 0.64312(12)
O1B O 0.96465(18) 0.38103(8) 0.35138(8)
N1B N 0.7750(2) 0.45015(9) 0.30308(10)
N2B N 0.7356(2) 0.48108(10) 0.18463(11)
N3B N 0.5299(3) 0.54817(11) 0.16758(12)
N4B N 0.4382(2) 0.55954(10) 0.27204(12)
N5B N 0.5879(2) 0.47394(9) 0.48000(11)
C1B C 0.5925(2) 0.49785(10) 0.35688(12)
N6 N 0.2306(2) 0.30931(9) 0.18936(10)
H1 H 0.1352 0.3343 0.2409
N7 N 0.4541(2) 0.25127(10) 0.23442(11)
N8 N 0.5371(2) 0.21168(10) 0.14254(12)
N9 N 0.3692(2) 0.24443(10) 0.03672(11)
H2 H 0.3850 0.2168 -0.0352
N10 N -0.0288(3) 0.34889(12) -0.01074(12)
H3 H -0.1309 0.3931 0.0210
H4 H -0.0398 0.3440 -0.0916
C2 C 0.1748(3) 0.30413(11) 0.06554(12)
loop_
_geom_bond_atom_site_label_1
_geom_bond_atom_site_label_2
_geom_bond_site_symmetry_1
_geom_bond_site_symmetry_2
O1 N1 1_555 1_555
N1 N2 1_555 1_555
N2 N3 1_555 1_555
N3 N4 1_555 1_555
N4 C1 1_555 1_555
N5 C1 1_555 1_555
C1 N1 1_555 1_555
N6 H1 1_555 1_555
N7 N6 1_555 1_555
N8 N7 1_555 1_555
N9 N8 1_555 1_555
H2 N9 1_555 1_555
N10 H3 1_555 1_555
H4 N10 1_555 1_555
C2 N6 1_555 1_555
O1B N1B 1_555 1_555
N1B N2B 1_555 1_555
N2B N3B 1_555 1_555
N3B N4B 1_555 1_555
N4B C1B 1_555 1_555
N5B N5 1_555 1_555
C1B N1B 1_555 1_555
N9 C2 1_555 1_555
N10 C2 1_555 1_555
N5B C1B 1_555 1_555

#END
