
#######################################################################
#
#                 Cambridge Crystallographic Data Centre
#                                CCDC 
#
#######################################################################
#
# If this CIF has been generated from an entry in the Cambridge 
# Structural Database, then it will include bibliographic, chemical, 
# crystal, experimental, refinement or atomic coordinate data resulting 
# from the CCDC's data processing and validation procedures.
#
#######################################################################

data_GIXRAJ
_chemical_formula_moiety         'C2 N10 O2 2-,H6 N2 2+,2(H2 O1)'
_chemical_name_systematic        
"diazanediium 5,5'-(diazene-1,2-diyl)bis(1H-tetrazol-1-olate) dihydrate"
_symmetry_cell_setting           monoclinic
_symmetry_space_group_name_H-M   'P 21/c'
_symmetry_Int_Tables_number      14
_space_group_name_Hall           '-P 2ybc'
loop_
_symmetry_equiv_pos_site_id
_symmetry_equiv_pos_as_xyz
1 x,y,z
2 -x,1/2+y,1/2-z
3 -x,-y,-z
4 x,1/2-y,1/2+z
_cell_length_a                   7.3399(15)
_cell_length_b                   6.6643(13)
_cell_length_c                   10.730(2)
_cell_angle_alpha                90
_cell_angle_beta                 94.83(3)
_cell_angle_gamma                90
_cell_volume                     522.997
_exptl_crystal_colour            colorless
_exptl_crystal_description       RED
_cell_formula_units_Z            2
loop_
_atom_site_label
_atom_site_type_symbol
_atom_site_fract_x
_atom_site_fract_y
_atom_site_fract_z
O1 O 0.7728(5) 0.1426(6) 0.3725(4)
N1 N 0.5973(6) 0.1372(6) 0.3746(4)
N2 N 0.4920(5) -0.0107(6) 0.3235(4)
N3 N 0.3213(6) 0.0390(6) 0.3428(4)
N4 N 0.3137(6) 0.2125(7) 0.4033(4)
N5 N 0.5605(6) 0.4426(6) 0.4813(4)
C1 C 0.4861(6) 0.2738(7) 0.4230(4)
O1B O 0.2272(5) 0.8574(6) 0.6275(4)
N1B N 0.4027(6) 0.8628(6) 0.6254(4)
N2B N 0.5080(5) 1.0107(6) 0.6765(4)
N3B N 0.6787(6) 0.9610(6) 0.6572(4)
N4B N 0.6863(6) 0.7875(7) 0.5967(4)
N5B N 0.4395(6) 0.5574(6) 0.5187(4)
C1B C 0.5139(6) 0.7262(7) 0.5770(4)
O2 O 0.0148(4) 0.1798(5) 0.6795(3)
H1 H -0.0731 0.1073 0.6517
H2 H 0.1037 0.1083 0.6628
N6 N 0.0021(5) 0.5333(7) 0.5640(4)
H3 H -0.1073 0.5876 0.5629
H4 H 0.0969 0.6108 0.5850
H5 H 0.0353 0.4458 0.6230
N6B N -0.0021(5) 0.4667(7) 0.4360(4)
H3B H 0.1073 0.4124 0.4371
H4B H -0.0969 0.3892 0.4150
H5B H -0.0353 0.5542 0.3770
loop_
_geom_bond_atom_site_label_1
_geom_bond_atom_site_label_2
_geom_bond_site_symmetry_1
_geom_bond_site_symmetry_2
O1 N1 1_555 1_555
N1 N2 1_555 1_555
N2 N3 1_555 1_555
N3 N4 1_555 1_555
N4 C1 1_555 1_555
N5 C1 1_555 1_555
C1 N1 1_555 1_555
O2 H1 1_555 1_555
H2 O2 1_555 1_555
N6 H3 1_555 1_555
H4 N6 1_555 1_555
H5 N6 1_555 1_555
O1B N1B 1_555 1_555
N1B N2B 1_555 1_555
N2B N3B 1_555 1_555
N3B N4B 1_555 1_555
N4B C1B 1_555 1_555
N5B N5 1_555 1_555
C1B N1B 1_555 1_555
N6B N6 1_555 1_555
H3B N6B 1_555 1_555
H4B N6B 1_555 1_555
H5B N6B 1_555 1_555
N5B C1B 1_555 1_555

#END
