
#######################################################################
#
#                 Cambridge Crystallographic Data Centre
#                                CCDC 
#
#######################################################################
#
# If this CIF has been generated from an entry in the Cambridge 
# Structural Database, then it will include bibliographic, chemical, 
# crystal, experimental, refinement or atomic coordinate data resulting 
# from the CCDC's data processing and validation procedures.
#
#######################################################################

data_GIXWER
_chemical_formula_moiety         'C15 H12 N4 O2,C3 H6 O1'
_chemical_name_systematic        
'4-(quinoxalin-2-ylcarbohydrazonoyl)benzene-1,3-diol acetone solvate'
_symmetry_cell_setting           triclinic
_symmetry_space_group_name_H-M   'P -1'
_symmetry_Int_Tables_number      2
_space_group_name_Hall           '-P 1'
loop_
_symmetry_equiv_pos_site_id
_symmetry_equiv_pos_as_xyz
1 x,y,z
2 -x,-y,-z
_cell_length_a                   6.8085(5)
_cell_length_b                   7.1011(5)
_cell_length_c                   18.5922(13)
_cell_angle_alpha                80.338(5)
_cell_angle_beta                 81.011(5)
_cell_angle_gamma                65.055(4)
_cell_volume                     799.796
_exptl_crystal_colour            yellow
_exptl_crystal_description       Lath
_cell_formula_units_Z            2
loop_
_atom_site_label
_atom_site_type_symbol
_atom_site_fract_x
_atom_site_fract_y
_atom_site_fract_z
N1 N 0.91744(16) 0.71997(14) 0.13516(5)
N2 N 1.46428(16) 0.75862(15) 0.00715(5)
N3 N 1.11270(16) 0.74933(15) -0.05382(5)
O1 O 1.00946(13) 0.73979(14) 0.26810(4)
H1 H 1.0270 0.7420 0.2223
N4 N 0.93963(16) 0.72534(15) 0.06026(5)
O2 O 0.50050(14) 0.72657(13) 0.46984(4)
H2 H 0.3774 0.7232 0.4805
C1 C 0.74350(18) 0.70234(17) 0.16789(6)
C2 C 1.11573(18) 0.74081(16) 0.01742(6)
C3 C 0.75332(18) 0.73072(17) 0.36848(6)
H3 H 0.8423 0.7453 0.3999
C4 C 1.46560(18) 0.76773(16) -0.06770(6)
C5 C 1.64522(19) 0.77833(18) -0.11491(6)
H4 H 1.7641 0.7820 -0.0953
C6 C 1.29472(18) 0.74629(17) 0.04804(6)
H5 H 1.2893 0.7408 0.0997
C7 C 0.68862(18) 0.70133(16) 0.24645(6)
C8 C 1.28792(18) 0.76282(16) -0.09739(6)
C9 C 0.55809(18) 0.71601(16) 0.39706(6)
C10 C 0.81790(18) 0.72400(17) 0.29394(6)
C11 C 0.42690(18) 0.69212(17) 0.35112(6)
H6 H 0.2946 0.6800 0.3706
C12 C 0.49349(18) 0.68661(17) 0.27723(6)
H7 H 0.4037 0.6723 0.2461
C13 C 1.64826(19) 0.78335(18) -0.18928(6)
H8 H 1.7701 0.7891 -0.2208
C14 C 1.29473(19) 0.77101(17) -0.17425(6)
H9 H 1.1760 0.7702 -0.1949
C15 C 1.4713(2) 0.78006(18) -0.21910(6)
H10 H 1.4747 0.7842 -0.2706
H11 H 0.639(2) 0.692(2) 0.1383(8)
H12 H 0.829(3) 0.721(2) 0.0390(8)
O3 O 0.09454(14) 0.73673(13) 0.50599(4)
C16 C 0.01243(19) 0.76172(17) 0.56887(6)
C17 C -0.1953(2) 0.7352(2) 0.59524(7)
H13 H -0.3122 0.8712 0.6045
H14 H -0.1757 0.6392 0.6406
H15 H -0.2336 0.6779 0.5578
C18 C 0.1138(2) 0.81960(19) 0.62302(7)
H16 H 0.2373 0.8490 0.5980
H17 H 0.1645 0.7034 0.6619
H18 H 0.0056 0.9441 0.6445
loop_
_geom_bond_atom_site_label_1
_geom_bond_atom_site_label_2
_geom_bond_site_symmetry_1
_geom_bond_site_symmetry_2
N1 N4 1_555 1_555
N2 C4 1_555 1_555
N3 C2 1_555 1_555
O1 H1 1_555 1_555
N4 C2 1_555 1_555
O2 H2 1_555 1_555
C1 N1 1_555 1_555
C2 C6 1_555 1_555
C3 H3 1_555 1_555
C4 C5 1_555 1_555
C5 H4 1_555 1_555
C6 N2 1_555 1_555
H5 C6 1_555 1_555
C7 C1 1_555 1_555
C8 N3 1_555 1_555
C9 O2 1_555 1_555
C10 O1 1_555 1_555
C11 C9 1_555 1_555
H6 C11 1_555 1_555
C12 C7 1_555 1_555
H7 C12 1_555 1_555
C13 C5 1_555 1_555
H8 C13 1_555 1_555
C14 C8 1_555 1_555
H9 C14 1_555 1_555
C15 C13 1_555 1_555
H10 C15 1_555 1_555
H11 C1 1_555 1_555
H12 N4 1_555 1_555
O3 C16 1_555 1_555
C16 C17 1_555 1_555
C17 H13 1_555 1_555
H14 C17 1_555 1_555
H15 C17 1_555 1_555
C18 C16 1_555 1_555
H16 C18 1_555 1_555
H17 C18 1_555 1_555
H18 C18 1_555 1_555
C3 C9 1_555 1_555
C3 C10 1_555 1_555
C4 C8 1_555 1_555
C7 C10 1_555 1_555
C11 C12 1_555 1_555
C14 C15 1_555 1_555

#END
