
#######################################################################
#
#                 Cambridge Crystallographic Data Centre
#                                CCDC 
#
#######################################################################
#
# If this CIF has been generated from an entry in the Cambridge 
# Structural Database, then it will include bibliographic, chemical, 
# crystal, experimental, refinement or atomic coordinate data resulting 
# from the CCDC's data processing and validation procedures.
#
#######################################################################

data_GIXXOD
_chemical_formula_moiety         'C16 H14 F1 N3 O2'
_chemical_name_systematic        
4-(2-fluorophenyl)-5-(3-methoxybenzyl)-2,4-dihydro-3H-1,2,4-triazol-3-one
_symmetry_cell_setting           triclinic
_symmetry_space_group_name_H-M   'P -1'
_symmetry_Int_Tables_number      2
_space_group_name_Hall           '-P 1'
loop_
_symmetry_equiv_pos_site_id
_symmetry_equiv_pos_as_xyz
1 x,y,z
2 -x,-y,-z
_cell_length_a                   5.9910(1)
_cell_length_b                   10.7939(2)
_cell_length_c                   12.3597(3)
_cell_angle_alpha                65.316(1)
_cell_angle_beta                 78.248(1)
_cell_angle_gamma                75.468(1)
_cell_volume                     698.533
_exptl_crystal_colour            silver
_exptl_crystal_description       Block
_cell_formula_units_Z            2
loop_
_atom_site_label
_atom_site_type_symbol
_atom_site_fract_x
_atom_site_fract_y
_atom_site_fract_z
F1 F 0.12585(12) 0.63536(7) 0.83146(6)
O1 O 0.04285(14) 0.93091(8) 0.66300(7)
O2 O 1.21222(16) 0.22528(9) 0.81299(8)
N1 N 0.42216(16) 0.79941(9) 0.66723(8)
N2 N 0.28675(16) 0.90750(10) 0.49652(8)
H1 H 0.1932 0.9578 0.4409
N3 N 0.51119(17) 0.84248(10) 0.47323(9)
C1 C 0.6012(2) 0.78337(12) 0.83616(10)
H2 H 0.7123 0.8359 0.7821
C2 C 0.6020(2) 0.73901(13) 0.95927(11)
H3 H 0.7165 0.7593 0.9892
C3 C 0.4364(2) 0.66524(13) 1.03846(11)
H4 H 0.4353 0.6377 1.1223
C4 C 0.2722(2) 0.63149(12) 0.99576(10)
H5 H 0.1585 0.5809 1.0495
C5 C 0.27794(19) 0.67292(11) 0.87394(10)
C6 C 0.43740(19) 0.75049(11) 0.79273(10)
C7 C 0.22665(19) 0.88558(11) 0.61344(10)
C8 C 0.58891(19) 0.77800(11) 0.57742(10)
C9 C 0.82459(19) 0.69118(12) 0.59609(10)
H6 H 0.8902 0.7105 0.6535
H7 H 0.9253 0.7194 0.5190
C10 C 0.83208(19) 0.53582(11) 0.64272(10)
C11 C 0.6714(2) 0.48158(12) 0.61585(10)
H8 H 0.5463 0.5421 0.5724
C12 C 0.6956(2) 0.33878(13) 0.65293(11)
H9 H 0.5864 0.3025 0.6340
C13 C 0.8768(2) 0.24779(12) 0.71727(11)
H10 H 0.8932 0.1504 0.7412
C14 C 1.0332(2) 0.30233(12) 0.74575(10)
C15 C 1.0117(2) 0.44580(12) 0.70780(10)
H11 H 1.1209 0.4820 0.7267
C16 C 1.2629(3) 0.07972(14) 0.84157(13)
H12 H 1.3939 0.0369 0.8896
H13 H 1.3032 0.0626 0.7674
H14 H 1.1266 0.0394 0.8873
loop_
_geom_bond_atom_site_label_1
_geom_bond_atom_site_label_2
_geom_bond_site_symmetry_1
_geom_bond_site_symmetry_2
F1 C5 1_555 1_555
O1 C7 1_555 1_555
O2 C14 1_555 1_555
N1 C6 1_555 1_555
N2 H1 1_555 1_555
N3 N2 1_555 1_555
C1 H2 1_555 1_555
C2 C1 1_555 1_555
H3 C2 1_555 1_555
C3 C2 1_555 1_555
H4 C3 1_555 1_555
C4 C3 1_555 1_555
H5 C4 1_555 1_555
C5 C4 1_555 1_555
C6 C1 1_555 1_555
C7 N1 1_555 1_555
C8 N1 1_555 1_555
C9 C8 1_555 1_555
H6 C9 1_555 1_555
H7 C9 1_555 1_555
C10 C9 1_555 1_555
C11 C10 1_555 1_555
H8 C11 1_555 1_555
C12 C11 1_555 1_555
H9 C12 1_555 1_555
C13 C12 1_555 1_555
H10 C13 1_555 1_555
C14 C13 1_555 1_555
C15 C10 1_555 1_555
H11 C15 1_555 1_555
C16 O2 1_555 1_555
H12 C16 1_555 1_555
H13 C16 1_555 1_555
H14 C16 1_555 1_555
N2 C7 1_555 1_555
N3 C8 1_555 1_555
C5 C6 1_555 1_555
C14 C15 1_555 1_555

#END
