
#######################################################################
#
#                 Cambridge Crystallographic Data Centre
#                                CCDC 
#
#######################################################################
#
# If this CIF has been generated from an entry in the Cambridge 
# Structural Database, then it will include bibliographic, chemical, 
# crystal, experimental, refinement or atomic coordinate data resulting 
# from the CCDC's data processing and validation procedures.
#
#######################################################################

data_GIXYUJ
_chemical_formula_moiety         'C37 H31 Cl2 N3 O5'
_chemical_name_systematic        
"diethyl 1'-benzyl-1-(3,4-dichlorophenyl)-2'-oxo-1,1',2',9-tetrahydrospiro[\b-carboline-4,3'-indole]-3,3(2H)-dicarboxylate"
_symmetry_cell_setting           monoclinic
_symmetry_space_group_name_H-M   'C 2'
_symmetry_Int_Tables_number      5
_space_group_name_Hall           'C 2y'
loop_
_symmetry_equiv_pos_site_id
_symmetry_equiv_pos_as_xyz
1 x,y,z
2 -x,y,-z
3 1/2+x,1/2+y,z
4 1/2-x,1/2+y,-z
_cell_length_a                   23.813(6)
_cell_length_b                   10.049(3)
_cell_length_c                   16.410(4)
_cell_angle_alpha                90
_cell_angle_beta                 119.909(4)
_cell_angle_gamma                90
_cell_volume                     3403.88
_exptl_crystal_colour            colorless
_exptl_crystal_description       prism
_cell_formula_units_Z            4
loop_
_atom_site_label
_atom_site_type_symbol
_atom_site_fract_x
_atom_site_fract_y
_atom_site_fract_z
Cl1 Cl 0.99970(7) 0.05740(15) 1.35031(8)
Cl2 Cl 0.98090(7) 0.35847(16) 1.38490(8)
N1 N 0.84465(17) 0.1703(4) 0.9484(2)
H1 H 0.8831 0.2080 0.9771
N2 N 0.69889(19) 0.4245(4) 0.7138(2)
N3 N 0.70702(18) 0.1280(4) 0.9922(2)
H2 H 0.7200 0.0984 1.0494
O1 O 0.77991(16) 0.4503(3) 0.8668(2)
O2 O 0.78427(19) -0.0731(4) 0.8465(2)
O3 O 0.81829(19) 0.0007(4) 0.7502(2)
O4 O 0.82358(18) 0.2991(4) 0.7384(2)
O5 O 0.91061(17) 0.2043(6) 0.8624(2)
C1 C 0.7390(2) 0.2270(4) 0.8032(3)
C2 C 0.8077(2) 0.1626(5) 0.8462(3)
C3 C 0.8163(2) 0.1135(5) 1.0029(3)
H3 H 0.8215 0.0146 1.0059
C4 C 0.7461(2) 0.1470(4) 0.9534(3)
C5 C 0.70943(19) 0.1926(4) 0.8637(2)
C6 C 0.7438(2) 0.3802(5) 0.8005(3)
C7 C 0.6676(2) 0.3174(5) 0.6519(3)
C8 C 0.6186(2) 0.3233(6) 0.5587(3)
H4 H 0.6026 0.4059 0.5274
C9 C 0.5939(2) 0.2027(7) 0.5133(3)
H5 H 0.5607 0.2032 0.4493
C10 C 0.6160(2) 0.0835(6) 0.5579(3)
H6 H 0.5977 0.0032 0.5246
C11 C 0.6657(2) 0.0780(5) 0.6533(3)
H7 H 0.6810 -0.0050 0.6843
C12 C 0.6914(2) 0.1965(5) 0.7000(3)
C13 C 0.6849(3) 0.5634(5) 0.6879(3)
H8 H 0.7113 0.6187 0.7443
H9 H 0.6388 0.5805 0.6671
C14 C 0.6982(3) 0.6061(5) 0.6110(3)
C15 C 0.6579(3) 0.6965(6) 0.5415(3)
H10 H 0.6203 0.7297 0.5410
C16 C 0.6719(3) 0.7367(6) 0.4755(4)
H11 H 0.6440 0.7989 0.4294
C17 C 0.7261(4) 0.6897(7) 0.4726(4)
H12 H 0.7360 0.7206 0.4265
C18 C 0.7641(4) 0.5987(6) 0.5379(4)
H13 H 0.8003 0.5630 0.5360
C19 C 0.7513(3) 0.5564(6) 0.6072(4)
H14 H 0.7790 0.4931 0.6524
C20 C 0.6450(2) 0.1626(5) 0.9277(3)
C21 C 0.5902(2) 0.1581(6) 0.9351(4)
H15 H 0.5922 0.1288 0.9916
C22 C 0.5333(2) 0.1963(8) 0.8605(4)
H16 H 0.4952 0.1973 0.8654
C23 C 0.5299(2) 0.2356(5) 0.7733(3)
H17 H 0.4893 0.2578 0.7204
C24 C 0.5842(2) 0.2408(5) 0.7665(3)
H18 H 0.5820 0.2694 0.7098
C25 C 0.64494(19) 0.2032(4) 0.8451(3)
C26 C 0.8542(2) 0.1709(5) 1.1020(3)
C27 C 0.9016(2) 0.0953(5) 1.1732(3)
H19 H 0.9080 0.0053 1.1621
C28 C 0.9402(2) 0.1517(5) 1.2617(3)
C29 C 0.9316(2) 0.2851(5) 1.2775(3)
C30 C 0.8840(3) 0.3588(6) 1.2072(3)
H20 H 0.8776 0.4487 1.2185
C31 C 0.8447(3) 0.3029(6) 1.1191(3)
H21 H 0.8114 0.3544 1.0706
C32 C 0.8020(2) 0.0148(5) 0.8162(3)
C33 C 0.8188(3) -0.1317(6) 0.7165(4)
H22 H 0.7747 -0.1586 0.6676
H23 H 0.8352 -0.1969 0.7687
C34 C 0.8632(4) -0.1241(9) 0.6764(6)
H24 H 0.8654 -0.2113 0.6515
H25 H 0.9066 -0.0978 0.7259
H26 H 0.8467 -0.0581 0.6257
C35 C 0.8479(2) 0.2329(6) 0.8089(3)
C36 C 0.9454(9) 0.260(2) 0.8165(12)
H27 H 0.9161 0.3173 0.7625
H28 H 0.9625 0.1885 0.7937
C37 C 0.9999(8) 0.342(2) 0.8913(11)
H29 H 0.9820 0.4134 0.9119
H30 H 1.0258 0.3797 0.8657
H31 H 1.0274 0.2843 0.9449
C38? C 0.9591(9) 0.2357(18) 0.8346(14)
H32? H 0.9999 0.1870 0.8745
H33? H 0.9428 0.2114 0.7681
C39? C 0.9697(9) 0.3845(16) 0.8485(11)
H34? H 0.9294 0.4310 0.8057
H35? H 1.0038 0.4114 0.8350
H36? H 0.9827 0.4073 0.9136
loop_
_geom_bond_atom_site_label_1
_geom_bond_atom_site_label_2
_geom_bond_site_symmetry_1
_geom_bond_site_symmetry_2
Cl1 C28 1_555 1_555
Cl2 C29 1_555 1_555
N1 H1 1_555 1_555
N2 C6 1_555 1_555
N3 H2 1_555 1_555
O1 C6 1_555 1_555
O2 C32 1_555 1_555
O3 C32 1_555 1_555
O4 C35 1_555 1_555
O5 C35 1_555 1_555
C1 C2 1_555 1_555
C2 N1 1_555 1_555
C3 N1 1_555 1_555
H3 C3 1_555 1_555
C4 N3 1_555 1_555
C5 C1 1_555 1_555
C6 C1 1_555 1_555
C7 N2 1_555 1_555
C8 C7 1_555 1_555
H4 C8 1_555 1_555
C9 C8 1_555 1_555
H5 C9 1_555 1_555
C10 C9 1_555 1_555
H6 C10 1_555 1_555
C11 C10 1_555 1_555
H7 C11 1_555 1_555
C12 C1 1_555 1_555
C13 N2 1_555 1_555
H8 C13 1_555 1_555
H9 C13 1_555 1_555
C14 C13 1_555 1_555
C15 C14 1_555 1_555
H10 C15 1_555 1_555
C16 C15 1_555 1_555
H11 C16 1_555 1_555
C17 C16 1_555 1_555
H12 C17 1_555 1_555
C18 C17 1_555 1_555
H13 C18 1_555 1_555
C19 C14 1_555 1_555
H14 C19 1_555 1_555
C20 N3 1_555 1_555
C21 C20 1_555 1_555
H15 C21 1_555 1_555
C22 C21 1_555 1_555
H16 C22 1_555 1_555
C23 C22 1_555 1_555
H17 C23 1_555 1_555
C24 C23 1_555 1_555
H18 C24 1_555 1_555
C25 C5 1_555 1_555
C26 C3 1_555 1_555
C27 C26 1_555 1_555
H19 C27 1_555 1_555
C28 C27 1_555 1_555
C29 C28 1_555 1_555
C30 C29 1_555 1_555
H20 C30 1_555 1_555
C31 C26 1_555 1_555
H21 C31 1_555 1_555
C32 C2 1_555 1_555
C33 O3 1_555 1_555
H22 C33 1_555 1_555
H23 C33 1_555 1_555
C34 C33 1_555 1_555
H24 C34 1_555 1_555
H25 C34 1_555 1_555
H26 C34 1_555 1_555
C35 C2 1_555 1_555
C36 O5 1_555 1_555
H27 C36 1_555 1_555
H28 C36 1_555 1_555
C37 C36 1_555 1_555
H29 C37 1_555 1_555
H30 C37 1_555 1_555
H31 C37 1_555 1_555
C3 C4 1_555 1_555
C4 C5 1_555 1_555
C7 C12 1_555 1_555
C11 C12 1_555 1_555
C18 C19 1_555 1_555
C20 C25 1_555 1_555
C24 C25 1_555 1_555
C30 C31 1_555 1_555

#END
