
#######################################################################
#
#                 Cambridge Crystallographic Data Centre
#                                CCDC 
#
#######################################################################
#
# If this CIF has been generated from an entry in the Cambridge 
# Structural Database, then it will include bibliographic, chemical, 
# crystal, experimental, refinement or atomic coordinate data resulting 
# from the CCDC's data processing and validation procedures.
#
#######################################################################

data_GIXZAQ
_chemical_formula_moiety         'C21 H20 F3 N1 O2'
_chemical_name_systematic        
4-Butoxy-6-methyl-3-(4-(trifluoromethyl)phenyl)quinolin-2(1H)-one
_symmetry_cell_setting           triclinic
_symmetry_space_group_name_H-M   'P -1'
_symmetry_Int_Tables_number      2
_space_group_name_Hall           '-P 1'
loop_
_symmetry_equiv_pos_site_id
_symmetry_equiv_pos_as_xyz
1 x,y,z
2 -x,-y,-z
_cell_length_a                   6.1860(5)
_cell_length_b                   9.6029(9)
_cell_length_c                   16.4251(11)
_cell_angle_alpha                77.495(6)
_cell_angle_beta                 80.955(6)
_cell_angle_gamma                87.557(7)
_cell_volume                     940.68
_cell_formula_units_Z            2
loop_
_atom_site_label
_atom_site_type_symbol
_atom_site_fract_x
_atom_site_fract_y
_atom_site_fract_z
C1 C 0.9000(7) 0.4675(5) 0.3283(3)
N1 N 0.7524(6) 0.5726(5) 0.4452(2)
H1 H 0.6522 0.5786 0.4870
C2 C 1.0716(7) 0.5568(5) 0.3114(3)
O1 O 0.5559(6) 0.4038(4) 0.4146(2)
O2 O 1.2341(5) 0.5594(4) 0.24422(19)
C3 C 1.0960(7) 0.6569(5) 0.3632(3)
C4 C 0.9492(9) 0.7505(6) 0.4860(3)
H2 H 0.8403 0.7519 0.5318
C5 C 0.9309(8) 0.6605(6) 0.4316(3)
C6 C 0.8812(8) 0.3515(5) 0.2824(3)
C7 C 1.2754(8) 0.7469(5) 0.3510(3)
H3 H 1.3854 0.7449 0.3056
C8 C 0.7223(8) 0.4769(6) 0.3978(3)
C9 C 0.6992(8) 0.3396(5) 0.2453(3)
H4 H 0.5839 0.4044 0.2495
C10 C 1.2963(8) 0.8379(6) 0.4027(3)
C11 C 1.1260(10) 0.8362(6) 0.4723(3)
H5 H 1.1363 0.8956 0.5093
C12 C 1.0485(8) 0.2510(5) 0.2771(3)
H6 H 1.1712 0.2563 0.3025
C13 C 0.8543(10) 0.1351(6) 0.1965(3)
C14 C 1.0342(10) 0.1429(6) 0.2344(4)
H7 H 1.1465 0.0758 0.2315
C15 C 0.6867(9) 0.2329(6) 0.2024(3)
H8 H 0.5639 0.2268 0.1772
C16 C 1.4884(10) 0.9342(7) 0.3908(4)
H9 H 1.5871 0.9235 0.3412
H10 H 1.5627 0.9094 0.4391
H11 H 1.4382 1.0314 0.3844
C17 C 1.1754(9) 0.5933(7) 0.1619(3)
H12 H 1.1013 0.5118 0.1534
H13 H 1.0713 0.6720 0.1593
F1 F 0.7972(19) -0.0995(7) 0.1954(5)
C18 C 0.8521(15) 0.0138(11) 0.1535(5)
F2 F 0.9935(17) -0.0014(9) 0.1023(5)
F3 F 0.696(2) 0.0329(13) 0.1095(11)
C19 C 1.7121(13) 0.7132(12) 0.0132(5)
H14 H 1.8408 0.7428 0.0306
H15 H 1.6575 0.7909 -0.0258
H16 H 1.7481 0.6339 -0.0136
C20 C 1.3471(14) 0.6300(14) 0.0957(4)
H17 H 1.3612 0.5476 0.0699
H18 H 1.2836 0.7044 0.0562
C21 C 1.5424(15) 0.6698(12) 0.0880(5)
H19 H 1.6111 0.5932 0.1243
H20 H 1.5319 0.7497 0.1158
loop_
_geom_bond_atom_site_label_1
_geom_bond_atom_site_label_2
_geom_bond_site_symmetry_1
_geom_bond_site_symmetry_2
C1 C2 1_555 1_555
N1 H1 1_555 1_555
C2 O2 1_555 1_555
O1 C8 1_555 1_555
O2 C17 1_555 1_555
C3 C2 1_555 1_555
C4 H2 1_555 1_555
C5 N1 1_555 1_555
C6 C1 1_555 1_555
C7 C3 1_555 1_555
H3 C7 1_555 1_555
C8 C1 1_555 1_555
C9 C6 1_555 1_555
H4 C9 1_555 1_555
C10 C7 1_555 1_555
C11 C4 1_555 1_555
H5 C11 1_555 1_555
C12 C6 1_555 1_555
H6 C12 1_555 1_555
C13 C14 1_555 1_555
C14 C12 1_555 1_555
H7 C14 1_555 1_555
C15 C9 1_555 1_555
H8 C15 1_555 1_555
C16 C10 1_555 1_555
H9 C16 1_555 1_555
H10 C16 1_555 1_555
H11 C16 1_555 1_555
C17 H12 1_555 1_555
H13 C17 1_555 1_555
F1 C18 1_555 1_555
C18 C13 1_555 1_555
F2 C18 1_555 1_555
F3 C18 1_555 1_555
C19 H14 1_555 1_555
H15 C19 1_555 1_555
H16 C19 1_555 1_555
C20 C17 1_555 1_555
H17 C20 1_555 1_555
H18 C20 1_555 1_555
C21 C19 1_555 1_555
H19 C21 1_555 1_555
H20 C21 1_555 1_555
N1 C8 1_555 1_555
C3 C5 1_555 1_555
C4 C5 1_555 1_555
C10 C11 1_555 1_555
C13 C15 1_555 1_555
C20 C21 1_555 1_555

#END
