
#######################################################################
#
#                 Cambridge Crystallographic Data Centre
#                                CCDC 
#
#######################################################################
#
# If this CIF has been generated from an entry in the Cambridge 
# Structural Database, then it will include bibliographic, chemical, 
# crystal, experimental, refinement or atomic coordinate data resulting 
# from the CCDC's data processing and validation procedures.
#
#######################################################################

data_GIYCUO
_chemical_formula_moiety         'C22 H42 Li1 N2 P1'
_chemical_name_systematic        
(\h^4^-di-t-butyl(2-methylbenzylidene)phosphanyl)-(N,N,N',N'-tetramethylethane-1,2-diamine)-lithium
_symmetry_cell_setting           monoclinic
_symmetry_space_group_name_H-M   'P 21/c'
_symmetry_Int_Tables_number      14
_space_group_name_Hall           '-P 2ybc'
loop_
_symmetry_equiv_pos_site_id
_symmetry_equiv_pos_as_xyz
1 x,y,z
2 -x,1/2+y,1/2-z
3 -x,-y,-z
4 x,1/2-y,1/2+z
_cell_length_a                   11.0250(4)
_cell_length_b                   16.5445(4)
_cell_length_c                   13.6678(5)
_cell_angle_alpha                90
_cell_angle_beta                 109.189(3)
_cell_angle_gamma                90
_cell_volume                     2354.53
_exptl_crystal_colour            yellow
_exptl_crystal_description       prism
_cell_formula_units_Z            4
loop_
_atom_site_label
_atom_site_type_symbol
_atom_site_fract_x
_atom_site_fract_y
_atom_site_fract_z
C1 C 0.67290(9) 0.13231(6) 0.68873(8)
C2 C 0.58392(9) 0.15394(6) 0.74013(8)
C3 C 0.61687(10) 0.15818(6) 0.84975(8)
C4 C 0.52667(11) 0.17297(7) 0.89858(9)
H1 H 0.5531 0.1745 0.9721
C5 C 0.39890(11) 0.18546(7) 0.84153(9)
H2 H 0.3371 0.1959 0.8747
C6 C 0.36369(10) 0.18221(6) 0.73425(9)
H3 H 0.2761 0.1908 0.6944
C7 C 0.45028(9) 0.16708(6) 0.68292(8)
C8 C 0.40451(10) 0.16123(7) 0.56706(8)
H4 H 0.3120 0.1720 0.5401
H5 H 0.4216 0.1068 0.5464
H6 H 0.4500 0.2010 0.5389
C9 C 0.90602(10) 0.23265(6) 0.75050(8)
C10 C 0.87883(12) 0.27303(7) 0.84207(10)
H7 H 0.9221 0.2428 0.9057
H8 H 0.7861 0.2734 0.8296
H9 H 0.9110 0.3287 0.8495
C11 C 0.83840(13) 0.28204(8) 0.65371(10)
H10 H 0.8623 0.3391 0.6667
H11 H 0.7452 0.2764 0.6364
H12 H 0.8642 0.2624 0.5959
C12 C 1.05091(11) 0.23364(8) 0.77302(11)
H13 H 1.0829 0.2891 0.7882
H14 H 1.0705 0.2135 0.7125
H15 H 1.0924 0.1990 0.8328
C13 C 0.89303(10) 0.06233(7) 0.65506(8)
C14 C 0.88132(13) 0.10373(9) 0.55246(9)
H16 H 0.9438 0.1479 0.5648
H17 H 0.7944 0.1255 0.5218
H18 H 0.8983 0.0644 0.5050
C15 C 1.03214(11) 0.03421(8) 0.70675(10)
H19 H 1.0569 -0.0018 0.6596
H20 H 1.0392 0.0052 0.7709
H21 H 1.0892 0.0813 0.7228
C16 C 0.80864(12) -0.01339(8) 0.63129(10)
H22 H 0.7200 0.0018 0.5921
H23 H 0.8110 -0.0394 0.6963
H24 H 0.8408 -0.0511 0.5902
C17 C 0.66639(13) -0.12697(8) 0.88352(10)
H25 H 0.6847 -0.1582 0.9486
H26 H 0.6902 -0.1610 0.8331
C18 C 0.52505(13) -0.10874(8) 0.84153(10)
H27 H 0.4767 -0.1602 0.8251
H28 H 0.4990 -0.0806 0.8954
C19 C 0.87869(14) -0.07567(10) 0.91654(12)
H29 H 0.9297 -0.0265 0.9205
H30 H 0.8806 -0.1082 0.8571
H31 H 0.9147 -0.1071 0.9803
C20 C 0.74362(17) -0.01346(9) 0.99854(10)
H32 H 0.6557 0.0032 0.9909
H33 H 0.7993 0.0342 1.0112
H34 H 0.7748 -0.0509 1.0571
C21 C 0.49400(13) -0.10583(9) 0.65836(10)
H35 H 0.4366 -0.1524 0.6499
H36 H 0.5817 -0.1248 0.6695
H37 H 0.4655 -0.0723 0.5958
C22 C 0.36129(12) -0.02633(8) 0.72728(11)
H38 H 0.3360 0.0052 0.6630
H39 H 0.3596 0.0084 0.7849
H40 H 0.3013 -0.0713 0.7203
Li1 Li 0.64311(18) 0.02414(11) 0.78093(14)
N1 N 0.74521(10) -0.05352(6) 0.90396(7)
N2 N 0.49122(9) -0.05806(6) 0.74767(7)
P1 P 0.84205(2) 0.125179(16) 0.750979(19)
H41 H 0.6427(12) 0.1368(7) 0.6151(10)
H42 H 0.7047(13) 0.1537(8) 0.8915(10)
loop_
_geom_bond_atom_site_label_1
_geom_bond_atom_site_label_2
_geom_bond_site_symmetry_1
_geom_bond_site_symmetry_2
C1 C2 1_555 1_555
C2 C3 1_555 1_555
C3 C4 1_555 1_555
C4 H1 1_555 1_555
C5 C4 1_555 1_555
H2 C5 1_555 1_555
C6 C5 1_555 1_555
H3 C6 1_555 1_555
C7 C2 1_555 1_555
C8 C7 1_555 1_555
H4 C8 1_555 1_555
H5 C8 1_555 1_555
H6 C8 1_555 1_555
C9 C10 1_555 1_555
C10 H7 1_555 1_555
H8 C10 1_555 1_555
H9 C10 1_555 1_555
C11 C9 1_555 1_555
H10 C11 1_555 1_555
H11 C11 1_555 1_555
H12 C11 1_555 1_555
C12 C9 1_555 1_555
H13 C12 1_555 1_555
H14 C12 1_555 1_555
H15 C12 1_555 1_555
C13 C14 1_555 1_555
C14 H16 1_555 1_555
H17 C14 1_555 1_555
H18 C14 1_555 1_555
C15 C13 1_555 1_555
H19 C15 1_555 1_555
H20 C15 1_555 1_555
H21 C15 1_555 1_555
C16 C13 1_555 1_555
H22 C16 1_555 1_555
H23 C16 1_555 1_555
H24 C16 1_555 1_555
C17 H25 1_555 1_555
H26 C17 1_555 1_555
C18 C17 1_555 1_555
H27 C18 1_555 1_555
H28 C18 1_555 1_555
C19 H29 1_555 1_555
H30 C19 1_555 1_555
H31 C19 1_555 1_555
C20 H32 1_555 1_555
H33 C20 1_555 1_555
H34 C20 1_555 1_555
C21 H35 1_555 1_555
H36 C21 1_555 1_555
H37 C21 1_555 1_555
C22 H38 1_555 1_555
H39 C22 1_555 1_555
H40 C22 1_555 1_555
Li1 C1 1_555 1_555
N1 C17 1_555 1_555
N2 C18 1_555 1_555
P1 C1 1_555 1_555
H41 C1 1_555 1_555
H42 C3 1_555 1_555
C2 Li1 1_555 1_555
C3 Li1 1_555 1_555
C6 C7 1_555 1_555
C9 P1 1_555 1_555
C13 P1 1_555 1_555
C19 N1 1_555 1_555
C20 N1 1_555 1_555
C21 N2 1_555 1_555
C22 N2 1_555 1_555
Li1 N1 1_555 1_555
Li1 N2 1_555 1_555
Li1 P1 1_555 1_555

#END
