
#######################################################################
#
#                 Cambridge Crystallographic Data Centre
#                                CCDC 
#
#######################################################################
#
# If this CIF has been generated from an entry in the Cambridge 
# Structural Database, then it will include bibliographic, chemical, 
# crystal, experimental, refinement or atomic coordinate data resulting 
# from the CCDC's data processing and validation procedures.
#
#######################################################################

data_GIYFIE
_chemical_formula_moiety         'C10 H12 O3'
_chemical_name_systematic        
6,6-Dimethyl-3-methylenetetrahydro-2H-cyclopenta(b)furan-2,5(3H)-dione
_symmetry_cell_setting           triclinic
_symmetry_space_group_name_H-M   'P -1'
_symmetry_Int_Tables_number      2
_space_group_name_Hall           '-P 1'
loop_
_symmetry_equiv_pos_site_id
_symmetry_equiv_pos_as_xyz
1 x,y,z
2 -x,-y,-z
_cell_length_a                   6.1008(4)
_cell_length_b                   8.6445(6)
_cell_length_c                   9.7112(7)
_cell_angle_alpha                116.3490(10)
_cell_angle_beta                 92.4570(10)
_cell_angle_gamma                100.2340(10)
_cell_volume                     447.319
_exptl_crystal_colour            colorless
_exptl_crystal_description       block
_cell_formula_units_Z            2
_exptl_crystal_recrystallization_method dichloromethane/hexane
loop_
_atom_site_label
_atom_site_type_symbol
_atom_site_fract_x
_atom_site_fract_y
_atom_site_fract_z
C1 C 0.49827(16) 0.48881(12) 0.74521(11)
C2 C 0.73612(15) 0.51366(12) 0.71525(11)
C3 C 0.84435(14) 0.39369(11) 0.75560(10)
H1 H 0.9970 0.4556 0.8169
C4 C 0.67736(14) 0.34438(12) 0.85322(10)
H2 H 0.7301 0.4204 0.9666
C5 C 0.66117(15) 0.14961(12) 0.80996(10)
C6 C 0.72248(15) 0.07132(12) 0.64476(10)
C7 C 0.85060(16) 0.21720(12) 0.61392(11)
H3 H 0.7789 0.2119 0.5181
H4 H 1.0079 0.2051 0.6016
C8 C 0.82129(18) 0.62347(14) 0.65974(13)
H5 H 0.7295 0.6898 0.6376
H6 H 0.9740 0.6356 0.6422
C9 C 0.85377(17) 0.14076(14) 0.91305(11)
H7 H 0.8241 0.1916 1.0210
H8 H 0.9964 0.2080 0.9059
H9 H 0.8629 0.0171 0.8776
C10 C 0.43514(16) 0.05115(13) 0.82229(12)
H10 H 0.4049 0.1058 0.9300
H11 H 0.4394 -0.0729 0.7896
H12 H 0.3160 0.0573 0.7552
O1 O 0.46361(11) 0.37594(9) 0.80936(8)
O2 O 0.35010(13) 0.55355(11) 0.72262(10)
O3 O 0.67797(12) -0.08506(9) 0.55363(8)
loop_
_geom_bond_atom_site_label_1
_geom_bond_atom_site_label_2
_geom_bond_site_symmetry_1
_geom_bond_site_symmetry_2
C1 C2 1_555 1_555
C2 C3 1_555 1_555
C3 H1 1_555 1_555
C4 C3 1_555 1_555
H2 C4 1_555 1_555
C5 C4 1_555 1_555
C6 C5 1_555 1_555
C7 C3 1_555 1_555
H3 C7 1_555 1_555
H4 C7 1_555 1_555
C8 C2 1_555 1_555
H5 C8 1_555 1_555
H6 C8 1_555 1_555
C9 C5 1_555 1_555
H7 C9 1_555 1_555
H8 C9 1_555 1_555
H9 C9 1_555 1_555
C10 C5 1_555 1_555
H10 C10 1_555 1_555
H11 C10 1_555 1_555
H12 C10 1_555 1_555
O1 C1 1_555 1_555
O2 C1 1_555 1_555
O3 C6 1_555 1_555
C4 O1 1_555 1_555
C6 C7 1_555 1_555

#END
