
#######################################################################
#
#                 Cambridge Crystallographic Data Centre
#                                CCDC 
#
#######################################################################
#
# If this CIF has been generated from an entry in the Cambridge 
# Structural Database, then it will include bibliographic, chemical, 
# crystal, experimental, refinement or atomic coordinate data resulting 
# from the CCDC's data processing and validation procedures.
#
#######################################################################

data_GIYKEF
_chemical_formula_moiety         'C41 H38 N4 S2'
_chemical_name_systematic        
2,7-bis(5-(1,1-Dicyanovinyl)thiophen-2-yl)-9,9-di-n-hexylfluorene
_symmetry_cell_setting           monoclinic
_symmetry_space_group_name_H-M   'C 2/c'
_symmetry_Int_Tables_number      15
_space_group_name_Hall           '-C 2yn'
loop_
_symmetry_equiv_pos_site_id
_symmetry_equiv_pos_as_xyz
1 x,y,z
2 1/2+x,1/2+y,z
3 -x,y,1/2-z
4 1/2-x,1/2+y,1/2-z
5 -x,-y,-z
6 1/2-x,1/2-y,-z
7 x,-y,1/2+z
8 1/2+x,1/2-y,1/2+z
_cell_length_a                   33.557(10)
_cell_length_b                   15.363(5)
_cell_length_c                   13.991(5)
_cell_angle_alpha                90
_cell_angle_beta                 98.497(6)
_cell_angle_gamma                90
_cell_volume                     7133.7
_exptl_crystal_colour            red
_exptl_crystal_description       cube
_cell_formula_units_Z            8
_exptl_crystal_recrystallization_method 'acetonitrile/ethyl acetate'
loop_
_atom_site_label
_atom_site_type_symbol
_atom_site_fract_x
_atom_site_fract_y
_atom_site_fract_z
S1 S 0.04222(3) 0.04425(6) 0.36818(8)
S2 S 0.24643(3) 0.61432(7) 0.36939(8)
N1 N -0.05410(14) 0.1209(3) 0.3806(3)
N2 N -0.11512(12) -0.1261(3) 0.3786(3)
N3 N 0.19064(12) 0.8111(3) 0.3629(3)
N4 N 0.28921(13) 0.9897(3) 0.3864(3)
C1 C -0.05099(13) 0.0478(3) 0.3772(3)
C2 C -0.04858(13) -0.0442(3) 0.3748(3)
C3 C -0.08584(15) -0.0895(3) 0.3761(3)
C4 C -0.01451(12) -0.0897(3) 0.3720(3)
H1 H -0.0181 -0.1498 0.3702
C5 C 0.02606(13) -0.0623(3) 0.3712(3)
C6 C 0.05818(13) -0.1178(3) 0.3715(3)
H2 H 0.0556 -0.1780 0.3721
C7 C 0.09488(13) -0.0761(3) 0.3708(3)
H3 H 0.1191 -0.1055 0.3715
C8 C 0.09163(11) 0.0132(3) 0.3689(3)
C9 C 0.12361(12) 0.0769(3) 0.3661(3)
C10 C 0.16323(12) 0.0499(3) 0.3656(3)
H4 H 0.1687 -0.0093 0.3640
C11 C 0.19450(12) 0.1085(3) 0.3676(3)
H5 H 0.2209 0.0891 0.3703
C12 C 0.18580(11) 0.1970(2) 0.3653(3)
C13 C 0.14618(11) 0.2260(2) 0.3627(3)
C14 C 0.11553(11) 0.1667(3) 0.3642(3)
H6 H 0.0893 0.1862 0.3639
C15 C 0.21229(11) 0.2709(2) 0.3686(3)
C16 C 0.25402(11) 0.2754(3) 0.3733(3)
H7 H 0.2693 0.2247 0.3743
C17 C 0.27224(11) 0.3550(3) 0.3764(3)
H8 H 0.3001 0.3578 0.3797
C18 C 0.25014(11) 0.4331(3) 0.3748(3)
C19 C 0.20821(11) 0.4269(3) 0.3697(3)
H9 H 0.1928 0.4773 0.3689
C20 C 0.18959(10) 0.3468(3) 0.3659(3)
C21 C 0.27156(11) 0.5161(2) 0.3795(3)
C22 C 0.31211(12) 0.5300(3) 0.3929(3)
H10 H 0.3309 0.4852 0.4003
C23 C 0.32265(12) 0.6173(3) 0.3945(3)
H11 H 0.3492 0.6363 0.4023
C24 C 0.29048(11) 0.6729(3) 0.3837(3)
C25 C 0.29493(12) 0.7645(3) 0.3867(3)
H12 H 0.3215 0.7837 0.3947
C26 C 0.26722(13) 0.8287(3) 0.3798(3)
C27 C 0.22456(15) 0.8162(3) 0.3690(3)
C28 C 0.27985(14) 0.9185(4) 0.3840(3)
C29 C 0.14448(10) 0.3259(2) 0.3578(3)
C30 C 0.12357(10) 0.3570(2) 0.2572(3)
H13 H 0.1299 0.4181 0.2508
H14 H 0.1357 0.3257 0.2084
C31 C 0.07824(11) 0.3468(3) 0.2336(3)
H15 H 0.0709 0.2884 0.2509
H16 H 0.0654 0.3874 0.2725
C32 C 0.06233(12) 0.3624(3) 0.1279(3)
C36 C 0.01600(16) 0.3498(4) 0.1086(4)
H24 H 0.0033 0.4061 0.1134
H25 H 0.0082 0.3130 0.1591
C37 C -0.0009(3) 0.3084(6) 0.0074(6)
H26 H 0.0136 0.2556 -0.0035
H27 H -0.0293 0.2949 0.0035
C38 C 0.0061(4) 0.3794(9) -0.0664(9)
H28 H -0.0033 0.3589 -0.1306
H29 H 0.0343 0.3925 -0.0603
H30 H -0.0085 0.4310 -0.0542
C39 C 0.12447(10) 0.3652(2) 0.4389(3)
H31 H 0.1248 0.4281 0.4325
H32 H 0.0965 0.3470 0.4299
C40 C 0.14316(11) 0.3419(2) 0.5407(3)
H33 H 0.1699 0.3670 0.5536
H34 H 0.1459 0.2792 0.5458
C41 C 0.11850(12) 0.3739(3) 0.6168(3)
H35 H 0.1154 0.4365 0.6101
H36 H 0.0918 0.3484 0.6031
C42 C 0.13532(13) 0.3541(3) 0.7194(3)
H37 H 0.1600 0.3871 0.7367
H38 H 0.1423 0.2928 0.7245
C43 C 0.10700(16) 0.3746(4) 0.7915(4)
H39 H 0.0992 0.4354 0.7846
H40 H 0.0828 0.3400 0.7755
C44 C 0.12434(16) 0.3579(4) 0.8961(4)
H41 H 0.1046 0.3720 0.9367
H42 H 0.1478 0.3934 0.9135
H43 H 0.1316 0.2976 0.9042
C33? C 0.01600(16) 0.3498(4) 0.1086(4)
H17? H 0.0100 0.2881 0.1035
H18? H 0.0044 0.3726 0.1631
C34? C -0.0037(5) 0.3960(10) 0.0151(8)
H19? H -0.0321 0.4074 0.0160
H20? H 0.0099 0.4501 0.0045
C35? C 0.0026(8) 0.3270(14) -0.0606(17)
H21? H -0.0074 0.3486 -0.1240
H22? H -0.0117 0.2749 -0.0487
H23? H 0.0308 0.3144 -0.0565
loop_
_geom_bond_atom_site_label_1
_geom_bond_atom_site_label_2
_geom_bond_site_symmetry_1
_geom_bond_site_symmetry_2
S1 C5 1_555 1_555
S2 C21 1_555 1_555
N1 C1 1_555 1_555
N2 C3 1_555 1_555
N3 C27 1_555 1_555
N4 C28 1_555 1_555
C1 C2 1_555 1_555
C2 C3 1_555 1_555
C4 C2 1_555 1_555
H1 C4 1_555 1_555
C5 C4 1_555 1_555
C6 C5 1_555 1_555
H2 C6 1_555 1_555
C7 C6 1_555 1_555
H3 C7 1_555 1_555
C8 S1 1_555 1_555
C9 C8 1_555 1_555
C10 C9 1_555 1_555
H4 C10 1_555 1_555
C11 C10 1_555 1_555
H5 C11 1_555 1_555
C12 C11 1_555 1_555
C13 C12 1_555 1_555
C14 C9 1_555 1_555
H6 C14 1_555 1_555
C15 C12 1_555 1_555
C16 C15 1_555 1_555
H7 C16 1_555 1_555
C17 C16 1_555 1_555
H8 C17 1_555 1_555
C18 C17 1_555 1_555
C19 C18 1_555 1_555
H9 C19 1_555 1_555
C20 C15 1_555 1_555
C21 C18 1_555 1_555
C22 C21 1_555 1_555
H10 C22 1_555 1_555
C23 C22 1_555 1_555
H11 C23 1_555 1_555
C24 S2 1_555 1_555
C25 C24 1_555 1_555
H12 C25 1_555 1_555
C26 C25 1_555 1_555
C27 C26 1_555 1_555
C28 C26 1_555 1_555
C29 C13 1_555 1_555
C30 C29 1_555 1_555
H13 C30 1_555 1_555
H14 C30 1_555 1_555
C31 C30 1_555 1_555
H15 C31 1_555 1_555
H16 C31 1_555 1_555
C32 C31 1_555 1_555
C36 C32 1_555 1_555
H24 C36 1_555 1_555
H25 C36 1_555 1_555
C37 C36 1_555 1_555
H26 C37 1_555 1_555
H27 C37 1_555 1_555
C38 C37 1_555 1_555
H28 C38 1_555 1_555
H29 C38 1_555 1_555
H30 C38 1_555 1_555
C39 C29 1_555 1_555
H31 C39 1_555 1_555
H32 C39 1_555 1_555
C40 C39 1_555 1_555
H33 C40 1_555 1_555
H34 C40 1_555 1_555
C41 C40 1_555 1_555
H35 C41 1_555 1_555
H36 C41 1_555 1_555
C42 C41 1_555 1_555
H37 C42 1_555 1_555
H38 C42 1_555 1_555
C43 C42 1_555 1_555
H39 C43 1_555 1_555
H40 C43 1_555 1_555
C44 C43 1_555 1_555
H41 C44 1_555 1_555
H42 C44 1_555 1_555
H43 C44 1_555 1_555
C7 C8 1_555 1_555
C13 C14 1_555 1_555
C19 C20 1_555 1_555
C20 C29 1_555 1_555
C23 C24 1_555 1_555

#END
