
#######################################################################
#
#                 Cambridge Crystallographic Data Centre
#                                CCDC 
#
#######################################################################
#
# If this CIF has been generated from an entry in the Cambridge 
# Structural Database, then it will include bibliographic, chemical, 
# crystal, experimental, refinement or atomic coordinate data resulting 
# from the CCDC's data processing and validation procedures.
#
#######################################################################

data_GIYKOP
_chemical_compound_source        'rhizome of Sinomenium acutum'
_chemical_formula_moiety         'C20 H25 N1 O4'
_chemical_name_systematic        8-Demethoxyrunanine
_chemical_properties_biological  
'source rhizome is commonly used in traditional Chinese medicine for the treatment of allergy, dropsy, dermatophytosis and as an anti-inflammatory. It is also reported as useful for treatment of rheumatism, neuralgia and arthritis'
_symmetry_cell_setting           orthorhombic
_symmetry_space_group_name_H-M   'P 21 21 21'
_symmetry_Int_Tables_number      19
_space_group_name_Hall           'P 2ac 2ab'
loop_
_symmetry_equiv_pos_site_id
_symmetry_equiv_pos_as_xyz
1 x,y,z
2 1/2-x,-y,1/2+z
3 1/2+x,1/2-y,-z
4 -x,1/2+y,1/2-z
_cell_length_a                   7.3040(15)
_cell_length_b                   21.705(4)
_cell_length_c                   22.888(5)
_cell_angle_alpha                90
_cell_angle_beta                 90
_cell_angle_gamma                90
_cell_volume                     3628.51
_exptl_crystal_colour            colorless
_exptl_crystal_description       prism
_chemical_melting_point          169.5-170.5deg.C
_cell_formula_units_Z            8
loop_
_atom_site_label
_atom_site_type_symbol
_atom_site_fract_x
_atom_site_fract_y
_atom_site_fract_z
O1 O 0.0816(5) 0.36525(19) 1.17808(16)
O2 O -0.1061(4) 0.44420(17) 1.24280(16)
O3 O 0.3041(4) 0.53369(16) 0.84418(16)
O4 O 0.5148(5) 0.46090(17) 0.90382(14)
N1 N 0.1654(6) 0.5983(2) 1.12072(18)
C1 C -0.0322(6) 0.4657(3) 1.1924(2)
C2 C 0.0533(7) 0.4165(3) 1.1576(2)
C3 C 0.1061(6) 0.4319(2) 1.0953(2)
H1 H 0.0008 0.4254 1.0702
H2 H 0.2016 0.4037 1.0828
C4 C 0.1738(6) 0.4979(2) 1.0875(2)
C5 C 0.2002(6) 0.5103(2) 1.0224(2)
C6 C 0.3422(6) 0.4800(2) 0.9930(2)
H3 H 0.4169 0.4532 1.0139
C7 C 0.3749(6) 0.4884(2) 0.9349(2)
C8 C 0.2619(7) 0.5278(3) 0.9025(2)
C9 C 0.1185(6) 0.5577(2) 0.9307(2)
H4 H 0.0419 0.5838 0.9096
C10 C 0.0885(6) 0.5488(3) 0.9905(2)
C11 C -0.0609(7) 0.5872(3) 1.0177(2)
H5 H -0.1654 0.5886 0.9916
H6 H -0.0172 0.6290 1.0233
C12 C -0.1199(6) 0.5608(2) 1.0760(2)
H7 H -0.1910 0.5237 1.0694
H8 H -0.1980 0.5903 1.0958
C13 C 0.0413(6) 0.5454(2) 1.1152(2)
C14 C -0.0337(6) 0.5231(3) 1.1734(2)
H9 H -0.0853 0.5526 1.1978
C15 C 0.3528(6) 0.5091(3) 1.1223(2)
H10 H 0.3632 0.4802 1.1545
H11 H 0.4590 0.5047 1.0972
C16 C 0.3363(7) 0.5750(3) 1.1448(3)
H12 H 0.3331 0.5756 1.1871
H13 H 0.4389 0.5997 1.1316
C17 C -0.1930(7) 0.4894(3) 1.2787(2)
H14 H -0.2405 0.4700 1.3132
H15 H -0.2915 0.5082 1.2574
H16 H -0.1055 0.5203 1.2896
C18 C 0.6473(8) 0.4284(3) 0.9373(2)
H17 H 0.7372 0.4107 0.9117
H18 H 0.5881 0.3962 0.9590
H19 H 0.7061 0.4563 0.9639
C19 C 0.1933(7) 0.5749(3) 0.8105(2)
H20 H 0.2349 0.5751 0.7708
H21 H 0.2025 0.6157 0.8264
H22 H 0.0680 0.5616 0.8119
C20 C 0.1015(7) 0.6529(2) 1.1503(2)
H23 H -0.0123 0.6660 1.1333
H24 H 0.1907 0.6851 1.1462
H25 H 0.0837 0.6440 1.1910
O5 O 0.6538(5) 0.38015(19) 1.08227(15)
O6 O 0.5722(5) 0.28512(19) 1.01453(17)
O7 O 0.7637(4) 0.33678(18) 1.39985(15)
O8 O 0.4900(4) 0.27823(16) 1.44366(16)
N2 N 0.6217(5) 0.1610(2) 1.18420(17)
C21 C 0.5618(6) 0.2760(3) 1.0740(2)
C22 C 0.6059(7) 0.3333(3) 1.1071(2)
C23 C 0.5824(6) 0.3299(2) 1.1711(2)
H26 H 0.4578 0.3418 1.1805
H27 H 0.6635 0.3598 1.1891
C24 C 0.6199(5) 0.2665(2) 1.1985(2)
C25 C 0.5758(6) 0.2681(2) 1.2640(2)
C26 C 0.6869(6) 0.3035(2) 1.3013(2)
H28 H 0.7823 0.3264 1.2854
C27 C 0.6578(7) 0.3049(2) 1.3600(2)
C28 C 0.5077(7) 0.2726(2) 1.3846(2)
C29 C 0.3993(6) 0.2394(2) 1.3480(2)
H29 H 0.3009 0.2179 1.3638
C30 C 0.4287(6) 0.2362(2) 1.2883(2)
C31 C 0.3073(6) 0.1958(2) 1.2525(2)
H30 H 0.1819 0.2006 1.2657
H31 H 0.3423 0.1532 1.2584
C32 C 0.3175(5) 0.2108(3) 1.1881(2)
H32 H 0.2551 0.2495 1.1810
H33 H 0.2543 0.1790 1.1662
C33 C 0.5136(5) 0.2156(2) 1.1662(2)
C34 C 0.5155(6) 0.2243(3) 1.1011(2)
H34 H 0.4816 0.1909 1.0781
C35 C 0.8238(6) 0.2462(2) 1.1882(2)
H35 H 0.8768 0.2686 1.1556
H36 H 0.8971 0.2538 1.2228
C36 C 0.8147(6) 0.1779(3) 1.1749(2)
H37 H 0.8512 0.1698 1.1349
H38 H 0.8940 0.1549 1.2010
C37 C 0.5591(8) 0.2309(3) 0.9789(2)
H39 H 0.5689 0.2422 0.9385
H40 H 0.4433 0.2112 0.9856
H41 H 0.6563 0.2031 0.9888
C38 C 0.9411(7) 0.3532(3) 1.3829(2)
H42 H 1.0003 0.3748 1.4142
H43 H 0.9353 0.3794 1.3491
H44 H 1.0096 0.3168 1.3736
C39 C 0.3417(8) 0.2457(3) 1.4706(2)
H45 H 0.3433 0.2531 1.5120
H46 H 0.3545 0.2024 1.4633
H47 H 0.2277 0.2599 1.4546
C40 C 0.5727(7) 0.1007(2) 1.1600(2)
H48 H 0.6546 0.0700 1.1750
H49 H 0.5819 0.1020 1.1181
H50 H 0.4494 0.0906 1.1709
loop_
_geom_bond_atom_site_label_1
_geom_bond_atom_site_label_2
_geom_bond_site_symmetry_1
_geom_bond_site_symmetry_2
O1 C2 1_555 1_555
O2 C1 1_555 1_555
O3 C8 1_555 1_555
O4 C7 1_555 1_555
O5 C22 1_555 1_555
O6 C21 1_555 1_555
O7 C27 1_555 1_555
O8 C28 1_555 1_555
N1 C13 1_555 1_555
N2 C33 1_555 1_555
C1 C2 1_555 1_555
C2 C3 1_555 1_555
C3 H1 1_555 1_555
H2 C3 1_555 1_555
C4 C3 1_555 1_555
C5 C4 1_555 1_555
C6 C5 1_555 1_555
H3 C6 1_555 1_555
C7 C6 1_555 1_555
C8 C7 1_555 1_555
C9 C8 1_555 1_555
H4 C9 1_555 1_555
C10 C5 1_555 1_555
C11 C10 1_555 1_555
H5 C11 1_555 1_555
H6 C11 1_555 1_555
C12 C11 1_555 1_555
H7 C12 1_555 1_555
H8 C12 1_555 1_555
C13 C4 1_555 1_555
C14 C1 1_555 1_555
H9 C14 1_555 1_555
C15 C4 1_555 1_555
H10 C15 1_555 1_555
H11 C15 1_555 1_555
C16 N1 1_555 1_555
H12 C16 1_555 1_555
H13 C16 1_555 1_555
C17 O2 1_555 1_555
H14 C17 1_555 1_555
H15 C17 1_555 1_555
H16 C17 1_555 1_555
C18 O4 1_555 1_555
H17 C18 1_555 1_555
H18 C18 1_555 1_555
H19 C18 1_555 1_555
C19 O3 1_555 1_555
H20 C19 1_555 1_555
H21 C19 1_555 1_555
H22 C19 1_555 1_555
C20 N1 1_555 1_555
H23 C20 1_555 1_555
H24 C20 1_555 1_555
H25 C20 1_555 1_555
C21 C22 1_555 1_555
C22 C23 1_555 1_555
C23 H26 1_555 1_555
H27 C23 1_555 1_555
C24 C23 1_555 1_555
C25 C24 1_555 1_555
C26 C25 1_555 1_555
H28 C26 1_555 1_555
C27 C26 1_555 1_555
C28 C27 1_555 1_555
C29 C28 1_555 1_555
H29 C29 1_555 1_555
C30 C25 1_555 1_555
C31 C30 1_555 1_555
H30 C31 1_555 1_555
H31 C31 1_555 1_555
C32 C31 1_555 1_555
H32 C32 1_555 1_555
H33 C32 1_555 1_555
C33 C24 1_555 1_555
C34 C21 1_555 1_555
H34 C34 1_555 1_555
C35 C24 1_555 1_555
H35 C35 1_555 1_555
H36 C35 1_555 1_555
C36 N2 1_555 1_555
H37 C36 1_555 1_555
H38 C36 1_555 1_555
C37 O6 1_555 1_555
H39 C37 1_555 1_555
H40 C37 1_555 1_555
H41 C37 1_555 1_555
C38 O7 1_555 1_555
H42 C38 1_555 1_555
H43 C38 1_555 1_555
H44 C38 1_555 1_555
C39 O8 1_555 1_555
H45 C39 1_555 1_555
H46 C39 1_555 1_555
H47 C39 1_555 1_555
C40 N2 1_555 1_555
H48 C40 1_555 1_555
H49 C40 1_555 1_555
H50 C40 1_555 1_555
C9 C10 1_555 1_555
C12 C13 1_555 1_555
C13 C14 1_555 1_555
C15 C16 1_555 1_555
C29 C30 1_555 1_555
C32 C33 1_555 1_555
C33 C34 1_555 1_555
C35 C36 1_555 1_555

#END
