
#######################################################################
#
#                 Cambridge Crystallographic Data Centre
#                                CCDC 
#
#######################################################################
#
# If this CIF has been generated from an entry in the Cambridge 
# Structural Database, then it will include bibliographic, chemical, 
# crystal, experimental, refinement or atomic coordinate data resulting 
# from the CCDC's data processing and validation procedures.
#
#######################################################################

data_GIYQIP
_chemical_formula_moiety         'C31 H31 N1 O2 S1'
_chemical_name_systematic        
3,3-Diphenyl-1-((4-methylphenyl)sulfonyl)-2-(2-phenylethyl)pyrrolidine
_symmetry_cell_setting           orthorhombic
_symmetry_space_group_name_H-M   'P 21 21 21'
_symmetry_Int_Tables_number      19
_space_group_name_Hall           'P 2ac 2ab'
loop_
_symmetry_equiv_pos_site_id
_symmetry_equiv_pos_as_xyz
1 x,y,z
2 1/2-x,-y,1/2+z
3 -x,1/2+y,1/2-z
4 1/2+x,1/2-y,-z
_cell_length_a                   7.1009(7)
_cell_length_b                   8.1070(8)
_cell_length_c                   45.591(4)
_cell_angle_alpha                90
_cell_angle_beta                 90
_cell_angle_gamma                90
_cell_volume                     2624.54
_exptl_crystal_colour            colorless
_exptl_crystal_description       prism
_chemical_melting_point          '158-159 deg.C'
_cell_formula_units_Z            4
_exptl_crystal_recrystallization_method 'dichloromethane/ethyl acetate'
loop_
_atom_site_label
_atom_site_type_symbol
_atom_site_fract_x
_atom_site_fract_y
_atom_site_fract_z
C1 C 0.3949(6) 0.5140(5) 0.21348(9)
H1 H 0.3111 0.4352 0.2205
C2 C 0.5394(7) 0.5694(7) 0.23151(8)
H2 H 0.5525 0.5278 0.2504
C3 C 0.6603(7) 0.6840(6) 0.22129(12)
H3 H 0.7559 0.7232 0.2334
C4 C 0.6437(7) 0.7423(5) 0.19363(12)
H4 H 0.7293 0.8197 0.1866
C5 C 0.5006(6) 0.6875(5) 0.17588(9)
H5 H 0.4901 0.7291 0.1569
C6 C 0.3732(5) 0.5729(4) 0.18549(8)
C7 C 0.2195(4) 0.5126(4) 0.16577(7)
H6 H 0.1858 0.5989 0.1520
H7 H 0.1089 0.4868 0.1774
C8 C 0.2817(4) 0.3594(4) 0.14894(7)
H8 H 0.4004 0.3848 0.1394
H9 H 0.3065 0.2731 0.1632
C9 C 0.1505(4) 0.2885(4) 0.12579(7)
H10 H 0.2128 0.1946 0.1163
C10 C -0.0502(4) 0.2332(4) 0.13620(6)
C11 C -0.0452(4) 0.1722(4) 0.16801(7)
C12 C 0.0687(5) 0.0395(5) 0.17544(7)
H11 H 0.1389 -0.0120 0.1609
C13 C 0.0806(5) -0.0177(5) 0.20381(8)
H12 H 0.1596 -0.1058 0.2082
C14 C -0.0234(6) 0.0545(6) 0.22553(8)
H13 H -0.0141 0.0174 0.2448
C15 C -0.1415(6) 0.1822(5) 0.21857(8)
H14 H -0.2160 0.2294 0.2331
C16 C -0.1513(5) 0.2415(4) 0.19025(8)
H15 H -0.2307 0.3297 0.1860
C17 C -0.1380(5) 0.0953(4) 0.11749(7)
C18 C -0.0509(5) 0.0159(4) 0.09440(7)
H16 H 0.0720 0.0440 0.0894
C19 C -0.1438(6) -0.1053(4) 0.07847(8)
H17 H -0.0824 -0.1575 0.0630
C20 C -0.3260(6) -0.1490(4) 0.08528(9)
H18 H -0.3879 -0.2298 0.0745
C21 C -0.4150(5) -0.0723(5) 0.10809(8)
H19 H -0.5380 -0.1009 0.1129
C22 C -0.3226(5) 0.0473(4) 0.12396(7)
H20 H -0.3849 0.0978 0.1395
C23 C -0.1651(4) 0.3908(4) 0.13076(7)
H21 H -0.2989 0.3671 0.1303
H22 H -0.1406 0.4726 0.1458
C24 C -0.0971(4) 0.4496(5) 0.10124(7)
H23 H -0.1556 0.3883 0.0854
H24 H -0.1214 0.5664 0.0985
C25 C 0.2253(5) 0.2862(4) 0.05127(7)
C26 C 0.0752(6) 0.2790(5) 0.03237(9)
H25 H -0.0129 0.3639 0.0320
C27 C 0.0557(6) 0.1442(7) 0.01385(9)
H26 H -0.0468 0.1398 0.0012
C28 C 0.1834(7) 0.0175(5) 0.01371(8)
C29 C 0.3319(6) 0.0279(5) 0.03274(8)
H27 H 0.4202 -0.0568 0.0331
C30 C 0.3542(6) 0.1605(5) 0.05136(8)
H28 H 0.4569 0.1645 0.0640
C31 C 0.1632(7) -0.1287(6) -0.00704(9)
H29 H 0.0541 -0.1134 -0.0192
H30 H 0.1496 -0.2282 0.0042
H31 H 0.2733 -0.1365 -0.0192
N1 N 0.1074(3) 0.4154(3) 0.10301(5)
O1 O 0.4357(3) 0.4509(3) 0.08648(5)
O2 O 0.1730(4) 0.5950(3) 0.06124(5)
S1 S 0.24555(14) 0.45202(12) 0.07555(2)
loop_
_geom_bond_atom_site_label_1
_geom_bond_atom_site_label_2
_geom_bond_site_symmetry_1
_geom_bond_site_symmetry_2
C1 H1 1_555 1_555
C2 C1 1_555 1_555
H2 C2 1_555 1_555
C3 C2 1_555 1_555
H3 C3 1_555 1_555
C4 C3 1_555 1_555
H4 C4 1_555 1_555
C5 C4 1_555 1_555
H5 C5 1_555 1_555
C6 C1 1_555 1_555
C7 C6 1_555 1_555
H6 C7 1_555 1_555
H7 C7 1_555 1_555
C8 C7 1_555 1_555
H8 C8 1_555 1_555
H9 C8 1_555 1_555
C9 C8 1_555 1_555
H10 C9 1_555 1_555
C10 C9 1_555 1_555
C11 C10 1_555 1_555
C12 C11 1_555 1_555
H11 C12 1_555 1_555
C13 C12 1_555 1_555
H12 C13 1_555 1_555
C14 C13 1_555 1_555
H13 C14 1_555 1_555
C15 C14 1_555 1_555
H14 C15 1_555 1_555
C16 C11 1_555 1_555
H15 C16 1_555 1_555
C17 C10 1_555 1_555
C18 C17 1_555 1_555
H16 C18 1_555 1_555
C19 C18 1_555 1_555
H17 C19 1_555 1_555
C20 C19 1_555 1_555
H18 C20 1_555 1_555
C21 C20 1_555 1_555
H19 C21 1_555 1_555
C22 C17 1_555 1_555
H20 C22 1_555 1_555
C23 C10 1_555 1_555
H21 C23 1_555 1_555
H22 C23 1_555 1_555
C24 C23 1_555 1_555
H23 C24 1_555 1_555
H24 C24 1_555 1_555
C25 C26 1_555 1_555
C26 H25 1_555 1_555
C27 C26 1_555 1_555
H26 C27 1_555 1_555
C28 C27 1_555 1_555
C29 C28 1_555 1_555
H27 C29 1_555 1_555
C30 C25 1_555 1_555
H28 C30 1_555 1_555
C31 C28 1_555 1_555
H29 C31 1_555 1_555
H30 C31 1_555 1_555
H31 C31 1_555 1_555
N1 C9 1_555 1_555
O1 S1 1_555 1_555
O2 S1 1_555 1_555
S1 C25 1_555 1_555
C5 C6 1_555 1_555
C15 C16 1_555 1_555
C21 C22 1_555 1_555
C24 N1 1_555 1_555
C29 C30 1_555 1_555
N1 S1 1_555 1_555

#END
