
#######################################################################
#
#                 Cambridge Crystallographic Data Centre
#                                CCDC 
#
#######################################################################
#
# If this CIF has been generated from an entry in the Cambridge 
# Structural Database, then it will include bibliographic, chemical, 
# crystal, experimental, refinement or atomic coordinate data resulting 
# from the CCDC's data processing and validation procedures.
#
#######################################################################

data_GIYYET
_chemical_formula_moiety         'C25 H22 N2 O8'
_chemical_name_systematic        
2\b,5\b-bis(4-Nitrophenyl)-4\b-ethoxycarbonyl-4\a-benzyl-1,3-dioxolane
_symmetry_cell_setting           monoclinic
_symmetry_space_group_name_H-M   'P 21/c'
_symmetry_Int_Tables_number      14
_space_group_name_Hall           '-P 2ybc'
loop_
_symmetry_equiv_pos_site_id
_symmetry_equiv_pos_as_xyz
1 x,y,z
2 -x,1/2+y,1/2-z
3 -x,-y,-z
4 x,1/2-y,1/2+z
_cell_length_a                   17.477(11)
_cell_length_b                   12.592(7)
_cell_length_c                   11.070(7)
_cell_angle_alpha                90
_cell_angle_beta                 103.580(9)
_cell_angle_gamma                90
_cell_volume                     2368.07
_exptl_crystal_colour            colorless
_exptl_crystal_description       block
_chemical_melting_point          '55-59 deg.C'
_cell_formula_units_Z            4
loop_
_atom_site_label
_atom_site_type_symbol
_atom_site_fract_x
_atom_site_fract_y
_atom_site_fract_z
O1 O 0.36437(7) 0.82064(10) 0.30346(13)
O2 O 0.27157(7) 0.70061(10) 0.32514(15)
O3 O 0.59117(17) 0.6201(2) 0.8424(2)
O4 O 0.52636(16) 0.4733(2) 0.8180(2)
O5 O 0.29573(18) 1.34930(14) 0.3861(2)
O6 O 0.21328(17) 1.35562(15) 0.2099(3)
O7 O 0.25978(10) 0.83162(13) 0.51242(13)
O8 O 0.16842(9) 0.92945(10) 0.38419(13)
N1 N 0.53974(14) 0.5614(2) 0.7829(2)
N2 N 0.26021(15) 1.30792(15) 0.2901(2)
C1 C 0.35224(11) 0.71250(14) 0.32221(19)
H1 H 0.3634 0.6706 0.2526
C2 C 0.29108(10) 0.86061(14) 0.23304(17)
H2 H 0.2838 0.8404 0.1447
C3 C 0.23156(10) 0.79835(12) 0.29203(16)
C4 C 0.40380(10) 0.67467(14) 0.44302(18)
C5 C 0.45834(12) 0.74087(16) 0.5193(2)
H3 H 0.4645 0.8113 0.4950
C6 C 0.50334(13) 0.70338(18) 0.6304(2)
H4 H 0.5405 0.7475 0.6821
C7 C 0.49282(11) 0.60034(17) 0.66404(19)
C8 C 0.43904(12) 0.53298(15) 0.5914(2)
H5 H 0.4327 0.4630 0.6168
C9 C 0.39469(11) 0.57148(14) 0.48015(19)
H6 H 0.3577 0.5269 0.4288
C10 C 0.28934(10) 0.97908(13) 0.24454(16)
C11 C 0.24448(11) 1.03906(15) 0.14739(17)
H7 H 0.2197 1.0057 0.0725
C12 C 0.23620(12) 1.14701(15) 0.1606(2)
H8 H 0.2062 1.1877 0.0952
C13 C 0.27285(12) 1.19433(14) 0.2719(2)
C14 C 0.32010(12) 1.13777(15) 0.3677(2)
H9 H 0.3461 1.1721 0.4413
C15 C 0.32847(12) 1.02965(15) 0.35326(18)
H10 H 0.3608 0.9900 0.4173
C16 C 0.15279(11) 0.77671(14) 0.20211(17)
H11 H 0.1282 0.8445 0.1714
H12 H 0.1618 0.7369 0.1307
C17 C 0.09682(11) 0.71429(16) 0.26144(19)
C18 C 0.03019(15) 0.7619(2) 0.2833(3)
H13 H 0.0193 0.8332 0.2603
C19 C -0.02083(19) 0.7060(3) 0.3387(4)
H14 H -0.0658 0.7397 0.3532
C20 C -0.00598(18) 0.6026(3) 0.3721(3)
H15 H -0.0408 0.5647 0.4091
C21 C 0.06054(16) 0.5537(2) 0.3514(3)
H16 H 0.0713 0.4826 0.3752
C22 C 0.11130(12) 0.60929(17) 0.29578(19)
H17 H 0.1562 0.5753 0.2811
C23 C 0.22215(11) 0.85316(14) 0.41098(17)
C24 C 0.1586(2) 0.9935(2) 0.4893(3)
H18 H 0.1335 0.9512 0.5435
H19 H 0.2102 1.0170 0.5380
C25 C 0.1103(3) 1.0847(4) 0.4428(5)
H20 H 0.1029 1.1274 0.5121
H21 H 0.0595 1.0609 0.3945
H22 H 0.1360 1.1269 0.3906
C26? C 0.1586(2) 0.9935(2) 0.4893(3)
H23? H 0.1809 1.0645 0.4852
H24? H 0.1859 0.9601 0.5676
C27? C 0.0729(5) 1.0013(7) 0.4830(8)
H25? H 0.0648 1.0425 0.5530
H26? H 0.0513 0.9306 0.4860
H27? H 0.0467 1.0358 0.4061
loop_
_geom_bond_atom_site_label_1
_geom_bond_atom_site_label_2
_geom_bond_site_symmetry_1
_geom_bond_site_symmetry_2
O1 C1 1_555 1_555
O2 C1 1_555 1_555
O3 N1 1_555 1_555
O4 N1 1_555 1_555
O5 N2 1_555 1_555
O6 N2 1_555 1_555
O7 C23 1_555 1_555
O8 C23 1_555 1_555
N1 C7 1_555 1_555
N2 C13 1_555 1_555
C1 H1 1_555 1_555
C2 O1 1_555 1_555
H2 C2 1_555 1_555
C3 O2 1_555 1_555
C4 C1 1_555 1_555
C5 C4 1_555 1_555
H3 C5 1_555 1_555
C6 C5 1_555 1_555
H4 C6 1_555 1_555
C7 C6 1_555 1_555
C8 C7 1_555 1_555
H5 C8 1_555 1_555
C9 C4 1_555 1_555
H6 C9 1_555 1_555
C10 C2 1_555 1_555
C11 C10 1_555 1_555
H7 C11 1_555 1_555
C12 C11 1_555 1_555
H8 C12 1_555 1_555
C13 C12 1_555 1_555
C14 C13 1_555 1_555
H9 C14 1_555 1_555
C15 C10 1_555 1_555
H10 C15 1_555 1_555
C16 C3 1_555 1_555
H11 C16 1_555 1_555
H12 C16 1_555 1_555
C17 C16 1_555 1_555
C18 C17 1_555 1_555
H13 C18 1_555 1_555
C19 C18 1_555 1_555
H14 C19 1_555 1_555
C20 C19 1_555 1_555
H15 C20 1_555 1_555
C21 C20 1_555 1_555
H16 C21 1_555 1_555
C22 C17 1_555 1_555
H17 C22 1_555 1_555
C23 C3 1_555 1_555
C24 O8 1_555 1_555
H18 C24 1_555 1_555
H19 C24 1_555 1_555
C25 C24 1_555 1_555
H20 C25 1_555 1_555
H21 C25 1_555 1_555
H22 C25 1_555 1_555
C2 C3 1_555 1_555
C8 C9 1_555 1_555
C14 C15 1_555 1_555
C21 C22 1_555 1_555

#END
