
#######################################################################
#
#                 Cambridge Crystallographic Data Centre
#                                CCDC 
#
#######################################################################
#
# If this CIF has been generated from an entry in the Cambridge 
# Structural Database, then it will include bibliographic, chemical, 
# crystal, experimental, refinement or atomic coordinate data resulting 
# from the CCDC's data processing and validation procedures.
#
#######################################################################

data_GIYYAP01
_chemical_formula_moiety         'C33 H28 O4'
_chemical_name_systematic        
2\b,5\b-bis(2-Naphthyl)-4\a-ethoxycarbonyl-4\b-benzyl-1,3-dioxolane
_symmetry_cell_setting           monoclinic
_symmetry_space_group_name_H-M   'C 2/c'
_symmetry_Int_Tables_number      15
_space_group_name_Hall           '-C 2yn'
loop_
_symmetry_equiv_pos_site_id
_symmetry_equiv_pos_as_xyz
1 x,y,z
2 1/2+x,1/2+y,z
3 -x,y,1/2-z
4 1/2-x,1/2+y,1/2-z
5 -x,-y,-z
6 1/2-x,1/2-y,-z
7 x,-y,1/2+z
8 1/2+x,1/2-y,1/2+z
_cell_length_a                   16.765(9)
_cell_length_b                   12.101(7)
_cell_length_c                   25.379(14)
_cell_angle_alpha                90
_cell_angle_beta                 104.041(9)
_cell_angle_gamma                90
_cell_volume                     4994.89
_exptl_crystal_colour            colorless
_exptl_crystal_description       block
_cell_formula_units_Z            8
loop_
_atom_site_label
_atom_site_type_symbol
_atom_site_fract_x
_atom_site_fract_y
_atom_site_fract_z
O1 O 0.07866(7) 0.96171(9) 0.21087(4)
O2 O 0.13674(7) 0.86938(9) 0.15157(4)
O3 O 0.11308(8) 0.65524(10) 0.16023(5)
O4 O 0.21751(8) 0.64075(10) 0.23447(5)
C1 C 0.06981(9) 0.94227(13) 0.15481(6)
H1 H 0.0160 0.9052 0.1390
C2 C 0.10331(10) 0.85700(13) 0.23520(6)
H2 H 0.0556 0.8051 0.2249
C3 C 0.16940(10) 0.82195(13) 0.20393(6)
C4 C 0.07557(9) 1.04758(13) 0.12488(6)
C5 C 0.02094(10) 1.06758(13) 0.07616(6)
H3 H -0.0213 1.0155 0.0623
C6 C 0.02658(10) 1.16514(13) 0.04607(6)
C7 C -0.02953(11) 1.18813(14) -0.00415(7)
H4 H -0.0717 1.1365 -0.0189
C8 C -0.02363(12) 1.28399(15) -0.03173(7)
H5 H -0.0615 1.2982 -0.0655
C9 C 0.03846(12) 1.36147(14) -0.01008(7)
H6 H 0.0419 1.4280 -0.0293
C10 C 0.09384(11) 1.34185(14) 0.03834(7)
H7 H 0.1355 1.3947 0.0524
C11 C 0.08957(10) 1.24342(13) 0.06770(7)
C12 C 0.14505(10) 1.22009(14) 0.11836(7)
H8 H 0.1875 1.2714 0.1332
C13 C 0.13853(10) 1.12536(13) 0.14612(7)
H9 H 0.1764 1.1113 0.1799
C14 C 0.12916(9) 0.86339(13) 0.29601(6)
C15 C 0.11972(10) 0.76728(14) 0.32592(7)
H10 H 0.1001 0.7010 0.3071
C16 C 0.13856(11) 0.76887(14) 0.38156(7)
H11 H 0.1319 0.7036 0.4009
C17 C 0.16786(10) 0.86644(14) 0.41063(7)
C18 C 0.18459(12) 0.87243(16) 0.46822(7)
H12 H 0.1762 0.8091 0.4883
C19 C 0.21227(13) 0.96716(18) 0.49485(7)
H13 H 0.2221 0.9702 0.5333
C20 C 0.22661(13) 1.06174(17) 0.46561(8)
H14 H 0.2476 1.1272 0.4847
C21 C 0.21051(12) 1.05957(15) 0.41012(7)
H15 H 0.2200 1.1238 0.3910
C22 C 0.17986(10) 0.96274(14) 0.38088(7)
C23 C 0.15908(10) 0.95835(13) 0.32313(6)
H16 H 0.1661 1.0223 0.3030
C24 C 0.17099(10) 0.69624(13) 0.20111(6)
C25 C 0.10395(13) 0.53507(15) 0.15942(8)
H17 H 0.1589 0.4998 0.1683
H18 H 0.0744 0.5107 0.1226
C26 C 0.05720(14) 0.50036(17) 0.19972(9)
H19 H 0.0514 0.4198 0.1990
H20 H 0.0026 0.5346 0.1905
H21 H 0.0869 0.5240 0.2361
C27 C 0.25547(10) 0.86783(13) 0.22896(6)
H22 H 0.2513 0.9480 0.2356
H23 H 0.2779 0.8316 0.2644
C28 C 0.31405(10) 0.84964(16) 0.19281(8)
C29 C 0.31048(12) 0.9166(2) 0.14767(8)
H24 H 0.2722 0.9758 0.1401
C30 C 0.36265(15) 0.8970(3) 0.11370(10)
H25 H 0.3589 0.9419 0.0825
C31 C 0.41961(17) 0.8133(4) 0.12496(16)
H26 H 0.4552 0.8003 0.1017
C32 C 0.42472(14) 0.7485(2) 0.17004(17)
H27 H 0.4644 0.6910 0.1779
C33 C 0.37256(11) 0.76602(17) 0.20433(11)
H28 H 0.3769 0.7209 0.2355
loop_
_geom_bond_atom_site_label_1
_geom_bond_atom_site_label_2
_geom_bond_site_symmetry_1
_geom_bond_site_symmetry_2
O1 C1 1_555 1_555
O2 C1 1_555 1_555
O3 C24 1_555 1_555
O4 C24 1_555 1_555
C1 H1 1_555 1_555
C2 O1 1_555 1_555
H2 C2 1_555 1_555
C3 O2 1_555 1_555
C4 C1 1_555 1_555
C5 C4 1_555 1_555
H3 C5 1_555 1_555
C6 C5 1_555 1_555
C7 C6 1_555 1_555
H4 C7 1_555 1_555
C8 C7 1_555 1_555
H5 C8 1_555 1_555
C9 C8 1_555 1_555
H6 C9 1_555 1_555
C10 C9 1_555 1_555
H7 C10 1_555 1_555
C11 C6 1_555 1_555
C12 C11 1_555 1_555
H8 C12 1_555 1_555
C13 C4 1_555 1_555
H9 C13 1_555 1_555
C14 C2 1_555 1_555
C15 C14 1_555 1_555
H10 C15 1_555 1_555
C16 C15 1_555 1_555
H11 C16 1_555 1_555
C17 C16 1_555 1_555
C18 C17 1_555 1_555
H12 C18 1_555 1_555
C19 C18 1_555 1_555
H13 C19 1_555 1_555
C20 C19 1_555 1_555
H14 C20 1_555 1_555
C21 C20 1_555 1_555
H15 C21 1_555 1_555
C22 C17 1_555 1_555
C23 C14 1_555 1_555
H16 C23 1_555 1_555
C24 C3 1_555 1_555
C25 O3 1_555 1_555
H17 C25 1_555 1_555
H18 C25 1_555 1_555
C26 C25 1_555 1_555
H19 C26 1_555 1_555
H20 C26 1_555 1_555
H21 C26 1_555 1_555
C27 C3 1_555 1_555
H22 C27 1_555 1_555
H23 C27 1_555 1_555
C28 C27 1_555 1_555
C29 C28 1_555 1_555
H24 C29 1_555 1_555
C30 C29 1_555 1_555
H25 C30 1_555 1_555
C31 C30 1_555 1_555
H26 C31 1_555 1_555
C32 C31 1_555 1_555
H27 C32 1_555 1_555
C33 C28 1_555 1_555
H28 C33 1_555 1_555
C2 C3 1_555 1_555
C10 C11 1_555 1_555
C12 C13 1_555 1_555
C21 C22 1_555 1_555
C22 C23 1_555 1_555
C32 C33 1_555 1_555

#END
