
#######################################################################
#
#                 Cambridge Crystallographic Data Centre
#                                CCDC 
#
#######################################################################
#
# If this CIF has been generated from an entry in the Cambridge 
# Structural Database, then it will include bibliographic, chemical, 
# crystal, experimental, refinement or atomic coordinate data resulting 
# from the CCDC's data processing and validation procedures.
#
#######################################################################

data_GIYYAP
_chemical_formula_moiety         'C33 H28 O4'
_chemical_name_systematic        
2\b,5\b-bis(2-Naphthyl)-4\b-ethoxycarbonyl-4\a-benzyl-1,3-dioxolane
_symmetry_cell_setting           triclinic
_symmetry_space_group_name_H-M   'P -1'
_symmetry_Int_Tables_number      2
_space_group_name_Hall           '-P 1'
loop_
_symmetry_equiv_pos_site_id
_symmetry_equiv_pos_as_xyz
1 x,y,z
2 -x,-y,-z
_cell_length_a                   10.876(4)
_cell_length_b                   11.998(4)
_cell_length_c                   21.376(7)
_cell_angle_alpha                95.456(6)
_cell_angle_beta                 103.740(5)
_cell_angle_gamma                106.053(6)
_cell_volume                     2564.98
_exptl_crystal_colour            colorless
_exptl_crystal_description       block
_cell_formula_units_Z            4
loop_
_atom_site_label
_atom_site_type_symbol
_atom_site_fract_x
_atom_site_fract_y
_atom_site_fract_z
C1 C 0.4238(6) 0.8392(4) 0.2798(2)
H1 H 0.4942 0.8547 0.3222
C2 C 0.4187(5) 0.6575(4) 0.2385(2)
H2 H 0.4867 0.6430 0.2747
C3 C 0.4890(5) 0.8503(4) 0.2212(2)
C4 C 0.3304(6) 0.9146(4) 0.2846(2)
C5 C 0.2025(5) 0.8834(4) 0.2401(2)
H3 H 0.1709 0.8134 0.2084
C6 C 0.1250(6) 0.9544(4) 0.2429(3)
H4 H 0.0396 0.9344 0.2126
C7 C 0.1690(6) 1.0541(4) 0.2890(2)
C8 C 0.0839(7) 1.1311(5) 0.2923(3)
H5 H -0.0031 1.1113 0.2633
C9 C 0.1336(8) 1.2296(5) 0.3373(3)
H6 H 0.0811 1.2802 0.3405
C10 C 0.2597(9) 1.2581(6) 0.3789(3)
H7 H 0.2918 1.3297 0.4093
C11 C 0.3403(8) 1.1910(5) 0.3791(3)
H8 H 0.4255 1.2132 0.4099
C12 C 0.2971(6) 1.0909(4) 0.3342(2)
C13 C 0.3768(6) 1.0104(4) 0.3294(2)
H9 H 0.4626 1.0279 0.3591
C14 C 0.3298(5) 0.5421(4) 0.1975(2)
C15 C 0.3068(7) 0.4397(5) 0.2252(3)
H10 H 0.3476 0.4442 0.2703
C16 C 0.2273(7) 0.3341(5) 0.1889(3)
H11 H 0.2132 0.2658 0.2086
C17 C 0.1662(5) 0.3255(5) 0.1223(3)
C18 C 0.0836(6) 0.2155(6) 0.0830(3)
H12 H 0.0714 0.1455 0.1015
C19 C 0.0223(6) 0.2110(8) 0.0191(4)
H13 H -0.0346 0.1378 -0.0066
C20 C 0.0420(6) 0.3139(9) -0.0100(3)
H14 H -0.0016 0.3091 -0.0548
C21 C 0.1229(5) 0.4189(6) 0.0261(2)
H15 H 0.1378 0.4873 0.0063
C22 C 0.1853(5) 0.4270(5) 0.0933(2)
C23 C 0.2689(4) 0.5366(5) 0.1326(2)
H16 H 0.2827 0.6062 0.1139
C24 C 0.6357(6) 0.9300(5) 0.2442(3)
H17 H 0.6387 1.0099 0.2626
H18 H 0.6855 0.8985 0.2795
C25 C 0.7037(5) 0.9388(5) 0.1899(3)
C26 C 0.7241(7) 1.0367(7) 0.1606(4)
H19 H 0.6975 1.1014 0.1750
C27 C 0.7848(8) 1.0409(8) 0.1093(5)
H20 H 0.8001 1.1091 0.0894
C28 C 0.8212(6) 0.9486(9) 0.0882(4)
H21 H 0.8617 0.9522 0.0534
C29 C 0.8011(5) 0.8524(7) 0.1158(3)
H22 H 0.8267 0.7876 0.1005
C30 C 0.7431(4) 0.8471(5) 0.1666(3)
H23 H 0.7300 0.7784 0.1861
C31 C 0.4064(6) 0.8904(5) 0.1660(3)
C32 C 0.3430(10) 1.0439(9) 0.1222(5)
H24 H 0.2554 0.9823 0.1055
H25 H 0.3287 1.1152 0.1426
C33 C 0.3946(13) 1.0692(14) 0.0718(6)
H26 H 0.4074 1.1523 0.0685
H27 H 0.3333 1.0197 0.0311
H28 H 0.4804 1.0539 0.0792
O1 O 0.4833(3) 0.7319(3) 0.20126(14)
O2 O 0.3445(4) 0.7201(3) 0.26547(15)
O3 O 0.3181(4) 0.8178(4) 0.11897(19)
O4 O 0.4320(4) 1.0021(3) 0.17279(18)
C34 C 0.9390(4) 0.6322(4) 0.26045(17)
H29 H 1.0241 0.6795 0.2530
C35 C 0.9505(4) 0.7607(4) 0.34476(17)
H30 H 1.0371 0.8180 0.3449
C36 C 0.9745(4) 0.5772(3) 0.32360(16)
C37 C 0.8574(4) 0.5469(4) 0.19781(17)
C38 C 0.7275(4) 0.5278(4) 0.17311(18)
H31 H 0.6821 0.5673 0.1958
C39 C 0.6542(4) 0.4479(4) 0.11216(19)
C40 C 0.5200(5) 0.4313(5) 0.0842(2)
H32 H 0.4732 0.4710 0.1058
C41 C 0.4548(5) 0.3571(5) 0.0252(3)
H33 H 0.3628 0.3449 0.0063
C42 C 0.5242(4) 0.2998(5) -0.0071(2)
H34 H 0.4796 0.2514 -0.0486
C43 C 0.6535(4) 0.3127(4) 0.0201(2)
H35 H 0.6981 0.2709 -0.0018
C44 C 0.7249(4) 0.3889(4) 0.08191(18)
C45 C 0.8603(4) 0.4095(5) 0.1089(2)
H36 H 0.9069 0.3690 0.0876
C46 C 0.9265(4) 0.4868(4) 0.16532(18)
H37 H 1.0192 0.5008 0.1832
C47 C 0.8770(4) 0.8209(4) 0.38054(17)
C48 C 0.9216(4) 0.9403(4) 0.39853(18)
H38 H 0.9992 0.9845 0.3884
C49 C 0.8531(5) 1.0003(4) 0.43258(19)
C50 C 0.8986(6) 1.1252(5) 0.4504(2)
H39 H 0.9747 1.1710 0.4397
C51 C 0.8294(9) 1.1784(7) 0.4837(3)
H40 H 0.8574 1.2617 0.4953
C52 C 0.7192(11) 1.1111(9) 0.5005(3)
H41 H 0.6734 1.1490 0.5238
C53 C 0.6772(9) 0.9937(7) 0.4841(3)
H42 H 0.6034 0.9499 0.4973
C54 C 0.7394(6) 0.9322(5) 0.4475(2)
C55 C 0.6973(6) 0.8096(5) 0.4286(3)
H43 H 0.6216 0.7637 0.4396
C56 C 0.7610(5) 0.7548(4) 0.3951(2)
H44 H 0.7278 0.6718 0.3813
C57 C 1.1081(6) 0.5588(5) 0.3334(2)
H45 H 1.1670 0.6259 0.3203
H46 H 1.0972 0.4870 0.3030
C58 C 1.1795(5) 0.5466(4) 0.40165(18)
C59 C 1.3159(6) 0.5956(4) 0.4229(2)
H47 H 1.3618 0.6380 0.3956
C60 C 1.3873(6) 0.5837(4) 0.4840(2)
H48 H 1.4812 0.6185 0.4983
C61 C 1.3219(6) 0.5217(4) 0.5237(2)
H49 H 1.3705 0.5122 0.5650
C62 C 1.1849(5) 0.4733(4) 0.50309(19)
H50 H 1.1388 0.4319 0.5306
C63 C 1.1151(5) 0.4854(4) 0.44241(19)
H51 H 1.0211 0.4510 0.4284
C64 C 0.8643(8) 0.4671(6) 0.3204(2)
C65 C 0.6762(13) 0.3265(9) 0.3223(7)
H52 H 0.6127 0.3310 0.3482
H53 H 0.7258 0.2738 0.3406
C66 C 0.593(3) 0.2690(16) 0.2484(9)
H54 H 0.5414 0.1872 0.2467
H55 H 0.6548 0.2710 0.2213
H56 H 0.5331 0.3136 0.2319
O5 O 0.9122(7) 0.3659(5) 0.2961(3)
O6 O 0.7742(6) 0.4488(6) 0.3310(3)
O7 O 0.9734(3) 0.6621(2) 0.37327(11)
O8 O 0.8740(3) 0.7115(2) 0.28010(11)
C67? C 0.427(4) 1.084(3) 0.1239(19)
H57? H 0.5057 1.1551 0.1377
H58? H 0.4216 1.0440 0.0801
C68? C 0.316(4) 1.109(6) 0.125(2)
H59? H 0.3009 1.1621 0.0937
H60? H 0.3238 1.1469 0.1687
H61? H 0.2404 1.0361 0.1121
C69? C 0.8643(8) 0.4671(6) 0.3204(2)
C70? C 0.7194(14) 0.2734(10) 0.3015(8)
H62? H 0.7237 0.2555 0.3461
H63? H 0.7155 0.2021 0.2727
C71? C 0.593(3) 0.3161(19) 0.2741(11)
H64? H 0.5117 0.2489 0.2640
H65? H 0.6006 0.3487 0.2344
H66? H 0.5896 0.3766 0.3072
O9? O 0.7454(8) 0.5025(6) 0.3384(3)
O10? O 0.8423(8) 0.3788(7) 0.3024(4)
loop_
_geom_bond_atom_site_label_1
_geom_bond_atom_site_label_2
_geom_bond_site_symmetry_1
_geom_bond_site_symmetry_2
C1 H1 1_555 1_555
C2 H2 1_555 1_555
C3 C1 1_555 1_555
C4 C1 1_555 1_555
C5 C4 1_555 1_555
H3 C5 1_555 1_555
C6 C5 1_555 1_555
H4 C6 1_555 1_555
C7 C6 1_555 1_555
C8 C7 1_555 1_555
H5 C8 1_555 1_555
C9 C8 1_555 1_555
H6 C9 1_555 1_555
C10 C9 1_555 1_555
H7 C10 1_555 1_555
C11 C10 1_555 1_555
H8 C11 1_555 1_555
C12 C7 1_555 1_555
C13 C4 1_555 1_555
H9 C13 1_555 1_555
C14 C2 1_555 1_555
C15 C14 1_555 1_555
H10 C15 1_555 1_555
C16 C15 1_555 1_555
H11 C16 1_555 1_555
C17 C16 1_555 1_555
C18 C17 1_555 1_555
H12 C18 1_555 1_555
C19 C18 1_555 1_555
H13 C19 1_555 1_555
C20 C19 1_555 1_555
H14 C20 1_555 1_555
C21 C20 1_555 1_555
H15 C21 1_555 1_555
C22 C17 1_555 1_555
C23 C14 1_555 1_555
H16 C23 1_555 1_555
C24 C3 1_555 1_555
H17 C24 1_555 1_555
H18 C24 1_555 1_555
C25 C24 1_555 1_555
C26 C25 1_555 1_555
H19 C26 1_555 1_555
C27 C26 1_555 1_555
H20 C27 1_555 1_555
C28 C27 1_555 1_555
H21 C28 1_555 1_555
C29 C28 1_555 1_555
H22 C29 1_555 1_555
C30 C25 1_555 1_555
H23 C30 1_555 1_555
C31 C3 1_555 1_555
C32 H24 1_555 1_555
H25 C32 1_555 1_555
C33 C32 1_555 1_555
H26 C33 1_555 1_555
H27 C33 1_555 1_555
H28 C33 1_555 1_555
O1 C2 1_555 1_555
O2 C1 1_555 1_555
O3 C31 1_555 1_555
O4 C31 1_555 1_555
C34 H29 1_555 1_555
C35 H30 1_555 1_555
C36 C34 1_555 1_555
C37 C34 1_555 1_555
C38 C37 1_555 1_555
H31 C38 1_555 1_555
C39 C38 1_555 1_555
C40 C39 1_555 1_555
H32 C40 1_555 1_555
C41 C40 1_555 1_555
H33 C41 1_555 1_555
C42 C41 1_555 1_555
H34 C42 1_555 1_555
C43 C42 1_555 1_555
H35 C43 1_555 1_555
C44 C39 1_555 1_555
C45 C44 1_555 1_555
H36 C45 1_555 1_555
C46 C37 1_555 1_555
H37 C46 1_555 1_555
C47 C35 1_555 1_555
C48 C47 1_555 1_555
H38 C48 1_555 1_555
C49 C48 1_555 1_555
C50 C49 1_555 1_555
H39 C50 1_555 1_555
C51 C50 1_555 1_555
H40 C51 1_555 1_555
C52 C51 1_555 1_555
H41 C52 1_555 1_555
C53 C52 1_555 1_555
H42 C53 1_555 1_555
C54 C49 1_555 1_555
C55 C54 1_555 1_555
H43 C55 1_555 1_555
C56 C47 1_555 1_555
H44 C56 1_555 1_555
C57 C36 1_555 1_555
H45 C57 1_555 1_555
H46 C57 1_555 1_555
C58 C57 1_555 1_555
C59 C58 1_555 1_555
H47 C59 1_555 1_555
C60 C59 1_555 1_555
H48 C60 1_555 1_555
C61 C60 1_555 1_555
H49 C61 1_555 1_555
C62 C61 1_555 1_555
H50 C62 1_555 1_555
C63 C58 1_555 1_555
H51 C63 1_555 1_555
C64 C36 1_555 1_555
C65 H52 1_555 1_555
H53 C65 1_555 1_555
C66 C65 1_555 1_555
H54 C66 1_555 1_555
H55 C66 1_555 1_555
H56 C66 1_555 1_555
O5 C64 1_555 1_555
O6 C64 1_555 1_555
O7 C35 1_555 1_555
O8 C34 1_555 1_555
C2 O2 1_555 1_555
C3 O1 1_555 1_555
C11 C12 1_555 1_555
C12 C13 1_555 1_555
C21 C22 1_555 1_555
C22 C23 1_555 1_555
C29 C30 1_555 1_555
C32 O4 1_555 1_555
C35 O8 1_555 1_555
C36 O7 1_555 1_555
C43 C44 1_555 1_555
C45 C46 1_555 1_555
C53 C54 1_555 1_555
C55 C56 1_555 1_555
C62 C63 1_555 1_555
C65 O6 1_555 1_555

#END
