
#######################################################################
#
#                 Cambridge Crystallographic Data Centre
#                                CCDC 
#
#######################################################################
#
# If this CIF has been generated from an entry in the Cambridge 
# Structural Database, then it will include bibliographic, chemical, 
# crystal, experimental, refinement or atomic coordinate data resulting 
# from the CCDC's data processing and validation procedures.
#
#######################################################################

data_GIZCUO
_chemical_formula_moiety         'C34 H25 Cl3 O3 S2,0.5(C1 H4 O1)'
_chemical_name_systematic        
'2,4-bis(4-Chlorobenzoyl)-1-(4-chlorophenyl)-3,5-bis(2-thienyl)cyclohexanol methanol solvate'
_symmetry_cell_setting           orthorhombic
_symmetry_space_group_name_H-M   'P b c a'
_symmetry_Int_Tables_number      61
_space_group_name_Hall           '-P 2ac 2ab'
loop_
_symmetry_equiv_pos_site_id
_symmetry_equiv_pos_as_xyz
1 x,y,z
2 1/2-x,-y,1/2+z
3 -x,1/2+y,1/2-z
4 1/2+x,1/2-y,-z
5 -x,-y,-z
6 1/2+x,y,1/2-z
7 x,1/2-y,1/2+z
8 1/2-x,1/2+y,z
_cell_length_a                   22.5660(16)
_cell_length_b                   12.1356(12)
_cell_length_c                   26.030(2)
_cell_angle_alpha                90
_cell_angle_beta                 90
_cell_angle_gamma                90
_cell_volume                     7128.37
_exptl_crystal_colour            colorless
_exptl_crystal_description       block
_cell_formula_units_Z            8
_exptl_crystal_recrystallization_method methanol
loop_
_atom_site_label
_atom_site_type_symbol
_atom_site_fract_x
_atom_site_fract_y
_atom_site_fract_z
Cl1 Cl 0.95396(12) 0.3492(3) -0.16180(9)
Cl2 Cl 1.09441(11) 0.3656(2) 0.12369(13)
Cl3 Cl 0.53719(14) 0.0925(3) 0.28831(11)
O1 O 0.8096(2) -0.0250(4) -0.02208(17)
H1 H 0.8436 -0.0488 -0.0231
O2 O 0.9156(2) -0.0200(4) 0.0317(2)
O3 O 0.7060(2) -0.1231(5) 0.1052(2)
S1 S 0.86979(15) -0.0641(3) 0.16254(12)
S2 S 0.62891(9) 0.23441(18) 0.03888(10)
C1 C 0.8106(3) 0.0886(5) -0.0078(2)
C2 C 0.8364(3) 0.1015(5) 0.0474(2)
H4 H 0.8321 0.1784 0.0583
C3 C 0.8012(3) 0.0259(6) 0.0853(3)
H5 H 0.8045 -0.0502 0.0731
C4 C 0.7355(3) 0.0580(6) 0.0849(2)
H6 H 0.7308 0.1311 0.1004
C5 C 0.7092(3) 0.0585(6) 0.0302(3)
H7 H 0.7086 -0.0177 0.0177
C6 C 0.7465(3) 0.1268(6) -0.0074(3)
H8 H 0.7301 0.1202 -0.0417
H9 H 0.7449 0.2039 0.0024
C7 C 0.8479(3) 0.1562(6) -0.0462(2)
C8 C 0.8786(3) 0.1061(7) -0.0853(3)
H10 H 0.8770 0.0298 -0.0884
C9 C 0.9118(4) 0.1661(9) -0.1201(3)
H11 H 0.9327 0.1301 -0.1459
C10 C 0.9137(3) 0.2763(8) -0.1166(3)
C11 C 0.8847(4) 0.3293(8) -0.0774(3)
H12 H 0.8871 0.4055 -0.0742
C12 C 0.8519(4) 0.2680(7) -0.0428(3)
H13 H 0.8321 0.3041 -0.0164
C13 C 0.9012(3) 0.0708(6) 0.0487(3)
C14 C 0.9471(3) 0.1467(6) 0.0680(3)
C15 C 0.9353(3) 0.2480(6) 0.0891(3)
H14 H 0.8962 0.2710 0.0924
C16 C 0.9803(4) 0.3164(7) 0.1056(4)
H15 H 0.9717 0.3859 0.1187
C17 C 1.0372(3) 0.2813(8) 0.1023(3)
C18 C 1.0507(4) 0.1813(8) 0.0824(3)
H16 H 1.0900 0.1588 0.0802
C19 C 1.0067(3) 0.1142(7) 0.0655(3)
H17 H 1.0162 0.0454 0.0520
C20 C 0.8272(3) 0.0314(6) 0.1381(3)
C21 C 0.8207(3) 0.1219(6) 0.1774(2)
H18 H 0.7972 0.1844 0.1740
C22 C 0.8565(5) 0.0956(10) 0.2202(4)
H19 H 0.8614 0.1430 0.2479
C23 C 0.8815(5) 0.0013(12) 0.2177(4)
H20 H 0.9041 -0.0280 0.2442
C24 C 0.7011(3) -0.0268(7) 0.1167(3)
C25 C 0.6618(3) 0.0078(7) 0.1602(3)
C26 C 0.6492(4) 0.1131(8) 0.1721(3)
H21 H 0.6673 0.1691 0.1534
C27 C 0.6109(4) 0.1411(9) 0.2108(4)
H22 H 0.6027 0.2146 0.2180
C28 C 0.5848(4) 0.0586(10) 0.2387(3)
C29 C 0.5948(5) -0.0444(10) 0.2273(4)
H23 H 0.5755 -0.0999 0.2454
C30 C 0.6346(4) -0.0719(8) 0.1880(3)
H24 H 0.6424 -0.1456 0.1809
C31 C 0.6455(3) 0.0992(6) 0.0322(3)
C32 C 0.5939(3) 0.0334(6) 0.0320(3)
H25 H 0.5929 -0.0427 0.0280
C33 C 0.5433(3) 0.1036(8) 0.0389(3)
H26 H 0.5048 0.0766 0.0402
C34 C 0.5559(3) 0.2092(8) 0.0432(3)
H27 H 0.5274 0.2637 0.0481
O5 O 0.747(2) 0.302(6) 0.304(3)
H3 H 0.7735 0.2800 0.2856
C36 C 0.752(3) 0.420(7) 0.311(4)
H31 H 0.7377 0.4577 0.2814
H32 H 0.7931 0.4391 0.3168
H33 H 0.7294 0.4426 0.3408
O4? O 0.769(2) 0.641(7) 0.351(3)
H2? H 0.7863 0.6794 0.3305
C35? C 0.756(4) 0.534(7) 0.328(4)
H28? H 0.7855 0.5181 0.3027
H29? H 0.7177 0.5359 0.3126
H30? H 0.7570 0.4783 0.3544
loop_
_geom_bond_atom_site_label_1
_geom_bond_atom_site_label_2
_geom_bond_site_symmetry_1
_geom_bond_site_symmetry_2
Cl1 C10 1_555 1_555
Cl2 C17 1_555 1_555
Cl3 C28 1_555 1_555
O1 H1 1_555 1_555
O2 C13 1_555 1_555
O3 C24 1_555 1_555
O5 H3 1_555 1_555
S1 C20 1_555 1_555
S2 C31 1_555 1_555
C1 O1 1_555 1_555
C2 C1 1_555 1_555
H4 C2 1_555 1_555
C3 C2 1_555 1_555
H5 C3 1_555 1_555
C4 C3 1_555 1_555
H6 C4 1_555 1_555
C5 C4 1_555 1_555
H7 C5 1_555 1_555
C6 C1 1_555 1_555
H8 C6 1_555 1_555
H9 C6 1_555 1_555
C7 C1 1_555 1_555
C8 C7 1_555 1_555
H10 C8 1_555 1_555
C9 C8 1_555 1_555
H11 C9 1_555 1_555
C10 C9 1_555 1_555
C11 C10 1_555 1_555
H12 C11 1_555 1_555
C12 C7 1_555 1_555
H13 C12 1_555 1_555
C13 C2 1_555 1_555
C14 C13 1_555 1_555
C15 C14 1_555 1_555
H14 C15 1_555 1_555
C16 C15 1_555 1_555
H15 C16 1_555 1_555
C17 C16 1_555 1_555
C18 C17 1_555 1_555
H16 C18 1_555 1_555
C19 C14 1_555 1_555
H17 C19 1_555 1_555
C20 C3 1_555 1_555
C21 C20 1_555 1_555
H18 C21 1_555 1_555
C22 C21 1_555 1_555
H19 C22 1_555 1_555
C23 S1 1_555 1_555
H20 C23 1_555 1_555
C24 C4 1_555 1_555
C25 C24 1_555 1_555
C26 C25 1_555 1_555
H21 C26 1_555 1_555
C27 C26 1_555 1_555
H22 C27 1_555 1_555
C28 C27 1_555 1_555
C29 C28 1_555 1_555
H23 C29 1_555 1_555
C30 C25 1_555 1_555
H24 C30 1_555 1_555
C31 C5 1_555 1_555
C32 C31 1_555 1_555
H25 C32 1_555 1_555
C33 C32 1_555 1_555
H26 C33 1_555 1_555
C34 S2 1_555 1_555
H27 C34 1_555 1_555
C36 O5 1_555 1_555
H31 C36 1_555 1_555
H32 C36 1_555 1_555
H33 C36 1_555 1_555
C5 C6 1_555 1_555
C11 C12 1_555 1_555
C18 C19 1_555 1_555
C22 C23 1_555 1_555
C29 C30 1_555 1_555
C33 C34 1_555 1_555

#END
