
#######################################################################
#
#                 Cambridge Crystallographic Data Centre
#                                CCDC 
#
#######################################################################
#
# If this CIF has been generated from an entry in the Cambridge 
# Structural Database, then it will include bibliographic, chemical, 
# crystal, experimental, refinement or atomic coordinate data resulting 
# from the CCDC's data processing and validation procedures.
#
#######################################################################

data_GIZFAX
_chemical_formula_moiety         'C16 H26 N1 O2 1+,C4 H5 O6 1-,2(H2 O1)'
_chemical_name_systematic        
'(3S,4S)-3-Ethyl-4-hydroxy-3-(3-methoxyphenyl)-1-methylazepan-1-ium D-tartrate dihydrate'
_symmetry_cell_setting           orthorhombic
_symmetry_space_group_name_H-M   'P 21 21 21'
_symmetry_Int_Tables_number      19
_space_group_name_Hall           'P 2ac 2ab'
loop_
_symmetry_equiv_pos_site_id
_symmetry_equiv_pos_as_xyz
1 x,y,z
2 1/2-x,-y,1/2+z
3 -x,1/2+y,1/2-z
4 1/2+x,1/2-y,-z
_cell_length_a                   7.146(3)
_cell_length_b                   10.812(4)
_cell_length_c                   29.338(11)
_cell_angle_alpha                90
_cell_angle_beta                 90
_cell_angle_gamma                90
_cell_volume                     2266.73
_exptl_crystal_colour            colorless
_exptl_crystal_description       prismatic
_cell_formula_units_Z            4
loop_
_atom_site_label
_atom_site_type_symbol
_atom_site_fract_x
_atom_site_fract_y
_atom_site_fract_z
O1 O -1.0175(7) 0.3641(4) 0.46124(12)
H1 H -1.114(7) 0.405(6) 0.457(2)
O2 O -0.7001(6) 0.4436(3) 0.25255(10)
N1 N -0.9584(7) 0.0649(3) 0.42832(11)
H9 H -0.925(6) 0.018(3) 0.4048(10)
C1 C -1.0991(6) 0.1554(4) 0.41055(14)
H10 H -1.1746 0.1816 0.4363
H11 H -1.1814 0.1103 0.3902
C2 C -1.0364(6) 0.2740(4) 0.38507(13)
C3 C -0.9242(8) 0.3610(4) 0.41797(14)
H12 H -0.9289 0.4447 0.4052
C4 C -0.7183(8) 0.3276(5) 0.42468(16)
H13 H -0.6738 0.3677 0.4522
H14 H -0.6473 0.3609 0.3993
C5 C -0.6754(8) 0.1822(6) 0.42849(18)
H15 H -0.6734 0.1480 0.3979
H16 H -0.5509 0.1721 0.4412
C6 C -0.8041(9) 0.1098(5) 0.4556(2)
H17 H -0.8522 0.1602 0.4803
H18 H -0.7382 0.0401 0.4689
C10 C -1.0659(12) -0.0250(5) 0.45936(18)
H25 H -0.9931 -0.0986 0.4638
H26 H -1.1831 -0.0462 0.4454
H27 H -1.0888 0.0136 0.4883
C11 C -1.2199(7) 0.3436(5) 0.37375(18)
H28 H -1.2956 0.3471 0.4012
H29 H -1.1882 0.4280 0.3656
C12 C -1.3354(9) 0.2906(7) 0.3367(2)
H30 H -1.2604 0.2814 0.3097
H31 H -1.4386 0.3448 0.3303
H32 H -1.3821 0.2112 0.3459
C13 C -0.9309(6) 0.2535(4) 0.34049(13)
C14 C -0.8603(6) 0.3570(4) 0.31824(13)
H33 H -0.8704 0.4346 0.3317
C15 C -0.7751(7) 0.3450(5) 0.27617(14)
C16 C -0.7607(8) 0.2313(5) 0.25529(15)
H34 H -0.7037 0.2241 0.2269
C17 C -0.8316(8) 0.1289(5) 0.27677(14)
H35 H -0.8234 0.0519 0.2628
C18 C -0.9167(6) 0.1400(4) 0.31989(13)
H36 H -0.9634 0.0701 0.3344
C19 C -0.6939(10) 0.5617(5) 0.27368(17)
H37 H -0.8170 0.5840 0.2839
H38 H -0.6501 0.6220 0.2521
H39 H -0.6104 0.5590 0.2993
O3 O -0.6276(4) 0.1543(3) 0.13391(10)
H2 H -0.7400 0.1418 0.1307
O4 O -0.6399(5) 0.2140(4) 0.06130(12)
O5 O -0.2757(4) 0.2069(3) 0.05050(10)
H3 H -0.3605 0.2365 0.0352
O6 O -0.3086(4) 0.3996(3) 0.11490(10)
H4 H -0.3766 0.4310 0.1342
O7 O 0.0443(4) 0.3653(3) 0.13158(11)
O8 O 0.0205(4) 0.1619(3) 0.13574(10)
C20 C -0.5553(6) 0.1854(4) 0.09532(14)
C21 C -0.3405(5) 0.1845(4) 0.09492(14)
H40 H -0.2979 0.1022 0.1042
C22 C -0.2607(5) 0.2792(4) 0.12837(13)
H41 H -0.3144 0.2636 0.1586
C23 C -0.0461(6) 0.2685(3) 0.13173(12)
O9 O -0.6223(5) 0.4527(3) 0.15827(12)
H5 H -0.651(9) 0.457(5) 0.1855(9)
H6 H -0.721(6) 0.424(7) 0.147(2)
O10 O 0.0604(5) 0.1148(3) 0.01603(11)
H7 H -0.033(5) 0.142(5) 0.0284(18)
H8 H 0.121(8) 0.135(6) 0.0387(14)
C7? C -0.7183(8) 0.3276(5) 0.42468(16)
H19? H -0.6630 0.2960 0.3968
H20? H -0.6463 0.3980 0.4353
C8? C -0.730(4) 0.2392(14) 0.4568(5)
H21? H -0.7994 0.2782 0.4814
H22? H -0.6033 0.2304 0.4680
C9? C -0.8041(9) 0.1098(5) 0.4556(2)
H23? H -0.6980 0.0580 0.4477
H24? H -0.8358 0.0895 0.4869
loop_
_geom_bond_atom_site_label_1
_geom_bond_atom_site_label_2
_geom_bond_site_symmetry_1
_geom_bond_site_symmetry_2
O1 H1 1_555 1_555
O2 C15 1_555 1_555
O3 H2 1_555 1_555
O4 C20 1_555 1_555
O5 H3 1_555 1_555
O6 H4 1_555 1_555
O7 C23 1_555 1_555
O8 C23 1_555 1_555
O9 H5 1_555 1_555
H6 O9 1_555 1_555
O10 H7 1_555 1_555
H8 O10 1_555 1_555
N1 H9 1_555 1_555
C1 N1 1_555 1_555
H10 C1 1_555 1_555
H11 C1 1_555 1_555
C2 C1 1_555 1_555
C3 O1 1_555 1_555
H12 C3 1_555 1_555
C4 C3 1_555 1_555
H13 C4 1_555 1_555
H14 C4 1_555 1_555
C5 C4 1_555 1_555
H15 C5 1_555 1_555
H16 C5 1_555 1_555
C6 N1 1_555 1_555
H17 C6 1_555 1_555
H18 C6 1_555 1_555
C10 N1 1_555 1_555
H25 C10 1_555 1_555
H26 C10 1_555 1_555
H27 C10 1_555 1_555
C11 C2 1_555 1_555
H28 C11 1_555 1_555
H29 C11 1_555 1_555
C12 C11 1_555 1_555
H30 C12 1_555 1_555
H31 C12 1_555 1_555
H32 C12 1_555 1_555
C13 C2 1_555 1_555
C14 C13 1_555 1_555
H33 C14 1_555 1_555
C15 C14 1_555 1_555
C16 C15 1_555 1_555
H34 C16 1_555 1_555
C17 C16 1_555 1_555
H35 C17 1_555 1_555
C18 C13 1_555 1_555
H36 C18 1_555 1_555
C19 O2 1_555 1_555
H37 C19 1_555 1_555
H38 C19 1_555 1_555
H39 C19 1_555 1_555
C20 O3 1_555 1_555
C21 O5 1_555 1_555
H40 C21 1_555 1_555
C22 O6 1_555 1_555
H41 C22 1_555 1_555
C23 C22 1_555 1_555
C2 C3 1_555 1_555
C5 C6 1_555 1_555
C17 C18 1_555 1_555
C20 C21 1_555 1_555
C21 C22 1_555 1_555

#END
