
#######################################################################
#
#                 Cambridge Crystallographic Data Centre
#                                CCDC 
#
#######################################################################
#
# If this CIF has been generated from an entry in the Cambridge 
# Structural Database, then it will include bibliographic, chemical, 
# crystal, experimental, refinement or atomic coordinate data resulting 
# from the CCDC's data processing and validation procedures.
#
#######################################################################

data_GIZGUT
_chemical_formula_moiety         'C6 H21 B11 Si1 2-,4(C4 H8 O1),2(Na1 1+)'
_chemical_name_systematic        
'disodium (dimethylsilyl)dimethyl-1,2-dicarba-nido-tridecaborate(11) tetrahydrofuran solvate'
_symmetry_cell_setting           orthorhombic
_symmetry_space_group_name_H-M   'P n m a'
_symmetry_Int_Tables_number      62
_space_group_name_Hall           '-P 2ac 2n'
loop_
_symmetry_equiv_pos_site_id
_symmetry_equiv_pos_as_xyz
1 x,y,z
2 1/2-x,-y,1/2+z
3 -x,1/2+y,-z
4 1/2+x,1/2-y,1/2-z
5 -x,-y,-z
6 1/2+x,y,1/2-z
7 x,1/2-y,z
8 1/2-x,1/2+y,1/2+z
_cell_length_a                   11.4346(17)
_cell_length_b                   19.023(3)
_cell_length_c                   15.856(2)
_cell_angle_alpha                90
_cell_angle_beta                 90
_cell_angle_gamma                90
_cell_volume                     3449
_exptl_crystal_colour            colorless
_exptl_crystal_description       block
_cell_formula_units_Z            4
loop_
_atom_site_label
_atom_site_type_symbol
_atom_site_fract_x
_atom_site_fract_y
_atom_site_fract_z
Na1 Na 0.46291(11) 0.64736(6) 0.30007(8)
Si1 Si 0.61890(14) 0.7500 0.64187(8)
C1 C 0.7188(3) 0.70878(16) 0.49775(18)
C2 C 0.6989(3) 0.67914(19) 0.5861(2)
H1 H 0.7727 0.6691 0.6138
H2 H 0.6526 0.6364 0.5839
C3 C 0.4607(6) 0.7500 0.6110(5)
H3 H 0.4544 0.7500 0.5506
H4 H 0.4233 0.7912 0.6332
C4 C 0.6363(8) 0.7500 0.7594(4)
H5 H 0.7180 0.7500 0.7734
H6 H 0.5999 0.7088 0.7825
B1 B 0.6585(3) 0.68092(18) 0.4160(2)
B2 B 0.8107(3) 0.66241(19) 0.4388(2)
B3 B 0.7576(3) 0.67166(19) 0.3341(2)
B4 B 0.6634(4) 0.7500 0.3327(3)
B5 B 0.8680(4) 0.7500 0.4682(3)
B6 B 0.8975(3) 0.70418(19) 0.3657(2)
B7 B 0.8139(4) 0.7500 0.2910(3)
H7 H 0.837(3) 0.7500 0.224(2)
H8 H 0.595(3) 0.7500 0.279(2)
H9 H 0.936(4) 0.7500 0.519(3)
H10 H 0.751(2) 0.6300(14) 0.2907(17)
H11 H 0.976(3) 0.6755(16) 0.3473(18)
H12 H 0.588(3) 0.6374(15) 0.4195(19)
H13 H 0.841(3) 0.6160(17) 0.468(2)
C1F C 0.7188(3) 0.79122(16) 0.49775(18)
C2F C 0.6989(3) 0.82086(19) 0.5861(2)
H1F H 0.7727 0.8309 0.6138
H2F H 0.6526 0.8636 0.5839
H4F H 0.4233 0.7088 0.6332
H6F H 0.5999 0.7912 0.7825
B1F B 0.6585(3) 0.81908(18) 0.4160(2)
B2F B 0.8107(3) 0.83759(19) 0.4388(2)
B3F B 0.7576(3) 0.82834(19) 0.3341(2)
B6F B 0.8975(3) 0.79582(19) 0.3657(2)
H10F H 0.751(2) 0.8700(14) 0.2907(17)
H11F H 0.976(3) 0.8245(16) 0.3473(18)
H12F H 0.588(3) 0.8626(15) 0.4195(19)
H13F H 0.841(3) 0.8840(17) 0.468(2)
C5 C 0.5790(5) 0.4887(2) 0.3001(3)
H14 H 0.6475 0.5140 0.3195
H15 H 0.5409 0.4675 0.3486
C6 C 0.6110(7) 0.4372(4) 0.2426(4)
H16 H 0.6076 0.3912 0.2691
H17 H 0.6904 0.4452 0.2235
C7 C 0.5308(6) 0.4398(3) 0.1715(4)
H18 H 0.5732 0.4467 0.1191
H19 H 0.4861 0.3967 0.1675
C8 C 0.4548(4) 0.4989(3) 0.1881(3)
H20 H 0.4519 0.5299 0.1396
H21 H 0.3761 0.4828 0.2002
O1 O 0.5015(3) 0.53479(13) 0.25871(18)
C9 C 0.2212(5) 0.6459(4) 0.4120(4)
H22 H 0.1737 0.6313 0.3644
H23 H 0.2260 0.6968 0.4113
C10 C 0.1666(5) 0.6231(5) 0.4897(4)
H24 H 0.1564 0.6624 0.5278
H25 H 0.0906 0.6024 0.4784
C11 C 0.2421(5) 0.5730(5) 0.5249(4)
H26 H 0.2036 0.5277 0.5290
H27 H 0.2667 0.5874 0.5808
C12 C 0.3441(5) 0.5687(3) 0.4673(4)
H28 H 0.4157 0.5779 0.4982
H29 H 0.3492 0.5221 0.4428
O2 O 0.3293(2) 0.61843(17) 0.40455(17)
H30? H 0.4233 0.7912 0.6332
H31? H 0.5999 0.7088 0.7825
loop_
_geom_bond_atom_site_label_1
_geom_bond_atom_site_label_2
_geom_bond_site_symmetry_1
_geom_bond_site_symmetry_2
Si1 C2 1_555 1_555
C1 C2 1_555 1_555
C2 H1 1_555 1_555
H2 C2 1_555 1_555
C3 Si1 1_555 1_555
H3 C3 1_555 1_555
H4 C3 1_555 1_555
C4 Si1 1_555 1_555
H5 C4 1_555 1_555
H6 C4 1_555 1_555
B1 C1 1_555 1_555
B2 C1 1_555 1_555
B3 B1 1_555 1_555
B4 B1 1_555 1_555
B5 C1 1_555 1_555
B6 B2 1_555 1_555
B7 B3 1_555 1_555
H7 B7 1_555 1_555
H8 B4 1_555 1_555
H9 B5 1_555 1_555
H10 B3 1_555 1_555
H11 B6 1_555 1_555
H12 B1 1_555 1_555
H13 B2 1_555 1_555
C5 H14 1_555 1_555
H15 C5 1_555 1_555
C6 C5 1_555 1_555
H16 C6 1_555 1_555
H17 C6 1_555 1_555
C7 C6 1_555 1_555
H18 C7 1_555 1_555
H19 C7 1_555 1_555
C8 C7 1_555 1_555
H20 C8 1_555 1_555
H21 C8 1_555 1_555
O1 C5 1_555 1_555
C9 H22 1_555 1_555
H23 C9 1_555 1_555
C10 C9 1_555 1_555
H24 C10 1_555 1_555
H25 C10 1_555 1_555
C11 C10 1_555 1_555
H26 C11 1_555 1_555
H27 C11 1_555 1_555
C12 C11 1_555 1_555
H28 C12 1_555 1_555
H29 C12 1_555 1_555
O2 C9 1_555 1_555
C1F C1 1_555 1_555
C2F Si1 1_555 1_555
H1F C2F 1_555 1_555
H2F C2F 1_555 1_555
H4F C3 1_555 1_555
H6F C4 1_555 1_555
B1F B4 1_555 1_555
B2F B5 1_555 1_555
B3F B4 1_555 1_555
B6F B5 1_555 1_555
H10F B3F 1_555 1_555
H11F B6F 1_555 1_555
H12F B1F 1_555 1_555
H13F B2F 1_555 1_555
B1 B2 1_555 1_555
B2 B3 1_555 1_555
B2 B5 1_555 1_555
B3 B4 1_555 1_555
B3 B6 1_555 1_555
B4 B7 1_555 1_555
B5 B6 1_555 1_555
B5 C1F 1_555 1_555
B6 B7 1_555 1_555
B6 B6F 1_555 1_555
B7 B3F 1_555 1_555
B7 B6F 1_555 1_555
C8 O1 1_555 1_555
C12 O2 1_555 1_555
C1F C2F 1_555 1_555
C1F B1F 1_555 1_555
C1F B2F 1_555 1_555
B1F B2F 1_555 1_555
B1F B3F 1_555 1_555
B2F B3F 1_555 1_555
B2F B6F 1_555 1_555
B3F B6F 1_555 1_555

#END
