
#######################################################################
#
#                 Cambridge Crystallographic Data Centre
#                                CCDC 
#
#######################################################################
#
# If this CIF has been generated from an entry in the Cambridge 
# Structural Database, then it will include bibliographic, chemical, 
# crystal, experimental, refinement or atomic coordinate data resulting 
# from the CCDC's data processing and validation procedures.
#
#######################################################################

data_GIZHUU
_chemical_formula_moiety         'C6 H20 B12'
_chemical_name_systematic        
1,2-(propane-1,3-diyl)-1,2-dicarba-tetradecaborane(11)
_symmetry_cell_setting           monoclinic
_symmetry_space_group_name_H-M   'C 2/c'
_symmetry_Int_Tables_number      15
_space_group_name_Hall           '-C 2yn'
loop_
_symmetry_equiv_pos_site_id
_symmetry_equiv_pos_as_xyz
1 x,y,z
2 -x,y,1/2-z
3 1/2+x,1/2+y,z
4 1/2-x,1/2+y,1/2-z
5 -x,-y,-z
6 x,-y,1/2+z
7 1/2-x,1/2-y,-z
8 1/2+x,1/2-y,1/2+z
_cell_length_a                   12.270(5)
_cell_length_b                   9.712(5)
_cell_length_c                   12.111(5)
_cell_angle_alpha                90
_cell_angle_beta                 109.878(10)
_cell_angle_gamma                90
_cell_volume                     1357.23
_exptl_crystal_colour            colorless
_exptl_crystal_description       block
_cell_formula_units_Z            4
loop_
_atom_site_label
_atom_site_type_symbol
_atom_site_fract_x
_atom_site_fract_y
_atom_site_fract_z
C1 C 0.43697(14) 0.08037(19) 0.69864(14)
C2 C 0.3813(2) -0.0585(3) 0.6521(2)
H1 H 0.3182 -0.0747 0.6817
H2 H 0.3483 -0.0536 0.5672
C3 C 0.4641(12) -0.1810(5) 0.6855(8)
H3 H 0.4198 -0.2657 0.6665
H4 H 0.5153 -0.1782 0.6396
B1 B 0.44646(17) 0.1213(2) 0.83761(16)
H5 H 0.4178 0.0509 0.8934
B2 B 0.3518(2) 0.2167(4) 0.7156(2)
H6 H 0.2569 0.2064 0.6810
B3 B 0.4260(2) 0.2353(4) 0.6082(2)
B4 B 0.4253(3) 0.2927(3) 0.8552(2)
H7 H 0.3945 0.3167 0.9284
B5 B 0.3762(6) 0.3710(6) 0.7074(5)
H8 H 0.2994 0.4369 0.6705
B6 B 0.4991(8) 0.4211(5) 0.8212(6)
H9 H 0.5021 0.5182 0.8688
H10 H 0.377(2) 0.213(3) 0.523(2)
C1A C 0.56303(14) 0.08037(19) 0.80136(14)
C2A C 0.6187(2) -0.0585(3) 0.8479(2)
H1A H 0.6818 -0.0747 0.8183
H2A H 0.6517 -0.0536 0.9328
C3A C 0.5359(12) -0.1810(5) 0.8145(8)
H3A H 0.5802 -0.2657 0.8335
H4A H 0.4847 -0.1782 0.8604
B1A B 0.55354(17) 0.1213(2) 0.66239(16)
H5A H 0.5822 0.0509 0.6066
B2A B 0.6482(2) 0.2167(4) 0.7844(2)
H6A H 0.7431 0.2064 0.8190
B3A B 0.5740(2) 0.2353(4) 0.8918(2)
B4A B 0.5747(3) 0.2927(3) 0.6448(2)
H7A H 0.6055 0.3167 0.5716
B5A B 0.6238(6) 0.3710(6) 0.7926(5)
H8A H 0.7006 0.4369 0.8295
B6A B 0.5009(8) 0.4211(5) 0.6788(6)
H9A H 0.4979 0.5182 0.6312
H10A H 0.623(2) 0.213(3) 0.977(2)
C4? C 0.4358(13) -0.1768(9) 0.738(2)
H11? H 0.4206 -0.1636 0.8111
H12? H 0.4026 -0.2642 0.7046
B7? B 0.5754(9) 0.3749(9) 0.8708(9)
H13? H 0.6550 0.4177 0.9346
B8? B 0.4409(10) 0.4225(11) 0.7722(12)
H14? H 0.3718 0.4943 0.7731
loop_
_geom_bond_atom_site_label_1
_geom_bond_atom_site_label_2
_geom_bond_site_symmetry_1
_geom_bond_site_symmetry_2
C1 C2 1_555 1_555
C2 H1 1_555 1_555
H2 C2 1_555 1_555
C3 C2 1_555 1_555
H3 C3 1_555 1_555
H4 C3 1_555 1_555
B1 C1 1_555 1_555
H5 B1 1_555 1_555
B2 C1 1_555 1_555
H6 B2 1_555 1_555
B3 C1 1_555 1_555
B4 B1 1_555 1_555
H7 B4 1_555 1_555
B5 B2 1_555 1_555
H8 B5 1_555 1_555
B6 B4 1_555 1_555
H9 B6 1_555 1_555
H10 B3 1_555 1_555
C1A C1 1_555 1_555
C2A C1A 1_555 1_555
H1A C2A 1_555 1_555
H2A C2A 1_555 1_555
C3A C3 1_555 1_555
H3A C3A 1_555 1_555
H4A C3A 1_555 1_555
B1A C1 1_555 1_555
H5A B1A 1_555 1_555
B2A C1A 1_555 1_555
H6A B2A 1_555 1_555
B3A B1 1_555 1_555
B4A B3 1_555 1_555
H7A B4A 1_555 1_555
B5A B6 1_555 1_555
H8A B5A 1_555 1_555
B6A B3 1_555 1_555
H9A B6A 1_555 1_555
H10A B3A 1_555 1_555
B1 B2 1_555 1_555
B1 C1A 1_555 1_555
B2 B3 1_555 1_555
B2 B4 1_555 1_555
B3 B5 1_555 1_555
B3 B1A 1_555 1_555
B4 B5 1_555 1_555
B4 B3A 1_555 1_555
B5 B6 1_555 1_555
B5 B6A 1_555 1_555
B6 B3A 1_555 1_555
B6 B6A 1_555 1_555
C1A B1A 1_555 1_555
C1A B3A 1_555 1_555
C2A C3A 1_555 1_555
B1A B2A 1_555 1_555
B1A B4A 1_555 1_555
B2A B3A 1_555 1_555
B2A B4A 1_555 1_555
B2A B5A 1_555 1_555
B3A B5A 1_555 1_555
B4A B5A 1_555 1_555
B4A B6A 1_555 1_555
B5A B6A 1_555 1_555

#END
