
#######################################################################
#
#                 Cambridge Crystallographic Data Centre
#                                CCDC 
#
#######################################################################
#
# If this CIF has been generated from an entry in the Cambridge 
# Structural Database, then it will include bibliographic, chemical, 
# crystal, experimental, refinement or atomic coordinate data resulting 
# from the CCDC's data processing and validation procedures.
#
#######################################################################

data_GIZHED
_chemical_formula_moiety         'C14 H15 N2 O2 1+,C12 H4 N4 1-'
_chemical_name_systematic        
'3,5-Dimethyl-1-(4-nitrobenzyl)pyridinium 7,7,8,8-tetracyanoquinodimethane'
_symmetry_cell_setting           triclinic
_symmetry_space_group_name_H-M   'P -1'
_symmetry_Int_Tables_number      2
_space_group_name_Hall           '-P 1'
loop_
_symmetry_equiv_pos_site_id
_symmetry_equiv_pos_as_xyz
1 x,y,z
2 -x,-y,-z
_cell_length_a                   8.098(2)
_cell_length_b                   9.137(2)
_cell_length_c                   16.542(4)
_cell_angle_alpha                76.194(3)
_cell_angle_beta                 75.951(3)
_cell_angle_gamma                86.933(3)
_cell_volume                     1153.04
_exptl_crystal_colour            purple
_exptl_crystal_description       pillar
_cell_formula_units_Z            2
loop_
_atom_site_label
_atom_site_type_symbol
_atom_site_fract_x
_atom_site_fract_y
_atom_site_fract_z
C1 C 0.3034(2) -0.11674(18) 0.07248(10)
C2 C 0.1837(3) -0.0094(3) 0.06055(17)
H1 H 0.0998 -0.0228 0.0332
C3 C 0.1875(3) 0.1190(3) 0.08930(16)
H2 H 0.1066 0.1934 0.0805
C4 C 0.30938(19) 0.13943(17) 0.13103(9)
C5 C 0.4274(2) 0.02782(18) 0.14337(11)
H3 H 0.5097 0.0392 0.1721
C6 C 0.4257(2) -0.10127(18) 0.11367(11)
H4 H 0.5067 -0.1761 0.1217
C7 C 0.3015(2) 0.28325(18) 0.16136(11)
H5 H 0.3025 0.3681 0.1131
H6 H 0.1946 0.2855 0.2031
C8 C 0.5758(2) 0.39025(17) 0.15325(10)
H7 H 0.5780 0.4366 0.0964
C9 C 0.7086(2) 0.41397(18) 0.18741(10)
C10 C 0.6996(2) 0.34162(18) 0.27232(11)
H8 H 0.7867 0.3563 0.2973
C11 C 0.5642(2) 0.24809(17) 0.32079(10)
C12 C 0.4356(2) 0.23031(17) 0.28237(9)
H9 H 0.3430 0.1686 0.3134
C13 C 0.8551(3) 0.5148(3) 0.13244(14)
H10 H 0.8947 0.4865 0.0787
H11 H 0.9460 0.5045 0.1613
H12 H 0.8178 0.6177 0.1223
C14 C 0.5536(3) 0.1662(2) 0.41234(11)
H13 H 0.6636 0.1660 0.4245
H14 H 0.5168 0.0643 0.4210
H15 H 0.4735 0.2161 0.4499
N1 N 0.3014(2) -0.25176(18) 0.03913(9)
N2 N 0.44324(16) 0.30155(13) 0.20044(8)
O1 O 0.1827(2) -0.2699(2) 0.00906(11)
O2 O 0.4200(2) -0.33952(15) 0.04148(8)
C15 C 0.8272(2) 0.8781(2) 0.25321(12)
C16 C 0.9551(2) 1.0193(2) 0.32804(11)
C17 C 0.8784(2) 0.88381(18) 0.32838(10)
C18 C 0.8522(2) 0.76197(17) 0.40146(10)
C19 C 0.9004(2) 0.77045(17) 0.47720(10)
H16 H 0.9526 0.8578 0.4785
C20 C 0.8724(2) 0.65455(17) 0.54774(10)
H17 H 0.9058 0.6646 0.5961
C21 C 0.7936(2) 0.51845(17) 0.54952(10)
C22 C 0.7464(2) 0.50974(18) 0.47347(11)
H18 H 0.6953 0.4221 0.4718
C23 C 0.7742(2) 0.62636(19) 0.40311(11)
H19 H 0.7409 0.6166 0.3547
C24 C 0.7631(2) 0.39860(18) 0.62288(10)
C25 C 0.7996(2) 0.41186(19) 0.70048(11)
C26 C 0.6899(3) 0.2598(2) 0.62445(11)
N3 N 0.7848(3) 0.8728(2) 0.19242(12)
N4 N 1.0142(2) 1.12948(19) 0.33055(11)
N5 N 0.8270(3) 0.4254(2) 0.76315(10)
N6 N 0.6314(3) 0.1475(2) 0.62508(12)
loop_
_geom_bond_atom_site_label_1
_geom_bond_atom_site_label_2
_geom_bond_site_symmetry_1
_geom_bond_site_symmetry_2
C1 C2 1_555 1_555
C2 H1 1_555 1_555
C3 C2 1_555 1_555
H2 C3 1_555 1_555
C4 C3 1_555 1_555
C5 C4 1_555 1_555
H3 C5 1_555 1_555
C6 C1 1_555 1_555
H4 C6 1_555 1_555
C7 C4 1_555 1_555
H5 C7 1_555 1_555
H6 C7 1_555 1_555
C8 H7 1_555 1_555
C9 C8 1_555 1_555
C10 C9 1_555 1_555
H8 C10 1_555 1_555
C11 C10 1_555 1_555
C12 C11 1_555 1_555
H9 C12 1_555 1_555
C13 C9 1_555 1_555
H10 C13 1_555 1_555
H11 C13 1_555 1_555
H12 C13 1_555 1_555
C14 C11 1_555 1_555
H13 C14 1_555 1_555
H14 C14 1_555 1_555
H15 C14 1_555 1_555
C15 C17 1_555 1_555
C16 C17 1_555 1_555
C17 C18 1_555 1_555
C18 C19 1_555 1_555
C19 H16 1_555 1_555
C20 C19 1_555 1_555
H17 C20 1_555 1_555
C21 C20 1_555 1_555
C22 C21 1_555 1_555
H18 C22 1_555 1_555
C23 C18 1_555 1_555
H19 C23 1_555 1_555
C24 C21 1_555 1_555
C25 C24 1_555 1_555
C26 C24 1_555 1_555
N1 C1 1_555 1_555
N2 C7 1_555 1_555
N3 C15 1_555 1_555
N4 C16 1_555 1_555
N5 C25 1_555 1_555
N6 C26 1_555 1_555
O1 N1 1_555 1_555
O2 N1 1_555 1_555
C5 C6 1_555 1_555
C8 N2 1_555 1_555
C12 N2 1_555 1_555
C22 C23 1_555 1_555

#END
