
#######################################################################
#
#                 Cambridge Crystallographic Data Centre
#                                CCDC 
#
#######################################################################
#
# If this CIF has been generated from an entry in the Cambridge 
# Structural Database, then it will include bibliographic, chemical, 
# crystal, experimental, refinement or atomic coordinate data resulting 
# from the CCDC's data processing and validation procedures.
#
#######################################################################

data_GIZHII
_chemical_formula_moiety         'C6 H22 B12 Si1'
_chemical_name_systematic        
1,2-([methyl(dimethyl)silyl]methyl)-1,2-dicarba-tetradecaborane(11)
_symmetry_cell_setting           orthorhombic
_symmetry_space_group_name_H-M   'P b c a'
_symmetry_Int_Tables_number      61
_space_group_name_Hall           '-P 2ac 2ab'
loop_
_symmetry_equiv_pos_site_id
_symmetry_equiv_pos_as_xyz
1 x,y,z
2 1/2-x,-y,1/2+z
3 -x,1/2+y,1/2-z
4 1/2+x,1/2-y,-z
5 -x,-y,-z
6 1/2+x,y,1/2-z
7 x,1/2-y,1/2+z
8 1/2-x,1/2+y,z
_cell_length_a                   13.401(2)
_cell_length_b                   14.041(3)
_cell_length_c                   16.643(3)
_cell_angle_alpha                90
_cell_angle_beta                 90
_cell_angle_gamma                90
_cell_volume                     3131.6
_exptl_crystal_colour            colorless
_exptl_crystal_description       block
_cell_formula_units_Z            8
loop_
_atom_site_label
_atom_site_type_symbol
_atom_site_fract_x
_atom_site_fract_y
_atom_site_fract_z
Si1 Si 0.87051(6) 0.17448(6) 0.59387(4)
C1 C 0.85376(16) 0.02388(15) 0.70245(13)
C2 C 0.89190(14) 0.11771(15) 0.75337(13)
C3 C 0.8352(2) 0.0475(2) 0.61465(15)
H1 H 0.7652 0.0379 0.6020
H2 H 0.8743 0.0054 0.5809
C4 C 0.9008(2) 0.20528(17) 0.70098(14)
H3 H 0.9682 0.2303 0.7042
H4 H 0.8553 0.2540 0.7200
C5 C 0.7648(2) 0.2468(2) 0.55786(18)
H5 H 0.7867 0.3110 0.5489
H6 H 0.7127 0.2464 0.5974
H7 H 0.7400 0.2206 0.5085
C6 C 0.9789(3) 0.1839(3) 0.5257(2)
H8 H 0.9947 0.2498 0.5172
H9 H 0.9630 0.1546 0.4752
H10 H 1.0352 0.1522 0.5493
B1 B 0.76575(19) 0.0646(2) 0.78449(18)
B2 B 0.8547(2) 0.1358(2) 0.84739(16)
H11 H 0.8453(15) 0.2066(16) 0.8613(11)
B3 B 0.7838(3) 0.0491(3) 0.8951(2)
H12 H 0.729(2) 0.080(2) 0.9400(18)
B4 B 0.7473(3) -0.0498(2) 0.8423(2)
H13 H 0.675(2) -0.082(2) 0.8599(17)
B5 B 0.7803(2) -0.0584(2) 0.7434(2)
H14 H 0.7292(17) -0.0849(19) 0.6983(15)
B6 B 0.9723(2) 0.0282(2) 0.7371(2)
H15 H 1.0296(18) 0.0404(18) 0.6977(13)
B7 B 0.9749(2) 0.0910(2) 0.82630(18)
H16 H 1.044(2) 0.1372(19) 0.8293(16)
B8 B 0.9134(3) 0.0504(2) 0.90904(19)
H17 H 0.951(2) 0.070(2) 0.9628(18)
B9 B 0.8510(3) -0.0561(3) 0.9055(2)
H18 H 0.8510(18) -0.099(2) 0.9614(18)
B10 B 0.8488(2) -0.1208(2) 0.8166(2)
H19 H 0.8468(19) -0.200(2) 0.8259(16)
B11 B 0.9086(2) -0.0788(2) 0.7339(2)
H20 H 0.9383(17) -0.1219(17) 0.6853(14)
B12 B 0.9622(2) -0.0430(2) 0.8355(2)
H21 H 1.0292(19) -0.0786(19) 0.8539(15)
H22 H 0.7093(16) 0.1098(16) 0.7557(13)
loop_
_geom_bond_atom_site_label_1
_geom_bond_atom_site_label_2
_geom_bond_site_symmetry_1
_geom_bond_site_symmetry_2
Si1 C3 1_555 1_555
C1 C2 1_555 1_555
C2 C4 1_555 1_555
C3 C1 1_555 1_555
H1 C3 1_555 1_555
H2 C3 1_555 1_555
C4 Si1 1_555 1_555
H3 C4 1_555 1_555
H4 C4 1_555 1_555
C5 Si1 1_555 1_555
H5 C5 1_555 1_555
H6 C5 1_555 1_555
H7 C5 1_555 1_555
C6 Si1 1_555 1_555
H8 C6 1_555 1_555
H9 C6 1_555 1_555
H10 C6 1_555 1_555
B1 C1 1_555 1_555
B2 C2 1_555 1_555
H11 B2 1_555 1_555
B3 B1 1_555 1_555
H12 B3 1_555 1_555
B4 B1 1_555 1_555
H13 B4 1_555 1_555
B5 C1 1_555 1_555
H14 B5 1_555 1_555
B6 C1 1_555 1_555
H15 B6 1_555 1_555
B7 C2 1_555 1_555
H16 B7 1_555 1_555
B8 B2 1_555 1_555
H17 B8 1_555 1_555
B9 B3 1_555 1_555
H18 B9 1_555 1_555
B10 B4 1_555 1_555
H19 B10 1_555 1_555
B11 C1 1_555 1_555
H20 B11 1_555 1_555
B12 B6 1_555 1_555
H21 B12 1_555 1_555
H22 B1 1_555 1_555
C2 B1 1_555 1_555
C2 B6 1_555 1_555
B1 B2 1_555 1_555
B1 B5 1_555 1_555
B2 B3 1_555 1_555
B2 B7 1_555 1_555
B3 B4 1_555 1_555
B3 B8 1_555 1_555
B4 B5 1_555 1_555
B4 B9 1_555 1_555
B5 B10 1_555 1_555
B5 B11 1_555 1_555
B6 B7 1_555 1_555
B6 B11 1_555 1_555
B7 B8 1_555 1_555
B7 B12 1_555 1_555
B8 B9 1_555 1_555
B8 B12 1_555 1_555
B9 B10 1_555 1_555
B9 B12 1_555 1_555
B10 B11 1_555 1_555
B10 B12 1_555 1_555
B11 B12 1_555 1_555

#END
