
#######################################################################
#
#                 Cambridge Crystallographic Data Centre
#                                CCDC 
#
#######################################################################
#
# If this CIF has been generated from an entry in the Cambridge 
# Structural Database, then it will include bibliographic, chemical, 
# crystal, experimental, refinement or atomic coordinate data resulting 
# from the CCDC's data processing and validation procedures.
#
#######################################################################

data_GIZHAA
_chemical_formula_moiety         'C4 H17 B11 2-,4(C4 H8 O1),2(Na1 1+)'
_chemical_name_systematic        
'disodium 1,2-dimethyl-1,2-dicarba-nido-tridecaborate(11) tetrahydrofuran solvate'
_symmetry_cell_setting           orthorhombic
_symmetry_space_group_name_H-M   'C m c 21'
_symmetry_Int_Tables_number      36
_space_group_name_Hall           'C 2n -2'
loop_
_symmetry_equiv_pos_site_id
_symmetry_equiv_pos_as_xyz
1 x,y,z
2 -x,-y,1/2+z
3 x,-y,1/2+z
4 -x,y,z
5 1/2+x,1/2+y,z
6 1/2-x,1/2-y,1/2+z
7 1/2+x,1/2-y,1/2+z
8 1/2-x,1/2+y,z
_cell_length_a                   16.7451(6)
_cell_length_b                   16.7451(6)
_cell_length_c                   11.4298(6)
_cell_angle_alpha                90
_cell_angle_beta                 90
_cell_angle_gamma                90
_cell_volume                     3204.9
_exptl_crystal_colour            colorless
_exptl_crystal_description       block
_cell_formula_units_Z            4
loop_
_atom_site_label
_atom_site_type_symbol
_atom_site_fract_x
_atom_site_fract_y
_atom_site_fract_z
Na1 Na 0.11718(7) 0.04748(7) 0.04357(16)
O1 O 0.24952(15) 0.0175(2) 0.0168(4)
C1 C 0.2923(3) -0.0427(4) 0.0722(9)
H1 H 0.2840 -0.0933 0.0327
H2 H 0.2750 -0.0481 0.1529
C2 C 0.3779(3) -0.0197(5) 0.0674(10)
H3 H 0.4104 -0.0649 0.0440
H4 H 0.3959 -0.0013 0.1434
C3 C 0.3838(3) 0.0466(5) -0.0217(10)
H5 H 0.4090 0.0936 0.0117
H6 H 0.4141 0.0297 -0.0897
C4 C 0.2993(3) 0.0629(6) -0.0529(10)
H7 H 0.2876 0.1191 -0.0417
H8 H 0.2903 0.0499 -0.1345
O2 O 0.1355(2) 0.15488(19) 0.1703(3)
C5 C 0.1428(7) 0.1447(3) 0.2917(5)
H9 H 0.1896 0.1129 0.3097
H10 H 0.0961 0.1177 0.3226
C6 C 0.1504(7) 0.2266(3) 0.3445(5)
H11 H 0.2032 0.2338 0.3779
H12 H 0.1110 0.2340 0.4057
C7 C 0.1367(6) 0.2854(4) 0.2460(6)
H13 H 0.1736 0.3299 0.2505
H14 H 0.0824 0.3057 0.2467
C8 C 0.1522(8) 0.2348(4) 0.1384(7)
H15 H 0.1180 0.2514 0.0744
H16 H 0.2074 0.2400 0.1137
B1 B 0.0000 0.2045(3) -0.3613(5)
B2 B 0.0976(3) 0.1766(3) -0.3040(4)
H17 H 0.1522 0.2028 -0.3413
B3 B 0.0820(4) 0.1523(3) -0.1542(4)
H18 H 0.1076 0.1888 -0.0835
B4 B 0.0495(3) 0.1084(2) -0.3925(3)
H19 H 0.0779 0.0940 -0.4766
B5 B 0.0882(3) 0.0770(2) -0.2542(4)
H20 H 0.1396 0.0368 -0.2429
B6 B 0.0000 0.0729(3) -0.1586(4)
H21 H 0.0000 0.0413 -0.0742
B7 B 0.0000 0.0378(2) -0.3081(3)
H22 H 0.0000 -0.0263 -0.3290
C9 C 0.0465(3) 0.2316(2) -0.2100(4)
C10 C 0.0837(5) 0.3133(3) -0.1927(7)
H23 H 0.1043 0.3174 -0.1145
H24 H 0.1264 0.3204 -0.2477
H25 H 0.0000 0.238(3) -0.428(6)
B2C B -0.0976(3) 0.1766(3) -0.3040(4)
H17C H -0.1522 0.2028 -0.3413
B3C B -0.0820(4) 0.1523(3) -0.1542(4)
H18C H -0.1076 0.1888 -0.0835
B4C B -0.0495(3) 0.1084(2) -0.3925(3)
H19C H -0.0779 0.0940 -0.4766
B5C B -0.0882(3) 0.0770(2) -0.2542(4)
H20C H -0.1396 0.0368 -0.2429
C9C C -0.0465(3) 0.2316(2) -0.2100(4)
C10C C -0.0837(5) 0.3133(3) -0.1927(7)
H23C H -0.1043 0.3174 -0.1145
H24C H -0.1264 0.3204 -0.2477
loop_
_geom_bond_atom_site_label_1
_geom_bond_atom_site_label_2
_geom_bond_site_symmetry_1
_geom_bond_site_symmetry_2
O1 C1 1_555 1_555
C1 H1 1_555 1_555
H2 C1 1_555 1_555
C2 C1 1_555 1_555
H3 C2 1_555 1_555
H4 C2 1_555 1_555
C3 C2 1_555 1_555
H5 C3 1_555 1_555
H6 C3 1_555 1_555
C4 O1 1_555 1_555
H7 C4 1_555 1_555
H8 C4 1_555 1_555
O2 C5 1_555 1_555
C5 H9 1_555 1_555
H10 C5 1_555 1_555
C6 C5 1_555 1_555
H11 C6 1_555 1_555
H12 C6 1_555 1_555
C7 C6 1_555 1_555
H13 C7 1_555 1_555
H14 C7 1_555 1_555
C8 O2 1_555 1_555
H15 C8 1_555 1_555
H16 C8 1_555 1_555
B1 B2 1_555 1_555
B2 H17 1_555 1_555
B3 B2 1_555 1_555
H18 B3 1_555 1_555
B4 B1 1_555 1_555
H19 B4 1_555 1_555
B5 B2 1_555 1_555
H20 B5 1_555 1_555
B6 B3 1_555 1_555
H21 B6 1_555 1_555
B7 B4 1_555 1_555
H22 B7 1_555 1_555
C9 B1 1_555 1_555
C10 C9 1_555 1_555
H23 C10 1_555 1_555
H24 C10 1_555 1_555
H25 B1 1_555 1_555
B2C B1 1_555 1_555
H17C B2C 1_555 1_555
B3C B6 1_555 1_555
H18C B3C 1_555 1_555
B4C B1 1_555 1_555
H19C B4C 1_555 1_555
B5C B6 1_555 1_555
H20C B5C 1_555 1_555
C9C B1 1_555 1_555
C10C C9C 1_555 1_555
H23C C10C 1_555 1_555
H24C C10C 1_555 1_555
C3 C4 1_555 1_555
C7 C8 1_555 1_555
B2 B4 1_555 1_555
B2 C9 1_555 1_555
B3 B5 1_555 1_555
B3 C9 1_555 1_555
B4 B5 1_555 1_555
B4 B4C 1_555 1_555
B5 B6 1_555 1_555
B5 B7 1_555 1_555
B6 B7 1_555 1_555
B7 B4C 1_555 1_555
B7 B5C 1_555 1_555
C9 C9C 1_555 1_555
B2C B3C 1_555 1_555
B2C B4C 1_555 1_555
B2C B5C 1_555 1_555
B2C C9C 1_555 1_555
B3C B5C 1_555 1_555
B3C C9C 1_555 1_555
B4C B5C 1_555 1_555

#END
