
#######################################################################
#
#                 Cambridge Crystallographic Data Centre
#                                CCDC 
#
#######################################################################
#
# If this CIF has been generated from an entry in the Cambridge 
# Structural Database, then it will include bibliographic, chemical, 
# crystal, experimental, refinement or atomic coordinate data resulting 
# from the CCDC's data processing and validation procedures.
#
#######################################################################

data_GIZHOO
_chemical_formula_moiety         'C6 H22 B12 Si1'
_chemical_name_systematic        
1,2-([methyl(dimethyl)silyl]methyl)-1,2-dicarba-tetradecaborane(11)
_symmetry_cell_setting           monoclinic
_symmetry_space_group_name_H-M   'P 21/c'
_symmetry_Int_Tables_number      14
_space_group_name_Hall           '-P 2ybc'
loop_
_symmetry_equiv_pos_site_id
_symmetry_equiv_pos_as_xyz
1 x,y,z
2 -x,1/2+y,1/2-z
3 -x,-y,-z
4 x,1/2-y,1/2+z
_cell_length_a                   7.1477(10)
_cell_length_b                   14.2804(19)
_cell_length_c                   15.2566(19)
_cell_angle_alpha                90
_cell_angle_beta                 95.450(3)
_cell_angle_gamma                90
_cell_volume                     1550.23
_exptl_crystal_colour            colorless
_exptl_crystal_description       block
_cell_formula_units_Z            4
loop_
_atom_site_label
_atom_site_type_symbol
_atom_site_fract_x
_atom_site_fract_y
_atom_site_fract_z
Si1 Si 0.94327(17) 0.79420(9) 0.44280(7)
C1 C 0.8154(5) 0.6738(3) 0.3088(2)
C2 C 0.7434(5) 0.6319(3) 0.4015(2)
C3 C 0.9354(6) 0.7601(3) 0.3226(3)
H1 H 0.8824 0.8107 0.2857
H2 H 1.0614 0.7475 0.3069
C4 C 0.8017(6) 0.6930(3) 0.4812(2)
H3 H 0.8768 0.6570 0.5256
H4 H 0.6914 0.7161 0.5068
C5 C 1.1864(6) 0.7946(3) 0.4988(3)
H5 H 1.1828 0.8122 0.5594
H6 H 1.2619 0.8386 0.4702
H7 H 1.2398 0.7331 0.4958
C6 C 0.8237(7) 0.9074(3) 0.4559(3)
H8 H 0.8295 0.9232 0.5173
H9 H 0.6947 0.9025 0.4323
H10 H 0.8848 0.9553 0.4249
B1 B 0.8315(7) 0.5664(4) 0.2331(3)
H11 H 0.9478 0.5909 0.1966
B2 B 0.9212(6) 0.5787(3) 0.3533(3)
H12 H 1.0721 0.5860 0.3744
B3 B 0.8496(8) 0.4694(4) 0.3196(4)
H13 H 0.9603 0.4156 0.3239
B4 B 0.6753(8) 0.4577(4) 0.2343(4)
H14 H 0.6879 0.3964 0.1915
B5 B 0.5840(7) 0.5582(4) 0.1848(3)
H15 H 0.5486 0.5547 0.1131
B6 B 0.6536(6) 0.6672(4) 0.2239(3)
H16 H 0.6554 0.7235 0.1748
B7 B 0.7572(6) 0.5172(3) 0.4120(3)
H17 H 0.7884 0.4903 0.4793
B8 B 0.6146(8) 0.4490(4) 0.3415(4)
H18 H 0.5659 0.3837 0.3700
B9 B 0.4628(8) 0.4983(5) 0.2623(4)
H19 H 0.3304 0.4605 0.2446
B10 B 0.4483(6) 0.6162(4) 0.2586(3)
H20 H 0.3060 0.6434 0.2400
B11 B 0.5868(6) 0.6855(4) 0.3308(3)
H21 H 0.5233 0.7504 0.3531
B12 B 0.5187(6) 0.5649(4) 0.3696(3)
H22 H 0.4503 0.5796 0.4297
loop_
_geom_bond_atom_site_label_1
_geom_bond_atom_site_label_2
_geom_bond_site_symmetry_1
_geom_bond_site_symmetry_2
Si1 C3 1_555 1_555
C1 C2 1_555 1_555
C2 C4 1_555 1_555
C3 C1 1_555 1_555
H1 C3 1_555 1_555
H2 C3 1_555 1_555
C4 Si1 1_555 1_555
H3 C4 1_555 1_555
H4 C4 1_555 1_555
C5 Si1 1_555 1_555
H5 C5 1_555 1_555
H6 C5 1_555 1_555
H7 C5 1_555 1_555
C6 Si1 1_555 1_555
H8 C6 1_555 1_555
H9 C6 1_555 1_555
H10 C6 1_555 1_555
B1 C1 1_555 1_555
H11 B1 1_555 1_555
B2 C1 1_555 1_555
H12 B2 1_555 1_555
B3 B1 1_555 1_555
H13 B3 1_555 1_555
B4 B1 1_555 1_555
H14 B4 1_555 1_555
B5 B1 1_555 1_555
H15 B5 1_555 1_555
B6 C1 1_555 1_555
H16 B6 1_555 1_555
B7 C2 1_555 1_555
H17 B7 1_555 1_555
B8 B3 1_555 1_555
H18 B8 1_555 1_555
B9 B4 1_555 1_555
H19 B9 1_555 1_555
B10 B5 1_555 1_555
H20 B10 1_555 1_555
B11 C1 1_555 1_555
H21 B11 1_555 1_555
B12 C2 1_555 1_555
H22 B12 1_555 1_555
C2 B2 1_555 1_555
C2 B11 1_555 1_555
B1 B2 1_555 1_555
B1 B6 1_555 1_555
B2 B3 1_555 1_555
B2 B7 1_555 1_555
B3 B4 1_555 1_555
B3 B7 1_555 1_555
B4 B5 1_555 1_555
B4 B8 1_555 1_555
B5 B6 1_555 1_555
B5 B9 1_555 1_555
B6 B10 1_555 1_555
B6 B11 1_555 1_555
B7 B8 1_555 1_555
B7 B12 1_555 1_555
B8 B9 1_555 1_555
B8 B12 1_555 1_555
B9 B10 1_555 1_555
B9 B12 1_555 1_555
B10 B11 1_555 1_555
B10 B12 1_555 1_555
B11 B12 1_555 1_555

#END
