
#######################################################################
#
#                 Cambridge Crystallographic Data Centre
#                                CCDC 
#
#######################################################################
#
# If this CIF has been generated from an entry in the Cambridge 
# Structural Database, then it will include bibliographic, chemical, 
# crystal, experimental, refinement or atomic coordinate data resulting 
# from the CCDC's data processing and validation procedures.
#
#######################################################################

data_GIZHEE
_chemical_formula_moiety         'C11 H22 B12'
_chemical_name_systematic        
1-phenyl-2,3-(propane-1,3-diyl)-2,3-dicarba-tetradecaborane(11)
_symmetry_cell_setting           monoclinic
_symmetry_space_group_name_H-M   'P c'
_symmetry_Int_Tables_number      7
_space_group_name_Hall           'P -2yc'
loop_
_symmetry_equiv_pos_site_id
_symmetry_equiv_pos_as_xyz
1 x,y,z
2 x,-y,1/2+z
_cell_length_a                   8.6516(16)
_cell_length_b                   12.949(3)
_cell_length_c                   15.190(3)
_cell_angle_alpha                90
_cell_angle_beta                 97.624(3)
_cell_angle_gamma                90
_cell_volume                     1686.69
_exptl_crystal_colour            colorless
_exptl_crystal_description       block
_cell_formula_units_Z            4
loop_
_atom_site_label
_atom_site_type_symbol
_atom_site_fract_x
_atom_site_fract_y
_atom_site_fract_z
B1 B 0.6562(3) 0.03593(18) 0.14883(15)
B2 B 0.5042(3) -0.0472(2) 0.0794(2)
H1 H 0.5150 -0.1319 0.0803
B3 B 0.4549(3) 0.0123(2) 0.1758(2)
H2 H 0.4305 -0.0390 0.2300
B4 B 0.5429(4) 0.1301(2) 0.20543(19)
H3 H 0.5702 0.1456 0.2770
B5 B 0.6723(4) 0.1830(2) 0.1395(2)
H4 H 0.7744 0.2245 0.1731
B6 B 0.5441(4) 0.1209(3) -0.0369(2)
H5 H 0.5478 0.1386 -0.1074
B7 B 0.4242(4) 0.0213(3) -0.0157(2)
H6 H 0.3603 -0.0154 -0.0749
B8 B 0.3279(4) 0.0227(3) 0.0760(3)
H7 H 0.2115 -0.0131 0.0666
B9 B 0.3534(4) 0.1270(3) 0.1481(2)
H8 H 0.2496 0.1499 0.1781
B10 B 0.4755(5) 0.2260(3) 0.1292(3)
H9 H 0.4400 0.3030 0.1496
B11 B 0.5709(4) 0.2244(2) 0.0369(2)
H10 H 0.5886 0.3002 0.0071
B12 B 0.3754(4) 0.1548(3) 0.0278(2)
C1 C 0.6983(3) 0.12325(19) 0.04558(16)
C2 C 0.6178(3) 0.01426(18) 0.01814(14)
C3 C 0.8573(4) 0.1206(3) 0.0143(2)
H11 H 0.8757 0.1841 -0.0166
H12 H 0.9383 0.1131 0.0646
C4 C 0.8582(5) 0.0297(4) -0.0473(3)
H13 H 0.9603 -0.0027 -0.0395
H14 H 0.8352 0.0523 -0.1085
C5 C 0.7360(4) -0.0468(3) -0.02597(18)
H15 H 0.7832 -0.1000 0.0137
H16 H 0.6861 -0.0794 -0.0799
C6 C 0.8031(3) -0.02338(17) 0.19460(13)
C7 C 0.9410(3) 0.0270(2) 0.22868(15)
H17 H 0.9476 0.0983 0.2231
C8 C 1.0689(3) -0.0274(3) 0.27077(18)
H18 H 1.1605 0.0074 0.2916
C9 C 1.0598(4) -0.1316(3) 0.28144(18)
H19 H 1.1447 -0.1676 0.3104
C10 C 0.9256(4) -0.1834(3) 0.24956(19)
H20 H 0.9200 -0.2545 0.2571
C11 C 0.7985(3) -0.1306(2) 0.20628(16)
H21 H 0.7087 -0.1668 0.1846
H22 H 0.276(3) 0.196(2) -0.0068(17)
B13 B 0.1302(3) 0.42081(18) 0.53330(17)
B14 B -0.0034(3) 0.3045(2) 0.5111(2)
H23 H 0.0194 0.2345 0.5518
B15 B -0.0711(4) 0.4116(3) 0.5627(2)
H24 H -0.0939 0.4015 0.6317
B16 B -0.0035(5) 0.5327(3) 0.5343(2)
H25 H 0.0125 0.5916 0.5868
B17 B 0.1269(5) 0.5381(2) 0.4574(2)
H26 H 0.2199 0.5965 0.4686
B18 B 0.0257(5) 0.3741(3) 0.3356(2)
H27 H 0.0325 0.3457 0.2680
B19 B -0.0833(4) 0.2992(3) 0.3985(2)
H28 H -0.1358 0.2294 0.3658
B20 B -0.1901(4) 0.3548(4) 0.4728(3)
H29 H -0.3006 0.3157 0.4799
B21 B -0.1881(5) 0.4874(3) 0.4840(3)
H30 H -0.2999 0.5213 0.4961
B22 B -0.0755(5) 0.5626(3) 0.4250(3)
H31 H -0.1250 0.6388 0.4055
B23 B 0.0349(6) 0.5072(3) 0.3503(2)
H32 H 0.0488 0.5535 0.2911
B24 B -0.1527(5) 0.4371(3) 0.3716(3)
C12 C 0.1734(3) 0.4300(2) 0.40592(17)
C13 C 0.1103(3) 0.32049(18) 0.43206(17)
C14 C 0.3338(5) 0.4116(4) 0.3830(2)
H33 H 0.4114 0.4362 0.4304
H34 H 0.3480 0.4479 0.3288
C15 C 0.3506(5) 0.2973(5) 0.3707(3)
H35 H 0.4567 0.2758 0.3912
H36 H 0.3262 0.2793 0.3084
C16 C 0.2376(4) 0.2439(3) 0.4249(2)
H37 H 0.1958 0.1817 0.3951
H38 H 0.2896 0.2256 0.4833
C17 C 0.2795(3) 0.40221(17) 0.60217(14)
C18 C 0.2873(3) 0.3198(2) 0.66152(18)
H39 H 0.2055 0.2728 0.6579
C19 C 0.4152(4) 0.3067(3) 0.7260(2)
H40 H 0.4180 0.2515 0.7654
C20 C 0.5371(4) 0.3745(3) 0.7319(2)
H41 H 0.6227 0.3654 0.7752
C21 C 0.5335(4) 0.4551(3) 0.6745(3)
H42 H 0.6170 0.5008 0.6781
C22 C 0.4065(4) 0.4693(2) 0.6112(2)
H43 H 0.4053 0.5256 0.5730
H44 H -0.237(5) 0.442(3) 0.312(3)
loop_
_geom_bond_atom_site_label_1
_geom_bond_atom_site_label_2
_geom_bond_site_symmetry_1
_geom_bond_site_symmetry_2
B1 B2 1_555 1_555
B2 H1 1_555 1_555
B3 B1 1_555 1_555
H2 B3 1_555 1_555
B4 B1 1_555 1_555
H3 B4 1_555 1_555
B5 B1 1_555 1_555
H4 B5 1_555 1_555
B6 H5 1_555 1_555
B7 B2 1_555 1_555
H6 B7 1_555 1_555
B8 B2 1_555 1_555
H7 B8 1_555 1_555
B9 B3 1_555 1_555
H8 B9 1_555 1_555
B10 B4 1_555 1_555
H9 B10 1_555 1_555
B11 B5 1_555 1_555
H10 B11 1_555 1_555
B12 B6 1_555 1_555
C1 B5 1_555 1_555
C2 B2 1_555 1_555
C3 C1 1_555 1_555
H11 C3 1_555 1_555
H12 C3 1_555 1_555
C4 C3 1_555 1_555
H13 C4 1_555 1_555
H14 C4 1_555 1_555
C5 C2 1_555 1_555
H15 C5 1_555 1_555
H16 C5 1_555 1_555
C6 B1 1_555 1_555
C7 C6 1_555 1_555
H17 C7 1_555 1_555
C8 C7 1_555 1_555
H18 C8 1_555 1_555
C9 C8 1_555 1_555
H19 C9 1_555 1_555
C10 C9 1_555 1_555
H20 C10 1_555 1_555
C11 C6 1_555 1_555
H21 C11 1_555 1_555
H22 B12 1_555 1_555
B13 B14 1_555 1_555
B14 H23 1_555 1_555
B15 B13 1_555 1_555
H24 B15 1_555 1_555
B16 B13 1_555 1_555
H25 B16 1_555 1_555
B17 B13 1_555 1_555
H26 B17 1_555 1_555
B18 H27 1_555 1_555
B19 B14 1_555 1_555
H28 B19 1_555 1_555
B20 B14 1_555 1_555
H29 B20 1_555 1_555
B21 B15 1_555 1_555
H30 B21 1_555 1_555
B22 B16 1_555 1_555
H31 B22 1_555 1_555
B23 B17 1_555 1_555
H32 B23 1_555 1_555
B24 B18 1_555 1_555
C12 B17 1_555 1_555
C13 B14 1_555 1_555
C14 C12 1_555 1_555
H33 C14 1_555 1_555
H34 C14 1_555 1_555
C15 C14 1_555 1_555
H35 C15 1_555 1_555
H36 C15 1_555 1_555
C16 C13 1_555 1_555
H37 C16 1_555 1_555
H38 C16 1_555 1_555
C17 B13 1_555 1_555
C18 C17 1_555 1_555
H39 C18 1_555 1_555
C19 C18 1_555 1_555
H40 C19 1_555 1_555
C20 C19 1_555 1_555
H41 C20 1_555 1_555
C21 C20 1_555 1_555
H42 C21 1_555 1_555
C22 C17 1_555 1_555
H43 C22 1_555 1_555
H44 B24 1_555 1_555
B2 B3 1_555 1_555
B3 B4 1_555 1_555
B3 B8 1_555 1_555
B4 B5 1_555 1_555
B4 B9 1_555 1_555
B5 B10 1_555 1_555
B6 B7 1_555 1_555
B6 B11 1_555 1_555
B6 C1 1_555 1_555
B6 C2 1_555 1_555
B7 B8 1_555 1_555
B7 B12 1_555 1_555
B7 C2 1_555 1_555
B8 B9 1_555 1_555
B8 B12 1_555 1_555
B9 B10 1_555 1_555
B9 B12 1_555 1_555
B10 B11 1_555 1_555
B10 B12 1_555 1_555
B11 B12 1_555 1_555
B11 C1 1_555 1_555
C1 C2 1_555 1_555
C4 C5 1_555 1_555
C10 C11 1_555 1_555
B14 B15 1_555 1_555
B15 B16 1_555 1_555
B15 B20 1_555 1_555
B16 B17 1_555 1_555
B16 B21 1_555 1_555
B17 B22 1_555 1_555
B18 B19 1_555 1_555
B18 B23 1_555 1_555
B18 C12 1_555 1_555
B18 C13 1_555 1_555
B19 B20 1_555 1_555
B19 B24 1_555 1_555
B19 C13 1_555 1_555
B20 B21 1_555 1_555
B20 B24 1_555 1_555
B21 B22 1_555 1_555
B21 B24 1_555 1_555
B22 B23 1_555 1_555
B22 B24 1_555 1_555
B23 B24 1_555 1_555
B23 C12 1_555 1_555
C12 C13 1_555 1_555
C15 C16 1_555 1_555
C21 C22 1_555 1_555

#END
