
#######################################################################
#
#                 Cambridge Crystallographic Data Centre
#                                CCDC 
#
#######################################################################
#
# If this CIF has been generated from an entry in the Cambridge 
# Structural Database, then it will include bibliographic, chemical, 
# crystal, experimental, refinement or atomic coordinate data resulting 
# from the CCDC's data processing and validation procedures.
#
#######################################################################

data_GIZJAC
_chemical_formula_moiety         'C10 H20 B12'
_chemical_name_systematic        
1,2-(2-methylbenzyl)-1,2-dicarba-tetradecaborane(11)
_symmetry_cell_setting           monoclinic
_symmetry_space_group_name_H-M   'P 21/c'
_symmetry_Int_Tables_number      14
_space_group_name_Hall           '-P 2ybc'
loop_
_symmetry_equiv_pos_site_id
_symmetry_equiv_pos_as_xyz
1 x,y,z
2 -x,1/2+y,1/2-z
3 -x,-y,-z
4 x,1/2-y,1/2+z
_cell_length_a                   8.1522(9)
_cell_length_b                   11.0823(11)
_cell_length_c                   17.4988(18)
_cell_angle_alpha                90
_cell_angle_beta                 90.865(2)
_cell_angle_gamma                90
_cell_volume                     1580.75
_exptl_crystal_colour            colorless
_exptl_crystal_description       block
_cell_formula_units_Z            4
loop_
_atom_site_label
_atom_site_type_symbol
_atom_site_fract_x
_atom_site_fract_y
_atom_site_fract_z
C1 C 0.2858(3) 0.2985(2) -0.06995(14)
C2 C 0.3742(3) 0.2348(2) -0.13988(13)
C3 C 0.3280(3) 0.2414(3) 0.00722(15)
H1 H 0.3035 0.2989 0.0472
H2 H 0.2581 0.1716 0.0144
C4 C 0.5028(3) 0.2029(2) 0.01599(14)
C5 C 0.5893(4) 0.2200(3) 0.08354(16)
H3 H 0.5395 0.2589 0.1242
C6 C 0.7470(5) 0.1805(3) 0.0912(2)
H4 H 0.8037 0.1919 0.1371
C7 C 0.8229(4) 0.1239(3) 0.0313(2)
H5 H 0.9301 0.0964 0.0371
C8 C 0.7398(3) 0.1078(3) -0.03728(17)
H6 H 0.7918 0.0713 -0.0782
C9 C 0.5790(3) 0.1463(2) -0.04476(14)
C10 C 0.4832(3) 0.1282(2) -0.11752(14)
H7 H 0.4149 0.0571 -0.1123
H8 H 0.5592 0.1129 -0.1585
B1 B 0.1386(4) 0.2207(3) -0.1404(2)
B2 B 0.2789(4) 0.2164(3) -0.22412(18)
H9 H 0.3044 0.1319 -0.2547
B3 B 0.0858(5) 0.2762(3) -0.2385(2)
H10 H 0.0057 0.2273 -0.2790
B4 B -0.0086(5) 0.3444(4) -0.1629(2)
H11 H -0.1427 0.3342 -0.1607
B5 B 0.0942(4) 0.3492(3) -0.0758(2)
H12 H 0.0191 0.3376 -0.0246
B6 B 0.4310(4) 0.3779(3) -0.11654(16)
H13 H 0.5512 0.4064 -0.0935
B7 B 0.4270(5) 0.3313(3) -0.21074(18)
H14 H 0.5455 0.3338 -0.2399
B8 B 0.2570(5) 0.3598(3) -0.26681(19)
H15 H 0.2847 0.3797 -0.3268
B9 B 0.0885(5) 0.4316(3) -0.2304(2)
H16 H 0.0222 0.4913 -0.2705
B10 B 0.0911(5) 0.4770(3) -0.1358(2)
H17 H 0.0263 0.5614 -0.1229
B11 B 0.2605(4) 0.4487(3) -0.07959(18)
H18 H 0.2870 0.5171 -0.0356
B12 B 0.2966(5) 0.4701(3) -0.18617(18)
H19 H 0.112(3) 0.127(2) -0.1178(13)
H20 H 0.351(3) 0.557(3) -0.2003(15)
loop_
_geom_bond_atom_site_label_1
_geom_bond_atom_site_label_2
_geom_bond_site_symmetry_1
_geom_bond_site_symmetry_2
C1 C2 1_555 1_555
C2 C10 1_555 1_555
C3 C1 1_555 1_555
H1 C3 1_555 1_555
H2 C3 1_555 1_555
C4 C3 1_555 1_555
C5 C4 1_555 1_555
H3 C5 1_555 1_555
C6 C5 1_555 1_555
H4 C6 1_555 1_555
C7 C6 1_555 1_555
H5 C7 1_555 1_555
C8 C7 1_555 1_555
H6 C8 1_555 1_555
C9 C4 1_555 1_555
C10 C9 1_555 1_555
H7 C10 1_555 1_555
H8 C10 1_555 1_555
B1 C1 1_555 1_555
B2 C2 1_555 1_555
H9 B2 1_555 1_555
B3 B1 1_555 1_555
H10 B3 1_555 1_555
B4 B1 1_555 1_555
H11 B4 1_555 1_555
B5 C1 1_555 1_555
H12 B5 1_555 1_555
B6 C1 1_555 1_555
H13 B6 1_555 1_555
B7 C2 1_555 1_555
H14 B7 1_555 1_555
B8 B2 1_555 1_555
H15 B8 1_555 1_555
B9 B3 1_555 1_555
H16 B9 1_555 1_555
B10 B4 1_555 1_555
H17 B10 1_555 1_555
B11 C1 1_555 1_555
H18 B11 1_555 1_555
B12 B6 1_555 1_555
H19 B1 1_555 1_555
H20 B12 1_555 1_555
C2 B1 1_555 1_555
C2 B6 1_555 1_555
C8 C9 1_555 1_555
B1 B2 1_555 1_555
B1 B5 1_555 1_555
B2 B3 1_555 1_555
B2 B7 1_555 1_555
B3 B4 1_555 1_555
B3 B8 1_555 1_555
B4 B5 1_555 1_555
B4 B9 1_555 1_555
B5 B10 1_555 1_555
B5 B11 1_555 1_555
B6 B7 1_555 1_555
B6 B11 1_555 1_555
B7 B8 1_555 1_555
B7 B12 1_555 1_555
B8 B9 1_555 1_555
B8 B12 1_555 1_555
B9 B10 1_555 1_555
B9 B12 1_555 1_555
B10 B11 1_555 1_555
B10 B12 1_555 1_555
B11 B12 1_555 1_555

#END
