
#######################################################################
#
#                 Cambridge Crystallographic Data Centre
#                                CCDC 
#
#######################################################################
#
# If this CIF has been generated from an entry in the Cambridge 
# Structural Database, then it will include bibliographic, chemical, 
# crystal, experimental, refinement or atomic coordinate data resulting 
# from the CCDC's data processing and validation procedures.
#
#######################################################################

data_GIZMIN
_chemical_formula_moiety         'C46 H34 N2 O2'
_chemical_name_systematic        
2-(2-(11-Benzoyl-6-(1H-indol-3-yl)-5,6,11,12-tetrahydrobenzo[5,6]cyclohepta[1,2-b]indol-12-yl)phenyl)-1-phenylethanone
_symmetry_cell_setting           monoclinic
_symmetry_space_group_name_H-M   'P 21/n'
_symmetry_Int_Tables_number      14
_space_group_name_Hall           '-P 2yn'
loop_
_symmetry_equiv_pos_site_id
_symmetry_equiv_pos_as_xyz
1 x,y,z
2 1/2-x,1/2+y,1/2-z
3 -x,-y,-z
4 1/2+x,1/2-y,1/2+z
_cell_length_a                   16.1459(11)
_cell_length_b                   11.8659(8)
_cell_length_c                   18.6686(12)
_cell_angle_alpha                90
_cell_angle_beta                 108.0860(10)
_cell_angle_gamma                90
_cell_volume                     3399.92
_exptl_crystal_colour            colorless
_exptl_crystal_description       prismatic
_cell_formula_units_Z            4
loop_
_atom_site_label
_atom_site_type_symbol
_atom_site_fract_x
_atom_site_fract_y
_atom_site_fract_z
N1 N 0.55812(8) 0.85279(11) 0.09195(7)
N2 N 0.22601(9) 0.92492(12) -0.10791(8)
O1 O 0.24118(7) 0.52385(10) 0.10691(6)
O2 O 0.53419(7) 0.53490(10) 0.30614(8)
C1 C 0.24107(9) 0.61624(14) 0.07846(8)
C2 C 0.32447(8) 0.66368(12) 0.06897(8)
H1 H 0.3120 0.7415 0.0513
C3 C 0.35175(9) 0.60050(12) 0.00873(8)
C4 C 0.40359(9) 0.65571(13) -0.02812(8)
C5 C 0.43200(9) 0.77720(13) -0.00902(8)
H2 H 0.4722 0.7955 -0.0373
C6 C 0.48311(8) 0.78840(12) 0.07318(8)
C7 C 0.47138(8) 0.74747(11) 0.13794(7)
C8 C 0.39987(8) 0.66872(11) 0.14456(7)
H3 H 0.4247 0.5929 0.1555
C9 C 0.59421(9) 0.85714(12) 0.16869(8)
C10 C 0.54080(8) 0.79224(11) 0.19980(8)
C11 C 0.56182(9) 0.78981(12) 0.27869(8)
H4 H 0.5279 0.7486 0.3015
C12 C 0.63273(10) 0.84883(13) 0.32158(9)
H5 H 0.6458 0.8485 0.3737
C13 C 0.68592(10) 0.90942(14) 0.28901(10)
H6 H 0.7345 0.9470 0.3198
C14 C 0.66761(9) 0.91422(14) 0.21271(9)
H7 H 0.7030 0.9543 0.1908
C15 C 0.33031(10) 0.48822(13) -0.00955(9)
H8 H 0.2965 0.4499 0.0147
C16 C 0.35801(12) 0.43247(15) -0.06282(10)
H9 H 0.3426 0.3575 -0.0741
C17 C 0.40797(11) 0.48714(16) -0.09897(9)
H10 H 0.4264 0.4499 -0.1351
C18 C 0.43087(10) 0.59818(15) -0.08136(8)
H11 H 0.4653 0.6351 -0.1057
C19 C 0.35529(9) 0.85810(12) -0.03638(8)
C20 C 0.28488(10) 0.83905(13) -0.09747(8)
H12 H 0.2776 0.7758 -0.1282
C21 C 0.25799(10) 1.00327(14) -0.05252(9)
C22 C 0.33971(9) 0.96493(12) -0.00586(8)
C23 C 0.38500(11) 1.03230(14) 0.05537(8)
H13 H 0.4382 1.0087 0.0882
C24 C 0.34943(13) 1.13425(16) 0.06617(10)
H14 H 0.3796 1.1798 0.1063
C25 C 0.26938(14) 1.17014(17) 0.01816(12)
H15 H 0.2475 1.2397 0.0266
C26 C 0.22212(12) 1.10573(16) -0.04100(11)
H16 H 0.1681 1.1294 -0.0724
C27 C 0.36786(8) 0.70475(12) 0.20971(7)
C28 C 0.34661(9) 0.81782(12) 0.21433(8)
H17 H 0.3501 0.8673 0.1768
C29 C 0.32061(10) 0.85797(14) 0.27306(9)
H18 H 0.3077 0.9340 0.2755
C30 C 0.31375(11) 0.78525(16) 0.32802(10)
H19 H 0.2959 0.8116 0.3678
C31 C 0.33346(11) 0.67307(15) 0.32401(9)
H20 H 0.3279 0.6242 0.3612
C32 C 0.36151(9) 0.63064(12) 0.26590(8)
C33 C 0.38049(9) 0.50601(13) 0.26526(8)
H21 H 0.3552 0.4694 0.3000
H22 H 0.3500 0.4776 0.2153
C34 C 0.47398(10) 0.46916(13) 0.28498(8)
C35 C 0.49062(10) 0.34691(13) 0.27709(8)
C36 C 0.57060(12) 0.31270(17) 0.27175(10)
H23 H 0.6132 0.3661 0.2730
C37 C 0.58734(17) 0.1999(2) 0.26459(13)
H24 H 0.6410 0.1773 0.2608
C38 C 0.5243(2) 0.1208(2) 0.26302(13)
H25 H 0.5356 0.0447 0.2583
C39 C 0.44599(17) 0.15336(18) 0.26827(13)
H26 H 0.4039 0.0995 0.2676
C40 C 0.42830(13) 0.26615(15) 0.27462(11)
H27 H 0.3740 0.2878 0.2773
C41 C 0.15864(9) 0.68182(15) 0.05192(8)
C42 C 0.08188(12) 0.6276(2) 0.04919(13)
H28 H 0.0830 0.5520 0.0627
C43 C 0.00385(15) 0.6845(3) 0.02672(18)
H29 H -0.0474 0.6475 0.0254
C44 C 0.00130(16) 0.7956(3) 0.00633(15)
H30 H -0.0517 0.8335 -0.0097
C45 C 0.07588(15) 0.8504(2) 0.00953(14)
H31 H 0.0742 0.9262 -0.0035
C46 C 0.15421(12) 0.79384(19) 0.03214(11)
H32 H 0.2051 0.8321 0.0341
H33 H 0.1744(11) 0.9271(14) -0.1412(9)
H34 H 0.5791(10) 0.8841(14) 0.0605(9)
loop_
_geom_bond_atom_site_label_1
_geom_bond_atom_site_label_2
_geom_bond_site_symmetry_1
_geom_bond_site_symmetry_2
N1 C6 1_555 1_555
N2 C20 1_555 1_555
O1 C1 1_555 1_555
O2 C34 1_555 1_555
C1 C2 1_555 1_555
C2 H1 1_555 1_555
C3 C2 1_555 1_555
C4 C3 1_555 1_555
C5 C4 1_555 1_555
H2 C5 1_555 1_555
C6 C5 1_555 1_555
C7 C6 1_555 1_555
C8 C2 1_555 1_555
H3 C8 1_555 1_555
C9 N1 1_555 1_555
C10 C7 1_555 1_555
C11 C10 1_555 1_555
H4 C11 1_555 1_555
C12 C11 1_555 1_555
H5 C12 1_555 1_555
C13 C12 1_555 1_555
H6 C13 1_555 1_555
C14 C9 1_555 1_555
H7 C14 1_555 1_555
C15 C3 1_555 1_555
H8 C15 1_555 1_555
C16 C15 1_555 1_555
H9 C16 1_555 1_555
C17 C16 1_555 1_555
H10 C17 1_555 1_555
C18 C4 1_555 1_555
H11 C18 1_555 1_555
C19 C5 1_555 1_555
C20 C19 1_555 1_555
H12 C20 1_555 1_555
C21 N2 1_555 1_555
C22 C19 1_555 1_555
C23 C22 1_555 1_555
H13 C23 1_555 1_555
C24 C23 1_555 1_555
H14 C24 1_555 1_555
C25 C24 1_555 1_555
H15 C25 1_555 1_555
C26 C21 1_555 1_555
H16 C26 1_555 1_555
C27 C8 1_555 1_555
C28 C27 1_555 1_555
H17 C28 1_555 1_555
C29 C28 1_555 1_555
H18 C29 1_555 1_555
C30 C29 1_555 1_555
H19 C30 1_555 1_555
C31 C30 1_555 1_555
H20 C31 1_555 1_555
C32 C27 1_555 1_555
C33 C32 1_555 1_555
H21 C33 1_555 1_555
H22 C33 1_555 1_555
C34 C33 1_555 1_555
C35 C34 1_555 1_555
C36 C35 1_555 1_555
H23 C36 1_555 1_555
C37 C36 1_555 1_555
H24 C37 1_555 1_555
C38 C37 1_555 1_555
H25 C38 1_555 1_555
C39 C38 1_555 1_555
H26 C39 1_555 1_555
C40 C35 1_555 1_555
H27 C40 1_555 1_555
C41 C1 1_555 1_555
C42 C41 1_555 1_555
H28 C42 1_555 1_555
C43 C42 1_555 1_555
H29 C43 1_555 1_555
C44 C43 1_555 1_555
H30 C44 1_555 1_555
C45 C44 1_555 1_555
H31 C45 1_555 1_555
C46 C41 1_555 1_555
H32 C46 1_555 1_555
H33 N2 1_555 1_555
H34 N1 1_555 1_555
C7 C8 1_555 1_555
C9 C10 1_555 1_555
C13 C14 1_555 1_555
C17 C18 1_555 1_555
C21 C22 1_555 1_555
C25 C26 1_555 1_555
C31 C32 1_555 1_555
C39 C40 1_555 1_555
C45 C46 1_555 1_555

#END
