
#######################################################################
#
#                 Cambridge Crystallographic Data Centre
#                                CCDC 
#
#######################################################################
#
# If this CIF has been generated from an entry in the Cambridge 
# Structural Database, then it will include bibliographic, chemical, 
# crystal, experimental, refinement or atomic coordinate data resulting 
# from the CCDC's data processing and validation procedures.
#
#######################################################################

data_GIZPAH
_chemical_formula_moiety         'C25 H22 N2 O8'
_chemical_name_systematic        
2\b,5\b-bis(4-Nitrophenyl)-4\a-ethoxycarbonyl-4\b-benzyl-1,3-dioxolane
_symmetry_cell_setting           monoclinic
_symmetry_space_group_name_H-M   'P 21/c'
_symmetry_Int_Tables_number      14
_space_group_name_Hall           '-P 2ybc'
loop_
_symmetry_equiv_pos_site_id
_symmetry_equiv_pos_as_xyz
1 x,y,z
2 -x,1/2+y,1/2-z
3 -x,-y,-z
4 x,1/2-y,1/2+z
_cell_length_a                   8.9876(15)
_cell_length_b                   10.2457(17)
_cell_length_c                   25.218(4)
_cell_angle_alpha                90
_cell_angle_beta                 99.813(2)
_cell_angle_gamma                90
_cell_volume                     2288.21
_exptl_crystal_colour            colorless
_exptl_crystal_description       block
_cell_formula_units_Z            4
loop_
_atom_site_label
_atom_site_type_symbol
_atom_site_fract_x
_atom_site_fract_y
_atom_site_fract_z
N1 N 0.56959(15) 0.69588(13) 0.44895(6)
N2 N 0.14705(14) -0.30417(12) 0.56401(5)
O1 O 0.29781(11) 0.15653(9) 0.34964(4)
O2 O 0.14921(11) 0.19049(9) 0.41150(4)
O3 O 0.68826(15) 0.71406(14) 0.43240(7)
O4 O 0.52077(15) 0.76809(12) 0.48055(6)
O5 O 0.0884(2) 0.10433(18) 0.26585(7)
O6 O 0.06758(14) -0.10319(12) 0.28824(5)
O7 O 0.10576(14) -0.41691(11) 0.55284(5)
O8 O 0.19992(14) -0.26759(12) 0.60970(5)
C1 C 0.21094(15) 0.25269(13) 0.37017(5)
H1 H 0.1280 0.2831 0.3412
C2 C 0.22183(15) 0.03524(13) 0.35144(5)
C3 C 0.10678(15) 0.06334(12) 0.39152(6)
H2 H 0.0015 0.0659 0.3708
C4 C 0.30842(14) 0.36638(12) 0.39203(5)
C5 C 0.44148(16) 0.39245(15) 0.37305(6)
H3 H 0.4730 0.3363 0.3471
C6 C 0.52867(16) 0.49996(15) 0.39172(6)
H4 H 0.6202 0.5180 0.3791
C7 C 0.47940(15) 0.58008(13) 0.42909(6)
C8 C 0.34869(17) 0.55597(15) 0.44918(7)
H5 H 0.3182 0.6122 0.4753
C9 C 0.26285(16) 0.44801(15) 0.43047(6)
H6 H 0.1726 0.4295 0.4439
C10 C 0.33847(16) -0.07045(14) 0.37073(6)
H7 H 0.3927 -0.0461 0.4069
H8 H 0.2846 -0.1534 0.3744
C11 C 0.45352(16) -0.09341(14) 0.33425(5)
C12 C 0.44959(18) -0.20697(15) 0.30393(6)
H9 H 0.3704 -0.2682 0.3045
C13 C 0.55999(19) -0.23222(17) 0.27280(7)
H10 H 0.5561 -0.3105 0.2524
C14 C 0.67508(18) -0.14388(18) 0.27146(6)
H11 H 0.7516 -0.1619 0.2507
C15 C 0.67869(17) -0.02921(17) 0.30038(6)
H12 H 0.7566 0.0326 0.2988
C16 C 0.56916(16) -0.00370(15) 0.33168(6)
H13 H 0.5728 0.0754 0.3515
C17 C 0.13120(18) -0.00272(14) 0.29669(6)
C18 C -0.0046(4) 0.0817(3) 0.21317(13)
H14 H -0.0727 0.0068 0.2155
H15 H -0.0678 0.1596 0.2025
C19 C 0.0890(5) 0.0549(5) 0.17238(16)
H16 H 0.0245 0.0469 0.1371
H17 H 0.1444 -0.0268 0.1812
H18 H 0.1608 0.1266 0.1716
C20 C 0.11417(14) -0.03114(13) 0.43767(5)
C21 C 0.20496(16) -0.00506(13) 0.48679(6)
H19 H 0.2608 0.0740 0.4918
C22 C 0.21435(16) -0.09409(14) 0.52855(6)
H20 H 0.2750 -0.0763 0.5624
C23 C 0.13400(15) -0.20906(13) 0.52001(6)
C24 C 0.04155(15) -0.23785(13) 0.47150(6)
H21 H -0.0130 -0.3176 0.4666
C25 C 0.03123(15) -0.14708(13) 0.43054(6)
H22 H -0.0329 -0.1636 0.3972
O9? O 0.1814(3) 0.0655(3) 0.25612(10)
C26? C 0.1168(6) 0.0289(5) 0.20030(18)
H23? H 0.1821 0.0629 0.1755
H24? H 0.1136 -0.0674 0.1970
C27? C -0.0347(7) 0.0813(6) 0.1851(2)
H25? H -0.0695 0.0671 0.1466
H26? H -0.0337 0.1750 0.1929
H27? H -0.1030 0.0370 0.2057
loop_
_geom_bond_atom_site_label_1
_geom_bond_atom_site_label_2
_geom_bond_site_symmetry_1
_geom_bond_site_symmetry_2
N1 O3 1_555 1_555
N2 O7 1_555 1_555
O1 C1 1_555 1_555
O2 C1 1_555 1_555
O4 N1 1_555 1_555
O5 C17 1_555 1_555
O6 C17 1_555 1_555
O8 N2 1_555 1_555
C1 H1 1_555 1_555
C2 O1 1_555 1_555
C3 O2 1_555 1_555
H2 C3 1_555 1_555
C4 C1 1_555 1_555
C5 C4 1_555 1_555
H3 C5 1_555 1_555
C6 C5 1_555 1_555
H4 C6 1_555 1_555
C7 N1 1_555 1_555
C8 C7 1_555 1_555
H5 C8 1_555 1_555
C9 C4 1_555 1_555
H6 C9 1_555 1_555
C10 C2 1_555 1_555
H7 C10 1_555 1_555
H8 C10 1_555 1_555
C11 C10 1_555 1_555
C12 C11 1_555 1_555
H9 C12 1_555 1_555
C13 C12 1_555 1_555
H10 C13 1_555 1_555
C14 C13 1_555 1_555
H11 C14 1_555 1_555
C15 C14 1_555 1_555
H12 C15 1_555 1_555
C16 C11 1_555 1_555
H13 C16 1_555 1_555
C17 C2 1_555 1_555
C18 O5 1_555 1_555
H14 C18 1_555 1_555
H15 C18 1_555 1_555
C19 C18 1_555 1_555
H16 C19 1_555 1_555
H17 C19 1_555 1_555
H18 C19 1_555 1_555
C20 C3 1_555 1_555
C21 C20 1_555 1_555
H19 C21 1_555 1_555
C22 C21 1_555 1_555
H20 C22 1_555 1_555
C23 N2 1_555 1_555
C24 C23 1_555 1_555
H21 C24 1_555 1_555
C25 C20 1_555 1_555
H22 C25 1_555 1_555
C2 C3 1_555 1_555
C6 C7 1_555 1_555
C8 C9 1_555 1_555
C15 C16 1_555 1_555
C22 C23 1_555 1_555
C24 C25 1_555 1_555

#END
