
#######################################################################
#
#                 Cambridge Crystallographic Data Centre
#                                CCDC 
#
#######################################################################
#
# If this CIF has been generated from an entry in the Cambridge 
# Structural Database, then it will include bibliographic, chemical, 
# crystal, experimental, refinement or atomic coordinate data resulting 
# from the CCDC's data processing and validation procedures.
#
#######################################################################

data_GIZSEP
_chemical_formula_moiety         'C23 H29 N1 O2'
_chemical_name_systematic        
3-(Benzyloxy)-N-t-butyl-2-methyl-2-(4-methylphenyl)cyclopropanecarboxamide
_symmetry_cell_setting           orthorhombic
_symmetry_space_group_name_H-M   'P 21 21 21'
_symmetry_Int_Tables_number      19
_space_group_name_Hall           'P 2ac 2ab'
loop_
_symmetry_equiv_pos_site_id
_symmetry_equiv_pos_as_xyz
1 x,y,z
2 1/2+x,1/2-y,-z
3 -x,1/2+y,1/2-z
4 1/2-x,-y,1/2+z
_cell_length_a                   9.6721(4)
_cell_length_b                   19.6189(11)
_cell_length_c                   21.5843(11)
_cell_angle_alpha                90
_cell_angle_beta                 90
_cell_angle_gamma                90
_cell_volume                     4095.75
_exptl_crystal_colour            colorless
_exptl_crystal_description       needle
_cell_formula_units_Z            8
loop_
_atom_site_label
_atom_site_type_symbol
_atom_site_fract_x
_atom_site_fract_y
_atom_site_fract_z
C1 C 0.6861(3) 0.88668(19) 0.76784(16)
C2 C 0.7521(4) 0.9622(2) 0.85565(18)
C3 C 0.6470(5) 0.9343(3) 0.9019(2)
H1 H 0.6801 0.8907 0.9185
H2 H 0.5581 0.9273 0.8811
H3 H 0.6353 0.9668 0.9360
C4 C 0.6997(5) 1.0285(2) 0.8260(2)
H4 H 0.6116 1.0199 0.8050
H5 H 0.7678 1.0449 0.7959
H6 H 0.6862 1.0630 0.8583
C5 C 0.8896(4) 0.9756(3) 0.8885(2)
H7 H 0.9581 0.9915 0.8583
H8 H 0.9224 0.9335 0.9079
H9 H 0.8764 1.0106 0.9204
C6 C 0.7418(3) 0.83556(19) 0.72278(17)
H10 H 0.8166 0.8050 0.7386
C7 C 0.6423(3) 0.8045(2) 0.67836(17)
H11 H 0.5457 0.8225 0.6807
C8 C 0.7480(3) 0.8536(2) 0.65358(17)
C9 C 0.8722(4) 0.8244(2) 0.6200(2)
H12 H 0.9542 0.8518 0.6296
H13 H 0.8554 0.8254 0.5752
H14 H 0.8873 0.7773 0.6334
C10 C 0.7085(3) 0.9238(2) 0.63218(16)
C11 C 0.5996(3) 0.9353(2) 0.59137(17)
H15 H 0.5420 0.8984 0.5794
C12 C 0.5740(4) 0.9995(2) 0.56804(17)
H16 H 0.5002 1.0057 0.5395
C13 C 0.6539(4) 1.0558(2) 0.58537(17)
C14 C 0.6263(5) 1.1253(2) 0.5593(2)
H17 H 0.5332 1.1400 0.5711
H18 H 0.6334 1.1238 0.5140
H19 H 0.6944 1.1576 0.5757
C15 C 0.7616(4) 1.0436(2) 0.62734(18)
H20 H 0.8178 1.0806 0.6404
C16 C 0.7880(4) 0.9796(2) 0.65007(18)
H21 H 0.8618 0.9732 0.6785
C17 C 0.5560(4) 0.7125(2) 0.6225(2)
H22 H 0.5348 0.7505 0.5939
H23 H 0.4693 0.6995 0.6439
C18 C 0.6089(4) 0.6523(2) 0.58574(17)
C19 C 0.7418(5) 0.6291(3) 0.5901(2)
H24 H 0.8043 0.6500 0.6183
C20 C 0.7857(6) 0.5752(3) 0.5536(3)
H25 H 0.8790 0.5604 0.5561
C21 C 0.6964(6) 0.5430(3) 0.5137(2)
H26 H 0.7258 0.5042 0.4909
C22 C 0.5632(5) 0.5676(2) 0.5071(2)
H27 H 0.5023 0.5474 0.4778
C23 C 0.5185(5) 0.6217(2) 0.5433(2)
H28 H 0.4265 0.6380 0.5393
N1 N 0.7810(3) 0.91128(16) 0.80751(14)
H29 H 0.8662 0.8958 0.8044
O1 O 0.5638(2) 0.90330(14) 0.76769(13)
O2 O 0.6534(3) 0.73455(15) 0.66677(12)
C24 C 0.1931(3) 0.91319(18) 0.77105(15)
C25 C 0.2460(3) 1.0237(2) 0.71646(17)
C26 C 0.1249(4) 1.0636(2) 0.7451(2)
H30 H 0.1448 1.0729 0.7888
H31 H 0.0401 1.0365 0.7420
H32 H 0.1127 1.1067 0.7229
C27 C 0.3753(4) 1.0682(2) 0.7155(2)
H33 H 0.4534 1.0417 0.6995
H34 H 0.3961 1.0837 0.7577
H35 H 0.3595 1.1078 0.6888
C28 C 0.2094(4) 1.0004(2) 0.65104(19)
H36 H 0.1284 0.9704 0.6526
H37 H 0.2878 0.9755 0.6332
H38 H 0.1885 1.0402 0.6253
C29 C 0.2607(3) 0.85762(18) 0.80762(15)
H39 H 0.3386 0.8729 0.8347
C30 C 0.1730(3) 0.80107(19) 0.83422(16)
H40 H 0.0729 0.8014 0.8227
C31 C 0.2731(3) 0.78416(18) 0.78341(15)
C32 C 0.4052(4) 0.7461(2) 0.80155(18)
H41 H 0.3877 0.6969 0.8009
H42 H 0.4334 0.7599 0.8433
H43 H 0.4789 0.7571 0.7721
C33 C 0.2213(3) 0.76596(19) 0.72010(16)
C34 C 0.2540(3) 0.8057(2) 0.66855(16)
H44 H 0.3009 0.8478 0.6741
C35 C 0.2188(4) 0.7844(2) 0.60933(17)
H45 H 0.2419 0.8123 0.5749
C36 C 0.1513(4) 0.7239(2) 0.59953(18)
C37 C 0.1122(5) 0.7001(3) 0.5353(2)
H46 H 0.0127 0.7066 0.5290
H47 H 0.1349 0.6517 0.5309
H48 H 0.1635 0.7266 0.5045
C38 C 0.1182(4) 0.6847(2) 0.6512(2)
H49 H 0.0718 0.6425 0.6456
C39 C 0.1512(4) 0.7058(2) 0.71020(18)
H50 H 0.1253 0.6785 0.7446
C40 C 0.1505(4) 0.8212(2) 0.94064(18)
H51 H 0.0525 0.8097 0.9487
H52 H 0.1552 0.8692 0.9267
C41 C 0.2337(4) 0.8123(2) 0.99863(17)
C42 C 0.1893(5) 0.7724(2) 1.0469(2)
H53 H 0.1043 0.7485 1.0437
C43 C 0.2685(9) 0.7668(3) 1.1007(2)
H54 H 0.2372 0.7393 1.1341
C44 C 0.3926(8) 0.8016(4) 1.1054(3)
H55 H 0.4468 0.7981 1.1420
C45 C 0.4370(6) 0.8412(4) 1.0568(4)
H56 H 0.5227 0.8646 1.0598
C46 C 0.3593(5) 0.8474(3) 1.0042(2)
H57 H 0.3906 0.8756 0.9712
H58 H 0.357(4) 0.9530(19) 0.7561(17)
N2 N 0.2795(3) 0.96370(16) 0.75524(14)
O3 O 0.0690(2) 0.91190(13) 0.75757(12)
O4 O 0.2052(3) 0.77716(14) 0.89346(11)
loop_
_geom_bond_atom_site_label_1
_geom_bond_atom_site_label_2
_geom_bond_site_symmetry_1
_geom_bond_site_symmetry_2
C1 C6 1_555 1_555
C2 C3 1_555 1_555
C3 H1 1_555 1_555
H2 C3 1_555 1_555
H3 C3 1_555 1_555
C4 C2 1_555 1_555
H4 C4 1_555 1_555
H5 C4 1_555 1_555
H6 C4 1_555 1_555
C5 C2 1_555 1_555
H7 C5 1_555 1_555
H8 C5 1_555 1_555
H9 C5 1_555 1_555
C6 H10 1_555 1_555
C7 C6 1_555 1_555
H11 C7 1_555 1_555
C8 C6 1_555 1_555
C9 C8 1_555 1_555
H12 C9 1_555 1_555
H13 C9 1_555 1_555
H14 C9 1_555 1_555
C10 C8 1_555 1_555
C11 C10 1_555 1_555
H15 C11 1_555 1_555
C12 C11 1_555 1_555
H16 C12 1_555 1_555
C13 C12 1_555 1_555
C14 C13 1_555 1_555
H17 C14 1_555 1_555
H18 C14 1_555 1_555
H19 C14 1_555 1_555
C15 C13 1_555 1_555
H20 C15 1_555 1_555
C16 C10 1_555 1_555
H21 C16 1_555 1_555
C17 H22 1_555 1_555
H23 C17 1_555 1_555
C18 C17 1_555 1_555
C19 C18 1_555 1_555
H24 C19 1_555 1_555
C20 C19 1_555 1_555
H25 C20 1_555 1_555
C21 C20 1_555 1_555
H26 C21 1_555 1_555
C22 C21 1_555 1_555
H27 C22 1_555 1_555
C23 C18 1_555 1_555
H28 C23 1_555 1_555
N1 C1 1_555 1_555
H29 N1 1_555 1_555
O1 C1 1_555 1_555
O2 C7 1_555 1_555
C24 C29 1_555 1_555
C25 C26 1_555 1_555
C26 H30 1_555 1_555
H31 C26 1_555 1_555
H32 C26 1_555 1_555
C27 C25 1_555 1_555
H33 C27 1_555 1_555
H34 C27 1_555 1_555
H35 C27 1_555 1_555
C28 C25 1_555 1_555
H36 C28 1_555 1_555
H37 C28 1_555 1_555
H38 C28 1_555 1_555
C29 H39 1_555 1_555
C30 C29 1_555 1_555
H40 C30 1_555 1_555
C31 C29 1_555 1_555
C32 C31 1_555 1_555
H41 C32 1_555 1_555
H42 C32 1_555 1_555
H43 C32 1_555 1_555
C33 C31 1_555 1_555
C34 C33 1_555 1_555
H44 C34 1_555 1_555
C35 C34 1_555 1_555
H45 C35 1_555 1_555
C36 C35 1_555 1_555
C37 C36 1_555 1_555
H46 C37 1_555 1_555
H47 C37 1_555 1_555
H48 C37 1_555 1_555
C38 C36 1_555 1_555
H49 C38 1_555 1_555
C39 C33 1_555 1_555
H50 C39 1_555 1_555
C40 H51 1_555 1_555
H52 C40 1_555 1_555
C41 C40 1_555 1_555
C42 C41 1_555 1_555
H53 C42 1_555 1_555
C43 C42 1_555 1_555
H54 C43 1_555 1_555
C44 C43 1_555 1_555
H55 C44 1_555 1_555
C45 C44 1_555 1_555
H56 C45 1_555 1_555
C46 C41 1_555 1_555
H57 C46 1_555 1_555
H58 N2 1_555 1_555
N2 C24 1_555 1_555
O3 C24 1_555 1_555
O4 C30 1_555 1_555
C2 N1 1_555 1_555
C7 C8 1_555 1_555
C15 C16 1_555 1_555
C17 O2 1_555 1_555
C22 C23 1_555 1_555
C25 N2 1_555 1_555
C30 C31 1_555 1_555
C38 C39 1_555 1_555
C40 O4 1_555 1_555
C45 C46 1_555 1_555

#END
