
#######################################################################
#
#                 Cambridge Crystallographic Data Centre
#                                CCDC 
#
#######################################################################
#
# If this CIF has been generated from an entry in the Cambridge 
# Structural Database, then it will include bibliographic, chemical, 
# crystal, experimental, refinement or atomic coordinate data resulting 
# from the CCDC's data processing and validation procedures.
#
#######################################################################

data_GIZSIT
_chemical_formula_moiety         'C19 H23 N2 O1 1+,C12 H12 Br1 O2 1-'
_chemical_name_systematic        
'9-Hydroxycinchonan-1-ium 1-bromo-2-methyl-2-(4-methylphenyl)cyclopropanecarboxylate'
_symmetry_cell_setting           orthorhombic
_symmetry_space_group_name_H-M   'P 21 21 21'
_symmetry_Int_Tables_number      19
_space_group_name_Hall           'P 2ac 2ab'
loop_
_symmetry_equiv_pos_site_id
_symmetry_equiv_pos_as_xyz
1 x,y,z
2 1/2+x,1/2-y,-z
3 -x,1/2+y,1/2-z
4 1/2-x,-y,1/2+z
_cell_length_a                   9.9583(8)
_cell_length_b                   11.9802(9)
_cell_length_c                   22.9491(17)
_cell_angle_alpha                90
_cell_angle_beta                 90
_cell_angle_gamma                90
_cell_volume                     2737.88
_exptl_crystal_colour            colorless
_exptl_crystal_description       block
_cell_formula_units_Z            4
loop_
_atom_site_label
_atom_site_type_symbol
_atom_site_fract_x
_atom_site_fract_y
_atom_site_fract_z
Br1 Br 0.83048(3) 0.35420(2) -0.013190(11)
C1 C 0.8237(3) 0.7293(2) 0.29596(11)
H1 H 0.8362 0.6909 0.3333
H2 H 0.7320 0.7586 0.2937
H3 H 0.8878 0.7911 0.2929
C2 C 0.8468(3) 0.6484(2) 0.24676(10)
C3 C 0.9750(3) 0.6075(2) 0.23469(11)
H4 H 1.0485 0.6310 0.2580
C4 C 0.9973(3) 0.5334(2) 0.18944(11)
H5 H 1.0857 0.5070 0.1822
C5 C 0.8925(3) 0.49706(19) 0.15452(11)
C6 C 0.7645(3) 0.5392(2) 0.16576(11)
H6 H 0.6912 0.5168 0.1420
C7 C 0.7427(3) 0.6132(2) 0.21110(11)
H7 H 0.6545 0.6404 0.2179
C8 C 0.9112(3) 0.4089(2) 0.10869(11)
C9 C 0.8396(3) 0.30120(19) 0.12356(11)
H8 H 0.8678 0.2759 0.1623
H9 H 0.8623 0.2441 0.0946
H10 H 0.7424 0.3138 0.1234
C10 C 1.0412(3) 0.3994(2) 0.07467(11)
H11 H 1.1142 0.4523 0.0842
H12 H 1.0716 0.3237 0.0634
C11 C 0.9190(3) 0.44484(19) 0.04519(11)
C12 C 0.9122(2) 0.56876(19) 0.03109(10)
O1 O 0.79607(15) 0.60985(12) 0.02180(7)
O2 O 1.01809(17) 0.62251(13) 0.03166(7)
C13 C 0.9519(3) 1.1049(3) -0.13481(15)
H13 H 0.9716 1.1815 -0.1412
C14 C 0.9717(3) 1.0623(2) -0.07810(12)
H14 H 1.0080 1.1083 -0.0483
C15 C 0.9379(2) 0.9541(2) -0.06683(11)
C16 C 0.8817(3) 0.8887(2) -0.11298(11)
C17 C 0.8343(3) 0.7786(2) -0.10585(11)
H15 H 0.8350 0.7452 -0.0683
C18 C 0.7872(3) 0.7195(3) -0.15264(13)
H16 H 0.7539 0.6459 -0.1473
C19 C 0.7881(3) 0.7671(3) -0.20841(14)
H17 H 0.7592 0.7241 -0.2409
C20 C 0.8294(3) 0.8736(3) -0.21664(12)
H18 H 0.8290 0.9047 -0.2547
C21 C 0.8734(3) 0.9386(3) -0.16889(13)
C22 C 0.9583(2) 0.90373(19) -0.00710(11)
H19 H 0.9835 0.8234 -0.0116
C23 C 0.8246(3) 0.91104(17) 0.02646(9)
H20 H 0.7497 0.9046 -0.0024
C24 C 0.8060(3) 1.02148(19) 0.06018(11)
H21 H 0.8839 1.0710 0.0532
H22 H 0.7242 1.0601 0.0463
C25 C 0.7934(2) 0.9969(2) 0.12549(11)
H23 H 0.7878 1.0688 0.1475
C26 C 0.9167(3) 0.9313(2) 0.14564(12)
H24 H 0.9994 0.9732 0.1359
H25 H 0.9136 0.9208 0.1884
C27 C 0.9185(2) 0.8176(2) 0.11531(11)
H26 H 1.0073 0.8046 0.0972
H27 H 0.9019 0.7576 0.1441
C28 C 0.6749(3) 0.82347(18) 0.09712(10)
H28 H 0.6578 0.7551 0.1202
H29 H 0.6054 0.8286 0.0664
C29 C 0.6667(3) 0.92699(19) 0.13723(10)
H30 H 0.6686 0.9013 0.1787
C30 C 0.5407(3) 0.9916(2) 0.12742(13)
H31 H 0.5222 1.0162 0.0889
C31 C 0.4532(3) 1.0169(3) 0.16829(16)
H32 H 0.4684 0.9937 0.2073
H33 H 0.3750 1.0584 0.1588
H34 H 1.125(4) 0.949(3) 0.0108(16)
N1 N 0.9084(2) 1.0470(2) -0.17921(12)
N2 N 0.8111(2) 0.81652(16) 0.06952(8)
O3 O 1.05963(19) 0.95891(15) 0.02505(8)
H35 H 0.815(3) 0.750(2) 0.0482(10)
loop_
_geom_bond_atom_site_label_1
_geom_bond_atom_site_label_2
_geom_bond_site_symmetry_1
_geom_bond_site_symmetry_2
Br1 C11 1_555 1_555
C1 H1 1_555 1_555
H2 C1 1_555 1_555
H3 C1 1_555 1_555
C2 C1 1_555 1_555
C3 C2 1_555 1_555
H4 C3 1_555 1_555
C4 C3 1_555 1_555
H5 C4 1_555 1_555
C5 C4 1_555 1_555
C6 C5 1_555 1_555
H6 C6 1_555 1_555
C7 C2 1_555 1_555
H7 C7 1_555 1_555
C8 C5 1_555 1_555
C9 C8 1_555 1_555
H8 C9 1_555 1_555
H9 C9 1_555 1_555
H10 C9 1_555 1_555
C10 C8 1_555 1_555
H11 C10 1_555 1_555
H12 C10 1_555 1_555
C11 C8 1_555 1_555
C12 C11 1_555 1_555
O1 C12 1_555 1_555
O2 C12 1_555 1_555
C13 H13 1_555 1_555
C14 C13 1_555 1_555
H14 C14 1_555 1_555
C15 C14 1_555 1_555
C16 C15 1_555 1_555
C17 C16 1_555 1_555
H15 C17 1_555 1_555
C18 C17 1_555 1_555
H16 C18 1_555 1_555
C19 C18 1_555 1_555
H17 C19 1_555 1_555
C20 C19 1_555 1_555
H18 C20 1_555 1_555
C21 C16 1_555 1_555
C22 C15 1_555 1_555
H19 C22 1_555 1_555
C23 C22 1_555 1_555
H20 C23 1_555 1_555
C24 C23 1_555 1_555
H21 C24 1_555 1_555
H22 C24 1_555 1_555
C25 C24 1_555 1_555
H23 C25 1_555 1_555
C26 C25 1_555 1_555
H24 C26 1_555 1_555
H25 C26 1_555 1_555
C27 C26 1_555 1_555
H26 C27 1_555 1_555
H27 C27 1_555 1_555
C28 H28 1_555 1_555
H29 C28 1_555 1_555
C29 C25 1_555 1_555
H30 C29 1_555 1_555
C30 C29 1_555 1_555
H31 C30 1_555 1_555
C31 C30 1_555 1_555
H32 C31 1_555 1_555
H33 C31 1_555 1_555
H34 O3 1_555 1_555
N1 C13 1_555 1_555
N2 C23 1_555 1_555
O3 C22 1_555 1_555
H35 N2 1_555 1_555
C6 C7 1_555 1_555
C10 C11 1_555 1_555
C20 C21 1_555 1_555
C21 N1 1_555 1_555
C27 N2 1_555 1_555
C28 C29 1_555 1_555
C28 N2 1_555 1_555

#END
