
#######################################################################
#
#                 Cambridge Crystallographic Data Centre
#                                CCDC 
#
#######################################################################
#
# If this CIF has been generated from an entry in the Cambridge 
# Structural Database, then it will include bibliographic, chemical, 
# crystal, experimental, refinement or atomic coordinate data resulting 
# from the CCDC's data processing and validation procedures.
#
#######################################################################

data_GIZTAM
_chemical_formula_moiety         'C19 H17 Br1 O2'
_chemical_name_systematic        
'2-Methyl-3-vinyl-2,3-dihydro-1H-inden-1-yl 4-bromobenzoate'
_symmetry_cell_setting           triclinic
_symmetry_space_group_name_H-M   'P -1'
_symmetry_Int_Tables_number      2
_space_group_name_Hall           '-P 1'
loop_
_symmetry_equiv_pos_site_id
_symmetry_equiv_pos_as_xyz
1 x,y,z
2 -x,-y,-z
_cell_length_a                   8.684(3)
_cell_length_b                   9.003(3)
_cell_length_c                   10.901(4)
_cell_angle_alpha                88.522(6)
_cell_angle_beta                 81.148(7)
_cell_angle_gamma                76.868(5)
_cell_volume                     820.052
_exptl_crystal_colour            colorless
_exptl_crystal_description       prismatic
_cell_formula_units_Z            2
loop_
_atom_site_label
_atom_site_type_symbol
_atom_site_fract_x
_atom_site_fract_y
_atom_site_fract_z
Br1 Br 0.07509(5) 1.37257(5) 1.20966(4)
O1 O 0.1949(3) 0.8977(3) 0.7083(2)
O2 O 0.3730(3) 0.7648(3) 0.8214(2)
C1 C 0.4208(4) 0.6473(4) 0.7276(3)
H1 H 0.3278 0.6372 0.6905
C2 C 0.4947(4) 0.4958(4) 0.7827(3)
H2 H 0.5665 0.5158 0.8383
C3 C 0.5991(4) 0.4067(4) 0.6697(3)
H3 H 0.5303 0.3628 0.6247
C4 C 0.6524(4) 0.5325(4) 0.5920(3)
C5 C 0.5524(4) 0.6720(4) 0.6268(3)
C6 C 0.5812(4) 0.8058(4) 0.5719(3)
H4 H 0.5137 0.8997 0.5955
C7 C 0.7135(4) 0.7953(4) 0.4807(3)
H5 H 0.7361 0.8836 0.4435
C8 C 0.8110(4) 0.6572(5) 0.4448(3)
H6 H 0.8978 0.6528 0.3823
C9 C 0.7831(4) 0.5232(4) 0.4999(3)
H7 H 0.8506 0.4294 0.4755
C10 C 0.3757(5) 0.4154(5) 0.8578(4)
H8 H 0.3190 0.4781 0.9276
H9 H 0.4318 0.3197 0.8866
H10 H 0.3011 0.3976 0.8065
C11 C 0.7333(4) 0.2814(4) 0.6986(3)
H11 H 0.7835 0.2973 0.7650
C12 C 0.7857(6) 0.1536(5) 0.6399(5)
H12 H 0.7391 0.1328 0.5729
H13 H 0.8703 0.0818 0.6644
C13 C 0.2572(4) 0.8859(4) 0.7996(3)
C14 C 0.2179(4) 1.0008(4) 0.9013(3)
C15 C 0.0965(4) 1.1284(4) 0.8927(3)
H14 H 0.0438 1.1396 0.8238
C16 C 0.0525(4) 1.2381(4) 0.9832(3)
H15 H -0.0302 1.3227 0.9768
C17 C 0.1321(4) 1.2222(4) 1.0842(3)
C18 C 0.2529(5) 1.0961(5) 1.0955(3)
H16 H 0.3056 1.0854 1.1644
C19 C 0.2946(4) 0.9858(5) 1.0032(3)
H17 H 0.3758 0.9001 1.0103
loop_
_geom_bond_atom_site_label_1
_geom_bond_atom_site_label_2
_geom_bond_site_symmetry_1
_geom_bond_site_symmetry_2
Br1 C17 1_555 1_555
O1 C13 1_555 1_555
O2 C1 1_555 1_555
C1 H1 1_555 1_555
C2 C1 1_555 1_555
H2 C2 1_555 1_555
C3 C2 1_555 1_555
H3 C3 1_555 1_555
C4 C3 1_555 1_555
C5 C1 1_555 1_555
C6 C5 1_555 1_555
H4 C6 1_555 1_555
C7 C6 1_555 1_555
H5 C7 1_555 1_555
C8 C7 1_555 1_555
H6 C8 1_555 1_555
C9 C4 1_555 1_555
H7 C9 1_555 1_555
C10 C2 1_555 1_555
H8 C10 1_555 1_555
H9 C10 1_555 1_555
H10 C10 1_555 1_555
C11 C3 1_555 1_555
H11 C11 1_555 1_555
C12 C11 1_555 1_555
H12 C12 1_555 1_555
H13 C12 1_555 1_555
C13 O2 1_555 1_555
C14 C13 1_555 1_555
C15 C14 1_555 1_555
H14 C15 1_555 1_555
C16 C15 1_555 1_555
H15 C16 1_555 1_555
C17 C16 1_555 1_555
C18 C17 1_555 1_555
H16 C18 1_555 1_555
C19 C14 1_555 1_555
H17 C19 1_555 1_555
C4 C5 1_555 1_555
C8 C9 1_555 1_555
C18 C19 1_555 1_555

#END
