
#######################################################################
#
#                 Cambridge Crystallographic Data Centre
#                                CCDC 
#
#######################################################################
#
# If this CIF has been generated from an entry in the Cambridge 
# Structural Database, then it will include bibliographic, chemical, 
# crystal, experimental, refinement or atomic coordinate data resulting 
# from the CCDC's data processing and validation procedures.
#
#######################################################################

data_GIZVIW
_chemical_formula_moiety         'C35 H49 Li1 N2 O2'
_chemical_name_systematic        
(1,2-Dimethoxyethane-O,O')-(N,N'-bis(2,6-di-isopropylphenyl)benzamidinato-N,N')-lithium
_symmetry_cell_setting           monoclinic
_symmetry_space_group_name_H-M   'C 2/c'
_symmetry_Int_Tables_number      15
_space_group_name_Hall           '-C 2yn'
loop_
_symmetry_equiv_pos_site_id
_symmetry_equiv_pos_as_xyz
1 x,y,z
2 -x,y,1/2-z
3 1/2+x,1/2+y,z
4 1/2-x,1/2+y,1/2-z
5 -x,-y,-z
6 x,-y,1/2+z
7 1/2-x,1/2-y,-z
8 1/2+x,1/2-y,1/2+z
_cell_length_a                   17.701(9)
_cell_length_b                   13.379(7)
_cell_length_c                   15.409(8)
_cell_angle_alpha                90
_cell_angle_beta                 103.322(8)
_cell_angle_gamma                90
_cell_volume                     3550.99
_exptl_crystal_colour            colorless
_exptl_crystal_description       block
_cell_formula_units_Z            4
loop_
_atom_site_label
_atom_site_type_symbol
_atom_site_fract_x
_atom_site_fract_y
_atom_site_fract_z
Li1 Li 0.0000 0.5679(6) 0.2500
O1 O -0.0587(4) 0.4558(3) 0.1854(4)
N1 N 0.02562(15) 0.69014(18) 0.18991(18)
C1 C 0.0000 0.7433(3) 0.2500
C2 C 0.0000 0.8553(3) 0.2500
C3 C 0.0663(2) 0.9090(3) 0.2464(2)
H1 H 0.1116 0.8751 0.2438
C4 C 0.0656(3) 1.0124(3) 0.2465(3)
H2 H 0.1106 1.0472 0.2442
C5 C 0.0000 1.0638(4) 0.2500
H3 H 0.0000 1.1333 0.2500
C6 C 0.0524(2) 0.7356(2) 0.1199(2)
C7 C 0.1311(2) 0.7279(3) 0.1201(3)
C8 C 0.1591(3) 0.7723(4) 0.0528(3)
H4 H 0.2116 0.7671 0.0535
C9 C 0.1110(3) 0.8237(4) -0.0147(3)
H5 H 0.1308 0.8551 -0.0586
C10 C 0.0336(3) 0.8284(3) -0.0170(3)
H6 H 0.0009 0.8621 -0.0637
C11 C 0.0019(2) 0.7844(2) 0.0483(2)
C12 C 0.1856(3) 0.6718(4) 0.1935(4)
H7 H 0.1599 0.6671 0.2433
C13 C 0.2623(3) 0.7220(4) 0.2290(5)
H8 H 0.2537 0.7882 0.2488
H9 H 0.2904 0.7258 0.1827
H10 H 0.2918 0.6841 0.2782
C14 C 0.1971(3) 0.5666(4) 0.1649(4)
H11 H 0.1476 0.5345 0.1457
H12 H 0.2281 0.5303 0.2143
H13 H 0.2231 0.5677 0.1167
C15 C -0.0841(2) 0.7856(3) 0.0391(3)
H14 H -0.0938 0.7663 0.0969
C16 C -0.1220(3) 0.8888(4) 0.0145(3)
H15 H -0.0992 0.9367 0.0592
H16 H -0.1768 0.8842 0.0112
H17 H -0.1138 0.9095 -0.0422
C17 C -0.1226(3) 0.7064(4) -0.0295(3)
H18 H -0.0997 0.6423 -0.0123
H19 H -0.1148 0.7239 -0.0873
H20 H -0.1772 0.7038 -0.0318
C18 C -0.0292(5) 0.3678(5) 0.2109(5)
H21 H -0.0082 0.3397 0.1633
H22 H -0.0707 0.3242 0.2193
C19 C -0.1164(8) 0.4624(7) 0.1079(7)
H23 H -0.1360 0.3967 0.0902
H24 H -0.0955 0.4913 0.0615
H25 H -0.1579 0.5036 0.1183
O1A O 0.0587(4) 0.4558(3) 0.3146(4)
C18A C 0.0292(5) 0.3678(5) 0.2891(5)
H21A H 0.0082 0.3397 0.3367
H22A H 0.0707 0.3242 0.2807
C19A C 0.1164(8) 0.4624(7) 0.3921(7)
H23A H 0.1360 0.3967 0.4098
H24A H 0.0955 0.4913 0.4385
H25A H 0.1579 0.5036 0.3817
N1A N -0.02562(15) 0.69014(18) 0.31009(18)
C3A C -0.0663(2) 0.9090(3) 0.2536(2)
H1A H -0.1116 0.8751 0.2562
C4A C -0.0656(3) 1.0124(3) 0.2535(3)
H2A H -0.1106 1.0472 0.2558
C6A C -0.0524(2) 0.7356(2) 0.3801(2)
C7A C -0.1311(2) 0.7279(3) 0.3799(3)
C8A C -0.1591(3) 0.7723(4) 0.4472(3)
H4A H -0.2116 0.7671 0.4465
C9A C -0.1110(3) 0.8237(4) 0.5147(3)
H5A H -0.1308 0.8551 0.5586
C10A C -0.0336(3) 0.8284(3) 0.5170(3)
H6A H -0.0009 0.8621 0.5637
C11A C -0.0019(2) 0.7844(2) 0.4517(2)
C12A C -0.1856(3) 0.6718(4) 0.3065(4)
H7A H -0.1599 0.6671 0.2567
C13A C -0.2623(3) 0.7220(4) 0.2710(5)
H8A H -0.2537 0.7882 0.2512
H9A H -0.2904 0.7258 0.3173
H10A H -0.2918 0.6841 0.2218
C14A C -0.1971(3) 0.5666(4) 0.3351(4)
H11A H -0.1476 0.5345 0.3543
H12A H -0.2281 0.5303 0.2857
H13A H -0.2231 0.5677 0.3833
C15A C 0.0841(2) 0.7856(3) 0.4609(3)
H14A H 0.0938 0.7663 0.4031
C16A C 0.1220(3) 0.8888(4) 0.4855(3)
H15A H 0.0992 0.9367 0.4408
H16A H 0.1768 0.8842 0.4888
H17A H 0.1138 0.9095 0.5422
C17A C 0.1226(3) 0.7064(4) 0.5295(3)
H18A H 0.0997 0.6423 0.5123
H19A H 0.1148 0.7239 0.5873
H20A H 0.1772 0.7038 0.5318
loop_
_geom_bond_atom_site_label_1
_geom_bond_atom_site_label_2
_geom_bond_site_symmetry_1
_geom_bond_site_symmetry_2
Li1 O1 1_555 1_555
O1 C18 1_555 1_555
N1 Li1 1_555 1_555
C1 N1 1_555 1_555
C2 C1 1_555 1_555
C3 C2 1_555 1_555
H1 C3 1_555 1_555
C4 C3 1_555 1_555
H2 C4 1_555 1_555
C5 C4 1_555 1_555
H3 C5 1_555 1_555
C6 N1 1_555 1_555
C7 C6 1_555 1_555
C8 C7 1_555 1_555
H4 C8 1_555 1_555
C9 C8 1_555 1_555
H5 C9 1_555 1_555
C10 C9 1_555 1_555
H6 C10 1_555 1_555
C11 C6 1_555 1_555
C12 C7 1_555 1_555
H7 C12 1_555 1_555
C13 C12 1_555 1_555
H8 C13 1_555 1_555
H9 C13 1_555 1_555
H10 C13 1_555 1_555
C14 C12 1_555 1_555
H11 C14 1_555 1_555
H12 C14 1_555 1_555
H13 C14 1_555 1_555
C15 C11 1_555 1_555
H14 C15 1_555 1_555
C16 C15 1_555 1_555
H15 C16 1_555 1_555
H16 C16 1_555 1_555
H17 C16 1_555 1_555
C17 C15 1_555 1_555
H18 C17 1_555 1_555
H19 C17 1_555 1_555
H20 C17 1_555 1_555
C18 H21 1_555 1_555
H22 C18 1_555 1_555
C19 O1 1_555 1_555
H23 C19 1_555 1_555
H24 C19 1_555 1_555
H25 C19 1_555 1_555
O1A Li1 1_555 1_555
C18A C18 1_555 1_555
H21A C18A 1_555 1_555
H22A C18A 1_555 1_555
C19A O1A 1_555 1_555
H23A C19A 1_555 1_555
H24A C19A 1_555 1_555
H25A C19A 1_555 1_555
N1A Li1 1_555 1_555
C3A C2 1_555 1_555
H1A C3A 1_555 1_555
C4A C5 1_555 1_555
H2A C4A 1_555 1_555
C6A N1A 1_555 1_555
C7A C6A 1_555 1_555
C8A C7A 1_555 1_555
H4A C8A 1_555 1_555
C9A C8A 1_555 1_555
H5A C9A 1_555 1_555
C10A C9A 1_555 1_555
H6A C10A 1_555 1_555
C11A C6A 1_555 1_555
C12A C7A 1_555 1_555
H7A C12A 1_555 1_555
C13A C12A 1_555 1_555
H8A C13A 1_555 1_555
H9A C13A 1_555 1_555
H10A C13A 1_555 1_555
C14A C12A 1_555 1_555
H11A C14A 1_555 1_555
H12A C14A 1_555 1_555
H13A C14A 1_555 1_555
C15A C11A 1_555 1_555
H14A C15A 1_555 1_555
C16A C15A 1_555 1_555
H15A C16A 1_555 1_555
H16A C16A 1_555 1_555
H17A C16A 1_555 1_555
C17A C15A 1_555 1_555
H18A C17A 1_555 1_555
H19A C17A 1_555 1_555
H20A C17A 1_555 1_555
C1 N1A 1_555 1_555
C10 C11 1_555 1_555
O1A C18A 1_555 1_555
C3A C4A 1_555 1_555
C10A C11A 1_555 1_555

#END
