
#######################################################################
#
#                 Cambridge Crystallographic Data Centre
#                                CCDC 
#
#######################################################################
#
# If this CIF has been generated from an entry in the Cambridge 
# Structural Database, then it will include bibliographic, chemical, 
# crystal, experimental, refinement or atomic coordinate data resulting 
# from the CCDC's data processing and validation procedures.
#
#######################################################################

data_GIZVOC
_chemical_formula_moiety         'C39 H57 Li1 N2 O3'
_chemical_name_systematic        
(N,N'-bis(2,6-Di-isopropylphenyl)benzenecarboximidamidato)-(1,2-bis(methoxy)ethane)-tetrahydrofuran-lithium
_symmetry_cell_setting           monoclinic
_symmetry_space_group_name_H-M   'P 21/n'
_symmetry_Int_Tables_number      14
_space_group_name_Hall           '-P 2yn'
loop_
_symmetry_equiv_pos_site_id
_symmetry_equiv_pos_as_xyz
1 x,y,z
2 1/2-x,1/2+y,1/2-z
3 -x,-y,-z
4 1/2+x,1/2-y,1/2+z
_cell_length_a                   12.594(5)
_cell_length_b                   18.648(7)
_cell_length_c                   16.290(6)
_cell_angle_alpha                90
_cell_angle_beta                 98.639(6)
_cell_angle_gamma                90
_cell_volume                     3782.35
_exptl_crystal_colour            colorless
_exptl_crystal_description       needle
_cell_formula_units_Z            4
loop_
_atom_site_label
_atom_site_type_symbol
_atom_site_fract_x
_atom_site_fract_y
_atom_site_fract_z
N1 N 0.95851(17) 0.24276(10) 0.66349(12)
N2 N 0.77898(18) 0.27555(10) 0.62249(12)
C1 C 0.9643(2) 0.21015(13) 0.58585(15)
C2 C 0.8701(2) 0.27724(13) 0.67483(14)
C3 C 0.6867(2) 0.31440(14) 0.63366(15)
C4 C 0.9284(2) 0.13960(13) 0.56730(16)
O1 O 1.18586(19) 0.14207(12) 0.71793(14)
O2 O 1.0521(2) 0.18018(13) 0.86288(13)
C5 C 0.8811(2) 0.32116(13) 0.75372(15)
C6 C 0.5950(2) 0.27589(15) 0.65029(16)
C7 C 0.6757(2) 0.38895(14) 0.61882(16)
C8 C 0.9525(2) 0.10700(14) 0.49550(18)
H1 H 0.9307 0.0599 0.4844
C9 C 1.0379(3) 0.21092(17) 0.45721(17)
H2 H 1.0743 0.2351 0.4199
C10 C 0.7664(3) 0.43269(14) 0.59419(18)
H3 H 0.8288 0.4010 0.5963
C11 C 1.0070(3) 0.14161(18) 0.44059(19)
H4 H 1.0226 0.1185 0.3932
C12 C 1.0169(2) 0.24667(14) 0.52793(16)
C13 C 0.9669(3) 0.36663(14) 0.77197(17)
H5 H 1.0175 0.3692 0.7360
C14 C 0.8066(2) 0.32007(15) 0.80803(17)
H6 H 0.7463 0.2909 0.7965
C15 C 0.5013(3) 0.3116(2) 0.6548(2)
H7 H 0.4423 0.2858 0.6669
O3 O 1.1857(2) 0.27802(13) 0.82112(17)
C16 C 0.8694(2) 0.09789(14) 0.62606(18)
H8 H 0.8443 0.1323 0.6644
C17 C 0.5789(3) 0.42150(17) 0.6243(2)
H9 H 0.5723 0.4707 0.6155
C18 C 0.9801(3) 0.40901(15) 0.8432(2)
H10 H 1.0394 0.4391 0.8545
C19 C 0.8205(3) 0.36197(19) 0.87968(19)
H11 H 0.7708 0.3595 0.9164
C20 C 0.6005(3) 0.19563(15) 0.6629(2)
H12 H 0.6718 0.1800 0.6530
C21 C 1.0548(3) 0.32303(16) 0.5436(2)
H13 H 1.0319 0.3389 0.5955
C22 C 0.9066(3) 0.40642(18) 0.8959(2)
H14 H 0.9151 0.4350 0.9432
C23 C 0.4915(3) 0.3835(2) 0.6423(2)
H15 H 0.4270 0.4066 0.6459
C24 C 0.7710(3) 0.05928(18) 0.5805(2)
H16 H 0.7248 0.0933 0.5486
H17 H 0.7329 0.0365 0.6202
H18 H 0.7935 0.0237 0.5441
C25 C 0.7990(3) 0.49518(16) 0.6526(2)
H19 H 0.8180 0.4775 0.7082
H20 H 0.7400 0.5281 0.6506
H21 H 0.8595 0.5194 0.6359
C26 C 1.0923(5) 0.2318(2) 0.9232(2)
H22 H 1.0998 0.2107 0.9782
H23 H 1.0427 0.2718 0.9213
C27 C 0.7383(3) 0.45978(18) 0.5045(2)
H24 H 0.7191 0.4198 0.4680
H25 H 0.7993 0.4839 0.4884
H26 H 0.6789 0.4925 0.5008
Li1 Li 1.0799(4) 0.2145(3) 0.7511(3)
C28 C 0.9416(3) 0.04464(17) 0.6773(2)
H27 H 1.0030 0.0692 0.7064
H28 H 0.9649 0.0090 0.6414
H29 H 0.9028 0.0220 0.7166
C29 C 1.1961(4) 0.2567(3) 0.9061(3)
H30 H 1.2201 0.2970 0.9418
H31 H 1.2487 0.2186 0.9169
C30 C 0.5194(4) 0.15585(19) 0.6028(2)
H32 H 0.5286 0.1679 0.5470
H33 H 0.4483 0.1690 0.6118
H34 H 0.5292 0.1052 0.6112
C31 C 1.2764(4) 0.3118(3) 0.7984(4)
H35 H 1.3121 0.3388 0.8447
H36 H 1.2546 0.3435 0.7526
H37 H 1.3245 0.2762 0.7825
C32 C 1.0048(3) 0.37310(18) 0.4754(2)
H38 H 0.9279 0.3708 0.4708
H39 H 1.0262 0.3590 0.4237
H40 H 1.0283 0.4213 0.4885
C33 C 1.2453(4) 0.0975(3) 0.7777(2)
H41 H 1.1997 0.0806 0.8167
H42 H 1.3043 0.1244 0.8084
C34 C 1.2604(4) 0.0498(2) 0.6503(3)
H43 H 1.2089 0.0144 0.6255
H44 H 1.3244 0.0464 0.6241
C35 C 1.2137(3) 0.1232(2) 0.6402(2)
H45 H 1.2659 0.1567 0.6242
H46 H 1.1507 0.1234 0.5978
C36 C 0.9560(4) 0.1481(2) 0.8810(3)
H47 H 0.9640 0.1364 0.9390
H48 H 0.9417 0.1051 0.8486
H49 H 0.8974 0.1810 0.8675
C37 C 0.5878(4) 0.1726(2) 0.7506(2)
H50 H 0.6400 0.1970 0.7899
H51 H 0.5985 0.1217 0.7562
H52 H 0.5169 0.1845 0.7611
C38 C 1.2859(5) 0.0382(3) 0.7373(3)
H53 H 1.3631 0.0346 0.7533
H54 H 1.2534 -0.0060 0.7527
C39 C 1.1752(4) 0.3296(2) 0.5538(4)
H55 H 1.2069 0.2983 0.5975
H56 H 1.1956 0.3782 0.5676
H57 H 1.1997 0.3165 0.5029
loop_
_geom_bond_atom_site_label_1
_geom_bond_atom_site_label_2
_geom_bond_site_symmetry_1
_geom_bond_site_symmetry_2
N1 C1 1_555 1_555
N2 C2 1_555 1_555
C1 C4 1_555 1_555
C2 N1 1_555 1_555
C3 N2 1_555 1_555
C4 C8 1_555 1_555
O1 Li1 1_555 1_555
O2 C26 1_555 1_555
C5 C2 1_555 1_555
C6 C3 1_555 1_555
C7 C3 1_555 1_555
C8 H1 1_555 1_555
C9 H2 1_555 1_555
C10 C7 1_555 1_555
H3 C10 1_555 1_555
C11 C8 1_555 1_555
H4 C11 1_555 1_555
C12 C1 1_555 1_555
C13 C5 1_555 1_555
H5 C13 1_555 1_555
C14 C5 1_555 1_555
H6 C14 1_555 1_555
C15 C6 1_555 1_555
H7 C15 1_555 1_555
O3 Li1 1_555 1_555
C16 C4 1_555 1_555
H8 C16 1_555 1_555
C17 C7 1_555 1_555
H9 C17 1_555 1_555
C18 C13 1_555 1_555
H10 C18 1_555 1_555
C19 C14 1_555 1_555
H11 C19 1_555 1_555
C20 C6 1_555 1_555
H12 C20 1_555 1_555
C21 C12 1_555 1_555
H13 C21 1_555 1_555
C22 C18 1_555 1_555
H14 C22 1_555 1_555
C23 C15 1_555 1_555
H15 C23 1_555 1_555
C24 C16 1_555 1_555
H16 C24 1_555 1_555
H17 C24 1_555 1_555
H18 C24 1_555 1_555
C25 C10 1_555 1_555
H19 C25 1_555 1_555
H20 C25 1_555 1_555
H21 C25 1_555 1_555
C26 H22 1_555 1_555
H23 C26 1_555 1_555
C27 C10 1_555 1_555
H24 C27 1_555 1_555
H25 C27 1_555 1_555
H26 C27 1_555 1_555
Li1 N1 1_555 1_555
C28 C16 1_555 1_555
H27 C28 1_555 1_555
H28 C28 1_555 1_555
H29 C28 1_555 1_555
C29 O3 1_555 1_555
H30 C29 1_555 1_555
H31 C29 1_555 1_555
C30 C20 1_555 1_555
H32 C30 1_555 1_555
H33 C30 1_555 1_555
H34 C30 1_555 1_555
C31 O3 1_555 1_555
H35 C31 1_555 1_555
H36 C31 1_555 1_555
H37 C31 1_555 1_555
C32 C21 1_555 1_555
H38 C32 1_555 1_555
H39 C32 1_555 1_555
H40 C32 1_555 1_555
C33 O1 1_555 1_555
H41 C33 1_555 1_555
H42 C33 1_555 1_555
C34 H43 1_555 1_555
H44 C34 1_555 1_555
C35 O1 1_555 1_555
H45 C35 1_555 1_555
H46 C35 1_555 1_555
C36 O2 1_555 1_555
H47 C36 1_555 1_555
H48 C36 1_555 1_555
H49 C36 1_555 1_555
C37 C20 1_555 1_555
H50 C37 1_555 1_555
H51 C37 1_555 1_555
H52 C37 1_555 1_555
C38 C33 1_555 1_555
H53 C38 1_555 1_555
H54 C38 1_555 1_555
C39 C21 1_555 1_555
H55 C39 1_555 1_555
H56 C39 1_555 1_555
H57 C39 1_555 1_555
O2 Li1 1_555 1_555
C9 C11 1_555 1_555
C9 C12 1_555 1_555
C17 C23 1_555 1_555
C19 C22 1_555 1_555
C26 C29 1_555 1_555
C34 C35 1_555 1_555
C34 C38 1_555 1_555

#END
