
#######################################################################
#
#                 Cambridge Crystallographic Data Centre
#                                CCDC 
#
#######################################################################
#
# If this CIF has been generated from an entry in the Cambridge 
# Structural Database, then it will include bibliographic, chemical, 
# crystal, experimental, refinement or atomic coordinate data resulting 
# from the CCDC's data processing and validation procedures.
#
#######################################################################

data_GIZVUI
_chemical_formula_moiety         'C66 H86 Li2 N4 O1'
_chemical_name_systematic        
(\m~2~-\h^2^-N,N'-bis(2,6-Di-isopropylphenyl)benzamidinato)-(N,N'-bis(2,6-di-isopropylphenyl)benzamidinato)-tetrahydrofuran-di-lithium
_symmetry_cell_setting           monoclinic
_symmetry_space_group_name_H-M   'P 21/c'
_symmetry_Int_Tables_number      14
_space_group_name_Hall           '-P 2ybc'
loop_
_symmetry_equiv_pos_site_id
_symmetry_equiv_pos_as_xyz
1 x,y,z
2 -x,1/2+y,1/2-z
3 -x,-y,-z
4 x,1/2-y,1/2+z
_cell_length_a                   13.507(5)
_cell_length_b                   22.736(9)
_cell_length_c                   21.868(8)
_cell_angle_alpha                90
_cell_angle_beta                 103.597(6)
_cell_angle_gamma                90
_cell_volume                     6527.34
_exptl_crystal_colour            'pale yellow'
_exptl_crystal_description       sheet
_cell_formula_units_Z            4
loop_
_atom_site_label
_atom_site_type_symbol
_atom_site_fract_x
_atom_site_fract_y
_atom_site_fract_z
Li1 Li 0.1371(4) 0.7128(2) 0.2835(2)
Li2 Li 0.4914(4) 0.7888(3) 0.3749(3)
N1 N 0.07713(19) 0.63180(13) 0.26888(13)
N2 N 0.02407(18) 0.70817(13) 0.20235(12)
N3 N 0.27434(17) 0.74248(11) 0.32886(10)
N4 N 0.36229(18) 0.82972(11) 0.36191(11)
O1 O 0.61894(19) 0.81697(14) 0.41312(13)
C1 C 0.0273(2) 0.65026(17) 0.21269(18)
C2 C -0.0171(2) 0.60847(15) 0.15877(17)
C3 C -0.0816(2) 0.56256(16) 0.16401(17)
H1 H -0.1036 0.5577 0.2009
C4 C -0.1137(3) 0.52353(17) 0.1144(2)
H2 H -0.1569 0.4926 0.1183
C5 C -0.0823(3) 0.53020(18) 0.0601(2)
H3 H -0.1040 0.5040 0.0270
C6 C -0.0190(3) 0.57545(19) 0.05458(17)
H4 H 0.0030 0.5796 0.0176
C7 C 0.0134(2) 0.61535(16) 0.10286(18)
H5 H 0.0553 0.6466 0.0979
C8 C 0.0859(3) 0.57228(19) 0.28802(17)
C9 C 0.1554(3) 0.53352(19) 0.27231(18)
C10 C 0.1673(4) 0.4777(2) 0.2989(2)
H6 H 0.2152 0.4524 0.2889
C11 C 0.1116(5) 0.4591(3) 0.3388(3)
H7 H 0.1196 0.4213 0.3555
C12 C 0.0425(5) 0.4975(3) 0.3543(2)
H8 H 0.0044 0.4848 0.3821
C13 C 0.0268(4) 0.5545(2) 0.3304(2)
C14 C 0.2230(3) 0.55091(16) 0.22957(19)
H9 H 0.2005 0.5899 0.2128
C15 C 0.2139(3) 0.50926(17) 0.17193(18)
H10 H 0.1439 0.5065 0.1495
H11 H 0.2387 0.4709 0.1863
H12 H 0.2537 0.5247 0.1445
C16 C 0.3352(3) 0.55719(16) 0.26590(18)
H13 H 0.3392 0.5833 0.3009
H14 H 0.3745 0.5729 0.2384
H15 H 0.3615 0.5193 0.2810
C17 C -0.0491(4) 0.5967(2) 0.3493(2)
H16 H -0.0573 0.6298 0.3197
C18 C -0.1539(4) 0.5703(3) 0.3424(3)
H17 H -0.1988 0.5992 0.3532
H18 H -0.1496 0.5370 0.3699
H19 H -0.1799 0.5579 0.2996
C19 C -0.0095(4) 0.6217(3) 0.4123(3)
H20 H -0.0577 0.6495 0.4214
H21 H 0.0540 0.6413 0.4137
H22 H 0.0010 0.5908 0.4430
C20 C -0.0488(3) 0.73684(16) 0.15500(18)
C21 C -0.1549(3) 0.73300(18) 0.1545(2)
C22 C -0.2218(4) 0.7668(2) 0.1110(3)
H23 H -0.2912 0.7640 0.1092
C23 C -0.1903(5) 0.8042(2) 0.0706(3)
H24 H -0.2373 0.8278 0.0435
C24 C -0.0888(4) 0.80693(18) 0.0701(2)
H25 H -0.0674 0.8311 0.0414
C25 C -0.0186(3) 0.77380(17) 0.11220(19)
C26 C -0.1931(3) 0.69787(19) 0.2033(2)
H26 H -0.1387 0.6707 0.2233
C27 C -0.2872(3) 0.6610(2) 0.1749(2)
H27 H -0.2722 0.6349 0.1438
H28 H -0.3424 0.6865 0.1556
H29 H -0.3063 0.6385 0.2074
C28 C -0.2137(3) 0.7388(2) 0.2548(2)
H30 H -0.1530 0.7604 0.2732
H31 H -0.2337 0.7158 0.2867
H32 H -0.2674 0.7657 0.2367
C29 C 0.0915(3) 0.77976(18) 0.11136(18)
H33 H 0.1284 0.7485 0.1382
C30 C 0.1104(3) 0.77084(19) 0.04560(19)
H34 H 0.0827 0.7336 0.0291
H35 H 0.1823 0.7714 0.0481
H36 H 0.0779 0.8018 0.0183
C31 C 0.1366(3) 0.8379(2) 0.1388(2)
H37 H 0.1245 0.8429 0.1801
H38 H 0.1051 0.8695 0.1122
H39 H 0.2086 0.8380 0.1416
C32 C 0.2769(2) 0.79904(14) 0.34482(13)
C33 C 0.1742(2) 0.82412(14) 0.34202(14)
C34 C 0.1093(3) 0.79497(16) 0.37178(15)
H40 H 0.1314 0.7607 0.3941
C35 C 0.0125(3) 0.8154(2) 0.36924(19)
H41 H -0.0298 0.7953 0.3901
C36 C -0.0211(3) 0.8651(2) 0.3362(2)
H42 H -0.0867 0.8788 0.3339
C37 C 0.0413(3) 0.89473(18) 0.3065(2)
H43 H 0.0180 0.9290 0.2845
C38 C 0.1394(3) 0.87485(15) 0.30843(16)
H44 H 0.1811 0.8953 0.2875
C39 C 0.3719(2) 0.71523(13) 0.33824(15)
C40 C 0.4265(3) 0.71526(14) 0.29087(16)
C41 C 0.5214(3) 0.68675(17) 0.3025(2)
H45 H 0.5586 0.6869 0.2717
C42 C 0.5599(3) 0.65886(18) 0.3581(2)
H46 H 0.6224 0.6397 0.3646
C43 C 0.5068(3) 0.65887(15) 0.40443(19)
H47 H 0.5343 0.6396 0.4421
C44 C 0.4136(2) 0.68661(14) 0.39671(16)
C45 C 0.3811(2) 0.74369(16) 0.22820(16)
H48 H 0.3333 0.7741 0.2348
C46 C 0.3214(3) 0.69819(17) 0.18290(16)
H49 H 0.2714 0.6800 0.2015
H50 H 0.3672 0.6687 0.1743
H51 H 0.2880 0.7172 0.1443
C47 C 0.4602(3) 0.77279(18) 0.19758(17)
H52 H 0.4979 0.8017 0.2257
H53 H 0.4261 0.7914 0.1590
H54 H 0.5061 0.7434 0.1889
C48 C 0.3556(3) 0.68386(16) 0.44728(16)
H55 H 0.3148 0.7199 0.4439
C49 C 0.2811(3) 0.63222(17) 0.43517(18)
H56 H 0.2395 0.6348 0.3931
H57 H 0.2386 0.6335 0.4647
H58 H 0.3185 0.5959 0.4401
C50 C 0.4209(3) 0.68126(18) 0.51438(17)
H59 H 0.4659 0.7145 0.5219
H60 H 0.4602 0.6457 0.5200
H61 H 0.3777 0.6820 0.5435
C51 C 0.3634(2) 0.88998(15) 0.38090(17)
C52 C 0.3880(2) 0.93310(17) 0.3400(2)
C53 C 0.4028(3) 0.99032(19) 0.3614(2)
H62 H 0.4194 1.0187 0.3349
C54 C 0.3939(3) 1.00695(19) 0.4199(3)
H63 H 0.4049 1.0458 0.4331
C55 C 0.3683(3) 0.96512(18) 0.45872(19)
H64 H 0.3608 0.9762 0.4983
C56 C 0.3533(2) 0.90644(16) 0.44050(18)
C57 C 0.3982(3) 0.91775(19) 0.2730(2)
H65 H 0.3738 0.8774 0.2637
C58 C 0.3384(4) 0.9572(2) 0.2220(2)
H66 H 0.2672 0.9547 0.2215
H67 H 0.3487 0.9449 0.1819
H68 H 0.3611 0.9971 0.2300
C59 C 0.5138(4) 0.9190(2) 0.2737(2)
H69 H 0.5500 0.8929 0.3057
H70 H 0.5394 0.9583 0.2823
H71 H 0.5231 0.9067 0.2334
C60 C 0.3286(3) 0.86259(16) 0.48657(16)
H72 H 0.3105 0.8255 0.4638
C61 C 0.4208(3) 0.85027(18) 0.54060(17)
H73 H 0.4776 0.8388 0.5238
H74 H 0.4048 0.8192 0.5664
H75 H 0.4381 0.8852 0.5656
C62 C 0.2370(3) 0.88106(18) 0.51220(19)
H76 H 0.1794 0.8879 0.4778
H77 H 0.2531 0.9165 0.5363
H78 H 0.2212 0.8504 0.5385
C63 C 0.6330(4) 0.8696(3) 0.4460(3)
H79 H 0.6110 0.9019 0.4170
H80 H 0.5915 0.8698 0.4767
C64 C 0.7299(5) 0.8772(3) 0.4751(3)
H81 H 0.7364 0.8775 0.5203
H82 H 0.7533 0.9149 0.4632
C65 C 0.7908(4) 0.8321(3) 0.4596(3)
H83 H 0.8272 0.8114 0.4969
H84 H 0.8395 0.8476 0.4375
C66 C 0.7163(4) 0.7931(2) 0.4184(3)
H85 H 0.7312 0.7904 0.3772
H86 H 0.7197 0.7539 0.4364
loop_
_geom_bond_atom_site_label_1
_geom_bond_atom_site_label_2
_geom_bond_site_symmetry_1
_geom_bond_site_symmetry_2
Li1 N1 1_555 1_555
Li2 N4 1_555 1_555
N1 C1 1_555 1_555
N2 Li1 1_555 1_555
N3 Li1 1_555 1_555
N4 C32 1_555 1_555
O1 Li2 1_555 1_555
C1 N2 1_555 1_555
C2 C1 1_555 1_555
C3 C2 1_555 1_555
H1 C3 1_555 1_555
C4 C3 1_555 1_555
H2 C4 1_555 1_555
C5 C4 1_555 1_555
H3 C5 1_555 1_555
C6 C5 1_555 1_555
H4 C6 1_555 1_555
C7 C2 1_555 1_555
H5 C7 1_555 1_555
C8 N1 1_555 1_555
C9 C8 1_555 1_555
C10 C9 1_555 1_555
H6 C10 1_555 1_555
C11 C10 1_555 1_555
H7 C11 1_555 1_555
C12 C11 1_555 1_555
H8 C12 1_555 1_555
C13 C8 1_555 1_555
C14 C9 1_555 1_555
H9 C14 1_555 1_555
C15 C14 1_555 1_555
H10 C15 1_555 1_555
H11 C15 1_555 1_555
H12 C15 1_555 1_555
C16 C14 1_555 1_555
H13 C16 1_555 1_555
H14 C16 1_555 1_555
H15 C16 1_555 1_555
C17 C13 1_555 1_555
H16 C17 1_555 1_555
C18 C17 1_555 1_555
H17 C18 1_555 1_555
H18 C18 1_555 1_555
H19 C18 1_555 1_555
C19 C17 1_555 1_555
H20 C19 1_555 1_555
H21 C19 1_555 1_555
H22 C19 1_555 1_555
C20 N2 1_555 1_555
C21 C20 1_555 1_555
C22 C21 1_555 1_555
H23 C22 1_555 1_555
C23 C22 1_555 1_555
H24 C23 1_555 1_555
C24 C23 1_555 1_555
H25 C24 1_555 1_555
C25 C20 1_555 1_555
C26 C21 1_555 1_555
H26 C26 1_555 1_555
C27 C26 1_555 1_555
H27 C27 1_555 1_555
H28 C27 1_555 1_555
H29 C27 1_555 1_555
C28 C26 1_555 1_555
H30 C28 1_555 1_555
H31 C28 1_555 1_555
H32 C28 1_555 1_555
C29 C25 1_555 1_555
H33 C29 1_555 1_555
C30 C29 1_555 1_555
H34 C30 1_555 1_555
H35 C30 1_555 1_555
H36 C30 1_555 1_555
C31 C29 1_555 1_555
H37 C31 1_555 1_555
H38 C31 1_555 1_555
H39 C31 1_555 1_555
C32 N3 1_555 1_555
C33 C32 1_555 1_555
C34 C33 1_555 1_555
H40 C34 1_555 1_555
C35 C34 1_555 1_555
H41 C35 1_555 1_555
C36 C35 1_555 1_555
H42 C36 1_555 1_555
C37 C36 1_555 1_555
H43 C37 1_555 1_555
C38 C33 1_555 1_555
H44 C38 1_555 1_555
C39 Li2 1_555 1_555
C40 Li2 1_555 1_555
C41 C40 1_555 1_555
H45 C41 1_555 1_555
C42 C41 1_555 1_555
H46 C42 1_555 1_555
C43 C42 1_555 1_555
H47 C43 1_555 1_555
C44 C39 1_555 1_555
C45 C40 1_555 1_555
H48 C45 1_555 1_555
C46 C45 1_555 1_555
H49 C46 1_555 1_555
H50 C46 1_555 1_555
H51 C46 1_555 1_555
C47 C45 1_555 1_555
H52 C47 1_555 1_555
H53 C47 1_555 1_555
H54 C47 1_555 1_555
C48 C44 1_555 1_555
H55 C48 1_555 1_555
C49 C48 1_555 1_555
H56 C49 1_555 1_555
H57 C49 1_555 1_555
H58 C49 1_555 1_555
C50 C48 1_555 1_555
H59 C50 1_555 1_555
H60 C50 1_555 1_555
H61 C50 1_555 1_555
C51 N4 1_555 1_555
C52 C51 1_555 1_555
C53 C52 1_555 1_555
H62 C53 1_555 1_555
C54 C53 1_555 1_555
H63 C54 1_555 1_555
C55 C54 1_555 1_555
H64 C55 1_555 1_555
C56 C51 1_555 1_555
C57 C52 1_555 1_555
H65 C57 1_555 1_555
C58 C57 1_555 1_555
H66 C58 1_555 1_555
H67 C58 1_555 1_555
H68 C58 1_555 1_555
C59 C57 1_555 1_555
H69 C59 1_555 1_555
H70 C59 1_555 1_555
H71 C59 1_555 1_555
C60 C56 1_555 1_555
H72 C60 1_555 1_555
C61 C60 1_555 1_555
H73 C61 1_555 1_555
H74 C61 1_555 1_555
H75 C61 1_555 1_555
C62 C60 1_555 1_555
H76 C62 1_555 1_555
H77 C62 1_555 1_555
H78 C62 1_555 1_555
C63 O1 1_555 1_555
H79 C63 1_555 1_555
H80 C63 1_555 1_555
C64 C63 1_555 1_555
H81 C64 1_555 1_555
H82 C64 1_555 1_555
C65 C64 1_555 1_555
H83 C65 1_555 1_555
H84 C65 1_555 1_555
C66 O1 1_555 1_555
H85 C66 1_555 1_555
H86 C66 1_555 1_555
N3 C39 1_555 1_555
C6 C7 1_555 1_555
C12 C13 1_555 1_555
C24 C25 1_555 1_555
C37 C38 1_555 1_555
C39 C40 1_555 1_555
C43 C44 1_555 1_555
C55 C56 1_555 1_555
C65 C66 1_555 1_555

#END
