
#######################################################################
#
#                 Cambridge Crystallographic Data Centre
#                                CCDC 
#
#######################################################################
#
# If this CIF has been generated from an entry in the Cambridge 
# Structural Database, then it will include bibliographic, chemical, 
# crystal, experimental, refinement or atomic coordinate data resulting 
# from the CCDC's data processing and validation procedures.
#
#######################################################################

data_GLULAD
_chemical_formula_moiety         'C6 H8 O6'
_chemical_name_systematic        \b-D-Glucurono-1,4-lactone
_symmetry_cell_setting           monoclinic
_symmetry_space_group_name_H-M   'P 21'
_symmetry_Int_Tables_number      4
_space_group_name_Hall           'P 2yb'
loop_
_symmetry_equiv_pos_site_id
_symmetry_equiv_pos_as_xyz
1 x,y,z
2 -x,1/2+y,-z
_cell_length_a                   6.753(6)
_cell_length_b                   7.488(8)
_cell_length_c                   6.608(6)
_cell_angle_alpha                90
_cell_angle_beta                 93.18(3)
_cell_angle_gamma                90
_cell_volume                     333.629
_cell_formula_units_Z            2
loop_
_atom_site_label
_atom_site_type_symbol
_atom_site_fract_x
_atom_site_fract_y
_atom_site_fract_z
C1 C 0.21220 0.08190 0.41430
C2 C 0.00800 0.13750 0.32810
C3 C 0.05870 0.26060 0.15570
C4 C 0.26160 0.19590 0.09280
C5 C 0.39410 0.36100 0.10690
C6 C 0.28020 0.49160 0.23020
H1 H 0.21000 -0.01000 0.51000
H2 H -0.08000 0.20500 0.44000
H3 H -0.04000 0.29300 0.02000
H4 H 0.26000 0.12700 -0.05000
H5 H 0.41000 0.41500 -0.02000
H6 H 0.41000 0.22000 0.60000
H7 H -0.16000 -0.10000 0.32000
H8 H 0.61000 0.24000 0.30000
O1 O 0.28650 0.21980 0.54350
O2 O -0.09810 -0.00700 0.23870
O3 O 0.09000 0.44250 0.23700
O4 O 0.32840 0.06490 0.24230
O5 O 0.58860 0.33100 0.19150
O6 O 0.33910 0.62620 0.31690
loop_
_geom_bond_atom_site_label_1
_geom_bond_atom_site_label_2
_geom_bond_site_symmetry_1
_geom_bond_site_symmetry_2
C1 C2 1_555 1_555
C2 C3 1_555 1_555
C3 C4 1_555 1_555
C4 C5 1_555 1_555
C5 C6 1_555 1_555
C6 O3 1_555 1_555
H1 C1 1_555 1_555
H2 C2 1_555 1_555
H3 C3 1_555 1_555
H4 C4 1_555 1_555
H5 C5 1_555 1_555
H6 O1 1_555 1_555
H7 O2 1_555 1_555
H8 O5 1_555 1_555
O1 C1 1_555 1_555
O2 C2 1_555 1_555
O3 C3 1_555 1_555
O4 C1 1_555 1_555
O5 C5 1_555 1_555
O6 C6 1_555 1_555
C4 O4 1_555 1_555

#END
