
#######################################################################
#
#                 Cambridge Crystallographic Data Centre
#                                CCDC 
#
#######################################################################
#
# If this CIF has been generated from an entry in the Cambridge 
# Structural Database, then it will include bibliographic, chemical, 
# crystal, experimental, refinement or atomic coordinate data resulting 
# from the CCDC's data processing and validation procedures.
#
#######################################################################

data_GOBCOQ01
_chemical_formula_moiety         'C40 H48 F2 S2 Si2'
_chemical_name_systematic        
((2,8-Difluorothieno[2',3':6,7]anthra[2,3-b]thiene-5,11-diyl)diethyne-2,1-diyl)bis(triisopropylsilane)
_symmetry_cell_setting           triclinic
_symmetry_space_group_name_H-M   'P -1'
_symmetry_Int_Tables_number      2
_space_group_name_Hall           '-P 1'
loop_
_symmetry_equiv_pos_site_id
_symmetry_equiv_pos_as_xyz
1 x,y,z
2 -x,-y,-z
_cell_length_a                   7.5855(7)
_cell_length_b                   8.1701(8)
_cell_length_c                   16.2295(12)
_cell_angle_alpha                100.990(7)
_cell_angle_beta                 92.320(7)
_cell_angle_gamma                98.594(8)
_cell_volume                     973.812
_exptl_crystal_colour            'dark red'
_exptl_crystal_description       block
_cell_formula_units_Z            1
loop_
_atom_site_label
_atom_site_type_symbol
_atom_site_fract_x
_atom_site_fract_y
_atom_site_fract_z
C1 C -0.1278(3) -0.3925(3) 1.16078(16)
C2 C -0.1894(4) -0.3426(4) 1.22638(18)
C3 C -0.1746(16) -0.3184(14) 1.4141(7)
H1 H -0.1959 -0.4421 1.3995
C4 C 0.0213(12) -0.2836(16) 1.4244(5)
H2 H 0.0695 -0.3332 1.3735
H3 H 0.0619 -0.3311 1.4700
H4 H 0.0608 -0.1637 1.4364
C5 C -0.2595(17) -0.2883(15) 1.4967(7)
H5 H -0.2630 -0.1699 1.5144
H6 H -0.1906 -0.3258 1.5384
H7 H -0.3789 -0.3500 1.4902
C6 C -0.5356(12) -0.3381(13) 1.3094(6)
H8 H -0.5867 -0.2919 1.3616
C7 C -0.6201(13) -0.2689(16) 1.2387(5)
H9 H -0.5969 -0.1477 1.2519
H10 H -0.7468 -0.3070 1.2331
H11 H -0.5695 -0.3086 1.1868
C8 C -0.5810(13) -0.5240(14) 1.2953(6)
H12 H -0.5164 -0.5739 1.2499
H13 H -0.7071 -0.5572 1.2811
H14 H -0.5490 -0.5616 1.3455
C9 C -0.3105(13) -0.0389(13) 1.3205(6)
H15 H -0.3925 -0.0553 1.2704
C10 C -0.4240(14) 0.0417(14) 1.3866(6)
H16 H -0.5464 -0.0113 1.3744
H17 H -0.4147 0.1600 1.3861
H18 H -0.3826 0.0274 1.4411
C11 C -0.1717(13) 0.0740(13) 1.2994(5)
H19 H -0.0852 0.1131 1.3465
H20 H -0.2184 0.1684 1.2847
H21 H -0.1158 0.0183 1.2523
C12 C -0.0605(3) -0.4477(3) 1.08059(15)
C13 C 0.0440(3) -0.3281(3) 1.04257(16)
C14 C 0.0897(3) -0.1572(3) 1.08387(17)
H22 H 0.0538 -0.1221 1.1376
C15 C 0.1871(4) -0.0433(3) 1.04449(19)
C16 C 0.3267(19) 0.2094(12) 1.0190(12)
C17 C 0.2381(10) 0.146(2) 1.0934(8)
H23 H 0.2208 0.2000 1.1477
C18 C 0.2422(3) -0.0949(3) 0.96171(19)
C19 C 0.2035(3) -0.2591(3) 0.92096(17)
H24 H 0.2421 -0.2916 0.8675
C20 C 0.1040(3) -0.3813(3) 0.96028(15)
F1 F 0.4004(8) 0.3728(7) 1.0287(4)
Si1 Si -0.29416(12) -0.26625(12) 1.32329(5)
S1 S 0.3548(5) 0.0789(4) 0.9290(3)
C1A C 0.1278(3) -0.6075(3) 0.83922(16)
C2A C 0.1894(4) -0.6574(4) 0.77362(18)
C3A C 0.1746(16) -0.6816(14) 0.5859(7)
H1A H 0.1959 -0.5579 0.6005
C4A C -0.0213(12) -0.7164(16) 0.5756(5)
H2A H -0.0695 -0.6668 0.6265
H3A H -0.0619 -0.6689 0.5300
H4A H -0.0608 -0.8363 0.5636
C5A C 0.2595(17) -0.7117(15) 0.5033(7)
H5A H 0.2630 -0.8301 0.4856
H6A H 0.1906 -0.6742 0.4616
H7A H 0.3789 -0.6500 0.5098
C6A C 0.5356(12) -0.6619(13) 0.6906(6)
H8A H 0.5867 -0.7081 0.6384
C7A C 0.6201(13) -0.7311(16) 0.7613(5)
H9A H 0.5969 -0.8523 0.7481
H10A H 0.7468 -0.6930 0.7669
H11A H 0.5695 -0.6914 0.8132
C8A C 0.5810(13) -0.4760(14) 0.7047(6)
H12A H 0.5164 -0.4261 0.7501
H13A H 0.7071 -0.4428 0.7189
H14A H 0.5490 -0.4384 0.6545
C9A C 0.3105(13) -0.9611(13) 0.6795(6)
H15A H 0.3925 -0.9447 0.7296
C10A C 0.4240(14) -1.0417(14) 0.6134(6)
H16A H 0.5464 -0.9887 0.6256
H17A H 0.4147 -1.1600 0.6139
H18A H 0.3826 -1.0274 0.5589
C11A C 0.1717(13) -1.0740(13) 0.7006(5)
H19A H 0.0852 -1.1131 0.6535
H20A H 0.2184 -1.1684 0.7153
H21A H 0.1158 -1.0183 0.7477
C12A C 0.0605(3) -0.5523(3) 0.91941(15)
C13A C -0.0440(3) -0.6719(3) 0.95743(16)
C14A C -0.0897(3) -0.8428(3) 0.91613(17)
H22A H -0.0538 -0.8779 0.8624
C15A C -0.1871(4) -0.9567(3) 0.95551(19)
C16A C -0.3267(19) -1.2094(12) 0.9810(12)
C17A C -0.2381(10) -1.146(2) 0.9066(8)
H23A H -0.2208 -1.2000 0.8523
C18A C -0.2422(3) -0.9051(3) 1.03829(19)
C19A C -0.2035(3) -0.7409(3) 1.07904(17)
H24A H -0.2421 -0.7084 1.1325
C20A C -0.1040(3) -0.6187(3) 1.03972(15)
F1A F -0.4004(8) -1.3728(7) 0.9713(4)
Si1A Si 0.29416(12) -0.73375(12) 0.67671(5)
S1A S -0.3548(5) -1.0789(4) 1.0710(3)
C21? C 0.3623(19) 0.1830(13) 0.9901(12)
C22? C 0.3517(17) 0.0383(14) 0.9164(9)
C23? C -0.190(2) -0.372(2) 1.4082(10)
C24? C -0.0128(16) -0.377(2) 1.4057(7)
C25? C -0.280(2) -0.337(2) 1.4891(10)
C26? C -0.5326(12) -0.3901(13) 1.3082(7)
C27? C -0.6419(13) -0.3745(16) 1.2301(5)
C28? C -0.5334(14) -0.5834(14) 1.3024(6)
C29? C -0.2236(13) -0.0245(13) 1.3548(6)
C30? C -0.3355(14) 0.0661(14) 1.4136(6)
C31? C -0.0872(13) 0.0554(14) 1.3202(6)
F2? F 0.4430(8) 0.3386(7) 0.9838(4)
H25? H 0.3944 0.0300 0.8631
H26? H -0.2395 -0.4909 1.3870
H27? H 0.0063 -0.4669 1.3609
H28? H 0.0327 -0.3977 1.4583
H29? H 0.0483 -0.2717 1.3962
H30? H -0.2475 -0.2201 1.5150
H31? H -0.2419 -0.4056 1.5263
H32? H -0.4068 -0.3640 1.4775
H33? H -0.5960 -0.3491 1.3575
H34? H -0.6591 -0.2593 1.2341
H35? H -0.7560 -0.4456 1.2260
H36? H -0.5795 -0.4086 1.1811
H37? H -0.4757 -0.6275 1.2533
H38? H -0.6545 -0.6405 1.2986
H39? H -0.4704 -0.6009 1.3517
H40? H -0.1437 -0.0366 1.4015
H41? H -0.4557 0.0060 1.4061
H42? H -0.3348 0.1776 1.4028
H43? H -0.2889 0.0737 1.4703
H44? H 0.0238 0.0398 1.3458
H45? H -0.0942 0.1737 1.3291
H46? H -0.0935 0.0098 1.2609
S2? S 0.2637(3) 0.1675(7) 1.0799(3)
loop_
_geom_bond_atom_site_label_1
_geom_bond_atom_site_label_2
_geom_bond_site_symmetry_1
_geom_bond_site_symmetry_2
C1 C2 1_555 1_555
C2 Si1 1_555 1_555
C3 H1 1_555 1_555
C4 C3 1_555 1_555
H2 C4 1_555 1_555
H3 C4 1_555 1_555
H4 C4 1_555 1_555
C5 C3 1_555 1_555
H5 C5 1_555 1_555
H6 C5 1_555 1_555
H7 C5 1_555 1_555
C6 H8 1_555 1_555
C7 C6 1_555 1_555
H9 C7 1_555 1_555
H10 C7 1_555 1_555
H11 C7 1_555 1_555
C8 C6 1_555 1_555
H12 C8 1_555 1_555
H13 C8 1_555 1_555
H14 C8 1_555 1_555
C9 H15 1_555 1_555
C10 C9 1_555 1_555
H16 C10 1_555 1_555
H17 C10 1_555 1_555
H18 C10 1_555 1_555
C11 C9 1_555 1_555
H19 C11 1_555 1_555
H20 C11 1_555 1_555
H21 C11 1_555 1_555
C12 C1 1_555 1_555
C13 C12 1_555 1_555
C14 C13 1_555 1_555
H22 C14 1_555 1_555
C15 C14 1_555 1_555
C16 C17 1_555 1_555
C17 C15 1_555 1_555
H23 C17 1_555 1_555
C18 C15 1_555 1_555
C19 C18 1_555 1_555
H24 C19 1_555 1_555
C20 C13 1_555 1_555
F1 C16 1_555 1_555
Si1 C3 1_555 1_555
S1 C16 1_555 1_555
C1A C2A 1_555 1_555
C2A Si1A 1_555 1_555
C3A H1A 1_555 1_555
C4A C3A 1_555 1_555
H2A C4A 1_555 1_555
H3A C4A 1_555 1_555
H4A C4A 1_555 1_555
C5A C3A 1_555 1_555
H5A C5A 1_555 1_555
H6A C5A 1_555 1_555
H7A C5A 1_555 1_555
C6A H8A 1_555 1_555
C7A C6A 1_555 1_555
H9A C7A 1_555 1_555
H10A C7A 1_555 1_555
H11A C7A 1_555 1_555
C8A C6A 1_555 1_555
H12A C8A 1_555 1_555
H13A C8A 1_555 1_555
H14A C8A 1_555 1_555
C9A H15A 1_555 1_555
C10A C9A 1_555 1_555
H16A C10A 1_555 1_555
H17A C10A 1_555 1_555
H18A C10A 1_555 1_555
C11A C9A 1_555 1_555
H19A C11A 1_555 1_555
H20A C11A 1_555 1_555
H21A C11A 1_555 1_555
C12A C20 1_555 1_555
C13A C12A 1_555 1_555
C14A C13A 1_555 1_555
H22A C14A 1_555 1_555
C15A C14A 1_555 1_555
C16A C17A 1_555 1_555
C17A C15A 1_555 1_555
H23A C17A 1_555 1_555
C18A C15A 1_555 1_555
C19A C18A 1_555 1_555
H24A C19A 1_555 1_555
C20A C12 1_555 1_555
F1A C16A 1_555 1_555
Si1A C3A 1_555 1_555
S1A C16A 1_555 1_555
C6 Si1 1_555 1_555
C9 Si1 1_555 1_555
C18 S1 1_555 1_555
C19 C20 1_555 1_555
C1A C12A 1_555 1_555
C6A Si1A 1_555 1_555
C9A Si1A 1_555 1_555
C13A C20A 1_555 1_555
C18A S1A 1_555 1_555
C19A C20A 1_555 1_555

#END
