
#######################################################################
#
#                 Cambridge Crystallographic Data Centre
#                                CCDC 
#
#######################################################################
#
# If this CIF has been generated from an entry in the Cambridge 
# Structural Database, then it will include bibliographic, chemical, 
# crystal, experimental, refinement or atomic coordinate data resulting 
# from the CCDC's data processing and validation procedures.
#
#######################################################################

data_GOBFOU
_chemical_formula_moiety         'C23 H24 O2 S1'
_chemical_name_systematic        
'2-Ethylbiphenyl-4-yl 4-isopropylphenyl sulfone'
_symmetry_cell_setting           monoclinic
_symmetry_space_group_name_H-M   'P 21/c'
_symmetry_Int_Tables_number      14
_space_group_name_Hall           '-P 2ybc'
loop_
_symmetry_equiv_pos_site_id
_symmetry_equiv_pos_as_xyz
1 x,y,z
2 -x,1/2+y,1/2-z
3 -x,-y,-z
4 x,1/2-y,1/2+z
_cell_length_a                   10.2371(3)
_cell_length_b                   18.6896(7)
_cell_length_c                   11.4671(3)
_cell_angle_alpha                90
_cell_angle_beta                 114.941(2)
_cell_angle_gamma                90
_cell_volume                     1989.37
_exptl_crystal_colour            colorless
_cell_formula_units_Z            4
loop_
_atom_site_label
_atom_site_type_symbol
_atom_site_fract_x
_atom_site_fract_y
_atom_site_fract_z
S1 S 0.25200(6) 1.00427(3) 1.00488(5)
O1 O 0.13895(16) 1.04423(8) 1.01934(14)
O2 O 0.37847(16) 1.04195(8) 1.01370(14)
C1 C 0.4491(3) 0.79467(16) 1.5261(2)
H1 H 0.4704 0.7559 1.5889
H2 H 0.3596 0.8185 1.5156
H3 H 0.5283 0.8293 1.5566
C2 C 0.4321(3) 0.76389(13) 1.3969(2)
H4 H 0.3495 0.7295 1.3680
C3 C 0.3912(3) 0.82380(12) 1.2979(2)
C4 C 0.2485(3) 0.84680(12) 1.2408(2)
H5 H 0.1797 0.8244 1.2641
C5 C 0.2045(2) 0.90133(12) 1.1512(2)
H6 H 0.1065 0.9159 1.1121
C6 C 0.3070(2) 0.93456(12) 1.11942(19)
C7 C 0.1764(2) 0.96036(11) 0.85419(19)
C8 C 0.0282(2) 0.95328(12) 0.7896(2)
H7 H -0.0317 0.9722 0.8267
C9 C -0.0343(2) 0.91868(12) 0.6704(2)
C10 C 0.0566(2) 0.89043(12) 0.6184(2)
C11 C 0.0003(2) 0.85083(13) 0.49298(19)
C12 C 0.0369(3) 0.78001(14) 0.4910(2)
H8 H 0.0969 0.7570 0.5692
C13 C -0.0124(3) 0.74169(15) 0.3764(2)
H9 H 0.0138 0.6929 0.3767
C14 C -0.0997(3) 0.77475(14) 0.2622(2)
H10 H -0.1351 0.7487 0.1838
C15 C 0.5648(3) 0.72193(15) 1.4108(3)
H11 H 0.5528 0.7046 1.3262
H12 H 0.5777 0.6811 1.4683
H13 H 0.6497 0.7530 1.4469
C16 C 0.2678(2) 0.93178(12) 0.8042(2)
H14 H 0.3694 0.9363 0.8492
C17 C 0.2064(2) 0.89663(12) 0.6874(2)
H15 H 0.2674 0.8761 0.6528
C18 C -0.1968(3) 0.91170(13) 0.6067(2)
H16 H -0.2305 0.8962 0.6719
H17 H -0.2233 0.8738 0.5402
C19 C -0.2750(3) 0.98052(15) 0.5441(3)
H18 H -0.2526 1.0179 0.6097
H19 H -0.3791 0.9719 0.5040
H20 H -0.2435 0.9960 0.4784
C20 C -0.1349(3) 0.84587(14) 0.2628(2)
H21 H -0.1935 0.8690 0.1843
C21 C -0.0854(3) 0.88376(13) 0.3772(2)
H22 H -0.1104 0.9328 0.3764
C22 C 0.4499(2) 0.91317(12) 1.1745(2)
H23 H 0.5188 0.9361 1.1518
C23 C 0.4908(3) 0.85775(13) 1.2633(2)
H24 H 0.5885 0.8427 1.3013
loop_
_geom_bond_atom_site_label_1
_geom_bond_atom_site_label_2
_geom_bond_site_symmetry_1
_geom_bond_site_symmetry_2
S1 O1 1_555 1_555
O2 S1 1_555 1_555
C1 H1 1_555 1_555
H2 C1 1_555 1_555
H3 C1 1_555 1_555
C2 C1 1_555 1_555
H4 C2 1_555 1_555
C3 C2 1_555 1_555
C4 C3 1_555 1_555
H5 C4 1_555 1_555
C5 C4 1_555 1_555
H6 C5 1_555 1_555
C6 S1 1_555 1_555
C7 S1 1_555 1_555
C8 C7 1_555 1_555
H7 C8 1_555 1_555
C9 C8 1_555 1_555
C10 C9 1_555 1_555
C11 C10 1_555 1_555
C12 C11 1_555 1_555
H8 C12 1_555 1_555
C13 C12 1_555 1_555
H9 C13 1_555 1_555
C14 C13 1_555 1_555
H10 C14 1_555 1_555
C15 C2 1_555 1_555
H11 C15 1_555 1_555
H12 C15 1_555 1_555
H13 C15 1_555 1_555
C16 C7 1_555 1_555
H14 C16 1_555 1_555
C17 C10 1_555 1_555
H15 C17 1_555 1_555
C18 C9 1_555 1_555
H16 C18 1_555 1_555
H17 C18 1_555 1_555
C19 C18 1_555 1_555
H18 C19 1_555 1_555
H19 C19 1_555 1_555
H20 C19 1_555 1_555
C20 C14 1_555 1_555
H21 C20 1_555 1_555
C21 C11 1_555 1_555
H22 C21 1_555 1_555
C22 C6 1_555 1_555
H23 C22 1_555 1_555
C23 C3 1_555 1_555
H24 C23 1_555 1_555
C5 C6 1_555 1_555
C16 C17 1_555 1_555
C20 C21 1_555 1_555
C22 C23 1_555 1_555

#END
