
#######################################################################
#
#                 Cambridge Crystallographic Data Centre
#                                CCDC 
#
#######################################################################
#
# If this CIF has been generated from an entry in the Cambridge 
# Structural Database, then it will include bibliographic, chemical, 
# crystal, experimental, refinement or atomic coordinate data resulting 
# from the CCDC's data processing and validation procedures.
#
#######################################################################

data_GOBFEK
_chemical_formula_moiety         'C38 H17 Cl1 O7,C4 H8 O2'
_chemical_name_systematic        
"12-(4-chlorobenzoyl)-5H-dinaphtho[2',3':3,4;2'',3'':5,6]cyclohepta[1,2-b]naphthalene-5,6,11,13,18,19(12H)-hexone ethyl acetate solvate"
_symmetry_cell_setting           triclinic
_symmetry_space_group_name_H-M   'P -1'
_symmetry_Int_Tables_number      2
_space_group_name_Hall           '-P 1'
loop_
_symmetry_equiv_pos_site_id
_symmetry_equiv_pos_as_xyz
1 x,y,z
2 -x,-y,-z
_cell_length_a                   10.9599(15)
_cell_length_b                   12.1631(17)
_cell_length_c                   14.371(2)
_cell_angle_alpha                102.481(2)
_cell_angle_beta                 108.708(2)
_cell_angle_gamma                101.479(2)
_cell_volume                     1695.43
_cell_formula_units_Z            2
loop_
_atom_site_label
_atom_site_type_symbol
_atom_site_fract_x
_atom_site_fract_y
_atom_site_fract_z
O1 O -0.0934(4) 0.6908(3) 0.8507(2)
C1 C 0.2781(6) 0.8863(6) 0.8998(4)
H1 H 0.2610 0.9594 0.8941
H2 H 0.3216 0.8613 0.8541
H3 H 0.3355 0.8967 0.9694
C2 C 0.1512(6) 0.7972(5) 0.8721(4)
H4 H 0.1665 0.7214 0.8720
H5 H 0.0898 0.7903 0.8038
C3 C -0.0260(5) 0.7704(4) 0.9285(4)
O2 O 0.0940(3) 0.8340(3) 0.9485(2)
C4 C -0.0696(5) 0.8147(6) 1.0184(4)
H6 H -0.1470 0.8417 0.9938
H7 H 0.0028 0.8783 1.0715
H8 H -0.0916 0.7516 1.0459
C5 C 0.7495(2) 0.9078(2) 0.3603(2)
C6 C 0.7475(2) 0.7945(2) 0.36306(18)
H9 H 0.8113 0.7614 0.3485
C7 C 0.64942(19) 0.73130(18) 0.38770(15)
H10 H 0.6446 0.6539 0.3870
C8 C 0.55752(19) 0.78345(17) 0.41362(14)
C9 C 0.5665(2) 0.89920(18) 0.41418(17)
H11 H 0.5075 0.9352 0.4336
C10 C 0.6611(2) 0.96135(19) 0.3865(2)
H12 H 0.6651 1.0382 0.3855
C11 C 0.4461(2) 0.71964(17) 0.43733(14)
C12 C 0.37272(18) 0.58972(16) 0.37559(14)
H13 H 0.4188 0.5415 0.4125
C13 C 0.36445(18) 0.55207(15) 0.26530(14)
C14 C 0.30409(19) 0.60162(16) 0.19505(14)
C15 C 0.2744(2) 0.55042(18) 0.08282(15)
C16 C 0.3386(2) 0.45907(18) 0.05450(15)
C17 C 0.3256(3) 0.4170(2) -0.04738(18)
H14 H 0.2772 0.4462 -0.0974
C18 C 0.3855(3) 0.3312(2) -0.0736(2)
H15 H 0.3774 0.3036 -0.1415
C19 C 0.4562(3) 0.2865(2) -0.0012(2)
H16 H 0.4960 0.2292 -0.0200
C20 C 0.4684(2) 0.3267(2) 0.10003(19)
H17 H 0.5158 0.2960 0.1492
C21 C 0.4097(2) 0.41344(17) 0.12818(16)
C22 C 0.42078(19) 0.45415(16) 0.23645(15)
C23 C 0.22849(18) 0.55712(15) 0.36735(13)
C24 C 0.18282(19) 0.45721(15) 0.40456(14)
C25 C 0.03935(19) 0.42002(16) 0.39111(14)
C26 C -0.0067(2) 0.32852(17) 0.42655(16)
H18 H 0.0521 0.2898 0.4576
C27 C -0.1400(2) 0.29543(19) 0.41545(17)
H19 H -0.1701 0.2351 0.4402
C28 C -0.2285(2) 0.3507(2) 0.36820(17)
H20 H -0.3179 0.3277 0.3612
C29 C -0.1851(2) 0.44020(19) 0.33118(16)
H21 H -0.2457 0.4764 0.2981
C30 C -0.05029(19) 0.47645(16) 0.34331(14)
C31 C -0.0034(2) 0.57451(17) 0.30564(15)
C32 C 0.14222(19) 0.61363(16) 0.32397(14)
C33 C 0.18899(19) 0.71350(16) 0.28805(14)
C34 C 0.25990(19) 0.70606(16) 0.22615(14)
C35 C 0.3131(2) 0.81049(17) 0.19538(15)
C36 C 0.2793(2) 0.92001(17) 0.22981(16)
C37 C 0.3240(3) 1.0172(2) 0.2009(2)
H22 H 0.3692 1.0114 0.1561
C38 C 0.3018(3) 1.1218(2) 0.2384(2)
H23 H 0.3311 1.1866 0.2182
C39 C 0.2359(3) 1.1315(2) 0.3060(2)
H24 H 0.2218 1.2029 0.3315
C40 C 0.1912(2) 1.03605(18) 0.33589(18)
H25 H 0.1478 1.0432 0.3819
C41 C 0.2112(2) 0.92891(16) 0.29695(15)
C42 C 0.1656(2) 0.82694(17) 0.33123(15)
Cl1 Cl 0.86567(9) 0.98350(9) 0.32125(10)
O3 O 0.41077(17) 0.76946(15) 0.50245(12)
O4 O 0.1955(2) 0.57983(17) 0.01932(12)
O5 O 0.47801(17) 0.41260(14) 0.30143(12)
O6 O 0.26364(15) 0.40932(13) 0.44543(12)
O7 O -0.08115(15) 0.62018(14) 0.25812(13)
O8 O 0.11728(18) 0.83588(13) 0.39707(12)
O9 O 0.3878(2) 0.80511(14) 0.14889(14)
loop_
_geom_bond_atom_site_label_1
_geom_bond_atom_site_label_2
_geom_bond_site_symmetry_1
_geom_bond_site_symmetry_2
O1 C3 1_555 1_555
C1 H1 1_555 1_555
H2 C1 1_555 1_555
H3 C1 1_555 1_555
C2 C1 1_555 1_555
H4 C2 1_555 1_555
H5 C2 1_555 1_555
C3 O2 1_555 1_555
O2 C2 1_555 1_555
C4 C3 1_555 1_555
H6 C4 1_555 1_555
H7 C4 1_555 1_555
H8 C4 1_555 1_555
C5 C6 1_555 1_555
C6 H9 1_555 1_555
C7 C6 1_555 1_555
H10 C7 1_555 1_555
C8 C7 1_555 1_555
C9 C8 1_555 1_555
H11 C9 1_555 1_555
C10 C5 1_555 1_555
H12 C10 1_555 1_555
C11 C8 1_555 1_555
C12 C11 1_555 1_555
H13 C12 1_555 1_555
C13 C12 1_555 1_555
C14 C13 1_555 1_555
C15 C14 1_555 1_555
C16 C15 1_555 1_555
C17 C16 1_555 1_555
H14 C17 1_555 1_555
C18 C17 1_555 1_555
H15 C18 1_555 1_555
C19 C18 1_555 1_555
H16 C19 1_555 1_555
C20 C19 1_555 1_555
H17 C20 1_555 1_555
C21 C16 1_555 1_555
C22 C13 1_555 1_555
C23 C12 1_555 1_555
C24 C23 1_555 1_555
C25 C24 1_555 1_555
C26 C25 1_555 1_555
H18 C26 1_555 1_555
C27 C26 1_555 1_555
H19 C27 1_555 1_555
C28 C27 1_555 1_555
H20 C28 1_555 1_555
C29 C28 1_555 1_555
H21 C29 1_555 1_555
C30 C25 1_555 1_555
C31 C30 1_555 1_555
C32 C23 1_555 1_555
C33 C32 1_555 1_555
C34 C14 1_555 1_555
C35 C34 1_555 1_555
C36 C35 1_555 1_555
C37 C36 1_555 1_555
H22 C37 1_555 1_555
C38 C37 1_555 1_555
H23 C38 1_555 1_555
C39 C38 1_555 1_555
H24 C39 1_555 1_555
C40 C39 1_555 1_555
H25 C40 1_555 1_555
C41 C36 1_555 1_555
C42 C33 1_555 1_555
Cl1 C5 1_555 1_555
O3 C11 1_555 1_555
O4 C15 1_555 1_555
O5 C22 1_555 1_555
O6 C24 1_555 1_555
O7 C31 1_555 1_555
O8 C42 1_555 1_555
O9 C35 1_555 1_555
C9 C10 1_555 1_555
C20 C21 1_555 1_555
C21 C22 1_555 1_555
C29 C30 1_555 1_555
C31 C32 1_555 1_555
C33 C34 1_555 1_555
C40 C41 1_555 1_555
C41 C42 1_555 1_555

#END
