
#######################################################################
#
#                 Cambridge Crystallographic Data Centre
#                                CCDC 
#
#######################################################################
#
# If this CIF has been generated from an entry in the Cambridge 
# Structural Database, then it will include bibliographic, chemical, 
# crystal, experimental, refinement or atomic coordinate data resulting 
# from the CCDC's data processing and validation procedures.
#
#######################################################################

data_GOBGIO
_chemical_formula_moiety         'C7 H18 B8 Si1'
_chemical_name_systematic        
1-Trimethylsilylethynyl-1,10-dicarbadecaborane
_symmetry_cell_setting           monoclinic
_symmetry_space_group_name_H-M   'P 21/c'
_symmetry_Int_Tables_number      14
_space_group_name_Hall           '-P 2ybc'
loop_
_symmetry_equiv_pos_site_id
_symmetry_equiv_pos_as_xyz
1 x,y,z
2 -x,1/2+y,1/2-z
3 -x,-y,-z
4 x,1/2-y,1/2+z
_cell_length_a                   10.952(2)
_cell_length_b                   12.459(2)
_cell_length_c                   12.3465(16)
_cell_angle_alpha                90
_cell_angle_beta                 120.47(1)
_cell_angle_gamma                90
_cell_volume                     1452.03
_exptl_crystal_colour            yellow
_exptl_crystal_description       plate
_cell_formula_units_Z            4
_exptl_crystal_recrystallization_method chloroform
loop_
_atom_site_label
_atom_site_type_symbol
_atom_site_fract_x
_atom_site_fract_y
_atom_site_fract_z
Si1 Si 0.50381(4) 0.78653(3) 0.20551(4)
C1 C 0.83025(14) 0.55686(11) 0.22734(13)
C2 C 0.72785(14) 0.63321(11) 0.22015(13)
C3 C 0.64251(15) 0.69616(11) 0.21502(14)
C4 C 1.06643(16) 0.37528(12) 0.24501(16)
C5 C 0.5832(2) 0.87684(17) 0.3437(2)
C6 C 0.36713(19) 0.69869(15) 0.2048(2)
C7 C 0.4322(2) 0.8640(2) 0.0577(2)
B1 B 0.99745(17) 0.55809(13) 0.32822(15)
B2 B 0.91822(16) 0.56429(13) 0.15531(15)
B3 B 0.79481(17) 0.45432(13) 0.13658(15)
B4 B 0.87412(17) 0.44812(13) 0.30907(15)
B5 B 1.05831(18) 0.42040(14) 0.36258(17)
B6 B 1.08946(17) 0.50239(13) 0.25399(16)
B7 B 0.94639(18) 0.42922(14) 0.11859(17)
B8 B 0.91466(18) 0.34761(14) 0.22668(17)
H1 H 1.0389(18) 0.6202(14) 0.3962(16)
H2 H 0.9034(17) 0.6312(13) 0.0975(15)
H3 H 0.6867(18) 0.4393(13) 0.0653(16)
H4 H 0.8253(17) 0.4305(13) 0.3636(15)
H5 H 1.1295(18) 0.3934(14) 0.4542(17)
H6 H 1.1850(18) 0.5372(13) 0.2663(16)
H7 H 0.9361(17) 0.4079(13) 0.0297(16)
H8 H 0.8806(18) 0.2626(15) 0.2205(16)
H9 H 1.1338(19) 0.3279(15) 0.2532(17)
H10 H 0.514(3) 0.9248(19) 0.338(2)
H11 H 0.620(2) 0.8353(19) 0.418(2)
H12 H 0.659(3) 0.9183(19) 0.348(2)
H13 H 0.331(3) 0.646(2) 0.137(2)
H14 H 0.292(3) 0.739(2) 0.198(2)
H15 H 0.408(3) 0.662(2) 0.282(3)
H16 H 0.364(3) 0.9185(19) 0.051(2)
H17 H 0.507(3) 0.9000(19) 0.057(2)
H18 H 0.389(3) 0.818(3) -0.016(3)
loop_
_geom_bond_atom_site_label_1
_geom_bond_atom_site_label_2
_geom_bond_site_symmetry_1
_geom_bond_site_symmetry_2
Si1 C3 1_555 1_555
C1 C2 1_555 1_555
C2 C3 1_555 1_555
C4 B5 1_555 1_555
C5 Si1 1_555 1_555
C6 Si1 1_555 1_555
C7 Si1 1_555 1_555
B1 C1 1_555 1_555
B2 C1 1_555 1_555
B3 C1 1_555 1_555
B4 C1 1_555 1_555
B5 B1 1_555 1_555
B6 C4 1_555 1_555
B7 C4 1_555 1_555
B8 C4 1_555 1_555
H1 B1 1_555 1_555
H2 B2 1_555 1_555
H3 B3 1_555 1_555
H4 B4 1_555 1_555
H5 B5 1_555 1_555
H6 B6 1_555 1_555
H7 B7 1_555 1_555
H8 B8 1_555 1_555
H9 C4 1_555 1_555
H10 C5 1_555 1_555
H11 C5 1_555 1_555
H12 C5 1_555 1_555
H13 C6 1_555 1_555
H14 C6 1_555 1_555
H15 C6 1_555 1_555
H16 C7 1_555 1_555
H17 C7 1_555 1_555
H18 C7 1_555 1_555
B1 B2 1_555 1_555
B1 B4 1_555 1_555
B1 B6 1_555 1_555
B2 B3 1_555 1_555
B2 B6 1_555 1_555
B2 B7 1_555 1_555
B3 B4 1_555 1_555
B3 B7 1_555 1_555
B3 B8 1_555 1_555
B4 B5 1_555 1_555
B4 B8 1_555 1_555
B5 B6 1_555 1_555
B5 B8 1_555 1_555
B6 B7 1_555 1_555
B7 B8 1_555 1_555

#END
