
#######################################################################
#
#                 Cambridge Crystallographic Data Centre
#                                CCDC 
#
#######################################################################
#
# If this CIF has been generated from an entry in the Cambridge 
# Structural Database, then it will include bibliographic, chemical, 
# crystal, experimental, refinement or atomic coordinate data resulting 
# from the CCDC's data processing and validation procedures.
#
#######################################################################

data_GOBROG
_chemical_formula_moiety         'C17 H15 O4 P1,H2 O1'
_chemical_name_systematic        
"10,11,12,13-Tetrahydrodiindeno[7,1-de:1',7'-fg][1,3,2]dioxaphosphocin-5-ol 5-oxide monohydrate"
_symmetry_cell_setting           orthorhombic
_symmetry_space_group_name_H-M   'P 21 21 21'
_symmetry_Int_Tables_number      19
_space_group_name_Hall           'P 2ac 2ab'
loop_
_symmetry_equiv_pos_site_id
_symmetry_equiv_pos_as_xyz
1 x,y,z
2 1/2-x,-y,1/2+z
3 -x,1/2+y,1/2-z
4 1/2+x,1/2-y,-z
_cell_length_a                   6.6316(13)
_cell_length_b                   9.2654(19)
_cell_length_c                   26.038(5)
_cell_angle_alpha                90
_cell_angle_beta                 90
_cell_angle_gamma                90
_cell_volume                     1599.89
_cell_formula_units_Z            4
loop_
_atom_site_label
_atom_site_type_symbol
_atom_site_fract_x
_atom_site_fract_y
_atom_site_fract_z
P1 P 0.61018(10) -0.02428(7) 0.06186(2)
O1 O 0.6121(3) -0.04908(15) 0.12236(5)
O2 O 0.4870(3) 0.12038(17) 0.05382(6)
O3 O 0.8259(3) 0.0008(2) 0.04740(8)
H1 H 0.907(6) -0.078(3) 0.0442(19)
O4 O 0.4931(3) -0.1378(2) 0.03507(7)
C1 C 0.4229(4) -0.0746(2) 0.14547(8)
C2 C 0.3559(5) -0.2149(2) 0.15049(10)
H2 H 0.4376 -0.2917 0.1407
C3 C 0.1657(5) -0.2395(3) 0.17019(11)
H3 H 0.1223 -0.3338 0.1753
C4 C 0.0405(5) -0.1281(3) 0.18232(10)
H4 H -0.0895 -0.1463 0.1941
C5 C 0.1084(4) 0.0129(3) 0.17700(8)
C6 C -0.0039(4) 0.1510(3) 0.18399(10)
H5 H -0.0182 0.1748 0.2201
H6 H -0.1366 0.1461 0.1684
C7 C 0.1303(4) 0.2605(2) 0.15634(10)
H7 H 0.1177 0.3552 0.1718
H8 H 0.0943 0.2672 0.1203
C8 C 0.3473(4) 0.2015(2) 0.16270(8)
C9 C 0.3051(3) 0.0395(2) 0.16014(8)
C10 C 0.4333(4) 0.2440(2) 0.21585(9)
H9 H 0.3283 0.2433 0.2418
H10 H 0.5396 0.1782 0.2262
C11 C 0.5166(5) 0.3976(3) 0.20796(10)
H11 H 0.4129 0.4698 0.2134
H12 H 0.6291 0.4168 0.2308
C12 C 0.5833(4) 0.3940(2) 0.15286(9)
C13 C 0.7135(5) 0.4844(3) 0.12696(13)
H13 H 0.7690 0.5636 0.1437
C14 C 0.7612(5) 0.4578(3) 0.07662(13)
H14 H 0.8444 0.5215 0.0589
C15 C 0.6863(5) 0.3368(3) 0.05204(11)
H15 H 0.7228 0.3163 0.0183
C16 C 0.5565(4) 0.2473(2) 0.07834(8)
C17 C 0.4968(4) 0.2751(2) 0.12782(8)
O5 O 0.0851(3) 0.8188(2) 0.03755(8)
H16 H 0.061(5) 0.766(3) 0.0112(8)
H17 H 0.204(3) 0.853(4) 0.0397(14)
loop_
_geom_bond_atom_site_label_1
_geom_bond_atom_site_label_2
_geom_bond_site_symmetry_1
_geom_bond_site_symmetry_2
P1 O1 1_555 1_555
O1 C1 1_555 1_555
O2 P1 1_555 1_555
O3 P1 1_555 1_555
H1 O3 1_555 1_555
O4 P1 1_555 1_555
C1 C2 1_555 1_555
C2 H2 1_555 1_555
C3 C2 1_555 1_555
H3 C3 1_555 1_555
C4 C3 1_555 1_555
H4 C4 1_555 1_555
C5 C4 1_555 1_555
C6 C5 1_555 1_555
H5 C6 1_555 1_555
H6 C6 1_555 1_555
C7 C6 1_555 1_555
H7 C7 1_555 1_555
H8 C7 1_555 1_555
C8 C7 1_555 1_555
C9 C1 1_555 1_555
C10 C8 1_555 1_555
H9 C10 1_555 1_555
H10 C10 1_555 1_555
C11 C10 1_555 1_555
H11 C11 1_555 1_555
H12 C11 1_555 1_555
C12 C11 1_555 1_555
C13 C12 1_555 1_555
H13 C13 1_555 1_555
C14 C13 1_555 1_555
H14 C14 1_555 1_555
C15 C14 1_555 1_555
H15 C15 1_555 1_555
C16 O2 1_555 1_555
C17 C8 1_555 1_555
O5 H16 1_555 1_555
H17 O5 1_555 1_555
C5 C9 1_555 1_555
C8 C9 1_555 1_555
C12 C17 1_555 1_555
C15 C16 1_555 1_555
C16 C17 1_555 1_555

#END
