
#######################################################################
#
#                 Cambridge Crystallographic Data Centre
#                                CCDC 
#
#######################################################################
#
# If this CIF has been generated from an entry in the Cambridge 
# Structural Database, then it will include bibliographic, chemical, 
# crystal, experimental, refinement or atomic coordinate data resulting 
# from the CCDC's data processing and validation procedures.
#
#######################################################################

data_GOBRIA
_chemical_formula_moiety         'C17 H18 O2 S1'
_chemical_name_systematic        
'Methyl (benzylsulfanyl)(4-methylphenyl)acetate'
_symmetry_cell_setting           orthorhombic
_symmetry_space_group_name_H-M   'P 21 21 21'
_symmetry_Int_Tables_number      19
_space_group_name_Hall           'P 2ac 2ab'
loop_
_symmetry_equiv_pos_site_id
_symmetry_equiv_pos_as_xyz
1 x,y,z
2 1/2-x,-y,1/2+z
3 -x,1/2+y,1/2-z
4 1/2+x,1/2-y,-z
_cell_length_a                   5.6730(11)
_cell_length_b                   8.3677(17)
_cell_length_c                   31.795(6)
_cell_angle_alpha                90
_cell_angle_beta                 90
_cell_angle_gamma                90
_cell_volume                     1509.31
_cell_formula_units_Z            4
loop_
_atom_site_label
_atom_site_type_symbol
_atom_site_fract_x
_atom_site_fract_y
_atom_site_fract_z
S1 S -0.1030(2) 0.24471(15) 0.86802(4)
O1 O -0.0912(8) -0.1972(4) 0.86617(12)
C1 C -0.1525(10) 0.3525(7) 0.97236(17)
H1 H -0.0119 0.2917 0.9751
C2 C -0.1916(11) 0.4805(7) 0.99906(17)
H2 H -0.0786 0.5067 1.0200
C3 C -0.3944(12) 0.5698(7) 0.99526(19)
H3 H -0.4218 0.6582 1.0134
C4 C -0.5568(12) 0.5294(9) 0.9650(2)
H4 H -0.6975 0.5902 0.9624
C5 C -0.5186(10) 0.4015(7) 0.93815(19)
H5 H -0.6325 0.3758 0.9173
C6 C -0.3170(9) 0.3118(6) 0.94156(15)
C7 C -0.2709(10) 0.1700(6) 0.91293(16)
H6 H -0.4217 0.1227 0.9034
H7 H -0.1799 0.0869 0.9280
C8 C -0.0627(9) 0.0600(6) 0.83897(15)
H8 H -0.2197 0.0214 0.8289
C9 C 0.0954(10) 0.0912(5) 0.80104(15)
C10 C 0.3089(10) 0.1748(6) 0.80495(16)
H9 H 0.3568 0.2152 0.8315
C11 C 0.4481(10) 0.1980(6) 0.77016(17)
H10 H 0.5914 0.2556 0.7731
C12 C 0.3858(10) 0.1397(6) 0.73080(17)
C13 C 0.1746(9) 0.0572(6) 0.72727(16)
H11 H 0.1276 0.0170 0.7006
C14 C 0.0311(9) 0.0324(6) 0.76190(16)
H12 H -0.1121 -0.0252 0.7588
C15 C 0.5432(11) 0.1651(8) 0.69305(18)
H13 H 0.5837 0.0615 0.6807
H14 H 0.6876 0.2200 0.7018
H15 H 0.4603 0.2304 0.6722
C16 C 0.0467(9) -0.0672(6) 0.86753(17)
C17 C -0.0129(16) -0.3302(7) 0.8923(2)
H16 H -0.0192 -0.2989 0.9220
H17 H 0.1493 -0.3588 0.8848
H18 H -0.1162 -0.4224 0.8877
O2 O 0.2197(8) -0.0545(5) 0.88821(13)
loop_
_geom_bond_atom_site_label_1
_geom_bond_atom_site_label_2
_geom_bond_site_symmetry_1
_geom_bond_site_symmetry_2
S1 C7 1_555 1_555
O1 C16 1_555 1_555
C1 H1 1_555 1_555
C2 C1 1_555 1_555
H2 C2 1_555 1_555
C3 C2 1_555 1_555
H3 C3 1_555 1_555
C4 C3 1_555 1_555
H4 C4 1_555 1_555
C5 C4 1_555 1_555
H5 C5 1_555 1_555
C6 C1 1_555 1_555
C7 C6 1_555 1_555
H6 C7 1_555 1_555
H7 C7 1_555 1_555
C8 S1 1_555 1_555
H8 C8 1_555 1_555
C9 C8 1_555 1_555
C10 C9 1_555 1_555
H9 C10 1_555 1_555
C11 C10 1_555 1_555
H10 C11 1_555 1_555
C12 C11 1_555 1_555
C13 C12 1_555 1_555
H11 C13 1_555 1_555
C14 C9 1_555 1_555
H12 C14 1_555 1_555
C15 C12 1_555 1_555
H13 C15 1_555 1_555
H14 C15 1_555 1_555
H15 C15 1_555 1_555
C16 C8 1_555 1_555
C17 O1 1_555 1_555
H16 C17 1_555 1_555
H17 C17 1_555 1_555
H18 C17 1_555 1_555
O2 C16 1_555 1_555
C5 C6 1_555 1_555
C13 C14 1_555 1_555

#END
