
#######################################################################
#
#                 Cambridge Crystallographic Data Centre
#                                CCDC 
#
#######################################################################
#
# If this CIF has been generated from an entry in the Cambridge 
# Structural Database, then it will include bibliographic, chemical, 
# crystal, experimental, refinement or atomic coordinate data resulting 
# from the CCDC's data processing and validation procedures.
#
#######################################################################

data_GOBSIZ
_chemical_formula_moiety         'C12 H22 N2 O4 S2'
_chemical_name_systematic        
1,4-Dioxa-10,13-dithia-7,16-diazacyclo-octadecane-6,17-dione
_symmetry_cell_setting           monoclinic
_symmetry_space_group_name_H-M   'P 21/c'
_symmetry_Int_Tables_number      14
_space_group_name_Hall           '-P 2ybc'
loop_
_symmetry_equiv_pos_site_id
_symmetry_equiv_pos_as_xyz
1 x,y,z
2 -x,1/2+y,1/2-z
3 -x,-y,-z
4 x,1/2-y,1/2+z
_cell_length_a                   7.760(2)
_cell_length_b                   21.425(5)
_cell_length_c                   9.658(2)
_cell_angle_alpha                90
_cell_angle_beta                 91.17(2)
_cell_angle_gamma                90
_cell_volume                     1605.38
_exptl_crystal_colour            colorless
_cell_formula_units_Z            4
loop_
_atom_site_label
_atom_site_type_symbol
_atom_site_fract_x
_atom_site_fract_y
_atom_site_fract_z
S1 S 0.21424(9) -0.00157(3) 0.34899(7)
S2 S 0.65306(8) 0.08736(3) 0.13640(7)
O1 O 0.3097(2) 0.3489(1) 0.2717(2)
O2 O 0.1625(2) 0.3206(1) 0.5333(2)
O3 O 0.7324(2) 0.3166(1) 0.1708(2)
O4 O 0.2448(2) 0.2089(1) 0.4059(2)
N1 N 0.5404(2) 0.2600(1) 0.2890(2)
N2 N 0.0090(2) 0.1627(1) 0.4867(2)
C1 C 0.3417(3) 0.0358(1) 0.2175(3)
C2 C 0.5254(3) 0.0479(1) 0.2648(3)
C3 C 0.5714(4) 0.1661(1) 0.1492(3)
C4 C 0.6287(3) 0.2007(1) 0.2777(2)
C5 C 0.5939(3) 0.3118(1) 0.2301(2)
C6 C 0.4784(3) 0.3679(1) 0.2435(3)
C7 C 0.2075(3) 0.3905(1) 0.3488(3)
C8 C 0.0770(3) 0.3523(1) 0.4233(2)
C9 C 0.0824(4) 0.2648(1) 0.5753(3)
C10 C 0.1192(3) 0.2100(1) 0.4810(2)
C11 C 0.0305(3) 0.1068(1) 0.4028(3)
C12 C 0.1685(3) 0.0640(1) 0.4603(3)
H1 H 0.443(3) 0.259(1) 0.324(2)
H2 H -0.068(3) 0.167(1) 0.537(2)
H3 H 0.282(3) 0.073(1) 0.187(2)
H4 H 0.334(3) 0.006(1) 0.140(2)
H5 H 0.590(3) 0.010(1) 0.281(2)
H6 H 0.534(3) 0.073(1) 0.346(3)
H7 H 0.611(3) 0.186(1) 0.072(3)
H8 H 0.454(3) 0.165(1) 0.141(2)
H9 H 0.752(3) 0.208(1) 0.276(2)
H10 H 0.606(3) 0.177(1) 0.357(2)
H11 H 0.488(3) 0.393(1) 0.160(3)
H12 H 0.525(3) 0.394(1) 0.312(2)
H13 H 0.147(3) 0.419(1) 0.289(2)
H14 H 0.283(3) 0.416(1) 0.416(2)
H15 H 0.016(3) 0.320(1) 0.360(2)
H16 H -0.007(3) 0.377(1) 0.461(3)
H17 H 0.127(3) 0.255(1) 0.666(3)
H18 H -0.035(3) 0.271(1) 0.577(2)
H19 H 0.057(3) 0.119(1) 0.309(2)
H20 H -0.082(3) 0.086(1) 0.403(2)
H21 H 0.269(3) 0.087(1) 0.478(2)
H22 H 0.136(3) 0.045(1) 0.551(3)
loop_
_geom_bond_atom_site_label_1
_geom_bond_atom_site_label_2
_geom_bond_site_symmetry_1
_geom_bond_site_symmetry_2
S1 C1 1_555 1_555
S2 C2 1_555 1_555
O1 C6 1_555 1_555
O2 C8 1_555 1_555
O3 C5 1_555 1_555
O4 C10 1_555 1_555
N1 C4 1_555 1_555
N2 C10 1_555 1_555
C1 C2 1_555 1_555
C2 H5 1_555 1_555
C3 S2 1_555 1_555
C4 C3 1_555 1_555
C5 N1 1_555 1_555
C6 C5 1_555 1_555
C7 O1 1_555 1_555
C8 C7 1_555 1_555
C9 O2 1_555 1_555
C10 C9 1_555 1_555
C11 N2 1_555 1_555
C12 S1 1_555 1_555
H1 N1 1_555 1_555
H2 N2 1_555 1_555
H3 C1 1_555 1_555
H4 C1 1_555 1_555
H6 C2 1_555 1_555
H7 C3 1_555 1_555
H8 C3 1_555 1_555
H9 C4 1_555 1_555
H10 C4 1_555 1_555
H11 C6 1_555 1_555
H12 C6 1_555 1_555
H13 C7 1_555 1_555
H14 C7 1_555 1_555
H15 C8 1_555 1_555
H16 C8 1_555 1_555
H17 C9 1_555 1_555
H18 C9 1_555 1_555
H19 C11 1_555 1_555
H20 C11 1_555 1_555
H21 C12 1_555 1_555
H22 C12 1_555 1_555
C11 C12 1_555 1_555

#END
