
#######################################################################
#
#                 Cambridge Crystallographic Data Centre
#                                CCDC 
#
#######################################################################
#
# If this CIF has been generated from an entry in the Cambridge 
# Structural Database, then it will include bibliographic, chemical, 
# crystal, experimental, refinement or atomic coordinate data resulting 
# from the CCDC's data processing and validation procedures.
#
#######################################################################

data_GOBYOL
_chemical_formula_moiety         'C12 H26 N2 O4,2(C6 H5 N1 O3)'
_chemical_name_systematic        
'1,4,10,13-Tetraoxa-7,16-diazacyclo-octadecane bis(p-nitrophenyl) clathrate'
_symmetry_cell_setting           monoclinic
_symmetry_space_group_name_H-M   'P 21/n'
_symmetry_Int_Tables_number      14
_space_group_name_Hall           '-P 2yn'
loop_
_symmetry_equiv_pos_site_id
_symmetry_equiv_pos_as_xyz
1 x,y,z
2 1/2-x,1/2+y,1/2-z
3 -x,-y,-z
4 1/2+x,1/2-y,1/2+z
_cell_length_a                   10.115(8)
_cell_length_b                   13.961(8)
_cell_length_c                   10.404(9)
_cell_angle_alpha                90
_cell_angle_beta                 111.58(5)
_cell_angle_gamma                90
_cell_volume                     1366.22
_chemical_melting_point          114-117deg.C
_cell_formula_units_Z            2
loop_
_atom_site_label
_atom_site_type_symbol
_atom_site_fract_x
_atom_site_fract_y
_atom_site_fract_z
N1 N 0.3958(3) 0.5497(2) -0.2834(2)
C1 C 0.2957(3) 0.6305(2) -0.3248(3)
C2 C 0.3491(3) 0.7126(2) -0.2271(3)
O1 O 0.3593(2) 0.6839(1) -0.0928(2)
C3 C 0.4422(3) 0.7495(2) 0.0082(3)
C4 C 0.4472(3) 0.7212(2) 0.1477(3)
O2 O 0.5357(2) 0.6401(1) 0.1950(2)
C5 C 0.5522(3) 0.6142(2) 0.3311(3)
C6 C 0.3454(3) 0.4672(2) -0.3755(3)
H1 H 0.4031(30) 0.5338(20) -0.2065(28)
H2 H 0.2852 0.6507 -0.4162
H3 H 0.2052 0.6103 -0.3243
H4 H 0.2844 0.7655 -0.2574
H5 H 0.4411 0.7315 -0.2248
H6 H 0.5371 0.7504 0.0082
H7 H 0.4012 0.8122 -0.0136
H8 H 0.3529 0.7060 0.1427
H9 H 0.4843 0.7733 0.2109
H10 H 0.5882 0.6678 0.3918
H11 H 0.4621 0.5950 0.3338
H12 H 0.3343 0.4857 -0.4677
H13 H 0.2553 0.4469 -0.3739
C6B C 0.6546(3) 0.5328(2) 0.3755(3)
C5B C 0.4478(3) 0.3858(2) -0.3311(3)
N1B N 0.6042(3) 0.4503(2) 0.2834(2)
H12B H 0.6657 0.5143 0.4677
H13B H 0.7447 0.5531 0.3739
O2B O 0.4643(2) 0.3599(1) -0.1950(2)
H10B H 0.4118 0.3322 -0.3918
H11B H 0.5379 0.4050 -0.3338
C1B C 0.7043(3) 0.3695(2) 0.3248(3)
H1B H 0.5969(30) 0.4662(20) 0.2065(28)
C4B C 0.5528(3) 0.2788(2) -0.1477(3)
C2B C 0.6509(3) 0.2874(2) 0.2271(3)
H2B H 0.7148 0.3493 0.4162
H3B H 0.7948 0.3897 0.3243
C3B C 0.5578(3) 0.2505(2) -0.0082(3)
H8B H 0.6471 0.2940 -0.1427
H9B H 0.5157 0.2267 -0.2109
O1B O 0.6407(2) 0.3161(1) 0.0928(2)
H4B H 0.7156 0.2345 0.2574
H5B H 0.5589 0.2685 0.2248
H6B H 0.4629 0.2496 -0.0082
H7B H 0.5988 0.1878 0.0136
C7 C 0.7445(3) 0.6068(2) -0.1228(3)
C8 C 0.7387(3) 0.5261(2) -0.0484(3)
C9 C 0.8449(3) 0.5083(2) 0.0772(3)
C10 C 0.9563(3) 0.5717(2) 0.1281(3)
C11 C 0.9625(3) 0.6522(2) 0.0553(3)
C12 C 0.8560(3) 0.6703(2) -0.0688(3)
O3 O 0.6460(2) 0.6266(2) -0.2479(2)
N2 N 1.0672(3) 0.5526(2) 0.2611(2)
O4 O 1.1689(2) 0.6068(2) 0.3009(2)
O5 O 1.0554(3) 0.4831(2) 0.3270(2)
H14 H 0.6605 0.4823 -0.0844
H15 H 0.8414 0.4520 0.1289
H16 H 1.0411 0.6957 0.0911
H17 H 0.8586 0.7276 -0.1189
H18 H 0.5648(23) 0.5916(15) -0.2613(22)
loop_
_geom_bond_atom_site_label_1
_geom_bond_atom_site_label_2
_geom_bond_site_symmetry_1
_geom_bond_site_symmetry_2
N1 C1 1_555 1_555
C1 C2 1_555 1_555
C2 O1 1_555 1_555
O1 C3 1_555 1_555
C3 C4 1_555 1_555
C4 O2 1_555 1_555
O2 C5 1_555 1_555
C5 H10 1_555 1_555
C6 N1 1_555 1_555
C7 C8 1_555 1_555
C8 C9 1_555 1_555
C9 C10 1_555 1_555
C10 C11 1_555 1_555
C11 C12 1_555 1_555
C12 C7 1_555 1_555
O3 C7 1_555 1_555
N2 C10 1_555 1_555
O4 N2 1_555 1_555
O5 N2 1_555 1_555
H1 N1 1_555 1_555
H2 C1 1_555 1_555
H3 C1 1_555 1_555
H4 C2 1_555 1_555
H5 C2 1_555 1_555
H6 C3 1_555 1_555
H7 C3 1_555 1_555
H8 C4 1_555 1_555
H9 C4 1_555 1_555
H11 C5 1_555 1_555
H12 C6 1_555 1_555
H13 C6 1_555 1_555
H14 C8 1_555 1_555
H15 C9 1_555 1_555
H16 C11 1_555 1_555
H17 C12 1_555 1_555
H18 O3 1_555 1_555
C6B C5 1_555 1_555
C5B C6 1_555 1_555
N1B C6B 1_555 1_555
H12B C6B 1_555 1_555
H13B C6B 1_555 1_555
O2B C5B 1_555 1_555
H10B C5B 1_555 1_555
H11B C5B 1_555 1_555
C1B N1B 1_555 1_555
H1B N1B 1_555 1_555
C4B O2B 1_555 1_555
C2B C1B 1_555 1_555
H2B C1B 1_555 1_555
H3B C1B 1_555 1_555
C3B C4B 1_555 1_555
H8B C4B 1_555 1_555
H9B C4B 1_555 1_555
O1B C2B 1_555 1_555
H4B C2B 1_555 1_555
H5B C2B 1_555 1_555
H6B C3B 1_555 1_555
H7B C3B 1_555 1_555
C3B O1B 1_555 1_555

#END
