
#######################################################################
#
#                 Cambridge Crystallographic Data Centre
#                                CCDC 
#
#######################################################################
#
# If this CIF has been generated from an entry in the Cambridge 
# Structural Database, then it will include bibliographic, chemical, 
# crystal, experimental, refinement or atomic coordinate data resulting 
# from the CCDC's data processing and validation procedures.
#
#######################################################################

data_GOBZEC
_chemical_formula_moiety         'C12 H26 N2 O4,2(C7 H7 N1 O2)'
_chemical_name_systematic        
'1,4,10,13-Tetraoxa-7,16-diazacyclo-octadecane bis(salicylaldoxime) clathrate'
_symmetry_cell_setting           monoclinic
_symmetry_space_group_name_H-M   'P 21/c'
_symmetry_Int_Tables_number      14
_space_group_name_Hall           '-P 2ybc'
loop_
_symmetry_equiv_pos_site_id
_symmetry_equiv_pos_as_xyz
1 x,y,z
2 -x,1/2+y,1/2-z
3 -x,-y,-z
4 x,1/2-y,1/2+z
_cell_length_a                   9.569(3)
_cell_length_b                   5.596(2)
_cell_length_c                   27.954(9)
_cell_angle_alpha                90
_cell_angle_beta                 98.35(3)
_cell_angle_gamma                90
_cell_volume                     1481.02
_chemical_melting_point          98-101deg.C
_cell_formula_units_Z            2
loop_
_atom_site_label
_atom_site_type_symbol
_atom_site_fract_x
_atom_site_fract_y
_atom_site_fract_z
N1 N -0.3208(9) 0.8414(8) 0.0537(2)
C1 C -0.3995(12) 0.9986(11) 0.0814(2)
C2 C -0.4863(11) 0.8577(11) 0.1114(2)
O1 O -0.5859(8) 0.7223(7) 0.0802(1)
C3 C -0.6687(12) 0.5679(10) 0.1044(2)
C4 C -0.7837(12) 0.4600(11) 0.0711(2)
O2 O -0.7278(7) 0.3053(7) 0.0384(1)
C5 C -0.8250(13) 0.1814(13) 0.0076(2)
C6 C -0.2369(12) 0.9758(13) 0.0238(2)
H1 H -0.3658(72) 0.7572(65) 0.0285(11)
H2 H -0.3344 1.0968 0.1021
H3 H -0.4606 1.0983 0.0596
H4 H -0.5346 0.9638 0.1305
H5 H -0.4264 0.7524 0.1324
H6 H -0.6096 0.4431 0.1197
H7 H -0.7084 0.6574 0.1285
H8 H -0.8378 0.5838 0.0533
H9 H -0.8435 0.3702 0.0893
H10 H -0.8814 0.0882 0.0264
H11 H -0.8842 0.2936 -0.0119
H12 H -0.2964 1.0889 0.0046
H13 H -0.1634 1.0592 0.0441
C6B C -0.7631(12) 0.0242(13) -0.0238(2)
C5B C -0.1750(13) 0.8186(13) -0.0076(2)
N1B N -0.6792(9) 0.1586(8) -0.0537(2)
H12B H -0.7036 -0.0889 -0.0046
H13B H -0.8366 -0.0592 -0.0441
O2B O -0.2722(7) 0.6947(7) -0.0384(1)
H10B H -0.1186 0.9118 -0.0264
H11B H -0.1158 0.7064 0.0119
C1B C -0.6005(12) 0.0014(11) -0.0814(2)
H1B H -0.6342(72) 0.2428(65) -0.0285(11)
C4B C -0.2163(12) 0.5400(11) -0.0711(2)
C2B C -0.5137(11) 0.1423(11) -0.1114(2)
H2B H -0.6656 -0.0968 -0.1021
H3B H -0.5394 -0.0983 -0.0596
C3B C -0.3313(12) 0.4321(10) -0.1044(2)
H8B H -0.1622 0.4162 -0.0533
H9B H -0.1565 0.6298 -0.0893
O1B O -0.4141(8) 0.2777(7) -0.0802(1)
H4B H -0.4654 0.0362 -0.1305
H5B H -0.5736 0.2476 -0.1324
H6B H -0.3904 0.5569 -0.1197
H7B H -0.2916 0.3426 -0.1285
C7 C 0.1137(11) 0.7235(10) 0.2063(2)
C8 C 0.1658(13) 0.9418(10) 0.1910(2)
C9 C 0.2810(13) 1.0485(12) 0.2165(2)
C10 C 0.3465(14) 0.9472(14) 0.2576(2)
C11 C 0.2976(16) 0.7367(17) 0.2742(2)
C12 C 0.1844(16) 0.6257(13) 0.2484(2)
C13 C -0.0063(10) 0.5999(9) 0.1793(2)
N2 N -0.0766(9) 0.6845(7) 0.1401(2)
O3 O -0.1777(8) 0.5362(7) 0.1166(1)
O4 O 0.0977(7) 1.0464(6) 0.1497(1)
H14 H -0.217(11) 0.638(11) 0.0926(20)
H15 H 0.3158 1.1960 0.2052
H16 H 0.4280 1.0232 0.2753
H17 H 0.3433 0.6680 0.3038
H18 H 0.1528 0.4760 0.2598
H19 H -0.0343 0.4489 0.1911
loop_
_geom_bond_atom_site_label_1
_geom_bond_atom_site_label_2
_geom_bond_site_symmetry_1
_geom_bond_site_symmetry_2
N1 C1 1_555 1_555
C1 C2 1_555 1_555
C2 O1 1_555 1_555
O1 C3 1_555 1_555
C3 C4 1_555 1_555
C4 O2 1_555 1_555
O2 C5 1_555 1_555
C5 H10 1_555 1_555
C6 N1 1_555 1_555
C7 C8 1_555 1_555
C8 C9 1_555 1_555
C9 C10 1_555 1_555
C10 C11 1_555 1_555
C11 C12 1_555 1_555
C12 C7 1_555 1_555
C13 C7 1_555 1_555
N2 C13 1_555 1_555
O3 N2 1_555 1_555
O4 C8 1_555 1_555
H1 N1 1_555 1_555
H2 C1 1_555 1_555
H3 C1 1_555 1_555
H4 C2 1_555 1_555
H5 C2 1_555 1_555
H6 C3 1_555 1_555
H7 C3 1_555 1_555
H8 C4 1_555 1_555
H9 C4 1_555 1_555
H11 C5 1_555 1_555
H12 C6 1_555 1_555
H13 C6 1_555 1_555
H14 O3 1_555 1_555
H15 C9 1_555 1_555
H16 C10 1_555 1_555
H17 C11 1_555 1_555
H18 C12 1_555 1_555
H19 C13 1_555 1_555
C6B C5 1_555 1_555
C5B C6 1_555 1_555
N1B C6B 1_555 1_555
H12B C6B 1_555 1_555
H13B C6B 1_555 1_555
O2B C5B 1_555 1_555
H10B C5B 1_555 1_555
H11B C5B 1_555 1_555
C1B N1B 1_555 1_555
H1B N1B 1_555 1_555
C4B O2B 1_555 1_555
C2B C1B 1_555 1_555
H2B C1B 1_555 1_555
H3B C1B 1_555 1_555
C3B C4B 1_555 1_555
H8B C4B 1_555 1_555
H9B C4B 1_555 1_555
O1B C2B 1_555 1_555
H4B C2B 1_555 1_555
H5B C2B 1_555 1_555
H6B C3B 1_555 1_555
H7B C3B 1_555 1_555
C3B O1B 1_555 1_555

#END
