
#######################################################################
#
#                 Cambridge Crystallographic Data Centre
#                                CCDC 
#
#######################################################################
#
# If this CIF has been generated from an entry in the Cambridge 
# Structural Database, then it will include bibliographic, chemical, 
# crystal, experimental, refinement or atomic coordinate data resulting 
# from the CCDC's data processing and validation procedures.
#
#######################################################################

data_GOCQOG
_chemical_formula_moiety         'C37 H42 F2 S2 Si2'
_chemical_name_systematic        
((2,8-Difluoro-5-((triethylsilyl)ethynyl)thieno[3',2':6,7]anthra[2,3-b]thiophen-11-yl)ethynyl)(triisopropyl)silane
_symmetry_cell_setting           monoclinic
_symmetry_space_group_name_H-M   'C 2/c'
_symmetry_Int_Tables_number      15
_space_group_name_Hall           '-C 2yn'
loop_
_symmetry_equiv_pos_site_id
_symmetry_equiv_pos_as_xyz
1 x,y,z
2 -x,y,1/2-z
3 1/2+x,1/2+y,z
4 1/2-x,1/2+y,1/2-z
5 -x,-y,-z
6 x,-y,1/2+z
7 1/2-x,1/2-y,-z
8 1/2+x,1/2-y,1/2+z
_cell_length_a                   36.1683(17)
_cell_length_b                   8.25720(19)
_cell_length_c                   28.6382(15)
_cell_angle_alpha                90
_cell_angle_beta                 123.311(7)
_cell_angle_gamma                90
_cell_volume                     7147.56
_exptl_crystal_colour            orange
_exptl_crystal_description       'platy needles'
_cell_formula_units_Z            8
loop_
_atom_site_label
_atom_site_type_symbol
_atom_site_fract_x
_atom_site_fract_y
_atom_site_fract_z
Si1 Si 0.49427(4) -0.19216(15) 0.12605(6)
Si2 Si 0.17695(4) 0.14796(14) 0.12336(5)
C1 C 0.37177(11) -0.0566(4) 0.12003(13)
C2 C 0.34991(11) 0.0929(4) 0.09838(13)
C3 C 0.36717(12) 0.2129(4) 0.07957(14)
H1 H 0.3939 0.1935 0.0816
C4 C 0.34518(12) 0.3558(4) 0.05859(14)
S1 S 0.36151(10) 0.5152(2) 0.03463(11)
C5 C 0.31615(17) 0.6165(5) 0.01772(17)
F1 F 0.31086(11) 0.7617(3) -0.00586(12)
C6 C 0.2888(3) 0.5631(9) 0.0271(4)
H2 H 0.2628 0.6175 0.0194
C7 C 0.30453(12) 0.3868(4) 0.05436(14)
C8 C 0.28733(11) 0.2748(4) 0.07288(14)
H3 H 0.2606 0.2970 0.0705
C9 C 0.30957(11) 0.1264(4) 0.09546(13)
C10 C 0.29330(11) 0.0092(4) 0.11571(13)
C11 C 0.31483(11) -0.1401(4) 0.13734(14)
C12 C 0.29778(12) -0.2605(4) 0.15600(14)
H4 H 0.2709 -0.2415 0.1537
C13 C 0.31977(12) -0.4034(4) 0.17720(14)
C14 C 0.3153(3) -0.5570(10) 0.2109(4)
H5 H 0.2955 -0.5670 0.2228
C15 C 0.34506(18) -0.6616(5) 0.21765(18)
F2 F 0.34788(13) -0.8058(3) 0.24011(12)
S2 S 0.38501(18) -0.6133(4) 0.2122(2)
C16 C 0.36063(12) -0.4333(4) 0.18182(14)
C17 C 0.37728(11) -0.3218(4) 0.16301(14)
H6 H 0.4040 -0.3441 0.1653
C18 C 0.35517(10) -0.1728(4) 0.14008(13)
C19 C 0.41090(12) -0.0924(4) 0.12176(14)
C20 C 0.44405(13) -0.1287(4) 0.12334(15)
C21 C 0.4928(3) -0.4163(8) 0.1179(4)
H7 H 0.4651 -0.4408 0.0809
C22 C 0.4880(3) -0.5035(9) 0.1616(5)
H8 H 0.4861 -0.6205 0.1549
H9 H 0.4612 -0.4659 0.1588
H10 H 0.5139 -0.4798 0.1990
C23 C 0.5308(4) -0.4835(11) 0.1153(6)
H11 H 0.5270 -0.6007 0.1088
H12 H 0.5589 -0.4618 0.1507
H13 H 0.5310 -0.4314 0.0846
C24 C 0.54366(19) -0.1334(9) 0.1945(3)
H14 H 0.5475 -0.2182 0.2218
C25 C 0.5866(2) -0.1353(11) 0.1945(4)
H15 H 0.6118 -0.1051 0.2316
H16 H 0.5837 -0.0577 0.1668
H17 H 0.5913 -0.2442 0.1851
C26 C 0.5389(4) 0.0273(15) 0.2168(4)
H18 H 0.5664 0.0513 0.2527
H19 H 0.5144 0.0204 0.2221
H20 H 0.5330 0.1137 0.1901
C27 C 0.4906(2) -0.0958(9) 0.0642(3)
H21 H 0.5189 -0.1207 0.0671
C28 C 0.4524(4) -0.1789(17) 0.0097(3)
H22 H 0.4498 -0.1281 -0.0229
H23 H 0.4245 -0.1663 0.0074
H24 H 0.4590 -0.2944 0.0105
C29 C 0.4873(3) 0.0870(10) 0.0654(4)
H25 H 0.4864 0.1339 0.0334
H26 H 0.5130 0.1292 0.1001
H27 H 0.4602 0.1161 0.0636
C30 C 0.25446(13) 0.0467(4) 0.11579(15)
C31 C 0.22249(13) 0.0820(4) 0.11701(16)
C32 C 0.1390(3) -0.0305(9) 0.1056(4)
H28 H 0.1148 0.0008 0.1103
H29 H 0.1255 -0.0594 0.0658
C33 C 0.1625(4) -0.1771(9) 0.1414(4)
H30 H 0.1411 -0.2647 0.1314
H31 H 0.1763 -0.1490 0.1809
H32 H 0.1853 -0.2128 0.1352
C34 C 0.2018(3) 0.2229(12) 0.1957(3)
H33 H 0.2071 0.1284 0.2200
H34 H 0.2309 0.2707 0.2085
C35 C 0.1767(5) 0.3421(14) 0.2050(4)
H35 H 0.1926 0.3683 0.2448
H36 H 0.1475 0.2977 0.1925
H37 H 0.1730 0.4406 0.1837
C36 C 0.1456(3) 0.3110(12) 0.0700(4)
H38 H 0.1289 0.2604 0.0325
H39 H 0.1238 0.3585 0.0767
C37 C 0.1731(5) 0.4447(14) 0.0695(6)
H40 H 0.1538 0.5261 0.0418
H41 H 0.1932 0.4010 0.0597
H42 H 0.1904 0.4949 0.1065
C38? C 0.3491(7) 0.518(2) 0.0278(13)
H43? H 0.3705 0.5377 0.0191
S3? S 0.2788(2) 0.5617(9) 0.0269(4)
S4? S 0.30110(11) -0.5586(4) 0.19770(14)
C39? C 0.3752(5) -0.6139(19) 0.2083(10)
H44? H 0.4004 -0.6731 0.2155
C40? C 0.5109(6) -0.3932(16) 0.1657(7)
H45? H 0.5410 -0.4236 0.1750
C41? C 0.5122(12) -0.385(3) 0.2197(9)
H46? H 0.5175 -0.4936 0.2360
H47? H 0.4839 -0.3441 0.2117
H48? H 0.5361 -0.3123 0.2460
C42? C 0.4779(16) -0.526(3) 0.1279(13)
H49? H 0.4884 -0.6318 0.1463
H50? H 0.4756 -0.5284 0.0922
H51? H 0.4488 -0.5035 0.1212
C43? C 0.5379(5) -0.039(2) 0.1679(7)
H52? H 0.5659 -0.0941 0.1773
C44? C 0.5356(12) 0.108(3) 0.1361(12)
H53? H 0.5596 0.1825 0.1611
H54? H 0.5071 0.1624 0.1209
H55? H 0.5387 0.0766 0.1053
C45? C 0.5447(11) -0.008(4) 0.2243(9)
H56? H 0.5720 0.0544 0.2478
H57? H 0.5469 -0.1110 0.2425
H58? H 0.5195 0.0543 0.2191
C46? C 0.4814(7) -0.226(3) 0.0557(5)
H59? H 0.4593 -0.3144 0.0453
C47? C 0.5134(11) -0.322(4) 0.0494(12)
H60? H 0.5053 -0.3147 0.0107
H61? H 0.5126 -0.4354 0.0589
H62? H 0.5433 -0.2786 0.0745
C48? C 0.4511(17) -0.111(6) 0.0108(9)
H63? H 0.4512 -0.1324 -0.0227
H64? H 0.4610 0.0005 0.0234
H65? H 0.4210 -0.1245 0.0022
C49? C 0.1515(5) -0.0289(17) 0.1360(6)
H66? H 0.1749 -0.0911 0.1684
H67? H 0.1305 0.0109 0.1454
C50? C 0.1274(9) -0.139(3) 0.0864(10)
H68? H 0.1143 -0.2286 0.0948
H69? H 0.1483 -0.1813 0.0777
H70? H 0.1040 -0.0778 0.0543
C51? C 0.2053(5) 0.2775(18) 0.1916(5)
H71? H 0.2171 0.3790 0.1862
H72? H 0.1835 0.3061 0.2009
C52? C 0.2435(5) 0.1768(19) 0.2397(5)
H73? H 0.2580 0.2402 0.2743
H74? H 0.2650 0.1497 0.2303
H75? H 0.2315 0.0769 0.2448
C53? C 0.1380(5) 0.275(2) 0.0636(7)
H76? H 0.1227 0.2079 0.0294
H77? H 0.1154 0.3180 0.0696
C54? C 0.1605(9) 0.418(3) 0.0544(10)
H78? H 0.1383 0.4809 0.0218
H79? H 0.1827 0.3769 0.0478
H80? H 0.1749 0.4876 0.0875
loop_
_geom_bond_atom_site_label_1
_geom_bond_atom_site_label_2
_geom_bond_site_symmetry_1
_geom_bond_site_symmetry_2
Si1 C20 1_555 1_555
Si2 C31 1_555 1_555
C1 C2 1_555 1_555
C2 C3 1_555 1_555
C3 H1 1_555 1_555
C4 C3 1_555 1_555
S1 C4 1_555 1_555
C5 S1 1_555 1_555
F1 C5 1_555 1_555
C6 C5 1_555 1_555
H2 C6 1_555 1_555
C7 C4 1_555 1_555
C8 C7 1_555 1_555
H3 C8 1_555 1_555
C9 C2 1_555 1_555
C10 C9 1_555 1_555
C11 C10 1_555 1_555
C12 C11 1_555 1_555
H4 C12 1_555 1_555
C13 C12 1_555 1_555
C14 C13 1_555 1_555
H5 C14 1_555 1_555
C15 C14 1_555 1_555
F2 C15 1_555 1_555
S2 C15 1_555 1_555
C16 C13 1_555 1_555
C17 C16 1_555 1_555
H6 C17 1_555 1_555
C18 C1 1_555 1_555
C19 C1 1_555 1_555
C20 C19 1_555 1_555
C21 Si1 1_555 1_555
H7 C21 1_555 1_555
C22 C21 1_555 1_555
H8 C22 1_555 1_555
H9 C22 1_555 1_555
H10 C22 1_555 1_555
C23 C21 1_555 1_555
H11 C23 1_555 1_555
H12 C23 1_555 1_555
H13 C23 1_555 1_555
C24 Si1 1_555 1_555
H14 C24 1_555 1_555
C25 C24 1_555 1_555
H15 C25 1_555 1_555
H16 C25 1_555 1_555
H17 C25 1_555 1_555
C26 C24 1_555 1_555
H18 C26 1_555 1_555
H19 C26 1_555 1_555
H20 C26 1_555 1_555
C27 Si1 1_555 1_555
H21 C27 1_555 1_555
C28 C27 1_555 1_555
H22 C28 1_555 1_555
H23 C28 1_555 1_555
H24 C28 1_555 1_555
C29 C27 1_555 1_555
H25 C29 1_555 1_555
H26 C29 1_555 1_555
H27 C29 1_555 1_555
C30 C10 1_555 1_555
C31 C30 1_555 1_555
C32 Si2 1_555 1_555
H28 C32 1_555 1_555
H29 C32 1_555 1_555
C33 C32 1_555 1_555
H30 C33 1_555 1_555
H31 C33 1_555 1_555
H32 C33 1_555 1_555
C34 Si2 1_555 1_555
H33 C34 1_555 1_555
H34 C34 1_555 1_555
C35 C34 1_555 1_555
H35 C35 1_555 1_555
H36 C35 1_555 1_555
H37 C35 1_555 1_555
C36 Si2 1_555 1_555
H38 C36 1_555 1_555
H39 C36 1_555 1_555
C37 C36 1_555 1_555
H40 C37 1_555 1_555
H41 C37 1_555 1_555
H42 C37 1_555 1_555
C6 C7 1_555 1_555
C8 C9 1_555 1_555
C11 C18 1_555 1_555
S2 C16 1_555 1_555
C17 C18 1_555 1_555

#END
