
#######################################################################
#
#                 Cambridge Crystallographic Data Centre
#                                CCDC 
#
#######################################################################
#
# If this CIF has been generated from an entry in the Cambridge 
# Structural Database, then it will include bibliographic, chemical, 
# crystal, experimental, refinement or atomic coordinate data resulting 
# from the CCDC's data processing and validation procedures.
#
#######################################################################

data_GOCREX
_chemical_formula_moiety         'C20 H17 F1 O3 S1'
_chemical_name_systematic        
4'-Fluoro-4-((4-methoxyphenyl)sulfonyl)-2-methylbiphenyl
_symmetry_cell_setting           triclinic
_symmetry_space_group_name_H-M   'P -1'
_symmetry_Int_Tables_number      2
_space_group_name_Hall           '-P 1'
loop_
_symmetry_equiv_pos_site_id
_symmetry_equiv_pos_as_xyz
1 x,y,z
2 -x,-y,-z
_cell_length_a                   7.6155(13)
_cell_length_b                   10.3670(18)
_cell_length_c                   11.226(2)
_cell_angle_alpha                73.196(4)
_cell_angle_beta                 87.941(4)
_cell_angle_gamma                80.095(4)
_cell_volume                     835.71
_exptl_crystal_colour            colorless
_cell_formula_units_Z            2
loop_
_atom_site_label
_atom_site_type_symbol
_atom_site_fract_x
_atom_site_fract_y
_atom_site_fract_z
S1 S 1.02039(5) 0.62228(4) 0.68935(3)
F1 F 0.12449(14) 0.02019(11) 1.11281(9)
O1 O 0.64195(14) 1.10903(10) 0.32289(10)
O2 O 1.09898(14) 0.65943(11) 0.78681(10)
O3 O 1.13249(13) 0.54351(11) 0.61920(9)
C1 C 0.5594(2) 1.22871(15) 0.35606(14)
H1 H 0.4765 1.2032 0.4243
H2 H 0.4941 1.2942 0.2839
H3 H 0.6512 1.2705 0.3827
C2 C 0.73134(19) 1.00325(14) 0.41232(13)
C3 C 0.76219(19) 1.00420(15) 0.53403(13)
H4 H 0.7206 1.0839 0.5593
C4 C 0.85402(19) 0.88787(15) 0.61774(13)
H5 H 0.8764 0.8881 0.7004
C5 C 0.91312(18) 0.77134(14) 0.58070(13)
C6 C 0.85127(18) 0.52796(14) 0.75659(13)
C7 C 0.81025(19) 0.51033(15) 0.88124(13)
H6 H 0.8662 0.5538 0.9296
C8 C 0.68561(19) 0.42775(15) 0.93355(13)
H7 H 0.6593 0.4128 1.0193
C9 C 0.59761(19) 0.36589(14) 0.86308(13)
C10 C 0.4696(2) 0.27548(14) 0.92719(13)
C11 C 0.2999(2) 0.28592(15) 0.87838(14)
H8 H 0.2643 0.3521 0.8013
C12 C 0.1819(2) 0.20130(17) 0.94043(15)
H9 H 0.0663 0.2094 0.9071
C13 C 0.2375(2) 0.10537(17) 1.05161(15)
C14 C 0.63794(19) 0.38771(14) 0.73515(13)
C15 C 0.5528(2) 0.32446(16) 0.65141(14)
H10 H 0.4339 0.3771 0.6250
H11 H 0.5423 0.2300 0.6968
H12 H 0.6268 0.3252 0.5780
C16 C 0.76649(19) 0.46763(14) 0.68425(13)
H13 H 0.7967 0.4812 0.5992
C17 C 0.5178(2) 0.17820(15) 1.04182(14)
H14 H 0.6318 0.1707 1.0773
C18 C 0.4018(2) 0.09270(16) 1.10422(14)
H15 H 0.4354 0.0267 1.1818
C19 C 0.88567(19) 0.77038(15) 0.45827(13)
H16 H 0.9282 0.6907 0.4331
C20 C 0.79640(19) 0.88611(15) 0.37476(13)
H17 H 0.7787 0.8867 0.2912
loop_
_geom_bond_atom_site_label_1
_geom_bond_atom_site_label_2
_geom_bond_site_symmetry_1
_geom_bond_site_symmetry_2
S1 O2 1_555 1_555
F1 C13 1_555 1_555
O1 C1 1_555 1_555
O3 S1 1_555 1_555
C1 H1 1_555 1_555
H2 C1 1_555 1_555
H3 C1 1_555 1_555
C2 O1 1_555 1_555
C3 C2 1_555 1_555
H4 C3 1_555 1_555
C4 C3 1_555 1_555
H5 C4 1_555 1_555
C5 S1 1_555 1_555
C6 S1 1_555 1_555
C7 C6 1_555 1_555
H6 C7 1_555 1_555
C8 C7 1_555 1_555
H7 C8 1_555 1_555
C9 C8 1_555 1_555
C10 C9 1_555 1_555
C11 C10 1_555 1_555
H8 C11 1_555 1_555
C12 C11 1_555 1_555
H9 C12 1_555 1_555
C13 C12 1_555 1_555
C14 C9 1_555 1_555
C15 C14 1_555 1_555
H10 C15 1_555 1_555
H11 C15 1_555 1_555
H12 C15 1_555 1_555
C16 C6 1_555 1_555
H13 C16 1_555 1_555
C17 C10 1_555 1_555
H14 C17 1_555 1_555
C18 C13 1_555 1_555
H15 C18 1_555 1_555
C19 C5 1_555 1_555
H16 C19 1_555 1_555
C20 C2 1_555 1_555
H17 C20 1_555 1_555
C4 C5 1_555 1_555
C14 C16 1_555 1_555
C17 C18 1_555 1_555
C19 C20 1_555 1_555

#END
