
#######################################################################
#
#                 Cambridge Crystallographic Data Centre
#                                CCDC 
#
#######################################################################
#
# If this CIF has been generated from an entry in the Cambridge 
# Structural Database, then it will include bibliographic, chemical, 
# crystal, experimental, refinement or atomic coordinate data resulting 
# from the CCDC's data processing and validation procedures.
#
#######################################################################

data_GOCTOJ
_chemical_formula_moiety         'C15 H15 N1 O5'
_chemical_name_systematic        
3-(3-Hydroxy-6-methyl-4-oxo-4H-pyran-2-yl)-3-(4-hydroxyphenyl)propanamide
_symmetry_cell_setting           monoclinic
_symmetry_space_group_name_H-M   'P 21/n'
_symmetry_Int_Tables_number      14
_space_group_name_Hall           '-P 2yn'
loop_
_symmetry_equiv_pos_site_id
_symmetry_equiv_pos_as_xyz
1 x,y,z
2 1/2-x,1/2+y,1/2-z
3 -x,-y,-z
4 1/2+x,1/2-y,1/2+z
_cell_length_a                   9.773(3)
_cell_length_b                   6.9496(18)
_cell_length_c                   20.724(5)
_cell_angle_alpha                90
_cell_angle_beta                 96.751(3)
_cell_angle_gamma                90
_cell_volume                     1397.78
_exptl_crystal_colour            colorless
_exptl_crystal_description       block
_cell_formula_units_Z            4
loop_
_atom_site_label
_atom_site_type_symbol
_atom_site_fract_x
_atom_site_fract_y
_atom_site_fract_z
N1 N 1.12028(14) 0.83745(19) 0.21275(6)
H1 H 1.1187(19) 0.9635(14) 0.2114(9)
H2 H 1.1612(17) 0.778(2) 0.2469(6)
O1 O 1.06674(12) 0.55675(15) 0.16338(4)
O2 O 0.72748(10) 1.00761(14) 0.02516(4)
O3 O 0.72869(12) 0.77555(17) -0.15325(5)
O4 O 0.86271(12) 0.59102(16) -0.04804(5)
H3 H 0.867(2) 0.564(3) -0.0879(5)
O5 O 0.46509(12) 0.73904(16) 0.26459(5)
H4 H 0.457(2) 0.8480(19) 0.2837(9)
C1 C 1.06384(13) 0.73474(19) 0.16353(6)
C2 C 0.99393(13) 0.8418(2) 0.10513(6)
H5 H 1.0526 0.8398 0.0705
H6 H 0.9799 0.9750 0.1168
C3 C 0.85424(13) 0.74904(19) 0.08117(6)
H7 H 0.8727 0.6135 0.0725
C4 C 0.79216(13) 0.83556(19) 0.01778(6)
C5 C 0.66095(14) 1.0993(2) -0.02734(6)
C6 C 0.65779(14) 1.0262(2) -0.08715(6)
H8 H 0.6101 1.0919 -0.1219
C7 C 0.72544(14) 0.8502(2) -0.09920(6)
C8 C 0.79542(13) 0.7584(2) -0.04149(6)
C9 C 0.75312(13) 0.75192(19) 0.13187(6)
C10 C 0.67956(15) 0.5876(2) 0.14288(6)
H9 H 0.6953 0.4757 0.1203
C11 C 0.58321(16) 0.5853(2) 0.18665(7)
H10 H 0.5337 0.4737 0.1925
C12 C 0.56060(14) 0.7492(2) 0.22162(6)
C13 C 0.63414(15) 0.9142(2) 0.21215(6)
H11 H 0.6203 1.0247 0.2358
C14 C 0.72873(15) 0.9150(2) 0.16729(6)
H12 H 0.7769 1.0274 0.1608
C15 C 0.59766(18) 1.2821(2) -0.00903(8)
H13 H 0.5353 1.3282 -0.0450
H14 H 0.6685 1.3761 0.0021
H15 H 0.5481 1.2605 0.0277
loop_
_geom_bond_atom_site_label_1
_geom_bond_atom_site_label_2
_geom_bond_site_symmetry_1
_geom_bond_site_symmetry_2
N1 H1 1_555 1_555
H2 N1 1_555 1_555
O1 C1 1_555 1_555
O2 C4 1_555 1_555
O3 C7 1_555 1_555
O4 H3 1_555 1_555
O5 H4 1_555 1_555
C1 N1 1_555 1_555
C2 C1 1_555 1_555
H5 C2 1_555 1_555
H6 C2 1_555 1_555
C3 C2 1_555 1_555
H7 C3 1_555 1_555
C4 C3 1_555 1_555
C5 O2 1_555 1_555
C6 C5 1_555 1_555
H8 C6 1_555 1_555
C7 C6 1_555 1_555
C8 O4 1_555 1_555
C9 C3 1_555 1_555
C10 C9 1_555 1_555
H9 C10 1_555 1_555
C11 C10 1_555 1_555
H10 C11 1_555 1_555
C12 O5 1_555 1_555
C13 C12 1_555 1_555
H11 C13 1_555 1_555
C14 C9 1_555 1_555
H12 C14 1_555 1_555
C15 C5 1_555 1_555
H13 C15 1_555 1_555
H14 C15 1_555 1_555
H15 C15 1_555 1_555
C4 C8 1_555 1_555
C7 C8 1_555 1_555
C11 C12 1_555 1_555
C13 C14 1_555 1_555

#END
