
#######################################################################
#
#                 Cambridge Crystallographic Data Centre
#                                CCDC 
#
#######################################################################
#
# If this CIF has been generated from an entry in the Cambridge 
# Structural Database, then it will include bibliographic, chemical, 
# crystal, experimental, refinement or atomic coordinate data resulting 
# from the CCDC's data processing and validation procedures.
#
#######################################################################

data_GOCYAA
_chemical_formula_moiety         'C14 H12 N2 Se1'
_chemical_name_systematic        2-(2-(Methylselanyl)phenyl)-1H-benzimidazole
_symmetry_cell_setting           orthorhombic
_symmetry_space_group_name_H-M   'P b c a'
_symmetry_Int_Tables_number      61
_space_group_name_Hall           '-P 2ac 2ab'
loop_
_symmetry_equiv_pos_site_id
_symmetry_equiv_pos_as_xyz
1 x,y,z
2 1/2+x,1/2-y,-z
3 -x,1/2+y,1/2-z
4 1/2-x,-y,1/2+z
5 -x,-y,-z
6 1/2-x,1/2+y,z
7 x,1/2-y,1/2+z
8 1/2+x,y,1/2-z
_cell_length_a                   15.963(3)
_cell_length_b                   9.9018(15)
_cell_length_c                   16.258(3)
_cell_angle_alpha                90
_cell_angle_beta                 90
_cell_angle_gamma                90
_cell_volume                     2569.78
_exptl_crystal_colour            brown
_exptl_crystal_description       block
_cell_formula_units_Z            8
_exptl_crystal_recrystallization_method 'vapour deposition'
loop_
_atom_site_label
_atom_site_type_symbol
_atom_site_fract_x
_atom_site_fract_y
_atom_site_fract_z
C1 C -0.0532(3) 0.4265(7) 0.2403(4)
H1 H -0.0726 0.3347 0.2420
H2 H -0.0873 0.4774 0.2028
H3 H -0.0569 0.4654 0.2942
C2 C 0.1118(2) 0.3146(3) 0.2843(2)
C3 C 0.0699(2) 0.2819(4) 0.3568(2)
H4 H 0.0166 0.3165 0.3664
C4 C 0.1067(3) 0.1987(5) 0.4142(3)
H5 H 0.0783 0.1785 0.4627
C5 C 0.1842(3) 0.1458(5) 0.4009(3)
H6 H 0.2085 0.0895 0.4400
C6 C 0.2269(2) 0.1759(4) 0.3291(2)
H7 H 0.2795 0.1386 0.3199
C7 C 0.19187(19) 0.2615(3) 0.2703(2)
C8 C 0.24063(18) 0.2872(3) 0.19568(19)
C9 C 0.32437(19) 0.2418(3) 0.0913(2)
C10 C 0.3748(2) 0.1859(4) 0.0308(2)
H8 H 0.3845 0.0934 0.0280
C11 C 0.4099(3) 0.2737(5) -0.0247(2)
H9 H 0.4439 0.2399 -0.0663
C12 C 0.3957(3) 0.4116(5) -0.0203(3)
H10 H 0.4216 0.4680 -0.0583
C13 C 0.3447(2) 0.4673(4) 0.0385(2)
H11 H 0.3353 0.5600 0.0405
C14 C 0.3074(2) 0.3803(3) 0.0953(2)
N1 N 0.28108(17) 0.1868(3) 0.15640(17)
H12 H 0.2801 0.1028 0.1697
N2 N 0.25432(17) 0.4066(2) 0.16094(17)
Se1 Se 0.06202(2) 0.43006(5) 0.20356(3)
loop_
_geom_bond_atom_site_label_1
_geom_bond_atom_site_label_2
_geom_bond_site_symmetry_1
_geom_bond_site_symmetry_2
C1 H1 1_555 1_555
H2 C1 1_555 1_555
H3 C1 1_555 1_555
C2 C3 1_555 1_555
C3 H4 1_555 1_555
C4 C3 1_555 1_555
H5 C4 1_555 1_555
C5 C4 1_555 1_555
H6 C5 1_555 1_555
C6 C5 1_555 1_555
H7 C6 1_555 1_555
C7 C2 1_555 1_555
C8 C7 1_555 1_555
C9 C10 1_555 1_555
C10 H8 1_555 1_555
C11 C10 1_555 1_555
H9 C11 1_555 1_555
C12 C11 1_555 1_555
H10 C12 1_555 1_555
C13 C12 1_555 1_555
H11 C13 1_555 1_555
C14 C9 1_555 1_555
N1 C8 1_555 1_555
H12 N1 1_555 1_555
N2 C8 1_555 1_555
Se1 C1 1_555 1_555
C2 Se1 1_555 1_555
C6 C7 1_555 1_555
C9 N1 1_555 1_555
C13 C14 1_555 1_555
C14 N2 1_555 1_555

#END
