
#######################################################################
#
#                 Cambridge Crystallographic Data Centre
#                                CCDC 
#
#######################################################################
#
# If this CIF has been generated from an entry in the Cambridge 
# Structural Database, then it will include bibliographic, chemical, 
# crystal, experimental, refinement or atomic coordinate data resulting 
# from the CCDC's data processing and validation procedures.
#
#######################################################################

data_GOCZUU
_chemical_name_common            '2,4-Dioxopentan-3-yl dimethylcarbamodithioate'
_chemical_formula_moiety         'C8 H13 N1 O2 S2'
_chemical_name_systematic        
'4-Hydroxy-2-oxopent-3-en-3-yl N,N-dimethyldithiocarbamate'
_symmetry_cell_setting           monoclinic
_symmetry_space_group_name_H-M   'P 21/n'
_symmetry_Int_Tables_number      14
_space_group_name_Hall           '-P 2yn'
loop_
_symmetry_equiv_pos_site_id
_symmetry_equiv_pos_as_xyz
1 x,y,z
2 1/2-x,1/2+y,1/2-z
3 -x,-y,-z
4 1/2+x,1/2-y,1/2+z
_cell_length_a                   6.118(5)
_cell_length_b                   27.326(5)
_cell_length_c                   7.103(5)
_cell_angle_alpha                90
_cell_angle_beta                 111.621(5)
_cell_angle_gamma                90
_cell_volume                     1103.93
_exptl_crystal_colour            white
_chemical_melting_point          '54-55 deg.C'
_cell_formula_units_Z            4
loop_
_atom_site_label
_atom_site_type_symbol
_atom_site_fract_x
_atom_site_fract_y
_atom_site_fract_z
C1 C -0.4392(5) 0.11754(11) -0.2866(4)
H1 H -0.5338 0.1160 -0.4284
H2 H -0.3952 0.1509 -0.2487
H3 H -0.5275 0.1052 -0.2097
C2 C -0.2240(4) 0.08739(8) -0.2447(4)
C3 C -0.0478(4) 0.08174(7) -0.0542(3)
C4 C 0.1529(4) 0.05223(8) -0.0296(4)
C5 C 0.3453(5) 0.04444(9) 0.1685(4)
H4 H 0.4622 0.0234 0.1512
H5 H 0.2832 0.0295 0.2606
H6 H 0.4153 0.0753 0.2222
C6 C 0.0838(3) 0.16507(7) 0.1880(3)
C7 C -0.0759(5) 0.18101(10) 0.4523(4)
H7 H -0.0604 0.2062 0.5504
H8 H -0.0255 0.1503 0.5204
H9 H -0.2374 0.1785 0.3629
C8 C 0.2065(5) 0.23792(9) 0.3960(4)
H10 H 0.1740 0.2533 0.5044
H11 H 0.1652 0.2598 0.2825
H12 H 0.3709 0.2302 0.4406
N1 N 0.0686(3) 0.19296(6) 0.3359(3)
O1 O -0.2092(3) 0.06585(7) -0.4013(2)
H13 H -0.0871 0.0499 -0.3673
O2 O 0.1699(3) 0.03132(7) -0.1846(3)
S1 S -0.07888(10) 0.10911(2) 0.15693(9)
S2 S 0.24014(11) 0.17865(2) 0.04760(10)
loop_
_geom_bond_atom_site_label_1
_geom_bond_atom_site_label_2
_geom_bond_site_symmetry_1
_geom_bond_site_symmetry_2
C1 H1 1_555 1_555
H2 C1 1_555 1_555
H3 C1 1_555 1_555
C2 C1 1_555 1_555
C3 C2 1_555 1_555
C4 C3 1_555 1_555
C5 C4 1_555 1_555
H4 C5 1_555 1_555
H5 C5 1_555 1_555
H6 C5 1_555 1_555
C6 N1 1_555 1_555
C7 H7 1_555 1_555
H8 C7 1_555 1_555
H9 C7 1_555 1_555
C8 H10 1_555 1_555
H11 C8 1_555 1_555
H12 C8 1_555 1_555
N1 C7 1_555 1_555
O1 C2 1_555 1_555
H13 O1 1_555 1_555
O2 C4 1_555 1_555
S1 C3 1_555 1_555
S2 C6 1_555 1_555
C6 S1 1_555 1_555
C8 N1 1_555 1_555

#END
