
#######################################################################
#
#                 Cambridge Crystallographic Data Centre
#                                CCDC 
#
#######################################################################
#
# If this CIF has been generated from an entry in the Cambridge 
# Structural Database, then it will include bibliographic, chemical, 
# crystal, experimental, refinement or atomic coordinate data resulting 
# from the CCDC's data processing and validation procedures.
#
#######################################################################

data_GOCZII
_chemical_name_common            Methylazacalix(7)pyridine
_chemical_formula_moiety         'C42 H42 N14'
_chemical_name_systematic        
2,4,6,8,10,12,14-Heptamethyl-2,4,6,8,10,12,14-hepta-aza-1,3,5,7,9,11,13(2,6)-heptapyridinatetradecaphane
_symmetry_cell_setting           orthorhombic
_symmetry_space_group_name_H-M   'P b c n'
_symmetry_Int_Tables_number      60
_space_group_name_Hall           '-P 2n 2ab'
loop_
_symmetry_equiv_pos_site_id
_symmetry_equiv_pos_as_xyz
1 x,y,z
2 1/2-x,1/2-y,1/2+z
3 -x,y,1/2-z
4 1/2+x,1/2-y,-z
5 -x,-y,-z
6 1/2+x,1/2+y,1/2-z
7 x,-y,1/2+z
8 1/2-x,1/2+y,z
_cell_length_a                   27.601(6)
_cell_length_b                   15.053(3)
_cell_length_c                   9.1793(18)
_cell_angle_alpha                90
_cell_angle_beta                 90
_cell_angle_gamma                90
_cell_volume                     3813.8
_exptl_crystal_colour            colorless
_exptl_crystal_description       block
_chemical_melting_point          '237-238 deg.C'
_cell_formula_units_Z            4
loop_
_atom_site_label
_atom_site_type_symbol
_atom_site_fract_x
_atom_site_fract_y
_atom_site_fract_z
N1 N 0.41807(12) 0.54613(18) 0.2631(4)
N2 N 0.33633(11) 0.5145(2) 0.2760(3)
N3 N 0.32065(11) 0.36746(19) 0.2161(3)
N4 N 0.29945(11) 0.22513(19) 0.1400(3)
N5 N 0.36251(10) 0.12119(18) 0.1260(3)
N6 N 0.42845(11) 0.02250(17) 0.1226(3)
N7 N 0.5000 0.0325(2) 0.2500
C1 C 0.5000 0.4570(7) 0.2500
C2 C 0.46198(14) 0.1690(2) 0.1857(4)
H4 H 0.4364 0.1996 0.1427
C3 C 0.45622(15) 0.5987(3) 0.2804(5)
N8 N 0.5000 0.5570(4) 0.2500
C4 C 0.45153(18) 0.6861(3) 0.3307(5)
H5 H 0.4785 0.7219 0.3467
C5 C 0.40560(18) 0.7164(3) 0.3552(5)
H6 H 0.4012 0.7750 0.3849
C6 C 0.36607(18) 0.6630(3) 0.3374(5)
H7 H 0.3349 0.6842 0.3533
C7 C 0.37433(14) 0.5760(2) 0.2946(4)
C8 C 0.29071(17) 0.5435(3) 0.2201(7)
H8 H 0.2909 0.6071 0.2105
H9 H 0.2653 0.5261 0.2857
H10 H 0.2852 0.5170 0.1264
C9 C 0.34483(14) 0.4237(2) 0.3007(4)
C10 C 0.32604(13) 0.2800(2) 0.2389(4)
C11 C 0.35328(14) 0.2464(3) 0.3511(3)
H11 H 0.3550 0.1855 0.3678
C12 C 0.37467(16) 0.3951(2) 0.4137(4)
H12 H 0.3917 0.4355 0.4706
C13 C 0.25553(15) 0.2636(3) 0.0773(5)
H13 H 0.2451 0.3127 0.1360
H14 H 0.2305 0.2194 0.0745
H15 H 0.2622 0.2839 -0.0198
C14 C 0.32097(13) 0.1520(2) 0.0705(4)
C15 C 0.29939(15) 0.1141(3) -0.0522(4)
H16 H 0.2698 0.1345 -0.0877
C16 C 0.32382(17) 0.0453(3) -0.1184(5)
H17 H 0.3106 0.0191 -0.2012
C17 C 0.36704(15) 0.0143(3) -0.0657(4)
H18 H 0.3836 -0.0315 -0.1120
C18 C 0.38533(13) 0.0542(2) 0.0602(3)
C19 C 0.43848(17) -0.0731(2) 0.1093(5)
H19 H 0.4687 -0.0866 0.1564
H20 H 0.4405 -0.0889 0.0082
H21 H 0.4129 -0.1062 0.1547
C20 C 0.46340(12) 0.0766(2) 0.1877(4)
C21 C 0.37818(16) 0.3057(3) 0.4384(4)
H22 H 0.3974 0.2848 0.5143
C22 C 0.5000 0.2133(3) 0.2500
H23 H 0.5000 0.2750 0.2500
N1B N 0.58193(12) 0.54613(18) 0.2369(4)
N2B N 0.66367(11) 0.5145(2) 0.2240(3)
N3B N 0.67935(11) 0.36746(19) 0.2839(3)
N4B N 0.70055(11) 0.22513(19) 0.3600(3)
N5B N 0.63749(10) 0.12119(18) 0.3740(3)
N6B N 0.57155(11) 0.02250(17) 0.3774(3)
C2B C 0.53802(14) 0.1690(2) 0.3143(4)
H4B H 0.5636 0.1996 0.3573
C3B C 0.54378(15) 0.5987(3) 0.2196(5)
C4B C 0.54847(18) 0.6861(3) 0.1693(5)
H5B H 0.5215 0.7219 0.1533
C5B C 0.59440(18) 0.7164(3) 0.1448(5)
H6B H 0.5988 0.7750 0.1151
C6B C 0.63393(18) 0.6630(3) 0.1626(5)
H7B H 0.6651 0.6842 0.1467
C7B C 0.62567(14) 0.5760(2) 0.2054(4)
C8B C 0.70929(17) 0.5435(3) 0.2799(7)
H8B H 0.7091 0.6071 0.2895
H9B H 0.7347 0.5261 0.2143
H10B H 0.7148 0.5170 0.3736
C9B C 0.65517(14) 0.4237(2) 0.1993(4)
C10B C 0.67396(13) 0.2800(2) 0.2611(4)
C11B C 0.64672(14) 0.2464(3) 0.1489(3)
H11B H 0.6450 0.1855 0.1322
C12B C 0.62533(16) 0.3951(2) 0.0863(4)
H12B H 0.6083 0.4355 0.0294
C13B C 0.74447(15) 0.2636(3) 0.4227(5)
H13B H 0.7549 0.3127 0.3640
H14B H 0.7695 0.2194 0.4255
H15B H 0.7378 0.2839 0.5198
C14B C 0.67903(13) 0.1520(2) 0.4295(4)
C15B C 0.70061(15) 0.1141(3) 0.5522(4)
H16B H 0.7302 0.1345 0.5877
C16B C 0.67618(17) 0.0453(3) 0.6184(5)
H17B H 0.6894 0.0191 0.7012
C17B C 0.63296(15) 0.0143(3) 0.5657(4)
H18B H 0.6164 -0.0315 0.6120
C18B C 0.61467(13) 0.0542(2) 0.4398(3)
C19B C 0.56152(17) -0.0731(2) 0.3907(5)
H19B H 0.5313 -0.0866 0.3436
H20B H 0.5595 -0.0889 0.4918
H21B H 0.5871 -0.1062 0.3453
C20B C 0.53660(12) 0.0766(2) 0.3123(4)
C21B C 0.62182(16) 0.3057(3) 0.0616(4)
H22B H 0.6026 0.2848 -0.0143
H1? H 0.4681 0.4358 0.2728
H2? H 0.5225 0.4358 0.3217
H3? H 0.5094 0.4358 0.1555
loop_
_geom_bond_atom_site_label_1
_geom_bond_atom_site_label_2
_geom_bond_site_symmetry_1
_geom_bond_site_symmetry_2
N1 C3 1_555 1_555
N2 C7 1_555 1_555
N3 C9 1_555 1_555
N4 C10 1_555 1_555
N5 C14 1_555 1_555
N6 C18 1_555 1_555
N7 C20 1_555 1_555
C1 N8 1_555 1_555
C2 H4 1_555 1_555
C3 N8 1_555 1_555
N8 C3B 1_555 1_555
C4 C3 1_555 1_555
H5 C4 1_555 1_555
C5 C4 1_555 1_555
H6 C5 1_555 1_555
C6 C5 1_555 1_555
H7 C6 1_555 1_555
C7 N1 1_555 1_555
C8 N2 1_555 1_555
H8 C8 1_555 1_555
H9 C8 1_555 1_555
H10 C8 1_555 1_555
C9 N2 1_555 1_555
C10 N3 1_555 1_555
C11 C10 1_555 1_555
H11 C11 1_555 1_555
C12 C9 1_555 1_555
H12 C12 1_555 1_555
C13 N4 1_555 1_555
H13 C13 1_555 1_555
H14 C13 1_555 1_555
H15 C13 1_555 1_555
C14 N4 1_555 1_555
C15 C14 1_555 1_555
H16 C15 1_555 1_555
C16 C15 1_555 1_555
H17 C16 1_555 1_555
C17 C16 1_555 1_555
H18 C17 1_555 1_555
C18 N5 1_555 1_555
C19 N6 1_555 1_555
H19 C19 1_555 1_555
H20 C19 1_555 1_555
H21 C19 1_555 1_555
C20 N6 1_555 1_555
C21 C11 1_555 1_555
H22 C21 1_555 1_555
C22 C2 1_555 1_555
H23 C22 1_555 1_555
N1B C3B 1_555 1_555
N2B C7B 1_555 1_555
N3B C9B 1_555 1_555
N4B C10B 1_555 1_555
N5B C14B 1_555 1_555
N6B C18B 1_555 1_555
C2B C22 1_555 1_555
H4B C2B 1_555 1_555
C3B C4B 1_555 1_555
C4B H5B 1_555 1_555
C5B C4B 1_555 1_555
H6B C5B 1_555 1_555
C6B C5B 1_555 1_555
H7B C6B 1_555 1_555
C7B N1B 1_555 1_555
C8B N2B 1_555 1_555
H8B C8B 1_555 1_555
H9B C8B 1_555 1_555
H10B C8B 1_555 1_555
C9B N2B 1_555 1_555
C10B N3B 1_555 1_555
C11B C10B 1_555 1_555
H11B C11B 1_555 1_555
C12B C9B 1_555 1_555
H12B C12B 1_555 1_555
C13B N4B 1_555 1_555
H13B C13B 1_555 1_555
H14B C13B 1_555 1_555
H15B C13B 1_555 1_555
C14B N4B 1_555 1_555
C15B C14B 1_555 1_555
H16B C15B 1_555 1_555
C16B C15B 1_555 1_555
H17B C16B 1_555 1_555
C17B C16B 1_555 1_555
H18B C17B 1_555 1_555
C18B N5B 1_555 1_555
C19B N6B 1_555 1_555
H19B C19B 1_555 1_555
H20B C19B 1_555 1_555
H21B C19B 1_555 1_555
C20B N7 1_555 1_555
C21B C11B 1_555 1_555
H22B C21B 1_555 1_555
C2 C20 1_555 1_555
C6 C7 1_555 1_555
C12 C21 1_555 1_555
C17 C18 1_555 1_555
N6B C20B 1_555 1_555
C2B C20B 1_555 1_555
C6B C7B 1_555 1_555
C12B C21B 1_555 1_555
C17B C18B 1_555 1_555

#END
