
#######################################################################
#
#                 Cambridge Crystallographic Data Centre
#                                CCDC 
#
#######################################################################
#
# If this CIF has been generated from an entry in the Cambridge 
# Structural Database, then it will include bibliographic, chemical, 
# crystal, experimental, refinement or atomic coordinate data resulting 
# from the CCDC's data processing and validation procedures.
#
#######################################################################

data_GODJEP
_chemical_formula_moiety         'C18 H17 Cl1 O2'
_chemical_name_systematic        2-Chloro-1-pentyl-6H-benzo(c)chromen-6-one
_symmetry_cell_setting           triclinic
_symmetry_space_group_name_H-M   'P -1'
_symmetry_Int_Tables_number      2
_space_group_name_Hall           '-P 1'
loop_
_symmetry_equiv_pos_site_id
_symmetry_equiv_pos_as_xyz
1 x,y,z
2 -x,-y,-z
_cell_length_a                   10.790(3)
_cell_length_b                   12.210(4)
_cell_length_c                   13.502(4)
_cell_angle_alpha                71.731(5)
_cell_angle_beta                 67.179(5)
_cell_angle_gamma                68.035(5)
_cell_volume                     1490.77
_exptl_crystal_colour            white
_chemical_melting_point          '84-85 deg.C'
_cell_formula_units_Z            4
loop_
_atom_site_label
_atom_site_type_symbol
_atom_site_fract_x
_atom_site_fract_y
_atom_site_fract_z
Cl1 Cl 0.60733(11) 0.55858(10) 0.26598(8)
O1 O 0.4785(2) 0.7554(2) -0.14651(16)
O2 O 0.3758(3) 0.7867(3) -0.26773(19)
C1 C 0.3773(4) 0.7452(3) -0.1746(3)
C2 C 0.2762(3) 0.6857(3) -0.0882(2)
C3 C 0.1684(4) 0.6805(3) -0.1162(3)
H1 H 0.1665 0.7098 -0.1882
C4 C 0.0642(4) 0.6329(3) -0.0398(3)
H2 H -0.0064 0.6275 -0.0598
C5 C 0.0662(4) 0.5934(3) 0.0668(3)
H3 H -0.0059 0.5637 0.1198
C6 C 0.1730(4) 0.5969(3) 0.0964(3)
H4 H 0.1709 0.5699 0.1694
C7 C 0.2843(3) 0.6398(2) 0.0203(2)
C8 C 0.4062(3) 0.6453(2) 0.0418(2)
C9 C 0.4956(3) 0.7065(3) -0.0435(2)
C10 C 0.6089(4) 0.7243(4) -0.0353(3)
H5 H 0.6642 0.7663 -0.0949
C11 C 0.6399(4) 0.6798(4) 0.0608(3)
H6 H 0.7152 0.6924 0.0685
C12 C 0.5571(3) 0.6156(3) 0.1466(3)
C13 C 0.4431(3) 0.5935(3) 0.1412(2)
C14 C 0.3667(3) 0.5174(3) 0.2407(2)
H7 H 0.4338 0.4563 0.2755
H8 H 0.3236 0.4766 0.2177
C15 C 0.2531(3) 0.5925(3) 0.3241(2)
H9 H 0.2956 0.6374 0.3428
H10 H 0.1835 0.6504 0.2901
C16 C 0.1791(3) 0.5184(3) 0.4292(2)
H11 H 0.0990 0.5732 0.4712
H12 H 0.1434 0.4688 0.4096
C17 C 0.2682(4) 0.4379(3) 0.5019(3)
H13 H 0.3129 0.4852 0.5153
H14 H 0.3416 0.3760 0.4640
C18 C 0.1839(4) 0.3780(3) 0.6116(3)
H15 H 0.1147 0.4387 0.6515
H16 H 0.2460 0.3256 0.6533
H17 H 0.1381 0.3320 0.5990
Cl2 Cl 0.45688(11) 0.94079(11) 0.24420(9)
O3 O 0.0944(3) 0.7110(2) 0.63399(17)
O4 O -0.0984(3) 0.6716(3) 0.7476(2)
C19 C -0.0440(4) 0.7240(3) 0.6597(3)
C20 C -0.1135(3) 0.8012(3) 0.5773(2)
C21 C -0.2549(4) 0.8127(3) 0.6039(3)
H18 H -0.3005 0.7737 0.6720
C22 C -0.3279(4) 0.8799(3) 0.5319(3)
H19 H -0.4234 0.8892 0.5511
C23 C -0.2580(4) 0.9337(3) 0.4306(3)
H20 H -0.3067 0.9786 0.3803
C24 C -0.1174(4) 0.9227(3) 0.4016(3)
H21 H -0.0728 0.9584 0.3313
C25 C -0.0393(3) 0.8595(2) 0.4748(2)
C26 C 0.1100(3) 0.8468(2) 0.4546(2)
C27 C 0.1691(3) 0.7705(3) 0.5363(2)
C28 C 0.3069(4) 0.7455(3) 0.5300(3)
H22 H 0.3406 0.6936 0.5869
C29 C 0.3929(4) 0.7979(3) 0.4392(3)
H23 H 0.4870 0.7811 0.4324
C30 C 0.3386(4) 0.8764(3) 0.3572(3)
C31 C 0.1997(3) 0.9052(3) 0.3618(2)
C32 C 0.1544(4) 0.9978(3) 0.2677(2)
H24 H 0.2037 1.0583 0.2430
H25 H 0.0547 1.0377 0.2938
C33 C 0.1830(4) 0.9435(3) 0.1712(2)
H26 H 0.1256 0.8897 0.1932
H27 H 0.2808 0.8965 0.1493
C34 C 0.1503(4) 1.0420(3) 0.0734(3)
H28 H 0.0496 1.0791 0.0919
H29 H 0.1937 1.1037 0.0613
C35 C 0.1994(5) 0.9981(4) -0.0295(3)
H30 H 0.1575 0.9353 -0.0171
H31 H 0.3004 0.9624 -0.0488
C36 C 0.1647(5) 1.0952(4) -0.1252(3)
H32 H 0.0650 1.1322 -0.1064
H33 H 0.1956 1.0598 -0.1881
H34 H 0.2114 1.1549 -0.1416
loop_
_geom_bond_atom_site_label_1
_geom_bond_atom_site_label_2
_geom_bond_site_symmetry_1
_geom_bond_site_symmetry_2
Cl1 C12 1_555 1_555
Cl2 C30 1_555 1_555
O1 C1 1_555 1_555
O2 C1 1_555 1_555
O3 C19 1_555 1_555
O4 C19 1_555 1_555
C1 C2 1_555 1_555
C2 C3 1_555 1_555
C3 H1 1_555 1_555
C4 C3 1_555 1_555
H2 C4 1_555 1_555
C5 C4 1_555 1_555
H3 C5 1_555 1_555
C6 C5 1_555 1_555
H4 C6 1_555 1_555
C7 C2 1_555 1_555
C8 C7 1_555 1_555
C9 O1 1_555 1_555
C10 C9 1_555 1_555
H5 C10 1_555 1_555
C11 C10 1_555 1_555
H6 C11 1_555 1_555
C12 C11 1_555 1_555
C13 C8 1_555 1_555
C14 C13 1_555 1_555
H7 C14 1_555 1_555
H8 C14 1_555 1_555
C15 C14 1_555 1_555
H9 C15 1_555 1_555
H10 C15 1_555 1_555
C16 C15 1_555 1_555
H11 C16 1_555 1_555
H12 C16 1_555 1_555
C17 C16 1_555 1_555
H13 C17 1_555 1_555
H14 C17 1_555 1_555
C18 C17 1_555 1_555
H15 C18 1_555 1_555
H16 C18 1_555 1_555
H17 C18 1_555 1_555
C19 C20 1_555 1_555
C20 C21 1_555 1_555
C21 H18 1_555 1_555
C22 C21 1_555 1_555
H19 C22 1_555 1_555
C23 C22 1_555 1_555
H20 C23 1_555 1_555
C24 C23 1_555 1_555
H21 C24 1_555 1_555
C25 C20 1_555 1_555
C26 C25 1_555 1_555
C27 O3 1_555 1_555
C28 C27 1_555 1_555
H22 C28 1_555 1_555
C29 C28 1_555 1_555
H23 C29 1_555 1_555
C30 C29 1_555 1_555
C31 C26 1_555 1_555
C32 C31 1_555 1_555
H24 C32 1_555 1_555
H25 C32 1_555 1_555
C33 C32 1_555 1_555
H26 C33 1_555 1_555
H27 C33 1_555 1_555
C34 C33 1_555 1_555
H28 C34 1_555 1_555
H29 C34 1_555 1_555
C35 C34 1_555 1_555
H30 C35 1_555 1_555
H31 C35 1_555 1_555
C36 C35 1_555 1_555
H32 C36 1_555 1_555
H33 C36 1_555 1_555
H34 C36 1_555 1_555
C6 C7 1_555 1_555
C8 C9 1_555 1_555
C12 C13 1_555 1_555
C24 C25 1_555 1_555
C26 C27 1_555 1_555
C30 C31 1_555 1_555

#END
