
#######################################################################
#
#                 Cambridge Crystallographic Data Centre
#                                CCDC 
#
#######################################################################
#
# If this CIF has been generated from an entry in the Cambridge 
# Structural Database, then it will include bibliographic, chemical, 
# crystal, experimental, refinement or atomic coordinate data resulting 
# from the CCDC's data processing and validation procedures.
#
#######################################################################

data_GODJAL
_chemical_formula_moiety         'C17 H15 Cl3 O2'
_chemical_name_systematic        
(Z)-2,3-Dichloro-1-(1-chloro-3-methylbutylidene)-2,3-dihydrocyclopenta(c)isochromen-5(1H)-one
_symmetry_cell_setting           triclinic
_symmetry_space_group_name_H-M   'P -1'
_symmetry_Int_Tables_number      2
_space_group_name_Hall           '-P 1'
loop_
_symmetry_equiv_pos_site_id
_symmetry_equiv_pos_as_xyz
1 x,y,z
2 -x,-y,-z
_cell_length_a                   7.21130(10)
_cell_length_b                   9.01260(10)
_cell_length_c                   14.2796(3)
_cell_angle_alpha                105.4050(10)
_cell_angle_beta                 90.5200(10)
_cell_angle_gamma                112.8580(10)
_cell_volume                     817.852
_exptl_crystal_colour            white
_exptl_crystal_description       prism
_cell_formula_units_Z            2
loop_
_atom_site_label
_atom_site_type_symbol
_atom_site_fract_x
_atom_site_fract_y
_atom_site_fract_z
Cl1 Cl 0.31736(7) -0.34013(6) 0.25126(4)
Cl2 Cl -0.17957(6) -0.19452(5) 0.29003(3)
Cl3 Cl 0.27087(7) 0.15406(6) 0.46980(3)
O1 O 0.2187(2) -0.28649(17) -0.10837(9)
O2 O 0.16203(18) -0.29173(14) 0.04278(8)
C1 C 0.2152(3) -0.2057(2) -0.02725(12)
C2 C 0.2545(2) -0.0256(2) 0.00428(11)
C3 C 0.2859(3) 0.0586(2) -0.06706(12)
H1 H 0.2881 -0.0006 -0.1334
C4 C 0.3109(3) 0.2242(2) -0.04273(13)
H2 H 0.3397 0.2843 -0.0908
C5 C 0.2978(3) 0.3061(2) 0.05295(13)
H3 H 0.3075 0.4195 0.0700
C6 C 0.2679(2) 0.2251(2) 0.12453(11)
H4 H 0.2576 0.2820 0.1901
C7 C 0.2525(2) 0.0596(2) 0.10246(11)
C8 C 0.2204(2) -0.03751(19) 0.17159(11)
C9 C 0.1675(2) -0.2045(2) 0.13725(11)
C10 C 0.1098(2) -0.2947(2) 0.21228(12)
H5 H -0.0099 -0.3975 0.1902
C11 C 0.0838(2) -0.1616(2) 0.29736(11)
H6 H 0.1264 -0.1652 0.3603
C12 C 0.2130(2) 0.0031(2) 0.27887(11)
C13 C 0.3217(2) 0.1453(2) 0.34921(11)
C14 C 0.4988(2) 0.2960(2) 0.34081(11)
H7 H 0.5234 0.2795 0.2737
H8 H 0.4708 0.3946 0.3629
C15 C 0.6958(3) 0.3279(2) 0.40091(12)
H9 H 0.6813 0.3609 0.4692
C16 C 0.7383(3) 0.1709(2) 0.38000(16)
H10 H 0.8615 0.1940 0.4184
H11 H 0.7511 0.1349 0.3117
H12 H 0.6275 0.0837 0.3961
C17 C 0.8701(3) 0.4705(2) 0.37844(14)
H13 H 0.9932 0.4918 0.4162
H14 H 0.8446 0.5707 0.3943
H15 H 0.8832 0.4381 0.3099
loop_
_geom_bond_atom_site_label_1
_geom_bond_atom_site_label_2
_geom_bond_site_symmetry_1
_geom_bond_site_symmetry_2
Cl1 C10 1_555 1_555
Cl2 C11 1_555 1_555
Cl3 C13 1_555 1_555
O1 C1 1_555 1_555
O2 C1 1_555 1_555
C1 C2 1_555 1_555
C2 C3 1_555 1_555
C3 H1 1_555 1_555
C4 C3 1_555 1_555
H2 C4 1_555 1_555
C5 C4 1_555 1_555
H3 C5 1_555 1_555
C6 C5 1_555 1_555
H4 C6 1_555 1_555
C7 C2 1_555 1_555
C8 C7 1_555 1_555
C9 O2 1_555 1_555
C10 C9 1_555 1_555
H5 C10 1_555 1_555
C11 C10 1_555 1_555
H6 C11 1_555 1_555
C12 C8 1_555 1_555
C13 C12 1_555 1_555
C14 C13 1_555 1_555
H7 C14 1_555 1_555
H8 C14 1_555 1_555
C15 C14 1_555 1_555
H9 C15 1_555 1_555
C16 C15 1_555 1_555
H10 C16 1_555 1_555
H11 C16 1_555 1_555
H12 C16 1_555 1_555
C17 C15 1_555 1_555
H13 C17 1_555 1_555
H14 C17 1_555 1_555
H15 C17 1_555 1_555
C6 C7 1_555 1_555
C8 C9 1_555 1_555
C11 C12 1_555 1_555

#END
