
#######################################################################
#
#                 Cambridge Crystallographic Data Centre
#                                CCDC 
#
#######################################################################
#
# If this CIF has been generated from an entry in the Cambridge 
# Structural Database, then it will include bibliographic, chemical, 
# crystal, experimental, refinement or atomic coordinate data resulting 
# from the CCDC's data processing and validation procedures.
#
#######################################################################

data_GODSUP
_chemical_formula_moiety         'C9 H8 O4'
_chemical_name_systematic        2-Hydroxy-5-methoxy-1-benzofuran-3(2H)-one
_symmetry_cell_setting           orthorhombic
_symmetry_space_group_name_H-M   'P n a 21'
_symmetry_Int_Tables_number      33
_space_group_name_Hall           'P 2c -2n'
loop_
_symmetry_equiv_pos_site_id
_symmetry_equiv_pos_as_xyz
1 x,y,z
2 -x,-y,1/2+z
3 1/2-x,1/2+y,1/2+z
4 1/2+x,1/2-y,z
_cell_length_a                   20.870(5)
_cell_length_b                   3.9446(9)
_cell_length_c                   9.784(2)
_cell_angle_alpha                90
_cell_angle_beta                 90
_cell_angle_gamma                90
_cell_volume                     805.456
_exptl_crystal_colour            red
_exptl_crystal_description       block
_cell_formula_units_Z            4
loop_
_atom_site_label
_atom_site_type_symbol
_atom_site_fract_x
_atom_site_fract_y
_atom_site_fract_z
C1 C 0.33456(9) 0.0417(5) 0.8238(2)
C2 C 0.28764(10) -0.0550(5) 0.9191(2)
H1 H 0.2503 -0.1572 0.8878
C3 C 0.29514(10) -0.0035(5) 1.0570(2)
H2 H 0.2640 -0.0709 1.1193
C4 C 0.35097(9) 0.1527(5) 1.0990(2)
C5 C 0.39704(9) 0.2566(4) 1.0061(2)
C6 C 0.38983(9) 0.2010(4) 0.86620(19)
H3 H 0.4210 0.2686 0.8041
C7 C 0.44792(10) 0.4052(5) 1.0853(2)
C8 C 0.42813(9) 0.3789(5) 1.2363(2)
H4 H 0.4251 0.6050 1.2773
C9 C 0.36616(11) 0.0456(6) 0.5886(2)
H5 H 0.3733 0.2860 0.5890
H6 H 0.3504 -0.0225 0.5006
H7 H 0.4057 -0.0697 0.6074
O1 O 0.32013(6) -0.0392(4) 0.69105(16)
O2 O 0.36578(7) 0.2164(4) 1.23381(16)
O3 O 0.49884(7) 0.5318(4) 1.05042(16)
O4 O 0.47112(8) 0.1829(4) 1.30681(17)
H8 H 0.4760 0.2607 1.3838
loop_
_geom_bond_atom_site_label_1
_geom_bond_atom_site_label_2
_geom_bond_site_symmetry_1
_geom_bond_site_symmetry_2
C1 C2 1_555 1_555
C2 H1 1_555 1_555
C3 C2 1_555 1_555
H2 C3 1_555 1_555
C4 C3 1_555 1_555
C5 C4 1_555 1_555
C6 C1 1_555 1_555
H3 C6 1_555 1_555
C7 C5 1_555 1_555
C8 C7 1_555 1_555
H4 C8 1_555 1_555
C9 H5 1_555 1_555
H6 C9 1_555 1_555
H7 C9 1_555 1_555
O1 C1 1_555 1_555
O2 C4 1_555 1_555
O3 C7 1_555 1_555
O4 C8 1_555 1_555
H8 O4 1_555 1_555
C5 C6 1_555 1_555
C8 O2 1_555 1_555
C9 O1 1_555 1_555

#END
