
#######################################################################
#
#                 Cambridge Crystallographic Data Centre
#                                CCDC 
#
#######################################################################
#
# If this CIF has been generated from an entry in the Cambridge 
# Structural Database, then it will include bibliographic, chemical, 
# crystal, experimental, refinement or atomic coordinate data resulting 
# from the CCDC's data processing and validation procedures.
#
#######################################################################

data_GODXII
_chemical_formula_moiety         'C23 H19 N3'
_chemical_name_systematic        
6-(3-phenylpropyl)-6H-indolo[2,3-b]quinoxaline
_symmetry_cell_setting           triclinic
_symmetry_space_group_name_H-M   'P -1'
_symmetry_Int_Tables_number      2
_space_group_name_Hall           '-P 1'
loop_
_symmetry_equiv_pos_site_id
_symmetry_equiv_pos_as_xyz
1 x,y,z
2 -x,-y,-z
_cell_length_a                   7.3149(3)
_cell_length_b                   15.0792(8)
_cell_length_c                   16.8977(8)
_cell_angle_alpha                72.116(2)
_cell_angle_beta                 88.582(2)
_cell_angle_gamma                77.750(2)
_cell_volume                     1731.78
_exptl_crystal_colour            yellow
_exptl_crystal_description       needle
_cell_formula_units_Z            4
loop_
_atom_site_label
_atom_site_type_symbol
_atom_site_fract_x
_atom_site_fract_y
_atom_site_fract_z
N1 N 0.76880(15) 1.11750(9) 0.53939(7)
N2 N 0.64164(16) 1.15051(9) 0.36995(7)
N3 N 0.68760(16) 0.98155(9) 0.41242(7)
C1 C 0.69061(18) 1.06625(10) 0.42552(8)
C2 C 0.75366(17) 1.04815(10) 0.51023(8)
C3 C 0.78769(18) 0.94617(10) 0.54863(8)
C4 C 0.74542(18) 0.90803(10) 0.48674(8)
C5 C 0.7627(2) 0.81064(11) 0.50297(9)
H1 H 0.7345 0.7851 0.4610
C6 C 0.8224(2) 0.75221(11) 0.58213(9)
H2 H 0.8349 0.6853 0.5946
C7 C 0.8648(2) 0.78810(12) 0.64437(10)
H3 H 0.9049 0.7458 0.6984
C8 C 0.84896(19) 0.88498(11) 0.62810(9)
H4 H 0.8793 0.9096 0.6703
C9 C 0.65661(19) 1.22363(11) 0.39980(9)
C10 C 0.6053(2) 1.31811(11) 0.34619(10)
H5 H 0.5597 1.3298 0.2910
C11 C 0.6208(2) 1.39268(12) 0.37317(10)
H6 H 0.5862 1.4560 0.3364
C12 C 0.6871(2) 1.37725(12) 0.45461(10)
H7 H 0.6984 1.4300 0.4723
C13 C 0.7355(2) 1.28656(11) 0.50860(10)
H8 H 0.7793 1.2767 0.5637
C14 C 0.72078(19) 1.20771(11) 0.48300(9)
C15 C 0.61646(19) 0.97427(11) 0.33523(8)
H9 H 0.5090 1.0283 0.3124
H10 H 0.5702 0.9145 0.3478
C16 C 0.7631(2) 0.97494(11) 0.26922(9)
H11 H 0.6994 0.9858 0.2150
H12 H 0.8248 1.0288 0.2637
C17 C 0.9114(2) 0.88333(11) 0.28888(9)
H13 H 0.9774 0.8734 0.3424
H14 H 0.8493 0.8292 0.2960
C18 C 1.0539(2) 0.88270(11) 0.22249(9)
C19 C 1.0000(2) 0.89191(12) 0.14166(10)
H15 H 0.8713 0.8996 0.1278
C20 C 1.1296(2) 0.89017(12) 0.08078(10)
H16 H 1.0898 0.8971 0.0257
C21 C 1.3166(2) 0.87831(11) 0.10057(11)
H17 H 1.4067 0.8761 0.0594
C22 C 1.3724(2) 0.86969(12) 0.18013(11)
H18 H 1.5013 0.8615 0.1938
C23 C 1.2421(2) 0.87283(11) 0.24050(10)
H19 H 1.2823 0.8682 0.2949
N4 N 0.79392(15) 0.60009(8) 1.04090(7)
N5 N 0.67162(16) 0.62779(9) 0.87178(7)
N6 N 0.68422(16) 0.46022(8) 0.92268(7)
C24 C 0.70473(18) 0.54545(10) 0.93058(8)
C25 C 0.76624(18) 0.53014(10) 1.01524(8)
C26 C 0.78237(18) 0.42978(10) 1.05850(8)
C27 C 0.73047(18) 0.38980(10) 0.99952(8)
C28 C 0.72787(19) 0.29384(11) 1.01997(9)
H20 H 0.6936 0.2674 0.9797
C29 C 0.7770(2) 0.23824(11) 1.10108(10)
H21 H 0.7772 0.1721 1.1167
C30 C 0.8262(2) 0.27612(11) 1.16050(9)
H22 H 0.8578 0.2358 1.2160
C31 C 0.82977(19) 0.37174(11) 1.14007(9)
H23 H 0.8640 0.3974 1.1809
C32 C 0.69884(18) 0.70155(10) 0.89824(8)
C33 C 0.6613(2) 0.79447(11) 0.84124(9)
H24 H 0.6193 0.8045 0.7858
C34 C 0.6849(2) 0.86985(11) 0.86508(10)
H25 H 0.6607 0.9320 0.8259
C35 C 0.7447(2) 0.85688(11) 0.94697(10)
H26 H 0.7598 0.9102 0.9628
C36 C 0.7813(2) 0.76787(11) 1.00394(9)
H27 H 0.8221 0.7597 1.0592
C37 C 0.75909(18) 0.68811(10) 0.98154(8)
C38 C 0.6093(2) 0.44678(12) 0.84928(9)
H28 H 0.5416 0.5093 0.8124
H29 H 0.5180 0.4052 0.8666
C39 C 0.7600(2) 0.40243(12) 0.80067(10)
H30 H 0.8318 0.3412 0.8380
H31 H 0.6999 0.3888 0.7551
C40 C 0.8934(2) 0.46789(12) 0.76404(10)
H32 H 0.8203 0.5308 0.7302
H33 H 0.9603 0.4776 0.8099
C41 C 1.0346(2) 0.42811(13) 0.71051(10)
C42 C 0.9841(3) 0.43232(14) 0.63098(10)
H34 H 0.8589 0.4606 0.6102
C43 C 1.1118(4) 0.3963(2) 0.58104(14)
H35 H 1.0740 0.3994 0.5267
C44 C 1.2931(4) 0.3560(4) 0.6100(2)
H36 H 1.3821 0.3324 0.5754
C45 C 1.3456(3) 0.3497(3) 0.6893(2)
H37 H 1.4710 0.3209 0.7097
C46 C 1.2175(3) 0.38507(14) 0.73985(15)
H38 H 1.2550 0.3798 0.7948
H39? H 0.4999 0.4994 0.8258
H40? H 0.5656 0.3861 0.8653
C47? C 0.7481(16) 0.4638(9) 0.7763(7)
H41? H 0.6812 0.4760 0.7226
H42? H 0.8009 0.5199 0.7735
C48? C 0.9038(18) 0.3751(9) 0.7930(7)
H43? H 0.9763 0.3687 0.8439
H44? H 0.8460 0.3190 0.8049
C49? C 1.0382(14) 0.3718(10) 0.7249(6)
C50? C 0.9721(19) 0.3826(11) 0.6453(7)
H45? H 0.8414 0.3936 0.6337
C51? C 1.097(3) 0.377(2) 0.5828(9)
H46? H 1.0520 0.3848 0.5284
C52? C 1.288(3) 0.361(3) 0.5999(15)
H47? H 1.3739 0.3578 0.5572
C53? C 1.3546(16) 0.351(3) 0.6794(17)
H48? H 1.4853 0.3396 0.6911
C54? C 1.2295(15) 0.3557(16) 0.7420(11)
H49? H 1.2747 0.3483 0.7963
loop_
_geom_bond_atom_site_label_1
_geom_bond_atom_site_label_2
_geom_bond_site_symmetry_1
_geom_bond_site_symmetry_2
N1 C2 1_555 1_555
N2 C1 1_555 1_555
N3 C1 1_555 1_555
C1 C2 1_555 1_555
C2 C3 1_555 1_555
C3 C4 1_555 1_555
C4 N3 1_555 1_555
C5 C4 1_555 1_555
H1 C5 1_555 1_555
C6 C5 1_555 1_555
H2 C6 1_555 1_555
C7 C6 1_555 1_555
H3 C7 1_555 1_555
C8 C3 1_555 1_555
H4 C8 1_555 1_555
C9 N2 1_555 1_555
C10 C9 1_555 1_555
H5 C10 1_555 1_555
C11 C10 1_555 1_555
H6 C11 1_555 1_555
C12 C11 1_555 1_555
H7 C12 1_555 1_555
C13 C12 1_555 1_555
H8 C13 1_555 1_555
C14 N1 1_555 1_555
C15 N3 1_555 1_555
H9 C15 1_555 1_555
H10 C15 1_555 1_555
C16 C15 1_555 1_555
H11 C16 1_555 1_555
H12 C16 1_555 1_555
C17 C16 1_555 1_555
H13 C17 1_555 1_555
H14 C17 1_555 1_555
C18 C17 1_555 1_555
C19 C18 1_555 1_555
H15 C19 1_555 1_555
C20 C19 1_555 1_555
H16 C20 1_555 1_555
C21 C20 1_555 1_555
H17 C21 1_555 1_555
C22 C21 1_555 1_555
H18 C22 1_555 1_555
C23 C18 1_555 1_555
H19 C23 1_555 1_555
N4 C25 1_555 1_555
N5 C24 1_555 1_555
N6 C24 1_555 1_555
C24 C25 1_555 1_555
C25 C26 1_555 1_555
C26 C27 1_555 1_555
C27 N6 1_555 1_555
C28 C27 1_555 1_555
H20 C28 1_555 1_555
C29 C28 1_555 1_555
H21 C29 1_555 1_555
C30 C29 1_555 1_555
H22 C30 1_555 1_555
C31 C26 1_555 1_555
H23 C31 1_555 1_555
C32 N5 1_555 1_555
C33 C32 1_555 1_555
H24 C33 1_555 1_555
C34 C33 1_555 1_555
H25 C34 1_555 1_555
C35 C34 1_555 1_555
H26 C35 1_555 1_555
C36 C35 1_555 1_555
H27 C36 1_555 1_555
C37 N4 1_555 1_555
C38 N6 1_555 1_555
H28 C38 1_555 1_555
H29 C38 1_555 1_555
C39 C38 1_555 1_555
H30 C39 1_555 1_555
H31 C39 1_555 1_555
C40 C39 1_555 1_555
H32 C40 1_555 1_555
H33 C40 1_555 1_555
C41 C40 1_555 1_555
C42 C41 1_555 1_555
H34 C42 1_555 1_555
C43 C42 1_555 1_555
H35 C43 1_555 1_555
C44 C43 1_555 1_555
H36 C44 1_555 1_555
C45 C44 1_555 1_555
H37 C45 1_555 1_555
C46 C41 1_555 1_555
H38 C46 1_555 1_555
C7 C8 1_555 1_555
C9 C14 1_555 1_555
C13 C14 1_555 1_555
C22 C23 1_555 1_555
C30 C31 1_555 1_555
C32 C37 1_555 1_555
C36 C37 1_555 1_555
C45 C46 1_555 1_555

#END
