
#######################################################################
#
#                 Cambridge Crystallographic Data Centre
#                                CCDC 
#
#######################################################################
#
# If this CIF has been generated from an entry in the Cambridge 
# Structural Database, then it will include bibliographic, chemical, 
# crystal, experimental, refinement or atomic coordinate data resulting 
# from the CCDC's data processing and validation procedures.
#
#######################################################################

data_GODZIK
_chemical_formula_moiety         'C20 H19 N3 O3'
_chemical_name_systematic        
3-benzyl-1-(4-hydroxyphenyl)-6-methyl-3,4-dihydro-1H-pyrrolo[3,4-d]pyrimidine-5,7(2H,6H)-dione
_symmetry_cell_setting           triclinic
_symmetry_space_group_name_H-M   'P -1'
_symmetry_Int_Tables_number      2
_space_group_name_Hall           '-P 1'
loop_
_symmetry_equiv_pos_site_id
_symmetry_equiv_pos_as_xyz
1 x,y,z
2 -x,-y,-z
_cell_length_a                   8.812(2)
_cell_length_b                   9.199(2)
_cell_length_c                   11.414(3)
_cell_angle_alpha                84.112(3)
_cell_angle_beta                 81.535(3)
_cell_angle_gamma                70.356(3)
_cell_volume                     860.494
_cell_formula_units_Z            2
loop_
_atom_site_label
_atom_site_type_symbol
_atom_site_fract_x
_atom_site_fract_y
_atom_site_fract_z
N1 N 0.2522(2) 0.48163(18) 0.60734(13)
O1 O 0.3735(2) 0.10119(17) 0.23169(12)
H1 H 0.3813 0.0119 0.2550
O2 O 0.54759(17) 0.22177(16) 0.69359(12)
C1 C 0.2954(2) 0.3771(2) 0.51442(16)
N2 N 0.0643(2) 0.72729(18) 0.68513(14)
C2 C 0.3503(2) 0.1883(2) 0.32710(16)
C3 C 0.3554(2) 0.3378(2) 0.30540(17)
H2 H 0.3757 0.3756 0.2280
C4 C 0.2939(2) 0.4427(2) 0.71889(16)
O3 O 0.2702(2) 0.48249(19) 1.01922(13)
C5 C 0.3202(3) 0.1337(2) 0.44214(17)
H3 H 0.3199 0.0325 0.4570
C6 C 0.2906(2) 0.2271(2) 0.53508(17)
H4 H 0.2673 0.1898 0.6121
C7 C 0.3302(2) 0.4304(2) 0.39885(17)
H5 H 0.3367 0.5296 0.3842
C8 C 0.4418(2) 0.3149(2) 0.75528(17)
C9 C 0.0922(3) 0.6104(2) 0.60331(19)
H6 H 0.0880 0.6584 0.5236
H7 H 0.0051 0.5661 0.6200
C10 C 0.2135(2) 0.5220(2) 0.81528(16)
C11 C 0.0647(3) 0.6607(2) 0.80795(17)
H8 H -0.0316 0.6310 0.8316
H9 H 0.0641 0.7367 0.8611
C12 C 0.1250(2) 0.9583(2) 0.72488(17)
N3 N 0.4363(2) 0.32538(19) 0.87438(14)
C13 C 0.2182(3) 0.9729(2) 0.8075(2)
H10 H 0.3150 0.8945 0.8190
C14 C -0.0174(3) 1.0775(2) 0.7085(2)
H11 H -0.0821 1.0705 0.6534
C15 C 0.2996(3) 0.4506(2) 0.91602(17)
C16 C 0.1773(3) 0.8161(2) 0.65474(19)
H12 H 0.1821 0.8463 0.5707
H13 H 0.2852 0.7514 0.6708
C17 C 0.5499(3) 0.2222(3) 0.95029(19)
H14 H 0.6169 0.1334 0.9080
H15 H 0.4911 0.1897 1.0198
H16 H 0.6169 0.2752 0.9733
C18 C -0.0638(3) 1.2074(3) 0.7740(2)
H17 H -0.1595 1.2871 0.7622
C19 C 0.0298(3) 1.2197(3) 0.8560(2)
H18 H -0.0019 1.3074 0.8995
C20 C 0.1697(3) 1.1023(3) 0.8732(2)
H19 H 0.2329 1.1093 0.9295
loop_
_geom_bond_atom_site_label_1
_geom_bond_atom_site_label_2
_geom_bond_site_symmetry_1
_geom_bond_site_symmetry_2
N1 C1 1_555 1_555
O1 H1 1_555 1_555
O2 C8 1_555 1_555
C1 C6 1_555 1_555
N2 C9 1_555 1_555
C2 O1 1_555 1_555
C3 C2 1_555 1_555
H2 C3 1_555 1_555
C4 N1 1_555 1_555
O3 C15 1_555 1_555
C5 C2 1_555 1_555
H3 C5 1_555 1_555
C6 C5 1_555 1_555
H4 C6 1_555 1_555
C7 C1 1_555 1_555
H5 C7 1_555 1_555
C8 C4 1_555 1_555
C9 N1 1_555 1_555
H6 C9 1_555 1_555
H7 C9 1_555 1_555
C10 C4 1_555 1_555
C11 N2 1_555 1_555
H8 C11 1_555 1_555
H9 C11 1_555 1_555
C12 C13 1_555 1_555
N3 C8 1_555 1_555
C13 H10 1_555 1_555
C14 C12 1_555 1_555
H11 C14 1_555 1_555
C15 C10 1_555 1_555
C16 N2 1_555 1_555
H12 C16 1_555 1_555
H13 C16 1_555 1_555
C17 N3 1_555 1_555
H14 C17 1_555 1_555
H15 C17 1_555 1_555
H16 C17 1_555 1_555
C18 C14 1_555 1_555
H17 C18 1_555 1_555
C19 C18 1_555 1_555
H18 C19 1_555 1_555
C20 C13 1_555 1_555
H19 C20 1_555 1_555
C3 C7 1_555 1_555
C10 C11 1_555 1_555
C12 C16 1_555 1_555
N3 C15 1_555 1_555
C19 C20 1_555 1_555

#END
