
#######################################################################
#
#                 Cambridge Crystallographic Data Centre
#                                CCDC 
#
#######################################################################
#
# If this CIF has been generated from an entry in the Cambridge 
# Structural Database, then it will include bibliographic, chemical, 
# crystal, experimental, refinement or atomic coordinate data resulting 
# from the CCDC's data processing and validation procedures.
#
#######################################################################

data_GOFBOU
_chemical_formula_moiety         'C19 H22 O4'
_chemical_name_systematic        
'13-acetyl-7-oxopodocarpa-8(14),9(11),12-trien-15-oic acid'
_symmetry_cell_setting           orthorhombic
_symmetry_space_group_name_H-M   'P 21 21 21'
_symmetry_Int_Tables_number      19
_space_group_name_Hall           'P 2ac 2ab'
loop_
_symmetry_equiv_pos_site_id
_symmetry_equiv_pos_as_xyz
1 x,y,z
2 1/2-x,-y,1/2+z
3 1/2+x,1/2-y,-z
4 -x,1/2+y,1/2-z
_cell_length_a                   9.6519(4)
_cell_length_b                   12.6774(15)
_cell_length_c                   12.8116(12)
_cell_angle_alpha                90
_cell_angle_beta                 90
_cell_angle_gamma                90
_cell_volume                     1567.64
_cell_formula_units_Z            4
loop_
_atom_site_label
_atom_site_type_symbol
_atom_site_fract_x
_atom_site_fract_y
_atom_site_fract_z
O1 O 0.21728(13) 0.01220(9) 0.90076(9)
O2 O 0.04410(12) 0.12232(9) 1.24775(9)
O3 O 0.38882(14) 0.44544(9) 1.58491(9)
H1 H 0.4271 0.4160 1.6361
O4 O 0.30694(15) 0.28316(9) 1.55815(9)
C1 C 0.17059(17) 0.23847(12) 1.35919(12)
H2 H 0.2336 0.1957 1.4030
H3 H 0.0823 0.2472 1.3976
C2 C 0.43692(19) 0.52041(13) 1.35087(14)
H4 H 0.5053 0.4899 1.4000
H5 H 0.4696 0.5915 1.3306
C3 C 0.14355(16) 0.18165(11) 1.25856(12)
C4 C 0.24143(17) 0.19995(11) 1.17062(12)
C5 C 0.42662(18) 0.45061(13) 1.25380(13)
H6 H 0.5189 0.4460 1.2203
H7 H 0.3622 0.4836 1.2033
C6 C 0.31175(16) 0.15586(11) 0.99399(12)
C7 C 0.22625(15) 0.14025(11) 1.07979(13)
H8 H 0.1560 0.0879 1.0766
C8 C 0.23770(16) 0.42134(11) 1.43725(12)
C9 C 0.37507(16) 0.33794(12) 1.27955(12)
C10 C 0.43414(17) 0.29014(11) 1.09145(13)
H9 H 0.5071 0.3403 1.0950
C11 C 0.41554(16) 0.23274(12) 1.00028(12)
H10 H 0.4736 0.2457 0.9418
C12 C 0.08676(17) 0.43916(13) 1.47376(12)
H11 H 0.0309 0.4645 1.4150
H12 H 0.0854 0.4918 1.5298
H13 H 0.0483 0.3726 1.4996
C13 C 0.23608(16) 0.34773(11) 1.33995(12)
H14 H 0.1718 0.3832 1.2898
C14 C 0.3627(2) 0.12242(14) 0.79880(13)
H15 H 0.4629 0.1126 0.8065
H16 H 0.3429 0.1969 0.7847
H17 H 0.3290 0.0792 0.7407
C15 C 0.34819(15) 0.27604(11) 1.17845(12)
C16 C 0.29118(16) 0.08946(12) 0.89779(13)
C17 C 0.29687(18) 0.52934(12) 1.40453(13)
H18 H 0.2307 0.5642 1.3566
H19 H 0.3065 0.5744 1.4672
C18 C 0.48833(17) 0.27663(14) 1.33883(13)
H20 H 0.5723 0.2731 1.2960
H21 H 0.4555 0.2050 1.3536
H22 H 0.5092 0.3128 1.4046
C19 C 0.31496(16) 0.37411(12) 1.53133(12)
loop_
_geom_bond_atom_site_label_1
_geom_bond_atom_site_label_2
_geom_bond_site_symmetry_1
_geom_bond_site_symmetry_2
O1 C16 1_555 1_555
O2 C3 1_555 1_555
O3 H1 1_555 1_555
O4 C19 1_555 1_555
C1 H2 1_555 1_555
H3 C1 1_555 1_555
C2 H4 1_555 1_555
H5 C2 1_555 1_555
C3 C1 1_555 1_555
C4 C3 1_555 1_555
C5 C2 1_555 1_555
H6 C5 1_555 1_555
H7 C5 1_555 1_555
C6 C7 1_555 1_555
C7 C4 1_555 1_555
H8 C7 1_555 1_555
C8 C12 1_555 1_555
C9 C5 1_555 1_555
C10 H9 1_555 1_555
C11 C6 1_555 1_555
H10 C11 1_555 1_555
C12 H11 1_555 1_555
H12 C12 1_555 1_555
H13 C12 1_555 1_555
C13 C1 1_555 1_555
H14 C13 1_555 1_555
C14 H15 1_555 1_555
H16 C14 1_555 1_555
H17 C14 1_555 1_555
C15 C4 1_555 1_555
C16 C6 1_555 1_555
C17 C2 1_555 1_555
H18 C17 1_555 1_555
H19 C17 1_555 1_555
C18 C9 1_555 1_555
H20 C18 1_555 1_555
H21 C18 1_555 1_555
H22 C18 1_555 1_555
C19 O3 1_555 1_555
C8 C13 1_555 1_555
C8 C17 1_555 1_555
C8 C19 1_555 1_555
C9 C13 1_555 1_555
C9 C15 1_555 1_555
C10 C11 1_555 1_555
C10 C15 1_555 1_555
C14 C16 1_555 1_555

#END
