
#######################################################################
#
#                 Cambridge Crystallographic Data Centre
#                                CCDC 
#
#######################################################################
#
# If this CIF has been generated from an entry in the Cambridge 
# Structural Database, then it will include bibliographic, chemical, 
# crystal, experimental, refinement or atomic coordinate data resulting 
# from the CCDC's data processing and validation procedures.
#
#######################################################################

data_GOFCUB
_chemical_formula_moiety         'C15 H24 O3,0.33(H2 O1)'
_chemical_name_systematic        
'8,12-dihydroxy-5,6,12-trimethyltricyclo[5.3.2.0^1,6^]dodecan-10-one hydrate'
_symmetry_cell_setting           monoclinic
_symmetry_space_group_name_H-M   'P 21'
_symmetry_Int_Tables_number      4
_space_group_name_Hall           'P 2yb'
loop_
_symmetry_equiv_pos_site_id
_symmetry_equiv_pos_as_xyz
1 x,y,z
2 -x,1/2+y,-z
_cell_length_a                   7.1505(3)
_cell_length_b                   21.3428(8)
_cell_length_c                   13.7954(6)
_cell_angle_alpha                90
_cell_angle_beta                 97.035(4)
_cell_angle_gamma                90
_cell_volume                     2089.49
_exptl_crystal_colour            colorless
_exptl_crystal_description       block
_cell_formula_units_Z            6
loop_
_atom_site_label
_atom_site_type_symbol
_atom_site_fract_x
_atom_site_fract_y
_atom_site_fract_z
O1 O 0.32509(18) 0.59822(6) 0.46613(9)
H1 H 0.2273 0.5778 0.4621
O2 O 0.0173(2) 0.79373(7) 0.51018(11)
O3 O -0.02226(17) 0.59197(6) 0.38696(8)
H2 H -0.1176 0.5710 0.3721
C1 C -0.0898(3) 0.81529(9) 0.31459(16)
H3 H -0.2109 0.8191 0.3390
H4 H -0.0092 0.8486 0.3436
C2 C -0.1176(3) 0.82365(10) 0.20397(17)
H5 H -0.2155 0.7954 0.1755
H6 H -0.1586 0.8662 0.1883
C3 C 0.0623(3) 0.81067(10) 0.16008(15)
H7 H 0.1571 0.8412 0.1844
H8 H 0.0387 0.8152 0.0897
C4 C 0.1366(3) 0.74468(9) 0.18521(12)
H9 H 0.0355 0.7155 0.1615
C5 C 0.1777(2) 0.73495(8) 0.29804(11)
C6 C 0.1988(2) 0.66479(8) 0.32716(11)
H10 H 0.2802 0.6433 0.2856
C7 C 0.2835(2) 0.66095(8) 0.43448(12)
H11 H 0.4034 0.6837 0.4403
C8 C 0.1584(3) 0.69410(9) 0.50124(12)
H12 H 0.0660 0.6644 0.5192
H13 H 0.2362 0.7066 0.5607
C9 C 0.0557(3) 0.75126(9) 0.45723(13)
C10 C -0.0020(2) 0.75197(8) 0.34665(13)
C11 C -0.0030(2) 0.63704(8) 0.31108(11)
C12 C -0.1317(2) 0.69452(8) 0.32109(13)
H14 H -0.2109 0.6873 0.3723
H15 H -0.2122 0.7018 0.2603
C13 C -0.0483(3) 0.60234(9) 0.21423(12)
H16 H 0.0171 0.5630 0.2175
H17 H -0.0089 0.6272 0.1624
H18 H -0.1816 0.5950 0.2019
C14 C 0.3512(3) 0.77457(8) 0.33645(13)
H19 H 0.3561 0.7795 0.4059
H20 H 0.3421 0.8150 0.3058
H21 H 0.4634 0.7539 0.3216
C15 C 0.3040(3) 0.72871(11) 0.13176(14)
H22 H 0.2644 0.7275 0.0627
H23 H 0.3535 0.6885 0.1532
H24 H 0.4000 0.7600 0.1456
O4 O 0.97487(19) 0.51978(6) 0.58142(9)
H25 H 0.9008 0.5401 0.5436
O5 O 0.4894(2) 0.42255(8) 0.74112(13)
O6 O 0.67495(18) 0.58921(7) 0.56016(8)
H26 H 0.5648 0.5880 0.5353
C16 C 0.4403(3) 0.52174(10) 0.86063(14)
H27 H 0.3121 0.5154 0.8302
H28 H 0.4779 0.4846 0.8985
C17 C 0.4447(3) 0.57786(10) 0.92921(13)
H29 H 0.3861 0.6135 0.8939
H30 H 0.3724 0.5682 0.9824
C18 C 0.6442(2) 0.59498(10) 0.97078(12)
H31 H 0.6979 0.5612 1.0122
H32 H 0.6416 0.6322 1.0108
C19 C 0.7692(2) 0.60709(8) 0.88983(12)
H33 H 0.7113 0.6417 0.8503
C20 C 0.7738(2) 0.54996(8) 0.82029(11)
C21 C 0.8464(2) 0.56808(8) 0.72191(11)
H34 H 0.9586 0.5947 0.7340
C22 C 0.8926(2) 0.50753(8) 0.66902(12)
H35 H 0.9869 0.4848 0.7132
C23 C 0.7192(3) 0.46508(9) 0.65023(13)
H36 H 0.6513 0.4761 0.5873
H37 H 0.7619 0.4221 0.6459
C24 C 0.5833(3) 0.46795(9) 0.72601(14)
C25 C 0.5691(2) 0.52951(9) 0.78104(12)
C26 C 0.6821(2) 0.60476(8) 0.66272(11)
C27 C 0.5041(2) 0.58118(9) 0.70527(12)
H38 H 0.4138 0.5643 0.6537
H39 H 0.4449 0.6154 0.7364
C28 C 0.7064(3) 0.67584(9) 0.66684(14)
H40 H 0.8167 0.6873 0.6376
H41 H 0.7202 0.6894 0.7337
H42 H 0.5977 0.6955 0.6318
C29 C 0.8856(3) 0.49676(9) 0.87561(13)
H43 H 1.0176 0.5066 0.8825
H44 H 0.8638 0.4584 0.8398
H45 H 0.8454 0.4921 0.9391
C30 C 0.9646(3) 0.62919(10) 0.93274(13)
H46 H 0.9537 0.6676 0.9677
H47 H 1.0406 0.6360 0.8810
H48 H 1.0224 0.5979 0.9766
O7 O 0.61763(19) 0.95488(5) 0.60683(9)
H49 H 0.7186 0.9491 0.5858
O8 O 0.33845(18) 1.02336(6) 0.64905(9)
H50 H 0.4202 1.0195 0.6126
O9 O 0.8014(2) 0.98394(7) 0.92224(10)
C31 C 0.7523(3) 0.85744(9) 0.92420(13)
H51 H 0.7109 0.8728 0.9842
H52 H 0.8873 0.8639 0.9284
C32 C 0.7107(3) 0.78728(9) 0.91492(14)
H53 H 0.7725 0.7701 0.8620
H54 H 0.7617 0.7664 0.9748
C33 C 0.5011(3) 0.77463(9) 0.89536(14)
H55 H 0.4419 0.7873 0.9519
H56 H 0.4809 0.7300 0.8862
C34 C 0.4066(3) 0.80948(8) 0.80496(13)
H57 H 0.4689 0.7955 0.7494
C35 C 0.4396(2) 0.88161(8) 0.81474(12)
C36 C 0.3978(2) 0.91628(8) 0.71479(12)
H58 H 0.2791 0.9014 0.6791
C37 C 0.3875(2) 0.98678(8) 0.73514(12)
H59 H 0.2866 0.9927 0.7763
C38 C 0.5685(3) 1.01142(8) 0.79315(13)
H60 H 0.6480 1.0282 0.7472
H61 H 0.5354 1.0459 0.8335
C39 C 0.6833(3) 0.96486(8) 0.85815(12)
C40 C 0.6547(2) 0.89499(8) 0.83817(12)
C41 C 0.5673(2) 0.89986(8) 0.65764(12)
C42 C 0.7271(2) 0.88147(8) 0.73846(12)
H62 H 0.8394 0.9059 0.7323
H63 H 0.7577 0.8374 0.7333
C43 C 0.5188(3) 0.84963(9) 0.58019(13)
H64 H 0.4281 0.8659 0.5293
H65 H 0.4668 0.8138 0.6093
H66 H 0.6308 0.8375 0.5531
C44 C 0.3253(3) 0.90768(9) 0.89373(13)
H67 H 0.3385 0.8801 0.9492
H68 H 0.1948 0.9106 0.8677
H69 H 0.3717 0.9485 0.9134
C45 C 0.1994(3) 0.79138(10) 0.78291(16)
H70 H 0.1894 0.7470 0.7718
H71 H 0.1440 0.8133 0.7257
H72 H 0.1344 0.8024 0.8374
O10 O 0.9470(2) 0.92352(8) 0.54252(12)
H73 H 0.939(5) 0.9475(17) 0.486(3)
H74 H 0.974(4) 0.8835(16) 0.526(2)
loop_
_geom_bond_atom_site_label_1
_geom_bond_atom_site_label_2
_geom_bond_site_symmetry_1
_geom_bond_site_symmetry_2
O1 H1 1_555 1_555
O2 C9 1_555 1_555
O3 H2 1_555 1_555
C1 H3 1_555 1_555
H4 C1 1_555 1_555
C2 C1 1_555 1_555
H5 C2 1_555 1_555
H6 C2 1_555 1_555
C3 C2 1_555 1_555
H7 C3 1_555 1_555
H8 C3 1_555 1_555
C4 C3 1_555 1_555
H9 C4 1_555 1_555
C5 C4 1_555 1_555
C6 C5 1_555 1_555
H10 C6 1_555 1_555
C7 O1 1_555 1_555
H11 C7 1_555 1_555
C8 C7 1_555 1_555
H12 C8 1_555 1_555
H13 C8 1_555 1_555
C9 C8 1_555 1_555
C10 C1 1_555 1_555
C11 O3 1_555 1_555
C12 C10 1_555 1_555
H14 C12 1_555 1_555
H15 C12 1_555 1_555
C13 C11 1_555 1_555
H16 C13 1_555 1_555
H17 C13 1_555 1_555
H18 C13 1_555 1_555
C14 C5 1_555 1_555
H19 C14 1_555 1_555
H20 C14 1_555 1_555
H21 C14 1_555 1_555
C15 C4 1_555 1_555
H22 C15 1_555 1_555
H23 C15 1_555 1_555
H24 C15 1_555 1_555
O4 H25 1_555 1_555
O5 C24 1_555 1_555
O6 H26 1_555 1_555
C16 H27 1_555 1_555
H28 C16 1_555 1_555
C17 C16 1_555 1_555
H29 C17 1_555 1_555
H30 C17 1_555 1_555
C18 C17 1_555 1_555
H31 C18 1_555 1_555
H32 C18 1_555 1_555
C19 C18 1_555 1_555
H33 C19 1_555 1_555
C20 C19 1_555 1_555
C21 C20 1_555 1_555
H34 C21 1_555 1_555
C22 O4 1_555 1_555
H35 C22 1_555 1_555
C23 C22 1_555 1_555
H36 C23 1_555 1_555
H37 C23 1_555 1_555
C24 C23 1_555 1_555
C25 C16 1_555 1_555
C26 O6 1_555 1_555
C27 C25 1_555 1_555
H38 C27 1_555 1_555
H39 C27 1_555 1_555
C28 C26 1_555 1_555
H40 C28 1_555 1_555
H41 C28 1_555 1_555
H42 C28 1_555 1_555
C29 C20 1_555 1_555
H43 C29 1_555 1_555
H44 C29 1_555 1_555
H45 C29 1_555 1_555
C30 C19 1_555 1_555
H46 C30 1_555 1_555
H47 C30 1_555 1_555
H48 C30 1_555 1_555
O7 H49 1_555 1_555
O8 H50 1_555 1_555
O9 C39 1_555 1_555
C31 H51 1_555 1_555
H52 C31 1_555 1_555
C32 C31 1_555 1_555
H53 C32 1_555 1_555
H54 C32 1_555 1_555
C33 C32 1_555 1_555
H55 C33 1_555 1_555
H56 C33 1_555 1_555
C34 C33 1_555 1_555
H57 C34 1_555 1_555
C35 C34 1_555 1_555
C36 C35 1_555 1_555
H58 C36 1_555 1_555
C37 O8 1_555 1_555
H59 C37 1_555 1_555
C38 C37 1_555 1_555
H60 C38 1_555 1_555
H61 C38 1_555 1_555
C39 C38 1_555 1_555
C40 C31 1_555 1_555
C41 O7 1_555 1_555
C42 C40 1_555 1_555
H62 C42 1_555 1_555
H63 C42 1_555 1_555
C43 C41 1_555 1_555
H64 C43 1_555 1_555
H65 C43 1_555 1_555
H66 C43 1_555 1_555
C44 C35 1_555 1_555
H67 C44 1_555 1_555
H68 C44 1_555 1_555
H69 C44 1_555 1_555
C45 C34 1_555 1_555
H70 C45 1_555 1_555
H71 C45 1_555 1_555
H72 C45 1_555 1_555
O10 H73 1_555 1_555
H74 O10 1_555 1_555
C5 C10 1_555 1_555
C6 C7 1_555 1_555
C6 C11 1_555 1_555
C9 C10 1_555 1_555
C11 C12 1_555 1_555
C20 C25 1_555 1_555
C21 C22 1_555 1_555
C21 C26 1_555 1_555
C24 C25 1_555 1_555
C26 C27 1_555 1_555
C35 C40 1_555 1_555
C36 C37 1_555 1_555
C36 C41 1_555 1_555
C39 C40 1_555 1_555
C41 C42 1_555 1_555

#END
