
#######################################################################
#
#                 Cambridge Crystallographic Data Centre
#                                CCDC 
#
#######################################################################
#
# If this CIF has been generated from an entry in the Cambridge 
# Structural Database, then it will include bibliographic, chemical, 
# crystal, experimental, refinement or atomic coordinate data resulting 
# from the CCDC's data processing and validation procedures.
#
#######################################################################

data_GOFCOV
_chemical_formula_moiety         'C15 H22 O4'
_chemical_name_systematic        
8-hydroxy-5,6,12,12-tetramethyl-11-oxatricyclo[5.3.2.0^1,6^]dodecane-3,10-dione
_symmetry_cell_setting           orthorhombic
_symmetry_space_group_name_H-M   'P 21 21 21'
_symmetry_Int_Tables_number      19
_space_group_name_Hall           'P 2ac 2ab'
loop_
_symmetry_equiv_pos_site_id
_symmetry_equiv_pos_as_xyz
1 x,y,z
2 1/2-x,-y,1/2+z
3 1/2+x,1/2-y,-z
4 -x,1/2+y,1/2-z
_cell_length_a                   9.1600(4)
_cell_length_b                   11.2571(5)
_cell_length_c                   12.9942(6)
_cell_angle_alpha                90
_cell_angle_beta                 90
_cell_angle_gamma                90
_cell_volume                     1339.9
_exptl_crystal_colour            colorless
_exptl_crystal_description       block
_cell_formula_units_Z            4
loop_
_atom_site_label
_atom_site_type_symbol
_atom_site_fract_x
_atom_site_fract_y
_atom_site_fract_z
H1 H 0.922(2) -0.1858(19) 0.9577(15)
H2 H 0.881(2) -0.0987(19) 1.0510(17)
H3 H 0.406(4) 0.037(3) 0.662(3)
H4 H 1.194(2) 0.0223(18) 0.8436(16)
H5 H 1.108(2) -0.106(2) 0.8193(16)
H6 H 0.966(2) 0.1197(18) 0.8286(15)
H7 H 0.711(2) 0.126(2) 0.7191(17)
H8 H 0.585(2) -0.0571(19) 0.6896(17)
H9 H 0.498(3) -0.182(2) 0.810(2)
H10 H 0.448(3) -0.072(2) 0.8880(18)
H11 H 0.467(3) 0.210(2) 0.873(2)
H12 H 0.482(3) 0.091(2) 0.948(2)
H13 H 0.543(2) 0.2186(19) 0.989(2)
H14 H 0.768(3) 0.294(2) 0.943(2)
H15 H 0.697(3) 0.315(3) 0.833(2)
H16 H 0.848(4) 0.257(3) 0.830(2)
H17 H 0.747(2) -0.1912(18) 0.7465(19)
H18 H 0.925(3) -0.172(2) 0.7387(18)
H19 H 0.815(3) -0.112(2) 0.657(2)
H20 H 0.949(3) 0.120(2) 0.6420(18)
H21 H 1.038(3) -0.011(3) 0.641(2)
H22 H 1.121(3) 0.114(2) 0.6750(17)
C1 C 0.9106(2) -0.10424(18) 0.97561(16)
C2 C 1.0562(2) -0.04465(16) 0.95898(15)
C3 C 1.0978(2) -0.02653(18) 0.84854(15)
C4 C 0.9774(2) 0.04152(17) 0.79068(14)
C5 C 0.8260(2) -0.02101(16) 0.79855(14)
C6 C 0.69357(19) 0.06436(17) 0.77828(13)
C7 C 0.55862(19) -0.01171(18) 0.75498(16)
C8 C 0.5277(2) -0.10090(19) 0.84263(17)
C9 C 0.6522(2) -0.12548(17) 0.91686(15)
C10 C 0.7908(2) -0.04789(16) 0.91187(14)
C11 C 0.6820(2) 0.13921(16) 0.87965(14)
C12 C 0.5298(2) 0.1660(2) 0.92305(16)
C13 C 0.7584(2) 0.26009(17) 0.87149(17)
C14 C 0.8271(2) -0.13290(18) 0.73076(16)
C15 C 1.0253(2) 0.0661(2) 0.68001(16)
O1 O 1.13419(15) -0.01405(13) 1.02986(10)
O2 O 0.43286(14) 0.06046(13) 0.73600(11)
O3 O 0.64156(15) -0.20349(13) 0.98025(12)
O4 O 0.75779(13) 0.06608(11) 0.95605(9)
loop_
_geom_bond_atom_site_label_1
_geom_bond_atom_site_label_2
_geom_bond_site_symmetry_1
_geom_bond_site_symmetry_2
H1 C1 1_555 1_555
H2 C1 1_555 1_555
H3 O2 1_555 1_555
H4 C3 1_555 1_555
H5 C3 1_555 1_555
H6 C4 1_555 1_555
H7 C6 1_555 1_555
H8 C7 1_555 1_555
H9 C8 1_555 1_555
H10 C8 1_555 1_555
H11 C12 1_555 1_555
H12 C12 1_555 1_555
H13 C12 1_555 1_555
H14 C13 1_555 1_555
H15 C13 1_555 1_555
H16 C13 1_555 1_555
H17 C14 1_555 1_555
H18 C14 1_555 1_555
H19 C14 1_555 1_555
H20 C15 1_555 1_555
H21 C15 1_555 1_555
H22 C15 1_555 1_555
C1 C2 1_555 1_555
C2 C3 1_555 1_555
C3 C4 1_555 1_555
C4 C5 1_555 1_555
C5 C6 1_555 1_555
C6 C7 1_555 1_555
C7 C8 1_555 1_555
C8 C9 1_555 1_555
C9 C10 1_555 1_555
C10 C1 1_555 1_555
C11 C6 1_555 1_555
C12 C11 1_555 1_555
C13 C11 1_555 1_555
C14 C5 1_555 1_555
C15 C4 1_555 1_555
O1 C2 1_555 1_555
O2 C7 1_555 1_555
O3 C9 1_555 1_555
O4 C10 1_555 1_555
C5 C10 1_555 1_555
C11 O4 1_555 1_555

#END
