
#######################################################################
#
#                 Cambridge Crystallographic Data Centre
#                                CCDC 
#
#######################################################################
#
# If this CIF has been generated from an entry in the Cambridge 
# Structural Database, then it will include bibliographic, chemical, 
# crystal, experimental, refinement or atomic coordinate data resulting 
# from the CCDC's data processing and validation procedures.
#
#######################################################################

data_GOFHUF
_chemical_formula_moiety         'C56 H82 N6 O1 P2,2(C7 H8)'
_chemical_name_systematic        
'1,3-bis(2,6-Diisopropylphenyl)-4,5-dimethyl-2-(1,3-bis(2,6-diisopropylphenyl)-4,5-dimethyl-2-oxo-1,3,2-diazaphospholen-2-ylimino)-1,3,2-diazaphospholene-2-amine toluene solvate'
_symmetry_cell_setting           triclinic
_symmetry_space_group_name_H-M   'P -1'
_symmetry_Int_Tables_number      2
_space_group_name_Hall           '-P 1'
loop_
_symmetry_equiv_pos_site_id
_symmetry_equiv_pos_as_xyz
1 x,y,z
2 -x,-y,-z
_cell_length_a                   13.279(3)
_cell_length_b                   14.542(3)
_cell_length_c                   17.751(4)
_cell_angle_alpha                102.26(3)
_cell_angle_beta                 103.09(3)
_cell_angle_gamma                99.46(3)
_cell_volume                     3180.25
_exptl_crystal_colour            colorless
_exptl_crystal_description       blocks
_cell_formula_units_Z            2
loop_
_atom_site_label
_atom_site_type_symbol
_atom_site_fract_x
_atom_site_fract_y
_atom_site_fract_z
O1 O 0.3213(2) 0.29356(19) 0.27424(17)
N1 N 0.4989(3) 0.2776(2) 0.2412(2)
P1 P 0.37231(9) 0.23609(8) 0.22021(7)
N2 N 0.3398(3) 0.1164(2) 0.2141(2)
C1 C 0.2963(3) 0.0602(3) 0.1325(3)
C2 C 0.2880(3) 0.1149(3) 0.0811(3)
N3 N 0.3235(3) 0.2161(2) 0.1211(2)
C3 C 0.3070(4) 0.0794(3) 0.2772(3)
C4 C 0.2014(3) 0.0756(3) 0.2833(3)
C5 C 0.1735(4) 0.0400(3) 0.3434(3)
H1 H 0.1042 0.0392 0.3496
C6 C 0.2426(4) 0.0054(3) 0.3949(3)
H2 H 0.2206 -0.0200 0.4351
C7 C 0.3448(4) 0.0081(3) 0.3874(3)
H3 H 0.3926 -0.0158 0.4228
C8 C 0.3782(4) 0.0450(3) 0.3291(3)
C9 C 0.4906(4) 0.0435(3) 0.3227(3)
H4 H 0.5096 0.0903 0.2915
C10 C 0.5709(4) 0.0737(5) 0.4027(3)
H5 H 0.6417 0.0724 0.3953
H6 H 0.5538 0.0292 0.4348
H7 H 0.5699 0.1393 0.4305
C11 C 0.4974(5) -0.0560(4) 0.2776(4)
H8 H 0.4454 -0.0758 0.2250
H9 H 0.4825 -0.1028 0.3083
H10 H 0.5689 -0.0534 0.2706
C12 C 0.1179(4) 0.1059(3) 0.2251(3)
H11 H 0.1516 0.1286 0.1854
C13 C 0.0776(4) 0.1890(3) 0.2679(3)
H12 H 0.0254 0.2075 0.2286
H13 H 0.1372 0.2444 0.2951
H14 H 0.0443 0.1685 0.3073
C14 C 0.0254(4) 0.0187(4) 0.1790(3)
H15 H -0.0270 0.0387 0.1410
H16 H -0.0081 -0.0056 0.2169
H17 H 0.0525 -0.0324 0.1497
C15 C 0.3083(3) 0.2865(3) 0.0749(3)
C16 C 0.2065(4) 0.3106(3) 0.0572(3)
C17 C 0.1908(4) 0.3709(3) 0.0060(3)
H18 H 0.1240 0.3876 -0.0073
C18 C 0.2696(4) 0.4068(3) -0.0258(3)
H19 H 0.2566 0.4476 -0.0605
C19 C 0.3682(4) 0.3834(3) -0.0073(3)
H20 H 0.4226 0.4097 -0.0285
C20 C 0.3879(4) 0.3218(3) 0.0418(3)
C21 C 0.4947(3) 0.2922(3) 0.0547(3)
H21 H 0.4955 0.2477 0.0906
C22 C 0.5871(3) 0.3798(3) 0.0954(3)
H22 H 0.6542 0.3586 0.1028
H23 H 0.5795 0.4117 0.1476
H24 H 0.5868 0.4253 0.0617
C23 C 0.5091(4) 0.2376(3) -0.0250(3)
H25 H 0.4499 0.1814 -0.0502
H26 H 0.5759 0.2160 -0.0148
H27 H 0.5106 0.2804 -0.0607
C24 C 0.1187(4) 0.2737(3) 0.0917(3)
H28 H 0.1516 0.2513 0.1390
C25 C 0.0605(4) 0.3508(4) 0.1205(3)
H29 H 0.0051 0.3226 0.1425
H30 H 0.0281 0.3748 0.0754
H31 H 0.1109 0.4043 0.1622
C26 C 0.0375(4) 0.1879(4) 0.0323(4)
H32 H -0.0177 0.1658 0.0570
H33 H 0.0726 0.1353 0.0172
H34 H 0.0052 0.2072 -0.0156
C27 C 0.2572(4) 0.0828(3) -0.0083(3)
H35 H 0.3207 0.0782 -0.0269
H36 H 0.2228 0.1298 -0.0302
H37 H 0.2078 0.0196 -0.0264
C28 C 0.2692(4) -0.0479(3) 0.1124(3)
H38 H 0.2187 -0.0733 0.0593
H39 H 0.2374 -0.0689 0.1523
H40 H 0.3339 -0.0721 0.1124
N4 N 0.5411(3) 0.3364(3) 0.3967(2)
H41 H 0.568(3) 0.378(3) 0.4464(15)
H42 H 0.4706(17) 0.322(3) 0.392(3)
P2 P 0.58060(9) 0.34788(8) 0.31788(7)
N5 N 0.6195(3) 0.4653(2) 0.3219(2)
C29 C 0.7249(3) 0.4867(3) 0.3118(3)
C30 C 0.7710(3) 0.4128(3) 0.3132(3)
N6 N 0.7036(3) 0.3314(2) 0.3252(2)
C31 C 0.5826(3) 0.5460(3) 0.3641(3)
C32 C 0.6352(3) 0.5921(3) 0.4444(3)
C33 C 0.6082(4) 0.6766(3) 0.4810(3)
H43 H 0.6445 0.7096 0.5350
C34 C 0.5293(4) 0.7122(3) 0.4389(3)
H44 H 0.5121 0.7698 0.4639
C35 C 0.4762(4) 0.6647(3) 0.3617(3)
H45 H 0.4206 0.6891 0.3344
C36 C 0.5008(3) 0.5802(3) 0.3203(3)
C37 C 0.4427(4) 0.5346(3) 0.2345(3)
H46 H 0.4628 0.4715 0.2184
C38 C 0.3216(4) 0.5138(3) 0.2216(3)
H47 H 0.2862 0.4833 0.1649
H48 H 0.2998 0.5745 0.2380
H49 H 0.3019 0.4704 0.2538
C39 C 0.4750(4) 0.5969(3) 0.1809(3)
H50 H 0.4365 0.5649 0.1249
H51 H 0.5514 0.6057 0.1872
H52 H 0.4576 0.6600 0.1963
C40 C 0.7239(4) 0.5584(3) 0.4951(3)
H53 H 0.7339 0.4980 0.4612
C41 C 0.6955(4) 0.5341(3) 0.5690(3)
H54 H 0.6287 0.4854 0.5519
H55 H 0.6877 0.5926 0.6043
H56 H 0.7521 0.5087 0.5979
C42 C 0.8295(4) 0.6338(4) 0.5208(3)
H57 H 0.8849 0.6099 0.5526
H58 H 0.8213 0.6944 0.5529
H59 H 0.8495 0.6450 0.4731
C43 C 0.7431(3) 0.2458(3) 0.3345(3)
C44 C 0.7955(3) 0.2423(3) 0.4109(3)
C45 C 0.8442(4) 0.1651(3) 0.4185(3)
H60 H 0.8820 0.1625 0.4701
C46 C 0.8381(4) 0.0924(3) 0.3521(3)
H61 H 0.8715 0.0404 0.3581
C47 C 0.7837(4) 0.0957(3) 0.2772(3)
H62 H 0.7784 0.0446 0.2321
C48 C 0.7358(3) 0.1723(3) 0.2656(3)
C49 C 0.6837(4) 0.1745(3) 0.1801(3)
H63 H 0.6564 0.2349 0.1831
C50 C 0.7649(4) 0.1778(3) 0.1307(3)
H64 H 0.7299 0.1802 0.0764
H65 H 0.7943 0.1200 0.1278
H66 H 0.8223 0.2355 0.1562
C51 C 0.5897(4) 0.0891(3) 0.1387(3)
H67 H 0.5581 0.0931 0.0844
H68 H 0.5366 0.0906 0.1691
H69 H 0.6140 0.0287 0.1362
C52 C 0.8035(4) 0.3194(3) 0.4873(3)
H70 H 0.7529 0.3606 0.4721
C53 C 0.9120(5) 0.3845(5) 0.5215(4)
H71 H 0.9127 0.4332 0.5693
H72 H 0.9301 0.4166 0.4815
H73 H 0.9641 0.3462 0.5360
C54 C 0.7709(5) 0.2766(4) 0.5517(3)
H74 H 0.7000 0.2342 0.5293
H75 H 0.7701 0.3287 0.5966
H76 H 0.8217 0.2391 0.5706
C55 C 0.7637(4) 0.5804(3) 0.2945(3)
H77 H 0.8400 0.5900 0.2998
H78 H 0.7502 0.6333 0.3326
H79 H 0.7262 0.5791 0.2399
C56 C 0.8774(3) 0.4045(3) 0.3006(3)
H80 H 0.8680 0.3653 0.2462
H81 H 0.9136 0.3737 0.3395
H82 H 0.9202 0.4690 0.3077
C57 C 0.7411(4) -0.1711(3) 0.3355(4)
H83 H 0.6659 -0.1864 0.3162
C58 C 0.7877(5) -0.1491(3) 0.4172(4)
H84 H 0.7441 -0.1488 0.4529
C59 C 0.8952(5) -0.1278(4) 0.4470(3)
H85 H 0.9269 -0.1128 0.5031
C60 C 0.9578(5) -0.1285(4) 0.3936(4)
H86 H 1.0329 -0.1140 0.4134
C61 C 0.9122(5) -0.1498(4) 0.3135(4)
H87 H 0.9563 -0.1503 0.2781
C62 C 0.8015(6) -0.1712(3) 0.2814(3)
C63 C 0.7527(6) -0.1942(5) 0.1947(4)
H88 H 0.7148 -0.2621 0.1753
H89 H 0.8080 -0.1829 0.1672
H90 H 0.7027 -0.1530 0.1837
C64 C 0.0747(4) 0.5979(3) 0.1101(3)
H91 H 0.0503 0.5468 0.0625
C65 C 0.0212(4) 0.6012(4) 0.1692(3)
H92 H -0.0399 0.5523 0.1618
C66 C 0.0570(4) 0.6759(4) 0.2389(3)
H93 H 0.0204 0.6782 0.2792
C67 C 0.1463(5) 0.7474(4) 0.2496(3)
H94 H 0.1708 0.7985 0.2972
C68 C 0.1999(4) 0.7441(3) 0.1906(3)
H95 H 0.2609 0.7930 0.1979
C69 C 0.1641(4) 0.6693(4) 0.1209(3)
C70 C 0.2203(7) 0.6652(7) 0.0569(5)
H96 H 0.2285 0.7270 0.0427
H97 H 0.1791 0.6134 0.0096
H98 H 0.2905 0.6524 0.0765
C71? C 0.1419(11) 0.7255(9) 0.2293(7)
H99? H 0.1231 0.7498 0.2771
C72? C 0.2355(11) 0.7704(9) 0.2172(8)
H100? H 0.2807 0.8254 0.2566
C73? C 0.2630(10) 0.7350(10) 0.1473(9)
H101? H 0.3270 0.7657 0.1390
C74? C 0.1970(12) 0.6546(10) 0.0896(7)
H102? H 0.2158 0.6303 0.0419
C75? C 0.1034(11) 0.6096(9) 0.1018(7)
H103? H 0.0582 0.5547 0.0624
C76? C 0.0759(9) 0.6451(9) 0.1717(8)
C77? C -0.0192(14) 0.5935(15) 0.1884(13)
H104? H -0.0487 0.6401 0.2205
H105? H 0.0006 0.5465 0.2179
H106? H -0.0726 0.5598 0.1377
loop_
_geom_bond_atom_site_label_1
_geom_bond_atom_site_label_2
_geom_bond_site_symmetry_1
_geom_bond_site_symmetry_2
O1 P1 1_555 1_555
N1 P1 1_555 1_555
P1 N2 1_555 1_555
N2 C1 1_555 1_555
C1 C2 1_555 1_555
C2 N3 1_555 1_555
N3 P1 1_555 1_555
C3 N2 1_555 1_555
C4 C3 1_555 1_555
C5 C4 1_555 1_555
H1 C5 1_555 1_555
C6 C5 1_555 1_555
H2 C6 1_555 1_555
C7 C6 1_555 1_555
H3 C7 1_555 1_555
C8 C3 1_555 1_555
C9 C8 1_555 1_555
H4 C9 1_555 1_555
C10 C9 1_555 1_555
H5 C10 1_555 1_555
H6 C10 1_555 1_555
H7 C10 1_555 1_555
C11 C9 1_555 1_555
H8 C11 1_555 1_555
H9 C11 1_555 1_555
H10 C11 1_555 1_555
C12 C4 1_555 1_555
H11 C12 1_555 1_555
C13 C12 1_555 1_555
H12 C13 1_555 1_555
H13 C13 1_555 1_555
H14 C13 1_555 1_555
C14 C12 1_555 1_555
H15 C14 1_555 1_555
H16 C14 1_555 1_555
H17 C14 1_555 1_555
C15 N3 1_555 1_555
C16 C15 1_555 1_555
C17 C16 1_555 1_555
H18 C17 1_555 1_555
C18 C17 1_555 1_555
H19 C18 1_555 1_555
C19 C18 1_555 1_555
H20 C19 1_555 1_555
C20 C15 1_555 1_555
C21 C20 1_555 1_555
H21 C21 1_555 1_555
C22 C21 1_555 1_555
H22 C22 1_555 1_555
H23 C22 1_555 1_555
H24 C22 1_555 1_555
C23 C21 1_555 1_555
H25 C23 1_555 1_555
H26 C23 1_555 1_555
H27 C23 1_555 1_555
C24 C16 1_555 1_555
H28 C24 1_555 1_555
C25 C24 1_555 1_555
H29 C25 1_555 1_555
H30 C25 1_555 1_555
H31 C25 1_555 1_555
C26 C24 1_555 1_555
H32 C26 1_555 1_555
H33 C26 1_555 1_555
H34 C26 1_555 1_555
C27 C2 1_555 1_555
H35 C27 1_555 1_555
H36 C27 1_555 1_555
H37 C27 1_555 1_555
C28 C1 1_555 1_555
H38 C28 1_555 1_555
H39 C28 1_555 1_555
H40 C28 1_555 1_555
N4 H41 1_555 1_555
H42 N4 1_555 1_555
P2 N1 1_555 1_555
N5 P2 1_555 1_555
C29 N5 1_555 1_555
C30 C29 1_555 1_555
N6 P2 1_555 1_555
C31 N5 1_555 1_555
C32 C31 1_555 1_555
C33 C32 1_555 1_555
H43 C33 1_555 1_555
C34 C33 1_555 1_555
H44 C34 1_555 1_555
C35 C34 1_555 1_555
H45 C35 1_555 1_555
C36 C31 1_555 1_555
C37 C36 1_555 1_555
H46 C37 1_555 1_555
C38 C37 1_555 1_555
H47 C38 1_555 1_555
H48 C38 1_555 1_555
H49 C38 1_555 1_555
C39 C37 1_555 1_555
H50 C39 1_555 1_555
H51 C39 1_555 1_555
H52 C39 1_555 1_555
C40 C32 1_555 1_555
H53 C40 1_555 1_555
C41 C40 1_555 1_555
H54 C41 1_555 1_555
H55 C41 1_555 1_555
H56 C41 1_555 1_555
C42 C40 1_555 1_555
H57 C42 1_555 1_555
H58 C42 1_555 1_555
H59 C42 1_555 1_555
C43 N6 1_555 1_555
C44 C43 1_555 1_555
C45 C44 1_555 1_555
H60 C45 1_555 1_555
C46 C45 1_555 1_555
H61 C46 1_555 1_555
C47 C46 1_555 1_555
H62 C47 1_555 1_555
C48 C43 1_555 1_555
C49 C48 1_555 1_555
H63 C49 1_555 1_555
C50 C49 1_555 1_555
H64 C50 1_555 1_555
H65 C50 1_555 1_555
H66 C50 1_555 1_555
C51 C49 1_555 1_555
H67 C51 1_555 1_555
H68 C51 1_555 1_555
H69 C51 1_555 1_555
C52 C44 1_555 1_555
H70 C52 1_555 1_555
C53 C52 1_555 1_555
H71 C53 1_555 1_555
H72 C53 1_555 1_555
H73 C53 1_555 1_555
C54 C52 1_555 1_555
H74 C54 1_555 1_555
H75 C54 1_555 1_555
H76 C54 1_555 1_555
C55 C29 1_555 1_555
H77 C55 1_555 1_555
H78 C55 1_555 1_555
H79 C55 1_555 1_555
C56 C30 1_555 1_555
H80 C56 1_555 1_555
H81 C56 1_555 1_555
H82 C56 1_555 1_555
C57 H83 1_555 1_555
C58 C57 1_555 1_555
H84 C58 1_555 1_555
C59 C58 1_555 1_555
H85 C59 1_555 1_555
C60 C59 1_555 1_555
H86 C60 1_555 1_555
C61 C60 1_555 1_555
H87 C61 1_555 1_555
C62 C57 1_555 1_555
C63 C62 1_555 1_555
H88 C63 1_555 1_555
H89 C63 1_555 1_555
H90 C63 1_555 1_555
C64 H91 1_555 1_555
C65 C64 1_555 1_555
H92 C65 1_555 1_555
C66 C65 1_555 1_555
H93 C66 1_555 1_555
C67 C66 1_555 1_555
H94 C67 1_555 1_555
C68 C67 1_555 1_555
H95 C68 1_555 1_555
C69 C64 1_555 1_555
C70 C69 1_555 1_555
H96 C70 1_555 1_555
H97 C70 1_555 1_555
H98 C70 1_555 1_555
C7 C8 1_555 1_555
C19 C20 1_555 1_555
N4 P2 1_555 1_555
C30 N6 1_555 1_555
C35 C36 1_555 1_555
C47 C48 1_555 1_555
C61 C62 1_555 1_555
C68 C69 1_555 1_555

#END
