
#######################################################################
#
#                 Cambridge Crystallographic Data Centre
#                                CCDC 
#
#######################################################################
#
# If this CIF has been generated from an entry in the Cambridge 
# Structural Database, then it will include bibliographic, chemical, 
# crystal, experimental, refinement or atomic coordinate data resulting 
# from the CCDC's data processing and validation procedures.
#
#######################################################################

data_GOFHAL
_chemical_formula_moiety         'C18 H20 N5 P1'
_chemical_name_systematic        
2-Azido-1,3-bis(2,6-dimethylphenyl)-1,3,2-diazaphospholene
_symmetry_cell_setting           monoclinic
_symmetry_space_group_name_H-M   'P 21/c'
_symmetry_Int_Tables_number      14
_space_group_name_Hall           '-P 2ybc'
loop_
_symmetry_equiv_pos_site_id
_symmetry_equiv_pos_as_xyz
1 x,y,z
2 -x,1/2+y,1/2-z
3 -x,-y,-z
4 x,1/2-y,1/2+z
_cell_length_a                   12.7383(8)
_cell_length_b                   10.8003(8)
_cell_length_c                   12.8025(6)
_cell_angle_alpha                90
_cell_angle_beta                 90.415(4)
_cell_angle_gamma                90
_cell_volume                     1761.29
_exptl_crystal_colour            colorless
_exptl_crystal_description       blocks
_cell_formula_units_Z            4
_chemical_properties_physical    'air- and moisture-sensitive'
_exptl_crystal_recrystallization_method 'diethyl ether/tetrahydrofuran'
loop_
_atom_site_label
_atom_site_type_symbol
_atom_site_fract_x
_atom_site_fract_y
_atom_site_fract_z
P1 P 0.77400(3) 0.70689(4) 0.42106(3)
N1 N 0.68400(11) 0.63259(14) 0.32447(10)
N2 N 0.72986(11) 0.56467(14) 0.26285(10)
N3 N 0.76927(15) 0.50010(18) 0.20517(14)
N4 N 0.69586(10) 0.82408(12) 0.45863(9)
C1 C 0.63384(12) 0.79355(15) 0.54618(12)
H1 H 0.5787 0.8439 0.5722
C2 C 0.66224(12) 0.68567(15) 0.58753(12)
H2 H 0.6299 0.6492 0.6467
N5 N 0.74632(9) 0.63211(12) 0.53272(9)
C3 C 0.68528(11) 0.93756(14) 0.40129(10)
C4 C 0.77128(11) 1.01774(15) 0.39518(11)
C5 C 0.75999(12) 1.12708(15) 0.33893(12)
H3 H 0.8177 1.1824 0.3339
C6 C 0.66605(12) 1.15662(16) 0.29024(12)
H4 H 0.6595 1.2318 0.2522
C7 C 0.58153(12) 1.07667(16) 0.29697(11)
H5 H 0.5172 1.0976 0.2633
C8 C 0.58935(11) 0.96601(15) 0.35231(11)
C9 C 0.49632(13) 0.87969(17) 0.35626(15)
H6 H 0.4583 0.8927 0.4216
H7 H 0.5208 0.7938 0.3529
H8 H 0.4495 0.8965 0.2969
C10 C 0.87496(12) 0.98976(17) 0.44727(13)
H9 H 0.8627 0.9565 0.5174
H10 H 0.9165 1.0659 0.4526
H11 H 0.9132 0.9286 0.4057
C11 C 0.79806(12) 0.51928(15) 0.56349(11)
C12 C 0.89702(13) 0.52856(18) 0.61192(12)
C13 C 0.94772(15) 0.4178(2) 0.63766(13)
H12 H 1.0148 0.4207 0.6704
C14 C 0.90275(17) 0.30509(19) 0.61672(14)
H13 H 0.9398 0.2312 0.6333
C15 C 0.80399(16) 0.29797(18) 0.57165(13)
H14 H 0.7730 0.2193 0.5592
C16 C 0.74940(13) 0.40541(16) 0.54424(12)
C17 C 0.64034(14) 0.39676(17) 0.49983(14)
H15 H 0.6271 0.3119 0.4760
H16 H 0.6333 0.4539 0.4407
H17 H 0.5895 0.4188 0.5538
C18 C 0.94554(15) 0.6517(2) 0.63589(14)
H18 H 1.0088 0.6397 0.6787
H19 H 0.8953 0.7029 0.6742
H20 H 0.9643 0.6931 0.5705
loop_
_geom_bond_atom_site_label_1
_geom_bond_atom_site_label_2
_geom_bond_site_symmetry_1
_geom_bond_site_symmetry_2
P1 N1 1_555 1_555
N1 N2 1_555 1_555
N2 N3 1_555 1_555
N4 P1 1_555 1_555
C1 N4 1_555 1_555
H1 C1 1_555 1_555
C2 C1 1_555 1_555
H2 C2 1_555 1_555
N5 P1 1_555 1_555
C3 N4 1_555 1_555
C4 C3 1_555 1_555
C5 C4 1_555 1_555
H3 C5 1_555 1_555
C6 C5 1_555 1_555
H4 C6 1_555 1_555
C7 C6 1_555 1_555
H5 C7 1_555 1_555
C8 C3 1_555 1_555
C9 C8 1_555 1_555
H6 C9 1_555 1_555
H7 C9 1_555 1_555
H8 C9 1_555 1_555
C10 C4 1_555 1_555
H9 C10 1_555 1_555
H10 C10 1_555 1_555
H11 C10 1_555 1_555
C11 N5 1_555 1_555
C12 C11 1_555 1_555
C13 C12 1_555 1_555
H12 C13 1_555 1_555
C14 C13 1_555 1_555
H13 C14 1_555 1_555
C15 C14 1_555 1_555
H14 C15 1_555 1_555
C16 C11 1_555 1_555
C17 C16 1_555 1_555
H15 C17 1_555 1_555
H16 C17 1_555 1_555
H17 C17 1_555 1_555
C18 C12 1_555 1_555
H18 C18 1_555 1_555
H19 C18 1_555 1_555
H20 C18 1_555 1_555
C2 N5 1_555 1_555
C7 C8 1_555 1_555
C15 C16 1_555 1_555

#END
