
#######################################################################
#
#                 Cambridge Crystallographic Data Centre
#                                CCDC 
#
#######################################################################
#
# If this CIF has been generated from an entry in the Cambridge 
# Structural Database, then it will include bibliographic, chemical, 
# crystal, experimental, refinement or atomic coordinate data resulting 
# from the CCDC's data processing and validation procedures.
#
#######################################################################

data_GOFLAP
_chemical_formula_moiety         'C20 H26 N2 O1'
_chemical_name_systematic        
N-(3,5-Di-t-butylsalicylidene)-2-aminopyridine
_symmetry_cell_setting           trigonal
_symmetry_space_group_name_H-M   'P 32'
_symmetry_Int_Tables_number      145
_space_group_name_Hall           'P 32'
loop_
_symmetry_equiv_pos_site_id
_symmetry_equiv_pos_as_xyz
1 x,y,z
2 -y,x-y,2/3+z
3 -x+y,-x,1/3+z
_cell_length_a                   15.599(5)
_cell_length_b                   15.599(5)
_cell_length_c                   6.246(5)
_cell_angle_alpha                90
_cell_angle_beta                 90
_cell_angle_gamma                120
_cell_volume                     1316.21
_exptl_crystal_colour            yellow
_exptl_crystal_description       needle
_chemical_melting_point          '120 deg.C'
_cell_formula_units_Z            3
_exptl_crystal_recrystallization_method 'absolute ethanol'
_exptl_crystal_preparation       thermochromic
loop_
_atom_site_label
_atom_site_type_symbol
_atom_site_fract_x
_atom_site_fract_y
_atom_site_fract_z
C1 C -0.05050(17) 0.33367(16) 1.0757(4)
C2 C -0.09202(17) 0.27058(18) 1.2531(4)
C3 C -0.03473(16) 0.23520(17) 1.3493(4)
H1 H -0.0610 0.1941 1.4679
C4 C 0.05950(17) 0.25760(16) 1.2790(4)
C5 C 0.09614(17) 0.31814(16) 1.1004(4)
H2 H 0.1579 0.3334 1.0474
C6 C 0.04370(18) 0.35680(17) 0.9978(4)
C7 C 0.08799(19) 0.41849(19) 0.8109(4)
H3 H 0.1500 0.4307 0.7660
C8 C 0.09279(18) 0.51302(19) 0.5186(4)
C9 C 0.0896(2) 0.6076(2) 0.2238(5)
H4 H 0.0603 0.6373 0.1474
C10 C 0.1765(2) 0.61550(19) 0.1523(4)
H5 H 0.2066 0.6500 0.0276
C11 C 0.2177(2) 0.5704(2) 0.2720(5)
H6 H 0.2764 0.5753 0.2237
N1 N 0.17778(15) 0.52015(17) 0.4534(4)
C12 C -0.19669(17) 0.24097(18) 1.3362(4)
C13 C -0.1995(2) 0.3329(2) 1.4111(5)
H7 H -0.1816 0.3788 1.2944
H8 H -0.1537 0.3635 1.5269
H9 H -0.2651 0.3140 1.4588
C14 C -0.27322(19) 0.1898(2) 1.1572(5)
H10 H -0.2559 0.2335 1.0365
H11 H -0.3376 0.1737 1.2083
H12 H -0.2739 0.1303 1.1147
C15 C -0.22590(19) 0.17017(19) 1.5269(5)
H13 H -0.2247 0.1116 1.4848
H14 H -0.2914 0.1525 1.5735
H15 H -0.1799 0.2020 1.6420
C16 C 0.12106(17) 0.21869(18) 1.3878(4)
C17 C 0.0714(2) 0.1593(2) 1.5889(4)
H16 H 0.1127 0.1367 1.6523
H17 H 0.0085 0.1033 1.5520
H18 H 0.0617 0.2003 1.6890
C18 C 0.1374(2) 0.1520(2) 1.2315(4)
H19 H 0.1770 0.1285 1.2995
H20 H 0.1708 0.1892 1.1059
H21 H 0.0746 0.0966 1.1917
C19 C 0.22194(19) 0.3064(2) 1.4510(5)
H22 H 0.2611 0.2822 1.5182
H23 H 0.2125 0.3483 1.5491
H24 H 0.2554 0.3435 1.3254
N2 N 0.04520(15) 0.45672(15) 0.7053(3)
C20 C 0.0455(2) 0.5555(2) 0.4092(4)
H25 H -0.0136 0.5491 0.4589
O1 O -0.09999(12) 0.37294(14) 0.9761(3)
H26 H -0.042(3) 0.428(3) 0.844(7)
loop_
_geom_bond_atom_site_label_1
_geom_bond_atom_site_label_2
_geom_bond_site_symmetry_1
_geom_bond_site_symmetry_2
C1 C2 1_555 1_555
C2 C3 1_555 1_555
C3 H1 1_555 1_555
C4 C3 1_555 1_555
C5 C4 1_555 1_555
H2 C5 1_555 1_555
C6 C1 1_555 1_555
C7 C6 1_555 1_555
H3 C7 1_555 1_555
C8 N1 1_555 1_555
C9 H4 1_555 1_555
C10 C9 1_555 1_555
H5 C10 1_555 1_555
C11 C10 1_555 1_555
H6 C11 1_555 1_555
N1 C11 1_555 1_555
C12 C2 1_555 1_555
C13 C12 1_555 1_555
H7 C13 1_555 1_555
H8 C13 1_555 1_555
H9 C13 1_555 1_555
C14 C12 1_555 1_555
H10 C14 1_555 1_555
H11 C14 1_555 1_555
H12 C14 1_555 1_555
C15 C12 1_555 1_555
H13 C15 1_555 1_555
H14 C15 1_555 1_555
H15 C15 1_555 1_555
C16 C4 1_555 1_555
C17 C16 1_555 1_555
H16 C17 1_555 1_555
H17 C17 1_555 1_555
H18 C17 1_555 1_555
C18 C16 1_555 1_555
H19 C18 1_555 1_555
H20 C18 1_555 1_555
H21 C18 1_555 1_555
C19 C16 1_555 1_555
H22 C19 1_555 1_555
H23 C19 1_555 1_555
H24 C19 1_555 1_555
N2 C7 1_555 1_555
C20 C8 1_555 1_555
H25 C20 1_555 1_555
O1 C1 1_555 1_555
H26 O1 1_555 1_555
C5 C6 1_555 1_555
C8 N2 1_555 1_555
C9 C20 1_555 1_555

#END
