
#######################################################################
#
#                 Cambridge Crystallographic Data Centre
#                                CCDC 
#
#######################################################################
#
# If this CIF has been generated from an entry in the Cambridge 
# Structural Database, then it will include bibliographic, chemical, 
# crystal, experimental, refinement or atomic coordinate data resulting 
# from the CCDC's data processing and validation procedures.
#
#######################################################################

data_GOFMOE
_chemical_name_common            
'(mu!2$-Octaglyme)-(hexafluoro-arsenato-F)-di-lithium hexafluoro-arsenate'
_chemical_formula_moiety         'C18 H38 As1 F6 Li2 O9 1+,As1 F6 1-'
_chemical_name_systematic        
'bis(\m~2~-1,23-Dimethoxy-3,6,9,12,15,18,21-heptaoxatricosane)-(hexafluoroarsenato-F)-di-lithium hexafluoro-arsenate'
_symmetry_cell_setting           monoclinic
_symmetry_space_group_name_H-M   'P 21/c'
_symmetry_Int_Tables_number      14
_space_group_name_Hall           '-P 2ybc'
loop_
_symmetry_equiv_pos_site_id
_symmetry_equiv_pos_as_xyz
1 x,y,z
2 -x,1/2+y,1/2-z
3 -x,-y,-z
4 x,1/2-y,1/2+z
_cell_length_a                   16.394(3)
_cell_length_b                   11.3514(17)
_cell_length_c                   17.215(3)
_cell_angle_alpha                90
_cell_angle_beta                 108.251(5)
_cell_angle_gamma                90
_cell_volume                     3042.46
_exptl_crystal_colour            colorless
_exptl_crystal_description       platelet
_cell_formula_units_Z            4
loop_
_atom_site_label
_atom_site_type_symbol
_atom_site_fract_x
_atom_site_fract_y
_atom_site_fract_z
As1 As -0.05691(2) -0.30227(4) 0.58603(2)
F1 F -0.06731(16) -0.2422(2) 0.49210(14)
F2 F -0.05014(19) -0.3596(3) 0.67953(15)
F3 F -0.14363(17) -0.3905(2) 0.54106(17)
F4 F 0.02626(16) -0.2085(3) 0.63009(18)
F5 F 0.01203(19) -0.4062(3) 0.57210(18)
F6 F -0.12760(15) -0.1944(2) 0.59953(15)
C1 C -0.2200(3) 0.3859(5) 0.6955(3)
H1 H -0.1783 0.4291 0.7397
H2 H -0.2627 0.3488 0.7168
H3 H -0.2489 0.4407 0.6515
O1 O -0.17721(18) 0.2984(2) 0.66493(17)
C2 C -0.0975(3) 0.3425(4) 0.6581(3)
H4 H -0.0622 0.3769 0.7108
H5 H -0.1085 0.4043 0.6155
C3 C -0.0518(3) 0.2397(4) 0.6354(3)
H6 H -0.0006 0.2668 0.6216
H7 H -0.0330 0.1832 0.6814
O2 O -0.11222(17) 0.1855(2) 0.56602(17)
C4 C -0.0827(3) 0.0759(4) 0.5435(3)
H8 H -0.0677 0.0205 0.5903
H9 H -0.0314 0.0883 0.5259
C5 C -0.1553(3) 0.0288(4) 0.4748(3)
H10 H -0.1674 0.0818 0.4269
H11 H -0.1407 -0.0501 0.4585
O3 O -0.22873(17) 0.0215(2) 0.50302(16)
C6 C -0.3034(3) -0.0219(4) 0.4416(2)
H12 H -0.3004 0.0007 0.3870
H13 H -0.3550 0.0157 0.4488
C7 C -0.3121(3) -0.1528(4) 0.4449(2)
H14 H -0.3618 -0.1799 0.3989
H15 H -0.2598 -0.1916 0.4403
O4 O -0.32448(17) -0.1825(2) 0.52142(16)
C8 C -0.3495(3) -0.3027(4) 0.5233(2)
H16 H -0.3047 -0.3558 0.5157
H17 H -0.4039 -0.3181 0.4791
C9 C -0.3611(2) -0.3230(4) 0.6057(2)
H18 H -0.4068 -0.2715 0.6133
H19 H -0.3763 -0.4062 0.6119
O5 O -0.27920(17) -0.2941(3) 0.66343(16)
C10 C -0.2739(3) -0.3044(4) 0.7476(2)
H20 H -0.2898 -0.3847 0.7600
H21 H -0.3120 -0.2467 0.7621
C11 C -0.1807(3) -0.2789(4) 0.7931(2)
H22 H -0.1725 -0.2732 0.8524
H23 H -0.1444 -0.3440 0.7843
O6 O -0.15556(17) -0.1709(2) 0.76467(16)
C12 C -0.1661(3) -0.0691(4) 0.8092(2)
H24 H -0.1176 -0.0614 0.8604
H25 H -0.2203 -0.0741 0.8230
C13 C -0.1685(2) 0.0340(4) 0.7536(2)
H26 H -0.1738 0.1080 0.7822
H27 H -0.1140 0.0374 0.7402
O7 O -0.23990(16) 0.0244(2) 0.67894(15)
C14 C -0.3204(3) 0.0536(4) 0.6919(2)
H28 H -0.3128 0.1233 0.7281
H29 H -0.3399 -0.0131 0.7186
C15 C -0.3859(3) 0.0795(4) 0.6109(3)
H30 H -0.3946 0.0096 0.5748
H31 H -0.4415 0.1006 0.6184
O8 O -0.35405(17) 0.1751(3) 0.57594(17)
C16 C -0.4166(3) 0.2248(4) 0.5057(3)
H32 H -0.4669 0.2537 0.5204
H33 H -0.4365 0.1649 0.4621
C17 C -0.3739(3) 0.3246(4) 0.4771(3)
H34 H -0.4105 0.3529 0.4230
H35 H -0.3638 0.3909 0.5163
O9 O -0.29367(19) 0.2814(3) 0.47143(17)
C18 C -0.2521(4) 0.3639(5) 0.4341(3)
H36 H -0.2948 0.4021 0.3880
H37 H -0.2099 0.3227 0.4142
H38 H -0.2228 0.4236 0.4743
Li1 Li -0.2335(4) 0.1786(6) 0.5704(4)
Li2 Li -0.2246(4) -0.1492(6) 0.6328(4)
As2 As -0.48602(3) 0.39616(4) 0.72286(3)
F7 F -0.4680(3) 0.4274(5) 0.6312(3)
F8 F -0.5066(2) 0.3730(5) 0.8105(2)
F9 F -0.4693(6) 0.5364(5) 0.7486(4)
F10 F -0.5014(3) 0.2591(3) 0.6877(3)
F11 F -0.3824(2) 0.3600(7) 0.7707(3)
F12 F -0.5913(2) 0.4239(5) 0.67415(19)
loop_
_geom_bond_atom_site_label_1
_geom_bond_atom_site_label_2
_geom_bond_site_symmetry_1
_geom_bond_site_symmetry_2
As1 F1 1_555 1_555
F2 As1 1_555 1_555
F3 As1 1_555 1_555
F4 As1 1_555 1_555
F5 As1 1_555 1_555
F6 As1 1_555 1_555
As2 F7 1_555 1_555
F8 As2 1_555 1_555
F9 As2 1_555 1_555
F10 As2 1_555 1_555
F11 As2 1_555 1_555
F12 As2 1_555 1_555
C1 H1 1_555 1_555
H2 C1 1_555 1_555
H3 C1 1_555 1_555
O1 C1 1_555 1_555
C2 O1 1_555 1_555
H4 C2 1_555 1_555
H5 C2 1_555 1_555
C3 C2 1_555 1_555
H6 C3 1_555 1_555
H7 C3 1_555 1_555
O2 C3 1_555 1_555
C4 O2 1_555 1_555
H8 C4 1_555 1_555
H9 C4 1_555 1_555
C5 C4 1_555 1_555
H10 C5 1_555 1_555
H11 C5 1_555 1_555
O3 C5 1_555 1_555
C6 O3 1_555 1_555
H12 C6 1_555 1_555
H13 C6 1_555 1_555
C7 C6 1_555 1_555
H14 C7 1_555 1_555
H15 C7 1_555 1_555
O4 C7 1_555 1_555
C8 O4 1_555 1_555
H16 C8 1_555 1_555
H17 C8 1_555 1_555
C9 C8 1_555 1_555
H18 C9 1_555 1_555
H19 C9 1_555 1_555
O5 C9 1_555 1_555
C10 O5 1_555 1_555
H20 C10 1_555 1_555
H21 C10 1_555 1_555
C11 C10 1_555 1_555
H22 C11 1_555 1_555
H23 C11 1_555 1_555
O6 C11 1_555 1_555
C12 O6 1_555 1_555
H24 C12 1_555 1_555
H25 C12 1_555 1_555
C13 C12 1_555 1_555
H26 C13 1_555 1_555
H27 C13 1_555 1_555
O7 C13 1_555 1_555
C14 O7 1_555 1_555
H28 C14 1_555 1_555
H29 C14 1_555 1_555
C15 C14 1_555 1_555
H30 C15 1_555 1_555
H31 C15 1_555 1_555
O8 C15 1_555 1_555
C16 O8 1_555 1_555
H32 C16 1_555 1_555
H33 C16 1_555 1_555
C17 C16 1_555 1_555
H34 C17 1_555 1_555
H35 C17 1_555 1_555
O9 C17 1_555 1_555
C18 O9 1_555 1_555
H36 C18 1_555 1_555
H37 C18 1_555 1_555
H38 C18 1_555 1_555
Li1 O1 1_555 1_555
Li2 F6 1_555 1_555
O2 Li1 1_555 1_555
O3 Li1 1_555 1_555
O4 Li2 1_555 1_555
O5 Li2 1_555 1_555
O6 Li2 1_555 1_555
O7 Li1 1_555 1_555
O7 Li2 1_555 1_555
O8 Li1 1_555 1_555
O9 Li1 1_555 1_555

#END
