
#######################################################################
#
#                 Cambridge Crystallographic Data Centre
#                                CCDC 
#
#######################################################################
#
# If this CIF has been generated from an entry in the Cambridge 
# Structural Database, then it will include bibliographic, chemical, 
# crystal, experimental, refinement or atomic coordinate data resulting 
# from the CCDC's data processing and validation procedures.
#
#######################################################################

data_GOFMAQ
_chemical_name_common            
'(mu!2$-Undecaglyme)-di-lithium bis(hexafluoro-arsenate)'
_chemical_formula_moiety         'C24 H50 Li2 O12 2+,2(As1 F6 1-)'
_chemical_name_systematic        
'(\m~2~-1,32-Dimethoxy-3,6,9,12,15,18,21,24,27,30-decaoxadotriacontane)-di-lithium bis(hexafluoro-arsenate)'
_symmetry_cell_setting           triclinic
_symmetry_space_group_name_H-M   'P -1'
_symmetry_Int_Tables_number      2
_space_group_name_Hall           '-P 1'
loop_
_symmetry_equiv_pos_site_id
_symmetry_equiv_pos_as_xyz
1 x,y,z
2 -x,-y,-z
_cell_length_a                   9.399(3)
_cell_length_b                   9.498(3)
_cell_length_c                   11.832(4)
_cell_angle_alpha                104.518(15)
_cell_angle_beta                 111.092(13)
_cell_angle_gamma                91.857(17)
_cell_volume                     945.197
_exptl_crystal_colour            colorless
_exptl_crystal_description       platelet
_cell_formula_units_Z            1
loop_
_atom_site_label
_atom_site_type_symbol
_atom_site_fract_x
_atom_site_fract_y
_atom_site_fract_z
As1 As 0.65865(14) -0.06051(12) 1.26930(13)
F1 F 0.5380(15) -0.0691(12) 1.3456(15)
F2 F 0.7918(9) -0.0452(9) 1.2047(8)
F3 F 0.6575(10) 0.1217(9) 1.3056(9)
F4 F 0.6749(18) -0.2408(13) 1.254(2)
F5 F 0.5037(14) -0.0811(17) 1.1380(14)
F6 F 0.8198(12) -0.0146(12) 1.4156(9)
Li1 Li 0.853(2) -0.400(2) 0.7332(14)
C1 C 1.1961(17) -0.2800(14) 0.9149(14)
H1 H 1.2849 -0.3009 0.9805
H2 H 1.1647 -0.1869 0.9498
H3 H 1.2242 -0.2729 0.8442
O1 O 1.0718(8) -0.3953(7) 0.8716(6)
C2 C 1.1237(13) -0.5343(11) 0.8606(10)
H4 H 1.1992 -0.5378 0.9433
H5 H 1.1747 -0.5520 0.7992
C3 C 0.9881(13) -0.6496(13) 0.8168(11)
H6 H 1.0182 -0.7490 0.7968
H7 H 0.9446 -0.6411 0.8826
O2 O 0.8782(8) -0.6233(7) 0.7057(6)
C4 C 0.7396(15) -0.7307(12) 0.6523(12)
H8 H 0.7116 -0.7527 0.7197
H9 H 0.7539 -0.8231 0.5988
C5 C 0.6169(12) -0.6540(12) 0.5733(11)
H10 H 0.6394 -0.6467 0.4993
H11 H 0.5147 -0.7132 0.5420
O3 O 0.6134(8) -0.5099(8) 0.6467(7)
C6 C 0.5453(14) -0.5049(17) 0.7443(13)
H12 H 0.4322 -0.5324 0.7032
H13 H 0.5886 -0.5745 0.7934
C7 C 0.5831(17) -0.3552(17) 0.8273(14)
H14 H 0.5307 -0.2876 0.7792
H15 H 0.5464 -0.3496 0.8968
O4 O 0.7429(9) -0.3126(8) 0.8776(7)
C8 C 0.7880(17) -0.1571(14) 0.9240(12)
H16 H 0.8939 -0.1346 0.9888
H17 H 0.7181 -0.1106 0.9633
C9 C 0.7815(17) -0.0989(12) 0.8191(12)
H18 H 0.6736 -0.1115 0.7589
H19 H 0.8208 0.0073 0.8514
O5 O 0.8704(9) -0.1732(8) 0.7584(7)
C10 C 0.8526(12) -0.1382(13) 0.6461(11)
H20 H 0.8962 -0.0350 0.6645
H21 H 0.7423 -0.1518 0.5908
C11 C 0.9388(12) -0.2424(12) 0.5828(9)
H22 H 0.9239 -0.2285 0.4993
H23 H 1.0504 -0.2227 0.6354
O6 O 0.8807(7) -0.3859(7) 0.5687(7)
C12 C 0.9172(12) -0.4914(12) 0.4777(10)
H24 H 0.8884 -0.4609 0.3991
H25 H 0.8556 -0.5873 0.4575
Li1A Li 1.147(2) -0.600(2) 0.2668(14)
C1A C 0.8039(17) -0.7200(14) 0.0851(14)
H1A H 0.7151 -0.6991 0.0195
H2A H 0.8353 -0.8131 0.0502
H3A H 0.7758 -0.7271 0.1558
O1A O 0.9282(8) -0.6047(7) 0.1284(6)
C2A C 0.8763(13) -0.4657(11) 0.1394(10)
H4A H 0.8008 -0.4622 0.0567
H5A H 0.8253 -0.4480 0.2008
C3A C 1.0119(13) -0.3504(13) 0.1832(11)
H6A H 0.9818 -0.2510 0.2032
H7A H 1.0554 -0.3589 0.1174
O2A O 1.1218(8) -0.3767(7) 0.2943(6)
C4A C 1.2604(15) -0.2693(12) 0.3477(12)
H8A H 1.2884 -0.2473 0.2803
H9A H 1.2461 -0.1769 0.4012
C5A C 1.3831(12) -0.3460(12) 0.4267(11)
H10A H 1.3606 -0.3533 0.5007
H11A H 1.4853 -0.2868 0.4580
O3A O 1.3866(8) -0.4901(8) 0.3533(7)
C6A C 1.4547(14) -0.4951(17) 0.2557(13)
H12A H 1.5678 -0.4676 0.2968
H13A H 1.4114 -0.4255 0.2066
C7A C 1.4169(17) -0.6448(17) 0.1727(14)
H14A H 1.4693 -0.7124 0.2208
H15A H 1.4536 -0.6504 0.1032
O4A O 1.2571(9) -0.6874(8) 0.1224(7)
C8A C 1.2120(17) -0.8429(14) 0.0760(12)
H16A H 1.1061 -0.8654 0.0112
H17A H 1.2819 -0.8894 0.0367
C9A C 1.2185(17) -0.9011(12) 0.1809(12)
H18A H 1.3264 -0.8885 0.2411
H19A H 1.1792 -1.0073 0.1486
O5A O 1.1296(9) -0.8268(8) 0.2416(7)
C10A C 1.1474(12) -0.8618(13) 0.3539(11)
H20A H 1.1038 -0.9650 0.3355
H21A H 1.2577 -0.8482 0.4092
C11A C 1.0612(12) -0.7576(12) 0.4172(9)
H22A H 1.0761 -0.7715 0.5007
H23A H 0.9496 -0.7773 0.3646
O6A O 1.1193(7) -0.6141(7) 0.4313(7)
C12A C 1.0828(12) -0.5086(12) 0.5223(10)
H24A H 1.1116 -0.5391 0.6009
H25A H 1.1444 -0.4127 0.5425
loop_
_geom_bond_atom_site_label_1
_geom_bond_atom_site_label_2
_geom_bond_site_symmetry_1
_geom_bond_site_symmetry_2
As1 F1 1_555 1_555
F2 As1 1_555 1_555
F3 As1 1_555 1_555
F4 As1 1_555 1_555
F5 As1 1_555 1_555
F6 As1 1_555 1_555
Li1 O1 1_555 1_555
C1 H1 1_555 1_555
H2 C1 1_555 1_555
H3 C1 1_555 1_555
O1 C1 1_555 1_555
C2 O1 1_555 1_555
H4 C2 1_555 1_555
H5 C2 1_555 1_555
C3 C2 1_555 1_555
H6 C3 1_555 1_555
H7 C3 1_555 1_555
O2 Li1 1_555 1_555
C4 O2 1_555 1_555
H8 C4 1_555 1_555
H9 C4 1_555 1_555
C5 C4 1_555 1_555
H10 C5 1_555 1_555
H11 C5 1_555 1_555
O3 Li1 1_555 1_555
C6 O3 1_555 1_555
H12 C6 1_555 1_555
H13 C6 1_555 1_555
C7 C6 1_555 1_555
H14 C7 1_555 1_555
H15 C7 1_555 1_555
O4 Li1 1_555 1_555
C8 O4 1_555 1_555
H16 C8 1_555 1_555
H17 C8 1_555 1_555
C9 C8 1_555 1_555
H18 C9 1_555 1_555
H19 C9 1_555 1_555
O5 Li1 1_555 1_555
C10 O5 1_555 1_555
H20 C10 1_555 1_555
H21 C10 1_555 1_555
C11 C10 1_555 1_555
H22 C11 1_555 1_555
H23 C11 1_555 1_555
O6 Li1 1_555 1_555
C12 O6 1_555 1_555
H24 C12 1_555 1_555
H25 C12 1_555 1_555
Li1A O1A 1_555 1_555
C1A H1A 1_555 1_555
H2A C1A 1_555 1_555
H3A C1A 1_555 1_555
O1A C1A 1_555 1_555
C2A O1A 1_555 1_555
H4A C2A 1_555 1_555
H5A C2A 1_555 1_555
C3A C2A 1_555 1_555
H6A C3A 1_555 1_555
H7A C3A 1_555 1_555
O2A Li1A 1_555 1_555
C4A O2A 1_555 1_555
H8A C4A 1_555 1_555
H9A C4A 1_555 1_555
C5A C4A 1_555 1_555
H10A C5A 1_555 1_555
H11A C5A 1_555 1_555
O3A Li1A 1_555 1_555
C6A O3A 1_555 1_555
H12A C6A 1_555 1_555
H13A C6A 1_555 1_555
C7A C6A 1_555 1_555
H14A C7A 1_555 1_555
H15A C7A 1_555 1_555
O4A Li1A 1_555 1_555
C8A O4A 1_555 1_555
H16A C8A 1_555 1_555
H17A C8A 1_555 1_555
C9A C8A 1_555 1_555
H18A C9A 1_555 1_555
H19A C9A 1_555 1_555
O5A Li1A 1_555 1_555
C10A O5A 1_555 1_555
H20A C10A 1_555 1_555
H21A C10A 1_555 1_555
C11A C10A 1_555 1_555
H22A C11A 1_555 1_555
H23A C11A 1_555 1_555
O6A Li1A 1_555 1_555
C12A C12 1_555 1_555
H24A C12A 1_555 1_555
H25A C12A 1_555 1_555
C3 O2 1_555 1_555
C5 O3 1_555 1_555
C7 O4 1_555 1_555
C9 O5 1_555 1_555
C11 O6 1_555 1_555
C3A O2A 1_555 1_555
C5A O3A 1_555 1_555
C7A O4A 1_555 1_555
C9A O5A 1_555 1_555
C11A O6A 1_555 1_555
O6A C12A 1_555 1_555

#END
