
#######################################################################
#
#                 Cambridge Crystallographic Data Centre
#                                CCDC 
#
#######################################################################
#
# If this CIF has been generated from an entry in the Cambridge 
# Structural Database, then it will include bibliographic, chemical, 
# crystal, experimental, refinement or atomic coordinate data resulting 
# from the CCDC's data processing and validation procedures.
#
#######################################################################

data_GOFQIC
_chemical_formula_moiety         'C8 H8 N2 O4'
_chemical_name_systematic        'meso-1,2-Dicyanoethane-1,2-diyl diacetate'
_symmetry_cell_setting           orthorhombic
_symmetry_space_group_name_H-M   'P b c a'
_symmetry_Int_Tables_number      61
_space_group_name_Hall           '-P 2ac 2ab'
loop_
_symmetry_equiv_pos_site_id
_symmetry_equiv_pos_as_xyz
1 x,y,z
2 1/2-x,-y,1/2+z
3 1/2+x,1/2-y,-z
4 -x,1/2+y,1/2-z
5 -x,-y,-z
6 1/2+x,y,1/2-z
7 1/2-x,1/2+y,z
8 x,1/2-y,1/2+z
_cell_length_a                   12.4510(4)
_cell_length_b                   8.5089(3)
_cell_length_c                   18.0764(5)
_cell_angle_alpha                90
_cell_angle_beta                 90
_cell_angle_gamma                90
_cell_volume                     1915.09
_exptl_crystal_colour            colorless
_exptl_crystal_description       cube
_cell_formula_units_Z            8
loop_
_atom_site_label
_atom_site_type_symbol
_atom_site_fract_x
_atom_site_fract_y
_atom_site_fract_z
C1 C 0.28613(10) 0.68999(15) 0.20264(6)
C2 C 0.39887(9) 0.66610(13) 0.17984(6)
H1 H 0.4425 0.6308 0.2232
C3 C 0.44618(9) 0.81709(14) 0.14802(6)
H2 H 0.4502 0.8992 0.1875
C4 C 0.38312(9) 0.87712(14) 0.08435(6)
N1 N 0.19831(9) 0.71034(15) 0.21825(6)
O1 O 0.39879(6) 0.54666(9) 0.12411(4)
O2 O 0.55178(6) 0.77781(9) 0.12351(4)
N2 N 0.33504(9) 0.92360(13) 0.03556(6)
C5 C 0.46945(9) 0.42452(14) 0.13412(6)
O3 O 0.52640(6) 0.41396(11) 0.18723(4)
C6 C 0.46398(10) 0.31504(15) 0.07021(7)
H3 H 0.4974 0.3642 0.0269
H4 H 0.3887 0.2910 0.0592
H5 H 0.5022 0.2177 0.0824
C7 C 0.62837(9) 0.89243(13) 0.13243(6)
O4 O 0.60689(7) 1.01851(10) 0.15784(5)
C8 C 0.73445(9) 0.83722(15) 0.10555(7)
H9 H 0.7493 0.7325 0.1257
H10 H 0.7905 0.9104 0.1217
H11 H 0.7336 0.8322 0.0514
H6? H 0.4227 0.2220 0.0848
H7? H 0.5366 0.2841 0.0552
H8? H 0.4292 0.3669 0.0281
H12? H 0.7650 0.9168 0.0725
H13? H 0.7260 0.7377 0.0789
H14? H 0.7828 0.8196 0.1475
loop_
_geom_bond_atom_site_label_1
_geom_bond_atom_site_label_2
_geom_bond_site_symmetry_1
_geom_bond_site_symmetry_2
C1 C2 1_555 1_555
C2 H1 1_555 1_555
C3 C2 1_555 1_555
H2 C3 1_555 1_555
C4 C3 1_555 1_555
N1 C1 1_555 1_555
O1 C2 1_555 1_555
O2 C3 1_555 1_555
N2 C4 1_555 1_555
C5 O1 1_555 1_555
O3 C5 1_555 1_555
C6 C5 1_555 1_555
H3 C6 1_555 1_555
H4 C6 1_555 1_555
H5 C6 1_555 1_555
C7 O2 1_555 1_555
O4 C7 1_555 1_555
C8 C7 1_555 1_555
H9 C8 1_555 1_555
H10 C8 1_555 1_555
H11 C8 1_555 1_555

#END
