
#######################################################################
#
#                 Cambridge Crystallographic Data Centre
#                                CCDC 
#
#######################################################################
#
# If this CIF has been generated from an entry in the Cambridge 
# Structural Database, then it will include bibliographic, chemical, 
# crystal, experimental, refinement or atomic coordinate data resulting 
# from the CCDC's data processing and validation procedures.
#
#######################################################################

data_GOFRAV
_chemical_compound_source        
'fermentation broth of actinomycetes Streptomyces sp'
_chemical_name_common            Dichlorodiaportin
_chemical_formula_moiety         'C13 H12 Cl2 O5'
_chemical_name_systematic        
3-((R)-3,3-Dichloro-2-hydroxypropyl)-8-hydroxy-6-methoxy-1H-isochromen-1-one
_chemical_properties_biological  'weak inhibitory activity against AchE'
_symmetry_cell_setting           monoclinic
_symmetry_space_group_name_H-M   'P 21'
_symmetry_Int_Tables_number      4
_space_group_name_Hall           'P 2yb'
loop_
_symmetry_equiv_pos_site_id
_symmetry_equiv_pos_as_xyz
1 x,y,z
2 -x,1/2+y,-z
_cell_length_a                   9.483(3)
_cell_length_b                   6.757(2)
_cell_length_c                   10.548(3)
_cell_angle_alpha                90
_cell_angle_beta                 99.217(5)
_cell_angle_gamma                90
_cell_volume                     667.154
_exptl_crystal_colour            colorless
_exptl_crystal_description       block
_chemical_melting_point          '419-420 K'
_cell_formula_units_Z            2
_exptl_crystal_recrystallization_method methanol
loop_
_atom_site_label
_atom_site_type_symbol
_atom_site_fract_x
_atom_site_fract_y
_atom_site_fract_z
C1 C 0.54937(19) 0.4698(4) -0.06308(18)
C2 C 0.55042(19) 0.4661(4) 0.07326(17)
C3 C 0.6821(2) 0.4688(4) 0.15853(18)
C4 C 0.6830(2) 0.4614(4) 0.28857(19)
H1 H 0.7694 0.4607 0.3446
C5 C 0.5540(2) 0.4548(4) 0.33695(18)
C6 C 0.4234(2) 0.4543(4) 0.25529(18)
H2 H 0.3383 0.4501 0.2884
C7 C 0.42213(19) 0.4602(4) 0.12326(17)
C8 C 0.29092(19) 0.4610(4) 0.03216(18)
H3 H 0.2038 0.4583 0.0619
C9 C 0.29283(18) 0.4657(4) -0.09298(17)
C10 C 0.17165(19) 0.4676(5) -0.20293(17)
H4 H 0.1783 0.3505 -0.2548
H5 H 0.1821 0.5820 -0.2562
C11 C 0.02418(19) 0.4735(5) -0.16418(17)
H6 H 0.0161 0.3586 -0.1091
C12 C -0.0964(2) 0.4600(5) -0.2789(2)
H7 H -0.1876 0.4740 -0.2473
C13 C 0.4413(3) 0.4492(5) 0.5247(2)
H8 H 0.3875 0.5677 0.5015
H9 H 0.4673 0.4429 0.6163
H10 H 0.3843 0.3359 0.4950
Cl1 Cl -0.08373(8) 0.65243(17) -0.39091(7)
Cl2 Cl -0.09425(9) 0.22660(16) -0.35406(9)
O1 O 0.42041(13) 0.4685(3) -0.14183(12)
O2 O 0.65509(15) 0.4724(3) -0.11589(14)
O3 O 0.80850(14) 0.4768(3) 0.11445(14)
H11 H 0.7939 0.4940 0.0365
O4 O 0.56832(17) 0.4506(3) 0.46640(14)
O5 O 0.00051(18) 0.6449(3) -0.09336(15)
H12 H 0.0323 0.7420 -0.1259
loop_
_geom_bond_atom_site_label_1
_geom_bond_atom_site_label_2
_geom_bond_site_symmetry_1
_geom_bond_site_symmetry_2
C1 C2 1_555 1_555
C2 C3 1_555 1_555
C3 C4 1_555 1_555
C4 H1 1_555 1_555
C5 C4 1_555 1_555
C6 C5 1_555 1_555
H2 C6 1_555 1_555
C7 C2 1_555 1_555
C8 C7 1_555 1_555
H3 C8 1_555 1_555
C9 C8 1_555 1_555
C10 C9 1_555 1_555
H4 C10 1_555 1_555
H5 C10 1_555 1_555
C11 C10 1_555 1_555
H6 C11 1_555 1_555
C12 C11 1_555 1_555
H7 C12 1_555 1_555
C13 H8 1_555 1_555
H9 C13 1_555 1_555
H10 C13 1_555 1_555
Cl1 C12 1_555 1_555
Cl2 C12 1_555 1_555
O1 C1 1_555 1_555
O2 C1 1_555 1_555
O3 C3 1_555 1_555
H11 O3 1_555 1_555
O4 C5 1_555 1_555
O5 C11 1_555 1_555
H12 O5 1_555 1_555
C6 C7 1_555 1_555
C9 O1 1_555 1_555
C13 O4 1_555 1_555

#END
