
#######################################################################
#
#                 Cambridge Crystallographic Data Centre
#                                CCDC 
#
#######################################################################
#
# If this CIF has been generated from an entry in the Cambridge 
# Structural Database, then it will include bibliographic, chemical, 
# crystal, experimental, refinement or atomic coordinate data resulting 
# from the CCDC's data processing and validation procedures.
#
#######################################################################

data_GOFTAX
_chemical_formula_moiety         'C15 H16 O3'
_chemical_name_systematic        
'(+-)-trans-3-Oxo-1,2,3,4,4a,9,10,10a-octahydrophenanthrene-10a-carboxylic acid'
_symmetry_cell_setting           monoclinic
_symmetry_space_group_name_H-M   'P 21/n'
_symmetry_Int_Tables_number      14
_space_group_name_Hall           '-P 2yn'
loop_
_symmetry_equiv_pos_site_id
_symmetry_equiv_pos_as_xyz
1 x,y,z
2 1/2-x,1/2+y,1/2-z
3 -x,-y,-z
4 1/2+x,1/2-y,1/2+z
_cell_length_a                   9.7172(4)
_cell_length_b                   12.2735(6)
_cell_length_c                   10.4867(5)
_cell_angle_alpha                90
_cell_angle_beta                 102.6764(19)
_cell_angle_gamma                90
_cell_volume                     1220.2
_exptl_crystal_colour            colorless
_exptl_crystal_description       block
_chemical_melting_point          '460 K'
_cell_formula_units_Z            4
_exptl_crystal_recrystallization_method 'diethyl ether'
loop_
_atom_site_label
_atom_site_type_symbol
_atom_site_fract_x
_atom_site_fract_y
_atom_site_fract_z
O1 O 0.16954(13) 0.53956(9) 0.02162(9)
C1 C -0.01276(13) 0.72351(11) 0.19416(12)
H1 H -0.0968 0.6757 0.1741
H2 H -0.0461 0.7999 0.1845
O2 O 0.29511(10) 0.78231(9) 0.34146(10)
C2 C 0.07805(14) 0.70150(11) 0.09446(12)
H3 H 0.0172 0.7036 0.0054
H4 H 0.1490 0.7603 0.1005
O3 O 0.14561(11) 0.87586(8) 0.43269(10)
H5 H 0.2108 0.9222 0.4436
C3 C 0.15250(14) 0.59394(11) 0.11443(13)
C4 C 0.19751(13) 0.56160(11) 0.49180(12)
C5 C 0.21490(14) 0.55868(12) 0.25238(13)
H6 H 0.3090 0.5927 0.2809
H7 H 0.2286 0.4787 0.2534
C6 C 0.12567(13) 0.58788(11) 0.35068(12)
H8 H 0.0417 0.5387 0.3295
C7 C 0.31064(14) 0.48895(11) 0.52183(13)
H9 H 0.3480 0.4589 0.4531
C8 C 0.36977(14) 0.45965(12) 0.65045(14)
H10 H 0.4460 0.4095 0.6689
C9 C 0.31676(15) 0.50411(12) 0.75139(13)
H11 H 0.3559 0.4841 0.8394
C10 C 0.14555(14) 0.60769(11) 0.59434(13)
C11 C 0.20659(15) 0.57772(12) 0.72309(13)
H12 H 0.1715 0.6087 0.7927
C12 C 0.02840(15) 0.69172(11) 0.57102(13)
H13 H 0.0670 0.7615 0.6108
H14 H -0.0455 0.6678 0.6165
C13 C 0.06525(13) 0.70445(10) 0.33777(12)
C14 C -0.04018(14) 0.71177(11) 0.42685(13)
H15 H -0.0841 0.7849 0.4177
H16 H -0.1159 0.6574 0.3980
C15 C 0.18214(14) 0.78966(11) 0.37191(12)
loop_
_geom_bond_atom_site_label_1
_geom_bond_atom_site_label_2
_geom_bond_site_symmetry_1
_geom_bond_site_symmetry_2
O1 C3 1_555 1_555
C1 H1 1_555 1_555
H2 C1 1_555 1_555
O2 C15 1_555 1_555
C2 C1 1_555 1_555
H3 C2 1_555 1_555
H4 C2 1_555 1_555
O3 H5 1_555 1_555
C3 C2 1_555 1_555
C4 C6 1_555 1_555
C5 C3 1_555 1_555
H6 C5 1_555 1_555
H7 C5 1_555 1_555
C6 C5 1_555 1_555
H8 C6 1_555 1_555
C7 C4 1_555 1_555
H9 C7 1_555 1_555
C8 C7 1_555 1_555
H10 C8 1_555 1_555
C9 C8 1_555 1_555
H11 C9 1_555 1_555
C10 C4 1_555 1_555
C11 C9 1_555 1_555
H12 C11 1_555 1_555
C12 C10 1_555 1_555
H13 C12 1_555 1_555
H14 C12 1_555 1_555
C13 C1 1_555 1_555
C14 C12 1_555 1_555
H15 C14 1_555 1_555
H16 C14 1_555 1_555
C15 O3 1_555 1_555
C6 C13 1_555 1_555
C10 C11 1_555 1_555
C13 C14 1_555 1_555
C13 C15 1_555 1_555

#END
