
#######################################################################
#
#                 Cambridge Crystallographic Data Centre
#                                CCDC 
#
#######################################################################
#
# If this CIF has been generated from an entry in the Cambridge 
# Structural Database, then it will include bibliographic, chemical, 
# crystal, experimental, refinement or atomic coordinate data resulting 
# from the CCDC's data processing and validation procedures.
#
#######################################################################

data_GOFWAB
_chemical_formula_moiety         'C28 H17 N1 S3'
_chemical_name_systematic        
N,N-Diphenylnaphtho[2,1-b]thieno[3',2':4,5]thieno[3,2-d]thiophen-2-amine
_symmetry_cell_setting           monoclinic
_symmetry_space_group_name_H-M   'P 21/c'
_symmetry_Int_Tables_number      14
_space_group_name_Hall           '-P 2ybc'
loop_
_symmetry_equiv_pos_site_id
_symmetry_equiv_pos_as_xyz
1 x,y,z
2 -x,1/2+y,1/2-z
3 -x,-y,-z
4 x,1/2-y,1/2+z
_cell_length_a                   8.144(3)
_cell_length_b                   17.917(6)
_cell_length_c                   16.517(5)
_cell_angle_alpha                90
_cell_angle_beta                 114.804(13)
_cell_angle_gamma                90
_cell_volume                     2187.76
_exptl_crystal_colour            yellow
_exptl_crystal_description       block
_cell_formula_units_Z            4
loop_
_atom_site_label
_atom_site_type_symbol
_atom_site_fract_x
_atom_site_fract_y
_atom_site_fract_z
S1 S 0.85312(10) 0.85421(4) 0.50642(4)
S2 S 1.20667(9) 0.92884(4) 0.51821(4)
S3 S 1.38035(8) 0.97869(4) 0.39204(4)
N1 N 0.5540(2) 0.80145(9) 0.03042(10)
C1 C 0.7011(3) 0.83145(14) 0.40092(15)
H1 H 0.5898 0.8094 0.3886
C2 C 0.7579(3) 0.84853(12) 0.33721(15)
H2 H 0.6892 0.8400 0.2767
C3 C 0.9347(3) 0.88114(10) 0.37244(12)
C4 C 0.9981(3) 0.88716(12) 0.46425(14)
C5 C 1.2125(3) 0.93981(11) 0.41566(13)
C6 C 1.0661(3) 0.91165(10) 0.34292(12)
C7 C 1.0956(2) 0.92046(9) 0.26216(12)
C8 C 1.2603(3) 0.95616(11) 0.28044(13)
C9 C 1.3238(3) 0.97266(11) 0.21495(15)
H3 H 1.4340 0.9967 0.2303
C10 C 1.2210(3) 0.95278(11) 0.12936(15)
H4 H 1.2608 0.9639 0.0855
C11 C 1.0533(3) 0.91518(10) 0.10541(12)
C12 C 0.9891(2) 0.89801(9) 0.17133(12)
C13 C 0.8223(2) 0.86081(10) 0.14430(12)
H5 H 0.7778 0.8505 0.1866
C14 C 0.7230(2) 0.83917(10) 0.05738(12)
C15 C 0.7895(3) 0.85504(11) -0.00721(13)
H6 H 0.7243 0.8400 -0.0660
C16 C 0.9487(3) 0.89224(11) 0.01653(13)
H7 H 0.9899 0.9029 -0.0269
C17 C 0.5169(2) 0.76053(10) 0.09585(12)
C18 C 0.6390(3) 0.70747(10) 0.14871(12)
H8 H 0.7434 0.6975 0.1408
C19 C 0.6058(3) 0.66945(11) 0.21309(13)
H9 H 0.6891 0.6345 0.2488
C20 C 0.4511(3) 0.68272(13) 0.22496(14)
H10 H 0.4292 0.6568 0.2682
C21 C 0.3289(3) 0.73494(14) 0.17199(14)
H11 H 0.2237 0.7442 0.1794
C22 C 0.3617(3) 0.77355(12) 0.10814(14)
H12 H 0.2785 0.8087 0.0729
C23 C 0.4039(3) 0.82840(11) -0.04621(12)
C24 C 0.3891(3) 0.90301(11) -0.07080(14)
H13 H 0.4786 0.9366 -0.0369
C25 C 0.2418(3) 0.92762(13) -0.14543(15)
H14 H 0.2339 0.9776 -0.1619
C26 C 0.1067(3) 0.87892(14) -0.19562(15)
H15 H 0.0076 0.8957 -0.2457
C27 C 0.1204(3) 0.80501(14) -0.17076(14)
H16 H 0.0289 0.7719 -0.2039
C28 C 0.2677(3) 0.77955(12) -0.09743(13)
H17 H 0.2760 0.7293 -0.0821
loop_
_geom_bond_atom_site_label_1
_geom_bond_atom_site_label_2
_geom_bond_site_symmetry_1
_geom_bond_site_symmetry_2
S1 C1 1_555 1_555
S2 C4 1_555 1_555
S3 C5 1_555 1_555
N1 C14 1_555 1_555
C1 H1 1_555 1_555
C2 C1 1_555 1_555
H2 C2 1_555 1_555
C3 C2 1_555 1_555
C4 S1 1_555 1_555
C5 S2 1_555 1_555
C6 C3 1_555 1_555
C7 C6 1_555 1_555
C8 S3 1_555 1_555
C9 C8 1_555 1_555
H3 C9 1_555 1_555
C10 C9 1_555 1_555
H4 C10 1_555 1_555
C11 C10 1_555 1_555
C12 C7 1_555 1_555
C13 C12 1_555 1_555
H5 C13 1_555 1_555
C14 C13 1_555 1_555
C15 C14 1_555 1_555
H6 C15 1_555 1_555
C16 C11 1_555 1_555
H7 C16 1_555 1_555
C17 N1 1_555 1_555
C18 C17 1_555 1_555
H8 C18 1_555 1_555
C19 C18 1_555 1_555
H9 C19 1_555 1_555
C20 C19 1_555 1_555
H10 C20 1_555 1_555
C21 C20 1_555 1_555
H11 C21 1_555 1_555
C22 C17 1_555 1_555
H12 C22 1_555 1_555
C23 N1 1_555 1_555
C24 C23 1_555 1_555
H13 C24 1_555 1_555
C25 C24 1_555 1_555
H14 C25 1_555 1_555
C26 C25 1_555 1_555
H15 C26 1_555 1_555
C27 C26 1_555 1_555
H16 C27 1_555 1_555
C28 C23 1_555 1_555
H17 C28 1_555 1_555
C3 C4 1_555 1_555
C5 C6 1_555 1_555
C7 C8 1_555 1_555
C11 C12 1_555 1_555
C15 C16 1_555 1_555
C21 C22 1_555 1_555
C27 C28 1_555 1_555

#END
