
#######################################################################
#
#                 Cambridge Crystallographic Data Centre
#                                CCDC 
#
#######################################################################
#
# If this CIF has been generated from an entry in the Cambridge 
# Structural Database, then it will include bibliographic, chemical, 
# crystal, experimental, refinement or atomic coordinate data resulting 
# from the CCDC's data processing and validation procedures.
#
#######################################################################

data_GOGFAJ
_chemical_name_common            
'Cyclo-O$4.2!,O$4.6!-(Tetramethylene)-t-butoxycarbonylvalyl-homoseryl-leucyl-alpha-aminoisobutyryl-valyl-homoseryl-leucine methyl ester dichloromethane solvate monohydrate'
_chemical_formula_moiety         'C44 H79 N7 O12,2(C1 H2 Cl2),H2 O1'
_chemical_name_systematic        
"Cyclo-O^4^,O^4'^-tetramethylene-t-butoxycarbonylvalyl-(homoseryl-O^4^-yl)-leucyl-\a-aminoisobutyryl-valyl-(homoseryl-O^4^-yl)-leucine methyl ester dichloromethane solvate monohydrate"
_symmetry_cell_setting           orthorhombic
_symmetry_space_group_name_H-M   'P 21 21 21'
_symmetry_Int_Tables_number      19
_space_group_name_Hall           'P 2ac 2ab'
loop_
_symmetry_equiv_pos_site_id
_symmetry_equiv_pos_as_xyz
1 x,y,z
2 1/2-x,-y,1/2+z
3 1/2+x,1/2-y,-z
4 -x,1/2+y,1/2-z
_cell_length_a                   19.30(1)
_cell_length_b                   24.73(2)
_cell_length_c                   12.134(7)
_cell_angle_alpha                90
_cell_angle_beta                 90
_cell_angle_gamma                90
_cell_volume                     5791.42
_exptl_crystal_colour            colorless
_exptl_crystal_description       irregular
_chemical_melting_point          '471 K'
_cell_formula_units_Z            4
_exptl_crystal_recrystallization_method dichloromethane/hexane
loop_
_atom_site_label
_atom_site_type_symbol
_atom_site_fract_x
_atom_site_fract_y
_atom_site_fract_z
O1 O 0.1915(5) 0.4750(4) 0.7831(10)
O2 O 0.1876(5) 0.3821(4) 0.7930(8)
O3 O 0.0516(5) 0.2982(4) 0.8664(8)
O4 O 0.0373(4) 0.2398(4) 0.5991(7)
O5 O 0.1727(4) 0.1557(4) 0.6479(7)
O6 O 0.0775(5) 0.0740(4) 0.8301(8)
O7 O -0.0353(5) 0.0372(4) 0.5887(9)
O8 O 0.1387(5) -0.0079(4) 0.4052(8)
O9 O 0.1289(6) -0.0727(4) 0.7158(9)
O10 O 0.2315(6) -0.1065(4) 0.6632(9)
O11 O 0.1112(5) 0.1988(4) 0.2972(8)
O12 O 0.0750(5) 0.3413(3) 0.4293(8)
N1 N 0.1091(7) 0.4349(4) 0.8802(10)
N2 N 0.0314(5) 0.3662(4) 0.7439(10)
N3 N 0.1245(6) 0.2954(4) 0.6501(9)
N4 N 0.1438(6) 0.2079(4) 0.7923(10)
N5 N 0.0230(6) 0.1482(4) 0.7558(10)
N6 N 0.0510(6) 0.0971(4) 0.5604(10)
N7 N 0.1503(6) 0.0186(5) 0.5845(9)
C1 C 0.2631(9) 0.5375(7) 0.6960(20)
C2 C 0.3119(9) 0.4494(10) 0.7508(18)
C3 C 0.2271(9) 0.4528(7) 0.5971(16)
C4 C 0.2460(9) 0.4773(6) 0.7062(15)
C5 C 0.1662(8) 0.4289(7) 0.8169(14)
C6 C 0.0709(7) 0.3889(6) 0.9283(12)
C7 C 0.0084(7) 0.4109(5) 0.9944(12)
C8 C 0.0302(7) 0.4395(6) 1.0988(2)
C9 C -0.0432(8) 0.3664(7) 1.0248(13)
C10 C 0.0522(7) 0.3472(6) 0.8423(14)
C11 C 0.0061(7) 0.3278(5) 0.6618(13)
C12 C 0.0587(7) 0.2835(5) 0.6365(11)
C13 C 0.1761(7) 0.2503(5) 0.6206(12)
C14 C 0.2493(7) 0.2747(5) 0.6362(12)
C15 C 0.3059(7) 0.2351(6) 0.6183(13)
C16 C 0.3777(8) 0.2609(7) 0.6390(13)
C17 C 0.3049(7) 0.2123(6) 0.5003(15)
C18 C 0.1636(7) 0.2020(6) 0.6864(12)
C19 C 0.1299(8) 0.1609(6) 0.8669(12)
C20 C 0.0983(10) 0.1811(6) 0.9757(13)
C21 C 0.1969(8) 0.1290(6) 0.8895(13)
C22 C 0.0739(8) 0.1225(6) 0.8138(12)
C23 C -0.0304(7) 0.1174(5) 0.7077(12)
C24 C -0.0859(7) 0.1556(6) 0.6637(12)
C25 C -0.1169(8) 0.1878(6) 0.7592(14)
C26 C -0.1447(7) 0.1237(6) 0.6021(14)
C27 C -0.0047(8) 0.0787(5) 0.6147(12)
C28 C 0.0764(6) 0.0709(5) 0.4593(11)
C29 C 0.1235(7) 0.0237(5) 0.4803(12)
C30 C 0.2071(7) -0.0190(6) 0.6041(12)
C31 C 0.2679(7) 0.0097(5) 0.6686(11)
C32 C 0.2978(7) 0.0572(6) 0.6056(12)
C33 C 0.3582(8) 0.0810(6) 0.6717(13)
C34 C 0.3211(8) 0.0414(6) 0.4893(14)
C35 C 0.1836(9) -0.0669(6) 0.6687(14)
C36 C 0.2139(10) -0.1560(6) 0.7230(14)
C37 C 0.1144(7) 0.1123(5) 0.3892(12)
C38 C 0.0683(7) 0.1584(6) 0.3518(12)
C39 C 0.0705(8) 0.2442(6) 0.2628(13)
C40 C 0.1191(8) 0.2877(6) 0.2214(12)
C41 C 0.1654(7) 0.3134(5) 0.3087(12)
C42 C 0.1332(8) 0.3591(5) 0.3709(12)
C43 C 0.0413(7) 0.3841(6) 0.4900(13)
C44 C -0.0168(7) 0.3599(6) 0.5568(13)
H1 H 0.313 0.547 0.686
H2 H 0.243 0.559 0.758
H3 H 0.237 0.547 0.627
H4 H 0.314 0.413 0.715
H5 H 0.309 0.444 0.832
H6 H 0.356 0.469 0.733
H7 H 0.175 0.453 0.593
H8 H 0.245 0.415 0.590
H9 H 0.246 0.475 0.536
H10 H 0.101 0.370 0.982
H11 H -0.014 0.437 0.941
H12 H 0.072 0.461 1.080
H13 H 0.044 0.409 1.149
H14 H -0.006 0.462 1.134
H15 H -0.031 0.332 0.986
H16 H -0.092 0.377 1.007
H17 H -0.039 0.360 1.106
H18 H -0.032 0.307 0.698
H19 H 0.172 0.240 0.541
H20 H 0.253 0.287 0.715
H21 H 0.256 0.307 0.587
H22 H 0.302 0.202 0.666
H23 H 0.386 0.289 0.581
H24 H 0.417 0.234 0.640
H25 H 0.374 0.279 0.713
H26 H 0.336 0.180 0.493
H27 H 0.321 0.242 0.450
H28 H 0.256 0.202 0.482
H29 H 0.086 0.149 1.024
H30 H 0.056 0.204 0.966
H31 H 0.135 0.203 1.013
H32 H 0.235 0.153 0.919
H33 H 0.213 0.111 0.821
H34 H 0.185 0.101 0.946
H35 H -0.052 0.094 0.767
H36 H -0.059 0.179 0.611
H37 H -0.133 0.164 0.820
H38 H -0.157 0.210 0.731
H39 H -0.081 0.213 0.789
H40 H -0.123 0.116 0.529
H41 H -0.185 0.148 0.590
H42 H -0.161 0.089 0.634
H43 H 0.037 0.055 0.417
H44 H 0.222 -0.028 0.527
H45 H 0.305 -0.018 0.680
H46 H 0.249 0.022 0.742
H47 H 0.264 0.087 0.592
H48 H 0.366 0.120 0.660
H49 H 0.402 0.061 0.659
H50 H 0.343 0.075 0.749
H51 H 0.362 0.018 0.505
H52 H 0.337 0.077 0.459
H53 H 0.286 0.023 0.440
H54 H 0.257 -0.174 0.752
H55 H 0.189 -0.182 0.674
H56 H 0.183 -0.146 0.786
H57 H 0.135 0.094 0.323
H58 H 0.152 0.129 0.434
H59 H 0.034 0.144 0.297
H60 H 0.043 0.175 0.415
H61 H 0.042 0.258 0.325
H62 H 0.039 0.233 0.201
H63 H 0.094 0.318 0.186
H64 H 0.150 0.270 0.166
H65 H 0.210 0.326 0.276
H66 H 0.175 0.285 0.365
H67 H 0.168 0.379 0.417
H68 H 0.115 0.384 0.313
H69 H 0.019 0.409 0.437
H70 H 0.075 0.405 0.537
H71 H -0.048 0.390 0.582
H72 H -0.043 0.334 0.508
H73 H 0.093 0.466 0.916
H74 H 0.034 0.406 0.727
H75 H 0.137 0.333 0.688
H76 H 0.126 0.237 0.828
H77 H 0.038 0.184 0.754
H78 H 0.085 0.128 0.581
H79 H 0.141 0.046 0.649
O13 O 0.5062(7) 0.5262(4) 0.1928(9)
Cl1 Cl 0.503(1) 0.465(1) 0.827(1)
Cl2 Cl 0.420(1) 0.417(1) 0.999(1)
C45 C 0.483(1) 0.459(1) 0.964(2)
Cl3 Cl 0.754(2) 0.198(1) 1.027(3)
Cl4 Cl 0.867(1) 0.238(1) 1.053(2)
C46 C 0.814(2) 0.169(2) 1.083(4)
Cl5? Cl 0.526(1) 0.447(1) 0.841(2)
Cl6? Cl 0.467(5) 0.483(4) 0.842(8)
Cl7? Cl 0.440(2) 0.370(1) 0.920(3)
Cl8? Cl 0.413(1) 0.463(1) 1.013(2)
Cl9? Cl 0.435(1) 0.389(1) 0.972(2)
Cl10? Cl 0.749(1) 0.137(1) 0.958(1)
Cl11? Cl 0.745(1) 0.177(1) 0.959(2)
Cl12? Cl 0.789(1) 0.238(1) 0.998(2)
Cl13? Cl 0.819(1) 0.244(1) 1.033(2)
loop_
_geom_bond_atom_site_label_1
_geom_bond_atom_site_label_2
_geom_bond_site_symmetry_1
_geom_bond_site_symmetry_2
O1 C4 1_555 1_555
O2 C5 1_555 1_555
O3 C10 1_555 1_555
O4 C12 1_555 1_555
O5 C18 1_555 1_555
O6 C22 1_555 1_555
O7 C27 1_555 1_555
O8 C29 1_555 1_555
O9 C35 1_555 1_555
O10 C35 1_555 1_555
O11 C38 1_555 1_555
O12 C42 1_555 1_555
N1 C5 1_555 1_555
N2 C10 1_555 1_555
N3 C12 1_555 1_555
N4 C18 1_555 1_555
N5 C22 1_555 1_555
N6 C27 1_555 1_555
N7 C29 1_555 1_555
C1 C4 1_555 1_555
C2 C4 1_555 1_555
C3 C4 1_555 1_555
C5 O1 1_555 1_555
C6 N1 1_555 1_555
C7 C6 1_555 1_555
C8 C7 1_555 1_555
C9 C7 1_555 1_555
C10 C6 1_555 1_555
C11 N2 1_555 1_555
C12 C11 1_555 1_555
C13 N3 1_555 1_555
C14 C13 1_555 1_555
C15 C14 1_555 1_555
C16 C15 1_555 1_555
C17 C15 1_555 1_555
C18 C13 1_555 1_555
C19 N4 1_555 1_555
C20 C19 1_555 1_555
C21 C19 1_555 1_555
C22 C19 1_555 1_555
C23 N5 1_555 1_555
C24 C23 1_555 1_555
C25 C24 1_555 1_555
C26 C24 1_555 1_555
C27 C23 1_555 1_555
C28 N6 1_555 1_555
C29 C28 1_555 1_555
C30 N7 1_555 1_555
C31 C30 1_555 1_555
C32 C31 1_555 1_555
C33 C32 1_555 1_555
C34 C32 1_555 1_555
C35 C30 1_555 1_555
C36 O10 1_555 1_555
C37 C28 1_555 1_555
C38 C37 1_555 1_555
C39 O11 1_555 1_555
C40 C39 1_555 1_555
C41 C40 1_555 1_555
C42 C41 1_555 1_555
C43 O12 1_555 1_555
C44 C11 1_555 1_555
H1 C1 1_555 1_555
H2 C1 1_555 1_555
H3 C1 1_555 1_555
H4 C2 1_555 1_555
H5 C2 1_555 1_555
H6 C2 1_555 1_555
H7 C3 1_555 1_555
H8 C3 1_555 1_555
H9 C3 1_555 1_555
H10 C6 1_555 1_555
H11 C7 1_555 1_555
H12 C8 1_555 1_555
H13 C8 1_555 1_555
H14 C8 1_555 1_555
H15 C9 1_555 1_555
H16 C9 1_555 1_555
H17 C9 1_555 1_555
H18 C11 1_555 1_555
H19 C13 1_555 1_555
H20 C14 1_555 1_555
H21 C14 1_555 1_555
H22 C15 1_555 1_555
H23 C16 1_555 1_555
H24 C16 1_555 1_555
H25 C16 1_555 1_555
H26 C17 1_555 1_555
H27 C17 1_555 1_555
H28 C17 1_555 1_555
H29 C20 1_555 1_555
H30 C20 1_555 1_555
H31 C20 1_555 1_555
H32 C21 1_555 1_555
H33 C21 1_555 1_555
H34 C21 1_555 1_555
H35 C23 1_555 1_555
H36 C24 1_555 1_555
H37 C25 1_555 1_555
H38 C25 1_555 1_555
H39 C25 1_555 1_555
H40 C26 1_555 1_555
H41 C26 1_555 1_555
H42 C26 1_555 1_555
H43 C28 1_555 1_555
H44 C30 1_555 1_555
H45 C31 1_555 1_555
H46 C31 1_555 1_555
H47 C32 1_555 1_555
H48 C33 1_555 1_555
H49 C33 1_555 1_555
H50 C33 1_555 1_555
H51 C34 1_555 1_555
H52 C34 1_555 1_555
H53 C34 1_555 1_555
H54 C36 1_555 1_555
H55 C36 1_555 1_555
H56 C36 1_555 1_555
H57 C37 1_555 1_555
H58 C37 1_555 1_555
H59 C38 1_555 1_555
H60 C38 1_555 1_555
H61 C39 1_555 1_555
H62 C39 1_555 1_555
H63 C40 1_555 1_555
H64 C40 1_555 1_555
H65 C41 1_555 1_555
H66 C41 1_555 1_555
H67 C42 1_555 1_555
H68 C42 1_555 1_555
H69 C43 1_555 1_555
H70 C43 1_555 1_555
H71 C44 1_555 1_555
H72 C44 1_555 1_555
H73 N1 1_555 1_555
H74 N2 1_555 1_555
H75 N3 1_555 1_555
H76 N4 1_555 1_555
H77 N5 1_555 1_555
H78 N6 1_555 1_555
H79 N7 1_555 1_555
Cl1 C45 1_555 1_555
Cl2 C45 1_555 1_555
Cl3 C46 1_555 1_555
Cl4 C46 1_555 1_555
C43 C44 1_555 1_555

#END
