
#######################################################################
#
#                 Cambridge Crystallographic Data Centre
#                                CCDC 
#
#######################################################################
#
# If this CIF has been generated from an entry in the Cambridge 
# Structural Database, then it will include bibliographic, chemical, 
# crystal, experimental, refinement or atomic coordinate data resulting 
# from the CCDC's data processing and validation procedures.
#
#######################################################################

data_GOGSAX
_chemical_formula_moiety         'C14 H12 Cl1 N3 O3'
_chemical_name_systematic        
(R)-6-(4-Chlorophenyl)-3-(1-hydroxyethyl)-4-methylisoxazolo[3,4-d]pyridazin-7(6H)-one
_symmetry_cell_setting           monoclinic
_symmetry_space_group_name_H-M   'P 21'
_symmetry_Int_Tables_number      4
_space_group_name_Hall           'P 2yb'
loop_
_symmetry_equiv_pos_site_id
_symmetry_equiv_pos_as_xyz
1 x,y,z
2 -x,1/2+y,-z
_cell_length_a                   9.2065(18)
_cell_length_b                   6.0755(12)
_cell_length_c                   12.534(3)
_cell_angle_alpha                90
_cell_angle_beta                 105.52(3)
_cell_angle_gamma                90
_cell_volume                     675.515
_exptl_crystal_colour            'pale yellow'
_exptl_crystal_description       plate
_cell_formula_units_Z            2
loop_
_atom_site_label
_atom_site_type_symbol
_atom_site_fract_x
_atom_site_fract_y
_atom_site_fract_z
C1 C 1.2560(3) 0.5976(4) 0.47034(19)
C2 C 1.1970(3) 0.3943(4) 0.4865(2)
H1 H 1.2515 0.2972 0.5424
C3 C 1.0562(3) 0.3353(4) 0.4190(2)
H2 H 1.0133 0.1970 0.4287
C4 C 0.9787(3) 0.4784(4) 0.33767(19)
C5 C 1.0382(2) 0.6826(5) 0.32259(18)
H3 H 0.9834 0.7801 0.2671
C6 C 1.1790(3) 0.7426(4) 0.3897(2)
H4 H 1.2217 0.8812 0.3803
C7 C 0.8196(3) 0.2380(4) 0.20091(19)
C8 C 0.6622(2) 0.1813(5) 0.14887(17)
C9 C 0.5441(3) 0.3069(4) 0.16947(19)
C10 C 0.5785(3) 0.5002(4) 0.23680(19)
C11 C 0.4561(3) 0.6471(5) 0.2539(2)
H5 H 0.3898 0.5629 0.2883
H6 H 0.3975 0.7048 0.1823
H7 H 0.5010 0.7697 0.3024
C12 C 0.4168(3) 0.2005(4) 0.11147(18)
C13 C 0.2517(3) 0.2342(4) 0.1014(2)
H8 H 0.2275 0.3941 0.0886
C14 C 0.1522(3) 0.1041(5) 0.0076(2)
H9 H 0.1744 -0.0531 0.0196
H10 H 0.1713 0.1498 -0.0625
H11 H 0.0463 0.1311 0.0046
Cl1 Cl 1.43257(6) 0.67108(9) 0.55405(5)
N1 N 0.8322(2) 0.4152(3) 0.27083(16)
N2 N 0.7169(2) 0.5530(3) 0.28493(17)
N3 N 0.6165(2) 0.0137(4) 0.08259(17)
O1 O 0.92821(17) 0.1385(3) 0.18562(13)
O2 O 0.45787(19) 0.0280(3) 0.05899(14)
O3 O 0.23573(18) 0.1749(4) 0.20728(13)
H12 H 0.1448 0.1854 0.2073
loop_
_geom_bond_atom_site_label_1
_geom_bond_atom_site_label_2
_geom_bond_site_symmetry_1
_geom_bond_site_symmetry_2
C1 C2 1_555 1_555
C2 H1 1_555 1_555
C3 C2 1_555 1_555
H2 C3 1_555 1_555
C4 C3 1_555 1_555
C5 C4 1_555 1_555
H3 C5 1_555 1_555
C6 C1 1_555 1_555
H4 C6 1_555 1_555
C7 C8 1_555 1_555
C8 C9 1_555 1_555
C9 C10 1_555 1_555
C10 C11 1_555 1_555
C11 H5 1_555 1_555
H6 C11 1_555 1_555
H7 C11 1_555 1_555
C12 C9 1_555 1_555
C13 C12 1_555 1_555
H8 C13 1_555 1_555
C14 C13 1_555 1_555
H9 C14 1_555 1_555
H10 C14 1_555 1_555
H11 C14 1_555 1_555
Cl1 C1 1_555 1_555
N1 C4 1_555 1_555
N2 C10 1_555 1_555
N3 C8 1_555 1_555
O1 C7 1_555 1_555
O2 C12 1_555 1_555
O3 C13 1_555 1_555
H12 O3 1_555 1_555
C5 C6 1_555 1_555
C7 N1 1_555 1_555
N1 N2 1_555 1_555
N3 O2 1_555 1_555

#END
