
#######################################################################
#
#                 Cambridge Crystallographic Data Centre
#                                CCDC 
#
#######################################################################
#
# If this CIF has been generated from an entry in the Cambridge 
# Structural Database, then it will include bibliographic, chemical, 
# crystal, experimental, refinement or atomic coordinate data resulting 
# from the CCDC's data processing and validation procedures.
#
#######################################################################

data_GOGXUW
_chemical_formula_moiety         'C30 H28 O4'
_chemical_name_systematic        
"diethyl 3-phenyl-2'H-spiro[indene-1,1'-naphthalene]-3',3'(4'H)-dicarboxylate"
_symmetry_cell_setting           monoclinic
_symmetry_space_group_name_H-M   'P 21/c'
_symmetry_Int_Tables_number      14
_space_group_name_Hall           '-P 2ybc'
loop_
_symmetry_equiv_pos_site_id
_symmetry_equiv_pos_as_xyz
1 x,y,z
2 -x,1/2+y,1/2-z
3 -x,-y,-z
4 x,1/2-y,1/2+z
_cell_length_a                   15.875(6)
_cell_length_b                   7.837(3)
_cell_length_c                   20.502(8)
_cell_angle_alpha                90
_cell_angle_beta                 107.938(5)
_cell_angle_gamma                90
_cell_volume                     2426.71
_exptl_crystal_colour            colorless
_exptl_crystal_description       column
_cell_formula_units_Z            4
loop_
_atom_site_label
_atom_site_type_symbol
_atom_site_fract_x
_atom_site_fract_y
_atom_site_fract_z
O1 O 0.43661(13) 0.4700(2) 0.34173(10)
O2 O 0.49810(11) 0.7217(2) 0.33583(8)
O3 O 0.35041(12) 0.9541(2) 0.21960(8)
O4 O 0.30141(12) 0.84321(19) 0.30126(8)
C1 C -0.01674(17) 0.8303(3) 0.19390(12)
H1 H 0.0306 0.8346 0.2342
C2 C -0.09224(18) 0.9217(4) 0.18915(14)
H2 H -0.0960 0.9864 0.2262
C3 C -0.16215(17) 0.9174(4) 0.12963(14)
H3 H -0.2133 0.9792 0.1264
C4 C -0.15672(16) 0.8230(3) 0.07551(14)
H4 H -0.2038 0.8216 0.0351
C5 C -0.08111(14) 0.7289(3) 0.08044(12)
H5 H -0.0782 0.6628 0.0435
C6 C -0.01004(13) 0.7323(3) 0.13984(10)
C7 C 0.07193(13) 0.6366(3) 0.14384(9)
C8 C 0.07463(13) 0.4569(3) 0.12386(10)
C9 C 0.00839(15) 0.3362(3) 0.10179(11)
H6 H -0.0500 0.3643 0.0973
C10 C 0.02980(18) 0.1741(3) 0.08662(12)
H7 H -0.0146 0.0929 0.0708
C11 C 0.11609(18) 0.1314(3) 0.09461(12)
H8 H 0.1297 0.0215 0.0840
C12 C 0.18385(16) 0.2505(3) 0.11841(11)
H9 H 0.2425 0.2203 0.1247
C13 C 0.16253(13) 0.4127(3) 0.13238(10)
C14 C 0.22224(12) 0.5676(2) 0.15774(10)
C15 C 0.15463(13) 0.6981(3) 0.16372(10)
H10 H 0.1690 0.8088 0.1795
C16 C 0.26413(13) 0.6272(2) 0.10338(10)
C17 C 0.20975(15) 0.6513(3) 0.03667(11)
H11 H 0.1495 0.6295 0.0261
C18 C 0.24286(16) 0.7066(3) -0.01401(12)
H12 H 0.2052 0.7223 -0.0584
C19 C 0.33198(17) 0.7388(3) 0.00103(13)
H13 H 0.3552 0.7748 -0.0332
C20 C 0.38631(15) 0.7174(3) 0.06688(12)
H14 H 0.4464 0.7405 0.0769
C21 C 0.35418(13) 0.6620(3) 0.11925(11)
C22 C 0.41685(13) 0.6440(3) 0.19046(11)
H15 H 0.4608 0.7340 0.1986
H16 H 0.4475 0.5357 0.1942
C23 C 0.37062(13) 0.6528(3) 0.24545(10)
C24 C 0.29284(13) 0.5273(3) 0.22633(10)
H17 H 0.2651 0.5278 0.2624
H18 H 0.3155 0.4133 0.2240
C25 C 0.43670(15) 0.6020(3) 0.31325(12)
C26 C 0.57268(17) 0.6861(4) 0.39675(14)
H19 H 0.5892 0.5669 0.3967
H20 H 0.6231 0.7547 0.3957
C27 C 0.5512(3) 0.7225(5) 0.45738(17)
H21 H 0.6016 0.6994 0.4966
H22 H 0.5024 0.6522 0.4592
H23 H 0.5350 0.8405 0.4575
C28 C 0.34086(14) 0.8354(3) 0.25285(11)
C29 C 0.2707(2) 1.0129(4) 0.31501(15)
H24 H 0.2500 1.0773 0.2727
H25 H 0.2219 1.0008 0.3338
C30 C 0.3423(2) 1.1015(4) 0.36278(19)
H26 H 0.3227 1.2128 0.3714
H27 H 0.3905 1.1127 0.3441
H28 H 0.3616 1.0385 0.4049
loop_
_geom_bond_atom_site_label_1
_geom_bond_atom_site_label_2
_geom_bond_site_symmetry_1
_geom_bond_site_symmetry_2
O1 C25 1_555 1_555
O2 C25 1_555 1_555
O3 C28 1_555 1_555
O4 C28 1_555 1_555
C1 H1 1_555 1_555
C2 C1 1_555 1_555
H2 C2 1_555 1_555
C3 C2 1_555 1_555
H3 C3 1_555 1_555
C4 C3 1_555 1_555
H4 C4 1_555 1_555
C5 C4 1_555 1_555
H5 C5 1_555 1_555
C6 C1 1_555 1_555
C7 C6 1_555 1_555
C8 C7 1_555 1_555
C9 C8 1_555 1_555
H6 C9 1_555 1_555
C10 C9 1_555 1_555
H7 C10 1_555 1_555
C11 C10 1_555 1_555
H8 C11 1_555 1_555
C12 C11 1_555 1_555
H9 C12 1_555 1_555
C13 C8 1_555 1_555
C14 C13 1_555 1_555
C15 C7 1_555 1_555
H10 C15 1_555 1_555
C16 C14 1_555 1_555
C17 C16 1_555 1_555
H11 C17 1_555 1_555
C18 C17 1_555 1_555
H12 C18 1_555 1_555
C19 C18 1_555 1_555
H13 C19 1_555 1_555
C20 C19 1_555 1_555
H14 C20 1_555 1_555
C21 C16 1_555 1_555
C22 C21 1_555 1_555
H15 C22 1_555 1_555
H16 C22 1_555 1_555
C23 C22 1_555 1_555
C24 C14 1_555 1_555
H17 C24 1_555 1_555
H18 C24 1_555 1_555
C25 C23 1_555 1_555
C26 O2 1_555 1_555
H19 C26 1_555 1_555
H20 C26 1_555 1_555
C27 C26 1_555 1_555
H21 C27 1_555 1_555
H22 C27 1_555 1_555
H23 C27 1_555 1_555
C28 C23 1_555 1_555
C29 O4 1_555 1_555
H24 C29 1_555 1_555
H25 C29 1_555 1_555
C30 C29 1_555 1_555
H26 C30 1_555 1_555
H27 C30 1_555 1_555
H28 C30 1_555 1_555
C5 C6 1_555 1_555
C12 C13 1_555 1_555
C14 C15 1_555 1_555
C20 C21 1_555 1_555
C23 C24 1_555 1_555

#END
