
#######################################################################
#
#                 Cambridge Crystallographic Data Centre
#                                CCDC 
#
#######################################################################
#
# If this CIF has been generated from an entry in the Cambridge 
# Structural Database, then it will include bibliographic, chemical, 
# crystal, experimental, refinement or atomic coordinate data resulting 
# from the CCDC's data processing and validation procedures.
#
#######################################################################

data_GOGXEG
_chemical_formula_moiety         'C30 H28 O4'
_chemical_name_systematic        
'diethyl 4-(2,2-diphenylethenyl)naphthalene-2,2(1H)-dicarboxylate'
_symmetry_cell_setting           monoclinic
_symmetry_space_group_name_H-M   'P 21/c'
_symmetry_Int_Tables_number      14
_space_group_name_Hall           '-P 2ybc'
loop_
_symmetry_equiv_pos_site_id
_symmetry_equiv_pos_as_xyz
1 x,y,z
2 -x,1/2+y,1/2-z
3 -x,-y,-z
4 x,1/2-y,1/2+z
_cell_length_a                   14.174(4)
_cell_length_b                   32.664(10)
_cell_length_c                   16.865(5)
_cell_angle_alpha                90
_cell_angle_beta                 107.136(5)
_cell_angle_gamma                90
_cell_volume                     7461.53
_exptl_crystal_colour            colorless
_exptl_crystal_description       prism
_cell_formula_units_Z            12
loop_
_atom_site_label
_atom_site_type_symbol
_atom_site_fract_x
_atom_site_fract_y
_atom_site_fract_z
O1 O 0.5961(2) 0.37024(11) 0.4498(2)
O2 O 0.48304(18) 0.40784(9) 0.48068(17)
O3 O 0.5900(2) 0.47538(10) 0.62410(17)
O4 O 0.61512(19) 0.40913(9) 0.65707(16)
C1 C 0.6466(2) 0.42973(12) 0.5351(2)
C2 C 0.7489(3) 0.41209(12) 0.5631(2)
H1 H 0.752(2) 0.3835(6) 0.570(2)
C3 C 0.8304(2) 0.43439(12) 0.5710(2)
C4 C 0.8225(3) 0.47817(12) 0.5501(2)
C5 C 0.9035(3) 0.50391(14) 0.5722(2)
H2 H 0.9652 0.4933 0.6004
C6 C 0.8942(4) 0.54485(16) 0.5530(3)
H3 H 0.9494 0.5618 0.5679
C7 C 0.8044(4) 0.56066(16) 0.5123(3)
H4 H 0.7979 0.5884 0.4998
C8 C 0.7227(3) 0.53543(16) 0.4896(3)
H5 H 0.6615 0.5464 0.4616
C9 C 0.7303(3) 0.49418(14) 0.5077(2)
C10 C 0.6436(3) 0.46633(13) 0.4783(2)
H6 H 0.6404 0.4564 0.4234
H7 H 0.5838 0.4818 0.4737
C11 C 0.5744(3) 0.39817(14) 0.4846(2)
C12 C 0.4023(3) 0.38315(15) 0.4272(3)
H8 H 0.4256 0.3560 0.4194
H9 H 0.3488 0.3806 0.4518
C13 C 0.3692(4) 0.40470(19) 0.3484(4)
H10 H 0.3161 0.3898 0.3111
H11 H 0.4229 0.4070 0.3250
H12 H 0.3465 0.4315 0.3573
C14 C 0.6134(3) 0.44162(15) 0.6101(2)
C15 C 0.5790(4) 0.41360(16) 0.7282(3)
H13 H 0.6268 0.4018 0.7763
H14 H 0.5734 0.4425 0.7391
C16 C 0.4927(5) 0.3960(2) 0.7187(4)
H15 H 0.4727 0.4000 0.7678
H16 H 0.4979 0.3672 0.7093
H17 H 0.4445 0.4080 0.6720
C17 C 0.9296(2) 0.41563(12) 0.5969(2)
H18 H 0.9709 0.4230 0.5655
C18 C 0.9680(2) 0.38974(11) 0.6586(2)
C19 C 1.0686(2) 0.37199(11) 0.6718(2)
C20 C 1.1283(3) 0.36365(11) 0.7512(2)
H19 H 1.1052 0.3693 0.7963
C21 C 1.2206(3) 0.34725(13) 0.7648(3)
H20 H 1.2595 0.3423 0.8188
C22 C 1.2564(3) 0.33807(13) 0.7002(4)
H21 H 1.3188 0.3267 0.7097
C23 C 1.1983(3) 0.34599(14) 0.6205(3)
H22 H 1.2217 0.3399 0.5758
C24 C 1.1051(3) 0.36295(12) 0.6067(3)
H23 H 1.0667 0.3683 0.5526
C25 C 0.9175(2) 0.37728(13) 0.7209(2)
C26 C 0.9053(3) 0.33656(14) 0.7352(2)
H24 H 0.9257 0.3170 0.7037
C27 C 0.8636(3) 0.32405(17) 0.7951(3)
H25 H 0.8545 0.2963 0.8032
C28 C 0.8359(3) 0.3524(2) 0.8422(3)
H26 H 0.8088 0.3441 0.8835
C29 C 0.8475(3) 0.39318(19) 0.8298(3)
H27 H 0.8279 0.4125 0.8623
C30 C 0.8885(3) 0.40585(14) 0.7688(2)
H28 H 0.8964 0.4336 0.7603
O5 O 0.5903(2) 0.81170(10) -0.07571(18)
O6 O 0.47311(18) 0.77285(9) -0.05255(18)
O7 O 0.58412(19) 0.70807(10) 0.10363(16)
O8 O 0.6040(2) 0.77526(9) 0.12773(16)
C31 C 0.6360(2) 0.75105(11) 0.0078(2)
C32 C 0.7398(3) 0.76712(12) 0.0324(2)
H29 H 0.748(2) 0.7947(6) 0.0473(19)
C33 C 0.8187(2) 0.74321(12) 0.0392(2)
C34 C 0.8066(2) 0.69927(12) 0.02169(19)
C35 C 0.8852(3) 0.67217(14) 0.0436(2)
H30 H 0.9480 0.6819 0.0711
C36 C 0.8720(3) 0.63131(15) 0.0256(3)
H31 H 0.9259 0.6136 0.0396
C37 C 0.7800(4) 0.61658(14) -0.0130(3)
H32 H 0.7707 0.5888 -0.0251
C38 C 0.7007(3) 0.64302(14) -0.0341(3)
H33 H 0.6379 0.6327 -0.0600
C39 C 0.7121(3) 0.68405(12) -0.0178(2)
C40 C 0.6279(2) 0.71318(12) -0.0465(2)
H34 H 0.5673 0.6989 -0.0484
H35 H 0.6232 0.7218 -0.1025
C41 C 0.5658(3) 0.78285(14) -0.0439(2)
C42 C 0.3969(3) 0.79851(16) -0.1085(3)
H36 H 0.3365 0.7977 -0.0926
H37 H 0.4191 0.8267 -0.1064
C43 C 0.3800(5) 0.7823(2) -0.1905(5)
H38 H 0.3304 0.7983 -0.2291
H39 H 0.3580 0.7544 -0.1917
H40 H 0.4402 0.7833 -0.2055
C44 C 0.6041(2) 0.74157(14) 0.0847(2)
C45 C 0.5703(4) 0.77113(16) 0.2005(3)
H41 H 0.5289 0.7470 0.1943
H42 H 0.6271 0.7670 0.2487
C46 C 0.5215(6) 0.8023(3) 0.2135(4)
H43 H 0.5014 0.7977 0.2623
H44 H 0.4642 0.8062 0.1666
H45 H 0.5625 0.8262 0.2211
C47 C 0.9189(2) 0.76062(12) 0.0615(2)
H46 H 0.9561 0.7542 0.0260
C48 C 0.9630(2) 0.78428(11) 0.1259(2)
C49 C 0.9161(2) 0.79428(12) 0.1919(2)
C50 C 0.9051(2) 0.83475(13) 0.2120(2)
H47 H 0.9265 0.8555 0.1838
C51 C 0.8627(3) 0.84452(16) 0.2735(3)
H48 H 0.8537 0.8717 0.2858
C52 C 0.8343(3) 0.8137(2) 0.3160(3)
H49 H 0.8071 0.8202 0.3584
C53 C 0.8446(3) 0.77370(19) 0.2981(3)
H50 H 0.8241 0.7531 0.3274
C54 C 0.8860(3) 0.76382(13) 0.2357(2)
H51 H 0.8935 0.7365 0.2232
C55 C 1.0623(2) 0.80173(11) 0.1364(2)
C56 C 1.1298(3) 0.80456(11) 0.2142(2)
H52 H 1.1119 0.7955 0.2601
C57 C 1.2225(3) 0.82029(14) 0.2258(3)
H53 H 1.2666 0.8217 0.2789
C58 C 1.2501(3) 0.83383(14) 0.1597(4)
H54 H 1.3130 0.8444 0.1675
C59 C 1.1850(4) 0.83177(14) 0.0821(3)
H55 H 1.2034 0.8413 0.0368
C60 C 1.0920(3) 0.81558(12) 0.0702(3)
H56 H 1.0486 0.8140 0.0168
O9 O 0.42265(19) 0.64004(10) 0.87425(17)
O10 O 0.40505(19) 0.57228(9) 0.86463(17)
O11 O 0.42081(19) 0.54879(10) 1.07878(17)
O12 O 0.53411(18) 0.58506(10) 1.04196(18)
C61 C 0.3697(2) 0.60283(12) 0.9781(2)
C62 C 0.2674(3) 0.58474(12) 0.9551(2)
H57 H 0.268(2) 0.5564(6) 0.951(2)
C63 C 0.1859(2) 0.60773(11) 0.94103(19)
C64 C 0.1928(2) 0.65234(11) 0.9502(2)
C65 C 0.1106(3) 0.67738(13) 0.9240(2)
H58 H 0.0492 0.6657 0.8990
C66 C 0.1179(3) 0.71921(14) 0.9343(3)
H59 H 0.0619 0.7356 0.9166
C67 C 0.2079(4) 0.73642(14) 0.9707(3)
H60 H 0.2133 0.7646 0.9779
C68 C 0.2911(3) 0.71215(14) 0.9968(3)
H61 H 0.3524 0.7242 1.0204
C69 C 0.2842(3) 0.67048(13) 0.9882(2)
C70 C 0.3725(2) 0.64364(12) 1.0232(2)
H62 H 0.3783 0.6381 1.0809
H63 H 0.4311 0.6585 1.0216
C71 C 0.4020(2) 0.60798(15) 0.9000(2)
C72 C 0.4395(4) 0.57188(16) 0.7919(3)
H64 H 0.3871 0.5810 0.7439
H65 H 0.4948 0.5905 0.7999
C73 C 0.4690(5) 0.53208(18) 0.7780(3)
H66 H 0.4917 0.5320 0.7297
H67 H 0.4139 0.5138 0.7695
H68 H 0.5214 0.5233 0.8253
C74 C 0.4419(3) 0.57472(13) 1.0373(2)
C75 C 0.6177(3) 0.56342(16) 1.1032(3)
H69 H 0.6755 0.5809 1.1203
H70 H 0.5992 0.5553 1.1519
C76 C 0.6361(4) 0.52889(17) 1.0601(3)
H71 H 0.6893 0.5133 1.0957
H72 H 0.6538 0.5376 1.0120
H73 H 0.5778 0.5122 1.0432
C77 C 0.0877(2) 0.58822(11) 0.9210(2)
H74 H 0.0479 0.5970 0.9528
C78 C 0.0478(2) 0.56009(11) 0.8646(2)
C79 C -0.0492(2) 0.54127(10) 0.8613(2)
C80 C -0.0730(3) 0.53265(11) 0.9334(3)
H75 H -0.0286 0.5393 0.9844
C81 C -0.1618(3) 0.51437(13) 0.9308(3)
H76 H -0.1755 0.5081 0.9800
C82 C -0.2286(3) 0.50553(14) 0.8575(4)
H77 H -0.2886 0.4935 0.8562
C83 C -0.2079(3) 0.51430(13) 0.7853(3)
H78 H -0.2542 0.5085 0.7347
C84 C -0.1180(3) 0.53182(12) 0.7867(3)
H79 H -0.1041 0.5372 0.7372
C85 C 0.0948(2) 0.54484(12) 0.8021(2)
C86 C 0.1050(2) 0.50351(13) 0.7909(2)
H80 H 0.0837 0.4850 0.8239
C87 C 0.1464(3) 0.48892(15) 0.7314(3)
H81 H 0.1546 0.4609 0.7258
C88 C 0.1745(3) 0.5157(2) 0.6816(3)
H82 H 0.2013 0.5061 0.6410
C89 C 0.1640(3) 0.55678(18) 0.6904(3)
H83 H 0.1834 0.5749 0.6557
C90 C 0.1244(3) 0.57165(13) 0.7508(2)
H84 H 0.1177 0.5997 0.7568
loop_
_geom_bond_atom_site_label_1
_geom_bond_atom_site_label_2
_geom_bond_site_symmetry_1
_geom_bond_site_symmetry_2
O1 C11 1_555 1_555
O2 C11 1_555 1_555
O3 C14 1_555 1_555
O4 C14 1_555 1_555
C1 C2 1_555 1_555
C2 H1 1_555 1_555
C3 C2 1_555 1_555
C4 C3 1_555 1_555
C5 C4 1_555 1_555
H2 C5 1_555 1_555
C6 C5 1_555 1_555
H3 C6 1_555 1_555
C7 C6 1_555 1_555
H4 C7 1_555 1_555
C8 C7 1_555 1_555
H5 C8 1_555 1_555
C9 C4 1_555 1_555
C10 C1 1_555 1_555
H6 C10 1_555 1_555
H7 C10 1_555 1_555
C11 C1 1_555 1_555
C12 O2 1_555 1_555
H8 C12 1_555 1_555
H9 C12 1_555 1_555
C13 C12 1_555 1_555
H10 C13 1_555 1_555
H11 C13 1_555 1_555
H12 C13 1_555 1_555
C14 C1 1_555 1_555
C15 O4 1_555 1_555
H13 C15 1_555 1_555
H14 C15 1_555 1_555
C16 C15 1_555 1_555
H15 C16 1_555 1_555
H16 C16 1_555 1_555
H17 C16 1_555 1_555
C17 C3 1_555 1_555
H18 C17 1_555 1_555
C18 C17 1_555 1_555
C19 C18 1_555 1_555
C20 C19 1_555 1_555
H19 C20 1_555 1_555
C21 C20 1_555 1_555
H20 C21 1_555 1_555
C22 C21 1_555 1_555
H21 C22 1_555 1_555
C23 C22 1_555 1_555
H22 C23 1_555 1_555
C24 C19 1_555 1_555
H23 C24 1_555 1_555
C25 C18 1_555 1_555
C26 C25 1_555 1_555
H24 C26 1_555 1_555
C27 C26 1_555 1_555
H25 C27 1_555 1_555
C28 C27 1_555 1_555
H26 C28 1_555 1_555
C29 C28 1_555 1_555
H27 C29 1_555 1_555
C30 C25 1_555 1_555
H28 C30 1_555 1_555
O5 C41 1_555 1_555
O6 C41 1_555 1_555
O7 C44 1_555 1_555
O8 C44 1_555 1_555
C31 C32 1_555 1_555
C32 H29 1_555 1_555
C33 C32 1_555 1_555
C34 C33 1_555 1_555
C35 C34 1_555 1_555
H30 C35 1_555 1_555
C36 C35 1_555 1_555
H31 C36 1_555 1_555
C37 C36 1_555 1_555
H32 C37 1_555 1_555
C38 C37 1_555 1_555
H33 C38 1_555 1_555
C39 C34 1_555 1_555
C40 C31 1_555 1_555
H34 C40 1_555 1_555
H35 C40 1_555 1_555
C41 C31 1_555 1_555
C42 O6 1_555 1_555
H36 C42 1_555 1_555
H37 C42 1_555 1_555
C43 C42 1_555 1_555
H38 C43 1_555 1_555
H39 C43 1_555 1_555
H40 C43 1_555 1_555
C44 C31 1_555 1_555
C45 O8 1_555 1_555
H41 C45 1_555 1_555
H42 C45 1_555 1_555
C46 C45 1_555 1_555
H43 C46 1_555 1_555
H44 C46 1_555 1_555
H45 C46 1_555 1_555
C47 C33 1_555 1_555
H46 C47 1_555 1_555
C48 C47 1_555 1_555
C49 C48 1_555 1_555
C50 C49 1_555 1_555
H47 C50 1_555 1_555
C51 C50 1_555 1_555
H48 C51 1_555 1_555
C52 C51 1_555 1_555
H49 C52 1_555 1_555
C53 C52 1_555 1_555
H50 C53 1_555 1_555
C54 C49 1_555 1_555
H51 C54 1_555 1_555
C55 C48 1_555 1_555
C56 C55 1_555 1_555
H52 C56 1_555 1_555
C57 C56 1_555 1_555
H53 C57 1_555 1_555
C58 C57 1_555 1_555
H54 C58 1_555 1_555
C59 C58 1_555 1_555
H55 C59 1_555 1_555
C60 C55 1_555 1_555
H56 C60 1_555 1_555
O9 C71 1_555 1_555
O10 C71 1_555 1_555
O11 C74 1_555 1_555
O12 C74 1_555 1_555
C61 C62 1_555 1_555
C62 H57 1_555 1_555
C63 C62 1_555 1_555
C64 C63 1_555 1_555
C65 C64 1_555 1_555
H58 C65 1_555 1_555
C66 C65 1_555 1_555
H59 C66 1_555 1_555
C67 C66 1_555 1_555
H60 C67 1_555 1_555
C68 C67 1_555 1_555
H61 C68 1_555 1_555
C69 C64 1_555 1_555
C70 C61 1_555 1_555
H62 C70 1_555 1_555
H63 C70 1_555 1_555
C71 C61 1_555 1_555
C72 O10 1_555 1_555
H64 C72 1_555 1_555
H65 C72 1_555 1_555
C73 C72 1_555 1_555
H66 C73 1_555 1_555
H67 C73 1_555 1_555
H68 C73 1_555 1_555
C74 C61 1_555 1_555
C75 O12 1_555 1_555
H69 C75 1_555 1_555
H70 C75 1_555 1_555
C76 C75 1_555 1_555
H71 C76 1_555 1_555
H72 C76 1_555 1_555
H73 C76 1_555 1_555
C77 C63 1_555 1_555
H74 C77 1_555 1_555
C78 C77 1_555 1_555
C79 C78 1_555 1_555
C80 C79 1_555 1_555
H75 C80 1_555 1_555
C81 C80 1_555 1_555
H76 C81 1_555 1_555
C82 C81 1_555 1_555
H77 C82 1_555 1_555
C83 C82 1_555 1_555
H78 C83 1_555 1_555
C84 C79 1_555 1_555
H79 C84 1_555 1_555
C85 C78 1_555 1_555
C86 C85 1_555 1_555
H80 C86 1_555 1_555
C87 C86 1_555 1_555
H81 C87 1_555 1_555
C88 C87 1_555 1_555
H82 C88 1_555 1_555
C89 C88 1_555 1_555
H83 C89 1_555 1_555
C90 C85 1_555 1_555
H84 C90 1_555 1_555
C8 C9 1_555 1_555
C9 C10 1_555 1_555
C23 C24 1_555 1_555
C29 C30 1_555 1_555
C38 C39 1_555 1_555
C39 C40 1_555 1_555
C53 C54 1_555 1_555
C59 C60 1_555 1_555
C68 C69 1_555 1_555
C69 C70 1_555 1_555
C83 C84 1_555 1_555
C89 C90 1_555 1_555

#END
