
#######################################################################
#
#                 Cambridge Crystallographic Data Centre
#                                CCDC 
#
#######################################################################
#
# If this CIF has been generated from an entry in the Cambridge 
# Structural Database, then it will include bibliographic, chemical, 
# crystal, experimental, refinement or atomic coordinate data resulting 
# from the CCDC's data processing and validation procedures.
#
#######################################################################

data_GOGYUY
_chemical_formula_moiety         'C48 H38 P2 2+,2(C24 H20 B1 1-),2(C1 H2 Cl2)'
_chemical_name_systematic        
"biphenyl-4,4'-diylbis(triphenylphosphonium) bis(tetraphenylborate) dichloromethane solvate"
_symmetry_cell_setting           triclinic
_symmetry_space_group_name_H-M   'P -1'
_symmetry_Int_Tables_number      2
_space_group_name_Hall           '-P 1'
loop_
_symmetry_equiv_pos_site_id
_symmetry_equiv_pos_as_xyz
1 x,y,z
2 -x,-y,-z
_cell_length_a                   9.9237(2)
_cell_length_b                   12.6195(3)
_cell_length_c                   15.7996(3)
_cell_angle_alpha                84.4236(10)
_cell_angle_beta                 88.7947(12)
_cell_angle_gamma                85.7301(12)
_cell_volume                     1963.6
_exptl_crystal_colour            colorless
_exptl_crystal_description       prism
_cell_formula_units_Z            1
loop_
_atom_site_label
_atom_site_type_symbol
_atom_site_fract_x
_atom_site_fract_y
_atom_site_fract_z
Cl1 Cl 0.28742(5) 0.23311(3) 0.50100(3)
Cl2 Cl 0.56762(4) 0.14191(4) 0.51137(3)
C1 C 0.4212(2) 0.16401(18) 0.44952(12)
H1 H 0.4425 0.2047 0.3978
H2 H 0.3927 0.0969 0.4375
B1 B 0.18889(13) 0.75840(11) 0.21628(9)
C2 C 0.16661(12) 0.85188(10) 0.28210(8)
C3 C 0.20719(12) 0.95587(10) 0.26491(8)
C4 C 0.19530(13) 1.02998(11) 0.32546(9)
C5 C 0.14284(14) 1.00195(13) 0.40585(9)
C6 C 0.09960(14) 0.89983(13) 0.42473(9)
C7 C 0.11054(13) 0.82713(11) 0.36360(8)
C8 C 0.28025(12) 0.66086(10) 0.27010(8)
C9 C 0.40074(13) 0.68112(11) 0.30990(9)
C10 C 0.47803(14) 0.60326(13) 0.35983(10)
C11 C 0.43647(16) 0.50017(13) 0.37414(9)
C12 C 0.31809(15) 0.47702(11) 0.33703(9)
C13 C 0.24218(13) 0.55595(10) 0.28650(8)
C14 C 0.04302(13) 0.72176(10) 0.18572(8)
C15 C 0.03803(14) 0.64219(11) 0.12937(8)
C16 C -0.08135(16) 0.61764(12) 0.09331(9)
C17 C -0.20258(16) 0.67120(13) 0.11365(10)
C18 C -0.20292(15) 0.74858(14) 0.16984(11)
C19 C -0.08196(14) 0.77306(12) 0.20483(10)
C20 C 0.26724(13) 0.80651(10) 0.12963(8)
C21 C 0.19422(15) 0.86992(11) 0.06559(8)
C22 C 0.25670(18) 0.91782(12) -0.00663(9)
C23 C 0.39603(18) 0.90343(14) -0.01784(9)
C24 C 0.47105(17) 0.84155(14) 0.04378(10)
C25 C 0.40781(14) 0.79347(12) 0.11560(9)
H3 H 0.2438 0.9765 0.2102
H4 H 0.2236 1.0999 0.3114
H5 H 0.1362 1.0517 0.4474
H6 H 0.0630 0.8796 0.4795
H7 H 0.0788 0.7583 0.3772
H8 H 0.4307 0.7512 0.3017
H9 H 0.5590 0.6208 0.3845
H10 H 0.4885 0.4465 0.4082
H11 H 0.2878 0.4071 0.3465
H12 H 0.1615 0.5377 0.2619
H13 H 0.1199 0.6033 0.1156
H14 H -0.0795 0.5646 0.0545
H15 H -0.2845 0.6549 0.0895
H16 H -0.2858 0.7852 0.1849
H17 H -0.0848 0.8268 0.2431
H18 H 0.0989 0.8803 0.0719
H19 H 0.2043 0.9607 -0.0484
H20 H 0.4394 0.9352 -0.0671
H21 H 0.5664 0.8316 0.0373
H22 H 0.4613 0.7506 0.1569
C26 C 0.54706(11) 0.47284(9) 0.03256(7)
C27 C 0.52677(12) 0.48485(11) 0.11921(7)
C28 C 0.61523(13) 0.43360(11) 0.17960(8)
C29 C 0.72599(11) 0.36875(9) 0.15432(7)
C30 C 0.74830(13) 0.35637(10) 0.06832(8)
C31 C 0.65882(13) 0.40770(11) 0.00868(8)
C32 C 0.83114(11) 0.37110(9) 0.32312(7)
C33 C 0.86366(12) 0.47789(10) 0.30860(8)
C34 C 0.86747(14) 0.53894(11) 0.37688(8)
C35 C 0.83579(14) 0.49548(12) 0.45844(8)
C36 C 0.80046(15) 0.39081(12) 0.47248(8)
C37 C 0.79916(13) 0.32772(10) 0.40499(8)
C38 C 0.75250(12) 0.17029(9) 0.26258(8)
C39 C 0.62118(13) 0.15666(11) 0.23779(9)
C40 C 0.56457(15) 0.06003(13) 0.26060(9)
C41 C 0.63800(16) -0.02180(11) 0.30843(10)
C42 C 0.76833(15) -0.00834(11) 0.33356(9)
C43 C 0.82691(13) 0.08700(10) 0.31038(9)
C44 C 0.99579(11) 0.26524(9) 0.19321(7)
C45 C 1.10127(13) 0.32422(11) 0.21434(9)
C46 C 1.22861(14) 0.30716(13) 0.17730(11)
C47 C 1.25005(15) 0.23152(13) 0.11964(10)
C48 C 1.14624(15) 0.17132(12) 0.09941(9)
C49 C 1.01878(13) 0.18741(11) 0.13616(8)
P1 P 0.82815(3) 0.29374(2) 0.233998(18)
H23 H 0.4515 0.5288 0.1369
H24 H 0.6003 0.4424 0.2382
H25 H 0.8240 0.3129 0.0506
H26 H 0.6738 0.3987 -0.0499
H27 H 0.8824 0.5080 0.2525
H28 H 0.8924 0.6104 0.3679
H29 H 0.8381 0.5378 0.5049
H30 H 0.7772 0.3619 0.5282
H31 H 0.7766 0.2556 0.4145
H32 H 0.5710 0.2130 0.2054
H33 H 0.4756 0.0501 0.2433
H34 H 0.5985 -0.0873 0.3240
H35 H 0.8174 -0.0645 0.3668
H36 H 0.9168 0.0959 0.3264
H37 H 1.0864 0.3754 0.2544
H38 H 1.3004 0.3477 0.1915
H39 H 1.3365 0.2211 0.0936
H40 H 1.1620 0.1189 0.0604
H41 H 0.9477 0.1456 0.1230
C26A C 0.45294(11) 0.52716(9) -0.03256(7)
C27A C 0.47323(12) 0.51515(11) -0.11921(7)
C28A C 0.38477(13) 0.56640(11) -0.17960(8)
C29A C 0.27401(11) 0.63125(9) -0.15432(7)
C30A C 0.25170(13) 0.64363(10) -0.06832(8)
C31A C 0.34118(13) 0.59230(11) -0.00868(8)
C32A C 0.16886(11) 0.62890(9) -0.32312(7)
C33A C 0.13634(12) 0.52211(10) -0.30860(8)
C34A C 0.13253(14) 0.46106(11) -0.37688(8)
C35A C 0.16421(14) 0.50452(12) -0.45844(8)
C36A C 0.19954(15) 0.60919(12) -0.47248(8)
C37A C 0.20084(13) 0.67228(10) -0.40499(8)
C38A C 0.24750(12) 0.82971(9) -0.26258(8)
C39A C 0.37882(13) 0.84334(11) -0.23779(9)
C40A C 0.43543(15) 0.93997(13) -0.26060(9)
C41A C 0.36200(16) 1.02180(11) -0.30843(10)
C42A C 0.23167(15) 1.00834(11) -0.33356(9)
C43A C 0.17309(13) 0.91300(10) -0.31038(9)
C44A C 0.00421(11) 0.73476(9) -0.19321(7)
C45A C -0.10127(13) 0.67578(11) -0.21434(9)
C46A C -0.22861(14) 0.69284(13) -0.17730(11)
C47A C -0.25005(15) 0.76848(13) -0.11964(10)
C48A C -0.14624(15) 0.82868(12) -0.09941(9)
C49A C -0.01878(13) 0.81259(11) -0.13616(8)
P1A P 0.17185(3) 0.70626(2) -0.233998(18)
H23A H 0.5485 0.4712 -0.1369
H24A H 0.3997 0.5576 -0.2382
H25A H 0.1760 0.6871 -0.0506
H26A H 0.3262 0.6013 0.0499
H27A H 0.1176 0.4920 -0.2525
H28A H 0.1076 0.3896 -0.3679
H29A H 0.1619 0.4622 -0.5049
H30A H 0.2228 0.6381 -0.5282
H31A H 0.2234 0.7444 -0.4145
H32A H 0.4290 0.7870 -0.2054
H33A H 0.5244 0.9499 -0.2433
H34A H 0.4015 1.0873 -0.3240
H35A H 0.1826 1.0645 -0.3668
H36A H 0.0832 0.9041 -0.3264
H37A H -0.0864 0.6246 -0.2544
H38A H -0.3004 0.6523 -0.1915
H39A H -0.3365 0.7789 -0.0936
H40A H -0.1620 0.8811 -0.0604
H41A H 0.0523 0.8544 -0.1230
loop_
_geom_bond_atom_site_label_1
_geom_bond_atom_site_label_2
_geom_bond_site_symmetry_1
_geom_bond_site_symmetry_2
Cl1 C1 1_555 1_555
Cl2 C1 1_555 1_555
C1 H1 1_555 1_555
H2 C1 1_555 1_555
B1 C2 1_555 1_555
C2 C3 1_555 1_555
C3 C4 1_555 1_555
C4 C5 1_555 1_555
C5 C6 1_555 1_555
C6 C7 1_555 1_555
C7 C2 1_555 1_555
C8 B1 1_555 1_555
C9 C8 1_555 1_555
C10 C9 1_555 1_555
C11 C10 1_555 1_555
C12 C11 1_555 1_555
C13 C8 1_555 1_555
C14 B1 1_555 1_555
C15 C14 1_555 1_555
C16 C15 1_555 1_555
C17 C16 1_555 1_555
C18 C17 1_555 1_555
C19 C14 1_555 1_555
C20 B1 1_555 1_555
C21 C20 1_555 1_555
C22 C21 1_555 1_555
C23 C22 1_555 1_555
C24 C23 1_555 1_555
C25 C20 1_555 1_555
H3 C3 1_555 1_555
H4 C4 1_555 1_555
H5 C5 1_555 1_555
H6 C6 1_555 1_555
H7 C7 1_555 1_555
H8 C9 1_555 1_555
H9 C10 1_555 1_555
H10 C11 1_555 1_555
H11 C12 1_555 1_555
H12 C13 1_555 1_555
H13 C15 1_555 1_555
H14 C16 1_555 1_555
H15 C17 1_555 1_555
H16 C18 1_555 1_555
H17 C19 1_555 1_555
H18 C21 1_555 1_555
H19 C22 1_555 1_555
H20 C23 1_555 1_555
H21 C24 1_555 1_555
H22 C25 1_555 1_555
C26 C27 1_555 1_555
C27 C28 1_555 1_555
C28 C29 1_555 1_555
C29 C30 1_555 1_555
C30 C31 1_555 1_555
C31 C26 1_555 1_555
C32 C33 1_555 1_555
C33 C34 1_555 1_555
C34 C35 1_555 1_555
C35 C36 1_555 1_555
C36 C37 1_555 1_555
C37 C32 1_555 1_555
C38 C39 1_555 1_555
C39 C40 1_555 1_555
C40 C41 1_555 1_555
C41 C42 1_555 1_555
C42 C43 1_555 1_555
C43 C38 1_555 1_555
C44 C45 1_555 1_555
C45 C46 1_555 1_555
C46 C47 1_555 1_555
C47 C48 1_555 1_555
C48 C49 1_555 1_555
C49 C44 1_555 1_555
P1 C29 1_555 1_555
H23 C27 1_555 1_555
H24 C28 1_555 1_555
H25 C30 1_555 1_555
H26 C31 1_555 1_555
H27 C33 1_555 1_555
H28 C34 1_555 1_555
H29 C35 1_555 1_555
H30 C36 1_555 1_555
H31 C37 1_555 1_555
H32 C39 1_555 1_555
H33 C40 1_555 1_555
H34 C41 1_555 1_555
H35 C42 1_555 1_555
H36 C43 1_555 1_555
H37 C45 1_555 1_555
H38 C46 1_555 1_555
H39 C47 1_555 1_555
H40 C48 1_555 1_555
H41 C49 1_555 1_555
C26A C26 1_555 1_555
C27A C26A 1_555 1_555
C28A C27A 1_555 1_555
C29A C28A 1_555 1_555
C30A C29A 1_555 1_555
C31A C26A 1_555 1_555
C32A C33A 1_555 1_555
C33A C34A 1_555 1_555
C34A C35A 1_555 1_555
C35A C36A 1_555 1_555
C36A C37A 1_555 1_555
C37A C32A 1_555 1_555
C38A C39A 1_555 1_555
C39A C40A 1_555 1_555
C40A C41A 1_555 1_555
C41A C42A 1_555 1_555
C42A C43A 1_555 1_555
C43A C38A 1_555 1_555
C44A C45A 1_555 1_555
C45A C46A 1_555 1_555
C46A C47A 1_555 1_555
C47A C48A 1_555 1_555
C48A C49A 1_555 1_555
C49A C44A 1_555 1_555
P1A C29A 1_555 1_555
H23A C27A 1_555 1_555
H24A C28A 1_555 1_555
H25A C30A 1_555 1_555
H26A C31A 1_555 1_555
H27A C33A 1_555 1_555
H28A C34A 1_555 1_555
H29A C35A 1_555 1_555
H30A C36A 1_555 1_555
H31A C37A 1_555 1_555
H32A C39A 1_555 1_555
H33A C40A 1_555 1_555
H34A C41A 1_555 1_555
H35A C42A 1_555 1_555
H36A C43A 1_555 1_555
H37A C45A 1_555 1_555
H38A C46A 1_555 1_555
H39A C47A 1_555 1_555
H40A C48A 1_555 1_555
H41A C49A 1_555 1_555
C12 C13 1_555 1_555
C18 C19 1_555 1_555
C24 C25 1_555 1_555
C32 P1 1_555 1_555
C38 P1 1_555 1_555
C44 P1 1_555 1_555
C30A C31A 1_555 1_555
C32A P1A 1_555 1_555
C38A P1A 1_555 1_555
C44A P1A 1_555 1_555

#END
