
#######################################################################
#
#                 Cambridge Crystallographic Data Centre
#                                CCDC 
#
#######################################################################
#
# If this CIF has been generated from an entry in the Cambridge 
# Structural Database, then it will include bibliographic, chemical, 
# crystal, experimental, refinement or atomic coordinate data resulting 
# from the CCDC's data processing and validation procedures.
#
#######################################################################

data_GOGYEI
_chemical_formula_moiety         'C56 H36 B1 1-,C16 H36 N1 1+,C1 H2 Cl2'
_chemical_name_systematic        
'tetrabutylammonium tetrakis(4-(phenylethynyl)phenyl)borate dichloromethane solvate'
_symmetry_cell_setting           triclinic
_symmetry_space_group_name_H-M   'P -1'
_symmetry_Int_Tables_number      2
_space_group_name_Hall           '-P 1'
loop_
_symmetry_equiv_pos_site_id
_symmetry_equiv_pos_as_xyz
1 x,y,z
2 -x,-y,-z
_cell_length_a                   12.7434(2)
_cell_length_b                   13.4143(3)
_cell_length_c                   17.8647(4)
_cell_angle_alpha                85.6864(9)
_cell_angle_beta                 82.7611(12)
_cell_angle_gamma                77.3981(12)
_cell_volume                     2952.94
_exptl_crystal_colour            colorless
_exptl_crystal_description       needle
_cell_formula_units_Z            2
loop_
_atom_site_label
_atom_site_type_symbol
_atom_site_fract_x
_atom_site_fract_y
_atom_site_fract_z
Cl1 Cl 0.11390(5) 0.32094(5) 0.10294(4)
Cl2 Cl 0.24556(6) 0.45151(5) 0.01606(4)
C1 C 0.2196(2) 0.32712(18) 0.03006(14)
H1 H 0.2833 0.2811 0.0431
H2 H 0.2001 0.3077 -0.0155
C2 C 0.23807(13) 0.08863(12) 0.39470(9)
C3 C 0.14284(14) 0.07806(13) 0.44022(10)
C4 C 0.10507(14) 0.13079(13) 0.50594(10)
C5 C 0.16176(14) 0.19894(13) 0.52914(10)
C6 C 0.25757(14) 0.21143(13) 0.48483(10)
C7 C 0.29386(14) 0.15661(13) 0.42040(10)
C8 C 0.12835(14) 0.25380(13) 0.59683(10)
C9 C 0.10949(15) 0.29818(13) 0.65459(10)
C10 C 0.09484(16) 0.34603(13) 0.72542(10)
C11 C -0.00425(19) 0.35742(16) 0.77125(12)
C12 C -0.0162(2) 0.40200(18) 0.84034(13)
C13 C 0.0685(3) 0.43425(18) 0.86480(13)
C14 C 0.1672(2) 0.42273(17) 0.81953(13)
C15 C 0.18013(19) 0.37969(15) 0.74994(12)
C16 C 0.19358(13) -0.00495(12) 0.27631(9)
C17 C 0.16646(14) 0.03962(13) 0.20585(10)
C18 C 0.08414(14) 0.01728(14) 0.17033(10)
C19 C 0.02126(14) -0.05073(13) 0.20487(10)
C20 C 0.04620(14) -0.09708(13) 0.27544(10)
C21 C 0.13084(14) -0.07560(13) 0.30872(10)
C22 C -0.06543(15) -0.07110(14) 0.16843(10)
C23 C -0.13821(15) -0.08463(14) 0.13673(11)
C24 C -0.22731(14) -0.09728(14) 0.09884(11)
C25 C -0.24363(16) -0.04890(15) 0.02752(11)
C26 C -0.33266(17) -0.05656(16) -0.00720(12)
C27 C -0.40684(16) -0.11163(15) 0.02883(12)
C28 C -0.39048(16) -0.16142(15) 0.09861(12)
C29 C -0.30130(15) -0.15469(14) 0.13375(11)
C30 C 0.36001(13) 0.08882(12) 0.26014(9)
C31 C 0.45821(14) 0.04573(13) 0.21824(10)
C32 C 0.51098(14) 0.10090(14) 0.16230(10)
C33 C 0.46639(14) 0.20396(13) 0.14498(10)
C34 C 0.36998(14) 0.24997(13) 0.18694(10)
C35 C 0.31945(14) 0.19345(13) 0.24280(10)
C36 C 0.51526(15) 0.25635(14) 0.08126(10)
C37 C 0.55230(15) 0.29115(14) 0.02242(11)
C38 C 0.59635(15) 0.32166(15) -0.05132(10)
C39 C 0.68076(16) 0.25351(16) -0.09069(11)
C40 C 0.72289(17) 0.27936(18) -0.16311(12)
C41 C 0.68179(19) 0.37356(18) -0.19717(12)
C42 C 0.59846(19) 0.44186(18) -0.15870(12)
C43 C 0.55509(17) 0.41626(15) -0.08654(11)
C44 C 0.36865(13) -0.08513(12) 0.34743(9)
C45 C 0.40782(14) -0.10003(13) 0.41808(10)
C46 C 0.47827(14) -0.18872(13) 0.43994(10)
C47 C 0.51359(13) -0.26896(13) 0.39091(10)
C48 C 0.47528(14) -0.25723(13) 0.32005(10)
C49 C 0.40410(14) -0.16756(13) 0.29976(10)
C50 C 0.58654(14) -0.36021(13) 0.41498(10)
C51 C 0.64588(14) -0.43347(13) 0.44049(10)
C52 C 0.71799(14) -0.51738(13) 0.47502(10)
C53 C 0.67879(14) -0.60135(13) 0.51000(10)
C54 C 0.74667(15) -0.67848(14) 0.54786(11)
C55 C 0.85280(15) -0.67235(14) 0.55216(12)
C56 C 0.89275(15) -0.59003(15) 0.51679(12)
C57 C 0.82578(15) -0.51296(13) 0.47816(11)
B1 B 0.28940(15) 0.02219(14) 0.31996(11)
H3 H 0.1025 0.0324 0.4256
H4 H 0.0404 0.1203 0.5352
H5 H 0.2976 0.2575 0.4991
H6 H 0.3600 0.1652 0.3923
H7 H -0.0627 0.3342 0.7552
H8 H -0.0837 0.4109 0.8711
H9 H 0.0598 0.4639 0.9124
H10 H 0.2260 0.4445 0.8364
H11 H 0.2470 0.3731 0.7186
H12 H 0.2061 0.0875 0.1814
H13 H 0.0703 0.0482 0.1220
H14 H 0.0048 -0.1433 0.3003
H15 H 0.1473 -0.1097 0.3557
H16 H -0.1932 -0.0109 0.0031
H17 H -0.3425 -0.0242 -0.0557
H18 H -0.4689 -0.1150 0.0056
H19 H -0.4405 -0.2001 0.1227
H20 H -0.2899 -0.1895 0.1813
H21 H 0.4901 -0.0240 0.2290
H22 H 0.5773 0.0685 0.1354
H23 H 0.3392 0.3201 0.1768
H24 H 0.2545 0.2266 0.2709
H25 H 0.7090 0.1889 -0.0674
H26 H 0.7802 0.2327 -0.1893
H27 H 0.7104 0.3915 -0.2468
H28 H 0.5706 0.5067 -0.1819
H29 H 0.4975 0.4629 -0.0606
H30 H 0.3851 -0.0469 0.4526
H31 H 0.5029 -0.1952 0.4884
H32 H 0.4982 -0.3104 0.2856
H33 H 0.3782 -0.1619 0.2517
H34 H 0.6059 -0.6055 0.5072
H35 H 0.7199 -0.7355 0.5710
H36 H 0.8984 -0.7244 0.5793
H37 H 0.9659 -0.5865 0.5191
H38 H 0.8532 -0.4570 0.4538
C58 C 0.71994(15) 0.14425(13) 0.28625(10)
C59 C 0.70849(17) 0.09927(15) 0.36710(11)
C60 C 0.63902(17) 0.01833(15) 0.37320(11)
C61 C 0.68247(17) -0.06591(15) 0.31821(11)
C62 C 0.66879(14) 0.32790(14) 0.32067(11)
C63 C 0.55110(15) 0.32929(14) 0.31140(11)
C64 C 0.47616(15) 0.42267(15) 0.34755(11)
C65 C 0.35765(15) 0.42159(14) 0.34556(11)
C66 C 0.75915(15) 0.28199(14) 0.19379(10)
C67 C 0.84552(16) 0.21654(14) 0.14127(11)
C68 C 0.84786(17) 0.26551(17) 0.06122(11)
C69 C 0.92805(19) 0.19952(18) 0.00500(12)
C70 C 0.86079(14) 0.23536(14) 0.30765(10)
C71 C 0.91201(15) 0.32842(14) 0.29747(11)
C72 C 1.01690(15) 0.30342(15) 0.33417(12)
C73 C 1.07427(17) 0.39237(16) 0.32795(13)
N1 N 0.75242(12) 0.24739(11) 0.27715(8)
H39 H 0.7734 0.0971 0.2574
H40 H 0.6523 0.1517 0.2671
H41 H 0.7781 0.0684 0.3812
H42 H 0.6754 0.1528 0.3997
H43 H 0.6363 -0.0116 0.4231
H44 H 0.5680 0.0510 0.3628
H45 H 0.6370 -0.1141 0.3237
H46 H 0.7534 -0.0994 0.3284
H47 H 0.6850 -0.0367 0.2681
H48 H 0.6775 0.3162 0.3728
H49 H 0.6825 0.3933 0.3039
H50 H 0.5322 0.2689 0.3352
H51 H 0.5430 0.3317 0.2591
H52 H 0.4893 0.4230 0.3987
H53 H 0.4916 0.4828 0.3209
H54 H 0.3132 0.4803 0.3683
H55 H 0.3418 0.3617 0.3722
H56 H 0.3441 0.4215 0.2945
H57 H 0.7728 0.3491 0.1896
H58 H 0.6910 0.2834 0.1770
H59 H 0.9142 0.2104 0.1587
H60 H 0.8298 0.1506 0.1406
H61 H 0.8675 0.3298 0.0619
H62 H 0.7776 0.2756 0.0456
H63 H 0.9272 0.2326 -0.0439
H64 H 0.9986 0.1894 0.0202
H65 H 0.9086 0.1352 0.0039
H66 H 0.8510 0.2178 0.3602
H67 H 0.9100 0.1810 0.2827
H68 H 0.8640 0.3846 0.3211
H69 H 0.9268 0.3455 0.2452
H70 H 1.0007 0.2848 0.3860
H71 H 1.0638 0.2473 0.3098
H72 H 1.1390 0.3726 0.3515
H73 H 1.0282 0.4488 0.3525
H74 H 1.0913 0.4113 0.2763
loop_
_geom_bond_atom_site_label_1
_geom_bond_atom_site_label_2
_geom_bond_site_symmetry_1
_geom_bond_site_symmetry_2
Cl1 C1 1_555 1_555
Cl2 C1 1_555 1_555
C1 H1 1_555 1_555
H2 C1 1_555 1_555
C2 C3 1_555 1_555
C3 C4 1_555 1_555
C4 C5 1_555 1_555
C5 C6 1_555 1_555
C6 C7 1_555 1_555
C7 C2 1_555 1_555
C8 C5 1_555 1_555
C9 C8 1_555 1_555
C10 C9 1_555 1_555
C11 C10 1_555 1_555
C12 C11 1_555 1_555
C13 C12 1_555 1_555
C14 C13 1_555 1_555
C15 C10 1_555 1_555
C16 C17 1_555 1_555
C17 C18 1_555 1_555
C18 C19 1_555 1_555
C19 C20 1_555 1_555
C20 C21 1_555 1_555
C21 C16 1_555 1_555
C22 C19 1_555 1_555
C23 C22 1_555 1_555
C24 C23 1_555 1_555
C25 C24 1_555 1_555
C26 C25 1_555 1_555
C27 C26 1_555 1_555
C28 C27 1_555 1_555
C29 C24 1_555 1_555
C30 C31 1_555 1_555
C31 C32 1_555 1_555
C32 C33 1_555 1_555
C33 C34 1_555 1_555
C34 C35 1_555 1_555
C35 C30 1_555 1_555
C36 C33 1_555 1_555
C37 C36 1_555 1_555
C38 C37 1_555 1_555
C39 C38 1_555 1_555
C40 C39 1_555 1_555
C41 C40 1_555 1_555
C42 C41 1_555 1_555
C43 C38 1_555 1_555
C44 C45 1_555 1_555
C45 C46 1_555 1_555
C46 C47 1_555 1_555
C47 C48 1_555 1_555
C48 C49 1_555 1_555
C49 C44 1_555 1_555
C50 C47 1_555 1_555
C51 C50 1_555 1_555
C52 C51 1_555 1_555
C53 C52 1_555 1_555
C54 C53 1_555 1_555
C55 C54 1_555 1_555
C56 C55 1_555 1_555
C57 C52 1_555 1_555
B1 C2 1_555 1_555
H3 C3 1_555 1_555
H4 C4 1_555 1_555
H5 C6 1_555 1_555
H6 C7 1_555 1_555
H7 C11 1_555 1_555
H8 C12 1_555 1_555
H9 C13 1_555 1_555
H10 C14 1_555 1_555
H11 C15 1_555 1_555
H12 C17 1_555 1_555
H13 C18 1_555 1_555
H14 C20 1_555 1_555
H15 C21 1_555 1_555
H16 C25 1_555 1_555
H17 C26 1_555 1_555
H18 C27 1_555 1_555
H19 C28 1_555 1_555
H20 C29 1_555 1_555
H21 C31 1_555 1_555
H22 C32 1_555 1_555
H23 C34 1_555 1_555
H24 C35 1_555 1_555
H25 C39 1_555 1_555
H26 C40 1_555 1_555
H27 C41 1_555 1_555
H28 C42 1_555 1_555
H29 C43 1_555 1_555
H30 C45 1_555 1_555
H31 C46 1_555 1_555
H32 C48 1_555 1_555
H33 C49 1_555 1_555
H34 C53 1_555 1_555
H35 C54 1_555 1_555
H36 C55 1_555 1_555
H37 C56 1_555 1_555
H38 C57 1_555 1_555
C58 C59 1_555 1_555
C59 C60 1_555 1_555
C60 C61 1_555 1_555
C61 H45 1_555 1_555
C62 C63 1_555 1_555
C63 C64 1_555 1_555
C64 C65 1_555 1_555
C65 H54 1_555 1_555
C66 C67 1_555 1_555
C67 C68 1_555 1_555
C68 C69 1_555 1_555
C69 H63 1_555 1_555
C70 C71 1_555 1_555
C71 C72 1_555 1_555
C72 C73 1_555 1_555
C73 H72 1_555 1_555
N1 C58 1_555 1_555
H39 C58 1_555 1_555
H40 C58 1_555 1_555
H41 C59 1_555 1_555
H42 C59 1_555 1_555
H43 C60 1_555 1_555
H44 C60 1_555 1_555
H46 C61 1_555 1_555
H47 C61 1_555 1_555
H48 C62 1_555 1_555
H49 C62 1_555 1_555
H50 C63 1_555 1_555
H51 C63 1_555 1_555
H52 C64 1_555 1_555
H53 C64 1_555 1_555
H55 C65 1_555 1_555
H56 C65 1_555 1_555
H57 C66 1_555 1_555
H58 C66 1_555 1_555
H59 C67 1_555 1_555
H60 C67 1_555 1_555
H61 C68 1_555 1_555
H62 C68 1_555 1_555
H64 C69 1_555 1_555
H65 C69 1_555 1_555
H66 C70 1_555 1_555
H67 C70 1_555 1_555
H68 C71 1_555 1_555
H69 C71 1_555 1_555
H70 C72 1_555 1_555
H71 C72 1_555 1_555
H73 C73 1_555 1_555
H74 C73 1_555 1_555
C14 C15 1_555 1_555
C16 B1 1_555 1_555
C28 C29 1_555 1_555
C30 B1 1_555 1_555
C42 C43 1_555 1_555
C44 B1 1_555 1_555
C56 C57 1_555 1_555
C62 N1 1_555 1_555
C66 N1 1_555 1_555
C70 N1 1_555 1_555

#END
