
#######################################################################
#
#                 Cambridge Crystallographic Data Centre
#                                CCDC 
#
#######################################################################
#
# If this CIF has been generated from an entry in the Cambridge 
# Structural Database, then it will include bibliographic, chemical, 
# crystal, experimental, refinement or atomic coordinate data resulting 
# from the CCDC's data processing and validation procedures.
#
#######################################################################

data_GOGYAE
_chemical_formula_moiety         'C24 B1 F20 1-,C24 H20 P1 1+'
_chemical_name_systematic        
'tetraphenylphosphonium tetrakis(pentafluorophenyl)borate'
_symmetry_cell_setting           tetragonal
_symmetry_space_group_name_H-M   'I -4'
_symmetry_Int_Tables_number      82
_space_group_name_Hall           'I -4'
loop_
_symmetry_equiv_pos_site_id
_symmetry_equiv_pos_as_xyz
1 x,y,z
2 1/2+x,1/2+y,1/2+z
3 y,-x,-z
4 1/2+y,1/2-x,1/2-z
5 -x,-y,z
6 1/2-x,1/2-y,1/2+z
7 -y,x,-z
8 1/2-y,1/2+x,1/2-z
_cell_length_a                   16.4616(5)
_cell_length_b                   16.4616(5)
_cell_length_c                   7.7426(2)
_cell_angle_alpha                90
_cell_angle_beta                 90
_cell_angle_gamma                90
_cell_volume                     2098.12
_exptl_crystal_colour            colorless
_exptl_crystal_description       needle
_cell_formula_units_Z            2
loop_
_atom_site_label
_atom_site_type_symbol
_atom_site_fract_x
_atom_site_fract_y
_atom_site_fract_z
F1 F -0.10490(5) 0.08066(5) 0.74232(13)
F2 F -0.06938(8) 0.20082(6) 0.96017(14)
F3 F 0.08444(9) 0.26152(6) 0.97783(13)
F4 F 0.20288(6) 0.19537(6) 0.77584(13)
F5 F 0.17056(5) 0.07685(5) 0.55986(12)
B1 B 0.0000 0.0000 0.5000
C1 C 0.02933(7) 0.07333(7) 0.63185(16)
C2 C -0.02716(8) 0.10716(7) 0.74483(18)
C3 C -0.01037(11) 0.16952(8) 0.86007(19)
C4 C 0.06704(11) 0.20010(8) 0.86888(18)
C5 C 0.12631(9) 0.16756(8) 0.7653(2)
C6 C 0.10710(8) 0.10525(8) 0.65234(17)
F1B F 0.08066(5) 0.10490(5) 0.25768(13)
F2B F 0.20082(6) 0.06938(8) 0.03983(14)
F3B F 0.26152(6) -0.08444(9) 0.02217(13)
F4B F 0.19537(6) -0.20288(6) 0.22416(13)
F5B F 0.07685(5) -0.17056(5) 0.44014(12)
C1B C 0.07333(7) -0.02933(7) 0.36815(16)
C2B C 0.10716(7) 0.02716(8) 0.25517(18)
C3B C 0.16952(8) 0.01037(11) 0.13993(19)
C4B C 0.20010(8) -0.06704(11) 0.13112(18)
C5B C 0.16756(8) -0.12631(9) 0.2347(2)
C6B C 0.10525(8) -0.10710(8) 0.34766(17)
F1D F 0.10490(5) -0.08066(5) 0.74232(13)
F2D F 0.06938(8) -0.20082(6) 0.96017(14)
F3D F -0.08444(9) -0.26152(6) 0.97783(13)
F4D F -0.20288(6) -0.19537(6) 0.77584(13)
F5D F -0.17056(5) -0.07685(5) 0.55986(12)
C1D C -0.02933(7) -0.07333(7) 0.63185(16)
C2D C 0.02716(8) -0.10716(7) 0.74483(18)
C3D C 0.01037(11) -0.16952(8) 0.86007(19)
C4D C -0.06704(11) -0.20010(8) 0.86888(18)
C5D C -0.12631(9) -0.16756(8) 0.7653(2)
C6D C -0.10710(8) -0.10525(8) 0.65234(17)
F1F F -0.08066(5) -0.10490(5) 0.25768(13)
F2F F -0.20082(6) -0.06938(8) 0.03983(14)
F3F F -0.26152(6) 0.08444(9) 0.02217(13)
F4F F -0.19537(6) 0.20288(6) 0.22416(13)
F5F F -0.07685(5) 0.17056(5) 0.44014(12)
C1F C -0.07333(7) 0.02933(7) 0.36815(16)
C2F C -0.10716(7) -0.02716(8) 0.25517(18)
C3F C -0.16952(8) -0.01037(11) 0.13993(19)
C4F C -0.20010(8) 0.06704(11) 0.13112(18)
C5F C -0.16756(8) 0.12631(9) 0.2347(2)
C6F C -0.10525(8) 0.10710(8) 0.34766(17)
P1 P 0.0000 0.5000 0.7500
C7 C 0.03520(7) 0.42054(7) 0.61043(16)
C8 C -0.01631(9) 0.39527(8) 0.47660(19)
C9 C 0.00954(10) 0.33528(9) 0.3633(2)
C10 C 0.08670(11) 0.30161(8) 0.3818(2)
C11 C 0.13773(9) 0.32733(8) 0.51193(19)
C12 C 0.11221(8) 0.38697(7) 0.62867(17)
H1 H -0.0683 0.4194 0.4632
H2 H -0.0252 0.3173 0.2731
H3 H 0.1045 0.2608 0.3038
H4 H 0.1903 0.3042 0.5233
H5 H 0.1474 0.4064 0.7167
C7C C -0.07946(7) 0.46480(7) 0.88957(16)
C8C C -0.10473(8) 0.51631(9) 1.02340(19)
C9C C -0.16472(9) 0.49046(10) 1.1367(2)
C10C C -0.19839(8) 0.41330(11) 1.1182(2)
C11C C -0.17267(8) 0.36227(9) 0.98807(19)
C12C C -0.11303(7) 0.38779(8) 0.87133(17)
H1C H -0.0806 0.5683 1.0368
H2C H -0.1827 0.5252 1.2269
H3C H -0.2392 0.3955 1.1962
H4C H -0.1958 0.3097 0.9767
H5C H -0.0936 0.3526 0.7833
C7D C -0.03520(7) 0.57946(7) 0.61043(16)
C8D C 0.01631(9) 0.60473(8) 0.47660(19)
C9D C -0.00954(10) 0.66472(9) 0.3633(2)
C10D C -0.08670(11) 0.69839(8) 0.3818(2)
C11D C -0.13773(9) 0.67267(8) 0.51193(19)
C12D C -0.11221(8) 0.61303(7) 0.62867(17)
H1D H 0.0683 0.5806 0.4632
H2D H 0.0252 0.6827 0.2731
H3D H -0.1045 0.7392 0.3038
H4D H -0.1903 0.6958 0.5233
H5D H -0.1474 0.5936 0.7167
C7G C 0.07946(7) 0.53520(7) 0.88957(16)
C8G C 0.10473(8) 0.48369(9) 1.02340(19)
C9G C 0.16472(9) 0.50954(10) 1.1367(2)
C10G C 0.19839(8) 0.58670(11) 1.1182(2)
C11G C 0.17267(8) 0.63773(9) 0.98807(19)
C12G C 0.11303(7) 0.61221(8) 0.87133(17)
H1G H 0.0806 0.4317 1.0368
H2G H 0.1827 0.4748 1.2269
H3G H 0.2392 0.6045 1.1962
H4G H 0.1958 0.6903 0.9767
H5G H 0.0936 0.6474 0.7833
loop_
_geom_bond_atom_site_label_1
_geom_bond_atom_site_label_2
_geom_bond_site_symmetry_1
_geom_bond_site_symmetry_2
F1 C2 1_555 1_555
F2 C3 1_555 1_555
F3 C4 1_555 1_555
F4 C5 1_555 1_555
F5 C6 1_555 1_555
B1 C1 1_555 1_555
C1 C2 1_555 1_555
C2 C3 1_555 1_555
C3 C4 1_555 1_555
C4 C5 1_555 1_555
C5 C6 1_555 1_555
C6 C1 1_555 1_555
P1 C7 1_555 1_555
C7 C8 1_555 1_555
C8 C9 1_555 1_555
C9 C10 1_555 1_555
C10 C11 1_555 1_555
C11 C12 1_555 1_555
C12 C7 1_555 1_555
H1 C8 1_555 1_555
H2 C9 1_555 1_555
H3 C10 1_555 1_555
H4 C11 1_555 1_555
H5 C12 1_555 1_555
F1B C2B 1_555 1_555
F2B C3B 1_555 1_555
F3B C4B 1_555 1_555
F4B C5B 1_555 1_555
F5B C6B 1_555 1_555
C1B B1 1_555 1_555
C2B C1B 1_555 1_555
C3B C2B 1_555 1_555
C4B C3B 1_555 1_555
C5B C4B 1_555 1_555
C6B C1B 1_555 1_555
F1D C2D 1_555 1_555
F2D C3D 1_555 1_555
F3D C4D 1_555 1_555
F4D C5D 1_555 1_555
F5D C6D 1_555 1_555
C1D B1 1_555 1_555
C2D C1D 1_555 1_555
C3D C2D 1_555 1_555
C4D C3D 1_555 1_555
C5D C4D 1_555 1_555
C6D C1D 1_555 1_555
F1F C2F 1_555 1_555
F2F C3F 1_555 1_555
F3F C4F 1_555 1_555
F4F C5F 1_555 1_555
F5F C6F 1_555 1_555
C1F B1 1_555 1_555
C2F C1F 1_555 1_555
C3F C2F 1_555 1_555
C4F C3F 1_555 1_555
C5F C4F 1_555 1_555
C6F C1F 1_555 1_555
C7C P1 1_555 1_555
C8C C7C 1_555 1_555
C9C C8C 1_555 1_555
C10C C9C 1_555 1_555
C11C C10C 1_555 1_555
C12C C7C 1_555 1_555
H1C C8C 1_555 1_555
H2C C9C 1_555 1_555
H3C C10C 1_555 1_555
H4C C11C 1_555 1_555
H5C C12C 1_555 1_555
C7D P1 1_555 1_555
C8D C7D 1_555 1_555
C9D C8D 1_555 1_555
C10D C9D 1_555 1_555
C11D C10D 1_555 1_555
C12D C7D 1_555 1_555
H1D C8D 1_555 1_555
H2D C9D 1_555 1_555
H3D C10D 1_555 1_555
H4D C11D 1_555 1_555
H5D C12D 1_555 1_555
C7G P1 1_555 1_555
C8G C7G 1_555 1_555
C9G C8G 1_555 1_555
C10G C9G 1_555 1_555
C11G C10G 1_555 1_555
C12G C7G 1_555 1_555
H1G C8G 1_555 1_555
H2G C9G 1_555 1_555
H3G C10G 1_555 1_555
H4G C11G 1_555 1_555
H5G C12G 1_555 1_555
C5B C6B 1_555 1_555
C5D C6D 1_555 1_555
C5F C6F 1_555 1_555
C11C C12C 1_555 1_555
C11D C12D 1_555 1_555
C11G C12G 1_555 1_555

#END
