
#######################################################################
#
#                 Cambridge Crystallographic Data Centre
#                                CCDC 
#
#######################################################################
#
# If this CIF has been generated from an entry in the Cambridge 
# Structural Database, then it will include bibliographic, chemical, 
# crystal, experimental, refinement or atomic coordinate data resulting 
# from the CCDC's data processing and validation procedures.
#
#######################################################################

data_GOHGIV
_chemical_formula_moiety         'C22 H23 Br1 N2 O2 S2'
_chemical_name_systematic        
'methyl 2-(4-(4-bromophenyl)-5-methyl-2-(phenylimino)-1,3-thiazol-3(2H)-yl)-4-(methylsulfanyl)butanoate'
_symmetry_cell_setting           monoclinic
_symmetry_space_group_name_H-M   'P 21'
_symmetry_Int_Tables_number      4
_space_group_name_Hall           'P 2yb'
loop_
_symmetry_equiv_pos_site_id
_symmetry_equiv_pos_as_xyz
1 x,y,z
2 -x,1/2+y,-z
_cell_length_a                   11.1928(5)
_cell_length_b                   7.6071(3)
_cell_length_c                   12.8595(5)
_cell_angle_alpha                90
_cell_angle_beta                 99.106(2)
_cell_angle_gamma                90
_cell_volume                     1081.12
_exptl_crystal_colour            colorless
_exptl_crystal_description       blade
_cell_formula_units_Z            2
loop_
_atom_site_label
_atom_site_type_symbol
_atom_site_fract_x
_atom_site_fract_y
_atom_site_fract_z
Br1 Br 1.49099(4) 0.25085(6) 1.02134(3)
S1 S 0.96161(9) 0.2605(2) 0.45056(8)
S2 S 1.03790(13) 0.52885(18) 0.95778(10)
O1 O 0.8852(3) -0.0162(5) 0.7533(3)
O2 O 0.7658(3) 0.1788(4) 0.8197(3)
N1 N 0.9743(3) 0.2700(6) 0.6506(3)
N2 N 0.7749(3) 0.2458(7) 0.5706(3)
C1 C 1.3734(4) 0.2463(8) 0.8970(3)
C2 C 1.3794(5) 0.3736(6) 0.8200(4)
H1 H 1.4443 0.4552 0.8269
C3 C 1.2888(4) 0.3787(6) 0.7331(4)
H2 H 1.2906 0.4665 0.6808
C4 C 1.1942(4) 0.2552(8) 0.7218(3)
C5 C 1.0957(4) 0.2649(8) 0.6320(3)
C6 C 0.8880(4) 0.2588(8) 0.5621(3)
C7 C 0.6831(4) 0.2343(8) 0.4832(3)
C8 C 0.6791(4) 0.3336(6) 0.3916(4)
H3 H 0.7426 0.4135 0.3848
C9 C 0.5830(5) 0.3158(7) 0.3109(4)
H4 H 0.5810 0.3844 0.2490
C10 C 0.4892(4) 0.1997(6) 0.3184(4)
H5 H 0.4239 0.1873 0.2619
C11 C 1.1958(4) 0.1237(7) 0.7980(4)
H6 H 1.1351 0.0353 0.7891
C12 C 1.2838(4) 0.1204(6) 0.8858(4)
H7 H 1.2827 0.0324 0.9380
C13 C 1.1052(4) 0.2605(9) 0.5293(3)
C14 C 1.2158(4) 0.2466(9) 0.4781(3)
H8 H 1.2881 0.2556 0.5319
H9 H 1.2160 0.3419 0.4269
H10 H 1.2159 0.1331 0.4420
C15 C 0.4928(5) 0.1021(7) 0.4100(4)
H11 H 0.4294 0.0216 0.4162
C16 C 0.5861(4) 0.1203(7) 0.4912(4)
H12 H 0.5857 0.0550 0.5541
C17 C 0.9359(4) 0.2924(6) 0.7539(3)
H13 H 1.0110 0.2864 0.8075
C18 C 0.8599(4) 0.1318(7) 0.7724(4)
C19 C 0.6893(5) 0.0322(8) 0.8396(5)
H14 H 0.6614 -0.0299 0.7734
H15 H 0.6193 0.0763 0.8688
H16 H 0.7356 -0.0487 0.8899
C20 C 0.8803(5) 0.4752(7) 0.7654(4)
H17 H 0.9232 0.5625 0.7277
H18 H 0.7945 0.4735 0.7315
C21 C 0.8869(5) 0.5335(7) 0.8799(4)
H19 H 0.8333 0.4567 0.9142
H20 H 0.8550 0.6548 0.8806
C22 C 1.1119(6) 0.6947(7) 0.8897(4)
H21 H 1.1192 0.6526 0.8189
H22 H 1.1926 0.7184 0.9290
H23 H 1.0638 0.8030 0.8842
loop_
_geom_bond_atom_site_label_1
_geom_bond_atom_site_label_2
_geom_bond_site_symmetry_1
_geom_bond_site_symmetry_2
Br1 C1 1_555 1_555
S1 C6 1_555 1_555
S2 C21 1_555 1_555
O1 C18 1_555 1_555
O2 C18 1_555 1_555
N1 C5 1_555 1_555
N2 C6 1_555 1_555
C1 C2 1_555 1_555
C2 H1 1_555 1_555
C3 C2 1_555 1_555
H2 C3 1_555 1_555
C4 C3 1_555 1_555
C5 C4 1_555 1_555
C6 N1 1_555 1_555
C7 N2 1_555 1_555
C8 C7 1_555 1_555
H3 C8 1_555 1_555
C9 C8 1_555 1_555
H4 C9 1_555 1_555
C10 C9 1_555 1_555
H5 C10 1_555 1_555
C11 C4 1_555 1_555
H6 C11 1_555 1_555
C12 C1 1_555 1_555
H7 C12 1_555 1_555
C13 S1 1_555 1_555
C14 C13 1_555 1_555
H8 C14 1_555 1_555
H9 C14 1_555 1_555
H10 C14 1_555 1_555
C15 C10 1_555 1_555
H11 C15 1_555 1_555
C16 C7 1_555 1_555
H12 C16 1_555 1_555
C17 N1 1_555 1_555
H13 C17 1_555 1_555
C18 C17 1_555 1_555
C19 O2 1_555 1_555
H14 C19 1_555 1_555
H15 C19 1_555 1_555
H16 C19 1_555 1_555
C20 C17 1_555 1_555
H17 C20 1_555 1_555
H18 C20 1_555 1_555
C21 C20 1_555 1_555
H19 C21 1_555 1_555
H20 C21 1_555 1_555
C22 S2 1_555 1_555
H21 C22 1_555 1_555
H22 C22 1_555 1_555
H23 C22 1_555 1_555
C5 C13 1_555 1_555
C11 C12 1_555 1_555
C15 C16 1_555 1_555

#END
