
#######################################################################
#
#                 Cambridge Crystallographic Data Centre
#                                CCDC 
#
#######################################################################
#
# If this CIF has been generated from an entry in the Cambridge 
# Structural Database, then it will include bibliographic, chemical, 
# crystal, experimental, refinement or atomic coordinate data resulting 
# from the CCDC's data processing and validation procedures.
#
#######################################################################

data_GOHLAS
_chemical_formula_moiety         'C14 H32 B2 Cl2 N4 2+,2(Cl1 1-),2(C1 H1 Cl3)'
_chemical_name_systematic        
"benzene-1,3-diylbis(chloro-N,N,N',N'-tetramethylboratediaminium) bis(chloride) chloroform solvate"
_symmetry_cell_setting           orthorhombic
_symmetry_space_group_name_H-M   'P b c a'
_symmetry_Int_Tables_number      61
_space_group_name_Hall           '-P 2ac 2ab'
loop_
_symmetry_equiv_pos_site_id
_symmetry_equiv_pos_as_xyz
1 x,y,z
2 1/2-x,-y,1/2+z
3 -x,1/2+y,1/2-z
4 1/2+x,1/2-y,-z
5 -x,-y,-z
6 1/2+x,y,1/2-z
7 x,1/2-y,1/2+z
8 1/2-x,1/2+y,z
_cell_length_a                   11.7956(13)
_cell_length_b                   22.543(3)
_cell_length_c                   23.156(3)
_cell_angle_alpha                90
_cell_angle_beta                 90
_cell_angle_gamma                90
_cell_volume                     6157.37
_exptl_crystal_colour            colorless
_exptl_crystal_description       block
_cell_formula_units_Z            8
loop_
_atom_site_label
_atom_site_type_symbol
_atom_site_fract_x
_atom_site_fract_y
_atom_site_fract_z
B1 B 0.7981(9) 0.2572(4) 0.8761(4)
B2 B 0.8261(9) 0.4869(4) 0.8782(4)
Cl1 Cl 0.8196(2) 0.19074(9) 0.92368(10)
Cl2 Cl 0.8642(2) 0.55012(9) 0.92883(11)
N1 N 0.6896(6) 0.4842(3) 0.8800(3)
H1 H 0.6694 0.4522 0.8568
N2 N 0.8646(6) 0.5089(3) 0.8160(3)
H2 H 0.8316 0.5458 0.8099
N3 N 0.8295(6) 0.2347(3) 0.8115(3)
H3 H 0.7876 0.2005 0.8046
N4 N 0.6627(6) 0.2687(3) 0.8781(3)
H4 H 0.6498 0.3017 0.8550
C1 C 0.8314(8) 0.3716(4) 0.8782(3)
H5 H 0.7704 0.3741 0.8515
C2 C 0.8788(7) 0.4251(3) 0.8975(4)
C3 C 0.9728(7) 0.4190(3) 0.9349(4)
H6 H 1.0093 0.4536 0.9491
C4 C 1.0131(7) 0.3635(4) 0.9513(4)
H7 H 1.0772 0.3608 0.9760
C5 C 0.9605(7) 0.3118(4) 0.9319(4)
H8 H 0.9889 0.2743 0.9439
C6 C 0.8672(7) 0.3142(4) 0.8954(4)
C7 C 0.6440(8) 0.4702(4) 0.9388(4)
H9 H 0.6846 0.4360 0.9548
H10 H 0.5631 0.4609 0.9360
H11 H 0.6546 0.5046 0.9642
C8 C 0.6270(9) 0.5365(4) 0.8560(5)
H12 H 0.6562 0.5459 0.8175
H13 H 0.6378 0.5708 0.8815
H14 H 0.5460 0.5271 0.8534
C9 C 0.9909(8) 0.5169(5) 0.8117(5)
H15 H 1.0169 0.5432 0.8427
H16 H 1.0099 0.5344 0.7742
H17 H 1.0283 0.4782 0.8154
C10 C 0.8253(10) 0.4681(4) 0.7670(4)
H18 H 0.7429 0.4631 0.7690
H19 H 0.8622 0.4293 0.7708
H20 H 0.8457 0.4858 0.7297
C11 C 0.9532(9) 0.2182(5) 0.8071(5)
H21 H 0.9723 0.1898 0.8377
H22 H 0.9999 0.2539 0.8113
H23 H 0.9678 0.2001 0.7693
C12 C 0.8020(9) 0.2776(4) 0.7645(4)
H24 H 0.7218 0.2888 0.7670
H25 H 0.8167 0.2591 0.7270
H26 H 0.8492 0.3131 0.7687
C13 C 0.5872(9) 0.2207(4) 0.8550(5)
H27 H 0.6123 0.2096 0.8161
H28 H 0.5090 0.2352 0.8533
H29 H 0.5911 0.1860 0.8804
C14 C 0.6227(8) 0.2856(4) 0.9376(5)
H30 H 0.6713 0.3171 0.9530
H31 H 0.6265 0.2509 0.9630
H32 H 0.5443 0.2998 0.9355
Cl3 Cl 0.55679(17) 0.37995(9) 0.80668(10)
Cl4 Cl 0.7816(2) 0.62397(9) 0.74909(9)
C15 C 0.3148(8) 0.4100(4) 0.8813(4)
H33 H 0.3886 0.4088 0.8601
Cl5 Cl 0.2089(2) 0.37843(11) 0.83699(10)
Cl6 Cl 0.3305(2) 0.37060(12) 0.94685(10)
Cl7 Cl 0.2813(3) 0.48585(12) 0.89703(13)
C16 C 0.7721(8) 0.6515(4) 0.6040(5)
H34 H 0.7722 0.6378 0.6451
Cl8 Cl 0.7600(3) 0.72996(12) 0.60251(15)
Cl9 Cl 0.6538(2) 0.61986(12) 0.56761(14)
Cl10 Cl 0.8994(2) 0.62893(11) 0.57050(12)
loop_
_geom_bond_atom_site_label_1
_geom_bond_atom_site_label_2
_geom_bond_site_symmetry_1
_geom_bond_site_symmetry_2
B1 Cl1 1_555 1_555
B2 Cl2 1_555 1_555
N1 B2 1_555 1_555
H1 N1 1_555 1_555
N2 B2 1_555 1_555
H2 N2 1_555 1_555
N3 B1 1_555 1_555
H3 N3 1_555 1_555
N4 B1 1_555 1_555
H4 N4 1_555 1_555
C1 H5 1_555 1_555
C2 B2 1_555 1_555
C3 C2 1_555 1_555
H6 C3 1_555 1_555
C4 C3 1_555 1_555
H7 C4 1_555 1_555
C5 C4 1_555 1_555
H8 C5 1_555 1_555
C6 B1 1_555 1_555
C7 N1 1_555 1_555
H9 C7 1_555 1_555
H10 C7 1_555 1_555
H11 C7 1_555 1_555
C8 N1 1_555 1_555
H12 C8 1_555 1_555
H13 C8 1_555 1_555
H14 C8 1_555 1_555
C9 N2 1_555 1_555
H15 C9 1_555 1_555
H16 C9 1_555 1_555
H17 C9 1_555 1_555
C10 N2 1_555 1_555
H18 C10 1_555 1_555
H19 C10 1_555 1_555
H20 C10 1_555 1_555
C11 N3 1_555 1_555
H21 C11 1_555 1_555
H22 C11 1_555 1_555
H23 C11 1_555 1_555
C12 N3 1_555 1_555
H24 C12 1_555 1_555
H25 C12 1_555 1_555
H26 C12 1_555 1_555
C13 N4 1_555 1_555
H27 C13 1_555 1_555
H28 C13 1_555 1_555
H29 C13 1_555 1_555
C14 N4 1_555 1_555
H30 C14 1_555 1_555
H31 C14 1_555 1_555
H32 C14 1_555 1_555
C15 H33 1_555 1_555
Cl5 C15 1_555 1_555
Cl6 C15 1_555 1_555
Cl7 C15 1_555 1_555
C16 H34 1_555 1_555
Cl8 C16 1_555 1_555
Cl9 C16 1_555 1_555
Cl10 C16 1_555 1_555
C1 C2 1_555 1_555
C1 C6 1_555 1_555
C5 C6 1_555 1_555

#END
