
#######################################################################
#
#                 Cambridge Crystallographic Data Centre
#                                CCDC 
#
#######################################################################
#
# If this CIF has been generated from an entry in the Cambridge 
# Structural Database, then it will include bibliographic, chemical, 
# crystal, experimental, refinement or atomic coordinate data resulting 
# from the CCDC's data processing and validation procedures.
#
#######################################################################

data_GOHPEA
_chemical_formula_moiety         'C29 H24 N2 O2 Se1'
_chemical_name_systematic        
'methyl 2-(4-(2-naphthyl)-2-(phenylimino)-1,3-selenazol-3(2H)-yl)-3-phenylpropanoate'
_symmetry_cell_setting           orthorhombic
_symmetry_space_group_name_H-M   'P 21 21 21'
_symmetry_Int_Tables_number      19
_space_group_name_Hall           'P 2ac 2ab'
loop_
_symmetry_equiv_pos_site_id
_symmetry_equiv_pos_as_xyz
1 x,y,z
2 1/2-x,-y,1/2+z
3 -x,1/2+y,1/2-z
4 1/2+x,1/2-y,-z
_cell_length_a                   8.7794(3)
_cell_length_b                   14.6701(4)
_cell_length_c                   37.5122(10)
_cell_angle_alpha                90
_cell_angle_beta                 90
_cell_angle_gamma                90
_cell_volume                     4831.37
_exptl_crystal_colour            colorless
_exptl_crystal_description       prism
_cell_formula_units_Z            8
loop_
_atom_site_label
_atom_site_type_symbol
_atom_site_fract_x
_atom_site_fract_y
_atom_site_fract_z
C1 C 0.7308(4) 0.0489(2) 0.97906(8)
C2 C 0.7920(4) 0.0018(2) 1.03729(8)
C3 C 0.6801(4) 0.0414(2) 1.05814(9)
H1 H 0.6247 0.0924 1.0494
C4 C 0.6487(5) 0.0067(3) 1.09168(9)
H2 H 0.5709 0.0339 1.1057
C5 C 0.7285(5) -0.0663(3) 1.10489(10)
H3 H 0.7054 -0.0902 1.1278
C6 C 0.8414(5) -0.1043(2) 1.08469(9)
H4 H 0.8975 -0.1544 1.0939
C7 C 0.8753(4) -0.0711(2) 1.05133(9)
H5 H 0.9553 -0.0977 1.0378
C8 C 0.9257(4) 0.1037(2) 0.93748(8)
H6 H 0.9317 0.1135 0.9111
C9 C 1.0458(4) 0.0327(2) 0.94641(8)
C10 C 1.1072(5) -0.1226(2) 0.94615(10)
H7 H 1.0639 -0.1817 0.9393
H8 H 1.1295 -0.1226 0.9717
H9 H 1.2014 -0.1121 0.9328
C11 C 0.9619(4) 0.1958(2) 0.95469(8)
H10 H 0.9521 0.1905 0.9809
H11 H 1.0684 0.2129 0.9492
C12 C 0.8559(4) 0.2697(2) 0.94139(8)
C13 C 0.8632(5) 0.3001(2) 0.90638(9)
H12 H 0.9368 0.2749 0.8906
C14 C 0.7650(5) 0.3666(3) 0.89415(11)
H13 H 0.7696 0.3859 0.8700
C15 C 0.6603(6) 0.4049(3) 0.91698(12)
H14 H 0.5931 0.4510 0.9087
C16 C 0.6534(5) 0.3765(3) 0.95179(12)
H15 H 0.5819 0.4033 0.9676
C17 C 0.7502(5) 0.3090(3) 0.96381(10)
H16 H 0.7439 0.2894 0.9879
C18 C 0.6551(4) 0.0741(2) 0.91945(8)
C19 C 0.6951(4) 0.0771(2) 0.88083(9)
C20 C 0.7774(4) 0.0021(2) 0.86634(9)
H17 H 0.8079 -0.0467 0.8814
C21 C 0.8126(5) 0.0002(2) 0.83090(9)
H18 H 0.8660 -0.0506 0.8214
C22 C 0.7709(4) 0.0721(2) 0.80845(9)
C23 C 0.6907(4) 0.1481(2) 0.82258(9)
C24 C 0.6524(4) 0.1473(2) 0.85964(9)
H19 H 0.5964 0.1967 0.8695
C25 C 0.6564(5) 0.2214(2) 0.80026(10)
H20 H 0.6048 0.2729 0.8097
C26 C 0.6961(5) 0.2201(3) 0.76515(9)
H21 H 0.6719 0.2708 0.7505
C27 C 0.7718(5) 0.1452(3) 0.75036(10)
H22 H 0.7975 0.1450 0.7258
C28 C 0.8084(4) 0.0730(2) 0.77118(9)
H23 H 0.8595 0.0223 0.7610
C29 C 0.5154(4) 0.0621(2) 0.93244(7)
H24 H 0.4262 0.0629 0.9181
N1 N 0.7714(3) 0.07238(17) 0.94476(7)
N2 N 0.8332(3) 0.03217(18) 1.00265(7)
O1 O 1.1720(3) 0.05144(17) 0.95669(7)
O2 O 0.9994(3) -0.05135(13) 0.93823(5)
Se1 Se 0.51244(4) 0.04347(2) 0.981877(8)
C30 C 0.7617(4) 0.7512(2) 0.85363(8)
C31 C 0.7189(4) 0.7385(2) 0.91419(8)
C32 C 0.8126(5) 0.6678(2) 0.92533(10)
H25 H 0.8434 0.6224 0.9087
C33 C 0.8614(5) 0.6625(3) 0.96006(10)
H26 H 0.9253 0.6137 0.9673
C34 C 0.8178(5) 0.7282(3) 0.98451(9)
H27 H 0.8536 0.7253 1.0084
C35 C 0.7227(5) 0.7975(3) 0.97416(9)
H28 H 0.6913 0.8420 0.9910
C36 C 0.6724(4) 0.8030(2) 0.93933(9)
H29 H 0.6057 0.8508 0.9324
C37 C 0.5638(4) 0.7206(2) 0.80934(8)
H30 H 0.5522 0.7269 0.7829
C38 C 0.4427(4) 0.7803(2) 0.82635(8)
C39 C 0.3846(5) 0.9289(2) 0.84635(10)
H31 H 0.4262 0.9909 0.8455
H32 H 0.3760 0.9092 0.8712
H33 H 0.2837 0.9282 0.8352
C40 C 0.5370(4) 0.6193(2) 0.81840(8)
H34 H 0.5414 0.6111 0.8446
H35 H 0.4340 0.6012 0.8103
C41 C 0.6532(4) 0.5584(2) 0.80111(9)
C42 C 0.6332(5) 0.5266(2) 0.76658(10)
H36 H 0.5450 0.5434 0.7535
C43 C 0.7424(6) 0.4701(3) 0.75110(11)
H37 H 0.7290 0.4493 0.7273
C44 C 0.8687(6) 0.4443(3) 0.76994(13)
H38 H 0.9409 0.4042 0.7595
C45 C 0.8908(5) 0.4760(3) 0.80349(13)
H39 H 0.9800 0.4595 0.8163
C46 C 0.7828(5) 0.5325(2) 0.81903(10)
H40 H 0.7988 0.5537 0.8427
C47 C 0.8325(4) 0.76379(19) 0.79296(8)
C48 C 0.7896(4) 0.7742(2) 0.75441(8)
C49 C 0.8359(4) 0.7117(2) 0.72958(9)
H41 H 0.8927 0.6598 0.7369
C50 C 0.7991(4) 0.7239(2) 0.69266(9)
C51 C 0.7206(5) 0.8027(3) 0.68237(10)
C52 C 0.6758(5) 0.8664(2) 0.70801(10)
H42 H 0.6238 0.9202 0.7008
C53 C 0.7058(4) 0.8521(2) 0.74322(9)
H43 H 0.6704 0.8945 0.7605
C54 C 0.6846(5) 0.8149(3) 0.64519(11)
H44 H 0.6366 0.8693 0.6373
C55 C 0.7195(5) 0.7484(4) 0.62171(11)
H45 H 0.6924 0.7557 0.5974
C56 C 0.7945(5) 0.6690(4) 0.63242(11)
H46 H 0.8172 0.6231 0.6154
C57 C 0.8356(5) 0.6568(3) 0.66730(10)
H47 H 0.8886 0.6032 0.6743
C58 C 0.9715(4) 0.77122(19) 0.80591(8)
H48 H 1.0591 0.7806 0.7915
N3 N 0.7164(3) 0.75120(18) 0.81819(6)
N4 N 0.6649(3) 0.74430(18) 0.87872(6)
O3 O 0.3198(3) 0.75331(17) 0.83572(6)
O4 O 0.4852(3) 0.86767(13) 0.82729(5)
Se2 Se 0.97900(4) 0.76140(2) 0.855786(8)
loop_
_geom_bond_atom_site_label_1
_geom_bond_atom_site_label_2
_geom_bond_site_symmetry_1
_geom_bond_site_symmetry_2
C1 N1 1_555 1_555
C2 C3 1_555 1_555
C3 H1 1_555 1_555
C4 C3 1_555 1_555
H2 C4 1_555 1_555
C5 C4 1_555 1_555
H3 C5 1_555 1_555
C6 C5 1_555 1_555
H4 C6 1_555 1_555
C7 C2 1_555 1_555
H5 C7 1_555 1_555
C8 H6 1_555 1_555
C9 C8 1_555 1_555
C10 H7 1_555 1_555
H8 C10 1_555 1_555
H9 C10 1_555 1_555
C11 C8 1_555 1_555
H10 C11 1_555 1_555
H11 C11 1_555 1_555
C12 C11 1_555 1_555
C13 C12 1_555 1_555
H12 C13 1_555 1_555
C14 C13 1_555 1_555
H13 C14 1_555 1_555
C15 C14 1_555 1_555
H14 C15 1_555 1_555
C16 C15 1_555 1_555
H15 C16 1_555 1_555
C17 C12 1_555 1_555
H16 C17 1_555 1_555
C18 C19 1_555 1_555
C19 C20 1_555 1_555
C20 H17 1_555 1_555
C21 C20 1_555 1_555
H18 C21 1_555 1_555
C22 C21 1_555 1_555
C23 C22 1_555 1_555
C24 C19 1_555 1_555
H19 C24 1_555 1_555
C25 C23 1_555 1_555
H20 C25 1_555 1_555
C26 C25 1_555 1_555
H21 C26 1_555 1_555
C27 C26 1_555 1_555
H22 C27 1_555 1_555
C28 C22 1_555 1_555
H23 C28 1_555 1_555
C29 C18 1_555 1_555
H24 C29 1_555 1_555
N1 C8 1_555 1_555
N2 C1 1_555 1_555
O1 C9 1_555 1_555
O2 C9 1_555 1_555
Se1 C1 1_555 1_555
C30 N3 1_555 1_555
C31 C32 1_555 1_555
C32 H25 1_555 1_555
C33 C32 1_555 1_555
H26 C33 1_555 1_555
C34 C33 1_555 1_555
H27 C34 1_555 1_555
C35 C34 1_555 1_555
H28 C35 1_555 1_555
C36 C31 1_555 1_555
H29 C36 1_555 1_555
C37 H30 1_555 1_555
C38 C37 1_555 1_555
C39 H31 1_555 1_555
H32 C39 1_555 1_555
H33 C39 1_555 1_555
C40 C37 1_555 1_555
H34 C40 1_555 1_555
H35 C40 1_555 1_555
C41 C40 1_555 1_555
C42 C41 1_555 1_555
H36 C42 1_555 1_555
C43 C42 1_555 1_555
H37 C43 1_555 1_555
C44 C43 1_555 1_555
H38 C44 1_555 1_555
C45 C44 1_555 1_555
H39 C45 1_555 1_555
C46 C41 1_555 1_555
H40 C46 1_555 1_555
C47 C48 1_555 1_555
C48 C49 1_555 1_555
C49 H41 1_555 1_555
C50 C49 1_555 1_555
C51 C50 1_555 1_555
C52 C51 1_555 1_555
H42 C52 1_555 1_555
C53 C48 1_555 1_555
H43 C53 1_555 1_555
C54 C51 1_555 1_555
H44 C54 1_555 1_555
C55 C54 1_555 1_555
H45 C55 1_555 1_555
C56 C55 1_555 1_555
H46 C56 1_555 1_555
C57 C50 1_555 1_555
H47 C57 1_555 1_555
C58 C47 1_555 1_555
H48 C58 1_555 1_555
N3 C37 1_555 1_555
N4 C30 1_555 1_555
O3 C38 1_555 1_555
O4 C38 1_555 1_555
Se2 C30 1_555 1_555
C2 N2 1_555 1_555
C6 C7 1_555 1_555
C10 O2 1_555 1_555
C16 C17 1_555 1_555
C18 N1 1_555 1_555
C23 C24 1_555 1_555
C27 C28 1_555 1_555
C29 Se1 1_555 1_555
C31 N4 1_555 1_555
C35 C36 1_555 1_555
C39 O4 1_555 1_555
C45 C46 1_555 1_555
C47 N3 1_555 1_555
C52 C53 1_555 1_555
C56 C57 1_555 1_555
C58 Se2 1_555 1_555

#END
