
#######################################################################
#
#                 Cambridge Crystallographic Data Centre
#                                CCDC 
#
#######################################################################
#
# If this CIF has been generated from an entry in the Cambridge 
# Structural Database, then it will include bibliographic, chemical, 
# crystal, experimental, refinement or atomic coordinate data resulting 
# from the CCDC's data processing and validation procedures.
#
#######################################################################

data_GOHRUR
_chemical_formula_moiety         'C37 H39 B1 F1 P1'
_chemical_name_systematic        
1-(Fluoro(dimesityl)borato)-2-(methyl(diphenyl)phosphonio)benzene
_symmetry_cell_setting           triclinic
_symmetry_space_group_name_H-M   'P -1'
_symmetry_Int_Tables_number      2
_space_group_name_Hall           '-P 1'
loop_
_symmetry_equiv_pos_site_id
_symmetry_equiv_pos_as_xyz
1 x,y,z
2 -x,-y,-z
_cell_length_a                   10.8310(14)
_cell_length_b                   11.5758(15)
_cell_length_c                   12.4242(16)
_cell_angle_alpha                85.161(2)
_cell_angle_beta                 75.771(3)
_cell_angle_gamma                83.546(3)
_cell_volume                     1497.75
_exptl_crystal_colour            colorless
_exptl_crystal_description       block
_chemical_melting_point          237deg.C
_cell_formula_units_Z            2
loop_
_atom_site_label
_atom_site_type_symbol
_atom_site_fract_x
_atom_site_fract_y
_atom_site_fract_z
P1 P 0.37313(7) 0.06339(6) 0.21097(6)
F1 F 0.13903(13) 0.15493(11) 0.20032(12)
C1 C 0.2045(2) 0.2183(2) 0.3575(2)
C2 C 0.3985(2) 0.1573(2) 0.0869(2)
H1 H 0.3179 0.1955 0.0780
H2 H 0.4374 0.1122 0.0239
H3 H 0.4538 0.2147 0.0924
C3 C 0.1783(2) 0.3611(2) 0.1682(2)
C4 C 0.3102(2) 0.1321(2) 0.3405(2)
C5 C 0.5356(2) 0.0032(2) 0.2088(2)
C6 C -0.0298(2) 0.2831(2) 0.3289(2)
C7 C 0.3690(2) 0.0897(2) 0.4274(2)
H4 H 0.4383 0.0333 0.4138
C8 C 0.2729(2) 0.4350(2) 0.1715(2)
C9 C 0.2228(2) 0.2157(2) 0.5501(2)
H5 H 0.1929 0.2452 0.6201
C10 C -0.1019(3) 0.1870(2) 0.3707(2)
C11 C 0.5768(3) -0.1136(2) 0.1906(2)
H6 H 0.5178 -0.1658 0.1897
C12 C 0.6261(3) 0.0789(2) 0.2121(2)
H7 H 0.5998 0.1566 0.2258
C13 C 0.1652(2) 0.2570(2) 0.4653(2)
H8 H 0.0965 0.3139 0.4806
C14 C 0.2856(2) -0.0561(2) 0.1995(2)
C15 C 0.7541(3) 0.0399(2) 0.1953(2)
H9 H 0.8135 0.0913 0.1974
C16 C -0.0959(2) 0.3947(2) 0.3499(2)
C17 C 0.1851(2) 0.4450(2) -0.0206(2)
H10 H 0.1536 0.4489 -0.0842
C18 C 0.3222(2) 0.5080(2) 0.0789(2)
H11 H 0.3856 0.5543 0.0830
C19 C -0.2956(3) 0.3137(2) 0.4414(2)
C20 C -0.2317(3) 0.2041(2) 0.4227(2)
H12 H -0.2771 0.1393 0.4458
C21 C 0.2807(2) 0.5143(2) -0.0183(2)
C22 C 0.7059(3) -0.1520(2) 0.1738(2)
H13 H 0.7330 -0.2300 0.1615
C23 C 0.1343(2) 0.3696(2) 0.0693(2)
C24 C 0.2546(3) -0.0742(2) 0.1010(2)
H14 H 0.2790 -0.0242 0.0385
C25 C 0.2486(3) -0.1312(2) 0.2928(2)
H15 H 0.2693 -0.1188 0.3589
B1 B 0.1223(3) 0.2599(2) 0.2649(3)
C26 C 0.0301(3) 0.3001(2) 0.0544(2)
H16 H 0.0154 0.3180 -0.0185
H17 H -0.0473 0.3197 0.1094
H18 H 0.0560 0.2184 0.0631
C27 C -0.0423(3) 0.0620(2) 0.3671(2)
H19 H -0.1069 0.0106 0.4002
H20 H 0.0234 0.0523 0.4076
H21 H -0.0057 0.0437 0.2912
C28 C 0.3251(2) 0.1304(2) 0.5315(2)
H22 H 0.3633 0.1014 0.5888
C29 C 0.3242(3) 0.4421(2) 0.2728(2)
H23 H 0.3864 0.4980 0.2573
H24 H 0.3637 0.3672 0.2915
H25 H 0.2553 0.4658 0.3340
C30 C -0.2244(3) 0.4079(2) 0.4055(2)
H26 H -0.2639 0.4825 0.4192
C31 C 0.7939(3) -0.0757(2) 0.1753(2)
H27 H 0.8804 -0.1019 0.1628
C32 C 0.1815(3) -0.2239(2) 0.2873(2)
H28 H 0.1571 -0.2742 0.3496
C33 C 0.1867(3) -0.1677(2) 0.0964(2)
H29 H 0.1653 -0.1803 0.0305
C34 C 0.1507(3) -0.2420(2) 0.1891(3)
H30 H 0.1053 -0.3045 0.1854
C35 C 0.3332(3) 0.5957(2) -0.1159(2)
H31 H 0.3980 0.6364 -0.0991
H32 H 0.2653 0.6508 -0.1306
H33 H 0.3696 0.5517 -0.1802
C36 C -0.0314(3) 0.5061(2) 0.3149(2)
H34 H -0.0921 0.5718 0.3370
H35 H 0.0005 0.5112 0.2356
H36 H 0.0384 0.5057 0.3499
C37 C -0.4353(3) 0.3309(3) 0.5005(3)
H37 H -0.4617 0.4127 0.5051
H38 H -0.4477 0.2943 0.5741
H39 H -0.4854 0.2968 0.4598
loop_
_geom_bond_atom_site_label_1
_geom_bond_atom_site_label_2
_geom_bond_site_symmetry_1
_geom_bond_site_symmetry_2
P1 C2 1_555 1_555
F1 B1 1_555 1_555
C1 C4 1_555 1_555
C2 H1 1_555 1_555
H2 C2 1_555 1_555
H3 C2 1_555 1_555
C3 C8 1_555 1_555
C4 P1 1_555 1_555
C5 P1 1_555 1_555
C6 C10 1_555 1_555
C7 C4 1_555 1_555
H4 C7 1_555 1_555
C8 C18 1_555 1_555
C9 H5 1_555 1_555
C10 C20 1_555 1_555
C11 C5 1_555 1_555
H6 C11 1_555 1_555
C12 C5 1_555 1_555
H7 C12 1_555 1_555
C13 C1 1_555 1_555
H8 C13 1_555 1_555
C14 P1 1_555 1_555
C15 C12 1_555 1_555
H9 C15 1_555 1_555
C16 C6 1_555 1_555
C17 H10 1_555 1_555
C18 H11 1_555 1_555
C19 C20 1_555 1_555
C20 H12 1_555 1_555
C21 C17 1_555 1_555
C22 C11 1_555 1_555
H13 C22 1_555 1_555
C23 C3 1_555 1_555
C24 C14 1_555 1_555
H14 C24 1_555 1_555
C25 C14 1_555 1_555
H15 C25 1_555 1_555
B1 C1 1_555 1_555
C26 C23 1_555 1_555
H16 C26 1_555 1_555
H17 C26 1_555 1_555
H18 C26 1_555 1_555
C27 C10 1_555 1_555
H19 C27 1_555 1_555
H20 C27 1_555 1_555
H21 C27 1_555 1_555
C28 C7 1_555 1_555
H22 C28 1_555 1_555
C29 C8 1_555 1_555
H23 C29 1_555 1_555
H24 C29 1_555 1_555
H25 C29 1_555 1_555
C30 C16 1_555 1_555
H26 C30 1_555 1_555
C31 C15 1_555 1_555
H27 C31 1_555 1_555
C32 C25 1_555 1_555
H28 C32 1_555 1_555
C33 C24 1_555 1_555
H29 C33 1_555 1_555
C34 C32 1_555 1_555
H30 C34 1_555 1_555
C35 C21 1_555 1_555
H31 C35 1_555 1_555
H32 C35 1_555 1_555
H33 C35 1_555 1_555
C36 C16 1_555 1_555
H34 C36 1_555 1_555
H35 C36 1_555 1_555
H36 C36 1_555 1_555
C37 C19 1_555 1_555
H37 C37 1_555 1_555
H38 C37 1_555 1_555
H39 C37 1_555 1_555
C3 B1 1_555 1_555
C6 B1 1_555 1_555
C9 C13 1_555 1_555
C9 C28 1_555 1_555
C17 C23 1_555 1_555
C18 C21 1_555 1_555
C19 C30 1_555 1_555
C22 C31 1_555 1_555
C33 C34 1_555 1_555

#END
