
#######################################################################
#
#                 Cambridge Crystallographic Data Centre
#                                CCDC 
#
#######################################################################
#
# If this CIF has been generated from an entry in the Cambridge 
# Structural Database, then it will include bibliographic, chemical, 
# crystal, experimental, refinement or atomic coordinate data resulting 
# from the CCDC's data processing and validation procedures.
#
#######################################################################

data_GOHSUS
_chemical_name_common            'Bupivacaine hydrochloride monohydrate'
_chemical_formula_moiety         'C18 H29 N2 O1 1+,Cl1 1-,H2 O1'
_chemical_name_systematic        
'1-Butyl-2-(2,6-dimethylphenylaminocarbonyl)piperidinium chloride monohydrate'
_chemical_properties_biological  
'previously reported anaesthetic activity of anhydrous analogue'
_symmetry_cell_setting           orthorhombic
_symmetry_space_group_name_H-M   'P b c a'
_symmetry_Int_Tables_number      61
_space_group_name_Hall           '-P 2ac 2ab'
loop_
_symmetry_equiv_pos_site_id
_symmetry_equiv_pos_as_xyz
1 x,y,z
2 1/2-x,-y,1/2+z
3 -x,1/2+y,1/2-z
4 1/2+x,1/2-y,-z
5 -x,-y,-z
6 1/2+x,y,1/2-z
7 x,1/2-y,1/2+z
8 1/2-x,1/2+y,z
_cell_length_a                   18.5429(18)
_cell_length_b                   7.2296(7)
_cell_length_c                   28.476(3)
_cell_angle_alpha                90
_cell_angle_beta                 90
_cell_angle_gamma                90
_cell_volume                     3817.43
_exptl_crystal_colour            colorless
_exptl_crystal_description       plate
_cell_formula_units_Z            8
loop_
_atom_site_label
_atom_site_type_symbol
_atom_site_fract_x
_atom_site_fract_y
_atom_site_fract_z
O1 O 0.84984(15) 0.7957(4) 0.09679(10)
H1 H 0.863(2) 0.701(6) 0.0854(14)
H2 H 0.874(3) 0.786(7) 0.1269(19)
H3 H 0.9344(16) 0.437(5) 0.1668(10)
H4 H 0.880(2) 0.037(6) 0.0691(13)
O2 O 0.90408(14) 0.4445(3) 0.07711(8)
N1 N 0.88922(16) 0.1427(4) 0.05757(10)
N2 N 0.94100(16) 0.3204(4) 0.16876(9)
C1 C 0.89454(18) 0.2824(4) 0.08772(11)
C2 C 0.8898(2) 0.1644(4) 0.00733(11)
C3 C 1.01493(19) 0.2650(5) 0.15275(12)
H5 H 1.0182 0.2830 0.1184
H6 H 1.0218 0.1315 0.1592
C4 C 0.88448(18) 0.2271(5) 0.13941(11)
H7 H 0.8900 0.0900 0.1424
C5 C 0.8276(2) 0.1153(5) -0.01711(13)
C6 C 0.9529(2) 0.2216(5) -0.01488(12)
C7 C 0.8552(2) 0.3253(5) 0.23627(12)
H8 H 0.8488 0.4611 0.2344
H9 H 0.8495 0.2882 0.2695
C8 C 1.07508(19) 0.3711(5) 0.17591(12)
H10 H 1.0756 0.3432 0.2099
H11 H 1.0665 0.5054 0.1721
C9 C 0.92992(19) 0.2757(5) 0.21983(11)
H12 H 0.9658 0.3442 0.2388
H13 H 0.9381 0.1418 0.2248
C10 C 0.9519(2) 0.2327(5) -0.06391(13)
H14 H 0.9935 0.2745 -0.0802
C11 C 0.80946(19) 0.2819(5) 0.15543(12)
H15 H 0.7731 0.2180 0.1358
H16 H 0.8030 0.4168 0.1513
C12 C 0.7602(2) 0.0557(6) 0.00777(15)
H17 H 0.7227 0.0271 -0.0154
H18 H 0.7435 0.1556 0.0283
H19 H 0.7703 -0.0546 0.0266
C13 C 0.8913(2) 0.1840(6) -0.08883(13)
H20 H 0.8918 0.1904 -0.1222
C14 C 0.7978(2) 0.2311(6) 0.20692(12)
H21 H 0.7494 0.2718 0.2172
H22 H 0.8010 0.0953 0.2109
C15 C 1.02063(19) 0.2649(5) 0.01180(12)
H23 H 1.0586 0.3019 -0.0102
H24 H 1.0362 0.1549 0.0292
H25 H 1.0113 0.3661 0.0339
C16 C 0.8298(2) 0.1258(6) -0.06604(13)
H26 H 0.7884 0.0926 -0.0838
C17 C 1.2088(2) 0.4246(7) 0.17644(14)
H27 H 1.2541 0.3864 0.1616
H28 H 1.2109 0.3974 0.2101
H29 H 1.2018 0.5577 0.1718
C18 C 1.1473(2) 0.3211(7) 0.15474(15)
H30 H 1.1556 0.1867 0.1587
H31 H 1.1461 0.3474 0.1206
Cl1 Cl 0.93635(6) 0.75440(13) 0.18818(3)
loop_
_geom_bond_atom_site_label_1
_geom_bond_atom_site_label_2
_geom_bond_site_symmetry_1
_geom_bond_site_symmetry_2
O1 H1 1_555 1_555
H2 O1 1_555 1_555
H3 N2 1_555 1_555
H4 N1 1_555 1_555
O2 C1 1_555 1_555
N1 C1 1_555 1_555
N2 C3 1_555 1_555
C1 C4 1_555 1_555
C2 N1 1_555 1_555
C3 H5 1_555 1_555
H6 C3 1_555 1_555
C4 N2 1_555 1_555
H7 C4 1_555 1_555
C5 C2 1_555 1_555
C6 C2 1_555 1_555
C7 H8 1_555 1_555
H9 C7 1_555 1_555
C8 C3 1_555 1_555
H10 C8 1_555 1_555
H11 C8 1_555 1_555
C9 N2 1_555 1_555
H12 C9 1_555 1_555
H13 C9 1_555 1_555
C10 C6 1_555 1_555
H14 C10 1_555 1_555
C11 C4 1_555 1_555
H15 C11 1_555 1_555
H16 C11 1_555 1_555
C12 C5 1_555 1_555
H17 C12 1_555 1_555
H18 C12 1_555 1_555
H19 C12 1_555 1_555
C13 C10 1_555 1_555
H20 C13 1_555 1_555
C14 C7 1_555 1_555
H21 C14 1_555 1_555
H22 C14 1_555 1_555
C15 C6 1_555 1_555
H23 C15 1_555 1_555
H24 C15 1_555 1_555
H25 C15 1_555 1_555
C16 C5 1_555 1_555
H26 C16 1_555 1_555
C17 H27 1_555 1_555
H28 C17 1_555 1_555
H29 C17 1_555 1_555
C18 C8 1_555 1_555
H30 C18 1_555 1_555
H31 C18 1_555 1_555
C7 C9 1_555 1_555
C11 C14 1_555 1_555
C13 C16 1_555 1_555
C17 C18 1_555 1_555

#END
