
#######################################################################
#
#                 Cambridge Crystallographic Data Centre
#                                CCDC 
#
#######################################################################
#
# If this CIF has been generated from an entry in the Cambridge 
# Structural Database, then it will include bibliographic, chemical, 
# crystal, experimental, refinement or atomic coordinate data resulting 
# from the CCDC's data processing and validation procedures.
#
#######################################################################

data_GOJFIV
_chemical_formula_moiety         'C70 H50 Ba1'
_chemical_name_systematic        bis(\h^5^-Pentaphenylcyclopentadienyl)-barium
_symmetry_cell_setting           monoclinic
_symmetry_space_group_name_H-M   'P 21/c'
_symmetry_Int_Tables_number      14
_space_group_name_Hall           '-P 2ybc'
loop_
_symmetry_equiv_pos_site_id
_symmetry_equiv_pos_as_xyz
1 x,y,z
2 -x,1/2+y,1/2-z
3 -x,-y,-z
4 x,1/2-y,1/2+z
_cell_length_a                   13.0103(4)
_cell_length_b                   13.7274(4)
_cell_length_c                   17.9609(4)
_cell_angle_alpha                90
_cell_angle_beta                 128.559(2)
_cell_angle_gamma                90
_cell_volume                     2508.37
_exptl_crystal_colour            colorless
_exptl_crystal_description       acicular
_cell_formula_units_Z            2
_chemical_properties_physical    'extremely air- and moisture-sensitive'
_exptl_crystal_recrystallization_method hexane/tetrahydrofuran
loop_
_atom_site_label
_atom_site_type_symbol
_atom_site_fract_x
_atom_site_fract_y
_atom_site_fract_z
Ba1 Ba 0.5000 0.5000 0.0000
C1 C 0.5968(2) 0.63034(15) 0.15912(15)
C2 C 0.5757(2) 0.69321(15) 0.08765(15)
C3 C 0.4378(2) 0.70201(15) 0.01561(15)
C4 C 0.3735(2) 0.64396(16) 0.04094(15)
C5 C 0.4725(2) 0.60015(15) 0.13046(15)
C6 C 0.7278(2) 0.59885(17) 0.24435(16)
C7 C 0.7569(2) 0.50024(19) 0.26874(16)
H1 H 0.6898 0.4529 0.2319
C8 C 0.8814(3) 0.4708(2) 0.3454(2)
H2 H 0.8994 0.4035 0.3608
C9 C 0.9804(3) 0.5390(2) 0.39994(19)
H3 H 1.0664 0.5186 0.4523
C10 C 0.9535(3) 0.6363(2) 0.37779(18)
H4 H 1.0207 0.6834 0.4154
C11 C 0.8287(2) 0.66572(18) 0.30083(16)
H5 H 0.8115 0.7331 0.2862
C12 C 0.6767(2) 0.73202(17) 0.08175(16)
C13 C 0.7765(3) 0.67236(19) 0.09933(17)
H6 H 0.7858 0.6082 0.1227
C14 C 0.8623(3) 0.7045(2) 0.08347(19)
H7 H 0.9300 0.6628 0.0963
C15 C 0.8489(3) 0.7972(3) 0.0490(2)
H8 H 0.9045 0.8185 0.0348
C16 C 0.7549(3) 0.8586(2) 0.0351(2)
H9 H 0.7486 0.9235 0.0141
C17 C 0.6695(3) 0.82720(19) 0.05138(18)
H10 H 0.6054 0.8707 0.0418
C18 C 0.3696(2) 0.75952(16) -0.07333(16)
C19 C 0.3965(2) 0.74558(17) -0.13646(16)
H11 H 0.4630 0.7008 -0.1209
C20 C 0.3277(3) 0.79614(19) -0.22146(17)
H12 H 0.3459 0.7853 -0.2645
C21 C 0.2325(3) 0.8624(2) -0.24379(19)
H13 H 0.1857 0.8975 -0.3020
C22 C 0.2050(3) 0.8779(2) -0.18195(19)
H14 H 0.1392 0.9233 -0.1976
C23 C 0.2735(3) 0.82717(17) -0.09738(17)
H15 H 0.2548 0.8386 -0.0547
C24 C 0.2303(2) 0.62671(16) -0.01947(16)
C25 C 0.1555(2) 0.61101(16) -0.11732(16)
H16 H 0.1979 0.6119 -0.1453
C26 C 0.0215(3) 0.59420(18) -0.17471(18)
H17 H -0.0268 0.5847 -0.2412
C27 C -0.0421(3) 0.59123(18) -0.13590(19)
H18 H -0.1339 0.5789 -0.1750
C28 C 0.0293(3) 0.60635(18) -0.0394(2)
H19 H -0.0137 0.6046 -0.0119
C29 C 0.1632(3) 0.62400(17) 0.01765(18)
H20 H 0.2104 0.6345 0.0839
C30 C 0.4541(2) 0.52614(15) 0.18106(16)
C31 C 0.3768(3) 0.44370(17) 0.13412(17)
H21 H 0.3274 0.4387 0.0671
C32 C 0.3703(3) 0.36895(19) 0.18292(19)
H22 H 0.3182 0.3129 0.1498
C33 C 0.4399(3) 0.3766(2) 0.2797(2)
H23 H 0.4373 0.3252 0.3139
C34 C 0.5134(3) 0.4585(2) 0.32702(19)
H24 H 0.5595 0.4642 0.3936
C35 C 0.5209(3) 0.53292(18) 0.27860(17)
H25 H 0.5721 0.5891 0.3123
C1B C 0.4032(2) 0.36966(15) -0.15912(15)
C2B C 0.4243(2) 0.30679(15) -0.08765(15)
C3B C 0.5622(2) 0.29799(15) -0.01561(15)
C4B C 0.6265(2) 0.35604(16) -0.04094(15)
C5B C 0.5275(2) 0.39985(15) -0.13046(15)
C6B C 0.2722(2) 0.40115(17) -0.24435(16)
C7B C 0.2431(2) 0.49976(19) -0.26874(16)
H1B H 0.3102 0.5471 -0.2319
C8B C 0.1186(3) 0.5292(2) -0.3454(2)
H2B H 0.1006 0.5965 -0.3608
C9B C 0.0196(3) 0.4610(2) -0.39994(19)
H3B H -0.0664 0.4814 -0.4523
C10B C 0.0465(3) 0.3637(2) -0.37779(18)
H4B H -0.0207 0.3166 -0.4154
C11B C 0.1713(2) 0.33428(18) -0.30083(16)
H5B H 0.1885 0.2669 -0.2862
C12B C 0.3233(2) 0.26798(17) -0.08175(16)
C13B C 0.2235(3) 0.32764(19) -0.09933(17)
H6B H 0.2142 0.3918 -0.1227
C14B C 0.1377(3) 0.2955(2) -0.08347(19)
H7B H 0.0700 0.3372 -0.0963
C15B C 0.1511(3) 0.2028(3) -0.0490(2)
H8B H 0.0955 0.1815 -0.0348
C16B C 0.2451(3) 0.1414(2) -0.0351(2)
H9B H 0.2514 0.0765 -0.0141
C17B C 0.3305(3) 0.17280(19) -0.05138(18)
H10B H 0.3946 0.1293 -0.0418
C18B C 0.6304(2) 0.24048(16) 0.07333(16)
C19B C 0.6035(2) 0.25442(17) 0.13646(16)
H11B H 0.5370 0.2992 0.1209
C20B C 0.6723(3) 0.20386(19) 0.22146(17)
H12B H 0.6541 0.2147 0.2645
C21B C 0.7675(3) 0.1376(2) 0.24379(19)
H13B H 0.8143 0.1025 0.3020
C22B C 0.7950(3) 0.1221(2) 0.18195(19)
H14B H 0.8608 0.0767 0.1976
C23B C 0.7265(3) 0.17283(17) 0.09738(17)
H15B H 0.7452 0.1614 0.0547
C24B C 0.7697(2) 0.37329(16) 0.01947(16)
C25B C 0.8445(2) 0.38899(16) 0.11732(16)
H16B H 0.8021 0.3881 0.1453
C26B C 0.9785(3) 0.40580(18) 0.17471(18)
H17B H 1.0268 0.4153 0.2412
C27B C 1.0421(3) 0.40877(18) 0.13590(19)
H18B H 1.1339 0.4211 0.1750
C28B C 0.9707(3) 0.39365(18) 0.0394(2)
H19B H 1.0137 0.3954 0.0119
C29B C 0.8368(3) 0.37600(17) -0.01765(18)
H20B H 0.7896 0.3655 -0.0839
C30B C 0.5459(2) 0.47386(15) -0.18106(16)
C31B C 0.6232(3) 0.55630(17) -0.13412(17)
H21B H 0.6726 0.5613 -0.0671
C32B C 0.6297(3) 0.63105(19) -0.18292(19)
H22B H 0.6818 0.6871 -0.1498
C33B C 0.5601(3) 0.6234(2) -0.2797(2)
H23B H 0.5627 0.6748 -0.3139
C34B C 0.4866(3) 0.5415(2) -0.32702(19)
H24B H 0.4405 0.5358 -0.3936
C35B C 0.4791(3) 0.46708(18) -0.27860(17)
H25B H 0.4279 0.4109 -0.3123
loop_
_geom_bond_atom_site_label_1
_geom_bond_atom_site_label_2
_geom_bond_site_symmetry_1
_geom_bond_site_symmetry_2
Ba1 C1 1_555 1_555
C1 C2 1_555 1_555
C2 Ba1 1_555 1_555
C3 Ba1 1_555 1_555
C4 Ba1 1_555 1_555
C5 Ba1 1_555 1_555
C6 C1 1_555 1_555
C7 C6 1_555 1_555
H1 C7 1_555 1_555
C8 C7 1_555 1_555
H2 C8 1_555 1_555
C9 C8 1_555 1_555
H3 C9 1_555 1_555
C10 C9 1_555 1_555
H4 C10 1_555 1_555
C11 C6 1_555 1_555
H5 C11 1_555 1_555
C12 C2 1_555 1_555
C13 C12 1_555 1_555
H6 C13 1_555 1_555
C14 C13 1_555 1_555
H7 C14 1_555 1_555
C15 C14 1_555 1_555
H8 C15 1_555 1_555
C16 C15 1_555 1_555
H9 C16 1_555 1_555
C17 C12 1_555 1_555
H10 C17 1_555 1_555
C18 C3 1_555 1_555
C19 C18 1_555 1_555
H11 C19 1_555 1_555
C20 C19 1_555 1_555
H12 C20 1_555 1_555
C21 C20 1_555 1_555
H13 C21 1_555 1_555
C22 C21 1_555 1_555
H14 C22 1_555 1_555
C23 C18 1_555 1_555
H15 C23 1_555 1_555
C24 C4 1_555 1_555
C25 C24 1_555 1_555
H16 C25 1_555 1_555
C26 C25 1_555 1_555
H17 C26 1_555 1_555
C27 C26 1_555 1_555
H18 C27 1_555 1_555
C28 C27 1_555 1_555
H19 C28 1_555 1_555
C29 C24 1_555 1_555
H20 C29 1_555 1_555
C30 C5 1_555 1_555
C31 C30 1_555 1_555
H21 C31 1_555 1_555
C32 C31 1_555 1_555
H22 C32 1_555 1_555
C33 C32 1_555 1_555
H23 C33 1_555 1_555
C34 C33 1_555 1_555
H24 C34 1_555 1_555
C35 C30 1_555 1_555
H25 C35 1_555 1_555
C1B Ba1 1_555 1_555
C2B Ba1 1_555 1_555
C3B Ba1 1_555 1_555
C4B Ba1 1_555 1_555
C5B Ba1 1_555 1_555
C6B C1B 1_555 1_555
C7B C6B 1_555 1_555
H1B C7B 1_555 1_555
C8B C7B 1_555 1_555
H2B C8B 1_555 1_555
C9B C8B 1_555 1_555
H3B C9B 1_555 1_555
C10B C9B 1_555 1_555
H4B C10B 1_555 1_555
C11B C6B 1_555 1_555
H5B C11B 1_555 1_555
C12B C2B 1_555 1_555
C13B C12B 1_555 1_555
H6B C13B 1_555 1_555
C14B C13B 1_555 1_555
H7B C14B 1_555 1_555
C15B C14B 1_555 1_555
H8B C15B 1_555 1_555
C16B C15B 1_555 1_555
H9B C16B 1_555 1_555
C17B C12B 1_555 1_555
H10B C17B 1_555 1_555
C18B C3B 1_555 1_555
C19B C18B 1_555 1_555
H11B C19B 1_555 1_555
C20B C19B 1_555 1_555
H12B C20B 1_555 1_555
C21B C20B 1_555 1_555
H13B C21B 1_555 1_555
C22B C21B 1_555 1_555
H14B C22B 1_555 1_555
C23B C18B 1_555 1_555
H15B C23B 1_555 1_555
C24B C4B 1_555 1_555
C25B C24B 1_555 1_555
H16B C25B 1_555 1_555
C26B C25B 1_555 1_555
H17B C26B 1_555 1_555
C27B C26B 1_555 1_555
H18B C27B 1_555 1_555
C28B C27B 1_555 1_555
H19B C28B 1_555 1_555
C29B C24B 1_555 1_555
H20B C29B 1_555 1_555
C30B C5B 1_555 1_555
C31B C30B 1_555 1_555
H21B C31B 1_555 1_555
C32B C31B 1_555 1_555
H22B C32B 1_555 1_555
C33B C32B 1_555 1_555
H23B C33B 1_555 1_555
C34B C33B 1_555 1_555
H24B C34B 1_555 1_555
C35B C30B 1_555 1_555
H25B C35B 1_555 1_555
C1 C5 1_555 1_555
C2 C3 1_555 1_555
C3 C4 1_555 1_555
C4 C5 1_555 1_555
C10 C11 1_555 1_555
C16 C17 1_555 1_555
C22 C23 1_555 1_555
C28 C29 1_555 1_555
C34 C35 1_555 1_555
C1B C2B 1_555 1_555
C1B C5B 1_555 1_555
C2B C3B 1_555 1_555
C3B C4B 1_555 1_555
C4B C5B 1_555 1_555
C10B C11B 1_555 1_555
C16B C17B 1_555 1_555
C22B C23B 1_555 1_555
C28B C29B 1_555 1_555
C34B C35B 1_555 1_555

#END
