
#######################################################################
#
#                 Cambridge Crystallographic Data Centre
#                                CCDC 
#
#######################################################################
#
# If this CIF has been generated from an entry in the Cambridge 
# Structural Database, then it will include bibliographic, chemical, 
# crystal, experimental, refinement or atomic coordinate data resulting 
# from the CCDC's data processing and validation procedures.
#
#######################################################################

data_GOJWEI
_chemical_formula_moiety         'C28 H20 O9 S2'
_chemical_name_systematic        
3-(4-(Benzenesulfonyloxy)phenyl)-7-(benzenesulfonyloxy)-5-methoxy-4H-chromen-4-one
_symmetry_cell_setting           orthorhombic
_symmetry_space_group_name_H-M   'P c a 21'
_symmetry_Int_Tables_number      29
_space_group_name_Hall           'P 2c -2ac'
loop_
_symmetry_equiv_pos_site_id
_symmetry_equiv_pos_as_xyz
1 x,y,z
2 -x,-y,1/2+z
3 1/2+x,-y,z
4 1/2-x,y,1/2+z
_cell_length_a                   14.802(3)
_cell_length_b                   6.0880(12)
_cell_length_c                   28.648(6)
_cell_angle_alpha                90
_cell_angle_beta                 90
_cell_angle_gamma                90
_cell_volume                     2581.6
_exptl_crystal_colour            yellow
_exptl_crystal_description       block
_chemical_melting_point          '80-81 deg.C'
_cell_formula_units_Z            4
_exptl_crystal_recrystallization_method dichloromethane
loop_
_atom_site_label
_atom_site_type_symbol
_atom_site_fract_x
_atom_site_fract_y
_atom_site_fract_z
S1 S 1.21701(8) 0.5535(2) 0.52104(4)
S2 S 0.48685(6) 0.83838(19) 0.80724(4)
O1 O 1.30952(19) 0.5202(5) 0.50966(11)
O2 O 1.18181(19) 0.7686(4) 0.52757(10)
O3 O 1.20504(15) 0.4138(4) 0.56769(9)
O4 O 0.91707(18) 0.0676(4) 0.59035(9)
O5 O 0.80668(18) 0.2439(5) 0.65181(10)
O6 O 0.98888(15) 0.7398(4) 0.66699(9)
O7 O 0.49191(14) 0.7172(4) 0.75821(8)
O8 O 0.54525(17) 0.7309(5) 0.83930(9)
O9 O 0.4988(2) 1.0678(5) 0.80005(11)
C1 C 1.1468(3) 0.4115(8) 0.48159(14)
C2 C 1.0626(4) 0.4918(10) 0.47178(16)
H1 H 1.0439 0.6260 0.4839
C3 C 1.0062(4) 0.3705(13) 0.4437(2)
H2 H 0.9486 0.4228 0.4370
C4 C 1.0335(5) 0.1767(14) 0.42588(19)
H3 H 0.9946 0.0970 0.4068
C5 C 1.1186(6) 0.0950(10) 0.43557(18)
H4 H 1.1368 -0.0383 0.4228
C6 C 1.1768(3) 0.2113(9) 0.46423(16)
H5 H 1.2338 0.1573 0.4716
C7 C 1.1177(2) 0.4133(7) 0.58919(13)
C8 C 1.0622(3) 0.2368(7) 0.57928(13)
H6 H 1.0815 0.1247 0.5596
C9 C 0.9777(2) 0.2309(7) 0.59907(13)
C10 C 0.9496(2) 0.3957(6) 0.63078(13)
C11 C 0.8613(2) 0.3954(7) 0.65410(13)
C12 C 0.8404(2) 0.5952(6) 0.68084(12)
C13 C 0.9042(3) 0.7476(6) 0.68499(13)
H7 H 0.8893 0.8724 0.7020
C14 C 1.0096(2) 0.5658(7) 0.63844(12)
C15 C 1.0959(2) 0.5798(6) 0.61856(13)
H8 H 1.1353 0.6948 0.6250
C16 C 0.9293(3) -0.0690(8) 0.55077(16)
H9 H 0.9816 -0.1598 0.5553
H10 H 0.9376 0.0206 0.5235
H11 H 0.8770 -0.1602 0.5467
C17 C 0.7506(2) 0.6292(6) 0.70201(12)
C18 C 0.7040(3) 0.8246(6) 0.69442(13)
H12 H 0.7297 0.9342 0.6762
C19 C 0.6194(3) 0.8564(7) 0.71394(13)
H13 H 0.5888 0.9883 0.7097
C20 C 0.5816(2) 0.6906(7) 0.73962(12)
C21 C 0.6248(2) 0.4944(6) 0.74716(12)
H14 H 0.5977 0.3841 0.7647
C22 C 0.7094(3) 0.4649(6) 0.72805(13)
H15 H 0.7394 0.3325 0.7327
C23 C 0.3749(2) 0.7875(7) 0.82169(12)
C24 C 0.3524(3) 0.5887(7) 0.84146(14)
H16 H 0.3960 0.4798 0.8448
C25 C 0.2650(4) 0.5514(9) 0.85637(16)
H17 H 0.2492 0.4186 0.8702
C26 C 0.2017(3) 0.7151(13) 0.85036(18)
H18 H 0.1426 0.6912 0.8601
C27 C 0.2241(3) 0.9120(10) 0.83037(18)
H19 H 0.1805 1.0207 0.8266
C28 C 0.3117(3) 0.9482(7) 0.81582(14)
H20 H 0.3275 1.0812 0.8021
loop_
_geom_bond_atom_site_label_1
_geom_bond_atom_site_label_2
_geom_bond_site_symmetry_1
_geom_bond_site_symmetry_2
S1 O1 1_555 1_555
S2 O7 1_555 1_555
O2 S1 1_555 1_555
O3 S1 1_555 1_555
O4 C9 1_555 1_555
O5 C11 1_555 1_555
O6 C13 1_555 1_555
O7 C20 1_555 1_555
O8 S2 1_555 1_555
O9 S2 1_555 1_555
C1 S1 1_555 1_555
C2 C1 1_555 1_555
H1 C2 1_555 1_555
C3 C2 1_555 1_555
H2 C3 1_555 1_555
C4 C3 1_555 1_555
H3 C4 1_555 1_555
C5 C4 1_555 1_555
H4 C5 1_555 1_555
C6 C1 1_555 1_555
H5 C6 1_555 1_555
C7 O3 1_555 1_555
C8 C7 1_555 1_555
H6 C8 1_555 1_555
C9 C8 1_555 1_555
C10 C9 1_555 1_555
C11 C10 1_555 1_555
C12 C11 1_555 1_555
C13 C12 1_555 1_555
H7 C13 1_555 1_555
C14 O6 1_555 1_555
C15 C7 1_555 1_555
H8 C15 1_555 1_555
C16 O4 1_555 1_555
H9 C16 1_555 1_555
H10 C16 1_555 1_555
H11 C16 1_555 1_555
C17 C12 1_555 1_555
C18 C17 1_555 1_555
H12 C18 1_555 1_555
C19 C18 1_555 1_555
H13 C19 1_555 1_555
C20 C19 1_555 1_555
C21 C20 1_555 1_555
H14 C21 1_555 1_555
C22 C17 1_555 1_555
H15 C22 1_555 1_555
C23 S2 1_555 1_555
C24 C23 1_555 1_555
H16 C24 1_555 1_555
C25 C24 1_555 1_555
H17 C25 1_555 1_555
C26 C25 1_555 1_555
H18 C26 1_555 1_555
C27 C26 1_555 1_555
H19 C27 1_555 1_555
C28 C23 1_555 1_555
H20 C28 1_555 1_555
C5 C6 1_555 1_555
C10 C14 1_555 1_555
C14 C15 1_555 1_555
C21 C22 1_555 1_555
C27 C28 1_555 1_555

#END
