
#######################################################################
#
#                 Cambridge Crystallographic Data Centre
#                                CCDC 
#
#######################################################################
#
# If this CIF has been generated from an entry in the Cambridge 
# Structural Database, then it will include bibliographic, chemical, 
# crystal, experimental, refinement or atomic coordinate data resulting 
# from the CCDC's data processing and validation procedures.
#
#######################################################################

data_GOJWAE
_chemical_formula_moiety         'C21 H19 N1 O3'
_chemical_name_systematic        
2-(3,4-Dimethoxybenzylidene)-2,3,4,9-tetrahydro-1H-carbazol-1-one
_symmetry_cell_setting           triclinic
_symmetry_space_group_name_H-M   'P -1'
_symmetry_Int_Tables_number      2
_space_group_name_Hall           '-P 1'
loop_
_symmetry_equiv_pos_site_id
_symmetry_equiv_pos_as_xyz
1 x,y,z
2 -x,-y,-z
_cell_length_a                   8.779(2)
_cell_length_b                   10.947(3)
_cell_length_c                   18.846(5)
_cell_angle_alpha                81.441(4)
_cell_angle_beta                 86.655(4)
_cell_angle_gamma                68.210(3)
_cell_volume                     1663.02
_exptl_crystal_colour            yellow
_exptl_crystal_description       plate
_chemical_melting_point          '108-111 deg.C'
_cell_formula_units_Z            4
_exptl_crystal_recrystallization_method ethanol
loop_
_atom_site_label
_atom_site_type_symbol
_atom_site_fract_x
_atom_site_fract_y
_atom_site_fract_z
C1 C 0.94959(16) 0.52530(13) 0.82382(7)
C2 C 1.09066(17) 0.45555(14) 0.78667(8)
H1 H 1.1920 0.4066 0.8106
C3 C 1.07539(18) 0.46138(15) 0.71357(8)
H2 H 1.1681 0.4134 0.6870
C4 C 0.92657(19) 0.53626(15) 0.67711(8)
H3 H 0.9219 0.5387 0.6267
C5 C 0.78837(18) 0.60567(14) 0.71331(7)
H4 H 0.6891 0.6571 0.6883
C6 C 0.79691(16) 0.59900(13) 0.78837(7)
C7 C 0.67901(16) 0.64527(12) 0.84282(7)
C8 C 0.49823(16) 0.72346(14) 0.83916(7)
H5 H 0.4509 0.7029 0.7981
H6 H 0.4783 0.8196 0.8315
C9 C 0.41444(16) 0.68920(13) 0.90919(7)
H7 H 0.3008 0.7547 0.9102
H8 H 0.4083 0.6006 0.9098
C10 C 0.50349(15) 0.68853(12) 0.97607(7)
C11 C 0.68686(15) 0.62637(12) 0.97673(7)
C12 C 0.76173(15) 0.60200(12) 0.90743(7)
C13 C 0.43093(15) 0.73932(12) 1.03573(7)
H9 H 0.5030 0.7350 1.0725
C14 C 0.25474(15) 0.80052(12) 1.05127(7)
C15 C 0.13893(16) 0.75381(13) 1.03057(7)
H10 H 0.1728 0.6812 1.0037
C16 C -0.02616(16) 0.81223(13) 1.04873(7)
H11 H -0.1033 0.7780 1.0350
C17 C -0.07833(15) 0.91986(12) 1.08658(7)
C18 C 0.03783(16) 0.96694(12) 1.10952(7)
C19 C 0.20206(15) 0.90631(12) 1.09275(7)
H12 H 0.2804 0.9363 1.1094
C20 C 0.08403(18) 1.13266(14) 1.16497(8)
H13 H 0.1693 1.0692 1.1976
H14 H 0.0225 1.2110 1.1883
H15 H 0.1352 1.1595 1.1209
C21 C -0.35640(17) 0.94011(15) 1.08211(8)
H16 H -0.3520 0.9440 1.0298
H17 H -0.4661 0.9962 1.0967
H18 H -0.3326 0.8482 1.1044
N1 N 0.92632(13) 0.53186(11) 0.89591(6)
H37 H 1.0028 0.4975 0.9291
O1 O 0.76875(11) 0.59806(10) 1.03233(5)
O2 O -0.23761(11) 0.98658(9) 1.10477(5)
O3 O -0.02541(11) 1.07165(9) 1.14775(5)
C22 C 0.39014(16) 0.31841(13) 0.47680(7)
C23 C 0.24561(16) 0.38473(14) 0.51292(7)
H19 H 0.1906 0.3374 0.5438
C24 C 0.18666(17) 0.52158(14) 0.50177(7)
H20 H 0.0893 0.5692 0.5259
C25 C 0.26645(17) 0.59316(14) 0.45566(7)
H21 H 0.2217 0.6875 0.4492
C26 C 0.40820(16) 0.52829(13) 0.41985(7)
H22 H 0.4612 0.5768 0.3887
C27 C 0.47260(16) 0.38888(13) 0.43034(7)
C28 C 0.61890(16) 0.29174(13) 0.40758(7)
C29 C 0.75521(17) 0.30557(14) 0.35996(8)
H23 H 0.7644 0.3923 0.3625
H24 H 0.7314 0.3027 0.3097
C30 C 0.91752(17) 0.19284(13) 0.38339(8)
H25 H 1.0010 0.1921 0.3456
H26 H 0.9556 0.2110 0.4277
C31 C 0.90552(16) 0.05700(13) 0.39722(7)
C32 C 0.75332(16) 0.04471(13) 0.43321(7)
C33 C 0.62099(16) 0.16960(13) 0.43993(7)
C34 C 1.02214(16) -0.05557(13) 0.37989(7)
H27 H 0.9963 -0.1333 0.3905
C35 C 1.18393(16) -0.07453(13) 0.34684(7)
C36 C 1.28042(16) -0.00411(14) 0.36003(7)
H28 H 1.2409 0.0616 0.3913
C37 C 1.43431(17) -0.02875(14) 0.32796(7)
H29 H 1.4986 0.0201 0.3376
C38 C 1.49409(16) -0.12421(13) 0.28200(7)
C39 C 1.39863(16) -0.19774(13) 0.26871(7)
C40 C 1.24681(16) -0.17338(13) 0.30125(7)
H30 H 1.1838 -0.2240 0.2928
C41 C 1.75676(17) -0.10562(16) 0.27163(8)
H31 H 1.7151 -0.0088 0.2590
H32 H 1.8630 -0.1445 0.2481
H33 H 1.7701 -0.1284 0.3238
C42 C 1.38827(19) -0.38054(14) 0.21714(8)
H34 H 1.3777 -0.4275 0.2646
H35 H 1.4523 -0.4451 0.1856
H36 H 1.2790 -0.3302 0.1967
N2 N 0.48040(14) 0.18534(11) 0.48074(6)
H38 H 0.4537 0.1210 0.5050
O4 O 0.74171(12) -0.06359(10) 0.45569(5)
O5 O 1.64275(12) -0.15695(10) 0.24828(5)
O6 O 1.46986(12) -0.29115(10) 0.22388(5)
loop_
_geom_bond_atom_site_label_1
_geom_bond_atom_site_label_2
_geom_bond_site_symmetry_1
_geom_bond_site_symmetry_2
C1 C2 1_555 1_555
C2 H1 1_555 1_555
C3 C2 1_555 1_555
H2 C3 1_555 1_555
C4 C3 1_555 1_555
H3 C4 1_555 1_555
C5 C4 1_555 1_555
H4 C5 1_555 1_555
C6 C1 1_555 1_555
C7 C6 1_555 1_555
C8 C7 1_555 1_555
H5 C8 1_555 1_555
H6 C8 1_555 1_555
C9 C8 1_555 1_555
H7 C9 1_555 1_555
H8 C9 1_555 1_555
C10 C9 1_555 1_555
C11 C10 1_555 1_555
C12 C7 1_555 1_555
C13 C10 1_555 1_555
H9 C13 1_555 1_555
C14 C13 1_555 1_555
C15 C14 1_555 1_555
H10 C15 1_555 1_555
C16 C15 1_555 1_555
H11 C16 1_555 1_555
C17 C16 1_555 1_555
C18 C17 1_555 1_555
C19 C14 1_555 1_555
H12 C19 1_555 1_555
C20 H13 1_555 1_555
H14 C20 1_555 1_555
H15 C20 1_555 1_555
C21 H16 1_555 1_555
H17 C21 1_555 1_555
H18 C21 1_555 1_555
C22 C23 1_555 1_555
C23 H19 1_555 1_555
C24 C23 1_555 1_555
H20 C24 1_555 1_555
C25 C24 1_555 1_555
H21 C25 1_555 1_555
C26 C25 1_555 1_555
H22 C26 1_555 1_555
C27 C22 1_555 1_555
C28 C27 1_555 1_555
C29 C28 1_555 1_555
H23 C29 1_555 1_555
H24 C29 1_555 1_555
C30 C29 1_555 1_555
H25 C30 1_555 1_555
H26 C30 1_555 1_555
C31 C30 1_555 1_555
C32 C31 1_555 1_555
C33 C28 1_555 1_555
C34 C31 1_555 1_555
H27 C34 1_555 1_555
C35 C34 1_555 1_555
C36 C35 1_555 1_555
H28 C36 1_555 1_555
C37 C36 1_555 1_555
H29 C37 1_555 1_555
C38 C37 1_555 1_555
C39 C38 1_555 1_555
C40 C35 1_555 1_555
H30 C40 1_555 1_555
C41 H31 1_555 1_555
H32 C41 1_555 1_555
H33 C41 1_555 1_555
C42 H34 1_555 1_555
H35 C42 1_555 1_555
H36 C42 1_555 1_555
N1 C1 1_555 1_555
H37 N1 1_555 1_555
N2 C22 1_555 1_555
H38 N2 1_555 1_555
O1 C11 1_555 1_555
O2 C17 1_555 1_555
O3 C18 1_555 1_555
O4 C32 1_555 1_555
O5 C38 1_555 1_555
O6 C39 1_555 1_555
C5 C6 1_555 1_555
C11 C12 1_555 1_555
C12 N1 1_555 1_555
C18 C19 1_555 1_555
C20 O3 1_555 1_555
C21 O2 1_555 1_555
C26 C27 1_555 1_555
C32 C33 1_555 1_555
C33 N2 1_555 1_555
C39 C40 1_555 1_555
C41 O5 1_555 1_555
C42 O6 1_555 1_555

#END
