
#######################################################################
#
#                 Cambridge Crystallographic Data Centre
#                                CCDC 
#
#######################################################################
#
# If this CIF has been generated from an entry in the Cambridge 
# Structural Database, then it will include bibliographic, chemical, 
# crystal, experimental, refinement or atomic coordinate data resulting 
# from the CCDC's data processing and validation procedures.
#
#######################################################################

data_GOJXOS
_chemical_formula_moiety         'C20 H14 N4,C4 H10 O1'
_chemical_name_systematic        
'trans-2-Amino-4,5-diphenyl-2-cyclopentene-1,1,3-tricarbonitrile diethyl ether solvate'
_symmetry_cell_setting           monoclinic
_symmetry_space_group_name_H-M   'P 21/c'
_symmetry_Int_Tables_number      14
_space_group_name_Hall           '-P 2ybc'
loop_
_symmetry_equiv_pos_site_id
_symmetry_equiv_pos_as_xyz
1 x,y,z
2 -x,1/2+y,1/2-z
3 -x,-y,-z
4 x,1/2-y,1/2+z
_cell_length_a                   10.638(3)
_cell_length_b                   12.219(3)
_cell_length_c                   18.990(3)
_cell_angle_alpha                90
_cell_angle_beta                 112.38(1)
_cell_angle_gamma                90
_cell_volume                     2282.5
_cell_formula_units_Z            4
loop_
_atom_site_label
_atom_site_type_symbol
_atom_site_fract_x
_atom_site_fract_y
_atom_site_fract_z
C1 C 0.5567(11) 0.1205(10) 0.2710(6)
C2 C 0.5433(12) 0.0893(7) 0.3462(6)
C3 C 0.4143(12) 0.0584(7) 0.3306(6)
C4 C 0.3260(13) 0.0693(8) 0.2475(7)
C5 C 0.4070(10) 0.1465(10) 0.2182(6)
C6 C 0.6455(11) 0.2167(11) 0.2783(6)
N1 N 0.7108(9) 0.2886(8) 0.2827(6)
C7 C 0.6075(10) 0.0235(10) 0.2420(6)
N2 N 0.6396(9) -0.0540(8) 0.2197(5)
N3 N 0.6528(9) 0.0857(6) 0.4101(5)
C8 C 0.3685(9) 0.0120(8) 0.3857(7)
N4 N 0.3388(8) -0.0247(7) 0.4322(5)
C9 C 0.1797(14) 0.1017(15) 0.2279(6)
C10 C 0.0722(22) 0.0321(9) 0.1926(7)
C11 C -0.0613(20) 0.0622(18) 0.1759(7)
C12 C -0.0919(17) 0.1639(22) 0.1928(9)
C13 C 0.0137(27) 0.2330(13) 0.2286(9)
C14 C 0.1476(15) 0.2019(17) 0.2468(7)
C15 C 0.3829(9) 0.1476(15) 0.1345(7)
C16 C 0.3502(9) 0.0562(14) 0.0894(10)
C17 C 0.3387(12) 0.0568(17) 0.0151(12)
C18 C 0.3633(13) 0.1496(23) -0.0166(8)
C19 C 0.3931(12) 0.2437(16) 0.0256(12)
C20 C 0.4013(9) 0.2411(12) 0.1002(10)
O1 O 0.9328(7) 0.1540(9) 0.4384(5)
C21 C 1.0300(19) 0.0990(14) 0.4196(10)
C22 C 0.9736(17) -0.0037(16) 0.3807(9)
C23 C 0.9904(24) 0.2569(20) 0.4737(17)
C24 C 0.8993(28) 0.3125(19) 0.4894(15)
loop_
_geom_bond_atom_site_label_1
_geom_bond_atom_site_label_2
_geom_bond_site_symmetry_1
_geom_bond_site_symmetry_2
C1 C2 1_555 1_555
C2 C3 1_555 1_555
C3 C4 1_555 1_555
C4 C5 1_555 1_555
C5 C1 1_555 1_555
C6 C1 1_555 1_555
N1 C6 1_555 1_555
C7 C1 1_555 1_555
N2 C7 1_555 1_555
N3 C2 1_555 1_555
C8 C3 1_555 1_555
N4 C8 1_555 1_555
C9 C4 1_555 1_555
C10 C9 1_555 1_555
C11 C10 1_555 1_555
C12 C11 1_555 1_555
C13 C12 1_555 1_555
C14 C9 1_555 1_555
C15 C5 1_555 1_555
C16 C15 1_555 1_555
C17 C16 1_555 1_555
C18 C17 1_555 1_555
C19 C18 1_555 1_555
C20 C15 1_555 1_555
O1 C21 1_555 1_555
C21 C22 1_555 1_555
C23 O1 1_555 1_555
C24 C23 1_555 1_555
C13 C14 1_555 1_555
C19 C20 1_555 1_555

#END
