
#######################################################################
#
#                 Cambridge Crystallographic Data Centre
#                                CCDC 
#
#######################################################################
#
# If this CIF has been generated from an entry in the Cambridge 
# Structural Database, then it will include bibliographic, chemical, 
# crystal, experimental, refinement or atomic coordinate data resulting 
# from the CCDC's data processing and validation procedures.
#
#######################################################################

data_GOKKAT01
_chemical_formula_moiety         'C18 H18 N4 O1 S1'
_chemical_name_systematic        
(E)-3-(2-Ethoxyphenyl)-4-(4-methylbenzylideneamino)-1H-1,2,4-triazole-5(4H)-thione
_symmetry_cell_setting           orthorhombic
_symmetry_space_group_name_H-M   'P 21 21 21'
_symmetry_Int_Tables_number      19
_space_group_name_Hall           'P 2ac 2ab'
loop_
_symmetry_equiv_pos_site_id
_symmetry_equiv_pos_as_xyz
1 x,y,z
2 1/2-x,-y,1/2+z
3 -x,1/2+y,1/2-z
4 1/2+x,1/2-y,-z
_cell_length_a                   8.304(4)
_cell_length_b                   13.779(7)
_cell_length_c                   15.104(8)
_cell_angle_alpha                90
_cell_angle_beta                 90
_cell_angle_gamma                90
_cell_volume                     1728.21
_exptl_crystal_colour            colorless
_exptl_crystal_description       block
_cell_formula_units_Z            4
loop_
_atom_site_label
_atom_site_type_symbol
_atom_site_fract_x
_atom_site_fract_y
_atom_site_fract_z
S1 S -0.01674(12) 0.29908(7) -0.06720(7)
O1 O 0.1338(4) 0.5342(2) 0.2197(2)
N1 N -0.2065(4) 0.3407(2) 0.0719(2)
N2 N -0.2421(4) 0.4102(2) 0.1336(2)
N3 N -0.0242(3) 0.4462(2) 0.0587(2)
N4 N 0.0960(4) 0.5074(2) 0.0262(2)
C1 C 0.3935(6) 0.4818(4) 0.2583(4)
H1 H 0.3484 0.4303 0.2932
H2 H 0.4944 0.5016 0.2835
H3 H 0.4106 0.4593 0.1989
C2 C 0.2810(5) 0.5653(4) 0.2572(3)
H4 H 0.2633 0.5886 0.3170
H5 H 0.3260 0.6179 0.2224
C3 C 0.0100(5) 0.5972(3) 0.2174(3)
C4 C 0.0056(7) 0.6866(3) 0.2608(3)
H6 H 0.0957 0.7085 0.2914
C5 C -0.1316(7) 0.7422(4) 0.2583(4)
H7 H -0.1330 0.8017 0.2874
C6 C -0.2652(6) 0.7122(4) 0.2144(4)
H8 H -0.3579 0.7501 0.2142
C7 C -0.2619(5) 0.6248(3) 0.1700(3)
H9 H -0.3526 0.6039 0.1393
C8 C -0.1249(5) 0.5679(3) 0.1707(3)
C9 C -0.1295(5) 0.4733(3) 0.1241(3)
C10 C -0.0784(5) 0.3613(3) 0.0224(3)
C11 C 0.2298(5) 0.4655(3) 0.0137(3)
H10 H 0.2392 0.3997 0.0265
C12 C 0.3701(5) 0.5177(3) -0.0206(3)
C13 C 0.3720(5) 0.6184(3) -0.0292(3)
H11 H 0.2818 0.6547 -0.0139
C14 C 0.5063(5) 0.6633(3) -0.0601(3)
H12 H 0.5068 0.7306 -0.0644
C15 C 0.6425(5) 0.6126(3) -0.0854(3)
C16 C 0.6374(5) 0.5129(3) -0.0789(3)
H13 H 0.7254 0.4766 -0.0978
C17 C 0.5054(5) 0.4662(3) -0.0452(3)
H14 H 0.5069 0.3990 -0.0388
C18 C 0.7894(6) 0.6631(4) -0.1204(4)
H15 H 0.8026 0.6479 -0.1820
H16 H 0.8825 0.6417 -0.0882
H17 H 0.7772 0.7319 -0.1135
H18 H -0.273(4) 0.291(2) 0.061(2)
loop_
_geom_bond_atom_site_label_1
_geom_bond_atom_site_label_2
_geom_bond_site_symmetry_1
_geom_bond_site_symmetry_2
S1 C10 1_555 1_555
O1 C2 1_555 1_555
N1 N2 1_555 1_555
N2 C9 1_555 1_555
N3 N4 1_555 1_555
N4 C11 1_555 1_555
C1 H1 1_555 1_555
H2 C1 1_555 1_555
H3 C1 1_555 1_555
C2 C1 1_555 1_555
H4 C2 1_555 1_555
H5 C2 1_555 1_555
C3 O1 1_555 1_555
C4 C3 1_555 1_555
H6 C4 1_555 1_555
C5 C4 1_555 1_555
H7 C5 1_555 1_555
C6 C5 1_555 1_555
H8 C6 1_555 1_555
C7 C6 1_555 1_555
H9 C7 1_555 1_555
C8 C3 1_555 1_555
C9 N3 1_555 1_555
C10 N1 1_555 1_555
C11 H10 1_555 1_555
C12 C11 1_555 1_555
C13 C12 1_555 1_555
H11 C13 1_555 1_555
C14 C13 1_555 1_555
H12 C14 1_555 1_555
C15 C14 1_555 1_555
C16 C15 1_555 1_555
H13 C16 1_555 1_555
C17 C12 1_555 1_555
H14 C17 1_555 1_555
C18 C15 1_555 1_555
H15 C18 1_555 1_555
H16 C18 1_555 1_555
H17 C18 1_555 1_555
H18 N1 1_555 1_555
N3 C10 1_555 1_555
C7 C8 1_555 1_555
C8 C9 1_555 1_555
C16 C17 1_555 1_555

#END
