
#######################################################################
#
#                 Cambridge Crystallographic Data Centre
#                                CCDC 
#
#######################################################################
#
# If this CIF has been generated from an entry in the Cambridge 
# Structural Database, then it will include bibliographic, chemical, 
# crystal, experimental, refinement or atomic coordinate data resulting 
# from the CCDC's data processing and validation procedures.
#
#######################################################################

data_GOKNAX
_chemical_formula_moiety         'C17 H16 Cl1 N3 O1'
_chemical_name_systematic        
5-chloro-7-phenyl-3-(tetrahydro-2H-pyran-2-yl)-3H-imidazo[4,5-b]pyridine
_symmetry_cell_setting           triclinic
_symmetry_space_group_name_H-M   'P -1'
_symmetry_Int_Tables_number      2
_space_group_name_Hall           '-P 1'
loop_
_symmetry_equiv_pos_site_id
_symmetry_equiv_pos_as_xyz
1 x,y,z
2 -x,-y,-z
_cell_length_a                   8.6343(11)
_cell_length_b                   13.582(3)
_cell_length_c                   14.490(3)
_cell_angle_alpha                68.011(17)
_cell_angle_beta                 77.618(14)
_cell_angle_gamma                76.018(11)
_cell_volume                     1514.38
_exptl_crystal_colour            colorless
_exptl_crystal_description       block
_cell_formula_units_Z            4
loop_
_atom_site_label
_atom_site_type_symbol
_atom_site_fract_x
_atom_site_fract_y
_atom_site_fract_z
Cl1 Cl 0.42710(12) -0.05753(7) 0.86816(6)
O1 O 0.5034(2) 0.17466(16) 0.43766(15)
N1 N 0.4269(3) 0.1052(2) 0.70056(18)
N2 N 0.4907(3) 0.3786(2) 0.60866(18)
N3 N 0.4202(3) 0.26357(19) 0.55267(18)
C1 C 0.4998(4) 0.1358(2) 0.8385(2)
H1 H 0.5197 0.1047 0.9064
C2 C 0.4551(4) 0.0737(2) 0.7942(2)
C3 C 0.4454(3) 0.2067(2) 0.6505(2)
C4 C 0.4877(3) 0.2792(2) 0.6848(2)
C5 C 0.5154(3) 0.2418(2) 0.7851(2)
C6 C 0.4498(4) 0.3651(2) 0.5330(2)
H2 H 0.4412 0.4208 0.4697
C7 C 0.5567(3) 0.3100(2) 0.8324(2)
C8 C 0.6497(3) 0.3894(2) 0.7787(2)
H3 H 0.6829 0.4041 0.7087
C9 C 0.6940(4) 0.4471(3) 0.8268(2)
H4 H 0.7597 0.4999 0.7900
C10 C 0.6436(4) 0.4284(3) 0.9272(3)
H5 H 0.6751 0.4678 0.9600
C11 C 0.5468(4) 0.3521(3) 0.9808(3)
H6 H 0.5108 0.3399 1.0503
C12 C 0.5025(4) 0.2937(2) 0.9339(2)
H7 H 0.4347 0.2422 0.9709
C13 C 0.3647(4) 0.2205(2) 0.4905(2)
H8 H 0.3053 0.1613 0.5358
C14 C 0.4588(4) 0.1164(3) 0.3851(3)
H9 H 0.4069 0.0563 0.4343
H10 H 0.5569 0.0853 0.3485
C15 C 0.3446(4) 0.1889(3) 0.3117(2)
H11 H 0.3085 0.1454 0.2815
H12 H 0.4015 0.2429 0.2569
C16 C 0.2001(4) 0.2461(3) 0.3625(3)
H13 H 0.1325 0.1934 0.4090
H14 H 0.1344 0.3002 0.3114
C17 C 0.2539(4) 0.3024(3) 0.4212(2)
H15 H 0.3101 0.3614 0.3742
H16 H 0.1591 0.3336 0.4600
Cl2 Cl 0.13714(13) 0.10361(8) 1.04079(7)
O2 O 0.0030(2) 0.56545(17) 0.83868(16)
N4 N 0.1206(3) 0.2867(2) 0.8951(2)
N5 N 0.0495(3) 0.3945(2) 0.6388(2)
N6 N 0.1167(3) 0.4498(2) 0.7510(2)
C18 C 0.0555(4) 0.1427(3) 0.8588(3)
H17 H 0.0407 0.0697 0.8850
C19 C 0.0993(4) 0.1871(3) 0.9196(3)
C20 C 0.0986(4) 0.3438(3) 0.8011(3)
C21 C 0.0562(4) 0.3104(3) 0.7303(2)
C22 C 0.0332(4) 0.2042(3) 0.7602(3)
C23 C 0.0859(4) 0.4740(3) 0.6561(3)
H18 H 0.0903 0.5431 0.6062
C24 C -0.0148(4) 0.1584(3) 0.6945(2)
C25 C 0.0309(5) 0.0496(3) 0.7068(3)
H19 H 0.0990 0.0042 0.7555
C26 C -0.0218(5) 0.0064(3) 0.6488(3)
H20 H 0.0102 -0.0683 0.6580
C27 C -0.1198(5) 0.0711(3) 0.5783(3)
H21 H -0.1579 0.0409 0.5398
C28 C -0.1630(4) 0.1790(3) 0.5631(3)
H22 H -0.2297 0.2239 0.5133
C29 C -0.1099(4) 0.2232(3) 0.6200(2)
H23 H -0.1387 0.2985 0.6081
C30 C 0.1541(4) 0.5171(3) 0.7976(3)
H24 H 0.2161 0.4696 0.8542
C31 C 0.0277(5) 0.6233(3) 0.8983(3)
H25 H 0.0849 0.5722 0.9548
H26 H -0.0782 0.6558 0.9267
C32 C 0.1235(5) 0.7103(3) 0.8372(3)
H27 H 0.1463 0.7441 0.8815
H28 H 0.0600 0.7667 0.7862
C33 C 0.2799(4) 0.6651(3) 0.7855(3)
H29 H 0.3517 0.6189 0.8362
H30 H 0.3342 0.7251 0.7384
C34 C 0.2512(4) 0.5994(3) 0.7280(3)
H31 H 0.1928 0.6473 0.6708
H32 H 0.3555 0.5636 0.7011
loop_
_geom_bond_atom_site_label_1
_geom_bond_atom_site_label_2
_geom_bond_site_symmetry_1
_geom_bond_site_symmetry_2
Cl1 C2 1_555 1_555
O1 C13 1_555 1_555
N1 C2 1_555 1_555
N2 C4 1_555 1_555
N3 C3 1_555 1_555
C1 H1 1_555 1_555
C2 C1 1_555 1_555
C3 N1 1_555 1_555
C4 C3 1_555 1_555
C5 C1 1_555 1_555
C6 N2 1_555 1_555
H2 C6 1_555 1_555
C7 C5 1_555 1_555
C8 C7 1_555 1_555
H3 C8 1_555 1_555
C9 C8 1_555 1_555
H4 C9 1_555 1_555
C10 C9 1_555 1_555
H5 C10 1_555 1_555
C11 C10 1_555 1_555
H6 C11 1_555 1_555
C12 C7 1_555 1_555
H7 C12 1_555 1_555
C13 N3 1_555 1_555
H8 C13 1_555 1_555
C14 O1 1_555 1_555
H9 C14 1_555 1_555
H10 C14 1_555 1_555
C15 C14 1_555 1_555
H11 C15 1_555 1_555
H12 C15 1_555 1_555
C16 C15 1_555 1_555
H13 C16 1_555 1_555
H14 C16 1_555 1_555
C17 C13 1_555 1_555
H15 C17 1_555 1_555
H16 C17 1_555 1_555
Cl2 C19 1_555 1_555
O2 C30 1_555 1_555
N4 C19 1_555 1_555
N5 C21 1_555 1_555
N6 C20 1_555 1_555
C18 H17 1_555 1_555
C19 C18 1_555 1_555
C20 N4 1_555 1_555
C21 C20 1_555 1_555
C22 C18 1_555 1_555
C23 N5 1_555 1_555
H18 C23 1_555 1_555
C24 C22 1_555 1_555
C25 C24 1_555 1_555
H19 C25 1_555 1_555
C26 C25 1_555 1_555
H20 C26 1_555 1_555
C27 C26 1_555 1_555
H21 C27 1_555 1_555
C28 C27 1_555 1_555
H22 C28 1_555 1_555
C29 C24 1_555 1_555
H23 C29 1_555 1_555
C30 N6 1_555 1_555
H24 C30 1_555 1_555
C31 O2 1_555 1_555
H25 C31 1_555 1_555
H26 C31 1_555 1_555
C32 C31 1_555 1_555
H27 C32 1_555 1_555
H28 C32 1_555 1_555
C33 C32 1_555 1_555
H29 C33 1_555 1_555
H30 C33 1_555 1_555
C34 C30 1_555 1_555
H31 C34 1_555 1_555
H32 C34 1_555 1_555
N3 C6 1_555 1_555
C4 C5 1_555 1_555
C11 C12 1_555 1_555
C16 C17 1_555 1_555
N6 C23 1_555 1_555
C21 C22 1_555 1_555
C28 C29 1_555 1_555
C33 C34 1_555 1_555

#END
