
#######################################################################
#
#                 Cambridge Crystallographic Data Centre
#                                CCDC 
#
#######################################################################
#
# If this CIF has been generated from an entry in the Cambridge 
# Structural Database, then it will include bibliographic, chemical, 
# crystal, experimental, refinement or atomic coordinate data resulting 
# from the CCDC's data processing and validation procedures.
#
#######################################################################

data_GOKWEI
_chemical_formula_moiety         'C26 H26 K1 N3 O13'
_chemical_name_systematic        
(unsymm-Dibenzo-18-crown-6)-(picrato-O,O')-potassium
_symmetry_cell_setting           triclinic
_symmetry_space_group_name_H-M   'P -1'
_symmetry_Int_Tables_number      2
_space_group_name_Hall           '-P 1'
loop_
_symmetry_equiv_pos_site_id
_symmetry_equiv_pos_as_xyz
1 x,y,z
2 -x,-y,-z
_cell_length_a                   7.5552(6)
_cell_length_b                   12.8200(9)
_cell_length_c                   14.6982(10)
_cell_angle_alpha                84.318(2)
_cell_angle_beta                 76.749(2)
_cell_angle_gamma                88.233(2)
_cell_volume                     1378.87
_exptl_crystal_colour            yellow
_exptl_crystal_description       parallelepiped
_cell_formula_units_Z            2
loop_
_atom_site_label
_atom_site_type_symbol
_atom_site_fract_x
_atom_site_fract_y
_atom_site_fract_z
K1 K 0.4330(1) 0.3698(1) 0.2730(1)
O1 O 0.5589(4) 0.1830(2) 0.3486(2)
O2 O 0.3715(4) 0.3364(2) 0.4634(2)
O3 O 0.2470(4) 0.5087(2) 0.3903(2)
O4 O 0.4197(4) 0.5848(2) 0.2093(2)
O5 O 0.6610(4) 0.4491(2) 0.1034(2)
O6 O 0.7285(4) 0.2434(2) 0.1773(2)
O7 O 0.1355(4) 0.2535(2) 0.2977(2)
O8 O 0.3448(5) 0.2797(3) 0.1242(2)
O9 O 0.2636(5) 0.1920(2) 0.0255(3)
O10 O 0.0827(5) -0.1630(2) 0.1179(3)
O11 O -0.0739(5) -0.2052(2) 0.2592(3)
O12 O -0.2006(4) 0.0439(3) 0.4816(2)
O13 O -0.0167(5) 0.1726(3) 0.4723(2)
N1 N 0.2664(5) 0.2048(3) 0.1068(3)
N2 N 0.0161(6) -0.1423(3) 0.1990(3)
N3 N -0.0746(6) 0.1017(3) 0.4371(3)
C1 C 0.4371(6) 0.1567(3) 0.4380(3)
C2 C 0.4409(6) 0.2413(3) 0.5015(3)
C3 C 0.3141(6) 0.4131(3) 0.5238(3)
C4 C 0.2418(6) 0.5043(3) 0.4850(3)
C5 C 0.1918(6) 0.6053(3) 0.3464(3)
C6 C 0.2288(6) 0.5982(4) 0.2434(3)
C7 C 0.4753(6) 0.6007(4) 0.1098(3)
C8 C 0.6637(6) 0.5603(3) 0.0793(3)
C9 C 0.8298(6) 0.3972(3) 0.0762(3)
C10 C 0.8000(7) 0.2822(3) 0.0814(3)
C11 C 0.6687(6) 0.1410(3) 0.1931(3)
C12 C 0.5763(6) 0.1086(3) 0.2850(3)
C13 C 0.5068(6) 0.0088(3) 0.3059(3)
C14 C 0.5332(7) -0.0608(4) 0.2364(4)
C15 C 0.6268(7) -0.0294(4) 0.1471(4)
C16 C 0.6936(7) 0.0722(4) 0.1257(3)
C17 C 0.3227(6) 0.4051(3) 0.6164(3)
C18 C 0.2553(6) 0.4852(3) 0.6720(3)
C19 C 0.1786(6) 0.5731(4) 0.6349(3)
C20 C 0.1715(6) 0.5820(3) 0.5409(3)
C21 C 0.1096(6) 0.1657(4) 0.2761(3)
C22 C 0.1697(6) 0.1313(3) 0.1818(3)
C23 C 0.1405(6) 0.0352(3) 0.1571(3)
C24 C 0.0460(6) -0.0385(3) 0.2245(3)
C25 C -0.0226(6) -0.0146(3) 0.3154(3)
C26 C 0.0059(6) 0.0819(3) 0.3399(3)
loop_
_geom_bond_atom_site_label_1
_geom_bond_atom_site_label_2
_geom_bond_site_symmetry_1
_geom_bond_site_symmetry_2
K1 O1 1_555 1_555
O1 C1 1_555 1_555
O2 K1 1_555 1_555
O3 K1 1_555 1_555
O4 K1 1_555 1_555
O5 K1 1_555 1_555
O6 K1 1_555 1_555
O7 K1 1_555 1_555
O8 K1 1_555 1_555
O9 N1 1_555 1_555
O10 N2 1_555 1_555
O11 N2 1_555 1_555
O12 N3 1_555 1_555
O13 N3 1_555 1_555
N1 O8 1_555 1_555
N2 C24 1_555 1_555
N3 C26 1_555 1_555
C1 C2 1_555 1_555
C2 O2 1_555 1_555
C3 O2 1_555 1_555
C4 O3 1_555 1_555
C5 O3 1_555 1_555
C6 O4 1_555 1_555
C7 O4 1_555 1_555
C8 O5 1_555 1_555
C9 O5 1_555 1_555
C10 O6 1_555 1_555
C11 O6 1_555 1_555
C12 O1 1_555 1_555
C13 C12 1_555 1_555
C14 C13 1_555 1_555
C15 C14 1_555 1_555
C16 C11 1_555 1_555
C17 C3 1_555 1_555
C18 C17 1_555 1_555
C19 C18 1_555 1_555
C20 C4 1_555 1_555
C21 O7 1_555 1_555
C22 N1 1_555 1_555
C23 C22 1_555 1_555
C24 C23 1_555 1_555
C25 C24 1_555 1_555
C26 C21 1_555 1_555
C3 C4 1_555 1_555
C5 C6 1_555 1_555
C7 C8 1_555 1_555
C9 C10 1_555 1_555
C11 C12 1_555 1_555
C15 C16 1_555 1_555
C19 C20 1_555 1_555
C21 C22 1_555 1_555
C25 C26 1_555 1_555

#END
