
#######################################################################
#
#                 Cambridge Crystallographic Data Centre
#                                CCDC 
#
#######################################################################
#
# If this CIF has been generated from an entry in the Cambridge 
# Structural Database, then it will include bibliographic, chemical, 
# crystal, experimental, refinement or atomic coordinate data resulting 
# from the CCDC's data processing and validation procedures.
#
#######################################################################

data_GOKYUA
_chemical_formula_moiety         'C30 H26 K1 N3 O13'
_chemical_name_systematic        
(Tribenzo-18-crown-6)-(picrato-O,O')-potassium
_symmetry_cell_setting           triclinic
_symmetry_space_group_name_H-M   'P -1'
_symmetry_Int_Tables_number      2
_space_group_name_Hall           '-P 1'
loop_
_symmetry_equiv_pos_site_id
_symmetry_equiv_pos_as_xyz
1 x,y,z
2 -x,-y,-z
_cell_length_a                   7.2884(5)
_cell_length_b                   14.0914(6)
_cell_length_c                   14.1719(9)
_cell_angle_alpha                90.962(3)
_cell_angle_beta                 95.945(2)
_cell_angle_gamma                96.682(3)
_cell_volume                     1437.23
_exptl_crystal_colour            yellow
_cell_formula_units_Z            2
loop_
_atom_site_label
_atom_site_type_symbol
_atom_site_fract_x
_atom_site_fract_y
_atom_site_fract_z
K1 K 0.1845(3) 0.3243(2) 0.7667(2)
O1 O -0.0748(9) 0.3822(4) 0.6126(4)
O2 O -0.1274(9) 0.1979(4) 0.6815(4)
O3 O 0.0003(9) 0.1701(4) 0.8556(4)
O4 O 0.1786(9) 0.3364(4) 0.9616(4)
O5 O 0.2982(8) 0.4902(4) 0.8744(4)
O6 O 0.2165(9) 0.4945(4) 0.6771(4)
O7 O 0.4572(9) 0.2152(5) 0.7945(4)
O8 O 0.2858(10) 0.2136(5) 0.6194(5)
O9 O 0.3470(11) 0.1058(5) 0.5229(5)
O10 O 0.4346(11) -0.2017(5) 0.6354(5)
O11 O 0.5774(12) -0.2164(5) 0.7759(6)
O12 O 0.7134(10) 0.0469(5) 0.9871(5)
O13 O 0.5737(10) 0.1725(5) 0.9708(5)
N1 N 0.3457(11) 0.1397(6) 0.6025(6)
N2 N 0.5049(13) -0.1668(6) 0.7133(7)
N3 N 0.6136(11) 0.0996(6) 0.9400(6)
C1 C -0.2342(14) 0.3155(6) 0.5816(6)
C2 C -0.1790(14) 0.2163(6) 0.5746(6)
C3 C -0.0804(13) 0.1063(6) 0.7000(7)
C4 C -0.0104(13) 0.0940(7) 0.7934(7)
C5 C 0.1111(13) 0.1651(7) 0.9467(6)
C6 C 0.0938(14) 0.2522(6) 1.0049(6)
C7 C 0.1998(13) 0.4208(7) 1.0147(6)
C8 C 0.2672(13) 0.5017(7) 0.9687(6)
C9 C 0.3451(13) 0.5774(6) 0.8263(6)
C10 C 0.3775(12) 0.5496(7) 0.7276(6)
C11 C 0.0621(14) 0.5392(7) 0.6449(6)
C12 C -0.0890(14) 0.4776(6) 0.6079(6)
C13 C -0.2522(13) 0.5137(6) 0.5394(6)
C14 C -0.2541(15) 0.6117(7) 0.5698(6)
C15 C -0.1023(17) 0.6707(7) 0.6074(7)
C16 C 0.0616(15) 0.6350(7) 0.6442(7)
C17 C -0.0927(13) 0.0344(7) 0.6332(6)
C18 C -0.0435(14) -0.0545(7) 0.6589(8)
C19 C 0.0242(13) -0.0687(7) 0.7510(8)
C20 C 0.0427(13) 0.0049(7) 0.8199(7)
C21 C 0.1573(13) 0.4288(7) 1.1076(7)
C22 C 0.1915(14) 0.5158(8) 1.1539(6)
C23 C 0.2608(14) 0.5963(8) 1.1106(7)
C24 C 0.2991(13) 0.5882(7) 1.0175(6)
C25 C 0.4676(14) 0.1307(7) 0.7750(7)
C26 C 0.4196(13) 0.0839(7) 0.6817(6)
C27 C 0.4337(12) -0.0095(6) 0.6624(6)
C28 C 0.5013(13) -0.0680(6) 0.7331(7)
C29 C 0.5596(13) -0.0280(7) 0.8245(7)
C30 C 0.5484(13) 0.0647(7) 0.8439(7)
loop_
_geom_bond_atom_site_label_1
_geom_bond_atom_site_label_2
_geom_bond_site_symmetry_1
_geom_bond_site_symmetry_2
K1 O1 1_555 1_555
O1 C1 1_555 1_555
O2 K1 1_555 1_555
O3 K1 1_555 1_555
O4 K1 1_555 1_555
O5 K1 1_555 1_555
O6 K1 1_555 1_555
O7 K1 1_555 1_555
O8 K1 1_555 1_555
O9 N1 1_555 1_555
O10 N2 1_555 1_555
O11 N2 1_555 1_555
O12 N3 1_555 1_555
O13 N3 1_555 1_555
N1 O8 1_555 1_555
N2 C28 1_555 1_555
N3 C30 1_555 1_555
C1 C2 1_555 1_555
C2 O2 1_555 1_555
C3 O2 1_555 1_555
C4 O3 1_555 1_555
C5 O3 1_555 1_555
C6 O4 1_555 1_555
C7 O4 1_555 1_555
C8 O5 1_555 1_555
C9 O5 1_555 1_555
C10 O6 1_555 1_555
C11 O6 1_555 1_555
C12 O1 1_555 1_555
C13 C12 1_555 1_555
C14 C13 1_555 1_555
C15 C14 1_555 1_555
C16 C11 1_555 1_555
C17 C3 1_555 1_555
C18 C17 1_555 1_555
C19 C18 1_555 1_555
C20 C4 1_555 1_555
C21 C7 1_555 1_555
C22 C21 1_555 1_555
C23 C22 1_555 1_555
C24 C8 1_555 1_555
C25 O7 1_555 1_555
C26 N1 1_555 1_555
C27 C26 1_555 1_555
C28 C27 1_555 1_555
C29 C28 1_555 1_555
C30 C25 1_555 1_555
C3 C4 1_555 1_555
C5 C6 1_555 1_555
C7 C8 1_555 1_555
C9 C10 1_555 1_555
C11 C12 1_555 1_555
C15 C16 1_555 1_555
C19 C20 1_555 1_555
C23 C24 1_555 1_555
C25 C26 1_555 1_555
C29 C30 1_555 1_555

#END
