
#######################################################################
#
#                 Cambridge Crystallographic Data Centre
#                                CCDC 
#
#######################################################################
#
# If this CIF has been generated from an entry in the Cambridge 
# Structural Database, then it will include bibliographic, chemical, 
# crystal, experimental, refinement or atomic coordinate data resulting 
# from the CCDC's data processing and validation procedures.
#
#######################################################################

data_GOKZEL
_chemical_formula_moiety         'C26 H28 K1 N3 O14'
_chemical_name_systematic        
Aqua-(dibenzo-18-crown-6)-(picrate-O)-potassium
_symmetry_cell_setting           triclinic
_symmetry_space_group_name_H-M   'P -1'
_symmetry_Int_Tables_number      2
_space_group_name_Hall           '-P 1'
loop_
_symmetry_equiv_pos_site_id
_symmetry_equiv_pos_as_xyz
1 x,y,z
2 -x,-y,-z
_cell_length_a                   7.5876(2)
_cell_length_b                   13.3035(4)
_cell_length_c                   14.4104(3)
_cell_angle_alpha                92.533(1)
_cell_angle_beta                 103.599(1)
_cell_angle_gamma                92.467(1)
_cell_volume                     1410.31
_exptl_crystal_colour            yellow
_exptl_crystal_description       parallelepiped
_cell_formula_units_Z            2
loop_
_atom_site_label
_atom_site_type_symbol
_atom_site_fract_x
_atom_site_fract_y
_atom_site_fract_z
K1 K 0.4779(1) 0.7248(1) 0.8358(1)
O1 O 0.5203(2) 0.7852(1) 1.0235(1)
O2 O 0.6793(2) 0.9031(1) 0.9035(1)
O3 O 0.6412(2) 0.8281(1) 0.7119(1)
O4 O 0.4776(2) 0.6539(1) 0.6532(1)
O5 O 0.3328(2) 0.5310(1) 0.7726(1)
O6 O 0.3549(2) 0.6116(1) 0.9647(1)
O7 O 0.8251(2) 0.6588(1) 0.8898(1)
O8 O 0.0960(2) 0.7334(1) 0.7831(1)
O9 O 0.2206(3) 0.9233(2) 0.8158(1)
O10 O 0.3121(2) 0.9943(1) 0.7046(1)
O11 O 0.0502(2) 0.9006(1) 0.3796(1)
O12 O -0.0862(3) 0.7530(2) 0.3385(1)
O13 O -0.1207(4) 0.5192(2) 0.5745(1)
O14 O -0.1248(2) 0.5717(1) 0.7151(1)
N1 N 0.2272(2) 0.9262(1) 0.7323(1)
N2 N -0.0083(3) 0.8180(2) 0.3990(1)
N3 N -0.0943(2) 0.5856(1) 0.6378(1)
C1 C 0.6162(3) 0.8804(2) 1.0571(2)
C2 C 0.7595(3) 0.8966(2) 1.0026(2)
C3 C 0.8163(3) 0.9189(2) 0.8514(1)
C4 C 0.7315(3) 0.9240(1) 0.7472(1)
C5 C 0.5823(3) 0.8120(2) 0.6144(1)
C6 C 0.4940(3) 0.7176(1) 0.5824(1)
C7 C 0.4039(3) 0.5534(1) 0.6227(1)
C8 C 0.4327(3) 0.4914(2) 0.7086(1)
C9 C 0.3527(3) 0.4729(1) 0.8543(1)
C10 C 0.2560(3) 0.5189(1) 0.9237(1)
C11 C 0.2930(3) 0.6640(1) 1.0342(1)
C12 C 0.3815(3) 0.7583(1) 1.0655(1)
C13 C 0.3283(3) 0.8166(2) 1.1346(2)
C14 C 0.1884(3) 0.7815(2) 1.1745(2)
C15 C 0.1061(3) 0.6878(2) 1.1464(2)
C16 C 0.1587(3) 0.6283(2) 1.0765(1)
C17 C 0.6051(3) 0.8806(2) 0.5480(2)
C18 C 0.5436(3) 0.8554(2) 0.4508(2)
C19 C 0.4576(3) 0.7630(2) 0.4200(2)
C20 C 0.4298(3) 0.6936(2) 0.4857(1)
C21 C 0.0686(2) 0.7533(2) 0.6978(2)
C22 C 0.1311(2) 0.8473(2) 0.6633(1)
C23 C 0.1079(3) 0.8674(2) 0.5688(1)
C24 C 0.0186(3) 0.7961(2) 0.4992(2)
C25 C -0.0456(3) 0.7041(2) 0.5235(2)
C26 C -0.0237(3) 0.6841(2) 0.6177(2)
loop_
_geom_bond_atom_site_label_1
_geom_bond_atom_site_label_2
_geom_bond_site_symmetry_1
_geom_bond_site_symmetry_2
K1 O1 1_555 1_555
O1 C1 1_555 1_555
O2 K1 1_555 1_555
O3 K1 1_555 1_555
O4 K1 1_555 1_555
O5 K1 1_555 1_555
O6 K1 1_555 1_555
O7 K1 1_555 1_555
O8 K1 1_555 1_555
O9 N1 1_555 1_555
O10 N1 1_555 1_555
O11 N2 1_555 1_555
O12 N2 1_555 1_555
O13 N3 1_555 1_555
O14 N3 1_555 1_555
N1 C22 1_555 1_555
N2 C24 1_555 1_555
N3 C26 1_555 1_555
C1 C2 1_555 1_555
C2 O2 1_555 1_555
C3 O2 1_555 1_555
C4 O3 1_555 1_555
C5 O3 1_555 1_555
C6 O4 1_555 1_555
C7 O4 1_555 1_555
C8 O5 1_555 1_555
C9 O5 1_555 1_555
C10 O6 1_555 1_555
C11 O6 1_555 1_555
C12 O1 1_555 1_555
C13 C12 1_555 1_555
C14 C13 1_555 1_555
C15 C14 1_555 1_555
C16 C11 1_555 1_555
C17 C5 1_555 1_555
C18 C17 1_555 1_555
C19 C18 1_555 1_555
C20 C6 1_555 1_555
C21 O8 1_555 1_555
C22 C21 1_555 1_555
C23 C22 1_555 1_555
C24 C23 1_555 1_555
C25 C24 1_555 1_555
C26 C21 1_555 1_555
C3 C4 1_555 1_555
C5 C6 1_555 1_555
C7 C8 1_555 1_555
C9 C10 1_555 1_555
C11 C12 1_555 1_555
C15 C16 1_555 1_555
C19 C20 1_555 1_555
C25 C26 1_555 1_555

#END
