
#######################################################################
#
#                 Cambridge Crystallographic Data Centre
#                                CCDC 
#
#######################################################################
#
# If this CIF has been generated from an entry in the Cambridge 
# Structural Database, then it will include bibliographic, chemical, 
# crystal, experimental, refinement or atomic coordinate data resulting 
# from the CCDC's data processing and validation procedures.
#
#######################################################################

data_GOLCOZ
_chemical_formula_moiety         'C52 H52 N6 O26 Rb2'
_chemical_name_systematic        
bis((\m~2~-Picrato-O,O')-(dibenzo-18-crown-6)-rubidium)
_symmetry_cell_setting           orthorhombic
_symmetry_space_group_name_H-M   'P m n 21'
_symmetry_Int_Tables_number      31
_space_group_name_Hall           'P 2ac -2'
loop_
_symmetry_equiv_pos_site_id
_symmetry_equiv_pos_as_xyz
1 x,y,z
2 1/2-x,-y,1/2+z
3 -x,y,z
4 1/2+x,-y,1/2+z
_cell_length_a                   25.9701(1)
_cell_length_b                   12.0711(2)
_cell_length_c                   8.9440(1)
_cell_angle_alpha                90
_cell_angle_beta                 90
_cell_angle_gamma                90
_cell_volume                     2803.83
_exptl_crystal_colour            colorless
_exptl_crystal_description       parallelepiped
_cell_formula_units_Z            2
loop_
_atom_site_label
_atom_site_type_symbol
_atom_site_fract_x
_atom_site_fract_y
_atom_site_fract_z
Rb1 Rb -0.5000 -0.6490(1) -0.6548(1)
Rb2 Rb -0.5000 -1.0406(1) -0.6275(1)
O1 O -0.5953(1) -0.4983(3) -0.7183(4)
O2 O -0.5000 -0.4355(4) -0.8535(5)
O3 O -0.5000 -0.6355(4) -0.3030(7)
O4 O -0.5956(1) -0.5970(3) -0.4556(4)
O5 O -0.5938(1) -1.1076(3) -0.8286(4)
O6 O -0.5000 -1.0618(4) -0.9769(6)
O7 O -0.5000 -1.2600(4) -0.4188(6)
O8 O -0.5945(1) -1.2060(3) -0.5706(4)
O9 O -0.5699(1) -0.8422(3) -0.6358(5)
O10 O -0.5766(2) -0.7437(4) -0.9018(5)
O11 O -0.6487(2) -0.6796(5) -0.9730(5)
O12 O -0.8012(2) -0.7021(4) -0.6948(5)
O13 O -0.7972(2) -0.7439(4) -0.4560(4)
O14 O -0.6456(2) -0.9025(4) -0.2510(4)
O15 O -0.5883(2) -0.9728(3) -0.4008(5)
N1 N -0.6227(2) -0.7286(4) -0.8819(5)
N2 N -0.7764(2) -0.7349(3) -0.5827(5)
N3 N -0.6253(2) -0.9135(4) -0.3766(5)
C1 C -0.5916(2) -0.4286(5) -0.8503(6)
C2 C -0.5460(2) -0.4603(4) -0.9359(5)
C3 C -0.5447(2) -0.7014(4) -0.2836(6)
C4 C -0.5921(2) -0.6328(4) -0.3008(6)
C5 C -0.6390(2) -0.5383(4) -0.4919(6)
C6 C -0.6390(2) -0.4851(3) -0.6311(7)
C7 C -0.6814(2) -0.4247(4) -0.6777(6)
C8 C -0.7252(7) -0.4175(4) -0.5849(7)
C9 C -0.7259(2) -0.4732(4) -0.4507(7)
C10 C -0.6827(2) -0.5319(4) -0.4035(7)
C11 C -0.5919(2) -1.0579(5) -0.9709(6)
C12 C -0.5451(2) -1.1008(5) -1.0496(6)
C13 C -0.5456(2) -1.3268(4) -0.4223(6)
C14 C -0.5928(2) -1.2595(4) -0.4267(6)
C15 C -0.6394(2) -1.1511(3) -0.6081(6)
C16 C -0.6386(2) -1.0972(4) -0.7463(6)
C17 C -0.6814(2) -1.0383(4) -0.7947(7)
C18 C -0.7255(2) -1.0370(5) -0.7098(8)
C19 C -0.7269(2) -1.0943(5) -0.5740(7)
C20 C -0.6837(2) -1.1500(4) -0.5218(7)
C21 C -0.6162(2) -0.8221(3) -0.6289(6)
C22 C -0.6469(2) -0.7645(4) -0.7439(6)
C23 C -0.6980(2) -0.7384(4) -0.7297(5)
C24 C -0.7240(2) -0.7648(4) -0.5982(5)
C25 C -0.6988(2) -0.8188(4) -0.4811(6)
C26 C -0.6480(2) -0.8495(4) -0.4997(6)
O1B O -0.4047(1) -0.4983(3) -0.7183(4)
C1B C -0.4084(2) -0.4286(5) -0.8503(6)
C2B C -0.4540(2) -0.4603(4) -0.9359(5)
C6B C -0.3610(2) -0.4851(3) -0.6311(7)
C5B C -0.3610(2) -0.5383(4) -0.4919(6)
O4B O -0.4044(1) -0.5970(3) -0.4556(4)
O5B O -0.4062(1) -1.1076(3) -0.8286(4)
C11B C -0.4081(2) -1.0579(5) -0.9709(6)
C12B C -0.4549(2) -1.1008(5) -1.0496(6)
C16B C -0.3614(2) -1.0972(4) -0.7463(6)
C15B C -0.3606(2) -1.1511(3) -0.6081(6)
O8B O -0.4055(1) -1.2060(3) -0.5706(4)
O9B O -0.4301(1) -0.8422(3) -0.6358(5)
O15B O -0.4117(2) -0.9728(3) -0.4008(5)
N3B N -0.3747(2) -0.9135(4) -0.3766(5)
O14B O -0.3544(2) -0.9025(4) -0.2510(4)
C26B C -0.3520(2) -0.8495(4) -0.4997(6)
C21B C -0.3838(2) -0.8221(3) -0.6289(6)
C22B C -0.3531(2) -0.7645(4) -0.7439(6)
N1B N -0.3773(2) -0.7286(4) -0.8819(5)
O10B O -0.4234(2) -0.7437(4) -0.9018(5)
O11B O -0.3513(2) -0.6796(5) -0.9730(5)
C23B C -0.3020(2) -0.7384(4) -0.7297(5)
C24B C -0.2760(2) -0.7648(4) -0.5982(5)
N2B N -0.2236(2) -0.7349(3) -0.5827(5)
O12B O -0.1988(2) -0.7021(4) -0.6948(5)
O13B O -0.2028(2) -0.7439(4) -0.4560(4)
C25B C -0.3012(2) -0.8188(4) -0.4811(6)
C13B C -0.4544(2) -1.3268(4) -0.4223(6)
C14B C -0.4072(2) -1.2595(4) -0.4267(6)
C20B C -0.3163(2) -1.1500(4) -0.5218(7)
C19B C -0.2731(2) -1.0943(5) -0.5740(7)
C18B C -0.2745(2) -1.0370(5) -0.7098(8)
C17B C -0.3186(2) -1.0383(4) -0.7947(7)
C3B C -0.4553(2) -0.7014(4) -0.2836(6)
C4B C -0.4079(2) -0.6328(4) -0.3008(6)
C10B C -0.3173(2) -0.5319(4) -0.4035(7)
C9B C -0.2741(2) -0.4732(4) -0.4507(7)
C8B C -0.2748(7) -0.4175(4) -0.5849(7)
C7B C -0.3186(2) -0.4247(4) -0.6777(6)
loop_
_geom_bond_atom_site_label_1
_geom_bond_atom_site_label_2
_geom_bond_site_symmetry_1
_geom_bond_site_symmetry_2
Rb1 O1 1_555 1_555
Rb2 O5 1_555 1_555
O1 C1 1_555 1_555
O2 Rb1 1_555 1_555
O3 Rb1 1_555 1_555
O4 Rb1 1_555 1_555
O5 C11 1_555 1_555
O6 Rb2 1_555 1_555
O7 Rb2 1_555 1_555
O8 Rb2 1_555 1_555
O9 Rb1 1_555 1_555
O10 Rb1 1_555 1_555
O11 N1 1_555 1_555
O12 N2 1_555 1_555
O13 N2 1_555 1_555
O14 N3 1_555 1_555
O15 Rb2 1_555 1_555
N1 O10 1_555 1_555
N2 C24 1_555 1_555
N3 O15 1_555 1_555
C1 C2 1_555 1_555
C2 O2 1_555 1_555
C3 O3 1_555 1_555
C4 O4 1_555 1_555
C5 O4 1_555 1_555
C6 O1 1_555 1_555
C7 C6 1_555 1_555
C8 C7 1_555 1_555
C9 C8 1_555 1_555
C10 C5 1_555 1_555
C11 C12 1_555 1_555
C12 O6 1_555 1_555
C13 O7 1_555 1_555
C14 O8 1_555 1_555
C15 O8 1_555 1_555
C16 O5 1_555 1_555
C17 C16 1_555 1_555
C18 C17 1_555 1_555
C19 C18 1_555 1_555
C20 C15 1_555 1_555
C21 O9 1_555 1_555
C22 N1 1_555 1_555
C23 C22 1_555 1_555
C24 C23 1_555 1_555
C25 C24 1_555 1_555
C26 N3 1_555 1_555
O1B Rb1 1_555 1_555
C1B O1B 1_555 1_555
C2B O2 1_555 1_555
C6B O1B 1_555 1_555
C5B C6B 1_555 1_555
O4B Rb1 1_555 1_555
O5B Rb2 1_555 1_555
C11B O5B 1_555 1_555
C12B O6 1_555 1_555
C16B O5B 1_555 1_555
C15B C16B 1_555 1_555
O8B Rb2 1_555 1_555
O9B Rb1 1_555 1_555
O15B Rb2 1_555 1_555
N3B O15B 1_555 1_555
O14B N3B 1_555 1_555
C26B N3B 1_555 1_555
C21B O9B 1_555 1_555
C22B C21B 1_555 1_555
N1B C22B 1_555 1_555
O10B Rb1 1_555 1_555
O11B N1B 1_555 1_555
C23B C22B 1_555 1_555
C24B C23B 1_555 1_555
N2B C24B 1_555 1_555
O12B N2B 1_555 1_555
O13B N2B 1_555 1_555
C25B C26B 1_555 1_555
C13B O7 1_555 1_555
C14B O8B 1_555 1_555
C20B C15B 1_555 1_555
C19B C20B 1_555 1_555
C18B C19B 1_555 1_555
C17B C16B 1_555 1_555
C3B O3 1_555 1_555
C4B O4B 1_555 1_555
C10B C5B 1_555 1_555
C9B C10B 1_555 1_555
C8B C9B 1_555 1_555
C7B C6B 1_555 1_555
Rb2 O9 1_555 1_555
Rb2 O9B 1_555 1_555
C3 C4 1_555 1_555
C5 C6 1_555 1_555
C9 C10 1_555 1_555
C13 C14 1_555 1_555
C15 C16 1_555 1_555
C19 C20 1_555 1_555
C21 C22 1_555 1_555
C21 C26 1_555 1_555
C25 C26 1_555 1_555
C1B C2B 1_555 1_555
C5B O4B 1_555 1_555
C11B C12B 1_555 1_555
C15B O8B 1_555 1_555
C26B C21B 1_555 1_555
N1B O10B 1_555 1_555
C24B C25B 1_555 1_555
C13B C14B 1_555 1_555
C18B C17B 1_555 1_555
C3B C4B 1_555 1_555
C8B C7B 1_555 1_555

#END
