
#######################################################################
#
#                 Cambridge Crystallographic Data Centre
#                                CCDC 
#
#######################################################################
#
# If this CIF has been generated from an entry in the Cambridge 
# Structural Database, then it will include bibliographic, chemical, 
# crystal, experimental, refinement or atomic coordinate data resulting 
# from the CCDC's data processing and validation procedures.
#
#######################################################################

data_GOLDOB
_chemical_formula_moiety         'C18 H33 N3 O5'
_chemical_name_systematic        
't-Butyl 3-(N-(t-butoxycarbonyl)methylamino)-4-methoxyimino-3-methylpiperidine-1-carboxylate'
_symmetry_cell_setting           monoclinic
_symmetry_space_group_name_H-M   'C 2/c'
_symmetry_Int_Tables_number      15
_space_group_name_Hall           '-C 2yn'
loop_
_symmetry_equiv_pos_site_id
_symmetry_equiv_pos_as_xyz
1 x,y,z
2 1/2+x,1/2+y,z
3 -x,y,1/2-z
4 1/2-x,1/2+y,1/2-z
5 -x,-y,-z
6 1/2-x,1/2-y,-z
7 x,-y,1/2+z
8 1/2+x,1/2-y,1/2+z
_cell_length_a                   28.867(3)
_cell_length_b                   6.1887(13)
_cell_length_c                   25.379(3)
_cell_angle_alpha                90
_cell_angle_beta                 112.769(2)
_cell_angle_gamma                90
_cell_volume                     4180.62
_exptl_crystal_colour            colorless
_exptl_crystal_description       prism
_chemical_melting_point          380-382K
_cell_formula_units_Z            8
_exptl_crystal_recrystallization_method methanol/water
loop_
_atom_site_label
_atom_site_type_symbol
_atom_site_fract_x
_atom_site_fract_y
_atom_site_fract_z
N1 N 0.18007(8) 0.2543(3) 0.60235(9)
N2 N 0.07900(7) 0.1687(4) 0.51326(9)
N3 N 0.16321(7) -0.1321(4) 0.47432(9)
O1 O 0.16324(7) 0.3113(3) 0.67977(7)
O2 O 0.21149(7) 0.5507(3) 0.65653(8)
O3 O 0.07112(6) 0.1423(3) 0.42229(7)
O4 O 0.01093(7) 0.3134(3) 0.44214(8)
O5 O 0.19807(6) -0.0836(3) 0.44880(7)
C1 C 0.15544(9) 0.0442(4) 0.59370(10)
H1 H 0.1361 0.0344 0.6175
H2 H 0.1809 -0.0681 0.6057
C2 C 0.12010(9) 0.0043(4) 0.53070(10)
C3 C 0.15423(9) 0.0354(4) 0.49846(10)
C4 C 0.17891(10) 0.2510(4) 0.50509(11)
H3 H 0.1536 0.3625 0.4899
H4 H 0.2006 0.2542 0.4839
C5 C 0.20975(10) 0.2938(5) 0.56825(11)
H5 H 0.2390 0.2005 0.5813
H6 H 0.2213 0.4425 0.5732
C6 C 0.18713(10) 0.3856(5) 0.64739(11)
C7 C 0.15940(11) 0.4430(5) 0.72637(12)
C8 C 0.21026(13) 0.4764(6) 0.77309(13)
H7 H 0.2261 0.3388 0.7856
H8 H 0.2066 0.5494 0.8046
H9 H 0.2306 0.5623 0.7589
C9 C 0.13357(14) 0.6544(6) 0.70277(15)
H10 H 0.1561 0.7461 0.6934
H11 H 0.1241 0.7241 0.7309
H12 H 0.1041 0.6272 0.6690
C10 C 0.12728(14) 0.3024(6) 0.74676(14)
H13 H 0.0957 0.2762 0.7158
H14 H 0.1216 0.3738 0.7773
H15 H 0.1441 0.1674 0.7603
C11 C 0.09808(10) -0.2224(4) 0.52538(12)
H16 H 0.0769 -0.2306 0.5466
H17 H 0.1248 -0.3256 0.5403
H18 H 0.0786 -0.2537 0.4859
C12 C 0.05026(10) 0.2153(5) 0.45784(12)
C13 C 0.05602(10) 0.2229(5) 0.55381(11)
H19 H 0.0295 0.3257 0.5367
H20 H 0.0810 0.2841 0.5877
H21 H 0.0425 0.0944 0.5636
C14 C 0.04913(11) 0.1885(6) 0.36115(12)
C15 C 0.04440(16) 0.4286(7) 0.35091(17)
H22 H 0.0185 0.4844 0.3620
H23 H 0.0360 0.4573 0.3111
H24 H 0.0757 0.4972 0.3731
C16 C 0.08735(13) 0.0915(7) 0.34093(13)
H25 H 0.1198 0.1530 0.3622
H26 H 0.0779 0.1217 0.3010
H27 H 0.0887 -0.0621 0.3467
C17 C -0.00059(12) 0.0715(7) 0.33491(14)
H28 H 0.0039 -0.0778 0.3460
H29 H -0.0129 0.0822 0.2940
H30 H -0.0244 0.1360 0.3481
C18 C 0.20473(11) -0.2741(5) 0.42114(13)
H31 H 0.2217 -0.3815 0.4493
H32 H 0.2245 -0.2411 0.3992
H33 H 0.1725 -0.3283 0.3962
loop_
_geom_bond_atom_site_label_1
_geom_bond_atom_site_label_2
_geom_bond_site_symmetry_1
_geom_bond_site_symmetry_2
N1 C1 1_555 1_555
N2 C2 1_555 1_555
N3 O5 1_555 1_555
O1 C6 1_555 1_555
O2 C6 1_555 1_555
O3 C12 1_555 1_555
O4 C12 1_555 1_555
O5 C18 1_555 1_555
C1 H1 1_555 1_555
H2 C1 1_555 1_555
C2 C1 1_555 1_555
C3 N3 1_555 1_555
C4 C3 1_555 1_555
H3 C4 1_555 1_555
H4 C4 1_555 1_555
C5 N1 1_555 1_555
H5 C5 1_555 1_555
H6 C5 1_555 1_555
C6 N1 1_555 1_555
C7 O1 1_555 1_555
C8 C7 1_555 1_555
H7 C8 1_555 1_555
H8 C8 1_555 1_555
H9 C8 1_555 1_555
C9 C7 1_555 1_555
H10 C9 1_555 1_555
H11 C9 1_555 1_555
H12 C9 1_555 1_555
C10 C7 1_555 1_555
H13 C10 1_555 1_555
H14 C10 1_555 1_555
H15 C10 1_555 1_555
C11 C2 1_555 1_555
H16 C11 1_555 1_555
H17 C11 1_555 1_555
H18 C11 1_555 1_555
C12 N2 1_555 1_555
C13 N2 1_555 1_555
H19 C13 1_555 1_555
H20 C13 1_555 1_555
H21 C13 1_555 1_555
C14 O3 1_555 1_555
C15 C14 1_555 1_555
H22 C15 1_555 1_555
H23 C15 1_555 1_555
H24 C15 1_555 1_555
C16 C14 1_555 1_555
H25 C16 1_555 1_555
H26 C16 1_555 1_555
H27 C16 1_555 1_555
C17 C14 1_555 1_555
H28 C17 1_555 1_555
H29 C17 1_555 1_555
H30 C17 1_555 1_555
C18 H31 1_555 1_555
H32 C18 1_555 1_555
H33 C18 1_555 1_555
C2 C3 1_555 1_555
C4 C5 1_555 1_555

#END
