
#######################################################################
#
#                 Cambridge Crystallographic Data Centre
#                                CCDC 
#
#######################################################################
#
# If this CIF has been generated from an entry in the Cambridge 
# Structural Database, then it will include bibliographic, chemical, 
# crystal, experimental, refinement or atomic coordinate data resulting 
# from the CCDC's data processing and validation procedures.
#
#######################################################################

data_GOLDUH
_chemical_formula_moiety         'C17 H16 N2 O4 S2'
_chemical_name_systematic        
'Ethyl 3-(4-methylbenzenesulfonamido)thieno(2,3-b)pyridine-2-carboxylate'
_symmetry_cell_setting           orthorhombic
_symmetry_space_group_name_H-M   'P b c a'
_symmetry_Int_Tables_number      61
_space_group_name_Hall           '-P 2ac 2ab'
loop_
_symmetry_equiv_pos_site_id
_symmetry_equiv_pos_as_xyz
1 x,y,z
2 1/2-x,-y,1/2+z
3 1/2+x,1/2-y,-z
4 -x,1/2+y,1/2-z
5 -x,-y,-z
6 1/2+x,y,1/2-z
7 1/2-x,1/2+y,z
8 x,1/2-y,1/2+z
_cell_length_a                   14.809(4)
_cell_length_b                   11.892(3)
_cell_length_c                   19.494(5)
_cell_angle_alpha                90
_cell_angle_beta                 90
_cell_angle_gamma                90
_cell_volume                     3433.06
_exptl_crystal_colour            colorless
_exptl_crystal_description       block
_cell_formula_units_Z            8
_exptl_crystal_recrystallization_method dichloromethane/petroleum
loop_
_atom_site_label
_atom_site_type_symbol
_atom_site_fract_x
_atom_site_fract_y
_atom_site_fract_z
S1 S 0.09964(6) 0.61780(8) 0.44511(5)
S2 S -0.09888(7) 0.97224(9) 0.42142(5)
O1 O 0.14122(18) 0.6604(2) 0.38494(13)
O2 O 0.09322(18) 0.4988(2) 0.45432(15)
O3 O -0.12382(18) 0.9327(2) 0.56425(12)
O4 O -0.0664(2) 0.7593(3) 0.57213(13)
N1 N -0.0053(2) 0.6628(3) 0.44558(15)
H1 H -0.033(3) 0.642(3) 0.4875(12)
N2 N -0.0759(3) 0.9677(3) 0.28514(19)
C1 C 0.2655(4) 0.8311(6) 0.6960(4)
H2 H 0.2173 0.8723 0.7172
H3 H 0.3126 0.8821 0.6828
H4 H 0.2890 0.7769 0.7278
C2 C 0.2296(3) 0.7703(6) 0.6323(3)
C3 C 0.2462(3) 0.8165(5) 0.5677(3)
H5 H 0.2827 0.8798 0.5635
C4 C 0.2083(3) 0.7678(3) 0.5100(2)
H6 H 0.2197 0.7975 0.4668
C5 C 0.1529(2) 0.6741(3) 0.51725(19)
C6 C 0.1372(3) 0.6279(4) 0.5808(2)
H7 H 0.1006 0.5646 0.5850
C7 C 0.1755(3) 0.6751(5) 0.6376(2)
H8 H 0.1652 0.6433 0.6805
C8 C -0.0288(2) 0.7731(3) 0.42354(17)
C9 C -0.0649(2) 0.8527(3) 0.46538(18)
C10 C -0.0648(2) 0.9136(4) 0.34493(19)
C11 C -0.0285(2) 0.8071(3) 0.35295(17)
C12 C -0.0836(2) 0.8412(4) 0.53894(18)
C13 C -0.1472(3) 0.9290(3) 0.63719(18)
H9 H -0.0931 0.9208 0.6648
H10 H -0.1867 0.8657 0.6464
C14 C -0.1939(3) 1.0370(4) 0.6541(2)
H11 H -0.1538 1.0988 0.6456
H12 H -0.2112 1.0367 0.7016
H13 H -0.2468 1.0446 0.6260
C15 C -0.0523(3) 0.9075(5) 0.2299(2)
H14 H -0.0606 0.9403 0.1870
C16 C -0.0170(3) 0.8024(5) 0.2319(2)
H15 H -0.0015 0.7670 0.1910
C17 C -0.0036(2) 0.7466(4) 0.29326(19)
H16 H 0.0202 0.6743 0.2952
loop_
_geom_bond_atom_site_label_1
_geom_bond_atom_site_label_2
_geom_bond_site_symmetry_1
_geom_bond_site_symmetry_2
S1 O1 1_555 1_555
S2 C9 1_555 1_555
O2 S1 1_555 1_555
O3 C12 1_555 1_555
O4 C12 1_555 1_555
N1 S1 1_555 1_555
H1 N1 1_555 1_555
N2 C10 1_555 1_555
C1 H2 1_555 1_555
H3 C1 1_555 1_555
H4 C1 1_555 1_555
C2 C1 1_555 1_555
C3 C2 1_555 1_555
H5 C3 1_555 1_555
C4 C3 1_555 1_555
H6 C4 1_555 1_555
C5 S1 1_555 1_555
C6 C5 1_555 1_555
H7 C6 1_555 1_555
C7 C2 1_555 1_555
H8 C7 1_555 1_555
C8 N1 1_555 1_555
C9 C8 1_555 1_555
C10 S2 1_555 1_555
C11 C8 1_555 1_555
C12 C9 1_555 1_555
C13 O3 1_555 1_555
H9 C13 1_555 1_555
H10 C13 1_555 1_555
C14 C13 1_555 1_555
H11 C14 1_555 1_555
H12 C14 1_555 1_555
H13 C14 1_555 1_555
C15 N2 1_555 1_555
H14 C15 1_555 1_555
C16 C15 1_555 1_555
H15 C16 1_555 1_555
C17 C11 1_555 1_555
H16 C17 1_555 1_555
C4 C5 1_555 1_555
C6 C7 1_555 1_555
C10 C11 1_555 1_555
C16 C17 1_555 1_555

#END
