
#######################################################################
#
#                 Cambridge Crystallographic Data Centre
#                                CCDC 
#
#######################################################################
#
# If this CIF has been generated from an entry in the Cambridge 
# Structural Database, then it will include bibliographic, chemical, 
# crystal, experimental, refinement or atomic coordinate data resulting 
# from the CCDC's data processing and validation procedures.
#
#######################################################################

data_GOLFIX
_chemical_formula_moiety         'C15 H26 N4 O5'
_chemical_name_systematic        
7-Azido-N,N-diethyl-4,5-O-isopropylidene-4-C-methyl-3,6-anhydro-7-deoxy-D-glycero-D-manno-heptonamide
_symmetry_cell_setting           orthorhombic
_symmetry_space_group_name_H-M   'P 21 21 21'
_symmetry_Int_Tables_number      19
_space_group_name_Hall           'P 2ac 2ab'
loop_
_symmetry_equiv_pos_site_id
_symmetry_equiv_pos_as_xyz
1 x,y,z
2 1/2+x,1/2-y,-z
3 -x,1/2+y,1/2-z
4 1/2-x,-y,1/2+z
_cell_length_a                   8.64400(10)
_cell_length_b                   13.4195(2)
_cell_length_c                   15.9146(3)
_cell_angle_alpha                90
_cell_angle_beta                 90
_cell_angle_gamma                90
_cell_volume                     1846.06
_exptl_crystal_colour            colorless
_exptl_crystal_description       plate
_chemical_melting_point          371-373K
_cell_formula_units_Z            4
_exptl_crystal_recrystallization_method 'cyclohexane/ethyl acetate'
loop_
_atom_site_label
_atom_site_type_symbol
_atom_site_fract_x
_atom_site_fract_y
_atom_site_fract_z
O1 O 0.35653(19) 0.34433(12) 0.66423(11)
C1 C 0.3014(3) 0.24404(17) 0.66153(15)
C2 C 0.4224(3) 0.18015(18) 0.70965(16)
O2 O 0.3791(2) 0.17151(16) 0.79595(11)
C3 C 0.4967(3) 0.2129(2) 0.84827(18)
O3 O 0.5741(3) 0.28402(17) 0.79711(13)
C4 C 0.5654(3) 0.2496(2) 0.71213(16)
C5 C 0.5218(3) 0.33863(19) 0.65738(15)
C6 C 0.5726(3) 0.32292(19) 0.56645(15)
N1 N 0.5219(3) 0.40493(18) 0.51111(14)
N2 N 0.3807(3) 0.40751(17) 0.49594(14)
N3 N 0.2579(3) 0.4190(2) 0.47516(19)
C7 C 0.4212(5) 0.2678(3) 0.9201(2)
C8 C 0.6054(4) 0.1311(3) 0.8787(2)
C9 C 0.4486(3) 0.0783(2) 0.6708(2)
C10 C 0.1375(3) 0.23817(17) 0.69753(16)
O4 O 0.0763(2) 0.14313(12) 0.67786(11)
C11 C 0.0305(3) 0.31779(18) 0.65939(15)
O5 O -0.0340(2) 0.29828(14) 0.59206(12)
N4 N 0.0093(2) 0.40342(15) 0.70067(14)
C12 C -0.0987(3) 0.47788(19) 0.66655(18)
C13 C -0.0208(4) 0.5595(3) 0.6178(2)
C14 C 0.0809(3) 0.4266(2) 0.78247(16)
C15 C -0.0166(4) 0.3904(3) 0.85556(18)
H1 H 0.2943 0.2241 0.6020
H2 H 0.6551 0.2162 0.6930
H3 H 0.5759 0.3970 0.6784
H4 H 0.5284 0.2612 0.5394
H5 H 0.6863 0.3164 0.5677
H6 H 0.4998 0.2997 0.9504
H7 H 0.3617 0.2267 0.9575
H8 H 0.3543 0.3189 0.9005
H9 H 0.7116 0.1505 0.8701
H10 H 0.5918 0.1211 0.9387
H11 H 0.5851 0.0695 0.8476
H12 H 0.5319 0.0397 0.6952
H13 H 0.3501 0.0445 0.6815
H14 H 0.4686 0.0848 0.6104
H15 H 0.1438 0.2430 0.7599
H16 H -0.1602 0.4457 0.6266
H17 H -0.1637 0.5025 0.7098
H18 H -0.1025 0.5966 0.5865
H19 H 0.0567 0.5295 0.5787
H20 H 0.0279 0.6004 0.6627
H21 H 0.1785 0.3960 0.7850
H22 H 0.0915 0.4974 0.7838
H23 H 0.0323 0.4135 0.9063
H24 H -0.0188 0.3185 0.8585
H25 H -0.1201 0.4187 0.8522
H26 H 0.0318 0.1201 0.6319
loop_
_geom_bond_atom_site_label_1
_geom_bond_atom_site_label_2
_geom_bond_site_symmetry_1
_geom_bond_site_symmetry_2
O1 C1 1_555 1_555
C1 C2 1_555 1_555
C2 O2 1_555 1_555
O2 C3 1_555 1_555
C3 O3 1_555 1_555
O3 C4 1_555 1_555
C4 C2 1_555 1_555
C5 O1 1_555 1_555
C6 C5 1_555 1_555
N1 C6 1_555 1_555
N2 N1 1_555 1_555
N3 N2 1_555 1_555
C7 C3 1_555 1_555
C8 C3 1_555 1_555
C9 C2 1_555 1_555
C10 C1 1_555 1_555
O4 C10 1_555 1_555
C11 C10 1_555 1_555
O5 C11 1_555 1_555
N4 C11 1_555 1_555
C12 N4 1_555 1_555
C13 C12 1_555 1_555
C14 N4 1_555 1_555
C15 C14 1_555 1_555
H1 C1 1_555 1_555
H2 C4 1_555 1_555
H3 C5 1_555 1_555
H4 C6 1_555 1_555
H5 C6 1_555 1_555
H6 C7 1_555 1_555
H7 C7 1_555 1_555
H8 C7 1_555 1_555
H9 C8 1_555 1_555
H10 C8 1_555 1_555
H11 C8 1_555 1_555
H12 C9 1_555 1_555
H13 C9 1_555 1_555
H14 C9 1_555 1_555
H15 C10 1_555 1_555
H16 C12 1_555 1_555
H17 C12 1_555 1_555
H18 C13 1_555 1_555
H19 C13 1_555 1_555
H20 C13 1_555 1_555
H21 C14 1_555 1_555
H22 C14 1_555 1_555
H23 C15 1_555 1_555
H24 C15 1_555 1_555
H25 C15 1_555 1_555
H26 O4 1_555 1_555
C4 C5 1_555 1_555

#END
