
#######################################################################
#
#                 Cambridge Crystallographic Data Centre
#                                CCDC 
#
#######################################################################
#
# If this CIF has been generated from an entry in the Cambridge 
# Structural Database, then it will include bibliographic, chemical, 
# crystal, experimental, refinement or atomic coordinate data resulting 
# from the CCDC's data processing and validation procedures.
#
#######################################################################

data_GOLHIY
_chemical_formula_moiety         'C16 H20 O6'
_chemical_name_systematic        
(3aR*,6aR*,9aR*,9bS*)-Decahydro-8,8-dimethyl-6,9-dioxo-9a-methoxycarbonylazuleno[4,5-c]furan-1(3H)-one
_symmetry_cell_setting           monoclinic
_symmetry_space_group_name_H-M   'P 21/c'
_symmetry_Int_Tables_number      14
_space_group_name_Hall           '-P 2ybc'
loop_
_symmetry_equiv_pos_site_id
_symmetry_equiv_pos_as_xyz
1 x,y,z
2 -x,1/2+y,1/2-z
3 -x,-y,-z
4 x,1/2-y,1/2+z
_cell_length_a                   12.306(2)
_cell_length_b                   8.820(1)
_cell_length_c                   28.342(5)
_cell_angle_alpha                90
_cell_angle_beta                 96.42(1)
_cell_angle_gamma                90
_cell_volume                     3056.92
_exptl_crystal_colour            colorless
_exptl_crystal_description       plate
_cell_formula_units_Z            8
loop_
_atom_site_label
_atom_site_type_symbol
_atom_site_fract_x
_atom_site_fract_y
_atom_site_fract_z
O1 O 0.39270(36) 0.75521(52) 0.21266(14)
C1 C 0.45506(49) 0.67123(67) 0.19664(19)
O2 O 0.51366(36) 0.56857(53) 0.22388(13)
C2 C 0.58779(53) 0.48762(77) 0.19603(20)
H1 H 0.66000(53) 0.53003(77) 0.20111(20)
H2 H 0.59063(53) 0.38207(77) 0.20435(20)
C3 C 0.62065(48) 0.48812(74) 0.10878(20)
H3 H 0.68063(48) 0.55677(74) 0.11630(20)
H4 H 0.64720(48) 0.38570(74) 0.11051(20)
C4 C 0.56963(51) 0.51934(67) 0.05786(20)
H5 H 0.49878(51) 0.47268(67) 0.05294(20)
H6 H 0.61576(51) 0.47717(67) 0.03604(20)
C5 C 0.55791(52) 0.68675(70) 0.04907(18)
O3 O 0.62600(40) 0.75556(58) 0.02978(17)
C6 C 0.48950(51) 0.93996(65) 0.07652(21)
H7 H 0.56070(51) 0.94396(65) 0.09419(21)
H8 H 0.48925(51) 0.99972(65) 0.04820(21)
C7 C 0.40231(50) 1.00125(64) 0.10717(21)
C8 C 0.33860(50) 0.85813(66) 0.11654(19)
O4 O 0.24407(34) 0.85621(51) 0.12609(16)
C9 C 0.40267(40) 0.71299(56) 0.10624(17)
C10 C 0.45945(45) 0.77527(59) 0.06346(18)
H9 H 0.40894(45) 0.76449(59) 0.03529(18)
C11 C 0.48975(41) 0.66724(58) 0.14719(17)
H10 H 0.54094(41) 0.74571(58) 0.14173(17)
C12 C 0.53997(45) 0.50828(65) 0.14530(18)
H11 H 0.48797(45) 0.43145(65) 0.13426(18)
C13 C 0.31762(43) 0.58920(62) 0.09563(19)
O5 O 0.28810(31) 0.50876(49) 0.12582(14)
O6 O 0.27828(30) 0.58411(43) 0.04977(13)
C14 C 0.18951(50) 0.48000(73) 0.03646(22)
H12 H 0.16859(50) 0.48695(73) 0.00287(22)
H13 H 0.12814(50) 0.50527(73) 0.05308(22)
H14 H 0.21297(50) 0.37848(73) 0.04443(22)
C15 C 0.45265(62) 1.07070(78) 0.15410(23)
H15 H 0.50038(62) 0.99826(78) 0.17108(23)
H16 H 0.39528(62) 1.09756(78) 0.17288(23)
H17 H 0.49353(62) 1.15977(78) 0.14785(23)
C16 C 0.32648(59) 1.11486(78) 0.08027(26)
H18 H 0.36681(59) 1.20486(78) 0.07448(26)
H19 H 0.26803(59) 1.14016(78) 0.09863(26)
H20 H 0.29675(59) 1.07147(78) 0.05053(26)
O7 O 0.03674(38) 1.19833(54) 0.19072(16)
C17 C 0.05279(48) 1.06510(85) 0.19826(20)
O8 O 0.12135(34) 1.01793(54) 0.23529(15)
C18 C 0.13338(49) 0.85227(78) 0.23380(21)
H21 H 0.19774(49) 0.82468(78) 0.21953(21)
H22 H 0.13739(49) 0.81031(78) 0.26520(21)
C19 C 0.04102(51) 0.64380(69) 0.18016(21)
H23 H 0.10159(51) 0.64735(69) 0.16158(21)
H24 H 0.05491(51) 0.56899(69) 0.20469(21)
C20 C -0.06193(53) 0.59675(68) 0.14784(21)
H25 H -0.12498(53) 0.61510(68) 0.16414(21)
H26 H -0.05721(53) 0.49056(68) 0.14092(21)
C21 C -0.07423(47) 0.68290(66) 0.10225(21)
O9 O -0.04517(42) 0.62912(51) 0.06651(15)
C22 C -0.07549(52) 0.93837(67) 0.06098(20)
H27 H 0.00270(52) 0.92927(67) 0.06375(20)
H28 H -0.10572(52) 0.90736(67) 0.02978(20)
C23 C -0.10921(47) 1.10263(67) 0.07079(20)
C24 C -0.13880(44) 1.09991(64) 0.12145(19)
O10 O -0.18854(38) 1.19768(49) 0.13926(15)
C25 C -0.11107(41) 0.94218(60) 0.14388(16)
C26 C -0.12305(43) 0.84225(62) 0.09895(17)
H29 H -0.19909(43) 0.81751(62) 0.09184(17)
C27 C 0.00812(41) 0.93090(62) 0.16939(18)
H30 H 0.04413(41) 0.92112(62) 0.14119(18)
C28 C 0.03036(44) 0.79728(69) 0.20344(18)
H31 H -0.02969(44) 0.77492(69) 0.22120(18)
C29 C -0.20052(44) 0.90857(64) 0.17668(18)
O11 O -0.27975(33) 0.83558(53) 0.16321(15)
O12 O -0.17849(30) 0.96685(47) 0.21899(12)
C30 C -0.25970(51) 0.93425(86) 0.25221(21)
H32 H -0.23725(51) 0.98106(86) 0.28230(21)
H33 H -0.26514(51) 0.82661(86) 0.25637(21)
H34 H -0.32960(51) 0.97379(86) 0.23952(21)
C31 C -0.01600(60) 1.21689(77) 0.06686(25)
H35 H 0.00222(60) 1.21817(77) 0.03480(25)
H36 H 0.04713(60) 1.18792(77) 0.08792(25)
H37 H -0.03950(60) 1.31609(77) 0.07528(25)
C32 C -0.21062(61) 1.15006(83) 0.03712(23)
H38 H -0.19205(61) 1.15180(83) 0.00512(23)
H39 H -0.23399(61) 1.24921(83) 0.04566(23)
H40 H -0.26869(61) 1.07872(83) 0.03946(23)
loop_
_geom_bond_atom_site_label_1
_geom_bond_atom_site_label_2
_geom_bond_site_symmetry_1
_geom_bond_site_symmetry_2
O1 C1 1_555 1_555
C1 O2 1_555 1_555
O2 C2 1_555 1_555
C2 H1 1_555 1_555
H2 C2 1_555 1_555
C3 H3 1_555 1_555
H4 C3 1_555 1_555
C4 C3 1_555 1_555
H5 C4 1_555 1_555
H6 C4 1_555 1_555
C5 C4 1_555 1_555
O3 C5 1_555 1_555
C6 H7 1_555 1_555
H8 C6 1_555 1_555
C7 C6 1_555 1_555
C8 C7 1_555 1_555
O4 C8 1_555 1_555
C9 C8 1_555 1_555
C10 C5 1_555 1_555
H9 C10 1_555 1_555
C11 C1 1_555 1_555
H10 C11 1_555 1_555
C12 C2 1_555 1_555
H11 C12 1_555 1_555
C13 C9 1_555 1_555
O5 C13 1_555 1_555
O6 C13 1_555 1_555
C14 O6 1_555 1_555
H12 C14 1_555 1_555
H13 C14 1_555 1_555
H14 C14 1_555 1_555
C15 C7 1_555 1_555
H15 C15 1_555 1_555
H16 C15 1_555 1_555
H17 C15 1_555 1_555
C16 C7 1_555 1_555
H18 C16 1_555 1_555
H19 C16 1_555 1_555
H20 C16 1_555 1_555
O7 C17 1_555 1_555
C17 O8 1_555 1_555
O8 C18 1_555 1_555
C18 H21 1_555 1_555
H22 C18 1_555 1_555
C19 H23 1_555 1_555
H24 C19 1_555 1_555
C20 C19 1_555 1_555
H25 C20 1_555 1_555
H26 C20 1_555 1_555
C21 C20 1_555 1_555
O9 C21 1_555 1_555
C22 H27 1_555 1_555
H28 C22 1_555 1_555
C23 C22 1_555 1_555
C24 C23 1_555 1_555
O10 C24 1_555 1_555
C25 C24 1_555 1_555
C26 C21 1_555 1_555
H29 C26 1_555 1_555
C27 C17 1_555 1_555
H30 C27 1_555 1_555
C28 C18 1_555 1_555
H31 C28 1_555 1_555
C29 C25 1_555 1_555
O11 C29 1_555 1_555
O12 C29 1_555 1_555
C30 O12 1_555 1_555
H32 C30 1_555 1_555
H33 C30 1_555 1_555
H34 C30 1_555 1_555
C31 C23 1_555 1_555
H35 C31 1_555 1_555
H36 C31 1_555 1_555
H37 C31 1_555 1_555
C32 C23 1_555 1_555
H38 C32 1_555 1_555
H39 C32 1_555 1_555
H40 C32 1_555 1_555
C3 C12 1_555 1_555
C6 C10 1_555 1_555
C9 C10 1_555 1_555
C9 C11 1_555 1_555
C11 C12 1_555 1_555
C19 C28 1_555 1_555
C22 C26 1_555 1_555
C25 C26 1_555 1_555
C25 C27 1_555 1_555
C27 C28 1_555 1_555

#END
