
#######################################################################
#
#                 Cambridge Crystallographic Data Centre
#                                CCDC 
#
#######################################################################
#
# If this CIF has been generated from an entry in the Cambridge 
# Structural Database, then it will include bibliographic, chemical, 
# crystal, experimental, refinement or atomic coordinate data resulting 
# from the CCDC's data processing and validation procedures.
#
#######################################################################

data_GOLWOU
_chemical_formula_moiety         'C11 H8 N2 O1'
_chemical_name_systematic        2-(1H-indol-3-ylcarbonyl)acetonitrile
_symmetry_cell_setting           triclinic
_symmetry_space_group_name_H-M   'P -1'
_symmetry_Int_Tables_number      2
_space_group_name_Hall           '-P 1'
loop_
_symmetry_equiv_pos_site_id
_symmetry_equiv_pos_as_xyz
1 x,y,z
2 -x,-y,-z
_cell_length_a                   7.3439(2)
_cell_length_b                   7.3534(2)
_cell_length_c                   18.2475(5)
_cell_angle_alpha                83.402(2)
_cell_angle_beta                 78.890(2)
_cell_angle_gamma                73.5010(10)
_cell_volume                     925.233
_exptl_crystal_colour            colorless
_exptl_crystal_description       block
_cell_formula_units_Z            4
_exptl_crystal_recrystallization_method methanol
loop_
_atom_site_label
_atom_site_type_symbol
_atom_site_fract_x
_atom_site_fract_y
_atom_site_fract_z
O1 O 0.13478(16) 0.2464(2) 1.01403(7)
N1 N 0.7573(2) 0.2397(2) 1.00692(9)
H1 H 0.8678 0.2314 1.0183
C1 C 0.6023(2) 0.2202(2) 1.05570(11)
H3 H 0.5977 0.1956 1.1071
C3 C 0.4501(2) 0.2418(2) 1.01850(9)
C5 C 0.5195(2) 0.2786(2) 0.94094(9)
C8 C 0.4391(2) 0.3141(2) 0.87583(10)
H6 H 0.3107 0.3175 0.8777
C10 C 0.5521(3) 0.3437(3) 0.80899(11)
H8 H 0.4991 0.3687 0.7653
C12 C 0.7456(3) 0.3370(3) 0.80531(13)
H10 H 0.8195 0.3559 0.7591
C14 C 0.8287(3) 0.3032(3) 0.86844(13)
H12 H 0.9574 0.2993 0.8660
C15 C 0.7140(2) 0.2751(2) 0.93550(11)
C17 C 0.2612(2) 0.2273(2) 1.05110(9)
C20 C 0.2210(2) 0.1842(3) 1.13506(9)
H15 H 0.3072 0.0628 1.1480
H16 H 0.2474 0.2809 1.1602
C21 C 0.0245(3) 0.1779(3) 1.16141(9)
N3 N -0.1297(3) 0.1725(3) 1.18193(9)
O2 O 0.76317(17) 0.33368(14) 0.47980(6)
N2 N 0.77718(19) -0.28849(17) 0.48288(7)
H2 H 0.7932 -0.4024 0.4709
C2 C 0.8188(2) -0.1468(2) 0.43593(9)
H4 H 0.8689 -0.1567 0.3853
C4 C 0.7768(2) 0.01550(19) 0.47349(8)
C6 C 0.7012(2) -0.03211(19) 0.54959(8)
C7 C 0.6267(2) 0.0675(2) 0.61400(9)
H5 H 0.6214 0.1956 0.6133
C9 C 0.5613(3) -0.0269(2) 0.67853(9)
H7 H 0.5098 0.0389 0.7216
C11 C 0.5702(3) -0.2187(2) 0.68090(10)
H9 H 0.5269 -0.2792 0.7257
C13 C 0.6417(2) -0.3200(2) 0.61849(10)
H11 H 0.6475 -0.4483 0.6199
C16 C 0.7049(2) -0.2241(2) 0.55332(8)
C18 C 0.8024(2) 0.19645(19) 0.44251(8)
C19 C 0.8851(2) 0.2118(2) 0.35992(8)
H13 H 1.0210 0.1451 0.3524
H14 H 0.8214 0.1505 0.3322
C22 C 0.8620(2) 0.4067(2) 0.33086(9)
N4 N 0.8429(3) 0.5597(2) 0.30820(9)
loop_
_geom_bond_atom_site_label_1
_geom_bond_atom_site_label_2
_geom_bond_site_symmetry_1
_geom_bond_site_symmetry_2
O1 C17 1_555 1_555
O2 C18 1_555 1_555
N1 H1 1_555 1_555
N2 H2 1_555 1_555
C1 N1 1_555 1_555
H3 C1 1_555 1_555
C2 N2 1_555 1_555
H4 C2 1_555 1_555
C3 C1 1_555 1_555
C4 C2 1_555 1_555
C5 C3 1_555 1_555
C6 C4 1_555 1_555
C7 C6 1_555 1_555
H5 C7 1_555 1_555
C8 C5 1_555 1_555
H6 C8 1_555 1_555
C9 C7 1_555 1_555
H7 C9 1_555 1_555
C10 C8 1_555 1_555
H8 C10 1_555 1_555
C11 C9 1_555 1_555
H9 C11 1_555 1_555
C12 C10 1_555 1_555
H10 C12 1_555 1_555
C13 C11 1_555 1_555
H11 C13 1_555 1_555
C14 C12 1_555 1_555
H12 C14 1_555 1_555
C15 N1 1_555 1_555
C16 N2 1_555 1_555
C17 C3 1_555 1_555
C18 C4 1_555 1_555
C19 C18 1_555 1_555
H13 C19 1_555 1_555
H14 C19 1_555 1_555
C20 C17 1_555 1_555
H15 C20 1_555 1_555
H16 C20 1_555 1_555
C21 C20 1_555 1_555
C22 C19 1_555 1_555
N3 C21 1_555 1_555
N4 C22 1_555 1_555
C5 C15 1_555 1_555
C6 C16 1_555 1_555
C13 C16 1_555 1_555
C14 C15 1_555 1_555

#END
