
#######################################################################
#
#                 Cambridge Crystallographic Data Centre
#                                CCDC 
#
#######################################################################
#
# If this CIF has been generated from an entry in the Cambridge 
# Structural Database, then it will include bibliographic, chemical, 
# crystal, experimental, refinement or atomic coordinate data resulting 
# from the CCDC's data processing and validation procedures.
#
#######################################################################

data_GOMBUG
_chemical_formula_moiety         'C17 H16 N4 O1 S1'
_chemical_name_systematic        
(E)-4-(Benzylideneamino)-3-(2-ethoxyphenyl)-1H-1,2,4-triazole-5(4H)-thione
_symmetry_cell_setting           monoclinic
_symmetry_space_group_name_H-M   'P 21/c'
_symmetry_Int_Tables_number      14
_space_group_name_Hall           '-P 2ybc'
loop_
_symmetry_equiv_pos_site_id
_symmetry_equiv_pos_as_xyz
1 x,y,z
2 -x,1/2+y,1/2-z
3 -x,-y,-z
4 x,1/2-y,1/2+z
_cell_length_a                   7.9578(9)
_cell_length_b                   15.4656(18)
_cell_length_c                   13.9638(16)
_cell_angle_alpha                90
_cell_angle_beta                 92.177(2)
_cell_angle_gamma                90
_cell_volume                     1717.31
_exptl_crystal_colour            colorless
_exptl_crystal_description       Block
_cell_formula_units_Z            4
_exptl_crystal_recrystallization_method ethanol
loop_
_atom_site_label
_atom_site_type_symbol
_atom_site_fract_x
_atom_site_fract_y
_atom_site_fract_z
S1 S 0.74798(9) 1.06013(5) 0.94862(5)
N1 N 0.5530(3) 0.92179(14) 0.89869(15)
N2 N 0.7577(2) 0.93453(13) 0.80832(13)
N3 N 0.8835(3) 0.96525(15) 0.74974(14)
N4 N 0.5336(3) 0.85585(14) 0.83366(15)
C1 C 0.6598(3) 0.86547(16) 0.77883(16)
C2 C 0.6998(3) 0.81219(16) 0.69570(17)
C3 C 0.8555(3) 0.77163(17) 0.69256(19)
C4 C 0.5849(4) 0.8037(2) 0.6192(2)
H1 H 0.4790 0.8287 0.6222
C5 C 0.8983(4) 0.7280(2) 0.6098(2)
H2 H 1.0038 0.7027 0.6059
C6 C 0.6276(5) 0.7583(2) 0.5387(2)
H3 H 0.5502 0.7520 0.4876
C7 C 1.1115(4) 0.7341(2) 0.7793(3)
H4 H 1.1915 0.7647 0.7410
H5 H 1.1004 0.6755 0.7550
C8 C 0.7839(5) 0.7227(2) 0.5343(2)
H6 H 0.8135 0.6942 0.4788
C9 C 1.1702(5) 0.7329(3) 0.8804(3)
H7 H 1.1697 0.7907 0.9055
H8 H 1.2824 0.7101 0.8853
H9 H 1.0968 0.6972 0.9165
O1 O 0.9524(2) 0.77683(13) 0.77407(14)
C10 C 0.6866(3) 0.97172(16) 0.88648(16)
C11 C 1.0182(3) 0.98921(17) 0.79048(18)
H10 H 1.0300 0.9891 0.8570
C12 C 1.1574(3) 1.01759(18) 0.73201(19)
C13 C 1.2988(4) 1.0540(2) 0.7750(2)
H11 H 1.3048 1.0620 0.8411
C14 C 1.4324(4) 1.0789(2) 0.7204(3)
H12 H 1.5277 1.1037 0.7495
C15 C 1.1503(4) 1.0062(3) 0.6336(2)
H13 H 1.0554 0.9817 0.6036
C16 C 1.4230(5) 1.0669(3) 0.6238(3)
H14 H 1.5127 1.0834 0.5870
C17 C 1.2838(5) 1.0311(4) 0.5803(3)
H15 H 1.2789 1.0235 0.5142
H16 H 0.481(4) 0.929(2) 0.941(2)
loop_
_geom_bond_atom_site_label_1
_geom_bond_atom_site_label_2
_geom_bond_site_symmetry_1
_geom_bond_site_symmetry_2
S1 C10 1_555 1_555
N1 N4 1_555 1_555
N2 N3 1_555 1_555
N3 C11 1_555 1_555
N4 C1 1_555 1_555
C1 N2 1_555 1_555
C2 C1 1_555 1_555
C3 C2 1_555 1_555
C4 C2 1_555 1_555
H1 C4 1_555 1_555
C5 C3 1_555 1_555
H2 C5 1_555 1_555
C6 C4 1_555 1_555
H3 C6 1_555 1_555
C7 H4 1_555 1_555
H5 C7 1_555 1_555
C8 C5 1_555 1_555
H6 C8 1_555 1_555
C9 C7 1_555 1_555
H7 C9 1_555 1_555
H8 C9 1_555 1_555
H9 C9 1_555 1_555
O1 C3 1_555 1_555
C10 N1 1_555 1_555
C11 H10 1_555 1_555
C12 C11 1_555 1_555
C13 C12 1_555 1_555
H11 C13 1_555 1_555
C14 C13 1_555 1_555
H12 C14 1_555 1_555
C15 C12 1_555 1_555
H13 C15 1_555 1_555
C16 C14 1_555 1_555
H14 C16 1_555 1_555
C17 C15 1_555 1_555
H15 C17 1_555 1_555
H16 N1 1_555 1_555
N2 C10 1_555 1_555
C6 C8 1_555 1_555
C7 O1 1_555 1_555
C16 C17 1_555 1_555

#END
