
#######################################################################
#
#                 Cambridge Crystallographic Data Centre
#                                CCDC 
#
#######################################################################
#
# If this CIF has been generated from an entry in the Cambridge 
# Structural Database, then it will include bibliographic, chemical, 
# crystal, experimental, refinement or atomic coordinate data resulting 
# from the CCDC's data processing and validation procedures.
#
#######################################################################

data_GOMDIV
_chemical_formula_moiety         
'0.5(C34 H34 Cs1 N3 O15),0.5(C35 H38 Cs1 N3 O16)'
_chemical_name_systematic        
"(Tribenzo-24-crown-8)-(picrato-O,O')-cesium (tribenzo-24-crown-8)-(methanol)-(picrato-O,O')-cesium"
_symmetry_cell_setting           triclinic
_symmetry_space_group_name_H-M   'P -1'
_symmetry_Int_Tables_number      2
_space_group_name_Hall           '-P 1'
loop_
_symmetry_equiv_pos_site_id
_symmetry_equiv_pos_as_xyz
1 x,y,z
2 -x,-y,-z
_cell_length_a                   13.2377(6)
_cell_length_b                   16.6041(7)
_cell_length_c                   18.4215(8)
_cell_angle_alpha                104.519(1)
_cell_angle_beta                 102.029(1)
_cell_angle_gamma                100.466(2)
_cell_volume                     3714.85
_exptl_crystal_colour            yellow
_cell_formula_units_Z            4
loop_
_atom_site_label
_atom_site_type_symbol
_atom_site_fract_x
_atom_site_fract_y
_atom_site_fract_z
Cs1 Cs 0.1202(1) 0.5739(1) 0.2666(1)
O11 O 0.1666(5) 0.7703(3) 0.2545(3)
O12 O 0.2027(4) 0.6412(4) 0.1346(3)
O13 O 0.1011(5) 0.4825(4) 0.0889(3)
O14 O -0.0720(4) 0.4149(3) 0.1384(3)
O15 O -0.0707(5) 0.4101(4) 0.2777(3)
O16 O 0.1191(10) 0.5008(7) 0.4118(7)
O17 O 0.2408(14) 0.6341(11) 0.4446(11)
O20 O 0.1776(7) 0.7651(5) 0.3915(4)
O28 O -0.0652(5) 0.6260(4) 0.2963(4)
O29 O -0.0567(5) 0.6225(4) 0.1512(4)
O30 O -0.1192(5) 0.7211(4) 0.1126(4)
O31 O -0.4362(6) 0.7807(5) 0.1725(5)
O32 O -0.4787(7) 0.7561(6) 0.2742(5)
O33 O -0.2936(7) 0.5924(5) 0.4078(4)
O34 O -0.1219(8) 0.6262(6) 0.4260(5)
N4 N -0.1139(7) 0.6740(5) 0.1545(4)
N5 N -0.4209(8) 0.7548(6) 0.2302(7)
N6 N -0.2127(9) 0.6227(6) 0.3906(5)
C33 C 0.1734(7) 0.7796(5) 0.1795(5)
C34 C 0.2509(7) 0.7305(5) 0.1542(5)
C35 C 0.2571(7) 0.5838(6) 0.1053(4)
C36 C 0.2051(7) 0.4978(6) 0.0802(4)
C37 C 0.0313(6) 0.4006(5) 0.0475(5)
C38 C -0.0773(7) 0.4072(6) 0.0576(4)
C39 C -0.1651(7) 0.4224(5) 0.1594(5)
C40 C -0.1631(7) 0.4202(5) 0.2357(5)
C41 C -0.0628(8) 0.4168(6) 0.3569(5)
C42 C 0.0468(8) 0.4138(6) 0.3959(5)
C43 C 0.2194(9) 0.5119(8) 0.4602(7)
C44 C 0.2967(19) 0.5639(14) 0.4453(14)
C45 C 0.2451(18) 0.7034(14) 0.4900(13)
C46 C 0.1493(14) 0.7397(11) 0.4639(10)
C50 C 0.1141(9) 0.8130(7) 0.3670(6)
C51 C 0.1095(7) 0.8179(5) 0.2929(5)
C52 C 0.0496(8) 0.8657(6) 0.2639(6)
C53 C -0.0071(9) 0.9097(7) 0.3069(8)
C54 C -0.0056(12) 0.9043(9) 0.3804(8)
C55 C 0.0570(13) 0.8558(9) 0.4092(8)
C56 C 0.3620(7) 0.6065(6) 0.0994(5)
C57 C 0.4086(7) 0.5426(7) 0.0681(5)
C58 C 0.3557(8) 0.4574(7) 0.0433(5)
C59 C 0.2520(7) 0.4349(5) 0.0486(5)
C60 C -0.2550(7) 0.4334(5) 0.1127(5)
C61 C -0.3429(7) 0.4419(5) 0.1408(6)
C62 C -0.3403(8) 0.4373(6) 0.2154(7)
C63 C -0.2514(8) 0.4278(6) 0.2628(6)
C70 C -0.1482(8) 0.6511(6) 0.2779(6)
C71 C -0.1803(7) 0.6790(5) 0.2081(5)
C72 C -0.2650(7) 0.7116(5) 0.1950(5)
C73 C -0.3306(8) 0.7168(6) 0.2434(6)
C74 C -0.3165(8) 0.6838(6) 0.3058(6)
C75 C -0.2257(8) 0.6544(6) 0.3232(5)
Cs2 Cs 0.2281(1) 0.0918(1) 0.2605(1)
O1 O 0.3183(5) 0.2976(4) 0.3869(4)
O2 O 0.3198(2) 0.1489(9) 0.4433(8)
O3 O 0.3889(11) 0.0205(8) 0.3873(9)
O6 O 0.3691(6) -0.0404(5) 0.2159(5)
O7 O 0.2098(6) -0.0631(4) 0.0935(4)
O8 O 0.0177(6) -0.0164(4) 0.1031(4)
O9 O 0.0046(5) 0.1305(4) 0.1826(4)
O10 O 0.1702(5) 0.2815(4) 0.2671(4)
O21 O 0.4171(6) 0.2048(5) 0.2485(4)
O22 O 0.2554(6) 0.1694(5) 0.1194(5)
O23 O 0.2992(7) 0.2515(6) 0.0501(6)
O24 O 0.6265(6) 0.2323(4) -0.0187(4)
O25 O 0.7592(6) 0.2247(4) 0.0645(4)
O26 O 0.7331(8) 0.2193(7) 0.3150(5)
O27 O 0.5869(9) 0.1667(8) 0.3288(6)
O35 O 0.0871(13) 0.1772(10) 0.3771(9)
N1 N 0.3182(9) 0.2119(6) 0.0947(7)
N2 N 0.6662(8) 0.2261(5) 0.0443(5)
N3 N 0.6363(10) 0.2013(7) 0.2934(6)
C1 C 0.3999(9) 0.3021(7) 0.4533(6)
C2 C 0.3611(10) 0.2428(7) 0.4931(6)
C3 C 0.3292(10) 0.0961(7) 0.4812(7)
C4 C 0.3500(9) 0.0172(8) 0.4474(7)
C5 C 0.4067(9) -0.0635(7) 0.3423(7)
C6 C 0.4515(9) -0.0439(7) 0.2788(7)
C7 C 0.3933(9) -0.0384(7) 0.1456(7)
C8 C 0.3121(10) -0.0341(7) 0.0893(6)
C9 C 0.1237(10) -0.0709(6) 0.0277(5)
C10 C 0.0204(9) -0.0915(7) 0.0477(7)
C11 C -0.0750(9) -0.0161(7) 0.1278(6)
C12 C -0.0765(8) 0.0640(7) 0.1743(6)
C13 C -0.0120(8) 0.2141(6) 0.2079(5)
C14 C 0.0805(8) 0.2756(6) 0.2037(6)
C15 C 0.2604(9) 0.3453(6) 0.2814(6)
C16 C 0.3417(9) 0.3534(7) 0.3465(6)
C17 C 0.4325(9) 0.4173(7) 0.3656(6)
C18 C 0.4487(10) 0.4704(7) 0.3210(8)
C19 C 0.3687(11) 0.4601(8) 0.2541(7)
C20 C 0.2743(9) 0.3957(7) 0.2339(6)
C21 C 0.2959(14) 0.1003(15) 0.5567(10)
C22 C 0.2587(17) 0.0385(15) 0.5936(13)
C23 C 0.3079(14) -0.0335(14) 0.5582(11)
C24 C 0.3379(13) -0.0477(10) 0.4885(13)
C29 C -0.1558(10) -0.0901(7) 0.1103(7)
C30 C -0.2405(11) -0.0792(11) 0.1435(10)
C31 C -0.2436(12) -0.0039(12) 0.1907(10)
C32 C -0.1623(10) 0.0696(8) 0.2049(7)
C64 C 0.4697(9) 0.2075(6) 0.2019(6)
C65 C 0.4318(8) 0.2116(5) 0.1229(6)
C66 C 0.4933(7) 0.2210(5) 0.0730(5)
C67 C 0.6011(8) 0.2215(6) 0.0964(5)
C68 C 0.6429(7) 0.2146(5) 0.1684(6)
C69 C 0.5837(9) 0.2073(6) 0.2191(5)
C76 C 0.0226(23) 0.1777(14) 0.4203(11)
O4? O 0.3679(11) 0.1652(8) 0.4512(7)
O5? O 0.3532(10) -0.0015(7) 0.3667(7)
O18? O 0.1205(11) 0.4678(8) 0.3838(7)
O19? O 0.2864(11) 0.6471(8) 0.4412(8)
C25? C 0.4872(15) -0.0168(10) 0.1349(11)
C26? C 0.5041(17) -0.0025(12) 0.0657(13)
C27? C 0.4243(15) -0.0060(11) 0.0051(11)
C28? C 0.3232(17) -0.0231(10) 0.0126(11)
C47? C 0.2671(23) 0.6066(17) 0.5041(16)
C48? C 0.3299(21) 0.7383(15) 0.4770(16)
C49? C 0.2298(24) 0.7810(18) 0.4709(17)
loop_
_geom_bond_atom_site_label_1
_geom_bond_atom_site_label_2
_geom_bond_site_symmetry_1
_geom_bond_site_symmetry_2
Cs1 O11 1_555 1_555
Cs2 O1 1_555 1_555
O1 C1 1_555 1_555
O2 Cs2 1_555 1_555
O3 Cs2 1_555 1_555
O6 Cs2 1_555 1_555
O7 Cs2 1_555 1_555
O8 Cs2 1_555 1_555
O9 Cs2 1_555 1_555
O10 Cs2 1_555 1_555
O11 C33 1_555 1_555
O12 Cs1 1_555 1_555
O13 Cs1 1_555 1_555
O14 Cs1 1_555 1_555
O15 Cs1 1_555 1_555
O16 Cs1 1_555 1_555
O17 Cs1 1_555 1_555
O20 Cs1 1_555 1_555
O21 Cs2 1_555 1_555
O22 Cs2 1_555 1_555
O23 N1 1_555 1_555
O24 N2 1_555 1_555
O25 N2 1_555 1_555
O26 N3 1_555 1_555
O27 N3 1_555 1_555
O28 Cs1 1_555 1_555
O29 Cs1 1_555 1_555
O30 N4 1_555 1_555
O31 N5 1_555 1_555
O32 N5 1_555 1_555
O33 N6 1_555 1_555
O34 N6 1_555 1_555
O35 Cs2 1_555 1_555
N1 O22 1_555 1_555
N2 C67 1_555 1_555
N3 C69 1_555 1_555
N4 O29 1_555 1_555
N5 C73 1_555 1_555
N6 C75 1_555 1_555
C1 C2 1_555 1_555
C2 O2 1_555 1_555
C3 O2 1_555 1_555
C4 O3 1_555 1_555
C5 O3 1_555 1_555
C6 O6 1_555 1_555
C7 O6 1_555 1_555
C8 O7 1_555 1_555
C9 O7 1_555 1_555
C10 O8 1_555 1_555
C11 O8 1_555 1_555
C12 O9 1_555 1_555
C13 O9 1_555 1_555
C14 O10 1_555 1_555
C15 O10 1_555 1_555
C16 O1 1_555 1_555
C17 C16 1_555 1_555
C18 C17 1_555 1_555
C19 C18 1_555 1_555
C20 C15 1_555 1_555
C21 C3 1_555 1_555
C22 C21 1_555 1_555
C23 C22 1_555 1_555
C24 C4 1_555 1_555
C29 C11 1_555 1_555
C30 C29 1_555 1_555
C31 C30 1_555 1_555
C32 C12 1_555 1_555
C33 C34 1_555 1_555
C34 O12 1_555 1_555
C35 O12 1_555 1_555
C36 O13 1_555 1_555
C37 O13 1_555 1_555
C38 O14 1_555 1_555
C39 O14 1_555 1_555
C40 O15 1_555 1_555
C41 O15 1_555 1_555
C42 O16 1_555 1_555
C43 O16 1_555 1_555
C44 O17 1_555 1_555
C45 O17 1_555 1_555
C46 O20 1_555 1_555
C50 O20 1_555 1_555
C51 O11 1_555 1_555
C52 C51 1_555 1_555
C53 C52 1_555 1_555
C54 C53 1_555 1_555
C55 C50 1_555 1_555
C56 C35 1_555 1_555
C57 C56 1_555 1_555
C58 C57 1_555 1_555
C59 C36 1_555 1_555
C60 C39 1_555 1_555
C61 C60 1_555 1_555
C62 C61 1_555 1_555
C63 C40 1_555 1_555
C64 O21 1_555 1_555
C65 N1 1_555 1_555
C66 C65 1_555 1_555
C67 C66 1_555 1_555
C68 C67 1_555 1_555
C69 C64 1_555 1_555
C70 O28 1_555 1_555
C71 N4 1_555 1_555
C72 C71 1_555 1_555
C73 C72 1_555 1_555
C74 C73 1_555 1_555
C75 C70 1_555 1_555
C76 O35 1_555 1_555
C3 C4 1_555 1_555
C5 C6 1_555 1_555
C7 C8 1_555 1_555
C9 C10 1_555 1_555
C11 C12 1_555 1_555
C13 C14 1_555 1_555
C15 C16 1_555 1_555
C19 C20 1_555 1_555
C23 C24 1_555 1_555
C31 C32 1_555 1_555
C35 C36 1_555 1_555
C37 C38 1_555 1_555
C39 C40 1_555 1_555
C41 C42 1_555 1_555
C43 C44 1_555 1_555
C45 C46 1_555 1_555
C50 C51 1_555 1_555
C54 C55 1_555 1_555
C58 C59 1_555 1_555
C62 C63 1_555 1_555
C64 C65 1_555 1_555
C68 C69 1_555 1_555
C70 C71 1_555 1_555
C74 C75 1_555 1_555

#END
