
#######################################################################
#
#                 Cambridge Crystallographic Data Centre
#                                CCDC 
#
#######################################################################
#
# If this CIF has been generated from an entry in the Cambridge 
# Structural Database, then it will include bibliographic, chemical, 
# crystal, experimental, refinement or atomic coordinate data resulting 
# from the CCDC's data processing and validation procedures.
#
#######################################################################

data_GOMGIZ
_chemical_formula_moiety         'C24 H21 N7 O5 S1'
_chemical_name_systematic        
(E)-N-(4-(Dimethylamino)benzylidene)-3-(2,4-dinitrophenylthio)-5-(4-methoxyphenyl)-4H-1,2,4-triazol-4-amine
_symmetry_cell_setting           triclinic
_symmetry_space_group_name_H-M   'P -1'
_symmetry_Int_Tables_number      2
_space_group_name_Hall           '-P 1'
loop_
_symmetry_equiv_pos_site_id
_symmetry_equiv_pos_as_xyz
1 x,y,z
2 -x,-y,-z
_cell_length_a                   8.695(2)
_cell_length_b                   10.724(3)
_cell_length_c                   13.053(3)
_cell_angle_alpha                77.489(4)
_cell_angle_beta                 89.409(4)
_cell_angle_gamma                88.171(4)
_cell_volume                     1187.62
_exptl_crystal_colour            colorless
_exptl_crystal_description       block
_cell_formula_units_Z            2
_exptl_crystal_recrystallization_method pyridine
loop_
_atom_site_label
_atom_site_type_symbol
_atom_site_fract_x
_atom_site_fract_y
_atom_site_fract_z
S1 S 1.05960(13) 0.16244(11) 0.14786(9)
O1 O 1.2025(4) 0.1027(3) 0.8663(3)
O2 O 1.4496(5) 0.7007(4) 0.0264(3)
O3 O 1.3406(5) 0.7110(3) -0.1220(3)
O4 O 1.0084(5) 0.3850(4) -0.1677(3)
O5 O 0.9412(4) 0.2381(3) -0.0387(3)
N1 N 1.2919(4) 0.0240(3) 0.3991(3)
N2 N 1.2633(4) 0.0375(3) 0.2946(3)
N3 N 1.0991(3) 0.1606(3) 0.3586(3)
N4 N 0.9938(4) 0.2643(3) 0.3619(3)
N5 N 0.3473(4) 0.5755(3) 0.3654(3)
N6 N 1.0203(5) 0.3279(4) -0.0773(3)
N7 N 1.3672(5) 0.6584(4) -0.0317(4)
C1 C 1.3289(7) 0.0453(6) 0.9305(4)
H1 H 1.3516 -0.0385 0.9183
H2 H 1.3026 0.0388 1.0031
H3 H 1.4176 0.0971 0.9134
C2 C 1.2086(5) 0.1033(4) 0.7621(4)
C3 C 1.3367(4) 0.0684(4) 0.7101(4)
H4 H 1.4273 0.0414 0.7466
C4 C 1.3293(4) 0.0737(3) 0.6045(3)
H5 H 1.4169 0.0520 0.5699
C5 C 1.1951(4) 0.1105(3) 0.5470(3)
C6 C 1.0674(4) 0.1455(4) 0.6012(3)
H6 H 0.9761 0.1715 0.5653
C7 C 1.0746(5) 0.1421(4) 0.7064(4)
H7 H 0.9882 0.1661 0.7410
C8 C 1.1946(4) 0.0998(3) 0.4373(3)
C9 C 1.1482(4) 0.1201(4) 0.2709(3)
C10 C 0.8540(4) 0.2350(3) 0.3619(3)
H8 H 0.8317 0.1510 0.3612
C11 C 0.7270(4) 0.3250(3) 0.3631(3)
C12 C 0.7440(4) 0.4568(3) 0.3425(3)
H9 H 0.8416 0.4896 0.3284
C13 C 0.6213(4) 0.5390(3) 0.3425(3)
H10 H 0.6367 0.6265 0.3262
C14 C 0.4711(4) 0.4945(3) 0.3665(3)
C15 C 0.4563(4) 0.3618(4) 0.3893(3)
H11 H 0.3600 0.3281 0.4075
C16 C 0.5793(4) 0.2805(4) 0.3857(3)
H12 H 0.5639 0.1930 0.3987
C17 C 0.3601(5) 0.7123(4) 0.3320(5)
H13 H 0.4390 0.7406 0.3719
H14 H 0.2637 0.7535 0.3433
H15 H 0.3862 0.7338 0.2588
C18 C 0.1947(5) 0.5284(4) 0.3925(4)
H16 H 0.1569 0.4910 0.3376
H17 H 0.1270 0.5979 0.4011
H18 H 0.1992 0.4650 0.4569
C19 C 1.1546(5) 0.3055(4) 0.0929(3)
C20 C 1.2586(5) 0.3585(4) 0.1517(3)
H19 H 1.2818 0.3154 0.2198
C21 C 1.3268(5) 0.4719(4) 0.1115(4)
H20 H 1.3939 0.5061 0.1524
C22 C 1.2956(5) 0.5349(4) 0.0105(4)
C23 C 1.1999(5) 0.4862(4) -0.0524(3)
H21 H 1.1828 0.5279 -0.1217
C24 C 1.1296(5) 0.3731(4) -0.0097(3)
loop_
_geom_bond_atom_site_label_1
_geom_bond_atom_site_label_2
_geom_bond_site_symmetry_1
_geom_bond_site_symmetry_2
S1 C9 1_555 1_555
O1 C1 1_555 1_555
O2 N7 1_555 1_555
O3 N7 1_555 1_555
O4 N6 1_555 1_555
O5 N6 1_555 1_555
N1 N2 1_555 1_555
N2 C9 1_555 1_555
N3 N4 1_555 1_555
N4 C10 1_555 1_555
N5 C14 1_555 1_555
N6 C24 1_555 1_555
N7 C22 1_555 1_555
C1 H1 1_555 1_555
H2 C1 1_555 1_555
H3 C1 1_555 1_555
C2 O1 1_555 1_555
C3 C2 1_555 1_555
H4 C3 1_555 1_555
C4 C3 1_555 1_555
H5 C4 1_555 1_555
C5 C4 1_555 1_555
C6 C5 1_555 1_555
H6 C6 1_555 1_555
C7 C2 1_555 1_555
H7 C7 1_555 1_555
C8 N1 1_555 1_555
C9 N3 1_555 1_555
C10 H8 1_555 1_555
C11 C10 1_555 1_555
C12 C11 1_555 1_555
H9 C12 1_555 1_555
C13 C12 1_555 1_555
H10 C13 1_555 1_555
C14 C13 1_555 1_555
C15 C14 1_555 1_555
H11 C15 1_555 1_555
C16 C11 1_555 1_555
H12 C16 1_555 1_555
C17 N5 1_555 1_555
H13 C17 1_555 1_555
H14 C17 1_555 1_555
H15 C17 1_555 1_555
C18 N5 1_555 1_555
H16 C18 1_555 1_555
H17 C18 1_555 1_555
H18 C18 1_555 1_555
C19 S1 1_555 1_555
C20 C19 1_555 1_555
H19 C20 1_555 1_555
C21 C20 1_555 1_555
H20 C21 1_555 1_555
C22 C21 1_555 1_555
C23 C22 1_555 1_555
H21 C23 1_555 1_555
C24 C19 1_555 1_555
N3 C8 1_555 1_555
C5 C8 1_555 1_555
C6 C7 1_555 1_555
C15 C16 1_555 1_555
C23 C24 1_555 1_555

#END
