
#######################################################################
#
#                 Cambridge Crystallographic Data Centre
#                                CCDC 
#
#######################################################################
#
# If this CIF has been generated from an entry in the Cambridge 
# Structural Database, then it will include bibliographic, chemical, 
# crystal, experimental, refinement or atomic coordinate data resulting 
# from the CCDC's data processing and validation procedures.
#
#######################################################################

data_GOMKIC
_chemical_formula_moiety         'C22 H16 N6'
_chemical_name_systematic        
bis(2-Aminopyrimidin-5-yl)-(fluoren-9-ylidene)methane
_symmetry_cell_setting           triclinic
_symmetry_space_group_name_H-M   'P -1'
_symmetry_Int_Tables_number      2
_space_group_name_Hall           '-P 1'
loop_
_symmetry_equiv_pos_site_id
_symmetry_equiv_pos_as_xyz
1 x,y,z
2 -x,-y,-z
_cell_length_a                   9.001(1)
_cell_length_b                   10.239(1)
_cell_length_c                   10.798(1)
_cell_angle_alpha                118.01(6)
_cell_angle_beta                 91.44(6)
_cell_angle_gamma                94.20(6)
_cell_volume                     874.226
_exptl_crystal_colour            colorless
_exptl_crystal_description       prism
_chemical_melting_point          '345-346 deg.C'
_cell_formula_units_Z            2
_exptl_crystal_recrystallization_method chlorobenzene
loop_
_atom_site_label
_atom_site_type_symbol
_atom_site_fract_x
_atom_site_fract_y
_atom_site_fract_z
C1 C 0.2255(3) 0.3032(2) 0.8231(2)
C2 C 0.2927(3) 0.2570(3) 0.6859(2)
C3 C 0.3969(3) 0.3294(3) 0.6408(3)
C4 C 0.4464(3) 0.2528(3) 0.5064(3)
C5 C 0.3977(3) 0.1064(4) 0.4199(3)
C6 C 0.2985(3) 0.0309(3) 0.4649(3)
C7 C 0.2466(3) 0.1063(3) 0.5973(2)
C8 C 0.1455(3) 0.0525(2) 0.6701(2)
C9 C 0.0624(3) -0.0834(3) 0.6225(3)
C10 C -0.0315(3) -0.1042(3) 0.7109(3)
C11 C -0.0467(3) 0.0096(3) 0.8441(3)
C12 C 0.0358(3) 0.1461(3) 0.8933(2)
C13 C 0.1349(3) 0.1683(2) 0.8069(2)
C14 C 0.2427(3) 0.4410(2) 0.9388(2)
C15 C 0.2772(3) 0.5742(2) 0.9224(2)
C16 C 0.2012(3) 0.5890(3) 0.8164(2)
N1 N 0.2229(2) 0.7045(2) 0.7938(2)
C17 C 0.3259(3) 0.8141(2) 0.8816(2)
N2 N 0.4041(2) 0.8144(2) 0.9898(2)
C18 C 0.3763(3) 0.6959(2) 1.0089(2)
N3 N 0.3503(3) 0.9305(2) 0.8594(2)
C19 C 0.2257(3) 0.4624(2) 1.0814(2)
C20 C 0.1678(3) 0.5836(3) 1.1879(2)
N4 N 0.1568(3) 0.6045(2) 1.3178(2)
C21 C 0.2089(3) 0.5014(3) 1.3445(2)
N5 N 0.2719(2) 0.3796(2) 1.2518(2)
C22 C 0.2776(3) 0.3646(3) 1.1238(2)
N6 N 0.2004(3) 0.5175(3) 1.4747(2)
H1 H 0.2977 0.9237 0.7719
H2 H 0.4232 1.0207 0.9205
H3 H 0.1634 0.6087 1.5528
H4 H 0.2293 0.4382 1.5031
H5 H 0.4339 0.4299 0.7010
H6 H 0.5152 0.3028 0.4739
H7 H 0.4326 0.0565 0.3283
H8 H 0.2665 -0.0711 0.4058
H9 H 0.0704 -0.1611 0.5299
H10 H -0.0867 -0.1980 0.6802
H11 H -0.1148 -0.0059 0.9028
H12 H 0.0247 0.2237 0.9852
H13 H 0.1290 0.5105 0.7563
H14 H 0.4273 0.6946 1.0863
H15 H 0.1337 0.6566 1.1662
H16 H 0.3206 0.2804 1.0556
loop_
_geom_bond_atom_site_label_1
_geom_bond_atom_site_label_2
_geom_bond_site_symmetry_1
_geom_bond_site_symmetry_2
C1 C2 1_555 1_555
C2 C3 1_555 1_555
C3 C4 1_555 1_555
C4 C5 1_555 1_555
C5 C6 1_555 1_555
C6 C7 1_555 1_555
C7 C2 1_555 1_555
C8 C7 1_555 1_555
C9 C8 1_555 1_555
C10 C9 1_555 1_555
C11 C10 1_555 1_555
C12 C11 1_555 1_555
C13 C1 1_555 1_555
C14 C1 1_555 1_555
C15 C14 1_555 1_555
C16 C15 1_555 1_555
N1 C16 1_555 1_555
C17 N1 1_555 1_555
N2 C17 1_555 1_555
C18 C15 1_555 1_555
N3 C17 1_555 1_555
C19 C14 1_555 1_555
C20 C19 1_555 1_555
N4 C20 1_555 1_555
C21 N4 1_555 1_555
N5 C21 1_555 1_555
C22 C19 1_555 1_555
N6 C21 1_555 1_555
H1 N3 1_555 1_555
H2 N3 1_555 1_555
H3 N6 1_555 1_555
H4 N6 1_555 1_555
H5 C3 1_555 1_555
H6 C4 1_555 1_555
H7 C5 1_555 1_555
H8 C6 1_555 1_555
H9 C9 1_555 1_555
H10 C10 1_555 1_555
H11 C11 1_555 1_555
H12 C12 1_555 1_555
H13 C16 1_555 1_555
H14 C18 1_555 1_555
H15 C20 1_555 1_555
H16 C22 1_555 1_555
C8 C13 1_555 1_555
C12 C13 1_555 1_555
N2 C18 1_555 1_555
N5 C22 1_555 1_555

#END
