
#######################################################################
#
#                 Cambridge Crystallographic Data Centre
#                                CCDC 
#
#######################################################################
#
# If this CIF has been generated from an entry in the Cambridge 
# Structural Database, then it will include bibliographic, chemical, 
# crystal, experimental, refinement or atomic coordinate data resulting 
# from the CCDC's data processing and validation procedures.
#
#######################################################################

data_GOMKEY
_chemical_formula_moiety         'C19 H26 N6'
_chemical_name_systematic        
bis(2-Aminopyrimidin-5-yl)-(4-t-butylcyclohexylidene)methane
_symmetry_cell_setting           monoclinic
_symmetry_space_group_name_H-M   'P 21/c'
_symmetry_Int_Tables_number      14
_space_group_name_Hall           '-P 2ybc'
loop_
_symmetry_equiv_pos_site_id
_symmetry_equiv_pos_as_xyz
1 x,y,z
2 x,1/2-y,1/2+z
3 -x,-y,-z
4 -x,1/2+y,1/2-z
_cell_length_a                   6.1210(2)
_cell_length_b                   29.1710(7)
_cell_length_c                   10.6680(2)
_cell_angle_alpha                90
_cell_angle_beta                 97.427(9)
_cell_angle_gamma                90
_cell_volume                     1888.85
_exptl_crystal_colour            colorless
_exptl_crystal_description       prism
_chemical_melting_point          '235-236 deg.C'
_cell_formula_units_Z            4
_exptl_crystal_recrystallization_method 'ethyl acetate'
loop_
_atom_site_label
_atom_site_type_symbol
_atom_site_fract_x
_atom_site_fract_y
_atom_site_fract_z
C1 C 0.1647(4) 0.12685(7) 0.2257(2)
C2 C 0.2528(4) 0.15641(7) 0.1301(2)
C3 C 0.4491(4) 0.18008(8) 0.1594(2)
N1 N 0.5433(3) 0.20629(7) 0.0804(2)
C4 C 0.4342(4) 0.20929(8) -0.0384(2)
N2 N 0.2343(3) 0.19072(6) -0.0758(2)
C5 C 0.1489(4) 0.16511(7) 0.0089(2)
N3 N 0.5299(4) 0.23281(8) -0.1236(2)
C6 C 0.1293(3) 0.15166(7) 0.3427(2)
C7 C -0.0250(4) 0.18648(7) 0.3406(2)
N4 N -0.0726(3) 0.20885(7) 0.4422(2)
C8 C 0.0449(4) 0.19680(8) 0.5534(2)
N5 N 0.2089(3) 0.16571(7) 0.5658(2)
C9 C 0.2450(4) 0.14378(9) 0.4618(2)
N6 N -0.0065(4) 0.21793(7) 0.6578(2)
C10 C 0.1217(4) 0.08219(7) 0.2087(2)
C11 C 0.1620(4) 0.05541(8) 0.0936(2)
C12 C 0.3106(4) 0.01428(8) 0.1290(2)
C13 C 0.2202(4) -0.01761(7) 0.2235(2)
C14 C 0.1786(4) 0.01067(8) 0.3395(2)
C15 C 0.0298(4) 0.05191(8) 0.3038(2)
C16 C 0.3582(4) -0.06174(8) 0.2543(2)
C17 C 0.3651(5) -0.08972(9) 0.1342(3)
C18 C 0.5951(4) -0.0514(1) 0.3088(2)
C19 C 0.2535(5) -0.09194(9) 0.3455(3)
H1 H 0.5221 0.1773 0.2432
H2 H 0.0078 0.1519 -0.0150
H3 H -0.1023 0.1950 0.2610
H4 H 0.3574 0.1211 0.4690
H5 H 0.2304 0.0748 0.0387
H6 H 0.0249 0.0449 0.0515
H7 H 0.4510 0.0251 0.1654
H8 H 0.3255 -0.0026 0.0545
H9 H 0.0836 -0.0299 0.1857
H10 H 0.3160 0.0213 0.3810
H11 H 0.1105 -0.0084 0.3953
H12 H -0.1116 0.0413 0.2686
H13 H 0.0168 0.0693 0.3778
H14 H 0.4498 -0.1167 0.1536
H15 H 0.2195 -0.0980 0.0998
H16 H 0.4304 -0.0720 0.0743
H17 H 0.6730 -0.0793 0.3261
H18 H 0.6638 -0.0340 0.2495
H19 H 0.5965 -0.0343 0.3848
H20 H 0.3402 -0.1187 0.3631
H21 H 0.2451 -0.0756 0.4218
H22 H 0.1094 -0.1004 0.3088
H23 H 0.6705 0.2463 -0.1004
H24 H 0.4575 0.2360 -0.2074
H25 H 0.0714 0.2106 0.7381
H26 H -0.1209 0.2402 0.6511
loop_
_geom_bond_atom_site_label_1
_geom_bond_atom_site_label_2
_geom_bond_site_symmetry_1
_geom_bond_site_symmetry_2
C1 C2 1_555 1_555
C2 C3 1_555 1_555
C3 N1 1_555 1_555
N1 C4 1_555 1_555
C4 N2 1_555 1_555
N2 C5 1_555 1_555
C5 C2 1_555 1_555
N3 C4 1_555 1_555
C6 C1 1_555 1_555
C7 C6 1_555 1_555
N4 C7 1_555 1_555
C8 N4 1_555 1_555
N5 C8 1_555 1_555
C9 C6 1_555 1_555
N6 C8 1_555 1_555
C10 C1 1_555 1_555
C11 C10 1_555 1_555
C12 C11 1_555 1_555
C13 C12 1_555 1_555
C14 C13 1_555 1_555
C15 C10 1_555 1_555
C16 C13 1_555 1_555
C17 C16 1_555 1_555
C18 C16 1_555 1_555
C19 C16 1_555 1_555
H1 C3 1_555 1_555
H2 C5 1_555 1_555
H3 C7 1_555 1_555
H4 C9 1_555 1_555
H5 C11 1_555 1_555
H6 C11 1_555 1_555
H7 C12 1_555 1_555
H8 C12 1_555 1_555
H9 C13 1_555 1_555
H10 C14 1_555 1_555
H11 C14 1_555 1_555
H12 C15 1_555 1_555
H13 C15 1_555 1_555
H14 C17 1_555 1_555
H15 C17 1_555 1_555
H16 C17 1_555 1_555
H17 C18 1_555 1_555
H18 C18 1_555 1_555
H19 C18 1_555 1_555
H20 C19 1_555 1_555
H21 C19 1_555 1_555
H22 C19 1_555 1_555
H23 N3 1_555 1_555
H24 N3 1_555 1_555
H25 N6 1_555 1_555
H26 N6 1_555 1_555
N5 C9 1_555 1_555
C14 C15 1_555 1_555

#END
