
#######################################################################
#
#                 Cambridge Crystallographic Data Centre
#                                CCDC 
#
#######################################################################
#
# If this CIF has been generated from an entry in the Cambridge 
# Structural Database, then it will include bibliographic, chemical, 
# crystal, experimental, refinement or atomic coordinate data resulting 
# from the CCDC's data processing and validation procedures.
#
#######################################################################

data_GOMSUX
_chemical_formula_moiety         'C8 H8 B1 N1'
_chemical_name_systematic        1,2-Dihydro-1,2-benzazaborine
_symmetry_cell_setting           monoclinic
_symmetry_space_group_name_H-M   'P 21/c'
_symmetry_Int_Tables_number      14
_space_group_name_Hall           '-P 2ybc'
loop_
_symmetry_equiv_pos_site_id
_symmetry_equiv_pos_as_xyz
1 x,y,z
2 -x,1/2+y,1/2-z
3 -x,-y,-z
4 x,1/2-y,1/2+z
_cell_length_a                   7.980(3)
_cell_length_b                   5.813(3)
_cell_length_c                   8.245(4)
_cell_angle_alpha                90
_cell_angle_beta                 114.745(6)
_cell_angle_gamma                90
_cell_volume                     347.349
_exptl_crystal_colour            colorless
_exptl_crystal_description       plate
_cell_formula_units_Z            2
_exptl_crystal_recrystallization_method pentane/dichloromethane
loop_
_atom_site_label
_atom_site_type_symbol
_atom_site_fract_x
_atom_site_fract_y
_atom_site_fract_z
C1 C 0.53681(15) -0.10655(18) 0.48862(14)
C2 C 0.42751(15) -0.25085(18) 0.34637(14)
C3 C 0.25031(17) -0.1920(2) 0.22859(16)
H1 H 0.1791 -0.2924 0.1338
H2 H 0.4736 -0.3829 0.3320
N1 N 0.71752(15) -0.16797(19) 0.60747(14)
H3 H 0.7630 -0.2999 0.5920
B1 B 0.17452(16) 0.0277(2) 0.25256(16)
H4 H 0.0533 0.0731 0.1734
C1B C 0.46319(15) 0.10655(18) 0.51138(14)
C2B C 0.57249(15) 0.25085(18) 0.65363(14)
C3B C 0.74969(17) 0.1920(2) 0.77141(16)
H1B H 0.8209 0.2924 0.8662
H2B H 0.5264 0.3829 0.6680
N1B N 0.28248(15) 0.16797(19) 0.39253(14)
H3B H 0.2370 0.2999 0.4080
B1B B 0.82548(16) -0.0277(2) 0.74744(16)
H4B H 0.9467 -0.0731 0.8266
C4? C 0.28248(15) 0.16797(19) 0.39253(14)
C5? C 0.82548(16) -0.0277(2) 0.74744(16)
H5? H 0.4772 -0.3934 0.3309
H6? H 0.2334 0.3104 0.4092
loop_
_geom_bond_atom_site_label_1
_geom_bond_atom_site_label_2
_geom_bond_site_symmetry_1
_geom_bond_site_symmetry_2
C1 C2 1_555 1_555
C2 C3 1_555 1_555
C3 H1 1_555 1_555
H2 C2 1_555 1_555
N1 C1 1_555 1_555
H3 N1 1_555 1_555
B1 C3 1_555 1_555
H4 B1 1_555 1_555
C1B C1 1_555 1_555
C2B C1B 1_555 1_555
C3B C2B 1_555 1_555
H1B C3B 1_555 1_555
H2B C2B 1_555 1_555
N1B B1 1_555 1_555
H3B N1B 1_555 1_555
B1B N1 1_555 1_555
H4B B1B 1_555 1_555
C1B N1B 1_555 1_555
C3B B1B 1_555 1_555

#END
