
#######################################################################
#
#                 Cambridge Crystallographic Data Centre
#                                CCDC 
#
#######################################################################
#
# If this CIF has been generated from an entry in the Cambridge 
# Structural Database, then it will include bibliographic, chemical, 
# crystal, experimental, refinement or atomic coordinate data resulting 
# from the CCDC's data processing and validation procedures.
#
#######################################################################

data_GOMYUC
_chemical_formula_moiety         'C23 H30 O5'
_chemical_name_systematic        
trans-(2-Isopropyl-1,10-isopropylidenedioxy-4b-methyl-8-methoxycarbonyl)octahydrophenanthren-7-one
_symmetry_cell_setting           monoclinic
_symmetry_space_group_name_H-M   'P 21/n'
_symmetry_Int_Tables_number      14
_space_group_name_Hall           '-P 2yn'
loop_
_symmetry_equiv_pos_site_id
_symmetry_equiv_pos_as_xyz
1 x,y,z
2 1/2-x,1/2+y,1/2-z
3 -x,-y,-z
4 1/2+x,1/2-y,1/2+z
_cell_length_a                   11.732(2)
_cell_length_b                   7.836(2)
_cell_length_c                   22.537(3)
_cell_angle_alpha                90
_cell_angle_beta                 97.32(2)
_cell_angle_gamma                90
_cell_volume                     2054.98
_exptl_crystal_colour            colorless
_cell_formula_units_Z            4
loop_
_atom_site_label
_atom_site_type_symbol
_atom_site_fract_x
_atom_site_fract_y
_atom_site_fract_z
O1 O 0.3344(2) 0.5649(3) 0.03007(8)
O2 O 0.1496(1) 0.7141(2) 0.10836(8)
O3 O 0.3083(1) 0.8701(2) 0.12492(9)
O4 O 0.4525(1) 0.7625(2) 0.34114(6)
O5 O 0.6330(1) 0.6900(2) 0.39235(6)
C1 C 0.4935(2) 0.4192(3) 0.19812(9)
C2 C 0.5470(2) 0.3837(3) 0.14012(10)
C3 C 0.4554(2) 0.3636(4) 0.0856(1)
C4 C 0.3689(2) 0.5033(3) 0.0780(1)
C5 C 0.3223(2) 0.5651(3) 0.13511(10)
C6 C 0.4204(2) 0.5820(3) 0.18734(9)
C7 C 0.3782(2) 0.6470(3) 0.24497(9)
C8 C 0.4840(2) 0.7097(3) 0.28413(9)
C9 C 0.5753(2) 0.5762(3) 0.29357(9)
C10 C 0.5875(2) 0.4470(3) 0.25130(8)
C11 C 0.6792(2) 0.3353(3) 0.26326(9)
C12 C 0.7545(2) 0.3464(3) 0.31573(9)
C13 C 0.7411(2) 0.4646(3) 0.35990(9)
C14 C 0.6502(2) 0.5790(3) 0.34704(9)
C15 C 0.4236(2) 0.2631(3) 0.2141(1)
C16 C 0.2623(2) 0.7340(3) 0.12218(10)
C17 C 0.0839(2) 0.8683(4) 0.0929(1)
C18 C 0.5483(2) 0.8231(3) 0.38053(10)
C19 C 0.6042(2) 0.9764(3) 0.3573(1)
C20 C 0.5037(2) 0.8547(3) 0.4398(1)
C21 C 0.8143(2) 0.4720(3) 0.42030(9)
C22 C 0.7514(2) 0.3930(4) 0.4690(1)
C23 C 0.9319(2) 0.3895(4) 0.4206(1)
H1 H 0.5960 0.4761 0.1331
H2 H 0.5908 0.2815 0.1452
H3 H 0.4932 0.3597 0.0507
H4 H 0.4160 0.2590 0.0895
H5 H 0.2681 0.4842 0.1458
H6 H 0.4705 0.6676 0.1757
H7 H 0.3249 0.7376 0.2363
H8 H 0.3428 0.5572 0.2643
H9 H 0.5139 0.8056 0.2654
H10 H 0.6907 0.2493 0.2349
H11 H 0.8177 0.2698 0.3216
H12 H 0.3905 0.2861 0.2496
H13 H 0.3644 0.2402 0.1823
H14 H 0.4728 0.1668 0.2203
H15 H 0.0938 0.9454 0.1256
H16 H 0.1100 0.9201 0.0590
H17 H 0.0048 0.8402 0.0838
H18 H 0.6645 1.0147 0.3864
H19 H 0.6347 0.9472 0.3215
H20 H 0.5489 1.0647 0.3492
H21 H 0.5643 0.8965 0.4680
H22 H 0.4435 0.9364 0.4344
H23 H 0.4754 0.7509 0.4540
H24 H 0.8267 0.5890 0.4301
H25 H 0.6780 0.4447 0.4682
H26 H 0.7423 0.2739 0.4621
H27 H 0.7949 0.4113 0.5070
H28 H 0.9228 0.2704 0.4137
H29 H 0.9700 0.4388 0.3901
H30 H 0.9763 0.4077 0.4584
loop_
_geom_bond_atom_site_label_1
_geom_bond_atom_site_label_2
_geom_bond_site_symmetry_1
_geom_bond_site_symmetry_2
O1 C4 1_555 1_555
O2 C16 1_555 1_555
O3 C16 1_555 1_555
O4 C8 1_555 1_555
O5 C14 1_555 1_555
C1 C2 1_555 1_555
C2 C3 1_555 1_555
C3 C4 1_555 1_555
C4 C5 1_555 1_555
C5 C6 1_555 1_555
C6 C1 1_555 1_555
C7 C6 1_555 1_555
C8 C7 1_555 1_555
C9 C8 1_555 1_555
C10 C1 1_555 1_555
C11 C10 1_555 1_555
C12 C11 1_555 1_555
C13 C12 1_555 1_555
C14 C9 1_555 1_555
C15 C1 1_555 1_555
C16 C5 1_555 1_555
C17 O2 1_555 1_555
C18 O4 1_555 1_555
C19 C18 1_555 1_555
C20 C18 1_555 1_555
C21 C13 1_555 1_555
C22 C21 1_555 1_555
C23 C21 1_555 1_555
H1 C2 1_555 1_555
H2 C2 1_555 1_555
H3 C3 1_555 1_555
H4 C3 1_555 1_555
H5 C5 1_555 1_555
H6 C6 1_555 1_555
H7 C7 1_555 1_555
H8 C7 1_555 1_555
H9 C8 1_555 1_555
H10 C11 1_555 1_555
H11 C12 1_555 1_555
H12 C15 1_555 1_555
H13 C15 1_555 1_555
H14 C15 1_555 1_555
H15 C17 1_555 1_555
H16 C17 1_555 1_555
H17 C17 1_555 1_555
H18 C19 1_555 1_555
H19 C19 1_555 1_555
H20 C19 1_555 1_555
H21 C20 1_555 1_555
H22 C20 1_555 1_555
H23 C20 1_555 1_555
H24 C21 1_555 1_555
H25 C22 1_555 1_555
H26 C22 1_555 1_555
H27 C22 1_555 1_555
H28 C23 1_555 1_555
H29 C23 1_555 1_555
H30 C23 1_555 1_555
O5 C18 1_555 1_555
C9 C10 1_555 1_555
C13 C14 1_555 1_555

#END
