
#######################################################################
#
#                 Cambridge Crystallographic Data Centre
#                                CCDC 
#
#######################################################################
#
# If this CIF has been generated from an entry in the Cambridge 
# Structural Database, then it will include bibliographic, chemical, 
# crystal, experimental, refinement or atomic coordinate data resulting 
# from the CCDC's data processing and validation procedures.
#
#######################################################################

data_GOMZAJ
_chemical_formula_moiety         'C23 H30 O5'
_chemical_name_systematic        
cis-(2-Isopropyl-1,10-isopropylidenedioxy-4b-methyl-8-methoxycarbonyl)hexahydrophenanthren-7-ol
_symmetry_cell_setting           monoclinic
_symmetry_space_group_name_H-M   'P 21/a'
_symmetry_Int_Tables_number      14
_space_group_name_Hall           '-P 2yab'
loop_
_symmetry_equiv_pos_site_id
_symmetry_equiv_pos_as_xyz
1 x,y,z
2 1/2-x,1/2+y,-z
3 -x,-y,-z
4 1/2+x,1/2-y,z
_cell_length_a                   9.859(2)
_cell_length_b                   14.435(2)
_cell_length_c                   14.839(3)
_cell_angle_alpha                90
_cell_angle_beta                 98.68(2)
_cell_angle_gamma                90
_cell_volume                     2087.62
_exptl_crystal_colour            colorless
_cell_formula_units_Z            4
loop_
_atom_site_label
_atom_site_type_symbol
_atom_site_fract_x
_atom_site_fract_y
_atom_site_fract_z
O1 O 0.1034(3) 0.4240(2) 0.6268(2)
O2 O 0.1566(2) 0.2714(2) 0.5907(2)
O3 O -0.0215(3) -0.0383(2) 0.6372(2)
O4 O 0.0726(3) -0.1514(2) 0.7286(2)
O5 O 0.1722(3) -0.1096(2) 0.8925(2)
C1 C 0.1021(4) 0.3566(2) 0.5548(2)
C2 C 0.0768(3) 0.2309(2) 0.6536(2)
C3 C 0.1440(4) 0.1435(2) 0.6933(2)
C4 C 0.0494(3) 0.1036(2) 0.7574(2)
C5 C 0.0826(4) 0.0040(3) 0.7835(3)
C6 C 0.1440(4) -0.0207(3) 0.8675(3)
C7 C 0.1801(4) 0.0467(3) 0.9429(3)
C8 C 0.1723(4) 0.1470(3) 0.9118(3)
C9 C 0.0445(3) 0.1667(2) 0.8413(2)
C10 C 0.0460(3) 0.2694(2) 0.8160(2)
C11 C 0.0355(4) 0.3377(3) 0.8809(2)
C12 C 0.0408(4) 0.4306(3) 0.8604(3)
C13 C 0.0615(4) 0.4620(2) 0.7750(2)
C14 C 0.0734(3) 0.3934(3) 0.7103(2)
C15 C 0.0626(3) 0.2994(2) 0.7285(2)
C16 C 0.2034(5) 0.3920(3) 0.4955(3)
C17 C -0.0423(4) 0.3495(3) 0.5055(3)
C18 C 0.0473(4) -0.0687(3) 0.7162(3)
C19 C -0.0714(5) -0.1078(3) 0.5702(4)
C20 C -0.0877(4) 0.1447(3) 0.8811(3)
C21 C 0.0725(4) 0.5635(3) 0.7532(3)
C22 C -0.0309(8) 0.6223(4) 0.7901(7)
C23 C 0.2111(6) 0.6002(4) 0.7837(6)
H1 H -0.0118 0.2164 0.6221
H2 H 0.1533 0.1005 0.6462
H3 H 0.2318 0.1569 0.7265
H4 H -0.0407 0.1035 0.7239
H6 H 0.1184 0.0384 0.9856
H7 H 0.2710 0.0343 0.9715
H8 H 0.1699 0.1857 0.9633
H9 H 0.2518 0.1610 0.8852
H10 H 0.0243 0.3197 0.9409
H11 H 0.0301 0.4746 0.9063
H12 H 0.2909 0.3997 0.5317
H13 H 0.2106 0.3486 0.4483
H14 H 0.1728 0.4498 0.4695
H15 H -0.0710 0.4081 0.4806
H16 H -0.0456 0.3053 0.4577
H17 H -0.1014 0.3304 0.5469
H18 H -0.1321 -0.1484 0.5949
H19 H -0.1187 -0.0785 0.5173
H20 H 0.0039 -0.1421 0.5546
H21 H -0.0909 0.1819 0.9337
H22 H -0.1654 0.1580 0.8368
H23 H -0.0884 0.0812 0.8974
H24 H 0.0557 0.5693 0.6887
H25 H -0.0123 0.6219 0.8548
H26 H -0.0247 0.6840 0.7686
H27 H -0.1198 0.5986 0.7703
H28 H 0.2283 0.6006 0.8488
H29 H 0.2768 0.5629 0.7611
H30 H 0.2165 0.6621 0.7623
H5? H 0.1699 0.0105 0.7645
loop_
_geom_bond_atom_site_label_1
_geom_bond_atom_site_label_2
_geom_bond_site_symmetry_1
_geom_bond_site_symmetry_2
O1 C1 1_555 1_555
O2 C1 1_555 1_555
O3 C18 1_555 1_555
O4 C18 1_555 1_555
O5 C6 1_555 1_555
C1 C16 1_555 1_555
C2 O2 1_555 1_555
C3 C2 1_555 1_555
C4 C3 1_555 1_555
C5 C4 1_555 1_555
C6 C5 1_555 1_555
C7 C6 1_555 1_555
C8 C7 1_555 1_555
C9 C4 1_555 1_555
C10 C9 1_555 1_555
C11 C10 1_555 1_555
C12 C11 1_555 1_555
C13 C12 1_555 1_555
C14 O1 1_555 1_555
C15 C2 1_555 1_555
C16 H12 1_555 1_555
C17 C1 1_555 1_555
C18 C5 1_555 1_555
C19 O3 1_555 1_555
C20 C9 1_555 1_555
C21 C13 1_555 1_555
C22 C21 1_555 1_555
C23 C21 1_555 1_555
H1 C2 1_555 1_555
H2 C3 1_555 1_555
H3 C3 1_555 1_555
H4 C4 1_555 1_555
H6 C7 1_555 1_555
H7 C7 1_555 1_555
H8 C8 1_555 1_555
H9 C8 1_555 1_555
H10 C11 1_555 1_555
H11 C12 1_555 1_555
H13 C16 1_555 1_555
H14 C16 1_555 1_555
H15 C17 1_555 1_555
H16 C17 1_555 1_555
H17 C17 1_555 1_555
H18 C19 1_555 1_555
H19 C19 1_555 1_555
H20 C19 1_555 1_555
H21 C20 1_555 1_555
H22 C20 1_555 1_555
H23 C20 1_555 1_555
H24 C21 1_555 1_555
H25 C22 1_555 1_555
H26 C22 1_555 1_555
H27 C22 1_555 1_555
H28 C23 1_555 1_555
H29 C23 1_555 1_555
H30 C23 1_555 1_555
C8 C9 1_555 1_555
C10 C15 1_555 1_555
C13 C14 1_555 1_555
C14 C15 1_555 1_555

#END
