
#######################################################################
#
#                 Cambridge Crystallographic Data Centre
#                                CCDC 
#
#######################################################################
#
# If this CIF has been generated from an entry in the Cambridge 
# Structural Database, then it will include bibliographic, chemical, 
# crystal, experimental, refinement or atomic coordinate data resulting 
# from the CCDC's data processing and validation procedures.
#
#######################################################################

data_GONFEU
_chemical_name_common            'Isosmargdyrin hydrochloride'
_chemical_formula_moiety         'C39 H50 N5 1+,Cl1 1-'
_chemical_name_systematic        
'16,20-Di-n-butyl-2,3,6,7,10,11,15,21-octamethyl-(22)pentaphyrin-(1.1.1.0.0) hydrochloride'
_symmetry_cell_setting           monoclinic
_symmetry_space_group_name_H-M   'P 21/c'
_symmetry_Int_Tables_number      14
_space_group_name_Hall           '-P 2ybc'
loop_
_symmetry_equiv_pos_site_id
_symmetry_equiv_pos_as_xyz
1 x,y,z
2 -x,1/2+y,1/2-z
3 -x,-y,-z
4 x,1/2-y,1/2+z
_cell_length_a                   14.207(1)
_cell_length_b                   17.066(1)
_cell_length_c                   15.579(1)
_cell_angle_alpha                90
_cell_angle_beta                 115.469(5)
_cell_angle_gamma                90
_cell_volume                     3410.15
_exptl_crystal_colour            blue
_exptl_crystal_description       prisms
_cell_formula_units_Z            4
_exptl_crystal_recrystallization_method chloroform/hexane
loop_
_atom_site_label
_atom_site_type_symbol
_atom_site_fract_x
_atom_site_fract_y
_atom_site_fract_z
Cl1 Cl 0.32498(4) 0.48917(3) 0.15848(3)
N1 N 0.13836(13) 0.41894(9) 0.19576(12)
N2 N 0.32409(13) 0.36451(10) 0.32560(13)
N3 N 0.48730(13) 0.46142(9) 0.37673(12)
N4 N 0.40699(12) 0.63410(9) 0.29777(11)
N5 N 0.15300(12) 0.60171(9) 0.16698(11)
C1 C 0.03521(14) 0.43776(11) 0.14073(14)
C2 C -0.0231(2) 0.36905(11) 0.13266(14)
C3 C 0.0454(2) 0.30933(11) 0.18274(14)
C4 C 0.1467(2) 0.34065(11) 0.21984(14)
C5 C 0.2488(2) 0.31093(11) 0.27542(14)
C6 C 0.3000(2) 0.23920(11) 0.28384(14)
C7 C 0.4071(2) 0.25141(11) 0.34082(14)
C8 C 0.4213(2) 0.33103(11) 0.36490(14)
C9 C 0.5066(2) 0.38441(11) 0.40557(14)
C10 C 0.6103(2) 0.37985(12) 0.47491(14)
C11 C 0.6527(2) 0.45467(12) 0.48589(14)
C12 C 0.57550(14) 0.50601(11) 0.42333(13)
C13 C 0.5831(2) 0.58734(12) 0.41339(14)
C14 C 0.51163(14) 0.64367(11) 0.36162(13)
C15 C 0.5323(2) 0.72636(11) 0.36608(14)
C16 C 0.4437(2) 0.76396(11) 0.30446(14)
C17 C 0.36415(14) 0.70552(10) 0.26049(13)
C18 C 0.2623(2) 0.72234(11) 0.19560(13)
C19 C 0.16966(14) 0.67994(10) 0.15604(13)
C20 C 0.0697(2) 0.71390(11) 0.09840(13)
C21 C -0.00421(14) 0.65666(11) 0.07628(13)
C22 C 0.04690(14) 0.58424(11) 0.11663(13)
C23 C -0.0018(2) 0.51274(11) 0.10518(14)
C24 C -0.1390(2) 0.36254(14) 0.0821(2)
C25 C 0.0136(2) 0.22934(13) 0.1998(2)
C26 C 0.2512(2) 0.16601(13) 0.2301(2)
C27 C 0.4903(2) 0.19044(13) 0.3647(2)
C28 C 0.6657(2) 0.30898(14) 0.5311(2)
C29 C 0.7606(2) 0.4772(2) 0.5551(2)
C30 C 0.6339(2) 0.76360(14) 0.4294(2)
C31 C 0.4293(2) 0.85064(11) 0.2885(2)
C32 C 0.3914(2) 0.88997(12) 0.3557(2)
C33 C 0.3809(2) 0.97840(12) 0.3446(2)
C34 C 0.3491(2) 1.0166(2) 0.4158(2)
C35 C 0.0533(2) 0.79784(12) 0.06738(14)
C36 C 0.0521(2) 0.85590(12) 0.1408(2)
C37 C 0.0444(2) 0.94003(13) 0.1066(2)
C38 C 0.0452(3) 0.9999(2) 0.1772(2)
C39 C -0.1192(2) 0.66634(14) 0.0222(2)
H1 H 0.190(2) 0.4434(14) 0.191(2)
H2 H 0.316(2) 0.4016(14) 0.337(2)
H3 H 0.436(2) 0.4732(13) 0.322(2)
H4 H 0.382(2) 0.5885(14) 0.267(2)
H5 H 0.204(2) 0.5684(14) 0.178(2)
H6 H 0.652(2) 0.6072(13) 0.455(2)
H7 H 0.253(2) 0.7779(13) 0.1763(15)
H8 H -0.075(2) 0.5145(11) 0.0657(14)
H9 H -0.160(3) 0.316(2) 0.041(2)
H10 H -0.173(2) 0.406(2) 0.037(2)
H11 H -0.168(3) 0.361(2) 0.122(2)
H12 H -0.048(2) 0.2311(15) 0.212(2)
H13 H 0.067(2) 0.205(2) 0.255(2)
H14 H 0.000(2) 0.193(2) 0.147(2)
H15 H 0.301(2) 0.1368(14) 0.217(2)
H16 H 0.190(2) 0.1808(14) 0.167(2)
H17 H 0.224(2) 0.1329(14) 0.266(2)
H18 H 0.556(2) 0.2153(14) 0.374(2)
H19 H 0.472(2) 0.1506(14) 0.316(2)
H20 H 0.503(2) 0.1653(15) 0.424(2)
H21 H 0.698(2) 0.2807(14) 0.497(2)
H22 H 0.717(2) 0.3262(14) 0.595(2)
H23 H 0.616(2) 0.2729(15) 0.538(2)
H24 H 0.779(2) 0.532(2) 0.555(2)
H25 H 0.774(2) 0.463(2) 0.621(2)
H26 H 0.812(3) 0.448(2) 0.543(2)
H27 H 0.691(2) 0.738(2) 0.421(2)
H28 H 0.637(2) 0.819(2) 0.418(2)
H29 H 0.649(2) 0.756(2) 0.495(2)
H30 H 0.381(2) 0.8618(12) 0.221(2)
H31 H 0.495(2) 0.8738(13) 0.298(2)
H32 H 0.320(2) 0.8666(14) 0.343(2)
H33 H 0.441(2) 0.8788(14) 0.423(2)
H34 H 0.452(2) 0.9982(14) 0.353(2)
H35 H 0.331(2) 0.9915(15) 0.276(2)
H36 H 0.351(2) 1.075(2) 0.412(2)
H37 H 0.279(2) 1.003(2) 0.404(2)
H38 H 0.394(2) 0.999(2) 0.482(2)
H39 H 0.110(2) 0.8141(12) 0.0489(15)
H40 H -0.012(2) 0.8011(12) 0.0091(15)
H41 H -0.007(2) 0.8455(13) 0.155(2)
H42 H 0.116(2) 0.8502(13) 0.202(2)
H43 H -0.019(2) 0.946(2) 0.047(2)
H44 H 0.115(2) 0.954(2) 0.103(2)
H45 H 0.036(3) 1.055(2) 0.150(2)
H46 H -0.018(3) 0.991(2) 0.191(2)
H47 H 0.119(3) 0.997(2) 0.239(2)
H48 H -0.139(2) 0.709(2) -0.019(2)
H49 H -0.152(3) 0.621(2) -0.018(2)
H50 H -0.152(3) 0.672(2) 0.063(3)
loop_
_geom_bond_atom_site_label_1
_geom_bond_atom_site_label_2
_geom_bond_site_symmetry_1
_geom_bond_site_symmetry_2
N1 C1 1_555 1_555
N2 C5 1_555 1_555
N3 C9 1_555 1_555
N4 C14 1_555 1_555
N5 C19 1_555 1_555
C1 C2 1_555 1_555
C2 C3 1_555 1_555
C3 C4 1_555 1_555
C4 N1 1_555 1_555
C5 C4 1_555 1_555
C6 C5 1_555 1_555
C7 C6 1_555 1_555
C8 N2 1_555 1_555
C9 C8 1_555 1_555
C10 C9 1_555 1_555
C11 C10 1_555 1_555
C12 N3 1_555 1_555
C13 C12 1_555 1_555
C14 C13 1_555 1_555
C15 C14 1_555 1_555
C16 C15 1_555 1_555
C17 N4 1_555 1_555
C18 C17 1_555 1_555
C19 C18 1_555 1_555
C20 C19 1_555 1_555
C21 C20 1_555 1_555
C22 N5 1_555 1_555
C23 C1 1_555 1_555
C24 C2 1_555 1_555
C25 C3 1_555 1_555
C26 C6 1_555 1_555
C27 C7 1_555 1_555
C28 C10 1_555 1_555
C29 C11 1_555 1_555
C30 C15 1_555 1_555
C31 C16 1_555 1_555
C32 C31 1_555 1_555
C33 C32 1_555 1_555
C34 C33 1_555 1_555
C35 C20 1_555 1_555
C36 C35 1_555 1_555
C37 C36 1_555 1_555
C38 C37 1_555 1_555
C39 C21 1_555 1_555
H1 N1 1_555 1_555
H2 N2 1_555 1_555
H3 N3 1_555 1_555
H4 N4 1_555 1_555
H5 N5 1_555 1_555
H6 C13 1_555 1_555
H7 C18 1_555 1_555
H8 C23 1_555 1_555
H9 C24 1_555 1_555
H10 C24 1_555 1_555
H11 C24 1_555 1_555
H12 C25 1_555 1_555
H13 C25 1_555 1_555
H14 C25 1_555 1_555
H15 C26 1_555 1_555
H16 C26 1_555 1_555
H17 C26 1_555 1_555
H18 C27 1_555 1_555
H19 C27 1_555 1_555
H20 C27 1_555 1_555
H21 C28 1_555 1_555
H22 C28 1_555 1_555
H23 C28 1_555 1_555
H24 C29 1_555 1_555
H25 C29 1_555 1_555
H26 C29 1_555 1_555
H27 C30 1_555 1_555
H28 C30 1_555 1_555
H29 C30 1_555 1_555
H30 C31 1_555 1_555
H31 C31 1_555 1_555
H32 C32 1_555 1_555
H33 C32 1_555 1_555
H34 C33 1_555 1_555
H35 C33 1_555 1_555
H36 C34 1_555 1_555
H37 C34 1_555 1_555
H38 C34 1_555 1_555
H39 C35 1_555 1_555
H40 C35 1_555 1_555
H41 C36 1_555 1_555
H42 C36 1_555 1_555
H43 C37 1_555 1_555
H44 C37 1_555 1_555
H45 C38 1_555 1_555
H46 C38 1_555 1_555
H47 C38 1_555 1_555
H48 C39 1_555 1_555
H49 C39 1_555 1_555
H50 C39 1_555 1_555
C7 C8 1_555 1_555
C11 C12 1_555 1_555
C16 C17 1_555 1_555
C21 C22 1_555 1_555
C22 C23 1_555 1_555

#END
