
#######################################################################
#
#                 Cambridge Crystallographic Data Centre
#                                CCDC 
#
#######################################################################
#
# If this CIF has been generated from an entry in the Cambridge 
# Structural Database, then it will include bibliographic, chemical, 
# crystal, experimental, refinement or atomic coordinate data resulting 
# from the CCDC's data processing and validation procedures.
#
#######################################################################

data_GONLEC
_chemical_formula_moiety         'C27 H44 O2'
_chemical_name_systematic        7-Hydroxy-25-methylcholest-4-en-3-one
_symmetry_cell_setting           orthorhombic
_symmetry_space_group_name_H-M   'P 21 21 21'
_symmetry_Int_Tables_number      19
_space_group_name_Hall           'P 2ac 2ab'
loop_
_symmetry_equiv_pos_site_id
_symmetry_equiv_pos_as_xyz
1 x,y,z
2 1/2-x,-y,1/2+z
3 -x,1/2+y,1/2-z
4 1/2+x,1/2-y,-z
_cell_length_a                   5.893(1)
_cell_length_b                   15.734(3)
_cell_length_c                   26.699(9)
_cell_angle_alpha                90
_cell_angle_beta                 90
_cell_angle_gamma                90
_cell_volume                     2475.54
_cell_formula_units_Z            4
loop_
_atom_site_label
_atom_site_type_symbol
_atom_site_fract_x
_atom_site_fract_y
_atom_site_fract_z
O1 O 0.3802(4) 0.59455(13) 0.24964(10)
O2 O 0.4221(3) 0.24336(10) 0.28138(7)
C1 C 0.1216(5) 0.47800(13) 0.34909(10)
C2 C 0.1304(6) 0.55708(15) 0.31535(12)
C3 C 0.2649(5) 0.53955(17) 0.26951(13)
C4 C 0.2480(5) 0.45526(15) 0.24879(11)
C5 C 0.1334(4) 0.39204(15) 0.27063(10)
C6 C 0.0990(6) 0.31000(15) 0.24375(10)
C7 C 0.1829(5) 0.23469(15) 0.27502(9)
C8 C 0.0593(4) 0.23467(13) 0.32505(8)
C9 C 0.0939(4) 0.31865(12) 0.35279(8)
C10 C 0.0296(4) 0.39988(14) 0.32228(10)
C11 C -0.0210(5) 0.31593(15) 0.40415(10)
C12 C 0.0523(5) 0.23932(13) 0.43621(9)
C13 C 0.0132(4) 0.15567(13) 0.40896(9)
C14 C 0.1386(4) 0.16165(12) 0.35876(8)
C15 C 0.1387(6) 0.07132(13) 0.33866(10)
C16 C 0.1649(5) 0.01642(15) 0.38624(9)
C17 C 0.1299(4) 0.07567(12) 0.43173(8)
C18 C -0.2409(4) 0.13839(17) 0.40204(11)
C19 C -0.2306(4) 0.40816(17) 0.31629(12)
C20 C 0.0231(4) 0.03032(13) 0.47663(9)
C21 C -0.0243(6) 0.08980(17) 0.52038(10)
C22 C 0.1677(5) -0.04384(15) 0.49369(9)
C23 C 0.0704(5) -0.09800(16) 0.53488(10)
C24 C 0.1985(6) -0.17933(17) 0.54577(11)
C25 C 0.1081(9) -0.2340(3) 0.58762(14)
C26 C -0.097(2) -0.2454(6) 0.5982(4)
C27 C 0.2296(11) -0.3163(3) 0.59058(15)
C28? C 0.1332(15) -0.1910(4) 0.6351(3)
loop_
_geom_bond_atom_site_label_1
_geom_bond_atom_site_label_2
_geom_bond_site_symmetry_1
_geom_bond_site_symmetry_2
O1 C3 1_555 1_555
O2 C7 1_555 1_555
C1 C2 1_555 1_555
C2 C3 1_555 1_555
C3 C4 1_555 1_555
C4 C5 1_555 1_555
C5 C6 1_555 1_555
C6 C7 1_555 1_555
C7 C8 1_555 1_555
C8 C9 1_555 1_555
C9 C10 1_555 1_555
C10 C1 1_555 1_555
C11 C9 1_555 1_555
C12 C11 1_555 1_555
C13 C12 1_555 1_555
C14 C8 1_555 1_555
C15 C14 1_555 1_555
C16 C15 1_555 1_555
C17 C13 1_555 1_555
C18 C13 1_555 1_555
C19 C10 1_555 1_555
C20 C17 1_555 1_555
C21 C20 1_555 1_555
C22 C20 1_555 1_555
C23 C22 1_555 1_555
C24 C23 1_555 1_555
C25 C24 1_555 1_555
C26 C25 1_555 1_555
C27 C25 1_555 1_555
C5 C10 1_555 1_555
C13 C14 1_555 1_555
C16 C17 1_555 1_555

#END
