
#######################################################################
#
#                 Cambridge Crystallographic Data Centre
#                                CCDC 
#
#######################################################################
#
# If this CIF has been generated from an entry in the Cambridge 
# Structural Database, then it will include bibliographic, chemical, 
# crystal, experimental, refinement or atomic coordinate data resulting 
# from the CCDC's data processing and validation procedures.
#
#######################################################################

data_GONSEJ
_chemical_formula_moiety         'C22 H26 N6 O2'
_chemical_name_systematic        
1-((1-(2-aminopyrimidin-4-yl)-2-((2-methoxyethyl)amino)-1H-benzimidazol-6-yl)ethynyl)cyclohexanol
_symmetry_cell_setting           triclinic
_symmetry_space_group_name_H-M   'P -1'
_symmetry_Int_Tables_number      2
_space_group_name_Hall           '-P 1'
loop_
_symmetry_equiv_pos_site_id
_symmetry_equiv_pos_as_xyz
1 x,y,z
2 -x,-y,-z
_cell_length_a                   5.7863(5)
_cell_length_b                   10.0654(8)
_cell_length_c                   18.4698(15)
_cell_angle_alpha                86.705(6)
_cell_angle_beta                 87.087(6)
_cell_angle_gamma                77.906(6)
_cell_volume                     1049.26
_exptl_crystal_colour            colorless
_exptl_crystal_description       needle
_cell_formula_units_Z            2
loop_
_atom_site_label
_atom_site_type_symbol
_atom_site_fract_x
_atom_site_fract_y
_atom_site_fract_z
C1 C 0.6617(13) 0.1226(8) 0.0694(4)
C2 C 0.8356(11) -0.0656(6) 0.1338(3)
H1 H 0.8690 -0.1617 0.1419
C3 C 0.9480(11) 0.0073(6) 0.1757(3)
H2 H 1.0535 -0.0342 0.2121
C4 C 0.8953(18) 0.1464(10) 0.1605(5)
C5 C 0.9020(7) 0.3784(4) 0.2071(2)
C6 C 1.2039(7) 0.3286(4) 0.2749(2)
C7 C 1.3851(8) 0.3342(4) 0.3204(2)
H3 H 1.3974 0.4177 0.3398
C8 C 1.5474(8) 0.2157(4) 0.3368(2)
H4 H 1.6723 0.2182 0.3678
C9 C 1.5308(8) 0.0921(4) 0.3084(2)
C10 C 1.3479(8) 0.0867(4) 0.2618(2)
H5 H 1.3342 0.0035 0.2424
C11 C 1.1896(7) 0.2058(4) 0.2454(2)
C12 C 0.6220(8) 0.5887(4) 0.1781(2)
H6 H 0.7358 0.6405 0.1549
H7 H 0.5988 0.6108 0.2299
C13 C 0.3968(11) 0.6259(6) 0.1423(3)
H8 H 0.2755 0.5912 0.1732
H9 H 0.3489 0.7263 0.1388
C14 C 0.1852(10) 0.5818(9) 0.0452(3)
H10 H 0.0915 0.5307 0.0774
H11 H 0.2129 0.5403 -0.0020
H12 H 0.0991 0.6762 0.0387
C15 C 1.6976(8) -0.0305(4) 0.3266(2)
C16 C 1.8390(9) -0.1344(4) 0.3392(2)
C17 C 2.0142(8) -0.2594(4) 0.3554(2)
C18 C 1.8988(7) -0.3602(4) 0.4022(2)
H13 H 1.7625 -0.3782 0.3769
H14 H 2.0143 -0.4474 0.4084
C19 C 1.8147(8) -0.3071(5) 0.4762(2)
H15 H 1.7501 -0.3774 0.5055
H16 H 1.6857 -0.2259 0.4702
C20 C 2.0142(8) -0.2692(6) 0.5168(2)
H17 H 1.9494 -0.2274 0.5627
H18 H 2.1336 -0.3524 0.5289
C21 C 2.1305(8) -0.1701(5) 0.4704(2)
H19 H 2.2657 -0.1515 0.4961
H20 H 2.0153 -0.0831 0.4632
C22 C 2.2182(7) -0.2264(4) 0.3964(2)
H21 H 2.3420 -0.3098 0.4034
H22 H 2.2894 -0.1585 0.3672
N1 N 0.6852(11) -0.0139(6) 0.0834(4)
N2 N 0.7604(11) 0.2059(6) 0.1074(3)
N3 N 0.5055(11) 0.1826(7) 0.0195(3)
H23 H 0.4724 0.2718 0.0131
H24 H 0.4367 0.1326 -0.0065
N4 N 0.9927(6) 0.2382(3) 0.20035(16)
N5 N 1.0230(6) 0.4333(3) 0.25141(16)
N6 N 0.7130(6) 0.4448(3) 0.17223(18)
H25 H 0.6410 0.3992 0.1445
O1 O 0.3977(8) 0.5792(4) 0.0753(2)
O2 O 2.1134(6) -0.3150(3) 0.28848(17)
H26 H 2.0556 -0.3823 0.2803
C23? C 0.611(2) 0.1186(14) 0.0845(8)
C24? C 0.981(3) -0.0196(15) 0.0740(8)
H27? H 1.0869 -0.0933 0.0526
C25? C 1.072(2) 0.0511(14) 0.1228(7)
H28? H 1.2319 0.0264 0.1360
C26? C 0.917(3) 0.1600(19) 0.1514(10)
N7? N 0.7579(18) 0.0047(10) 0.0537(6)
N8? N 0.6937(19) 0.1978(10) 0.1275(6)
N9? N 0.405(2) 0.1604(12) 0.0564(6)
H29? H 0.3194 0.2412 0.0659
H30? H 0.3503 0.1078 0.0279
loop_
_geom_bond_atom_site_label_1
_geom_bond_atom_site_label_2
_geom_bond_site_symmetry_1
_geom_bond_site_symmetry_2
C1 N1 1_555 1_555
C2 H1 1_555 1_555
C3 C2 1_555 1_555
H2 C3 1_555 1_555
C4 C3 1_555 1_555
C5 N4 1_555 1_555
C6 C7 1_555 1_555
C7 H3 1_555 1_555
C8 C7 1_555 1_555
H4 C8 1_555 1_555
C9 C8 1_555 1_555
C10 C9 1_555 1_555
H5 C10 1_555 1_555
C11 C6 1_555 1_555
C12 H6 1_555 1_555
H7 C12 1_555 1_555
C13 C12 1_555 1_555
H8 C13 1_555 1_555
H9 C13 1_555 1_555
C14 H10 1_555 1_555
H11 C14 1_555 1_555
H12 C14 1_555 1_555
C15 C9 1_555 1_555
C16 C15 1_555 1_555
C17 C16 1_555 1_555
C18 C17 1_555 1_555
H13 C18 1_555 1_555
H14 C18 1_555 1_555
C19 C18 1_555 1_555
H15 C19 1_555 1_555
H16 C19 1_555 1_555
C20 C19 1_555 1_555
H17 C20 1_555 1_555
H18 C20 1_555 1_555
C21 C20 1_555 1_555
H19 C21 1_555 1_555
H20 C21 1_555 1_555
C22 C17 1_555 1_555
H21 C22 1_555 1_555
H22 C22 1_555 1_555
N1 C2 1_555 1_555
N2 C1 1_555 1_555
N3 C1 1_555 1_555
H23 N3 1_555 1_555
H24 N3 1_555 1_555
N4 C4 1_555 1_555
N5 C5 1_555 1_555
N6 C5 1_555 1_555
H25 N6 1_555 1_555
O1 C13 1_555 1_555
O2 C17 1_555 1_555
H26 O2 1_555 1_555
C4 N2 1_555 1_555
C6 N5 1_555 1_555
C10 C11 1_555 1_555
C11 N4 1_555 1_555
C12 N6 1_555 1_555
C14 O1 1_555 1_555
C21 C22 1_555 1_555

#END
