
#######################################################################
#
#                 Cambridge Crystallographic Data Centre
#                                CCDC 
#
#######################################################################
#
# If this CIF has been generated from an entry in the Cambridge 
# Structural Database, then it will include bibliographic, chemical, 
# crystal, experimental, refinement or atomic coordinate data resulting 
# from the CCDC's data processing and validation procedures.
#
#######################################################################

data_GONYAL
_chemical_formula_moiety         'C34 H32 N4 O5,x(H2 O1)'
_chemical_name_systematic        
"3-((3',6'-bis(ethylamino)-2',7'-dimethyl-3-oxospiro[isoindole-1,9'-xanthen]-2(3H)-yl)carbonoimidoyl)-2-hydroxybenzoic acid hydrate"
_symmetry_cell_setting           monoclinic
_symmetry_space_group_name_H-M   'P 21/c'
_symmetry_Int_Tables_number      14
_space_group_name_Hall           '-P 2ybc'
loop_
_symmetry_equiv_pos_site_id
_symmetry_equiv_pos_as_xyz
1 x,y,z
2 -x,1/2+y,1/2-z
3 -x,-y,-z
4 x,1/2-y,1/2+z
_cell_length_a                   14.9309(19)
_cell_length_b                   9.0628(10)
_cell_length_c                   27.435(6)
_cell_angle_alpha                90
_cell_angle_beta                 94.605(14)
_cell_angle_gamma                90
_cell_volume                     3700.4
_exptl_crystal_colour            pink
_exptl_crystal_description       needle
_cell_formula_units_Z            4
loop_
_atom_site_label
_atom_site_type_symbol
_atom_site_fract_x
_atom_site_fract_y
_atom_site_fract_z
C1 C 0.0590(4) 0.3005(8) 0.1788(2)
C2 C 0.0344(3) 0.2721(6) 0.22740(18)
C3 C 0.0980(3) 0.2159(5) 0.26219(18)
C4 C 0.0779(3) 0.1939(5) 0.31015(18)
C5 C -0.0094(4) 0.2236(7) 0.3218(2)
H1 H -0.0252 0.2048 0.3533
C6 C -0.0746(3) 0.2819(7) 0.2866(2)
H2 H -0.1322 0.3043 0.2951
C7 C -0.0511(3) 0.3047(6) 0.2394(2)
H3 H -0.0932 0.3423 0.2158
C8 C 0.1465(3) 0.1393(5) 0.34581(18)
H4 H 0.2018 0.1095 0.3359
C9 C 0.1767(3) 0.0703(6) 0.4731(2)
C10 C 0.2559(4) 0.0060(6) 0.49993(19)
C11 C 0.3209(4) -0.0291(5) 0.46687(17)
C12 C 0.4014(4) -0.0964(5) 0.48253(18)
H5 H 0.4441 -0.1184 0.4608
C13 C 0.4158(4) -0.1296(7) 0.5315(2)
H6 H 0.4695 -0.1740 0.5431
C14 C 0.3519(4) -0.0980(7) 0.5636(2)
H7 H 0.3637 -0.1224 0.5964
C15 C 0.2707(5) -0.0313(8) 0.5489(2)
H8 H 0.2280 -0.0123 0.5709
C16 C 0.1506(5) -0.4626(6) 0.3609(2)
H9 H 0.1146 -0.4747 0.3306
H10 H 0.1126 -0.4365 0.3862
H11 H 0.1811 -0.5533 0.3694
C17 C 0.2170(4) -0.3447(6) 0.3557(2)
C18 C 0.2720(4) -0.3571(6) 0.3185(3)
C19 C 0.3325(4) -0.2424(6) 0.3117(2)
H12 H 0.3704 -0.2468 0.2864
C20 C 0.3355(3) -0.1185(5) 0.3440(2)
C21 C 0.2820(3) -0.1070(5) 0.38031(18)
C22 C 0.2226(4) -0.2215(6) 0.38570(19)
H13 H 0.1843 -0.2156 0.4108
C23 C 0.3333(6) -0.5125(8) 0.2526(3)
H14 H 0.3920 -0.4741 0.2639
H15 H 0.3383 -0.6187 0.2494
C24 C 0.3055(7) -0.4504(11) 0.2070(3)
H16 H 0.2435 -0.4739 0.1987
H17 H 0.3414 -0.4897 0.1825
H18 H 0.3127 -0.3452 0.2086
C25 C 0.3981(3) 0.1182(5) 0.35949(19)
C26 C 0.4574(3) 0.2251(5) 0.34401(18)
H19 H 0.4925 0.2047 0.3183
C27 C 0.4637(3) 0.3590(6) 0.3667(2)
C28 C 0.4112(3) 0.3902(5) 0.40725(18)
C29 C 0.3560(3) 0.2785(5) 0.42010(17)
H20 H 0.3213 0.2954 0.4462
C30 C 0.3477(3) 0.1414(5) 0.39717(18)
C31 C 0.2886(3) 0.0203(5) 0.41472(17)
C32 C 0.4187(4) 0.5335(5) 0.43488(19)
H21 H 0.3739 0.5367 0.4581
H22 H 0.4096 0.6143 0.4124
H23 H 0.4773 0.5411 0.4518
C33 C 0.5796(5) 0.4484(7) 0.3128(3)
H24 H 0.5457 0.4106 0.2838
H25 H 0.6254 0.3764 0.3231
C34 C 0.6239(6) 0.5926(9) 0.3008(3)
H26 H 0.6516 0.6355 0.3302
H27 H 0.5794 0.6591 0.2862
H28 H 0.6687 0.5747 0.2783
N1 N 0.1312(3) 0.1318(4) 0.39130(15)
N2 N 0.1980(3) 0.0781(4) 0.42466(14)
N3 N 0.5209(3) 0.4698(5) 0.35095(19)
H29 H 0.5205 0.5547 0.3650
N4 N 0.2688(4) -0.4777(6) 0.2882(2)
H30 H 0.2249 -0.5382 0.2904
O1 O -0.0038(2) 0.3551(5) 0.14817(14)
H31 H 0.0186 0.3847 0.1236
O2 O 0.1347(3) 0.2760(4) 0.16582(13)
O3 O 0.1827(2) 0.1834(5) 0.25212(14)
H32 H 0.1951 0.2290 0.2277
O4 O 0.3982(2) -0.0118(4) 0.33283(13)
O5 O 0.1052(2) 0.1074(5) 0.48811(12)
loop_
_geom_bond_atom_site_label_1
_geom_bond_atom_site_label_2
_geom_bond_site_symmetry_1
_geom_bond_site_symmetry_2
C1 C2 1_555 1_555
C2 C3 1_555 1_555
C3 C4 1_555 1_555
C4 C5 1_555 1_555
C5 H1 1_555 1_555
C6 C5 1_555 1_555
H2 C6 1_555 1_555
C7 C2 1_555 1_555
H3 C7 1_555 1_555
C8 C4 1_555 1_555
H4 C8 1_555 1_555
C9 C10 1_555 1_555
C10 C11 1_555 1_555
C11 C12 1_555 1_555
C12 H5 1_555 1_555
C13 C12 1_555 1_555
H6 C13 1_555 1_555
C14 C13 1_555 1_555
H7 C14 1_555 1_555
C15 C10 1_555 1_555
H8 C15 1_555 1_555
C16 H9 1_555 1_555
H10 C16 1_555 1_555
H11 C16 1_555 1_555
C17 C16 1_555 1_555
C18 C17 1_555 1_555
C19 C18 1_555 1_555
H12 C19 1_555 1_555
C20 C19 1_555 1_555
C21 C20 1_555 1_555
C22 C17 1_555 1_555
H13 C22 1_555 1_555
C23 H14 1_555 1_555
H15 C23 1_555 1_555
C24 C23 1_555 1_555
H16 C24 1_555 1_555
H17 C24 1_555 1_555
H18 C24 1_555 1_555
C25 C26 1_555 1_555
C26 H19 1_555 1_555
C27 C26 1_555 1_555
C28 C27 1_555 1_555
C29 C28 1_555 1_555
H20 C29 1_555 1_555
C30 C25 1_555 1_555
C31 C11 1_555 1_555
C32 C28 1_555 1_555
H21 C32 1_555 1_555
H22 C32 1_555 1_555
H23 C32 1_555 1_555
C33 H24 1_555 1_555
H25 C33 1_555 1_555
C34 C33 1_555 1_555
H26 C34 1_555 1_555
H27 C34 1_555 1_555
H28 C34 1_555 1_555
N1 C8 1_555 1_555
N2 C9 1_555 1_555
N3 C27 1_555 1_555
H29 N3 1_555 1_555
N4 C18 1_555 1_555
H30 N4 1_555 1_555
O1 C1 1_555 1_555
H31 O1 1_555 1_555
O2 C1 1_555 1_555
O3 C3 1_555 1_555
H32 O3 1_555 1_555
O4 C20 1_555 1_555
O5 C9 1_555 1_555
C6 C7 1_555 1_555
C14 C15 1_555 1_555
C21 C22 1_555 1_555
C21 C31 1_555 1_555
C23 N4 1_555 1_555
C25 O4 1_555 1_555
C29 C30 1_555 1_555
C30 C31 1_555 1_555
C31 N2 1_555 1_555
C33 N3 1_555 1_555
N1 N2 1_555 1_555

#END
