
#######################################################################
#
#                 Cambridge Crystallographic Data Centre
#                                CCDC 
#
#######################################################################
#
# If this CIF has been generated from an entry in the Cambridge 
# Structural Database, then it will include bibliographic, chemical, 
# crystal, experimental, refinement or atomic coordinate data resulting 
# from the CCDC's data processing and validation procedures.
#
#######################################################################

data_GOPLII
_chemical_name_common            'Paliperidone 4-hydroxybenzoic acid'
_chemical_formula_moiety         'C23 H27 F1 N4 O3,C7 H6 O3'
_chemical_name_systematic        
'3-(2-(4-(6-Fluoro-1,2-benzoxazol-3-yl)piperidin-1-yl)ethyl)-9-hydroxy-2-methyl-6,7,8,9-tetrahydro-4H-pyrido[1,2-a]pyrimidin-4-one 4-hydroxybenzoic acid'
_chemical_properties_biological  'Paliperidone has antipsychotic activity'
_symmetry_cell_setting           triclinic
_symmetry_space_group_name_H-M   'P -1'
_symmetry_Int_Tables_number      2
_space_group_name_Hall           '-P 1'
loop_
_symmetry_equiv_pos_site_id
_symmetry_equiv_pos_as_xyz
1 x,y,z
2 -x,-y,-z
_cell_length_a                   10.9347(6)
_cell_length_b                   12.6382(7)
_cell_length_c                   12.7232(7)
_cell_angle_alpha                61.420(1)
_cell_angle_beta                 66.901(1)
_cell_angle_gamma                68.104(1)
_cell_volume                     1382.4
_cell_formula_units_Z            2
loop_
_atom_site_label
_atom_site_type_symbol
_atom_site_fract_x
_atom_site_fract_y
_atom_site_fract_z
C1 C 0.2456(2) 0.1352(2) -0.4247(2)
H1 H 0.1740 0.1357 -0.3545
C2 C 0.2571(3) 0.0683(2) -0.4884(2)
H2 H 0.1935 0.0222 -0.4617
C3 C 0.3657(3) 0.0704(2) -0.5940(2)
C4 C 0.4641(3) 0.1351(2) -0.6404(2)
H3 H 0.5350 0.1350 -0.7112
C5 C 0.4494(2) 0.2007(2) -0.5730(2)
C6 C 0.3437(2) 0.2026(2) -0.4677(2)
C7 C 0.3711(2) 0.2806(2) -0.4303(2)
C8 C 0.2895(2) 0.3125(2) -0.3187(2)
H4 H 0.1936 0.3427 -0.3210
C9 C 0.3292(3) 0.4119(2) -0.3122(2)
H5 H 0.4241 0.3848 -0.3104
H6 H 0.3197 0.4871 -0.3857
C10 C 0.2398(3) 0.4382(2) -0.1975(2)
H7 H 0.2692 0.4996 -0.1938
H8 H 0.1460 0.4722 -0.2032
C11 C 0.2068(3) 0.2280(3) -0.0867(2)
H9 H 0.1126 0.2563 -0.0909
H10 H 0.2134 0.1542 -0.0115
C12 C 0.2989(3) 0.1969(2) -0.1991(2)
H11 H 0.2714 0.1330 -0.2004
H12 H 0.3926 0.1654 -0.1933
C13 C 0.1599(2) 0.3542(2) 0.0275(2)
H13 H 0.0653 0.3609 0.0367
H14 H 0.1678 0.4339 0.0140
C14 C 0.1985(2) 0.2572(2) 0.1474(2)
H15 H 0.1880 0.1779 0.1625
H16 H 0.2937 0.2488 0.1377
C15 C 0.1116(2) 0.2907(2) 0.2581(2)
C16 C 0.0078(2) 0.2247(2) 0.3447(2)
C17 C 0.2379(3) 0.4499(3) 0.2022(3)
H17 H 0.2910 0.4253 0.1337
H18 H 0.2964 0.4343 0.2504
H19 H 0.1957 0.5367 0.1715
C18 C 0.1301(2) 0.3776(2) 0.2817(2)
C19 C -0.0438(2) 0.3437(2) 0.4635(2)
C20 C -0.1277(3) 0.3766(3) 0.5763(2)
C21 C -0.2582(4) 0.3263(4) 0.6446(3)
H20 H -0.2987 0.3345 0.7240
H21 H -0.3243 0.3724 0.5958
C22 C -0.2200(4) 0.1963(3) 0.6632(3)
H22 H -0.3173 0.2320 0.6743
H23 H -0.2101 0.1143 0.7286
C23 C -0.1676(3) 0.1782(3) 0.5429(2)
H24 H -0.1256 0.0914 0.5588
H25 H -0.2438 0.2013 0.5092
F1 F 0.3735(2) 0.0036(2) -0.6548(2)
N1 N 0.4802(2) 0.3206(2) -0.5039(2)
N2 N 0.2462(2) 0.3249(2) -0.0825(2)
N3 N 0.0485(2) 0.4061(2) 0.3832(2)
N4 N -0.0658(2) 0.2535(2) 0.4497(2)
O1 O 0.5334(2) 0.2707(2) -0.5979(2)
O2 O -0.0206(2) 0.1435(2) 0.3361(2)
O3 O -0.1734(4) 0.4878(4) 0.5468(4)
H26 H -0.1103 0.5232 0.5102
C25 C 0.8686(2) 0.1253(2) 0.1284(2)
C26 C 0.7889(3) 0.2393(2) 0.1296(2)
H30 H 0.8068 0.2768 0.1679
C27 C 0.6810(3) 0.2983(2) 0.0729(2)
H31 H 0.6274 0.3751 0.0733
C28 C 0.6540(2) 0.2421(2) 0.0163(2)
C29 C 0.5350(2) 0.3033(2) -0.0368(2)
C30 C 0.7344(3) 0.1272(2) 0.0166(2)
H32 H 0.7160 0.0887 -0.0203
C31 C 0.8405(3) 0.0703(2) 0.0709(2)
H33 H 0.8944 -0.0060 0.0693
O5 O 0.9740(2) 0.0633(2) 0.1806(2)
H34 H 0.9689 0.0929 0.2276
O6 O 0.4718(2) 0.4092(2) -0.0525(2)
O7 O 0.5006(2) 0.2305(2) -0.0642(2)
H35 H 0.4142 0.2694 -0.0772
C24? C -0.1719(13) 0.2615(11) 0.6854(9)
H27? H -0.0938 0.2077 0.7182
H28? H -0.2410 0.2874 0.7501
O4? O -0.0460(2) 0.3550(2) 0.6432(2)
H29? H 0.0143 0.3933 0.5989
loop_
_geom_bond_atom_site_label_1
_geom_bond_atom_site_label_2
_geom_bond_site_symmetry_1
_geom_bond_site_symmetry_2
C1 H1 1_555 1_555
C2 C1 1_555 1_555
H2 C2 1_555 1_555
C3 C2 1_555 1_555
C4 C3 1_555 1_555
H3 C4 1_555 1_555
C5 C4 1_555 1_555
C6 C1 1_555 1_555
C7 C6 1_555 1_555
C8 C7 1_555 1_555
H4 C8 1_555 1_555
C9 C8 1_555 1_555
H5 C9 1_555 1_555
H6 C9 1_555 1_555
C10 C9 1_555 1_555
H7 C10 1_555 1_555
H8 C10 1_555 1_555
C11 H9 1_555 1_555
H10 C11 1_555 1_555
C12 C8 1_555 1_555
H11 C12 1_555 1_555
H12 C12 1_555 1_555
C13 H13 1_555 1_555
H14 C13 1_555 1_555
C14 C13 1_555 1_555
H15 C14 1_555 1_555
H16 C14 1_555 1_555
C15 C14 1_555 1_555
C16 C15 1_555 1_555
C17 H17 1_555 1_555
H18 C17 1_555 1_555
H19 C17 1_555 1_555
C18 C15 1_555 1_555
C19 C20 1_555 1_555
C20 C21 1_555 1_555
C21 H20 1_555 1_555
H21 C21 1_555 1_555
C22 C21 1_555 1_555
H22 C22 1_555 1_555
H23 C22 1_555 1_555
C23 C22 1_555 1_555
H24 C23 1_555 1_555
H25 C23 1_555 1_555
F1 C3 1_555 1_555
N1 C7 1_555 1_555
N2 C10 1_555 1_555
N3 C18 1_555 1_555
N4 C16 1_555 1_555
O1 C5 1_555 1_555
O2 C16 1_555 1_555
O3 C20 1_555 1_555
H26 O3 1_555 1_555
C25 C26 1_555 1_555
C26 H30 1_555 1_555
C27 C26 1_555 1_555
H31 C27 1_555 1_555
C28 C27 1_555 1_555
C29 C28 1_555 1_555
C30 C28 1_555 1_555
H32 C30 1_555 1_555
C31 C25 1_555 1_555
H33 C31 1_555 1_555
O5 C25 1_555 1_555
H34 O5 1_555 1_555
O6 C29 1_555 1_555
O7 C29 1_555 1_555
H35 O7 1_555 1_555
C5 C6 1_555 1_555
C11 C12 1_555 1_555
C11 N2 1_555 1_555
C13 N2 1_555 1_555
C17 C18 1_555 1_555
C19 N3 1_555 1_555
C19 N4 1_555 1_555
C23 N4 1_555 1_555
N1 O1 1_555 1_555
C30 C31 1_555 1_555

#END
