
#######################################################################
#
#                 Cambridge Crystallographic Data Centre
#                                CCDC 
#
#######################################################################
#
# If this CIF has been generated from an entry in the Cambridge 
# Structural Database, then it will include bibliographic, chemical, 
# crystal, experimental, refinement or atomic coordinate data resulting 
# from the CCDC's data processing and validation procedures.
#
#######################################################################

data_GOPPUY
_chemical_formula_moiety         'C22 H14 N2'
_chemical_name_systematic        13,14-dihydrobenzo[c]indolo[2,3-a]carbazole
_symmetry_cell_setting           monoclinic
_symmetry_space_group_name_H-M   'P 21/n'
_symmetry_Int_Tables_number      14
_space_group_name_Hall           '-P 2yn'
loop_
_symmetry_equiv_pos_site_id
_symmetry_equiv_pos_as_xyz
1 x,y,z
2 1/2-x,1/2+y,1/2-z
3 -x,-y,-z
4 1/2+x,1/2-y,1/2+z
_cell_length_a                   9.1083(18)
_cell_length_b                   9.872(2)
_cell_length_c                   16.583(3)
_cell_angle_alpha                90
_cell_angle_beta                 101.24(3)
_cell_angle_gamma                90
_cell_volume                     1462.5
_exptl_crystal_colour            colorless
_exptl_crystal_description       plate
_chemical_melting_point          'above 200 deg.C'
_cell_formula_units_Z            4
_exptl_crystal_preparation       Luminescent
loop_
_atom_site_label
_atom_site_type_symbol
_atom_site_fract_x
_atom_site_fract_y
_atom_site_fract_z
N1 N 0.72652(15) 1.05457(16) 0.18946(8)
H1 H 0.6603 1.1171 0.1880
N2 N 0.61774(15) 1.12085(15) 0.00176(8)
H2 H 0.5686 1.1749 0.0274
C1 C 0.62802(19) 1.0745(2) -0.24343(11)
H3 H 0.6340 1.0616 -0.2983
C2 C 1.10744(19) 0.6530(2) 0.04996(12)
H4 H 1.1810 0.5878 0.0658
C3 C 0.5339(2) 1.1754(2) -0.22274(11)
H5 H 0.4782 1.2284 -0.2640
C4 C 1.05241(19) 0.6771(2) -0.03326(12)
H6 H 1.0889 0.6275 -0.0728
C5 C 0.8935(2) 0.9473(2) 0.40123(11)
H7 H 0.8871 0.9581 0.4562
C6 C 0.71238(19) 0.99363(19) -0.18355(10)
H8 H 0.7749 0.9273 -0.1981
C7 C 0.77060(17) 0.99782(18) 0.12217(10)
C8 C 0.88708(17) 0.85131(18) 0.00147(10)
C9 C 0.52263(19) 1.1970(2) -0.14247(11)
H9 H 0.4604 1.2643 -0.1287
C10 C 1.01162(18) 0.8379(2) 0.29942(11)
H10 H 1.0837 0.7792 0.2867
C11 C 1.00388(19) 0.8628(2) 0.38076(11)
H11 H 1.0733 0.8225 0.4224
C12 C 1.05333(18) 0.72533(19) 0.10864(11)
H12 H 1.0904 0.7075 0.1639
C13 C 0.94456(18) 0.77385(19) -0.05706(11)
H13 H 0.9085 0.7888 -0.1128
C14 C 0.71992(17) 1.02556(18) 0.03781(10)
C15 C 0.60710(18) 1.11545(18) -0.08217(10)
C16 C 0.79358(19) 1.0152(2) 0.34129(11)
H14 H 0.7209 1.0723 0.3549
C17 C 0.90987(18) 0.90183(18) 0.23624(10)
C18 C 0.80613(18) 0.99462(18) 0.25963(10)
C19 C 0.77591(17) 0.95488(17) -0.02195(10)
C20 C 0.70307(17) 1.01234(18) -0.10026(10)
C21 C 0.94298(16) 0.82579(18) 0.08694(10)
C22 C 0.88319(17) 0.90221(18) 0.14696(10)
loop_
_geom_bond_atom_site_label_1
_geom_bond_atom_site_label_2
_geom_bond_site_symmetry_1
_geom_bond_site_symmetry_2
N1 H1 1_555 1_555
N2 H2 1_555 1_555
C1 H3 1_555 1_555
C2 H4 1_555 1_555
C3 C1 1_555 1_555
H5 C3 1_555 1_555
C4 C2 1_555 1_555
H6 C4 1_555 1_555
C5 H7 1_555 1_555
C6 C1 1_555 1_555
H8 C6 1_555 1_555
C7 N1 1_555 1_555
C8 C13 1_555 1_555
C9 C3 1_555 1_555
H9 C9 1_555 1_555
C10 H10 1_555 1_555
C11 C5 1_555 1_555
H11 C11 1_555 1_555
C12 C2 1_555 1_555
H12 C12 1_555 1_555
C13 C4 1_555 1_555
H13 C13 1_555 1_555
C14 N2 1_555 1_555
C15 N2 1_555 1_555
C16 C5 1_555 1_555
H14 C16 1_555 1_555
C17 C10 1_555 1_555
C18 N1 1_555 1_555
C19 C8 1_555 1_555
C20 C6 1_555 1_555
C21 C8 1_555 1_555
C22 C7 1_555 1_555
C7 C14 1_555 1_555
C9 C15 1_555 1_555
C10 C11 1_555 1_555
C12 C21 1_555 1_555
C14 C19 1_555 1_555
C15 C20 1_555 1_555
C16 C18 1_555 1_555
C17 C18 1_555 1_555
C17 C22 1_555 1_555
C19 C20 1_555 1_555
C21 C22 1_555 1_555

#END
