
#######################################################################
#
#                 Cambridge Crystallographic Data Centre
#                                CCDC 
#
#######################################################################
#
# If this CIF has been generated from an entry in the Cambridge 
# Structural Database, then it will include bibliographic, chemical, 
# crystal, experimental, refinement or atomic coordinate data resulting 
# from the CCDC's data processing and validation procedures.
#
#######################################################################

data_GOQBAP01
_chemical_formula_moiety         'C20 H12 S8'
_chemical_name_systematic        
9-(4,5-Di(methylsulfanyl)-1,3-dithiol-2-ylidene)acenaphthyleno(1,2-b)(1,3)dithiolo(4,5-e)(1,4)dithiine
_symmetry_cell_setting           monoclinic
_symmetry_space_group_name_H-M   'P 21/c'
_symmetry_Int_Tables_number      14
_space_group_name_Hall           '-P 2ybc'
loop_
_symmetry_equiv_pos_site_id
_symmetry_equiv_pos_as_xyz
1 x,y,z
2 x,1/2-y,1/2+z
3 -x,-y,-z
4 -x,1/2+y,1/2-z
_cell_length_a                   17.166(1)
_cell_length_b                   7.714(1)
_cell_length_c                   16.897(1)
_cell_angle_alpha                90
_cell_angle_beta                 115.71(1)
_cell_angle_gamma                90
_cell_volume                     2015.97
_exptl_crystal_colour            'dark red'
_exptl_crystal_description       plate
_chemical_melting_point          460-463K
_cell_formula_units_Z            4
loop_
_atom_site_label
_atom_site_type_symbol
_atom_site_fract_x
_atom_site_fract_y
_atom_site_fract_z
S1 S 0.42653(4) 0.56000(9) 0.12429(4)
S2 S 0.54767(4) 0.54754(9) 0.34303(4)
S3 S 0.57651(4) 0.39471(9) 0.10857(4)
S4 S 0.68852(4) 0.39793(9) 0.30129(4)
S5 S 0.73451(4) 0.25652(10) 0.07208(4)
S6 S 0.84957(4) 0.25441(9) 0.26290(4)
S7 S 0.84642(5) 0.00493(10) 0.03100(5)
S8 S 0.98042(4) 0.01664(9) 0.23845(5)
C1 C 0.3036(2) 0.4137(3) 0.1785(2)
C2 C 0.2298(2) 0.3874(4) 0.1024(2)
H1 H 0.2276(20) 0.4145(43) 0.0477(21)
C3 C 0.1571(2) 0.3121(4) 0.1101(2)
H2 H 0.1067(20) 0.2928(39) 0.0613(20)
C4 C 0.1587(2) 0.2659(4) 0.1895(2)
H3 H 0.1092(23) 0.2132(48) 0.1913(23)
C5 C 0.2495(2) 0.2511(4) 0.3564(2)
H4 H 0.2072(22) 0.2026(47) 0.3702(22)
C6 C 0.3285(2) 0.2844(4) 0.4256(2)
H5 H 0.3359(20) 0.2567(42) 0.4799(21)
C7 C 0.3989(2) 0.3589(4) 0.4138(2)
H6 H 0.4497(19) 0.3722(38) 0.4608(19)
C8 C 0.3868(2) 0.4009(3) 0.3303(2)
C9 C 0.3049(2) 0.3678(3) 0.2600(2)
C10 C 0.2351(2) 0.2928(3) 0.2687(2)
C11 C 0.3907(2) 0.4836(3) 0.2005(2)
C12 C 0.4396(2) 0.4769(3) 0.2891(2)
C13 C 0.5336(2) 0.4831(3) 0.1769(2)
C14 C 0.5828(2) 0.4811(3) 0.2637(2)
C15 C 0.6798(2) 0.3576(3) 0.1948(2)
C16 C 0.7457(2) 0.2994(3) 0.1789(2)
C17 C 0.8294(2) 0.1309(3) 0.1083(2)
C18 C 0.8828(2) 0.1319(3) 0.1952(2)
C19 C 0.9042(2) 0.1551(5) -0.0065(2)
H7 H 0.9180(22) 0.0939(47) -0.0485(23)
H8 H 0.9542(25) 0.1922(51) 0.0425(26)
H9 H 0.8701(25) 0.2538(53) -0.0355(25)
C20 C 1.0250(2) 0.0627(4) 0.3545(2)
H10 H 1.0758(20) -0.0040(42) 0.3814(20)
H11 H 1.0408(21) 0.1875(47) 0.3678(21)
H12 H 0.9864(23) 0.0336(47) 0.3770(23)
loop_
_geom_bond_atom_site_label_1
_geom_bond_atom_site_label_2
_geom_bond_site_symmetry_1
_geom_bond_site_symmetry_2
S1 C11 1_555 1_555
S2 C12 1_555 1_555
S3 C13 1_555 1_555
S4 C14 1_555 1_555
S5 C16 1_555 1_555
S6 C16 1_555 1_555
S7 C17 1_555 1_555
S8 C18 1_555 1_555
C1 C2 1_555 1_555
C2 H1 1_555 1_555
C3 C2 1_555 1_555
H2 C3 1_555 1_555
C4 C3 1_555 1_555
H3 C4 1_555 1_555
C5 H4 1_555 1_555
C6 C5 1_555 1_555
H5 C6 1_555 1_555
C7 C6 1_555 1_555
H6 C7 1_555 1_555
C8 C7 1_555 1_555
C9 C1 1_555 1_555
C10 C4 1_555 1_555
C11 C1 1_555 1_555
C12 C8 1_555 1_555
C13 S1 1_555 1_555
C14 S2 1_555 1_555
C15 S3 1_555 1_555
C16 C15 1_555 1_555
C17 S5 1_555 1_555
C18 S6 1_555 1_555
C19 S7 1_555 1_555
H7 C19 1_555 1_555
H8 C19 1_555 1_555
H9 C19 1_555 1_555
C20 S8 1_555 1_555
H10 C20 1_555 1_555
H11 C20 1_555 1_555
H12 C20 1_555 1_555
S4 C15 1_555 1_555
C5 C10 1_555 1_555
C8 C9 1_555 1_555
C9 C10 1_555 1_555
C11 C12 1_555 1_555
C13 C14 1_555 1_555
C17 C18 1_555 1_555

#END
