
#######################################################################
#
#                 Cambridge Crystallographic Data Centre
#                                CCDC 
#
#######################################################################
#
# If this CIF has been generated from an entry in the Cambridge 
# Structural Database, then it will include bibliographic, chemical, 
# crystal, experimental, refinement or atomic coordinate data resulting 
# from the CCDC's data processing and validation procedures.
#
#######################################################################

data_GOQCEW01
_chemical_formula_moiety         '2(C8 H20 N1 1+),C4 H4 O4,C4 H2 O4 2-'
_chemical_name_systematic        'bis(di-n-butylammonium) fumaric acid fumarate'
_symmetry_cell_setting           triclinic
_symmetry_space_group_name_H-M   'P -1'
_symmetry_Int_Tables_number      2
_space_group_name_Hall           '-P 1'
loop_
_symmetry_equiv_pos_site_id
_symmetry_equiv_pos_as_xyz
1 x,y,z
2 -x,-y,-z
_cell_length_a                   9.0851(5)
_cell_length_b                   12.8719(4)
_cell_length_c                   12.9349(6)
_cell_angle_alpha                100.258(3)
_cell_angle_beta                 90.572(4)
_cell_angle_gamma                93.606(4)
_cell_volume                     1485.17
_cell_formula_units_Z            2
loop_
_atom_site_label
_atom_site_type_symbol
_atom_site_fract_x
_atom_site_fract_y
_atom_site_fract_z
N1 N 0.0440(2) 0.65846(16) 0.48421(18)
H1 H 0.1206 0.6173 0.4896
H2 H -0.0404 0.6156 0.4768
C1 C 0.0375(3) 0.7372(2) 0.5831(2)
H3 H -0.0450 0.7817 0.5781
H4 H 0.1287 0.7830 0.5924
C2 C 0.0624(3) 0.7064(2) 0.3890(2)
H5 H 0.1420 0.7624 0.4018
H6 H -0.0287 0.7388 0.3748
C3 C 0.0179(4) 0.6838(2) 0.6763(2)
H7 H 0.1014 0.6402 0.6816
H8 H -0.0721 0.6368 0.6659
C4 C 0.0975(4) 0.6270(3) 0.2951(3)
H9 H 0.0130 0.5755 0.2774
H10 H 0.1820 0.5889 0.3120
C5 C 0.1332(5) 0.6788(3) 0.2009(3)
H11 H 0.0470 0.7145 0.1826
H12 H 0.2146 0.7327 0.2200
C6 C 0.0077(5) 0.7618(3) 0.7783(3)
H13 H 0.0955 0.8110 0.7869
H14 H -0.0786 0.8030 0.7743
C7 C 0.1750(7) 0.6015(5) 0.1070(4)
H15 H 0.1942 0.6383 0.0488
H16 H 0.0949 0.5478 0.0877
H17 H 0.2630 0.5683 0.1236
C8 C -0.0046(9) 0.7084(4) 0.8729(3)
H18 H -0.1008 0.6710 0.8720
H19 H 0.0076 0.7613 0.9364
H20 H 0.0716 0.6586 0.8710
O1 O 0.1297(2) 0.98486(19) 0.33106(16)
C9 C -0.0454(3) 0.97866(19) 0.4609(2)
H21 H -0.1396 0.9527 0.4775
C10 C -0.0084(3) 0.9690(2) 0.3489(2)
O2 O -0.1015(2) 0.9485(3) 0.28147(18)
H22 H 0.149(5) 0.983(3) 0.257(4)
O1A O -0.1297(2) 1.01514(19) 0.66894(16)
C9A C 0.0454(3) 1.02134(19) 0.5391(2)
H21A H 0.1396 1.0473 0.5225
C10A C 0.0084(3) 1.0310(2) 0.6511(2)
O2A O 0.1015(2) 1.0515(3) 0.71853(18)
H22A H -0.149(5) 1.017(3) 0.743(4)
O3 O -0.2728(2) 0.65730(17) 0.4629(2)
O4 O -0.2159(2) 0.50126(16) 0.4814(2)
C11 C -0.3100(3) 0.5665(2) 0.4776(2)
C12 C -0.4739(3) 0.5435(2) 0.4878(2)
H23 H -0.5391 0.5943 0.4760
O3A O -0.7272(2) 0.34270(17) 0.5371(2)
O4A O -0.7841(2) 0.49874(16) 0.5186(2)
C11A C -0.6900(3) 0.4335(2) 0.5224(2)
C12A C -0.5261(3) 0.4565(2) 0.5122(2)
H23A H -0.4609 0.4057 0.5240
N2 N 0.4676(2) 0.01549(18) 0.83863(16)
H24 H 0.3956 0.0083 0.8857
H25 H 0.5553 0.0270 0.8748
C13 C 0.4700(3) -0.0852(2) 0.7623(2)
H26 H 0.5492 -0.0790 0.7125
H27 H 0.3763 -0.0981 0.7225
C14 C 0.4422(3) 0.1094(2) 0.7911(2)
H28 H 0.3586 0.0926 0.7412
H29 H 0.5295 0.1267 0.7520
C15 C 0.4935(4) -0.1768(3) 0.8162(2)
H30 H 0.4126 -0.1840 0.8645
H31 H 0.5855 -0.1624 0.8580
C16 C 0.4113(5) 0.2029(3) 0.8712(3)
H32 H 0.4986 0.2244 0.9168
H33 H 0.3300 0.1839 0.9149
C17 C 0.3704(6) 0.2952(3) 0.8196(4)
H34 H 0.4560 0.3188 0.7823
H35 H 0.2910 0.2705 0.7675
C18 C 0.5013(6) -0.2799(3) 0.7394(3)
H36 H 0.5846 -0.2737 0.6929
H37 H 0.4109 -0.2929 0.6958
C19 C 0.5193(9) -0.3735(4) 0.7942(4)
H38 H 0.5273 -0.4370 0.7421
H39 H 0.4343 -0.3826 0.8373
H40 H 0.6078 -0.3606 0.8384
C20 C 0.3221(8) 0.3859(4) 0.8946(5)
H41 H 0.2950 0.4408 0.8568
H42 H 0.4019 0.4134 0.9443
H43 H 0.2375 0.3634 0.9322
O5 O 0.3737(2) 0.16595(16) 0.51389(19)
C21 C 0.5459(3) 0.04062(19) 0.51652(19)
H44 H 0.6416 0.0271 0.5364
C22 C 0.5113(3) 0.1524(2) 0.5252(2)
O6 O 0.6064(2) 0.22317(17) 0.5400(3)
H45 H 0.356(4) 0.236(3) 0.510(3)
O5A O 0.6263(2) -0.16595(16) 0.48611(19)
C21A C 0.4541(3) -0.04062(19) 0.48348(19)
H44A H 0.3584 -0.0271 0.4636
C22A C 0.4887(3) -0.1524(2) 0.4748(2)
O6A O 0.3936(2) -0.22317(17) 0.4600(3)
H45A H 0.644(4) -0.236(3) 0.490(3)
O7 O 0.7734(2) 0.0413(2) 0.85196(17)
C23 C 0.9734(3) 0.0131(2) 0.95768(19)
H46 H 1.0391 0.0240 0.9044
C24 C 0.8141(3) 0.0266(2) 0.9406(2)
O8 O 0.7253(2) 0.0238(2) 1.01189(18)
O7A O 1.2266(2) -0.0413(2) 1.14804(17)
C23A C 1.0266(3) -0.0131(2) 1.04232(19)
H46A H 0.9609 -0.0240 1.0956
C24A C 1.1859(3) -0.0266(2) 1.0594(2)
O8A O 1.2747(2) -0.0238(2) 0.98811(18)
loop_
_geom_bond_atom_site_label_1
_geom_bond_atom_site_label_2
_geom_bond_site_symmetry_1
_geom_bond_site_symmetry_2
N1 H1 1_555 1_555
H2 N1 1_555 1_555
C1 N1 1_555 1_555
H3 C1 1_555 1_555
H4 C1 1_555 1_555
C2 N1 1_555 1_555
H5 C2 1_555 1_555
H6 C2 1_555 1_555
C3 C1 1_555 1_555
H7 C3 1_555 1_555
H8 C3 1_555 1_555
C4 C2 1_555 1_555
H9 C4 1_555 1_555
H10 C4 1_555 1_555
C5 C4 1_555 1_555
H11 C5 1_555 1_555
H12 C5 1_555 1_555
C6 C3 1_555 1_555
H13 C6 1_555 1_555
H14 C6 1_555 1_555
C7 C5 1_555 1_555
H15 C7 1_555 1_555
H16 C7 1_555 1_555
H17 C7 1_555 1_555
C8 C6 1_555 1_555
H18 C8 1_555 1_555
H19 C8 1_555 1_555
H20 C8 1_555 1_555
O1 C10 1_555 1_555
C9 H21 1_555 1_555
C10 C9 1_555 1_555
O2 C10 1_555 1_555
H22 O1 1_555 1_555
O3 C11 1_555 1_555
O4 C11 1_555 1_555
C11 C12 1_555 1_555
C12 H23 1_555 1_555
N2 H24 1_555 1_555
H25 N2 1_555 1_555
C13 N2 1_555 1_555
H26 C13 1_555 1_555
H27 C13 1_555 1_555
C14 N2 1_555 1_555
H28 C14 1_555 1_555
H29 C14 1_555 1_555
C15 C13 1_555 1_555
H30 C15 1_555 1_555
H31 C15 1_555 1_555
C16 C14 1_555 1_555
H32 C16 1_555 1_555
H33 C16 1_555 1_555
C17 C16 1_555 1_555
H34 C17 1_555 1_555
H35 C17 1_555 1_555
C18 C15 1_555 1_555
H36 C18 1_555 1_555
H37 C18 1_555 1_555
C19 C18 1_555 1_555
H38 C19 1_555 1_555
H39 C19 1_555 1_555
H40 C19 1_555 1_555
C20 C17 1_555 1_555
H41 C20 1_555 1_555
H42 C20 1_555 1_555
H43 C20 1_555 1_555
O5 C22 1_555 1_555
C21 H44 1_555 1_555
C22 C21 1_555 1_555
O6 C22 1_555 1_555
H45 O5 1_555 1_555
O7 C24 1_555 1_555
C23 H46 1_555 1_555
C24 C23 1_555 1_555
O8 C24 1_555 1_555
O1A C10A 1_555 1_555
C9A C9 1_555 1_555
H21A C9A 1_555 1_555
C10A C9A 1_555 1_555
O2A C10A 1_555 1_555
H22A O1A 1_555 1_555
O3A C11A 1_555 1_555
O4A C11A 1_555 1_555
C11A C12A 1_555 1_555
C12A C12 1_555 1_555
H23A C12A 1_555 1_555
O5A C22A 1_555 1_555
C21A C21 1_555 1_555
H44A C21A 1_555 1_555
C22A C21A 1_555 1_555
O6A C22A 1_555 1_555
H45A O5A 1_555 1_555
O7A C24A 1_555 1_555
C23A C23 1_555 1_555
H46A C23A 1_555 1_555
C24A C23A 1_555 1_555
O8A C24A 1_555 1_555

#END
