
#######################################################################
#
#                 Cambridge Crystallographic Data Centre
#                                CCDC 
#
#######################################################################
#
# If this CIF has been generated from an entry in the Cambridge 
# Structural Database, then it will include bibliographic, chemical, 
# crystal, experimental, refinement or atomic coordinate data resulting 
# from the CCDC's data processing and validation procedures.
#
#######################################################################

data_GOQCEW
_chemical_formula_moiety         '2(C8 H20 N1 1+),C4 H4 O4,C4 H2 O4 2-'
_chemical_name_systematic        'bis(di-n-butylammonium) fumaric acid fumarate'
_symmetry_cell_setting           monoclinic
_symmetry_space_group_name_H-M   'C 2/c'
_symmetry_Int_Tables_number      15
_space_group_name_Hall           '-C 2yn'
loop_
_symmetry_equiv_pos_site_id
_symmetry_equiv_pos_as_xyz
1 x,y,z
2 -x,y,1/2-z
3 1/2+x,1/2+y,z
4 1/2-x,1/2+y,1/2-z
5 -x,-y,-z
6 x,-y,1/2+z
7 1/2-x,1/2-y,-z
8 1/2+x,1/2-y,1/2+z
_cell_length_a                   16.6386(9)
_cell_length_b                   19.8615(10)
_cell_length_c                   9.0962(5)
_cell_angle_alpha                90
_cell_angle_beta                 92.422(4)
_cell_angle_gamma                90
_cell_volume                     3003.31
_cell_formula_units_Z            4
loop_
_atom_site_label
_atom_site_type_symbol
_atom_site_fract_x
_atom_site_fract_y
_atom_site_fract_z
N1 N 0.17742(13) 0.33739(10) 0.4627(2)
H1 H 0.2003 0.3231 0.5498
H2 H 0.1975 0.3116 0.3902
C1 C 0.20126(17) 0.40821(13) 0.4386(3)
H3 H 0.1889 0.4349 0.5255
H4 H 0.1696 0.4264 0.3545
C2 C 0.08934(16) 0.32639(14) 0.4649(3)
H5 H 0.0640 0.3417 0.3715
H6 H 0.0673 0.3532 0.5442
C3 C 0.06961(18) 0.25339(15) 0.4877(4)
H7 H 0.0968 0.2378 0.5791
H8 H 0.0902 0.2270 0.4065
C4 C 0.2881(2) 0.41506(16) 0.4107(4)
H9 H 0.3018 0.3851 0.3298
H10 H 0.3200 0.4013 0.4987
C5 C 0.3096(3) 0.4877(2) 0.3712(6)
H11 H 0.2731 0.5029 0.2905
H12 H 0.3010 0.5166 0.4564
C6 C -0.0195(2) 0.24115(19) 0.4960(6)
H13 H -0.0469 0.2589 0.4068
H14 H -0.0395 0.2659 0.5802
C7 C -0.0404(3) 0.1674(2) 0.5116(8)
H15 H -0.0181 0.1421 0.4316
H16 H -0.0984 0.1622 0.5084
H17 H -0.0181 0.1506 0.6048
C8 C 0.3918(3) 0.4957(3) 0.3275(7)
H18 H 0.4014 0.4662 0.2453
H19 H 0.4284 0.4843 0.4096
H20 H 0.4005 0.5421 0.2986
O1 O 0.09033(13) 0.57698(11) 0.3716(2)
C9 C 0.02876(15) 0.51033(12) 0.5448(3)
H21 H 0.0323 0.4912 0.6394
C10 C 0.08922(16) 0.56164(13) 0.5090(3)
O2 O 0.13260(16) 0.58677(14) 0.6014(2)
H22 H 0.127(2) 0.6082(19) 0.357(4)
O1D O -0.09033(13) 0.42302(11) 0.6284(2)
C9D C -0.02876(15) 0.48967(12) 0.4552(3)
H21D H -0.0323 0.5088 0.3606
C10D C -0.08922(16) 0.43836(13) 0.4910(3)
O2D O -0.13260(16) 0.41323(14) 0.3986(2)
H22D H -0.127(2) 0.3918(19) 0.643(4)
O3 O 0.19174(14) 0.34440(11) 0.7723(2)
O4 O 0.26174(15) 0.25668(11) 0.7212(2)
C11 C 0.22976(16) 0.29280(15) 0.8120(3)
C12 C 0.23432(15) 0.27734(13) 0.9729(3)
H23 H 0.2134 0.3089 1.0380
O3F O 0.30826(14) 0.15560(11) 1.2277(2)
O4F O 0.23826(15) 0.24332(11) 1.2788(2)
C11F C 0.27024(16) 0.20720(15) 1.1880(3)
C12F C 0.26568(15) 0.22266(13) 1.0271(3)
H23F H 0.2866 0.1911 0.9620
loop_
_geom_bond_atom_site_label_1
_geom_bond_atom_site_label_2
_geom_bond_site_symmetry_1
_geom_bond_site_symmetry_2
N1 H1 1_555 1_555
H2 N1 1_555 1_555
C1 N1 1_555 1_555
H3 C1 1_555 1_555
H4 C1 1_555 1_555
C2 N1 1_555 1_555
H5 C2 1_555 1_555
H6 C2 1_555 1_555
C3 C2 1_555 1_555
H7 C3 1_555 1_555
H8 C3 1_555 1_555
C4 C1 1_555 1_555
H9 C4 1_555 1_555
H10 C4 1_555 1_555
C5 C4 1_555 1_555
H11 C5 1_555 1_555
H12 C5 1_555 1_555
C6 C3 1_555 1_555
H13 C6 1_555 1_555
H14 C6 1_555 1_555
C7 C6 1_555 1_555
H15 C7 1_555 1_555
H16 C7 1_555 1_555
H17 C7 1_555 1_555
C8 C5 1_555 1_555
H18 C8 1_555 1_555
H19 C8 1_555 1_555
H20 C8 1_555 1_555
O1 C10 1_555 1_555
C9 H21 1_555 1_555
C10 C9 1_555 1_555
O2 C10 1_555 1_555
H22 O1 1_555 1_555
O3 C11 1_555 1_555
O4 C11 1_555 1_555
C11 C12 1_555 1_555
C12 H23 1_555 1_555
O1D C10D 1_555 1_555
C9D C9 1_555 1_555
H21D C9D 1_555 1_555
C10D C9D 1_555 1_555
O2D C10D 1_555 1_555
H22D O1D 1_555 1_555
O3F C11F 1_555 1_555
O4F C11F 1_555 1_555
C11F C12F 1_555 1_555
C12F C12 1_555 1_555
H23F C12F 1_555 1_555

#END
