
#######################################################################
#
#                 Cambridge Crystallographic Data Centre
#                                CCDC 
#
#######################################################################
#
# If this CIF has been generated from an entry in the Cambridge 
# Structural Database, then it will include bibliographic, chemical, 
# crystal, experimental, refinement or atomic coordinate data resulting 
# from the CCDC's data processing and validation procedures.
#
#######################################################################

data_GOQTEL
_chemical_formula_moiety         'C14 H16 S8 2+,C14 H16 S8 1+,3(Br2 I1 1-)'
_chemical_name_systematic        
'bis(1,2-Diethyl-ethylenedithio)tetrathiafulvalenium tris(dibromoiodate)'
_symmetry_cell_setting           monoclinic
_symmetry_space_group_name_H-M   'P 21/c'
_symmetry_Int_Tables_number      14
_space_group_name_Hall           '-P 2ybc'
loop_
_symmetry_equiv_pos_site_id
_symmetry_equiv_pos_as_xyz
1 x,y,z
2 x,1/2-y,1/2+z
3 -x,-y,-z
4 -x,1/2+y,1/2-z
_cell_length_a                   35.639(2)
_cell_length_b                   9.4278(4)
_cell_length_c                   14.7617(7)
_cell_angle_alpha                90
_cell_angle_beta                 94.4560(10)
_cell_angle_gamma                90
_cell_volume                     4944.9
_exptl_crystal_colour            black
_exptl_crystal_description       plate
_cell_formula_units_Z            4
loop_
_atom_site_label
_atom_site_type_symbol
_atom_site_fract_x
_atom_site_fract_y
_atom_site_fract_z
I2 I -0.01800(2) 0.67891(8) 0.58149(5)
Br3 Br 0.05755(4) 0.6768(2) 0.61626(11)
Br4 Br -0.09282(4) 0.6861(2) 0.54963(10)
I3 I 0.26221(3) 0.59417(11) 0.17752(8)
Br5 Br 0.23836(5) 0.4406(2) 0.32036(13)
Br6 Br 0.28695(5) 0.7366(2) 0.0332(2)
S9 S 0.52462(8) 0.0553(3) 0.1365(2)
S10 S 0.52507(8) 0.3548(3) 0.1782(2)
S11 S 0.43404(8) 0.0611(3) 0.1041(2)
S12 S 0.43393(8) 0.3587(3) 0.1520(2)
S13 S 0.60666(8) 0.0184(3) 0.1501(2)
S14 S 0.60698(8) 0.3836(3) 0.2044(2)
S15 S 0.35104(9) 0.0347(4) 0.0833(3)
S16 S 0.35021(9) 0.3823(4) 0.1405(2)
C18 C 0.4988(3) 0.2083(11) 0.1534(7)
C19 C 0.4598(3) 0.2093(11) 0.1381(7)
C20 C 0.5683(3) 0.1306(13) 0.1572(8)
C21 C 0.5684(3) 0.2721(12) 0.1791(8)
C22 C 0.3902(3) 0.1384(13) 0.1084(8)
C23 C 0.3906(3) 0.2793(13) 0.1332(8)
C24 C 0.6453(3) 0.1431(13) 0.1533(9)
H17 H 0.6688(3) 0.0910(13) 0.1607(9)
H18 H 0.6446(3) 0.1925(13) 0.0956(9)
C25 C 0.6446(3) 0.2520(13) 0.2291(9)
H19 H 0.6687(3) 0.3000(13) 0.2363(9)
H20 H 0.6407(3) 0.2041(13) 0.2858(9)
C26 C 0.3132(3) 0.1660(15) 0.0492(10)
H21 H 0.3016(3) 0.1342(15) -0.0098(10)
C27 C 0.3248(4) 0.3098(14) 0.0366(10)
H22 H 0.3016(4) 0.3656(14) 0.0266(10)
C28 C 0.2819(4) 0.1496(19) 0.1189(12)
H23 H 0.2799(4) 0.0509(19) 0.1364(12)
H24 H 0.2889(4) 0.2045(19) 0.1731(12)
C29 C 0.2428(4) 0.2023(19) 0.0752(13)
H25 H 0.2242(4) 0.1918(19) 0.1182(13)
H26 H 0.2357(4) 0.1471(19) 0.0220(13)
H27 H 0.2447(4) 0.3004(19) 0.0587(13)
C30 C 0.3468(4) 0.3345(19) -0.0454(10)
H28 H 0.3606(4) 0.4224(19) -0.0355(10)
H29 H 0.3652(4) 0.2591(19) -0.0469(10)
C31 C 0.3278(5) 0.3420(24) -0.1315(13)
H30 H 0.3455(5) 0.3579(24) -0.1761(13)
H31 H 0.3100(5) 0.4187(24) -0.1331(13)
H32 H 0.3147(5) 0.2545(24) -0.1445(13)
I1 I 0.47985(2) 0.69143(8) 0.08470(5)
Br1 Br 0.55596(4) 0.6900(2) 0.11430(11)
Br2 Br 0.40499(4) 0.6957(2) 0.06048(10)
I4? I 0.23836(5) 0.4406(2) 0.32036(13)
Br7? Br 0.2120(5) 0.2641(22) 0.4723(14)
Br8? Br 0.26221(3) 0.59417(11) 0.17752(8)
S1? S 0.02464(8) 0.0417(3) 0.6357(2)
S2? S 0.02453(8) 0.3395(3) 0.6818(2)
S3? S -0.06573(8) 0.0470(3) 0.5998(2)
S4? S -0.06663(8) 0.3437(3) 0.6486(2)
S5? S 0.10628(9) 0.0050(4) 0.6556(3)
S6? S 0.10600(9) 0.3668(4) 0.7162(2)
S7? S -0.14803(9) 0.0145(4) 0.5740(3)
S8? S -0.14942(9) 0.3707(4) 0.6341(3)
C1? C -0.0008(3) 0.1933(10) 0.6493(7)
C2? C -0.0407(3) 0.1951(11) 0.6363(8)
C3? C 0.0683(3) 0.1182(13) 0.6618(8)
C4? C 0.0690(3) 0.2600(12) 0.6857(8)
C5? C -0.1097(3) 0.1232(12) 0.6021(8)
C6? C -0.1099(3) 0.2620(13) 0.6259(8)
C7? C 0.1446(3) 0.1289(13) 0.6634(10)
H1? H 0.1680(3) 0.0764(13) 0.6715(10)
H2? H 0.1446(3) 0.1798(13) 0.6062(10)
C8? C 0.1436(3) 0.2373(12) 0.7405(8)
H3? H 0.1676(3) 0.2861(12) 0.7482(8)
H4? H 0.1396(3) 0.1884(12) 0.7967(8)
C9? C -0.1891(4) 0.1344(17) 0.5701(11)
H5? H -0.2072(4) 0.0964(17) 0.5229(11)
C10? C -0.1794(4) 0.2833(17) 0.5391(11)
H6? H -0.2032(4) 0.3359(17) 0.5336(11)
C11? C -0.2091(5) 0.1295(20) 0.6596(12)
H7? H -0.1906(5) 0.1397(20) 0.7110(12)
H8? H -0.2267(5) 0.2079(20) 0.6609(12)
C12? C -0.2302(5) -0.0111(29) 0.6674(16)
H9? H -0.2424(5) -0.0124(29) 0.7231(16)
H10? H -0.2127(5) -0.0885(29) 0.6670(16)
H11? H -0.2487(5) -0.0204(29) 0.6170(16)
C13? C -0.1657(5) 0.2841(20) 0.4498(12)
H12? H -0.1391(5) 0.2603(20) 0.4540(12)
H13? H -0.1791(5) 0.2141(20) 0.4116(12)
C14? C -0.1713(7) 0.4233(21) 0.4108(14)
H14? H -0.1621(7) 0.4248(21) 0.3513(14)
H15? H -0.1578(7) 0.4920(21) 0.4487(14)
H16? H -0.1976(7) 0.4458(21) 0.4064(14)
C15? C -0.1791(23) 0.1742(93) 0.5221(60)
C16? C -0.1869(22) 0.2622(90) 0.5906(62)
C17? C -0.1572(28) 0.347(13) 0.4645(70)
loop_
_geom_bond_atom_site_label_1
_geom_bond_atom_site_label_2
_geom_bond_site_symmetry_1
_geom_bond_site_symmetry_2
I1 Br1 1_555 1_555
Br2 I1 1_555 1_555
I2 Br3 1_555 1_555
Br4 I2 1_555 1_555
I3 Br5 1_555 1_555
Br6 I3 1_555 1_555
S9 C18 1_555 1_555
S10 C18 1_555 1_555
S11 C19 1_555 1_555
S12 C19 1_555 1_555
S13 C20 1_555 1_555
S14 C21 1_555 1_555
S15 C22 1_555 1_555
S16 C23 1_555 1_555
C18 C19 1_555 1_555
C20 S9 1_555 1_555
C21 S10 1_555 1_555
C22 S11 1_555 1_555
C23 S12 1_555 1_555
C24 S13 1_555 1_555
H17 C24 1_555 1_555
H18 C24 1_555 1_555
C25 S14 1_555 1_555
H19 C25 1_555 1_555
H20 C25 1_555 1_555
C26 S15 1_555 1_555
H21 C26 1_555 1_555
C27 S16 1_555 1_555
H22 C27 1_555 1_555
C28 C26 1_555 1_555
H23 C28 1_555 1_555
H24 C28 1_555 1_555
C29 C28 1_555 1_555
H25 C29 1_555 1_555
H26 C29 1_555 1_555
H27 C29 1_555 1_555
C30 C27 1_555 1_555
H28 C30 1_555 1_555
H29 C30 1_555 1_555
C31 C30 1_555 1_555
H30 C31 1_555 1_555
H31 C31 1_555 1_555
H32 C31 1_555 1_555
C20 C21 1_555 1_555
C22 C23 1_555 1_555
C24 C25 1_555 1_555
C26 C27 1_555 1_555

#END
