
#######################################################################
#
#                 Cambridge Crystallographic Data Centre
#                                CCDC 
#
#######################################################################
#
# If this CIF has been generated from an entry in the Cambridge 
# Structural Database, then it will include bibliographic, chemical, 
# crystal, experimental, refinement or atomic coordinate data resulting 
# from the CCDC's data processing and validation procedures.
#
#######################################################################

data_GOQVEP
_chemical_name_common            
t-Butyl-1-allyl-3-(2,5-dioxo-1-phenyl-2,5-dihydro-1H-pyrrol-3-yl)-2-oxoindolin-3-ylcarbamate
_chemical_formula_moiety         'C25 H25 N3 O5'
_chemical_name_systematic        
't-butyl (3-(2,5-dioxo-1-phenyl-2,5-dihydro-1H-pyrrol-3-yl)-1-ethyl-2-oxo-2,3-dihydro-1H-indol-3-yl)carbamate'
_symmetry_cell_setting           monoclinic
_symmetry_space_group_name_H-M   'P 21'
_symmetry_Int_Tables_number      4
_space_group_name_Hall           'P 2yb'
loop_
_symmetry_equiv_pos_site_id
_symmetry_equiv_pos_as_xyz
1 x,y,z
2 -x,1/2+y,-z
_cell_length_a                   10.903(4)
_cell_length_b                   8.978(3)
_cell_length_c                   13.171(5)
_cell_angle_alpha                90
_cell_angle_beta                 108.452(12)
_cell_angle_gamma                90
_cell_volume                     1222.99
_exptl_crystal_colour            colorless
_exptl_crystal_description       needles
_chemical_melting_point          '398-399 K'
_cell_formula_units_Z            2
_exptl_crystal_recrystallization_method Ethanol
loop_
_atom_site_label
_atom_site_type_symbol
_atom_site_fract_x
_atom_site_fract_y
_atom_site_fract_z
C1 C -0.1221(4) 0.6975(6) 0.3666(4)
C2 C -0.0897(6) 0.5562(7) 0.4034(5)
H1 H -0.0521 0.4915 0.3668
C3 C -0.1138(8) 0.5094(9) 0.4970(5)
H2 H -0.0940 0.4124 0.5215
C4 C -0.1648(9) 0.6032(13) 0.5508(6)
H3 H -0.1807 0.5714 0.6127
C5 C -0.1941(8) 0.7465(12) 0.5157(6)
H4 H -0.2275 0.8122 0.5548
C6 C -0.1736(6) 0.7943(8) 0.4210(5)
H5 H -0.1951 0.8908 0.3959
C7 C -0.1959(4) 0.7658(5) 0.1730(4)
C8 C 0.0220(4) 0.7535(5) 0.2566(4)
C9 C -0.1286(4) 0.7980(6) 0.0926(4)
H6 H -0.1691 0.8186 0.0206
C10 C -0.0025(4) 0.7925(5) 0.1404(3)
C11 C 0.1089(4) 0.8180(5) 0.0973(3)
C12 C 0.1198(5) 0.8550(6) -0.0885(4)
C13 C 0.3045(4) 0.7401(6) -0.1266(4)
C14 C 0.4080(6) 0.6388(9) -0.0583(5)
H7 H 0.4686 0.6158 -0.0953
H8 H 0.3692 0.5485 -0.0441
H9 H 0.4521 0.6876 0.0081
C15 C 0.3608(6) 0.8789(7) -0.1583(6)
H10 H 0.4089 0.9325 -0.0952
H11 H 0.2922 0.9407 -0.2015
H12 H 0.4172 0.8520 -0.1985
C16 C 0.2198(6) 0.6592(7) -0.2209(5)
H13 H 0.2721 0.6083 -0.2564
H14 H 0.1642 0.7289 -0.2695
H15 H 0.1682 0.5882 -0.1981
C17 C 0.1964(4) 0.6775(6) 0.1207(4)
C18 C 0.4195(5) 0.6140(7) 0.2249(5)
H16 H 0.4983 0.6589 0.2199
H17 H 0.4016 0.5257 0.1802
C19 C 0.4403(10) 0.5660(8) 0.3509(8)
H18 H 0.3872 0.4813 0.3524
H19 H 0.4163 0.6478 0.3877
H20 H 0.5294 0.5413 0.3856
C20 C 0.2013(5) 0.9367(5) 0.1585(3)
C21 C 0.1839(6) 1.0892(6) 0.1656(4)
H21 H 0.1045 1.1336 0.1314
C22 C 0.2886(7) 1.1729(7) 0.2254(5)
H22 H 0.2798 1.2753 0.2312
C23 C 0.4056(7) 1.1059(8) 0.2763(5)
H23 H 0.4741 1.1642 0.3169
C24 C 0.4245(6) 0.9545(7) 0.2687(4)
H24 H 0.5043 0.9107 0.3024
C25 C 0.3202(4) 0.8707(5) 0.2091(4)
N1 N -0.0997(3) 0.7436(4) 0.2701(3)
N2 N 0.0536(4) 0.8505(5) -0.0169(3)
H25 H -0.010(3) 0.913(5) -0.037(4)
N3 N 0.3140(3) 0.7181(4) 0.1870(3)
O1 O 0.1230(3) 0.7319(5) 0.3238(3)
O2 O -0.3107(3) 0.7621(4) 0.1591(3)
O3 O 0.0765(4) 0.9156(5) -0.1753(3)
O4 O 0.2307(3) 0.7800(4) -0.0534(2)
O5 O 0.1646(3) 0.5521(4) 0.0870(3)
loop_
_geom_bond_atom_site_label_1
_geom_bond_atom_site_label_2
_geom_bond_site_symmetry_1
_geom_bond_site_symmetry_2
C1 C2 1_555 1_555
C2 H1 1_555 1_555
C3 C2 1_555 1_555
H2 C3 1_555 1_555
C4 C3 1_555 1_555
H3 C4 1_555 1_555
C5 C4 1_555 1_555
H4 C5 1_555 1_555
C6 C1 1_555 1_555
H5 C6 1_555 1_555
C7 C9 1_555 1_555
C8 C10 1_555 1_555
C9 H6 1_555 1_555
C10 C9 1_555 1_555
C11 C10 1_555 1_555
C12 N2 1_555 1_555
C13 C14 1_555 1_555
C14 H7 1_555 1_555
H8 C14 1_555 1_555
H9 C14 1_555 1_555
C15 C13 1_555 1_555
H10 C15 1_555 1_555
H11 C15 1_555 1_555
H12 C15 1_555 1_555
C16 C13 1_555 1_555
H13 C16 1_555 1_555
H14 C16 1_555 1_555
H15 C16 1_555 1_555
C17 C11 1_555 1_555
C18 H16 1_555 1_555
H17 C18 1_555 1_555
C19 C18 1_555 1_555
H18 C19 1_555 1_555
H19 C19 1_555 1_555
H20 C19 1_555 1_555
C20 C11 1_555 1_555
C21 C20 1_555 1_555
H21 C21 1_555 1_555
C22 C21 1_555 1_555
H22 C22 1_555 1_555
C23 C22 1_555 1_555
H23 C23 1_555 1_555
C24 C23 1_555 1_555
H24 C24 1_555 1_555
C25 C20 1_555 1_555
N1 C1 1_555 1_555
N2 C11 1_555 1_555
H25 N2 1_555 1_555
N3 C17 1_555 1_555
O1 C8 1_555 1_555
O2 C7 1_555 1_555
O3 C12 1_555 1_555
O4 C12 1_555 1_555
O5 C17 1_555 1_555
C5 C6 1_555 1_555
C7 N1 1_555 1_555
C8 N1 1_555 1_555
C13 O4 1_555 1_555
C18 N3 1_555 1_555
C24 C25 1_555 1_555
C25 N3 1_555 1_555

#END
