
#######################################################################
#
#                 Cambridge Crystallographic Data Centre
#                                CCDC 
#
#######################################################################
#
# If this CIF has been generated from an entry in the Cambridge 
# Structural Database, then it will include bibliographic, chemical, 
# crystal, experimental, refinement or atomic coordinate data resulting 
# from the CCDC's data processing and validation procedures.
#
#######################################################################

data_GORFAW
_chemical_formula_moiety         'C21 H25 F7 N2 O3'
_chemical_name_systematic        
't-butyl (4-(3-(diethylamino)-4,4,5,5,6,6,6-heptafluorohex-2-enoyl)phenyl)carbamate'
_symmetry_cell_setting           orthorhombic
_symmetry_space_group_name_H-M   'P n a 21'
_symmetry_Int_Tables_number      33
_space_group_name_Hall           'P 2c -2n'
loop_
_symmetry_equiv_pos_site_id
_symmetry_equiv_pos_as_xyz
1 x,y,z
2 1/2-x,1/2+y,1/2+z
3 1/2+x,1/2-y,z
4 -x,-y,1/2+z
_cell_length_a                   26.437(9)
_cell_length_b                   10.311(3)
_cell_length_c                   9.126(3)
_cell_angle_alpha                90
_cell_angle_beta                 90
_cell_angle_gamma                90
_cell_volume                     2487.67
_exptl_crystal_colour            yellow
_exptl_crystal_description       block
_cell_formula_units_Z            4
loop_
_atom_site_label
_atom_site_type_symbol
_atom_site_fract_x
_atom_site_fract_y
_atom_site_fract_z
F1 F 0.05243(19) 0.5696(5) 0.9641(5)
F2 F 0.01062(17) 0.4542(5) 1.1189(6)
F3 F 0.1054(2) 0.6755(5) 1.2041(8)
F4 F 0.0521(2) 0.5771(5) 1.3435(6)
F5 F 0.0141(5) 0.7883(12) 1.0710(14)
F6 F 0.0354(4) 0.8315(13) 1.2907(14)
F7 F -0.0274(5) 0.6808(13) 1.2230(17)
O1 O 0.1665(2) 0.2096(4) 1.0129(6)
O2 O 0.3088(5) 0.2558(11) 0.3686(12)
O3 O 0.3547(2) 0.4340(5) 0.3098(6)
N1 N 0.1053(2) 0.3546(6) 1.2360(8)
N2 N 0.3151(2) 0.4350(5) 0.5185(7)
C1 C 0.2086(3) 0.3470(7) 0.8445(8)
C2 C 0.2205(3) 0.4725(7) 0.8086(9)
H1 H 0.2040 0.5410 0.8543
C3 C 0.2573(3) 0.4967(6) 0.7041(9)
H2 H 0.2666 0.5820 0.6845
C4 C 0.2801(3) 0.3989(6) 0.6295(8)
C5 C 0.2685(3) 0.2714(6) 0.6665(9)
H3 H 0.2846 0.2025 0.6201
C6 C 0.2327(3) 0.2493(7) 0.7734(9)
H4 H 0.2248 0.1641 0.7978
C7 C 0.1687(3) 0.3173(7) 0.9564(10)
C8 C 0.1316(3) 0.4180(7) 0.9904(8)
H5 H 0.1303 0.4888 0.9274
C9 C 0.0994(3) 0.4181(6) 1.1034(8)
C10 C 0.1542(4) 0.3228(10) 1.2950(12)
H6 H 0.1785 0.2722 1.2485
C11 C 0.1599(8) 0.383(2) 1.442(2)
H7 H 0.1573 0.4760 1.4325
H8 H 0.1923 0.3613 1.4816
H9 H 0.1337 0.3523 1.5054
C12 C 0.0648(3) 0.2754(10) 1.2998(12)
H10 H 0.0433 0.3051 1.3731
C13 C 0.0616(8) 0.1438(15) 1.236(2)
H11 H 0.0424 0.1468 1.1471
H12 H 0.0453 0.0867 1.3047
H13 H 0.0950 0.1124 1.2158
C14 C 0.0557(3) 0.5139(8) 1.0971(9)
C15 C 0.0592(4) 0.6271(9) 1.2098(10)
C16 C 0.0196(5) 0.7400(10) 1.1885(12)
C17 C 0.3297(3) 0.3639(7) 0.4033(9)
C18 C 0.3727(3) 0.3861(8) 0.1654(10)
C19 C 0.3254(9) 0.383(3) 0.080(3)
H14 H 0.3122 0.4689 0.0710
H15 H 0.3011 0.3290 0.1302
H16 H 0.3320 0.3475 -0.0151
C20 C 0.3877(10) 0.497(2) 0.088(3)
H17 H 0.3630 0.5167 0.0143
H18 H 0.4199 0.4820 0.0430
H19 H 0.3904 0.5690 0.1548
C21 C 0.3944(8) 0.255(2) 0.167(3)
H20 H 0.4215 0.2495 0.0973
H21 H 0.3687 0.1927 0.1423
H22 H 0.4072 0.2359 0.2634
F8? F 0.0428(5) 0.8142(11) 1.0759(13)
F9? F 0.0138(4) 0.7982(12) 1.3148(14)
F10? F -0.0220(6) 0.6990(14) 1.1503(16)
O4? O 0.3300(4) 0.2426(9) 0.4055(12)
C22? C 0.1905(9) 0.432(2) 1.288(3)
H23? H 0.1928 0.4634 1.1894
H24? H 0.2232 0.4037 1.3207
H25? H 0.1789 0.5013 1.3508
C23? C 0.0526(13) 0.159(3) 1.181(5)
H26? H 0.0837 0.1197 1.1493
H27? H 0.0352 0.1942 1.0978
H28? H 0.0317 0.0939 1.2265
C24? C 0.3341(9) 0.317(3) 0.080(3)
H29? H 0.3025 0.3625 0.0855
H30? H 0.3298 0.2308 0.1188
H31? H 0.3446 0.3111 -0.0207
C25? C 0.4101(8) 0.502(2) 0.131(3)
H32? H 0.4110 0.5168 0.0269
H33? H 0.4434 0.4801 0.1645
H34? H 0.3986 0.5788 0.1796
C26? C 0.4155(6) 0.2924(16) 0.198(2)
H35? H 0.4313 0.2661 0.1085
H36? H 0.4023 0.2176 0.2479
H37? H 0.4401 0.3343 0.2599
loop_
_geom_bond_atom_site_label_1
_geom_bond_atom_site_label_2
_geom_bond_site_symmetry_1
_geom_bond_site_symmetry_2
F1 C14 1_555 1_555
F2 C14 1_555 1_555
F3 C15 1_555 1_555
F4 C15 1_555 1_555
F5 C16 1_555 1_555
F6 C16 1_555 1_555
F7 C16 1_555 1_555
O1 C7 1_555 1_555
O2 C17 1_555 1_555
O3 C17 1_555 1_555
N1 C9 1_555 1_555
N2 C4 1_555 1_555
C1 C2 1_555 1_555
C2 H1 1_555 1_555
C3 C2 1_555 1_555
H2 C3 1_555 1_555
C4 C3 1_555 1_555
C5 C4 1_555 1_555
H3 C5 1_555 1_555
C6 C1 1_555 1_555
H4 C6 1_555 1_555
C7 C1 1_555 1_555
C8 C7 1_555 1_555
H5 C8 1_555 1_555
C9 C8 1_555 1_555
C10 N1 1_555 1_555
H6 C10 1_555 1_555
C11 C10 1_555 1_555
H7 C11 1_555 1_555
H8 C11 1_555 1_555
H9 C11 1_555 1_555
C12 N1 1_555 1_555
H10 C12 1_555 1_555
C13 C12 1_555 1_555
H11 C13 1_555 1_555
H12 C13 1_555 1_555
H13 C13 1_555 1_555
C14 C9 1_555 1_555
C15 C14 1_555 1_555
C16 C15 1_555 1_555
C17 N2 1_555 1_555
C18 O3 1_555 1_555
C19 C18 1_555 1_555
H14 C19 1_555 1_555
H15 C19 1_555 1_555
H16 C19 1_555 1_555
C20 C18 1_555 1_555
H17 C20 1_555 1_555
H18 C20 1_555 1_555
H19 C20 1_555 1_555
C21 C18 1_555 1_555
H20 C21 1_555 1_555
H21 C21 1_555 1_555
H22 C21 1_555 1_555
C5 C6 1_555 1_555

#END
