
#######################################################################
#
#                 Cambridge Crystallographic Data Centre
#                                CCDC 
#
#######################################################################
#
# If this CIF has been generated from an entry in the Cambridge 
# Structural Database, then it will include bibliographic, chemical, 
# crystal, experimental, refinement or atomic coordinate data resulting 
# from the CCDC's data processing and validation procedures.
#
#######################################################################

data_GORJAA
_chemical_formula_moiety         'C37 H37 N5 O4'
_chemical_name_systematic        
3',6'-bis(diethylamino)-2-((3-(4-nitrophenyl)prop-2-en-1-ylidene)amino)spiro[isoindole-1,9'-xanthen]-3(2H)-one
_symmetry_cell_setting           monoclinic
_symmetry_space_group_name_H-M   'P 21/n'
_symmetry_Int_Tables_number      14
_space_group_name_Hall           '-P 2yn'
loop_
_symmetry_equiv_pos_site_id
_symmetry_equiv_pos_as_xyz
1 x,y,z
2 1/2-x,1/2+y,1/2-z
3 -x,-y,-z
4 1/2+x,1/2-y,1/2+z
_cell_length_a                   8.9207(11)
_cell_length_b                   23.567(3)
_cell_length_c                   16.0637(19)
_cell_angle_alpha                90
_cell_angle_beta                 104.889(9)
_cell_angle_gamma                90
_cell_volume                     3263.75
_exptl_crystal_colour            'pale yellow'
_exptl_crystal_description       column
_cell_formula_units_Z            4
loop_
_atom_site_label
_atom_site_type_symbol
_atom_site_fract_x
_atom_site_fract_y
_atom_site_fract_z
O1 O 0.9161(5) -0.13702(19) 0.5316(3)
O2 O 0.8019(5) -0.21660(19) 0.5430(2)
O3 O -0.1786(3) 0.04670(14) 0.6107(2)
O4 O 0.2561(3) 0.21238(12) 0.89477(17)
N1 N 0.8040(6) -0.1646(3) 0.5409(3)
N2 N 0.1527(4) 0.07349(15) 0.6958(2)
N3 N 0.0159(3) 0.09648(13) 0.7069(2)
N4 N 0.3445(4) 0.07115(17) 1.1139(2)
N5 N 0.3435(4) 0.33756(16) 0.6785(2)
C1 C -0.1359(5) 0.08359(19) 0.6662(3)
C2 C -0.2321(4) 0.12185(17) 0.7020(3)
C3 C -0.3918(5) 0.1264(2) 0.6828(3)
H1 H -0.4545 0.1035 0.6409
C4 C -0.4557(5) 0.1653(2) 0.7266(3)
H2 H -0.5630 0.1687 0.7145
C5 C -0.3634(5) 0.1995(2) 0.7883(3)
H3 H -0.4088 0.2253 0.8181
C6 C -0.2026(5) 0.19573(19) 0.8064(3)
H4 H -0.1402 0.2196 0.8470
C7 C -0.1374(4) 0.15623(17) 0.7633(3)
C8 C 0.0343(4) 0.14330(17) 0.7712(2)
C9 C 0.1175(4) 0.12308(17) 0.8605(2)
C10 C 0.0942(5) 0.06977(18) 0.8923(3)
H5 H 0.0261 0.0450 0.8561
C11 C 0.1660(5) 0.05176(19) 0.9737(3)
H6 H 0.1462 0.0156 0.9915
C12 C 0.2706(5) 0.08806(19) 1.0313(3)
C13 C 0.3381(6) 0.0130(2) 1.1425(3)
H7 H 0.2349 -0.0019 1.1177
H8 H 0.3552 0.0128 1.2046
C14 C 0.4552(9) -0.0260(3) 1.1187(4)
H9 H 0.4358 -0.0278 1.0571
H10 H 0.4463 -0.0633 1.1409
H11 H 0.5579 -0.0117 1.1429
C15 C 0.4577(6) 0.1081(2) 1.1708(3)
H12 H 0.5195 0.1268 1.1372
H13 H 0.5270 0.0850 1.2140
C16 C 0.3857(7) 0.1528(3) 1.2156(3)
H14 H 0.3195 0.1768 1.1734
H15 H 0.4661 0.1753 1.2520
H16 H 0.3258 0.1348 1.2499
C17 C 0.2948(5) 0.14154(19) 1.0002(3)
H17 H 0.3620 0.1667 1.0360
C18 C 0.2209(4) 0.15801(18) 0.9171(3)
C19 C 0.2185(4) 0.22596(17) 0.8077(3)
C20 C 0.2942(5) 0.27362(17) 0.7877(3)
H18 H 0.3607 0.2942 0.8312
C21 C 0.2703(5) 0.29030(17) 0.7025(3)
C22 C 0.4480(6) 0.3711(2) 0.7446(3)
H19 H 0.5454 0.3508 0.7639
H20 H 0.4035 0.3746 0.7935
C23 C 0.4808(7) 0.4294(2) 0.7165(4)
H21 H 0.5233 0.4266 0.6674
H22 H 0.5540 0.4480 0.7627
H23 H 0.3863 0.4509 0.7013
C24 C 0.3929(9) 0.3328(3) 0.5935(4)
H24 H 0.5001 0.3446 0.6031
H25 H 0.3853 0.2935 0.5747
C25 C 0.3004(11) 0.3661(4) 0.5302(6)
H26 H 0.1945 0.3538 0.5198
H27 H 0.3338 0.3626 0.4782
H28 H 0.3085 0.4050 0.5486
C26 C 0.1657(5) 0.25867(18) 0.6391(3)
H29 H 0.1466 0.2694 0.5816
C27 C 0.0908(4) 0.21196(17) 0.6610(3)
H30 H 0.0211 0.1920 0.6180
C28 C 0.1171(4) 0.19390(16) 0.7461(3)
C29 C 0.1435(5) 0.02997(19) 0.6467(3)
H31 H 0.0468 0.0155 0.6185
C30 C 0.2830(5) 0.00337(19) 0.6351(3)
H32 H 0.3781 0.0207 0.6588
C31 C 0.2804(5) -0.04483(19) 0.5919(3)
H33 H 0.1836 -0.0612 0.5690
C32 C 0.4149(5) -0.07481(19) 0.5769(3)
C33 C 0.5549(5) -0.04775(19) 0.5829(3)
H34 H 0.5642 -0.0094 0.5967
C34 C 0.6817(5) -0.0765(2) 0.5687(3)
H35 H 0.7744 -0.0576 0.5715
C35 C 0.6675(5) -0.1335(2) 0.5504(3)
C36 C 0.5300(6) -0.1617(2) 0.5435(3)
H36 H 0.5232 -0.2004 0.5315
C37 C 0.4018(5) -0.1327(2) 0.5544(3)
H37 H 0.3073 -0.1513 0.5470
loop_
_geom_bond_atom_site_label_1
_geom_bond_atom_site_label_2
_geom_bond_site_symmetry_1
_geom_bond_site_symmetry_2
O1 N1 1_555 1_555
O2 N1 1_555 1_555
O3 C1 1_555 1_555
O4 C18 1_555 1_555
N1 C35 1_555 1_555
N2 N3 1_555 1_555
N3 C1 1_555 1_555
N4 C12 1_555 1_555
N5 C21 1_555 1_555
C1 C2 1_555 1_555
C2 C3 1_555 1_555
C3 H1 1_555 1_555
C4 C3 1_555 1_555
H2 C4 1_555 1_555
C5 C4 1_555 1_555
H3 C5 1_555 1_555
C6 C5 1_555 1_555
H4 C6 1_555 1_555
C7 C2 1_555 1_555
C8 N3 1_555 1_555
C9 C8 1_555 1_555
C10 C9 1_555 1_555
H5 C10 1_555 1_555
C11 C10 1_555 1_555
H6 C11 1_555 1_555
C12 C11 1_555 1_555
C13 N4 1_555 1_555
H7 C13 1_555 1_555
H8 C13 1_555 1_555
C14 C13 1_555 1_555
H9 C14 1_555 1_555
H10 C14 1_555 1_555
H11 C14 1_555 1_555
C15 N4 1_555 1_555
H12 C15 1_555 1_555
H13 C15 1_555 1_555
C16 C15 1_555 1_555
H14 C16 1_555 1_555
H15 C16 1_555 1_555
H16 C16 1_555 1_555
C17 C12 1_555 1_555
H17 C17 1_555 1_555
C18 C9 1_555 1_555
C19 O4 1_555 1_555
C20 C19 1_555 1_555
H18 C20 1_555 1_555
C21 C20 1_555 1_555
C22 N5 1_555 1_555
H19 C22 1_555 1_555
H20 C22 1_555 1_555
C23 C22 1_555 1_555
H21 C23 1_555 1_555
H22 C23 1_555 1_555
H23 C23 1_555 1_555
C24 N5 1_555 1_555
H24 C24 1_555 1_555
H25 C24 1_555 1_555
C25 C24 1_555 1_555
H26 C25 1_555 1_555
H27 C25 1_555 1_555
H28 C25 1_555 1_555
C26 C21 1_555 1_555
H29 C26 1_555 1_555
C27 C26 1_555 1_555
H30 C27 1_555 1_555
C28 C8 1_555 1_555
C29 N2 1_555 1_555
H31 C29 1_555 1_555
C30 C29 1_555 1_555
H32 C30 1_555 1_555
C31 C30 1_555 1_555
H33 C31 1_555 1_555
C32 C31 1_555 1_555
C33 C32 1_555 1_555
H34 C33 1_555 1_555
C34 C33 1_555 1_555
H35 C34 1_555 1_555
C35 C34 1_555 1_555
C36 C35 1_555 1_555
H36 C36 1_555 1_555
C37 C32 1_555 1_555
H37 C37 1_555 1_555
C6 C7 1_555 1_555
C7 C8 1_555 1_555
C17 C18 1_555 1_555
C19 C28 1_555 1_555
C27 C28 1_555 1_555
C36 C37 1_555 1_555

#END
