
#######################################################################
#
#                 Cambridge Crystallographic Data Centre
#                                CCDC 
#
#######################################################################
#
# If this CIF has been generated from an entry in the Cambridge 
# Structural Database, then it will include bibliographic, chemical, 
# crystal, experimental, refinement or atomic coordinate data resulting 
# from the CCDC's data processing and validation procedures.
#
#######################################################################

data_GORQEL
_chemical_formula_moiety         'C31 H31 N1 O5 S1'
_chemical_name_systematic        
'2-Butyl-1-(2-methoxyphenyl)-4-tosyl-1,4-dihydrocyclopenta[b]indol-3-yl acetate'
_symmetry_cell_setting           triclinic
_symmetry_space_group_name_H-M   'P -1'
_symmetry_Int_Tables_number      2
_space_group_name_Hall           '-P 1'
loop_
_symmetry_equiv_pos_site_id
_symmetry_equiv_pos_as_xyz
1 x,y,z
2 -x,-y,-z
_cell_length_a                   10.6367(10)
_cell_length_b                   11.3754(11)
_cell_length_c                   12.3746(12)
_cell_angle_alpha                95.964(2)
_cell_angle_beta                 102.426(2)
_cell_angle_gamma                106.089(2)
_cell_volume                     1383.44
_exptl_crystal_colour            white
_exptl_crystal_description       prismatic
_cell_formula_units_Z            2
_exptl_crystal_recrystallization_method 'dichloromethane/petroleum ether'
loop_
_atom_site_label
_atom_site_type_symbol
_atom_site_fract_x
_atom_site_fract_y
_atom_site_fract_z
S1 S 0.54599(6) -0.30482(5) 0.72375(5)
N1 N 0.64456(19) -0.19646(15) 0.67114(16)
O1 O 0.82081(18) 0.39304(14) 0.71831(17)
O2 O 0.9111(2) -0.12029(18) 0.90622(16)
O3 O 0.74950(17) -0.03992(14) 0.93767(13)
O4 O 0.51561(18) -0.41917(13) 0.64987(16)
O5 O 0.61250(19) -0.29097(15) 0.83859(15)
C1 C 0.6161(2) -0.19359(19) 0.55235(19)
C2 C 0.5681(2) -0.2903(2) 0.4624(2)
H1 H 0.5458 -0.3725 0.4731
C3 C 0.5543(2) -0.2612(2) 0.3561(2)
H2 H 0.5214 -0.3251 0.2942
C4 C 0.5884(2) -0.1390(2) 0.3390(2)
H3 H 0.5781 -0.1223 0.2662
C5 C 0.6376(2) -0.0416(2) 0.4294(2)
H4 H 0.6604 0.0404 0.4178
C6 C 0.6520(2) -0.06823(19) 0.53679(19)
C7 C 0.6996(2) 0.00546(18) 0.64760(19)
C8 C 0.6930(2) -0.06943(18) 0.72401(19)
C9 C 0.7447(2) 0.0040(2) 0.83698(19)
C10 C 0.7791(2) 0.12519(19) 0.82896(19)
C11 C 0.7548(2) 0.13913(18) 0.70539(19)
H5 H 0.6847 0.1798 0.6872
C12 C 0.8829(2) 0.21471(19) 0.67930(18)
C13 C 0.9721(2) 0.1592(2) 0.6473(2)
H6 H 0.9501 0.0731 0.6368
C14 C 1.0935(3) 0.2280(3) 0.6302(2)
H7 H 1.1526 0.1887 0.6090
C15 C 1.1251(3) 0.3546(3) 0.6449(3)
H8 H 1.2071 0.4017 0.6349
C16 C 1.0371(3) 0.4130(2) 0.6745(2)
H9 H 1.0594 0.4991 0.6835
C17 C 0.9158(2) 0.3438(2) 0.6907(2)
C18 C 0.8436(4) 0.5226(2) 0.7255(4)
H10 H 0.9243 0.5663 0.7834
H11 H 0.7679 0.5433 0.7432
H12 H 0.8540 0.5460 0.6548
C19 C 0.8381(3) -0.1071(2) 0.9638(2)
C20 C 0.8278(3) -0.1577(3) 1.0685(2)
H13 H 0.8421 -0.2375 1.0622
H14 H 0.7396 -0.1660 1.0799
H15 H 0.8952 -0.1021 1.1311
C21 C 0.8301(2) 0.2326(2) 0.9243(2)
H16 H 0.9067 0.2940 0.9114
H17 H 0.8616 0.2039 0.9932
C22 C 0.7229(3) 0.2937(2) 0.9390(2)
H18 H 0.6856 0.3151 0.8678
H19 H 0.6500 0.2339 0.9583
C23 C 0.7740(3) 0.4084(2) 1.0274(3)
H20 H 0.8494 0.4669 1.0099
H21 H 0.8078 0.3863 1.0992
C24 C 0.6690(4) 0.4711(3) 1.0381(3)
H22 H 0.6481 0.5080 0.9729
H23 H 0.7032 0.5345 1.1040
H24 H 0.5885 0.4109 1.0442
C25 C 0.3982(2) -0.26296(19) 0.7143(2)
C26 C 0.3886(3) -0.1827(2) 0.8019(2)
H25 H 0.4600 -0.1519 0.8661
C27 C 0.2739(3) -0.1490(2) 0.7937(2)
H26 H 0.2682 -0.0948 0.8529
C28 C 0.1651(3) -0.1937(2) 0.6989(2)
C29 C 0.1770(3) -0.2734(2) 0.6124(2)
H27 H 0.1058 -0.3040 0.5481
C30 C 0.2917(3) -0.3088(2) 0.6190(2)
H28 H 0.2976 -0.3630 0.5600
C31 C 0.0398(3) -0.1537(3) 0.6876(3)
H29 H 0.0246 -0.1368 0.7605
H30 H -0.0366 -0.2189 0.6405
H31 H 0.0517 -0.0801 0.6544
loop_
_geom_bond_atom_site_label_1
_geom_bond_atom_site_label_2
_geom_bond_site_symmetry_1
_geom_bond_site_symmetry_2
S1 N1 1_555 1_555
N1 C1 1_555 1_555
O1 C17 1_555 1_555
O2 C19 1_555 1_555
O3 C9 1_555 1_555
O4 S1 1_555 1_555
O5 S1 1_555 1_555
C1 C2 1_555 1_555
C2 H1 1_555 1_555
C3 C2 1_555 1_555
H2 C3 1_555 1_555
C4 C3 1_555 1_555
H3 C4 1_555 1_555
C5 C4 1_555 1_555
H4 C5 1_555 1_555
C6 C1 1_555 1_555
C7 C6 1_555 1_555
C8 N1 1_555 1_555
C9 C8 1_555 1_555
C10 C9 1_555 1_555
C11 C7 1_555 1_555
H5 C11 1_555 1_555
C12 C11 1_555 1_555
C13 C12 1_555 1_555
H6 C13 1_555 1_555
C14 C13 1_555 1_555
H7 C14 1_555 1_555
C15 C14 1_555 1_555
H8 C15 1_555 1_555
C16 C15 1_555 1_555
H9 C16 1_555 1_555
C17 C12 1_555 1_555
C18 O1 1_555 1_555
H10 C18 1_555 1_555
H11 C18 1_555 1_555
H12 C18 1_555 1_555
C19 O3 1_555 1_555
C20 C19 1_555 1_555
H13 C20 1_555 1_555
H14 C20 1_555 1_555
H15 C20 1_555 1_555
C21 C10 1_555 1_555
H16 C21 1_555 1_555
H17 C21 1_555 1_555
C22 C21 1_555 1_555
H18 C22 1_555 1_555
H19 C22 1_555 1_555
C23 C22 1_555 1_555
H20 C23 1_555 1_555
H21 C23 1_555 1_555
C24 C23 1_555 1_555
H22 C24 1_555 1_555
H23 C24 1_555 1_555
H24 C24 1_555 1_555
C25 S1 1_555 1_555
C26 C25 1_555 1_555
H25 C26 1_555 1_555
C27 C26 1_555 1_555
H26 C27 1_555 1_555
C28 C27 1_555 1_555
C29 C28 1_555 1_555
H27 C29 1_555 1_555
C30 C25 1_555 1_555
H28 C30 1_555 1_555
C31 C28 1_555 1_555
H29 C31 1_555 1_555
H30 C31 1_555 1_555
H31 C31 1_555 1_555
C5 C6 1_555 1_555
C7 C8 1_555 1_555
C10 C11 1_555 1_555
C16 C17 1_555 1_555
C29 C30 1_555 1_555

#END
