
#######################################################################
#
#                 Cambridge Crystallographic Data Centre
#                                CCDC 
#
#######################################################################
#
# If this CIF has been generated from an entry in the Cambridge 
# Structural Database, then it will include bibliographic, chemical, 
# crystal, experimental, refinement or atomic coordinate data resulting 
# from the CCDC's data processing and validation procedures.
#
#######################################################################

data_GORQIP
_chemical_formula_moiety         'C27 H29 N1 O4 S1'
_chemical_name_systematic        
'2-Butyl-1-cyclopropyl-4-tosyl-1,4-dihydrocyclopenta[b]indol-3-yl acetate'
_symmetry_cell_setting           triclinic
_symmetry_space_group_name_H-M   'P -1'
_symmetry_Int_Tables_number      2
_space_group_name_Hall           '-P 1'
loop_
_symmetry_equiv_pos_site_id
_symmetry_equiv_pos_as_xyz
1 x,y,z
2 -x,-y,-z
_cell_length_a                   9.2545(15)
_cell_length_b                   11.5114(19)
_cell_length_c                   13.041(2)
_cell_angle_alpha                72.850(3)
_cell_angle_beta                 79.722(3)
_cell_angle_gamma                67.393(3)
_cell_volume                     1222.17
_exptl_crystal_colour            white
_exptl_crystal_description       prismatic
_cell_formula_units_Z            2
_exptl_crystal_recrystallization_method 'Chloroform/petroleum ether'
loop_
_atom_site_label
_atom_site_type_symbol
_atom_site_fract_x
_atom_site_fract_y
_atom_site_fract_z
S1 S 0.47626(8) 0.18345(8) 0.29181(6)
N1 N 0.5540(3) 0.0873(2) 0.20713(19)
O1 O 0.4222(3) 0.3649(2) 0.00942(19)
O2 O 0.2031(3) 0.3165(3) 0.0441(3)
O3 O 0.3718(3) 0.3007(2) 0.23231(18)
O4 O 0.4203(3) 0.1089(3) 0.38670(18)
C1 C 0.6586(3) -0.0437(3) 0.2387(2)
C2 C 0.6894(4) -0.1254(3) 0.3405(3)
H1 H 0.6376 -0.0987 0.4021
C3 C 0.8013(5) -0.2490(3) 0.3464(3)
H2 H 0.8263 -0.3055 0.4136
C4 C 0.8765(5) -0.2901(3) 0.2552(3)
H3 H 0.9504 -0.3736 0.2622
C5 C 0.8437(4) -0.2096(3) 0.1542(3)
H4 H 0.8933 -0.2386 0.0931
C6 C 0.7348(3) -0.0836(3) 0.1450(2)
C7 C 0.6755(3) 0.0249(3) 0.0564(2)
C8 C 0.5739(3) 0.1257(3) 0.0942(2)
C9 C 0.5108(3) 0.2360(3) 0.0038(2)
C10 C 0.5715(4) 0.2003(3) -0.0889(2)
C11 C 0.6862(4) 0.0613(3) -0.0650(2)
H5 H 0.6464 0.0076 -0.0899
C12 C 0.8498(4) 0.0454(3) -0.1144(3)
H6 H 0.8987 0.0972 -0.0952
C13 C 0.8966(5) 0.0256(4) -0.2265(3)
H7 H 0.8190 0.0199 -0.2640
H8 H 0.9672 0.0671 -0.2720
C14 C 0.9608(5) -0.0832(4) -0.1312(4)
H9 H 0.9222 -0.1547 -0.1114
H10 H 1.0703 -0.1075 -0.1194
C15 C 0.5343(4) 0.2815(4) -0.2008(3)
H11 H 0.4271 0.3421 -0.1984
H12 H 0.5400 0.2251 -0.2451
C16 C 0.6409(4) 0.3574(3) -0.2542(3)
H13 H 0.7493 0.2991 -0.2490
H14 H 0.6248 0.4228 -0.2162
C17 C 0.6109(5) 0.4233(4) -0.3720(3)
H15 H 0.6231 0.3579 -0.4090
H16 H 0.5032 0.4833 -0.3766
C18 C 0.7162(7) 0.4945(5) -0.4273(4)
H17 H 0.7045 0.5598 -0.3915
H18 H 0.6900 0.5351 -0.5006
H19 H 0.8228 0.4352 -0.4261
C19 C 0.2667(4) 0.3936(4) 0.0331(3)
C20 C 0.1890(5) 0.5267(4) 0.0451(4)
H20 H 0.1025 0.5712 0.0002
H21 H 0.2625 0.5713 0.0242
H22 H 0.1509 0.5247 0.1189
C21 C 0.6332(3) 0.2127(3) 0.3214(2)
C22 C 0.7034(4) 0.1457(4) 0.4168(3)
H23 H 0.6673 0.0849 0.4673
C23 C 0.8311(5) 0.1723(5) 0.4349(4)
H24 H 0.8805 0.1277 0.4985
C24 C 0.8852(4) 0.2621(5) 0.3617(4)
C25 C 0.8107(5) 0.3283(5) 0.2697(4)
H25 H 0.8453 0.3906 0.2202
C26 C 0.6854(4) 0.3055(4) 0.2480(3)
H26 H 0.6361 0.3519 0.1845
C27 C 1.0256(6) 0.2866(7) 0.3833(6)
H27 H 1.0958 0.2900 0.3196
H28 H 1.0792 0.2176 0.4410
H29 H 0.9904 0.3678 0.4029
loop_
_geom_bond_atom_site_label_1
_geom_bond_atom_site_label_2
_geom_bond_site_symmetry_1
_geom_bond_site_symmetry_2
S1 N1 1_555 1_555
N1 C1 1_555 1_555
O1 C9 1_555 1_555
O2 C19 1_555 1_555
O3 S1 1_555 1_555
O4 S1 1_555 1_555
C1 C2 1_555 1_555
C2 H1 1_555 1_555
C3 C2 1_555 1_555
H2 C3 1_555 1_555
C4 C3 1_555 1_555
H3 C4 1_555 1_555
C5 C4 1_555 1_555
H4 C5 1_555 1_555
C6 C1 1_555 1_555
C7 C6 1_555 1_555
C8 N1 1_555 1_555
C9 C8 1_555 1_555
C10 C9 1_555 1_555
C11 C7 1_555 1_555
H5 C11 1_555 1_555
C12 C11 1_555 1_555
H6 C12 1_555 1_555
C13 C12 1_555 1_555
H7 C13 1_555 1_555
H8 C13 1_555 1_555
C14 C12 1_555 1_555
H9 C14 1_555 1_555
H10 C14 1_555 1_555
C15 C10 1_555 1_555
H11 C15 1_555 1_555
H12 C15 1_555 1_555
C16 C15 1_555 1_555
H13 C16 1_555 1_555
H14 C16 1_555 1_555
C17 C16 1_555 1_555
H15 C17 1_555 1_555
H16 C17 1_555 1_555
C18 C17 1_555 1_555
H17 C18 1_555 1_555
H18 C18 1_555 1_555
H19 C18 1_555 1_555
C19 O1 1_555 1_555
C20 C19 1_555 1_555
H20 C20 1_555 1_555
H21 C20 1_555 1_555
H22 C20 1_555 1_555
C21 S1 1_555 1_555
C22 C21 1_555 1_555
H23 C22 1_555 1_555
C23 C22 1_555 1_555
H24 C23 1_555 1_555
C24 C23 1_555 1_555
C25 C24 1_555 1_555
H25 C25 1_555 1_555
C26 C21 1_555 1_555
H26 C26 1_555 1_555
C27 C24 1_555 1_555
H27 C27 1_555 1_555
H28 C27 1_555 1_555
H29 C27 1_555 1_555
C5 C6 1_555 1_555
C7 C8 1_555 1_555
C10 C11 1_555 1_555
C13 C14 1_555 1_555
C25 C26 1_555 1_555

#END
