
#######################################################################
#
#                 Cambridge Crystallographic Data Centre
#                                CCDC 
#
#######################################################################
#
# If this CIF has been generated from an entry in the Cambridge 
# Structural Database, then it will include bibliographic, chemical, 
# crystal, experimental, refinement or atomic coordinate data resulting 
# from the CCDC's data processing and validation procedures.
#
#######################################################################

data_GOSPOL
_chemical_name_common            'Gossypol acetic acid clathrate'
_chemical_formula_moiety         'C30 H30 O8,C2 H4 O2'
_chemical_name_systematic        
"1,1',6,6',7,7'-Hexahydroxy-3,3'-dimethyl-5,5'-bis(1-isopropyl)-(2,2'-binaphthalene)-8,8'-dicarboxaldehyde acetic acid solvate"
_symmetry_cell_setting           triclinic
_symmetry_space_group_name_H-M   'P -1'
_symmetry_Int_Tables_number      2
_space_group_name_Hall           '-P 1'
loop_
_symmetry_equiv_pos_site_id
_symmetry_equiv_pos_as_xyz
1 x,y,z
2 -x,-y,-z
_cell_length_a                   14.278
_cell_length_b                   6.924
_cell_length_c                   14.706
_cell_angle_alpha                91.90
_cell_angle_beta                 92.34
_cell_angle_gamma                98.71
_cell_volume                     1434.74
_cell_formula_units_Z            2
loop_
_atom_site_label
_atom_site_type_symbol
_atom_site_fract_x
_atom_site_fract_y
_atom_site_fract_z
C1 C 0.19580 0.25940 0.44170
C2 C 0.17920 0.26880 0.53840
C3 C 0.08130 0.26560 0.55040
C4 C 0.00830 0.25310 0.49790
C5 C 0.02710 0.24060 0.40420
C6 C 0.12290 0.23120 0.37920
C7 C 0.14170 0.20000 0.27920
C8 C 0.07080 0.19060 0.21670
C9 C -0.02290 0.21250 0.23750
C10 C -0.03750 0.23750 0.33120
C11 C -0.09790 0.38120 0.10830
C12 C -0.10000 0.21250 0.16250
C13 C -0.17080 0.05620 0.15000
C14 C -0.23540 0.05620 0.07710
C15 C -0.23330 0.21250 0.01670
C16 C -0.16040 0.37190 0.03750
C17 C -0.31880 -0.10210 0.05830
C18 C -0.38120 -0.10000 -0.01250
C19 C -0.37080 0.05000 -0.07500
C20 C -0.29580 0.20000 -0.05830
C21 C -0.27710 0.35040 -0.13120
C22 C -0.35420 0.47500 -0.15000
C23 C -0.25620 0.25940 -0.22500
C24 C -0.32920 -0.27820 0.11250
C25 C -0.02500 0.55620 0.12920
C26 C 0.08750 0.13120 0.12080
C27 C 0.30000 0.26870 0.42080
C28 C 0.35000 0.11870 0.45210
C29 C 0.36040 0.44890 0.45210
C30 C -0.08540 0.22190 0.53330
O1 O 0.24580 0.28750 0.58750
O2 O 0.06880 0.25940 0.65000
O3 O -0.09790 0.25630 0.61670
O4 O -0.12920 0.27190 0.35210
O5 O -0.19170 -0.09060 0.20420
O6 O -0.40210 -0.40000 0.10000
O7 O -0.46250 -0.22810 -0.02500
O8 O -0.43330 0.04380 -0.14790
C31 C 0.63540 0.10310 0.31250
C32 C 0.65000 0.26870 0.25420
O9 O 0.57920 0.25620 0.19580
O10 O 0.71670 0.38750 0.25420
loop_
_geom_bond_atom_site_label_1
_geom_bond_atom_site_label_2
_geom_bond_site_symmetry_1
_geom_bond_site_symmetry_2
C1 C2 1_555 1_555
C2 C3 1_555 1_555
C3 C4 1_555 1_555
C4 C5 1_555 1_555
C5 C6 1_555 1_555
C6 C1 1_555 1_555
C7 C6 1_555 1_555
C8 C7 1_555 1_555
C9 C8 1_555 1_555
C10 C5 1_555 1_555
C11 C12 1_555 1_555
C12 C9 1_555 1_555
C13 C12 1_555 1_555
C14 C13 1_555 1_555
C15 C14 1_555 1_555
C16 C11 1_555 1_555
C17 C14 1_555 1_555
C18 C17 1_555 1_555
C19 C18 1_555 1_555
C20 C15 1_555 1_555
C21 C20 1_555 1_555
C22 C21 1_555 1_555
C23 C21 1_555 1_555
C24 C17 1_555 1_555
C25 C11 1_555 1_555
C26 C8 1_555 1_555
C27 C1 1_555 1_555
C28 C27 1_555 1_555
C29 C27 1_555 1_555
C30 C4 1_555 1_555
O1 C2 1_555 1_555
O2 C3 1_555 1_555
O3 C30 1_555 1_555
O4 C10 1_555 1_555
O5 C13 1_555 1_555
O6 C24 1_555 1_555
O7 C18 1_555 1_555
O8 C19 1_555 1_555
C31 C32 1_555 1_555
C32 O9 1_555 1_555
O10 C32 1_555 1_555
C9 C10 1_555 1_555
C15 C16 1_555 1_555
C19 C20 1_555 1_555

#END
