
#######################################################################
#
#                 Cambridge Crystallographic Data Centre
#                                CCDC 
#
#######################################################################
#
# If this CIF has been generated from an entry in the Cambridge 
# Structural Database, then it will include bibliographic, chemical, 
# crystal, experimental, refinement or atomic coordinate data resulting 
# from the CCDC's data processing and validation procedures.
#
#######################################################################

data_GOSWIU
_chemical_formula_moiety         'C20 H15 N1 O1,C26 H29 N2 O1 1+,Cl1 1-'
_chemical_name_systematic        
"(R)-(+)-2-Amino-2'-hydroxy-1,1'-binaphthyl N-benzylcinchonidium chloride"
_symmetry_cell_setting           orthorhombic
_symmetry_space_group_name_H-M   'P 21 21 21'
_symmetry_Int_Tables_number      19
_space_group_name_Hall           'P 2ac 2ab'
loop_
_symmetry_equiv_pos_site_id
_symmetry_equiv_pos_as_xyz
1 x,y,z
2 1/2-x,-y,1/2+z
3 1/2+x,1/2-y,-z
4 -x,1/2+y,1/2-z
_cell_length_a                   13.710(6)
_cell_length_b                   26.471(5)
_cell_length_c                   10.49(1)
_cell_angle_alpha                90
_cell_angle_beta                 90
_cell_angle_gamma                90
_cell_volume                     3807
_exptl_crystal_colour            colorless
_exptl_crystal_description       prismatic
_chemical_melting_point          'above 523 K'
_cell_formula_units_Z            4
loop_
_atom_site_label
_atom_site_type_symbol
_atom_site_fract_x
_atom_site_fract_y
_atom_site_fract_z
Cl1 Cl 0.4234(2) 0.28677(9) 0.7700(2)
O1 O 0.6237(4) 0.2329(2) 0.7594(6)
N1 N 0.5973(5) 0.1657(3) 0.5310(6)
N2 N 0.6525(7) 0.1140(4) 1.1307(7)
C1 C 0.6158(6) 0.1492(3) 0.6674(8)
C2 C 0.7255(6) 0.1376(4) 0.6818(8)
C3 C 0.7760(7) 0.1383(5) 0.554(1)
C4 C 0.726(1) 0.1044(6) 0.464(1)
C5 C 0.6181(8) 0.1194(4) 0.4479(9)
C6 C 0.6663(6) 0.2080(4) 0.4901(9)
C7 C 0.7692(7) 0.1928(6) 0.510(1)
C8 C 0.5776(6) 0.1856(3) 0.7707(8)
C9 C 0.6978(8) 0.1522(4) 1.0883(9)
C10 C 0.6744(7) 0.1777(4) 0.9748(8)
C11 C 0.5985(6) 0.1611(3) 0.9019(8)
C12 C 0.4580(7) 0.1017(4) 0.8865(8)
C13 C 0.4068(8) 0.0617(4) 0.9343(10)
C14 C 0.4424(9) 0.0379(4) 1.047(1)
C15 C 0.5211(9) 0.0559(4) 1.110(1)
C16 C 0.5727(7) 0.0975(4) 1.0628(8)
C17 C 0.5420(6) 0.1202(3) 0.9462(8)
C18 C 0.7327 0.0485 0.4995
C19 C 0.7855 0.0199 0.3760
C20 C 0.4916(6) 0.1821(3) 0.5152(9)
C21 C 0.4584(6) 0.1914(4) 0.3805(9)
C22 C 0.4682(7) 0.2389(3) 0.3223(10)
C23 C 0.4314(7) 0.2448(4) 0.200(1)
C24 C 0.3854(8) 0.2078(4) 0.1367(9)
C25 C 0.3721(7) 0.1619(4) 0.196(1)
C26 C 0.4094(7) 0.1544(3) 0.3149(9)
H1 H 0.5645 0.1128 0.6628
H2 H 0.7541 0.1632 0.7334
H3 H 0.7330 0.1059 0.7205
H4 H 0.8520 0.1327 0.5623
H5 H 0.7543 0.1060 0.3816
H6 H 0.5768 0.0924 0.4732
H7 H 0.6068 0.1273 0.3611
H8 H 0.6562 0.2370 0.5393
H9 H 0.6553 0.2156 0.4016
H10 H 0.8005 0.2100 0.5656
H11 H 0.8006 0.1897 0.4268
H12 H 0.4996 0.2021 0.7666
H13 H 0.7525 0.1644 1.1359
H14 H 0.7121 0.2056 0.9484
H15 H 0.4343 0.1174 0.8108
H16 H 0.3503 0.0495 0.8920
H17 H 0.4088 0.0086 1.0741
H18 H 0.5405 0.0396 1.1853
H19 H 0.5761 0.2594 0.7818
H20 H 0.7087 0.0314 0.5728
H21 H 0.7931 -0.0158 0.3759
H22 H 0.8081 0.0392 0.3055
H23 H 0.4820 0.2129 0.5603
H24 H 0.4506 0.1568 0.5500
H25 H 0.4990 0.2657 0.3654
H26 H 0.4382 0.2767 0.1591
H27 H 0.3635 0.2118 0.0520
H28 H 0.3375 0.1354 0.1545
H29 H 0.3992 0.1226 0.3547
O2 O 0.5243(4) 0.3321(2) 0.5309(6)
N3 N 0.7861(5) 0.3085(3) 0.3558(7)
C27 C 0.6435(6) 0.3612(3) 0.3270(8)
C28 C 0.7082(6) 0.3255(3) 0.2816(9)
C29 C 0.6998(7) 0.3070(4) 0.1571(9)
C30 C 0.6296(8) 0.3234(4) 0.0783(9)
C31 C 0.4813(8) 0.3768(4) 0.0395(9)
C32 C 0.4182(7) 0.4115(4) 0.0811(9)
C33 C 0.4255(7) 0.4316(3) 0.2063(10)
C34 C 0.4996(6) 0.4157(3) 0.2869(8)
C35 C 0.5673(6) 0.3793(3) 0.2466(7)
C36 C 0.5602(7) 0.3596(3) 0.1196(9)
C37 C 0.6542(6) 0.3823(3) 0.4583(8)
C38 C 0.5947(6) 0.3671(3) 0.5551(8)
C39 C 0.6039(7) 0.3879(4) 0.6805(8)
C40 C 0.6720(7) 0.4225(4) 0.7061(8)
C41 C 0.8097(7) 0.4759(4) 0.633(1)
C42 C 0.8747(8) 0.4897(4) 0.541(1)
C43 C 0.8655(7) 0.4699(3) 0.4184(10)
C44 C 0.7960(6) 0.4351(3) 0.3934(9)
C45 C 0.7299(6) 0.4190(3) 0.4852(8)
C46 C 0.7352(6) 0.4400(3) 0.6118(9)
H30 H 0.7447 0.2816 0.1294
H31 H 0.6263 0.3107 -0.0066
H32 H 0.4757 0.3643 -0.0447
H33 H 0.3672 0.4222 0.0275
H34 H 0.3800 0.4558 0.2335
H35 H 0.5077 0.4311 0.3824
H36 H 0.5618 0.3776 0.7468
H37 H 0.6790 0.4355 0.7896
H38 H 0.8159 0.4900 0.7150
H39 H 0.9213 0.5151 0.5608
H40 H 0.9104 0.4798 0.3551
H41 H 0.7923 0.4220 0.3082
H42 H 0.8140 0.2716 0.3120
H43 H 0.7728 0.2984 0.4570
H44 H 0.4906 0.3166 0.6045
loop_
_geom_bond_atom_site_label_1
_geom_bond_atom_site_label_2
_geom_bond_site_symmetry_1
_geom_bond_site_symmetry_2
O1 C8 1_555 1_555
O2 C38 1_555 1_555
N1 C1 1_555 1_555
N2 C9 1_555 1_555
N3 C28 1_555 1_555
C1 C2 1_555 1_555
C2 C3 1_555 1_555
C3 C4 1_555 1_555
C4 C5 1_555 1_555
C5 N1 1_555 1_555
C6 N1 1_555 1_555
C7 C3 1_555 1_555
C8 C1 1_555 1_555
C9 C10 1_555 1_555
C10 C11 1_555 1_555
C11 C8 1_555 1_555
C12 C13 1_555 1_555
C13 C14 1_555 1_555
C14 C15 1_555 1_555
C15 C16 1_555 1_555
C16 N2 1_555 1_555
C17 C11 1_555 1_555
C18 C4 1_555 1_555
C19 C18 1_555 1_555
C20 N1 1_555 1_555
C21 C20 1_555 1_555
C22 C21 1_555 1_555
C23 C22 1_555 1_555
C24 C23 1_555 1_555
C25 C24 1_555 1_555
C26 C21 1_555 1_555
C27 C28 1_555 1_555
C28 C29 1_555 1_555
C29 C30 1_555 1_555
C30 C36 1_555 1_555
C31 C32 1_555 1_555
C32 C33 1_555 1_555
C33 C34 1_555 1_555
C34 C35 1_555 1_555
C35 C27 1_555 1_555
C36 C31 1_555 1_555
C37 C27 1_555 1_555
C38 C37 1_555 1_555
C39 C38 1_555 1_555
C40 C39 1_555 1_555
C41 C42 1_555 1_555
C42 C43 1_555 1_555
C43 C44 1_555 1_555
C44 C45 1_555 1_555
C45 C37 1_555 1_555
C46 C40 1_555 1_555
H1 C1 1_555 1_555
H2 C2 1_555 1_555
H3 C2 1_555 1_555
H4 C3 1_555 1_555
H5 C4 1_555 1_555
H6 C5 1_555 1_555
H7 C5 1_555 1_555
H8 C6 1_555 1_555
H9 C6 1_555 1_555
H10 C7 1_555 1_555
H11 C7 1_555 1_555
H12 C8 1_555 1_555
H13 C9 1_555 1_555
H14 C10 1_555 1_555
H15 C12 1_555 1_555
H16 C13 1_555 1_555
H17 C14 1_555 1_555
H18 C15 1_555 1_555
H19 O1 1_555 1_555
H20 C18 1_555 1_555
H21 C19 1_555 1_555
H22 C19 1_555 1_555
H23 C20 1_555 1_555
H24 C20 1_555 1_555
H25 C22 1_555 1_555
H26 C23 1_555 1_555
H27 C24 1_555 1_555
H28 C25 1_555 1_555
H29 C26 1_555 1_555
H30 C29 1_555 1_555
H31 C30 1_555 1_555
H32 C31 1_555 1_555
H33 C32 1_555 1_555
H34 C33 1_555 1_555
H35 C34 1_555 1_555
H36 C39 1_555 1_555
H37 C40 1_555 1_555
H38 C41 1_555 1_555
H39 C42 1_555 1_555
H40 C43 1_555 1_555
H41 C44 1_555 1_555
H42 N3 1_555 1_555
H43 N3 1_555 1_555
H44 O2 1_555 1_555
C6 C7 1_555 1_555
C12 C17 1_555 1_555
C16 C17 1_555 1_555
C25 C26 1_555 1_555
C35 C36 1_555 1_555
C41 C46 1_555 1_555
C45 C46 1_555 1_555

#END
