
#######################################################################
#
#                 Cambridge Crystallographic Data Centre
#                                CCDC 
#
#######################################################################
#
# If this CIF has been generated from an entry in the Cambridge 
# Structural Database, then it will include bibliographic, chemical, 
# crystal, experimental, refinement or atomic coordinate data resulting 
# from the CCDC's data processing and validation procedures.
#
#######################################################################

data_GOTMUX
_chemical_formula_moiety         'C32 H56 N6 O2'
_chemical_name_systematic        
2,2'-Diamino-4,4'-didodecyloxy-5,5'-bipyrimidine
_symmetry_cell_setting           monoclinic
_symmetry_space_group_name_H-M   'P 21/n'
_symmetry_Int_Tables_number      14
_space_group_name_Hall           '-P 2yn'
loop_
_symmetry_equiv_pos_site_id
_symmetry_equiv_pos_as_xyz
1 x,y,z
2 1/2+x,1/2-y,1/2+z
3 -x,-y,-z
4 1/2-x,1/2+y,1/2-z
_cell_length_a                   10.064(3)
_cell_length_b                   25.425(4)
_cell_length_c                   13.731(4)
_cell_angle_alpha                90
_cell_angle_beta                 108.955(19)
_cell_angle_gamma                90
_cell_volume                     3322.93
_chemical_melting_point          156deg.C
_cell_formula_units_Z            4
_exptl_crystal_recrystallization_method chloroform
loop_
_atom_site_label
_atom_site_type_symbol
_atom_site_fract_x
_atom_site_fract_y
_atom_site_fract_z
O1 O 0.7299(3) 0.17534(14) 0.6322(2)
O2 O 1.1618(4) 0.17984(15) 0.8925(2)
N1 N 1.0889(4) 0.23028(17) 0.5987(3)
N2 N 0.7881(4) 0.23962(16) 0.9135(3)
N3 N 0.5506(4) 0.23373(17) 0.8807(3)
H1 H 0.4676 0.2254 0.8417
H2 H 0.5626 0.2475 0.9401
N4 N 1.3253(4) 0.21901(18) 0.6260(3)
H3 H 1.3118 0.2290 0.5636
H4 H 1.4083 0.2106 0.6649
N5 N 0.6368(4) 0.20345(16) 0.7557(3)
N6 N 1.2471(4) 0.20068(17) 0.7612(3)
C1 C 1.2173(5) 0.2167(2) 0.6624(4)
C2 C 0.6607(5) 0.2252(2) 0.8493(4)
C3 C 1.1388(5) 0.1978(2) 0.7960(4)
C4 C 0.7462(5) 0.1981(2) 0.7240(3)
C5 C 1.0026(5) 0.2132(2) 0.7400(4)
C6 C 0.8844(5) 0.2139(2) 0.7816(4)
C7 C 0.9871(5) 0.2279(2) 0.6404(4)
H5 H 0.8972 0.2371 0.5985
C8 C 0.8944(6) 0.2331(2) 0.8765(4)
H6 H 0.9835 0.2426 0.9193
C9 C 1.2996(5) 0.1614(2) 0.9497(4)
H7 H 1.3614 0.1909 0.9773
H8 H 1.3385 0.1412 0.9054
C10 C 0.5937(5) 0.1547(2) 0.5731(4)
H9 H 0.5289 0.1833 0.5442
H10 H 0.5556 0.1336 0.6166
C11 C 1.2865(7) 0.1273(2) 1.0363(4)
H11 H 1.2278 0.0974 1.0058
H12 H 1.3791 0.1137 1.0737
C12 C 0.6142(6) 0.1214(2) 0.4881(4)
H13 H 0.6811 0.0938 0.5190
H14 H 0.5255 0.1047 0.4511
C13 C 0.6654(6) 0.1508(2) 0.4118(4)
H15 H 0.7571 0.1657 0.4474
H16 H 0.6015 0.1796 0.3829
C14 C 1.2286(7) 0.1515(2) 1.1117(4)
H17 H 1.2827 0.1829 1.1389
H18 H 1.1329 0.1626 1.0755
C15 C 1.2273(8) 0.1181(3) 1.1992(5)
H19 H 1.1808 0.0856 1.1697
H20 H 1.3245 0.1090 1.2355
C16 C 0.6759(7) 0.1160(2) 0.3254(4)
H21 H 0.7436 0.0884 0.3545
H22 H 0.5855 0.0994 0.2931
C17 C 1.1675(8) 0.1336(2) 1.2765(5)
H23 H 1.2126 0.1663 1.3054
H24 H 1.0696 0.1418 1.2408
C18 C 0.7185(7) 0.1443(2) 0.2439(4)
H25 H 0.8098 0.1604 0.2756
H26 H 0.6515 0.1722 0.2150
C19 C 0.7262(7) 0.1081(2) 0.1569(4)
H27 H 0.7951 0.0809 0.1858
H28 H 0.6357 0.0911 0.1269
C20 C 1.1703(8) 0.1008(3) 1.3612(5)
H29 H 1.2689 0.0950 1.3989
H30 H 1.1333 0.0671 1.3314
C21 C 1.1052(9) 0.1113(3) 1.4376(5)
H31 H 1.1438 0.1444 1.4694
H32 H 1.0066 0.1176 1.4006
C22 C 0.7645(7) 0.1359(2) 0.0723(4)
H33 H 0.8567 0.1516 0.1022
H34 H 0.6981 0.1643 0.0462
C23 C 0.7666(7) 0.1014(2) -0.0187(4)
H35 H 0.8094 0.1211 -0.0612
H36 H 0.8252 0.0709 0.0076
C24 C 1.1093(8) 0.0763(3) 1.5199(5)
H37 H 1.0732 0.0430 1.4874
H38 H 1.2081 0.0706 1.5569
C25 C 0.6227(7) 0.0829(3) -0.0852(5)
H39 H 0.5608 0.1130 -0.1057
H40 H 0.5841 0.0597 -0.0450
C26 C 1.0450(8) 0.0840(3) 1.5967(5)
H41 H 1.0782 0.1178 1.6276
H42 H 0.9455 0.0883 1.5599
C27 C 0.6271(7) 0.0538(3) -0.1813(5)
H43 H 0.6772 0.0754 -0.2162
H44 H 0.6804 0.0216 -0.1601
C28 C 1.0533(8) 0.0498(3) 1.6797(5)
H45 H 1.1529 0.0451 1.7156
H46 H 1.0190 0.0161 1.6485
C29 C 0.4879(7) 0.0402(3) -0.2557(5)
H47 H 0.4330 0.0722 -0.2751
H48 H 0.4392 0.0173 -0.2221
C30 C 0.9907(10) 0.0570(3) 1.7591(6)
H49 H 1.0196 0.0917 1.7876
H50 H 0.8902 0.0591 1.7239
C31 C 1.0082(8) 0.0230(3) 1.8456(5)
H51 H 0.9256 0.0246 1.8661
H52 H 1.0883 0.0342 1.9018
H53 H 1.0223 -0.0124 1.8269
C32 C 0.4956(8) 0.0132(2) -0.3530(5)
H54 H 0.5412 0.0360 -0.3880
H55 H 0.4024 0.0054 -0.3976
H56 H 0.5482 -0.0189 -0.3347
loop_
_geom_bond_atom_site_label_1
_geom_bond_atom_site_label_2
_geom_bond_site_symmetry_1
_geom_bond_site_symmetry_2
O1 C4 1_555 1_555
O2 C3 1_555 1_555
N1 C1 1_555 1_555
N2 C2 1_555 1_555
N3 H1 1_555 1_555
H2 N3 1_555 1_555
N4 H3 1_555 1_555
H4 N4 1_555 1_555
N5 C2 1_555 1_555
N6 C1 1_555 1_555
C1 N4 1_555 1_555
C2 N3 1_555 1_555
C3 N6 1_555 1_555
C4 N5 1_555 1_555
C5 C3 1_555 1_555
C6 C4 1_555 1_555
C7 N1 1_555 1_555
H5 C7 1_555 1_555
C8 N2 1_555 1_555
H6 C8 1_555 1_555
C9 O2 1_555 1_555
H7 C9 1_555 1_555
H8 C9 1_555 1_555
C10 O1 1_555 1_555
H9 C10 1_555 1_555
H10 C10 1_555 1_555
C11 C9 1_555 1_555
H11 C11 1_555 1_555
H12 C11 1_555 1_555
C12 C10 1_555 1_555
H13 C12 1_555 1_555
H14 C12 1_555 1_555
C13 C12 1_555 1_555
H15 C13 1_555 1_555
H16 C13 1_555 1_555
C14 C11 1_555 1_555
H17 C14 1_555 1_555
H18 C14 1_555 1_555
C15 C14 1_555 1_555
H19 C15 1_555 1_555
H20 C15 1_555 1_555
C16 C13 1_555 1_555
H21 C16 1_555 1_555
H22 C16 1_555 1_555
C17 C15 1_555 1_555
H23 C17 1_555 1_555
H24 C17 1_555 1_555
C18 C16 1_555 1_555
H25 C18 1_555 1_555
H26 C18 1_555 1_555
C19 C18 1_555 1_555
H27 C19 1_555 1_555
H28 C19 1_555 1_555
C20 C17 1_555 1_555
H29 C20 1_555 1_555
H30 C20 1_555 1_555
C21 C20 1_555 1_555
H31 C21 1_555 1_555
H32 C21 1_555 1_555
C22 C19 1_555 1_555
H33 C22 1_555 1_555
H34 C22 1_555 1_555
C23 C22 1_555 1_555
H35 C23 1_555 1_555
H36 C23 1_555 1_555
C24 C21 1_555 1_555
H37 C24 1_555 1_555
H38 C24 1_555 1_555
C25 C23 1_555 1_555
H39 C25 1_555 1_555
H40 C25 1_555 1_555
C26 C24 1_555 1_555
H41 C26 1_555 1_555
H42 C26 1_555 1_555
C27 C25 1_555 1_555
H43 C27 1_555 1_555
H44 C27 1_555 1_555
C28 C26 1_555 1_555
H45 C28 1_555 1_555
H46 C28 1_555 1_555
C29 C27 1_555 1_555
H47 C29 1_555 1_555
H48 C29 1_555 1_555
C30 C28 1_555 1_555
H49 C30 1_555 1_555
H50 C30 1_555 1_555
C31 C30 1_555 1_555
H51 C31 1_555 1_555
H52 C31 1_555 1_555
H53 C31 1_555 1_555
C32 C29 1_555 1_555
H54 C32 1_555 1_555
H55 C32 1_555 1_555
H56 C32 1_555 1_555
C5 C6 1_555 1_555
C5 C7 1_555 1_555
C6 C8 1_555 1_555

#END
