
#######################################################################
#
#                 Cambridge Crystallographic Data Centre
#                                CCDC 
#
#######################################################################
#
# If this CIF has been generated from an entry in the Cambridge 
# Structural Database, then it will include bibliographic, chemical, 
# crystal, experimental, refinement or atomic coordinate data resulting 
# from the CCDC's data processing and validation procedures.
#
#######################################################################

data_GOTMOR
_chemical_formula_moiety         'C12 H16 N6 O2'
_chemical_name_systematic        2,2'-Diamino-4,4'-diethoxy-5,5'-bipyrimidine
_symmetry_cell_setting           monoclinic
_symmetry_space_group_name_H-M   'C c'
_symmetry_Int_Tables_number      9
_space_group_name_Hall           'C -2yc'
loop_
_symmetry_equiv_pos_site_id
_symmetry_equiv_pos_as_xyz
1 x,y,z
2 x,-y,1/2+z
3 1/2+x,1/2+y,z
4 1/2+x,1/2-y,1/2+z
_cell_length_a                   9.761(7)
_cell_length_b                   14.521(6)
_cell_length_c                   10.2151(9)
_cell_angle_alpha                90
_cell_angle_beta                 109.04(3)
_cell_angle_gamma                90
_cell_volume                     1368.67
_exptl_crystal_colour            colorless
_exptl_crystal_description       needle
_chemical_melting_point          216-217deg.C
_cell_formula_units_Z            4
_exptl_crystal_recrystallization_method 1,2-dichloroethane
loop_
_atom_site_label
_atom_site_type_symbol
_atom_site_fract_x
_atom_site_fract_y
_atom_site_fract_z
O1 O 0.2398(8) -0.1383(7) -0.4289(7)
O2 O 0.0576(9) -0.1377(6) -0.9219(7)
N1 N -0.1602(10) -0.0597(8) -0.6641(8)
N2 N 0.4618(10) -0.0612(8) -0.6726(8)
N3 N -0.2398(9) -0.0888(10) -0.4821(10)
H1 H -0.3285 -0.0710 -0.5289
H2 H -0.2192 -0.1081 -0.3961
N4 N 0.5374(10) -0.0871(8) -0.8628(8)
H3 H 0.5261 -0.1029 -0.9488
H4 H 0.6234 -0.0706 -0.8070
N5 N 0.0021(10) -0.1137(8) -0.4525(9)
N6 N 0.2980(10) -0.1116(8) -0.8945(8)
C1 C -0.1320(12) -0.0865(9) -0.5442(11)
C2 C 0.4250(14) -0.0881(10) -0.8172(12)
C3 C 0.1122(11) -0.1115(8) -0.5068(11)
C4 C 0.1945(13) -0.1108(8) -0.8425(10)
C5 C 0.0940(11) -0.0863(8) -0.6457(10)
C6 C 0.2140(12) -0.0817(9) -0.7043(10)
C7 C -0.0488(14) -0.0602(10) -0.7197(12)
H5 H -0.0701 -0.0417 -0.8135
C8 C 0.3472(14) -0.0595(10) -0.6324(12)
H6 H 0.3627 -0.0397 -0.5401
C9 C 0.2559(15) -0.1721(10) -0.2919(11)
H7 H 0.1961 -0.2279 -0.2970
H8 H 0.2256 -0.1246 -0.2373
C10 C 0.0363(13) -0.1688(8) -1.0601(11)
H9 H 0.0935 -0.2254 -1.0585
H10 H 0.0679 -0.1209 -1.1130
C11 C 0.4179(12) -0.1947(9) -0.2251(12)
H11 H 0.4754 -0.1387 -0.2207
H12 H 0.4462 -0.2413 -0.2809
H13 H 0.4353 -0.2185 -0.1313
C12 C -0.1191(14) -0.1878(8) -1.1246(9)
H14 H -0.1739 -0.1303 -1.1327
H15 H -0.1507 -0.2316 -1.0673
H16 H -0.1364 -0.2141 -1.2170
loop_
_geom_bond_atom_site_label_1
_geom_bond_atom_site_label_2
_geom_bond_site_symmetry_1
_geom_bond_site_symmetry_2
O1 C3 1_555 1_555
O2 C4 1_555 1_555
N1 C1 1_555 1_555
N2 C2 1_555 1_555
N3 H1 1_555 1_555
H2 N3 1_555 1_555
N4 H3 1_555 1_555
H4 N4 1_555 1_555
N5 C1 1_555 1_555
N6 C2 1_555 1_555
C1 N3 1_555 1_555
C2 N4 1_555 1_555
C3 N5 1_555 1_555
C4 N6 1_555 1_555
C5 C3 1_555 1_555
C6 C4 1_555 1_555
C7 N1 1_555 1_555
H5 C7 1_555 1_555
C8 N2 1_555 1_555
H6 C8 1_555 1_555
C9 O1 1_555 1_555
H7 C9 1_555 1_555
H8 C9 1_555 1_555
C10 O2 1_555 1_555
H9 C10 1_555 1_555
H10 C10 1_555 1_555
C11 C9 1_555 1_555
H11 C11 1_555 1_555
H12 C11 1_555 1_555
H13 C11 1_555 1_555
C12 C10 1_555 1_555
H14 C12 1_555 1_555
H15 C12 1_555 1_555
H16 C12 1_555 1_555
C5 C7 1_555 1_555
C5 C6 1_555 1_555
C6 C8 1_555 1_555

#END
