
#######################################################################
#
#                 Cambridge Crystallographic Data Centre
#                                CCDC 
#
#######################################################################
#
# If this CIF has been generated from an entry in the Cambridge 
# Structural Database, then it will include bibliographic, chemical, 
# crystal, experimental, refinement or atomic coordinate data resulting 
# from the CCDC's data processing and validation procedures.
#
#######################################################################

data_GOVGAZ
_chemical_formula_moiety         'C14 H15 Br5'
_chemical_name_systematic        
1,5,7,10,14-Pentabromopentacyclo(9.2.1.0^2,6^.0^3,8^.0^9,13^)tetradecane
_symmetry_cell_setting           monoclinic
_symmetry_space_group_name_H-M   'P 21/a'
_symmetry_Int_Tables_number      14
_space_group_name_Hall           '-P 2yab'
loop_
_symmetry_equiv_pos_site_id
_symmetry_equiv_pos_as_xyz
1 x,y,z
2 1/2-x,1/2+y,-z
3 -x,-y,-z
4 1/2+x,1/2-y,z
_cell_length_a                   12.345(4)
_cell_length_b                   16.878(7)
_cell_length_c                   15.574(4)
_cell_angle_alpha                90
_cell_angle_beta                 98.20(3)
_cell_angle_gamma                90
_cell_volume                     3211.81
_chemical_melting_point          '204-205 deg.C'
_cell_formula_units_Z            8
loop_
_atom_site_label
_atom_site_type_symbol
_atom_site_fract_x
_atom_site_fract_y
_atom_site_fract_z
Br1 Br 0.3527(1) 0.5665(1) 0.3207(1)
Br2 Br 0.1622(2) 0.8344(1) 0.3324(1)
Br3 Br -0.1399(1) 0.7123(1) 0.1267(1)
Br4 Br -0.0399(2) 0.3884(1) 0.0872(1)
Br5 Br 0.3548(1) 0.5643(1) 0.1126(1)
C1 C 0.2049(11) 0.5714(8) 0.2519(10)
C2 C 0.1494(14) 0.6475(9) 0.2819(10)
C3 C 0.0444(12) 0.6251(9) 0.3201(10)
C4 C 0.0455(13) 0.7637(9) 0.2762(12)
C5 C 0.0040(13) 0.7088(10) 0.3441(11)
C6 C 0.0880(13) 0.7036(9) 0.2128(11)
C7 C -0.0046(11) 0.6567(9) 0.1697(10)
C8 C -0.0234(12) 0.5921(9) 0.2399(9)
C9 C 0.0262(12) 0.5090(9) 0.2221(10)
C10 C 0.0345(12) 0.4915(9) 0.1243(11)
C11 C 0.1570(13) 0.4800(8) 0.1272(10)
C12 C 0.1923(12) 0.4352(9) 0.2151(10)
C13 C 0.1424(11) 0.4946(9) 0.2671(9)
C14 C 0.2102(10) 0.5605(9) 0.1484(10)
Br6 Br 0.5323(2) 0.2116(1) 0.3702(1)
Br7 Br 0.3839(2) 0.3081(1) 0.0492(1)
Br8 Br 0.6401(1) 0.5297(1) 0.1177(1)
Br9 Br 0.8636(2) 0.5007(1) 0.4536(1)
Br10 Br 0.4392(2) 0.3700(1) 0.4579(1)
C15 C 0.5906(12) 0.3130(8) 0.3354(9)
C16 C 0.5651(12) 0.3175(9) 0.2348(10)
C17 C 0.6697(12) 0.3158(9) 0.1901(11)
C18 C 0.6237(14) 0.3196(9) 0.0933(10)
C19 C 0.5166(12) 0.3682(10) 0.0918(10)
C20 C 0.5210(10) 0.3940(8) 0.1843(9)
C21 C 0.6169(11) 0.4508(9) 0.2041(9)
C22 C 0.7193(14) 0.3960(10) 0.2257(10)
C23 C 0.7602(12) 0.3875(9) 0.3238(11)
C24 C 0.7310(11) 0.4541(9) 0.3835(10)
C25 C 0.7209(13) 0.3360(10) 0.4651(10)
C26 C 0.6595(13) 0.4129(11) 0.4442(10)
C27 C 0.7158(12) 0.3133(9) 0.3642(12)
C28 C 0.5547(14) 0.3881(9) 0.3876(10)
loop_
_geom_bond_atom_site_label_1
_geom_bond_atom_site_label_2
_geom_bond_site_symmetry_1
_geom_bond_site_symmetry_2
Br1 C1 1_555 1_555
Br2 C4 1_555 1_555
Br3 C7 1_555 1_555
Br4 C10 1_555 1_555
Br5 C14 1_555 1_555
C1 C2 1_555 1_555
C2 C3 1_555 1_555
C3 C5 1_555 1_555
C4 C5 1_555 1_555
C6 C2 1_555 1_555
C7 C6 1_555 1_555
C8 C3 1_555 1_555
C9 C8 1_555 1_555
C10 C9 1_555 1_555
C11 C10 1_555 1_555
C12 C11 1_555 1_555
C13 C1 1_555 1_555
C14 C1 1_555 1_555
Br6 C15 1_555 1_555
Br7 C19 1_555 1_555
Br8 C21 1_555 1_555
Br9 C24 1_555 1_555
Br10 C28 1_555 1_555
C15 C16 1_555 1_555
C16 C17 1_555 1_555
C17 C18 1_555 1_555
C18 C19 1_555 1_555
C19 C20 1_555 1_555
C20 C16 1_555 1_555
C21 C20 1_555 1_555
C22 C17 1_555 1_555
C23 C22 1_555 1_555
C24 C23 1_555 1_555
C25 C26 1_555 1_555
C26 C24 1_555 1_555
C27 C15 1_555 1_555
C28 C15 1_555 1_555
C4 C6 1_555 1_555
C7 C8 1_555 1_555
C9 C13 1_555 1_555
C11 C14 1_555 1_555
C12 C13 1_555 1_555
C21 C22 1_555 1_555
C23 C27 1_555 1_555
C25 C27 1_555 1_555
C26 C28 1_555 1_555

#END
