
#######################################################################
#
#                 Cambridge Crystallographic Data Centre
#                                CCDC 
#
#######################################################################
#
# If this CIF has been generated from an entry in the Cambridge 
# Structural Database, then it will include bibliographic, chemical, 
# crystal, experimental, refinement or atomic coordinate data resulting 
# from the CCDC's data processing and validation procedures.
#
#######################################################################

data_GOVKAF
_chemical_formula_moiety         'C10 H15 N1 O1'
_chemical_name_systematic        
2-methyl-2,3,5,6,7,8-hexahydroquinolin-4(1H)-one
_symmetry_cell_setting           orthorhombic
_symmetry_space_group_name_H-M   'P 21 21 21'
_symmetry_Int_Tables_number      19
_space_group_name_Hall           'P 2ac 2ab'
loop_
_symmetry_equiv_pos_site_id
_symmetry_equiv_pos_as_xyz
1 x,y,z
2 1/2-x,-y,1/2+z
3 -x,1/2+y,1/2-z
4 1/2+x,1/2-y,-z
_cell_length_a                   6.8744(14)
_cell_length_b                   8.6699(17)
_cell_length_c                   15.729(3)
_cell_angle_alpha                90
_cell_angle_beta                 90
_cell_angle_gamma                90
_cell_volume                     937.454
_exptl_crystal_colour            colorless
_exptl_crystal_description       block
_cell_formula_units_Z            4
loop_
_atom_site_label
_atom_site_type_symbol
_atom_site_fract_x
_atom_site_fract_y
_atom_site_fract_z
O1 O -0.18781(15) -0.65967(14) -0.84093(8)
N1 N 0.39910(16) -0.66784(14) -0.86737(7)
H1 H 0.5181 -0.6577 -0.8872
C1 C 0.10921(19) -0.51768(16) -0.84077(10)
H2 H 0.0450 -0.4497 -0.7987
H3 H 0.1120 -0.4626 -0.8959
C2 C 0.0936(2) -0.79951(16) -0.87629(9)
C3 C 0.2926(2) -0.79285(15) -0.88788(8)
C4 C -0.00862(19) -0.66386(18) -0.85040(9)
C5 C -0.0232(2) -0.94154(18) -0.89809(10)
H4 H -0.0922 -0.9244 -0.9525
H5 H -0.1222 -0.9589 -0.8534
C6 C 0.4428(2) -0.40559(18) -0.81285(11)
H6 H 0.3854 -0.3274 -0.7755
H7 H 0.4510 -0.3651 -0.8709
H8 H 0.5736 -0.4315 -0.7926
C7 C 0.3168(2) -0.54919(16) -0.81218(9)
H9 H 0.3128 -0.5903 -0.7528
C8 C 0.4061(2) -0.92644(17) -0.92358(10)
H10 H 0.4841 -0.9735 -0.8775
H11 H 0.4975 -0.8874 -0.9672
C9 C 0.2777(2) -1.05006(18) -0.96329(10)
H12 H 0.3543 -1.1455 -0.9719
H13 H 0.2309 -1.0145 -1.0195
C10 C 0.1040(3) -1.08414(18) -0.90582(11)
H14 H 0.0272 -1.1702 -0.9299
H15 H 0.1506 -1.1155 -0.8488
loop_
_geom_bond_atom_site_label_1
_geom_bond_atom_site_label_2
_geom_bond_site_symmetry_1
_geom_bond_site_symmetry_2
O1 C4 1_555 1_555
N1 H1 1_555 1_555
C1 H2 1_555 1_555
H3 C1 1_555 1_555
C2 C3 1_555 1_555
C3 N1 1_555 1_555
C4 C1 1_555 1_555
C5 C2 1_555 1_555
H4 C5 1_555 1_555
H5 C5 1_555 1_555
C6 H6 1_555 1_555
H7 C6 1_555 1_555
H8 C6 1_555 1_555
C7 N1 1_555 1_555
H9 C7 1_555 1_555
C8 C3 1_555 1_555
H10 C8 1_555 1_555
H11 C8 1_555 1_555
C9 C8 1_555 1_555
H12 C9 1_555 1_555
H13 C9 1_555 1_555
C10 C5 1_555 1_555
H14 C10 1_555 1_555
H15 C10 1_555 1_555
C1 C7 1_555 1_555
C2 C4 1_555 1_555
C6 C7 1_555 1_555
C9 C10 1_555 1_555

#END
