
#######################################################################
#
#                 Cambridge Crystallographic Data Centre
#                                CCDC 
#
#######################################################################
#
# If this CIF has been generated from an entry in the Cambridge 
# Structural Database, then it will include bibliographic, chemical, 
# crystal, experimental, refinement or atomic coordinate data resulting 
# from the CCDC's data processing and validation procedures.
#
#######################################################################

data_GOVKUZ
_chemical_compound_source        'Caesalpinia sappan'
_chemical_formula_moiety         'C23 H32 O7'
_chemical_name_systematic        
'methyl 4-ethoxy-17-hydroxy-9-methyl-6-oxo-5,16-dioxapentacyclo[12.3.3.0^1,13^.0^2,10^.0^4,8^]icos-7-ene-14-carboxylate'
_symmetry_cell_setting           orthorhombic
_symmetry_space_group_name_H-M   'P 21 21 21'
_symmetry_Int_Tables_number      19
_space_group_name_Hall           'P 2ac 2ab'
loop_
_symmetry_equiv_pos_site_id
_symmetry_equiv_pos_as_xyz
1 x,y,z
2 1/2-x,-y,1/2+z
3 -x,1/2+y,1/2-z
4 1/2+x,1/2-y,-z
_cell_length_a                   9.77200(10)
_cell_length_b                   13.5369(2)
_cell_length_c                   16.5519(2)
_cell_angle_alpha                90
_cell_angle_beta                 90
_cell_angle_gamma                90
_cell_volume                     2189.53
_exptl_crystal_colour            colorless
_exptl_crystal_description       Block
_cell_formula_units_Z            4
loop_
_atom_site_label
_atom_site_type_symbol
_atom_site_fract_x
_atom_site_fract_y
_atom_site_fract_z
O1 O 0.1730(2) 0.7195(2) 0.41511(9)
O2 O 0.16306(15) 0.65013(13) 0.53710(8)
O3 O 0.29059(13) 0.61200(9) 0.65043(8)
O4 O -0.17089(14) 0.82226(11) 0.71960(8)
H1 H -0.2370 0.8246 0.6892
O5 O -0.28817(13) 0.72481(12) 0.81145(8)
O6 O -0.27208(17) 0.90052(14) 1.01293(10)
O7 O -0.05932(16) 0.85726(13) 1.04389(9)
C1 C 0.5140(3) 0.5452(2) 0.6535(2)
H2 H 0.5498 0.5872 0.6952
H3 H 0.5875 0.5227 0.6198
H4 H 0.4692 0.4894 0.6777
C2 C 0.4146(2) 0.60110(18) 0.60429(15)
H5 H 0.4515 0.6655 0.5908
H6 H 0.3958 0.5660 0.5544
C3 C 0.19703(19) 0.67898(14) 0.61955(10)
C4 C 0.2485(2) 0.78387(15) 0.61198(12)
C5 C 0.2449(3) 0.8087(2) 0.53413(13)
H7 H 0.2712 0.8695 0.5130
C6 C 0.1936(3) 0.7259(2) 0.48745(13)
C7 C 0.2714(2) 0.84242(13) 0.68709(12)
H8 H 0.2871 0.9112 0.6710
C8 C 0.3972(2) 0.80788(16) 0.73381(14)
H9 H 0.3846 0.7406 0.7506
H10 H 0.4098 0.8490 0.7805
H11 H 0.4765 0.8123 0.6997
C9 C 0.13413(16) 0.83886(12) 0.73532(10)
H12 H 0.0636 0.8688 0.7011
C10 C 0.08982(16) 0.73087(11) 0.75176(9)
H13 H 0.1668 0.6987 0.7791
C11 C 0.06975(18) 0.67640(14) 0.67074(11)
H14 H 0.0450 0.6082 0.6813
H15 H -0.0050 0.7068 0.6413
C12 C 0.14066(18) 0.89908(12) 0.81254(10)
H16 H 0.1640 0.9669 0.7995
H17 H 0.2120 0.8729 0.8472
C13 C 0.00478(19) 0.89693(12) 0.85753(10)
H18 H -0.0672 0.9232 0.8233
H19 H 0.0106 0.9376 0.9056
C14 C -0.02848(17) 0.79065(12) 0.88094(9)
H20 H 0.0474 0.7676 0.9147
C15 C -0.03689(16) 0.71912(11) 0.80837(9)
C16 C -0.03293(19) 0.61305(12) 0.84390(11)
H21 H -0.0437 0.5663 0.7999
H22 H 0.0567 0.6021 0.8674
C17 C -0.1414(2) 0.59067(15) 0.90805(13)
H23 H -0.2286 0.5798 0.8816
H24 H -0.1167 0.5302 0.9359
C18 C -0.1572(2) 0.67284(15) 0.96962(11)
H25 H -0.0819 0.6694 1.0077
H26 H -0.2413 0.6624 0.9996
C19 C -0.16044(19) 0.77728(14) 0.93154(10)
C20 C -0.28648(19) 0.79209(18) 0.87733(13)
H27 H -0.3687 0.7832 0.9093
H28 H -0.2867 0.8591 0.8567
C21 C -0.17192(18) 0.73270(15) 0.76156(10)
H29 H -0.1773 0.6796 0.7214
C22 C -0.1720(2) 0.85098(15) 0.99933(11)
C23 C -0.0625(3) 0.9279(2) 1.10898(15)
H30 H -0.0701 0.9934 1.0872
H31 H 0.0202 0.9228 1.1400
H32 H -0.1397 0.9146 1.1432
loop_
_geom_bond_atom_site_label_1
_geom_bond_atom_site_label_2
_geom_bond_site_symmetry_1
_geom_bond_site_symmetry_2
O1 C6 1_555 1_555
O2 C3 1_555 1_555
O3 C2 1_555 1_555
O4 H1 1_555 1_555
O5 C20 1_555 1_555
O6 C22 1_555 1_555
O7 C22 1_555 1_555
C1 H2 1_555 1_555
H3 C1 1_555 1_555
H4 C1 1_555 1_555
C2 C1 1_555 1_555
H5 C2 1_555 1_555
H6 C2 1_555 1_555
C3 O3 1_555 1_555
C4 C3 1_555 1_555
C5 C4 1_555 1_555
H7 C5 1_555 1_555
C6 O2 1_555 1_555
C7 C4 1_555 1_555
H8 C7 1_555 1_555
C8 C7 1_555 1_555
H9 C8 1_555 1_555
H10 C8 1_555 1_555
H11 C8 1_555 1_555
C9 C7 1_555 1_555
H12 C9 1_555 1_555
C10 C9 1_555 1_555
H13 C10 1_555 1_555
C11 C3 1_555 1_555
H14 C11 1_555 1_555
H15 C11 1_555 1_555
C12 C9 1_555 1_555
H16 C12 1_555 1_555
H17 C12 1_555 1_555
C13 C12 1_555 1_555
H18 C13 1_555 1_555
H19 C13 1_555 1_555
C14 C13 1_555 1_555
H20 C14 1_555 1_555
C15 C10 1_555 1_555
C16 C15 1_555 1_555
H21 C16 1_555 1_555
H22 C16 1_555 1_555
C17 C16 1_555 1_555
H23 C17 1_555 1_555
H24 C17 1_555 1_555
C18 C17 1_555 1_555
H25 C18 1_555 1_555
H26 C18 1_555 1_555
C19 C14 1_555 1_555
C20 C19 1_555 1_555
H27 C20 1_555 1_555
H28 C20 1_555 1_555
C21 O4 1_555 1_555
H29 C21 1_555 1_555
C22 C19 1_555 1_555
C23 O7 1_555 1_555
H30 C23 1_555 1_555
H31 C23 1_555 1_555
H32 C23 1_555 1_555
O5 C21 1_555 1_555
C5 C6 1_555 1_555
C10 C11 1_555 1_555
C14 C15 1_555 1_555
C15 C21 1_555 1_555
C18 C19 1_555 1_555

#END
