
#######################################################################
#
#                 Cambridge Crystallographic Data Centre
#                                CCDC 
#
#######################################################################
#
# If this CIF has been generated from an entry in the Cambridge 
# Structural Database, then it will include bibliographic, chemical, 
# crystal, experimental, refinement or atomic coordinate data resulting 
# from the CCDC's data processing and validation procedures.
#
#######################################################################

data_GOVMIN
_chemical_formula_moiety         'C19 H15 N1 O4'
_chemical_name_systematic        6-Acetoxy-2-(2-oxo-2-phenylethoxy)quinoline
_symmetry_cell_setting           triclinic
_symmetry_space_group_name_H-M   'P -1'
_symmetry_Int_Tables_number      2
_space_group_name_Hall           '-P 1'
loop_
_symmetry_equiv_pos_site_id
_symmetry_equiv_pos_as_xyz
1 x,y,z
2 -x,-y,-z
_cell_length_a                   9.398(1)
_cell_length_b                   11.892(2)
_cell_length_c                   7.303(2)
_cell_angle_alpha                93.65(2)
_cell_angle_beta                 101.27(2)
_cell_angle_gamma                97.59(1)
_cell_volume                     790.071
_chemical_melting_point          '131-132 deg.C'
_cell_formula_units_Z            2
_exptl_crystal_recrystallization_method hexane/dichloromethane
loop_
_atom_site_label
_atom_site_type_symbol
_atom_site_fract_x
_atom_site_fract_y
_atom_site_fract_z
O1 O 0.9508(3) 0.4141(3) 0.1556(4)
O2 O 1.2120(4) 0.3807(3) 0.0904(5)
O3 O 0.8021(3) -0.0559(3) 0.7945(5)
O4 O 0.5833(4) 0.0054(3) 0.7869(5)
N1 N 0.9923(4) 0.3090(3) 0.4157(5)
C1 C 0.9204(5) 0.3185(4) 0.2488(7)
C2 C 0.8013(5) 0.2390(4) 0.1421(7)
C3 C 0.7584(5) 0.1456(4) 0.2259(7)
C4 C 0.8279(5) 0.1308(4) 0.4091(7)
C5 C 0.7790(5) 0.0393(4) 0.5075(7)
C6 C 0.8459(5) 0.0344(4) 0.6876(7)
C7 C 0.9637(5) 0.1161(4) 0.7830(7)
C8 C 1.0119(5) 0.2048(4) 0.6865(7)
C9 C 0.9456(5) 0.2143(4) 0.5008(6)
C10 C 1.0743(5) 0.4964(4) 0.2442(7)
C11 C 1.2139(5) 0.4664(4) 0.1885(7)
C12 C 1.3525(5) 0.5500(4) 0.2633(6)
C13 C 1.4860(6) 0.5168(4) 0.2438(7)
C14 C 1.6155(6) 0.5888(5) 0.3160(8)
C15 C 1.6120(6) 0.6936(5) 0.4070(7)
C16 C 1.4808(6) 0.7281(4) 0.4220(7)
C17 C 1.3508(5) 0.6557(4) 0.3533(7)
C18 C 0.6656(6) -0.0582(4) 0.8371(7)
C19 C 0.6402(5) -0.1548(4) 0.9582(7)
H1 H 0.7546 0.2508 0.0184
H2 H 0.6804 0.0898 0.1599
H3 H 0.7004 -0.0181 0.4475
H4 H 1.0087 0.1102 0.9100
H5 H 1.0919 0.2606 0.7481
H6 H 1.0585 0.5695 0.2065
H7 H 1.0852 0.4974 0.3763
H8 H 1.4878 0.4445 0.1811
H9 H 1.7066 0.5663 0.3026
H10 H 1.7013 0.7423 0.4598
H11 H 1.4791 0.8018 0.4797
H12 H 1.2601 0.6785 0.3682
H13 H 0.7133 -0.1427 1.0695
H14 H 0.5461 -0.1564 0.9875
H15 H 0.6453 -0.2245 0.8908
loop_
_geom_bond_atom_site_label_1
_geom_bond_atom_site_label_2
_geom_bond_site_symmetry_1
_geom_bond_site_symmetry_2
O1 C1 1_555 1_555
O2 C11 1_555 1_555
O3 C6 1_555 1_555
O4 C18 1_555 1_555
N1 C1 1_555 1_555
C1 C2 1_555 1_555
C2 C3 1_555 1_555
C3 C4 1_555 1_555
C4 C5 1_555 1_555
C5 C6 1_555 1_555
C6 C7 1_555 1_555
C7 C8 1_555 1_555
C8 C9 1_555 1_555
C9 N1 1_555 1_555
C10 O1 1_555 1_555
C11 C10 1_555 1_555
C12 C11 1_555 1_555
C13 C12 1_555 1_555
C14 C13 1_555 1_555
C15 C14 1_555 1_555
C16 C15 1_555 1_555
C17 C12 1_555 1_555
C18 O3 1_555 1_555
C19 C18 1_555 1_555
H1 C2 1_555 1_555
H2 C3 1_555 1_555
H3 C5 1_555 1_555
H4 C7 1_555 1_555
H5 C8 1_555 1_555
H6 C10 1_555 1_555
H7 C10 1_555 1_555
H8 C13 1_555 1_555
H9 C14 1_555 1_555
H10 C15 1_555 1_555
H11 C16 1_555 1_555
H12 C17 1_555 1_555
H13 C19 1_555 1_555
H14 C19 1_555 1_555
H15 C19 1_555 1_555
C4 C9 1_555 1_555
C16 C17 1_555 1_555

#END
