
#######################################################################
#
#                 Cambridge Crystallographic Data Centre
#                                CCDC 
#
#######################################################################
#
# If this CIF has been generated from an entry in the Cambridge 
# Structural Database, then it will include bibliographic, chemical, 
# crystal, experimental, refinement or atomic coordinate data resulting 
# from the CCDC's data processing and validation procedures.
#
#######################################################################

data_GOVZUO
_chemical_formula_moiety         'C10 H10 Cl2 N6 O1'
_chemical_name_systematic        
1-((2,5-dichlorophenyl)amino)-5-methyl-1H-1,2,3-triazole-4-carbohydrazide
_symmetry_cell_setting           triclinic
_symmetry_space_group_name_H-M   'P -1'
_symmetry_Int_Tables_number      2
_space_group_name_Hall           '-P 1'
loop_
_symmetry_equiv_pos_site_id
_symmetry_equiv_pos_as_xyz
1 x,y,z
2 -x,-y,-z
_cell_length_a                   7.3765(2)
_cell_length_b                   7.5213(3)
_cell_length_c                   12.1712(3)
_cell_angle_alpha                97.744(2)
_cell_angle_beta                 92.657(2)
_cell_angle_gamma                110.3030(10)
_cell_volume                     624.381
_exptl_crystal_colour            colorless
_exptl_crystal_description       plate
_cell_formula_units_Z            2
loop_
_atom_site_label
_atom_site_type_symbol
_atom_site_fract_x
_atom_site_fract_y
_atom_site_fract_z
Cl1 Cl 0.54040(7) -0.29734(6) 0.18329(4)
Cl2 Cl 0.95496(7) 0.29352(7) -0.11917(4)
O1 O 0.96241(17) 0.81772(17) 0.38894(10)
N1 N 1.3269(2) 1.0815(2) 0.47420(13)
H1 H 1.307(3) 1.132(3) 0.4153(12)
H2 H 1.241(2) 1.092(3) 0.5198(14)
N2 N 1.2815(2) 0.8821(2) 0.43932(13)
H3 H 1.379(2) 0.843(3) 0.4503(17)
N3 N 1.2329(2) 0.4984(2) 0.35896(12)
N4 N 1.1673(2) 0.3136(2) 0.32063(12)
N5 N 0.9697(2) 0.2584(2) 0.30807(11)
N6 N 0.8496(2) 0.0726(2) 0.26413(12)
H4 H 0.881(3) -0.013(2) 0.2950(16)
C1 C 1.1025(2) 0.7635(2) 0.39949(13)
C2 C 1.0791(2) 0.5603(2) 0.36689(13)
C3 C 0.9079(2) 0.4066(2) 0.33524(13)
C4 C 0.6994(2) 0.3836(3) 0.32854(16)
H5 H 0.6582 0.4010 0.2543
H6 H 0.6804 0.4799 0.3849
H7 H 0.6219 0.2547 0.3420
C5 C 0.8056(2) 0.0371(2) 0.14679(14)
C6 C 0.6608(3) -0.1369(2) 0.09800(15)
C7 C 0.6113(3) -0.1792(3) -0.01612(16)
H8 H 0.5157 -0.2993 -0.0481
C8 C 0.7008(3) -0.0470(3) -0.08394(16)
H9 H 0.6673 -0.0750 -0.1623
C9 C 0.8400(3) 0.1265(3) -0.03523(15)
C10 C 0.8948(2) 0.1705(2) 0.07863(14)
H10 H 0.9920 0.2901 0.1098
loop_
_geom_bond_atom_site_label_1
_geom_bond_atom_site_label_2
_geom_bond_site_symmetry_1
_geom_bond_site_symmetry_2
Cl1 C6 1_555 1_555
Cl2 C9 1_555 1_555
O1 C1 1_555 1_555
N1 H1 1_555 1_555
H2 N1 1_555 1_555
N2 N1 1_555 1_555
H3 N2 1_555 1_555
N3 N4 1_555 1_555
N4 N5 1_555 1_555
N5 N6 1_555 1_555
N6 H4 1_555 1_555
C1 N2 1_555 1_555
C2 N3 1_555 1_555
C3 N5 1_555 1_555
C4 C3 1_555 1_555
H5 C4 1_555 1_555
H6 C4 1_555 1_555
H7 C4 1_555 1_555
C5 N6 1_555 1_555
C6 C5 1_555 1_555
C7 C6 1_555 1_555
H8 C7 1_555 1_555
C8 C7 1_555 1_555
H9 C8 1_555 1_555
C9 C8 1_555 1_555
C10 C5 1_555 1_555
H10 C10 1_555 1_555
C1 C2 1_555 1_555
C2 C3 1_555 1_555
C9 C10 1_555 1_555

#END
