
#######################################################################
#
#                 Cambridge Crystallographic Data Centre
#                                CCDC 
#
#######################################################################
#
# If this CIF has been generated from an entry in the Cambridge 
# Structural Database, then it will include bibliographic, chemical, 
# crystal, experimental, refinement or atomic coordinate data resulting 
# from the CCDC's data processing and validation procedures.
#
#######################################################################

data_GOXBUQ
_chemical_formula_moiety         'C22 H18 N2 O4'
_chemical_name_systematic        
N,N'-bis(Phthaloyl)-(1R,2R)-1,2-diaminocyclohexane
_symmetry_cell_setting           monoclinic
_symmetry_space_group_name_H-M   'C 2'
_symmetry_Int_Tables_number      5
_space_group_name_Hall           'C 2y'
loop_
_symmetry_equiv_pos_site_id
_symmetry_equiv_pos_as_xyz
1 x,y,z
2 -x,y,-z
3 1/2+x,1/2+y,z
4 1/2-x,1/2+y,-z
_cell_length_a                   14.362(3)
_cell_length_b                   8.599(2)
_cell_length_c                   15.239(3)
_cell_angle_alpha                90
_cell_angle_beta                 100.96(3)
_cell_angle_gamma                90
_cell_volume                     1847.67
_exptl_crystal_description       plate
_chemical_melting_point          235-236deg.C
_cell_formula_units_Z            4
loop_
_atom_site_label
_atom_site_type_symbol
_atom_site_fract_x
_atom_site_fract_y
_atom_site_fract_z
C1 C 0.0273(2) -0.5230(5) -0.3353(2)
C2 C 0.0982(2) -0.3996(4) -0.3051(2)
C3 C 0.1048(2) -0.2958(5) -0.2355(2)
H1 H 0.0595(2) -0.2974(5) -0.1965(2)
C4 C 0.1791(2) -0.1884(5) -0.2243(2)
H2 H 0.1857(2) -0.1144(5) -0.1763(2)
C5 C 0.2428(2) -0.1878(5) -0.2814(2)
H3 H 0.2935(2) -0.1133(5) -0.2716(2)
C6 C 0.2370(2) -0.2946(5) -0.3504(2)
H4 H 0.2806(2) -0.2927(5) -0.3909(2)
C7 C 0.1634(2) -0.4008(5) -0.3611(2)
C8 C 0.1390(2) -0.5313(5) -0.4254(2)
C9 C 0.0065(2) -0.7358(4) -0.4485(2)
H5 H -0.0556(2) -0.7374(4) -0.4337(2)
C10 C 0.0576(2) -0.8826(5) -0.4098(2)
H6 H 0.1204(2) -0.8830(5) -0.4230(2)
H7 H 0.0633(2) -0.8824(5) -0.3460(2)
C11 C 0.0049(3) -1.0274(5) -0.4496(2)
H8 H 0.0391(3) -1.1182(5) -0.4250(2)
H9 H -0.0568(3) -1.0301(5) -0.4341(2)
N1 N 0.0553(2) -0.5956(4) -0.4082(2)
O1 O -0.0422(2) -0.5571 -0.30550(14)
O2 O 0.1820(2) -0.5755(4) -0.4813(2)
C9A C -0.0065(2) -0.7358(4) -0.5515(2)
H5A H 0.0556(2) -0.7374(4) -0.5663(2)
C10A C -0.0576(2) -0.8826(5) -0.5902(2)
H6A H -0.1204(2) -0.8830(5) -0.5770(2)
H7A H -0.0633(2) -0.8824(5) -0.6540(2)
C11A C -0.0049(3) -1.0274(5) -0.5504(2)
H8A H -0.0391(3) -1.1182(5) -0.5750(2)
H9A H 0.0568(3) -1.0301(5) -0.5659(2)
N1A N -0.0553(2) -0.5956(4) -0.5918(2)
C1A C -0.0273(2) -0.5230(5) -0.6647(2)
C2A C -0.0982(2) -0.3996(4) -0.6949(2)
C3A C -0.1048(2) -0.2958(5) -0.7645(2)
H1A H -0.0595(2) -0.2974(5) -0.8035(2)
C4A C -0.1791(2) -0.1884(5) -0.7757(2)
H2A H -0.1857(2) -0.1144(5) -0.8237(2)
C5A C -0.2428(2) -0.1878(5) -0.7186(2)
H3A H -0.2935(2) -0.1133(5) -0.7284(2)
C6A C -0.2370(2) -0.2946(5) -0.6496(2)
H4A H -0.2806(2) -0.2927(5) -0.6091(2)
C7A C -0.1634(2) -0.4008(5) -0.6389(2)
C8A C -0.1390(2) -0.5313(5) -0.5746(2)
O2A O -0.1820(2) -0.5755(4) -0.5187(2)
O1A O 0.0422(2) -0.5571 -0.69450(14)
C12 C -0.1651(2) -0.9192(5) -0.0600(2)
C13 C -0.1811(2) -1.0378(5) -0.1311(2)
C14 C -0.2507(2) -1.1517(4) -0.1501(2)
H10 H -0.3008(2) -1.1612(4) -0.1169(2)
C15 C -0.2478(2) -1.2476(5) -0.2224(2)
H11 H -0.2926(2) -1.3310(5) -0.2359(2)
C16 C -0.1788(3) -1.2306(5) -0.2731(2)
H12 H -0.1793(3) -1.2994(5) -0.3228(2)
C17 C -0.1097(2) -1.1176(5) -0.2537(2)
H13 H -0.0617(2) -1.1061(5) -0.2892(2)
C18 C -0.1119(2) -1.0219(4) -0.1821(2)
C19 C -0.0491(2) -0.8911(4) -0.1446(2)
C20 C -0.0534(2) -0.6953(4) -0.0194(2)
H14 H -0.0864(2) -0.6926(4) 0.0298(2)
C21 C -0.0807(2) -0.5484(5) -0.0747(2)
H15 H -0.0498(2) -0.5489(5) -0.1253(2)
H16 H -0.1479(2) -0.5497(5) -0.0967(2)
C22 C -0.0529(2) -0.4021(5) -0.0201(2)
H17 H -0.0675(2) -0.3136(5) -0.0587(2)
H18 H -0.0895(2) -0.3945(5) 0.0263(2)
N2 N -0.0842(2) -0.8356(4) -0.07166(14)
O3 O -0.2106(2) -0.8937(4) -0.0028(2)
O4 O 0.0201(2) -0.8411(4) -0.1704(2)
C20A C 0.0534(2) -0.6953(4) 0.0194(2)
H14A H 0.0864(2) -0.6926(4) -0.0298(2)
C21A C 0.0807(2) -0.5484(5) 0.0747(2)
H15A H 0.0498(2) -0.5489(5) 0.1253(2)
H16A H 0.1479(2) -0.5497(5) 0.0967(2)
C22A C 0.0529(2) -0.4021(5) 0.0201(2)
H17A H 0.0675(2) -0.3136(5) 0.0587(2)
H18A H 0.0895(2) -0.3945(5) -0.0263(2)
N2A N 0.0842(2) -0.8356(4) 0.07166(14)
C12A C 0.1651(2) -0.9192(5) 0.0600(2)
C13A C 0.1811(2) -1.0378(5) 0.1311(2)
C14A C 0.2507(2) -1.1517(4) 0.1501(2)
H10A H 0.3008(2) -1.1612(4) 0.1169(2)
C15A C 0.2478(2) -1.2476(5) 0.2224(2)
H11A H 0.2926(2) -1.3310(5) 0.2359(2)
C16A C 0.1788(3) -1.2306(5) 0.2731(2)
H12A H 0.1793(3) -1.2994(5) 0.3228(2)
C17A C 0.1097(2) -1.1176(5) 0.2537(2)
H13A H 0.0617(2) -1.1061(5) 0.2892(2)
C18A C 0.1119(2) -1.0219(4) 0.1821(2)
C19A C 0.0491(2) -0.8911(4) 0.1446(2)
O4A O -0.0201(2) -0.8411(4) 0.1704(2)
O3A O 0.2106(2) -0.8937(4) 0.0028(2)
loop_
_geom_bond_atom_site_label_1
_geom_bond_atom_site_label_2
_geom_bond_site_symmetry_1
_geom_bond_site_symmetry_2
C1 C2 1_555 1_555
C2 C3 1_555 1_555
C3 H1 1_555 1_555
C4 C3 1_555 1_555
H2 C4 1_555 1_555
C5 C4 1_555 1_555
H3 C5 1_555 1_555
C6 C5 1_555 1_555
H4 C6 1_555 1_555
C7 C2 1_555 1_555
C8 C7 1_555 1_555
C9 H5 1_555 1_555
C10 C9 1_555 1_555
H6 C10 1_555 1_555
H7 C10 1_555 1_555
C11 C10 1_555 1_555
H8 C11 1_555 1_555
H9 C11 1_555 1_555
N1 C1 1_555 1_555
O1 C1 1_555 1_555
O2 C8 1_555 1_555
C12 C13 1_555 1_555
C13 C14 1_555 1_555
C14 H10 1_555 1_555
C15 C14 1_555 1_555
H11 C15 1_555 1_555
C16 C15 1_555 1_555
H12 C16 1_555 1_555
C17 C16 1_555 1_555
H13 C17 1_555 1_555
C18 C13 1_555 1_555
C19 C18 1_555 1_555
C20 H14 1_555 1_555
C21 C20 1_555 1_555
H15 C21 1_555 1_555
H16 C21 1_555 1_555
C22 C21 1_555 1_555
H17 C22 1_555 1_555
H18 C22 1_555 1_555
N2 C12 1_555 1_555
O3 C12 1_555 1_555
O4 C19 1_555 1_555
C9A C9 1_555 1_555
H5A C9A 1_555 1_555
C10A C9A 1_555 1_555
H6A C10A 1_555 1_555
H7A C10A 1_555 1_555
C11A C11 1_555 1_555
H8A C11A 1_555 1_555
H9A C11A 1_555 1_555
N1A C9A 1_555 1_555
C1A N1A 1_555 1_555
C2A C1A 1_555 1_555
C3A C2A 1_555 1_555
H1A C3A 1_555 1_555
C4A C3A 1_555 1_555
H2A C4A 1_555 1_555
C5A C4A 1_555 1_555
H3A C5A 1_555 1_555
C6A C5A 1_555 1_555
H4A C6A 1_555 1_555
C7A C2A 1_555 1_555
C8A N1A 1_555 1_555
O2A C8A 1_555 1_555
O1A C1A 1_555 1_555
C20A C20 1_555 1_555
H14A C20A 1_555 1_555
C21A C20A 1_555 1_555
H15A C21A 1_555 1_555
H16A C21A 1_555 1_555
C22A C22 1_555 1_555
H17A C22A 1_555 1_555
H18A C22A 1_555 1_555
N2A C20A 1_555 1_555
C12A N2A 1_555 1_555
C13A C12A 1_555 1_555
C14A C13A 1_555 1_555
H10A C14A 1_555 1_555
C15A C14A 1_555 1_555
H11A C15A 1_555 1_555
C16A C15A 1_555 1_555
H12A C16A 1_555 1_555
C17A C16A 1_555 1_555
H13A C17A 1_555 1_555
C18A C13A 1_555 1_555
C19A N2A 1_555 1_555
O4A C19A 1_555 1_555
O3A C12A 1_555 1_555
C6 C7 1_555 1_555
C8 N1 1_555 1_555
C9 N1 1_555 1_555
C17 C18 1_555 1_555
C19 N2 1_555 1_555
C20 N2 1_555 1_555
C10A C11A 1_555 1_555
C6A C7A 1_555 1_555
C7A C8A 1_555 1_555
C21A C22A 1_555 1_555
C17A C18A 1_555 1_555
C18A C19A 1_555 1_555

#END
