
#######################################################################
#
#                 Cambridge Crystallographic Data Centre
#                                CCDC 
#
#######################################################################
#
# If this CIF has been generated from an entry in the Cambridge 
# Structural Database, then it will include bibliographic, chemical, 
# crystal, experimental, refinement or atomic coordinate data resulting 
# from the CCDC's data processing and validation procedures.
#
#######################################################################

data_GOYBUR
_chemical_formula_moiety         'C16 H30 N4 O8 2+,2(Cl1 1-),5(H2 O1)'
_chemical_name_systematic        
'1,4,7,10-tetrakis(N-Carboxymethyl)-1,7-diaza-4,10-diazoniumcyclodecane dichloride pentahydrate'
_symmetry_cell_setting           monoclinic
_symmetry_space_group_name_H-M   'P 21/n'
_symmetry_Int_Tables_number      14
_space_group_name_Hall           '-P 2yn'
loop_
_symmetry_equiv_pos_site_id
_symmetry_equiv_pos_as_xyz
1 x,y,z
2 1/2+x,1/2-y,1/2+z
3 -x,-y,-z
4 1/2-x,1/2+y,1/2-z
_cell_length_a                   11.018(2)
_cell_length_b                   20.019(4)
_cell_length_c                   11.822(2)
_cell_angle_alpha                90
_cell_angle_beta                 91.30(3)
_cell_angle_gamma                90
_cell_volume                     2606.9
_exptl_crystal_colour            colorless
_exptl_crystal_description       'orthogonal block'
_cell_formula_units_Z            4
loop_
_atom_site_label
_atom_site_type_symbol
_atom_site_fract_x
_atom_site_fract_y
_atom_site_fract_z
O1 O 0.4799(3) 0.25876(15) 1.1061(3)
O2 O 0.3499(3) 0.30134(14) 0.9787(2)
H1 H 0.3876 0.3367 0.9945
O3 O 0.0415(2) 0.28408(14) 1.3147(2)
H2 H 0.0483 0.3221 1.2854
O4 O 0.1957(2) 0.25763(13) 1.2016(2)
O5 O 0.7566(2) 0.29642(14) 1.2026(2)
H3 H 0.7502 0.3342 1.2329
O6 O 0.6132(2) 0.26671(14) 1.3250(2)
O7 O 0.3152(3) 0.25803(13) 1.4325(2)
O8 O 0.4489(2) 0.30132(13) 1.5572(2)
N1 N 0.2109(2) 0.13029(15) 1.2804(2)
H4 H 0.2790 0.1570 1.2709
N2 N 0.3763(3) 0.13400(15) 1.0923(2)
N3 N 0.5975(2) 0.13977(15) 1.2369(2)
H5 H 0.5262 0.1640 1.2445
N4 N 0.4311(2) 0.13642(15) 1.4289(2)
C1 C 0.1765(3) 0.10121(19) 1.1663(3)
H6 H 0.1309 0.1351 1.1214
H7 H 0.1224 0.0623 1.1769
C2 C 0.2875(3) 0.07926(18) 1.1011(3)
H8 H 0.3262 0.0408 1.1402
H9 H 0.2617 0.0646 1.0243
C3 C 0.4945(3) 0.10856(18) 1.0547(3)
H10 H 0.5377 0.1445 1.0145
H11 H 0.4808 0.0712 1.0010
C4 C 0.5727(3) 0.08448(17) 1.1536(3)
H12 H 0.5311 0.0473 1.1920
H13 H 0.6506 0.0673 1.1252
C5 C 0.6338(3) 0.11299(18) 1.3515(3)
H14 H 0.6727 0.1491 1.3966
H15 H 0.6943 0.0770 1.3424
C6 C 0.5258(3) 0.08562(18) 1.4157(3)
H16 H 0.4912 0.0468 1.3742
H17 H 0.5538 0.0700 1.4913
C7 C 0.3174(3) 0.10522(19) 1.4644(3)
H18 H 0.2676 0.1389 1.5035
H19 H 0.3364 0.0689 1.5188
C8 C 0.2449(3) 0.07681(17) 1.3644(3)
H20 H 0.2937 0.0422 1.3266
H21 H 0.1702 0.0553 1.3920
C9 C 0.1118(3) 0.17397(18) 1.3221(3)
H22 H 0.1175 0.1771 1.4056
H23 H 0.0320 0.1543 1.3011
C10 C 0.1219(3) 0.24324(18) 1.2708(3)
C11 C 0.3329(3) 0.18654(19) 1.0155(3)
H24 H 0.2444 0.1924 1.0240
H25 H 0.3474 0.1730 0.9364
C12 C 0.3961(3) 0.25146(19) 1.0395(3)
C13 C 0.6927(3) 0.18631(19) 1.1955(3)
H26 H 0.6844 0.1908 1.1123
H27 H 0.7740 0.1676 1.2134
C14 C 0.6815(3) 0.25454(19) 1.2499(3)
C15 C 0.4702(3) 0.18724(18) 1.5119(3)
H28 H 0.5587 0.1945 1.5051
H29 H 0.4559 0.1700 1.5889
C16 C 0.4066(3) 0.25254(19) 1.4979(3)
Cl1 Cl 0.4294(3) -0.07007(13) 1.26159(19)
Cl3 Cl 0.4143(3) 0.48170(19) 0.7951(4)
O9 O 0.2232(4) 0.5856(2) 0.7098(4)
O11 O 0.9946(6) 0.1032(4) -0.1506(6)
O14 O 0.7551(5) 0.1156(3) -0.0826(5)
O16 O 1.0000 0.0000 0.0000
O18 O 0.4745(6) 0.4096(4) 1.0290(5)
Cl2? Cl 0.4539(2) -0.07110(12) 1.25726(19)
Cl4? Cl 0.4083(3) 0.49470(19) 0.8328(3)
Cl5? Cl 0.4011(3) 0.46939(17) 0.7598(3)
O10? O 0.1953(16) 0.5864(9) 0.7225(14)
O12? O 0.8420(11) 0.1134(6) -0.2420(9)
O13? O 0.8815(18) 0.1299(10) -0.2434(14)
O15? O 0.8428(5) 0.0871(3) -0.0089(5)
O17? O 0.9557(16) 0.0015(9) 0.0219(14)
O19? O 0.4042(10) 0.4254(5) 1.0178(9)
loop_
_geom_bond_atom_site_label_1
_geom_bond_atom_site_label_2
_geom_bond_site_symmetry_1
_geom_bond_site_symmetry_2
O1 C12 1_555 1_555
O2 H1 1_555 1_555
O3 H2 1_555 1_555
O4 C10 1_555 1_555
O5 H3 1_555 1_555
O6 C14 1_555 1_555
O7 C16 1_555 1_555
O8 C16 1_555 1_555
N1 H4 1_555 1_555
N2 C2 1_555 1_555
N3 H5 1_555 1_555
N4 C6 1_555 1_555
C1 N1 1_555 1_555
H6 C1 1_555 1_555
H7 C1 1_555 1_555
C2 C1 1_555 1_555
H8 C2 1_555 1_555
H9 C2 1_555 1_555
C3 N2 1_555 1_555
H10 C3 1_555 1_555
H11 C3 1_555 1_555
C4 N3 1_555 1_555
H12 C4 1_555 1_555
H13 C4 1_555 1_555
C5 N3 1_555 1_555
H14 C5 1_555 1_555
H15 C5 1_555 1_555
C6 C5 1_555 1_555
H16 C6 1_555 1_555
H17 C6 1_555 1_555
C7 N4 1_555 1_555
H18 C7 1_555 1_555
H19 C7 1_555 1_555
C8 N1 1_555 1_555
H20 C8 1_555 1_555
H21 C8 1_555 1_555
C9 N1 1_555 1_555
H22 C9 1_555 1_555
H23 C9 1_555 1_555
C10 O3 1_555 1_555
C11 N2 1_555 1_555
H24 C11 1_555 1_555
H25 C11 1_555 1_555
C12 O2 1_555 1_555
C13 N3 1_555 1_555
H26 C13 1_555 1_555
H27 C13 1_555 1_555
C14 O5 1_555 1_555
C15 N4 1_555 1_555
H28 C15 1_555 1_555
H29 C15 1_555 1_555
C16 C15 1_555 1_555
C3 C4 1_555 1_555
C7 C8 1_555 1_555
C9 C10 1_555 1_555
C11 C12 1_555 1_555
C13 C14 1_555 1_555

#END
