
#######################################################################
#
#                 Cambridge Crystallographic Data Centre
#                                CCDC 
#
#######################################################################
#
# If this CIF has been generated from an entry in the Cambridge 
# Structural Database, then it will include bibliographic, chemical, 
# crystal, experimental, refinement or atomic coordinate data resulting 
# from the CCDC's data processing and validation procedures.
#
#######################################################################

data_GOYNEP
_chemical_formula_moiety         'C32 H52 Mg1 N6 O1'
_chemical_name_systematic        
bis(2,5-bis(pyrrolidin-1-ylmethyl)-1H-pyrrol-1-yl)-(tetrahydrofuran)-magnesium
_symmetry_cell_setting           orthorhombic
_symmetry_space_group_name_H-M   'P n n a'
_symmetry_Int_Tables_number      52
_space_group_name_Hall           '-P 2a 2bc'
loop_
_symmetry_equiv_pos_site_id
_symmetry_equiv_pos_as_xyz
1 x,y,z
2 1/2-x,-y,z
3 1/2-x,1/2+y,1/2-z
4 x,1/2-y,1/2-z
5 -x,-y,-z
6 1/2+x,y,-z
7 1/2+x,1/2-y,1/2+z
8 -x,1/2+y,1/2+z
_cell_length_a                   19.068(5)
_cell_length_b                   33.771(9)
_cell_length_c                   9.835(3)
_cell_angle_alpha                90
_cell_angle_beta                 90
_cell_angle_gamma                90
_cell_volume                     6333.2
_cell_formula_units_Z            8
loop_
_atom_site_label
_atom_site_type_symbol
_atom_site_fract_x
_atom_site_fract_y
_atom_site_fract_z
Mg1 Mg 0.26310(3) 0.124268(17) 0.26727(7)
N1 N 0.33469(9) 0.15210(5) 0.14118(18)
N2 N 0.29318(9) 0.17380(5) 0.40004(18)
N3 N 0.36612(10) 0.08542(6) -0.07907(19)
N4 N 0.19736(8) 0.09492(5) 0.40115(17)
N5 N 0.33050(8) 0.07413(5) 0.31915(18)
N6 N 0.08141(9) 0.16108(6) 0.4239(2)
O1 O 0.18564(8) 0.12648(4) 0.11404(16)
C1 C 0.37125(11) 0.18155(6) 0.2057(2)
C2 C 0.41258(13) 0.20148(7) 0.1143(3)
H1 H 0.4423 0.2230 0.1330
C3 C 0.40197(13) 0.18359(7) -0.0115(3)
H2 H 0.4233 0.1908 -0.0940
C4 C 0.35466(12) 0.15339(7) 0.0071(2)
C5 C 0.36496(12) 0.18522(6) 0.3550(2)
H3 H 0.3746 0.2126 0.3823
H4 H 0.3996 0.1681 0.3991
C6 C 0.32968(13) 0.12320(8) -0.0912(2)
H5 H 0.2794 0.1189 -0.0771
H6 H 0.3360 0.1334 -0.1837
C7 C 0.24417(12) 0.20736(6) 0.3792(3)
H7 H 0.1956 0.1979 0.3777
H8 H 0.2541 0.2207 0.2929
C8 C 0.25566(15) 0.23575(7) 0.4991(3)
H9 H 0.2882 0.2570 0.4742
H10 H 0.2112 0.2475 0.5284
C9 C 0.28658(19) 0.20984(8) 0.6108(3)
H11 H 0.3334 0.2191 0.6365
H12 H 0.2565 0.2100 0.6915
C10 C 0.29024(15) 0.16853(7) 0.5490(2)
H13 H 0.3321 0.1546 0.5813
H14 H 0.2488 0.1531 0.5745
C11 C 0.43868(14) 0.08799(9) -0.1153(4)
H15 H 0.4657 0.1009 -0.0430
H16 H 0.4446 0.1031 -0.1996
C12 C 0.46240(19) 0.04532(9) -0.1342(5)
H17 H 0.4984 0.0434 -0.2050
H18 H 0.4810 0.0344 -0.0493
C13 C 0.39576(18) 0.02404(10) -0.1767(4)
H19 H 0.3999 0.0142 -0.2700
H20 H 0.3864 0.0016 -0.1161
C14 C 0.33839(15) 0.05414(9) -0.1667(3)
H21 H 0.3267 0.0647 -0.2568
H22 H 0.2961 0.0424 -0.1268
C15 C 0.12905(11) 0.09327(6) 0.4437(2)
C16 C 0.12166(13) 0.06525(7) 0.5435(2)
H23 H 0.0799 0.0585 0.5888
C17 C 0.18816(13) 0.04844(6) 0.5652(2)
H24 H 0.1998 0.0283 0.6274
C18 C 0.23235(11) 0.06728(6) 0.4776(2)
C19 C 0.30990(11) 0.06307(6) 0.4598(2)
H25 H 0.3342 0.0802 0.5249
H26 H 0.3238 0.0356 0.4779
C20 C 0.07356(11) 0.11949(7) 0.3862(3)
H27 H 0.0744 0.1173 0.2869
H28 H 0.0277 0.1101 0.4175
C21 C 0.31397(11) 0.04142(6) 0.2239(2)
H29 H 0.3120 0.0513 0.1303
H30 H 0.2685 0.0296 0.2466
C22 C 0.37275(12) 0.01075(7) 0.2388(3)
H31 H 0.3590 -0.0104 0.3015
H32 H 0.3847 -0.0010 0.1506
C23 C 0.43448(12) 0.03445(7) 0.2959(3)
H33 H 0.4481 0.0245 0.3857
H34 H 0.4751 0.0329 0.2350
C24 C 0.40769(11) 0.07677(6) 0.3057(3)
H35 H 0.4280 0.0901 0.3850
H36 H 0.4204 0.0917 0.2239
C25 C 0.07386(14) 0.16806(8) 0.5687(3)
H37 H 0.1169 0.1609 0.6172
H38 H 0.0348 0.1526 0.6058
C26 C 0.05933(17) 0.21231(9) 0.5811(3)
H39 H 0.0221 0.2174 0.6476
H40 H 0.1017 0.2266 0.6090
C27 C 0.03655(19) 0.22478(10) 0.4399(4)
H41 H -0.0079 0.2393 0.4433
H42 H 0.0722 0.2416 0.3971
C28 C 0.02822(14) 0.18650(8) 0.3637(3)
H43 H -0.0188 0.1754 0.3767
H44 H 0.0367 0.1902 0.2662
C29 C 0.16500(14) 0.16295(8) 0.0495(3)
H45 H 0.2038 0.1740 -0.0037
H46 H 0.1503 0.1825 0.1174
C30 C 0.10476(19) 0.15180(11) -0.0413(4)
H47 H 0.0600 0.1547 0.0066
H48 H 0.1040 0.1684 -0.1230
C31 C 0.11768(17) 0.10998(11) -0.0769(3)
H49 H 0.1493 0.1078 -0.1552
H50 H 0.0737 0.0962 -0.0978
C32 C 0.15106(14) 0.09349(8) 0.0491(3)
H51 H 0.1154 0.0821 0.1093
H52 H 0.1851 0.0728 0.0257
loop_
_geom_bond_atom_site_label_1
_geom_bond_atom_site_label_2
_geom_bond_site_symmetry_1
_geom_bond_site_symmetry_2
Mg1 N1 1_555 1_555
N1 C1 1_555 1_555
N2 Mg1 1_555 1_555
N3 C6 1_555 1_555
N4 Mg1 1_555 1_555
N5 Mg1 1_555 1_555
N6 C20 1_555 1_555
O1 Mg1 1_555 1_555
C1 C2 1_555 1_555
C2 H1 1_555 1_555
C3 C2 1_555 1_555
H2 C3 1_555 1_555
C4 N1 1_555 1_555
C5 N2 1_555 1_555
H3 C5 1_555 1_555
H4 C5 1_555 1_555
C6 C4 1_555 1_555
H5 C6 1_555 1_555
H6 C6 1_555 1_555
C7 N2 1_555 1_555
H7 C7 1_555 1_555
H8 C7 1_555 1_555
C8 C7 1_555 1_555
H9 C8 1_555 1_555
H10 C8 1_555 1_555
C9 C8 1_555 1_555
H11 C9 1_555 1_555
H12 C9 1_555 1_555
C10 N2 1_555 1_555
H13 C10 1_555 1_555
H14 C10 1_555 1_555
C11 N3 1_555 1_555
H15 C11 1_555 1_555
H16 C11 1_555 1_555
C12 C11 1_555 1_555
H17 C12 1_555 1_555
H18 C12 1_555 1_555
C13 C12 1_555 1_555
H19 C13 1_555 1_555
H20 C13 1_555 1_555
C14 N3 1_555 1_555
H21 C14 1_555 1_555
H22 C14 1_555 1_555
C15 N4 1_555 1_555
C16 C15 1_555 1_555
H23 C16 1_555 1_555
C17 C16 1_555 1_555
H24 C17 1_555 1_555
C18 N4 1_555 1_555
C19 N5 1_555 1_555
H25 C19 1_555 1_555
H26 C19 1_555 1_555
C20 C15 1_555 1_555
H27 C20 1_555 1_555
H28 C20 1_555 1_555
C21 N5 1_555 1_555
H29 C21 1_555 1_555
H30 C21 1_555 1_555
C22 C21 1_555 1_555
H31 C22 1_555 1_555
H32 C22 1_555 1_555
C23 C22 1_555 1_555
H33 C23 1_555 1_555
H34 C23 1_555 1_555
C24 N5 1_555 1_555
H35 C24 1_555 1_555
H36 C24 1_555 1_555
C25 N6 1_555 1_555
H37 C25 1_555 1_555
H38 C25 1_555 1_555
C26 C25 1_555 1_555
H39 C26 1_555 1_555
H40 C26 1_555 1_555
C27 C26 1_555 1_555
H41 C27 1_555 1_555
H42 C27 1_555 1_555
C28 N6 1_555 1_555
H43 C28 1_555 1_555
H44 C28 1_555 1_555
C29 O1 1_555 1_555
H45 C29 1_555 1_555
H46 C29 1_555 1_555
C30 C29 1_555 1_555
H47 C30 1_555 1_555
H48 C30 1_555 1_555
C31 C30 1_555 1_555
H49 C31 1_555 1_555
H50 C31 1_555 1_555
C32 O1 1_555 1_555
H51 C32 1_555 1_555
H52 C32 1_555 1_555
C1 C5 1_555 1_555
C3 C4 1_555 1_555
C9 C10 1_555 1_555
C13 C14 1_555 1_555
C17 C18 1_555 1_555
C18 C19 1_555 1_555
C23 C24 1_555 1_555
C27 C28 1_555 1_555
C31 C32 1_555 1_555

#END
