
#######################################################################
#
#                 Cambridge Crystallographic Data Centre
#                                CCDC 
#
#######################################################################
#
# If this CIF has been generated from an entry in the Cambridge 
# Structural Database, then it will include bibliographic, chemical, 
# crystal, experimental, refinement or atomic coordinate data resulting 
# from the CCDC's data processing and validation procedures.
#
#######################################################################

data_GOZCEF
_chemical_formula_moiety         'C7 H5 Br1 N3 P1'
_chemical_name_systematic        
2-bromo-6-(1H-1,2,4-diazaphosphol-1-yl)pyridine
_symmetry_cell_setting           monoclinic
_symmetry_space_group_name_H-M   'P 21/n'
_symmetry_Int_Tables_number      14
_space_group_name_Hall           '-P 2yn'
loop_
_symmetry_equiv_pos_site_id
_symmetry_equiv_pos_as_xyz
1 x,y,z
2 1/2-x,1/2+y,1/2-z
3 -x,-y,-z
4 1/2+x,1/2-y,1/2+z
_cell_length_a                   12.6299(18)
_cell_length_b                   4.2065(7)
_cell_length_c                   17.809(4)
_cell_angle_alpha                90
_cell_angle_beta                 108.769(19)
_cell_angle_gamma                90
_cell_volume                     895.838
_cell_formula_units_Z            4
loop_
_atom_site_label
_atom_site_type_symbol
_atom_site_fract_x
_atom_site_fract_y
_atom_site_fract_z
Br1 Br 0.88172(10) 0.5983(3) 0.35141(7)
P1 P 0.8598(2) -0.2678(7) 0.67545(18)
N1 N 0.6703(7) -0.004(2) 0.5928(5)
N2 N 0.7443(6) 0.0516(17) 0.5550(5)
N3 N 0.7916(6) 0.3130(17) 0.4552(5)
C1 C 0.8466(8) -0.070(2) 0.5905(6)
H1 H 0.9052 -0.0476 0.5699
C2 C 0.7193(8) -0.161(2) 0.6575(7)
H2 H 0.6816 -0.2154 0.6928
C3 C 0.7135(7) 0.239(2) 0.4846(6)
C4 C 0.6010(8) 0.328(2) 0.4514(7)
H3 H 0.5472 0.2658 0.4739
C5 C 0.5741(9) 0.513(2) 0.3837(7)
H4 H 0.5006 0.5785 0.3595
C6 C 0.6576(9) 0.601(2) 0.3514(6)
H5 H 0.6431 0.7309 0.3069
C7 C 0.7619(9) 0.483(2) 0.3902(7)
loop_
_geom_bond_atom_site_label_1
_geom_bond_atom_site_label_2
_geom_bond_site_symmetry_1
_geom_bond_site_symmetry_2
Br1 C7 1_555 1_555
P1 C1 1_555 1_555
N1 N2 1_555 1_555
N2 C1 1_555 1_555
N3 C3 1_555 1_555
C1 H1 1_555 1_555
C2 P1 1_555 1_555
H2 C2 1_555 1_555
C3 N2 1_555 1_555
C4 C3 1_555 1_555
H3 C4 1_555 1_555
C5 C4 1_555 1_555
H4 C5 1_555 1_555
C6 C5 1_555 1_555
H5 C6 1_555 1_555
C7 N3 1_555 1_555
N1 C2 1_555 1_555
C6 C7 1_555 1_555

#END
