
#######################################################################
#
#                 Cambridge Crystallographic Data Centre
#                                CCDC 
#
#######################################################################
#
# If this CIF has been generated from an entry in the Cambridge 
# Structural Database, then it will include bibliographic, chemical, 
# crystal, experimental, refinement or atomic coordinate data resulting 
# from the CCDC's data processing and validation procedures.
#
#######################################################################

data_GOZCAB
_chemical_formula_moiety         'C8 H6 N6 P2'
_chemical_name_systematic        2,6-bis(1H-1,2,4-diazaphosphol-1-yl)pyrazine
_symmetry_cell_setting           orthorhombic
_symmetry_space_group_name_H-M   'P b c n'
_symmetry_Int_Tables_number      60
_space_group_name_Hall           '-P 2n 2ab'
loop_
_symmetry_equiv_pos_site_id
_symmetry_equiv_pos_as_xyz
1 x,y,z
2 1/2-x,1/2-y,1/2+z
3 -x,y,1/2-z
4 1/2+x,1/2-y,-z
5 -x,-y,-z
6 1/2+x,1/2+y,1/2-z
7 x,-y,1/2+z
8 1/2-x,1/2+y,z
_cell_length_a                   4.6831(5)
_cell_length_b                   24.692(4)
_cell_length_c                   9.5645(12)
_cell_angle_alpha                90
_cell_angle_beta                 90
_cell_angle_gamma                90
_cell_volume                     1105.99
_exptl_crystal_colour            colorless
_exptl_crystal_description       prismatic
_cell_formula_units_Z            4
loop_
_atom_site_label
_atom_site_type_symbol
_atom_site_fract_x
_atom_site_fract_y
_atom_site_fract_z
P1 P 1.1046(3) 0.31242(7) 1.05266(18)
N1 N 0.8520(7) 0.38881(17) 0.9220(4)
N2 N 1.0273(8) 0.41652(18) 1.0099(5)
N3 N 0.5000 0.3906(2) 0.7500
N4 N 0.5000 0.5037(2) 0.7500
C1 C 0.8664(9) 0.3340(2) 0.9308(5)
H1 H 0.7575 0.3108 0.8760
C2 C 1.1692(11) 0.3817(2) 1.0841(6)
H2 H 1.3000 0.3929 1.1513
C3 C 0.6700(9) 0.4195(2) 0.8336(5)
C4 C 0.6711(10) 0.4762(2) 0.8344(6)
H3 H 0.7928 0.4946 0.8946
P1B P -0.1046(3) 0.31242(7) 0.44734(18)
N1B N 0.1480(7) 0.38881(17) 0.5780(4)
N2B N -0.0273(8) 0.41652(18) 0.4901(5)
C1B C 0.1336(9) 0.3340(2) 0.5692(5)
H1B H 0.2425 0.3108 0.6240
C2B C -0.1692(11) 0.3817(2) 0.4159(6)
H2B H -0.3000 0.3929 0.3487
C3B C 0.3300(9) 0.4195(2) 0.6664(5)
C4B C 0.3289(10) 0.4762(2) 0.6656(6)
H3B H 0.2072 0.4946 0.6054
loop_
_geom_bond_atom_site_label_1
_geom_bond_atom_site_label_2
_geom_bond_site_symmetry_1
_geom_bond_site_symmetry_2
P1 C1 1_555 1_555
N1 N2 1_555 1_555
N2 C2 1_555 1_555
N3 C3 1_555 1_555
N4 C4 1_555 1_555
C1 N1 1_555 1_555
H1 C1 1_555 1_555
C2 P1 1_555 1_555
H2 C2 1_555 1_555
C3 N1 1_555 1_555
C4 C3 1_555 1_555
H3 C4 1_555 1_555
P1B C1B 1_555 1_555
N1B N2B 1_555 1_555
N2B C2B 1_555 1_555
C1B N1B 1_555 1_555
H1B C1B 1_555 1_555
C2B P1B 1_555 1_555
H2B C2B 1_555 1_555
C3B N3 1_555 1_555
C4B N4 1_555 1_555
H3B C4B 1_555 1_555
N1B C3B 1_555 1_555
C3B C4B 1_555 1_555

#END
