
#######################################################################
#
#                 Cambridge Crystallographic Data Centre
#                                CCDC 
#
#######################################################################
#
# If this CIF has been generated from an entry in the Cambridge 
# Structural Database, then it will include bibliographic, chemical, 
# crystal, experimental, refinement or atomic coordinate data resulting 
# from the CCDC's data processing and validation procedures.
#
#######################################################################

data_GOZKEN
_chemical_formula_moiety         'C23 H30 N1 O5 P1'
_chemical_name_systematic        
'2-isopropyl-5-methylcyclohexyl (hydroxy(2-nitrophenyl)methyl)phenylphosphinate'
_symmetry_cell_setting           orthorhombic
_symmetry_space_group_name_H-M   'P 21 21 21'
_symmetry_Int_Tables_number      19
_space_group_name_Hall           'P 2ac 2ab'
loop_
_symmetry_equiv_pos_site_id
_symmetry_equiv_pos_as_xyz
1 x,y,z
2 1/2-x,-y,1/2+z
3 -x,1/2+y,1/2-z
4 1/2+x,1/2-y,-z
_cell_length_a                   6.2372(5)
_cell_length_b                   18.0699(18)
_cell_length_c                   20.694(2)
_cell_angle_alpha                90
_cell_angle_beta                 90
_cell_angle_gamma                90
_cell_volume                     2332.33
_exptl_crystal_colour            colorless
_exptl_crystal_description       block
_cell_formula_units_Z            4
loop_
_atom_site_label
_atom_site_type_symbol
_atom_site_fract_x
_atom_site_fract_y
_atom_site_fract_z
N1 N 0.2920(7) 0.6745(2) 0.23461(19)
O1 O 0.4657(7) 0.6825(2) 0.2598(2)
O2 O 0.2133(5) 0.71940(16) 0.19743(16)
O3 O -0.1571(3) 0.55944(13) 0.10316(11)
H1 H -0.2730 0.5777 0.1130
O4 O 0.4479(3) 0.59972(10) 0.12525(9)
O5 O 0.2337(3) 0.49076(8) 0.07825(8)
P1 P 0.25265(12) 0.57669(3) 0.09001(3)
C1 C 0.0313(5) 0.57379(18) 0.20567(14)
C2 C 0.1711(6) 0.6069(2) 0.24934(18)
C3 C 0.1969(10) 0.5787(4) 0.3119(2)
H2 H 0.2911 0.6010 0.3408
C4 C 0.0786(14) 0.5167(4) 0.3300(2)
H3 H 0.0977 0.4963 0.3708
C5 C -0.0647(11) 0.4856(3) 0.2884(3)
H4 H -0.1488 0.4459 0.3016
C6 C -0.0840(7) 0.5132(2) 0.22732(18)
H5 H -0.1787 0.4903 0.1990
C7 C 0.0092(4) 0.59736(16) 0.13568(14)
H6 H -0.0186 0.6507 0.1339
C8 C 0.4254(4) 0.44277(13) 0.07737(13)
H7 H 0.5256 0.4599 0.1107
C9 C 0.3541(4) 0.36426(14) 0.09387(13)
H8 H 0.2562 0.3479 0.0597
C10 C 0.5521(5) 0.31456(15) 0.09113(16)
H9 H 0.6503 0.3289 0.1253
H10 H 0.5091 0.2637 0.0989
C11 C 0.6674(5) 0.31898(16) 0.02677(16)
H11 H 0.5742 0.2999 -0.0069
H12 H 0.7942 0.2880 0.0283
C12 C 0.7332(5) 0.39802(15) 0.00985(14)
H13 H 0.8328 0.4152 0.0433
C13 C 0.5344(5) 0.44732(15) 0.01242(13)
H14 H 0.5756 0.4982 0.0040
H15 H 0.4346 0.4322 -0.0210
C14 C 0.2317(6) 0.35984(15) 0.15816(13)
H16 H 0.1132 0.3953 0.1554
C15 C 0.3683(7) 0.3823(2) 0.21709(16)
H17 H 0.4887 0.3495 0.2208
H18 H 0.2826 0.3793 0.2555
H19 H 0.4185 0.4321 0.2116
C16 C 0.1314(6) 0.28316(18) 0.16856(17)
H20 H 0.0339 0.2851 0.2044
H21 H 0.2424 0.2478 0.1774
H22 H 0.0551 0.2686 0.1303
C17 C 0.8487(6) 0.40268(19) -0.05518(17)
H23 H 0.8852 0.4533 -0.0641
H24 H 0.7563 0.3843 -0.0886
H25 H 0.9770 0.3734 -0.0536
C18 C 0.2333(6) 0.62155(13) 0.01310(13)
C19 C 0.0606(7) 0.6133(2) -0.02780(17)
H26 H -0.0527 0.5826 -0.0161
C20 C 0.0551(9) 0.6508(3) -0.0869(2)
H27 H -0.0633 0.6460 -0.1139
C21 C 0.2229(12) 0.6941(2) -0.1049(2)
H28 H 0.2188 0.7197 -0.1438
C22 C 0.3958(10) 0.6999(2) -0.0657(2)
H29 H 0.5138 0.7275 -0.0790
C23 C 0.3988(7) 0.66560(18) -0.00695(19)
H30 H 0.5163 0.6723 0.0201
loop_
_geom_bond_atom_site_label_1
_geom_bond_atom_site_label_2
_geom_bond_site_symmetry_1
_geom_bond_site_symmetry_2
N1 O1 1_555 1_555
O2 N1 1_555 1_555
O3 H1 1_555 1_555
O4 P1 1_555 1_555
O5 P1 1_555 1_555
P1 C7 1_555 1_555
C1 C2 1_555 1_555
C2 N1 1_555 1_555
C3 C2 1_555 1_555
H2 C3 1_555 1_555
C4 C3 1_555 1_555
H3 C4 1_555 1_555
C5 C4 1_555 1_555
H4 C5 1_555 1_555
C6 C1 1_555 1_555
H5 C6 1_555 1_555
C7 O3 1_555 1_555
H6 C7 1_555 1_555
C8 O5 1_555 1_555
H7 C8 1_555 1_555
C9 C8 1_555 1_555
H8 C9 1_555 1_555
C10 C9 1_555 1_555
H9 C10 1_555 1_555
H10 C10 1_555 1_555
C11 C10 1_555 1_555
H11 C11 1_555 1_555
H12 C11 1_555 1_555
C12 C11 1_555 1_555
H13 C12 1_555 1_555
C13 C8 1_555 1_555
H14 C13 1_555 1_555
H15 C13 1_555 1_555
C14 C9 1_555 1_555
H16 C14 1_555 1_555
C15 C14 1_555 1_555
H17 C15 1_555 1_555
H18 C15 1_555 1_555
H19 C15 1_555 1_555
C16 C14 1_555 1_555
H20 C16 1_555 1_555
H21 C16 1_555 1_555
H22 C16 1_555 1_555
C17 C12 1_555 1_555
H23 C17 1_555 1_555
H24 C17 1_555 1_555
H25 C17 1_555 1_555
C18 P1 1_555 1_555
C19 C18 1_555 1_555
H26 C19 1_555 1_555
C20 C19 1_555 1_555
H27 C20 1_555 1_555
C21 C20 1_555 1_555
H28 C21 1_555 1_555
C22 C21 1_555 1_555
H29 C22 1_555 1_555
C23 C18 1_555 1_555
H30 C23 1_555 1_555
C1 C7 1_555 1_555
C5 C6 1_555 1_555
C12 C13 1_555 1_555
C22 C23 1_555 1_555

#END
