
#######################################################################
#
#                 Cambridge Crystallographic Data Centre
#                                CCDC 
#
#######################################################################
#
# If this CIF has been generated from an entry in the Cambridge 
# Structural Database, then it will include bibliographic, chemical, 
# crystal, experimental, refinement or atomic coordinate data resulting 
# from the CCDC's data processing and validation procedures.
#
#######################################################################

data_GOZKOX
_chemical_formula_moiety         'C23 H31 O4 P1'
_chemical_name_systematic        
'2-isopropyl-5-methylcyclohexyl (hydroxy(2-hydroxyphenyl)methyl)phenylphosphinate'
_symmetry_cell_setting           monoclinic
_symmetry_space_group_name_H-M   'P 21'
_symmetry_Int_Tables_number      4
_space_group_name_Hall           'P 2yb'
loop_
_symmetry_equiv_pos_site_id
_symmetry_equiv_pos_as_xyz
1 x,y,z
2 -x,1/2+y,-z
_cell_length_a                   12.3762(11)
_cell_length_b                   5.8126(5)
_cell_length_c                   15.3804(13)
_cell_angle_alpha                90
_cell_angle_beta                 97.0170(10)
_cell_angle_gamma                90
_cell_volume                     1098.15
_exptl_crystal_colour            colorless
_exptl_crystal_description       block
_cell_formula_units_Z            2
loop_
_atom_site_label
_atom_site_type_symbol
_atom_site_fract_x
_atom_site_fract_y
_atom_site_fract_z
O1 O 0.9644(3) -0.4061(7) 0.24518(18)
H1 H 0.9434 -0.4362 0.2924
O2 O 1.0068(3) 0.0111(6) 0.47173(16)
H2 H 1.0179 0.1497 0.4682
O3 O 0.8761(2) 0.3606(5) 0.37199(15)
O4 O 0.7931(2) 0.0416(5) 0.26871(16)
P1 P 0.84531(8) 0.11449(19) 0.36284(6)
C1 C 1.0412(3) -0.0691(7) 0.3212(2)
C2 C 1.1181(3) 0.1072(11) 0.3237(3)
H3 H 1.1213 0.2190 0.3673
C3 C 1.1895(4) 0.1153(13) 0.2613(3)
H4 H 1.2405 0.2331 0.2628
C4 C 1.1854(4) -0.0498(13) 0.1972(4)
H5 H 1.2338 -0.0428 0.1554
C5 C 1.1112(5) -0.2244(11) 0.1940(3)
H6 H 1.1092 -0.3351 0.1502
C6 C 1.0386(4) -0.2373(8) 0.2559(3)
C7 C 0.9612(3) -0.0748(8) 0.3879(2)
H7 H 0.9357 -0.2328 0.3942
C8 C 0.7374(3) 0.2132(8) 0.2085(2)
H8 H 0.7858 0.3456 0.2056
C9 C 0.6343(3) 0.2941(9) 0.2416(3)
H9 H 0.6515 0.3575 0.3000
H10 H 0.5858 0.1643 0.2452
C10 C 0.5777(4) 0.4759(10) 0.1814(3)
H11 H 0.6279 0.6058 0.1801
C11 C 0.5558(4) 0.3807(12) 0.0889(3)
H12 H 0.5026 0.2579 0.0876
H13 H 0.5254 0.5012 0.0497
C12 C 0.6582(4) 0.2896(10) 0.0573(3)
H14 H 0.7079 0.4167 0.0524
H15 H 0.6400 0.2244 -0.0007
C13 C 0.7161(3) 0.1058(9) 0.1177(2)
H16 H 0.6645 -0.0207 0.1213
C14 C 0.8165(4) 0.0050(9) 0.0839(3)
H17 H 0.8453 -0.1124 0.1263
C15 C 0.9073(4) 0.1734(11) 0.0773(3)
H18 H 0.9692 0.0938 0.0600
H19 H 0.9270 0.2455 0.1331
H20 H 0.8837 0.2886 0.0344
C16 C 0.7868(4) -0.1190(10) -0.0036(3)
H21 H 0.7229 -0.2109 -0.0009
H22 H 0.8461 -0.2162 -0.0152
H23 H 0.7728 -0.0075 -0.0497
C17 C 0.7531(3) 0.0337(8) 0.4378(2)
C18 C 0.7425(4) 0.1657(9) 0.5106(3)
H24 H 0.7807 0.3032 0.5193
C19 C 0.6754(4) 0.0950(14) 0.5708(3)
H25 H 0.6680 0.1861 0.6194
C20 C 0.6196(4) -0.1085(12) 0.5595(4)
H26 H 0.5747 -0.1557 0.6004
C21 C 0.6304(4) -0.2414(11) 0.4881(4)
H27 H 0.5917 -0.3783 0.4799
C22 C 0.6981(4) -0.1752(9) 0.4279(3)
H28 H 0.7070 -0.2702 0.3806
C23 C 0.4743(4) 0.5659(16) 0.2149(4)
H29 H 0.4253 0.4402 0.2206
H30 H 0.4398 0.6765 0.1743
H31 H 0.4928 0.6375 0.2710
loop_
_geom_bond_atom_site_label_1
_geom_bond_atom_site_label_2
_geom_bond_site_symmetry_1
_geom_bond_site_symmetry_2
O1 H1 1_555 1_555
O2 H2 1_555 1_555
O3 P1 1_555 1_555
O4 P1 1_555 1_555
P1 C7 1_555 1_555
C1 C2 1_555 1_555
C2 H3 1_555 1_555
C3 C2 1_555 1_555
H4 C3 1_555 1_555
C4 C3 1_555 1_555
H5 C4 1_555 1_555
C5 C4 1_555 1_555
H6 C5 1_555 1_555
C6 O1 1_555 1_555
C7 O2 1_555 1_555
H7 C7 1_555 1_555
C8 O4 1_555 1_555
H8 C8 1_555 1_555
C9 C8 1_555 1_555
H9 C9 1_555 1_555
H10 C9 1_555 1_555
C10 C9 1_555 1_555
H11 C10 1_555 1_555
C11 C10 1_555 1_555
H12 C11 1_555 1_555
H13 C11 1_555 1_555
C12 C11 1_555 1_555
H14 C12 1_555 1_555
H15 C12 1_555 1_555
C13 C8 1_555 1_555
H16 C13 1_555 1_555
C14 C13 1_555 1_555
H17 C14 1_555 1_555
C15 C14 1_555 1_555
H18 C15 1_555 1_555
H19 C15 1_555 1_555
H20 C15 1_555 1_555
C16 C14 1_555 1_555
H21 C16 1_555 1_555
H22 C16 1_555 1_555
H23 C16 1_555 1_555
C17 P1 1_555 1_555
C18 C17 1_555 1_555
H24 C18 1_555 1_555
C19 C18 1_555 1_555
H25 C19 1_555 1_555
C20 C19 1_555 1_555
H26 C20 1_555 1_555
C21 C20 1_555 1_555
H27 C21 1_555 1_555
C22 C17 1_555 1_555
H28 C22 1_555 1_555
C23 C10 1_555 1_555
H29 C23 1_555 1_555
H30 C23 1_555 1_555
H31 C23 1_555 1_555
C1 C6 1_555 1_555
C1 C7 1_555 1_555
C5 C6 1_555 1_555
C12 C13 1_555 1_555
C21 C22 1_555 1_555

#END
