
#######################################################################
#
#                 Cambridge Crystallographic Data Centre
#                                CCDC 
#
#######################################################################
#
# If this CIF has been generated from an entry in the Cambridge 
# Structural Database, then it will include bibliographic, chemical, 
# crystal, experimental, refinement or atomic coordinate data resulting 
# from the CCDC's data processing and validation procedures.
#
#######################################################################

data_GOZKIR
_chemical_formula_moiety         'C23 H31 O3 P1'
_chemical_name_systematic        
'2-isopropyl-5-methylcyclohexyl (hydroxy(phenyl)methyl)phenylphosphinate'
_symmetry_cell_setting           orthorhombic
_symmetry_space_group_name_H-M   'P 21 21 21'
_symmetry_Int_Tables_number      19
_space_group_name_Hall           'P 2ac 2ab'
loop_
_symmetry_equiv_pos_site_id
_symmetry_equiv_pos_as_xyz
1 x,y,z
2 1/2-x,-y,1/2+z
3 -x,1/2+y,1/2-z
4 1/2+x,1/2-y,-z
_cell_length_a                   5.6692(4)
_cell_length_b                   18.2675(17)
_cell_length_c                   21.789(2)
_cell_angle_alpha                90
_cell_angle_beta                 90
_cell_angle_gamma                90
_cell_volume                     2256.51
_exptl_crystal_colour            colorless
_exptl_crystal_description       block
_cell_formula_units_Z            4
loop_
_atom_site_label
_atom_site_type_symbol
_atom_site_fract_x
_atom_site_fract_y
_atom_site_fract_z
P1 P 0.4981(4) 0.89394(11) 0.96543(9)
O1 O 0.3957(11) 0.7703(3) 1.0111(3)
H1 H 0.2853 0.7428 1.0035
O2 O 0.7541(10) 0.8818(3) 0.9786(3)
O3 O 0.4139(9) 0.9773(3) 0.9705(3)
C1 C 0.1456(17) 0.9172(5) 1.1053(4)
H2 H 0.0169 0.9290 1.0808
C2 C 0.166(2) 0.9456(7) 1.1639(6)
H3 H 0.0482 0.9766 1.1785
C3 C 0.354(3) 0.9293(7) 1.2010(5)
H4 H 0.3685 0.9508 1.2395
C4 C 0.519(3) 0.8808(7) 1.1803(5)
H5 H 0.6416 0.8677 1.2063
C5 C 0.510(2) 0.8500(5) 1.1213(4)
H6 H 0.6253 0.8174 1.1079
C6 C 0.3221(16) 0.8704(5) 1.0837(4)
C7 C 0.3097(15) 0.8442(4) 1.0168(4)
H7 H 0.1463 0.8467 1.0022
C8 C 0.4212(15) 0.8652(4) 0.8906(4)
C9 C 0.2129(18) 0.8879(6) 0.8619(5)
H8 H 0.1131 0.9203 0.8822
C10 C 0.151(2) 0.8629(6) 0.8028(5)
H9 H 0.0108 0.8776 0.7843
C11 C 0.304(3) 0.8158(7) 0.7731(6)
H10 H 0.2679 0.7999 0.7337
C12 C 0.510(3) 0.7916(6) 0.8003(5)
H11 H 0.6097 0.7593 0.7799
C13 C 0.5656(18) 0.8163(5) 0.8586(4)
H12 H 0.7035 0.7998 0.8771
C14 C 0.5863(16) 1.0348(4) 0.9868(4)
H13 H 0.7454 1.0170 0.9775
C15 C 0.571(2) 1.0517(5) 1.0542(4)
H14 H 0.4110 1.0665 1.0638
H15 H 0.6051 1.0076 1.0772
C16 C 0.736(2) 1.1104(5) 1.0741(5)
H16 H 0.8972 1.0932 1.0669
C17 C 0.697(3) 1.1809(5) 1.0342(5)
H17 H 0.5448 1.2024 1.0440
H18 H 0.8180 1.2167 1.0436
C18 C 0.706(2) 1.1614(5) 0.9645(5)
H19 H 0.6731 1.2052 0.9408
H20 H 0.8640 1.1453 0.9542
C19 C 0.5334(17) 1.1027(4) 0.9463(4)
H21 H 0.3764 1.1202 0.9579
C20 C 0.525(2) 1.0864(5) 0.8769(4)
H22 H 0.4018 1.0493 0.8710
C21 C 0.445(3) 1.1547(6) 0.8408(5)
H23 H 0.3137 1.1771 0.8612
H24 H 0.3996 1.1407 0.8000
H25 H 0.5734 1.1890 0.8386
C22 C 0.750(3) 1.0547(8) 0.8506(6)
H26 H 0.7242 1.0410 0.8086
H27 H 0.7950 1.0123 0.8739
H28 H 0.8729 1.0907 0.8527
C23 C 0.713(4) 1.1299(7) 1.1424(5)
H29 H 0.5613 1.1516 1.1498
H30 H 0.8345 1.1640 1.1535
H31 H 0.7287 1.0863 1.1667
loop_
_geom_bond_atom_site_label_1
_geom_bond_atom_site_label_2
_geom_bond_site_symmetry_1
_geom_bond_site_symmetry_2
P1 O2 1_555 1_555
O1 H1 1_555 1_555
O3 P1 1_555 1_555
C1 H2 1_555 1_555
C2 C1 1_555 1_555
H3 C2 1_555 1_555
C3 C2 1_555 1_555
H4 C3 1_555 1_555
C4 C3 1_555 1_555
H5 C4 1_555 1_555
C5 C4 1_555 1_555
H6 C5 1_555 1_555
C6 C1 1_555 1_555
C7 P1 1_555 1_555
H7 C7 1_555 1_555
C8 P1 1_555 1_555
C9 C8 1_555 1_555
H8 C9 1_555 1_555
C10 C9 1_555 1_555
H9 C10 1_555 1_555
C11 C10 1_555 1_555
H10 C11 1_555 1_555
C12 C11 1_555 1_555
H11 C12 1_555 1_555
C13 C8 1_555 1_555
H12 C13 1_555 1_555
C14 O3 1_555 1_555
H13 C14 1_555 1_555
C15 C14 1_555 1_555
H14 C15 1_555 1_555
H15 C15 1_555 1_555
C16 C15 1_555 1_555
H16 C16 1_555 1_555
C17 C16 1_555 1_555
H17 C17 1_555 1_555
H18 C17 1_555 1_555
C18 C17 1_555 1_555
H19 C18 1_555 1_555
H20 C18 1_555 1_555
C19 C14 1_555 1_555
H21 C19 1_555 1_555
C20 C19 1_555 1_555
H22 C20 1_555 1_555
C21 C20 1_555 1_555
H23 C21 1_555 1_555
H24 C21 1_555 1_555
H25 C21 1_555 1_555
C22 C20 1_555 1_555
H26 C22 1_555 1_555
H27 C22 1_555 1_555
H28 C22 1_555 1_555
C23 C16 1_555 1_555
H29 C23 1_555 1_555
H30 C23 1_555 1_555
H31 C23 1_555 1_555
O1 C7 1_555 1_555
C5 C6 1_555 1_555
C6 C7 1_555 1_555
C12 C13 1_555 1_555
C18 C19 1_555 1_555

#END
