
#######################################################################
#
#                 Cambridge Crystallographic Data Centre
#                                CCDC 
#
#######################################################################
#
# If this CIF has been generated from an entry in the Cambridge 
# Structural Database, then it will include bibliographic, chemical, 
# crystal, experimental, refinement or atomic coordinate data resulting 
# from the CCDC's data processing and validation procedures.
#
#######################################################################

data_GOZKAJ
_chemical_formula_moiety         'C24 H33 O3 P1'
_chemical_name_systematic        
'2-isopropyl-5-methylcyclohexyl (hydroxy(4-methylphenyl)methyl)phenylphosphinate'
_symmetry_cell_setting           monoclinic
_symmetry_space_group_name_H-M   'P 21'
_symmetry_Int_Tables_number      4
_space_group_name_Hall           'P 2yb'
loop_
_symmetry_equiv_pos_site_id
_symmetry_equiv_pos_as_xyz
1 x,y,z
2 -x,1/2+y,-z
_cell_length_a                   10.0665(3)
_cell_length_b                   9.8732(4)
_cell_length_c                   12.1455(7)
_cell_angle_alpha                90
_cell_angle_beta                 102.6390(10)
_cell_angle_gamma                90
_cell_volume                     1177.87
_exptl_crystal_colour            colorless
_exptl_crystal_description       block
_cell_formula_units_Z            2
loop_
_atom_site_label
_atom_site_type_symbol
_atom_site_fract_x
_atom_site_fract_y
_atom_site_fract_z
P1 P 0.82619(4) 0.58207(6) 0.55101(4)
O1 O 0.68733(12) 0.66147(13) 0.51947(12)
O2 O 0.81751(12) 0.43465(14) 0.52777(13)
O3 O 0.96398(17) 0.79862(16) 0.51493(15)
H1 H 1.0295 0.8305 0.4939
C1 C 0.8078(3) 0.7770(3) 0.2921(2)
H2 H 0.8077 0.8570 0.3324
C2 C 0.7436(3) 0.7732(4) 0.1803(3)
H3 H 0.7018 0.8509 0.1457
C3 C 0.7403(3) 0.6552(5) 0.1183(3)
C4 C 0.8065(3) 0.5423(4) 0.1714(3)
H4 H 0.8062 0.4624 0.1307
C5 C 0.8730(2) 0.5459(3) 0.2836(2)
H5 H 0.9180 0.4692 0.3174
C6 C 0.8730(2) 0.6637(2) 0.34628(19)
C7 C 0.6616(4) 0.6468(7) -0.0046(3)
H6 H 0.7017 0.5787 -0.0434
H7 H 0.6652 0.7328 -0.0406
H8 H 0.5684 0.6235 -0.0067
C8 C 0.93691(18) 0.6669(2) 0.47008(18)
H9 H 1.0232 0.6173 0.4822
C9 C 0.89270(19) 0.6183(2) 0.69740(19)
C10 C 0.9550(3) 0.5164(3) 0.7665(2)
H10 H 0.9593 0.4296 0.7376
C11 C 1.0114(4) 0.5420(4) 0.8792(3)
H11 H 1.0546 0.4728 0.9254
C12 C 1.0038(4) 0.6700(5) 0.9229(3)
H12 H 1.0406 0.6869 0.9988
C13 C 0.9419(3) 0.7715(4) 0.8544(3)
H13 H 0.9371 0.8579 0.8837
C14 C 0.8864(2) 0.7469(3) 0.7425(2)
H14 H 0.8443 0.8168 0.6965
C15 C 0.55533(15) 0.5941(2) 0.47382(17)
H15 H 0.5635 0.4975 0.4927
C16 C 0.45056(18) 0.6577(2) 0.5309(2)
H16 H 0.4463 0.7543 0.5118
C17 C 0.31147(19) 0.5960(3) 0.4757(2)
H17 H 0.3124 0.5001 0.4932
H18 H 0.2414 0.6383 0.5076
C18 C 0.2767(2) 0.6138(3) 0.3503(3)
H19 H 0.2687 0.7098 0.3328
H20 H 0.1892 0.5721 0.3199
C19 C 0.3826(2) 0.5521(3) 0.2937(2)
H21 H 0.3849 0.4544 0.3083
C20 C 0.52276(19) 0.6096(2) 0.34803(19)
H22 H 0.5916 0.5634 0.3173
H23 H 0.5254 0.7049 0.3292
C21 C 0.3517(4) 0.5723(5) 0.1661(3)
H24 H 0.4153 0.5212 0.1343
H25 H 0.3593 0.6666 0.1494
H26 H 0.2609 0.5417 0.1342
C22 C 0.4871(2) 0.6477(2) 0.6597(2)
H27 H 0.5722 0.6980 0.6852
C23 C 0.5140(3) 0.5035(3) 0.7029(2)
H28 H 0.5919 0.4680 0.6790
H29 H 0.4360 0.4482 0.6730
H30 H 0.5310 0.5032 0.7838
C24 C 0.3789(3) 0.7176(4) 0.7130(3)
H31 H 0.4159 0.7333 0.7917
H32 H 0.3001 0.6605 0.7044
H33 H 0.3535 0.8026 0.6758
loop_
_geom_bond_atom_site_label_1
_geom_bond_atom_site_label_2
_geom_bond_site_symmetry_1
_geom_bond_site_symmetry_2
P1 O1 1_555 1_555
O1 C15 1_555 1_555
O2 P1 1_555 1_555
O3 H1 1_555 1_555
C1 H2 1_555 1_555
C2 C1 1_555 1_555
H3 C2 1_555 1_555
C3 C2 1_555 1_555
C4 C3 1_555 1_555
H4 C4 1_555 1_555
C5 C4 1_555 1_555
H5 C5 1_555 1_555
C6 C1 1_555 1_555
C7 C3 1_555 1_555
H6 C7 1_555 1_555
H7 C7 1_555 1_555
H8 C7 1_555 1_555
C8 P1 1_555 1_555
H9 C8 1_555 1_555
C9 P1 1_555 1_555
C10 C9 1_555 1_555
H10 C10 1_555 1_555
C11 C10 1_555 1_555
H11 C11 1_555 1_555
C12 C11 1_555 1_555
H12 C12 1_555 1_555
C13 C12 1_555 1_555
H13 C13 1_555 1_555
C14 C9 1_555 1_555
H14 C14 1_555 1_555
C15 H15 1_555 1_555
C16 C15 1_555 1_555
H16 C16 1_555 1_555
C17 C16 1_555 1_555
H17 C17 1_555 1_555
H18 C17 1_555 1_555
C18 C17 1_555 1_555
H19 C18 1_555 1_555
H20 C18 1_555 1_555
C19 C18 1_555 1_555
H21 C19 1_555 1_555
C20 C15 1_555 1_555
H22 C20 1_555 1_555
H23 C20 1_555 1_555
C21 C19 1_555 1_555
H24 C21 1_555 1_555
H25 C21 1_555 1_555
H26 C21 1_555 1_555
C22 C16 1_555 1_555
H27 C22 1_555 1_555
C23 C22 1_555 1_555
H28 C23 1_555 1_555
H29 C23 1_555 1_555
H30 C23 1_555 1_555
C24 C22 1_555 1_555
H31 C24 1_555 1_555
H32 C24 1_555 1_555
H33 C24 1_555 1_555
O3 C8 1_555 1_555
C5 C6 1_555 1_555
C6 C8 1_555 1_555
C13 C14 1_555 1_555
C19 C20 1_555 1_555

#END
