
#######################################################################
#
#                 Cambridge Crystallographic Data Centre
#                                CCDC 
#
#######################################################################
#
# If this CIF has been generated from an entry in the Cambridge 
# Structural Database, then it will include bibliographic, chemical, 
# crystal, experimental, refinement or atomic coordinate data resulting 
# from the CCDC's data processing and validation procedures.
#
#######################################################################

data_GOZLAK
_chemical_formula_moiety         'C23 H31 O3 P1'
_chemical_name_systematic        
'2-isopropyl-5-methylcyclohexyl (hydroxy(phenyl)methyl)phenylphosphinate'
_symmetry_cell_setting           monoclinic
_symmetry_space_group_name_H-M   'P 21'
_symmetry_Int_Tables_number      4
_space_group_name_Hall           'P 2yb'
loop_
_symmetry_equiv_pos_site_id
_symmetry_equiv_pos_as_xyz
1 x,y,z
2 -x,1/2+y,-z
_cell_length_a                   12.8136(12)
_cell_length_b                   5.7894(5)
_cell_length_c                   15.8635(15)
_cell_angle_alpha                90
_cell_angle_beta                 98.1390(10)
_cell_angle_gamma                90
_cell_volume                     1164.95
_cell_formula_units_Z            2
loop_
_atom_site_label
_atom_site_type_symbol
_atom_site_fract_x
_atom_site_fract_y
_atom_site_fract_z
P1 P 0.15691(10) 0.1024(2) 0.63706(8)
O1 O -0.0050(3) -0.0013(7) 0.5288(2)
H1 H -0.0309 0.1265 0.5342
O2 O 0.2121(2) 0.0248(6) 0.7308(2)
O3 O 0.1289(3) 0.3546(6) 0.6300(2)
C1 C 0.2852(4) 0.1130(11) 0.8800(3)
H2 H 0.3325 -0.0206 0.8821
C2 C 0.2699(4) 0.1999(10) 0.7881(3)
H3 H 0.2266 0.3399 0.7855
C3 C 0.0415(4) -0.0871(9) 0.6119(3)
H4 H 0.0651 -0.2467 0.6064
C4 C 0.2466(4) 0.0138(10) 0.5631(3)
C5 C -0.0371(4) -0.0768(10) 0.6780(3)
C6 C -0.1086(4) 0.1047(12) 0.6790(4)
H5 H -0.1111 0.2224 0.6389
C7 C 0.3441(5) 0.3010(13) 0.9380(4)
H6 H 0.3581 0.2428 0.9958
H7 H 0.2990 0.4356 0.9382
C8 C 0.4510(5) 0.3752(16) 0.9082(4)
H8 H 0.4821 0.5003 0.9440
H9 H 0.4997 0.2459 0.9149
C9 C 0.1815(5) 0.0271(12) 0.9110(4)
H10 H 0.1521 -0.0936 0.8713
C10 C 0.4347(5) 0.4544(14) 0.8142(4)
H11 H 0.3901 0.5927 0.8097
C11 C 0.3007(5) -0.1938(11) 0.5748(4)
H12 H 0.2932 -0.2865 0.6215
C12 C 0.3755(4) 0.2627(12) 0.7575(3)
H13 H 0.3622 0.3159 0.6990
H14 H 0.4196 0.1260 0.7592
C13 C -0.1032(6) -0.2529(15) 0.8004(5)
H15 H -0.1004 -0.3689 0.8412
C14 C 0.3217(5) 0.0772(18) 0.4320(4)
H16 H 0.3285 0.1680 0.3847
C15 C -0.0356(5) -0.2591(13) 0.7379(4)
H17 H 0.0103 -0.3829 0.7359
C16 C 0.2547(5) 0.1496(12) 0.4914(4)
H18 H 0.2167 0.2864 0.4826
C17 C 0.2018(7) -0.0846(15) 1.0007(4)
H19 H 0.1392 -0.1627 1.0121
H20 H 0.2202 0.0334 1.0427
H21 H 0.2586 -0.1935 1.0028
C18 C -0.1774(5) 0.1089(17) 0.7417(5)
H22 H -0.2238 0.2318 0.7430
C19 C 0.0952(5) 0.2211(18) 0.9091(5)
H23 H 0.1159 0.3296 0.9541
H24 H 0.0290 0.1525 0.9167
H25 H 0.0882 0.2997 0.8553
C20 C -0.1765(6) -0.0658(18) 0.8004(5)
H26 H -0.2234 -0.0626 0.8401
C21 C 0.3768(6) -0.1293(15) 0.4448(5)
H27 H 0.4201 -0.1769 0.4057
C22 C 0.3678(5) -0.2649(14) 0.5153(5)
H28 H 0.4055 -0.4021 0.5238
C23 C 0.5418(6) 0.520(2) 0.7855(5)
H29 H 0.5879 0.3883 0.7916
H30 H 0.5734 0.6442 0.8201
H31 H 0.5304 0.5675 0.7269
loop_
_geom_bond_atom_site_label_1
_geom_bond_atom_site_label_2
_geom_bond_site_symmetry_1
_geom_bond_site_symmetry_2
P1 O2 1_555 1_555
O1 H1 1_555 1_555
O2 C2 1_555 1_555
O3 P1 1_555 1_555
C1 H2 1_555 1_555
C2 C1 1_555 1_555
H3 C2 1_555 1_555
C3 P1 1_555 1_555
H4 C3 1_555 1_555
C4 P1 1_555 1_555
C5 C3 1_555 1_555
C6 C5 1_555 1_555
H5 C6 1_555 1_555
C7 C1 1_555 1_555
H6 C7 1_555 1_555
H7 C7 1_555 1_555
C8 C7 1_555 1_555
H8 C8 1_555 1_555
H9 C8 1_555 1_555
C9 C1 1_555 1_555
H10 C9 1_555 1_555
C10 C8 1_555 1_555
H11 C10 1_555 1_555
C11 C4 1_555 1_555
H12 C11 1_555 1_555
C12 C2 1_555 1_555
H13 C12 1_555 1_555
H14 C12 1_555 1_555
C13 H15 1_555 1_555
C14 H16 1_555 1_555
C15 C5 1_555 1_555
H17 C15 1_555 1_555
C16 C4 1_555 1_555
H18 C16 1_555 1_555
C17 C9 1_555 1_555
H19 C17 1_555 1_555
H20 C17 1_555 1_555
H21 C17 1_555 1_555
C18 C6 1_555 1_555
H22 C18 1_555 1_555
C19 C9 1_555 1_555
H23 C19 1_555 1_555
H24 C19 1_555 1_555
H25 C19 1_555 1_555
C20 C13 1_555 1_555
H26 C20 1_555 1_555
C21 C14 1_555 1_555
H27 C21 1_555 1_555
C22 C11 1_555 1_555
H28 C22 1_555 1_555
C23 C10 1_555 1_555
H29 C23 1_555 1_555
H30 C23 1_555 1_555
H31 C23 1_555 1_555
O1 C3 1_555 1_555
C10 C12 1_555 1_555
C13 C15 1_555 1_555
C14 C16 1_555 1_555
C18 C20 1_555 1_555
C21 C22 1_555 1_555

#END
