
#######################################################################
#
#                 Cambridge Crystallographic Data Centre
#                                CCDC 
#
#######################################################################
#
# If this CIF has been generated from an entry in the Cambridge 
# Structural Database, then it will include bibliographic, chemical, 
# crystal, experimental, refinement or atomic coordinate data resulting 
# from the CCDC's data processing and validation procedures.
#
#######################################################################

data_GOZPEQ
_chemical_formula_moiety         'C15 H17 N1 O3'
_chemical_name_systematic        
6-Ethyl-2,3,4,6-tetrahydro-2-hydroxy-4-methylpyrano(3,2-c)quinolin-5-one
_symmetry_cell_setting           triclinic
_symmetry_space_group_name_H-M   'P -1'
_symmetry_Int_Tables_number      2
_space_group_name_Hall           '-P 1'
loop_
_symmetry_equiv_pos_site_id
_symmetry_equiv_pos_as_xyz
1 x,y,z
2 -x,-y,-z
_cell_length_a                   9.405(3)
_cell_length_b                   9.677(4)
_cell_length_c                   8.158(4)
_cell_angle_alpha                107.91(4)
_cell_angle_beta                 100.72(3)
_cell_angle_gamma                106.76(3)
_cell_volume                     645.01
_exptl_crystal_colour            colorless
_exptl_crystal_description       prismatic
_chemical_melting_point          229-231deg.C
_cell_formula_units_Z            2
_exptl_crystal_recrystallization_method 'petroleum spirit/ethyl acetate'
loop_
_atom_site_label
_atom_site_type_symbol
_atom_site_fract_x
_atom_site_fract_y
_atom_site_fract_z
O1 O -0.2082(3) 0.3932(3) 0.2848(3)
O2 O -0.3413(3) 0.4031(2) -0.2988(3)
O3 O -0.3525(3) 0.2141(3) -0.5535(3)
N1 N -0.2583(3) 0.6004(3) 0.2515(3)
C1 C -0.2954(3) 0.6802(3) 0.1434(4)
C2 C -0.2982(4) 0.8306(4) 0.2170(4)
C3 C -0.3370(4) 0.9042(4) 0.1062(5)
C4 C -0.3757(4) 0.8329(4) -0.0792(4)
C5 C -0.3713(4) 0.6860(4) -0.1541(4)
C6 C -0.3292(3) 0.6092(3) -0.0444(4)
C7 C -0.3120(4) 0.4610(3) -0.1167(4)
C8 C -0.2663(3) 0.3896(3) -0.0087(4)
C9 C -0.2423(4) 0.4581(4) 0.1815(4)
C10 C -0.2476(4) 0.2343(4) -0.0849(4)
C11 C -0.3211(4) 0.1615(4) -0.2883(4)
C12 C -0.2815(4) 0.2803(4) -0.3717(4)
C13 C -0.2394(4) 0.6664(4) 0.4472(4)
C14 C -0.0756(5) 0.7801(5) 0.5576(5)
C15 C -0.0763(4) 0.2525(4) -0.0303(5)
H1 H -0.2765 0.8783 0.3412
H2 H -0.3353 0.9998 0.1597
H3 H -0.4135 0.8804 -0.1637
H4 H -0.3963 0.6375 -0.2804
H5 H -0.3048 0.1702 -0.0277
H6 H -0.2821 0.0755 -0.3411
H7 H -0.4298 0.1172 -0.3193
H8 H -0.1617 0.3410 -0.3593
H9 H -0.2718 0.5759 0.4874
H10 H -0.3168 0.7186 0.4638
H11 H -0.0455 0.8543 0.4959
H12 H -0.0768 0.8175 0.6878
H13 H -0.0133 0.7223 0.5567
H14 H -0.0248 0.3065 0.1150
H15 H -0.0708 0.1549 -0.0650
H16 H -0.0203 0.3086 -0.1009
H17 H -0.3075 0.2778 -0.6148
loop_
_geom_bond_atom_site_label_1
_geom_bond_atom_site_label_2
_geom_bond_site_symmetry_1
_geom_bond_site_symmetry_2
O1 C9 1_555 1_555
O2 C7 1_555 1_555
O3 C12 1_555 1_555
N1 C1 1_555 1_555
C1 C2 1_555 1_555
C2 C3 1_555 1_555
C3 C4 1_555 1_555
C4 C5 1_555 1_555
C5 C6 1_555 1_555
C6 C1 1_555 1_555
C7 C6 1_555 1_555
C8 C7 1_555 1_555
C9 N1 1_555 1_555
C10 C8 1_555 1_555
C11 C10 1_555 1_555
C12 O2 1_555 1_555
C13 N1 1_555 1_555
C14 C13 1_555 1_555
C15 C10 1_555 1_555
H1 C2 1_555 1_555
H2 C3 1_555 1_555
H3 C4 1_555 1_555
H4 C5 1_555 1_555
H5 C10 1_555 1_555
H6 C11 1_555 1_555
H7 C11 1_555 1_555
H8 C12 1_555 1_555
H9 C13 1_555 1_555
H10 C13 1_555 1_555
H11 C14 1_555 1_555
H12 C14 1_555 1_555
H13 C14 1_555 1_555
H14 C15 1_555 1_555
H15 C15 1_555 1_555
H16 C15 1_555 1_555
H17 O3 1_555 1_555
C8 C9 1_555 1_555
C11 C12 1_555 1_555

#END
