
#######################################################################
#
#                 Cambridge Crystallographic Data Centre
#                                CCDC 
#
#######################################################################
#
# If this CIF has been generated from an entry in the Cambridge 
# Structural Database, then it will include bibliographic, chemical, 
# crystal, experimental, refinement or atomic coordinate data resulting 
# from the CCDC's data processing and validation procedures.
#
#######################################################################

data_GOZWOJ
_chemical_formula_moiety         'C15 H18 Br1 N1 O4 S1'
_chemical_name_systematic        
5-bromo-4-(but-2-en-2-yl)-3-((4-methylphenyl)sulfonyl)-1,3-oxazinan-2-one
_symmetry_cell_setting           orthorhombic
_symmetry_space_group_name_H-M   'P 21 21 2'
_symmetry_Int_Tables_number      18
_space_group_name_Hall           'P 2 2ab'
loop_
_symmetry_equiv_pos_site_id
_symmetry_equiv_pos_as_xyz
1 x,y,z
2 -x,-y,z
3 1/2-x,1/2+y,-z
4 1/2+x,1/2-y,-z
_cell_length_a                   10.900(2)
_cell_length_b                   17.232(3)
_cell_length_c                   8.4931(16)
_cell_angle_alpha                90
_cell_angle_beta                 90
_cell_angle_gamma                90
_cell_volume                     1595.25
_exptl_crystal_colour            colorless
_exptl_crystal_description       block
_cell_formula_units_Z            4
loop_
_atom_site_label
_atom_site_type_symbol
_atom_site_fract_x
_atom_site_fract_y
_atom_site_fract_z
Br1 Br 0.43993(3) 0.66421(2) 0.71010(4)
S1 S 0.76221(7) 0.53271(4) 0.48826(9)
O1 O 0.7006(2) 0.74618(13) 0.6083(3)
O2 O 0.8530(2) 0.66566(14) 0.6528(3)
O3 O 0.8754(2) 0.54583(15) 0.4092(3)
O4 O 0.6713(2) 0.48540(13) 0.4128(3)
N1 N 0.6889(2) 0.61822(14) 0.5170(3)
C1 C 0.5751(3) 0.63126(18) 0.4273(4)
H1 H 0.5246 0.5843 0.4333
C2 C 0.5060(3) 0.69761(19) 0.5062(4)
H2 H 0.4374 0.7128 0.4383
C3 C 0.5887(3) 0.76592(19) 0.5261(4)
H3 H 0.6091 0.7867 0.4232
H4 H 0.5458 0.8060 0.5843
C4 C 0.7536(3) 0.67605(17) 0.5937(4)
C5 C 0.5962(3) 0.65098(18) 0.2546(4)
C6 C 0.7035(3) 0.6743(2) 0.2011(4)
H5 H 0.7675 0.6759 0.2735
C7 C 0.7335(4) 0.6989(2) 0.0350(4)
H6 H 0.6641 0.6892 -0.0318
H7 H 0.8027 0.6698 -0.0023
H8 H 0.7527 0.7532 0.0335
C8 C 0.4825(4) 0.6431(3) 0.1565(5)
H9 H 0.4383 0.5975 0.1879
H10 H 0.5048 0.6389 0.0474
H11 H 0.4315 0.6880 0.1712
C9 C 0.7920(3) 0.49652(18) 0.6781(4)
C10 C 0.8885(3) 0.44418(18) 0.6889(4)
H12 H 0.9346 0.4314 0.6005
C11 C 0.9149(3) 0.41131(18) 0.8336(4)
H13 H 0.9779 0.3752 0.8412
C12 C 0.8490(3) 0.43123(19) 0.9682(4)
C13 C 0.7516(4) 0.4834(2) 0.9534(4)
H14 H 0.7061 0.4970 1.0419
C14 C 0.7219(3) 0.51546(19) 0.8082(4)
H15 H 0.6557 0.5492 0.7987
C15 C 0.8838(4) 0.3977(2) 1.1261(5)
H16 H 0.9326 0.3519 1.1107
H17 H 0.8108 0.3845 1.1834
H18 H 0.9301 0.4353 1.1846
loop_
_geom_bond_atom_site_label_1
_geom_bond_atom_site_label_2
_geom_bond_site_symmetry_1
_geom_bond_site_symmetry_2
Br1 C2 1_555 1_555
S1 O3 1_555 1_555
O1 C3 1_555 1_555
O2 C4 1_555 1_555
O4 S1 1_555 1_555
N1 S1 1_555 1_555
C1 N1 1_555 1_555
H1 C1 1_555 1_555
C2 C1 1_555 1_555
H2 C2 1_555 1_555
C3 C2 1_555 1_555
H3 C3 1_555 1_555
H4 C3 1_555 1_555
C4 O1 1_555 1_555
C5 C1 1_555 1_555
C6 C5 1_555 1_555
H5 C6 1_555 1_555
C7 C6 1_555 1_555
H6 C7 1_555 1_555
H7 C7 1_555 1_555
H8 C7 1_555 1_555
C8 C5 1_555 1_555
H9 C8 1_555 1_555
H10 C8 1_555 1_555
H11 C8 1_555 1_555
C9 S1 1_555 1_555
C10 C9 1_555 1_555
H12 C10 1_555 1_555
C11 C10 1_555 1_555
H13 C11 1_555 1_555
C12 C11 1_555 1_555
C13 C12 1_555 1_555
H14 C13 1_555 1_555
C14 C9 1_555 1_555
H15 C14 1_555 1_555
C15 C12 1_555 1_555
H16 C15 1_555 1_555
H17 C15 1_555 1_555
H18 C15 1_555 1_555
N1 C4 1_555 1_555
C13 C14 1_555 1_555

#END
