
#######################################################################
#
#                 Cambridge Crystallographic Data Centre
#                                CCDC 
#
#######################################################################
#
# If this CIF has been generated from an entry in the Cambridge 
# Structural Database, then it will include bibliographic, chemical, 
# crystal, experimental, refinement or atomic coordinate data resulting 
# from the CCDC's data processing and validation procedures.
#
#######################################################################

data_GOZWAV
_chemical_formula_moiety         'C14 H16 Br1 N1 O4 S1'
_chemical_name_systematic        
5-bromo-3-((4-methylphenyl)sulfonyl)-4-(prop-1-en-1-yl)-1,3-oxazinan-2-one
_symmetry_cell_setting           monoclinic
_symmetry_space_group_name_H-M   'P 21'
_symmetry_Int_Tables_number      4
_space_group_name_Hall           'P 2yb'
loop_
_symmetry_equiv_pos_site_id
_symmetry_equiv_pos_as_xyz
1 x,y,z
2 -x,1/2+y,-z
_cell_length_a                   8.0644(6)
_cell_length_b                   11.5331(10)
_cell_length_c                   8.2552(8)
_cell_angle_alpha                90
_cell_angle_beta                 95.154(5)
_cell_angle_gamma                90
_cell_volume                     764.691
_exptl_crystal_colour            colorless
_exptl_crystal_description       block
_cell_formula_units_Z            2
loop_
_atom_site_label
_atom_site_type_symbol
_atom_site_fract_x
_atom_site_fract_y
_atom_site_fract_z
Br1 Br 0.30967(4) 0.66331(3) 0.66584(4)
S1 S 0.50062(9) 0.70150(6) 0.18657(9)
O1 O 0.6645(3) 0.5515(2) 0.5893(3)
O2 O 0.6194(3) 0.49105(19) 0.3371(3)
O3 O 0.6315(2) 0.6669(3) 0.0905(2)
O4 O 0.4440(3) 0.8191(2) 0.1791(3)
N1 N 0.5653(3) 0.6809(2) 0.3853(3)
C1 C 0.5580(4) 0.7799(3) 0.4991(4)
H1 H 0.4614 0.8279 0.4631
C2 C 0.5330(4) 0.7309(3) 0.6664(4)
H2 H 0.5442 0.7938 0.7464
C3 C 0.6623(5) 0.6404(3) 0.7126(4)
H3 H 0.7710 0.6768 0.7279
H4 H 0.6394 0.6051 0.8149
C4 C 0.6176(4) 0.5709(3) 0.4318(4)
C5 C 0.7119(4) 0.8545(3) 0.5061(4)
H5 H 0.7129 0.9199 0.5721
C6 C 0.8457(4) 0.8363(3) 0.4278(5)
H6 H 0.8479 0.7696 0.3647
C7 C 0.9937(5) 0.9148(4) 0.4329(6)
H7 H 1.0090 0.9411 0.3249
H8 H 1.0911 0.8733 0.4761
H9 H 0.9762 0.9803 0.5010
C8 C 0.3291(4) 0.6088(3) 0.1487(4)
C9 C 0.3435(4) 0.5061(3) 0.0628(4)
H10 H 0.4447 0.4846 0.0261
C10 C 0.2041(4) 0.4365(3) 0.0332(4)
H11 H 0.2125 0.3676 -0.0240
C11 C 0.0512(4) 0.4678(3) 0.0874(4)
C12 C 0.0404(4) 0.5718(3) 0.1718(4)
H12 H -0.0611 0.5941 0.2072
C13 C 0.1781(4) 0.6426(3) 0.2041(4)
H13 H 0.1701 0.7114 0.2616
C14 C -0.1007(5) 0.3923(4) 0.0554(6)
H14 H -0.1479 0.4037 -0.0543
H15 H -0.1812 0.4125 0.1295
H16 H -0.0696 0.3124 0.0708
loop_
_geom_bond_atom_site_label_1
_geom_bond_atom_site_label_2
_geom_bond_site_symmetry_1
_geom_bond_site_symmetry_2
Br1 C2 1_555 1_555
S1 O3 1_555 1_555
O1 C3 1_555 1_555
O2 C4 1_555 1_555
O4 S1 1_555 1_555
N1 S1 1_555 1_555
C1 N1 1_555 1_555
H1 C1 1_555 1_555
C2 C1 1_555 1_555
H2 C2 1_555 1_555
C3 C2 1_555 1_555
H3 C3 1_555 1_555
H4 C3 1_555 1_555
C4 O1 1_555 1_555
C5 C1 1_555 1_555
H5 C5 1_555 1_555
C6 C5 1_555 1_555
H6 C6 1_555 1_555
C7 C6 1_555 1_555
H7 C7 1_555 1_555
H8 C7 1_555 1_555
H9 C7 1_555 1_555
C8 S1 1_555 1_555
C9 C8 1_555 1_555
H10 C9 1_555 1_555
C10 C9 1_555 1_555
H11 C10 1_555 1_555
C11 C10 1_555 1_555
C12 C11 1_555 1_555
H12 C12 1_555 1_555
C13 C8 1_555 1_555
H13 C13 1_555 1_555
C14 C11 1_555 1_555
H14 C14 1_555 1_555
H15 C14 1_555 1_555
H16 C14 1_555 1_555
N1 C4 1_555 1_555
C12 C13 1_555 1_555

#END
