
#######################################################################
#
#                 Cambridge Crystallographic Data Centre
#                                CCDC 
#
#######################################################################
#
# If this CIF has been generated from an entry in the Cambridge 
# Structural Database, then it will include bibliographic, chemical, 
# crystal, experimental, refinement or atomic coordinate data resulting 
# from the CCDC's data processing and validation procedures.
#
#######################################################################

data_GOZWEZ
_chemical_formula_moiety         'C14 H15 Br1 N4 O4 S1'
_chemical_name_systematic        
4-(3-azidoprop-1-en-1-yl)-5-bromo-3-((4-methylphenyl)sulfonyl)-1,3-oxazinan-2-one
_symmetry_cell_setting           orthorhombic
_symmetry_space_group_name_H-M   'P 21 21 21'
_symmetry_Int_Tables_number      19
_space_group_name_Hall           'P 2ac 2ab'
loop_
_symmetry_equiv_pos_site_id
_symmetry_equiv_pos_as_xyz
1 x,y,z
2 1/2-x,-y,1/2+z
3 -x,1/2+y,1/2-z
4 1/2+x,1/2-y,-z
_cell_length_a                   8.079(2)
_cell_length_b                   11.113(3)
_cell_length_c                   18.417(5)
_cell_angle_alpha                90
_cell_angle_beta                 90
_cell_angle_gamma                90
_cell_volume                     1653.51
_exptl_crystal_colour            colorless
_exptl_crystal_description       plate
_cell_formula_units_Z            4
loop_
_atom_site_label
_atom_site_type_symbol
_atom_site_fract_x
_atom_site_fract_y
_atom_site_fract_z
Br1 Br 0.67493(3) 0.75423(3) 0.17062(2)
S1 S 0.17234(8) 0.69456(5) 0.24191(4)
O1 O 0.5422(2) 0.87169(16) 0.32381(11)
O2 O 0.2878(2) 0.92181(16) 0.29534(11)
O3 O 0.1863(2) 0.57200(16) 0.21990(12)
O4 O 0.0491(2) 0.72745(19) 0.29353(11)
N1 N 0.3617(2) 0.72608(17) 0.27716(12)
N2 N 0.3816(4) 0.5629(3) 0.53651(17)
N3 N 0.4838(4) 0.6444(3) 0.53582(15)
N4 N 0.5727(6) 0.7226(3) 0.5402(2)
C1 C 0.6575(3) 0.6896(2) 0.26930(14)
H1 H 0.7439 0.6288 0.2765
C2 C 0.4886(3) 0.6309(2) 0.27892(14)
H2 H 0.4693 0.5760 0.2381
C3 C 0.3909(3) 0.8440(2) 0.29891(14)
C4 C 0.6803(3) 0.7883(2) 0.32400(15)
H3 H 0.6914 0.7532 0.3720
H4 H 0.7815 0.8317 0.3132
C5 C 0.4844(3) 0.5594(2) 0.34834(15)
H5 H 0.5653 0.5007 0.3544
C6 C 0.3767(3) 0.5727(2) 0.40117(16)
H6 H 0.2988 0.6340 0.3972
C7 C 0.3723(4) 0.4947(3) 0.46743(17)
H7 H 0.2708 0.4481 0.4670
H8 H 0.4642 0.4386 0.4654
C8 C 0.1563(3) 0.7858(2) 0.16430(14)
C9 C 0.2246(3) 0.7446(3) 0.09992(15)
H9 H 0.2781 0.6705 0.0981
C10 C 0.2117(4) 0.8154(3) 0.03817(17)
H10 H 0.2580 0.7887 -0.0052
C11 C 0.1306(4) 0.9259(3) 0.04000(17)
C12 C 0.0630(3) 0.9647(3) 0.10548(17)
H11 H 0.0089 1.0385 0.1073
C13 C 0.0745(3) 0.8960(2) 0.16792(16)
H12 H 0.0286 0.9228 0.2113
C14 C 0.1142(6) 1.0014(4) -0.0278(2)
H13 H 0.1992 0.9793 -0.0617
H14 H 0.1254 1.0849 -0.0155
H15 H 0.0076 0.9879 -0.0493
loop_
_geom_bond_atom_site_label_1
_geom_bond_atom_site_label_2
_geom_bond_site_symmetry_1
_geom_bond_site_symmetry_2
Br1 C1 1_555 1_555
S1 O3 1_555 1_555
O1 C3 1_555 1_555
O2 C3 1_555 1_555
O4 S1 1_555 1_555
N1 S1 1_555 1_555
N2 N3 1_555 1_555
N3 N4 1_555 1_555
C1 H1 1_555 1_555
C2 N1 1_555 1_555
H2 C2 1_555 1_555
C3 N1 1_555 1_555
C4 O1 1_555 1_555
H3 C4 1_555 1_555
H4 C4 1_555 1_555
C5 C2 1_555 1_555
H5 C5 1_555 1_555
C6 C5 1_555 1_555
H6 C6 1_555 1_555
C7 N2 1_555 1_555
H7 C7 1_555 1_555
H8 C7 1_555 1_555
C8 S1 1_555 1_555
C9 C8 1_555 1_555
H9 C9 1_555 1_555
C10 C9 1_555 1_555
H10 C10 1_555 1_555
C11 C10 1_555 1_555
C12 C11 1_555 1_555
H11 C12 1_555 1_555
C13 C8 1_555 1_555
H12 C13 1_555 1_555
C14 C11 1_555 1_555
H13 C14 1_555 1_555
H14 C14 1_555 1_555
H15 C14 1_555 1_555
C1 C2 1_555 1_555
C1 C4 1_555 1_555
C6 C7 1_555 1_555
C12 C13 1_555 1_555

#END
