
#######################################################################
#
#                 Cambridge Crystallographic Data Centre
#                                CCDC 
#
#######################################################################
#
# If this CIF has been generated from an entry in the Cambridge 
# Structural Database, then it will include bibliographic, chemical, 
# crystal, experimental, refinement or atomic coordinate data resulting 
# from the CCDC's data processing and validation procedures.
#
#######################################################################

data_GOZXIE
_chemical_formula_moiety         'C15 H19 N1 O5 S1'
_chemical_name_systematic        
4-(1-methoxybut-2-en-1-yl)-3-((4-methylphenyl)sulfonyl)-1,3-oxazolidin-2-one
_symmetry_cell_setting           monoclinic
_symmetry_space_group_name_H-M   'P 21'
_symmetry_Int_Tables_number      4
_space_group_name_Hall           'P 2yb'
loop_
_symmetry_equiv_pos_site_id
_symmetry_equiv_pos_as_xyz
1 x,y,z
2 -x,1/2+y,-z
_cell_length_a                   8.116(2)
_cell_length_b                   14.954(5)
_cell_length_c                   13.474(4)
_cell_angle_alpha                90
_cell_angle_beta                 92.642(3)
_cell_angle_gamma                90
_cell_volume                     1633.56
_exptl_crystal_colour            colorless
_exptl_crystal_description       block
_cell_formula_units_Z            4
loop_
_atom_site_label
_atom_site_type_symbol
_atom_site_fract_x
_atom_site_fract_y
_atom_site_fract_z
S1 S 0.81172(7) 0.72052(4) 0.39643(4)
O1 O 1.1647(2) 0.55155(12) 0.39428(14)
O2 O 0.9048(3) 0.52267(12) 0.43265(15)
O3 O 0.8440(2) 0.80430(12) 0.35057(13)
O4 O 0.6847(2) 0.66323(13) 0.35596(13)
O5 O 1.2368(2) 0.72061(14) 0.53894(12)
N1 N 0.9893(2) 0.66587(13) 0.39199(14)
C1 C 1.1464(3) 0.70992(16) 0.37052(16)
H1 H 1.1350 0.7417 0.3070
C2 C 1.2568(3) 0.62715(17) 0.35972(19)
H2 H 1.2832 0.6188 0.2908
H3 H 1.3590 0.6341 0.3993
C3 C 1.0077(3) 0.57452(16) 0.40897(18)
C4 C 1.2092(3) 0.77377(17) 0.45194(19)
H4 H 1.1234 0.8181 0.4640
C5 C 1.2682(4) 0.7736(2) 0.6263(2)
H5 H 1.3680 0.8072 0.6198
H6 H 1.2799 0.7352 0.6833
H7 H 1.1779 0.8140 0.6344
C6 C 1.3615(3) 0.82125(17) 0.4211(2)
H8 H 1.4474 0.7870 0.3979
C7 C 1.3804(3) 0.90796(19) 0.4248(2)
H9 H 1.2936 0.9416 0.4477
C8 C 1.5314(4) 0.9574(2) 0.3951(3)
H10 H 1.5020 0.9983 0.3423
H11 H 1.6114 0.9155 0.3728
H12 H 1.5775 0.9901 0.4511
C9 C 0.7761(3) 0.73751(15) 0.52236(16)
C10 C 0.7034(3) 0.66941(16) 0.57448(18)
H13 H 0.6746 0.6158 0.5432
C11 C 0.6741(3) 0.68236(16) 0.67417(18)
H14 H 0.6259 0.6367 0.7097
C12 C 0.7156(3) 0.76231(16) 0.72199(17)
C13 C 0.7855(3) 0.82987(16) 0.66753(18)
H15 H 0.8120 0.8840 0.6983
C14 C 0.8167(3) 0.81845(16) 0.56781(18)
H16 H 0.8640 0.8642 0.5321
C15 C 0.6822(4) 0.77481(18) 0.83074(18)
H17 H 0.5659 0.7699 0.8397
H18 H 0.7200 0.8328 0.8521
H19 H 0.7396 0.7296 0.8693
S2 S 1.03424(7) 0.54236(4) 0.11455(4)
O6 O 0.6765(2) 0.39299(13) 0.18404(14)
O7 O 0.9145(2) 0.34498(13) 0.12451(15)
O8 O 1.0218(2) 0.63324(12) 0.14702(13)
O9 O 1.1632(2) 0.48697(13) 0.15521(13)
O10 O 0.5782(3) 0.50850(12) 0.00539(13)
N2 N 0.8571(3) 0.49671(13) 0.14343(14)
C16 C 0.7070(3) 0.54911(17) 0.15952(17)
H20 H 0.7327 0.5988 0.2050
C17 C 0.6063(4) 0.47797(19) 0.2118(2)
H21 H 0.6153 0.4860 0.2832
H22 H 0.4909 0.4813 0.1899
C18 C 0.8263(3) 0.40463(17) 0.14779(18)
C19 C 0.6262(3) 0.58438(17) 0.06308(18)
H23 H 0.7076 0.6188 0.0275
C20 C 0.5309(5) 0.5301(2) -0.0948(2)
H24 H 0.6249 0.5523 -0.1278
H25 H 0.4464 0.5750 -0.0958
H26 H 0.4897 0.4774 -0.1283
C21 C 0.4826(3) 0.64412(17) 0.08428(19)
H27 H 0.3842 0.6167 0.1000
C22 C 0.4856(4) 0.73186(18) 0.0823(2)
H28 H 0.5824 0.7589 0.0634
C23 C 0.3463(4) 0.7921(2) 0.1079(3)
H29 H 0.3201 0.8313 0.0530
H30 H 0.3783 0.8268 0.1655
H31 H 0.2514 0.7566 0.1215
C24 C 1.0394(3) 0.54066(17) -0.01542(16)
C25 C 1.0496(4) 0.45959(18) -0.0641(2)
H32 H 1.0521 0.4062 -0.0287
C26 C 1.0563(4) 0.45930(19) -0.1672(2)
H33 H 1.0625 0.4051 -0.2007
C27 C 1.0537(3) 0.5385(2) -0.22075(17)
C28 C 1.0461(3) 0.61857(18) -0.17013(19)
H34 H 1.0460 0.6719 -0.2056
C29 C 1.0387(3) 0.62106(17) -0.06727(18)
H35 H 1.0333 0.6753 -0.0339
C30 C 1.0583(4) 0.5368(2) -0.33268(19)
H36 H 1.0790 0.4768 -0.3544
H37 H 1.1446 0.5754 -0.3535
H38 H 0.9544 0.5569 -0.3613
loop_
_geom_bond_atom_site_label_1
_geom_bond_atom_site_label_2
_geom_bond_site_symmetry_1
_geom_bond_site_symmetry_2
S1 O3 1_555 1_555
O1 C2 1_555 1_555
O2 C3 1_555 1_555
O4 S1 1_555 1_555
O5 C4 1_555 1_555
N1 S1 1_555 1_555
C1 N1 1_555 1_555
H1 C1 1_555 1_555
C2 C1 1_555 1_555
H2 C2 1_555 1_555
H3 C2 1_555 1_555
C3 O1 1_555 1_555
C4 C1 1_555 1_555
H4 C4 1_555 1_555
C5 O5 1_555 1_555
H5 C5 1_555 1_555
H6 C5 1_555 1_555
H7 C5 1_555 1_555
C6 C4 1_555 1_555
H8 C6 1_555 1_555
C7 C6 1_555 1_555
H9 C7 1_555 1_555
C8 C7 1_555 1_555
H10 C8 1_555 1_555
H11 C8 1_555 1_555
H12 C8 1_555 1_555
C9 S1 1_555 1_555
C10 C9 1_555 1_555
H13 C10 1_555 1_555
C11 C10 1_555 1_555
H14 C11 1_555 1_555
C12 C11 1_555 1_555
C13 C12 1_555 1_555
H15 C13 1_555 1_555
C14 C9 1_555 1_555
H16 C14 1_555 1_555
C15 C12 1_555 1_555
H17 C15 1_555 1_555
H18 C15 1_555 1_555
H19 C15 1_555 1_555
S2 O8 1_555 1_555
O6 C17 1_555 1_555
O7 C18 1_555 1_555
O9 S2 1_555 1_555
O10 C19 1_555 1_555
N2 S2 1_555 1_555
C16 N2 1_555 1_555
H20 C16 1_555 1_555
C17 C16 1_555 1_555
H21 C17 1_555 1_555
H22 C17 1_555 1_555
C18 O6 1_555 1_555
C19 C16 1_555 1_555
H23 C19 1_555 1_555
C20 O10 1_555 1_555
H24 C20 1_555 1_555
H25 C20 1_555 1_555
H26 C20 1_555 1_555
C21 C19 1_555 1_555
H27 C21 1_555 1_555
C22 C21 1_555 1_555
H28 C22 1_555 1_555
C23 C22 1_555 1_555
H29 C23 1_555 1_555
H30 C23 1_555 1_555
H31 C23 1_555 1_555
C24 S2 1_555 1_555
C25 C24 1_555 1_555
H32 C25 1_555 1_555
C26 C25 1_555 1_555
H33 C26 1_555 1_555
C27 C26 1_555 1_555
C28 C27 1_555 1_555
H34 C28 1_555 1_555
C29 C24 1_555 1_555
H35 C29 1_555 1_555
C30 C27 1_555 1_555
H36 C30 1_555 1_555
H37 C30 1_555 1_555
H38 C30 1_555 1_555
N1 C3 1_555 1_555
C13 C14 1_555 1_555
N2 C18 1_555 1_555
C28 C29 1_555 1_555

#END
