
#######################################################################
#
#                 Cambridge Crystallographic Data Centre
#                                CCDC 
#
#######################################################################
#
# If this CIF has been generated from an entry in the Cambridge 
# Structural Database, then it will include bibliographic, chemical, 
# crystal, experimental, refinement or atomic coordinate data resulting 
# from the CCDC's data processing and validation procedures.
#
#######################################################################

data_GOZZUS
_chemical_formula_moiety         'C19 H20 O6'
_chemical_name_systematic        
6,7,9,10-tetrahydro-17H-dibenzo[b,k][1,4,7,10,13]pentaoxacyclohexadecin-18(19H)-one
_symmetry_cell_setting           orthorhombic
_symmetry_space_group_name_H-M   'A b a 2'
_symmetry_Int_Tables_number      41
_space_group_name_Hall           'A 2 -2ab'
loop_
_symmetry_equiv_pos_site_id
_symmetry_equiv_pos_as_xyz
1 x,y,z
2 -x,-y,z
3 1/2+x,1/2-y,z
4 1/2-x,1/2+y,z
5 x,1/2+y,1/2+z
6 -x,1/2-y,1/2+z
7 1/2+x,-y,1/2+z
8 1/2-x,y,1/2+z
_cell_length_a                   19.735(6)
_cell_length_b                   23.181(7)
_cell_length_c                   7.6870(10)
_cell_angle_alpha                90
_cell_angle_beta                 90
_cell_angle_gamma                90
_cell_volume                     3516.63
_exptl_crystal_colour            colorless
_exptl_crystal_description       plate
_cell_formula_units_Z            8
loop_
_atom_site_label
_atom_site_type_symbol
_atom_site_fract_x
_atom_site_fract_y
_atom_site_fract_z
C1 C 0.0967(3) 0.1415(2) 0.4317(10)
C2 C 0.0423(3) 0.1100(3) 0.4900(12)
H1 H -0.0008(3) 0.1171(3) 0.4462(12)
C3 C 0.0521(5) 0.0682(3) 0.6130(14)
H2 H 0.0154(5) 0.0470(3) 0.6535(14)
C4 C 0.1156(5) 0.0574(3) 0.6767(14)
H3 H 0.1214(5) 0.0289(3) 0.7605(14)
C5 C 0.1715(4) 0.0883(3) 0.6183(10)
H4 H 0.2145(4) 0.0807(3) 0.6620(10)
C6 C 0.1619(3) 0.1306(2) 0.4945(10)
O1 O 0.2117(2) 0.1645(2) 0.4263(8)
C7 C 0.2791(2) 0.1614(2) 0.4941(10)
H5 H 0.2995(2) 0.1246(2) 0.4648(10)
H6 H 0.2784(2) 0.1652(2) 0.6198(10)
C8 C 0.3189(2) 0.2094(2) 0.4154(10)
H7 H 0.3667(2) 0.2039(2) 0.4391(10)
H8 H 0.3125(2) 0.2096(2) 0.2903(10)
O2 O 0.2971(2) 0.2624(2) 0.4862(8)
C9 C 0.3232(2) 0.3105(2) 0.3958(10)
H9 H 0.3093(2) 0.3091(2) 0.2749(10)
H10 H 0.3723(2) 0.3102(2) 0.4000(10)
C10 C 0.2966(2) 0.3644(2) 0.4803(11)
H11 H 0.3033(2) 0.3629(2) 0.6052(11)
H12 H 0.3198(2) 0.3981(2) 0.4351(11)
O3 O 0.22565(15) 0.36706(14) 0.4400(8)
C11 C 0.1876(3) 0.4092(2) 0.5198(10)
C12 C 0.2122(3) 0.4562(2) 0.6054(11)
H13 H 0.2587(3) 0.4623(2) 0.6115(11)
C13 C 0.1682(3) 0.4952(2) 0.6835(12)
H14 H 0.1851(3) 0.5270(2) 0.7431(12)
C14 C 0.0994(3) 0.4861(3) 0.6716(11)
H15 H 0.0696(3) 0.5121(3) 0.7230(11)
C15 C 0.0739(3) 0.4386(2) 0.5840(11)
H16 H 0.0273(3) 0.4328(2) 0.5762(11)
C16 C 0.1178(3) 0.4001(2) 0.5088(9)
O4 O 0.0983(2) 0.35218(14) 0.4171
C17 C 0.0331(2) 0.3291(2) 0.4474(12)
H17 H -0.0005(2) 0.3506(2) 0.3822(12)
H18 H 0.0220(2) 0.3318(2) 0.5701(12)
C18 C 0.0327(3) 0.2676(3) 0.3916(13)
O5 O -0.0194(2) 0.2416(2) 0.3846(15)
C19 C 0.0970(2) 0.2399(2) 0.3434(10)
H19 H 0.1171(2) 0.2608(2) 0.2471(10)
H20 H 0.1280(2) 0.2419(2) 0.4411(10)
O6 O 0.0879(2) 0.1805(2) 0.2941(8)
loop_
_geom_bond_atom_site_label_1
_geom_bond_atom_site_label_2
_geom_bond_site_symmetry_1
_geom_bond_site_symmetry_2
C1 C2 1_555 1_555
C2 H1 1_555 1_555
C3 C2 1_555 1_555
H2 C3 1_555 1_555
C4 C3 1_555 1_555
H3 C4 1_555 1_555
C5 C4 1_555 1_555
H4 C5 1_555 1_555
C6 C1 1_555 1_555
O1 C6 1_555 1_555
C7 O1 1_555 1_555
H5 C7 1_555 1_555
H6 C7 1_555 1_555
C8 C7 1_555 1_555
H7 C8 1_555 1_555
H8 C8 1_555 1_555
O2 C8 1_555 1_555
C9 O2 1_555 1_555
H9 C9 1_555 1_555
H10 C9 1_555 1_555
C10 C9 1_555 1_555
H11 C10 1_555 1_555
H12 C10 1_555 1_555
O3 C10 1_555 1_555
C11 O3 1_555 1_555
C12 C11 1_555 1_555
H13 C12 1_555 1_555
C13 C12 1_555 1_555
H14 C13 1_555 1_555
C14 C13 1_555 1_555
H15 C14 1_555 1_555
C15 C14 1_555 1_555
H16 C15 1_555 1_555
C16 C11 1_555 1_555
O4 C16 1_555 1_555
C17 O4 1_555 1_555
H17 C17 1_555 1_555
H18 C17 1_555 1_555
C18 C17 1_555 1_555
O5 C18 1_555 1_555
C19 C18 1_555 1_555
H19 C19 1_555 1_555
H20 C19 1_555 1_555
O6 C1 1_555 1_555
C5 C6 1_555 1_555
C15 C16 1_555 1_555
C19 O6 1_555 1_555

#END
