
#######################################################################
#
#                 Cambridge Crystallographic Data Centre
#                                CCDC 
#
#######################################################################
#
# If this CIF has been generated from an entry in the Cambridge 
# Structural Database, then it will include bibliographic, chemical, 
# crystal, experimental, refinement or atomic coordinate data resulting 
# from the CCDC's data processing and validation procedures.
#
#######################################################################

data_GRISFL06
_chemical_name_common            Griseofulvin
_chemical_formula_moiety         'C17 H17 Cl1 O6'
_chemical_name_systematic        
7-chloro-2',4,6-trimethoxy-6'-methyl-3H,4'H-spiro[1-benzofuran-2,1'-cyclohex[2]ene]-3,4'-dione
_symmetry_cell_setting           tetragonal
_symmetry_space_group_name_H-M   'P 41'
_symmetry_Int_Tables_number      76
_space_group_name_Hall           'P 4w'
loop_
_symmetry_equiv_pos_site_id
_symmetry_equiv_pos_as_xyz
1 x,y,z
2 -x,-y,1/2+z
3 -y,x,1/4+z
4 y,-x,3/4+z
_cell_length_a                   8.9035(6)
_cell_length_b                   8.9035(6)
_cell_length_c                   19.5908(13)
_cell_angle_alpha                90
_cell_angle_beta                 90
_cell_angle_gamma                90
_cell_volume                     1553.01
_cell_formula_units_Z            4
loop_
_atom_site_label
_atom_site_type_symbol
_atom_site_fract_x
_atom_site_fract_y
_atom_site_fract_z
Cl1 Cl -0.02439(5) 1.00807(7) 0.46032(3)
O1 O 0.21478(17) 0.82321(17) 0.52762(8)
O2 O 0.62562(18) 0.99250(18) 0.40110(8)
O3 O 0.12779(18) 1.18972(19) 0.35757(8)
O4 O 0.61009(17) 0.76919(18) 0.52174(9)
O5 O 0.24607(18) 0.53368(18) 0.51926(9)
O6 O 0.6067(2) 0.5345(2) 0.69698(10)
C1 C 0.2260(2) 1.0989(2) 0.38993(11)
C2 C 0.2613(2) 0.9150(2) 0.47624(11)
C3 C 0.4816(2) 0.8100(2) 0.51337(11)
C4 C 0.4765(2) 1.0022(2) 0.41188(12)
C5 C 0.4156(2) 0.9109(2) 0.46355(11)
C6 C 0.4174(3) 0.5205(3) 0.61378(13)
H1 H 0.412999 0.413998 0.615504
C7 C 0.3581(3) 0.8333(2) 0.63217(11)
H2 H 0.266478 0.802255 0.658084
C8 C 0.3472(2) 0.7633(2) 0.56062(11)
C9 C 0.3361(3) 0.5940(2) 0.56674(11)
C10 C 0.6872(3) 1.0830(3) 0.34672(11)
H3 H 0.639874 1.054876 0.303395
H4 H 0.795756 1.066221 0.343737
H5 H 0.667663 1.189339 0.356112
C11 C 0.3802(2) 1.0963(2) 0.37548(11)
H6 H 0.419457 1.159117 0.340582
C12 C 0.4941(3) 0.7682(3) 0.66943(11)
H7 H 0.585902 0.817590 0.651859
H8 H 0.485616 0.792954 0.718550
C13 C 0.5120(3) 0.6005(3) 0.66221(12)
C14 C 0.1850(3) 1.2829(3) 0.30352(12)
H9 H 0.255854 1.356068 0.322424
H10 H 0.101546 1.335937 0.281544
H11 H 0.236457 1.220028 0.269767
C15 C 0.1644(2) 1.0057(2) 0.44055(11)
C16 C 0.3614(3) 1.0050(3) 0.63106(12)
H12 H 0.360331 1.043153 0.677978
H13 H 0.273171 1.042586 0.606538
H14 H 0.452853 1.039193 0.607967
C17 C 0.2290(3) 0.3722(3) 0.51986(15)
H15 H 0.324536 0.324964 0.507299
H16 H 0.151356 0.342882 0.487002
H17 H 0.199610 0.339200 0.565673
loop_
_geom_bond_atom_site_label_1
_geom_bond_atom_site_label_2
_geom_bond_site_symmetry_1
_geom_bond_site_symmetry_2
Cl1 C15 1_555 1_555
O1 C2 1_555 1_555
O2 C4 1_555 1_555
O3 C1 1_555 1_555
O4 C3 1_555 1_555
O5 C9 1_555 1_555
O6 C13 1_555 1_555
C1 C11 1_555 1_555
C2 C5 1_555 1_555
C3 C5 1_555 1_555
C4 C5 1_555 1_555
C6 H1 1_555 1_555
C7 H2 1_555 1_555
C8 O1 1_555 1_555
C9 C6 1_555 1_555
C10 O2 1_555 1_555
H3 C10 1_555 1_555
H4 C10 1_555 1_555
H5 C10 1_555 1_555
C11 C4 1_555 1_555
H6 C11 1_555 1_555
C12 C7 1_555 1_555
H7 C12 1_555 1_555
H8 C12 1_555 1_555
C13 C6 1_555 1_555
C14 O3 1_555 1_555
H9 C14 1_555 1_555
H10 C14 1_555 1_555
H11 C14 1_555 1_555
C15 C1 1_555 1_555
C16 C7 1_555 1_555
H12 C16 1_555 1_555
H13 C16 1_555 1_555
H14 C16 1_555 1_555
C17 O5 1_555 1_555
H15 C17 1_555 1_555
H16 C17 1_555 1_555
H17 C17 1_555 1_555
C2 C15 1_555 1_555
C3 C8 1_555 1_555
C7 C8 1_555 1_555
C8 C9 1_555 1_555
C12 C13 1_555 1_555

#END
