
#######################################################################
#
#                 Cambridge Crystallographic Data Centre
#                                CCDC 
#
#######################################################################
#
# If this CIF has been generated from an entry in the Cambridge 
# Structural Database, then it will include bibliographic, chemical, 
# crystal, experimental, refinement or atomic coordinate data resulting 
# from the CCDC's data processing and validation procedures.
#
#######################################################################

data_GRISFL10
_chemical_name_common            Griseofulvin
_chemical_formula_moiety         'C17 H17 Cl1 O6'
_chemical_name_systematic        
7-chloro-2',4,6-trimethoxy-6'-methyl-3H,4'H-spiro[1-benzofuran-2,1'-cyclohex[2]ene]-3,4'-dione
_symmetry_cell_setting           tetragonal
_symmetry_space_group_name_H-M   'P 41'
_symmetry_Int_Tables_number      76
_space_group_name_Hall           'P 4w'
loop_
_symmetry_equiv_pos_site_id
_symmetry_equiv_pos_as_xyz
1 x,y,z
2 -x,-y,1/2+z
3 -y,x,1/4+z
4 y,-x,3/4+z
_cell_length_a                   8.9799(13)
_cell_length_b                   8.9799(13)
_cell_length_c                   19.914(3)
_cell_angle_alpha                90
_cell_angle_beta                 90
_cell_angle_gamma                90
_cell_volume                     1605.84
_chemical_melting_point          '492 K'
_cell_formula_units_Z            4
_exptl_crystal_recrystallization_method ethanol
loop_
_atom_site_label
_atom_site_type_symbol
_atom_site_fract_x
_atom_site_fract_y
_atom_site_fract_z
C1 C 1.0798(3) 0.3120(3) 0.34844(14)
H1 H 1.050390 0.356134 0.306574
H2 H 1.064023 0.206362 0.346550
H3 H 1.183299 0.331938 0.356436
C2 C 1.0012(3) 0.5225(3) 0.41225(13)
C3 C 1.0926(3) 0.6182(3) 0.37599(13)
H4 H 1.152558 0.580373 0.341954
C4 C 1.0952(3) 0.7705(3) 0.39016(13)
C5 C 1.0048(3) 0.8310(3) 0.44073(13)
C6 C 0.9158(3) 0.7344(3) 0.47627(13)
C7 C 0.9124(3) 0.5815(3) 0.46388(13)
C8 C 1.2754(4) 0.8141(4) 0.30432(17)
H5 H 1.346084 0.744047 0.321887
H6 H 1.327354 0.895896 0.283977
H7 H 1.214200 0.765981 0.271265
C9 C 0.8144(3) 0.5154(3) 0.51343(13)
C10 C 0.7675(3) 0.6482(3) 0.55993(13)
C11 C 0.8377(3) 0.6390(3) 0.63083(13)
H8 H 0.808077 0.728977 0.655248
C12 C 1.0070(4) 0.6356(4) 0.62928(17)
H9 H 1.044652 0.636010 0.674393
H10 H 1.043276 0.721589 0.605780
H11 H 1.039830 0.547059 0.606690
C13 C 0.7715(4) 0.5061(4) 0.66810(15)
H12 H 0.818804 0.416041 0.651672
H13 H 0.795787 0.515379 0.715385
C14 C 0.6070(4) 0.4889(4) 0.66144(16)
C15 C 0.5284(3) 0.5803(3) 0.61320(17)
H14 H 0.424962 0.584614 0.614989
C16 C 0.6003(3) 0.6589(3) 0.56592(14)
C17 C 0.3810(4) 0.7624(4) 0.5185(2)
H15 H 0.335162 0.668796 0.507739
H16 H 0.352918 0.835444 0.485695
H17 H 0.348494 0.794222 0.562166
Cl1 Cl 1.00640(11) 1.01789(8) 0.46021(5)
O1 O 0.9925(2) 0.3742(2) 0.40190(9)
O2 O 1.1835(2) 0.8684(2) 0.35774(11)
O3 O 0.7762(2) 0.3882(2) 0.52209(10)
O4 O 0.8270(2) 0.77996(19) 0.52752(9)
O5 O 0.5406(2) 0.7454(2) 0.51855(12)
O6 O 0.5413(3) 0.3974(3) 0.69622(16)
loop_
_geom_bond_atom_site_label_1
_geom_bond_atom_site_label_2
_geom_bond_site_symmetry_1
_geom_bond_site_symmetry_2
C1 H1 1_555 1_555
H2 C1 1_555 1_555
H3 C1 1_555 1_555
C2 C3 1_555 1_555
C3 H4 1_555 1_555
C4 C3 1_555 1_555
C5 C4 1_555 1_555
C6 C5 1_555 1_555
C7 C2 1_555 1_555
C8 H5 1_555 1_555
H6 C8 1_555 1_555
H7 C8 1_555 1_555
C9 C7 1_555 1_555
C10 C9 1_555 1_555
C11 C10 1_555 1_555
H8 C11 1_555 1_555
C12 C11 1_555 1_555
H9 C12 1_555 1_555
H10 C12 1_555 1_555
H11 C12 1_555 1_555
C13 C11 1_555 1_555
H12 C13 1_555 1_555
H13 C13 1_555 1_555
C14 C13 1_555 1_555
C15 C14 1_555 1_555
H14 C15 1_555 1_555
C16 C10 1_555 1_555
C17 H15 1_555 1_555
H16 C17 1_555 1_555
H17 C17 1_555 1_555
Cl1 C5 1_555 1_555
O1 C1 1_555 1_555
O2 C4 1_555 1_555
O3 C9 1_555 1_555
O4 C6 1_555 1_555
O5 C16 1_555 1_555
O6 C14 1_555 1_555
C2 O1 1_555 1_555
C6 C7 1_555 1_555
C8 O2 1_555 1_555
C10 O4 1_555 1_555
C15 C16 1_555 1_555
C17 O5 1_555 1_555

#END
