
#######################################################################
#
#                 Cambridge Crystallographic Data Centre
#                                CCDC 
#
#######################################################################
#
# If this CIF has been generated from an entry in the Cambridge 
# Structural Database, then it will include bibliographic, chemical, 
# crystal, experimental, refinement or atomic coordinate data resulting 
# from the CCDC's data processing and validation procedures.
#
#######################################################################

data_GRISFL11
_chemical_name_common            Griseofulvin
_chemical_formula_moiety         'C17 H17 Cl1 O6'
_chemical_name_systematic        
7-chloro-2',4,6-trimethoxy-6'-methyl-3H,4'H-spiro[1-benzofuran-2,1'-cyclohex[2]ene]-3,4'-dione
_symmetry_cell_setting           orthorhombic
_symmetry_space_group_name_H-M   'P 21 21 21'
_symmetry_Int_Tables_number      19
_space_group_name_Hall           'P 2ac 2ab'
loop_
_symmetry_equiv_pos_site_id
_symmetry_equiv_pos_as_xyz
1 x,y,z
2 1/2-x,-y,1/2+z
3 -x,1/2+y,1/2-z
4 1/2+x,1/2-y,-z
_cell_length_a                   11.5984(5)
_cell_length_b                   11.9524(6)
_cell_length_c                   23.3284(12)
_cell_angle_alpha                90
_cell_angle_beta                 90
_cell_angle_gamma                90
_cell_volume                     3233.99
_chemical_melting_point          '486 K'
_cell_formula_units_Z            8
_exptl_crystal_recrystallization_method 'From the Melt'
loop_
_atom_site_label
_atom_site_type_symbol
_atom_site_fract_x
_atom_site_fract_y
_atom_site_fract_z
C1 C 0.5783(3) 0.6784(2) 0.33290(13)
H1 H 0.509344 0.706262 0.313276
H2 H 0.645613 0.721736 0.320560
H3 H 0.568393 0.686233 0.374422
C2 C 0.2125(2) 0.5771(2) 0.42249(13)
H4 H 0.267340 0.610603 0.449433
H5 H 0.134154 0.583868 0.437872
H6 H 0.217117 0.616069 0.385600
C3 C 0.3386(2) 0.4377(2) 0.38594(11)
C4 C 0.4168(2) 0.5188(2) 0.36783(12)
H7 H 0.402949 0.595369 0.376243
C5 C 0.5156(2) 0.4879(2) 0.33732(12)
C6 C 0.5376(2) 0.3753(2) 0.32356(12)
C7 C 0.3618(2) 0.3237(2) 0.37428(11)
C8 C 0.3083(2) 0.2187(2) 0.39205(12)
C9 C 0.4604(2) 0.2966(2) 0.34270(11)
C10 C 0.3889(2) 0.1252(2) 0.36744(12)
C11 C 0.4577(2) 0.0744(2) 0.41624(12)
C12 C 0.5915(3) 0.1214(3) 0.48933(13)
H8 H 0.540194 0.097764 0.520445
H9 H 0.637743 0.185360 0.502018
H10 H 0.642649 0.059377 0.478919
C13 C 0.4521(2) -0.0346(2) 0.43089(13)
H11 H 0.502108 -0.062680 0.459741
C14 C 0.3706(3) -0.1101(2) 0.40322(13)
C15 C 0.2809(2) -0.0575(2) 0.36564(13)
H12 H 0.217328 -0.029044 0.389946
H13 H 0.248516 -0.115291 0.339857
C16 C 0.3284(2) 0.0393(2) 0.32921(12)
H14 H 0.388145 0.007131 0.303053
C17 C 0.2342(3) 0.0907(3) 0.29138(13)
H15 H 0.167911 0.111241 0.315193
H16 H 0.210085 0.036080 0.262436
H17 H 0.264433 0.157627 0.272319
Cl1 Cl 0.65848(5) 0.33541(5) 0.28501(3)
O1 O 0.59547(17) 0.56153(15) 0.31875(9)
O2 O 0.24014(16) 0.46049(15) 0.41449(8)
O3 O 0.47280(16) 0.18524(15) 0.33205(8)
O4 O 0.22315(16) 0.19922(16) 0.42001(9)
O5 O 0.52378(17) 0.15311(16) 0.44034(9)
O6 O 0.3739(2) -0.21142(17) 0.41133(11)
C18 C 0.5493(3) 1.1605(3) 0.67948(15)
H18 H 0.575611 1.170401 0.639876
H19 H 0.598656 1.204048 0.705279
H20 H 0.469468 1.186504 0.682923
C19 C 0.4871(3) 0.9724(2) 0.66621(13)
C20 C 0.4023(2) 1.0045(2) 0.62674(13)
H21 H 0.388920 1.081570 0.619424
C21 C 0.3374(2) 0.9236(2) 0.59812(12)
C22 C 0.3596(2) 0.8099(2) 0.60933(12)
C23 C 0.4444(2) 0.7812(2) 0.64898(12)
C24 C 0.5079(2) 0.8589(2) 0.67834(12)
C25 C 0.2341(3) 1.0620(2) 0.54634(15)
H22 H 0.209192 1.101261 0.581078
H23 H 0.173772 1.067659 0.517051
H24 H 0.305272 1.095984 0.531917
C26 C 0.3153(2) 0.7056(2) 0.58519(12)
C27 C 0.3900(2) 0.6121(2) 0.61342(12)
C28 C 0.4730(2) 0.5534(2) 0.57154(13)
H25 H 0.536324 0.519968 0.595089
C29 C 0.5293(3) 0.6372(3) 0.53037(15)
H26 H 0.584151 0.597880 0.505553
H27 H 0.570041 0.694608 0.552464
H28 H 0.469656 0.672562 0.506776
C30 C 0.4133(2) 0.4571(2) 0.54061(13)
H29 H 0.352416 0.487279 0.515191
H30 H 0.470003 0.417014 0.516450
C31 C 0.3600(2) 0.3760(2) 0.58274(14)
C32 C 0.2993(2) 0.4242(2) 0.63160(13)
H31 H 0.249530 0.378312 0.653821
C33 C 0.3124(2) 0.5326(2) 0.64575(12)
C34 C 0.1734(3) 0.5279(3) 0.72076(15)
H32 H 0.115841 0.495504 0.694878
H33 H 0.135368 0.579348 0.747474
H34 H 0.211308 0.468005 0.742361
Cl2 Cl 0.61779(6) 0.81880(6) 0.72410(3)
O7 O 0.25458(18) 0.94592(16) 0.55952(10)
O8 O 0.55545(19) 1.04443(18) 0.69462(9)
O9 O 0.46251(16) 0.66914(16) 0.65510(8)
O10 O 0.23855(16) 0.68685(16) 0.55123(9)
O11 O 0.25818(17) 0.58816(17) 0.68778(9)
O12 O 0.3656(2) 0.27458(18) 0.57546(11)
loop_
_geom_bond_atom_site_label_1
_geom_bond_atom_site_label_2
_geom_bond_site_symmetry_1
_geom_bond_site_symmetry_2
C1 H1 1_555 1_555
H2 C1 1_555 1_555
H3 C1 1_555 1_555
C2 H4 1_555 1_555
H5 C2 1_555 1_555
H6 C2 1_555 1_555
C3 C4 1_555 1_555
C4 H7 1_555 1_555
C5 C4 1_555 1_555
C6 C5 1_555 1_555
C7 C3 1_555 1_555
C8 C7 1_555 1_555
C9 C6 1_555 1_555
C10 C8 1_555 1_555
C11 C10 1_555 1_555
C12 H8 1_555 1_555
H9 C12 1_555 1_555
H10 C12 1_555 1_555
C13 C11 1_555 1_555
H11 C13 1_555 1_555
C14 C13 1_555 1_555
C15 C14 1_555 1_555
H12 C15 1_555 1_555
H13 C15 1_555 1_555
C16 C10 1_555 1_555
H14 C16 1_555 1_555
C17 C16 1_555 1_555
H15 C17 1_555 1_555
H16 C17 1_555 1_555
H17 C17 1_555 1_555
Cl1 C6 1_555 1_555
O1 C1 1_555 1_555
O2 C2 1_555 1_555
O3 C9 1_555 1_555
O4 C8 1_555 1_555
O5 C11 1_555 1_555
O6 C14 1_555 1_555
C18 H18 1_555 1_555
H19 C18 1_555 1_555
H20 C18 1_555 1_555
C19 C20 1_555 1_555
C20 H21 1_555 1_555
C21 C20 1_555 1_555
C22 C21 1_555 1_555
C23 C22 1_555 1_555
C24 C19 1_555 1_555
C25 H22 1_555 1_555
H23 C25 1_555 1_555
H24 C25 1_555 1_555
C26 C22 1_555 1_555
C27 C26 1_555 1_555
C28 C27 1_555 1_555
H25 C28 1_555 1_555
C29 C28 1_555 1_555
H26 C29 1_555 1_555
H27 C29 1_555 1_555
H28 C29 1_555 1_555
C30 C28 1_555 1_555
H29 C30 1_555 1_555
H30 C30 1_555 1_555
C31 C30 1_555 1_555
C32 C31 1_555 1_555
H31 C32 1_555 1_555
C33 C27 1_555 1_555
C34 H32 1_555 1_555
H33 C34 1_555 1_555
H34 C34 1_555 1_555
Cl2 C24 1_555 1_555
O7 C21 1_555 1_555
O8 C18 1_555 1_555
O9 C23 1_555 1_555
O10 C26 1_555 1_555
O11 C33 1_555 1_555
O12 C31 1_555 1_555
C3 O2 1_555 1_555
C5 O1 1_555 1_555
C7 C9 1_555 1_555
C10 O3 1_555 1_555
C12 O5 1_555 1_555
C15 C16 1_555 1_555
C19 O8 1_555 1_555
C23 C24 1_555 1_555
C25 O7 1_555 1_555
C27 O9 1_555 1_555
C32 C33 1_555 1_555
C34 O11 1_555 1_555

#END
