
#######################################################################
#
#                 Cambridge Crystallographic Data Centre
#                                CCDC 
#
#######################################################################
#
# If this CIF has been generated from an entry in the Cambridge 
# Structural Database, then it will include bibliographic, chemical, 
# crystal, experimental, refinement or atomic coordinate data resulting 
# from the CCDC's data processing and validation procedures.
#
#######################################################################

data_GRISFL08
_chemical_name_common            Griseofulvin
_chemical_formula_moiety         'C17 H17 Cl1 O6'
_chemical_name_systematic        
7-chloro-2',4,6-trimethoxy-6'-methyl-3H,4'H-spiro[1-benzofuran-2,1'-cyclohex[2]ene]-3,4'-dione
_symmetry_cell_setting           orthorhombic
_symmetry_space_group_name_H-M   'P 21 21 21'
_symmetry_Int_Tables_number      19
_space_group_name_Hall           'P 2ac 2ab'
loop_
_symmetry_equiv_pos_site_id
_symmetry_equiv_pos_as_xyz
1 x,y,z
2 1/2-x,-y,1/2+z
3 -x,1/2+y,1/2-z
4 1/2+x,1/2-y,-z
_cell_length_a                   11.799(8)
_cell_length_b                   12.007(8)
_cell_length_c                   24.359(16)
_cell_angle_alpha                90
_cell_angle_beta                 90
_cell_angle_gamma                90
_cell_volume                     3450.95
_chemical_melting_point          '486 K'
_cell_formula_units_Z            8
_exptl_crystal_recrystallization_method 'From the Melt'
loop_
_atom_site_label
_atom_site_type_symbol
_atom_site_fract_x
_atom_site_fract_y
_atom_site_fract_z
C1 C 0.5513(7) 0.2273(5) 0.6555(4)
H1 H 0.479900 0.203935 0.670468
H2 H 0.610715 0.181104 0.669972
H3 H 0.549502 0.220548 0.616263
C2 C 0.5011(4) 0.4205(4) 0.6516(2)
C3 C 0.4055(4) 0.3978(4) 0.6191(2)
H4 H 0.389557 0.324871 0.608827
C4 C 0.3342(4) 0.4842(4) 0.6021(2)
C5 C 0.3615(4) 0.5943(4) 0.6171(2)
C6 C 0.4583(4) 0.6140(4) 0.6486(2)
C7 C 0.5293(4) 0.5297(4) 0.6667(2)
C8 C 0.2039(5) 0.3597(5) 0.5593(3)
H5 H 0.261599 0.324519 0.537564
H6 H 0.134286 0.361779 0.538862
H7 H 0.192759 0.318253 0.592522
C9 C 0.3078(4) 0.7002(4) 0.6078(2)
C10 C 0.3852(4) 0.7876(4) 0.6360(2)
C11 C 0.3265(4) 0.8556(4) 0.6809(2)
H8 H 0.386151 0.889772 0.703268
C12 C 0.2571(5) 0.9487(5) 0.6568(3)
H9 H 0.228509 0.994902 0.686440
H10 H 0.192510 0.917275 0.637744
C13 C 0.3243(5) 1.0218(5) 0.6169(3)
C14 C 0.4139(5) 0.9693(5) 0.5867(3)
H11 H 0.455407 1.011483 0.561801
C15 C 0.4397(4) 0.8612(4) 0.5934(2)
C16 C 0.5714(6) 0.8584(7) 0.5189(3)
H12 H 0.516344 0.881623 0.492202
H13 H 0.624413 0.808314 0.502002
H14 H 0.611009 0.922367 0.532649
C17 C 0.2535(6) 0.7840(5) 0.7195(3)
H15 H 0.233510 0.826613 0.751354
H16 H 0.295516 0.719224 0.730429
H17 H 0.185778 0.761287 0.700654
Cl1 Cl 0.64325(12) 0.55824(12) 0.70839(7)
O1 O 0.5722(4) 0.3415(3) 0.6703(2)
O2 O 0.2381(3) 0.4707(3) 0.57239(17)
O3 O 0.4739(3) 0.7224(3) 0.66237(15)
O4 O 0.2197(3) 0.7251(3) 0.58386(19)
O5 O 0.5150(3) 0.8027(3) 0.56345(16)
O6 O 0.2995(5) 1.1194(4) 0.6103(3)
C18 C 0.5433(8) -0.0430(6) 0.3226(4)
H18 H 0.578430 -0.057236 0.357499
H19 H 0.579332 -0.087283 0.294871
H20 H 0.464357 -0.061797 0.324578
C19 C 0.4900(5) 0.1479(5) 0.3350(3)
C20 C 0.4063(5) 0.1183(4) 0.3735(3)
H21 H 0.393275 0.043858 0.381966
C21 C 0.3434(5) 0.2014(4) 0.3987(2)
C22 C 0.3635(4) 0.3127(4) 0.3849(2)
C23 C 0.4470(4) 0.3398(4) 0.3465(2)
C24 C 0.5107(5) 0.2586(5) 0.3206(2)
C25 C 0.2364(8) 0.0719(6) 0.4520(4)
H22 H 0.205402 0.032681 0.421092
H23 H 0.182495 0.071645 0.481506
H24 H 0.304902 0.035935 0.463713
C26 C 0.3153(4) 0.4160(4) 0.4041(2)
C27 C 0.3823(4) 0.5097(4) 0.3743(2)
C28 C 0.4547(4) 0.5807(5) 0.4125(2)
H25 H 0.507854 0.622966 0.389678
C29 C 0.5245(6) 0.5119(7) 0.4528(3)
H26 H 0.474596 0.471616 0.476807
H27 H 0.571845 0.560418 0.474158
H28 H 0.571019 0.460238 0.432886
C30 C 0.3795(6) 0.6651(5) 0.4427(3)
H29 H 0.327701 0.625615 0.466683
H30 H 0.426634 0.712917 0.465225
C31 C 0.3134(6) 0.7347(5) 0.4034(3)
C32 C 0.2691(5) 0.6800(4) 0.3541(2)
H31 H 0.218046 0.717913 0.331805
C33 C 0.3003(4) 0.5774(4) 0.3406(2)
C34 C 0.1747(6) 0.5654(7) 0.2641(3)
H32 H 0.112144 0.588424 0.286614
H33 H 0.148941 0.511569 0.237736
H34 H 0.205221 0.628859 0.245238
Cl2 Cl 0.61409(15) 0.29304(16) 0.27351(8)
O7 O 0.2608(4) 0.1845(3) 0.4365(2)
O8 O 0.5550(5) 0.0725(4) 0.3092(2)
O9 O 0.2365(3) 0.4342(3) 0.43521(17)
O10 O 0.4598(3) 0.4498(3) 0.33733(15)
O11 O 0.2613(3) 0.5163(3) 0.29814(16)
O12 O 0.2952(8) 0.8328(4) 0.4127(3)
loop_
_geom_bond_atom_site_label_1
_geom_bond_atom_site_label_2
_geom_bond_site_symmetry_1
_geom_bond_site_symmetry_2
C1 H1 1_555 1_555
H2 C1 1_555 1_555
H3 C1 1_555 1_555
C2 C3 1_555 1_555
C3 H4 1_555 1_555
C4 C3 1_555 1_555
C5 C4 1_555 1_555
C6 C5 1_555 1_555
C7 C2 1_555 1_555
C8 H5 1_555 1_555
H6 C8 1_555 1_555
H7 C8 1_555 1_555
C9 C5 1_555 1_555
C10 C9 1_555 1_555
C11 C10 1_555 1_555
H8 C11 1_555 1_555
C12 C11 1_555 1_555
H9 C12 1_555 1_555
H10 C12 1_555 1_555
C13 C12 1_555 1_555
C14 C13 1_555 1_555
H11 C14 1_555 1_555
C15 C10 1_555 1_555
C16 H12 1_555 1_555
H13 C16 1_555 1_555
H14 C16 1_555 1_555
C17 C11 1_555 1_555
H15 C17 1_555 1_555
H16 C17 1_555 1_555
H17 C17 1_555 1_555
Cl1 C7 1_555 1_555
O1 C1 1_555 1_555
O2 C4 1_555 1_555
O3 C6 1_555 1_555
O4 C9 1_555 1_555
O5 C15 1_555 1_555
O6 C13 1_555 1_555
C18 H18 1_555 1_555
H19 C18 1_555 1_555
H20 C18 1_555 1_555
C19 C20 1_555 1_555
C20 H21 1_555 1_555
C21 C20 1_555 1_555
C22 C21 1_555 1_555
C23 C22 1_555 1_555
C24 C19 1_555 1_555
C25 H22 1_555 1_555
H23 C25 1_555 1_555
H24 C25 1_555 1_555
C26 C22 1_555 1_555
C27 C26 1_555 1_555
C28 C27 1_555 1_555
H25 C28 1_555 1_555
C29 C28 1_555 1_555
H26 C29 1_555 1_555
H27 C29 1_555 1_555
H28 C29 1_555 1_555
C30 C28 1_555 1_555
H29 C30 1_555 1_555
H30 C30 1_555 1_555
C31 C30 1_555 1_555
C32 C31 1_555 1_555
H31 C32 1_555 1_555
C33 C27 1_555 1_555
C34 H32 1_555 1_555
H33 C34 1_555 1_555
H34 C34 1_555 1_555
Cl2 C24 1_555 1_555
O7 C21 1_555 1_555
O8 C18 1_555 1_555
O9 C26 1_555 1_555
O10 C23 1_555 1_555
O11 C33 1_555 1_555
O12 C31 1_555 1_555
C2 O1 1_555 1_555
C6 C7 1_555 1_555
C8 O2 1_555 1_555
C10 O3 1_555 1_555
C14 C15 1_555 1_555
C16 O5 1_555 1_555
C19 O8 1_555 1_555
C23 C24 1_555 1_555
C25 O7 1_555 1_555
C27 O10 1_555 1_555
C32 C33 1_555 1_555
C34 O11 1_555 1_555

#END
