
#######################################################################
#
#                 Cambridge Crystallographic Data Centre
#                                CCDC 
#
#######################################################################
#
# If this CIF has been generated from an entry in the Cambridge 
# Structural Database, then it will include bibliographic, chemical, 
# crystal, experimental, refinement or atomic coordinate data resulting 
# from the CCDC's data processing and validation procedures.
#
#######################################################################

data_GUANHP01
_chemical_formula_moiety         '2(C1 H6 N3 1+),H1 O4 P1 2-,H2 O1'
_chemical_name_systematic        
'bis(Guanidinium) hydrogen phosphate monohydrate'
_symmetry_cell_setting           tetragonal
_symmetry_space_group_name_H-M   'P -4 21 c'
_symmetry_Int_Tables_number      114
_space_group_name_Hall           'P -4 2n'
loop_
_symmetry_equiv_pos_site_id
_symmetry_equiv_pos_as_xyz
1 x,y,z
2 -x,-y,z
3 1/2+x,1/2-y,1/2-z
4 1/2-x,1/2+y,1/2-z
5 1/2+y,1/2+x,1/2+z
6 1/2-y,1/2-x,1/2+z
7 -y,x,-z
8 y,-x,-z
_cell_length_a                   16.8420(2)
_cell_length_b                   16.8420(2)
_cell_length_c                   7.2490(2)
_cell_angle_alpha                90
_cell_angle_beta                 90
_cell_angle_gamma                90
_cell_volume                     2056.2
_exptl_crystal_colour            colorless
_exptl_crystal_description       prism
_cell_formula_units_Z            8
loop_
_atom_site_label
_atom_site_type_symbol
_atom_site_fract_x
_atom_site_fract_y
_atom_site_fract_z
C1 C 0.51787(12) 0.65574(12) 0.3031(3)
H1 H 0.5041(18) 0.6605(16) 0.562(4)
H2 H 0.4394(17) 0.6129(14) 0.151(3)
H3 H 0.6170(14) 0.6880(13) 0.204(4)
H4 H 0.4277(19) 0.6430(17) 0.446(4)
H5 H 0.5059(17) 0.6432(15) 0.055(4)
H6 H 0.6162(16) 0.6987(15) 0.418(4)
N1 N 0.47974(15) 0.64792(15) 0.4613(3)
N2 N 0.48163(15) 0.63887(16) 0.1466(3)
N3 N 0.59279(11) 0.67898(12) 0.3041(3)
C2 C 0.35114(12) 0.89237(12) 0.2824(3)
H7 H 0.3448(14) 0.7854(14) 0.331(3)
H8 H 0.2508(14) 0.8738(16) 0.397(3)
H9 H 0.4389(15) 0.9364(15) 0.189(4)
H10 H 0.4266(17) 0.8115(15) 0.262(4)
H11 H 0.2600(15) 0.9527(18) 0.337(4)
H12 H 0.3789(17) 0.9944(19) 0.213(4)
N4 N 0.37959(14) 0.81953(12) 0.2966(3)
N5 N 0.27739(13) 0.90787(15) 0.3327(3)
N6 N 0.39644(15) 0.94942(14) 0.2171(3)
H13 H 0.2464(16) 0.7057(16) -0.009(4)
O1 O 0.18151(8) 0.59663(9) 0.1911(2)
O2 O 0.27732(9) 0.68048(9) 0.37661(18)
O3 O 0.28090(10) 0.68328(10) 0.02919(19)
O4 O 0.32728(8) 0.56457(8) 0.1952(2)
P1 P 0.26421(3) 0.62901(3) 0.20586(7)
H14 H 0.0789(17) 0.6297(15) 0.287(4)
H15 H 0.058(2) 0.6503(18) 0.449(5)
O5 O 0.03947(12) 0.63884(12) 0.3466(3)
loop_
_geom_bond_atom_site_label_1
_geom_bond_atom_site_label_2
_geom_bond_site_symmetry_1
_geom_bond_site_symmetry_2
C1 N1 1_555 1_555
H1 N1 1_555 1_555
H2 N2 1_555 1_555
H3 N3 1_555 1_555
H4 N1 1_555 1_555
H5 N2 1_555 1_555
H6 N3 1_555 1_555
N2 C1 1_555 1_555
N3 C1 1_555 1_555
C2 N4 1_555 1_555
H7 N4 1_555 1_555
H8 N5 1_555 1_555
H9 N6 1_555 1_555
H10 N4 1_555 1_555
H11 N5 1_555 1_555
H12 N6 1_555 1_555
N5 C2 1_555 1_555
N6 C2 1_555 1_555
H13 O3 1_555 1_555
O1 P1 1_555 1_555
O2 P1 1_555 1_555
O3 P1 1_555 1_555
O4 P1 1_555 1_555
H14 O5 1_555 1_555
H15 O5 1_555 1_555

#END
