
#######################################################################
#
#                 Cambridge Crystallographic Data Centre
#                                CCDC 
#
#######################################################################
#
# If this CIF has been generated from an entry in the Cambridge 
# Structural Database, then it will include bibliographic, chemical, 
# crystal, experimental, refinement or atomic coordinate data resulting 
# from the CCDC's data processing and validation procedures.
#
#######################################################################

data_GUBBUC
_chemical_formula_moiety         'C26 H30 N4 S1'
_chemical_name_systematic        
(4-t-butyl-5-(2-(1-butyl-3,3-dimethyl-1,3-dihydro-2H-indol-2-ylidene)ethylidene)-1,3-thiazol-2(5H)-ylidene)malononitrile
_symmetry_cell_setting           monoclinic
_symmetry_space_group_name_H-M   'P 21/m'
_symmetry_Int_Tables_number      11
_space_group_name_Hall           '-P 2yb'
loop_
_symmetry_equiv_pos_site_id
_symmetry_equiv_pos_as_xyz
1 x,y,z
2 -x,1/2+y,-z
3 -x,-y,-z
4 x,1/2-y,z
_cell_length_a                   12.6293(5)
_cell_length_b                   7.2565(3)
_cell_length_c                   14.1271(6)
_cell_angle_alpha                90
_cell_angle_beta                 113.2000(10)
_cell_angle_gamma                90
_cell_volume                     1189.98
_exptl_crystal_colour            blue
_exptl_crystal_description       prism
_cell_formula_units_Z            2
loop_
_atom_site_label
_atom_site_type_symbol
_atom_site_fract_x
_atom_site_fract_y
_atom_site_fract_z
S1 S 0.99313(5) 0.2500 0.96165(4)
N1 N 1.3775(2) 0.2500 1.28190(18)
N2 N 1.2709(2) 0.2500 0.94159(18)
N3 N 1.06537(16) 0.2500 1.16079(15)
C1 C 0.9024(2) 0.2500 1.20994(18)
C2 C 0.95007(19) 0.2500 1.12613(17)
C3 C 0.89106(19) 0.2500 1.01775(17)
C4 C 0.77400(19) 0.2500 0.95400(17)
H1 H 0.7213 0.2500 0.9860
C5 C 0.7295(2) 0.2500 0.84799(18)
H2 H 0.7824 0.2500 0.8162
C6 C 0.6132(2) 0.2500 0.78408(17)
C7 C 0.50917(18) 0.2500 0.81348(16)
C8 C 0.4113(2) 0.2500 0.70856(18)
C9 C 0.2936(2) 0.2500 0.6815(2)
H3 H 0.2624 0.2500 0.7319
C10 C 0.2224(2) 0.2500 0.5767(2)
H4 H 0.1420 0.2500 0.5561
C11 C 0.2689(3) 0.2500 0.5026(2)
H5 H 0.2190 0.2500 0.4326
C12 C 0.3865(3) 0.2500 0.5288(2)
H6 H 0.4181 0.2500 0.4787
C13 C 0.4553(2) 0.2500 0.63334(19)
N4 N 0.5761(2) 0.2841(5) 0.68099(18)
C14 C 0.6486(3) 0.3242(5) 0.6248(3)
H7 H 0.7079 0.4128 0.6647
H8 H 0.6012 0.3828 0.5592
C15 C 0.7070(5) 0.1563(6) 0.6029(4)
H9 H 0.6485 0.0645 0.5656
H10 H 0.7585 0.1012 0.6682
C16 C 0.7783(4) 0.2086(7) 0.5371(3)
H11 H 0.8290 0.3131 0.5691
H12 H 0.8264 0.1040 0.5351
C17 C 0.6983(4) 0.259(3) 0.4299(3)
H13 H 0.7428 0.2903 0.3898
H14 H 0.6515 0.3631 0.4321
H15 H 0.6488 0.1545 0.3982
C18 C 0.50480(15) 0.4252(3) 0.87282(13)
H16 H 0.5063 0.5328 0.8326
H17 H 0.5708 0.4279 0.9381
H18 H 0.4345 0.4256 0.8852
C19 C 1.10231(19) 0.2500 1.08408(18)
C20 C 1.2190(2) 0.2500 1.09949(18)
C21 C 1.3059(2) 0.2500 1.20023(19)
C22 C 1.25001(19) 0.2500 1.01349(19)
C23 C 0.9486(2) 0.4229(4) 1.27548(16)
H19 H 1.0321 0.4234 1.3019
H20 H 0.9242 0.4231 1.3326
H21 H 0.9188 0.5317 1.2335
C24 C 0.7711(2) 0.2500 1.1717(2)
H22 H 0.7492 0.2500 1.2303
H23 H 0.7404 0.1409 1.1303
N4C N 0.5761(2) 0.2159(5) 0.68099(18)
C14C C 0.6486(3) 0.1758(5) 0.6248(3)
H7C H 0.7079 0.0872 0.6647
H8C H 0.6012 0.1172 0.5592
C15C C 0.7070(5) 0.3437(6) 0.6029(4)
H9C H 0.6485 0.4355 0.5656
H10C H 0.7585 0.3988 0.6682
C16C C 0.7783(4) 0.2914(7) 0.5371(3)
H11C H 0.8290 0.1869 0.5691
H12C H 0.8264 0.3960 0.5351
C17C C 0.6983(4) 0.241(3) 0.4299(3)
H13C H 0.7428 0.2097 0.3898
H14C H 0.6515 0.1369 0.4321
H15C H 0.6488 0.3455 0.3982
C18C C 0.50480(15) 0.0748(3) 0.87282(13)
H16C H 0.5063 -0.0328 0.8326
H17C H 0.5708 0.0721 0.9381
H18C H 0.4345 0.0744 0.8852
C23C C 0.9486(2) 0.0771(4) 1.27548(16)
H19C H 1.0321 0.0766 1.3019
H20C H 0.9242 0.0769 1.3326
H21C H 0.9188 -0.0317 1.2335
H23C H 0.7404 0.3591 1.1303
H24? H 0.7404 0.1409 1.1303
loop_
_geom_bond_atom_site_label_1
_geom_bond_atom_site_label_2
_geom_bond_site_symmetry_1
_geom_bond_site_symmetry_2
S1 C3 1_555 1_555
N1 C21 1_555 1_555
N2 C22 1_555 1_555
N3 C2 1_555 1_555
C1 C2 1_555 1_555
C2 C3 1_555 1_555
C3 C4 1_555 1_555
C4 H1 1_555 1_555
C5 C4 1_555 1_555
H2 C5 1_555 1_555
C6 C5 1_555 1_555
C7 C6 1_555 1_555
C8 C7 1_555 1_555
C9 C8 1_555 1_555
H3 C9 1_555 1_555
C10 C9 1_555 1_555
H4 C10 1_555 1_555
C11 C10 1_555 1_555
H5 C11 1_555 1_555
C12 C11 1_555 1_555
H6 C12 1_555 1_555
C13 C8 1_555 1_555
N4 C6 1_555 1_555
C14 H7 1_555 1_555
H8 C14 1_555 1_555
C15 C14 1_555 1_555
H9 C15 1_555 1_555
H10 C15 1_555 1_555
C16 C15 1_555 1_555
H11 C16C 1_555 1_555
H12 C16 1_555 1_555
C17 C16 1_555 1_555
H13 C17 1_555 1_555
H14 C17 1_555 1_555
H15 C17 1_555 1_555
C18 C7 1_555 1_555
H16 C18 1_555 1_555
H17 C18 1_555 1_555
H18 C18 1_555 1_555
C19 S1 1_555 1_555
C20 C19 1_555 1_555
C21 C20 1_555 1_555
C22 C20 1_555 1_555
C23 C1 1_555 1_555
H19 C23 1_555 1_555
H20 C23 1_555 1_555
H21 C23 1_555 1_555
C24 C1 1_555 1_555
H22 C24 1_555 1_555
H23 C24 1_555 1_555
N4C C6 1_555 1_555
C14C N4 1_555 1_555
H7C C14C 1_555 1_555
H8C C14C 1_555 1_555
C15C C14C 1_555 1_555
H9C C15C 1_555 1_555
H10C C15C 1_555 1_555
C16C C17 1_555 1_555
H11C C16 1_555 1_555
H12C C16C 1_555 1_555
C17C C16 1_555 1_555
H13C C17 1_555 1_555
H14C C17 1_555 1_555
H15C C17 1_555 1_555
C18C C7 1_555 1_555
H16C C18C 1_555 1_555
H17C C18C 1_555 1_555
H18C C18C 1_555 1_555
C23C C1 1_555 1_555
H19C C23C 1_555 1_555
H20C C23C 1_555 1_555
H21C C23C 1_555 1_555
H23C C24 1_555 1_555
N3 C19 1_555 1_555
C12 C13 1_555 1_555
C13 N4 1_555 1_555
C13 N4C 1_555 1_555
C14 N4C 1_555 1_555
H13 C17C 1_555 1_555
H14 C17C 1_555 1_555
H15 C17C 1_555 1_555
C15C C16C 1_555 1_555
C16C C17C 1_555 1_555
C17C H13C 1_555 1_555
C17C H14C 1_555 1_555
C17C H15C 1_555 1_555

#END
