
#######################################################################
#
#                 Cambridge Crystallographic Data Centre
#                                CCDC 
#
#######################################################################
#
# If this CIF has been generated from an entry in the Cambridge 
# Structural Database, then it will include bibliographic, chemical, 
# crystal, experimental, refinement or atomic coordinate data resulting 
# from the CCDC's data processing and validation procedures.
#
#######################################################################

data_GUBBOW
_chemical_formula_moiety         'C25 H21 F5 O6'
_chemical_name_systematic        
18-(Pentafluorophenoxy)-6,7,9,10,18,19-hexahydro-17H-dibenzo[b,k][1,4,7,10,13]pentaoxacyclohexadecine
_symmetry_cell_setting           orthorhombic
_symmetry_space_group_name_H-M   'P c a 21'
_symmetry_Int_Tables_number      29
_space_group_name_Hall           'P 2c -2ac'
loop_
_symmetry_equiv_pos_site_id
_symmetry_equiv_pos_as_xyz
1 x,y,z
2 -x,-y,1/2+z
3 1/2+x,-y,z
4 1/2-x,y,1/2+z
_cell_length_a                   21.690(5)
_cell_length_b                   13.100(3)
_cell_length_c                   8.3824(15)
_cell_angle_alpha                90
_cell_angle_beta                 90
_cell_angle_gamma                90
_cell_volume                     2381.77
_cell_formula_units_Z            4
loop_
_atom_site_label
_atom_site_type_symbol
_atom_site_fract_x
_atom_site_fract_y
_atom_site_fract_z
C1 C 0.8461(3) 0.7507(5) 0.5568(12)
C2 C 0.8140(3) 0.6868(5) 0.4587(10)
C3 C 0.7903(3) 0.7223(5) 0.3182(11)
H1 H 0.7691 0.6786 0.2502
C4 C 0.7984(4) 0.8258(5) 0.2773(13)
H2 H 0.7824 0.8511 0.1823
C5 C 0.8299(4) 0.8882(6) 0.3778(14)
H3 H 0.8352 0.9565 0.3510
C6 C 0.8537(3) 0.8523(5) 0.5167(13)
H4 H 0.8751 0.8960 0.5846
C7 C 0.9551(3) 0.2836(5) 0.7490(8)
C8 C 1.0066(3) 0.2244(5) 0.7777(8)
H5 H 1.0384 0.2494 0.8411
C9 C 1.0109(3) 0.1276(5) 0.7117(11)
H6 H 1.0458 0.0883 0.7321
C10 C 0.9657(3) 0.0887(5) 0.6181(12)
H7 H 0.9693 0.0236 0.5747
C11 C 0.9137(3) 0.1479(5) 0.5883(9)
H8 H 0.8823 0.1229 0.5233
C12 C 0.9087(3) 0.2435(4) 0.6551(8)
C13 C 0.7202(3) 0.2729(4) 0.4478(8)
C14 C 0.7243(3) 0.1712(5) 0.4115(8)
C15 C 0.6802(4) 0.1027(5) 0.4547(10)
C16 C 0.6301(4) 0.1350(6) 0.5413(10)
C17 C 0.6249(3) 0.2346(6) 0.5799(8)
C18 C 0.6690(3) 0.3041(4) 0.5327(9)
C19 C 0.9161(4) 0.7529(6) 0.7773(13)
H9 H 0.9493 0.7691 0.7041
H10 H 0.9017 0.8159 0.8251
C20 C 0.9377(4) 0.6863(6) 0.8970(12)
H11 H 0.9696 0.7205 0.9581
H12 H 0.9040 0.6705 0.9692
C21 C 0.9717(3) 0.5260(6) 0.9580(10)
H13 H 0.9336 0.5156 1.0163
H14 H 1.0019 0.5541 1.0312
C22 C 0.9942(3) 0.4264(5) 0.8961(10)
H15 H 1.0295 0.4369 0.8270
H16 H 1.0067 0.3829 0.9839
C23 C 0.8563(2) 0.3831(4) 0.5312(8)
H17 H 0.8784 0.3685 0.4332
H18 H 0.8772 0.4381 0.5865
C24 C 0.7908(2) 0.4121(4) 0.4957(7)
H19 H 0.7672 0.4148 0.5953
C25 C 0.7850(3) 0.5147(4) 0.4073(8)
H20 H 0.8093 0.5141 0.3102
H21 H 0.7423 0.5284 0.3801
O1 O 0.8673(2) 0.7051(4) 0.6936(8)
O2 O 0.9616(2) 0.5949(4) 0.8345(7)
O3 O 0.94522(16) 0.3794(3) 0.8090(5)
O4 O 0.85353(15) 0.2948(3) 0.6290(5)
O5 O 0.8073(2) 0.5881(3) 0.5140(6)
O6 O 0.76312(17) 0.3383(3) 0.3882(5)
F1 F 0.77295(18) 0.1378(2) 0.3275(6)
F2 F 0.6853(2) 0.0042(3) 0.4148(7)
F3 F 0.58636(18) 0.0692(3) 0.5879(7)
F4 F 0.57651(16) 0.2690(3) 0.6649(6)
F5 F 0.66048(14) 0.4035(3) 0.5665(5)
loop_
_geom_bond_atom_site_label_1
_geom_bond_atom_site_label_2
_geom_bond_site_symmetry_1
_geom_bond_site_symmetry_2
C1 C2 1_555 1_555
C2 C3 1_555 1_555
C3 H1 1_555 1_555
C4 C3 1_555 1_555
H2 C4 1_555 1_555
C5 C4 1_555 1_555
H3 C5 1_555 1_555
C6 C1 1_555 1_555
H4 C6 1_555 1_555
C7 C8 1_555 1_555
C8 H5 1_555 1_555
C9 C8 1_555 1_555
H6 C9 1_555 1_555
C10 C9 1_555 1_555
H7 C10 1_555 1_555
C11 C10 1_555 1_555
H8 C11 1_555 1_555
C12 C7 1_555 1_555
C13 C14 1_555 1_555
C14 C15 1_555 1_555
C15 C16 1_555 1_555
C16 C17 1_555 1_555
C17 C18 1_555 1_555
C18 C13 1_555 1_555
C19 H9 1_555 1_555
H10 C19 1_555 1_555
C20 C19 1_555 1_555
H11 C20 1_555 1_555
H12 C20 1_555 1_555
C21 H13 1_555 1_555
H14 C21 1_555 1_555
C22 C21 1_555 1_555
H15 C22 1_555 1_555
H16 C22 1_555 1_555
C23 H17 1_555 1_555
H18 C23 1_555 1_555
C24 C23 1_555 1_555
H19 C24 1_555 1_555
C25 C24 1_555 1_555
H20 C25 1_555 1_555
H21 C25 1_555 1_555
O1 C1 1_555 1_555
O2 C20 1_555 1_555
O3 C7 1_555 1_555
O4 C12 1_555 1_555
O5 C2 1_555 1_555
O6 C13 1_555 1_555
F1 C14 1_555 1_555
F2 C15 1_555 1_555
F3 C16 1_555 1_555
F4 C17 1_555 1_555
F5 C18 1_555 1_555
C5 C6 1_555 1_555
C11 C12 1_555 1_555
C19 O1 1_555 1_555
C21 O2 1_555 1_555
C22 O3 1_555 1_555
C23 O4 1_555 1_555
C24 O6 1_555 1_555
C25 O5 1_555 1_555

#END
