
#######################################################################
#
#                 Cambridge Crystallographic Data Centre
#                                CCDC 
#
#######################################################################
#
# If this CIF has been generated from an entry in the Cambridge 
# Structural Database, then it will include bibliographic, chemical, 
# crystal, experimental, refinement or atomic coordinate data resulting 
# from the CCDC's data processing and validation procedures.
#
#######################################################################

data_GUBBEM
_chemical_name_common            sym-(propyl)dibenzo-16-crown-5
_chemical_formula_moiety         'C22 H28 O5'
_chemical_name_systematic        
18-propyl-6,7,9,10,18,19-hexahydro-17H-dibenzo[b,k][1,4,7,10,13]pentaoxacyclohexadecine
_symmetry_cell_setting           orthorhombic
_symmetry_space_group_name_H-M   'P m n 21'
_symmetry_Int_Tables_number      31
_space_group_name_Hall           'P 2ac -2'
loop_
_symmetry_equiv_pos_site_id
_symmetry_equiv_pos_as_xyz
1 x,y,z
2 1/2-x,-y,1/2+z
3 1/2+x,-y,1/2+z
4 -x,y,z
_cell_length_a                   18.063(8)
_cell_length_b                   4.980(2)
_cell_length_c                   10.991(5)
_cell_angle_alpha                90
_cell_angle_beta                 90
_cell_angle_gamma                90
_cell_volume                     988.682
_exptl_crystal_colour            colorless
_exptl_crystal_description       plate
_cell_formula_units_Z            2
loop_
_atom_site_label
_atom_site_type_symbol
_atom_site_fract_x
_atom_site_fract_y
_atom_site_fract_z
C1 C 0.1730(2) 0.6675(9) 0.6893(4)
C2 C 0.2235(3) 0.8634(10) 0.7172(4)
H1 H 0.2161(3) 0.9708(10) 0.7853(4)
C3 C 0.2857(3) 0.9035(10) 0.6452(5)
H2 H 0.3201(3) 1.0347(10) 0.6658(5)
C4 C 0.2961(2) 0.7480(9) 0.5431(5)
H3 H 0.3381(2) 0.7726(9) 0.4952(5)
C5 C 0.2439(2) 0.5532(9) 0.5110(5)
H4 H 0.2506(2) 0.4506(9) 0.4412(5)
C6 C 0.1819(2) 0.5133(8) 0.5839(4)
O1 O 0.12702(15) 0.3322(6) 0.5610(3)
C7 C 0.1312(2) 0.1914(9) 0.4481(4)
H5 H 0.1765(2) 0.0871(9) 0.4445(4)
H6 H 0.1311(2) 0.3176(9) 0.3809(4)
C8 C 0.0646(2) 0.0073(9) 0.4395(5)
H7 H 0.0689(2) -0.1069(9) 0.3683(5)
H8 H 0.0620(2) -0.1066(9) 0.5110(5)
O2 O 0.0000 0.1659(8) 0.4309(4)
O3 O -0.1033(6) 0.6067(24) 0.7422(8)
C9 C -0.0760(5) 0.7850(25) 0.8314(9)
H9 H -0.1081(5) 0.7887(25) 0.9010(9)
H10 H -0.0727(5) 0.9628(25) 0.7981(9)
C10 C 0.0000 0.6872(16) 0.8642(6)
H11 H 0.0000 0.5000(16) 0.8843(6)
C11 C 0.0519(5) 0.7222(17) 0.7502(7)
H12 H 0.0564(5) 0.9093(17) 0.7305(7)
H13 H 0.0316(5) 0.6300(17) 0.6811(7)
O4 O 0.1227(6) 0.6169(30) 0.7805(8)
C12 C 0.0323(6) 0.8400(20) 0.9755(9)
H14 H 0.0263(6) 1.0284(20) 0.9599(9)
H15 H 0.0845(6) 0.8045(20) 0.9796(9)
C13 C 0.0000 0.7830(20) 1.0941(7)
H16 H -0.0507 0.8405(20) 1.0909(7)
H17 H 0.0246 0.8989(20) 1.1510(7)
C14 C 0.0000 0.5142(18) 1.1485(8)
H18 H 0.0239 0.5207(18) 1.2265(8)
H19 H 0.0262 0.3923(18) 1.0963(8)
H20 H -0.0501 0.4537(18) 1.1585(8)
C1C C -0.1730(2) 0.6675(9) 0.6893(4)
C2C C -0.2235(3) 0.8634(10) 0.7172(4)
H1C H -0.2161(3) 0.9708(10) 0.7853(4)
C3C C -0.2857(3) 0.9035(10) 0.6452(5)
H2C H -0.3201(3) 1.0347(10) 0.6658(5)
C4C C -0.2961(2) 0.7480(9) 0.5431(5)
H3C H -0.3381(2) 0.7726(9) 0.4952(5)
C5C C -0.2439(2) 0.5532(9) 0.5110(5)
H4C H -0.2506(2) 0.4506(9) 0.4412(5)
C6C C -0.1819(2) 0.5133(8) 0.5839(4)
O1C O -0.12702(15) 0.3322(6) 0.5610(3)
C7C C -0.1312(2) 0.1914(9) 0.4481(4)
H5C H -0.1765(2) 0.0871(9) 0.4445(4)
H6C H -0.1311(2) 0.3176(9) 0.3809(4)
C8C C -0.0646(2) 0.0073(9) 0.4395(5)
H7C H -0.0689(2) -0.1069(9) 0.3683(5)
H8C H -0.0620(2) -0.1066(9) 0.5110(5)
O3C O 0.1033(6) 0.6067(24) 0.7422(8)
C9C C 0.0760(5) 0.7850(25) 0.8314(9)
H9C H 0.1081(5) 0.7887(25) 0.9010(9)
H10C H 0.0727(5) 0.9628(25) 0.7981(9)
C11C C -0.0519(5) 0.7222(17) 0.7502(7)
H12C H -0.0564(5) 0.9093(17) 0.7305(7)
H13C H -0.0316(5) 0.6300(17) 0.6811(7)
O4C O -0.1227(6) 0.6169(30) 0.7805(8)
C12C C -0.0323(6) 0.8400(20) 0.9755(9)
H14C H -0.0263(6) 1.0284(20) 0.9599(9)
H15C H -0.0845(6) 0.8045(20) 0.9796(9)
H16C H 0.0507 0.8405(20) 1.0909(7)
H17C H -0.0246 0.8989(20) 1.1510(7)
H18C H -0.0239 0.5207(18) 1.2265(8)
H19C H -0.0262 0.3923(18) 1.0963(8)
H20C H 0.0501 0.4537(18) 1.1585(8)
loop_
_geom_bond_atom_site_label_1
_geom_bond_atom_site_label_2
_geom_bond_site_symmetry_1
_geom_bond_site_symmetry_2
C1 C2 1_555 1_555
C2 H1 1_555 1_555
C3 C2 1_555 1_555
H2 C3 1_555 1_555
C4 C3 1_555 1_555
H3 C4 1_555 1_555
C5 C4 1_555 1_555
H4 C5 1_555 1_555
C6 C1 1_555 1_555
O1 C6 1_555 1_555
C7 O1 1_555 1_555
H5 C7 1_555 1_555
H6 C7 1_555 1_555
C8 C7 1_555 1_555
H7 C8 1_555 1_555
H8 C8 1_555 1_555
O2 C8 1_555 1_555
O3 C1C 1_555 1_555
C9 H9 1_555 1_555
H10 C9 1_555 1_555
C10 C9 1_555 1_555
H11 C10 1_555 1_555
C11 C10 1_555 1_555
H12 C11 1_555 1_555
H13 C11 1_555 1_555
O4 C1 1_555 1_555
C12 C10 1_555 1_555
H14 C12 1_555 1_555
H15 C12 1_555 1_555
C13 C12 1_555 1_555
H16 C13 1_555 1_555
H17 C13 1_555 1_555
C14 C13 1_555 1_555
H18 C14 1_555 1_555
H19 C14 1_555 1_555
H20 C14 1_555 1_555
C1C C2C 1_555 1_555
C2C H1C 1_555 1_555
C3C C2C 1_555 1_555
H2C C3C 1_555 1_555
C4C C3C 1_555 1_555
H3C C4C 1_555 1_555
C5C C4C 1_555 1_555
H4C C5C 1_555 1_555
C6C C1C 1_555 1_555
O1C C6C 1_555 1_555
C7C O1C 1_555 1_555
H5C C7C 1_555 1_555
H6C C7C 1_555 1_555
C8C O2 1_555 1_555
H7C C8C 1_555 1_555
H8C C8C 1_555 1_555
O3C C1 1_555 1_555
C9C C10 1_555 1_555
H9C C9C 1_555 1_555
H10C C9C 1_555 1_555
C11C O3 1_555 1_555
H12C C11C 1_555 1_555
H13C C11C 1_555 1_555
O4C O3 1_555 1_555
C12C C10 1_555 1_555
H14C C12C 1_555 1_555
H15C C12C 1_555 1_555
H16C C13 1_555 1_555
H17C C13 1_555 1_555
H18C C14 1_555 1_555
H19C C14 1_555 1_555
H20C C14 1_555 1_555
C5 C6 1_555 1_555
C9 O4C 1_555 1_555
C10 C11C 1_555 1_555
C11 O3C 1_555 1_555
O4 O3C 1_555 1_555
O4 C9C 1_555 1_555
C13 C12C 1_555 1_555
C1C O4C 1_555 1_555
C5C C6C 1_555 1_555
C7C C8C 1_555 1_555

#END
