
#######################################################################
#
#                 Cambridge Crystallographic Data Centre
#                                CCDC 
#
#######################################################################
#
# If this CIF has been generated from an entry in the Cambridge 
# Structural Database, then it will include bibliographic, chemical, 
# crystal, experimental, refinement or atomic coordinate data resulting 
# from the CCDC's data processing and validation procedures.
#
#######################################################################

data_GUBBAI
_chemical_formula_moiety         'C19 H22 O5'
_chemical_name_systematic        
6,7,9,10,18,19-hexahydro-17H-dibenzo[b,k][1,4,7,10,13]pentaoxacyclohexadecine
_symmetry_cell_setting           monoclinic
_symmetry_space_group_name_H-M   'P 21'
_symmetry_Int_Tables_number      4
_space_group_name_Hall           'P 2yb'
loop_
_symmetry_equiv_pos_site_id
_symmetry_equiv_pos_as_xyz
1 x,y,z
2 -x,1/2+y,-z
_cell_length_a                   9.467(2)
_cell_length_b                   8.797(2)
_cell_length_c                   10.587(2)
_cell_angle_alpha                90
_cell_angle_beta                 91.18(2)
_cell_angle_gamma                90
_cell_volume                     881.511
_exptl_crystal_colour            colorless
_exptl_crystal_description       plate
_cell_formula_units_Z            2
loop_
_atom_site_label
_atom_site_type_symbol
_atom_site_fract_x
_atom_site_fract_y
_atom_site_fract_z
C1 C 0.0608(4) 0.2591(5) -0.3597(3)
C2 C 0.0006(5) 0.3514(8) -0.4507(4)
H1 H 0.0525(5) 0.4313(8) -0.4837(4)
C3 C -0.1367(5) 0.3264(7) -0.4938(4)
H2 H -0.1767(5) 0.3883(7) -0.5561(4)
C4 C -0.2122(5) 0.2106(6) -0.4439(4)
H3 H -0.3043(5) 0.1935(6) -0.4728(4)
C5 C -0.1548(4) 0.1181(5) -0.3515(4)
H4 H -0.2088(4) 0.0411(5) -0.3165(4)
C6 C -0.0165(4) 0.1401(4) -0.3107(3)
O1 O 0.0515(2) 0.0539(3) -0.2217(3)
C7 C -0.0242(4) -0.0681(5) -0.1666(4)
H5 H -0.0534(4) -0.1406(5) -0.2311(4)
H6 H -0.1078(4) -0.0301(5) -0.1257(4)
C8 C 0.0710(5) -0.1416(6) -0.0732(4)
H7 H 0.0279(5) -0.2341(6) -0.0423(4)
H8 H 0.1593(5) -0.1683(6) -0.1125(4)
O2 O 0.0971(3) -0.0405(3) 0.0282(3)
C9 C 0.2052(5) -0.0919(5) 0.1103(5)
H9 H 0.2895(5) -0.1132(5) 0.0629(5)
H10 H 0.1761(5) -0.1850(5) 0.1514(5)
C10 C 0.2366(5) 0.0275(6) 0.2075(4)
H11 H 0.1505(5) 0.0581(6) 0.2486(4)
H12 H 0.3023(5) -0.0113(6) 0.2713(4)
O3 O 0.2965(3) 0.1523(3) 0.1438(3)
C11 C 0.3707(4) 0.2590(5) 0.2118(3)
C12 C 0.3826(4) 0.2669(7) 0.3419(4)
H13 H 0.3365(4) 0.1967(7) 0.3922(4)
C13 C 0.4648(6) 0.3817(8) 0.3968(4)
H14 H 0.4748(6) 0.3860(8) 0.4843(4)
C14 C 0.5299(5) 0.4865(8) 0.3259(6)
H15 H 0.5827(5) 0.5634(8) 0.3644(6)
C15 C 0.5182(5) 0.4794(6) 0.1966(5)
H16 H 0.5650(5) 0.5501(6) 0.1473(5)
C16 C 0.4373(4) 0.3680(5) 0.1397(4)
O4 O 0.4262(3) 0.3523(4) 0.0107(3)
C17 C 0.3866(6) 0.4821(7) -0.0610(5)
H17 H 0.4621(6) 0.5567(7) -0.0590(5)
H18 H 0.3026(6) 0.5283(7) -0.0267(5)
C18 C 0.3578(4) 0.4294(5) -0.1949(4)
H19 H 0.4340(4) 0.3641(5) -0.2219(4)
H20 H 0.3530(4) 0.5164(5) -0.2510(4)
C19 C 0.2196(4) 0.3431(8) -0.2015(5)
H21 H 0.2215(4) 0.2609(8) -0.1405(5)
H22 H 0.1423(4) 0.4106(8) -0.1812(5)
O5 O 0.1989(3) 0.2846(4) -0.3226(2)
H23? H 0.4303(23) 0.4825(29) -0.2409(23)
H24? H 0.3896(23) 0.3246(29) -0.1915(23)
C20? C 0.2473(23) 0.4219(29) -0.2849(23)
H25? H 0.1680(23) 0.4778(29) -0.2516(23)
H26? H 0.2776(23) 0.4758(29) -0.3595(23)
loop_
_geom_bond_atom_site_label_1
_geom_bond_atom_site_label_2
_geom_bond_site_symmetry_1
_geom_bond_site_symmetry_2
C1 C2 1_555 1_555
C2 H1 1_555 1_555
C3 C2 1_555 1_555
H2 C3 1_555 1_555
C4 C3 1_555 1_555
H3 C4 1_555 1_555
C5 C4 1_555 1_555
H4 C5 1_555 1_555
C6 C1 1_555 1_555
O1 C6 1_555 1_555
C7 O1 1_555 1_555
H5 C7 1_555 1_555
H6 C7 1_555 1_555
C8 C7 1_555 1_555
H7 C8 1_555 1_555
H8 C8 1_555 1_555
O2 C8 1_555 1_555
C9 O2 1_555 1_555
H9 C9 1_555 1_555
H10 C9 1_555 1_555
C10 C9 1_555 1_555
H11 C10 1_555 1_555
H12 C10 1_555 1_555
O3 C10 1_555 1_555
C11 O3 1_555 1_555
C12 C11 1_555 1_555
H13 C12 1_555 1_555
C13 C12 1_555 1_555
H14 C13 1_555 1_555
C14 C13 1_555 1_555
H15 C14 1_555 1_555
C15 C14 1_555 1_555
H16 C15 1_555 1_555
C16 C11 1_555 1_555
O4 C16 1_555 1_555
C17 O4 1_555 1_555
H17 C17 1_555 1_555
H18 C17 1_555 1_555
C18 C17 1_555 1_555
H19 C18 1_555 1_555
H20 C18 1_555 1_555
C19 C18 1_555 1_555
H21 C19 1_555 1_555
H22 C19 1_555 1_555
O5 C1 1_555 1_555
C5 C6 1_555 1_555
C15 C16 1_555 1_555
C19 O5 1_555 1_555

#END
