
#######################################################################
#
#                 Cambridge Crystallographic Data Centre
#                                CCDC 
#
#######################################################################
#
# If this CIF has been generated from an entry in the Cambridge 
# Structural Database, then it will include bibliographic, chemical, 
# crystal, experimental, refinement or atomic coordinate data resulting 
# from the CCDC's data processing and validation procedures.
#
#######################################################################

data_GUBCEN
_chemical_formula_moiety         'C28 H25 N3 O1'
_chemical_name_systematic        
(2-(2-(1-butyl-3,3-dimethyl-1,3-dihydro-2H-indol-2-ylidene)ethylidene)-3-oxo-2,3-dihydro-1H-inden-1-ylidene)malononitrile
_symmetry_cell_setting           monoclinic
_symmetry_space_group_name_H-M   'P 21/c'
_symmetry_Int_Tables_number      14
_space_group_name_Hall           '-P 2ybc'
loop_
_symmetry_equiv_pos_site_id
_symmetry_equiv_pos_as_xyz
1 x,y,z
2 -x,1/2+y,1/2-z
3 -x,-y,-z
4 x,1/2-y,1/2+z
_cell_length_a                   10.281(3)
_cell_length_b                   21.738(6)
_cell_length_c                   10.040(3)
_cell_angle_alpha                90
_cell_angle_beta                 96.970(4)
_cell_angle_gamma                90
_cell_volume                     2227.24
_exptl_crystal_colour            red
_exptl_crystal_description       block
_cell_formula_units_Z            4
loop_
_atom_site_label
_atom_site_type_symbol
_atom_site_fract_x
_atom_site_fract_y
_atom_site_fract_z
C1 C 0.89954(11) 0.47915(5) 1.17264(11)
C2 C 0.96105(11) 0.54094(6) 1.16710(12)
C3 C 1.06237(12) 0.56968(6) 1.24794(13)
H1 H 1.1061 0.5495 1.3245
C4 C 1.09810(13) 0.62873(6) 1.21396(15)
H2 H 1.1669 0.6489 1.2689
C5 C 1.03657(13) 0.65899(6) 1.10258(14)
H3 H 1.0636 0.6993 1.0817
C6 C 0.93560(12) 0.63062(6) 1.02145(13)
H4 H 0.8925 0.6508 0.9445
C7 C 0.89942(11) 0.57220(5) 1.05570(12)
C8 C 0.79430(11) 0.53300(5) 0.98679(12)
C9 C 0.79387(11) 0.47581(5) 1.06505(11)
C10 C 0.70124(11) 0.42930(5) 1.03885(11)
H5 H 0.7097 0.3939 1.0947
C11 C 0.59756(11) 0.43101(5) 0.93701(11)
H6 H 0.5886 0.4668 0.8824
C12 C 0.50572(11) 0.38467(5) 0.90835(11)
C13 C 0.49797(12) 0.32189(5) 0.97536(12)
C14 C 0.37824(12) 0.29476(5) 0.89464(12)
C15 C 0.31647(13) 0.23906(6) 0.90541(13)
H7 H 0.3486 0.2104 0.9729
C16 C 0.20636(14) 0.22551(6) 0.81587(14)
H8 H 0.1630 0.1872 0.8223
C17 C 0.15920(13) 0.26695(6) 0.71767(14)
H9 H 0.0837 0.2567 0.6576
C18 C 0.21996(12) 0.32343(6) 0.70491(12)
H10 H 0.1880 0.3521 0.6374
C19 C 0.32912(11) 0.33564(5) 0.79543(11)
C20 C 0.38474(12) 0.43960(5) 0.71005(11)
H11 H 0.4259 0.4776 0.7500
H12 H 0.2894 0.4471 0.6903
C21 C 0.44070(12) 0.42540(6) 0.57965(12)
H13 H 0.3972 0.3881 0.5391
H14 H 0.4192 0.4599 0.5164
C22 C 0.58708(14) 0.41533(7) 0.59578(13)
H15 H 0.6090 0.3806 0.6583
H16 H 0.6311 0.4526 0.6362
C23 C 0.63969(18) 0.40154(8) 0.46370(15)
H17 H 0.5957 0.3650 0.4224
H18 H 0.7342 0.3939 0.4805
H19 H 0.6231 0.4368 0.4031
C24 C 0.47814(14) 0.32681(6) 1.12432(12)
H20 H 0.4055 0.3550 1.1341
H21 H 0.5584 0.3425 1.1757
H22 H 0.4579 0.2861 1.1582
C25 C 0.61918(13) 0.28269(6) 0.95735(15)
H23 H 0.6071 0.2410 0.9911
H24 H 0.6970 0.3013 1.0076
H25 H 0.6306 0.2808 0.8619
C26 C 0.94282(11) 0.43400(6) 1.26416(12)
C27 C 0.89303(12) 0.37264(6) 1.25895(12)
C28 C 1.04546(13) 0.44269(6) 1.37176(13)
N1 N 0.40731(9) 0.38919(4) 0.80688(9)
N2 N 0.85844(12) 0.32240(6) 1.25815(13)
N3 N 1.12551(13) 0.44626(7) 1.46132(13)
O1 O 0.72375(9) 0.54740(4) 0.88443(9)
loop_
_geom_bond_atom_site_label_1
_geom_bond_atom_site_label_2
_geom_bond_site_symmetry_1
_geom_bond_site_symmetry_2
C1 C2 1_555 1_555
C2 C3 1_555 1_555
C3 H1 1_555 1_555
C4 C3 1_555 1_555
H2 C4 1_555 1_555
C5 C4 1_555 1_555
H3 C5 1_555 1_555
C6 C5 1_555 1_555
H4 C6 1_555 1_555
C7 C2 1_555 1_555
C8 C7 1_555 1_555
C9 C1 1_555 1_555
C10 C9 1_555 1_555
H5 C10 1_555 1_555
C11 C10 1_555 1_555
H6 C11 1_555 1_555
C12 C11 1_555 1_555
C13 C12 1_555 1_555
C14 C13 1_555 1_555
C15 C14 1_555 1_555
H7 C15 1_555 1_555
C16 C15 1_555 1_555
H8 C16 1_555 1_555
C17 C16 1_555 1_555
H9 C17 1_555 1_555
C18 C17 1_555 1_555
H10 C18 1_555 1_555
C19 C14 1_555 1_555
C20 H11 1_555 1_555
H12 C20 1_555 1_555
C21 C20 1_555 1_555
H13 C21 1_555 1_555
H14 C21 1_555 1_555
C22 C21 1_555 1_555
H15 C22 1_555 1_555
H16 C22 1_555 1_555
C23 C22 1_555 1_555
H17 C23 1_555 1_555
H18 C23 1_555 1_555
H19 C23 1_555 1_555
C24 C13 1_555 1_555
H20 C24 1_555 1_555
H21 C24 1_555 1_555
H22 C24 1_555 1_555
C25 C13 1_555 1_555
H23 C25 1_555 1_555
H24 C25 1_555 1_555
H25 C25 1_555 1_555
C26 C1 1_555 1_555
C27 C26 1_555 1_555
C28 C26 1_555 1_555
N1 C12 1_555 1_555
N2 C27 1_555 1_555
N3 C28 1_555 1_555
O1 C8 1_555 1_555
C6 C7 1_555 1_555
C8 C9 1_555 1_555
C18 C19 1_555 1_555
C19 N1 1_555 1_555
C20 N1 1_555 1_555

#END
