
#######################################################################
#
#                 Cambridge Crystallographic Data Centre
#                                CCDC 
#
#######################################################################
#
# If this CIF has been generated from an entry in the Cambridge 
# Structural Database, then it will include bibliographic, chemical, 
# crystal, experimental, refinement or atomic coordinate data resulting 
# from the CCDC's data processing and validation procedures.
#
#######################################################################

data_GUBCUD
_chemical_formula_moiety         'C25 H26 N4 S1,C1 H1 Cl3'
_chemical_name_systematic        
'(4-t-butyl-5-(2-(1,1-dimethyl-5,6-dihydro-4H-pyrrolo[3,2,1-ij]quinolin-2(1H)-ylidene)ethylidene)-1,3-thiazol-2(5H)-ylidene)malononitrile chloroform solvate'
_symmetry_cell_setting           monoclinic
_symmetry_space_group_name_H-M   'P 21/n'
_symmetry_Int_Tables_number      14
_space_group_name_Hall           '-P 2yn'
loop_
_symmetry_equiv_pos_site_id
_symmetry_equiv_pos_as_xyz
1 x,y,z
2 1/2-x,1/2+y,1/2-z
3 -x,-y,-z
4 1/2+x,1/2-y,1/2+z
_cell_length_a                   11.4349(3)
_cell_length_b                   6.7966(2)
_cell_length_c                   33.3287(9)
_cell_angle_alpha                90
_cell_angle_beta                 90.8879(10)
_cell_angle_gamma                90
_cell_volume                     2589.94
_exptl_crystal_colour            violet
_exptl_crystal_description       block
_cell_formula_units_Z            4
loop_
_atom_site_label
_atom_site_type_symbol
_atom_site_fract_x
_atom_site_fract_y
_atom_site_fract_z
C1 C 0.28984(13) 0.2260(2) -0.05406(4)
C2 C 0.40754(13) 0.2294(2) -0.06658(4)
C3 C 0.43278(13) 0.2198(2) -0.10805(4)
C4 C 0.50109(13) 0.2426(2) -0.03881(4)
C5 C 0.68756(12) 0.2576(2) -0.01876(4)
C6 C 0.63450(12) 0.2610(2) 0.01929(4)
C7 C 0.81678(13) 0.2657(2) -0.02991(4)
C8 C 0.84177(14) 0.0848(3) -0.05616(5)
H1 H 0.9225 0.0907 -0.0656
H2 H 0.7878 0.0838 -0.0793
H3 H 0.8309 -0.0352 -0.0404
C9 C 0.83328(14) 0.4558(3) -0.05453(5)
H4 H 0.9140 0.4630 -0.0638
H5 H 0.8167 0.5703 -0.0377
H6 H 0.7795 0.4549 -0.0777
C10 C 0.90568(13) 0.2667(3) 0.00499(5)
H7 H 0.8944 0.1495 0.0216
H8 H 0.8944 0.3849 0.0213
H9 H 0.9851 0.2663 -0.0056
C11 C 0.68474(13) 0.2708(2) 0.05776(4)
H10 H 0.7677 0.2754 0.0596
C12 C 0.62454(12) 0.2745(2) 0.09339(4)
H11 H 0.5416 0.2684 0.0920
C13 C 0.67807(12) 0.2865(2) 0.13126(4)
C14 C 0.80954(12) 0.2883(2) 0.14233(4)
C15 C 0.80542(13) 0.2975(2) 0.18790(4)
C16 C 0.89221(14) 0.3041(2) 0.21727(4)
H12 H 0.9726 0.3028 0.2104
C17 C 0.85764(15) 0.3127(2) 0.25754(5)
H13 H 0.9158 0.3172 0.2782
C18 C 0.74026(15) 0.3146(2) 0.26778(4)
H14 H 0.7199 0.3198 0.2953
C19 C 0.65176(14) 0.3091(2) 0.23859(4)
C20 C 0.69001(13) 0.3009(2) 0.19942(4)
C21 C 0.52198(14) 0.3125(3) 0.24572(5)
H15 H 0.5054 0.3965 0.2692
H16 H 0.4944 0.1776 0.2516
C22 C 0.45635(13) 0.3925(3) 0.20862(5)
H17 H 0.3712 0.3776 0.2126
H18 H 0.4732 0.5347 0.2060
C23 C 0.48951(13) 0.2885(3) 0.16972(5)
H19 H 0.4627 0.1500 0.1704
H20 H 0.4508 0.3542 0.1466
C24 C 0.87124(14) 0.4722(3) 0.12627(4)
H21 H 0.8293 0.5901 0.1350
H22 H 0.8720 0.4676 0.0969
H23 H 0.9518 0.4762 0.1367
C25 C 0.86925(14) 0.0975(3) 0.12874(5)
H24 H 0.9485 0.0913 0.1403
H25 H 0.8732 0.0955 0.0994
H26 H 0.8240 -0.0160 0.1379
N1 N 0.61280(11) 0.24806(18) -0.05022(4)
N2 N 0.45508(12) 0.2107(2) -0.14176(4)
N3 N 0.19434(12) 0.2241(2) -0.04343(4)
N4 N 0.61676(10) 0.29479(19) 0.16513(4)
S1 S 0.48151(3) 0.25095(5) 0.01275(2)
C26 C 0.22983(15) 0.3611(3) 0.32282(5)
H27 H 0.1587 0.3427 0.3395
Cl1 Cl 0.18644(3) 0.37015(7) 0.27199(2)
Cl2 Cl 0.32535(4) 0.16217(8) 0.33155(2)
Cl3 Cl 0.29770(4) 0.58572(8) 0.33670(2)
loop_
_geom_bond_atom_site_label_1
_geom_bond_atom_site_label_2
_geom_bond_site_symmetry_1
_geom_bond_site_symmetry_2
C1 C2 1_555 1_555
C2 C3 1_555 1_555
C3 N2 1_555 1_555
C4 C2 1_555 1_555
C5 C6 1_555 1_555
C6 C11 1_555 1_555
C7 C5 1_555 1_555
C8 C7 1_555 1_555
H1 C8 1_555 1_555
H2 C8 1_555 1_555
H3 C8 1_555 1_555
C9 C7 1_555 1_555
H4 C9 1_555 1_555
H5 C9 1_555 1_555
H6 C9 1_555 1_555
C10 C7 1_555 1_555
H7 C10 1_555 1_555
H8 C10 1_555 1_555
H9 C10 1_555 1_555
C11 H10 1_555 1_555
C12 C11 1_555 1_555
H11 C12 1_555 1_555
C13 C12 1_555 1_555
C14 C13 1_555 1_555
C15 C14 1_555 1_555
C16 C15 1_555 1_555
H12 C16 1_555 1_555
C17 C16 1_555 1_555
H13 C17 1_555 1_555
C18 C17 1_555 1_555
H14 C18 1_555 1_555
C19 C18 1_555 1_555
C20 C15 1_555 1_555
C21 C19 1_555 1_555
H15 C21 1_555 1_555
H16 C21 1_555 1_555
C22 C21 1_555 1_555
H17 C22 1_555 1_555
H18 C22 1_555 1_555
C23 C22 1_555 1_555
H19 C23 1_555 1_555
H20 C23 1_555 1_555
C24 C14 1_555 1_555
H21 C24 1_555 1_555
H22 C24 1_555 1_555
H23 C24 1_555 1_555
C25 C14 1_555 1_555
H24 C25 1_555 1_555
H25 C25 1_555 1_555
H26 C25 1_555 1_555
N1 C4 1_555 1_555
N3 C1 1_555 1_555
N4 C13 1_555 1_555
S1 C4 1_555 1_555
C26 H27 1_555 1_555
Cl1 C26 1_555 1_555
Cl2 C26 1_555 1_555
Cl3 C26 1_555 1_555
C5 N1 1_555 1_555
C6 S1 1_555 1_555
C19 C20 1_555 1_555
C20 N4 1_555 1_555
C23 N4 1_555 1_555

#END
