
#######################################################################
#
#                 Cambridge Crystallographic Data Centre
#                                CCDC 
#
#######################################################################
#
# If this CIF has been generated from an entry in the Cambridge 
# Structural Database, then it will include bibliographic, chemical, 
# crystal, experimental, refinement or atomic coordinate data resulting 
# from the CCDC's data processing and validation procedures.
#
#######################################################################

data_GUBCAJ
_chemical_formula_moiety         'C25 H25 N1 O2'
_chemical_name_systematic        
2-(2-(1-butyl-3,3-dimethyl-1,3-dihydro-2H-indol-2-ylidene)ethylidene)-1H-indene-1,3(2H)-dione
_symmetry_cell_setting           monoclinic
_symmetry_space_group_name_H-M   'P 21/n'
_symmetry_Int_Tables_number      14
_space_group_name_Hall           '-P 2yn'
loop_
_symmetry_equiv_pos_site_id
_symmetry_equiv_pos_as_xyz
1 x,y,z
2 1/2-x,1/2+y,1/2-z
3 -x,-y,-z
4 1/2+x,1/2-y,1/2+z
_cell_length_a                   9.315(8)
_cell_length_b                   11.178(9)
_cell_length_c                   19.178(16)
_cell_angle_alpha                90
_cell_angle_beta                 96.267(13)
_cell_angle_gamma                90
_cell_volume                     1984.94
_exptl_crystal_colour            red
_exptl_crystal_description       needle
_cell_formula_units_Z            4
loop_
_atom_site_label
_atom_site_type_symbol
_atom_site_fract_x
_atom_site_fract_y
_atom_site_fract_z
C1 C 0.05967(18) 0.72901(15) -0.14134(9)
C2 C -0.0236(2) 0.78451(16) -0.19573(10)
H1 H -0.1191 0.8108 -0.1912
C3 C 0.0393(2) 0.80019(18) -0.25763(10)
H2 H -0.0148 0.8375 -0.2965
C4 C 0.1787(2) 0.76269(18) -0.26374(10)
H3 H 0.2191 0.7754 -0.3065
C5 C 0.2605(2) 0.70675(17) -0.20827(9)
H4 H 0.3560 0.6805 -0.2127
C6 C 0.19948(18) 0.69020(15) -0.14647(9)
C7 C 0.26058(18) 0.63450(15) -0.07738(9)
C8 C 0.13341(18) 0.64895(15) -0.03368(9)
C9 C 0.09113(18) 0.57322(15) 0.19079(9)
C10 C 0.12221(18) 0.52044(16) 0.26251(9)
C11 C 0.0486(2) 0.53400(18) 0.32069(10)
H5 H -0.0333 0.5849 0.3197
C12 C 0.0984(2) 0.4706(2) 0.38060(10)
H6 H 0.0495 0.4779 0.4213
C13 C 0.2181(2) 0.39697(19) 0.38214(10)
H7 H 0.2493 0.3541 0.4238
C14 C 0.2933(2) 0.38446(17) 0.32395(10)
H8 H 0.3761 0.3346 0.3252
C15 C 0.24331(18) 0.44723(15) 0.26411(9)
C16 C 0.29819(19) 0.44970(16) 0.19356(9)
C17 C 0.20365(18) 0.52959(16) 0.14979(9)
C18 C 0.12245(19) 0.61921(15) 0.03589(9)
H9 H 0.0378 0.6456 0.0548
C19 C 0.22100(19) 0.55545(16) 0.08074(9)
H10 H 0.3061 0.5277 0.0629
C20 C 0.3012(2) 0.50253(16) -0.08799(9)
H11 H 0.2154 0.4582 -0.1076
H12 H 0.3385 0.4675 -0.0428
H13 H 0.3754 0.4980 -0.1204
C21 C 0.39308(19) 0.70529(17) -0.04489(9)
H14 H 0.4705 0.6995 -0.0755
H15 H 0.4266 0.6720 0.0013
H16 H 0.3665 0.7894 -0.0398
C22 C -0.11386(18) 0.73522(16) -0.04741(9)
H17 H -0.1459 0.6687 -0.0188
H18 H -0.1881 0.7469 -0.0879
C23 C -0.10174(19) 0.84864(16) -0.00348(10)
H19 H -0.0074 0.8491 0.0258
H20 H -0.1046 0.9188 -0.0351
C24 C -0.2214(2) 0.86018(19) 0.04378(11)
H21 H -0.3153 0.8672 0.0144
H22 H -0.2242 0.7869 0.0726
C25 C -0.2006(2) 0.9680(2) 0.09178(13)
H23 H -0.1065 0.9626 0.1199
H24 H -0.2773 0.9699 0.1229
H25 H -0.2045 1.0412 0.0635
N1 N 0.02326(15) 0.70268(13) -0.07328(7)
O1 O -0.01010(13) 0.64055(12) 0.17261(7)
O2 O 0.40135(15) 0.39255(13) 0.17676(7)
loop_
_geom_bond_atom_site_label_1
_geom_bond_atom_site_label_2
_geom_bond_site_symmetry_1
_geom_bond_site_symmetry_2
C1 C2 1_555 1_555
C2 H1 1_555 1_555
C3 C2 1_555 1_555
H2 C3 1_555 1_555
C4 C3 1_555 1_555
H3 C4 1_555 1_555
C5 C4 1_555 1_555
H4 C5 1_555 1_555
C6 C1 1_555 1_555
C7 C6 1_555 1_555
C8 C7 1_555 1_555
C9 C10 1_555 1_555
C10 C11 1_555 1_555
C11 H5 1_555 1_555
C12 C11 1_555 1_555
H6 C12 1_555 1_555
C13 C12 1_555 1_555
H7 C13 1_555 1_555
C14 C13 1_555 1_555
H8 C14 1_555 1_555
C15 C10 1_555 1_555
C16 C15 1_555 1_555
C17 C9 1_555 1_555
C18 C8 1_555 1_555
H9 C18 1_555 1_555
C19 C17 1_555 1_555
H10 C19 1_555 1_555
C20 C7 1_555 1_555
H11 C20 1_555 1_555
H12 C20 1_555 1_555
H13 C20 1_555 1_555
C21 C7 1_555 1_555
H14 C21 1_555 1_555
H15 C21 1_555 1_555
H16 C21 1_555 1_555
C22 H17 1_555 1_555
H18 C22 1_555 1_555
C23 C22 1_555 1_555
H19 C23 1_555 1_555
H20 C23 1_555 1_555
C24 C23 1_555 1_555
H21 C24 1_555 1_555
H22 C24 1_555 1_555
C25 C24 1_555 1_555
H23 C25 1_555 1_555
H24 C25 1_555 1_555
H25 C25 1_555 1_555
N1 C1 1_555 1_555
O1 C9 1_555 1_555
O2 C16 1_555 1_555
C5 C6 1_555 1_555
C8 N1 1_555 1_555
C14 C15 1_555 1_555
C16 C17 1_555 1_555
C18 C19 1_555 1_555
C22 N1 1_555 1_555

#END
