
#######################################################################
#
#                 Cambridge Crystallographic Data Centre
#                                CCDC 
#
#######################################################################
#
# If this CIF has been generated from an entry in the Cambridge 
# Structural Database, then it will include bibliographic, chemical, 
# crystal, experimental, refinement or atomic coordinate data resulting 
# from the CCDC's data processing and validation procedures.
#
#######################################################################

data_GUBSON
_chemical_formula_moiety         'C17 H36 N1 1+,C1 H1 O2 1-'
_chemical_name_systematic        '2-methyl-6-undecylpiperidinium formate'
_symmetry_cell_setting           monoclinic
_symmetry_space_group_name_H-M   'P 21'
_symmetry_Int_Tables_number      4
_space_group_name_Hall           'P 2yb'
loop_
_symmetry_equiv_pos_site_id
_symmetry_equiv_pos_as_xyz
1 x,y,z
2 -x,1/2+y,-z
_cell_length_a                   8.037(3)
_cell_length_b                   10.338(3)
_cell_length_c                   23.975(9)
_cell_angle_alpha                90
_cell_angle_beta                 92.29(3)
_cell_angle_gamma                90
_cell_volume                     1990.41
_exptl_crystal_colour            colorless
_exptl_crystal_description       needle
_cell_formula_units_Z            4
loop_
_atom_site_label
_atom_site_type_symbol
_atom_site_fract_x
_atom_site_fract_y
_atom_site_fract_z
C1 C 0.2618(14) 0.3652(12) 0.8267(5)
H1 H 0.1519 0.3476 0.8403
H2 H 0.2736 0.4584 0.8244
C2 C 0.3856(15) 0.3658(11) 0.9279(4)
H3 H 0.2767 0.3476 0.9421
H4 H 0.3989 0.4590 0.9268
C3 C 0.1318(14) 0.3598(10) 0.7286(4)
H5 H 0.0246 0.3323 0.7416
H6 H 0.1331 0.4536 0.7281
C4 C 0.5170(15) 0.3609(11) 1.0284(5)
H7 H 0.5297 0.4542 1.0276
H8 H 0.4093 0.3424 1.0435
N1 N 0.0257(10) 0.3717(8) 0.6304(3)
H9 H -0.0769 0.3478 0.6401
H10 H 0.0328 0.4582 0.6341
C5 C 0.5172(15) 0.3097(12) 0.9678(4)
H11 H 0.6257 0.3270 0.9530
H12 H 0.5030 0.2166 0.9687
C6 C 0.3915(14) 0.3148(11) 0.8703(4)
H13 H 0.3805 0.2215 0.8721
H14 H 0.5012 0.3331 0.8567
C7 C 0.2696(16) 0.3111(12) 0.7693(5)
H15 H 0.2629 0.2175 0.7714
H16 H 0.3767 0.3329 0.7545
C8 C 0.0462(17) 0.3378(11) 0.5716(5)
H17 H 0.1570 0.3655 0.5608
C9 C 0.1520(13) 0.3099(10) 0.6701(4)
H18 H 0.2634 0.3339 0.6584
C10 C 0.6517(16) 0.3582(12) 1.1262(5)
H19 H 0.5459 0.3392 1.1425
H20 H 0.6636 0.4516 1.1251
C11 C 0.6481(15) 0.3066(11) 1.0668(4)
H21 H 0.7556 0.3233 1.0512
H22 H 0.6338 0.2135 1.0682
C12 C 0.7910(18) 0.3028(14) 1.1639(5)
H23 H 0.8968 0.3202 1.1473
H24 H 0.7777 0.2097 1.1659
C13 C 0.796(2) 0.3577(17) 1.2230(5)
H25 H 0.8429 0.4430 1.2228
H26 H 0.8622 0.3028 1.2472
H27 H 0.6843 0.3620 1.2361
C14 C 0.1329(16) 0.1618(10) 0.6640(4)
H28 H 0.2162 0.1185 0.6877
H29 H 0.0238 0.1355 0.6756
C15 C 0.0308(16) 0.1883(10) 0.5633(6)
H30 H -0.0815 0.1602 0.5704
H31 H 0.0551 0.1654 0.5253
C16 C 0.1540(17) 0.1234(12) 0.6037(5)
H32 H 0.1413 0.0304 0.6004
H33 H 0.2660 0.1452 0.5934
C17 C -0.0835(17) 0.4053(12) 0.5346(5)
H34 H -0.1924 0.3754 0.5435
H35 H -0.0641 0.3863 0.4962
H36 H -0.0765 0.4970 0.5405
C18 C 0.9069(16) 0.6046(11) 0.9784(5)
H37 H 0.9167 0.6980 0.9767
H38 H 0.7982 0.5853 0.9925
C19 C 0.6703(15) 0.6264(11) 0.7787(4)
H39 H 0.5599 0.5972 0.7878
H40 H 0.6742 0.7193 0.7841
C20 C 0.5768(12) 0.6597(10) 0.6769(4)
H41 H 0.4637 0.6357 0.6867
C21 C 1.0349(13) 0.6121(11) 1.0773(4)
H42 H 0.9260 0.5964 1.0920
H43 H 1.0477 0.7051 1.0740
C22 C 1.1647(17) 0.5641(11) 1.1199(4)
H44 H 1.1521 0.4711 1.1232
H45 H 1.2737 0.5800 1.1052
C23 C 0.4787(15) 0.6725(10) 0.5777(5)
H46 H 0.3666 0.6477 0.5883
C24 C 0.7837(14) 0.6064(11) 0.8789(5)
H47 H 0.7905 0.7001 0.8800
H48 H 0.6743 0.5824 0.8912
C25 C 1.0362(15) 0.5558(12) 1.0203(5)
H49 H 1.0230 0.4628 1.0235
H50 H 1.1451 0.5714 1.0055
C26 C 0.9110(16) 0.5532(11) 0.9195(5)
H51 H 1.0203 0.5706 0.9055
H52 H 0.8975 0.4601 0.9208
C27 C 0.7974(15) 0.5634(10) 0.8190(5)
H53 H 0.7835 0.4702 0.8172
H54 H 0.9084 0.5833 0.8070
N2 N 0.6017(11) 0.6167(8) 0.6185(3)
H55 H 0.7047 0.6395 0.6088
H56 H 0.5949 0.5299 0.6170
C28 C 1.1628(17) 0.6198(13) 1.1761(5)
H57 H 1.0515 0.6098 1.1897
H58 H 1.1842 0.7118 1.1732
C29 C 0.6969(14) 0.5973(10) 0.7183(5)
H59 H 0.6910 0.5043 0.7132
H60 H 0.8087 0.6242 0.7098
C30 C 0.4665(16) 0.8725(11) 0.6355(5)
H61 H 0.3533 0.8553 0.6460
H62 H 0.4827 0.9655 0.6355
C31 C 1.286(2) 0.5636(14) 1.2199(6)
H63 H 1.3976 0.5862 1.2107
H64 H 1.2752 0.4712 1.2207
H65 H 1.2631 0.5983 1.2560
C32 C 0.4914(15) 0.8201(10) 0.5775(5)
H66 H 0.5999 0.8459 0.5652
H67 H 0.4074 0.8557 0.5517
C33 C 0.5909(14) 0.8094(10) 0.6792(5)
H68 H 0.7036 0.8352 0.6714
H69 H 0.5667 0.8394 0.7163
C34 C 0.5091(15) 0.6191(13) 0.5192(5)
H70 H 0.6235 0.6324 0.5106
H71 H 0.4383 0.6632 0.4922
H72 H 0.4845 0.5282 0.5183
O1 O 0.4739(11) 0.8610(8) 0.3878(4)
O2 O 0.2647(11) 0.7686(8) 0.3361(4)
C35 C 0.4038(16) 0.7756(14) 0.3599(7)
H73 H 0.4681 0.7017 0.3560
C36 C 0.030(2) 0.7194(15) 0.6138(7)
H74 H 0.0930 0.7945 0.6113
O3 O -0.1032(12) 0.7227(9) 0.5894(4)
O4 O 0.0976(12) 0.6305(9) 0.6421(4)
loop_
_geom_bond_atom_site_label_1
_geom_bond_atom_site_label_2
_geom_bond_site_symmetry_1
_geom_bond_site_symmetry_2
C1 H1 1_555 1_555
H2 C1 1_555 1_555
C2 H3 1_555 1_555
H4 C2 1_555 1_555
C3 H5 1_555 1_555
H6 C3 1_555 1_555
C4 H7 1_555 1_555
H8 C4 1_555 1_555
N1 H9 1_555 1_555
H10 N1 1_555 1_555
C5 C2 1_555 1_555
H11 C5 1_555 1_555
H12 C5 1_555 1_555
C6 C1 1_555 1_555
H13 C6 1_555 1_555
H14 C6 1_555 1_555
C7 C1 1_555 1_555
H15 C7 1_555 1_555
H16 C7 1_555 1_555
C8 N1 1_555 1_555
H17 C8 1_555 1_555
C9 C3 1_555 1_555
H18 C9 1_555 1_555
C10 H19 1_555 1_555
H20 C10 1_555 1_555
C11 C4 1_555 1_555
H21 C11 1_555 1_555
H22 C11 1_555 1_555
C12 C10 1_555 1_555
H23 C12 1_555 1_555
H24 C12 1_555 1_555
C13 C12 1_555 1_555
H25 C13 1_555 1_555
H26 C13 1_555 1_555
H27 C13 1_555 1_555
C14 C9 1_555 1_555
H28 C14 1_555 1_555
H29 C14 1_555 1_555
C15 C8 1_555 1_555
H30 C15 1_555 1_555
H31 C15 1_555 1_555
C16 C14 1_555 1_555
H32 C16 1_555 1_555
H33 C16 1_555 1_555
C17 C8 1_555 1_555
H34 C17 1_555 1_555
H35 C17 1_555 1_555
H36 C17 1_555 1_555
C18 H37 1_555 1_555
H38 C18 1_555 1_555
C19 H39 1_555 1_555
H40 C19 1_555 1_555
C20 H41 1_555 1_555
C21 H42 1_555 1_555
H43 C21 1_555 1_555
C22 C21 1_555 1_555
H44 C22 1_555 1_555
H45 C22 1_555 1_555
C23 H46 1_555 1_555
C24 H47 1_555 1_555
H48 C24 1_555 1_555
C25 C18 1_555 1_555
H49 C25 1_555 1_555
H50 C25 1_555 1_555
C26 C18 1_555 1_555
H51 C26 1_555 1_555
H52 C26 1_555 1_555
C27 C19 1_555 1_555
H53 C27 1_555 1_555
H54 C27 1_555 1_555
N2 C20 1_555 1_555
H55 N2 1_555 1_555
H56 N2 1_555 1_555
C28 C22 1_555 1_555
H57 C28 1_555 1_555
H58 C28 1_555 1_555
C29 C19 1_555 1_555
H59 C29 1_555 1_555
H60 C29 1_555 1_555
C30 H61 1_555 1_555
H62 C30 1_555 1_555
C31 C28 1_555 1_555
H63 C31 1_555 1_555
H64 C31 1_555 1_555
H65 C31 1_555 1_555
C32 C23 1_555 1_555
H66 C32 1_555 1_555
H67 C32 1_555 1_555
C33 C20 1_555 1_555
H68 C33 1_555 1_555
H69 C33 1_555 1_555
C34 C23 1_555 1_555
H70 C34 1_555 1_555
H71 C34 1_555 1_555
H72 C34 1_555 1_555
O1 C35 1_555 1_555
O2 C35 1_555 1_555
C35 H73 1_555 1_555
C36 H74 1_555 1_555
O3 C36 1_555 1_555
O4 C36 1_555 1_555
C2 C6 1_555 1_555
C3 C7 1_555 1_555
C4 C5 1_555 1_555
N1 C9 1_555 1_555
C10 C11 1_555 1_555
C15 C16 1_555 1_555
C20 C29 1_555 1_555
C21 C25 1_555 1_555
C23 N2 1_555 1_555
C24 C26 1_555 1_555
C24 C27 1_555 1_555
C30 C32 1_555 1_555
C30 C33 1_555 1_555

#END
