
#######################################################################
#
#                 Cambridge Crystallographic Data Centre
#                                CCDC 
#
#######################################################################
#
# If this CIF has been generated from an entry in the Cambridge 
# Structural Database, then it will include bibliographic, chemical, 
# crystal, experimental, refinement or atomic coordinate data resulting 
# from the CCDC's data processing and validation procedures.
#
#######################################################################

data_GUBSUT
_chemical_formula_moiety         'C9 H19 N2 O2 S1 1+,C2 F3 O2 1-'
_chemical_name_systematic        
'2-((t-butylsulfinyl)carbamoyl)pyrrolidinium trifluoroacetate'
_symmetry_cell_setting           orthorhombic
_symmetry_space_group_name_H-M   'P 21 21 21'
_symmetry_Int_Tables_number      19
_space_group_name_Hall           'P 2ac 2ab'
loop_
_symmetry_equiv_pos_site_id
_symmetry_equiv_pos_as_xyz
1 x,y,z
2 1/2-x,-y,1/2+z
3 -x,1/2+y,1/2-z
4 1/2+x,1/2-y,-z
_cell_length_a                   7.76(3)
_cell_length_b                   9.31(3)
_cell_length_c                   21.48(8)
_cell_angle_alpha                90
_cell_angle_beta                 90
_cell_angle_gamma                90
_cell_volume                     1551.84
_cell_formula_units_Z            4
loop_
_atom_site_label
_atom_site_type_symbol
_atom_site_fract_x
_atom_site_fract_y
_atom_site_fract_z
C1 C -0.1653(3) 0.0771(2) 0.84339(12)
H1 H -0.2666 0.0515 0.8674
H2 H -0.1956 0.0795 0.7996
C2 C -0.0210(4) -0.0268(2) 0.85510(12)
H3 H -0.0325 -0.1118 0.8293
H4 H -0.0170 -0.0553 0.8985
C3 C 0.1367(3) 0.0589(2) 0.83735(12)
H5 H 0.1499 0.0637 0.7925
H6 H 0.2401 0.0177 0.8554
C4 C 0.0992(3) 0.2072(2) 0.86476(10)
H7 H 0.1405 0.2106 0.9079
C5 C 0.1788(3) 0.3289(2) 0.82835(9)
C6 C 0.5076(4) 0.6019(2) 0.85624(10)
C7 C 0.5451(4) 0.5428(3) 0.92020(11)
H8 H 0.6357 0.4729 0.9175
H9 H 0.4432 0.4984 0.9366
H10 H 0.5803 0.6196 0.9472
C8 C 0.6573(4) 0.6896(3) 0.83156(15)
H11 H 0.6656 0.7778 0.8545
H12 H 0.6388 0.7106 0.7883
H13 H 0.7622 0.6361 0.8362
C9 C 0.3394(4) 0.6858(3) 0.85407(12)
H14 H 0.3441 0.7635 0.8834
H15 H 0.2454 0.6232 0.8645
H16 H 0.3225 0.7236 0.8129
N1 N -0.0936(2) 0.2190(2) 0.86419(8)
H17 H -0.1268 0.2890 0.8379
H18 H -0.1325 0.2406 0.9025
N2 N 0.3487(2) 0.34716(19) 0.84062(8)
H19 H 0.3921 0.3003 0.8713
O1 O 0.0962(2) 0.39840(18) 0.79114(7)
O2 O 0.6473(2) 0.37798(18) 0.79712(7)
S1 S 0.48092(7) 0.45591(6) 0.79964(2)
C10 C -0.0481(3) 0.3604(3) 1.02363(9)
C11 C 0.0112(4) 0.5005(3) 0.99495(11)
F1 F 0.0189(3) 0.49676(16) 0.93323(7)
F2 F -0.0978(3) 0.60697(18) 1.00815(9)
F3 F 0.1636(2) 0.5454(2) 1.01479(9)
O3 O -0.0138(3) 0.34889(19) 1.07938(7)
O4 O -0.1284(3) 0.27701(18) 0.99025(7)
loop_
_geom_bond_atom_site_label_1
_geom_bond_atom_site_label_2
_geom_bond_site_symmetry_1
_geom_bond_site_symmetry_2
C1 H1 1_555 1_555
H2 C1 1_555 1_555
C2 C1 1_555 1_555
H3 C2 1_555 1_555
H4 C2 1_555 1_555
C3 C2 1_555 1_555
H5 C3 1_555 1_555
H6 C3 1_555 1_555
C4 C3 1_555 1_555
H7 C4 1_555 1_555
C5 C4 1_555 1_555
C6 C7 1_555 1_555
C7 H8 1_555 1_555
H9 C7 1_555 1_555
H10 C7 1_555 1_555
C8 C6 1_555 1_555
H11 C8 1_555 1_555
H12 C8 1_555 1_555
H13 C8 1_555 1_555
C9 C6 1_555 1_555
H14 C9 1_555 1_555
H15 C9 1_555 1_555
H16 C9 1_555 1_555
N1 C1 1_555 1_555
H17 N1 1_555 1_555
H18 N1 1_555 1_555
N2 C5 1_555 1_555
H19 N2 1_555 1_555
O1 C5 1_555 1_555
O2 S1 1_555 1_555
S1 C6 1_555 1_555
C10 C11 1_555 1_555
C11 F1 1_555 1_555
F2 C11 1_555 1_555
F3 C11 1_555 1_555
O3 C10 1_555 1_555
O4 C10 1_555 1_555
C4 N1 1_555 1_555
N2 S1 1_555 1_555

#END
