
#######################################################################
#
#                 Cambridge Crystallographic Data Centre
#                                CCDC 
#
#######################################################################
#
# If this CIF has been generated from an entry in the Cambridge 
# Structural Database, then it will include bibliographic, chemical, 
# crystal, experimental, refinement or atomic coordinate data resulting 
# from the CCDC's data processing and validation procedures.
#
#######################################################################

data_GUBTOO
_chemical_formula_moiety         'C28 H28 N4 O10'
_chemical_name_systematic        
"dimethyl 2,2'-((1,3,6,8-tetraoxo-1,3,6,8-tetrahydrobenzo[lmn][3,8]phenanthroline-2,7-diyl)bis((1-oxopropane-2,1-diyl)imino))dipropanoate"
_symmetry_cell_setting           orthorhombic
_symmetry_space_group_name_H-M   'P 21 21 21'
_symmetry_Int_Tables_number      19
_space_group_name_Hall           'P 2ac 2ab'
loop_
_symmetry_equiv_pos_site_id
_symmetry_equiv_pos_as_xyz
1 x,y,z
2 1/2-x,-y,1/2+z
3 1/2+x,1/2-y,-z
4 -x,1/2+y,1/2-z
_cell_length_a                   9.9943(15)
_cell_length_b                   14.470(2)
_cell_length_c                   18.796(3)
_cell_angle_alpha                90
_cell_angle_beta                 90
_cell_angle_gamma                90
_cell_volume                     2718.23
_exptl_crystal_colour            colorless
_exptl_crystal_description       plate
_cell_formula_units_Z            4
_exptl_crystal_recrystallization_method DMSO
loop_
_atom_site_label
_atom_site_type_symbol
_atom_site_fract_x
_atom_site_fract_y
_atom_site_fract_z
O1 O 0.0625(5) 0.7157(3) 0.8514(3)
O2 O -0.3184(5) 0.5406(3) 0.8436(2)
N1 N 0.5488(6) 0.1603(4) 0.7220(3)
C1 C 0.1461(7) 0.3697(4) 0.6895(4)
O3 O 0.8151(5) -0.0050(3) 0.6773(2)
N2 N 0.5989(6) -0.0034(3) 0.6439(3)
H1 H 0.5195 0.0223 0.6483
N3 N -0.0615(6) 0.4056(3) 0.7546(3)
C2 C -0.0302(7) 0.3431(4) 0.8090(4)
O4 O -0.0146(5) 0.4786(3) 0.6495(2)
C3 C 0.5129(8) 0.2212(5) 0.6683(4)
C4 C 0.3004(8) 0.2528(4) 0.7350(3)
C5 C 0.6885(8) 0.1231(5) 0.7195(4)
H2 H 0.7373 0.1678 0.6883
C6 C 0.0938(8) 0.2872(4) 0.8003(3)
C7 C 0.1792(7) 0.3035(4) 0.7416(3)
O5 O -0.1032(5) 0.3363(3) 0.8612(3)
O6 O 0.4868(6) 0.0678(3) 0.8173(3)
C8 C -0.1924(7) 0.4546(4) 0.7581(4)
H3 H -0.1954 0.4954 0.7152
O7 O 0.0181(5) 0.7343(3) 0.9678(2)
O8 O 0.5895(6) 0.2332(3) 0.6176(3)
C9 C 0.0197(8) 0.4226(4) 0.6944(4)
C10 C -0.1021(8) 0.6178(4) 0.9088(3)
H4 H -0.1907 0.6496 0.9058
O9 O 0.7825(6) -0.1475(3) 0.5253(2)
O10 O 0.7611(6) 0.0090(3) 0.5200(2)
C11 C 0.0042(8) 0.6927(4) 0.9051(4)
C12 C -0.2053(8) 0.5186(4) 0.8218(4)
C13 C 0.1268(8) 0.2191(4) 0.8487(4)
H5 H 0.0684 0.2064 0.8874
C14 C 0.3330(8) 0.1852(4) 0.7852(4)
N4 N -0.0931(6) 0.5573(3) 0.8479(3)
H6 H -0.0151 0.5458 0.8281
C15 C 0.4595(8) 0.1315(5) 0.7774(4)
C16 C 0.3853(8) 0.2717(5) 0.6753(4)
C17 C 0.3491(8) 0.3349(5) 0.6256(4)
H7 H 0.4059 0.3456 0.5859
C18 C 0.7029(9) 0.0308(4) 0.6809(3)
C19 C 0.2306(8) 0.3844(4) 0.6318(4)
H8 H 0.2072 0.4285 0.5964
C20 C 0.1153(9) 0.8091(4) 0.9709(4)
H9 H 0.1176 0.8347 1.0192
H10 H 0.0897 0.8577 0.9372
H11 H 0.2040 0.7853 0.9584
C21 C 0.7647(8) 0.1261(4) 0.7886(4)
H12 H 0.7550 0.1873 0.8102
H13 H 0.8595 0.1137 0.7795
H14 H 0.7290 0.0791 0.8210
C22 C 0.6156(8) -0.0821(5) 0.5968(4)
H15 H 0.6345 -0.1389 0.6254
C23 C 0.2464(9) 0.1684(4) 0.8413(4)
H16 H 0.2680 0.1221 0.8752
C24 C -0.3098(8) 0.3871(5) 0.7498(4)
H17 H -0.2959 0.3488 0.7074
H18 H -0.3933 0.4219 0.7449
H19 H -0.3151 0.3473 0.7920
C25 C -0.1010(8) 0.5636(5) 0.9794(3)
H20 H -0.1731 0.5177 0.9790
H21 H -0.1145 0.6065 1.0191
H22 H -0.0148 0.5322 0.9849
C26 C 0.8903(11) -0.1454(6) 0.4729(4)
H23 H 0.9206 -0.2085 0.4632
H24 H 0.9652 -0.1089 0.4915
H25 H 0.8576 -0.1173 0.4288
C27 C 0.7301(8) -0.0652(5) 0.5443(3)
C28 C 0.4856(9) -0.0966(5) 0.5521(5)
H26 H 0.4099 -0.1073 0.5842
H27 H 0.4969 -0.1501 0.5208
H28 H 0.4684 -0.0413 0.5233
loop_
_geom_bond_atom_site_label_1
_geom_bond_atom_site_label_2
_geom_bond_site_symmetry_1
_geom_bond_site_symmetry_2
O1 C11 1_555 1_555
O2 C12 1_555 1_555
N1 C3 1_555 1_555
C1 C7 1_555 1_555
O3 C18 1_555 1_555
N2 H1 1_555 1_555
N3 C2 1_555 1_555
C2 C6 1_555 1_555
O4 C9 1_555 1_555
C3 O8 1_555 1_555
C4 C7 1_555 1_555
C5 N1 1_555 1_555
H2 C5 1_555 1_555
C6 C7 1_555 1_555
O5 C2 1_555 1_555
O6 C15 1_555 1_555
C8 N3 1_555 1_555
H3 C8 1_555 1_555
O7 C11 1_555 1_555
C9 C1 1_555 1_555
C10 H4 1_555 1_555
O9 C26 1_555 1_555
O10 C27 1_555 1_555
C11 C10 1_555 1_555
C12 C8 1_555 1_555
C13 C6 1_555 1_555
H5 C13 1_555 1_555
C14 C4 1_555 1_555
N4 C10 1_555 1_555
H6 N4 1_555 1_555
C15 N1 1_555 1_555
C16 C3 1_555 1_555
C17 C16 1_555 1_555
H7 C17 1_555 1_555
C18 N2 1_555 1_555
C19 C1 1_555 1_555
H8 C19 1_555 1_555
C20 O7 1_555 1_555
H9 C20 1_555 1_555
H10 C20 1_555 1_555
H11 C20 1_555 1_555
C21 C5 1_555 1_555
H12 C21 1_555 1_555
H13 C21 1_555 1_555
H14 C21 1_555 1_555
C22 N2 1_555 1_555
H15 C22 1_555 1_555
C23 C13 1_555 1_555
H16 C23 1_555 1_555
C24 C8 1_555 1_555
H17 C24 1_555 1_555
H18 C24 1_555 1_555
H19 C24 1_555 1_555
C25 C10 1_555 1_555
H20 C25 1_555 1_555
H21 C25 1_555 1_555
H22 C25 1_555 1_555
C26 H23 1_555 1_555
H24 C26 1_555 1_555
H25 C26 1_555 1_555
C27 O9 1_555 1_555
C28 C22 1_555 1_555
H26 C28 1_555 1_555
H27 C28 1_555 1_555
H28 C28 1_555 1_555
N3 C9 1_555 1_555
C4 C16 1_555 1_555
C5 C18 1_555 1_555
C12 N4 1_555 1_555
C14 C15 1_555 1_555
C14 C23 1_555 1_555
C17 C19 1_555 1_555
C22 C27 1_555 1_555

#END
