
#######################################################################
#
#                 Cambridge Crystallographic Data Centre
#                                CCDC 
#
#######################################################################
#
# If this CIF has been generated from an entry in the Cambridge 
# Structural Database, then it will include bibliographic, chemical, 
# crystal, experimental, refinement or atomic coordinate data resulting 
# from the CCDC's data processing and validation procedures.
#
#######################################################################

data_GUBYOT
_chemical_formula_moiety         'C26 H18 N6'
_chemical_name_systematic        
2,2'-naphthalene-1,8-diylbis(4-phenyl-2H-1,2,3-triazole)
_symmetry_cell_setting           orthorhombic
_symmetry_space_group_name_H-M   'P n a 21'
_symmetry_Int_Tables_number      33
_space_group_name_Hall           'P 2c -2n'
loop_
_symmetry_equiv_pos_site_id
_symmetry_equiv_pos_as_xyz
1 x,y,z
2 -x,-y,1/2+z
3 1/2+x,1/2-y,z
4 1/2-x,1/2+y,1/2+z
_cell_length_a                   11.3909(8)
_cell_length_b                   12.0108(8)
_cell_length_c                   30.282(2)
_cell_angle_alpha                90
_cell_angle_beta                 90
_cell_angle_gamma                90
_cell_volume                     4143
_exptl_crystal_colour            'pale yellow'
_exptl_crystal_description       block
_cell_formula_units_Z            8
loop_
_atom_site_label
_atom_site_type_symbol
_atom_site_fract_x
_atom_site_fract_y
_atom_site_fract_z
N1 N 0.2899(3) 0.5899(4) 0.08042(16)
N2 N 0.3253(4) 0.4851(4) 0.07313(18)
N3 N 0.4234(4) 0.4731(4) 0.05034(17)
N4 N 0.3064(3) 0.6219(4) 0.18098(16)
N5 N 0.3456(3) 0.5229(3) 0.16770(15)
N6 N 0.4568(4) 0.5180(4) 0.15634(19)
C1 C 0.4550(5) 0.5781(5) 0.0428(2)
H1 H 0.5219 0.5996 0.0274
C2 C 0.3740(4) 0.6512(4) 0.06105(17)
C3 C 0.3712(6) 0.7724(5) 0.0621(2)
C4 C 0.4668(5) 0.8345(5) 0.0471(2)
H2 H 0.5327 0.7984 0.036
C5 C 0.4638(6) 0.9501(6) 0.0487(3)
H3 H 0.5281 0.9908 0.0388
C6 C 0.3675(7) 1.0046(6) 0.0647(3)
H4 H 0.365 1.082 0.0655
C7 C 0.2740(6) 0.9415(5) 0.0796(3)
H5 H 0.2086 0.9777 0.0911
C8 C 0.2745(4) 0.8292(5) 0.0779(2)
H6 H 0.2091 0.7897 0.0876
C9 C 0.2562(4) 0.3909(4) 0.08677(18)
C10 C 0.2132(5) 0.3280(4) 0.0535(2)
H7 H 0.2304 0.3471 0.0244
C11 C 0.1436(7) 0.2350(5) 0.0620(4)
H8 H 0.1169 0.1904 0.039
C12 C 0.1150(5) 0.2104(5) 0.1051(2)
H9 H 0.0653 0.1506 0.1107
C13 C 0.1576(5) 0.2716(5) 0.1407(3)
C14 C 0.1289(7) 0.2441(5) 0.1843(4)
H10 H 0.0819 0.1822 0.1894
C15 C 0.1665(7) 0.3032(6) 0.2187(2)
H11 H 0.1448 0.2831 0.2472
C16 C 0.2393(6) 0.3965(6) 0.2117(2)
H12 H 0.2649 0.4383 0.2357
C17 C 0.2722(4) 0.4256(4) 0.1703(2)
C18 C 0.2331(4) 0.3676(4) 0.13218(17)
C19 C 0.4930(4) 0.6243(4) 0.1607(2)
H13 H 0.5679 0.6503 0.1541
C20 C 0.4014(4) 0.6883(5) 0.1765(2)
C21 C 0.3937(5) 0.8087(5) 0.1845(2)
C22 C 0.4801(5) 0.8796(5) 0.1675(2)
H14 H 0.5453 0.8522 0.1525
C23 C 0.4636(6) 0.9938(6) 0.1741(3)
H15 H 0.5197 1.0427 0.163
C24 C 0.3694(6) 1.0372(6) 0.1960(3)
H16 H 0.3628 1.1136 0.2002
C25 C 0.2857(6) 0.9670(6) 0.2115(3)
H17 H 0.2209 0.9958 0.2263
C26 C 0.2953(5) 0.8539(5) 0.2056(3)
H18 H 0.236 0.8071 0.2156
N7 N 0.4593(4) 0.0915(4) 0.42330(18)
N8 N 0.4223(4) -0.0124(4) 0.42956(18)
N9 N 0.3235(4) -0.0236(4) 0.45267(18)
N10 N 0.4450(3) 0.1240(4) 0.32257(16)
N11 N 0.4057(3) 0.0239(4) 0.33538(15)
N12 N 0.2924(4) 0.0216(4) 0.34705(19)
C27 C 0.2616(5) 0.1255(6) 0.3411(2)
H19 H 0.1863 0.1526 0.346
C28 C 0.3545(4) 0.1904(5) 0.3267(2)
C29 C 0.3621(4) 0.3105(5) 0.3192(2)
C30 C 0.4556(5) 0.3565(6) 0.2976(3)
H20 H 0.5135 0.3098 0.2864
C31 C 0.4666(5) 0.4707(6) 0.2918(3)
H21 H 0.531 0.4997 0.2768
C32 C 0.3832(5) 0.5399(6) 0.3082(3)
H22 H 0.3907 0.6166 0.3052
C33 C 0.2873(6) 0.4951(6) 0.3295(3)
H23 H 0.2291 0.5415 0.3407
C34 C 0.2782(5) 0.3832(6) 0.3340(2)
H24 H 0.2118 0.3544 0.3478
C35 C 0.4798(4) -0.0725(4) 0.3332(2)
C36 C 0.5158(6) -0.1010(5) 0.2919(2)
H25 H 0.4922 -0.0586 0.2678
C37 C 0.5878(7) -0.1931(7) 0.2854(3)
H26 H 0.6104 -0.2132 0.257
C38 C 0.6249(8) -0.2535(5) 0.3204(4)
H27 H 0.6749 -0.3136 0.3157
C39 C 0.5890(6) -0.2273(5) 0.3644(3)
C40 C 0.6302(6) -0.2908(5) 0.3998(3)
H28 H 0.6792 -0.3511 0.3942
C41 C 0.6009(8) -0.2668(6) 0.4413(4)
H29 H 0.6281 -0.3109 0.4644
C42 C 0.5293(5) -0.1754(5) 0.4500(2)
H30 H 0.508 -0.1596 0.479
C43 C 0.4895(4) -0.1081(4) 0.41643(19)
C44 C 0.5164(4) -0.1315(4) 0.37150(18)
C45 C 0.2928(5) 0.0811(5) 0.4607(2)
H31 H 0.226 0.1031 0.476
C46 C 0.3765(4) 0.1538(5) 0.44256(16)
C47 C 0.3807(5) 0.2750(6) 0.4423(2)
C48 C 0.4783(4) 0.3317(4) 0.42535(19)
H32 H 0.5421 0.2912 0.4149
C49 C 0.4815(6) 0.4472(5) 0.4240(3)
H33 H 0.5472 0.4839 0.413
C50 C 0.3863(7) 0.5068(5) 0.4389(3)
H34 H 0.3866 0.5842 0.4374
C51 C 0.2901(7) 0.4515(6) 0.4560(3)
H35 H 0.227 0.492 0.467
C52 C 0.2869(5) 0.3376(5) 0.4569(2)
H36 H 0.2203 0.3018 0.4675
loop_
_geom_bond_atom_site_label_1
_geom_bond_atom_site_label_2
_geom_bond_site_symmetry_1
_geom_bond_site_symmetry_2
N1 N2 1_555 1_555
N2 N3 1_555 1_555
N3 C1 1_555 1_555
N4 N5 1_555 1_555
N5 N6 1_555 1_555
N6 C19 1_555 1_555
C1 H1 1_555 1_555
C2 N1 1_555 1_555
C3 C2 1_555 1_555
C4 C3 1_555 1_555
H2 C4 1_555 1_555
C5 C4 1_555 1_555
H3 C5 1_555 1_555
C6 C5 1_555 1_555
H4 C6 1_555 1_555
C7 C6 1_555 1_555
H5 C7 1_555 1_555
C8 C3 1_555 1_555
H6 C8 1_555 1_555
C9 N2 1_555 1_555
C10 C9 1_555 1_555
H7 C10 1_555 1_555
C11 C10 1_555 1_555
H8 C11 1_555 1_555
C12 C11 1_555 1_555
H9 C12 1_555 1_555
C13 C12 1_555 1_555
C14 C13 1_555 1_555
H10 C14 1_555 1_555
C15 C14 1_555 1_555
H11 C15 1_555 1_555
C16 C15 1_555 1_555
H12 C16 1_555 1_555
C17 N5 1_555 1_555
C18 C9 1_555 1_555
C19 H13 1_555 1_555
C20 N4 1_555 1_555
C21 C20 1_555 1_555
C22 C21 1_555 1_555
H14 C22 1_555 1_555
C23 C22 1_555 1_555
H15 C23 1_555 1_555
C24 C23 1_555 1_555
H16 C24 1_555 1_555
C25 C24 1_555 1_555
H17 C25 1_555 1_555
C26 C21 1_555 1_555
H18 C26 1_555 1_555
N7 N8 1_555 1_555
N8 N9 1_555 1_555
N9 C45 1_555 1_555
N10 N11 1_555 1_555
N11 N12 1_555 1_555
N12 C27 1_555 1_555
C27 H19 1_555 1_555
C28 N10 1_555 1_555
C29 C28 1_555 1_555
C30 C29 1_555 1_555
H20 C30 1_555 1_555
C31 C30 1_555 1_555
H21 C31 1_555 1_555
C32 C31 1_555 1_555
H22 C32 1_555 1_555
C33 C32 1_555 1_555
H23 C33 1_555 1_555
C34 C29 1_555 1_555
H24 C34 1_555 1_555
C35 N11 1_555 1_555
C36 C35 1_555 1_555
H25 C36 1_555 1_555
C37 C36 1_555 1_555
H26 C37 1_555 1_555
C38 C37 1_555 1_555
H27 C38 1_555 1_555
C39 C38 1_555 1_555
C40 C39 1_555 1_555
H28 C40 1_555 1_555
C41 C40 1_555 1_555
H29 C41 1_555 1_555
C42 C41 1_555 1_555
H30 C42 1_555 1_555
C43 N8 1_555 1_555
C44 C35 1_555 1_555
C45 H31 1_555 1_555
C46 N7 1_555 1_555
C47 C46 1_555 1_555
C48 C47 1_555 1_555
H32 C48 1_555 1_555
C49 C48 1_555 1_555
H33 C49 1_555 1_555
C50 C49 1_555 1_555
H34 C50 1_555 1_555
C51 C50 1_555 1_555
H35 C51 1_555 1_555
C52 C47 1_555 1_555
H36 C52 1_555 1_555
C1 C2 1_555 1_555
C7 C8 1_555 1_555
C13 C18 1_555 1_555
C16 C17 1_555 1_555
C17 C18 1_555 1_555
C19 C20 1_555 1_555
C25 C26 1_555 1_555
C27 C28 1_555 1_555
C33 C34 1_555 1_555
C39 C44 1_555 1_555
C42 C43 1_555 1_555
C43 C44 1_555 1_555
C45 C46 1_555 1_555
C51 C52 1_555 1_555

#END
