
#######################################################################
#
#                 Cambridge Crystallographic Data Centre
#                                CCDC 
#
#######################################################################
#
# If this CIF has been generated from an entry in the Cambridge 
# Structural Database, then it will include bibliographic, chemical, 
# crystal, experimental, refinement or atomic coordinate data resulting 
# from the CCDC's data processing and validation procedures.
#
#######################################################################

data_GUBZOU
_chemical_formula_moiety         'C22 H18 O1'
_chemical_name_systematic        
3-(3-methylphenyl)-1,2-diphenylprop-2-en-1-one
_symmetry_cell_setting           monoclinic
_symmetry_space_group_name_H-M   'P 21/n'
_symmetry_Int_Tables_number      14
_space_group_name_Hall           '-P 2yn'
loop_
_symmetry_equiv_pos_site_id
_symmetry_equiv_pos_as_xyz
1 x,y,z
2 1/2-x,1/2+y,1/2-z
3 -x,-y,-z
4 1/2+x,1/2-y,1/2+z
_cell_length_a                   5.8215(3)
_cell_length_b                   8.3087(4)
_cell_length_c                   33.2148(16)
_cell_angle_alpha                90
_cell_angle_beta                 94.5670(10)
_cell_angle_gamma                90
_cell_volume                     1601.47
_exptl_crystal_colour            colorless
_exptl_crystal_description       Acicular
_cell_formula_units_Z            4
loop_
_atom_site_label
_atom_site_type_symbol
_atom_site_fract_x
_atom_site_fract_y
_atom_site_fract_z
O1 O 0.22808(18) 0.50673(12) 0.15738(3)
C1 C 1.3925(3) -0.07481(16) 0.12493(4)
H1 H 1.4226 -0.0455 0.1534
H2 H 1.5335 -0.0610 0.1111
H3 H 1.3426 -0.1874 0.1229
C2 C 1.2061(2) 0.03185(14) 0.10561(4)
C3 C 1.0523(2) 0.10992(14) 0.12910(4)
H4 H 1.0699 0.0971 0.1576
C4 C 0.8732(2) 0.20640(14) 0.11219(3)
C5 C 0.7198(2) 0.28003(14) 0.14012(3)
H5 H 0.7223 0.2309 0.1660
C6 C 0.5764(2) 0.40651(14) 0.13452(3)
C7 C 0.4141(2) 0.44232(14) 0.16610(4)
C8 C 0.4824(2) 0.39846(14) 0.20927(4)
C9 C 0.6983(3) 0.44023(16) 0.22713(4)
H6 H 0.8093 0.4879 0.2114
C10 C 0.7519(3) 0.41219(19) 0.26812(4)
H7 H 0.8970 0.4449 0.2806
C11 C 0.5941(3) 0.33672(19) 0.29079(4)
H8 H 0.6324 0.3157 0.3186
C12 C 0.3219(3) 0.32543(17) 0.23239(4)
H9 H 0.1731 0.2988 0.2205
C13 C 0.3801(3) 0.29170(18) 0.27295(4)
H10 H 0.2733 0.2378 0.2884
C14 C 1.1762(2) 0.05132(14) 0.06379(4)
H11 H 1.2801 0.0009 0.0471
C15 C 0.9963(3) 0.14347(15) 0.04635(4)
H12 H 0.9771 0.1540 0.0178
C16 C 0.8438(2) 0.22061(14) 0.06998(4)
H13 H 0.7204 0.2826 0.0577
C17 C 0.5622(2) 0.51174(14) 0.09807(3)
C18 C 0.7522(2) 0.60649(14) 0.09098(4)
H14 H 0.8859 0.6038 0.1093
C19 C 0.7464(3) 0.70535(15) 0.05697(4)
H15 H 0.8756 0.7707 0.0523
C20 C 0.5522(3) 0.70811(15) 0.02999(4)
H16 H 0.5487 0.7747 0.0067
C21 C 0.3632(3) 0.61406(16) 0.03694(4)
H17 H 0.2309 0.6159 0.0183
C22 C 0.3658(2) 0.51665(15) 0.07109(4)
H18 H 0.2345 0.4539 0.0760
loop_
_geom_bond_atom_site_label_1
_geom_bond_atom_site_label_2
_geom_bond_site_symmetry_1
_geom_bond_site_symmetry_2
O1 C7 1_555 1_555
C1 H1 1_555 1_555
H2 C1 1_555 1_555
H3 C1 1_555 1_555
C2 C1 1_555 1_555
C3 C2 1_555 1_555
H4 C3 1_555 1_555
C4 C3 1_555 1_555
C5 C4 1_555 1_555
H5 C5 1_555 1_555
C6 C5 1_555 1_555
C7 C6 1_555 1_555
C8 C7 1_555 1_555
C9 C8 1_555 1_555
H6 C9 1_555 1_555
C10 C9 1_555 1_555
H7 C10 1_555 1_555
C11 C10 1_555 1_555
H8 C11 1_555 1_555
C12 C8 1_555 1_555
H9 C12 1_555 1_555
C13 C11 1_555 1_555
H10 C13 1_555 1_555
C14 C2 1_555 1_555
H11 C14 1_555 1_555
C15 C14 1_555 1_555
H12 C15 1_555 1_555
C16 C4 1_555 1_555
H13 C16 1_555 1_555
C17 C6 1_555 1_555
C18 C17 1_555 1_555
H14 C18 1_555 1_555
C19 C18 1_555 1_555
H15 C19 1_555 1_555
C20 C19 1_555 1_555
H16 C20 1_555 1_555
C21 C20 1_555 1_555
H17 C21 1_555 1_555
C22 C17 1_555 1_555
H18 C22 1_555 1_555
C12 C13 1_555 1_555
C15 C16 1_555 1_555
C21 C22 1_555 1_555

#END
