
#######################################################################
#
#                 Cambridge Crystallographic Data Centre
#                                CCDC 
#
#######################################################################
#
# If this CIF has been generated from an entry in the Cambridge 
# Structural Database, then it will include bibliographic, chemical, 
# crystal, experimental, refinement or atomic coordinate data resulting 
# from the CCDC's data processing and validation procedures.
#
#######################################################################

data_GUBZIO
_chemical_formula_moiety         'C15 H11 Cl1 O1'
_chemical_name_systematic        3-(4-chlorophenyl)-2-phenylacrylaldehyde
_symmetry_cell_setting           monoclinic
_symmetry_space_group_name_H-M   'P 21/c'
_symmetry_Int_Tables_number      14
_space_group_name_Hall           '-P 2ybc'
loop_
_symmetry_equiv_pos_site_id
_symmetry_equiv_pos_as_xyz
1 x,y,z
2 -x,1/2+y,1/2-z
3 -x,-y,-z
4 x,1/2-y,1/2+z
_cell_length_a                   5.8543(5)
_cell_length_b                   22.954(3)
_cell_length_c                   8.9509(9)
_cell_angle_alpha                90
_cell_angle_beta                 96.206(4)
_cell_angle_gamma                90
_cell_volume                     1195.77
_exptl_crystal_colour            'pale yellow'
_exptl_crystal_description       Tabullar
_cell_formula_units_Z            4
loop_
_atom_site_label
_atom_site_type_symbol
_atom_site_fract_x
_atom_site_fract_y
_atom_site_fract_z
Cl1 Cl 0.30566(7) 0.49915(2) 0.77369(5)
O1 O 1.4025(2) 0.24331(6) 0.46420(13)
C1 C 0.5015(3) 0.44553(8) 0.73512(18)
C2 C 0.4891(3) 0.39105(8) 0.79936(18)
H1 H 0.3721 0.3824 0.8617
C3 C 0.6494(3) 0.34947(8) 0.77141(17)
H2 H 0.6448 0.3124 0.8181
C4 C 0.8187(3) 0.36069(7) 0.67581(16)
C5 C 0.9892(3) 0.31534(7) 0.65706(17)
H3 H 1.0195 0.2894 0.7394
C6 C 1.1090(3) 0.30531(7) 0.53957(17)
C7 C 1.0726(3) 0.33512(7) 0.39082(16)
C8 C 0.8635(3) 0.32774(7) 0.30208(17)
H4 H 0.7451 0.3053 0.3387
C9 C 0.8276(3) 0.35298(8) 0.16066(17)
H5 H 0.6857 0.3474 0.1002
C10 C 0.9988(3) 0.38639(7) 0.10745(17)
H6 H 0.9737 0.4039 0.0109
C11 C 1.2809(3) 0.25823(7) 0.55917(18)
H7 H 1.2979 0.2382 0.6525
C12 C 1.2069(3) 0.39420(7) 0.19534(18)
H8 H 1.3236 0.4174 0.1592
C13 C 1.2449(3) 0.36818(7) 0.33609(18)
H9 H 1.3887 0.3730 0.3950
C14 C 0.8245(3) 0.41612(7) 0.61086(17)
H10 H 0.9369 0.4246 0.5450
C15 C 0.6692(3) 0.45867(7) 0.64118(18)
H11 H 0.6767 0.4964 0.5985
loop_
_geom_bond_atom_site_label_1
_geom_bond_atom_site_label_2
_geom_bond_site_symmetry_1
_geom_bond_site_symmetry_2
Cl1 C1 1_555 1_555
O1 C11 1_555 1_555
C1 C2 1_555 1_555
C2 H1 1_555 1_555
C3 C2 1_555 1_555
H2 C3 1_555 1_555
C4 C3 1_555 1_555
C5 C4 1_555 1_555
H3 C5 1_555 1_555
C6 C5 1_555 1_555
C7 C6 1_555 1_555
C8 C7 1_555 1_555
H4 C8 1_555 1_555
C9 C8 1_555 1_555
H5 C9 1_555 1_555
C10 C9 1_555 1_555
H6 C10 1_555 1_555
C11 C6 1_555 1_555
H7 C11 1_555 1_555
C12 C10 1_555 1_555
H8 C12 1_555 1_555
C13 C7 1_555 1_555
H9 C13 1_555 1_555
C14 C4 1_555 1_555
H10 C14 1_555 1_555
C15 C1 1_555 1_555
H11 C15 1_555 1_555
C12 C13 1_555 1_555
C14 C15 1_555 1_555

#END
