
#######################################################################
#
#                 Cambridge Crystallographic Data Centre
#                                CCDC 
#
#######################################################################
#
# If this CIF has been generated from an entry in the Cambridge 
# Structural Database, then it will include bibliographic, chemical, 
# crystal, experimental, refinement or atomic coordinate data resulting 
# from the CCDC's data processing and validation procedures.
#
#######################################################################

data_GUCGUI
_chemical_formula_moiety         'C25 H23 N3 O3'
_chemical_name_systematic        
4'-(2-Methoxyphenyl)-1'-methyl-3'-(pyridin-2-ylcarbonyl)spiro[indole-3,2'-pyrrolidin]-2(1H)-one
_symmetry_cell_setting           monoclinic
_symmetry_space_group_name_H-M   'P 21/n'
_symmetry_Int_Tables_number      14
_space_group_name_Hall           '-P 2yn'
loop_
_symmetry_equiv_pos_site_id
_symmetry_equiv_pos_as_xyz
1 x,y,z
2 1/2-x,1/2+y,1/2-z
3 -x,-y,-z
4 1/2+x,1/2-y,1/2+z
_cell_length_a                   13.1997(9)
_cell_length_b                   12.5568(7)
_cell_length_c                   13.4736(11)
_cell_angle_alpha                90
_cell_angle_beta                 102.084(2)
_cell_angle_gamma                90
_cell_volume                     2183.71
_exptl_crystal_colour            colorless
_cell_formula_units_Z            4
loop_
_atom_site_label
_atom_site_type_symbol
_atom_site_fract_x
_atom_site_fract_y
_atom_site_fract_z
N1 N 0.60570(15) 0.55179(15) 0.09614(16)
H1 H 0.5996 0.4972 0.0568
N2 N 0.55566(15) 0.81351(15) 0.13709(15)
N3 N 0.55720(18) 0.5032(2) 0.3402(2)
O1 O 0.43694(13) 0.60938(14) 0.05681(13)
O2 O 0.60323(19) 0.76474(17) 0.42684(16)
O3 O 0.40067(17) 1.00200(15) 0.34513(17)
C1 C 0.52669(19) 0.61685(19) 0.10481(18)
C2 C 0.56928(17) 0.70622(18) 0.18177(18)
C3 C 0.68230(18) 0.67574(18) 0.21120(18)
C4 C 0.69911(19) 0.58414(19) 0.15919(19)
C5 C 0.7957(2) 0.5388(2) 0.1702(2)
H2 H 0.8058 0.4772 0.1352
C6 C 0.8769(2) 0.5882(3) 0.2351(3)
H3 H 0.9430 0.5589 0.2443
C7 C 0.8623(2) 0.6788(3) 0.2859(2)
H4 H 0.9184 0.7106 0.3290
C8 C 0.7645(2) 0.7242(2) 0.2739(2)
H5 H 0.7549 0.7866 0.3080
C9 C 0.45339(19) 0.8509(2) 0.14598(19)
H6 H 0.3988 0.8146 0.0987
H7 H 0.4463 0.9272 0.1353
C10 C 0.45314(18) 0.82111(18) 0.25518(18)
H8 H 0.5008 0.8699 0.2987
C11 C 0.50399(18) 0.71020(18) 0.26652(18)
H9 H 0.4497 0.6558 0.2522
C12 C 0.5694(2) 0.6912(2) 0.3709(2)
C13 C 0.5933(2) 0.5796(2) 0.4062(2)
C14 C 0.6500(3) 0.5606(3) 0.5028(3)
H10 H 0.6740 0.6168 0.5464
C15 C 0.6703(3) 0.4575(4) 0.5334(3)
H11 H 0.7087 0.4425 0.5980
C16 C 0.6338(3) 0.3781(3) 0.4687(4)
H12 H 0.6455 0.3074 0.4883
C17 C 0.5789(3) 0.4033(3) 0.3728(3)
H13 H 0.5555 0.3477 0.3282
C18 C 0.34946(19) 0.83162(19) 0.28424(19)
C19 C 0.3260(2) 0.9250(2) 0.3311(2)
C20 C 0.2313(3) 0.9378(3) 0.3586(2)
H14 H 0.2172 1.0000 0.3906
C21 C 0.1581(3) 0.8585(3) 0.3384(2)
H15 H 0.0942 0.8677 0.3561
C22 C 0.1786(2) 0.7665(3) 0.2929(3)
H16 H 0.1294 0.7126 0.2800
C23 C 0.2738(2) 0.7540(2) 0.2657(2)
H17 H 0.2870 0.6912 0.2341
C24 C 0.4013(3) 1.0794(2) 0.4218(2)
H18 H 0.3409 1.1236 0.4036
H19 H 0.4624 1.1226 0.4285
H20 H 0.4010 1.0445 0.4851
C25 C 0.5827(2) 0.8270(2) 0.0388(2)
H21 H 0.5337 0.7894 -0.0118
H22 H 0.6509 0.7990 0.0414
H23 H 0.5815 0.9013 0.0220
loop_
_geom_bond_atom_site_label_1
_geom_bond_atom_site_label_2
_geom_bond_site_symmetry_1
_geom_bond_site_symmetry_2
N1 H1 1_555 1_555
N2 C2 1_555 1_555
N3 C13 1_555 1_555
O1 C1 1_555 1_555
O2 C12 1_555 1_555
O3 C19 1_555 1_555
C1 N1 1_555 1_555
C2 C1 1_555 1_555
C3 C2 1_555 1_555
C4 N1 1_555 1_555
C5 C4 1_555 1_555
H2 C5 1_555 1_555
C6 C5 1_555 1_555
H3 C6 1_555 1_555
C7 C6 1_555 1_555
H4 C7 1_555 1_555
C8 C3 1_555 1_555
H5 C8 1_555 1_555
C9 N2 1_555 1_555
H6 C9 1_555 1_555
H7 C9 1_555 1_555
C10 C9 1_555 1_555
H8 C10 1_555 1_555
C11 C2 1_555 1_555
H9 C11 1_555 1_555
C12 C11 1_555 1_555
C13 C12 1_555 1_555
C14 C13 1_555 1_555
H10 C14 1_555 1_555
C15 C14 1_555 1_555
H11 C15 1_555 1_555
C16 C15 1_555 1_555
H12 C16 1_555 1_555
C17 N3 1_555 1_555
H13 C17 1_555 1_555
C18 C10 1_555 1_555
C19 C18 1_555 1_555
C20 C19 1_555 1_555
H14 C20 1_555 1_555
C21 C20 1_555 1_555
H15 C21 1_555 1_555
C22 C21 1_555 1_555
H16 C22 1_555 1_555
C23 C18 1_555 1_555
H17 C23 1_555 1_555
C24 O3 1_555 1_555
H18 C24 1_555 1_555
H19 C24 1_555 1_555
H20 C24 1_555 1_555
C25 N2 1_555 1_555
H21 C25 1_555 1_555
H22 C25 1_555 1_555
H23 C25 1_555 1_555
C3 C4 1_555 1_555
C7 C8 1_555 1_555
C10 C11 1_555 1_555
C16 C17 1_555 1_555
C22 C23 1_555 1_555

#END
