
#######################################################################
#
#                 Cambridge Crystallographic Data Centre
#                                CCDC 
#
#######################################################################
#
# If this CIF has been generated from an entry in the Cambridge 
# Structural Database, then it will include bibliographic, chemical, 
# crystal, experimental, refinement or atomic coordinate data resulting 
# from the CCDC's data processing and validation procedures.
#
#######################################################################

data_GUCHIX
_chemical_formula_moiety         'C23 H19 Cl1 N2 O2 S1'
_chemical_name_systematic        
4'-(4-Chlorophenyl)-1'-methyl-3'-(2-thienylcarbonyl)spiro[indole-3,2'-pyrrolidin]-2(1H)-one
_symmetry_cell_setting           monoclinic
_symmetry_space_group_name_H-M   'C 2/c'
_symmetry_Int_Tables_number      15
_space_group_name_Hall           '-C 2yn'
loop_
_symmetry_equiv_pos_site_id
_symmetry_equiv_pos_as_xyz
1 x,y,z
2 -x,y,1/2-z
3 1/2+x,1/2+y,z
4 1/2-x,1/2+y,1/2-z
5 -x,-y,-z
6 x,-y,1/2+z
7 1/2-x,1/2-y,-z
8 1/2+x,1/2-y,1/2+z
_cell_length_a                   23.198(2)
_cell_length_b                   6.3569(5)
_cell_length_c                   27.482(3)
_cell_angle_alpha                90
_cell_angle_beta                 92.6750(10)
_cell_angle_gamma                90
_cell_volume                     4048.28
_cell_formula_units_Z            8
loop_
_atom_site_label
_atom_site_type_symbol
_atom_site_fract_x
_atom_site_fract_y
_atom_site_fract_z
S1 S 0.58005(4) 0.80352(15) 0.21540(3)
Cl1 Cl 0.30076(4) 0.7300(2) 0.45048(4)
N1 N 0.66850(11) 0.3463(4) 0.38823(9)
H1 H 0.6735 0.2147 0.3944
N2 N 0.64368(10) 0.8560(4) 0.42350(8)
O1 O 0.59289(10) 0.4068(3) 0.43633(8)
O2 O 0.57627(12) 1.0344(4) 0.30768(8)
C1 C 0.62757(13) 0.4659(5) 0.40776(10)
C2 C 0.63171(12) 0.6915(5) 0.38654(10)
C3 C 0.68165(13) 0.6673(5) 0.35372(10)
C4 C 0.70196(13) 0.4628(5) 0.35662(11)
C5 C 0.74968(15) 0.4016(7) 0.33227(13)
H2 H 0.7632 0.2639 0.3340
C6 C 0.77680(15) 0.5519(8) 0.30514(13)
H3 H 0.8092 0.5140 0.2884
C7 C 0.75728(15) 0.7562(7) 0.30214(13)
H4 H 0.7763 0.8545 0.2836
C8 C 0.70919(14) 0.8143(6) 0.32678(12)
H5 H 0.6957 0.9519 0.3251
C9 C 0.58914(12) 0.8974(5) 0.44587(10)
H6 H 0.5904 1.0294 0.4636
H7 H 0.5794 0.7848 0.4679
C10 C 0.54631(12) 0.9078(5) 0.40228(10)
H8 H 0.5479 1.0500 0.3886
C11 C 0.57075(12) 0.7535(4) 0.36467(9)
H9 H 0.5464 0.6275 0.3629
C12 C 0.57349(13) 0.8464(5) 0.31399(10)
C13 C 0.57462(12) 0.7023(5) 0.27286(10)
C14 C 0.57427(15) 0.4901(5) 0.27176(11)
H10 H 0.5711 0.4067 0.2993
C15 C 0.57925(17) 0.4079(6) 0.22436(12)
H11 H 0.5800 0.2651 0.2171
C16 C 0.58275(15) 0.5623(6) 0.19112(12)
H12 H 0.5863 0.5375 0.1580
C17 C 0.69075(14) 0.8038(6) 0.45893(11)
H13 H 0.6972 0.9196 0.4809
H14 H 0.7253 0.7766 0.4421
H15 H 0.6806 0.6809 0.4769
C18 C 0.48458(13) 0.8642(5) 0.41424(10)
C19 C 0.46940(14) 0.6768(5) 0.43602(11)
H16 H 0.4978 0.5767 0.4433
C20 C 0.41343(15) 0.6358(6) 0.44710(11)
H17 H 0.4041 0.5094 0.4618
C21 C 0.37133(14) 0.7818(6) 0.43637(11)
C22 C 0.38472(14) 0.9682(6) 0.41497(12)
H18 H 0.3560 1.0670 0.4077
C23 C 0.44169(14) 1.0094(5) 0.40419(11)
H19 H 0.4509 1.1371 0.3900
loop_
_geom_bond_atom_site_label_1
_geom_bond_atom_site_label_2
_geom_bond_site_symmetry_1
_geom_bond_site_symmetry_2
S1 C13 1_555 1_555
Cl1 C21 1_555 1_555
N1 H1 1_555 1_555
N2 C2 1_555 1_555
O1 C1 1_555 1_555
O2 C12 1_555 1_555
C1 N1 1_555 1_555
C2 C1 1_555 1_555
C3 C2 1_555 1_555
C4 N1 1_555 1_555
C5 C4 1_555 1_555
H2 C5 1_555 1_555
C6 C5 1_555 1_555
H3 C6 1_555 1_555
C7 C6 1_555 1_555
H4 C7 1_555 1_555
C8 C3 1_555 1_555
H5 C8 1_555 1_555
C9 N2 1_555 1_555
H6 C9 1_555 1_555
H7 C9 1_555 1_555
C10 C9 1_555 1_555
H8 C10 1_555 1_555
C11 C2 1_555 1_555
H9 C11 1_555 1_555
C12 C11 1_555 1_555
C13 C12 1_555 1_555
C14 C13 1_555 1_555
H10 C14 1_555 1_555
C15 C14 1_555 1_555
H11 C15 1_555 1_555
C16 S1 1_555 1_555
H12 C16 1_555 1_555
C17 N2 1_555 1_555
H13 C17 1_555 1_555
H14 C17 1_555 1_555
H15 C17 1_555 1_555
C18 C10 1_555 1_555
C19 C18 1_555 1_555
H16 C19 1_555 1_555
C20 C19 1_555 1_555
H17 C20 1_555 1_555
C21 C20 1_555 1_555
C22 C21 1_555 1_555
H18 C22 1_555 1_555
C23 C18 1_555 1_555
H19 C23 1_555 1_555
C3 C4 1_555 1_555
C7 C8 1_555 1_555
C10 C11 1_555 1_555
C15 C16 1_555 1_555
C22 C23 1_555 1_555

#END
