
#######################################################################
#
#                 Cambridge Crystallographic Data Centre
#                                CCDC 
#
#######################################################################
#
# If this CIF has been generated from an entry in the Cambridge 
# Structural Database, then it will include bibliographic, chemical, 
# crystal, experimental, refinement or atomic coordinate data resulting 
# from the CCDC's data processing and validation procedures.
#
#######################################################################

data_GUCNEZ
_chemical_formula_moiety         'C27 H21 Br1 O5'
_chemical_name_systematic        
'ethyl 5-benzoyl-4-(4-bromophenyl)-2-oxo-6-phenyl-3,4-dihydro-2H-pyran-3-carboxylate'
_symmetry_cell_setting           monoclinic
_symmetry_space_group_name_H-M   'P 21/n'
_symmetry_Int_Tables_number      14
_space_group_name_Hall           '-P 2yn'
loop_
_symmetry_equiv_pos_site_id
_symmetry_equiv_pos_as_xyz
1 x,y,z
2 1/2-x,1/2+y,1/2-z
3 -x,-y,-z
4 1/2+x,1/2-y,1/2+z
_cell_length_a                   8.0879(3)
_cell_length_b                   27.2026(11)
_cell_length_c                   10.7134(4)
_cell_angle_alpha                90
_cell_angle_beta                 93.3740(10)
_cell_angle_gamma                90
_cell_volume                     2352.99
_exptl_crystal_colour            colorless
_exptl_crystal_description       block
_cell_formula_units_Z            4
_exptl_crystal_recrystallization_method dichloromethane/hexane
loop_
_atom_site_label
_atom_site_type_symbol
_atom_site_fract_x
_atom_site_fract_y
_atom_site_fract_z
Br1 Br 0.89323(4) 0.223106(13) 0.39839(4)
O1 O 1.8408(3) 0.06861(8) 0.5201(2)
O2 O 1.7330(2) 0.01506(7) 0.65205(18)
O3 O 1.7244(3) 0.21614(7) 0.7039(2)
O4 O 1.3365(3) 0.02098(7) 0.62113(18)
O5 O 1.4475(2) 0.06888(6) 0.76779(15)
C1 C 1.3995(3) 0.15541(9) 0.5430(2)
C2 C 1.3509(4) 0.15589(12) 0.4173(2)
H1 H 1.4209 0.1424 0.3605
C3 C 1.2016(4) 0.17576(12) 0.3734(3)
H2 H 1.1710 0.1756 0.2883
C4 C 1.1002(3) 0.19557(10) 0.4569(3)
C5 C 1.1450(4) 0.19705(12) 0.5817(3)
H3 H 1.0758 0.2115 0.6375
C6 C 1.2951(3) 0.17681(10) 0.6239(2)
H4 H 1.3259 0.1777 0.7089
C7 C 1.5938(3) 0.10484(9) 0.9413(2)
C8 C 1.6039(3) 0.14776(11) 1.0103(2)
H5 H 1.5826 0.1778 0.9713
C9 C 1.6454(4) 0.14608(14) 1.1370(3)
H6 H 1.6537 0.1751 1.1829
C10 C 1.6746(4) 0.10192(16) 1.1955(3)
H7 H 1.7045 0.1011 1.2806
C11 C 1.6597(4) 0.05892(14) 1.1289(3)
H8 H 1.6772 0.0289 1.1691
C12 C 1.6188(3) 0.06024(11) 1.0020(3)
H9 H 1.6080 0.0311 0.9570
C13 C 1.8887(3) 0.16587(10) 0.8394(2)
C14 C 1.9536(4) 0.20322(12) 0.9159(3)
H10 H 1.9062 0.2344 0.9118
C15 C 2.0880(4) 0.19432(15) 0.9977(3)
H11 H 2.1280 0.2190 1.0514
C16 C 2.1624(4) 0.14930(17) 1.0000(3)
H12 H 2.2540 0.1436 1.0546
C17 C 2.1032(4) 0.11255(14) 0.9225(3)
H13 H 2.1562 0.0822 0.9231
C18 C 1.9647(3) 0.12045(11) 0.8433(3)
H14 H 1.9227 0.0951 0.7925
C19 C 1.5609(3) 0.10581(9) 0.8045(2)
C20 C 1.6195(3) 0.13651(9) 0.7211(2)
C21 C 1.5630(3) 0.13071(9) 0.5839(2)
H15 H 1.6493 0.1443 0.5335
C22 C 1.5539(3) 0.07491(9) 0.5603(2)
H16 H 1.5095 0.0696 0.4743
C23 C 1.4373(3) 0.05189(10) 0.6472(2)
C24 C 1.7272(4) 0.05286(10) 0.5733(2)
C25 C 1.8881(4) -0.01232(13) 0.6657(3)
H17 H 1.9812 0.0101 0.6757
H18 H 1.9020 -0.0325 0.5923
C26 C 1.8788(6) -0.04322(18) 0.7766(5)
H19 H 1.9795 -0.0617 0.7894
H20 H 1.7869 -0.0654 0.7651
H21 H 1.8640 -0.0229 0.8483
C27 C 1.7416(3) 0.17610(9) 0.7531(2)
loop_
_geom_bond_atom_site_label_1
_geom_bond_atom_site_label_2
_geom_bond_site_symmetry_1
_geom_bond_site_symmetry_2
Br1 C4 1_555 1_555
O1 C24 1_555 1_555
O2 C24 1_555 1_555
O3 C27 1_555 1_555
O4 C23 1_555 1_555
O5 C19 1_555 1_555
C1 C2 1_555 1_555
C2 H1 1_555 1_555
C3 C2 1_555 1_555
H2 C3 1_555 1_555
C4 C3 1_555 1_555
C5 C4 1_555 1_555
H3 C5 1_555 1_555
C6 C1 1_555 1_555
H4 C6 1_555 1_555
C7 C8 1_555 1_555
C8 H5 1_555 1_555
C9 C8 1_555 1_555
H6 C9 1_555 1_555
C10 C9 1_555 1_555
H7 C10 1_555 1_555
C11 C10 1_555 1_555
H8 C11 1_555 1_555
C12 C7 1_555 1_555
H9 C12 1_555 1_555
C13 C14 1_555 1_555
C14 H10 1_555 1_555
C15 C14 1_555 1_555
H11 C15 1_555 1_555
C16 C15 1_555 1_555
H12 C16 1_555 1_555
C17 C16 1_555 1_555
H13 C17 1_555 1_555
C18 C13 1_555 1_555
H14 C18 1_555 1_555
C19 C7 1_555 1_555
C20 C19 1_555 1_555
C21 C1 1_555 1_555
H15 C21 1_555 1_555
C22 C21 1_555 1_555
H16 C22 1_555 1_555
C23 O5 1_555 1_555
C24 C22 1_555 1_555
C25 O2 1_555 1_555
H17 C25 1_555 1_555
H18 C25 1_555 1_555
C26 C25 1_555 1_555
H19 C26 1_555 1_555
H20 C26 1_555 1_555
H21 C26 1_555 1_555
C27 C13 1_555 1_555
C5 C6 1_555 1_555
C11 C12 1_555 1_555
C17 C18 1_555 1_555
C20 C21 1_555 1_555
C20 C27 1_555 1_555
C22 C23 1_555 1_555

#END
