
#######################################################################
#
#                 Cambridge Crystallographic Data Centre
#                                CCDC 
#
#######################################################################
#
# If this CIF has been generated from an entry in the Cambridge 
# Structural Database, then it will include bibliographic, chemical, 
# crystal, experimental, refinement or atomic coordinate data resulting 
# from the CCDC's data processing and validation procedures.
#
#######################################################################

data_GUCPIF
_chemical_formula_moiety         'C41 H35 N1 O4'
_chemical_name_systematic        
10,13-dimethoxy-9,14-diphenyl-4-propyl-6,7-dihydro-1H-dinaphtho[2,1-e:1',2'-g]isoindole-3,5(2H,4H)-dione
_symmetry_cell_setting           triclinic
_symmetry_space_group_name_H-M   'P -1'
_symmetry_Int_Tables_number      2
_space_group_name_Hall           '-P 1'
loop_
_symmetry_equiv_pos_site_id
_symmetry_equiv_pos_as_xyz
1 x,y,z
2 -x,-y,-z
_cell_length_a                   10.170(2)
_cell_length_b                   12.262(3)
_cell_length_c                   13.305(3)
_cell_angle_alpha                84.22(3)
_cell_angle_beta                 79.42(3)
_cell_angle_gamma                69.72(3)
_cell_volume                     1528.65
_exptl_crystal_colour            yellow
_exptl_crystal_description       block
_cell_formula_units_Z            2
loop_
_atom_site_label
_atom_site_type_symbol
_atom_site_fract_x
_atom_site_fract_y
_atom_site_fract_z
O1 O 0.19041(13) 0.18773(12) 0.07185(9)
O2 O 0.22776(13) -0.17070(11) 0.27869(10)
O3 O -0.37999(14) 0.51709(11) 0.63600(10)
O4 O -0.63419(13) 0.28466(12) 0.60030(10)
N1 N -0.53218(15) 0.41402(13) 0.63680(11)
C1 C 0.48635(19) 0.10743(17) 0.10253(14)
H1 H 0.4374 0.0566 0.0935
C2 C 0.6280(2) 0.08156(19) 0.05993(15)
H2 H 0.6756 0.0130 0.0225
C3 C 0.7003(2) 0.15504(19) 0.07171(15)
H3 H 0.7980 0.1366 0.0436
C4 C 0.6295(2) 0.25563(18) 0.12472(15)
H4 H 0.6785 0.3071 0.1316
C5 C 0.48753(19) 0.28234(16) 0.16811(14)
H5 H 0.4401 0.3518 0.2043
C6 C 0.41434(17) 0.20716(15) 0.15852(12)
C7 C 0.26894(17) 0.22565(14) 0.21642(13)
C8 C 0.16015(17) 0.20844(14) 0.17455(12)
C9 C 0.03233(17) 0.21336(14) 0.23517(12)
H6 H -0.0393 0.2003 0.2061
C10 C 0.00774(17) 0.23747(13) 0.33905(12)
C11 C 0.10839(17) 0.26738(14) 0.37860(12)
C12 C 0.23747(17) 0.25877(14) 0.31754(13)
H7 H 0.3069 0.2761 0.3457
C13 C 0.06842(18) 0.31189(15) 0.48505(13)
H8 H 0.1317 0.3539 0.4959
H9 H 0.0783 0.2461 0.5361
C14 C -0.08571(18) 0.39403(15) 0.49760(13)
H10 H -0.1151 0.4240 0.5675
H11 H -0.0945 0.4611 0.4481
C15 C -0.18013(18) 0.32894(14) 0.47934(12)
C16 C -0.12513(17) 0.23895(14) 0.40827(12)
C17 C -0.31614(18) 0.34754(14) 0.53148(12)
C18 C -0.40477(18) 0.43708(15) 0.60647(13)
C19 C -0.65108(19) 0.48223(17) 0.70967(13)
H12 H -0.7399 0.5020 0.6808
H13 H -0.6369 0.5559 0.7202
C20 C -0.6664(4) 0.4165(4) 0.8135(3)
H14 H -0.7524 0.4633 0.8584
H15 H -0.6784 0.3419 0.8030
C21 C -0.5370(4) 0.3923(3) 0.8656(3)
H16 H -0.4517 0.3464 0.8210
H17 H -0.5489 0.3489 0.9306
H18 H -0.5272 0.4662 0.8785
C22 C -0.53499(18) 0.32042(15) 0.58683(13)
C23 C -0.39455(17) 0.27761(14) 0.51889(12)
C24 C -0.33700(17) 0.18111(14) 0.45905(12)
C25 C -0.41385(18) 0.09730(15) 0.45280(13)
H19 H -0.5176 0.1389 0.4650
H20 H -0.3912 0.0349 0.5067
C26 C -0.37121(17) 0.04351(15) 0.34835(13)
H21 H -0.4166 -0.0159 0.3476
H22 H -0.4038 0.1044 0.2949
C27 C -0.21244(17) -0.01174(14) 0.32643(12)
C28 C -0.12762(17) 0.04485(14) 0.35544(12)
C29 C -0.19666(17) 0.15877(14) 0.40519(12)
C30 C 0.01910(18) -0.01168(14) 0.34266(13)
H23 H 0.0768 0.0226 0.3677
C31 C 0.08273(17) -0.11632(14) 0.29439(13)
C32 C -0.00036(18) -0.17324(14) 0.26239(12)
C33 C -0.14744(18) -0.11852(14) 0.28117(12)
H24 H -0.2059 -0.1563 0.2620
C34 C 0.05970(19) -0.28761(14) 0.21327(13)
C35 C -0.0098(2) -0.36924(15) 0.23759(14)
H25 H -0.0918 -0.3532 0.2888
C36 C 0.0394(2) -0.47368(16) 0.18797(15)
H26 H -0.0085 -0.5287 0.2058
C37 C 0.1577(2) -0.49783(16) 0.11287(16)
H27 H 0.1900 -0.5684 0.0778
C38 C 0.2285(2) -0.41879(17) 0.08924(15)
H28 H 0.3108 -0.4357 0.0384
C39 C 0.1807(2) -0.31485(16) 0.13894(14)
H29 H 0.2311 -0.2615 0.1221
C40 C 0.0758(2) 0.1929(2) 0.02240(15)
H30 H 0.1086 0.1858 -0.0514
H31 H -0.0008 0.2674 0.0354
H32 H 0.0406 0.1290 0.0491
C41 C 0.3117(2) -0.09835(18) 0.27208(19)
H33 H 0.2771 -0.0314 0.2255
H34 H 0.4108 -0.1426 0.2461
H35 H 0.3054 -0.0710 0.3401
C42? C -0.6277(6) 0.4591(6) 0.8216(4)
H36? H -0.5410 0.4750 0.8287
H37? H -0.7090 0.5133 0.8651
C43? C -0.6131(9) 0.3384(6) 0.8584(5)
H38? H -0.5268 0.2847 0.8206
H39? H -0.6959 0.3203 0.8475
H40? H -0.6068 0.3300 0.9316
loop_
_geom_bond_atom_site_label_1
_geom_bond_atom_site_label_2
_geom_bond_site_symmetry_1
_geom_bond_site_symmetry_2
O1 C8 1_555 1_555
O2 C31 1_555 1_555
O3 C18 1_555 1_555
O4 C22 1_555 1_555
N1 C18 1_555 1_555
C1 H1 1_555 1_555
C2 C1 1_555 1_555
H2 C2 1_555 1_555
C3 C2 1_555 1_555
H3 C3 1_555 1_555
C4 C3 1_555 1_555
H4 C4 1_555 1_555
C5 C4 1_555 1_555
H5 C5 1_555 1_555
C6 C1 1_555 1_555
C7 C6 1_555 1_555
C8 C7 1_555 1_555
C9 C8 1_555 1_555
H6 C9 1_555 1_555
C10 C9 1_555 1_555
C11 C10 1_555 1_555
C12 C7 1_555 1_555
H7 C12 1_555 1_555
C13 C11 1_555 1_555
H8 C13 1_555 1_555
H9 C13 1_555 1_555
C14 C13 1_555 1_555
H10 C14 1_555 1_555
H11 C14 1_555 1_555
C15 C14 1_555 1_555
C16 C10 1_555 1_555
C17 C15 1_555 1_555
C18 C17 1_555 1_555
C19 N1 1_555 1_555
H12 C19 1_555 1_555
H13 C19 1_555 1_555
C20 C19 1_555 1_555
H14 C20 1_555 1_555
H15 C20 1_555 1_555
C21 C20 1_555 1_555
H16 C21 1_555 1_555
H17 C21 1_555 1_555
H18 C21 1_555 1_555
C22 N1 1_555 1_555
C23 C17 1_555 1_555
C24 C23 1_555 1_555
C25 C24 1_555 1_555
H19 C25 1_555 1_555
H20 C25 1_555 1_555
C26 C25 1_555 1_555
H21 C26 1_555 1_555
H22 C26 1_555 1_555
C27 C26 1_555 1_555
C28 C27 1_555 1_555
C29 C16 1_555 1_555
C30 C28 1_555 1_555
H23 C30 1_555 1_555
C31 C30 1_555 1_555
C32 C31 1_555 1_555
C33 C27 1_555 1_555
H24 C33 1_555 1_555
C34 C32 1_555 1_555
C35 C34 1_555 1_555
H25 C35 1_555 1_555
C36 C35 1_555 1_555
H26 C36 1_555 1_555
C37 C36 1_555 1_555
H27 C37 1_555 1_555
C38 C37 1_555 1_555
H28 C38 1_555 1_555
C39 C34 1_555 1_555
H29 C39 1_555 1_555
C40 O1 1_555 1_555
H30 C40 1_555 1_555
H31 C40 1_555 1_555
H32 C40 1_555 1_555
C41 O2 1_555 1_555
H33 C41 1_555 1_555
H34 C41 1_555 1_555
H35 C41 1_555 1_555
C5 C6 1_555 1_555
C11 C12 1_555 1_555
C15 C16 1_555 1_555
C22 C23 1_555 1_555
C24 C29 1_555 1_555
C28 C29 1_555 1_555
C32 C33 1_555 1_555
C38 C39 1_555 1_555

#END
