
#######################################################################
#
#                 Cambridge Crystallographic Data Centre
#                                CCDC 
#
#######################################################################
#
# If this CIF has been generated from an entry in the Cambridge 
# Structural Database, then it will include bibliographic, chemical, 
# crystal, experimental, refinement or atomic coordinate data resulting 
# from the CCDC's data processing and validation procedures.
#
#######################################################################

data_GUCTOP
_chemical_formula_moiety         'C23 H28 O4 Si1'
_chemical_name_systematic        
'6-((t-Butyl(dimethyl)silyl)methyl)-3-oxo-1-phenyl-1,3-dihydro-2-benzofuran-4-yl acetate'
_symmetry_cell_setting           monoclinic
_symmetry_space_group_name_H-M   'P 21/c'
_symmetry_Int_Tables_number      14
_space_group_name_Hall           '-P 2ybc'
loop_
_symmetry_equiv_pos_site_id
_symmetry_equiv_pos_as_xyz
1 x,y,z
2 -x,1/2+y,1/2-z
3 -x,-y,-z
4 x,1/2-y,1/2+z
_cell_length_a                   14.0104(17)
_cell_length_b                   14.6125(17)
_cell_length_c                   11.7392(13)
_cell_angle_alpha                90
_cell_angle_beta                 101.722(4)
_cell_angle_gamma                90
_cell_volume                     2353.21
_exptl_crystal_description       plate
_cell_formula_units_Z            4
loop_
_atom_site_label
_atom_site_type_symbol
_atom_site_fract_x
_atom_site_fract_y
_atom_site_fract_z
C1 C 0.52665(17) -0.21070(18) 0.8490(2)
C2 C 0.47745(15) -0.12238(15) 0.84490(17)
C3 C 0.47041(16) -0.05083(16) 0.76715(17)
C4 C 0.41581(16) 0.02471(16) 0.78115(18)
H1 H 0.4107 0.0738 0.7272
C5 C 0.36733(15) 0.03004(15) 0.87484(18)
C6 C 0.37599(15) -0.04158(16) 0.95388(18)
H2 H 0.3445 -0.0387 1.0183
C7 C 0.43073(15) -0.11677(15) 0.93777(17)
C8 C 0.44904(17) -0.20412(17) 1.00573(19)
H3 H 0.4884 -0.1906 1.085
C9 C 0.35701(18) -0.25281(17) 1.0176(2)
C10 C 0.3119(2) -0.3141(2) 0.9368(3)
H4 H 0.3409 -0.3306 0.8733
C11 C 0.2234(3) -0.3523(3) 0.9474(4)
H5 H 0.1917 -0.3947 0.8907
C12 C 0.1818(3) -0.3293(3) 1.0389(5)
H6 H 0.1201 -0.3536 1.0448
C13 C 0.2288(3) -0.2722(4) 1.1202(4)
H7 H 0.2012 -0.2578 1.1856
C14 C 0.3163(3) -0.2339(3) 1.1109(3)
H8 H 0.3488 -0.1938 1.1699
C15 C 0.6090(2) -0.0445(2) 0.6831(2)
C16 C 0.6422(2) -0.0642(3) 0.5728(3)
H9 H 0.7127 -0.0547 0.5846
H10 H 0.6088 -0.0231 0.5115
H11 H 0.6267 -0.1279 0.5498
C17 C 0.30478(17) 0.11124(17) 0.8867(2)
H12 H 0.3348 0.1665 0.8599
H13 H 0.3034 0.1199 0.9699
C18 C 0.1781(4) 0.0889(4) 0.6462(3)
H14 H 0.1116 0.0793 0.602
H15 H 0.2187 0.0364 0.635
H16 H 0.205 0.1447 0.6187
C19 C 0.1274(11) -0.0164(8) 0.8402(16)
H17 H 0.0569 -0.0192 0.8107
H18 H 0.1415 -0.0244 0.9249
H19 H 0.1593 -0.0652 0.8045
C20 C 0.0997(10) 0.1915(12) 0.8375(13)
C21 C 0.1504(11) 0.2775(7) 0.8195(16)
H20 H 0.1487 0.2859 0.7363
H21 H 0.2183 0.2744 0.8617
H22 H 0.1178 0.3292 0.8486
C22 C -0.0023(6) 0.1817(11) 0.7616(12)
H23 H -0.0329 0.2421 0.7485
H24 H -0.042 0.1422 0.801
H25 H 0.0025 0.1544 0.6867
C23 C 0.0944(7) 0.1827(10) 0.9664(9)
H26 H 0.1602 0.1739 1.0131
H27 H 0.0538 0.13 0.9767
H28 H 0.066 0.2384 0.9918
O1 O 0.50689(13) -0.25804(12) 0.94194(15)
O2 O 0.57595(14) -0.24368(13) 0.78709(16)
O3 O 0.51230(13) -0.05742(12) 0.66876(12)
O4 O 0.65736(17) -0.0208(2) 0.7725(2)
Si1 Si 0.17602(6) 0.10075(8) 0.80212(8)
C24? C 0.1258(15) 0.2245(12) 0.815(2)
H29? H 0.0549 0.2246 0.7884
H30? H 0.1553 0.2665 0.767
H31? H 0.1422 0.2444 0.8965
C25? C 0.0925(7) 0.0368(9) 0.8674(11)
C26? C 0.1228(18) -0.0625(10) 0.851(3)
H32? H 0.1931 -0.0692 0.8802
H33? H 0.1072 -0.0781 0.7678
H34? H 0.0875 -0.1037 0.8936
C27? C 0.1061(11) 0.0520(16) 0.9973(11)
H35? H 0.0595 0.0141 1.0282
H36? H 0.0949 0.1166 1.0126
H37? H 0.1727 0.0351 1.0352
C28? C -0.0141(7) 0.0509(13) 0.8055(13)
H38? H -0.0546 0.0025 0.8289
H39? H -0.0189 0.0485 0.7211
H40? H -0.0369 0.1106 0.8269
loop_
_geom_bond_atom_site_label_1
_geom_bond_atom_site_label_2
_geom_bond_site_symmetry_1
_geom_bond_site_symmetry_2
C1 C2 1_555 1_555
C2 C3 1_555 1_555
C3 C4 1_555 1_555
C4 H1 1_555 1_555
C5 C4 1_555 1_555
C6 C5 1_555 1_555
H2 C6 1_555 1_555
C7 C2 1_555 1_555
C8 C7 1_555 1_555
H3 C8 1_555 1_555
C9 C8 1_555 1_555
C10 C9 1_555 1_555
H4 C10 1_555 1_555
C11 C10 1_555 1_555
H5 C11 1_555 1_555
C12 C11 1_555 1_555
H6 C12 1_555 1_555
C13 C12 1_555 1_555
H7 C13 1_555 1_555
C14 C9 1_555 1_555
H8 C14 1_555 1_555
C15 C16 1_555 1_555
C16 H9 1_555 1_555
H10 C16 1_555 1_555
H11 C16 1_555 1_555
C17 C5 1_555 1_555
H12 C17 1_555 1_555
H13 C17 1_555 1_555
C18 H14 1_555 1_555
H15 C18 1_555 1_555
H16 C18 1_555 1_555
C19 H17 1_555 1_555
H18 C19 1_555 1_555
H19 C19 1_555 1_555
C20 C21 1_555 1_555
C21 H20 1_555 1_555
H21 C21 1_555 1_555
H22 C21 1_555 1_555
C22 C20 1_555 1_555
H23 C22 1_555 1_555
H24 C22 1_555 1_555
H25 C22 1_555 1_555
C23 C20 1_555 1_555
H26 C23 1_555 1_555
H27 C23 1_555 1_555
H28 C23 1_555 1_555
O1 C1 1_555 1_555
O2 C1 1_555 1_555
O3 C3 1_555 1_555
O4 C15 1_555 1_555
Si1 C17 1_555 1_555
C6 C7 1_555 1_555
C8 O1 1_555 1_555
C13 C14 1_555 1_555
C15 O3 1_555 1_555
C18 Si1 1_555 1_555
C19 Si1 1_555 1_555
C20 Si1 1_555 1_555

#END
