
#######################################################################
#
#                 Cambridge Crystallographic Data Centre
#                                CCDC 
#
#######################################################################
#
# If this CIF has been generated from an entry in the Cambridge 
# Structural Database, then it will include bibliographic, chemical, 
# crystal, experimental, refinement or atomic coordinate data resulting 
# from the CCDC's data processing and validation procedures.
#
#######################################################################

data_GUDCOZ
_chemical_formula_moiety         'C23 H27 N5 O3'
_chemical_name_systematic        
'N-(2-hydroxy-3-(4-(2-methoxyphenyl)- piperazin-1-yl)propyl)quinoxaline-2-methanamide'
_symmetry_cell_setting           monoclinic
_symmetry_space_group_name_H-M   'P 21/n'
_symmetry_Int_Tables_number      14
_space_group_name_Hall           '-P 2yn'
loop_
_symmetry_equiv_pos_site_id
_symmetry_equiv_pos_as_xyz
1 x,y,z
2 1/2-x,1/2+y,1/2-z
3 -x,-y,-z
4 1/2+x,1/2-y,1/2+z
_cell_length_a                   12.108(2)
_cell_length_b                   12.639(3)
_cell_length_c                   14.601(3)
_cell_angle_alpha                90
_cell_angle_beta                 104.87(3)
_cell_angle_gamma                90
_cell_volume                     2159.61
_exptl_crystal_colour            colorless
_cell_formula_units_Z            4
loop_
_atom_site_label
_atom_site_type_symbol
_atom_site_fract_x
_atom_site_fract_y
_atom_site_fract_z
C1 C 0.02422(12) 0.39154(11) 0.07750(11)
C2 C 0.31322(13) 0.38726(12) 0.04152(12)
C3 C 0.18872(12) 0.36568(11) 0.03242(11)
C4 C 0.08929(13) 0.63649(12) 0.37732(12)
C5 C -0.03546(13) 0.32713(12) 0.00211(11)
C6 C 0.12894(14) 0.29827(14) -0.04115(12)
H1 H 0.1693 0.2667 -0.0801
C7 C 0.34020(13) 0.65988(13) 0.27378(12)
H2 H 0.3482 0.6833 0.2126
H3 H 0.3812 0.7093 0.3213
C8 C 0.21552(13) 0.65996(14) 0.27321(11)
H4 H 0.1844 0.7306 0.2590
H5 H 0.1738 0.6125 0.2242
C9 C 0.07238(15) 0.62895(13) 0.46926(13)
C10 C 0.37622(14) 0.52122(15) 0.38670(12)
H6 H 0.4179 0.5692 0.4352
H7 H 0.4080 0.4509 0.4013
C11 C -0.03625(17) 0.63750(14) 0.48246(16)
H8 H -0.0471 0.6312 0.5430
C12 C -0.15377(14) 0.31339(15) -0.01204(13)
H9 H -0.1941 0.2708 -0.0613
C13 C -0.20964(15) 0.36221(15) 0.04616(15)
H10 H -0.2883 0.3540 0.0354
C14 C 0.25196(13) 0.52036(13) 0.38736(12)
H11 H 0.2109 0.4697 0.3411
H12 H 0.2449 0.4986 0.4493
C15 C -0.00522(14) 0.65855(13) 0.30326(14)
H13 H 0.0044 0.6673 0.2426
C16 C -0.03562(14) 0.43825(14) 0.13780(12)
H14 H 0.0034 0.4789 0.1890
C17 C 0.49416(13) 0.44811(15) 0.14339(15)
H15 H 0.5166 0.4482 0.0849
H16 H 0.5334 0.3910 0.1816
C18 C 0.51136(13) 0.55556(16) 0.29336(13)
H17 H 0.5483 0.4957 0.3287
H18 H 0.5462 0.6184 0.3250
C19 C -0.15026(15) 0.42426(15) 0.12155(14)
H19 H -0.1894 0.4564 0.1611
C20 C -0.12866(18) 0.65536(15) 0.40631(19)
H20 H -0.2017 0.6589 0.4156
C21 C -0.11387(15) 0.66788(14) 0.31737(17)
H21 H -0.1761 0.6825 0.2666
C22 C 0.15757(19) 0.61793(16) 0.63597(13)
H22 H 0.2306 0.6054 0.6794
H23 H 0.1304 0.6867 0.6475
H24 H 0.1043 0.5651 0.6448
N1 N 0.13913(10) 0.41001(9) 0.09236(9)
N2 N 0.20132(10) 0.62622(10) 0.36490(9)
N3 N 0.39006(10) 0.55452(11) 0.29416(9)
N4 N 0.01976(12) 0.27828(11) -0.05698(10)
N5 N 0.37173(10) 0.42865(11) 0.12260(10)
H25 H 0.3361 0.4447 0.1647
O1 O 0.35434(10) 0.36600(9) -0.02526(9)
O2 O 0.16865(11) 0.61286(10) 0.54109(8)
C23 C 0.5241(11) 0.5574(13) 0.1977(11)
H26 H 0.4782 0.6146 0.1615
O3 O 0.64180(15) 0.57188(19) 0.20092(18)
H27 H 0.647(5) 0.592(4) 0.131(5)
C24? C 0.538(2) 0.5415(19) 0.1897(16)
H28? H 0.6211 0.5407 0.1993
O4? O 0.4958(3) 0.6347(3) 0.1414(3)
H29? H 0.531(6) 0.641(5) 0.103(5)
loop_
_geom_bond_atom_site_label_1
_geom_bond_atom_site_label_2
_geom_bond_site_symmetry_1
_geom_bond_site_symmetry_2
C1 C5 1_555 1_555
C2 C3 1_555 1_555
C3 C6 1_555 1_555
C4 C9 1_555 1_555
C5 C12 1_555 1_555
C6 H1 1_555 1_555
C7 H2 1_555 1_555
H3 C7 1_555 1_555
C8 C7 1_555 1_555
H4 C8 1_555 1_555
H5 C8 1_555 1_555
C9 C11 1_555 1_555
C10 H6 1_555 1_555
H7 C10 1_555 1_555
C11 H8 1_555 1_555
C12 H9 1_555 1_555
C13 C12 1_555 1_555
H10 C13 1_555 1_555
C14 C10 1_555 1_555
H11 C14 1_555 1_555
H12 C14 1_555 1_555
C15 C4 1_555 1_555
H13 C15 1_555 1_555
C16 C1 1_555 1_555
H14 C16 1_555 1_555
C17 H15 1_555 1_555
H16 C17 1_555 1_555
C18 H17 1_555 1_555
H18 C18 1_555 1_555
C19 C13 1_555 1_555
H19 C19 1_555 1_555
C20 C11 1_555 1_555
H20 C20 1_555 1_555
C21 C15 1_555 1_555
H21 C21 1_555 1_555
C22 H22 1_555 1_555
H23 C22 1_555 1_555
H24 C22 1_555 1_555
N1 C1 1_555 1_555
N2 C4 1_555 1_555
N3 C7 1_555 1_555
N4 C5 1_555 1_555
N5 C2 1_555 1_555
H25 N5 1_555 1_555
O1 C2 1_555 1_555
O2 C9 1_555 1_555
C23 C17 1_555 1_555
H26 C23 1_555 1_555
O3 C23 1_555 1_555
H27 O3 1_555 1_555
C3 N1 1_555 1_555
C6 N4 1_555 1_555
C8 N2 1_555 1_555
C10 N3 1_555 1_555
C14 N2 1_555 1_555
C16 C19 1_555 1_555
C17 N5 1_555 1_555
C18 N3 1_555 1_555
C18 C23 1_555 1_555
C20 C21 1_555 1_555
C22 O2 1_555 1_555

#END
