
#######################################################################
#
#                 Cambridge Crystallographic Data Centre
#                                CCDC 
#
#######################################################################
#
# If this CIF has been generated from an entry in the Cambridge 
# Structural Database, then it will include bibliographic, chemical, 
# crystal, experimental, refinement or atomic coordinate data resulting 
# from the CCDC's data processing and validation procedures.
#
#######################################################################

data_GUDLEY
_chemical_formula_moiety         'C20 H14 Cl1 F1 N4'
_chemical_name_systematic        
2-(2-Chloro-6-fluorophenyl)-5-methyl-7,8-dihydrobenzo[f][1,2,4]triazolo[1,5-c]quinazoline
_symmetry_cell_setting           monoclinic
_symmetry_space_group_name_H-M   'P 21/c'
_symmetry_Int_Tables_number      14
_space_group_name_Hall           '-P 2ybc'
loop_
_symmetry_equiv_pos_site_id
_symmetry_equiv_pos_as_xyz
1 x,y,z
2 -x,1/2+y,1/2-z
3 -x,-y,-z
4 x,1/2-y,1/2+z
_cell_length_a                   14.630(3)
_cell_length_b                   8.5401(17)
_cell_length_c                   14.700(3)
_cell_angle_alpha                90
_cell_angle_beta                 114.315(3)
_cell_angle_gamma                90
_cell_volume                     1673.72
_exptl_crystal_colour            colorless
_exptl_crystal_description       rhomboid
_cell_formula_units_Z            4
loop_
_atom_site_label
_atom_site_type_symbol
_atom_site_fract_x
_atom_site_fract_y
_atom_site_fract_z
Cl1 Cl 0.15851(9) -0.06880(16) 0.49698(10)
F1 F 0.08039(17) -0.1207(3) 0.79879(15)
N1 N 0.29824(19) -0.0311(3) 0.75720(19)
N2 N 0.1858(2) 0.1705(3) 0.7123(2)
N3 N 0.28081(19) 0.2235(3) 0.76886(19)
N4 N 0.4022(2) 0.4105(3) 0.8482(2)
C1 C 0.2024(2) 0.0190(4) 0.7082(2)
C2 C 0.3085(3) 0.3766(4) 0.7935(3)
C3 C 0.4716(2) 0.2921(3) 0.8803(2)
C4 C 0.5778(2) 0.3420(4) 0.9404(2)
H1 H 0.5783 0.4405 0.9761
H2 H 0.6113 0.3625 0.8951
C5 C 0.6356(2) 0.2162(4) 1.0157(2)
H3 H 0.7077 0.2438 1.0462
H4 H 0.6116 0.2127 1.0696
C6 C 0.6228(2) 0.0570(4) 0.9678(2)
C7 C 0.6987(2) -0.0539(4) 1.0016(3)
H5 H 0.7614 -0.0272 1.0538
C8 C 0.6848(3) -0.2029(4) 0.9607(3)
H6 H 0.7376 -0.2774 0.9846
C9 C 0.5934(3) -0.2424(4) 0.8848(3)
H7 H 0.5834 -0.3446 0.8569
C10 C 0.5167(2) -0.1334(4) 0.8496(2)
H8 H 0.4545 -0.1612 0.7971
C11 C 0.5298(2) 0.0167(3) 0.8903(2)
C12 C 0.4496(2) 0.1366(3) 0.8562(2)
C13 C 0.3474(2) 0.1014(3) 0.7956(2)
C14 C 0.1190(2) -0.0911(4) 0.6533(3)
C15 C 0.0961(3) -0.1408(5) 0.5580(3)
C16 C 0.0167(4) -0.2535(6) 0.5111(4)
H9 H -0.0003 -0.2880 0.4447
C17 C -0.0331(4) -0.3088(6) 0.5653(6)
H10 H -0.0844 -0.3846 0.5354
C18 C -0.0134(4) -0.2620(6) 0.6577(6)
H11 H -0.0509 -0.3003 0.6927
C19 C 0.0616(3) -0.1579(5) 0.7001(4)
C20 C 0.2294(3) 0.4991(5) 0.7545(4)
H12 H 0.2603 0.6029 0.7722
H13 H 0.1809 0.4849 0.7840
H14 H 0.1950 0.4901 0.6817
loop_
_geom_bond_atom_site_label_1
_geom_bond_atom_site_label_2
_geom_bond_site_symmetry_1
_geom_bond_site_symmetry_2
Cl1 C15 1_555 1_555
F1 C19 1_555 1_555
N1 C1 1_555 1_555
N2 N3 1_555 1_555
N3 C2 1_555 1_555
N4 C2 1_555 1_555
C1 N2 1_555 1_555
C2 C20 1_555 1_555
C3 N4 1_555 1_555
C4 C3 1_555 1_555
H1 C4 1_555 1_555
H2 C4 1_555 1_555
C5 C4 1_555 1_555
H3 C5 1_555 1_555
H4 C5 1_555 1_555
C6 C5 1_555 1_555
C7 C6 1_555 1_555
H5 C7 1_555 1_555
C8 C7 1_555 1_555
H6 C8 1_555 1_555
C9 C8 1_555 1_555
H7 C9 1_555 1_555
C10 C9 1_555 1_555
H8 C10 1_555 1_555
C11 C6 1_555 1_555
C12 C3 1_555 1_555
C13 N1 1_555 1_555
C14 C1 1_555 1_555
C15 C14 1_555 1_555
C16 C15 1_555 1_555
H9 C16 1_555 1_555
C17 C16 1_555 1_555
H10 C17 1_555 1_555
C18 C17 1_555 1_555
H11 C18 1_555 1_555
C19 C14 1_555 1_555
C20 H12 1_555 1_555
H13 C20 1_555 1_555
H14 C20 1_555 1_555
N3 C13 1_555 1_555
C10 C11 1_555 1_555
C11 C12 1_555 1_555
C12 C13 1_555 1_555
C18 C19 1_555 1_555

#END
