
#######################################################################
#
#                 Cambridge Crystallographic Data Centre
#                                CCDC 
#
#######################################################################
#
# If this CIF has been generated from an entry in the Cambridge 
# Structural Database, then it will include bibliographic, chemical, 
# crystal, experimental, refinement or atomic coordinate data resulting 
# from the CCDC's data processing and validation procedures.
#
#######################################################################

data_GUDMUO
_chemical_formula_moiety         'C20 H18 N2 P2 Se3'
_chemical_name_systematic        
'N-Benzyl-2,5-diphenyl-2,5-dihydro-1,3,2,5-selenazadiphosphol-4-amine 2,5-diselenide'
_symmetry_cell_setting           monoclinic
_symmetry_space_group_name_H-M   'P 21/n'
_symmetry_Int_Tables_number      14
_space_group_name_Hall           '-P 2yn'
loop_
_symmetry_equiv_pos_site_id
_symmetry_equiv_pos_as_xyz
1 x,y,z
2 1/2-x,1/2+y,1/2-z
3 -x,-y,-z
4 1/2+x,1/2-y,1/2+z
_cell_length_a                   9.7105(8)
_cell_length_b                   16.3577(13)
_cell_length_c                   13.5571(11)
_cell_angle_alpha                90
_cell_angle_beta                 98.815(2)
_cell_angle_gamma                90
_cell_volume                     2127.99
_exptl_crystal_colour            yellow
_exptl_crystal_description       block
_chemical_melting_point          108-110deg.C
_cell_formula_units_Z            4
loop_
_atom_site_label
_atom_site_type_symbol
_atom_site_fract_x
_atom_site_fract_y
_atom_site_fract_z
C1 C 0.7496(3) 0.23571(18) -0.0882(2)
H1 H 0.7843 0.2345 -0.1500
C2 C 0.5792(3) 0.35042(17) 0.5068(2)
H2 H 0.5497 0.3025 0.4698
C3 C 0.8033(3) 0.29207(18) -0.0144(2)
H3 H 0.8760 0.3281 -0.0256
C4 C 0.5344(3) 0.36490(19) 0.5970(2)
H4 H 0.4743 0.3270 0.6221
C5 C 0.6465(3) 0.18210(18) -0.0711(2)
H5 H 0.6105 0.1439 -0.1212
C6 C 0.6872(4) 0.1475(2) 0.6217(2)
H6 H 0.6545 0.1898 0.6603
C7 C 0.6564(4) 0.0677(2) 0.6393(2)
H7 H 0.5999 0.0543 0.6883
C8 C 0.7088(5) 0.0066(2) 0.5847(3)
H8 H 0.6925 -0.0490 0.5994
H9 H 0.739(3) 0.1202(17) 0.282(2)
Se1 Se 0.42587(3) 0.155051(18) 0.22218(2)
Se2 Se 0.52957(3) 0.373861(17) 0.23818(2)
Se3 Se 0.86559(3) 0.475331(17) 0.31250(2)
P1 P 0.57798(8) 0.24296(4) 0.20880(5)
P2 P 0.72822(8) 0.38602(4) 0.35220(5)
N1 N 0.7896(2) 0.29172(13) 0.36183(16)
C9 C 0.7368(3) 0.23198(17) 0.30747(19)
N2 N 0.7854(3) 0.15534(15) 0.31626(18)
C10 C 0.6682(3) 0.40625(16) 0.46946(19)
C11 C 0.5770(3) 0.43444(18) 0.6508(2)
H10 H 0.5462 0.4442 0.7130
C12 C 0.8125(3) 0.10592(18) 0.4886(2)
C13 C 0.7093(3) 0.47622(18) 0.5240(2)
H11 H 0.7686 0.5148 0.4991
C14 C 0.8867(3) 0.12792(17) 0.4024(2)
H12 H 0.9548 0.1721 0.4229
H13 H 0.9383 0.0797 0.3832
C15 C 0.7661(3) 0.16700(19) 0.5477(2)
H14 H 0.7889 0.2225 0.5372
C16 C 0.6641(3) 0.48983(18) 0.6147(2)
H15 H 0.6932 0.5375 0.6521
C17 C 0.6461(3) 0.24067(16) 0.09164(19)
C18 C 0.7507(3) 0.29531(17) 0.0745(2)
H16 H 0.7853 0.3345 0.1238
C19 C 0.5944(3) 0.18332(17) 0.0189(2)
H17 H 0.5244 0.1456 0.0309
C20 C 0.7845(5) 0.0252(2) 0.5091(3)
H18 H 0.8173 -0.0175 0.4712
loop_
_geom_bond_atom_site_label_1
_geom_bond_atom_site_label_2
_geom_bond_site_symmetry_1
_geom_bond_site_symmetry_2
C1 H1 1_555 1_555
C2 H2 1_555 1_555
C3 C1 1_555 1_555
H3 C3 1_555 1_555
C4 C2 1_555 1_555
H4 C4 1_555 1_555
C5 C1 1_555 1_555
H5 C5 1_555 1_555
C6 H6 1_555 1_555
C7 C6 1_555 1_555
H7 C7 1_555 1_555
C8 C7 1_555 1_555
H8 C8 1_555 1_555
H9 N2 1_555 1_555
Se1 P1 1_555 1_555
Se2 P1 1_555 1_555
Se3 P2 1_555 1_555
P1 C9 1_555 1_555
P2 Se2 1_555 1_555
N1 P2 1_555 1_555
C9 N1 1_555 1_555
N2 C9 1_555 1_555
C10 C2 1_555 1_555
C11 C4 1_555 1_555
H10 C11 1_555 1_555
C12 C14 1_555 1_555
C13 C10 1_555 1_555
H11 C13 1_555 1_555
C14 N2 1_555 1_555
H12 C14 1_555 1_555
H13 C14 1_555 1_555
C15 C6 1_555 1_555
H14 C15 1_555 1_555
C16 C11 1_555 1_555
H15 C16 1_555 1_555
C17 P1 1_555 1_555
C18 C3 1_555 1_555
H16 C18 1_555 1_555
C19 C5 1_555 1_555
H17 C19 1_555 1_555
C20 C8 1_555 1_555
H18 C20 1_555 1_555
P2 C10 1_555 1_555
C12 C15 1_555 1_555
C12 C20 1_555 1_555
C13 C16 1_555 1_555
C17 C18 1_555 1_555
C17 C19 1_555 1_555

#END
