
#######################################################################
#
#                 Cambridge Crystallographic Data Centre
#                                CCDC 
#
#######################################################################
#
# If this CIF has been generated from an entry in the Cambridge 
# Structural Database, then it will include bibliographic, chemical, 
# crystal, experimental, refinement or atomic coordinate data resulting 
# from the CCDC's data processing and validation procedures.
#
#######################################################################

data_GUDNAV
_chemical_formula_moiety         'C22 H22 N2 P2 Se3'
_chemical_name_systematic        
'N-Benzyl-N-ethyl-2,5-diphenyl-2,5-dihydro-1,3,2,5-selenazadiphosphol-4-amine 2,5-diselenide'
_symmetry_cell_setting           monoclinic
_symmetry_space_group_name_H-M   'P 21/n'
_symmetry_Int_Tables_number      14
_space_group_name_Hall           '-P 2yn'
loop_
_symmetry_equiv_pos_site_id
_symmetry_equiv_pos_as_xyz
1 x,y,z
2 1/2-x,1/2+y,1/2-z
3 -x,-y,-z
4 1/2+x,1/2-y,1/2+z
_cell_length_a                   14.7395(18)
_cell_length_b                   10.6811(10)
_cell_length_c                   15.6539(18)
_cell_angle_alpha                90
_cell_angle_beta                 109.845(2)
_cell_angle_gamma                90
_cell_volume                     2318.1
_exptl_crystal_colour            yellow
_exptl_crystal_description       block
_chemical_melting_point          140-142deg.C
_cell_formula_units_Z            4
loop_
_atom_site_label
_atom_site_type_symbol
_atom_site_fract_x
_atom_site_fract_y
_atom_site_fract_z
Se1 Se 0.75361(3) -0.07421(3) 0.18055(3)
Se2 Se 0.81803(3) -0.33369(3) 0.06232(3)
Se3 Se 0.88971(3) 0.19385(3) 0.30044(3)
P1 P 0.87175(7) -0.19881(8) 0.16335(6)
P2 P 0.83874(7) 0.09686(8) 0.17674(6)
N1 N 1.0017(2) 0.0972(2) 0.12351(19)
N2 N 0.9480(2) -0.0983(2) 0.14577(19)
C1 C 0.7373(2) 0.1181(3) -0.0070(2)
H1 H 0.7547 0.0329 -0.0096
C2 C 0.9366(3) -0.3924(3) 0.2883(3)
H2 H 0.9026 -0.4473 0.2403
C3 C 0.9822(3) -0.1839(3) 0.3463(3)
H3 H 0.9791 -0.0958 0.3376
C4 C 1.0822(2) 0.0417(3) 0.1005(2)
H4 H 1.0884 0.0861 0.0473
H5 H 1.0669 -0.0470 0.0832
C5 C 1.2499(3) 0.1269(3) 0.1724(3)
H6 H 1.2387 0.1797 0.1210
C6 C 0.9904(3) -0.4399(4) 0.3733(3)
H7 H 0.9927 -0.5278 0.3832
C7 C 1.1773(2) 0.0479(3) 0.1774(2)
C8 C 1.3556(3) 0.0543(4) 0.3159(3)
H8 H 1.4167 0.0563 0.3630
C9 C 1.1950(3) -0.0278(3) 0.2534(3)
H9 H 1.1459 -0.0820 0.2583
C10 C 0.9997(3) 0.2355(3) 0.1254(2)
H10 H 1.0656 0.2667 0.1588
H11 H 0.9572 0.2627 0.1592
C11 C 1.0394(3) -0.3624(4) 0.4421(3)
H12 H 1.0771 -0.3968 0.4991
C12 C 0.7656(2) 0.1808(3) 0.0764(2)
C13 C 1.3379(3) 0.1297(3) 0.2410(3)
H13 H 1.3869 0.1843 0.2365
C14 C 0.9333(2) -0.2635(3) 0.2743(2)
C15 C 0.6843(3) 0.1795(3) -0.0854(3)
H14 H 0.6652 0.1372 -0.1422
C16 C 0.7403(3) 0.3061(3) 0.0800(3)
H15 H 0.7603 0.3496 0.1363
C17 C 0.9390(2) 0.0232(3) 0.1443(2)
C18 C 0.9642(3) 0.2943(3) 0.0310(3)
H16 H 1.0083 0.2723 -0.0015
H17 H 0.9620 0.3856 0.0366
H18 H 0.8995 0.2629 -0.0028
C19 C 1.0354(3) -0.2338(4) 0.4305(3)
H19 H 1.0686 -0.1801 0.4795
C20 C 0.6861(3) 0.3661(3) 0.0015(3)
H20 H 0.6673 0.4507 0.0040
C21 C 0.6587(3) 0.3043(3) -0.0807(3)
H21 H 0.6222 0.3471 -0.1346
C22 C 1.2840(3) -0.0246(3) 0.3223(3)
H22 H 1.2956 -0.0769 0.3740
loop_
_geom_bond_atom_site_label_1
_geom_bond_atom_site_label_2
_geom_bond_site_symmetry_1
_geom_bond_site_symmetry_2
Se1 P1 1_555 1_555
Se2 P1 1_555 1_555
Se3 P2 1_555 1_555
P1 N2 1_555 1_555
P2 Se1 1_555 1_555
N1 C4 1_555 1_555
N2 C17 1_555 1_555
C1 H1 1_555 1_555
C2 H2 1_555 1_555
C3 H3 1_555 1_555
C4 H4 1_555 1_555
H5 C4 1_555 1_555
C5 H6 1_555 1_555
C6 C2 1_555 1_555
H7 C6 1_555 1_555
C7 C4 1_555 1_555
C8 H8 1_555 1_555
C9 C7 1_555 1_555
H9 C9 1_555 1_555
C10 N1 1_555 1_555
H10 C10 1_555 1_555
H11 C10 1_555 1_555
C11 C6 1_555 1_555
H12 C11 1_555 1_555
C12 P2 1_555 1_555
C13 C5 1_555 1_555
H13 C13 1_555 1_555
C14 P1 1_555 1_555
C15 C1 1_555 1_555
H14 C15 1_555 1_555
C16 C12 1_555 1_555
H15 C16 1_555 1_555
C17 P2 1_555 1_555
C18 C10 1_555 1_555
H16 C18 1_555 1_555
H17 C18 1_555 1_555
H18 C18 1_555 1_555
C19 C3 1_555 1_555
H19 C19 1_555 1_555
C20 C16 1_555 1_555
H20 C20 1_555 1_555
C21 C15 1_555 1_555
H21 C21 1_555 1_555
C22 C8 1_555 1_555
H22 C22 1_555 1_555
N1 C17 1_555 1_555
C1 C12 1_555 1_555
C2 C14 1_555 1_555
C3 C14 1_555 1_555
C5 C7 1_555 1_555
C8 C13 1_555 1_555
C9 C22 1_555 1_555
C11 C19 1_555 1_555
C20 C21 1_555 1_555

#END
