
#######################################################################
#
#                 Cambridge Crystallographic Data Centre
#                                CCDC 
#
#######################################################################
#
# If this CIF has been generated from an entry in the Cambridge 
# Structural Database, then it will include bibliographic, chemical, 
# crystal, experimental, refinement or atomic coordinate data resulting 
# from the CCDC's data processing and validation procedures.
#
#######################################################################

data_GUDNID
_chemical_formula_moiety         'C12 H16 N2 O2 Se1'
_chemical_name_systematic        1-Phenylethyl-1-(ethoxycarbonyl)selenourea
_symmetry_cell_setting           monoclinic
_symmetry_space_group_name_H-M   'C 2/c'
_symmetry_Int_Tables_number      15
_space_group_name_Hall           '-C 2yn'
loop_
_symmetry_equiv_pos_site_id
_symmetry_equiv_pos_as_xyz
1 x,y,z
2 -x,y,1/2-z
3 1/2+x,1/2+y,z
4 1/2-x,1/2+y,1/2-z
5 -x,-y,-z
6 x,-y,1/2+z
7 1/2-x,1/2-y,-z
8 1/2+x,1/2-y,1/2+z
_cell_length_a                   17.695(3)
_cell_length_b                   6.7719(10)
_cell_length_c                   24.199(4)
_cell_angle_alpha                90
_cell_angle_beta                 109.772(4)
_cell_angle_gamma                90
_cell_volume                     2728.79
_exptl_crystal_colour            colorless
_exptl_crystal_description       prism
_cell_formula_units_Z            8
loop_
_atom_site_label
_atom_site_type_symbol
_atom_site_fract_x
_atom_site_fract_y
_atom_site_fract_z
Se1 Se 1.06560(4) -0.26409(7) 0.06165(4)
O1 O 1.28806(15) -0.5886(4) 0.03798(11)
O2 O 1.36185(15) -0.3623(4) 0.10127(12)
C1 C 1.1487(2) -0.4059(6) 0.05071(16)
N1 N 1.13311(18) -0.5570(5) 0.01416(14)
N2 N 1.22879(18) -0.3538(4) 0.08043(13)
C2 C 1.2895(2) 0.1448(5) 0.15699(16)
C3 C 1.2639(2) 0.0017(6) 0.10592(17)
H1 H 1.3068 -0.0095 0.0884
H2 H 1.2148 0.0512 0.0753
C4 C 1.3371(3) 0.3978(6) 0.25415(18)
H3 H 1.3534 0.4846 0.2869
C5 C 1.4343(2) -0.4461(6) 0.0941(2)
H4 H 1.4278 -0.4567 0.0519
H5 H 1.4452 -0.5792 0.1119
C6 C 1.2475(3) -0.2007(7) 0.1274(2)
H6 H 1.2952 -0.2428 0.1606
H7 H 1.2018 -0.1897 0.1420
C7 C 1.2933(2) -0.4492(6) 0.07055(16)
C8 C 1.3913(5) 0.2692(7) 0.2443(4)
H8 H 1.4451 0.2661 0.2707
C9 C 1.3682(2) 0.1433(6) 0.19583(18)
H9 H 1.4063 0.0560 0.1893
C10 C 1.2581(2) 0.3999(6) 0.21578(17)
H10 H 1.2202 0.4870 0.2228
C11 C 1.2343(5) 0.2751(6) 0.1673(4)
H11 H 1.1804 0.2783 0.1411
C12 C 1.5017(3) -0.3066(9) 0.1248(3)
H12 H 1.4902 -0.1759 0.1065
H13 H 1.5521 -0.3567 0.1217
H14 H 1.5068 -0.2963 0.1663
H15 H 1.177(2) -0.635(7) 0.009(2)
H16 H 1.0751(6) -0.576(8) -0.004(2)
loop_
_geom_bond_atom_site_label_1
_geom_bond_atom_site_label_2
_geom_bond_site_symmetry_1
_geom_bond_site_symmetry_2
Se1 C1 1_555 1_555
O1 C7 1_555 1_555
O2 C5 1_555 1_555
C1 N1 1_555 1_555
N1 H15 1_555 1_555
N2 C1 1_555 1_555
C2 C3 1_555 1_555
C3 H1 1_555 1_555
H2 C3 1_555 1_555
C4 H3 1_555 1_555
C5 H4 1_555 1_555
H5 C5 1_555 1_555
C6 N2 1_555 1_555
H6 C6 1_555 1_555
H7 C6 1_555 1_555
C7 O2 1_555 1_555
C8 C4 1_555 1_555
H8 C8 1_555 1_555
C9 C2 1_555 1_555
H9 C9 1_555 1_555
C10 C4 1_555 1_555
H10 C10 1_555 1_555
C11 C2 1_555 1_555
H11 C11 1_555 1_555
C12 C5 1_555 1_555
H12 C12 1_555 1_555
H13 C12 1_555 1_555
H14 C12 1_555 1_555
H16 N1 1_555 1_555
N2 C7 1_555 1_555
C3 C6 1_555 1_555
C8 C9 1_555 1_555
C10 C11 1_555 1_555

#END
