
#######################################################################
#
#                 Cambridge Crystallographic Data Centre
#                                CCDC 
#
#######################################################################
#
# If this CIF has been generated from an entry in the Cambridge 
# Structural Database, then it will include bibliographic, chemical, 
# crystal, experimental, refinement or atomic coordinate data resulting 
# from the CCDC's data processing and validation procedures.
#
#######################################################################

data_GUDQAZ
_chemical_compound_source        'Carpesium abrotanoid L'
_chemical_name_common            'Dicarabrone A'
_chemical_formula_moiety         'C30 H40 O6'
_chemical_name_systematic        
5a,7a'-Dimethyl-3'-methylene-5,7'-bis(3-oxobutyl)tetradecahydro-3aH-spiro[cyclopropa[f][1]benzofuran-3,5'-indeno[5,6-b]furan]-2,2'(3'H)-dione
_symmetry_cell_setting           monoclinic
_symmetry_space_group_name_H-M   'P 21'
_symmetry_Int_Tables_number      4
_space_group_name_Hall           'P 2yb'
loop_
_symmetry_equiv_pos_site_id
_symmetry_equiv_pos_as_xyz
1 x,y,z
2 -x,1/2+y,-z
_cell_length_a                   6.47350(10)
_cell_length_b                   21.0515(3)
_cell_length_c                   9.9248(2)
_cell_angle_alpha                90
_cell_angle_beta                 95.3490(10)
_cell_angle_gamma                90
_cell_volume                     1346.63
_exptl_crystal_colour            colorless
_exptl_crystal_description       plate
_chemical_melting_point          '433-434 K'
_cell_formula_units_Z            2
_chemical_properties_physical    Light-sensitive
_exptl_crystal_recrystallization_method acetone
loop_
_atom_site_label
_atom_site_type_symbol
_atom_site_fract_x
_atom_site_fract_y
_atom_site_fract_z
O1 O 0.2489(4) 0.69949(14) 0.3116(3)
O2 O 1.1562(3) 0.66526(8) -0.1282(2)
O3 O 1.3698(3) 0.58330(11) -0.1209(3)
O4 O 0.6881(6) 0.35198(16) 0.3836(3)
O5 O 0.3840(3) 0.45394(10) -0.39287(18)
O6 O 0.1849(3) 0.50947(13) -0.5461(2)
C1 C 0.7402(4) 0.74309(11) 0.1999(2)
H1 H 0.8827 0.7402 0.2480
C2 C 0.5893(4) 0.78023(12) 0.2761(3)
H2 H 0.4553 0.7830 0.2196
H3 H 0.6428 0.8240 0.2907
C3 C 0.5511(5) 0.75138(14) 0.4134(3)
H4 H 0.6735 0.7255 0.4459
H5 H 0.5399 0.7864 0.4789
C4 C 0.3593(5) 0.71020(15) 0.4131(3)
C5 C 0.6754(4) 0.68472(11) 0.1174(2)
H6 H 0.5239 0.6744 0.1090
C6 C 0.8224(4) 0.62883(11) 0.1072(2)
H7 H 0.7626 0.5901 0.1449
H8 H 0.9570 0.6378 0.1594
C7 C 0.8544(4) 0.61853(10) -0.0434(2)
H9 H 0.7170 0.6086 -0.0935
C8 C 0.9409(4) 0.67942(11) -0.1042(2)
H10 H 0.8593 0.6894 -0.1922
C9 C 0.9448(4) 0.73730(11) -0.0119(3)
H11 H 0.9740 0.7759 -0.0640
H12 H 1.0568 0.7324 0.0623
C10 C 0.7370(4) 0.74469(11) 0.0471(2)
C11 C 1.0104(3) 0.56616(10) -0.0748(2)
C12 C 1.1994(4) 0.60363(12) -0.1090(3)
C13 C 1.0596(4) 0.51680(11) 0.0371(2)
H13 H 1.0655 0.5365 0.1279
H14 H 1.1927 0.4950 0.0267
C14 C 0.5743(5) 0.78221(13) -0.0380(3)
H15 H 0.5687 0.7678 -0.1321
H16 H 0.6100 0.8275 -0.0334
H17 H 0.4388 0.7757 -0.0037
C15 C 0.3119(7) 0.68430(19) 0.5486(4)
H18 H 0.2689 0.7191 0.6052
H19 H 0.4363 0.6640 0.5931
H20 H 0.1999 0.6530 0.5353
C16 C 0.8756(4) 0.47090(10) 0.0140(2)
H21 H 0.7487 0.4948 0.0344
C17 C 0.8884(4) 0.41180(11) 0.1039(2)
H22 H 1.0298 0.3936 0.1070
H23 H 0.7891 0.3795 0.0649
C18 C 0.8382(5) 0.42830(13) 0.2482(3)
H24 H 0.9386 0.4605 0.2866
H25 H 0.6980 0.4474 0.2440
C19 C 0.8457(6) 0.37158(14) 0.3412(3)
C20 C 0.9437(4) 0.52235(11) -0.1997(2)
H26 H 1.0737 0.5108 -0.2411
C21 C 0.7965(4) 0.55115(11) -0.3123(2)
H27 H 0.8692 0.5851 -0.3583
H28 H 0.6765 0.5705 -0.2728
C22 C 0.7195(4) 0.50020(11) -0.4156(2)
H29 H 0.8386 0.4826 -0.4610
C23 C 0.6045(4) 0.44592(11) -0.3476(2)
H30 H 0.6538 0.4039 -0.3789
C24 C 0.6304(4) 0.44870(11) -0.1943(2)
H31 H 0.5804 0.4084 -0.1572
H32 H 0.5447 0.4837 -0.1630
C25 C 0.8578(4) 0.45925(10) -0.1407(2)
C26 C 0.5575(4) 0.52542(13) -0.5189(2)
C27 C 0.3545(4) 0.49738(14) -0.4929(3)
C28 C 0.5770(5) 0.56701(15) -0.6168(3)
H33 H 0.4584 0.5800 -0.6737
H34 H 0.7097 0.5839 -0.6302
C29 C 0.9907(4) 0.40267(12) -0.1786(3)
H35 H 0.9276 0.3630 -0.1508
H36 H 1.1307 0.4067 -0.1325
H37 H 0.9986 0.4022 -0.2768
C30 C 1.0522(8) 0.34286(19) 0.3821(4)
H38 H 1.1265 0.3692 0.4523
H39 H 1.1326 0.3405 0.3034
H40 H 1.0334 0.3000 0.4177
loop_
_geom_bond_atom_site_label_1
_geom_bond_atom_site_label_2
_geom_bond_site_symmetry_1
_geom_bond_site_symmetry_2
O1 C4 1_555 1_555
O2 C8 1_555 1_555
O3 C12 1_555 1_555
O4 C19 1_555 1_555
O5 C23 1_555 1_555
O6 C27 1_555 1_555
C1 H1 1_555 1_555
C2 C1 1_555 1_555
H2 C2 1_555 1_555
H3 C2 1_555 1_555
C3 C2 1_555 1_555
H4 C3 1_555 1_555
H5 C3 1_555 1_555
C4 C3 1_555 1_555
C5 C1 1_555 1_555
H6 C5 1_555 1_555
C6 C5 1_555 1_555
H7 C6 1_555 1_555
H8 C6 1_555 1_555
C7 C6 1_555 1_555
H9 C7 1_555 1_555
C8 C7 1_555 1_555
H10 C8 1_555 1_555
C9 C8 1_555 1_555
H11 C9 1_555 1_555
H12 C9 1_555 1_555
C10 C1 1_555 1_555
C11 C7 1_555 1_555
C12 O2 1_555 1_555
C13 C11 1_555 1_555
H13 C13 1_555 1_555
H14 C13 1_555 1_555
C14 C10 1_555 1_555
H15 C14 1_555 1_555
H16 C14 1_555 1_555
H17 C14 1_555 1_555
C15 C4 1_555 1_555
H18 C15 1_555 1_555
H19 C15 1_555 1_555
H20 C15 1_555 1_555
C16 C13 1_555 1_555
H21 C16 1_555 1_555
C17 C16 1_555 1_555
H22 C17 1_555 1_555
H23 C17 1_555 1_555
C18 C17 1_555 1_555
H24 C18 1_555 1_555
H25 C18 1_555 1_555
C19 C18 1_555 1_555
C20 C11 1_555 1_555
H26 C20 1_555 1_555
C21 C20 1_555 1_555
H27 C21 1_555 1_555
H28 C21 1_555 1_555
C22 C21 1_555 1_555
H29 C22 1_555 1_555
C23 C22 1_555 1_555
H30 C23 1_555 1_555
C24 C23 1_555 1_555
H31 C24 1_555 1_555
H32 C24 1_555 1_555
C25 C16 1_555 1_555
C26 C22 1_555 1_555
C27 O5 1_555 1_555
C28 C26 1_555 1_555
H33 C28 1_555 1_555
H34 C28 1_555 1_555
C29 C25 1_555 1_555
H35 C29 1_555 1_555
H36 C29 1_555 1_555
H37 C29 1_555 1_555
C30 C19 1_555 1_555
H38 C30 1_555 1_555
H39 C30 1_555 1_555
H40 C30 1_555 1_555
C5 C10 1_555 1_555
C9 C10 1_555 1_555
C11 C12 1_555 1_555
C20 C25 1_555 1_555
C24 C25 1_555 1_555
C26 C27 1_555 1_555

#END
