
#######################################################################
#
#                 Cambridge Crystallographic Data Centre
#                                CCDC 
#
#######################################################################
#
# If this CIF has been generated from an entry in the Cambridge 
# Structural Database, then it will include bibliographic, chemical, 
# crystal, experimental, refinement or atomic coordinate data resulting 
# from the CCDC's data processing and validation procedures.
#
#######################################################################

data_GUDWAF
_chemical_formula_moiety         'C14 H9 F1 N4 O1 S1'
_chemical_name_systematic        
6-(4-Fluorobenzyl)-3-(furan-2-yl)-[1,2,4]triazolo[3,4-b][1,3,4]thiadiazole
_symmetry_cell_setting           orthorhombic
_symmetry_space_group_name_H-M   'P b c n'
_symmetry_Int_Tables_number      60
_space_group_name_Hall           '-P 2n 2ab'
loop_
_symmetry_equiv_pos_site_id
_symmetry_equiv_pos_as_xyz
1 x,y,z
2 1/2-x,1/2-y,1/2+z
3 -x,y,1/2-z
4 1/2+x,1/2-y,-z
5 -x,-y,-z
6 1/2+x,1/2+y,1/2-z
7 x,-y,1/2+z
8 1/2-x,1/2+y,z
_cell_length_a                   13.699(3)
_cell_length_b                   9.328(2)
_cell_length_c                   20.497(4)
_cell_angle_alpha                90
_cell_angle_beta                 90
_cell_angle_gamma                90
_cell_volume                     2619.19
_exptl_crystal_colour            'pale yellow'
_exptl_crystal_description       'triangular plate'
_cell_formula_units_Z            8
_exptl_crystal_recrystallization_method ethanol
loop_
_atom_site_label
_atom_site_type_symbol
_atom_site_fract_x
_atom_site_fract_y
_atom_site_fract_z
C1 C 0.45424(12) -0.18774(18) 0.55986(8)
N1 N 0.51547(11) -0.25223(16) 0.60022(8)
N2 N 0.54581(12) -0.15336(16) 0.64778(8)
N3 N 0.44435(10) -0.04800(15) 0.57912(7)
N4 N 0.39065(10) 0.06795(15) 0.55766(7)
C2 C 0.40854(12) 0.17328(18) 0.59677(8)
S1 S 0.48923(3) 0.13981(5) 0.66236(2)
C3 C 0.50126(12) -0.03314(19) 0.63283(8)
C4 C 0.40238(12) -0.24953(18) 0.50574(8)
C5 C 0.33549(13) -0.19851(19) 0.46319(8)
H1 H 0.3106 -0.1035 0.4613
C6 C 0.30954(14) -0.31514(19) 0.42169(9)
H2 H 0.2636 -0.3136 0.3870
C7 C 0.36292(13) -0.42751(19) 0.44153(9)
H3 H 0.3609 -0.5200 0.4221
O1 O 0.42066(9) -0.39117(12) 0.49351(6)
C8 C 0.36680(13) 0.31985(18) 0.58678(8)
H4 H 0.3102 0.3132 0.5569
H5 H 0.4165 0.3814 0.5657
C9 C 0.33441(12) 0.38940(17) 0.64998(8)
C10 C 0.24540(13) 0.35207(19) 0.67758(8)
H6 H 0.2048 0.2841 0.6563
C11 C 0.21513(14) 0.4129(2) 0.73596(9)
H7 H 0.1543 0.3877 0.7550
C12 C 0.27596(14) 0.51071(19) 0.76538(8)
F1 F 0.24568(9) 0.57243(12) 0.82219(5)
C13 C 0.36470(14) 0.54940(19) 0.74015(9)
H8 H 0.4052 0.6166 0.7621
C14 C 0.39372(13) 0.48769(18) 0.68168(9)
H9 H 0.4549 0.5131 0.6632
loop_
_geom_bond_atom_site_label_1
_geom_bond_atom_site_label_2
_geom_bond_site_symmetry_1
_geom_bond_site_symmetry_2
C1 N1 1_555 1_555
N1 N2 1_555 1_555
N2 C3 1_555 1_555
N3 C1 1_555 1_555
N4 N3 1_555 1_555
C2 N4 1_555 1_555
S1 C2 1_555 1_555
C3 N3 1_555 1_555
C4 C1 1_555 1_555
C5 C4 1_555 1_555
H1 C5 1_555 1_555
C6 C5 1_555 1_555
H2 C6 1_555 1_555
C7 C6 1_555 1_555
H3 C7 1_555 1_555
O1 C4 1_555 1_555
C8 C2 1_555 1_555
H4 C8 1_555 1_555
H5 C8 1_555 1_555
C9 C8 1_555 1_555
C10 C9 1_555 1_555
H6 C10 1_555 1_555
C11 C10 1_555 1_555
H7 C11 1_555 1_555
C12 C11 1_555 1_555
F1 C12 1_555 1_555
C13 C12 1_555 1_555
H8 C13 1_555 1_555
C14 C9 1_555 1_555
H9 C14 1_555 1_555
S1 C3 1_555 1_555
C7 O1 1_555 1_555
C13 C14 1_555 1_555

#END
