
#######################################################################
#
#                 Cambridge Crystallographic Data Centre
#                                CCDC 
#
#######################################################################
#
# If this CIF has been generated from an entry in the Cambridge 
# Structural Database, then it will include bibliographic, chemical, 
# crystal, experimental, refinement or atomic coordinate data resulting 
# from the CCDC's data processing and validation procedures.
#
#######################################################################

data_GUFDOB
_chemical_formula_moiety         'C13 H12 O5,C7 H6 N2 S1'
_chemical_name_systematic        
'Ethyl 8-methoxy-2-oxo-2H-chromene-3-carboxylate 1,3-benzothiazol-2-amine'
_symmetry_cell_setting           triclinic
_symmetry_space_group_name_H-M   'P -1'
_symmetry_Int_Tables_number      2
_space_group_name_Hall           '-P 1'
loop_
_symmetry_equiv_pos_site_id
_symmetry_equiv_pos_as_xyz
1 x,y,z
2 -x,-y,-z
_cell_length_a                   9.5978(19)
_cell_length_b                   10.686(2)
_cell_length_c                   10.693(2)
_cell_angle_alpha                71.30(3)
_cell_angle_beta                 70.43(3)
_cell_angle_gamma                88.99(3)
_cell_volume                     973.83
_exptl_crystal_colour            yellow
_exptl_crystal_description       prismatic
_cell_formula_units_Z            2
loop_
_atom_site_label
_atom_site_type_symbol
_atom_site_fract_x
_atom_site_fract_y
_atom_site_fract_z
S1 S 0.10082(7) 0.29446(7) 0.24579(7)
N1 N 0.1479(3) 0.3780(2) 0.4430(3)
N2 N -0.0497(2) 0.45710(18) 0.3662(2)
C14 C 0.0638(3) 0.3860(2) 0.3634(3)
C15 C -0.0488(3) 0.3586(2) 0.1966(2)
C16 C -0.1151(2) 0.4426(2) 0.2729(2)
C17 C -0.2386(3) 0.5033(2) 0.2515(3)
H13 H -0.2841 0.5589 0.3014
C18 C -0.2932(3) 0.4803(3) 0.1556(3)
H14 H -0.3763 0.5200 0.1418
C19 C -0.2254(3) 0.3986(3) 0.0797(3)
H15 H -0.2630 0.3849 0.0150
C20 C -0.1030(3) 0.3375(3) 0.0990(3)
H16 H -0.0575 0.2832 0.0477
H17 H 0.124(3) 0.427(3) 0.494(3)
H18 H 0.226(3) 0.336(3) 0.431(3)
O1 O 0.6391(2) -0.03376(18) 0.0556(2)
O2 O 0.55519(17) 0.09396(16) 0.23629(17)
O3 O 0.3863(2) 0.21461(19) 0.3218(2)
O4 O 0.42761(19) 0.31840(17) 0.51804(19)
O5 O 0.61738(18) 0.24279(16) 0.58988(18)
C1 C 0.6779(3) 0.0248(2) 0.2354(3)
C2 C 0.7214(3) -0.0440(2) 0.1393(3)
C3 C 0.8417(3) -0.1169(3) 0.1399(3)
H1 H 0.8725 -0.1645 0.0779
C4 C 0.9177(3) -0.1209(3) 0.2312(3)
H2 H 0.9977 -0.1715 0.2298
C5 C 0.8762(3) -0.0509(3) 0.3232(3)
H3 H 0.9283 -0.0530 0.3831
C6 C 0.7540(3) 0.0239(2) 0.3259(3)
C7 C 0.7018(3) 0.1012(2) 0.4166(3)
H4 H 0.7524 0.1046 0.4761
C8 C 0.5812(2) 0.1696(2) 0.4188(2)
C9 C 0.4987(3) 0.1654(2) 0.3273(3)
C10 C 0.5308(3) 0.2523(2) 0.5120(2)
C11 C 0.5865(3) 0.3242(3) 0.6795(3)
H5 H 0.4849 0.3026 0.7450
H6 H 0.5998 0.4175 0.6231
C12 C 0.6934(4) 0.2960(3) 0.7584(3)
H7 H 0.6764 0.3490 0.8185
H8 H 0.7935 0.3172 0.6926
H9 H 0.6786 0.2036 0.8145
C13 C 0.6831(4) -0.1004(3) -0.0470(3)
H10 H 0.6160 -0.0858 -0.0986
H11 H 0.6804 -0.1939 -0.0001
H12 H 0.7821 -0.0661 -0.1109
loop_
_geom_bond_atom_site_label_1
_geom_bond_atom_site_label_2
_geom_bond_site_symmetry_1
_geom_bond_site_symmetry_2
S1 C14 1_555 1_555
N1 C14 1_555 1_555
N2 C14 1_555 1_555
O1 C2 1_555 1_555
O2 C1 1_555 1_555
O3 C9 1_555 1_555
O4 C10 1_555 1_555
O5 C10 1_555 1_555
C1 C2 1_555 1_555
C2 C3 1_555 1_555
C3 H1 1_555 1_555
C4 C3 1_555 1_555
H2 C4 1_555 1_555
C5 C4 1_555 1_555
H3 C5 1_555 1_555
C6 C1 1_555 1_555
C7 C6 1_555 1_555
H4 C7 1_555 1_555
C8 C7 1_555 1_555
C9 O2 1_555 1_555
C10 C8 1_555 1_555
C11 O5 1_555 1_555
H5 C11 1_555 1_555
H6 C11 1_555 1_555
C12 C11 1_555 1_555
H7 C12 1_555 1_555
H8 C12 1_555 1_555
H9 C12 1_555 1_555
C13 O1 1_555 1_555
H10 C13 1_555 1_555
H11 C13 1_555 1_555
H12 C13 1_555 1_555
C15 S1 1_555 1_555
C16 N2 1_555 1_555
C17 C16 1_555 1_555
H13 C17 1_555 1_555
C18 C17 1_555 1_555
H14 C18 1_555 1_555
C19 C18 1_555 1_555
H15 C19 1_555 1_555
C20 C15 1_555 1_555
H16 C20 1_555 1_555
H17 N1 1_555 1_555
H18 N1 1_555 1_555
C5 C6 1_555 1_555
C8 C9 1_555 1_555
C15 C16 1_555 1_555
C19 C20 1_555 1_555

#END
