
#######################################################################
#
#                 Cambridge Crystallographic Data Centre
#                                CCDC 
#
#######################################################################
#
# If this CIF has been generated from an entry in the Cambridge 
# Structural Database, then it will include bibliographic, chemical, 
# crystal, experimental, refinement or atomic coordinate data resulting 
# from the CCDC's data processing and validation procedures.
#
#######################################################################

data_GUGBUG
_chemical_formula_moiety         'C12 H11 I1 O3'
_chemical_name_systematic        5-Hydroxy-7-iodo-4-propyl-2H-chromen-2-one
_symmetry_cell_setting           orthorhombic
_symmetry_space_group_name_H-M   'P b c a'
_symmetry_Int_Tables_number      61
_space_group_name_Hall           '-P 2ac 2ab'
loop_
_symmetry_equiv_pos_site_id
_symmetry_equiv_pos_as_xyz
1 x,y,z
2 1/2-x,-y,1/2+z
3 -x,1/2+y,1/2-z
4 1/2+x,1/2-y,-z
5 -x,-y,-z
6 1/2+x,y,1/2-z
7 x,1/2-y,1/2+z
8 1/2-x,1/2+y,z
_cell_length_a                   16.3627(8)
_cell_length_b                   7.3585(4)
_cell_length_c                   19.9177(9)
_cell_angle_alpha                90
_cell_angle_beta                 90
_cell_angle_gamma                90
_cell_volume                     2398.19
_exptl_crystal_colour            yellow
_exptl_crystal_description       block
_cell_formula_units_Z            8
_exptl_crystal_recrystallization_method ethanol
loop_
_atom_site_label
_atom_site_type_symbol
_atom_site_fract_x
_atom_site_fract_y
_atom_site_fract_z
I1 I 0.64697(3) 1.02974(9) 0.50481(2)
O1 O 0.7839(2) 0.9628(6) 0.7469(2)
O2 O 0.8582(2) 0.9332(7) 0.8383(2)
O3 O 0.4919(2) 0.9283(8) 0.7407(2)
H1 H 0.4553 0.9152 0.7131
C1 C 0.7091(3) 0.9661(8) 0.7131(3)
C2 C 0.7155(3) 0.9948(9) 0.6463(3)
H2 H 0.7660 1.0126 0.6260
C3 C 0.6438(3) 0.9969(8) 0.6090(4)
C4 C 0.5675(3) 0.9766(8) 0.6409(3)
H3 H 0.5197 0.9813 0.6157
C5 C 0.5635(3) 0.9501(9) 0.7087(3)
C6 C 0.6363(3) 0.9421(8) 0.7494(3)
C7 C 0.6410(3) 0.9050(9) 0.8200(3)
C8 C 0.7155(3) 0.9002(9) 0.8495(3)
H4 H 0.7184 0.8744 0.8952
C9 C 0.7900(3) 0.9330(8) 0.8139(3)
C10 C 0.5662(3) 0.8701(9) 0.8632(3)
H5 H 0.5283 0.7936 0.8386
H6 H 0.5825 0.8052 0.9034
C11 C 0.5235(4) 1.0441(9) 0.8830(4)
H7 H 0.5121 1.1151 0.8431
H8 H 0.5594 1.1151 0.9116
C12 C 0.4416(4) 1.0056(11) 0.9212(5)
H9 H 0.4084 0.9246 0.8950
H10 H 0.4128 1.1178 0.9280
H11 H 0.4534 0.9508 0.9638
loop_
_geom_bond_atom_site_label_1
_geom_bond_atom_site_label_2
_geom_bond_site_symmetry_1
_geom_bond_site_symmetry_2
I1 C3 1_555 1_555
O1 C1 1_555 1_555
O2 C9 1_555 1_555
O3 H1 1_555 1_555
C1 C2 1_555 1_555
C2 H2 1_555 1_555
C3 C2 1_555 1_555
C4 C3 1_555 1_555
H3 C4 1_555 1_555
C5 O3 1_555 1_555
C6 C1 1_555 1_555
C7 C6 1_555 1_555
C8 C7 1_555 1_555
H4 C8 1_555 1_555
C9 O1 1_555 1_555
C10 C7 1_555 1_555
H5 C10 1_555 1_555
H6 C10 1_555 1_555
C11 C10 1_555 1_555
H7 C11 1_555 1_555
H8 C11 1_555 1_555
C12 C11 1_555 1_555
H9 C12 1_555 1_555
H10 C12 1_555 1_555
H11 C12 1_555 1_555
C4 C5 1_555 1_555
C5 C6 1_555 1_555
C8 C9 1_555 1_555

#END
