
#######################################################################
#
#                 Cambridge Crystallographic Data Centre
#                                CCDC 
#
#######################################################################
#
# If this CIF has been generated from an entry in the Cambridge 
# Structural Database, then it will include bibliographic, chemical, 
# crystal, experimental, refinement or atomic coordinate data resulting 
# from the CCDC's data processing and validation procedures.
#
#######################################################################

data_GUGDAO
_chemical_formula_moiety         'C19 H18 O1'
_chemical_name_systematic        (2,2-Diphenyl-1-vinylcyclopropyl)acetaldehyde
_symmetry_cell_setting           monoclinic
_symmetry_space_group_name_H-M   'C c'
_symmetry_Int_Tables_number      9
_space_group_name_Hall           'C -2yc'
loop_
_symmetry_equiv_pos_site_id
_symmetry_equiv_pos_as_xyz
1 x,y,z
2 x,-y,1/2+z
3 1/2+x,1/2+y,z
4 1/2+x,1/2-y,1/2+z
_cell_length_a                   14.631(3)
_cell_length_b                   12.773(3)
_cell_length_c                   9.3737(19)
_cell_angle_alpha                90
_cell_angle_beta                 121.93(3)
_cell_angle_gamma                90
_cell_volume                     1486.72
_exptl_crystal_colour            colorless
_exptl_crystal_description       block
_cell_formula_units_Z            4
loop_
_atom_site_label
_atom_site_type_symbol
_atom_site_fract_x
_atom_site_fract_y
_atom_site_fract_z
O1 O 0.0978(2) 0.35972(19) -0.4108(3)
C1 C 0.2553(2) 0.25056(19) 0.0020(3)
C2 C 0.3279(2) 0.1617(2) 0.0148(3)
H1 H 0.3022 0.1165 -0.0824
H2 H 0.4049 0.1744 0.0774
C3 C 0.27364(18) 0.15351(19) 0.1124(3)
C4 C 0.34069(19) 0.16286(19) 0.3003(3)
C5 C 0.3151(2) 0.2338(2) 0.3861(4)
H3 H 0.2579 0.2799 0.3272
C6 C 0.3755(3) 0.2354(3) 0.5605(4)
H4 H 0.3586 0.2835 0.6175
C7 C 0.4594(3) 0.1678(3) 0.6502(4)
H5 H 0.4988 0.1695 0.7671
C8 C 0.4844(3) 0.0983(3) 0.5670(4)
H6 H 0.5414 0.0521 0.6271
C9 C 0.4260(2) 0.0955(2) 0.3936(4)
H7 H 0.4444 0.0474 0.3385
C10 C 0.1824(2) 0.07603(18) 0.0539(3)
C11 C 0.0916(2) 0.1005(2) 0.0584(4)
H8 H 0.0850 0.1670 0.0924
C12 C 0.0112(2) 0.0286(2) 0.0137(4)
H9 H -0.0488 0.0467 0.0182
C13 C 0.0189(3) -0.0696(2) -0.0375(4)
H10 H -0.0354 -0.1185 -0.0677
C14 C 0.1082(3) -0.0951(2) -0.0438(4)
H11 H 0.1142 -0.1617 -0.0781
C15 C 0.1889(3) -0.0223(2) 0.0004(4)
H12 H 0.2483 -0.0402 -0.0061
C16 C 0.3093(2) 0.3491(2) 0.0891(4)
H13 H 0.3798 0.3446 0.1802
C17 C 0.2650(4) 0.4427(3) 0.0474(5)
H14 H 0.182(3) 0.455(2) -0.042(5)
H15 H 0.304(3) 0.496(3) 0.102(4)
C18 C 0.1501(2) 0.2607(2) -0.1626(3)
H16 H 0.1189 0.1917 -0.2009
H17 H 0.1007 0.3018 -0.1459
C19 C 0.1627(3) 0.3115(3) -0.2944(4)
H18 H 0.2295 0.3040 -0.2831
loop_
_geom_bond_atom_site_label_1
_geom_bond_atom_site_label_2
_geom_bond_site_symmetry_1
_geom_bond_site_symmetry_2
O1 C19 1_555 1_555
C1 C2 1_555 1_555
C2 H1 1_555 1_555
H2 C2 1_555 1_555
C3 C1 1_555 1_555
C4 C3 1_555 1_555
C5 C4 1_555 1_555
H3 C5 1_555 1_555
C6 C5 1_555 1_555
H4 C6 1_555 1_555
C7 C6 1_555 1_555
H5 C7 1_555 1_555
C8 C7 1_555 1_555
H6 C8 1_555 1_555
C9 C4 1_555 1_555
H7 C9 1_555 1_555
C10 C3 1_555 1_555
C11 C10 1_555 1_555
H8 C11 1_555 1_555
C12 C11 1_555 1_555
H9 C12 1_555 1_555
C13 C12 1_555 1_555
H10 C13 1_555 1_555
C14 C13 1_555 1_555
H11 C14 1_555 1_555
C15 C10 1_555 1_555
H12 C15 1_555 1_555
C16 C1 1_555 1_555
H13 C16 1_555 1_555
C17 C16 1_555 1_555
H14 C17 1_555 1_555
H15 C17 1_555 1_555
C18 C1 1_555 1_555
H16 C18 1_555 1_555
H17 C18 1_555 1_555
C19 C18 1_555 1_555
H18 C19 1_555 1_555
C2 C3 1_555 1_555
C8 C9 1_555 1_555
C14 C15 1_555 1_555

#END
