
#######################################################################
#
#                 Cambridge Crystallographic Data Centre
#                                CCDC 
#
#######################################################################
#
# If this CIF has been generated from an entry in the Cambridge 
# Structural Database, then it will include bibliographic, chemical, 
# crystal, experimental, refinement or atomic coordinate data resulting 
# from the CCDC's data processing and validation procedures.
#
#######################################################################

data_GUGFET
_chemical_formula_moiety         'C24 H20 S5'
_chemical_name_systematic        
9-(4,5-Dimethyl-1,3-dithiol-2-ylidene)-10-(4-methylsulfanyl-5-methyl-1,3-dithiol-2-ylidene)-9,10-dihydroanthracene
_symmetry_cell_setting           triclinic
_symmetry_space_group_name_H-M   'P -1'
_symmetry_Int_Tables_number      2
_space_group_name_Hall           '-P 1'
loop_
_symmetry_equiv_pos_site_id
_symmetry_equiv_pos_as_xyz
1 x,y,z
2 -x,-y,-z
_cell_length_a                   9.077(1)
_cell_length_b                   10.287(1)
_cell_length_c                   12.014(1)
_cell_angle_alpha                84.79(1)
_cell_angle_beta                 87.92(1)
_cell_angle_gamma                76.02(1)
_cell_volume                     1083.96
_exptl_crystal_colour            yellow
_exptl_crystal_description       block
_chemical_melting_point          493K(dec.)
_cell_formula_units_Z            2
_exptl_crystal_recrystallization_method 'carbon disulfide/dichloromethane'
loop_
_atom_site_label
_atom_site_type_symbol
_atom_site_fract_x
_atom_site_fract_y
_atom_site_fract_z
S1 S 0.72046(7) 0.03858(6) 0.40786(5)
S2 S 0.61574(7) -0.09376(6) 0.23002(5)
S3 S 0.34124(7) 0.62399(6) 0.15040(5)
S4 S 0.23480(7) 0.47443(6) -0.01264(5)
C1 C 0.2636(3) 0.0113(2) 0.2271(2)
H1 H 0.311(3) -0.071(3) 0.267(2)
C2 C 0.1416(3) 0.0128(2) 0.1601(2)
H2 H 0.113(3) -0.071(3) 0.156(2)
C3 C 0.0636(3) 0.1330(3) 0.1045(2)
H3 H -0.025(3) 0.133(3) 0.063(2)
C4 C 0.1067(3) 0.2517(2) 0.1181(2)
H4 H 0.049(3) 0.338(3) 0.084(2)
C5 C 0.2786(3) 0.4900(2) 0.3867(2)
H5 H 0.216(3) 0.573(3) 0.347(2)
C6 C 0.3185(3) 0.4841(3) 0.4982(2)
H6 H 0.290(3) 0.561(3) 0.537(2)
C7 C 0.3999(3) 0.3633(3) 0.5510(2)
H7 H 0.425(3) 0.360(3) 0.631(2)
C8 C 0.4406(3) 0.2494(2) 0.4925(2)
H8 H 0.488(3) 0.163(3) 0.530(2)
C9 C 0.4344(3) 0.1331(2) 0.31558(19)
C10 C 0.2744(2) 0.3762(2) 0.20883(19)
C11 C 0.3193(3) 0.3764(2) 0.32601(19)
C12 C 0.4015(3) 0.2532(2) 0.38033(19)
C13 C 0.3102(3) 0.1285(2) 0.23996(19)
C14 C 0.2293(3) 0.2520(2) 0.18550(19)
C15 C 0.5688(3) 0.0382(2) 0.32047(19)
C16 C 0.8512(3) -0.0996(2) 0.3547(2)
C17 C 0.8036(3) -0.1596(2) 0.2735(2)
S5 S 1.03125(8) -0.14978(7) 0.41387(6)
C18 C 0.9840(4) -0.2273(3) 0.5482(3)
H9 H 0.9033 -0.1636 0.5851
H10 H 1.0741 -0.2522 0.5952
H11 H 0.9490 -0.3080 0.5365
C19 C 0.9054(3) -0.2794(2) 0.21130(19)
H12 H 1.0099 -0.2984 0.2376
H13 H 0.9038 -0.2545 0.1306
H14 H 0.8654 -0.3597 0.2270
C22 C 0.2793(3) 0.4780(2) 0.12852(19)
C23 C 0.3553(3) 0.6809(2) 0.0080(2)
C24 C 0.3061(3) 0.6130(2) -0.0664(2)
C25 C 0.4210(3) 0.8029(2) -0.0147(2)
H21 H 0.4259 0.8253 -0.0956
H22 H 0.5235 0.7835 0.0160
H23 H 0.3561 0.8792 0.0205
C26 C 0.3006(3) 0.6415(3) -0.1919(2)
H24 H 0.3237 0.7288 -0.2131
H25 H 0.1989 0.6430 -0.2176
H26 H 0.3755 0.5708 -0.2265
S6? S 0.9054(3) -0.2794(2) 0.21130(19)
C20? C 0.8958(19) -0.4213(16) 0.2781(14)
H15? H 0.9587 -0.4960 0.2399
H16? H 0.7900 -0.4284 0.2807
H17? H 0.9320 -0.4249 0.3545
C21? C 1.03125(8) -0.14978(7) 0.41387(6)
H18? H 1.0398 -0.0907 0.4714
H19? H 1.1094 -0.1467 0.3558
H20? H 1.0476 -0.2431 0.4485
S7? S 0.337(3) 0.837(2) -0.064(2)
loop_
_geom_bond_atom_site_label_1
_geom_bond_atom_site_label_2
_geom_bond_site_symmetry_1
_geom_bond_site_symmetry_2
S1 C15 1_555 1_555
S2 C15 1_555 1_555
S3 C22 1_555 1_555
S4 C22 1_555 1_555
C1 H1 1_555 1_555
C2 C1 1_555 1_555
H2 C2 1_555 1_555
C3 C2 1_555 1_555
H3 C3 1_555 1_555
C4 C3 1_555 1_555
H4 C4 1_555 1_555
C5 H5 1_555 1_555
C6 C5 1_555 1_555
H6 C6 1_555 1_555
C7 C6 1_555 1_555
H7 C7 1_555 1_555
C8 C7 1_555 1_555
H8 C8 1_555 1_555
C9 C12 1_555 1_555
C10 C11 1_555 1_555
C11 C5 1_555 1_555
C12 C8 1_555 1_555
C13 C1 1_555 1_555
C14 C4 1_555 1_555
C15 C9 1_555 1_555
C16 S1 1_555 1_555
C17 S2 1_555 1_555
S5 C16 1_555 1_555
C18 S5 1_555 1_555
H9 C18 1_555 1_555
H10 C18 1_555 1_555
H11 C18 1_555 1_555
C19 C17 1_555 1_555
H12 C19 1_555 1_555
H13 C19 1_555 1_555
H14 C19 1_555 1_555
C22 C10 1_555 1_555
C23 S3 1_555 1_555
C24 S4 1_555 1_555
C25 C23 1_555 1_555
H21 C25 1_555 1_555
H22 C25 1_555 1_555
H23 C25 1_555 1_555
C26 C24 1_555 1_555
H24 C26 1_555 1_555
H25 C26 1_555 1_555
H26 C26 1_555 1_555
C9 C13 1_555 1_555
C10 C14 1_555 1_555
C11 C12 1_555 1_555
C13 C14 1_555 1_555
C16 C17 1_555 1_555
C23 C24 1_555 1_555

#END
