
#######################################################################
#
#                 Cambridge Crystallographic Data Centre
#                                CCDC 
#
#######################################################################
#
# If this CIF has been generated from an entry in the Cambridge 
# Structural Database, then it will include bibliographic, chemical, 
# crystal, experimental, refinement or atomic coordinate data resulting 
# from the CCDC's data processing and validation procedures.
#
#######################################################################

data_GUGFAR
_chemical_formula_moiety         'C16 H15 N1 O5,0.33(C1 H4 O1),0.33(C1 H2 Cl2)'
_chemical_name_systematic        
'5-hydroxy-2,3,3a,4,5,12c-hexahydro[1,3]dioxolo[6,7]isochromeno[3,4-g]indol-7(1H)-one dichloromethane methanol solvate'
_symmetry_cell_setting           monoclinic
_symmetry_space_group_name_H-M   'P 21'
_symmetry_Int_Tables_number      4
_space_group_name_Hall           'P 2yb'
loop_
_symmetry_equiv_pos_site_id
_symmetry_equiv_pos_as_xyz
1 x,y,z
2 -x,1/2+y,-z
_cell_length_a                   10.4126(15)
_cell_length_b                   14.0062(19)
_cell_length_c                   15.8996(18)
_cell_angle_alpha                90
_cell_angle_beta                 103.807(8)
_cell_angle_gamma                90
_cell_volume                     2251.81
_exptl_crystal_colour            colorless
_exptl_crystal_description       lath
_cell_formula_units_Z            6
_exptl_crystal_recrystallization_method 'methanol/ hexane'
loop_
_atom_site_label
_atom_site_type_symbol
_atom_site_fract_x
_atom_site_fract_y
_atom_site_fract_z
N1 N 0.7595(12) 0.4932(9) 0.5451(7)
C1 C 0.756(2) 0.4087(13) 0.4894(12)
C2 C 0.6687(16) 0.3349(13) 0.5151(9)
C3 C 0.6354(14) 0.3712(10) 0.5969(7)
C4 C 0.7331(15) 0.3302(12) 0.6774(9)
C5 C 0.7093(14) 0.3752(10) 0.7614(9)
C6 C 0.7029(13) 0.4827(11) 0.7526(8)
O1 O 0.7254(9) 0.5256(7) 0.8309(5)
C7 C 0.7301(12) 0.6237(9) 0.8420(8)
C8 C 0.7133(13) 0.6795(10) 0.7624(8)
C9 C 0.7253(12) 0.7793(11) 0.7727(9)
C10 C 0.7148(15) 0.8300(11) 0.6979(10)
O2 O 0.7231(12) 0.9266(8) 0.6902(7)
C11 C 0.697(2) 0.9413(14) 0.5988(12)
O3 O 0.6806(12) 0.8535(8) 0.5545(6)
C12 C 0.6891(16) 0.7866(12) 0.6178(10)
C13 C 0.6769(14) 0.6930(12) 0.6074(8)
C14 C 0.6895(13) 0.6351(11) 0.6829(8)
C15 C 0.6834(11) 0.5329(10) 0.6766(8)
C16 C 0.6503(13) 0.4774(10) 0.5905(8)
O4 O 0.5899(9) 0.3361(7) 0.7763(6)
O5 O 0.7495(8) 0.6524(7) 0.9158(5)
H1 H 0.8432 0.3840 0.4938
H2 H 0.7171 0.4273 0.4297
H3 H 0.7170 0.2751 0.5259
H4 H 0.5885 0.3256 0.4703
H5 H 0.5444 0.3543 0.5977
H6 H 0.8229 0.3443 0.6738
H7 H 0.7221 0.2616 0.6793
H8 H 0.7840 0.3583 0.8099
H9 H 0.7409 0.8085 0.8268
H10 H 0.7725 0.9739 0.5863
H11 H 0.6192 0.9808 0.5801
H12 H 0.6626 0.6656 0.5530
H13 H 0.5685 0.5028 0.5538
H14 H 0.8348 0.4930 0.5826
H15 H 0.5901 0.3371 0.8280
N2 N 0.0055(11) 0.6970(8) 1.0403(7)
C17 C 0.0176(14) 0.6914(11) 1.1338(8)
C18 C 0.1339(14) 0.6228(10) 1.1706(8)
C19 C 0.1493(13) 0.5671(10) 1.0923(8)
C20 C 0.0531(14) 0.4808(11) 1.0698(9)
C21 C 0.0552(13) 0.4351(10) 0.9852(9)
C22 C 0.0600(12) 0.5074(10) 0.9178(8)
O6 O 0.0356(9) 0.4660(6) 0.8366(5)
C23 C 0.0298(12) 0.5189(9) 0.7636(9)
C24 C 0.0434(12) 0.6227(11) 0.7724(8)
C25 C 0.0253(13) 0.6755(10) 0.6962(9)
C26 C 0.0439(13) 0.7717(11) 0.7067(8)
O7 O 0.0307(11) 0.8415(8) 0.6436(6)
C27 C 0.0783(17) 0.9265(11) 0.6884(9)
O8 O 0.0856(10) 0.9101(6) 0.7794(5)
C28 C 0.0792(13) 0.8149(11) 0.7889(9)
C29 C 0.0922(14) 0.7629(10) 0.8623(8)
C30 C 0.0726(13) 0.6624(9) 0.8558(8)
C31 C 0.0818(13) 0.6007(10) 0.9285(8)
C32 C 0.1182(13) 0.6434(10) 1.0212(8)
O9 O 0.1664(11) 0.3745(8) 0.9948(6)
O10 O 0.0082(10) 0.4757(7) 0.6950(6)
H16 H 0.0370 0.7544 1.1591
H17 H -0.0640 0.6675 1.1459
H18 H 0.2136 0.6585 1.1961
H19 H 0.1126 0.5813 1.2145
H20 H 0.2408 0.5454 1.1001
H21 H 0.0775 0.4336 1.1154
H22 H -0.0359 0.5034 1.0675
H23 H -0.0249 0.3969 0.9658
H24 H 0.0011 0.6472 0.6413
H25 H 0.0170 0.9784 0.6671
H26 H 0.1655 0.9418 0.6796
H27 H 0.1141 0.7924 0.9166
H28 H 0.1938 0.6869 1.0265
H29 H -0.0714 0.6858 1.0076
H30 H 0.1487 0.3203 1.0081
N3 N 0.5911(10) 0.5257(7) 1.0099(6)
C33 C 0.6701(13) 0.5180(10) 1.1036(8)
C34 C 0.5866(14) 0.5639(10) 1.1576(8)
C35 C 0.5064(13) 0.6400(9) 1.0972(8)
C36 C 0.5911(13) 0.7274(9) 1.0912(8)
C37 C 0.5198(13) 0.7969(8) 1.0221(7)
C38 C 0.4663(12) 0.7452(9) 0.9394(7)
O11 O 0.4454(9) 0.8070(6) 0.8679(5)
C39 C 0.4020(12) 0.7739(10) 0.7838(8)
C40 C 0.3832(13) 0.6733(9) 0.7719(9)
C41 C 0.3452(15) 0.6398(12) 0.6857(9)
C42 C 0.3211(13) 0.5432(11) 0.6767(8)
O12 O 0.2860(10) 0.4914(7) 0.5999(5)
C43 C 0.2483(14) 0.3974(12) 0.6234(8)
O13 O 0.2928(10) 0.3919(7) 0.7177(6)
C44 C 0.3279(13) 0.4847(9) 0.7459(9)
C45 C 0.3652(13) 0.5119(9) 0.8308(9)
C46 C 0.3965(14) 0.6126(9) 0.8429(8)
C47 C 0.4418(12) 0.6496(10) 0.9291(8)
C48 C 0.4742(12) 0.5870(10) 1.0088(7)
O14 O 0.4154(9) 0.8450(6) 1.0497(5)
O15 O 0.3862(11) 0.8344(7) 0.7279(6)
H31 H 0.7531 0.5529 1.1104
H32 H 0.6884 0.4517 1.1192
H33 H 0.6403 0.5927 1.2094
H34 H 0.5282 0.5171 1.1739
H35 H 0.4259 0.6584 1.1150
H36 H 0.6128 0.7592 1.1471
H37 H 0.6727 0.7064 1.0762
H38 H 0.5838 0.8446 1.0125
H39 H 0.3354 0.6801 0.6378
H40 H 0.1529 0.3886 0.6046
H41 H 0.2925 0.3487 0.5969
H42 H 0.3717 0.4695 0.8770
H43 H 0.3987 0.5448 1.0072
H44 H 0.6376 0.5459 0.9754
H45 H 0.3940 0.8991 1.0324
Cl1 Cl 0.0877(10) 0.1982(7) 0.6736(5)
C49 C 0.088(3) 0.168(2) 0.5710(15)
Cl2 Cl -0.0510(9) 0.1016(7) 0.5189(4)
H46 H 0.1660 0.1278 0.5751
H47 H 0.0962 0.2254 0.5378
O16 O 0.4154(19) 0.2075(13) 0.6553(11)
C50 C 0.479(3) 0.1325(16) 0.6342(13)
H48 H 0.4671 0.2421 0.6889
H49 H 0.4178 0.0930 0.5953
H50 H 0.5177 0.0972 0.6849
H51 H 0.5458 0.1534 0.6071
loop_
_geom_bond_atom_site_label_1
_geom_bond_atom_site_label_2
_geom_bond_site_symmetry_1
_geom_bond_site_symmetry_2
N1 C1 1_555 1_555
C1 C2 1_555 1_555
C2 C3 1_555 1_555
C3 C4 1_555 1_555
C4 C5 1_555 1_555
C5 C6 1_555 1_555
C6 O1 1_555 1_555
O1 C7 1_555 1_555
C7 C8 1_555 1_555
C8 C9 1_555 1_555
C9 C10 1_555 1_555
C10 O2 1_555 1_555
O2 C11 1_555 1_555
C11 O3 1_555 1_555
O3 C12 1_555 1_555
C12 C10 1_555 1_555
C13 C12 1_555 1_555
C14 C8 1_555 1_555
C15 C6 1_555 1_555
C16 N1 1_555 1_555
O4 C5 1_555 1_555
O5 C7 1_555 1_555
H1 C1 1_555 1_555
H2 C1 1_555 1_555
H3 C2 1_555 1_555
H4 C2 1_555 1_555
H5 C3 1_555 1_555
H6 C4 1_555 1_555
H7 C4 1_555 1_555
H8 C5 1_555 1_555
H9 C9 1_555 1_555
H10 C11 1_555 1_555
H11 C11 1_555 1_555
H12 C13 1_555 1_555
H13 C16 1_555 1_555
H14 N1 1_555 1_555
H15 O4 1_555 1_555
N2 C17 1_555 1_555
C17 C18 1_555 1_555
C18 C19 1_555 1_555
C19 C20 1_555 1_555
C20 C21 1_555 1_555
C21 C22 1_555 1_555
C22 O6 1_555 1_555
O6 C23 1_555 1_555
C23 C24 1_555 1_555
C24 C25 1_555 1_555
C25 C26 1_555 1_555
C26 O7 1_555 1_555
O7 C27 1_555 1_555
C27 O8 1_555 1_555
O8 C28 1_555 1_555
C28 C26 1_555 1_555
C29 C28 1_555 1_555
C30 C24 1_555 1_555
C31 C22 1_555 1_555
C32 N2 1_555 1_555
O9 C21 1_555 1_555
O10 C23 1_555 1_555
H16 C17 1_555 1_555
H17 C17 1_555 1_555
H18 C18 1_555 1_555
H19 C18 1_555 1_555
H20 C19 1_555 1_555
H21 C20 1_555 1_555
H22 C20 1_555 1_555
H23 C21 1_555 1_555
H24 C25 1_555 1_555
H25 C27 1_555 1_555
H26 C27 1_555 1_555
H27 C29 1_555 1_555
H28 C32 1_555 1_555
H29 N2 1_555 1_555
H30 O9 1_555 1_555
N3 C33 1_555 1_555
C33 C34 1_555 1_555
C34 C35 1_555 1_555
C35 C36 1_555 1_555
C36 C37 1_555 1_555
C37 C38 1_555 1_555
C38 O11 1_555 1_555
O11 C39 1_555 1_555
C39 C40 1_555 1_555
C40 C41 1_555 1_555
C41 C42 1_555 1_555
C42 O12 1_555 1_555
O12 C43 1_555 1_555
C43 O13 1_555 1_555
O13 C44 1_555 1_555
C44 C42 1_555 1_555
C45 C44 1_555 1_555
C46 C40 1_555 1_555
C47 C38 1_555 1_555
C48 N3 1_555 1_555
O14 C37 1_555 1_555
O15 C39 1_555 1_555
H31 C33 1_555 1_555
H32 C33 1_555 1_555
H33 C34 1_555 1_555
H34 C34 1_555 1_555
H35 C35 1_555 1_555
H36 C36 1_555 1_555
H37 C36 1_555 1_555
H38 C37 1_555 1_555
H39 C41 1_555 1_555
H40 C43 1_555 1_555
H41 C43 1_555 1_555
H42 C45 1_555 1_555
H43 C48 1_555 1_555
H44 N3 1_555 1_555
H45 O14 1_555 1_555
Cl1 C49 1_555 1_555
C49 Cl2 1_555 1_555
H46 C49 1_555 1_555
H47 C49 1_555 1_555
O16 C50 1_555 1_555
C50 H49 1_555 1_555
H48 O16 1_555 1_555
H50 C50 1_555 1_555
H51 C50 1_555 1_555
C3 C16 1_555 1_555
C13 C14 1_555 1_555
C14 C15 1_555 1_555
C15 C16 1_555 1_555
C19 C32 1_555 1_555
C29 C30 1_555 1_555
C30 C31 1_555 1_555
C31 C32 1_555 1_555
C35 C48 1_555 1_555
C45 C46 1_555 1_555
C46 C47 1_555 1_555
C47 C48 1_555 1_555

#END
