
#######################################################################
#
#                 Cambridge Crystallographic Data Centre
#                                CCDC 
#
#######################################################################
#
# If this CIF has been generated from an entry in the Cambridge 
# Structural Database, then it will include bibliographic, chemical, 
# crystal, experimental, refinement or atomic coordinate data resulting 
# from the CCDC's data processing and validation procedures.
#
#######################################################################

data_GUGFEV
_chemical_formula_moiety         'C16 H15 N1 O5'
_chemical_name_systematic        
5-hydroxy-2,3,3a,4,5,12c-hexahydro[1,3]dioxolo[6,7]isochromeno[3,4-g]indol-7(1H)-one
_symmetry_cell_setting           orthorhombic
_symmetry_space_group_name_H-M   'P 21 21 21'
_symmetry_Int_Tables_number      19
_space_group_name_Hall           'P 2ac 2ab'
loop_
_symmetry_equiv_pos_site_id
_symmetry_equiv_pos_as_xyz
1 x,y,z
2 1/2+x,1/2-y,-z
3 -x,1/2+y,1/2-z
4 1/2-x,-y,1/2+z
_cell_length_a                   7.2115(2)
_cell_length_b                   12.2738(3)
_cell_length_c                   14.9955(5)
_cell_angle_alpha                90
_cell_angle_beta                 90
_cell_angle_gamma                90
_cell_volume                     1327.29
_exptl_crystal_colour            colorless
_exptl_crystal_description       plate
_cell_formula_units_Z            4
loop_
_atom_site_label
_atom_site_type_symbol
_atom_site_fract_x
_atom_site_fract_y
_atom_site_fract_z
O1 O 0.2978(2) 0.55398(12) 0.30488(9)
O2 O 0.1663(2) 0.36280(10) 0.35963(8)
O3 O 0.1576(3) 0.19003(12) 0.31931(9)
O4 O 0.2092(2) -0.01186(10) 0.62250(10)
O5 O 0.1771(3) 0.12073(10) 0.73211(9)
N1 N 0.3362(2) 0.51557(12) 0.63947(10)
C1 C 0.4140(3) 0.62760(15) 0.63742(14)
C2 C 0.2514(3) 0.69730(16) 0.60899(14)
C3 C 0.1581(3) 0.62750(14) 0.53726(12)
C4 C 0.2582(3) 0.63472(14) 0.44804(12)
C5 C 0.1820(3) 0.55414(14) 0.38118(12)
C6 C 0.1760(3) 0.44291(14) 0.42352(11)
C7 C 0.1687(3) 0.25424(14) 0.38061(13)
C8 C 0.1801(3) 0.22573(13) 0.47452(12)
C9 C 0.1935(3) 0.11448(14) 0.49627(13)
C10 C 0.1940(3) 0.08905(14) 0.58404(13)
C11 C 0.2091(3) 0.00629(16) 0.71712(14)
C12 C 0.1778(3) 0.16810(14) 0.64984(12)
C13 C 0.1687(3) 0.27775(13) 0.63091(12)
C14 C 0.1731(3) 0.30743(14) 0.54002(11)
C15 C 0.1753(3) 0.42104(13) 0.51122(11)
C16 C 0.1711(3) 0.51249(14) 0.57829(11)
H1 H 0.415(3) 0.4665(18) 0.6201(15)
H2 H 0.244(4) 0.524(2) 0.2562(19)
H3 H 0.4603 0.6481 0.6957
H4 H 0.5160 0.6346 0.5926
H5 H 0.1661 0.7087 0.6591
H6 H 0.2910 0.7701 0.5883
H7 H 0.0253 0.6467 0.5296
H8 H 0.2467 0.7079 0.4212
H9 H 0.3914 0.6181 0.4559
H10 H 0.0541 0.5766 0.3660
H11 H 0.2038 0.0617 0.4515
H12 H 0.3311 -0.0146 0.7427
H13 H 0.1098 -0.0366 0.7463
H14 H 0.1636 0.3299 0.6772
H15 H 0.0604 0.5030 0.6161
loop_
_geom_bond_atom_site_label_1
_geom_bond_atom_site_label_2
_geom_bond_site_symmetry_1
_geom_bond_site_symmetry_2
O1 C5 1_555 1_555
O2 C6 1_555 1_555
O3 C7 1_555 1_555
O4 C10 1_555 1_555
O5 C11 1_555 1_555
N1 C1 1_555 1_555
C1 C2 1_555 1_555
C2 C3 1_555 1_555
C3 C4 1_555 1_555
C4 C5 1_555 1_555
C5 C6 1_555 1_555
C6 C15 1_555 1_555
C7 O2 1_555 1_555
C8 C7 1_555 1_555
C9 C8 1_555 1_555
C10 C9 1_555 1_555
C11 O4 1_555 1_555
C12 O5 1_555 1_555
C13 C12 1_555 1_555
C14 C8 1_555 1_555
C15 C14 1_555 1_555
C16 N1 1_555 1_555
H1 N1 1_555 1_555
H2 O1 1_555 1_555
H3 C1 1_555 1_555
H4 C1 1_555 1_555
H5 C2 1_555 1_555
H6 C2 1_555 1_555
H7 C3 1_555 1_555
H8 C4 1_555 1_555
H9 C4 1_555 1_555
H10 C5 1_555 1_555
H11 C9 1_555 1_555
H12 C11 1_555 1_555
H13 C11 1_555 1_555
H14 C13 1_555 1_555
H15 C16 1_555 1_555
C3 C16 1_555 1_555
C10 C12 1_555 1_555
C13 C14 1_555 1_555
C15 C16 1_555 1_555

#END
