
#######################################################################
#
#                 Cambridge Crystallographic Data Centre
#                                CCDC 
#
#######################################################################
#
# If this CIF has been generated from an entry in the Cambridge 
# Structural Database, then it will include bibliographic, chemical, 
# crystal, experimental, refinement or atomic coordinate data resulting 
# from the CCDC's data processing and validation procedures.
#
#######################################################################

data_GUGFAP
_chemical_formula_moiety         'C25 H20 O2 S4,C1 D1 Cl3'
_chemical_name_systematic        
'9-(4,5-Dimethyl-1,3-dithiol-2-ylidene)-10-(4-methoxycarbonyl-5-methyl-1,3-dithiol-2-ylidene)-9,10-dihydroanthracene deuterochloroform solvate'
_symmetry_cell_setting           triclinic
_symmetry_space_group_name_H-M   'P -1'
_symmetry_Int_Tables_number      2
_space_group_name_Hall           '-P 1'
loop_
_symmetry_equiv_pos_site_id
_symmetry_equiv_pos_as_xyz
1 x,y,z
2 -x,-y,-z
_cell_length_a                   9.656(1)
_cell_length_b                   11.290(1)
_cell_length_c                   13.238(1)
_cell_angle_alpha                94.27(1)
_cell_angle_beta                 106.21(1)
_cell_angle_gamma                96.56(1)
_cell_volume                     1368.13
_exptl_crystal_colour            orange
_exptl_crystal_description       plate
_chemical_melting_point          491-493K
_cell_formula_units_Z            2
loop_
_atom_site_label
_atom_site_type_symbol
_atom_site_fract_x
_atom_site_fract_y
_atom_site_fract_z
S1 S 0.3383(3) 0.7883(2) 0.2835(2)
S2 S 0.4752(3) 0.7101(2) 0.1232(2)
S3 S 0.9703(3) 0.8758(2) 0.6421(2)
S4 S 1.1120(2) 0.7952(2) 0.4871(2)
O1 O 0.4084(8) 0.8107(6) -0.0669(6)
O2 O 0.3051(10) 0.9718(8) -0.0261(7)
C1 C 0.7079(10) 0.6829(8) 0.6250(8)
H1 H 0.7978(10) 0.6944(8) 0.6763(8)
C2 C 0.5781(11) 0.6701(9) 0.6550(8)
H2 H 0.5838(11) 0.6726(9) 0.7264(8)
C3 C 0.4457(12) 0.6527(9) 0.5799(9)
H3 H 0.3603(12) 0.6462(9) 0.5997(9)
C4 C 0.4401(9) 0.6457(8) 0.4741(9)
H4 H 0.3502(9) 0.6303(8) 0.4227(9)
C5 C 0.6687(12) 0.5197(8) 0.2135(8)
H5 H 0.5794(12) 0.5064(8) 0.1613(8)
C6 C 0.7818(13) 0.4624(10) 0.1996(9)
H6 H 0.7663(13) 0.4126(10) 0.1372(9)
C7 C 0.9147(12) 0.4786(10) 0.2742(9)
H7 H 0.9904(12) 0.4410(10) 0.2621(9)
C8 C 0.9339(11) 0.5541(8) 0.3698(8)
H8 H 1.0222(11) 0.5635(8) 0.4229(8)
C9 C 0.8352(9) 0.6927(7) 0.4831(7)
C10 C 0.5664(9) 0.6546(7) 0.3279(7)
C11 C 0.7017(9) 0.6796(7) 0.5180(7)
C12 C 0.5678(9) 0.6603(7) 0.4418(7)
C13 C 0.6850(10) 0.5941(8) 0.3062(7)
C14 C 0.8209(10) 0.6129(8) 0.3841(7)
C15 C 0.4710(11) 0.7043(8) 0.2545(8)
C16 C 0.3142(11) 0.8657(9) 0.1721(9)
C17 C 0.3741(10) 0.8301(8) 0.0990(7)
C18 C 0.2133(13) 0.9626(11) 0.1667(10)
H9 H 0.2721(13) 1.0379(11) 0.1979(10)
H10 H 0.1446(13) 0.9429(11) 0.2053(10)
H11 H 0.1615(13) 0.9689(11) 0.0943(10)
C19 C 0.3568(11) 0.8822(10) -0.0022(8)
C20 C 0.3902(15) 0.8434(11) -0.1727(9)
H12 H 0.2924(15) 0.8588(11) -0.2039(9)
H13 H 0.4116(15) 0.7797(11) -0.2157(9)
H14 H 0.4571(15) 0.9147(11) -0.1685(9)
C21 C 0.9560(9) 0.7717(8) 0.5320(7)
C22 C 1.1271(10) 0.9665(9) 0.6373(8)
C23 C 1.1913(10) 0.9295(8) 0.5677(9)
C24 C 1.1743(12) 1.0777(9) 0.7178(9)
H15 H 1.1848(12) 1.0542(9) 0.7874(9)
H16 H 1.1024(12) 1.1310(9) 0.7023(9)
H17 H 1.2659(12) 1.1177(9) 0.7145(9)
C25 C 1.3316(10) 0.9880(10) 0.5485(9)
H18 H 1.3516(10) 1.0708(10) 0.5774(9)
H19 H 1.3198(10) 0.9826(10) 0.4738(9)
H20 H 1.4114(10) 0.9473(10) 0.5822(9)
Cl1 Cl 0.0135(6) 1.2448(5) 0.0866(4)
Cl2 Cl 0.1856(9) 1.4662(7) 0.0973(8)
Cl3 Cl 0.2316(12) 1.2533(9) -0.0068(9)
C26 C 0.100(3) 1.3331(18) 0.0059(15)
Cl4? Cl 0.262(2) 1.414(3) 0.0606(15)
Cl5? Cl 0.0442(17) 1.2979(13) -0.1130(10)
loop_
_geom_bond_atom_site_label_1
_geom_bond_atom_site_label_2
_geom_bond_site_symmetry_1
_geom_bond_site_symmetry_2
S1 C15 1_555 1_555
S2 C15 1_555 1_555
S3 C21 1_555 1_555
S4 C21 1_555 1_555
O1 C19 1_555 1_555
O2 C19 1_555 1_555
C1 H1 1_555 1_555
C2 C1 1_555 1_555
H2 C2 1_555 1_555
C3 C2 1_555 1_555
H3 C3 1_555 1_555
C4 C3 1_555 1_555
H4 C4 1_555 1_555
C5 H5 1_555 1_555
C6 C5 1_555 1_555
H6 C6 1_555 1_555
C7 C6 1_555 1_555
H7 C7 1_555 1_555
C8 C7 1_555 1_555
H8 C8 1_555 1_555
C9 C11 1_555 1_555
C10 C12 1_555 1_555
C11 C1 1_555 1_555
C12 C4 1_555 1_555
C13 C5 1_555 1_555
C14 C8 1_555 1_555
C15 C10 1_555 1_555
C16 S1 1_555 1_555
C17 S2 1_555 1_555
C18 C16 1_555 1_555
H9 C18 1_555 1_555
H10 C18 1_555 1_555
H11 C18 1_555 1_555
C19 C17 1_555 1_555
C20 O1 1_555 1_555
H12 C20 1_555 1_555
H13 C20 1_555 1_555
H14 C20 1_555 1_555
C21 C9 1_555 1_555
C22 S3 1_555 1_555
C23 S4 1_555 1_555
C24 C22 1_555 1_555
H15 C24 1_555 1_555
H16 C24 1_555 1_555
H17 C24 1_555 1_555
C25 C23 1_555 1_555
H18 C25 1_555 1_555
H19 C25 1_555 1_555
H20 C25 1_555 1_555
Cl1 C26 1_555 1_555
Cl2 C26 1_555 1_555
Cl3 C26 1_555 1_555
C9 C14 1_555 1_555
C10 C13 1_555 1_555
C11 C12 1_555 1_555
C13 C14 1_555 1_555
C16 C17 1_555 1_555
C22 C23 1_555 1_555

#END
