
#######################################################################
#
#                 Cambridge Crystallographic Data Centre
#                                CCDC 
#
#######################################################################
#
# If this CIF has been generated from an entry in the Cambridge 
# Structural Database, then it will include bibliographic, chemical, 
# crystal, experimental, refinement or atomic coordinate data resulting 
# from the CCDC's data processing and validation procedures.
#
#######################################################################

data_GUGGEV
_chemical_formula_moiety         'C13 H13 F2 N1 O2'
_chemical_name_systematic        
1,1-Difluoro-10b-hydroxy-2-methyl-1,3,4,10b-tetrahydropyrido[2,1-a]isoindol-6(2H)-one
_symmetry_cell_setting           monoclinic
_symmetry_space_group_name_H-M   'P 21/c'
_symmetry_Int_Tables_number      14
_space_group_name_Hall           '-P 2ybc'
loop_
_symmetry_equiv_pos_site_id
_symmetry_equiv_pos_as_xyz
1 x,y,z
2 -x,1/2+y,1/2-z
3 -x,-y,-z
4 x,1/2-y,1/2+z
_cell_length_a                   12.0530(5)
_cell_length_b                   10.2639(3)
_cell_length_c                   10.4166(3)
_cell_angle_alpha                90
_cell_angle_beta                 112.362(2)
_cell_angle_gamma                90
_cell_volume                     1191.74
_exptl_crystal_colour            colorless
_exptl_crystal_description       prism
_cell_formula_units_Z            4
loop_
_atom_site_label
_atom_site_type_symbol
_atom_site_fract_x
_atom_site_fract_y
_atom_site_fract_z
C1 C 0.71818(10) 0.08864(12) 0.52281(11)
O1 O 0.67706(8) 0.07492(9) 0.37747(8)
N1 N 0.62728(9) 0.14846(10) 0.56535(10)
F1 F 0.87780(7) 0.18577(9) 0.70468(8)
C2 C 0.82481(11) 0.18330(13) 0.56249(13)
C3 C 0.74253(11) -0.03854(12) 0.60083(12)
O2 O 0.51262(9) 0.09660(11) 0.69127(10)
F2 F 0.90883(8) 0.13238(9) 0.51902(11)
C4 C 0.69443(14) 0.37124(14) 0.55902(16)
C5 C 0.59207(11) 0.07024(12) 0.64723(12)
C6 C 0.58663(13) 0.28102(14) 0.52205(15)
C7 C 0.78884(12) 0.31966(14) 0.50699(14)
C8 C 0.66578(12) -0.04904(13) 0.67139(12)
C9 C 0.66517(15) -0.15956(16) 0.74783(14)
C10 C 0.82256(14) -0.13685(14) 0.60526(16)
C11 C 0.82078(18) -0.24732(16) 0.6821(2)
C12 C 0.7431(2) -0.25882(17) 0.75085(18)
C13 C 0.89694(17) 0.40962(18) 0.5424(2)
H1 H 0.6125 0.0146 0.3531
H2 H 0.6688 0.4554 0.5184
H3 H 0.7315 0.3797 0.6581
H4 H 0.5428 0.2824 0.4235
H5 H 0.5355 0.3096 0.5681
H6 H 0.7544 0.3140 0.4076
H7 H 0.6116 -0.1638 0.7963
H8 H 0.8750 -0.1261 0.5560
H9 H 0.8746 -0.3183 0.6890
H10 H 0.7440 -0.3379 0.8004
H11 H 0.8705 0.4948 0.5055
H12 H 0.9508 0.3757 0.5025
H13 H 0.9376 0.4151 0.6414
loop_
_geom_bond_atom_site_label_1
_geom_bond_atom_site_label_2
_geom_bond_site_symmetry_1
_geom_bond_site_symmetry_2
C1 O1 1_555 1_555
O1 H1 1_555 1_555
N1 C1 1_555 1_555
F1 C2 1_555 1_555
C2 C1 1_555 1_555
C3 C1 1_555 1_555
O2 C5 1_555 1_555
F2 C2 1_555 1_555
C4 C6 1_555 1_555
C5 N1 1_555 1_555
C6 N1 1_555 1_555
C7 C2 1_555 1_555
C8 C3 1_555 1_555
C9 C8 1_555 1_555
C10 C3 1_555 1_555
C11 C10 1_555 1_555
C12 C9 1_555 1_555
C13 C7 1_555 1_555
H2 C4 1_555 1_555
H3 C4 1_555 1_555
H4 C6 1_555 1_555
H5 C6 1_555 1_555
H6 C7 1_555 1_555
H7 C9 1_555 1_555
H8 C10 1_555 1_555
H9 C11 1_555 1_555
H10 C12 1_555 1_555
H11 C13 1_555 1_555
H12 C13 1_555 1_555
H13 C13 1_555 1_555
C4 C7 1_555 1_555
C5 C8 1_555 1_555
C11 C12 1_555 1_555

#END
