
#######################################################################
#
#                 Cambridge Crystallographic Data Centre
#                                CCDC 
#
#######################################################################
#
# If this CIF has been generated from an entry in the Cambridge 
# Structural Database, then it will include bibliographic, chemical, 
# crystal, experimental, refinement or atomic coordinate data resulting 
# from the CCDC's data processing and validation procedures.
#
#######################################################################

data_GUGHEV
_chemical_compound_source        
'fermentation broth of Streptomyces GT 041230, 051024 or S 1096'
_chemical_name_common            'Gabosine N'
_chemical_formula_moiety         'C7 H10 O4'
_chemical_name_systematic        
(4R,5R,6R)-4,5,6-Trihydroxy-2-methyl-2-cyclohexanone
_chemical_properties_biological  'DNA-binding activity'
_symmetry_cell_setting           orthorhombic
_symmetry_space_group_name_H-M   'P 21 21 21'
_symmetry_Int_Tables_number      19
_space_group_name_Hall           'P 2ac 2ab'
loop_
_symmetry_equiv_pos_site_id
_symmetry_equiv_pos_as_xyz
1 x,y,z
2 1/2-x,-y,1/2+z
3 -x,1/2+y,1/2-z
4 1/2+x,1/2-y,-z
_cell_length_a                   4.6235(8)
_cell_length_b                   10.5676(18)
_cell_length_c                   14.704(2)
_cell_angle_alpha                90
_cell_angle_beta                 90
_cell_angle_gamma                90
_cell_volume                     718.427
_exptl_crystal_colour            colorless
_exptl_crystal_description       blocks
_chemical_melting_point          182.5-183.3deg.C
_cell_formula_units_Z            4
_exptl_crystal_recrystallization_method methanol
loop_
_atom_site_label
_atom_site_type_symbol
_atom_site_fract_x
_atom_site_fract_y
_atom_site_fract_z
O1 O -0.0170(5) 0.2884(2) 0.13389(15)
O2 O 0.1788(5) 0.78336(19) 0.14467(16)
H1 H 0.331(6) 0.814(3) 0.166(2)
O3 O -0.0528(5) 0.5772(2) 0.25089(15)
H2 H -0.081(8) 0.639(3) 0.285(2)
O4 O 0.3304(5) 0.3615(2) 0.27363(16)
H3 H 0.157(5) 0.350(4) 0.296(2)
C1 C 0.1012(7) 0.3925(3) 0.1260(2)
C2 C 0.0361(8) 0.4758(3) 0.0483(2)
C3 C 0.1140(8) 0.5985(3) 0.0540(2)
H4 H 0.0644 0.6527 0.0049
C4 C 0.2733(7) 0.6546(3) 0.1327(2)
H5 H 0.4839 0.6560 0.1172
C5 C 0.2362(7) 0.5775(3) 0.2186(2)
H6 H 0.3686 0.6100 0.2670
C6 C 0.3119(8) 0.4397(3) 0.1963(2)
H7 H 0.5074 0.4401 0.1672
C7 C -0.1232(9) 0.4196(3) -0.0305(2)
H8 H -0.3066 0.3837 -0.0093
H9 H -0.0054 0.3528 -0.0581
H10 H -0.1620 0.4856 -0.0757
loop_
_geom_bond_atom_site_label_1
_geom_bond_atom_site_label_2
_geom_bond_site_symmetry_1
_geom_bond_site_symmetry_2
O1 C1 1_555 1_555
O2 H1 1_555 1_555
O3 H2 1_555 1_555
O4 H3 1_555 1_555
C1 C2 1_555 1_555
C2 C3 1_555 1_555
C3 H4 1_555 1_555
C4 O2 1_555 1_555
H5 C4 1_555 1_555
C5 O3 1_555 1_555
H6 C5 1_555 1_555
C6 O4 1_555 1_555
H7 C6 1_555 1_555
C7 C2 1_555 1_555
H8 C7 1_555 1_555
H9 C7 1_555 1_555
H10 C7 1_555 1_555
C1 C6 1_555 1_555
C3 C4 1_555 1_555
C4 C5 1_555 1_555
C5 C6 1_555 1_555

#END
