
#######################################################################
#
#                 Cambridge Crystallographic Data Centre
#                                CCDC 
#
#######################################################################
#
# If this CIF has been generated from an entry in the Cambridge 
# Structural Database, then it will include bibliographic, chemical, 
# crystal, experimental, refinement or atomic coordinate data resulting 
# from the CCDC's data processing and validation procedures.
#
#######################################################################

data_GUGLUR
_chemical_formula_moiety         'C10 H10 Cl1 N1 O1'
_chemical_name_systematic        3-Amino-1-(4-chlorophenyl)but-2-en-1-one
_symmetry_cell_setting           orthorhombic
_symmetry_space_group_name_H-M   'P c c n'
_symmetry_Int_Tables_number      56
_space_group_name_Hall           '-P 2ab 2ac'
loop_
_symmetry_equiv_pos_site_id
_symmetry_equiv_pos_as_xyz
1 x,y,z
2 1/2-x,1/2-y,z
3 1/2+x,-y,1/2-z
4 -x,1/2+y,1/2-z
5 -x,-y,-z
6 1/2+x,1/2+y,-z
7 1/2-x,y,1/2+z
8 x,1/2-y,1/2+z
_cell_length_a                   8.0757(4)
_cell_length_b                   26.8322(14)
_cell_length_c                   9.4110(5)
_cell_angle_alpha                90
_cell_angle_beta                 90
_cell_angle_gamma                90
_cell_volume                     2039.26
_exptl_crystal_colour            colorless
_exptl_crystal_description       platelet
_cell_formula_units_Z            8
loop_
_atom_site_label
_atom_site_type_symbol
_atom_site_fract_x
_atom_site_fract_y
_atom_site_fract_z
Cl1 Cl -0.03925(9) 0.00550(3) 0.81425(7)
O1 O 0.1077(3) 0.20029(6) 0.39831(19)
N1 N 0.0538(3) 0.23462(8) 0.1395(3)
H1 H 0.105(4) 0.2371(12) 0.230(4)
H2 H 0.066(3) 0.2552(12) 0.067(3)
C1 C -0.1014(3) 0.08291(8) 0.4581(2)
H3 H -0.1676 0.0808 0.3775
C2 C -0.1178(3) 0.04761(9) 0.5639(2)
H4 H -0.1954 0.0222 0.5550
C3 C -0.0191(3) 0.05028(9) 0.6818(2)
C4 C 0.0961(3) 0.08753(10) 0.6957(3)
H5 H 0.1641 0.0888 0.7754
C5 C 0.1100(3) 0.12293(9) 0.5908(3)
H6 H 0.1870 0.1485 0.6012
C6 C 0.0124(2) 0.12152(8) 0.4702(2)
C7 C 0.0308(3) 0.16193(8) 0.3613(2)
C8 C -0.0322(3) 0.15605(9) 0.2244(2)
H7 H -0.0872 0.1265 0.2032
C9 C -0.0179(3) 0.19126(10) 0.1186(3)
C10 C -0.0768(5) 0.18148(14) -0.0294(3)
H8 H -0.1563 0.2064 -0.0559
H9 H -0.1274 0.1491 -0.0337
H10 H 0.0155 0.1826 -0.0936
loop_
_geom_bond_atom_site_label_1
_geom_bond_atom_site_label_2
_geom_bond_site_symmetry_1
_geom_bond_site_symmetry_2
Cl1 C3 1_555 1_555
O1 C7 1_555 1_555
N1 H1 1_555 1_555
H2 N1 1_555 1_555
C1 H3 1_555 1_555
C2 C1 1_555 1_555
H4 C2 1_555 1_555
C3 C2 1_555 1_555
C4 C3 1_555 1_555
H5 C4 1_555 1_555
C5 C4 1_555 1_555
H6 C5 1_555 1_555
C6 C1 1_555 1_555
C7 C6 1_555 1_555
C8 C7 1_555 1_555
H7 C8 1_555 1_555
C9 N1 1_555 1_555
C10 C9 1_555 1_555
H8 C10 1_555 1_555
H9 C10 1_555 1_555
H10 C10 1_555 1_555
C5 C6 1_555 1_555
C8 C9 1_555 1_555

#END
