
#######################################################################
#
#                 Cambridge Crystallographic Data Centre
#                                CCDC 
#
#######################################################################
#
# If this CIF has been generated from an entry in the Cambridge 
# Structural Database, then it will include bibliographic, chemical, 
# crystal, experimental, refinement or atomic coordinate data resulting 
# from the CCDC's data processing and validation procedures.
#
#######################################################################

data_GUGMAY
_chemical_formula_moiety         'C8 H9 N1 O2'
_chemical_name_systematic        3-Amino-1-(2-furyl)but-2-en-1-one
_symmetry_cell_setting           triclinic
_symmetry_space_group_name_H-M   'P -1'
_symmetry_Int_Tables_number      2
_space_group_name_Hall           '-P 1'
loop_
_symmetry_equiv_pos_site_id
_symmetry_equiv_pos_as_xyz
1 x,y,z
2 -x,-y,-z
_cell_length_a                   9.2279(6)
_cell_length_b                   9.3829(9)
_cell_length_c                   9.5326(5)
_cell_angle_alpha                94.307(6)
_cell_angle_beta                 90.066(5)
_cell_angle_gamma                91.582(7)
_cell_volume                     822.726
_exptl_crystal_colour            colorless
_exptl_crystal_description       platelet
_cell_formula_units_Z            4
loop_
_atom_site_label
_atom_site_type_symbol
_atom_site_fract_x
_atom_site_fract_y
_atom_site_fract_z
C2 C 0.2857(3) 0.7961(2) 0.2295(3)
H2 H 0.2637 0.7080 0.1820
O2 O 0.2975(2) 0.97639(19) 0.3933(2)
N1 N -0.0210(2) 0.6699(2) 0.68723(19)
H3 H 0.000(3) 0.613(2) 0.612(2)
H4 H -0.075(2) 0.634(3) 0.757(2)
O3 O 0.11458(16) 0.64500(15) 0.43502(14)
C3 C 0.3691(3) 0.9096(3) 0.1783(4)
H5 H 0.4132 0.9103 0.0907
C4 C 0.3720(4) 1.0134(3) 0.2778(4)
H6 H 0.4191 1.1015 0.2706
C5 C 0.2444(2) 0.8406(2) 0.3610(2)
C6 C 0.1548(2) 0.7727(2) 0.4653(2)
C7 C 0.1176(2) 0.8528(2) 0.5901(2)
H7 H 0.1520 0.9470 0.6027
C8 C 0.0333(2) 0.8001(2) 0.6949(2)
C9 C 0.0036(4) 0.8920(3) 0.8270(3)
H8 H -0.0976 0.9131 0.8312
H9 H 0.0600 0.9795 0.8271
H10 H 0.0293 0.8420 0.9073
N2 N 0.0792(2) 0.3701(2) -0.1907(2)
H11 H 0.017(3) 0.369(3) -0.262(3)
H12 H 0.056(3) 0.408(3) -0.103(3)
O4 O 0.53017(15) 0.32527(18) 0.10280(16)
O5 O 0.16806(15) 0.43908(17) 0.07655(13)
C10 C 0.6132(3) 0.3324(3) 0.2215(3)
H13 H 0.7080 0.3016 0.2248
C11 C 0.5420(3) 0.3886(3) 0.3312(3)
H14 H 0.5760 0.4028 0.4232
C12 C 0.4038(2) 0.4230(2) 0.2814(2)
H15 H 0.3295 0.4652 0.3341
C13 C 0.4008(2) 0.3825(2) 0.1429(2)
C14 C 0.28655(19) 0.3864(2) 0.03571(18)
C15 C 0.3138(2) 0.3313(2) -0.1021(2)
H16 H 0.4054 0.2966 -0.1226
C16 C 0.2127(2) 0.3257(2) -0.20942(19)
C17 C 0.2517(3) 0.2695(3) -0.3555(2)
H17 H 0.1742 0.2085 -0.3944
H18 H 0.3387 0.2160 -0.3525
H19 H 0.2672 0.3480 -0.4132
O1? O 0.2857(3) 0.7961(2) 0.2295(3)
C1? C 0.2975(2) 0.97639(19) 0.3933(2)
H1? H 0.2853 1.0321 0.4771
loop_
_geom_bond_atom_site_label_1
_geom_bond_atom_site_label_2
_geom_bond_site_symmetry_1
_geom_bond_site_symmetry_2
C2 H2 1_555 1_555
O2 C4 1_555 1_555
N1 H3 1_555 1_555
H4 N1 1_555 1_555
O3 C6 1_555 1_555
C3 C2 1_555 1_555
H5 C3 1_555 1_555
C4 C3 1_555 1_555
H6 C4 1_555 1_555
C5 C2 1_555 1_555
C6 C5 1_555 1_555
C7 C6 1_555 1_555
H7 C7 1_555 1_555
C8 N1 1_555 1_555
C9 C8 1_555 1_555
H8 C9 1_555 1_555
H9 C9 1_555 1_555
H10 C9 1_555 1_555
N2 H11 1_555 1_555
H12 N2 1_555 1_555
O4 C10 1_555 1_555
O5 C14 1_555 1_555
C10 H13 1_555 1_555
C11 C10 1_555 1_555
H14 C11 1_555 1_555
C12 C11 1_555 1_555
H15 C12 1_555 1_555
C13 O4 1_555 1_555
C14 C13 1_555 1_555
C15 C14 1_555 1_555
H16 C15 1_555 1_555
C16 N2 1_555 1_555
C17 C16 1_555 1_555
H17 C17 1_555 1_555
H18 C17 1_555 1_555
H19 C17 1_555 1_555
O2 C5 1_555 1_555
C7 C8 1_555 1_555
C12 C13 1_555 1_555
C15 C16 1_555 1_555

#END
