
#######################################################################
#
#                 Cambridge Crystallographic Data Centre
#                                CCDC 
#
#######################################################################
#
# If this CIF has been generated from an entry in the Cambridge 
# Structural Database, then it will include bibliographic, chemical, 
# crystal, experimental, refinement or atomic coordinate data resulting 
# from the CCDC's data processing and validation procedures.
#
#######################################################################

data_GUGMOM
_chemical_formula_moiety         'C15 H19 N3'
_chemical_name_systematic        
N,N,N',N'-Tetramethyl-6-phenylpyridine-2,4-diamine
_symmetry_cell_setting           monoclinic
_symmetry_space_group_name_H-M   'P 21/c'
_symmetry_Int_Tables_number      14
_space_group_name_Hall           '-P 2ybc'
loop_
_symmetry_equiv_pos_site_id
_symmetry_equiv_pos_as_xyz
1 x,y,z
2 -x,1/2+y,1/2-z
3 -x,-y,-z
4 x,1/2-y,1/2+z
_cell_length_a                   15.3125(4)
_cell_length_b                   7.2109(2)
_cell_length_c                   24.5888(6)
_cell_angle_alpha                90
_cell_angle_beta                 102.956(2)
_cell_angle_gamma                90
_cell_volume                     2645.9
_exptl_crystal_colour            brown
_exptl_crystal_description       prism
_cell_formula_units_Z            8
loop_
_atom_site_label
_atom_site_type_symbol
_atom_site_fract_x
_atom_site_fract_y
_atom_site_fract_z
N1 N 0.22580(9) 0.1861(2) 0.41836(6)
N2 N -0.07153(9) 0.1730(2) 0.30006(5)
N3 N 0.20719(8) 0.17279(18) 0.32162(5)
C1 C 0.15176(10) 0.2296(2) 0.17080(6)
H1 H 0.0981 0.2988 0.1678
C2 C 0.18768(10) 0.2073(2) 0.12427(6)
H2 H 0.1583 0.2604 0.0896
C3 C 0.26604(10) 0.1083(2) 0.12798(6)
H3 H 0.2900 0.0911 0.0959
C4 C 0.30943(10) 0.0343(2) 0.17889(6)
H4 H 0.3639 -0.0320 0.1818
C5 C 0.27364(9) 0.0568(2) 0.22565(6)
H5 H 0.3042 0.0069 0.2605
C6 C 0.19332(9) 0.1518(2) 0.22187(6)
C7 C 0.15134(10) 0.1644(2) 0.27092(6)
C8 C 0.05965(9) 0.1640(2) 0.26170(6)
H6 H 0.0239 0.1561 0.2248
C9 C 0.01955(10) 0.1754(2) 0.30757(6)
C10 C -0.12947(12) 0.1634(3) 0.24465(7)
H7 H -0.1248 0.2791 0.2246
H8 H -0.1916 0.1455 0.2477
H9 H -0.1112 0.0590 0.2242
C11 C -0.11218(11) 0.2111(3) 0.34661(7)
H10 H -0.0931 0.1170 0.3756
H11 H -0.1776 0.2081 0.3339
H12 H -0.0934 0.3339 0.3619
C12 C 0.07607(10) 0.1863(2) 0.36075(6)
H13 H 0.0513 0.1967 0.3928
C13 C 0.16932(10) 0.1819(2) 0.36676(6)
C14 C 0.19179(12) 0.2039(3) 0.46838(7)
H14 H 0.1621 0.3244 0.4683
H15 H 0.2415 0.1951 0.5012
H16 H 0.1486 0.1045 0.4695
C15 C 0.32193(11) 0.1895(3) 0.42465(8)
H17 H 0.3373 0.1363 0.3913
H18 H 0.3504 0.1168 0.4575
H19 H 0.3433 0.3179 0.4294
N4 N 0.12980(9) 0.8067(2) -0.03966(6)
N5 N 0.41462(9) 0.8152(2) -0.09324(6)
N6 N 0.26157(9) 0.75168(18) 0.02655(5)
C16 C 0.47904(10) 0.7539(2) 0.12423(6)
H20 H 0.5116 0.8285 0.1038
C17 C 0.51735(10) 0.7063(2) 0.17910(7)
H21 H 0.5759 0.7488 0.1960
C18 C 0.47079(11) 0.5975(3) 0.20916(7)
H22 H 0.4974 0.5643 0.2466
C19 C 0.38532(11) 0.5369(2) 0.18461(7)
H23 H 0.3530 0.4622 0.2052
C20 C 0.34692(10) 0.5854(2) 0.13005(6)
H24 H 0.2879 0.5445 0.1136
C21 C 0.39332(9) 0.6930(2) 0.09891(6)
C22 C 0.35164(10) 0.7391(2) 0.03969(6)
C23 C 0.40466(10) 0.7604(2) 0.00202(6)
H25 H 0.4680 0.7514 0.0137
C24 C 0.36392(11) 0.7957(2) -0.05401(6)
C25 C 0.27055(11) 0.8095(2) -0.06859(6)
H26 H 0.2406 0.8328 -0.1062
C26 C 0.22176(10) 0.7888(2) -0.02729(6)
C27 C 0.08080(13) 0.7716(3) 0.00304(8)
H27 H 0.0798 0.6380 0.0101
H28 H 0.0193 0.8172 -0.0095
H29 H 0.1101 0.8358 0.0374
C28 C 0.08053(11) 0.8231(3) -0.09685(7)
H30 H 0.1039 0.9279 -0.1146
H31 H 0.0170 0.8437 -0.0977
H32 H 0.0873 0.7087 -0.1171
C29 C 0.36983(14) 0.8216(3) -0.15177(7)
H33 H 0.3319 0.7115 -0.1612
H34 H 0.4147 0.8242 -0.1746
H35 H 0.3326 0.9333 -0.1590
C30 C 0.50922(12) 0.7664(3) -0.07916(9)
H36 H 0.5413 0.8504 -0.0501
H37 H 0.5340 0.7774 -0.1125
H38 H 0.5160 0.6384 -0.0654
loop_
_geom_bond_atom_site_label_1
_geom_bond_atom_site_label_2
_geom_bond_site_symmetry_1
_geom_bond_site_symmetry_2
N1 C13 1_555 1_555
N2 C9 1_555 1_555
N3 C7 1_555 1_555
C1 H1 1_555 1_555
C2 C1 1_555 1_555
H2 C2 1_555 1_555
C3 C2 1_555 1_555
H3 C3 1_555 1_555
C4 C3 1_555 1_555
H4 C4 1_555 1_555
C5 C4 1_555 1_555
H5 C5 1_555 1_555
C6 C1 1_555 1_555
C7 C6 1_555 1_555
C8 C7 1_555 1_555
H6 C8 1_555 1_555
C9 C8 1_555 1_555
C10 N2 1_555 1_555
H7 C10 1_555 1_555
H8 C10 1_555 1_555
H9 C10 1_555 1_555
C11 N2 1_555 1_555
H10 C11 1_555 1_555
H11 C11 1_555 1_555
H12 C11 1_555 1_555
C12 C9 1_555 1_555
H13 C12 1_555 1_555
C13 N3 1_555 1_555
C14 N1 1_555 1_555
H14 C14 1_555 1_555
H15 C14 1_555 1_555
H16 C14 1_555 1_555
C15 N1 1_555 1_555
H17 C15 1_555 1_555
H18 C15 1_555 1_555
H19 C15 1_555 1_555
N4 C26 1_555 1_555
N5 C24 1_555 1_555
N6 C22 1_555 1_555
C16 H20 1_555 1_555
C17 C16 1_555 1_555
H21 C17 1_555 1_555
C18 C17 1_555 1_555
H22 C18 1_555 1_555
C19 C18 1_555 1_555
H23 C19 1_555 1_555
C20 C19 1_555 1_555
H24 C20 1_555 1_555
C21 C16 1_555 1_555
C22 C21 1_555 1_555
C23 C22 1_555 1_555
H25 C23 1_555 1_555
C24 C23 1_555 1_555
C25 C24 1_555 1_555
H26 C25 1_555 1_555
C26 N6 1_555 1_555
C27 N4 1_555 1_555
H27 C27 1_555 1_555
H28 C27 1_555 1_555
H29 C27 1_555 1_555
C28 N4 1_555 1_555
H30 C28 1_555 1_555
H31 C28 1_555 1_555
H32 C28 1_555 1_555
C29 N5 1_555 1_555
H33 C29 1_555 1_555
H34 C29 1_555 1_555
H35 C29 1_555 1_555
C30 N5 1_555 1_555
H36 C30 1_555 1_555
H37 C30 1_555 1_555
H38 C30 1_555 1_555
C5 C6 1_555 1_555
C12 C13 1_555 1_555
C20 C21 1_555 1_555
C25 C26 1_555 1_555

#END
