
#######################################################################
#
#                 Cambridge Crystallographic Data Centre
#                                CCDC 
#
#######################################################################
#
# If this CIF has been generated from an entry in the Cambridge 
# Structural Database, then it will include bibliographic, chemical, 
# crystal, experimental, refinement or atomic coordinate data resulting 
# from the CCDC's data processing and validation procedures.
#
#######################################################################

data_GUGNAZ
_chemical_formula_moiety         'C14 H18 N4'
_chemical_name_systematic        
N,N,N',N'-Tetramethyl-2,4'-bipyridine-4,6-diamine
_symmetry_cell_setting           orthorhombic
_symmetry_space_group_name_H-M   'F d d 2'
_symmetry_Int_Tables_number      43
_space_group_name_Hall           'F 2 -2d'
loop_
_symmetry_equiv_pos_site_id
_symmetry_equiv_pos_as_xyz
1 x,y,z
2 -x,-y,z
3 1/4-x,1/4+y,1/4+z
4 1/4+x,1/4-y,1/4+z
5 x,1/2+y,1/2+z
6 -x,1/2-y,1/2+z
7 1/4-x,3/4+y,3/4+z
8 1/4+x,3/4-y,3/4+z
9 1/2+x,y,1/2+z
10 1/2-x,-y,1/2+z
11 3/4-x,1/4+y,3/4+z
12 3/4+x,1/4-y,3/4+z
13 1/2+x,1/2+y,z
14 1/2-x,1/2-y,z
15 3/4-x,3/4+y,1/4+z
16 3/4+x,3/4-y,1/4+z
_cell_length_a                   16.4792(10)
_cell_length_b                   14.0329(7)
_cell_length_c                   10.9681(6)
_cell_angle_alpha                90
_cell_angle_beta                 90
_cell_angle_gamma                90
_cell_volume                     2536.38
_exptl_crystal_colour            yellow
_exptl_crystal_description       prism
_cell_formula_units_Z            8
loop_
_atom_site_label
_atom_site_type_symbol
_atom_site_fract_x
_atom_site_fract_y
_atom_site_fract_z
N1 N 0.5000 0.5000 0.9150(2)
N2 N 0.35420(10) 0.48530(13) 0.27810(14)
C1 C 0.43980(10) 0.46157(13) 0.84964(19)
H1 H 0.3962 0.4330 0.8929
C2 C 0.43651(9) 0.46050(12) 0.72370(17)
H2 H 0.3914 0.4331 0.6829
C3 C 0.5000 0.5000 0.6577(2)
C4 C 0.5000 0.5000 0.5215(2)
C5 C 0.42670(11) 0.49287(11) 0.33753(15)
C6 C 0.5000 0.5000 0.2741(2)
H3 H 0.5000 0.5000 0.1875
C7 C 0.34927(11) 0.48681(15) 0.14669(17)
H4 H 0.3757 0.4299 0.1136
H5 H 0.3766 0.5439 0.1156
H6 H 0.2922 0.4877 0.1217
C8 C 0.27839(12) 0.47839(15) 0.3438(2)
H7 H 0.2890 0.4578 0.4277
H8 H 0.2430 0.4319 0.3035
H9 H 0.2517 0.5408 0.3449
N3 N 0.42741(9) 0.49351(11) 0.46412(14)
N2A N 0.64580(10) 0.51470(13) 0.27810(14)
C1A C 0.56020(10) 0.53843(13) 0.84964(19)
H1A H 0.6038 0.5670 0.8929
C2A C 0.56349(9) 0.53950(12) 0.72370(17)
H2A H 0.6086 0.5669 0.6829
C5A C 0.57330(11) 0.50713(11) 0.33753(15)
C7A C 0.65073(11) 0.51319(15) 0.14669(17)
H4A H 0.6243 0.5701 0.1136
H5A H 0.6234 0.4561 0.1156
H6A H 0.7078 0.5123 0.1217
C8A C 0.72161(12) 0.52161(15) 0.3438(2)
H7A H 0.7110 0.5422 0.4277
H8A H 0.7570 0.5681 0.3035
H9A H 0.7483 0.4592 0.3449
N3A N 0.57259(9) 0.50649(11) 0.46412(14)
C9? C 0.42741(9) 0.49351(11) 0.46412(14)
H10? H 0.3783 0.4895 0.5093
loop_
_geom_bond_atom_site_label_1
_geom_bond_atom_site_label_2
_geom_bond_site_symmetry_1
_geom_bond_site_symmetry_2
N1 C1 1_555 1_555
N2 C5 1_555 1_555
C1 H1 1_555 1_555
C2 C1 1_555 1_555
H2 C2 1_555 1_555
C3 C2 1_555 1_555
C4 C3 1_555 1_555
C5 C6 1_555 1_555
C6 H3 1_555 1_555
C7 N2 1_555 1_555
H4 C7 1_555 1_555
H5 C7 1_555 1_555
H6 C7 1_555 1_555
C8 N2 1_555 1_555
H7 C8 1_555 1_555
H8 C8 1_555 1_555
H9 C8 1_555 1_555
N3 C4 1_555 1_555
N2A C5A 1_555 1_555
C1A N1 1_555 1_555
H1A C1A 1_555 1_555
C2A C3 1_555 1_555
H2A C2A 1_555 1_555
C5A C6 1_555 1_555
C7A N2A 1_555 1_555
H4A C7A 1_555 1_555
H5A C7A 1_555 1_555
H6A C7A 1_555 1_555
C8A N2A 1_555 1_555
H7A C8A 1_555 1_555
H8A C8A 1_555 1_555
H9A C8A 1_555 1_555
N3A C4 1_555 1_555
C5 N3 1_555 1_555
C1A C2A 1_555 1_555
C5A N3A 1_555 1_555

#END
