
#######################################################################
#
#                 Cambridge Crystallographic Data Centre
#                                CCDC 
#
#######################################################################
#
# If this CIF has been generated from an entry in the Cambridge 
# Structural Database, then it will include bibliographic, chemical, 
# crystal, experimental, refinement or atomic coordinate data resulting 
# from the CCDC's data processing and validation procedures.
#
#######################################################################

data_GUGROQ
_chemical_formula_moiety         'C20 H24 N2 Si1'
_chemical_name_systematic        
1,3-Dimesityl-2,3-dihydro-1H-1,3,2-diazasilole
_symmetry_cell_setting           monoclinic
_symmetry_space_group_name_H-M   'P 21/c'
_symmetry_Int_Tables_number      14
_space_group_name_Hall           '-P 2ybc'
loop_
_symmetry_equiv_pos_site_id
_symmetry_equiv_pos_as_xyz
1 x,y,z
2 -x,1/2+y,1/2-z
3 -x,-y,-z
4 x,1/2-y,1/2+z
_cell_length_a                   8.2595(17)
_cell_length_b                   13.842(3)
_cell_length_c                   16.171(3)
_cell_angle_alpha                90
_cell_angle_beta                 97.06(3)
_cell_angle_gamma                90
_cell_volume                     1834.78
_exptl_crystal_colour            yellow
_exptl_crystal_description       sheet
_chemical_melting_point          131deg.C
_cell_formula_units_Z            4
loop_
_atom_site_label
_atom_site_type_symbol
_atom_site_fract_x
_atom_site_fract_y
_atom_site_fract_z
Si1 Si 0.78801(12) 0.06976(5) 0.03658(5)
N1 N 0.8798(3) 0.15271(14) 0.10945(12)
N2 N 0.7514(3) 0.16609(14) -0.03258(12)
C1 C 0.9549(3) 0.12984(17) 0.19236(14)
C2 C 0.8571(3) 0.10912(17) 0.25430(15)
C3 C 0.9329(3) 0.08405(17) 0.33339(15)
H1 H 0.8689 0.0681 0.3749
C4 C 1.1014(3) 0.08231(17) 0.35154(15)
C5 C 1.1943(3) 0.10519(18) 0.28925(15)
H2 H 1.3073 0.1059 0.3015
C6 C 1.1253(3) 0.12721(18) 0.20875(15)
C7 C 1.2320(3) 0.1428(2) 0.14072(16)
H3 H 1.3418 0.1557 0.1652
H4 H 1.1917 0.1967 0.1070
H5 H 1.2305 0.0859 0.1067
C8 C 0.6737(3) 0.11383(19) 0.23847(17)
H6 H 0.6416 0.1684 0.2037
H7 H 0.6300 0.1203 0.2905
H8 H 0.6326 0.0557 0.2111
C9 C 1.1796(4) 0.0562(2) 0.43861(16)
H9 H 1.2961 0.0598 0.4409
H10 H 1.1486 -0.0083 0.4518
H11 H 1.1434 0.1005 0.4781
C10 C 0.8796(3) 0.24674(17) 0.07919(16)
H12 H 0.9245 0.2989 0.1102
C11 C 0.8079(3) 0.25408(18) 0.00058(16)
H13 H 0.7971 0.3120 -0.0287
C12 C 0.6683(3) 0.15914(16) -0.11614(15)
C13 C 0.7575(3) 0.13740(17) -0.18170(15)
C14 C 0.6704(3) 0.12309(17) -0.26068(15)
H14 H 0.7274 0.1082 -0.3052
C15 C 0.5029(3) 0.13038(17) -0.27457(15)
C16 C 0.4188(3) 0.15484(18) -0.20875(15)
H15 H 0.3060 0.1617 -0.2182
C17 C 0.4984(3) 0.16955(16) -0.12840(15)
C18 C 0.4036(4) 0.1957(2) -0.05800(17)
H16 H 0.4127 0.1446 -0.0176
H17 H 0.2909 0.2049 -0.0792
H18 H 0.4465 0.2544 -0.0322
C19 C 0.9399(3) 0.1313(2) -0.16994(18)
H19 H 0.9851 0.1951 -0.1635
H20 H 0.9764 0.1010 -0.2177
H21 H 0.9751 0.0938 -0.1211
C20 C 0.4142(4) 0.1109(2) -0.36092(16)
H22 H 0.4517 0.1553 -0.4000
H23 H 0.2990 0.1193 -0.3601
H24 H 0.4357 0.0459 -0.3772
loop_
_geom_bond_atom_site_label_1
_geom_bond_atom_site_label_2
_geom_bond_site_symmetry_1
_geom_bond_site_symmetry_2
Si1 N1 1_555 1_555
N1 C1 1_555 1_555
N2 Si1 1_555 1_555
C1 C2 1_555 1_555
C2 C3 1_555 1_555
C3 H1 1_555 1_555
C4 C3 1_555 1_555
C5 C4 1_555 1_555
H2 C5 1_555 1_555
C6 C1 1_555 1_555
C7 C6 1_555 1_555
H3 C7 1_555 1_555
H4 C7 1_555 1_555
H5 C7 1_555 1_555
C8 C2 1_555 1_555
H6 C8 1_555 1_555
H7 C8 1_555 1_555
H8 C8 1_555 1_555
C9 C4 1_555 1_555
H9 C9 1_555 1_555
H10 C9 1_555 1_555
H11 C9 1_555 1_555
C10 N1 1_555 1_555
H12 C10 1_555 1_555
C11 N2 1_555 1_555
H13 C11 1_555 1_555
C12 N2 1_555 1_555
C13 C12 1_555 1_555
C14 C13 1_555 1_555
H14 C14 1_555 1_555
C15 C14 1_555 1_555
C16 C15 1_555 1_555
H15 C16 1_555 1_555
C17 C12 1_555 1_555
C18 C17 1_555 1_555
H16 C18 1_555 1_555
H17 C18 1_555 1_555
H18 C18 1_555 1_555
C19 C13 1_555 1_555
H19 C19 1_555 1_555
H20 C19 1_555 1_555
H21 C19 1_555 1_555
C20 C15 1_555 1_555
H22 C20 1_555 1_555
H23 C20 1_555 1_555
H24 C20 1_555 1_555
C5 C6 1_555 1_555
C10 C11 1_555 1_555
C16 C17 1_555 1_555

#END
