
#######################################################################
#
#                 Cambridge Crystallographic Data Centre
#                                CCDC 
#
#######################################################################
#
# If this CIF has been generated from an entry in the Cambridge 
# Structural Database, then it will include bibliographic, chemical, 
# crystal, experimental, refinement or atomic coordinate data resulting 
# from the CCDC's data processing and validation procedures.
#
#######################################################################

data_GUGREG
_chemical_formula_moiety         'C26 H36 N2 Si1'
_chemical_name_systematic        
1,3-bis(2,6-Di-isopropylphenyl)-2,3-dihydro-1H-1,3,2-diazasilole
_symmetry_cell_setting           monoclinic
_symmetry_space_group_name_H-M   'C 2'
_symmetry_Int_Tables_number      5
_space_group_name_Hall           'C 2y'
loop_
_symmetry_equiv_pos_site_id
_symmetry_equiv_pos_as_xyz
1 x,y,z
2 -x,y,-z
3 1/2+x,1/2+y,z
4 1/2-x,1/2+y,-z
_cell_length_a                   20.089(4)
_cell_length_b                   6.4762(13)
_cell_length_c                   20.300(4)
_cell_angle_alpha                90
_cell_angle_beta                 102.71(3)
_cell_angle_gamma                90
_cell_volume                     2576.32
_exptl_crystal_colour            yellow
_exptl_crystal_description       sheet
_chemical_melting_point          110-112deg.C
_cell_formula_units_Z            4
_exptl_crystal_recrystallization_method n-hexane
loop_
_atom_site_label
_atom_site_type_symbol
_atom_site_fract_x
_atom_site_fract_y
_atom_site_fract_z
C1 C 0.25822(9) 0.6686(3) 0.35652(8)
C2 C 0.32264(9) 0.7008(3) 0.39940(9)
C3 C 0.32638(9) 0.8214(4) 0.45751(9)
H1 H 0.3694 0.8423 0.4875
C4 C 0.26886(9) 0.9100(4) 0.47197(9)
H2 H 0.2723 0.9896 0.5119
C5 C 0.20601(9) 0.8828(4) 0.42823(9)
H3 H 0.1669 0.9485 0.4377
C6 C 0.19921(8) 0.7595(3) 0.37010(8)
C7 C 0.38730(9) 0.6066(4) 0.38438(10)
H4 H 0.3756 0.5494 0.3375
C8 C 0.41268(11) 0.4280(5) 0.43277(13)
H5 H 0.4524 0.3636 0.4205
H6 H 0.3763 0.3254 0.4297
H7 H 0.4256 0.4807 0.4791
C9 C 0.44321(10) 0.7685(6) 0.38716(12)
H8 H 0.4261 0.8802 0.3554
H9 H 0.4830 0.7043 0.3749
H10 H 0.4564 0.8247 0.4330
C10 C 0.12896(9) 0.7172(3) 0.32520(10)
H11 H 0.1355 0.6679 0.2804
C11 C 0.09392(12) 0.5457(6) 0.35639(13)
H12 H 0.1219 0.4203 0.3608
H13 H 0.0490 0.5176 0.3273
H14 H 0.0883 0.5891 0.4011
C12 C 0.08441(11) 0.9104(5) 0.31353(12)
H15 H 0.0749 0.9563 0.3565
H16 H 0.0414 0.8788 0.2817
H17 H 0.1084 1.0201 0.2949
C13 C 0.24339(9) 0.1795(3) 0.14224(8)
C14 C 0.30206(8) 0.0826(3) 0.12974(8)
C15 C 0.29416(9) -0.0486(3) 0.07366(8)
H18 H 0.3332 -0.1163 0.0647
C16 C 0.23093(9) -0.0826(4) 0.03078(9)
H19 H 0.2269 -0.1707 -0.0073
C17 C 0.17386(9) 0.0139(3) 0.04441(9)
H20 H 0.1306 -0.0092 0.0153
C18 C 0.17863(8) 0.1448(3) 0.10031(8)
C19 C 0.37274(9) 0.1257(4) 0.17368(9)
H21 H 0.3668 0.1808 0.2181
C20 C 0.41682(11) -0.0683(5) 0.18710(13)
H22 H 0.3942 -0.1712 0.2101
H23 H 0.4614 -0.0333 0.2157
H24 H 0.4232 -0.1249 0.1441
C21 C 0.40802(12) 0.2904(7) 0.14016(14)
H25 H 0.4113 0.2434 0.0951
H26 H 0.4539 0.3151 0.1676
H27 H 0.3816 0.4187 0.1362
C22 C 0.11449(9) 0.2441(4) 0.11462(10)
H28 H 0.1268 0.3089 0.1604
C23 C 0.05885(10) 0.0834(5) 0.11539(13)
H29 H 0.0423 0.0285 0.0697
H30 H 0.0209 0.1481 0.1309
H31 H 0.0776 -0.0295 0.1461
C24 C 0.08829(10) 0.4145(5) 0.06326(12)
H32 H 0.1243 0.5176 0.0644
H33 H 0.0484 0.4807 0.0745
H34 H 0.0755 0.3544 0.0179
N1 N 0.2553(3) 0.5542(6) 0.29405(18)
N2 N 0.2514(4) 0.3307(6) 0.1962(2)
C25 C 0.25493(15) 0.6657(7) 0.23376(17)
H35 H 0.2561 0.8121 0.2313
C26 C 0.25268(14) 0.5361(5) 0.1787(2)
H36 H 0.2521 0.5834 0.1343
Si1 Si 0.25165(5) 0.28469(16) 0.28245(5)
C27? C 0.2466(4) 0.3127(15) 0.3217(5)
C28? C 0.2453(4) 0.193(2) 0.2682(5)
H37? H 0.2473 0.2653 0.3661
H38? H 0.2445 0.0465 0.2714
N3? N 0.2469(8) 0.5170(15) 0.3022(4)
N4? N 0.2453(10) 0.2949(14) 0.2053(5)
Si2? Si 0.24920(10) 0.5656(4) 0.21747(13)
loop_
_geom_bond_atom_site_label_1
_geom_bond_atom_site_label_2
_geom_bond_site_symmetry_1
_geom_bond_site_symmetry_2
C1 C2 1_555 1_555
C2 C3 1_555 1_555
C3 H1 1_555 1_555
C4 C3 1_555 1_555
H2 C4 1_555 1_555
C5 C4 1_555 1_555
H3 C5 1_555 1_555
C6 C1 1_555 1_555
C7 C2 1_555 1_555
H4 C7 1_555 1_555
C8 C7 1_555 1_555
H5 C8 1_555 1_555
H6 C8 1_555 1_555
H7 C8 1_555 1_555
C9 C7 1_555 1_555
H8 C9 1_555 1_555
H9 C9 1_555 1_555
H10 C9 1_555 1_555
C10 C6 1_555 1_555
H11 C10 1_555 1_555
C11 C10 1_555 1_555
H12 C11 1_555 1_555
H13 C11 1_555 1_555
H14 C11 1_555 1_555
C12 C10 1_555 1_555
H15 C12 1_555 1_555
H16 C12 1_555 1_555
H17 C12 1_555 1_555
C13 C14 1_555 1_555
C14 C15 1_555 1_555
C15 H18 1_555 1_555
C16 C15 1_555 1_555
H19 C16 1_555 1_555
C17 C16 1_555 1_555
H20 C17 1_555 1_555
C18 C13 1_555 1_555
C19 C14 1_555 1_555
H21 C19 1_555 1_555
C20 C19 1_555 1_555
H22 C20 1_555 1_555
H23 C20 1_555 1_555
H24 C20 1_555 1_555
C21 C19 1_555 1_555
H25 C21 1_555 1_555
H26 C21 1_555 1_555
H27 C21 1_555 1_555
C22 C18 1_555 1_555
H28 C22 1_555 1_555
C23 C22 1_555 1_555
H29 C23 1_555 1_555
H30 C23 1_555 1_555
H31 C23 1_555 1_555
C24 C22 1_555 1_555
H32 C24 1_555 1_555
H33 C24 1_555 1_555
H34 C24 1_555 1_555
N1 C1 1_555 1_555
N2 C13 1_555 1_555
C25 N1 1_555 1_555
H35 C25 1_555 1_555
C26 N2 1_555 1_555
H36 C26 1_555 1_555
Si1 N1 1_555 1_555
C5 C6 1_555 1_555
C17 C18 1_555 1_555
N2 Si1 1_555 1_555
C25 C26 1_555 1_555

#END
