
#######################################################################
#
#                 Cambridge Crystallographic Data Centre
#                                CCDC 
#
#######################################################################
#
# If this CIF has been generated from an entry in the Cambridge 
# Structural Database, then it will include bibliographic, chemical, 
# crystal, experimental, refinement or atomic coordinate data resulting 
# from the CCDC's data processing and validation procedures.
#
#######################################################################

data_GUGTIM
_chemical_formula_moiety         'C12 H10 Br1 N1 O1'
_chemical_name_systematic        2-Bromo-N-(2-naphthyl)acetamide
_symmetry_cell_setting           monoclinic
_symmetry_space_group_name_H-M   'P 21/c'
_symmetry_Int_Tables_number      14
_space_group_name_Hall           '-P 2ybc'
loop_
_symmetry_equiv_pos_site_id
_symmetry_equiv_pos_as_xyz
1 x,y,z
2 -x,1/2+y,1/2-z
3 -x,-y,-z
4 x,1/2-y,1/2+z
_cell_length_a                   20.9960(17)
_cell_length_b                   5.8370(16)
_cell_length_c                   8.616(6)
_cell_angle_alpha                90
_cell_angle_beta                 100.784(8)
_cell_angle_gamma                90
_cell_volume                     1037.27
_exptl_crystal_colour            colorless
_exptl_crystal_description       prism
_cell_formula_units_Z            4
_exptl_crystal_recrystallization_method chloroform
loop_
_atom_site_label
_atom_site_type_symbol
_atom_site_fract_x
_atom_site_fract_y
_atom_site_fract_z
Br1 Br 0.581717(11) -0.14000(5) 0.47641(3)
O1 O 0.63085(8) 0.0747(4) 0.1474(2)
N1 N 0.66417(10) 0.3293(4) 0.3464(3)
C1 C 0.56461(12) 0.1271(5) 0.3396(3)
H1 H 0.5266 0.0981 0.2549
H2 H 0.5550 0.2614 0.4015
C2 C 0.62376(12) 0.1749(5) 0.2678(3)
C3 C 0.72299(11) 0.4150(5) 0.3101(3)
C4 C 0.74394(12) 0.6304(5) 0.3736(3)
H3 H 0.7175 0.7147 0.4315
C5 C 0.80167(12) 0.7191(5) 0.3527(3)
H4 H 0.8152 0.8647 0.3959
C6 C 0.84166(12) 0.5961(5) 0.2671(3)
C7 C 0.90285(13) 0.6800(5) 0.2466(3)
H5 H 0.9179 0.8240 0.2901
C8 C 0.94013(12) 0.5552(6) 0.1648(3)
H6 H 0.9812 0.6126 0.1522
C9 C 0.91877(13) 0.3432(5) 0.0989(3)
H7 H 0.9453 0.2584 0.0416
C10 C 0.86007(12) 0.2575(5) 0.1164(3)
H8 H 0.8460 0.1134 0.0714
C11 C 0.82011(12) 0.3819(4) 0.2010(3)
C12 C 0.75965(12) 0.2927(5) 0.2242(3)
H9 H 0.7448 0.1488 0.1802
H10 H 0.6543(13) 0.383(5) 0.416(4)
loop_
_geom_bond_atom_site_label_1
_geom_bond_atom_site_label_2
_geom_bond_site_symmetry_1
_geom_bond_site_symmetry_2
Br1 C1 1_555 1_555
O1 C2 1_555 1_555
N1 C2 1_555 1_555
C1 H1 1_555 1_555
H2 C1 1_555 1_555
C2 C1 1_555 1_555
C3 N1 1_555 1_555
C4 C3 1_555 1_555
H3 C4 1_555 1_555
C5 C4 1_555 1_555
H4 C5 1_555 1_555
C6 C5 1_555 1_555
C7 C6 1_555 1_555
H5 C7 1_555 1_555
C8 C7 1_555 1_555
H6 C8 1_555 1_555
C9 C8 1_555 1_555
H7 C9 1_555 1_555
C10 C9 1_555 1_555
H8 C10 1_555 1_555
C11 C6 1_555 1_555
C12 C3 1_555 1_555
H9 C12 1_555 1_555
H10 N1 1_555 1_555
C10 C11 1_555 1_555
C11 C12 1_555 1_555

#END
