
#######################################################################
#
#                 Cambridge Crystallographic Data Centre
#                                CCDC 
#
#######################################################################
#
# If this CIF has been generated from an entry in the Cambridge 
# Structural Database, then it will include bibliographic, chemical, 
# crystal, experimental, refinement or atomic coordinate data resulting 
# from the CCDC's data processing and validation procedures.
#
#######################################################################

data_GUGWUB
_chemical_formula_moiety         'C56 H54 N4 O13,2(C1 H2 Cl2)'
_chemical_name_systematic        
'5,10,15,20-tetrakis(3,4,5-Trimethoxyphenyl)porphin-21-ium-22(23H)-olate dichloromethane solvate'
_symmetry_cell_setting           monoclinic
_symmetry_space_group_name_H-M   'P 21/c'
_symmetry_Int_Tables_number      14
_space_group_name_Hall           '-P 2ybc'
loop_
_symmetry_equiv_pos_site_id
_symmetry_equiv_pos_as_xyz
1 x,y,z
2 -x,1/2+y,1/2-z
3 -x,-y,-z
4 x,1/2-y,1/2+z
_cell_length_a                   14.870(5)
_cell_length_b                   17.144(6)
_cell_length_c                   11.875(4)
_cell_angle_alpha                90
_cell_angle_beta                 113.475(5)
_cell_angle_gamma                90
_cell_volume                     2776.75
_exptl_crystal_colour            black
_exptl_crystal_description       plate
_cell_formula_units_Z            2
loop_
_atom_site_label
_atom_site_type_symbol
_atom_site_fract_x
_atom_site_fract_y
_atom_site_fract_z
C29 C 0.2450(12) 1.0711(10) -0.0250(14)
H27 H 0.1854 1.0382 -0.0507
H28 H 0.2462 1.0962 -0.0994
Cl1 Cl 0.3463(7) 1.0126(4) 0.0391(5)
Cl2 Cl 0.2378(6) 1.1446(5) 0.0766(5)
C1 C 0.0350(4) 1.1061(3) 0.2258(5)
C2 C 0.0026(4) 1.1795(3) 0.2516(5)
H1 H 0.0321 1.2081 0.3259
C3 C -0.0769(4) 1.2013(3) 0.1530(4)
H2 H -0.1143 1.2474 0.1457
C4 C -0.0951(4) 1.1427(3) 0.0613(4)
C5 C -0.1675(4) 1.1476(3) -0.0579(4)
C6 C -0.2390(4) 1.2107(3) -0.0791(4)
C7 C -0.2302(4) 1.2815(3) -0.1253(4)
H3 H -0.1782 1.2902 -0.1512
C8 C -0.2962(4) 1.3413(3) -0.1354(4)
C9 C -0.3712(4) 1.3295(4) -0.0955(5)
C10 C -0.3822(4) 1.2572(4) -0.0515(5)
C11 C -0.3171(4) 1.1978(4) -0.0448(5)
H4 H -0.3258 1.1477 -0.0164
C12 C -0.2178(5) 1.4297(4) -0.2215(6)
H5 H -0.2206 1.3906 -0.2830
H6 H -0.2277 1.4818 -0.2586
H7 H -0.1536 1.4275 -0.1526
C13 C -0.5143(5) 1.3988(4) -0.1996(6)
H8 H -0.5425 1.3473 -0.2293
H9 H -0.5624 1.4308 -0.1833
H10 H -0.4969 1.4243 -0.2620
C14 C -0.4777(5) 1.1733(5) 0.0184(7)
H11 H -0.4213 1.1568 0.0918
H12 H -0.5364 1.1746 0.0365
H13 H -0.4875 1.1364 -0.0485
C15 C -0.1788(4) 1.0995(3) -0.1583(4)
C16 C -0.2488(4) 1.1092(3) -0.2819(4)
H14 H -0.2973 1.1489 -0.3104
C17 C -0.2338(4) 1.0515(3) -0.3514(4)
H15 H -0.2694 1.0443 -0.4371
C18 C -0.1552(4) 1.0037(3) -0.2729(4)
C19 C -0.1157(4) 0.9382(3) -0.3044(4)
C20 C -0.1645(4) 0.9106(3) -0.4343(4)
C21 C -0.2630(4) 0.8966(3) -0.4888(5)
H16 H -0.3025 0.9036 -0.4434
C22 C -0.3064(4) 0.8718(4) -0.6122(5)
C23 C -0.2485(4) 0.8621(3) -0.6763(5)
C24 C -0.1497(4) 0.8761(3) -0.6227(5)
C25 C -0.1065(4) 0.9008(3) -0.5024(4)
H17 H -0.0381 0.9112 -0.4657
C26 C -0.4672(4) 0.8856(5) -0.6251(7)
H18 H -0.4430 0.9127 -0.5490
H19 H -0.5356 0.8770 -0.6675
C27 C -0.2818(5) 0.7628(5) -0.8279(7)
H20 H -0.3154 0.7295 -0.7898
H21 H -0.3111 0.7554 -0.9171
H22 H -0.2122 0.7489 -0.7959
C28 C -0.0031(5) 0.8915(4) -0.6519(6)
H23 H 0.0352 0.8614 -0.5781
H24 H 0.0233 0.8829 -0.7144
H25 H 0.0007 0.9471 -0.6313
N1 N -0.0268(3) 1.0851(3) 0.1091(4)
N2 N -0.1240(3) 1.0355(3) -0.1573(4)
H26 H -0.0755 1.0172 -0.0919
O1 O -0.0505(6) 1.0117(6) 0.0834(7)
O2 O -0.2925(3) 1.4143(2) -0.1783(3)
O3 O -0.4299(3) 1.3901(3) -0.0909(3)
O4 O -0.4595(3) 1.2504(3) -0.0178(4)
O5 O -0.4025(3) 0.8587(3) -0.6743(4)
O6 O -0.2916(3) 0.8427(3) -0.8000(3)
O7 O -0.1003(3) 0.8674(2) -0.6970(3)
C1B C -0.0350(4) 0.8939(3) -0.2258(5)
C2B C -0.0026(4) 0.8205(3) -0.2516(5)
H1B H -0.0321 0.7919 -0.3259
C3B C 0.0769(4) 0.7987(3) -0.1530(4)
H2B H 0.1143 0.7526 -0.1457
C4B C 0.0951(4) 0.8573(3) -0.0613(4)
C5B C 0.1675(4) 0.8524(3) 0.0579(4)
C6B C 0.2390(4) 0.7893(3) 0.0791(4)
C7B C 0.2302(4) 0.7185(3) 0.1253(4)
H3B H 0.1782 0.7098 0.1512
C8B C 0.2962(4) 0.6587(3) 0.1354(4)
C9B C 0.3712(4) 0.6705(4) 0.0955(5)
C10B C 0.3822(4) 0.7428(4) 0.0515(5)
C11B C 0.3171(4) 0.8022(4) 0.0448(5)
H4B H 0.3258 0.8523 0.0164
C12B C 0.2178(5) 0.5703(4) 0.2215(6)
H5B H 0.2206 0.6094 0.2830
H6B H 0.2277 0.5182 0.2586
H7B H 0.1536 0.5725 0.1526
C13B C 0.5143(5) 0.6012(4) 0.1996(6)
H8B H 0.5425 0.6527 0.2293
H9B H 0.5624 0.5692 0.1833
H10B H 0.4969 0.5757 0.2620
C14B C 0.4777(5) 0.8267(5) -0.0184(7)
H11B H 0.4213 0.8432 -0.0918
H12B H 0.5364 0.8254 -0.0365
H13B H 0.4875 0.8636 0.0485
C15B C 0.1788(4) 0.9005(3) 0.1583(4)
C16B C 0.2488(4) 0.8908(3) 0.2819(4)
H14B H 0.2973 0.8511 0.3104
C17B C 0.2338(4) 0.9485(3) 0.3514(4)
H15B H 0.2694 0.9557 0.4371
C18B C 0.1552(4) 0.9963(3) 0.2729(4)
C19B C 0.1157(4) 1.0618(3) 0.3044(4)
C20B C 0.1645(4) 1.0894(3) 0.4343(4)
C21B C 0.2630(4) 1.1034(3) 0.4888(5)
H16B H 0.3025 1.0964 0.4434
C22B C 0.3064(4) 1.1282(4) 0.6122(5)
C23B C 0.2485(4) 1.1379(3) 0.6763(5)
C24B C 0.1497(4) 1.1239(3) 0.6227(5)
C25B C 0.1065(4) 1.0992(3) 0.5024(4)
H17B H 0.0381 1.0888 0.4657
C26B C 0.4672(4) 1.1144(5) 0.6251(7)
H18B H 0.4430 1.0873 0.5490
H19B H 0.5356 1.1230 0.6675
C27B C 0.2818(5) 1.2372(5) 0.8279(7)
H20B H 0.3154 1.2705 0.7898
H21B H 0.3111 1.2446 0.9171
H22B H 0.2122 1.2511 0.7959
C28B C 0.0031(5) 1.1085(4) 0.6519(6)
H23B H -0.0352 1.1386 0.5781
H24B H -0.0233 1.1171 0.7144
H25B H -0.0007 1.0529 0.6313
N1B N 0.0268(3) 0.9149(3) -0.1091(4)
N2B N 0.1240(3) 0.9645(3) 0.1573(4)
H26B H 0.0755 0.9828 0.0919
O1B O 0.0505(6) 0.9883(6) -0.0834(7)
O2B O 0.2925(3) 0.5857(2) 0.1783(3)
O3B O 0.4299(3) 0.6099(3) 0.0909(3)
O4B O 0.4595(3) 0.7496(3) 0.0178(4)
O5B O 0.4025(3) 1.1413(3) 0.6743(4)
O6B O 0.2916(3) 1.1573(3) 0.8000(3)
O7B O 0.1003(3) 1.1326(2) 0.6970(3)
C30? C 0.1691(12) 1.0848(11) -0.0305(12)
Cl3? Cl 0.2840(4) 1.0571(4) 0.0702(5)
Cl4? Cl 0.1224(4) 1.1686(3) 0.0134(4)
H29? H 0.1232 1.0410 -0.0401
H30? H 0.1710 1.0946 -0.1117
loop_
_geom_bond_atom_site_label_1
_geom_bond_atom_site_label_2
_geom_bond_site_symmetry_1
_geom_bond_site_symmetry_2
C1 C2 1_555 1_555
C2 H1 1_555 1_555
C3 C2 1_555 1_555
H2 C3 1_555 1_555
C4 C3 1_555 1_555
C5 C4 1_555 1_555
C6 C5 1_555 1_555
C7 C6 1_555 1_555
H3 C7 1_555 1_555
C8 C7 1_555 1_555
C9 C8 1_555 1_555
C10 C9 1_555 1_555
C11 C6 1_555 1_555
H4 C11 1_555 1_555
C12 H5 1_555 1_555
H6 C12 1_555 1_555
H7 C12 1_555 1_555
C13 H8 1_555 1_555
H9 C13 1_555 1_555
H10 C13 1_555 1_555
C14 H11 1_555 1_555
H12 C14 1_555 1_555
H13 C14 1_555 1_555
C15 C5 1_555 1_555
C16 C15 1_555 1_555
H14 C16 1_555 1_555
C17 C16 1_555 1_555
H15 C17 1_555 1_555
C18 C17 1_555 1_555
C19 C18 1_555 1_555
C20 C19 1_555 1_555
C21 C20 1_555 1_555
H16 C21 1_555 1_555
C22 C21 1_555 1_555
C23 C22 1_555 1_555
C24 C23 1_555 1_555
C25 C20 1_555 1_555
H17 C25 1_555 1_555
C26 H18 1_555 1_555
H19 C26 1_555 1_555
C27 H20 1_555 1_555
H21 C27 1_555 1_555
H22 C27 1_555 1_555
C28 H23 1_555 1_555
H24 C28 1_555 1_555
H25 C28 1_555 1_555
N1 C1 1_555 1_555
N2 C15 1_555 1_555
H26 N2 1_555 1_555
O1 N1 1_555 1_555
O2 C8 1_555 1_555
O3 C9 1_555 1_555
O4 C10 1_555 1_555
O5 C22 1_555 1_555
O6 C23 1_555 1_555
O7 C24 1_555 1_555
C29 H27 1_555 1_555
H28 C29 1_555 1_555
Cl1 C29 1_555 1_555
Cl2 C29 1_555 1_555
C1B C19 1_555 1_555
C2B C1B 1_555 1_555
H1B C2B 1_555 1_555
C3B C2B 1_555 1_555
H2B C3B 1_555 1_555
C4B C3B 1_555 1_555
C5B C4B 1_555 1_555
C6B C5B 1_555 1_555
C7B C6B 1_555 1_555
H3B C7B 1_555 1_555
C8B C7B 1_555 1_555
C9B C8B 1_555 1_555
C10B C9B 1_555 1_555
C11B C6B 1_555 1_555
H4B C11B 1_555 1_555
C12B H5B 1_555 1_555
H6B C12B 1_555 1_555
H7B C12B 1_555 1_555
C13B H8B 1_555 1_555
H9B C13B 1_555 1_555
H10B C13B 1_555 1_555
C14B H11B 1_555 1_555
H12B C14B 1_555 1_555
H13B C14B 1_555 1_555
C15B C5B 1_555 1_555
C16B C15B 1_555 1_555
H14B C16B 1_555 1_555
C17B C16B 1_555 1_555
H15B C17B 1_555 1_555
C18B C17B 1_555 1_555
C19B C1 1_555 1_555
C20B C19B 1_555 1_555
C21B C20B 1_555 1_555
H16B C21B 1_555 1_555
C22B C21B 1_555 1_555
C23B C22B 1_555 1_555
C24B C23B 1_555 1_555
C25B C20B 1_555 1_555
H17B C25B 1_555 1_555
C26B H18B 1_555 1_555
H19B C26B 1_555 1_555
C27B H20B 1_555 1_555
H21B C27B 1_555 1_555
H22B C27B 1_555 1_555
C28B H23B 1_555 1_555
H24B C28B 1_555 1_555
H25B C28B 1_555 1_555
N1B C1B 1_555 1_555
N2B C15B 1_555 1_555
H26B N2B 1_555 1_555
O1B N1B 1_555 1_555
O2B C8B 1_555 1_555
O3B C9B 1_555 1_555
O4B C10B 1_555 1_555
O5B C22B 1_555 1_555
O6B C23B 1_555 1_555
O7B C24B 1_555 1_555
C4 N1 1_555 1_555
C10 C11 1_555 1_555
C12 O2 1_555 1_555
C13 O3 1_555 1_555
C14 O4 1_555 1_555
C18 N2 1_555 1_555
C24 C25 1_555 1_555
C26 O5 1_555 1_555
C27 O6 1_555 1_555
C28 O7 1_555 1_555
C4B N1B 1_555 1_555
C10B C11B 1_555 1_555
C12B O2B 1_555 1_555
C13B O3B 1_555 1_555
C14B O4B 1_555 1_555
C18B C19B 1_555 1_555
C18B N2B 1_555 1_555
C24B C25B 1_555 1_555
C26B O5B 1_555 1_555
C27B O6B 1_555 1_555
C28B O7B 1_555 1_555

#END
