
#######################################################################
#
#                 Cambridge Crystallographic Data Centre
#                                CCDC 
#
#######################################################################
#
# If this CIF has been generated from an entry in the Cambridge 
# Structural Database, then it will include bibliographic, chemical, 
# crystal, experimental, refinement or atomic coordinate data resulting 
# from the CCDC's data processing and validation procedures.
#
#######################################################################

data_GUGWOV
_chemical_formula_moiety         'C27 H39 N3 O7'
_chemical_name_systematic        
'(E)-(7S,10S,13S)-(Methyl 13-((t-butoxycarbonyl)amino)-10-isobutyl-9,12-dioxo-2-oxa-8,11-diazabicyclo[13.2.2]nonadeca-1(17),4,15,18-tetraene-7-carboxylate)'
_symmetry_cell_setting           orthorhombic
_symmetry_space_group_name_H-M   'P 21 21 21'
_symmetry_Int_Tables_number      19
_space_group_name_Hall           'P 2ac 2ab'
loop_
_symmetry_equiv_pos_site_id
_symmetry_equiv_pos_as_xyz
1 x,y,z
2 1/2+x,1/2-y,-z
3 -x,1/2+y,1/2-z
4 1/2-x,-y,1/2+z
_cell_length_a                   9.5967(17)
_cell_length_b                   13.576(3)
_cell_length_c                   22.201(6)
_cell_angle_alpha                90
_cell_angle_beta                 90
_cell_angle_gamma                90
_cell_volume                     2892.45
_exptl_crystal_colour            colorless
_exptl_crystal_description       plate
_cell_formula_units_Z            4
_exptl_crystal_recrystallization_method methanol
loop_
_atom_site_label
_atom_site_type_symbol
_atom_site_fract_x
_atom_site_fract_y
_atom_site_fract_z
C1 C 0.4529(2) 0.13435(18) 0.00870(11)
H1 H 0.3512 0.1407 0.0075
C2 C 0.5195(2) 0.23545(18) -0.00103(11)
C3 C 0.4854(3) 0.41291(18) -0.00903(12)
C4 C 0.4071(2) 0.48494(18) 0.03076(11)
C5 C 0.4211(3) 0.6201(2) 0.10199(12)
H2 H 0.3198 0.6136 0.0982
C6 C 0.4607(3) 0.7203(2) 0.07603(13)
C7 C 0.4551(3) 0.6213(2) 0.16947(13)
H3 H 0.5539 0.6340 0.1744
H4 H 0.4050 0.6753 0.1881
C8 C 0.4195(3) 0.5284(2) 0.20197(12)
H5 H 0.3518 0.4872 0.1857
C9 C 0.4804(3) 0.5020(2) 0.25307(13)
H6 H 0.5509 0.5430 0.2672
C10 C 0.4481(4) 0.4136(2) 0.29035(13)
H7 H 0.5336 0.3776 0.2979
H8 H 0.4115 0.4350 0.3289
C11 C 0.3950(3) 0.2912(2) 0.21569(12)
C12 C 0.2909(3) 0.2405(2) 0.18523(13)
H9 H 0.1982 0.2490 0.1962
C13 C 0.3248(3) 0.1774(2) 0.13861(13)
H10 H 0.2542 0.1442 0.1184
C14 C 0.4620(3) 0.1627(2) 0.12149(11)
C15 C 0.5643(3) 0.2161(2) 0.15134(12)
H11 H 0.6568 0.2086 0.1398
C16 C 0.5320(3) 0.2803(2) 0.19785(12)
H12 H 0.6022 0.3158 0.2169
C17 C 0.4976(3) 0.09365(19) 0.07040(12)
H13 H 0.4520 0.0308 0.0771
H14 H 0.5974 0.0823 0.0701
C18 C 0.4578(3) 0.43745(19) -0.07565(12)
H15 H 0.5115 0.3921 -0.1002
H16 H 0.3601 0.4251 -0.0839
C19 C 0.4917(3) 0.5420(2) -0.09609(13)
H17 H 0.4354 0.5877 -0.0721
C20 C 0.4492(4) 0.5533(3) -0.16199(14)
H18 H 0.4981 0.5057 -0.1860
H19 H 0.4720 0.6184 -0.1756
H20 H 0.3506 0.5428 -0.1658
C21 C 0.6430(3) 0.5691(2) -0.08774(15)
H21 H 0.6570 0.6365 -0.0994
H22 H 0.6999 0.5271 -0.1123
H23 H 0.6683 0.5609 -0.0462
C22 C 0.4121(3) 0.01308(18) -0.07172(11)
C23 C 0.4211(3) -0.1031(2) -0.15642(13)
C24 C 0.3391(3) -0.1857(2) -0.12755(14)
H24 H 0.2651 -0.1585 -0.1037
H25 H 0.3996 -0.2240 -0.1023
H26 H 0.3004 -0.2271 -0.1584
C25 C 0.5458(3) -0.1438(3) -0.19080(14)
H27 H 0.6038 -0.1809 -0.1639
H28 H 0.5985 -0.0903 -0.2075
H29 H 0.5138 -0.1858 -0.2227
C26 C 0.3330(3) -0.0374(2) -0.19693(13)
H30 H 0.3878 0.0176 -0.2103
H31 H 0.2537 -0.0139 -0.1749
H32 H 0.3020 -0.0745 -0.2312
C27 C 0.6037(5) 0.8083(2) 0.01028(17)
H33 H 0.6518 0.8420 0.0421
H34 H 0.5266 0.8477 -0.0031
H35 H 0.6665 0.7973 -0.0227
N1 N 0.4985(2) 0.06974(17) -0.03938(11)
N2 N 0.4352(2) 0.31303(15) 0.00291(9)
H36 H 0.3494 0.3043 0.0127
N3 N 0.4834(2) 0.53847(17) 0.06937(10)
H37 H 0.5698 0.5244 0.0749
O1 O 0.64556(17) 0.24271(13) -0.01122(8)
O2 O 0.28030(17) 0.49496(15) 0.02517(9)
O3 O 0.4143(3) 0.79581(16) 0.09565(11)
O4 O 0.3493(2) 0.34910(16) 0.26237(9)
O5 O 0.28547(18) 0.01218(15) -0.06738(9)
O6 O 0.48855(18) -0.04313(14) -0.10967(8)
O7 O 0.5530(2) 0.71520(15) 0.03210(9)
H38 H 0.581(3) 0.418(2) 0.0003(11)
H39 H 0.585(4) 0.058(2) -0.0423(13)
loop_
_geom_bond_atom_site_label_1
_geom_bond_atom_site_label_2
_geom_bond_site_symmetry_1
_geom_bond_site_symmetry_2
C1 H1 1_555 1_555
C2 C1 1_555 1_555
C3 C4 1_555 1_555
C4 N3 1_555 1_555
C5 H2 1_555 1_555
C6 C5 1_555 1_555
C7 C5 1_555 1_555
H3 C7 1_555 1_555
H4 C7 1_555 1_555
C8 C7 1_555 1_555
H5 C8 1_555 1_555
C9 C8 1_555 1_555
H6 C9 1_555 1_555
C10 C9 1_555 1_555
H7 C10 1_555 1_555
H8 C10 1_555 1_555
C11 C12 1_555 1_555
C12 H9 1_555 1_555
C13 C12 1_555 1_555
H10 C13 1_555 1_555
C14 C13 1_555 1_555
C15 C14 1_555 1_555
H11 C15 1_555 1_555
C16 C11 1_555 1_555
H12 C16 1_555 1_555
C17 C1 1_555 1_555
H13 C17 1_555 1_555
H14 C17 1_555 1_555
C18 C3 1_555 1_555
H15 C18 1_555 1_555
H16 C18 1_555 1_555
C19 C18 1_555 1_555
H17 C19 1_555 1_555
C20 C19 1_555 1_555
H18 C20 1_555 1_555
H19 C20 1_555 1_555
H20 C20 1_555 1_555
C21 C19 1_555 1_555
H21 C21 1_555 1_555
H22 C21 1_555 1_555
H23 C21 1_555 1_555
C22 N1 1_555 1_555
C23 C24 1_555 1_555
C24 H24 1_555 1_555
H25 C24 1_555 1_555
H26 C24 1_555 1_555
C25 C23 1_555 1_555
H27 C25 1_555 1_555
H28 C25 1_555 1_555
H29 C25 1_555 1_555
C26 C23 1_555 1_555
H30 C26 1_555 1_555
H31 C26 1_555 1_555
H32 C26 1_555 1_555
C27 H33 1_555 1_555
H34 C27 1_555 1_555
H35 C27 1_555 1_555
N1 C1 1_555 1_555
N2 C2 1_555 1_555
H36 N2 1_555 1_555
N3 C5 1_555 1_555
H37 N3 1_555 1_555
O1 C2 1_555 1_555
O2 C4 1_555 1_555
O3 C6 1_555 1_555
O4 C10 1_555 1_555
O5 C22 1_555 1_555
O6 C22 1_555 1_555
O7 C6 1_555 1_555
H38 C3 1_555 1_555
H39 N1 1_555 1_555
C3 N2 1_555 1_555
C11 O4 1_555 1_555
C14 C17 1_555 1_555
C15 C16 1_555 1_555
C23 O6 1_555 1_555
C27 O7 1_555 1_555

#END
