
#######################################################################
#
#                 Cambridge Crystallographic Data Centre
#                                CCDC 
#
#######################################################################
#
# If this CIF has been generated from an entry in the Cambridge 
# Structural Database, then it will include bibliographic, chemical, 
# crystal, experimental, refinement or atomic coordinate data resulting 
# from the CCDC's data processing and validation procedures.
#
#######################################################################

data_GUGYOX
_chemical_formula_moiety         'C17 H26 O4'
_chemical_name_systematic        
6a-(Adamantan-1-yl)-2,2-dimethyltetrahydrofuro[3,4-d][1,3]dioxol-4-ol
_symmetry_cell_setting           triclinic
_symmetry_space_group_name_H-M   'P -1'
_symmetry_Int_Tables_number      2
_space_group_name_Hall           '-P 1'
loop_
_symmetry_equiv_pos_site_id
_symmetry_equiv_pos_as_xyz
1 x,y,z
2 -x,-y,-z
_cell_length_a                   10.1757(14)
_cell_length_b                   12.1846(15)
_cell_length_c                   12.5108(17)
_cell_angle_alpha                90.253(7)
_cell_angle_beta                 106.973(7)
_cell_angle_gamma                99.206(7)
_cell_volume                     1462.35
_exptl_crystal_colour            colorless
_exptl_crystal_description       block
_cell_formula_units_Z            4
loop_
_atom_site_label
_atom_site_type_symbol
_atom_site_fract_x
_atom_site_fract_y
_atom_site_fract_z
O1 O 0.2654(3) 0.3980(2) 0.1895(2)
O2 O 0.3784(3) 0.5379(3) 0.3263(3)
H1 H 0.3540 0.5828 0.2764
O3 O 0.2543(4) 0.2653(3) 0.3940(3)
O4 O 0.3580(3) 0.1829(2) 0.2871(2)
C1 C 0.2861(5) 0.4373(4) 0.2999(4)
H2 H 0.1952 0.4449 0.3124
C2 C 0.3531(4) 0.3517(4) 0.3733(3)
H3 H 0.4205 0.3872 0.4448
C3 C 0.4277(4) 0.2960(3) 0.3022(3)
C4 C 0.3863(4) 0.3529(4) 0.1913(3)
H4 H 0.4625 0.4126 0.1868
H5 H 0.3659 0.2982 0.1274
C5 C 0.2381(5) 0.1693(4) 0.3249(4)
C6 C 0.5849(4) 0.2982(3) 0.3522(3)
C7 C 0.6141(5) 0.2305(4) 0.4566(3)
H6 H 0.5785 0.2626 0.5132
H7 H 0.5647 0.1529 0.4369
C8 C 0.7692(5) 0.2306(4) 0.5053(4)
H8 H 0.7864 0.1864 0.5737
C9 C 0.8462(5) 0.3497(4) 0.5356(4)
H9 H 0.8136 0.3839 0.5930
H10 H 0.9475 0.3496 0.5672
C10 C 0.8198(5) 0.4164(4) 0.4328(4)
H11 H 0.8702 0.4946 0.4531
C11 C 0.6407(5) 0.2454(4) 0.2663(3)
H12 H 0.5917 0.1678 0.2461
H13 H 0.6228 0.2875 0.1975
C12 C 0.6635(4) 0.4169(3) 0.3847(4)
H14 H 0.6291 0.4511 0.4410
H15 H 0.6463 0.4621 0.3180
C13 C 0.7963(5) 0.2463(4) 0.3146(4)
H16 H 0.8315 0.2124 0.2577
C14 C 0.8228(5) 0.1789(4) 0.4184(4)
H17 H 0.9239 0.1781 0.4497
H18 H 0.7745 0.1011 0.3984
C15 C 0.8736(5) 0.3638(4) 0.3467(4)
H19 H 0.8597 0.4083 0.2795
H20 H 0.9746 0.3630 0.3785
C16 C 0.1083(5) 0.1589(5) 0.2278(5)
H21 H 0.0998 0.0916 0.1814
H22 H 0.1132 0.2243 0.1830
H23 H 0.0270 0.1540 0.2556
C17 C 0.2384(7) 0.0693(4) 0.3956(5)
H24 H 0.2272 0.0018 0.3487
H25 H 0.1612 0.0639 0.4284
H26 H 0.3269 0.0773 0.4555
O5 O 0.7394(3) 0.1069(2) 0.8046(2)
O6 O 0.6253(3) -0.0349(3) 0.8856(3)
H27 H 0.6430 -0.0725 0.8367
O7 O 0.7445(3) 0.2376(3) 1.0155(2)
O8 O 0.6444(3) 0.3205(2) 0.8579(2)
C18 C 0.7175(4) 0.0666(4) 0.9041(4)
H28 H 0.8081 0.0595 0.9603
C19 C 0.6477(4) 0.1522(3) 0.9464(3)
H29 H 0.5794 0.1159 0.9843
C20 C 0.5745(4) 0.2066(3) 0.8395(3)
C21 C 0.6184(4) 0.1507(4) 0.7490(3)
H30 H 0.5432 0.0904 0.7074
H31 H 0.6386 0.2056 0.6954
C22 C 0.7610(5) 0.3351(4) 0.9558(3)
C23 C 0.4168(4) 0.2043(3) 0.8144(3)
C24 C 0.3607(5) 0.2569(4) 0.7035(3)
H32 H 0.4094 0.3346 0.7073
H33 H 0.3784 0.2150 0.6426
C25 C 0.2050(5) 0.2555(4) 0.6788(4)
H34 H 0.1694 0.2899 0.6058
C26 C 0.1296(5) 0.1361(4) 0.6714(4)
H35 H 0.0281 0.1352 0.6545
H36 H 0.1455 0.0931 0.6104
C27 C 0.1831(5) 0.0836(4) 0.7810(4)
H37 H 0.1340 0.0050 0.7755
C28 C 0.3393(5) 0.0844(4) 0.8063(4)
H38 H 0.3568 0.0410 0.7463
H39 H 0.3743 0.0490 0.8779
C29 C 0.3864(4) 0.2684(4) 0.9071(3)
H40 H 0.4214 0.2341 0.9793
H41 H 0.4356 0.3463 0.9141
C30 C 0.2310(5) 0.2673(4) 0.8816(4)
H42 H 0.2135 0.3103 0.9429
C31 C 0.1777(4) 0.3218(4) 0.7709(4)
H43 H 0.0766 0.3225 0.7541
H44 H 0.2264 0.3996 0.7760
C32 C 0.1554(5) 0.1477(4) 0.8740(4)
H45 H 0.1893 0.1127 0.9460
H46 H 0.0540 0.1466 0.8580
C33 C 0.8939(5) 0.3487(4) 0.9232(4)
H47 H 0.9021 0.4166 0.8822
H48 H 0.8922 0.2842 0.8754
H49 H 0.9738 0.3542 0.9907
C34 C 0.7532(5) 0.4332(4) 1.0253(4)
H50 H 0.7645 0.5011 0.9850
H51 H 0.8276 0.4397 1.0966
H52 H 0.6625 0.4227 1.0396
loop_
_geom_bond_atom_site_label_1
_geom_bond_atom_site_label_2
_geom_bond_site_symmetry_1
_geom_bond_site_symmetry_2
O1 C1 1_555 1_555
O2 H1 1_555 1_555
O3 C2 1_555 1_555
O4 C3 1_555 1_555
C1 O2 1_555 1_555
H2 C1 1_555 1_555
C2 C1 1_555 1_555
H3 C2 1_555 1_555
C3 C2 1_555 1_555
C4 O1 1_555 1_555
H4 C4 1_555 1_555
H5 C4 1_555 1_555
C5 O3 1_555 1_555
C6 C3 1_555 1_555
C7 C6 1_555 1_555
H6 C7 1_555 1_555
H7 C7 1_555 1_555
C8 C7 1_555 1_555
H8 C8 1_555 1_555
C9 C8 1_555 1_555
H9 C9 1_555 1_555
H10 C9 1_555 1_555
C10 C9 1_555 1_555
H11 C10 1_555 1_555
C11 C6 1_555 1_555
H12 C11 1_555 1_555
H13 C11 1_555 1_555
C12 C6 1_555 1_555
H14 C12 1_555 1_555
H15 C12 1_555 1_555
C13 C11 1_555 1_555
H16 C13 1_555 1_555
C14 C8 1_555 1_555
H17 C14 1_555 1_555
H18 C14 1_555 1_555
C15 C10 1_555 1_555
H19 C15 1_555 1_555
H20 C15 1_555 1_555
C16 C5 1_555 1_555
H21 C16 1_555 1_555
H22 C16 1_555 1_555
H23 C16 1_555 1_555
C17 C5 1_555 1_555
H24 C17 1_555 1_555
H25 C17 1_555 1_555
H26 C17 1_555 1_555
O5 C18 1_555 1_555
O6 H27 1_555 1_555
O7 C19 1_555 1_555
O8 C20 1_555 1_555
C18 O6 1_555 1_555
H28 C18 1_555 1_555
C19 C18 1_555 1_555
H29 C19 1_555 1_555
C20 C19 1_555 1_555
C21 O5 1_555 1_555
H30 C21 1_555 1_555
H31 C21 1_555 1_555
C22 O7 1_555 1_555
C23 C20 1_555 1_555
C24 C23 1_555 1_555
H32 C24 1_555 1_555
H33 C24 1_555 1_555
C25 C24 1_555 1_555
H34 C25 1_555 1_555
C26 C25 1_555 1_555
H35 C26 1_555 1_555
H36 C26 1_555 1_555
C27 C26 1_555 1_555
H37 C27 1_555 1_555
C28 C23 1_555 1_555
H38 C28 1_555 1_555
H39 C28 1_555 1_555
C29 C23 1_555 1_555
H40 C29 1_555 1_555
H41 C29 1_555 1_555
C30 C29 1_555 1_555
H42 C30 1_555 1_555
C31 C25 1_555 1_555
H43 C31 1_555 1_555
H44 C31 1_555 1_555
C32 C27 1_555 1_555
H45 C32 1_555 1_555
H46 C32 1_555 1_555
C33 C22 1_555 1_555
H47 C33 1_555 1_555
H48 C33 1_555 1_555
H49 C33 1_555 1_555
C34 C22 1_555 1_555
H50 C34 1_555 1_555
H51 C34 1_555 1_555
H52 C34 1_555 1_555
O4 C5 1_555 1_555
C3 C4 1_555 1_555
C10 C12 1_555 1_555
C13 C14 1_555 1_555
C13 C15 1_555 1_555
O8 C22 1_555 1_555
C20 C21 1_555 1_555
C27 C28 1_555 1_555
C30 C31 1_555 1_555
C30 C32 1_555 1_555

#END
