
#######################################################################
#
#                 Cambridge Crystallographic Data Centre
#                                CCDC 
#
#######################################################################
#
# If this CIF has been generated from an entry in the Cambridge 
# Structural Database, then it will include bibliographic, chemical, 
# crystal, experimental, refinement or atomic coordinate data resulting 
# from the CCDC's data processing and validation procedures.
#
#######################################################################

data_GUGZEP
_chemical_formula_moiety         'C28 H32 N2 O4 S1'
_chemical_name_systematic        
'n-Propyl 3-(benzylamino)-2-(benzyl((4-methylphenyl)sulfonyl)amino)but-2-enoate'
_symmetry_cell_setting           triclinic
_symmetry_space_group_name_H-M   'P -1'
_symmetry_Int_Tables_number      2
_space_group_name_Hall           '-P 1'
loop_
_symmetry_equiv_pos_site_id
_symmetry_equiv_pos_as_xyz
1 x,y,z
2 -x,-y,-z
_cell_length_a                   9.6614(12)
_cell_length_b                   11.0297(13)
_cell_length_c                   13.6784(16)
_cell_angle_alpha                102.519(2)
_cell_angle_beta                 105.735(2)
_cell_angle_gamma                102.476(2)
_cell_volume                     1309.74
_exptl_crystal_colour            colorless
_exptl_crystal_description       block
_cell_formula_units_Z            2
loop_
_atom_site_label
_atom_site_type_symbol
_atom_site_fract_x
_atom_site_fract_y
_atom_site_fract_z
C1 C 0.5859(3) 1.0636(2) 0.6702(2)
H1 H 0.5466 1.0559 0.5960
H2 H 0.6915 1.0719 0.6898
H3 H 0.5708 1.1391 0.7112
C2 C 0.5858(4) 0.4369(3) 0.7444(3)
H4 H 0.5341 0.3576 0.7550
H5 H 0.5851 0.4164 0.6716
O1 O 0.3746(2) 0.71947(16) 0.74527(15)
N1 N 0.3629(2) 0.93132(19) 0.68713(17)
C3 C 0.7067(3) 0.5746(3) 0.5380(2)
H6 H 0.6126 0.5789 0.5008
C4 C 0.7612(4) 1.0145(4) 0.9731(3)
H7 H 0.7100 0.9337 0.9750
O2 O 0.6501(2) 0.8210(2) 0.52742(15)
C5 C 0.9175(4) 1.1430(3) 0.9057(3)
H8 H 0.9738 1.1507 0.8607
C6 C 0.2765(3) 1.0205(3) 0.6606(2)
H9 H 0.1706 0.9722 0.6306
H10 H 0.3047 1.0535 0.6064
O3 O 0.9165(2) 0.9318(2) 0.6362(2)
S1 S 0.77835(7) 0.83737(7) 0.61670(6)
C7 C 0.8403(3) 1.0229(3) 0.9042(2)
C8 C 0.4033(4) 1.1628(3) 0.8531(2)
H11 H 0.4634 1.1087 0.8661
C9 C 0.2981(3) 1.1344(2) 0.7536(2)
C10 C 0.5065(3) 0.9458(2) 0.69151(18)
N2 N 0.7293(2) 0.87357(19) 0.72181(16)
C11 C 0.2091(4) 1.2150(3) 0.7370(3)
H12 H 0.1368 1.1967 0.6708
C12 C 0.9848(3) 0.5614(3) 0.6461(3)
H13 H 1.0798 0.5578 0.6820
C13 C 0.8748(4) 0.4473(3) 0.5818(2)
O4 O 0.5751(2) 0.65020(16) 0.73976(14)
C14 C 0.5009(4) 0.5330(3) 0.7596(2)
H14 H 0.3984 0.4972 0.7109
H15 H 0.4982 0.5532 0.8315
C15 C 0.8171(3) 0.6866(3) 0.6037(2)
C16 C 0.3314(5) 1.3492(3) 0.9155(3)
H16 H 0.3424 1.4214 0.9701
C17 C 0.5755(2) 0.8530(2) 0.71421(18)
C18 C 0.4978(3) 0.7388(2) 0.73438(18)
C19 C 0.7443(5) 0.4812(4) 0.8167(3)
H17 H 0.7973 0.5588 0.8060
H18 H 0.7916 0.4145 0.8017
H19 H 0.7464 0.4988 0.8890
C20 C 0.8340(9) 1.2443(7) 1.0404(5)
H20 H 0.8325 1.3191 1.0866
C21 C 0.7578(6) 1.1263(7) 1.0396(3)
H21 H 0.7018 1.1202 1.0849
C22 C 0.9033(5) 0.3167(4) 0.5711(3)
H22 H 1.0033 0.3241 0.5692
H23 H 0.8319 0.2552 0.5067
H24 H 0.8929 0.2876 0.6307
C23 C 0.9571(3) 0.6788(3) 0.6578(2)
H25 H 1.0323 0.7538 0.7023
C24 C 0.2262(4) 1.3229(3) 0.8177(3)
H26 H 0.1664 1.3775 0.8056
C25 C 0.7358(3) 0.4566(3) 0.5276(2)
H27 H 0.6605 0.3815 0.4833
C26 C 0.8422(3) 0.9028(3) 0.8287(2)
H28 H 0.9416 0.9145 0.8225
H29 H 0.8210 0.8299 0.8567
C27 C 0.9123(7) 1.2522(4) 0.9734(4)
H30 H 0.9642 1.3335 0.9729
C28 C 0.4198(4) 1.2704(3) 0.9332(3)
H31 H 0.4917 1.2891 0.9996
loop_
_geom_bond_atom_site_label_1
_geom_bond_atom_site_label_2
_geom_bond_site_symmetry_1
_geom_bond_site_symmetry_2
C1 H1 1_555 1_555
H2 C1 1_555 1_555
H3 C1 1_555 1_555
C2 H4 1_555 1_555
H5 C2 1_555 1_555
O1 C18 1_555 1_555
N1 C6 1_555 1_555
C3 H6 1_555 1_555
C4 H7 1_555 1_555
O2 S1 1_555 1_555
C5 H8 1_555 1_555
C6 H9 1_555 1_555
H10 C6 1_555 1_555
O3 S1 1_555 1_555
S1 N2 1_555 1_555
C7 C4 1_555 1_555
C8 H11 1_555 1_555
C9 C6 1_555 1_555
C10 C1 1_555 1_555
N2 C17 1_555 1_555
C11 C9 1_555 1_555
H12 C11 1_555 1_555
C12 H13 1_555 1_555
C13 C12 1_555 1_555
O4 C14 1_555 1_555
C14 C2 1_555 1_555
H14 C14 1_555 1_555
H15 C14 1_555 1_555
C15 C3 1_555 1_555
C16 H16 1_555 1_555
C17 C10 1_555 1_555
C18 O4 1_555 1_555
C19 C2 1_555 1_555
H17 C19 1_555 1_555
H18 C19 1_555 1_555
H19 C19 1_555 1_555
C20 H20 1_555 1_555
C21 C4 1_555 1_555
H21 C21 1_555 1_555
C22 C13 1_555 1_555
H22 C22 1_555 1_555
H23 C22 1_555 1_555
H24 C22 1_555 1_555
C23 C12 1_555 1_555
H25 C23 1_555 1_555
C24 C11 1_555 1_555
H26 C24 1_555 1_555
C25 C3 1_555 1_555
H27 C25 1_555 1_555
C26 C7 1_555 1_555
H28 C26 1_555 1_555
H29 C26 1_555 1_555
C27 C5 1_555 1_555
H30 C27 1_555 1_555
C28 C8 1_555 1_555
H31 C28 1_555 1_555
N1 C10 1_555 1_555
C5 C7 1_555 1_555
S1 C15 1_555 1_555
C8 C9 1_555 1_555
N2 C26 1_555 1_555
C13 C25 1_555 1_555
C15 C23 1_555 1_555
C16 C24 1_555 1_555
C16 C28 1_555 1_555
C17 C18 1_555 1_555
C20 C21 1_555 1_555
C20 C27 1_555 1_555

#END
