
#######################################################################
#
#                 Cambridge Crystallographic Data Centre
#                                CCDC 
#
#######################################################################
#
# If this CIF has been generated from an entry in the Cambridge 
# Structural Database, then it will include bibliographic, chemical, 
# crystal, experimental, refinement or atomic coordinate data resulting 
# from the CCDC's data processing and validation procedures.
#
#######################################################################

data_GUGZIT
_chemical_formula_moiety         'C26 H27 N2 O1 P1'
_chemical_name_systematic        
4-(Diphenylphosphoryl)-1-isobutyl-5-methyl-2-phenyl-1H-imidazole
_symmetry_cell_setting           monoclinic
_symmetry_space_group_name_H-M   'P 21/c'
_symmetry_Int_Tables_number      14
_space_group_name_Hall           '-P 2ybc'
loop_
_symmetry_equiv_pos_site_id
_symmetry_equiv_pos_as_xyz
1 x,y,z
2 -x,1/2+y,1/2-z
3 -x,-y,-z
4 x,1/2-y,1/2+z
_cell_length_a                   12.0256(13)
_cell_length_b                   8.4182(9)
_cell_length_c                   22.784(2)
_cell_angle_alpha                90
_cell_angle_beta                 100.093(2)
_cell_angle_gamma                90
_cell_volume                     2270.82
_exptl_crystal_colour            colorless
_exptl_crystal_description       block
_cell_formula_units_Z            4
loop_
_atom_site_label
_atom_site_type_symbol
_atom_site_fract_x
_atom_site_fract_y
_atom_site_fract_z
P1 P 0.20578(4) 0.21320(6) 0.14949(2)
C1 C 0.15839(15) 0.1880(2) 0.07029(8)
C2 C 0.17082(15) 0.4155(2) 0.16583(8)
C3 C 0.22237(17) 0.5478(2) 0.14563(9)
H1 H 0.2783 0.5347 0.1226
C4 C 0.10742(19) 0.7203(3) 0.19397(10)
H2 H 0.0864 0.8223 0.2033
C5 C 0.08771(16) 0.4389(2) 0.20008(9)
H3 H 0.0526 0.3515 0.2139
C6 C 0.06609(17) 0.2710(3) 0.04013(9)
H4 H 0.0325 0.3493 0.0599
C7 C 0.20783(19) 0.0729(3) 0.03945(10)
H5 H 0.2707 0.0172 0.0586
C8 C 0.19021(19) 0.6989(2) 0.15989(9)
H6 H 0.2249 0.7870 0.1463
C9 C 0.05614(19) 0.5907(3) 0.21406(11)
H7 H 0.0002 0.6046 0.2371
C10 C 0.0234(2) 0.2385(3) -0.01912(10)
H8 H -0.0383 0.2952 -0.0389
C11 C 0.1635(2) 0.0408(3) -0.01983(11)
H9 H 0.1964 -0.0373 -0.0401
C12 C 0.0716(2) 0.1234(4) -0.04867(10)
H10 H 0.0422 0.1011 -0.0883
C13 C 0.35598(14) 0.1966(2) 0.15822(8)
C14 C 0.42719(15) 0.0907(2) 0.19205(8)
C15 C 0.51924(15) 0.2315(2) 0.13377(7)
N1 N 0.41479(12) 0.28393(19) 0.12202(6)
N2 N 0.53159(12) 0.11364(18) 0.17627(6)
C16 C 0.40675(19) -0.0269(3) 0.23810(9)
H11 H 0.3306 -0.0165 0.2450
H12 H 0.4583 -0.0073 0.2746
H13 H 0.4182 -0.1324 0.2243
C17 C 0.60868(15) 0.2947(2) 0.10335(8)
C18 C 0.57937(18) 0.3322(3) 0.04355(9)
H14 H 0.5065 0.3114 0.0236
C19 C 0.71790(16) 0.3266(3) 0.13185(10)
H15 H 0.7396 0.3030 0.1721
C20 C 0.79458(18) 0.3935(3) 0.10046(12)
H16 H 0.8678 0.4141 0.1200
C21 C 0.7651(2) 0.4298(3) 0.04168(13)
H17 H 0.8177 0.4742 0.0210
C22 C 0.6570(2) 0.4000(4) 0.01318(12)
H18 H 0.6359 0.4257 -0.0269
C23 C 0.62918(16) 0.0067(3) 0.19236(8)
H19 H 0.6190 -0.0557 0.2268
H20 H 0.6969 0.0702 0.2036
C24 C 0.6458(2) -0.1042(3) 0.14265(10)
H21 H 0.6595 -0.0379 0.1093
C25 C 0.7516(3) -0.2038(3) 0.16199(12)
H22 H 0.8152 -0.1349 0.1740
H23 H 0.7648 -0.2689 0.1293
H24 H 0.7415 -0.2703 0.1949
O1 O 0.15450(11) 0.09806(16) 0.18632(6)
C26 C 0.5463(3) -0.2061(4) 0.11990(15)
H25 H 0.5262 -0.2664 0.1522
H26 H 0.5649 -0.2772 0.0901
H27 H 0.4839 -0.1403 0.1027
loop_
_geom_bond_atom_site_label_1
_geom_bond_atom_site_label_2
_geom_bond_site_symmetry_1
_geom_bond_site_symmetry_2
P1 C1 1_555 1_555
C1 C6 1_555 1_555
C2 P1 1_555 1_555
C3 C2 1_555 1_555
H1 C3 1_555 1_555
C4 H2 1_555 1_555
C5 C2 1_555 1_555
H3 C5 1_555 1_555
C6 H4 1_555 1_555
C7 C1 1_555 1_555
H5 C7 1_555 1_555
C8 C3 1_555 1_555
H6 C8 1_555 1_555
C9 C4 1_555 1_555
H7 C9 1_555 1_555
C10 C6 1_555 1_555
H8 C10 1_555 1_555
C11 C7 1_555 1_555
H9 C11 1_555 1_555
C12 C10 1_555 1_555
H10 C12 1_555 1_555
C13 P1 1_555 1_555
C14 C13 1_555 1_555
C15 N1 1_555 1_555
N1 C13 1_555 1_555
N2 C14 1_555 1_555
C16 C14 1_555 1_555
H11 C16 1_555 1_555
H12 C16 1_555 1_555
H13 C16 1_555 1_555
C17 C15 1_555 1_555
C18 C17 1_555 1_555
H14 C18 1_555 1_555
C19 C17 1_555 1_555
H15 C19 1_555 1_555
C20 C19 1_555 1_555
H16 C20 1_555 1_555
C21 C20 1_555 1_555
H17 C21 1_555 1_555
C22 C18 1_555 1_555
H18 C22 1_555 1_555
C23 N2 1_555 1_555
H19 C23 1_555 1_555
H20 C23 1_555 1_555
C24 C23 1_555 1_555
H21 C24 1_555 1_555
C25 C24 1_555 1_555
H22 C25 1_555 1_555
H23 C25 1_555 1_555
H24 C25 1_555 1_555
O1 P1 1_555 1_555
C26 C24 1_555 1_555
H25 C26 1_555 1_555
H26 C26 1_555 1_555
H27 C26 1_555 1_555
C4 C8 1_555 1_555
C5 C9 1_555 1_555
C11 C12 1_555 1_555
C15 N2 1_555 1_555
C21 C22 1_555 1_555

#END
