
#######################################################################
#
#                 Cambridge Crystallographic Data Centre
#                                CCDC 
#
#######################################################################
#
# If this CIF has been generated from an entry in the Cambridge 
# Structural Database, then it will include bibliographic, chemical, 
# crystal, experimental, refinement or atomic coordinate data resulting 
# from the CCDC's data processing and validation procedures.
#
#######################################################################

data_GUHCAO
_chemical_formula_moiety         'C21 H16 Cl1 I1 N3 O1 1+,Br1 1-,C1 H4 O1'
_chemical_name_systematic        
"4-Chloro-6-iodo-11,12-dimethyl-8,15-dihydroquino(8',1':2,3,4)(1,4)oxazocino(6,7-b)quinoxalin-16-ium bromide methanol solvate"
_symmetry_cell_setting           monoclinic
_symmetry_space_group_name_H-M   'P 21/n'
_symmetry_Int_Tables_number      14
_space_group_name_Hall           '-P 2yn'
loop_
_symmetry_equiv_pos_site_id
_symmetry_equiv_pos_as_xyz
1 x,y,z
2 1/2-x,1/2+y,1/2-z
3 -x,-y,-z
4 1/2+x,1/2-y,1/2+z
_cell_length_a                   12.694(2)
_cell_length_b                   8.9727(14)
_cell_length_c                   18.238(3)
_cell_angle_alpha                90
_cell_angle_beta                 98.347(9)
_cell_angle_gamma                90
_cell_volume                     2055.29
_exptl_crystal_colour            brown
_exptl_crystal_description       rectangular
_cell_formula_units_Z            4
loop_
_atom_site_label
_atom_site_type_symbol
_atom_site_fract_x
_atom_site_fract_y
_atom_site_fract_z
I1 I 0.56590(2) 0.90502(3) 0.114372(15)
Cl1 Cl 0.39825(9) 0.32470(11) 0.06431(6)
N1 N 0.4537(2) 0.5332(3) 0.32743(16)
N2 N 0.3758(2) 0.9765(3) 0.40691(16)
N3 N 0.4483(2) 0.7228(3) 0.48848(16)
O2 O 0.52322(18) 0.8110(2) 0.27482(13)
C2 C 0.3792(3) 0.4294(4) 0.3505(2)
H4 H 0.3492 0.4398 0.3939
C3 C 0.3553(3) 0.3046(4) 0.2983(2)
H5 H 0.3255 0.2179 0.3142
C4 C 0.3753(3) 0.3131(4) 0.2289(2)
H6 H 0.3592 0.2323 0.1973
C5 C 0.4216(3) 0.4452(4) 0.2017(2)
C6 C 0.4337(3) 0.4674(4) 0.1287(2)
C7 C 0.4754(3) 0.5957(4) 0.1028(2)
H7 H 0.4838 0.6059 0.0533
C8 C 0.5040(3) 0.7076(4) 0.15281(19)
C9 C 0.4945(2) 0.6942(4) 0.22677(19)
C10 C 0.4367(3) 0.8909(4) 0.2982(2)
H8 H 0.3711 0.8600 0.2679
H9 H 0.4462 0.9964 0.2894
C11 C 0.4259(3) 0.8686(4) 0.37774(19)
C12 C 0.3585(3) 0.9593(4) 0.4786(2)
C13 C 0.3018(3) 1.0685(4) 0.5121(3)
H10 H 0.2789 1.1536 0.4855
C14 C 0.2796(3) 1.0530(5) 0.5823(2)
C15 C 0.3140(3) 0.9210(5) 0.6239(2)
C16 C 0.3708(3) 0.8163(4) 0.5917(2)
H11 H 0.3948 0.7321 0.6188
C17 C 0.3942(3) 0.8313(4) 0.51904(19)
C18 C 0.4636(3) 0.7390(4) 0.41953(18)
C19 C 0.5201(3) 0.6137(4) 0.3871(2)
H12 H 0.5818 0.6536 0.3680
H13 H 0.5456 0.5438 0.4263
C20 C 0.4570(3) 0.5598(4) 0.25323(19)
C21 C 0.2904(4) 0.8987(6) 0.7005(3)
H14 H 0.3196 0.8051 0.7192
H15 H 0.2148 0.8983 0.7002
H16 H 0.3217 0.9781 0.7316
C22 C 0.2168(4) 1.1699(6) 0.6166(3)
H17 H 0.2040 1.2533 0.5836
H18 H 0.2564 1.2023 0.6627
H19 H 0.1500 1.1285 0.6255
O1 O 0.2821(2) 0.5096(3) 0.35847(15)
C1 C 0.2388(4) 0.4695(6) 0.4220(3)
H1 H 0.2932 0.4744 0.4644
H2 H 0.2114 0.3698 0.4165
H3 H 0.1822 0.5369 0.4286
loop_
_geom_bond_atom_site_label_1
_geom_bond_atom_site_label_2
_geom_bond_site_symmetry_1
_geom_bond_site_symmetry_2
O1 C1 1_555 1_555
C1 H1 1_555 1_555
H2 C1 1_555 1_555
H3 C1 1_555 1_555
I1 C8 1_555 1_555
Cl1 C6 1_555 1_555
N1 C2 1_555 1_555
N2 C11 1_555 1_555
N3 C17 1_555 1_555
O2 C9 1_555 1_555
C2 H4 1_555 1_555
C3 C2 1_555 1_555
H5 C3 1_555 1_555
C4 C3 1_555 1_555
H6 C4 1_555 1_555
C5 C4 1_555 1_555
C6 C5 1_555 1_555
C7 C6 1_555 1_555
H7 C7 1_555 1_555
C8 C7 1_555 1_555
C9 C8 1_555 1_555
C10 O2 1_555 1_555
H8 C10 1_555 1_555
H9 C10 1_555 1_555
C11 C10 1_555 1_555
C12 N2 1_555 1_555
C13 C12 1_555 1_555
H10 C13 1_555 1_555
C14 C13 1_555 1_555
C15 C14 1_555 1_555
C16 C15 1_555 1_555
H11 C16 1_555 1_555
C17 C12 1_555 1_555
C18 N3 1_555 1_555
C19 N1 1_555 1_555
H12 C19 1_555 1_555
H13 C19 1_555 1_555
C20 N1 1_555 1_555
C21 C15 1_555 1_555
H14 C21 1_555 1_555
H15 C21 1_555 1_555
H16 C21 1_555 1_555
C22 C14 1_555 1_555
H17 C22 1_555 1_555
H18 C22 1_555 1_555
H19 C22 1_555 1_555
C5 C20 1_555 1_555
C9 C20 1_555 1_555
C11 C18 1_555 1_555
C16 C17 1_555 1_555
C18 C19 1_555 1_555

#END
