
#######################################################################
#
#                 Cambridge Crystallographic Data Centre
#                                CCDC 
#
#######################################################################
#
# If this CIF has been generated from an entry in the Cambridge 
# Structural Database, then it will include bibliographic, chemical, 
# crystal, experimental, refinement or atomic coordinate data resulting 
# from the CCDC's data processing and validation procedures.
#
#######################################################################

data_GUHCOB
_chemical_formula_moiety         'C21 H15 N1 O1'
_chemical_name_systematic        (Z)-3-Benzylidene-N-phenylisoindolin-1-one
_chemical_properties_biological  'potential biological activity'
_symmetry_cell_setting           orthorhombic
_symmetry_space_group_name_H-M   'P 21 21 21'
_symmetry_Int_Tables_number      19
_space_group_name_Hall           'P 2ac 2ab'
loop_
_symmetry_equiv_pos_site_id
_symmetry_equiv_pos_as_xyz
1 x,y,z
2 1/2-x,-y,1/2+z
3 1/2+x,1/2-y,-z
4 -x,1/2+y,1/2-z
_cell_length_a                   9.366(3)
_cell_length_b                   19.875(1)
_cell_length_c                   8.204(9)
_cell_angle_alpha                90
_cell_angle_beta                 90
_cell_angle_gamma                90
_cell_volume                     1527.17
_exptl_crystal_colour            colorless
_exptl_crystal_description       prism
_chemical_melting_point          470K
_cell_formula_units_Z            4
_exptl_crystal_recrystallization_method ethanol
loop_
_atom_site_label
_atom_site_type_symbol
_atom_site_fract_x
_atom_site_fract_y
_atom_site_fract_z
N1 N 0.3855(3) 0.70495(11) 0.6379(3)
O1 O 0.4031(3) 0.61300(11) 0.8094(2)
C1 C 0.4946(3) 0.76486(15) 0.8630(3)
H1 H 0.5749 0.7376 0.8539
C2 C 0.4907(4) 0.8157(2) 0.9775(4)
H2 H 0.5688 0.8226 1.0456
C3 C 0.3725(4) 0.8564(2) 0.9917(3)
H3 H 0.3714 0.8913 1.0673
C4 C 0.2552(4) 0.8451(2) 0.8930(4)
H4 H 0.1746 0.8721 0.9029
C5 C 0.2577(3) 0.79367(14) 0.7795(4)
H5 H 0.1780 0.7853 0.7150
C6 C 0.3789(3) 0.75477(13) 0.7623(3)
C7 C 0.3933(3) 0.63635(14) 0.6729(3)
C8 C 0.3869(3) 0.60185(14) 0.5141(3)
C9 C 0.3956(4) 0.53350(15) 0.4786(4)
H6 H 0.4061 0.5016 0.5607
C10 C 0.3879(4) 0.51475(15) 0.3160(4)
H7 H 0.3930 0.4695 0.2879
C11 C 0.3730(3) 0.5624(2) 0.1960(4)
H8 H 0.3684 0.5486 0.0879
C12 C 0.3648(3) 0.63022(15) 0.2311(3)
H9 H 0.3545 0.6620 0.1487
C13 C 0.3723(3) 0.64933(13) 0.3936(3)
C14 C 0.3718(3) 0.71650(13) 0.4677(3)
C15 C 0.3627(3) 0.77449(14) 0.3868(3)
H10 H 0.3458 0.7701 0.2756
C16 C 0.3751(3) 0.84448(13) 0.4446(3)
C17 C 0.2704(3) 0.8911(2) 0.4065(4)
H11 H 0.1931 0.8783 0.3424
C18 C 0.2797(4) 0.9563(2) 0.4624(4)
H12 H 0.2088 0.9872 0.4361
C19 C 0.3933(4) 0.97573(15) 0.5571(4)
H13 H 0.3974 1.0192 0.5987
C20 C 0.5008(3) 0.9309(2) 0.5902(4)
H14 H 0.5799 0.9445 0.6502
C21 C 0.4915(3) 0.86590(14) 0.5347(3)
H15 H 0.5646 0.8357 0.5579
loop_
_geom_bond_atom_site_label_1
_geom_bond_atom_site_label_2
_geom_bond_site_symmetry_1
_geom_bond_site_symmetry_2
N1 C6 1_555 1_555
O1 C7 1_555 1_555
C1 H1 1_555 1_555
C2 C1 1_555 1_555
H2 C2 1_555 1_555
C3 C2 1_555 1_555
H3 C3 1_555 1_555
C4 C3 1_555 1_555
H4 C4 1_555 1_555
C5 C4 1_555 1_555
H5 C5 1_555 1_555
C6 C1 1_555 1_555
C7 N1 1_555 1_555
C8 C7 1_555 1_555
C9 C8 1_555 1_555
H6 C9 1_555 1_555
C10 C9 1_555 1_555
H7 C10 1_555 1_555
C11 C10 1_555 1_555
H8 C11 1_555 1_555
C12 C11 1_555 1_555
H9 C12 1_555 1_555
C13 C8 1_555 1_555
C14 N1 1_555 1_555
C15 C14 1_555 1_555
H10 C15 1_555 1_555
C16 C15 1_555 1_555
C17 C16 1_555 1_555
H11 C17 1_555 1_555
C18 C17 1_555 1_555
H12 C18 1_555 1_555
C19 C18 1_555 1_555
H13 C19 1_555 1_555
C20 C19 1_555 1_555
H14 C20 1_555 1_555
C21 C16 1_555 1_555
H15 C21 1_555 1_555
C5 C6 1_555 1_555
C12 C13 1_555 1_555
C13 C14 1_555 1_555
C20 C21 1_555 1_555

#END
