
#######################################################################
#
#                 Cambridge Crystallographic Data Centre
#                                CCDC 
#
#######################################################################
#
# If this CIF has been generated from an entry in the Cambridge 
# Structural Database, then it will include bibliographic, chemical, 
# crystal, experimental, refinement or atomic coordinate data resulting 
# from the CCDC's data processing and validation procedures.
#
#######################################################################

data_GUHCES
_chemical_formula_moiety         'C19 H12 Cl1 N3 O2'
_chemical_name_systematic        
4-Chloro-8,15-dihydro-1H-quino[8',1':2,3,4][1,4]oxazocino[6,7-b]quinoxalin-1-one
_symmetry_cell_setting           triclinic
_symmetry_space_group_name_H-M   'P 1'
_symmetry_Int_Tables_number      1
_space_group_name_Hall           'P 1'
loop_
_symmetry_equiv_pos_site_id
_symmetry_equiv_pos_as_xyz
1 x,y,z
_cell_length_a                   4.7681(2)
_cell_length_b                   6.7538(3)
_cell_length_c                   12.0351(6)
_cell_angle_alpha                92.750(3)
_cell_angle_beta                 94.681(3)
_cell_angle_gamma                102.983(3)
_cell_volume                     375.518
_exptl_crystal_colour            yellowish
_exptl_crystal_description       rectangular
_cell_formula_units_Z            1
loop_
_atom_site_label
_atom_site_type_symbol
_atom_site_fract_x
_atom_site_fract_y
_atom_site_fract_z
Cl1 Cl 0.1311(2) 0.43501(18) 0.80646(10)
C1 C 0.3159(7) -0.1361(5) 0.5199(3)
C2 C 0.0363(6) 0.1240(5) 0.5088(3)
C3 C 0.1170(7) 0.1856(5) 0.6214(3)
C4 C 0.3893(8) -0.0702(6) 0.6360(3)
H1 H 0.5083 -0.1349 0.6789
C5 C -0.0079(7) -0.1462(5) 0.3529(3)
H2 H -0.2027 -0.1259 0.3402
H3 H -0.0220 -0.2913 0.3565
C6 C -0.2281(7) 0.3886(5) 0.4965(3)
H4 H -0.3483 0.4540 0.4547
C7 C 0.0173(7) 0.3494(5) 0.6685(3)
C8 C 0.2947(8) 0.0780(6) 0.6839(3)
H5 H 0.3444 0.1133 0.7598
C9 C 0.6164(9) 0.1036(6) -0.0104(3)
H6 H 0.6391 0.2341 -0.0352
C10 C 0.1576(6) -0.0728(5) 0.2550(3)
C11 C 0.4218(7) -0.1491(5) 0.1161(3)
C12 C 0.1822(7) 0.1250(5) 0.2166(3)
C13 C 0.4529(7) 0.0475(5) 0.0805(3)
C14 C 0.0523(7) 0.2843(5) 0.2692(3)
H7 H 0.2001 0.3766 0.3189
H8 H -0.0139 0.3626 0.2113
C15 C -0.1261(6) 0.2367(5) 0.4449(3)
C16 C 0.5517(9) -0.2899(7) 0.0613(3)
H9 H 0.5299 -0.4217 0.0840
C17 C 0.7092(9) -0.2292(7) -0.0253(3)
H10 H 0.7982 -0.3201 -0.0611
C18 C 0.7395(9) -0.0336(8) -0.0612(3)
H11 H 0.8464 0.0035 -0.1212
C19 C -0.1577(8) 0.4463(5) 0.6077(3)
H12 H -0.2282 0.5498 0.6412
N1 N 0.1260(5) -0.0417(4) 0.4612(2)
N2 N 0.3261(6) 0.1844(4) 0.1315(2)
N3 N 0.2729(6) -0.2084(4) 0.2051(2)
O1 O 0.4075(5) -0.2718(4) 0.4734(2)
O2 O -0.1857(5) 0.1996(4) 0.3312(2)
loop_
_geom_bond_atom_site_label_1
_geom_bond_atom_site_label_2
_geom_bond_site_symmetry_1
_geom_bond_site_symmetry_2
Cl1 C7 1_555 1_555
C1 C4 1_555 1_555
C2 C3 1_555 1_555
C3 C7 1_555 1_555
C4 H1 1_555 1_555
C5 H2 1_555 1_555
H3 C5 1_555 1_555
C6 H4 1_555 1_555
C7 C19 1_555 1_555
C8 C3 1_555 1_555
H5 C8 1_555 1_555
C9 H6 1_555 1_555
C10 C5 1_555 1_555
C11 C13 1_555 1_555
C12 C10 1_555 1_555
C13 C9 1_555 1_555
C14 C12 1_555 1_555
H7 C14 1_555 1_555
H8 C14 1_555 1_555
C15 C2 1_555 1_555
C16 C11 1_555 1_555
H9 C16 1_555 1_555
C17 C16 1_555 1_555
H10 C17 1_555 1_555
C18 C9 1_555 1_555
H11 C18 1_555 1_555
C19 C6 1_555 1_555
H12 C19 1_555 1_555
N1 C1 1_555 1_555
N2 C12 1_555 1_555
N3 C10 1_555 1_555
O1 C1 1_555 1_555
O2 C14 1_555 1_555
C2 N1 1_555 1_555
C4 C8 1_555 1_555
C5 N1 1_555 1_555
C6 C15 1_555 1_555
C11 N3 1_555 1_555
C13 N2 1_555 1_555
C15 O2 1_555 1_555
C17 C18 1_555 1_555

#END
