
#######################################################################
#
#                 Cambridge Crystallographic Data Centre
#                                CCDC 
#
#######################################################################
#
# If this CIF has been generated from an entry in the Cambridge 
# Structural Database, then it will include bibliographic, chemical, 
# crystal, experimental, refinement or atomic coordinate data resulting 
# from the CCDC's data processing and validation procedures.
#
#######################################################################

data_GUHGAT
_chemical_formula_moiety         'C20 H16 N4 2+,2(H1 O4 S1 1-)'
_chemical_name_systematic        
"2,2'-(2-phenylpyrimidine-4,6-diyl)dipyridinium bis(hydrogen sulfate)"
_symmetry_cell_setting           triclinic
_symmetry_space_group_name_H-M   'P -1'
_symmetry_Int_Tables_number      2
_space_group_name_Hall           '-P 1'
loop_
_symmetry_equiv_pos_site_id
_symmetry_equiv_pos_as_xyz
1 x,y,z
2 -x,-y,-z
_cell_length_a                   7.9700(16)
_cell_length_b                   10.300(2)
_cell_length_c                   13.880(3)
_cell_angle_alpha                102.68(3)
_cell_angle_beta                 90.48(3)
_cell_angle_gamma                110.06(3)
_cell_volume                     1039.83
_exptl_crystal_colour            yellow
_exptl_crystal_description       block
_cell_formula_units_Z            2
loop_
_atom_site_label
_atom_site_type_symbol
_atom_site_fract_x
_atom_site_fract_y
_atom_site_fract_z
C1 C 0.7093(3) 0.6332(2) 0.60038(14)
H1 H 0.7417 0.5545 0.6002
C2 C 0.6850(3) 0.7147(2) 0.68861(15)
H2 H 0.7011 0.6903 0.7478
C3 C 0.6375(3) 0.8310(2) 0.69021(15)
H3 H 0.6231 0.8858 0.7502
C4 C 0.6110(3) 0.8666(2) 0.60247(16)
H4 H 0.5783 0.9453 0.6035
C5 C 0.6328(3) 0.7857(2) 0.51319(15)
H5 H 0.6124 0.8090 0.4542
C6 C 0.6851(2) 0.66947(19) 0.51136(13)
C7 C 0.7149(2) 0.58498(18) 0.41660(13)
C8 C 0.8647(3) 0.1276(2) 0.44272(15)
H6 H 0.8683 0.1129 0.5063
C9 C 0.8920(3) 0.0331(2) 0.36464(16)
H7 H 0.9131 -0.0467 0.3742
C10 C 0.8876(3) 0.0579(2) 0.27154(16)
H8 H 0.9080 -0.0046 0.2175
C11 C 0.8530(3) 0.1758(2) 0.25812(14)
H9 H 0.8487 0.1922 0.1950
C12 C 0.8251(2) 0.26836(19) 0.33834(13)
C13 C 0.7840(2) 0.39643(18) 0.33370(13)
C14 C 0.7683(2) 0.43195(19) 0.24405(13)
H10 H 0.7860 0.3785 0.1843
C15 C 0.7246(2) 0.55175(18) 0.24930(13)
C16 C 0.7055(2) 0.60159(18) 0.15863(13)
C17 C 0.5855(3) 0.7430(2) 0.08910(15)
H11 H 0.5210 0.8041 0.0966
C18 C 0.6509(3) 0.7068(2) 0.00040(15)
H12 H 0.6312 0.7428 -0.0528
C19 C 0.7457(3) 0.6169(2) -0.00919(14)
H13 H 0.7914 0.5915 -0.0690
C20 C 0.7736(3) 0.5636(2) 0.07110(14)
H14 H 0.8380 0.5025 0.0652
N1 N 0.8329(2) 0.24116(16) 0.42824(11)
H15 H 0.8166 0.2996 0.4787
N2 N 0.7599(2) 0.47232(16) 0.41956(11)
N3 N 0.6962(2) 0.62814(16) 0.33376(11)
N4 N 0.6143(2) 0.69057(16) 0.16472(11)
H16 H 0.5725 0.7149 0.2200
O1 O 0.2125(2) 0.75707(16) -0.02118(12)
O2 O 0.1150(2) 0.9463(2) -0.03390(11)
H17 H 0.0401 0.9797 -0.0047
O3 O 0.3860(2) 0.99424(18) 0.06588(12)
O4 O 0.1054(2) 0.87925(16) 0.12103(10)
S1 S 0.20101(7) 0.88733(5) 0.03336(3)
O5 O 0.1911(3) 0.58373(18) 0.20322(12)
O6 O 0.1811(2) 0.65063(18) 0.37894(11)
O7 O 0.10998(19) 0.78529(17) 0.28114(11)
H19 H 0.1183 0.8106 0.2265
O8 O 0.4151(2) 0.79468(16) 0.29763(12)
S2 S 0.23233(7) 0.69665(5) 0.28977(3)
H18? H 0.4537 0.9921 0.0190
loop_
_geom_bond_atom_site_label_1
_geom_bond_atom_site_label_2
_geom_bond_site_symmetry_1
_geom_bond_site_symmetry_2
C1 H1 1_555 1_555
C2 C1 1_555 1_555
H2 C2 1_555 1_555
C3 C2 1_555 1_555
H3 C3 1_555 1_555
C4 C3 1_555 1_555
H4 C4 1_555 1_555
C5 C4 1_555 1_555
H5 C5 1_555 1_555
C6 C1 1_555 1_555
C7 C6 1_555 1_555
C8 H6 1_555 1_555
C9 C8 1_555 1_555
H7 C9 1_555 1_555
C10 C9 1_555 1_555
H8 C10 1_555 1_555
C11 C10 1_555 1_555
H9 C11 1_555 1_555
C12 C11 1_555 1_555
C13 C12 1_555 1_555
C14 C13 1_555 1_555
H10 C14 1_555 1_555
C15 C14 1_555 1_555
C16 C15 1_555 1_555
C17 H11 1_555 1_555
C18 C17 1_555 1_555
H12 C18 1_555 1_555
C19 C18 1_555 1_555
H13 C19 1_555 1_555
C20 C16 1_555 1_555
H14 C20 1_555 1_555
N1 C8 1_555 1_555
H15 N1 1_555 1_555
N2 C7 1_555 1_555
N3 C7 1_555 1_555
N4 C16 1_555 1_555
H16 N4 1_555 1_555
O1 S1 1_555 1_555
O2 H17 1_555 1_555
O3 S1 1_555 1_555
O4 S1 1_555 1_555
S1 O2 1_555 1_555
O5 S2 1_555 1_555
O6 S2 1_555 1_555
O7 H19 1_555 1_555
O8 S2 1_555 1_555
S2 O7 1_555 1_555
C5 C6 1_555 1_555
C12 N1 1_555 1_555
C13 N2 1_555 1_555
C15 N3 1_555 1_555
C17 N4 1_555 1_555
C19 C20 1_555 1_555

#END
