
#######################################################################
#
#                 Cambridge Crystallographic Data Centre
#                                CCDC 
#
#######################################################################
#
# If this CIF has been generated from an entry in the Cambridge 
# Structural Database, then it will include bibliographic, chemical, 
# crystal, experimental, refinement or atomic coordinate data resulting 
# from the CCDC's data processing and validation procedures.
#
#######################################################################

data_GUHPUU
_chemical_formula_moiety         'C28 H54 Mg1 N2 O4'
_chemical_name_systematic        
bis(2,2,6,6-Tetramethyl-3,5-heptanedionato)-(N,N,N',N'-tetramethylethylenediamine)-magnesium(ii)
_symmetry_cell_setting           monoclinic
_symmetry_space_group_name_H-M   'P 21/n'
_symmetry_Int_Tables_number      14
_space_group_name_Hall           '-P 2yn'
loop_
_symmetry_equiv_pos_site_id
_symmetry_equiv_pos_as_xyz
1 x,y,z
2 1/2+x,1/2-y,1/2+z
3 -x,-y,-z
4 1/2-x,1/2+y,1/2-z
_cell_length_a                   10.0943(18)
_cell_length_b                   19.183(4)
_cell_length_c                   17.052(3)
_cell_angle_alpha                90
_cell_angle_beta                 93.781(11)
_cell_angle_gamma                90
_cell_volume                     3294.74
_exptl_crystal_colour            colorless
_exptl_crystal_description       plate
_chemical_melting_point          100-102deg.C
_cell_formula_units_Z            4
_exptl_crystal_recrystallization_method pentane
loop_
_atom_site_label
_atom_site_type_symbol
_atom_site_fract_x
_atom_site_fract_y
_atom_site_fract_z
Mg1 Mg 0.70688(6) 0.11240(3) 0.29862(3)
O1 O 0.55467(14) 0.04496(7) 0.29787(8)
O2 O 0.77755(12) 0.05255(7) 0.21283(7)
O3 O 0.63158(14) 0.18167(7) 0.22020(8)
O4 O 0.62054(13) 0.17015(7) 0.38131(7)
C1 C 0.5144(2) 0.00295(11) 0.24462(12)
C2 C 0.5861(2) -0.01535(11) 0.18026(12)
H1 H 0.5463 -0.0467 0.1426
C3 C 0.7136(2) 0.01000(10) 0.16817(11)
C4 C 0.3890(19) -0.0293(12) 0.2622(10)
C6 C 0.7863(2) -0.01428(12) 0.09661(13)
C7 C 0.3411(14) -0.0873(7) 0.2014(8)
C9 C 0.2860(14) 0.0190(10) 0.277(2)
C11 C 0.4132(18) -0.0784(11) 0.3396(5)
C13 C 0.8102(4) 0.05006(17) 0.04812(18)
H2 H 0.8604 0.0844 0.0807
H3 H 0.7248 0.0702 0.0291
H4 H 0.8610 0.0373 0.0032
C14 C 0.7075(3) -0.06609(17) 0.04320(17)
H5 H 0.6911 -0.1087 0.0728
H6 H 0.7584 -0.0775 -0.0020
H7 H 0.6225 -0.0451 0.0248
C15 C 0.9150(3) -0.0490(2) 0.1270(2)
H8 H 0.9663 -0.0167 0.1616
H9 H 0.9669 -0.0617 0.0826
H10 H 0.8946 -0.0911 0.1565
C16 C 0.5345(2) 0.22208(10) 0.22587(11)
C17 C 0.47524(19) 0.23654(10) 0.29658(11)
H11 H 0.4002 0.2666 0.2944
C18 C 0.51990(18) 0.20951(9) 0.36957(11)
C20 C 0.4848(7) 0.2550(3) 0.1496(4)
C21 C 0.4457(2) 0.22527(10) 0.44396(11)
C23 C 0.3947(10) 0.3163(4) 0.1573(4)
C25 C 0.445(2) 0.1937(8) 0.0894(8)
C27 C 0.6154(15) 0.2875(8) 0.1151(10)
C28 C 0.3339(2) 0.27877(13) 0.43078(14)
H12 H 0.3710 0.3233 0.4145
H13 H 0.2898 0.2854 0.4797
H14 H 0.2693 0.2619 0.3897
C29 C 0.5472(3) 0.25150(16) 0.50786(13)
H15 H 0.5845 0.2959 0.4914
H16 H 0.6187 0.2172 0.5162
H17 H 0.5035 0.2582 0.5570
C30 C 0.3865(3) 0.15558(13) 0.46984(15)
H18 H 0.3214 0.1390 0.4289
H19 H 0.3429 0.1624 0.5189
H20 H 0.4576 0.1211 0.4781
N1 N 0.90069(18) 0.17523(10) 0.30897(12)
N2 N 0.82136(19) 0.05277(10) 0.39589(11)
C31 C 0.8773(3) 0.24314(14) 0.34488(18)
H21 H 0.9603 0.2698 0.3490
H22 H 0.8457 0.2363 0.3974
H23 H 0.8103 0.2688 0.3122
C32 C 0.9545(3) 0.18649(17) 0.23097(18)
H24 H 1.0369 0.2135 0.2375
H25 H 0.8894 0.2121 0.1969
H26 H 0.9728 0.1413 0.2071
C33 C 0.9954(3) 0.13341(19) 0.35818(19)
H27 H 1.0347 0.0973 0.3254
H28 H 1.0681 0.1638 0.3799
C34 C 0.9314(3) 0.09975(18) 0.42310(17)
H29 H 0.8965 0.1362 0.4573
H30 H 0.9987 0.0726 0.4550
C35 C 0.7405(3) 0.03844(16) 0.46170(14)
H31 H 0.7933 0.0127 0.5023
H32 H 0.6632 0.0105 0.4434
H33 H 0.7104 0.0825 0.4836
C36 C 0.8690(4) -0.01358(15) 0.36632(16)
H34 H 0.9182 -0.0387 0.4090
H35 H 0.9277 -0.0048 0.3238
H36 H 0.7932 -0.0418 0.3463
C5? C 0.3611(18) -0.0239(12) 0.2457(10)
C8? C 0.3213(14) -0.0806(6) 0.1886(8)
C10? C 0.2784(8) 0.0444(5) 0.2203(7)
C12? C 0.3399(12) -0.0361(6) 0.3323(5)
C19? C 0.482(2) 0.2545(12) 0.1390(12)
C22? C 0.352(3) 0.3090(12) 0.1538(10)
C24? C 0.411(2) 0.1981(8) 0.1020(9)
C26? C 0.5992(16) 0.2834(9) 0.1027(9)
loop_
_geom_bond_atom_site_label_1
_geom_bond_atom_site_label_2
_geom_bond_site_symmetry_1
_geom_bond_site_symmetry_2
Mg1 O1 1_555 1_555
O1 C1 1_555 1_555
O2 Mg1 1_555 1_555
O3 Mg1 1_555 1_555
O4 Mg1 1_555 1_555
C1 C2 1_555 1_555
C2 H1 1_555 1_555
C3 O2 1_555 1_555
C4 C1 1_555 1_555
C6 C3 1_555 1_555
C7 C4 1_555 1_555
C9 C4 1_555 1_555
C11 C4 1_555 1_555
C13 C6 1_555 1_555
H2 C13 1_555 1_555
H3 C13 1_555 1_555
H4 C13 1_555 1_555
C14 C6 1_555 1_555
H5 C14 1_555 1_555
H6 C14 1_555 1_555
H7 C14 1_555 1_555
C15 C6 1_555 1_555
H8 C15 1_555 1_555
H9 C15 1_555 1_555
H10 C15 1_555 1_555
C16 O3 1_555 1_555
C17 C16 1_555 1_555
H11 C17 1_555 1_555
C18 O4 1_555 1_555
C20 C16 1_555 1_555
C21 C18 1_555 1_555
C23 C20 1_555 1_555
C25 C20 1_555 1_555
C27 C20 1_555 1_555
C28 C21 1_555 1_555
H12 C28 1_555 1_555
H13 C28 1_555 1_555
H14 C28 1_555 1_555
C29 C21 1_555 1_555
H15 C29 1_555 1_555
H16 C29 1_555 1_555
H17 C29 1_555 1_555
C30 C21 1_555 1_555
H18 C30 1_555 1_555
H19 C30 1_555 1_555
H20 C30 1_555 1_555
N1 Mg1 1_555 1_555
N2 Mg1 1_555 1_555
C31 N1 1_555 1_555
H21 C31 1_555 1_555
H22 C31 1_555 1_555
H23 C31 1_555 1_555
C32 N1 1_555 1_555
H24 C32 1_555 1_555
H25 C32 1_555 1_555
H26 C32 1_555 1_555
C33 N1 1_555 1_555
H27 C33 1_555 1_555
H28 C33 1_555 1_555
C34 N2 1_555 1_555
H29 C34 1_555 1_555
H30 C34 1_555 1_555
C35 N2 1_555 1_555
H31 C35 1_555 1_555
H32 C35 1_555 1_555
H33 C35 1_555 1_555
C36 N2 1_555 1_555
H34 C36 1_555 1_555
H35 C36 1_555 1_555
H36 C36 1_555 1_555
C2 C3 1_555 1_555
C17 C18 1_555 1_555
C33 C34 1_555 1_555

#END
