
#######################################################################
#
#                 Cambridge Crystallographic Data Centre
#                                CCDC 
#
#######################################################################
#
# If this CIF has been generated from an entry in the Cambridge 
# Structural Database, then it will include bibliographic, chemical, 
# crystal, experimental, refinement or atomic coordinate data resulting 
# from the CCDC's data processing and validation procedures.
#
#######################################################################

data_GUHREG
_chemical_formula_moiety         'C7 H10 N1 1+,C8 H5 O4 1-'
_chemical_name_systematic        '2,6-Dimethylpyridinium hydrogen phthalate'
_symmetry_cell_setting           monoclinic
_symmetry_space_group_name_H-M   'C 2/c'
_symmetry_Int_Tables_number      15
_space_group_name_Hall           '-C 2yn'
loop_
_symmetry_equiv_pos_site_id
_symmetry_equiv_pos_as_xyz
1 x,y,z
2 1/2+x,1/2+y,z
3 x,-y,1/2+z
4 1/2+x,1/2-y,1/2+z
5 -x,-y,-z
6 1/2-x,1/2-y,-z
7 -x,y,1/2-z
8 1/2-x,1/2+y,1/2-z
_cell_length_a                   26.105(3)
_cell_length_b                   8.2250(10)
_cell_length_c                   13.8750(10)
_cell_angle_alpha                90
_cell_angle_beta                 116.020(10)
_cell_angle_gamma                90
_cell_volume                     2677.19
_exptl_crystal_colour            'pale yellow'
_exptl_crystal_description       prism
_chemical_melting_point          413K
_cell_formula_units_Z            8
loop_
_atom_site_label
_atom_site_type_symbol
_atom_site_fract_x
_atom_site_fract_y
_atom_site_fract_z
O1 O -0.24079(6) 0.5434(2) -0.38795(12)
O2 O -0.16587(7) 0.38538(17) -0.33246(12)
O3 O -0.06476(6) 0.40852(17) -0.22783(13)
O4 O -0.00564(6) 0.59039(18) -0.11855(11)
C1 C -0.18943(9) 0.5277(3) -0.34846(15)
C2 C -0.15187(7) 0.6787(2) -0.31673(13)
C3 C -0.18152(8) 0.8216(2) -0.35962(15)
H1 H -0.2201 0.8147 -0.4062
C4 C -0.15660(9) 0.9717(2) -0.33655(16)
H2 H -0.1779 1.0644 -0.3672
C5 C -0.09980(9) 0.9842(2) -0.26767(16)
H3 H -0.0824 1.0856 -0.2499
C6 C -0.06884(8) 0.8453(2) -0.22518(15)
H4 H -0.0302 0.8549 -0.1793
C7 C -0.09296(7) 0.6905(2) -0.24799(13)
C8 C -0.05160(8) 0.5521(2) -0.19392(16)
H15 H -0.1197(10) 0.394(3) -0.2930(18)
N1 N 0.09155(7) 0.4361(2) -0.00056(12)
C9 C 0.04590(9) 0.1748(3) -0.06023(17)
H5 H 0.0224 0.1776 -0.0231
H6 H 0.0564 0.0644 -0.0653
H7 H 0.0252 0.2189 -0.1310
C10 C 0.09836(8) 0.2735(2) -0.00018(15)
C11 C 0.15179(8) 0.2109(3) 0.05578(16)
H8 H 0.1576 0.0993 0.0564
C12 C 0.19656(9) 0.3120(3) 0.11067(17)
H9 H 0.2330 0.2694 0.1480
C13 C 0.18789(8) 0.4771(3) 0.11093(16)
H10 H 0.2183 0.5456 0.1502
C14 C 0.13426(8) 0.5408(2) 0.05318(14)
C15 C 0.12047(8) 0.7179(2) 0.04751(17)
H11 H 0.0924 0.7444 -0.0235
H12 H 0.1544 0.7803 0.0642
H13 H 0.1057 0.7427 0.0982
H14 H 0.0548(9) 0.478(3) -0.0451(16)
loop_
_geom_bond_atom_site_label_1
_geom_bond_atom_site_label_2
_geom_bond_site_symmetry_1
_geom_bond_site_symmetry_2
O1 C1 1_555 1_555
O2 C1 1_555 1_555
O3 C8 1_555 1_555
O4 C8 1_555 1_555
N1 C10 1_555 1_555
C1 C2 1_555 1_555
C2 C3 1_555 1_555
C3 H1 1_555 1_555
C4 C3 1_555 1_555
H2 C4 1_555 1_555
C5 C4 1_555 1_555
H3 C5 1_555 1_555
C6 C5 1_555 1_555
H4 C6 1_555 1_555
C7 C2 1_555 1_555
C8 C7 1_555 1_555
C9 H5 1_555 1_555
H6 C9 1_555 1_555
H7 C9 1_555 1_555
C10 C9 1_555 1_555
C11 C10 1_555 1_555
H8 C11 1_555 1_555
C12 C11 1_555 1_555
H9 C12 1_555 1_555
C13 C12 1_555 1_555
H10 C13 1_555 1_555
C14 N1 1_555 1_555
C15 C14 1_555 1_555
H11 C15 1_555 1_555
H12 C15 1_555 1_555
H13 C15 1_555 1_555
H14 N1 1_555 1_555
H15 O2 1_555 1_555
C6 C7 1_555 1_555
C13 C14 1_555 1_555

#END
