
#######################################################################
#
#                 Cambridge Crystallographic Data Centre
#                                CCDC 
#
#######################################################################
#
# If this CIF has been generated from an entry in the Cambridge 
# Structural Database, then it will include bibliographic, chemical, 
# crystal, experimental, refinement or atomic coordinate data resulting 
# from the CCDC's data processing and validation procedures.
#
#######################################################################

data_GUHYAK
_chemical_formula_moiety         'C18 H19 N2 O4 P1'
_chemical_name_systematic        
(3S,5\L,8S)-3,8-Dibenzyl-1,6-dioxa-4,9-diaza-5\L^5^-phosphaspiro[4.4]-nonane-2,7-dione
_symmetry_cell_setting           orthorhombic
_symmetry_space_group_name_H-M   'P 21 21 21'
_symmetry_Int_Tables_number      19
_space_group_name_Hall           'P 2ac 2ab'
loop_
_symmetry_equiv_pos_site_id
_symmetry_equiv_pos_as_xyz
1 x,y,z
2 1/2-x,-y,1/2+z
3 -x,1/2+y,1/2-z
4 1/2+x,1/2-y,-z
_cell_length_a                   6.0491(4)
_cell_length_b                   8.3323(5)
_cell_length_c                   34.349(3)
_cell_angle_alpha                90
_cell_angle_beta                 90
_cell_angle_gamma                90
_cell_volume                     1731.29
_exptl_crystal_colour            colorless
_exptl_crystal_description       block
_cell_formula_units_Z            4
loop_
_atom_site_label
_atom_site_type_symbol
_atom_site_fract_x
_atom_site_fract_y
_atom_site_fract_z
O1 O 0.8531(3) 0.6489(2) 0.95283(5)
C1 C 0.8592(5) 0.4986(4) 0.96472(8)
O2 O 1.0342(3) 0.4254(2) 0.96788(5)
C2 C 0.6352(4) 0.4310(3) 0.97349(8)
H1 H 0.6265 0.4089 1.0015
N1 N 0.4861(3) 0.5626(3) 0.96448(6)
H2 H 0.3452 0.5494 0.9657
P1 P 0.58930(11) 0.73452(9) 0.95218(2)
H3 H 0.636(4) 0.837(3) 0.9818(7)
O3 O 0.3247(3) 0.8173(2) 0.95162(6)
O4 O 0.0869(4) 0.9465(2) 0.91325(7)
C3 C 0.2657(5) 0.8858(4) 0.91864(11)
C4 C 0.4481(5) 0.8812(4) 0.88837(9)
H4 H 0.4946 0.9912 0.8824
N2 N 0.6276(4) 0.7979(3) 0.90764(6)
H5 H 0.7514 0.7822 0.8959
C5 C 0.5874(4) 0.2757(3) 0.95148(8)
H6 H 0.6917 0.1946 0.9600
H7 H 0.4405 0.2390 0.9585
C6 C 0.6006(5) 0.2893(3) 0.90775(8)
C7 C 0.7923(5) 0.2469(4) 0.88847(9)
H8 H 0.9159 0.2152 0.9026
C8 C 0.8013(5) 0.2515(4) 0.84798(10)
H9 H 0.9308 0.2221 0.8352
C9 C 0.6220(6) 0.2989(3) 0.82684(9)
H10 H 0.6285 0.3007 0.7998
C10 C 0.4316(5) 0.3439(4) 0.84573(9)
H11 H 0.3102 0.3783 0.8314
C11 C 0.4187(5) 0.3386(3) 0.88580(9)
H12 H 0.2883 0.3680 0.8982
C12 C 0.3686(5) 0.8005(4) 0.85108(8)
H13 H 0.3425 0.6876 0.8563
H14 H 0.2290 0.8480 0.8433
C13 C 0.5313(5) 0.8154(4) 0.81775(9)
C14 C 0.7188(5) 0.7210(4) 0.81588(10)
H15 H 0.7429 0.6424 0.8346
C15 C 0.8717(6) 0.7428(5) 0.78614(11)
H16 H 0.9978 0.6789 0.7853
C16 C 0.8386(7) 0.8577(5) 0.75797(11)
H17 H 0.9411 0.8722 0.7381
C17 C 0.6519(7) 0.9501(5) 0.75977(11)
H18 H 0.6274 1.0278 0.7408
C18 C 0.5001(5) 0.9302(5) 0.78912(9)
H19 H 0.3747 0.9946 0.7898
loop_
_geom_bond_atom_site_label_1
_geom_bond_atom_site_label_2
_geom_bond_site_symmetry_1
_geom_bond_site_symmetry_2
O1 C1 1_555 1_555
C1 O2 1_555 1_555
C2 C1 1_555 1_555
H1 C2 1_555 1_555
N1 C2 1_555 1_555
H2 N1 1_555 1_555
P1 O1 1_555 1_555
H3 P1 1_555 1_555
O3 P1 1_555 1_555
O4 C3 1_555 1_555
C3 O3 1_555 1_555
C4 C3 1_555 1_555
H4 C4 1_555 1_555
N2 P1 1_555 1_555
H5 N2 1_555 1_555
C5 C2 1_555 1_555
H6 C5 1_555 1_555
H7 C5 1_555 1_555
C6 C5 1_555 1_555
C7 C6 1_555 1_555
H8 C7 1_555 1_555
C8 C7 1_555 1_555
H9 C8 1_555 1_555
C9 C8 1_555 1_555
H10 C9 1_555 1_555
C10 C9 1_555 1_555
H11 C10 1_555 1_555
C11 C6 1_555 1_555
H12 C11 1_555 1_555
C12 C4 1_555 1_555
H13 C12 1_555 1_555
H14 C12 1_555 1_555
C13 C12 1_555 1_555
C14 C13 1_555 1_555
H15 C14 1_555 1_555
C15 C14 1_555 1_555
H16 C15 1_555 1_555
C16 C15 1_555 1_555
H17 C16 1_555 1_555
C17 C16 1_555 1_555
H18 C17 1_555 1_555
C18 C13 1_555 1_555
H19 C18 1_555 1_555
N1 P1 1_555 1_555
C4 N2 1_555 1_555
C10 C11 1_555 1_555
C17 C18 1_555 1_555

#END
