
#######################################################################
#
#                 Cambridge Crystallographic Data Centre
#                                CCDC 
#
#######################################################################
#
# If this CIF has been generated from an entry in the Cambridge 
# Structural Database, then it will include bibliographic, chemical, 
# crystal, experimental, refinement or atomic coordinate data resulting 
# from the CCDC's data processing and validation procedures.
#
#######################################################################

data_GUHYEO
_chemical_formula_moiety         'C18 H19 N2 O4 P1'
_chemical_name_systematic        
(3R,5\D,8R)-3,8-Dibenzyl-1,6-dioxa-4,9-diaza-5\L^5^-phosphaspiro[4.4]-nonane-2,7-dione
_symmetry_cell_setting           orthorhombic
_symmetry_space_group_name_H-M   'P 21 21 21'
_symmetry_Int_Tables_number      19
_space_group_name_Hall           'P 2ac 2ab'
loop_
_symmetry_equiv_pos_site_id
_symmetry_equiv_pos_as_xyz
1 x,y,z
2 1/2-x,-y,1/2+z
3 -x,1/2+y,1/2-z
4 1/2+x,1/2-y,-z
_cell_length_a                   6.0474(2)
_cell_length_b                   8.3290(3)
_cell_length_c                   34.270(2)
_cell_angle_alpha                90
_cell_angle_beta                 90
_cell_angle_gamma                90
_cell_volume                     1726.14
_exptl_crystal_colour            colorless
_exptl_crystal_description       block
_cell_formula_units_Z            4
loop_
_atom_site_label
_atom_site_type_symbol
_atom_site_fract_x
_atom_site_fract_y
_atom_site_fract_z
O1 O 0.3542(5) 0.3517(4) 0.95301(10)
C1 C 0.3623(8) 0.5025(6) 0.96479(13)
O2 O 0.5355(5) 0.5753(4) 0.96791(11)
C2 C 0.1348(8) 0.5679(6) 0.97362(14)
H1 H 0.1256 0.5900 1.0017
N1 N -0.0134(6) 0.4371(5) 0.96462(12)
H2 H -0.1543 0.4504 0.9659
P1 P 0.08930(19) 0.26561(15) 0.95221(4)
H3 H 0.1487 0.1586 0.9811
O3 O -0.1752(5) 0.1830(4) 0.95151(11)
O4 O -0.4132(6) 0.0534(4) 0.91334(14)
C3 C -0.2361(9) 0.1129(6) 0.91843(18)
C4 C -0.0502(8) 0.1182(6) 0.88824(16)
H4 H -0.0026 0.0085 0.8823
N2 N 0.1274(7) 0.2025(5) 0.90768(12)
H5 H 0.2510 0.2190 0.8960
C5 C 0.0864(8) 0.7229(6) 0.95158(16)
H6 H -0.0610 0.7590 0.9585
H7 H 0.1899 0.8045 0.9602
C6 C 0.1007(8) 0.7094(5) 0.90774(15)
C7 C 0.2934(8) 0.7528(7) 0.88831(17)
H8 H 0.4168 0.7850 0.9025
C8 C 0.3022(10) 0.7484(8) 0.84800(18)
H9 H 0.4313 0.7785 0.8352
C9 C 0.1218(11) 0.6999(7) 0.82679(17)
H10 H 0.1286 0.6968 0.7997
C10 C -0.0687(10) 0.6559(7) 0.84573(17)
H11 H -0.1907 0.6219 0.8314
C11 C -0.0802(9) 0.6618(6) 0.88590(16)
H12 H -0.2109 0.6334 0.8984
C12 C -0.1316(9) 0.1992(7) 0.85077(17)
H13 H -0.2704 0.1505 0.8429
H14 H -0.1593 0.3119 0.8560
C13 C 0.0315(9) 0.1850(7) 0.81788(17)
C14 C 0.2191(11) 0.2784(8) 0.8161(2)
H15 H 0.2442 0.3562 0.8351
C15 C 0.3705(11) 0.2571(10) 0.7862(2)
H16 H 0.4959 0.3216 0.7852
C16 C 0.3379(14) 0.1418(10) 0.7581(2)
H17 H 0.4413 0.1279 0.7383
C17 C 0.1538(13) 0.0483(9) 0.75937(19)
H18 H 0.1307 -0.0300 0.7404
C18 C 0.0008(11) 0.0701(8) 0.78898(18)
H19 H -0.1254 0.0063 0.7895
loop_
_geom_bond_atom_site_label_1
_geom_bond_atom_site_label_2
_geom_bond_site_symmetry_1
_geom_bond_site_symmetry_2
O1 C1 1_555 1_555
C1 O2 1_555 1_555
C2 C1 1_555 1_555
H1 C2 1_555 1_555
N1 C2 1_555 1_555
H2 N1 1_555 1_555
P1 O1 1_555 1_555
H3 P1 1_555 1_555
O3 P1 1_555 1_555
O4 C3 1_555 1_555
C3 O3 1_555 1_555
C4 C3 1_555 1_555
H4 C4 1_555 1_555
N2 P1 1_555 1_555
H5 N2 1_555 1_555
C5 C2 1_555 1_555
H6 C5 1_555 1_555
H7 C5 1_555 1_555
C6 C5 1_555 1_555
C7 C6 1_555 1_555
H8 C7 1_555 1_555
C8 C7 1_555 1_555
H9 C8 1_555 1_555
C9 C8 1_555 1_555
H10 C9 1_555 1_555
C10 C9 1_555 1_555
H11 C10 1_555 1_555
C11 C6 1_555 1_555
H12 C11 1_555 1_555
C12 C4 1_555 1_555
H13 C12 1_555 1_555
H14 C12 1_555 1_555
C13 C12 1_555 1_555
C14 C13 1_555 1_555
H15 C14 1_555 1_555
C15 C14 1_555 1_555
H16 C15 1_555 1_555
C16 C15 1_555 1_555
H17 C16 1_555 1_555
C17 C16 1_555 1_555
H18 C17 1_555 1_555
C18 C13 1_555 1_555
H19 C18 1_555 1_555
N1 P1 1_555 1_555
C4 N2 1_555 1_555
C10 C11 1_555 1_555
C17 C18 1_555 1_555

#END
