
#######################################################################
#
#                 Cambridge Crystallographic Data Centre
#                                CCDC 
#
#######################################################################
#
# If this CIF has been generated from an entry in the Cambridge 
# Structural Database, then it will include bibliographic, chemical, 
# crystal, experimental, refinement or atomic coordinate data resulting 
# from the CCDC's data processing and validation procedures.
#
#######################################################################

data_GUHZEQ
_chemical_formula_moiety         'C6 H10 O2'
_chemical_name_systematic        '(E)-hex-2-enoic acid'
_symmetry_cell_setting           triclinic
_symmetry_space_group_name_H-M   'P -1'
_symmetry_Int_Tables_number      2
_space_group_name_Hall           '-P 1'
loop_
_symmetry_equiv_pos_site_id
_symmetry_equiv_pos_as_xyz
1 x,y,z
2 -x,-y,-z
_cell_length_a                   6.8556(3)
_cell_length_b                   6.9894(3)
_cell_length_c                   7.4967(3)
_cell_angle_alpha                79.477(1)
_cell_angle_beta                 80.620(1)
_cell_angle_gamma                63.654(1)
_cell_volume                     315.119
_exptl_crystal_colour            colorless
_exptl_crystal_description       prism
_cell_formula_units_Z            2
loop_
_atom_site_label
_atom_site_type_symbol
_atom_site_fract_x
_atom_site_fract_y
_atom_site_fract_z
O1 O 0.25416(11) 0.27334(11) 0.55896(10)
H1 H 0.105(3) 0.340(3) 0.585(2)
O2 O 0.16993(10) 0.55854(11) 0.34602(9)
C1 C 0.30580(14) 0.39036(14) 0.41827(12)
C2 C 0.54014(14) 0.29972(14) 0.35596(12)
H2 H 0.6366 0.1656 0.4144
C3 C 0.61808(14) 0.40324(14) 0.21920(12)
H3 H 0.5155 0.5375 0.1661
C4 C 0.84965(14) 0.33135(15) 0.13986(12)
H4 H 0.8960 0.4454 0.1455
H5 H 0.8554 0.3186 0.0095
C5 C 1.01424(15) 0.12084(15) 0.22844(13)
H6 H 0.9700 0.0049 0.2245
H7 H 1.0148 0.1327 0.3579
C6 C 1.24357(16) 0.06180(18) 0.13358(15)
H8 H 1.2465 0.0372 0.0084
H9 H 1.3469 -0.0695 0.1996
H10 H 1.2850 0.1796 0.1316
loop_
_geom_bond_atom_site_label_1
_geom_bond_atom_site_label_2
_geom_bond_site_symmetry_1
_geom_bond_site_symmetry_2
O1 H1 1_555 1_555
O2 C1 1_555 1_555
C1 O1 1_555 1_555
C2 C1 1_555 1_555
H2 C2 1_555 1_555
C3 C2 1_555 1_555
H3 C3 1_555 1_555
C4 C3 1_555 1_555
H4 C4 1_555 1_555
H5 C4 1_555 1_555
C5 C4 1_555 1_555
H6 C5 1_555 1_555
H7 C5 1_555 1_555
C6 C5 1_555 1_555
H8 C6 1_555 1_555
H9 C6 1_555 1_555
H10 C6 1_555 1_555

#END
