
#######################################################################
#
#                 Cambridge Crystallographic Data Centre
#                                CCDC 
#
#######################################################################
#
# If this CIF has been generated from an entry in the Cambridge 
# Structural Database, then it will include bibliographic, chemical, 
# crystal, experimental, refinement or atomic coordinate data resulting 
# from the CCDC's data processing and validation procedures.
#
#######################################################################

data_GUJBUK
_chemical_formula_moiety         'C21 H19 N1 O3'
_chemical_name_systematic        
2-methyl-4-phenyl-3a,4,5,8,9,11b-hexahydro-3H-cyclopenta[c][1,4]dioxino[2,3-g]quinolin-3-one
_symmetry_cell_setting           triclinic
_symmetry_space_group_name_H-M   'P -1'
_symmetry_Int_Tables_number      2
_space_group_name_Hall           '-P 1'
loop_
_symmetry_equiv_pos_site_id
_symmetry_equiv_pos_as_xyz
1 x,y,z
2 -x,-y,-z
_cell_length_a                   8.0178(17)
_cell_length_b                   8.915(2)
_cell_length_c                   12.540(3)
_cell_angle_alpha                95.780(17)
_cell_angle_beta                 108.076(15)
_cell_angle_gamma                90.264(16)
_cell_volume                     847.163
_exptl_crystal_colour            colorless
_exptl_crystal_description       plate
_cell_formula_units_Z            2
loop_
_atom_site_label
_atom_site_type_symbol
_atom_site_fract_x
_atom_site_fract_y
_atom_site_fract_z
C1 C -0.1148(7) 0.2582(7) 0.4365(4)
H1 H -0.1341 0.3571 0.4059
H2 H -0.2296 0.2027 0.4144
C2 C 0.0066(7) 0.1712(7) 0.3865(5)
H3 H 0.0244 0.0714 0.4157
H4 H -0.0464 0.1546 0.3035
C3 C 0.2349(6) 0.3117(6) 0.5254(4)
C4 C 0.4104(6) 0.3574(6) 0.5705(4)
H5 H 0.4838 0.3457 0.5238
C5 C 0.4821(6) 0.4192(5) 0.6808(4)
C6 C 0.6801(6) 0.4495(6) 0.7323(4)
H6 H 0.7267 0.5050 0.6815
C7 C 0.7697(6) 0.3006(6) 0.7523(4)
H7 H 0.7761 0.2290 0.6923
C8 C 0.8376(6) 0.2785(6) 0.8589(4)
C9 C 0.9240(8) 0.1425(6) 0.9108(5)
H8 H 0.8509 0.0982 0.9502
H9 H 1.0397 0.1727 0.9645
H10 H 0.9376 0.0679 0.8514
C10 C 0.8108(6) 0.4110(6) 0.9286(4)
C11 C 0.7341(6) 0.5341(5) 0.8521(4)
H11 H 0.8296 0.6106 0.8591
C12 C 0.5884(6) 0.6124(5) 0.8872(4)
H12 H 0.6326 0.6368 0.9710
C13 C 0.5333(6) 0.7601(5) 0.8366(4)
C14 C 0.5912(6) 0.8086(6) 0.7520(4)
H13 H 0.6682 0.7486 0.7230
C15 C 0.5369(7) 0.9450(6) 0.7092(4)
H14 H 0.5757 0.9767 0.6504
C16 C 0.4278(7) 1.0334(6) 0.7515(5)
H15 H 0.3908 1.1261 0.7222
C17 C 0.3719(7) 0.9870(6) 0.8368(4)
H16 H 0.2979 1.0490 0.8671
C18 C 0.4226(7) 0.8513(5) 0.8786(4)
H17 H 0.3816 0.8198 0.9365
C19 C 0.3731(6) 0.4399(5) 0.7493(4)
C20 C 0.1958(6) 0.3927(5) 0.7043(4)
H18 H 0.1215 0.4055 0.7503
C21 C 0.1280(6) 0.3287(5) 0.5956(4)
N1 N 0.4422(5) 0.4997(4) 0.8618(3)
H19 H 0.363(7) 0.532(6) 0.903(4)
O1 O -0.0470(4) 0.2819(4) 0.5561(3)
O2 O 0.1734(5) 0.2519(4) 0.4145(3)
O3 O 0.8422(4) 0.4237(4) 1.0307(3)
loop_
_geom_bond_atom_site_label_1
_geom_bond_atom_site_label_2
_geom_bond_site_symmetry_1
_geom_bond_site_symmetry_2
C1 H1 1_555 1_555
H2 C1 1_555 1_555
C2 C1 1_555 1_555
H3 C2 1_555 1_555
H4 C2 1_555 1_555
C3 C4 1_555 1_555
C4 H5 1_555 1_555
C5 C4 1_555 1_555
C6 C5 1_555 1_555
H6 C6 1_555 1_555
C7 C6 1_555 1_555
H7 C7 1_555 1_555
C8 C7 1_555 1_555
C9 C8 1_555 1_555
H8 C9 1_555 1_555
H9 C9 1_555 1_555
H10 C9 1_555 1_555
C10 C8 1_555 1_555
C11 C6 1_555 1_555
H11 C11 1_555 1_555
C12 C11 1_555 1_555
H12 C12 1_555 1_555
C13 C12 1_555 1_555
C14 C13 1_555 1_555
H13 C14 1_555 1_555
C15 C14 1_555 1_555
H14 C15 1_555 1_555
C16 C15 1_555 1_555
H15 C16 1_555 1_555
C17 C16 1_555 1_555
H16 C17 1_555 1_555
C18 C13 1_555 1_555
H17 C18 1_555 1_555
C19 C5 1_555 1_555
C20 C19 1_555 1_555
H18 C20 1_555 1_555
C21 C3 1_555 1_555
N1 C12 1_555 1_555
H19 N1 1_555 1_555
O1 C1 1_555 1_555
O2 C2 1_555 1_555
O3 C10 1_555 1_555
C3 O2 1_555 1_555
C10 C11 1_555 1_555
C17 C18 1_555 1_555
C19 N1 1_555 1_555
C20 C21 1_555 1_555
C21 O1 1_555 1_555

#END
