
#######################################################################
#
#                 Cambridge Crystallographic Data Centre
#                                CCDC 
#
#######################################################################
#
# If this CIF has been generated from an entry in the Cambridge 
# Structural Database, then it will include bibliographic, chemical, 
# crystal, experimental, refinement or atomic coordinate data resulting 
# from the CCDC's data processing and validation procedures.
#
#######################################################################

data_GUJGAV
_chemical_formula_moiety         'C31 H42 O7'
_chemical_name_systematic        
"2-(acetoxymethyl)-9a-allyl-8-ethoxy-2,4,4,6-tetramethyldecahydro-2H-cyclopropa[1,7]furo[3',2':3,4]cyclohepta[1,2-b]furan-1-yl benzoate"
_symmetry_cell_setting           monoclinic
_symmetry_space_group_name_H-M   'P 21/n'
_symmetry_Int_Tables_number      14
_space_group_name_Hall           '-P 2yn'
loop_
_symmetry_equiv_pos_site_id
_symmetry_equiv_pos_as_xyz
1 x,y,z
2 1/2-x,1/2+y,1/2-z
3 -x,-y,-z
4 1/2+x,1/2-y,1/2+z
_cell_length_a                   11.6728(13)
_cell_length_b                   9.9615(10)
_cell_length_c                   25.140(3)
_cell_angle_alpha                90
_cell_angle_beta                 90.932(11)
_cell_angle_gamma                90
_cell_volume                     2922.86
_exptl_crystal_colour            colorless
_exptl_crystal_description       block
_cell_formula_units_Z            4
_exptl_crystal_recrystallization_method dicholromethane/hexanes
loop_
_atom_site_label
_atom_site_type_symbol
_atom_site_fract_x
_atom_site_fract_y
_atom_site_fract_z
O1 O 0.7141(4) 0.6321(6) 0.2022(2)
O2 O 0.7850(4) 0.6920(5) 0.12373(17)
O3 O 0.5654(3) 0.8327(4) 0.04561(16)
O4 O 0.4515(4) 0.8546(5) 0.13980(19)
O5 O 0.2985(5) 0.7647(7) 0.1764(3)
O6 O 0.6607(4) 1.2642(5) 0.10476(18)
O7 O 0.5400(4) 1.2316(5) 0.1771(2)
C1 C 0.9786(7) 0.5409(9) 0.1390(4)
H1 H 0.9787 0.6053 0.1122
C2 C 1.0704(7) 0.4526(11) 0.1460(5)
H2 H 1.1349 0.4617 0.1251
C3 C 1.0661(8) 0.3512(11) 0.1838(4)
H3 H 1.1257 0.2895 0.1869
C4 C 0.9764(8) 0.3426(9) 0.2159(3)
H4 H 0.9749 0.2759 0.2418
C5 C 0.8864(7) 0.4306(7) 0.2113(3)
H5 H 0.8245 0.4231 0.2339
C6 C 0.8874(5) 0.5297(7) 0.1732(3)
C7 C 0.7882(6) 0.6236(7) 0.1691(2)
C8 C 0.6957(5) 0.7919(6) 0.1165(2)
H6 H 0.6742 0.8302 0.1508
C9 C 0.5890(5) 0.7346(7) 0.0868(3)
C10 C 0.6737(4) 0.8796(6) 0.0286(2)
C11 C 0.7434(5) 0.9013(6) 0.0799(2)
H7 H 0.8228 0.8769 0.0723
C12 C 0.7456(5) 1.0487(6) 0.1031(2)
C13 C 0.6761(5) 1.1521(6) 0.0702(2)
H8 H 0.6001 1.1128 0.0639
C14 C 0.7165(5) 1.2039(7) 0.0167(3)
H9 H 0.6490 1.2425 -0.0012
C15 C 0.7566(6) 1.0906(7) -0.0182(3)
H10 H 0.8326 1.0634 -0.0063
H11 H 0.7628 1.1237 -0.0544
C16 C 0.6795(5) 0.9687(7) -0.0187(2)
H12 H 0.6053 0.9834 -0.0365
C17 C 0.6797(5) 1.0677(7) 0.1555(2)
H13 H 0.6102 1.0143 0.1552
H14 H 0.7268 1.0418 0.1859
C18 C 0.6515(6) 1.2166(8) 0.1575(3)
H15 H 0.7066 1.2632 0.1808
C19 C 0.6107(7) 0.5966(8) 0.0626(3)
H16 H 0.5457 0.5706 0.0411
H17 H 0.6224 0.5321 0.0905
H18 H 0.6776 0.6003 0.0409
C20 C 0.4813(6) 0.7256(7) 0.1203(3)
H19 H 0.4185 0.6899 0.0989
H20 H 0.4948 0.6650 0.1500
C21 C 0.3548(6) 0.8609(8) 0.1666(3)
C22 C 0.3287(6) 1.0014(8) 0.1830(4)
H21 H 0.3973 1.0436 0.1963
H22 H 0.2722 1.0005 0.2103
H23 H 0.2997 1.0507 0.1528
C23 C 0.8718(5) 1.0934(7) 0.1116(3)
H24 H 0.9096 1.0923 0.0775
H25 H 0.8725 1.1853 0.1244
C24 C 0.9386(6) 1.0091(9) 0.1495(3)
H26 H 0.9194 1.0154 0.1851
C25 C 1.0207(7) 0.9279(11) 0.1380(4)
H27 H 1.0431 0.9180 0.1029
H28 H 1.0574 0.8792 0.1648
C26 C 0.8084(7) 1.3165(8) 0.0187(3)
H29 H 0.7975 1.3710 0.0497
H30 H 0.8012 1.3712 -0.0126
H31 H 0.8834 1.2768 0.0202
C27 C 0.7234(6) 0.8253(7) -0.0229(3)
C28 C 0.6498(7) 0.7306(9) -0.0558(3)
H32 H 0.5709 0.7424 -0.0467
H33 H 0.6725 0.6397 -0.0486
H34 H 0.6595 0.7497 -0.0928
C29 C 0.8508(6) 0.7973(8) -0.0261(3)
H35 H 0.8739 0.8018 -0.0625
H36 H 0.8667 0.7093 -0.0122
H37 H 0.8923 0.8629 -0.0055
C30 C 0.5134(8) 1.3646(9) 0.1897(5)
H38 H 0.5193 1.4196 0.1580
H39 H 0.5686 1.3979 0.2158
C31 C 0.3975(8) 1.3769(11) 0.2110(4)
H40 H 0.3424 1.3481 0.1846
H41 H 0.3831 1.4688 0.2202
H42 H 0.3912 1.3217 0.2422
loop_
_geom_bond_atom_site_label_1
_geom_bond_atom_site_label_2
_geom_bond_site_symmetry_1
_geom_bond_site_symmetry_2
O1 C7 1_555 1_555
O2 C7 1_555 1_555
O3 C9 1_555 1_555
O4 C20 1_555 1_555
O5 C21 1_555 1_555
O6 C13 1_555 1_555
O7 C18 1_555 1_555
C1 H1 1_555 1_555
C2 C1 1_555 1_555
H2 C2 1_555 1_555
C3 C2 1_555 1_555
H3 C3 1_555 1_555
C4 C3 1_555 1_555
H4 C4 1_555 1_555
C5 C4 1_555 1_555
H5 C5 1_555 1_555
C6 C1 1_555 1_555
C7 C6 1_555 1_555
C8 O2 1_555 1_555
H6 C8 1_555 1_555
C9 C8 1_555 1_555
C10 O3 1_555 1_555
C11 C8 1_555 1_555
H7 C11 1_555 1_555
C12 C11 1_555 1_555
C13 C12 1_555 1_555
H8 C13 1_555 1_555
C14 C13 1_555 1_555
H9 C14 1_555 1_555
C15 C14 1_555 1_555
H10 C15 1_555 1_555
H11 C15 1_555 1_555
C16 C10 1_555 1_555
H12 C16 1_555 1_555
C17 C12 1_555 1_555
H13 C17 1_555 1_555
H14 C17 1_555 1_555
C18 O6 1_555 1_555
H15 C18 1_555 1_555
C19 C9 1_555 1_555
H16 C19 1_555 1_555
H17 C19 1_555 1_555
H18 C19 1_555 1_555
C20 C9 1_555 1_555
H19 C20 1_555 1_555
H20 C20 1_555 1_555
C21 O4 1_555 1_555
C22 C21 1_555 1_555
H21 C22 1_555 1_555
H22 C22 1_555 1_555
H23 C22 1_555 1_555
C23 C12 1_555 1_555
H24 C23 1_555 1_555
H25 C23 1_555 1_555
C24 C23 1_555 1_555
H26 C24 1_555 1_555
C25 C24 1_555 1_555
H27 C25 1_555 1_555
H28 C25 1_555 1_555
C26 C14 1_555 1_555
H29 C26 1_555 1_555
H30 C26 1_555 1_555
H31 C26 1_555 1_555
C27 C10 1_555 1_555
C28 C27 1_555 1_555
H32 C28 1_555 1_555
H33 C28 1_555 1_555
H34 C28 1_555 1_555
C29 C27 1_555 1_555
H35 C29 1_555 1_555
H36 C29 1_555 1_555
H37 C29 1_555 1_555
C30 O7 1_555 1_555
H38 C30 1_555 1_555
H39 C30 1_555 1_555
C31 C30 1_555 1_555
H40 C31 1_555 1_555
H41 C31 1_555 1_555
H42 C31 1_555 1_555
C5 C6 1_555 1_555
C10 C11 1_555 1_555
C15 C16 1_555 1_555
C16 C27 1_555 1_555
C17 C18 1_555 1_555

#END
