
#######################################################################
#
#                 Cambridge Crystallographic Data Centre
#                                CCDC 
#
#######################################################################
#
# If this CIF has been generated from an entry in the Cambridge 
# Structural Database, then it will include bibliographic, chemical, 
# crystal, experimental, refinement or atomic coordinate data resulting 
# from the CCDC's data processing and validation procedures.
#
#######################################################################

data_GUJKEC
_chemical_formula_moiety         'C20 H16 O2'
_chemical_name_systematic        "Methyl 1,1':3',1''-terphenyl-2'-carboxylate"
_symmetry_cell_setting           orthorhombic
_symmetry_space_group_name_H-M   'P c a 21'
_symmetry_Int_Tables_number      29
_space_group_name_Hall           'P 2c -2ac'
loop_
_symmetry_equiv_pos_site_id
_symmetry_equiv_pos_as_xyz
1 x,y,z
2 -x,-y,1/2+z
3 1/2+x,-y,z
4 1/2-x,y,1/2+z
_cell_length_a                   9.9569(6)
_cell_length_b                   10.3038(7)
_cell_length_c                   15.0475(14)
_cell_angle_alpha                90
_cell_angle_beta                 90
_cell_angle_gamma                90
_cell_volume                     1543.78
_exptl_crystal_colour            colorless
_exptl_crystal_description       prism
_chemical_melting_point          '140-150 deg.C'
_cell_formula_units_Z            4
loop_
_atom_site_label
_atom_site_type_symbol
_atom_site_fract_x
_atom_site_fract_y
_atom_site_fract_z
C1 C 1.08521(18) 0.30666(16) 0.35503(12)
C2 C 0.96082(16) 0.22575(14) 0.35539(15)
C3 C 0.91365(18) 0.17481(16) 0.27487(14)
C4 C 0.8022(2) 0.09294(18) 0.27621(16)
H1 H 0.7718 0.0558 0.2236
C5 C 0.73692(18) 0.06661(17) 0.35467(19)
H2 H 0.6611 0.0140 0.3545
C6 C 0.78288(19) 0.11741(18) 0.43300(15)
H3 H 0.7377 0.0988 0.4856
C7 C 0.89649(17) 0.19674(15) 0.43521(13)
C8 C 0.97225(18) 0.20846(18) 0.18744(13)
C9 C 1.00186(19) 0.1119(2) 0.12619(15)
H4 H 0.9928 0.0252 0.1423
C10 C 1.0443(2) 0.1430(3) 0.04219(17)
H5 H 1.0642 0.0770 0.0022
C11 C 1.05793(19) 0.2697(3) 0.01615(14)
H6 H 1.0855 0.2899 -0.0413
C12 C 1.0302(2) 0.3668(2) 0.07637(15)
H7 H 1.0403 0.4532 0.0598
C13 C 0.98732(18) 0.33644(18) 0.16128(14)
H8 H 0.9684 0.4028 0.2013
C14 C 0.94652(18) 0.23820(17) 0.52373(13)
C15 C 0.8588(2) 0.28446(18) 0.58666(15)
H9 H 0.7688 0.2947 0.5717
C16 C 0.8997(2) 0.3159(2) 0.67071(16)
H10 H 0.8380 0.3482 0.7115
C17 C 1.0317(2) 0.3001(2) 0.69512(15)
H11 H 1.0595 0.3198 0.7526
C18 C 1.1222(2) 0.25461(19) 0.63342(15)
H12 H 1.2121 0.2447 0.6489
C19 C 1.08008(19) 0.22375(18) 0.54895(13)
H13 H 1.1421 0.1926 0.5079
C20 C 1.17975(18) 0.50967(16) 0.39179(13)
H14 H 1.1534 0.5943 0.4120
H15 H 1.2238 0.5171 0.3353
H16 H 1.2402 0.4715 0.4341
O1 O 1.19377(12) 0.26874(11) 0.33290(9)
O2 O 1.06154(10) 0.42812(10) 0.38268(8)
loop_
_geom_bond_atom_site_label_1
_geom_bond_atom_site_label_2
_geom_bond_site_symmetry_1
_geom_bond_site_symmetry_2
C1 C2 1_555 1_555
C2 C3 1_555 1_555
C3 C4 1_555 1_555
C4 H1 1_555 1_555
C5 C4 1_555 1_555
H2 C5 1_555 1_555
C6 C5 1_555 1_555
H3 C6 1_555 1_555
C7 C2 1_555 1_555
C8 C3 1_555 1_555
C9 C8 1_555 1_555
H4 C9 1_555 1_555
C10 C9 1_555 1_555
H5 C10 1_555 1_555
C11 C10 1_555 1_555
H6 C11 1_555 1_555
C12 C11 1_555 1_555
H7 C12 1_555 1_555
C13 C8 1_555 1_555
H8 C13 1_555 1_555
C14 C7 1_555 1_555
C15 C14 1_555 1_555
H9 C15 1_555 1_555
C16 C15 1_555 1_555
H10 C16 1_555 1_555
C17 C16 1_555 1_555
H11 C17 1_555 1_555
C18 C17 1_555 1_555
H12 C18 1_555 1_555
C19 C14 1_555 1_555
H13 C19 1_555 1_555
C20 H14 1_555 1_555
H15 C20 1_555 1_555
H16 C20 1_555 1_555
O1 C1 1_555 1_555
O2 C1 1_555 1_555
C6 C7 1_555 1_555
C12 C13 1_555 1_555
C18 C19 1_555 1_555
C20 O2 1_555 1_555

#END
