
#######################################################################
#
#                 Cambridge Crystallographic Data Centre
#                                CCDC 
#
#######################################################################
#
# If this CIF has been generated from an entry in the Cambridge 
# Structural Database, then it will include bibliographic, chemical, 
# crystal, experimental, refinement or atomic coordinate data resulting 
# from the CCDC's data processing and validation procedures.
#
#######################################################################

data_GUJKIG
_chemical_formula_moiety         'C17 H17 Cl1 O3'
_chemical_name_systematic        
"4'-Chloro-4-ethyl-3-hydroxybiphenyl-2-carboxylic acid ethyl ester"
_symmetry_cell_setting           triclinic
_symmetry_space_group_name_H-M   'P -1'
_symmetry_Int_Tables_number      2
_space_group_name_Hall           '-P 1'
loop_
_symmetry_equiv_pos_site_id
_symmetry_equiv_pos_as_xyz
1 x,y,z
2 -x,-y,-z
_cell_length_a                   7.6839(2)
_cell_length_b                   8.8164(3)
_cell_length_c                   12.0001(4)
_cell_angle_alpha                78.2820(10)
_cell_angle_beta                 78.3060(10)
_cell_angle_gamma                74.039(2)
_cell_volume                     755.943
_exptl_crystal_colour            colorless
_exptl_crystal_description       'fragment of prism'
_chemical_melting_point          '371 K'
_cell_formula_units_Z            2
loop_
_atom_site_label
_atom_site_type_symbol
_atom_site_fract_x
_atom_site_fract_y
_atom_site_fract_z
Cl1 Cl 0.34452(5) 0.36375(6) 0.50071(3)
O1 O 1.12353(11) 0.23976(10) -0.19982(7)
H1 H 1.167(2) 0.275(2) -0.1544(16)
O2 O 1.16623(10) 0.32935(11) -0.02033(7)
O3 O 0.98049(10) 0.28272(9) 0.14499(6)
C1 C 0.96193(13) 0.21283(12) -0.13992(9)
C2 C 0.90165(12) 0.23909(11) -0.02438(8)
C3 C 0.72791(12) 0.21471(11) 0.03179(8)
C4 C 0.62757(14) 0.15805(13) -0.02732(9)
H2 H 0.5126 0.1384 0.0099
C5 C 0.69205(15) 0.12926(14) -0.14044(10)
H3 H 0.6207 0.0886 -0.1778
C6 C 0.85729(14) 0.15829(13) -0.19978(9)
C7 C 1.02713(12) 0.28831(11) 0.03234(9)
C8 C 1.09328(14) 0.33854(14) 0.20445(10)
H4 H 1.1159 0.4421 0.1629
H5 H 1.2127 0.2601 0.2093
C9 C 0.98802(17) 0.35672(18) 0.32264(11)
H6 H 0.8698 0.4339 0.3163
H7 H 1.0581 0.3950 0.3661
H8 H 0.9673 0.2532 0.3628
C10 C 0.64012(12) 0.25329(12) 0.14898(8)
C11 C 0.61826(14) 0.13088(13) 0.24039(9)
H9 H 0.6643 0.0228 0.2285
C12 C 0.52989(16) 0.16507(16) 0.34872(10)
H10 H 0.5173 0.0809 0.4109
C13 C 0.46073(14) 0.32168(16) 0.36527(10)
C14 C 0.47853(15) 0.44610(15) 0.27562(11)
H11 H 0.4299 0.5538 0.2878
C15 C 0.56840(14) 0.41113(13) 0.16775(10)
H12 H 0.5812 0.4958 0.1060
C16 C 0.92735(17) 0.13711(17) -0.32427(10)
H13 H 1.0391 0.0484 -0.3271
H14 H 0.9632 0.2354 -0.3665
C17 C 0.79270(18) 0.10257(17) -0.38667(11)
H15 H 0.7603 0.0027 -0.3481
H16 H 0.8489 0.0925 -0.4666
H17 H 0.6819 0.1903 -0.3856
loop_
_geom_bond_atom_site_label_1
_geom_bond_atom_site_label_2
_geom_bond_site_symmetry_1
_geom_bond_site_symmetry_2
Cl1 C13 1_555 1_555
O1 H1 1_555 1_555
O2 C7 1_555 1_555
O3 C7 1_555 1_555
C1 O1 1_555 1_555
C2 C1 1_555 1_555
C3 C2 1_555 1_555
C4 C3 1_555 1_555
H2 C4 1_555 1_555
C5 C4 1_555 1_555
H3 C5 1_555 1_555
C6 C1 1_555 1_555
C7 C2 1_555 1_555
C8 O3 1_555 1_555
H4 C8 1_555 1_555
H5 C8 1_555 1_555
C9 C8 1_555 1_555
H6 C9 1_555 1_555
H7 C9 1_555 1_555
H8 C9 1_555 1_555
C10 C3 1_555 1_555
C11 C10 1_555 1_555
H9 C11 1_555 1_555
C12 C11 1_555 1_555
H10 C12 1_555 1_555
C13 C12 1_555 1_555
C14 C13 1_555 1_555
H11 C14 1_555 1_555
C15 C10 1_555 1_555
H12 C15 1_555 1_555
C16 C6 1_555 1_555
H13 C16 1_555 1_555
H14 C16 1_555 1_555
C17 C16 1_555 1_555
H15 C17 1_555 1_555
H16 C17 1_555 1_555
H17 C17 1_555 1_555
C5 C6 1_555 1_555
C14 C15 1_555 1_555

#END
