
#######################################################################
#
#                 Cambridge Crystallographic Data Centre
#                                CCDC 
#
#######################################################################
#
# If this CIF has been generated from an entry in the Cambridge 
# Structural Database, then it will include bibliographic, chemical, 
# crystal, experimental, refinement or atomic coordinate data resulting 
# from the CCDC's data processing and validation procedures.
#
#######################################################################

data_GUJSEL
_chemical_formula_moiety         'C14 H12 F3 N1 O3,C14 H12 F3 N1 O3'
_chemical_name_systematic        
'2,2,2-Trifluoro-N-(3-(3-hydroxy-1H-inden-2-yl)-3-oxopropyl)acetamide 2,2,2-trifluoro-N-(3-hydroxy-3-(1-oxo-1,3-dihydro-2H-inden-2-ylidene)propyl)acetamide'
_symmetry_cell_setting           triclinic
_symmetry_space_group_name_H-M   'P -1'
_symmetry_Int_Tables_number      2
_space_group_name_Hall           '-P 1'
loop_
_symmetry_equiv_pos_site_id
_symmetry_equiv_pos_as_xyz
1 x,y,z
2 -x,-y,-z
_cell_length_a                   9.8661(2)
_cell_length_b                   12.1391(3)
_cell_length_c                   12.6797(3)
_cell_angle_alpha                74.046(2)
_cell_angle_beta                 77.445(2)
_cell_angle_gamma                67.218(2)
_cell_volume                     1335.61
_exptl_crystal_colour            colorless
_exptl_crystal_description       prism
_chemical_melting_point          '413 K'
_cell_formula_units_Z            2
loop_
_atom_site_label
_atom_site_type_symbol
_atom_site_fract_x
_atom_site_fract_y
_atom_site_fract_z
O1 O 0.5972(3) 0.3981(3) 0.2307(3)
O2 O 0.6018(4) 0.6025(3) 0.2576(3)
O3 O 0.5667(5) 1.0351(3) 0.0974(3)
N1 N 0.6457(5) 0.8425(4) 0.2016(4)
C1 C 0.4827(5) 0.4725(4) 0.1788(3)
C2 C 0.4274(5) 0.5985(4) 0.1635(4)
C3 C 0.2967(6) 0.6487(4) 0.0987(4)
C4 C 0.1937(6) 0.5228(6) 0.0197(4)
C5 C 0.2094(6) 0.4073(6) 0.0123(5)
C6 C 0.3168(6) 0.3040(5) 0.0622(4)
C7 C 0.4131(6) 0.3159(5) 0.1195(4)
C8 C 0.3976(5) 0.4315(4) 0.1274(4)
C9 C 0.2880(5) 0.5360(4) 0.0781(3)
C10 C 0.4881(5) 0.6612(4) 0.2060(4)
C11 C 0.4238(7) 0.7974(5) 0.1927(5)
C12 C 0.4960(7) 0.8476(5) 0.2538(5)
C13 C 0.6630(6) 0.9394(5) 0.1288(4)
C14 C 0.8230(8) 0.9253(6) 0.0843(6)
F1 F 0.8301(15) 0.9404(19) -0.0153(12)
F2 F 0.8372(14) 1.0313(11) 0.0894(17)
F3 F 0.9143(11) 0.8427(14) 0.1270(16)
H1 H 0.304(3) 0.716(3) 0.031(3)
H2 H 0.201(5) 0.695(4) 0.141(4)
H3 H 0.125(5) 0.597(4) -0.018(4)
H4 H 0.148(5) 0.391(4) -0.034(3)
H5 H 0.329(5) 0.221(4) 0.053(3)
H6 H 0.484(4) 0.248(3) 0.153(3)
H7 H 0.632(4) 0.466(4) 0.253(3)
H8 H 0.426(5) 0.839(4) 0.111(4)
H9 H 0.319(5) 0.817(4) 0.219(4)
H10 H 0.516(4) 0.800(4) 0.328(3)
H11 H 0.430(5) 0.935(4) 0.246(3)
H12 H 0.733(19) 0.718(15) 0.230(12)
O4 O 0.9030(3) 0.6007(3) 0.2692(3)
O5 O 0.8990(4) 0.3966(3) 0.2426(3)
O6 O 0.9327(5) -0.0347(3) 0.4029(4)
N2 N 0.8565(5) 0.1549(4) 0.2992(4)
C15 C 1.0161(5) 0.5278(4) 0.3217(4)
C16 C 1.0731(5) 0.4019(4) 0.3367(4)
C17 C 1.2034(6) 0.3508(5) 0.4014(4)
C18 C 1.3061(6) 0.4768(6) 0.4794(5)
C19 C 1.2913(6) 0.5922(6) 0.4871(4)
C20 C 1.1829(6) 0.6955(5) 0.4382(5)
C21 C 1.0867(6) 0.6847(5) 0.3800(4)
C22 C 1.1018(5) 0.5689(4) 0.3730(4)
C23 C 1.2109(5) 0.4642(4) 0.4218(4)
C24 C 1.0117(5) 0.3389(4) 0.2945(4)
C25 C 1.0770(7) 0.2030(5) 0.3070(5)
C26 C 1.0030(7) 0.1529(6) 0.2474(5)
C27 C 0.8344(7) 0.0597(4) 0.3722(4)
C28 C 0.6756(7) 0.0716(6) 0.4193(6)
F4 F 0.6616(13) 0.0302(12) 0.5238(6)
F5 F 0.6302(19) 0.011(2) 0.3774(13)
F6 F 0.5852(11) 0.1837(10) 0.4151(18)
H13 H 1.180(4) 0.305(3) 0.480(3)
H14 H 1.297(5) 0.306(4) 0.358(3)
H15 H 1.379(5) 0.407(4) 0.512(3)
H16 H 1.360(5) 0.596(4) 0.528(3)
H17 H 1.174(6) 0.779(4) 0.445(4)
H18 H 1.004(5) 0.759(4) 0.355(3)
H19 H 1.073(4) 0.164(3) 0.384(3)
H20 H 1.190(6) 0.182(5) 0.278(4)
H21 H 0.773(3) 0.226(2) 0.2819(17)
H22 H 1.010(5) 0.197(4) 0.165(4)
H23 H 1.058(5) 0.079(4) 0.234(3)
H24 H 0.876(6) 0.502(6) 0.226(5)
F7? F 0.9067(10) 0.8123(7) 0.0539(9)
F8? F 0.8997(10) 0.9317(15) 0.1530(9)
F9? F 0.8452(11) 0.9992(11) -0.0133(12)
F10? F 0.616(2) 0.159(2) 0.4657(19)
F11? F 0.5937(12) 0.1067(18) 0.3382(9)
F12? F 0.6709(14) -0.0276(13) 0.478(2)
loop_
_geom_bond_atom_site_label_1
_geom_bond_atom_site_label_2
_geom_bond_site_symmetry_1
_geom_bond_site_symmetry_2
O1 C1 1_555 1_555
O2 C10 1_555 1_555
O3 C13 1_555 1_555
N1 C12 1_555 1_555
C1 C2 1_555 1_555
C2 C3 1_555 1_555
C3 C9 1_555 1_555
C4 C5 1_555 1_555
C5 C6 1_555 1_555
C6 C7 1_555 1_555
C7 C8 1_555 1_555
C8 C1 1_555 1_555
C9 C4 1_555 1_555
C10 C2 1_555 1_555
C11 C10 1_555 1_555
C12 C11 1_555 1_555
C13 N1 1_555 1_555
C14 C13 1_555 1_555
F1 C14 1_555 1_555
F2 C14 1_555 1_555
F3 C14 1_555 1_555
H1 C3 1_555 1_555
H2 C3 1_555 1_555
H3 C4 1_555 1_555
H4 C5 1_555 1_555
H5 C6 1_555 1_555
H6 C7 1_555 1_555
H7 O1 1_555 1_555
H8 C11 1_555 1_555
H9 C11 1_555 1_555
H10 C12 1_555 1_555
H11 C12 1_555 1_555
H12 N1 1_555 1_555
O4 C15 1_555 1_555
O5 C24 1_555 1_555
O6 C27 1_555 1_555
N2 C26 1_555 1_555
C15 C16 1_555 1_555
C16 C17 1_555 1_555
C17 C23 1_555 1_555
C18 C19 1_555 1_555
C19 C20 1_555 1_555
C20 C21 1_555 1_555
C21 C22 1_555 1_555
C22 C15 1_555 1_555
C23 C18 1_555 1_555
C24 C16 1_555 1_555
C25 C24 1_555 1_555
C26 C25 1_555 1_555
C27 N2 1_555 1_555
C28 C27 1_555 1_555
F4 C28 1_555 1_555
F5 C28 1_555 1_555
F6 C28 1_555 1_555
H13 C17 1_555 1_555
H14 C17 1_555 1_555
H15 C18 1_555 1_555
H16 C19 1_555 1_555
H17 C20 1_555 1_555
H18 C21 1_555 1_555
H19 C25 1_555 1_555
H20 C25 1_555 1_555
H21 N2 1_555 1_555
H22 C26 1_555 1_555
H23 C26 1_555 1_555
H24 O5 1_555 1_555
C8 C9 1_555 1_555
C22 C23 1_555 1_555

#END
