
#######################################################################
#
#                 Cambridge Crystallographic Data Centre
#                                CCDC 
#
#######################################################################
#
# If this CIF has been generated from an entry in the Cambridge 
# Structural Database, then it will include bibliographic, chemical, 
# crystal, experimental, refinement or atomic coordinate data resulting 
# from the CCDC's data processing and validation procedures.
#
#######################################################################

data_GUJSOV
_chemical_formula_moiety         'C21 H24 O2'
_chemical_name_systematic        
2-(2-(Adamantan-1-yl)-1-hydroxyethylidene)indan-1-one
_symmetry_cell_setting           triclinic
_symmetry_space_group_name_H-M   'P -1'
_symmetry_Int_Tables_number      2
_space_group_name_Hall           '-P 1'
loop_
_symmetry_equiv_pos_site_id
_symmetry_equiv_pos_as_xyz
1 x,y,z
2 -x,-y,-z
_cell_length_a                   6.5776(3)
_cell_length_b                   7.4148(3)
_cell_length_c                   17.7488(9)
_cell_angle_alpha                100.413(4)
_cell_angle_beta                 92.503(4)
_cell_angle_gamma                104.794(4)
_cell_volume                     819.477
_exptl_crystal_colour            colorless
_exptl_crystal_description       prism
_chemical_melting_point          '426 K'
_cell_formula_units_Z            2
loop_
_atom_site_label
_atom_site_type_symbol
_atom_site_fract_x
_atom_site_fract_y
_atom_site_fract_z
O1 O 0.8539(3) -0.0182(2) 0.12888(10)
O2 O 0.6712(3) 0.0805(2) 0.24918(9)
C1 C 0.6681(3) -0.1023(3) 0.09900(12)
C2 C 0.4807(3) -0.1134(3) 0.13705(11)
C3 C 0.2909(3) -0.2276(3) 0.08146(12)
H1 H 0.2188 -0.3428 0.0983
H2 H 0.1918 -0.1531 0.0755
C4 C 0.2959(5) -0.3702(3) -0.06429(14)
H3 H 0.1504 -0.4221 -0.0727
C5 C 0.4209(5) -0.3887(3) -0.12300(14)
H4 H 0.3578 -0.4534 -0.1716
C6 C 0.6387(5) -0.3144(3) -0.11286(14)
H5 H 0.7185 -0.3289 -0.1544
C7 C 0.7379(4) -0.2182(3) -0.04058(13)
H6 H 0.8838 -0.1692 -0.0323
C8 C 0.6085(4) -0.1990(3) 0.01861(12)
C9 C 0.3899(3) -0.2723(3) 0.00851(12)
C10 C 0.4822(3) -0.0222(3) 0.21059(12)
C11 C 0.2983(4) -0.0084(3) 0.25368(13)
H7 H 0.1774 -0.0280 0.2169
H8 H 0.3264 0.1201 0.2835
C12 C 0.2374(3) -0.1482(3) 0.30854(12)
C13 C 0.4172(4) -0.1263(3) 0.37025(14)
H9 H 0.4603 0.0039 0.3989
H10 H 0.5379 -0.1542 0.3459
C14 C 0.1725(4) -0.3553(3) 0.26476(14)
H11 H 0.0552 -0.3731 0.2266
H12 H 0.2897 -0.3834 0.2380
C15 C 0.0459(4) -0.1110(4) 0.34801(15)
H13 H -0.0696 -0.1272 0.3093
H14 H 0.0815 0.0193 0.3765
C16 C -0.0243(4) -0.2476(4) 0.40319(16)
H15 H -0.1459 -0.2203 0.4283
C17 C 0.1084(5) -0.4915(3) 0.31933(16)
H16 H 0.0703 -0.6225 0.2899
C18 C 0.3435(4) -0.2632(3) 0.42561(15)
H17 H 0.4589 -0.2472 0.4652
C19 C 0.1563(5) -0.2222(4) 0.46328(15)
H18 H 0.1946 -0.0928 0.4927
H19 H 0.1124 -0.3077 0.4985
C20 C 0.2836(5) -0.4675(4) 0.37944(18)
H20 H 0.4050 -0.4946 0.3554
H21 H 0.2394 -0.5559 0.4135
C21 C -0.0856(5) -0.4515(4) 0.35733(17)
H22 H -0.2002 -0.4681 0.3182
H23 H -0.1329 -0.5397 0.3912
H24 H 0.7858 0.1330 0.2327
loop_
_geom_bond_atom_site_label_1
_geom_bond_atom_site_label_2
_geom_bond_site_symmetry_1
_geom_bond_site_symmetry_2
O1 C1 1_555 1_555
O2 C10 1_555 1_555
C1 C2 1_555 1_555
C2 C3 1_555 1_555
C3 H1 1_555 1_555
H2 C3 1_555 1_555
C4 H3 1_555 1_555
C5 C4 1_555 1_555
H4 C5 1_555 1_555
C6 C5 1_555 1_555
H5 C6 1_555 1_555
C7 C6 1_555 1_555
H6 C7 1_555 1_555
C8 C1 1_555 1_555
C9 C3 1_555 1_555
C10 C2 1_555 1_555
C11 C10 1_555 1_555
H7 C11 1_555 1_555
H8 C11 1_555 1_555
C12 C11 1_555 1_555
C13 C12 1_555 1_555
H9 C13 1_555 1_555
H10 C13 1_555 1_555
C14 C12 1_555 1_555
H11 C14 1_555 1_555
H12 C14 1_555 1_555
C15 C12 1_555 1_555
H13 C15 1_555 1_555
H14 C15 1_555 1_555
C16 C15 1_555 1_555
H15 C16 1_555 1_555
C17 C14 1_555 1_555
H16 C17 1_555 1_555
C18 C13 1_555 1_555
H17 C18 1_555 1_555
C19 C16 1_555 1_555
H18 C19 1_555 1_555
H19 C19 1_555 1_555
C20 C17 1_555 1_555
H20 C20 1_555 1_555
H21 C20 1_555 1_555
C21 C16 1_555 1_555
H22 C21 1_555 1_555
H23 C21 1_555 1_555
H24 O2 1_555 1_555
C4 C9 1_555 1_555
C7 C8 1_555 1_555
C8 C9 1_555 1_555
C17 C21 1_555 1_555
C18 C19 1_555 1_555
C18 C20 1_555 1_555

#END
