
#######################################################################
#
#                 Cambridge Crystallographic Data Centre
#                                CCDC 
#
#######################################################################
#
# If this CIF has been generated from an entry in the Cambridge 
# Structural Database, then it will include bibliographic, chemical, 
# crystal, experimental, refinement or atomic coordinate data resulting 
# from the CCDC's data processing and validation procedures.
#
#######################################################################

data_GUKSAH
_chemical_formula_moiety         'C2 H10 N2 2+,C2 H7 N1 O6 P2 2-,3(H2 O1)'
_chemical_name_systematic        
'Ethylenediammonium hydrogen 1-ammonioethylidenediphosphonate trihydrate'
_symmetry_cell_setting           orthorhombic
_symmetry_space_group_name_H-M   'P 21 21 21'
_symmetry_Int_Tables_number      19
_space_group_name_Hall           'P 2ac 2ab'
loop_
_symmetry_equiv_pos_site_id
_symmetry_equiv_pos_as_xyz
1 x,y,z
2 1/2-x,-y,1/2+z
3 -x,1/2+y,1/2-z
4 1/2+x,1/2-y,-z
_cell_length_a                   7.1271(7)
_cell_length_b                   10.2782(10)
_cell_length_c                   18.0061(17)
_cell_angle_alpha                90
_cell_angle_beta                 90
_cell_angle_gamma                90
_cell_volume                     1319.01
_exptl_crystal_colour            colorless
_exptl_crystal_description       block
_cell_formula_units_Z            4
loop_
_atom_site_label
_atom_site_type_symbol
_atom_site_fract_x
_atom_site_fract_y
_atom_site_fract_z
C1 C 0.1849(4) 0.9308(3) 0.54141(13)
C2 C 0.0325(4) 1.0229(3) 0.57038(15)
H1 H -0.0889 0.9884 0.5583
H2 H 0.0471 1.1068 0.5477
H3 H 0.0437 1.0311 0.6233
N1 N 0.1587(4) 0.8001(2) 0.57936(12)
H8 H 0.1757 0.8092 0.6281
H9 H 0.2419 0.7436 0.5615
H10 H 0.0432 0.7709 0.5707
O1 O 0.4253(3) 0.9677(2) 0.65291(11)
O2 O 0.4347(3) 1.1339(2) 0.54729(12)
O3 O 0.5645(3) 0.9116(2) 0.52710(12)
O4 O -0.0562(3) 0.8918(2) 0.42901(11)
O5 O 0.2496(4) 1.0085(2) 0.39886(10)
O6 O 0.2506(3) 0.76877(19) 0.42457(10)
P1 P 0.41871(9) 0.99206(7) 0.56963(4)
P2 P 0.15300(10) 0.90104(7) 0.44075(3)
H17 H 0.629(6) 0.849(4) 0.5440(19)
C3 C 0.8482(6) 0.8747(5) 0.85420(18)
H4 H 0.8883 0.7863 0.8438
H5 H 0.9599 0.9285 0.8562
C4 C 0.7263(7) 0.9216(4) 0.7893(2)
H6 H 0.6495 0.9934 0.8066
H7 H 0.8083 0.9551 0.7508
N2 N 0.7594(4) 0.8765(3) 0.92741(15)
H11 H 0.6774 0.9416 0.9296
H12 H 0.8468 0.8875 0.9622
H13 H 0.7002 0.8014 0.9350
N3 N 0.6039(6) 0.8242(4) 0.75656(19)
H14 H 0.6715 0.7552 0.7433
H15 H 0.5478 0.8575 0.7167
H16 H 0.5176 0.8004 0.7896
O7 O 0.1903(5) 0.2496(3) 0.36014(16)
H18 H 0.209(8) 0.171(6) 0.373(3)
H19 H 0.151(8) 0.311(5) 0.388(3)
O8 O 0.2112(4) 0.0825(3) 0.75783(14)
H20 H 0.276(7) 0.039(5) 0.727(3)
H21 H 0.236(7) 0.052(5) 0.800(3)
O9 O 0.8833(6) 0.2295(4) 0.77103(15)
H22 H 0.980(9) 0.182(6) 0.773(3)
H23 H 0.825(8) 0.203(5) 0.733(3)
loop_
_geom_bond_atom_site_label_1
_geom_bond_atom_site_label_2
_geom_bond_site_symmetry_1
_geom_bond_site_symmetry_2
C1 C2 1_555 1_555
C2 H1 1_555 1_555
H2 C2 1_555 1_555
H3 C2 1_555 1_555
C3 H4 1_555 1_555
H5 C3 1_555 1_555
C4 C3 1_555 1_555
H6 C4 1_555 1_555
H7 C4 1_555 1_555
N1 C1 1_555 1_555
H8 N1 1_555 1_555
H9 N1 1_555 1_555
H10 N1 1_555 1_555
N2 C3 1_555 1_555
H11 N2 1_555 1_555
H12 N2 1_555 1_555
H13 N2 1_555 1_555
N3 C4 1_555 1_555
H14 N3 1_555 1_555
H15 N3 1_555 1_555
H16 N3 1_555 1_555
O1 P1 1_555 1_555
O2 P1 1_555 1_555
O3 P1 1_555 1_555
O4 P2 1_555 1_555
O5 P2 1_555 1_555
O6 P2 1_555 1_555
O7 H18 1_555 1_555
O8 H20 1_555 1_555
O9 H22 1_555 1_555
P1 C1 1_555 1_555
P2 C1 1_555 1_555
H17 O3 1_555 1_555
H19 O7 1_555 1_555
H21 O8 1_555 1_555
H23 O9 1_555 1_555

#END
