
#######################################################################
#
#                 Cambridge Crystallographic Data Centre
#                                CCDC 
#
#######################################################################
#
# If this CIF has been generated from an entry in the Cambridge 
# Structural Database, then it will include bibliographic, chemical, 
# crystal, experimental, refinement or atomic coordinate data resulting 
# from the CCDC's data processing and validation procedures.
#
#######################################################################

data_GUKWOY
_chemical_formula_moiety         'C25 H40 N2 P1 1+,Cl1 1-'
_chemical_name_systematic        
'((2E)-2-Benzylidenehydrazino)-tricyclohexylphosphonium chloride'
_symmetry_cell_setting           monoclinic
_symmetry_space_group_name_H-M   'P 21/n'
_symmetry_Int_Tables_number      14
_space_group_name_Hall           '-P 2yn'
loop_
_symmetry_equiv_pos_site_id
_symmetry_equiv_pos_as_xyz
1 x,y,z
2 1/2+x,1/2-y,1/2+z
3 -x,-y,-z
4 1/2-x,1/2+y,1/2-z
_cell_length_a                   12.106(3)
_cell_length_b                   13.187(3)
_cell_length_c                   15.819(4)
_cell_angle_alpha                90
_cell_angle_beta                 99.62(2)
_cell_angle_gamma                90
_cell_volume                     2489.86
_exptl_crystal_colour            yellow
_exptl_crystal_description       ellipsoid
_cell_formula_units_Z            4
loop_
_atom_site_label
_atom_site_type_symbol
_atom_site_fract_x
_atom_site_fract_y
_atom_site_fract_z
P1 P 0.23511(3) 0.05867(2) 0.142887(19)
N1 N 0.20492(9) -0.05437(8) 0.10044(7)
H1 H 0.1629(14) -0.0943(14) 0.1260(11)
N2 N 0.27409(9) -0.09840(8) 0.04803(7)
C1 C 0.31818(10) -0.25085(9) -0.02239(8)
C2 C 0.31377(12) -0.35683(11) -0.02206(9)
H2 H 0.2712(14) -0.3903(13) 0.0184(11)
C3 C 0.36522(14) -0.41292(12) -0.07923(11)
H3 H 0.3622(16) -0.4817(16) -0.0793(13)
C4 C 0.41886(12) -0.36399(12) -0.13801(10)
H4 H 0.4546(15) -0.4019(15) -0.1771(12)
C5 C 0.42363(12) -0.25872(11) -0.13919(9)
H5 H 0.4608(15) -0.2259(13) -0.1784(11)
C6 C 0.37454(11) -0.20230(10) -0.08137(9)
H6 H 0.3774(13) -0.1304(13) -0.0820(10)
C7 C 0.25955(10) -0.19424(9) 0.03674(8)
H7 H 0.2072(12) -0.2322(12) 0.0651(10)
C8 C 0.10919(10) 0.08594(9) 0.18786(8)
H8 H 0.1054(12) 0.0251(12) 0.2202(10)
C9 C 0.11617(11) 0.17844(10) 0.24849(9)
H9 H 0.1871(14) 0.1798(13) 0.2886(11)
H10 H 0.1146(14) 0.2413(13) 0.2131(11)
C10 C 0.01575(12) 0.17678(12) 0.29641(9)
H11 H 0.0229(14) 0.1147(13) 0.3340(11)
H12 H 0.0209(13) 0.2354(13) 0.3339(11)
C11 C -0.09548(12) 0.17530(12) 0.23390(10)
H13 H -0.1601(14) 0.1708(13) 0.2639(11)
H14 H -0.1048(13) 0.2410(13) 0.2029(10)
C12 C -0.09994(11) 0.08839(11) 0.16934(9)
H15 H -0.1700(14) 0.0928(13) 0.1297(11)
H16 H -0.1006(13) 0.0242(13) 0.1992(10)
C13 C 0.00032(11) 0.09009(11) 0.12163(8)
H17 H -0.0012(13) 0.1529(13) 0.0889(10)
H18 H -0.0041(13) 0.0328(13) 0.0831(10)
C14 C 0.26782(10) 0.14527(9) 0.06066(8)
H19 H 0.3466(12) 0.1298(11) 0.0573(9)
C15 C 0.26112(12) 0.25714(10) 0.08825(8)
H20 H 0.1825(14) 0.2739(12) 0.0923(10)
H21 H 0.3078(14) 0.2697(13) 0.1448(11)
C16 C 0.29727(14) 0.32725(11) 0.02065(9)
H22 H 0.2899(14) 0.3980(14) 0.0383(11)
H23 H 0.3759(14) 0.3136(12) 0.0184(10)
C17 C 0.22830(13) 0.30853(11) -0.06790(9)
H24 H 0.1442(16) 0.3240(14) -0.0663(12)
H25 H 0.2536(14) 0.3528(13) -0.1108(11)
C18 C 0.23582(13) 0.19802(11) -0.09443(9)
H26 H 0.3128(13) 0.1805(12) -0.0995(10)
H27 H 0.1908(14) 0.1853(13) -0.1506(11)
C19 C 0.19719(12) 0.12706(11) -0.02828(8)
H28 H 0.1159(14) 0.1412(13) -0.0260(10)
H29 H 0.2044(14) 0.0571(14) -0.0443(11)
C20 C 0.35429(10) 0.05542(9) 0.22992(8)
H30 H 0.3702(13) 0.1258(13) 0.2446(10)
C21 C 0.32735(12) -0.00127(11) 0.30945(9)
H31 H 0.2597(14) 0.0267(13) 0.3285(11)
H32 H 0.3093(13) -0.0730(13) 0.2940(11)
C22 C 0.42827(13) 0.00425(12) 0.38240(9)
H33 H 0.4405(14) 0.0759(14) 0.3992(11)
H34 H 0.4099(14) -0.0333(13) 0.4317(11)
C23 C 0.53360(13) -0.03895(12) 0.35528(10)
H35 H 0.5970(16) -0.0315(14) 0.4016(12)
H36 H 0.5231(15) -0.1130(15) 0.3469(12)
C24 C 0.55877(12) 0.01197(13) 0.27400(10)
H37 H 0.6254(16) -0.0186(14) 0.2545(12)
H38 H 0.5774(15) 0.0836(14) 0.2862(11)
C25 C 0.45792(11) 0.00660(11) 0.20123(9)
H39 H 0.4412(13) -0.0664(13) 0.1859(10)
H40 H 0.4742(13) 0.0384(12) 0.1489(11)
Cl1 Cl 0.06267(3) -0.19971(3) 0.18592(2)
loop_
_geom_bond_atom_site_label_1
_geom_bond_atom_site_label_2
_geom_bond_site_symmetry_1
_geom_bond_site_symmetry_2
P1 N1 1_555 1_555
N1 H1 1_555 1_555
N2 N1 1_555 1_555
C1 C2 1_555 1_555
C2 H2 1_555 1_555
C3 C2 1_555 1_555
H3 C3 1_555 1_555
C4 C3 1_555 1_555
H4 C4 1_555 1_555
C5 C4 1_555 1_555
H5 C5 1_555 1_555
C6 C1 1_555 1_555
H6 C6 1_555 1_555
C7 N2 1_555 1_555
H7 C7 1_555 1_555
C8 P1 1_555 1_555
H8 C8 1_555 1_555
C9 C8 1_555 1_555
H9 C9 1_555 1_555
H10 C9 1_555 1_555
C10 C9 1_555 1_555
H11 C10 1_555 1_555
H12 C10 1_555 1_555
C11 C10 1_555 1_555
H13 C11 1_555 1_555
H14 C11 1_555 1_555
C12 C11 1_555 1_555
H15 C12 1_555 1_555
H16 C12 1_555 1_555
C13 C8 1_555 1_555
H17 C13 1_555 1_555
H18 C13 1_555 1_555
C14 P1 1_555 1_555
H19 C14 1_555 1_555
C15 C14 1_555 1_555
H20 C15 1_555 1_555
H21 C15 1_555 1_555
C16 C15 1_555 1_555
H22 C16 1_555 1_555
H23 C16 1_555 1_555
C17 C16 1_555 1_555
H24 C17 1_555 1_555
H25 C17 1_555 1_555
C18 C17 1_555 1_555
H26 C18 1_555 1_555
H27 C18 1_555 1_555
C19 C14 1_555 1_555
H28 C19 1_555 1_555
H29 C19 1_555 1_555
C20 P1 1_555 1_555
H30 C20 1_555 1_555
C21 C20 1_555 1_555
H31 C21 1_555 1_555
H32 C21 1_555 1_555
C22 C21 1_555 1_555
H33 C22 1_555 1_555
H34 C22 1_555 1_555
C23 C22 1_555 1_555
H35 C23 1_555 1_555
H36 C23 1_555 1_555
C24 C23 1_555 1_555
H37 C24 1_555 1_555
H38 C24 1_555 1_555
C25 C20 1_555 1_555
H39 C25 1_555 1_555
H40 C25 1_555 1_555
C1 C7 1_555 1_555
C5 C6 1_555 1_555
C12 C13 1_555 1_555
C18 C19 1_555 1_555
C24 C25 1_555 1_555

#END
