
#######################################################################
#
#                 Cambridge Crystallographic Data Centre
#                                CCDC 
#
#######################################################################
#
# If this CIF has been generated from an entry in the Cambridge 
# Structural Database, then it will include bibliographic, chemical, 
# crystal, experimental, refinement or atomic coordinate data resulting 
# from the CCDC's data processing and validation procedures.
#
#######################################################################

data_GULDOH
_chemical_formula_moiety         'C18 H15 N1 O4'
_chemical_name_systematic        
(3R,4S)-3-(2-Methoxyphenyl)-4-nitro-3,4-dihydronaphthalene-2-carbaldehyde
_symmetry_cell_setting           orthorhombic
_symmetry_space_group_name_H-M   'P 21 21 21'
_symmetry_Int_Tables_number      19
_space_group_name_Hall           'P 2ac 2ab'
loop_
_symmetry_equiv_pos_site_id
_symmetry_equiv_pos_as_xyz
1 x,y,z
2 1/2-x,-y,1/2+z
3 -x,1/2+y,1/2-z
4 1/2+x,1/2-y,-z
_cell_length_a                   8.0511(8)
_cell_length_b                   9.1423(10)
_cell_length_c                   20.368(2)
_cell_angle_alpha                90
_cell_angle_beta                 90
_cell_angle_gamma                90
_cell_volume                     1499.2
_exptl_crystal_colour            colorless
_exptl_crystal_description       block
_chemical_melting_point          '182 deg.C'
_cell_formula_units_Z            4
loop_
_atom_site_label
_atom_site_type_symbol
_atom_site_fract_x
_atom_site_fract_y
_atom_site_fract_z
O1 O 0.67127(17) 0.37938(16) 0.53514(6)
O2 O 0.38808(14) 0.66798(13) 0.38855(6)
C1 C 0.9528(2) 0.42300(18) 0.32727(9)
N1 N 0.56375(18) 0.32763(18) 0.31055(8)
C2 C 0.8146(2) 0.48157(18) 0.29423(8)
C3 C 0.7974(2) 0.40559(17) 0.43059(8)
C4 C 0.8146(2) 0.72610(19) 0.43768(8)
H1 H 0.9114 0.6689 0.4450
C5 C 0.6696(2) 0.65810(17) 0.41707(7)
C6 C 1.1071(2) 0.4187(2) 0.29547(10)
H2 H 1.2007 0.3783 0.3173
C7 C 0.5330(2) 0.89562(19) 0.41549(9)
H3 H 0.4374 0.9538 0.4074
C8 C 0.9336(2) 0.37253(18) 0.39495(8)
H4 H 1.0189 0.3151 0.4143
C9 C 0.7879(2) 0.35516(19) 0.49871(8)
H5 H 0.8784 0.3001 0.5155
C10 C 0.6563(2) 0.49451(17) 0.40254(8)
H6 H 0.5501 0.4577 0.4219
C11 C 0.5270(2) 0.74378(18) 0.40707(8)
C12 C 0.8208(2) 0.8771(2) 0.44787(9)
H7 H 0.9202 0.9222 0.4629
C13 C 0.6807(2) 0.96021(19) 0.43584(9)
H8 H 0.6853 1.0633 0.4416
O3 O 0.5118(3) 0.24975(17) 0.35366(8)
C14 C 0.2365(2) 0.7488(2) 0.38210(10)
H9 H 0.2126 0.7997 0.4234
H10 H 0.1453 0.6815 0.3719
H11 H 0.2478 0.8205 0.3466
C15 C 0.6473(2) 0.47594(18) 0.32760(8)
H12 H 0.5768 0.5564 0.3094
C16 C 0.8333(2) 0.53857(19) 0.23144(8)
H13 H 0.7408 0.5807 0.2095
O4 O 0.5448(3) 0.3014(2) 0.25281(8)
C17 C 0.9876(3) 0.5341(2) 0.20064(9)
H14 H 0.9997 0.5729 0.1576
C18 C 1.1238(3) 0.4732(2) 0.23233(10)
H15 H 1.2283 0.4690 0.2107
loop_
_geom_bond_atom_site_label_1
_geom_bond_atom_site_label_2
_geom_bond_site_symmetry_1
_geom_bond_site_symmetry_2
O1 C9 1_555 1_555
O2 C11 1_555 1_555
C1 C2 1_555 1_555
N1 O3 1_555 1_555
C2 C15 1_555 1_555
C3 C8 1_555 1_555
C4 H1 1_555 1_555
C5 C4 1_555 1_555
C6 C1 1_555 1_555
H2 C6 1_555 1_555
C7 H3 1_555 1_555
C8 C1 1_555 1_555
H4 C8 1_555 1_555
C9 C3 1_555 1_555
H5 C9 1_555 1_555
C10 C3 1_555 1_555
H6 C10 1_555 1_555
C11 C5 1_555 1_555
C12 C4 1_555 1_555
H7 C12 1_555 1_555
C13 C7 1_555 1_555
H8 C13 1_555 1_555
C14 O2 1_555 1_555
H9 C14 1_555 1_555
H10 C14 1_555 1_555
H11 C14 1_555 1_555
C15 N1 1_555 1_555
H12 C15 1_555 1_555
C16 C2 1_555 1_555
H13 C16 1_555 1_555
O4 N1 1_555 1_555
C17 C16 1_555 1_555
H14 C17 1_555 1_555
C18 C6 1_555 1_555
H15 C18 1_555 1_555
C5 C10 1_555 1_555
C7 C11 1_555 1_555
C10 C15 1_555 1_555
C12 C13 1_555 1_555
C17 C18 1_555 1_555

#END
