
#######################################################################
#
#                 Cambridge Crystallographic Data Centre
#                                CCDC 
#
#######################################################################
#
# If this CIF has been generated from an entry in the Cambridge 
# Structural Database, then it will include bibliographic, chemical, 
# crystal, experimental, refinement or atomic coordinate data resulting 
# from the CCDC's data processing and validation procedures.
#
#######################################################################

data_GULFOJ
_chemical_formula_moiety         'C38 H27 F3 O7'
_chemical_name_systematic        
"Ethyl 4'-hydroxy-1,1'',3,3''-tetraoxo-2',6'-diphenyl-4'-(trifluoromethyl)-1,1'',3,3''-tetrahydrodispiro[indene-2,1'-cyclohexane-3',2''-indene]-5'-carboxylate"
_symmetry_cell_setting           triclinic
_symmetry_space_group_name_H-M   'P -1'
_symmetry_Int_Tables_number      2
_space_group_name_Hall           '-P 1'
loop_
_symmetry_equiv_pos_site_id
_symmetry_equiv_pos_as_xyz
1 x,y,z
2 -x,-y,-z
_cell_length_a                   12.2453(19)
_cell_length_b                   12.406(2)
_cell_length_c                   13.119(2)
_cell_angle_alpha                64.416(2)
_cell_angle_beta                 63.527(2)
_cell_angle_gamma                66.675(2)
_cell_volume                     1557.16
_chemical_melting_point          '211-214 deg.C'
_cell_formula_units_Z            2
loop_
_atom_site_label
_atom_site_type_symbol
_atom_site_fract_x
_atom_site_fract_y
_atom_site_fract_z
C1 C 0.4059(2) 0.6204(2) 0.7748(2)
C2 C 0.3272(3) 0.5231(3) 0.8568(3)
C3 C 0.2283(3) 0.5477(3) 0.8093(3)
C4 C 0.1291(3) 0.4922(3) 0.8599(3)
H1 H 0.1183 0.4294 0.9328
C5 C 0.0477(3) 0.5348(4) 0.7967(4)
H2 H -0.0213 0.5019 0.8292
C6 C 0.0659(4) 0.6254(4) 0.6862(4)
H3 H 0.0099 0.6506 0.6456
C7 C 0.1650(3) 0.6788(4) 0.6353(3)
H4 H 0.1779 0.7387 0.5606
C8 C 0.2449(3) 0.6394(3) 0.7001(3)
C9 C 0.3558(3) 0.6835(3) 0.6669(3)
C10 C 0.5518(3) 0.5620(3) 0.7386(2)
C11 C 0.5950(3) 0.4823(3) 0.6581(3)
C12 C 0.6189(2) 0.6685(3) 0.6752(2)
H5 H 0.5834 0.7304 0.6128
C13 C 0.7607(3) 0.6282(3) 0.6177(3)
C14 C 0.9270(4) 0.6616(4) 0.4276(4)
H6 H 0.9765 0.6022 0.4786
H7 H 0.9450 0.6292 0.3649
C15 C 0.9618(4) 0.7785(5) 0.3744(4)
H8 H 0.9067 0.8396 0.3308
H9 H 1.0473 0.7680 0.3207
H10 H 0.9545 0.8049 0.4365
C16 C 0.5923(2) 0.7296(2) 0.7672(2)
H11 H 0.6109 0.6628 0.8371
C17 C 0.6761(2) 0.8155(3) 0.7231(3)
C18 C 0.6950(3) 0.9071(3) 0.6132(3)
H12 H 0.6562 0.9178 0.5613
C19 C 0.7710(3) 0.9829(3) 0.5799(3)
H13 H 0.7826 1.0443 0.5060
C20 C 0.8297(4) 0.9683(4) 0.6549(4)
H14 H 0.8805 1.0196 0.6323
C21 C 0.8123(3) 0.8771(4) 0.7638(3)
H15 H 0.8520 0.8664 0.8148
C22 C 0.7364(3) 0.8013(3) 0.7980(3)
H16 H 0.7254 0.7401 0.8720
C23 C 0.4489(2) 0.7946(2) 0.8105(2)
C24 C 0.4149(2) 0.9208(3) 0.7189(3)
C25 C 0.3915(2) 1.0194(3) 0.7663(3)
C26 C 0.3715(3) 1.1451(3) 0.7086(3)
H17 H 0.3682 1.1783 0.6312
C27 C 0.3566(3) 1.2197(3) 0.7693(3)
H18 H 0.3435 1.3046 0.7323
C28 C 0.3608(3) 1.1695(3) 0.8852(3)
H19 H 0.3510 1.2215 0.9245
C29 C 0.3793(3) 1.0438(3) 0.9435(3)
H20 H 0.3803 1.0106 1.0217
C30 C 0.3962(2) 0.9693(3) 0.8816(3)
C31 C 0.4241(2) 0.8335(3) 0.9183(3)
C32 C 0.3691(2) 0.7019(2) 0.8557(2)
H21 H 0.3882 0.6418 0.9281
C33 C 0.2280(3) 0.7594(3) 0.9019(3)
C34 C 0.1618(3) 0.8536(3) 0.8292(3)
H22 H 0.2030 0.8827 0.7474
C35 C 0.0337(3) 0.9053(3) 0.8778(4)
H23 H -0.0101 0.9693 0.8285
C36 C -0.0276(3) 0.8619(4) 0.9978(4)
H24 H -0.1130 0.8965 1.0302
C37 C 0.0360(4) 0.7685(4) 1.0697(3)
H25 H -0.0067 0.7388 1.1511
C38 C 0.1638(3) 0.7167(3) 1.0236(3)
H26 H 0.2065 0.6533 1.0742
F1 F 0.52273(19) 0.4052(2) 0.7024(2)
F2 F 0.5928(2) 0.5465(2) 0.5473(2)
F3 F 0.71188(19) 0.41347(19) 0.6456(2)
O1 O 0.3425(2) 0.4438(2) 0.9478(2)
O2 O 0.4010(2) 0.7528(2) 0.57069(19)
O3 O 0.58836(18) 0.48507(18) 0.83999(18)
H27 H 0.5483 0.4323 0.8793
O4 O 0.83424(19) 0.5640(2) 0.6700(2)
O5 O 0.7920(2) 0.6793(2) 0.49861(19)
O6 O 0.4104(2) 0.93783(19) 0.62263(18)
O7 O 0.43047(19) 0.76235(19) 1.01513(18)
loop_
_geom_bond_atom_site_label_1
_geom_bond_atom_site_label_2
_geom_bond_site_symmetry_1
_geom_bond_site_symmetry_2
C1 C2 1_555 1_555
C2 C3 1_555 1_555
C3 C4 1_555 1_555
C4 H1 1_555 1_555
C5 C4 1_555 1_555
H2 C5 1_555 1_555
C6 C5 1_555 1_555
H3 C6 1_555 1_555
C7 C6 1_555 1_555
H4 C7 1_555 1_555
C8 C3 1_555 1_555
C9 C1 1_555 1_555
C10 C1 1_555 1_555
C11 C10 1_555 1_555
C12 C10 1_555 1_555
H5 C12 1_555 1_555
C13 C12 1_555 1_555
C14 H6 1_555 1_555
H7 C14 1_555 1_555
C15 C14 1_555 1_555
H8 C15 1_555 1_555
H9 C15 1_555 1_555
H10 C15 1_555 1_555
C16 C12 1_555 1_555
H11 C16 1_555 1_555
C17 C16 1_555 1_555
C18 C17 1_555 1_555
H12 C18 1_555 1_555
C19 C18 1_555 1_555
H13 C19 1_555 1_555
C20 C19 1_555 1_555
H14 C20 1_555 1_555
C21 C20 1_555 1_555
H15 C21 1_555 1_555
C22 C17 1_555 1_555
H16 C22 1_555 1_555
C23 C16 1_555 1_555
C24 C23 1_555 1_555
C25 C24 1_555 1_555
C26 C25 1_555 1_555
H17 C26 1_555 1_555
C27 C26 1_555 1_555
H18 C27 1_555 1_555
C28 C27 1_555 1_555
H19 C28 1_555 1_555
C29 C28 1_555 1_555
H20 C29 1_555 1_555
C30 C25 1_555 1_555
C31 C23 1_555 1_555
C32 C1 1_555 1_555
H21 C32 1_555 1_555
C33 C32 1_555 1_555
C34 C33 1_555 1_555
H22 C34 1_555 1_555
C35 C34 1_555 1_555
H23 C35 1_555 1_555
C36 C35 1_555 1_555
H24 C36 1_555 1_555
C37 C36 1_555 1_555
H25 C37 1_555 1_555
C38 C33 1_555 1_555
H26 C38 1_555 1_555
F1 C11 1_555 1_555
F2 C11 1_555 1_555
F3 C11 1_555 1_555
O1 C2 1_555 1_555
O2 C9 1_555 1_555
O3 C10 1_555 1_555
H27 O3 1_555 1_555
O4 C13 1_555 1_555
O5 C13 1_555 1_555
O6 C24 1_555 1_555
O7 C31 1_555 1_555
C7 C8 1_555 1_555
C8 C9 1_555 1_555
C14 O5 1_555 1_555
C21 C22 1_555 1_555
C23 C32 1_555 1_555
C29 C30 1_555 1_555
C30 C31 1_555 1_555
C37 C38 1_555 1_555

#END
