
#######################################################################
#
#                 Cambridge Crystallographic Data Centre
#                                CCDC 
#
#######################################################################
#
# If this CIF has been generated from an entry in the Cambridge 
# Structural Database, then it will include bibliographic, chemical, 
# crystal, experimental, refinement or atomic coordinate data resulting 
# from the CCDC's data processing and validation procedures.
#
#######################################################################

data_GULFEZ
_chemical_formula_moiety         'C19 H18 O2 S1'
_chemical_name_systematic        
2-(4-Methoxyphenyl)-7-methyl-2,3-dihydro-1-benzothiepine-4-carbaldehyde
_symmetry_cell_setting           monoclinic
_symmetry_space_group_name_H-M   'P 21/c'
_symmetry_Int_Tables_number      14
_space_group_name_Hall           '-P 2ybc'
loop_
_symmetry_equiv_pos_site_id
_symmetry_equiv_pos_as_xyz
1 x,y,z
2 -x,1/2+y,1/2-z
3 -x,-y,-z
4 x,1/2-y,1/2+z
_cell_length_a                   19.793(7)
_cell_length_b                   5.964(2)
_cell_length_c                   14.658(5)
_cell_angle_alpha                90
_cell_angle_beta                 108.952(4)
_cell_angle_gamma                90
_cell_volume                     1636.51
_exptl_crystal_colour            colorless
_exptl_crystal_description       column
_chemical_melting_point          '120-121 deg.C'
_cell_formula_units_Z            4
_exptl_crystal_recrystallization_method dichloromethane/n-hexane
loop_
_atom_site_label
_atom_site_type_symbol
_atom_site_fract_x
_atom_site_fract_y
_atom_site_fract_z
S1 S 0.18131(3) 0.36077(13) 0.97931(4)
O1 O 0.45226(8) 0.4586(3) 1.36505(10)
O2 O 0.30625(9) -0.2871(3) 0.84147(12)
C1 C 0.03284(13) 0.7715(5) 0.58595(16)
H1 H 0.0427 0.6879 0.5358
H2 H 0.0495 0.9227 0.5860
H3 H -0.0177 0.7724 0.5748
C2 C 0.07063(10) 0.6636(4) 0.68243(14)
C3 C 0.06500(10) 0.7547(4) 0.76598(15)
H4 H 0.0368 0.8810 0.7628
C4 C 0.10087(10) 0.6600(4) 0.85419(14)
H5 H 0.0972 0.7263 0.9098
C5 C 0.14217(9) 0.4694(4) 0.86234(13)
C6 C 0.14874(9) 0.3701(4) 0.77858(13)
C7 C 0.11186(10) 0.4748(4) 0.69065(13)
H6 H 0.1156 0.4123 0.6344
C8 C 0.18875(10) 0.1684(4) 0.77369(14)
H7 H 0.1754 0.1092 0.7117
C9 C 0.23994(10) 0.0471(4) 0.83623(14)
C10 C 0.26303(12) -0.1526(4) 0.79629(17)
H8 H 0.2425 -0.1775 0.7304
C11 C 0.28014(11) 0.0851(4) 0.94078(14)
H9 H 0.2647 -0.0270 0.9777
H10 H 0.3304 0.0587 0.9508
C12 C 0.27321(10) 0.3098(4) 0.98162(14)
H11 H 0.2848 0.4231 0.9406
C13 C 0.32233(10) 0.3467(4) 1.08370(13)
C14 C 0.36448(11) 0.5357(4) 1.10620(15)
H12 H 0.3628 0.6374 1.0574
C15 C 0.40896(11) 0.5794(4) 1.19806(15)
H13 H 0.4372 0.7077 1.2110
C16 C 0.41124(10) 0.4297(4) 1.27119(14)
C17 C 0.37005(11) 0.2383(4) 1.25079(14)
H14 H 0.3722 0.1368 1.2998
C18 C 0.32572(10) 0.1964(4) 1.15832(15)
H15 H 0.2979 0.0673 1.1454
C19 C 0.49109(14) 0.6626(5) 1.39012(17)
H16 H 0.5176 0.6623 1.4578
H17 H 0.4584 0.7866 1.3756
H18 H 0.5235 0.6767 1.3538
loop_
_geom_bond_atom_site_label_1
_geom_bond_atom_site_label_2
_geom_bond_site_symmetry_1
_geom_bond_site_symmetry_2
S1 C5 1_555 1_555
O1 C16 1_555 1_555
O2 C10 1_555 1_555
C1 H1 1_555 1_555
H2 C1 1_555 1_555
H3 C1 1_555 1_555
C2 C1 1_555 1_555
C3 C2 1_555 1_555
H4 C3 1_555 1_555
C4 C3 1_555 1_555
H5 C4 1_555 1_555
C5 C4 1_555 1_555
C6 C5 1_555 1_555
C7 C2 1_555 1_555
H6 C7 1_555 1_555
C8 C6 1_555 1_555
H7 C8 1_555 1_555
C9 C8 1_555 1_555
C10 C9 1_555 1_555
H8 C10 1_555 1_555
C11 C9 1_555 1_555
H9 C11 1_555 1_555
H10 C11 1_555 1_555
C12 S1 1_555 1_555
H11 C12 1_555 1_555
C13 C12 1_555 1_555
C14 C13 1_555 1_555
H12 C14 1_555 1_555
C15 C14 1_555 1_555
H13 C15 1_555 1_555
C16 C15 1_555 1_555
C17 C16 1_555 1_555
H14 C17 1_555 1_555
C18 C13 1_555 1_555
H15 C18 1_555 1_555
C19 O1 1_555 1_555
H16 C19 1_555 1_555
H17 C19 1_555 1_555
H18 C19 1_555 1_555
C6 C7 1_555 1_555
C11 C12 1_555 1_555
C17 C18 1_555 1_555

#END
