
#######################################################################
#
#                 Cambridge Crystallographic Data Centre
#                                CCDC 
#
#######################################################################
#
# If this CIF has been generated from an entry in the Cambridge 
# Structural Database, then it will include bibliographic, chemical, 
# crystal, experimental, refinement or atomic coordinate data resulting 
# from the CCDC's data processing and validation procedures.
#
#######################################################################

data_GULSUD
_chemical_formula_moiety         'C25 H22 Cl1 N5 O8'
_chemical_name_systematic        
"5'-ethyl 2',3'-dimethyl 6'-amino-5-chloro-2-oxo-1'-((pyridin-2-ylcarbonyl)amino)-1,2-dihydro-1'H-spiro[indole-3,4'-pyridine]-2',3',5'-tricarboxylate unknown solvate"
_symmetry_cell_setting           monoclinic
_symmetry_space_group_name_H-M   'C 2/c'
_symmetry_Int_Tables_number      15
_space_group_name_Hall           '-C 2yn'
loop_
_symmetry_equiv_pos_site_id
_symmetry_equiv_pos_as_xyz
1 x,y,z
2 -x,y,1/2-z
3 1/2+x,1/2+y,z
4 1/2-x,1/2+y,1/2-z
5 -x,-y,-z
6 x,-y,1/2+z
7 1/2-x,1/2-y,-z
8 1/2+x,1/2-y,1/2+z
_cell_length_a                   27.008(7)
_cell_length_b                   13.014(4)
_cell_length_c                   18.860(4)
_cell_angle_alpha                90
_cell_angle_beta                 119.116(15)
_cell_angle_gamma                90
_cell_volume                     5791.29
_cell_formula_units_Z            8
loop_
_atom_site_label
_atom_site_type_symbol
_atom_site_fract_x
_atom_site_fract_y
_atom_site_fract_z
C1 C 0.04129(14) 0.3658(2) 0.0427(2)
C2 C 0.07431(12) 0.2690(2) 0.08975(19)
C3 C 0.11025(12) 0.3149(2) 0.17335(19)
C4 C 0.14678(13) 0.2685(3) 0.2446(2)
H1 H 0.1526 0.1978 0.2476
C5 C 0.17494(14) 0.3303(3) 0.3122(2)
C6 C 0.16745(15) 0.4362(3) 0.3090(2)
H2 H 0.1877 0.4758 0.3554
C7 C 0.12998(15) 0.4820(3) 0.2371(2)
H3 H 0.1243 0.5528 0.2336
C8 C 0.10100(13) 0.4196(2) 0.17003(19)
C9 C 0.03421(12) 0.1847(2) 0.08805(19)
C10 C -0.01196(14) 0.2089(3) 0.1021(2)
C11 C -0.05870(17) 0.3452(3) 0.1326(3)
H4 H -0.0520 0.3206 0.1851
H5 H -0.0953 0.3203 0.0913
C12 C -0.0569(2) 0.4604(3) 0.1317(3)
H6 H -0.0208 0.4838 0.1739
H7 H -0.0865 0.4877 0.1406
H8 H -0.0623 0.4834 0.0800
C13 C 0.04649(12) 0.0822(2) 0.08651(19)
C14 C 0.10959(12) 0.2288(2) 0.05360(18)
C15 C 0.13940(14) 0.3040(3) 0.0295(2)
C16 C 0.1860(2) 0.3358(3) -0.0461(3)
H9 H 0.1705 0.4041 -0.0572
H10 H 0.1864 0.3090 -0.0932
H11 H 0.2239 0.3376 -0.0013
C17 C 0.11743(12) 0.1276(2) 0.04926(19)
C18 C 0.15666(16) 0.0817(2) 0.0224(2)
C19 C 0.15935(19) -0.0235(3) -0.0782(3)
H12 H 0.1842 0.0212 -0.0867
H13 H 0.1337 -0.0564 -0.1284
H14 H 0.1813 -0.0746 -0.0386
C20 C 0.15177(14) -0.0720(3) 0.1576(2)
C21 C 0.16993(14) -0.1826(2) 0.1625(2)
C22 C 0.21294(15) -0.2190(3) 0.2350(2)
H15 H 0.2310 -0.1762 0.2799
C23 C 0.22855(17) -0.3207(3) 0.2392(3)
H16 H 0.2567 -0.3484 0.2875
C24 C 0.2021(2) -0.3793(3) 0.1716(4)
H17 H 0.2122 -0.4478 0.1722
C25 C 0.16034(19) -0.3357(3) 0.1023(3)
H18 H 0.1425 -0.3768 0.0563
Cl1 Cl 0.22053(4) 0.27491(9) 0.40519(6)
N1 N 0.06031(11) 0.44704(18) 0.09134(16)
H19 H 0.0489 0.5090 0.0762
N2 N 0.01975(11) 0.00481(18) 0.09893(17)
H20 H -0.0076 0.0168 0.1089
H21 H 0.0297 -0.0574 0.0970
N3 N 0.08961(11) 0.05544(17) 0.07010(16)
N4 N 0.10940(11) -0.04521(17) 0.08235(17)
H22 H 0.0953 -0.0894 0.0436
N5 N 0.14336(13) -0.2379(2) 0.0962(2)
O1 O 0.00452(9) 0.36714(15) -0.02937(14)
O2 O -0.04691(10) 0.14926(19) 0.10290(18)
O3 O -0.01433(9) 0.31002(17) 0.11629(14)
O4 O 0.15216(12) 0.38780(19) 0.05733(19)
O5 O 0.15114(11) 0.27035(17) -0.02581(18)
O6 O 0.20686(11) 0.08162(19) 0.06244(16)
O7 O 0.12691(10) 0.03694(17) -0.04878(15)
O8 O 0.17210(11) -0.01328(19) 0.21327(16)
loop_
_geom_bond_atom_site_label_1
_geom_bond_atom_site_label_2
_geom_bond_site_symmetry_1
_geom_bond_site_symmetry_2
C1 C2 1_555 1_555
C2 C3 1_555 1_555
C3 C4 1_555 1_555
C4 H1 1_555 1_555
C5 C4 1_555 1_555
C6 C5 1_555 1_555
H2 C6 1_555 1_555
C7 C6 1_555 1_555
H3 C7 1_555 1_555
C8 C3 1_555 1_555
C9 C2 1_555 1_555
C10 C9 1_555 1_555
C11 H4 1_555 1_555
H5 C11 1_555 1_555
C12 C11 1_555 1_555
H6 C12 1_555 1_555
H7 C12 1_555 1_555
H8 C12 1_555 1_555
C13 C9 1_555 1_555
C14 C2 1_555 1_555
C15 C14 1_555 1_555
C16 H9 1_555 1_555
H10 C16 1_555 1_555
H11 C16 1_555 1_555
C17 C14 1_555 1_555
C18 C17 1_555 1_555
C19 H12 1_555 1_555
H13 C19 1_555 1_555
H14 C19 1_555 1_555
C20 C21 1_555 1_555
C21 C22 1_555 1_555
C22 H15 1_555 1_555
C23 C22 1_555 1_555
H16 C23 1_555 1_555
C24 C23 1_555 1_555
H17 C24 1_555 1_555
C25 C24 1_555 1_555
H18 C25 1_555 1_555
Cl1 C5 1_555 1_555
N1 C1 1_555 1_555
H19 N1 1_555 1_555
N2 C13 1_555 1_555
H20 N2 1_555 1_555
H21 N2 1_555 1_555
N3 C13 1_555 1_555
N4 C20 1_555 1_555
H22 N4 1_555 1_555
N5 C21 1_555 1_555
O1 C1 1_555 1_555
O2 C10 1_555 1_555
O3 C10 1_555 1_555
O4 C15 1_555 1_555
O5 C15 1_555 1_555
O6 C18 1_555 1_555
O7 C18 1_555 1_555
O8 C20 1_555 1_555
C7 C8 1_555 1_555
C8 N1 1_555 1_555
C11 O3 1_555 1_555
C16 O5 1_555 1_555
C17 N3 1_555 1_555
C19 O7 1_555 1_555
C25 N5 1_555 1_555
N3 N4 1_555 1_555

#END
