
#######################################################################
#
#                 Cambridge Crystallographic Data Centre
#                                CCDC 
#
#######################################################################
#
# If this CIF has been generated from an entry in the Cambridge 
# Structural Database, then it will include bibliographic, chemical, 
# crystal, experimental, refinement or atomic coordinate data resulting 
# from the CCDC's data processing and validation procedures.
#
#######################################################################

data_GULVIU
_chemical_formula_moiety         'C24 H35 N3 O1'
_chemical_name_systematic        
3-anilino-2,4-di-t-butyl-3a,4,6,7,8,9-hexahydro-3H-pyrrolo[3,2-c]indol-4-ol
_symmetry_cell_setting           monoclinic
_symmetry_space_group_name_H-M   'P 21/n'
_symmetry_Int_Tables_number      14
_space_group_name_Hall           '-P 2yn'
loop_
_symmetry_equiv_pos_site_id
_symmetry_equiv_pos_as_xyz
1 x,y,z
2 1/2-x,1/2+y,1/2-z
3 -x,-y,-z
4 1/2+x,1/2-y,1/2+z
_cell_length_a                   9.6830(4)
_cell_length_b                   11.8250(4)
_cell_length_c                   20.0009(9)
_cell_angle_alpha                90
_cell_angle_beta                 99.850(4)
_cell_angle_gamma                90
_cell_volume                     2256.37
_exptl_crystal_colour            colorless
_exptl_crystal_description       block
_cell_formula_units_Z            4
loop_
_atom_site_label
_atom_site_type_symbol
_atom_site_fract_x
_atom_site_fract_y
_atom_site_fract_z
O1 O 0.54847(13) 0.88058(11) 0.56482(6)
N1 N 0.19793(14) 0.77307(13) 0.54070(8)
N2 N 0.41589(15) 0.88582(13) 0.45537(8)
N3 N 0.52815(16) 0.70520(13) 0.64654(8)
C1 C 0.27462(17) 0.73859(15) 0.48590(9)
C2 C 0.29298(18) 0.84379(16) 0.44573(9)
C3 C 0.51213(17) 0.81620(15) 0.50461(9)
C4 C 0.42559(16) 0.71018(14) 0.51984(9)
H1 H 0.4595 0.6408 0.4991
C5 C 0.40793(17) 0.68690(15) 0.59380(9)
H2 H 0.3843 0.6048 0.5959
C6 C 0.27251(17) 0.75136(15) 0.59814(9)
C7 C 0.19262(19) 0.64754(17) 0.44140(10)
H3 H 0.1669 0.5861 0.4706
H4 H 0.2527 0.6148 0.4109
C8 C 0.0595(2) 0.69635(19) 0.39881(10)
H5 H 0.0120 0.6367 0.3686
H6 H -0.0052 0.7209 0.4293
C9 C 0.0919(2) 0.7960(2) 0.35628(11)
H7 H 0.0033 0.8259 0.3302
H8 H 0.1510 0.7701 0.3235
C10 C 0.1680(2) 0.89058(18) 0.40008(11)
H9 H 0.1979 0.9497 0.3706
H10 H 0.1036 0.9256 0.4276
C11 C 0.64460(18) 0.78575(16) 0.47350(10)
C12 C 0.6017(2) 0.7291(2) 0.40455(11)
H11 H 0.5458 0.6615 0.4097
H12 H 0.6859 0.7073 0.3865
H13 H 0.5460 0.7820 0.3732
C13 C 0.7275(2) 0.89268(19) 0.46383(14)
H14 H 0.6661 0.9471 0.4362
H15 H 0.8060 0.8734 0.4409
H16 H 0.7636 0.9261 0.5082
C14 C 0.7391(2) 0.70662(19) 0.52140(12)
H17 H 0.7651 0.7430 0.5658
H18 H 0.8239 0.6900 0.5026
H19 H 0.6890 0.6360 0.5266
C15 C 0.61244(18) 0.61800(15) 0.67716(9)
C16 C 0.7542(2) 0.64038(17) 0.70124(10)
H20 H 0.7915 0.7128 0.6939
C17 C 0.8406(2) 0.55855(19) 0.73553(11)
H21 H 0.9359 0.5759 0.7525
C18 C 0.7896(2) 0.4521(2) 0.74524(11)
H22 H 0.8493 0.3956 0.7684
C19 C 0.6518(2) 0.42908(18) 0.72096(11)
H23 H 0.6164 0.3555 0.7268
C20 C 0.56283(19) 0.51054(16) 0.68817(10)
H24 H 0.4669 0.4930 0.6730
C21 C 0.22083(19) 0.77916(19) 0.66352(10)
C22 C 0.3135(2) 0.8706(2) 0.70272(12)
H25 H 0.4094 0.8419 0.7153
H26 H 0.2766 0.8905 0.7438
H27 H 0.3138 0.9378 0.6741
C23 C 0.2289(3) 0.6725(2) 0.70755(12)
H28 H 0.1699 0.6133 0.6831
H29 H 0.1957 0.6899 0.7500
H30 H 0.3262 0.6461 0.7177
C24 C 0.0706(2) 0.8219(3) 0.64799(13)
H31 H 0.0665 0.8898 0.6196
H32 H 0.0383 0.8403 0.6905
H33 H 0.0104 0.7631 0.6238
H34 H 0.557(2) 0.953(2) 0.5547(13)
H35 H 0.579(2) 0.771(2) 0.6375(12)
loop_
_geom_bond_atom_site_label_1
_geom_bond_atom_site_label_2
_geom_bond_site_symmetry_1
_geom_bond_site_symmetry_2
O1 C3 1_555 1_555
N1 C1 1_555 1_555
N2 C2 1_555 1_555
N3 C5 1_555 1_555
C1 C2 1_555 1_555
C2 C10 1_555 1_555
C3 N2 1_555 1_555
C4 C1 1_555 1_555
H1 C4 1_555 1_555
C5 C4 1_555 1_555
H2 C5 1_555 1_555
C6 N1 1_555 1_555
C7 C1 1_555 1_555
H3 C7 1_555 1_555
H4 C7 1_555 1_555
C8 C7 1_555 1_555
H5 C8 1_555 1_555
H6 C8 1_555 1_555
C9 C8 1_555 1_555
H7 C9 1_555 1_555
H8 C9 1_555 1_555
C10 C9 1_555 1_555
H9 C10 1_555 1_555
H10 C10 1_555 1_555
C11 C3 1_555 1_555
C12 C11 1_555 1_555
H11 C12 1_555 1_555
H12 C12 1_555 1_555
H13 C12 1_555 1_555
C13 C11 1_555 1_555
H14 C13 1_555 1_555
H15 C13 1_555 1_555
H16 C13 1_555 1_555
C14 C11 1_555 1_555
H17 C14 1_555 1_555
H18 C14 1_555 1_555
H19 C14 1_555 1_555
C15 N3 1_555 1_555
C16 C15 1_555 1_555
H20 C16 1_555 1_555
C17 C16 1_555 1_555
H21 C17 1_555 1_555
C18 C17 1_555 1_555
H22 C18 1_555 1_555
C19 C18 1_555 1_555
H23 C19 1_555 1_555
C20 C15 1_555 1_555
H24 C20 1_555 1_555
C21 C6 1_555 1_555
C22 C21 1_555 1_555
H25 C22 1_555 1_555
H26 C22 1_555 1_555
H27 C22 1_555 1_555
C23 C21 1_555 1_555
H28 C23 1_555 1_555
H29 C23 1_555 1_555
H30 C23 1_555 1_555
C24 C21 1_555 1_555
H31 C24 1_555 1_555
H32 C24 1_555 1_555
H33 C24 1_555 1_555
H34 O1 1_555 1_555
H35 N3 1_555 1_555
C3 C4 1_555 1_555
C5 C6 1_555 1_555
C19 C20 1_555 1_555

#END
