
#######################################################################
#
#                 Cambridge Crystallographic Data Centre
#                                CCDC 
#
#######################################################################
#
# If this CIF has been generated from an entry in the Cambridge 
# Structural Database, then it will include bibliographic, chemical, 
# crystal, experimental, refinement or atomic coordinate data resulting 
# from the CCDC's data processing and validation procedures.
#
#######################################################################

data_GULVEQ
_chemical_formula_moiety         'C24 H33 N3 O1'
_chemical_name_systematic        
2a,9-di-t-butyl-1-phenyl-1,2a,4,5,6,7,9a,9b-octahydro-2-oxa-1,3,8-triazapentaleno[1,6-ia]indene
_symmetry_cell_setting           monoclinic
_symmetry_space_group_name_H-M   'C 2/c'
_symmetry_Int_Tables_number      15
_space_group_name_Hall           '-C 2yn'
loop_
_symmetry_equiv_pos_site_id
_symmetry_equiv_pos_as_xyz
1 x,y,z
2 -x,y,1/2-z
3 1/2+x,1/2+y,z
4 1/2-x,1/2+y,1/2-z
5 -x,-y,-z
6 x,-y,1/2+z
7 1/2-x,1/2-y,-z
8 1/2+x,1/2-y,1/2+z
_cell_length_a                   36.120(7)
_cell_length_b                   5.8249(12)
_cell_length_c                   20.693(4)
_cell_angle_alpha                90
_cell_angle_beta                 104.55(3)
_cell_angle_gamma                90
_cell_volume                     4214.08
_exptl_crystal_colour            colorless
_exptl_crystal_description       rod
_cell_formula_units_Z            8
loop_
_atom_site_label
_atom_site_type_symbol
_atom_site_fract_x
_atom_site_fract_y
_atom_site_fract_z
O1 O 0.13403(6) 0.4767(4) 0.05790(10)
N1 N 0.09739(7) 0.3629(4) 0.03305(13)
N2 N 0.18013(8) 0.4361(4) 0.15841(13)
N3 N 0.10357(8) 0.2433(5) 0.19612(13)
C1 C 0.14103(9) 0.1510(5) 0.18986(15)
C2 C 0.15329(10) -0.0549(5) 0.23566(15)
H1 H 0.1751 -0.1326 0.2238
H2 H 0.1319 -0.1657 0.2289
C3 C 0.16506(11) 0.0168(6) 0.30904(16)
H3 H 0.1739 -0.1198 0.3371
H4 H 0.1426 0.0810 0.3221
C4 C 0.19702(11) 0.1960(6) 0.32146(17)
H5 H 0.2199 0.1294 0.3105
H6 H 0.2040 0.2389 0.3693
C5 C 0.18444(10) 0.4114(6) 0.27885(15)
H7 H 0.1641 0.4919 0.2943
H8 H 0.2064 0.5174 0.2837
C6 C 0.16985(9) 0.3452(5) 0.20744(16)
C7 C 0.13774(9) 0.1168(5) 0.11516(15)
H9 H 0.1454 -0.0398 0.1036
C8 C 0.16192(9) 0.3117(5) 0.09665(15)
C9 C 0.19272(9) 0.2448(6) 0.05977(16)
C10 C 0.22439(9) 0.1121(6) 0.10882(18)
H10 H 0.2371 0.2139 0.1454
H11 H 0.2431 0.0560 0.0855
H12 H 0.2132 -0.0185 0.1270
C11 C 0.20980(10) 0.4631(6) 0.03750(19)
H13 H 0.1900 0.5441 0.0042
H14 H 0.2309 0.4216 0.0179
H15 H 0.2194 0.5631 0.0762
C12 C 0.17651(10) 0.0945(6) -0.00125(17)
H16 H 0.1639 -0.0400 0.0121
H17 H 0.1973 0.0441 -0.0205
H18 H 0.1579 0.1829 -0.0346
C13 C 0.09650(9) 0.1796(5) 0.08078(15)
H19 H 0.0821 0.0432 0.0581
C14 C 0.08063(9) 0.2613(5) 0.13862(16)
C15 C 0.04088(9) 0.3644(6) 0.12823(16)
C16 C 0.02522(10) 0.3152(6) 0.18886(17)
H20 H 0.0000 0.3871 0.1826
H21 H 0.0427 0.3778 0.2290
H22 H 0.0228 0.1489 0.1939
C17 C 0.01352(9) 0.2650(6) 0.06597(16)
H23 H 0.0227 0.3032 0.0266
H24 H -0.0121 0.3301 0.0611
H25 H 0.0124 0.0977 0.0703
C18 C 0.04430(10) 0.6256(6) 0.11960(18)
H26 H 0.0533 0.6566 0.0796
H27 H 0.0625 0.6891 0.1588
H28 H 0.0192 0.6973 0.1149
C19 C 0.09005(9) 0.3167(6) -0.03675(15)
C20 C 0.07108(10) 0.1216(6) -0.06564(16)
H29 H 0.0633 0.0088 -0.0386
C21 C 0.06342(11) 0.0910(7) -0.13437(17)
H30 H 0.0508 -0.0445 -0.1540
C22 C 0.07386(10) 0.2536(7) -0.17419(17)
H31 H 0.0688 0.2304 -0.2210
C23 C 0.09185(10) 0.4520(6) -0.14565(17)
H32 H 0.0987 0.5665 -0.1732
C24 C 0.09989(10) 0.4849(6) -0.07745(16)
H33 H 0.1121 0.6220 -0.0583
loop_
_geom_bond_atom_site_label_1
_geom_bond_atom_site_label_2
_geom_bond_site_symmetry_1
_geom_bond_site_symmetry_2
O1 N1 1_555 1_555
N1 C13 1_555 1_555
N2 C6 1_555 1_555
N3 C1 1_555 1_555
C1 C2 1_555 1_555
C2 H1 1_555 1_555
H2 C2 1_555 1_555
C3 C2 1_555 1_555
H3 C3 1_555 1_555
H4 C3 1_555 1_555
C4 C3 1_555 1_555
H5 C4 1_555 1_555
H6 C4 1_555 1_555
C5 C4 1_555 1_555
H7 C5 1_555 1_555
H8 C5 1_555 1_555
C6 C1 1_555 1_555
C7 C1 1_555 1_555
H9 C7 1_555 1_555
C8 O1 1_555 1_555
C9 C8 1_555 1_555
C10 C9 1_555 1_555
H10 C10 1_555 1_555
H11 C10 1_555 1_555
H12 C10 1_555 1_555
C11 C9 1_555 1_555
H13 C11 1_555 1_555
H14 C11 1_555 1_555
H15 C11 1_555 1_555
C12 C9 1_555 1_555
H16 C12 1_555 1_555
H17 C12 1_555 1_555
H18 C12 1_555 1_555
C13 C7 1_555 1_555
H19 C13 1_555 1_555
C14 N3 1_555 1_555
C15 C14 1_555 1_555
C16 C15 1_555 1_555
H20 C16 1_555 1_555
H21 C16 1_555 1_555
H22 C16 1_555 1_555
C17 C15 1_555 1_555
H23 C17 1_555 1_555
H24 C17 1_555 1_555
H25 C17 1_555 1_555
C18 C15 1_555 1_555
H26 C18 1_555 1_555
H27 C18 1_555 1_555
H28 C18 1_555 1_555
C19 N1 1_555 1_555
C20 C19 1_555 1_555
H29 C20 1_555 1_555
C21 C20 1_555 1_555
H30 C21 1_555 1_555
C22 C21 1_555 1_555
H31 C22 1_555 1_555
C23 C22 1_555 1_555
H32 C23 1_555 1_555
C24 C19 1_555 1_555
H33 C24 1_555 1_555
N2 C8 1_555 1_555
C5 C6 1_555 1_555
C7 C8 1_555 1_555
C13 C14 1_555 1_555
C23 C24 1_555 1_555

#END
