
#######################################################################
#
#                 Cambridge Crystallographic Data Centre
#                                CCDC 
#
#######################################################################
#
# If this CIF has been generated from an entry in the Cambridge 
# Structural Database, then it will include bibliographic, chemical, 
# crystal, experimental, refinement or atomic coordinate data resulting 
# from the CCDC's data processing and validation procedures.
#
#######################################################################

data_GULYOC
_chemical_formula_moiety         'C31 H31 N1 O3'
_chemical_name_systematic        
'Ethyl 4-benzyl-5-oxo-6-phenyl-1,2,3,3a,4,5,5a,6,10b,10c-decahydronaphtho[3,2,1-cd]indole-9-carboxylate'
_symmetry_cell_setting           triclinic
_symmetry_space_group_name_H-M   'P -1'
_symmetry_Int_Tables_number      2
_space_group_name_Hall           '-P 1'
loop_
_symmetry_equiv_pos_site_id
_symmetry_equiv_pos_as_xyz
1 x,y,z
2 -x,-y,-z
_cell_length_a                   10.4744(12)
_cell_length_b                   11.3260(18)
_cell_length_c                   12.1119(14)
_cell_angle_alpha                101.212(2)
_cell_angle_beta                 114.341(3)
_cell_angle_gamma                98.914(1)
_cell_volume                     1238.93
_exptl_crystal_colour            colorless
_exptl_crystal_description       block
_chemical_melting_point          '398 K'
_cell_formula_units_Z            2
loop_
_atom_site_label
_atom_site_type_symbol
_atom_site_fract_x
_atom_site_fract_y
_atom_site_fract_z
C1 C -0.2624(2) 0.80572(16) 0.20343(17)
H1 H -0.1643 0.8378 0.2603
C2 C -0.3341(2) 0.87445(17) 0.12707(17)
H2 H -0.2845 0.9529 0.1331
C3 C -0.47824(19) 0.82711(16) 0.04261(16)
H3 H -0.5265 0.8744 -0.0072
C4 C -0.5516(2) 0.71098(17) 0.03094(18)
H4 H -0.6488 0.6782 -0.0280
C5 C -0.4804(2) 0.64314(18) 0.10708(18)
H5 H -0.5304 0.5641 0.0990
C6 C -0.3358(2) 0.68965(16) 0.19558(17)
C7 C -0.2670(2) 0.61211(16) 0.27976(18)
H6 H -0.2985 0.6194 0.3452
H7 H -0.3025 0.5253 0.2298
C8 C -0.01631(19) 0.73720(15) 0.46466(16)
H8 H -0.0548 0.8103 0.4723
C9 C 0.0018(2) 0.68336(16) 0.57453(16)
H9 H -0.0828 0.6820 0.5890
H10 H 0.0079 0.5981 0.5527
C10 C 0.13734(19) 0.75919(16) 0.69533(17)
H11 H 0.1285 0.8429 0.7208
H12 H 0.1465 0.7212 0.7625
C11 C 0.2725(2) 0.76566(16) 0.67590(17)
H13 H 0.2818 0.6819 0.6513
H14 H 0.3576 0.8117 0.7549
C12 C 0.26495(19) 0.82936(16) 0.57398(16)
H15 H 0.2671 0.9164 0.6061
C13 C 0.12379(19) 0.77141(16) 0.45371(16)
H16 H 0.1122 0.8295 0.4021
C14 C 0.12521(19) 0.64855(16) 0.37652(17)
H17 H 0.1556 0.5960 0.4329
C15 C -0.03452(19) 0.59233(15) 0.28544(16)
C16 C 0.23282(19) 0.66830(16) 0.32330(16)
H18 H 0.1922 0.7067 0.2551
C17 C 0.25732(19) 0.54719(16) 0.26747(16)
C18 C 0.2137(2) 0.50241(17) 0.13917(18)
H19 H 0.1638 0.5452 0.0845
C19 C 0.2436(2) 0.39461(16) 0.09156(17)
H20 H 0.2145 0.3661 0.0053
C20 C 0.31533(19) 0.32969(17) 0.16988(17)
H21 H 0.3358 0.2577 0.1374
C21 C 0.3571(2) 0.37134(16) 0.29714(17)
H22 H 0.4047 0.3267 0.3508
C22 C 0.3286(2) 0.47944(17) 0.34570(18)
H23 H 0.3578 0.5071 0.4320
C23 C 0.37562(19) 0.76019(15) 0.42600(15)
C24 C 0.39131(19) 0.83088(15) 0.54250(16)
C25 C 0.52836(19) 0.90740(15) 0.63173(17)
H24 H 0.5393 0.9547 0.7086
C26 C 0.6485(2) 0.91504(15) 0.60936(16)
C27 C 0.6303(2) 0.84926(15) 0.49239(16)
H25 H 0.7088 0.8561 0.4744
C28 C 0.4961(2) 0.77390(17) 0.40297(18)
H26 H 0.4855 0.7308 0.3247
C29 C 0.7965(2) 0.98909(17) 0.70680(18)
C30 C 0.93672(19) 1.12804(16) 0.91361(16)
H27 H 0.9769 1.1949 0.8884
H28 H 1.0044 1.0769 0.9358
C31 C 0.9119(2) 1.17991(17) 1.02264(17)
H29 H 0.8467 1.2319 1.0002
H30 H 1.0026 1.2286 1.0931
H31 H 0.8701 1.1129 1.0455
N1 N -0.10954(16) 0.64596(13) 0.33972(14)
O1 O -0.08883(13) 0.51326(11) 0.18300(12)
O2 O 0.90454(13) 0.99129(11) 0.69335(11)
O3 O 0.79724(13) 1.05334(11) 0.81143(12)
loop_
_geom_bond_atom_site_label_1
_geom_bond_atom_site_label_2
_geom_bond_site_symmetry_1
_geom_bond_site_symmetry_2
C1 H1 1_555 1_555
C2 C1 1_555 1_555
H2 C2 1_555 1_555
C3 C2 1_555 1_555
H3 C3 1_555 1_555
C4 C3 1_555 1_555
H4 C4 1_555 1_555
C5 C4 1_555 1_555
H5 C5 1_555 1_555
C6 C1 1_555 1_555
C7 C6 1_555 1_555
H6 C7 1_555 1_555
H7 C7 1_555 1_555
C8 H8 1_555 1_555
C9 C8 1_555 1_555
H9 C9 1_555 1_555
H10 C9 1_555 1_555
C10 C9 1_555 1_555
H11 C10 1_555 1_555
H12 C10 1_555 1_555
C11 C10 1_555 1_555
H13 C11 1_555 1_555
H14 C11 1_555 1_555
C12 C11 1_555 1_555
H15 C12 1_555 1_555
C13 C8 1_555 1_555
H16 C13 1_555 1_555
C14 C13 1_555 1_555
H17 C14 1_555 1_555
C15 C14 1_555 1_555
C16 C14 1_555 1_555
H18 C16 1_555 1_555
C17 C16 1_555 1_555
C18 C17 1_555 1_555
H19 C18 1_555 1_555
C19 C18 1_555 1_555
H20 C19 1_555 1_555
C20 C19 1_555 1_555
H21 C20 1_555 1_555
C21 C20 1_555 1_555
H22 C21 1_555 1_555
C22 C17 1_555 1_555
H23 C22 1_555 1_555
C23 C16 1_555 1_555
C24 C12 1_555 1_555
C25 C24 1_555 1_555
H24 C25 1_555 1_555
C26 C25 1_555 1_555
C27 C26 1_555 1_555
H25 C27 1_555 1_555
C28 C23 1_555 1_555
H26 C28 1_555 1_555
C29 C26 1_555 1_555
C30 H27 1_555 1_555
H28 C30 1_555 1_555
C31 C30 1_555 1_555
H29 C31 1_555 1_555
H30 C31 1_555 1_555
H31 C31 1_555 1_555
N1 C7 1_555 1_555
O1 C15 1_555 1_555
O2 C29 1_555 1_555
O3 C29 1_555 1_555
C5 C6 1_555 1_555
C8 N1 1_555 1_555
C12 C13 1_555 1_555
C15 N1 1_555 1_555
C21 C22 1_555 1_555
C23 C24 1_555 1_555
C27 C28 1_555 1_555
C30 O3 1_555 1_555

#END
