
#######################################################################
#
#                 Cambridge Crystallographic Data Centre
#                                CCDC 
#
#######################################################################
#
# If this CIF has been generated from an entry in the Cambridge 
# Structural Database, then it will include bibliographic, chemical, 
# crystal, experimental, refinement or atomic coordinate data resulting 
# from the CCDC's data processing and validation procedures.
#
#######################################################################

data_GULZIX
_chemical_formula_moiety         'C22 H22 Cl1 N1 O1'
_chemical_name_systematic        
4-Benzyl-9-chloro-2,3,3a,4,5a,6,10b,10c-octahydronaphtho[3,2,1-cd]indol-5(1H)-one
_symmetry_cell_setting           monoclinic
_symmetry_space_group_name_H-M   'P 21/n'
_symmetry_Int_Tables_number      14
_space_group_name_Hall           '-P 2yn'
loop_
_symmetry_equiv_pos_site_id
_symmetry_equiv_pos_as_xyz
1 x,y,z
2 1/2-x,1/2+y,1/2-z
3 -x,-y,-z
4 1/2+x,1/2-y,1/2+z
_cell_length_a                   9.4020(14)
_cell_length_b                   20.083(3)
_cell_length_c                   10.376(2)
_cell_angle_alpha                90
_cell_angle_beta                 114.161(7)
_cell_angle_gamma                90
_cell_volume                     1787.57
_chemical_melting_point          '437 K'
_cell_formula_units_Z            4
loop_
_atom_site_label
_atom_site_type_symbol
_atom_site_fract_x
_atom_site_fract_y
_atom_site_fract_z
C1 C -0.1037(3) 0.41727(13) 0.0751(3)
H1 H -0.1910 0.4037 -0.0035
C2 C 0.0365(3) 0.42019(14) 0.0686(3)
H2 H 0.0447 0.4083 -0.0147
C3 C 0.1678(3) 0.44042(13) 0.1831(3)
H3 H 0.2634 0.4429 0.1766
C4 C 0.1563(3) 0.45688(14) 0.3067(3)
C5 C 0.0126(3) 0.45328(14) 0.3136(3)
H4 H 0.0042 0.4638 0.3975
C6 C -0.1179(3) 0.43430(13) 0.1978(3)
H5 H -0.2147 0.4330 0.2023
C7 C 0.3008(3) 0.47829(14) 0.4314(3)
H6 H 0.3888 0.4769 0.4054
H7 H 0.2880 0.5240 0.4549
C8 C 0.3370(3) 0.36338(13) 0.5476(3)
H8 H 0.2419 0.3471 0.4703
C9 C 0.3342(3) 0.34645(13) 0.6893(3)
H9 H 0.2275 0.3528 0.6812
C10 C 0.4352(3) 0.40027(13) 0.7842(3)
H10 H 0.5434 0.3887 0.8040
C11 C 0.3945(3) 0.45996(13) 0.6880(3)
C12 C 0.4800(3) 0.33764(13) 0.5303(3)
H11 H 0.5706 0.3633 0.5897
H12 H 0.4659 0.3432 0.4330
C13 C 0.5072(3) 0.26351(14) 0.5714(3)
H13 H 0.4180 0.2376 0.5102
H14 H 0.5983 0.2477 0.5590
C14 C 0.5313(3) 0.25423(14) 0.7252(3)
H15 H 0.6216 0.2796 0.7861
H16 H 0.5513 0.2076 0.7507
C15 C 0.3872(3) 0.27728(13) 0.7481(3)
H17 H 0.3021 0.2464 0.6966
C16 C 0.4125(3) 0.27540(12) 0.9028(3)
C17 C 0.4351(3) 0.33301(13) 0.9848(3)
C18 C 0.4229(3) 0.40244(13) 0.9225(3)
H18 H 0.3239 0.4221 0.9100
H19 H 0.5054 0.4302 0.9876
C19 C 0.4099(3) 0.21371(13) 0.9631(3)
H20 H 0.3893 0.1753 0.9084
C20 C 0.4378(3) 0.20961(14) 1.1039(3)
C21 C 0.4684(3) 0.26479(15) 1.1869(3)
H21 H 0.4895 0.2613 1.2823
C22 C 0.4676(3) 0.32652(14) 1.1261(3)
H22 H 0.4897 0.3644 1.1825
Cl1 Cl 0.43067(10) 0.13198(4) 1.17662(9)
N1 N 0.3347(3) 0.43723(11) 0.5544(2)
O1 O 0.4152(2) 0.51912(9) 0.72139(18)
loop_
_geom_bond_atom_site_label_1
_geom_bond_atom_site_label_2
_geom_bond_site_symmetry_1
_geom_bond_site_symmetry_2
C1 H1 1_555 1_555
C2 C1 1_555 1_555
H2 C2 1_555 1_555
C3 C2 1_555 1_555
H3 C3 1_555 1_555
C4 C3 1_555 1_555
C5 C4 1_555 1_555
H4 C5 1_555 1_555
C6 C1 1_555 1_555
H5 C6 1_555 1_555
C7 C4 1_555 1_555
H6 C7 1_555 1_555
H7 C7 1_555 1_555
C8 H8 1_555 1_555
C9 C8 1_555 1_555
H9 C9 1_555 1_555
C10 C9 1_555 1_555
H10 C10 1_555 1_555
C11 C10 1_555 1_555
C12 C8 1_555 1_555
H11 C12 1_555 1_555
H12 C12 1_555 1_555
C13 C12 1_555 1_555
H13 C13 1_555 1_555
H14 C13 1_555 1_555
C14 C13 1_555 1_555
H15 C14 1_555 1_555
H16 C14 1_555 1_555
C15 C9 1_555 1_555
H17 C15 1_555 1_555
C16 C15 1_555 1_555
C17 C16 1_555 1_555
C18 C10 1_555 1_555
H18 C18 1_555 1_555
H19 C18 1_555 1_555
C19 C16 1_555 1_555
H20 C19 1_555 1_555
C20 C19 1_555 1_555
C21 C20 1_555 1_555
H21 C21 1_555 1_555
C22 C17 1_555 1_555
H22 C22 1_555 1_555
Cl1 C20 1_555 1_555
N1 C7 1_555 1_555
O1 C11 1_555 1_555
C5 C6 1_555 1_555
C8 N1 1_555 1_555
C11 N1 1_555 1_555
C14 C15 1_555 1_555
C17 C18 1_555 1_555
C21 C22 1_555 1_555

#END
