
#######################################################################
#
#                 Cambridge Crystallographic Data Centre
#                                CCDC 
#
#######################################################################
#
# If this CIF has been generated from an entry in the Cambridge 
# Structural Database, then it will include bibliographic, chemical, 
# crystal, experimental, refinement or atomic coordinate data resulting 
# from the CCDC's data processing and validation procedures.
#
#######################################################################

data_GUMBOF
_chemical_formula_moiety         'C17 H26 O2'
_chemical_name_systematic        
1^4,5^-Methano-1^4^-methoxy-1^1^-oxo-1(2,5)-cyclopentenacycloundecaphane
_symmetry_cell_setting           monoclinic
_symmetry_space_group_name_H-M   'P 21/c'
_symmetry_Int_Tables_number      14
_space_group_name_Hall           '-P 2ybc'
loop_
_symmetry_equiv_pos_site_id
_symmetry_equiv_pos_as_xyz
1 x,y,z
2 -x,1/2+y,1/2-z
3 -x,-y,-z
4 x,1/2-y,1/2+z
_cell_length_a                   9.785(2)
_cell_length_b                   14.622(2)
_cell_length_c                   11.357(2)
_cell_angle_alpha                90
_cell_angle_beta                 109.897(3)
_cell_angle_gamma                90
_cell_volume                     1527.92
_cell_formula_units_Z            4
loop_
_atom_site_label
_atom_site_type_symbol
_atom_site_fract_x
_atom_site_fract_y
_atom_site_fract_z
O1 O 0.3769(2) -0.1305(1) 0.0834(1)
O2 O 0.4196(2) 0.0895(1) 0.4008(2)
C1 C 0.4067(3) -0.1032(1) 0.2071(2)
C2 C 0.3009(3) -0.1226(2) 0.2708(2)
C3 C 0.2917(3) -0.0543(2) 0.3472(2)
C4 C 0.3939(3) 0.0194(1) 0.3394(2)
C5 C 0.4639(3) -0.0094(2) 0.2461(2)
C6 C 0.5631(3) -0.0925(2) 0.2917(2)
C7 C 0.4072(4) -0.2251(2) 0.0731(3)
C8 C 0.2043(3) -0.0460(2) 0.4309(2)
C9 C 0.1014(4) 0.0371(2) 0.3964(2)
C10 C -0.0230(4) 0.0237(2) 0.2742(3)
C11 C -0.0997(4) 0.1131(3) 0.2180(3)
C12 C -0.0079(4) 0.1769(2) 0.1699(3)
C13 C 0.0151(4) 0.1431(3) 0.0524(3)
C14 C 0.1255(4) 0.1981(2) 0.0159(3)
C15 C 0.2825(4) 0.1796(2) 0.0966(3)
C16 C 0.3391(4) 0.0935(2) 0.0572(2)
C17 C 0.4879(3) 0.0593(2) 0.1547(2)
H1 H 0.2454 -0.1773 0.2591
H2 H 0.6402 -0.1031 0.2550
H3 H 0.5884 -0.1108 0.3805
H4 H 0.3843 -0.2411 -0.0154
H5 H 0.3478 -0.2622 0.1090
H6 H 0.5104 -0.2369 0.1185
H7 H 0.2703 -0.0398 0.5186
H8 H 0.1463 -0.1024 0.4249
H9 H 0.0613 0.0481 0.4643
H10 H 0.1575 0.0920 0.3896
H11 H -0.0950 -0.0184 0.2886
H12 H 0.0148 -0.0056 0.2129
H13 H -0.1899 0.0982 0.1480
H14 H -0.1281 0.1456 0.2826
H15 H -0.0555 0.2375 0.1529
H16 H 0.0880 0.1849 0.2362
H17 H -0.0789 0.1448 -0.0174
H18 H 0.0475 0.0785 0.0649
H19 H 0.1049 0.2639 0.0212
H20 H 0.1136 0.1843 -0.0724
H21 H 0.3437 0.2319 0.0901
H22 H 0.2890 0.1740 0.1853
H23 H 0.3524 0.1044 -0.0242
H24 H 0.2656 0.0446 0.0449
H25 H 0.5470 0.0307 0.1092
H26 H 0.5427 0.1124 0.2018
loop_
_geom_bond_atom_site_label_1
_geom_bond_atom_site_label_2
_geom_bond_site_symmetry_1
_geom_bond_site_symmetry_2
O1 C1 1_555 1_555
O2 C4 1_555 1_555
C1 C2 1_555 1_555
C2 C3 1_555 1_555
C3 C4 1_555 1_555
C4 C5 1_555 1_555
C5 C1 1_555 1_555
C6 C1 1_555 1_555
C7 O1 1_555 1_555
C8 C3 1_555 1_555
C9 C8 1_555 1_555
C10 C9 1_555 1_555
C11 C10 1_555 1_555
C12 C11 1_555 1_555
C13 C12 1_555 1_555
C14 C13 1_555 1_555
C15 C14 1_555 1_555
C16 C15 1_555 1_555
C17 C5 1_555 1_555
H1 C2 1_555 1_555
H2 C6 1_555 1_555
H3 C6 1_555 1_555
H4 C7 1_555 1_555
H5 C7 1_555 1_555
H6 C7 1_555 1_555
H7 C8 1_555 1_555
H8 C8 1_555 1_555
H9 C9 1_555 1_555
H10 C9 1_555 1_555
H11 C10 1_555 1_555
H12 C10 1_555 1_555
H13 C11 1_555 1_555
H14 C11 1_555 1_555
H15 C12 1_555 1_555
H16 C12 1_555 1_555
H17 C13 1_555 1_555
H18 C13 1_555 1_555
H19 C14 1_555 1_555
H20 C14 1_555 1_555
H21 C15 1_555 1_555
H22 C15 1_555 1_555
H23 C16 1_555 1_555
H24 C16 1_555 1_555
H25 C17 1_555 1_555
H26 C17 1_555 1_555
C5 C6 1_555 1_555
C16 C17 1_555 1_555

#END
