
#######################################################################
#
#                 Cambridge Crystallographic Data Centre
#                                CCDC 
#
#######################################################################
#
# If this CIF has been generated from an entry in the Cambridge 
# Structural Database, then it will include bibliographic, chemical, 
# crystal, experimental, refinement or atomic coordinate data resulting 
# from the CCDC's data processing and validation procedures.
#
#######################################################################

data_GUMCUN
_chemical_compound_source        'octocoral Briareum excavatum'
_chemical_name_common            'Briaexcavatin W'
_chemical_formula_moiety         'C24 H32 O9'
_chemical_name_systematic        
'1S*,2S*,7S*,8S*,9S*,10S*,11R*,12R*,17R*-1,2-Dihydroxy-1,4a,8,11a-tetramethyl-11-oxo-2,4a,5,6,7,9a,11,11a,13,13a-decahydro-1H-benzo[4,5]cyclodeca[1,2-b]oxireno[c]furan-5,13-diyl diacetate'
_symmetry_cell_setting           orthorhombic
_symmetry_space_group_name_H-M   'P 21 21 21'
_symmetry_Int_Tables_number      19
_space_group_name_Hall           'P 2ac 2ab'
loop_
_symmetry_equiv_pos_site_id
_symmetry_equiv_pos_as_xyz
1 x,y,z
2 1/2-x,-y,1/2+z
3 1/2+x,1/2-y,-z
4 -x,1/2+y,1/2-z
_cell_length_a                   8.7680(18)
_cell_length_b                   17.340(4)
_cell_length_c                   31.059(6)
_cell_angle_alpha                90
_cell_angle_beta                 90
_cell_angle_gamma                90
_cell_volume                     4722.12
_exptl_crystal_colour            colorless
_exptl_crystal_description       prism
_chemical_melting_point          247-249deg.C
_cell_formula_units_Z            8
_exptl_crystal_recrystallization_method methanol
loop_
_atom_site_label
_atom_site_type_symbol
_atom_site_fract_x
_atom_site_fract_y
_atom_site_fract_z
O1 O 0.2731(3) 0.53840(16) -0.03870(7)
O2 O 0.1457(4) 0.6229(4) -0.08223(13)
O3 O 0.1227(2) 0.46712(15) 0.09685(8)
O4 O 0.4170(2) 0.41983(12) 0.10713(6)
O5 O 0.3842(3) 0.39673(15) -0.00680(7)
O6 O 0.5633(6) 0.3040(2) -0.01398(13)
O7 O 0.8082(3) 0.45184(14) 0.00625(8)
H1 H 0.8344 0.4134 0.0198
O8 O 0.7407(3) 0.63300(14) 0.06275(8)
H2 H 0.7804 0.6258 0.0863
O9 O 0.0604(3) 0.35371(17) 0.12513(9)
C1 C 0.5481(4) 0.54403(19) -0.03005(9)
C2 C 0.4012(4) 0.5919(2) -0.03873(10)
H3 H 0.4101 0.6109 -0.0683
C3 C 0.3707(4) 0.6630(2) -0.01067(11)
H4 H 0.3466 0.7056 -0.0298
H5 H 0.4651 0.6760 0.0039
C4 C 0.2441(4) 0.6589(2) 0.02372(10)
H6 H 0.1891 0.7074 0.0237
H7 H 0.1727 0.6188 0.0155
C5 C 0.2976(4) 0.64296(19) 0.06892(10)
C6 C 0.2937(4) 0.57458(18) 0.08754(11)
H8 H 0.3280 0.5721 0.1158
C7 C 0.2399(4) 0.50071(19) 0.06799(11)
H9 H 0.1958 0.5106 0.0395
C8 C 0.3595(3) 0.43797(17) 0.06483(9)
C9 C 0.4717(4) 0.43195(18) 0.02774(9)
H10 H 0.5498 0.3946 0.0363
C10 C 0.5563(3) 0.50901(17) 0.01685(9)
H11 H 0.5087 0.5479 0.0354
C11 C 0.7222(3) 0.50163(19) 0.03364(10)
C12 C 0.8029(4) 0.58012(19) 0.03219(11)
H12 H 0.9113 0.5725 0.0386
C13 C 0.7884(4) 0.6173(2) -0.01058(11)
H13 H 0.8613 0.6532 -0.0190
C14 C 0.6757(4) 0.60115(19) -0.03702(11)
H14 H 0.6744 0.6279 -0.0630
C15 C 0.5649(4) 0.4845(2) -0.06717(11)
H15 H 0.5949 0.5107 -0.0931
H16 H 0.4690 0.4590 -0.0718
H17 H 0.6410 0.4471 -0.0596
C16 C 0.3674(5) 0.7109(2) 0.09126(12)
H18 H 0.4023 0.6957 0.1193
H19 H 0.2926 0.7510 0.0941
H20 H 0.4521 0.7296 0.0747
C17 C 0.3026(4) 0.36990(19) 0.08814(10)
C18 C 0.3418(5) 0.2870(2) 0.08181(13)
H21 H 0.4456 0.2828 0.0723
H22 H 0.2753 0.2650 0.0605
H23 H 0.3297 0.2599 0.1085
C19 C 0.1501(4) 0.3928(2) 0.10567(11)
C20 C 0.7316(4) 0.4715(2) 0.07977(11)
H24 H 0.7028 0.4181 0.0803
H25 H 0.6638 0.5006 0.0978
H26 H 0.8342 0.4768 0.0902
C21 C 0.1588(6) 0.5575(4) -0.06550(18)
C22 C 0.0529(6) 0.4866(5) -0.0702(2)
H27 H -0.0468 0.5033 -0.0789
H28 H 0.0459 0.4602 -0.0431
H29 H 0.0939 0.4523 -0.0916
C23 C 0.4435(7) 0.3289(3) -0.02316(13)
C24 C 0.3344(8) 0.2952(4) -0.05538(16)
H30 H 0.2332 0.3133 -0.0495
H31 H 0.3364 0.2398 -0.0532
H32 H 0.3642 0.3103 -0.0838
O10 O 1.1462(2) 0.72466(11) 0.28656(6)
O11 O 1.3052(3) 0.69117(15) 0.33993(8)
O12 O 0.6780(3) 0.85395(12) 0.29819(8)
O13 O 0.6054(2) 0.79091(12) 0.21947(8)
O14 O 1.0169(2) 0.79957(11) 0.21404(6)
O15 O 1.0256(4) 0.82644(18) 0.14273(9)
O16 O 0.9035(3) 0.61857(13) 0.14346(7)
H33 H 0.9752 0.5882 0.1433
O17 O 0.7305(3) 0.51977(15) 0.23608(8)
H34 H 0.6400 0.5198 0.2295
O18 O 0.5699(3) 0.95892(12) 0.27091(9)
C25 C 1.0728(3) 0.63468(15) 0.22909(9)
C26 C 1.1184(3) 0.64329(16) 0.27744(9)
H35 H 1.2178 0.6179 0.2802
C27 C 1.0157(4) 0.60549(17) 0.31165(10)
H36 H 1.0809 0.5775 0.3315
H37 H 0.9518 0.5678 0.2973
C28 C 0.9107(4) 0.65878(19) 0.33854(10)
H38 H 0.9148 0.6424 0.3684
H39 H 0.9504 0.7109 0.3372
C29 C 0.7465(4) 0.65992(18) 0.32437(10)
C30 C 0.6836(4) 0.71636(18) 0.30106(10)
H40 H 0.5800 0.7120 0.2951
C31 C 0.7630(3) 0.78522(16) 0.28376(10)
H41 H 0.8681 0.7871 0.2945
C32 C 0.7614(3) 0.79088(16) 0.23482(10)
C33 C 0.8826(3) 0.75169(15) 0.20775(10)
H42 H 0.8522 0.7555 0.1775
C34 C 0.9070(3) 0.66446(15) 0.21868(9)
H43 H 0.8493 0.6561 0.2453
C35 C 0.8252(3) 0.61417(17) 0.18457(10)
C36 C 0.8208(4) 0.52947(18) 0.19849(11)
H44 H 0.7779 0.4983 0.1751
C37 C 0.9756(4) 0.50134(18) 0.20866(11)
H45 H 0.9975 0.4492 0.2054
C38 C 1.0839(4) 0.54855(17) 0.22228(11)
H46 H 1.1778 0.5261 0.2284
C39 C 1.2019(4) 0.66903(19) 0.20116(11)
H47 H 1.2867 0.6340 0.2006
H48 H 1.2340 0.7174 0.2132
H49 H 1.1653 0.6770 0.1724
C40 C 0.6534(4) 0.5916(2) 0.33774(14)
H50 H 0.5481 0.6007 0.3309
H51 H 0.6640 0.5837 0.3682
H52 H 0.6883 0.5466 0.3227
C41 C 0.6857(4) 0.86413(17) 0.22397(11)
C42 C 0.7055(5) 0.9133(2) 0.18419(13)
H53 H 0.7466 0.8824 0.1613
H54 H 0.7741 0.9550 0.1904
H55 H 0.6084 0.9338 0.1756
C43 C 0.6374(3) 0.89880(17) 0.26563(12)
C44 C 0.6618(4) 0.6399(2) 0.17479(12)
H56 H 0.6639 0.6882 0.1597
H57 H 0.6066 0.6458 0.2013
H58 H 0.6126 0.6017 0.1572
C45 C 1.2472(4) 0.74016(19) 0.31828(10)
C46 C 1.2727(4) 0.8242(2) 0.32336(12)
H59 H 1.2846 0.8474 0.2955
H60 H 1.3632 0.8327 0.3401
H61 H 1.1868 0.8468 0.3378
C47 C 1.0782(4) 0.83374(18) 0.17804(12)
C48 C 1.2167(5) 0.8785(2) 0.18938(15)
H62 H 1.1886 0.9217 0.2070
H63 H 1.2649 0.8966 0.1635
H64 H 1.2863 0.8460 0.2049
loop_
_geom_bond_atom_site_label_1
_geom_bond_atom_site_label_2
_geom_bond_site_symmetry_1
_geom_bond_site_symmetry_2
O1 C2 1_555 1_555
O2 C21 1_555 1_555
O3 C7 1_555 1_555
O4 C8 1_555 1_555
O5 C9 1_555 1_555
O6 C23 1_555 1_555
O7 H1 1_555 1_555
O8 H2 1_555 1_555
O9 C19 1_555 1_555
C1 C2 1_555 1_555
C2 H3 1_555 1_555
C3 C2 1_555 1_555
H4 C3 1_555 1_555
H5 C3 1_555 1_555
C4 C3 1_555 1_555
H6 C4 1_555 1_555
H7 C4 1_555 1_555
C5 C4 1_555 1_555
C6 C5 1_555 1_555
H8 C6 1_555 1_555
C7 C6 1_555 1_555
H9 C7 1_555 1_555
C8 C7 1_555 1_555
C9 C8 1_555 1_555
H10 C9 1_555 1_555
C10 C1 1_555 1_555
H11 C10 1_555 1_555
C11 O7 1_555 1_555
C12 O8 1_555 1_555
H12 C12 1_555 1_555
C13 C12 1_555 1_555
H13 C13 1_555 1_555
C14 C1 1_555 1_555
H14 C14 1_555 1_555
C15 C1 1_555 1_555
H15 C15 1_555 1_555
H16 C15 1_555 1_555
H17 C15 1_555 1_555
C16 C5 1_555 1_555
H18 C16 1_555 1_555
H19 C16 1_555 1_555
H20 C16 1_555 1_555
C17 O4 1_555 1_555
C18 C17 1_555 1_555
H21 C18 1_555 1_555
H22 C18 1_555 1_555
H23 C18 1_555 1_555
C19 O3 1_555 1_555
C20 C11 1_555 1_555
H24 C20 1_555 1_555
H25 C20 1_555 1_555
H26 C20 1_555 1_555
C21 O1 1_555 1_555
C22 C21 1_555 1_555
H27 C22 1_555 1_555
H28 C22 1_555 1_555
H29 C22 1_555 1_555
C23 O5 1_555 1_555
C24 C23 1_555 1_555
H30 C24 1_555 1_555
H31 C24 1_555 1_555
H32 C24 1_555 1_555
O10 C26 1_555 1_555
O11 C45 1_555 1_555
O12 C31 1_555 1_555
O13 C32 1_555 1_555
O14 C33 1_555 1_555
O15 C47 1_555 1_555
O16 H33 1_555 1_555
O17 H34 1_555 1_555
O18 C43 1_555 1_555
C25 C26 1_555 1_555
C26 H35 1_555 1_555
C27 C26 1_555 1_555
H36 C27 1_555 1_555
H37 C27 1_555 1_555
C28 C27 1_555 1_555
H38 C28 1_555 1_555
H39 C28 1_555 1_555
C29 C28 1_555 1_555
C30 C29 1_555 1_555
H40 C30 1_555 1_555
C31 C30 1_555 1_555
H41 C31 1_555 1_555
C32 C31 1_555 1_555
C33 C32 1_555 1_555
H42 C33 1_555 1_555
C34 C25 1_555 1_555
H43 C34 1_555 1_555
C35 O16 1_555 1_555
C36 O17 1_555 1_555
H44 C36 1_555 1_555
C37 C36 1_555 1_555
H45 C37 1_555 1_555
C38 C25 1_555 1_555
H46 C38 1_555 1_555
C39 C25 1_555 1_555
H47 C39 1_555 1_555
H48 C39 1_555 1_555
H49 C39 1_555 1_555
C40 C29 1_555 1_555
H50 C40 1_555 1_555
H51 C40 1_555 1_555
H52 C40 1_555 1_555
C41 O13 1_555 1_555
C42 C41 1_555 1_555
H53 C42 1_555 1_555
H54 C42 1_555 1_555
H55 C42 1_555 1_555
C43 O12 1_555 1_555
C44 C35 1_555 1_555
H56 C44 1_555 1_555
H57 C44 1_555 1_555
H58 C44 1_555 1_555
C45 O10 1_555 1_555
C46 C45 1_555 1_555
H59 C46 1_555 1_555
H60 C46 1_555 1_555
H61 C46 1_555 1_555
C47 O14 1_555 1_555
C48 C47 1_555 1_555
H62 C48 1_555 1_555
H63 C48 1_555 1_555
H64 C48 1_555 1_555
C8 C17 1_555 1_555
C9 C10 1_555 1_555
C10 C11 1_555 1_555
C11 C12 1_555 1_555
C13 C14 1_555 1_555
C17 C19 1_555 1_555
C32 C41 1_555 1_555
C33 C34 1_555 1_555
C34 C35 1_555 1_555
C35 C36 1_555 1_555
C37 C38 1_555 1_555
C41 C43 1_555 1_555

#END
