
#######################################################################
#
#                 Cambridge Crystallographic Data Centre
#                                CCDC 
#
#######################################################################
#
# If this CIF has been generated from an entry in the Cambridge 
# Structural Database, then it will include bibliographic, chemical, 
# crystal, experimental, refinement or atomic coordinate data resulting 
# from the CCDC's data processing and validation procedures.
#
#######################################################################

data_GUMCEY
_chemical_formula_moiety         'C25 H21 Br1 N2 O2,0.5(C4 H8 O2)'
_chemical_name_systematic        
"3'-acetyl-6-bromo-4',5'-diphenylspiro[indole-3,2'-pyrrolidin]-2(1H)-one ethyl acetate"
_symmetry_cell_setting           triclinic
_symmetry_space_group_name_H-M   'P 1'
_symmetry_Int_Tables_number      1
_space_group_name_Hall           'P 1'
loop_
_symmetry_equiv_pos_site_id
_symmetry_equiv_pos_as_xyz
1 x,y,z
_cell_length_a                   7.38290(10)
_cell_length_b                   9.93110(10)
_cell_length_c                   16.9977(3)
_cell_angle_alpha                89.5690(10)
_cell_angle_beta                 78.2320(10)
_cell_angle_gamma                71.9250(10)
_cell_volume                     1157.79
_exptl_crystal_colour            colorless
_exptl_crystal_description       block
_cell_formula_units_Z            2
loop_
_atom_site_label
_atom_site_type_symbol
_atom_site_fract_x
_atom_site_fract_y
_atom_site_fract_z
Br1 Br 0.94037(3) -0.23925(2) 0.437562(18)
O1 O 0.2533(3) 0.4806(2) 0.38109(15)
O2 O 0.7953(3) 0.4374(3) 0.53579(16)
N1 N 0.4777(4) 0.2564(3) 0.36652(17)
H1 H 0.4863 0.2380 0.3163
N2 N 0.2136(4) 0.4005(2) 0.55599(15)
H2 H 0.1356 0.3511 0.5586
C1 C 0.7701(5) -0.0502(3) 0.4604(2)
C2 C 0.7238(5) 0.0086(3) 0.5381(2)
H3 H 0.7719 -0.0450 0.5788
C3 C 0.6042(4) 0.1493(3) 0.5553(2)
H4 H 0.5717 0.1905 0.6073
C4 C 0.5355(4) 0.2257(3) 0.4938(2)
C5 C 0.5802(5) 0.1628(3) 0.4170(2)
C6 C 0.6980(5) 0.0235(3) 0.3972(2)
H5 H 0.7269 -0.0180 0.3454
C7 C 0.3940(4) 0.3753(3) 0.4950(2)
C8 C 0.4726(4) 0.4991(3) 0.51342(19)
H6 H 0.4120 0.5811 0.4846
C9 C 0.3894(4) 0.5345(3) 0.60340(18)
H7 H 0.4638 0.4594 0.6328
C10 C 0.1829(4) 0.5219(3) 0.61263(19)
H8 H 0.0985 0.6079 0.5943
C11 C 0.3636(4) 0.3798(3) 0.4084(2)
C12 C 0.6920(5) 0.4634(3) 0.4872(2)
C13 C 0.7741(5) 0.4613(4) 0.3987(2)
H9 H 0.9133 0.4375 0.3895
H10 H 0.7205 0.5531 0.3793
H11 H 0.7409 0.3917 0.3706
C14 C 0.3947(4) 0.6751(3) 0.63436(19)
C15 C 0.2940(4) 0.8037(3) 0.6051(2)
H12 H 0.2250 0.8026 0.5651
C16 C 0.2972(5) 0.9322(3) 0.6356(2)
H13 H 0.2293 1.0167 0.6163
C17 C 0.4002(5) 0.9353(4) 0.6942(2)
H14 H 0.4012 1.0217 0.7145
C18 C 0.5022(5) 0.8101(4) 0.7229(2)
H15 H 0.5720 0.8125 0.7623
C19 C 0.5008(5) 0.6801(3) 0.69285(19)
H16 H 0.5711 0.5962 0.7119
C20 C 0.0897(4) 0.4991(3) 0.69757(18)
C21 C -0.0232(5) 0.6148(4) 0.7495(2)
H17 H -0.0415 0.7058 0.7315
C22 C -0.1096(6) 0.5976(4) 0.8277(2)
H18 H -0.1826 0.6768 0.8620
C23 C -0.0874(5) 0.4638(4) 0.8545(2)
H19 H -0.1485 0.4520 0.9065
C24 C 0.0260(5) 0.3472(4) 0.8040(2)
H20 H 0.0443 0.2565 0.8223
C25 C 0.1129(5) 0.3646(3) 0.7260(2)
H21 H 0.1878 0.2851 0.6922
Br2 Br -0.21659(3) 0.94699(2) 0.155641(19)
O3 O 0.4417(3) 0.2142(2) 0.20505(15)
O4 O -0.1163(3) 0.2616(3) 0.04195(16)
N3 N 0.2368(4) 0.4437(3) 0.21970(18)
H22 H 0.2437 0.4639 0.2679
N4 N 0.4435(4) 0.2931(2) 0.02794(15)
H23 H 0.5038 0.3531 0.0119
C26 C -0.0732(5) 0.7520(3) 0.1340(2)
C27 C -0.0647(5) 0.6884(3) 0.0610(2)
H24 H -0.1314 0.7399 0.0240
C28 C 0.0457(4) 0.5451(3) 0.0432(2)
H25 H 0.0548 0.5007 -0.0061
C29 C 0.1403(4) 0.4711(3) 0.0996(2)
C30 C 0.1275(5) 0.5385(3) 0.1728(2)
C31 C 0.3309(4) 0.3153(3) 0.1791(2)
C32 C 0.2765(4) 0.3200(3) 0.0962(2)
C33 C 0.1870(4) 0.1982(3) 0.08505(19)
H26 H 0.2206 0.1286 0.1252
C34 C 0.2942(4) 0.1272(3) 0.00129(18)
H27 H 0.2267 0.1809 -0.0387
C35 C 0.4929(4) 0.1509(3) -0.00894(19)
H28 H 0.5742 0.0823 0.0215
C36 C -0.0336(5) 0.2540(3) 0.0974(2)
C37 C -0.1453(5) 0.3006(4) 0.1821(2)
H29 H -0.2824 0.3341 0.1828
H30 H -0.1069 0.3757 0.2018
H31 H -0.1180 0.2219 0.2157
C38 C 0.3123(4) -0.0276(3) -0.01181(19)
C39 C 0.2394(5) -0.0701(3) -0.0732(2)
H32 H 0.1695 -0.0021 -0.1031
C40 C 0.2700(6) -0.2129(4) -0.0905(3)
H33 H 0.2217 -0.2400 -0.1321
C41 C 0.3729(5) -0.3159(3) -0.0456(2)
H34 H 0.3952 -0.4117 -0.0574
C42 C 0.4410(5) -0.2739(3) 0.0164(2)
H35 H 0.5088 -0.3418 0.0469
C43 C 0.4091(5) -0.1306(3) 0.0340(2)
H36 H 0.4533 -0.1036 0.0770
C44 C 0.5998(4) 0.1403(3) -0.09549(19)
C45 C 0.7648(4) 0.0255(3) -0.1258(2)
H37 H 0.8107 -0.0452 -0.0919
C46 C 0.8611(5) 0.0151(3) -0.2052(2)
H38 H 0.9722 -0.0616 -0.2242
C47 C 0.7924(5) 0.1188(4) -0.2570(2)
H39 H 0.8566 0.1117 -0.3106
C48 C 0.6283(5) 0.2324(4) -0.2278(2)
H40 H 0.5817 0.3020 -0.2621
C49 C 0.5324(4) 0.2438(3) -0.14814(19)
H41 H 0.4219 0.3210 -0.1294
C50 C 0.0191(5) 0.6800(3) 0.1923(2)
H42 H 0.0089 0.7241 0.2418
O5 O 0.2915(4) 0.9377(3) 0.34723(18)
O6 O 0.0860(4) 1.1428(3) 0.3214(2)
C51 C 0.4485(7) 0.7360(5) 0.2568(3)
H43 H 0.4690 0.6986 0.2026
H44 H 0.3884 0.6806 0.2935
H45 H 0.5715 0.7320 0.2688
C52 C 0.3172(6) 0.8884(4) 0.2654(2)
H46 H 0.3765 0.9457 0.2288
H47 H 0.1924 0.8941 0.2531
C53 C 0.1653(5) 1.0676(4) 0.3689(2)
C54 C 0.1385(6) 1.1042(4) 0.4557(3)
H48 H 0.0472 1.1978 0.4691
H49 H 0.2614 1.1016 0.4674
H50 H 0.0896 1.0370 0.4868
loop_
_geom_bond_atom_site_label_1
_geom_bond_atom_site_label_2
_geom_bond_site_symmetry_1
_geom_bond_site_symmetry_2
Br1 C1 1_555 1_555
O1 C11 1_555 1_555
O2 C12 1_555 1_555
N1 H1 1_555 1_555
N2 H2 1_555 1_555
C1 C2 1_555 1_555
C2 H3 1_555 1_555
C3 C2 1_555 1_555
H4 C3 1_555 1_555
C4 C3 1_555 1_555
C5 N1 1_555 1_555
C6 C1 1_555 1_555
H5 C6 1_555 1_555
C7 N2 1_555 1_555
C8 C7 1_555 1_555
H6 C8 1_555 1_555
C9 C8 1_555 1_555
H7 C9 1_555 1_555
C10 N2 1_555 1_555
H8 C10 1_555 1_555
C11 N1 1_555 1_555
C12 C8 1_555 1_555
C13 C12 1_555 1_555
H9 C13 1_555 1_555
H10 C13 1_555 1_555
H11 C13 1_555 1_555
C14 C9 1_555 1_555
C15 C14 1_555 1_555
H12 C15 1_555 1_555
C16 C15 1_555 1_555
H13 C16 1_555 1_555
C17 C16 1_555 1_555
H14 C17 1_555 1_555
C18 C17 1_555 1_555
H15 C18 1_555 1_555
C19 C14 1_555 1_555
H16 C19 1_555 1_555
C20 C10 1_555 1_555
C21 C20 1_555 1_555
H17 C21 1_555 1_555
C22 C21 1_555 1_555
H18 C22 1_555 1_555
C23 C22 1_555 1_555
H19 C23 1_555 1_555
C24 C23 1_555 1_555
H20 C24 1_555 1_555
C25 C20 1_555 1_555
H21 C25 1_555 1_555
Br2 C26 1_555 1_555
O3 C31 1_555 1_555
O4 C36 1_555 1_555
N3 H22 1_555 1_555
N4 H23 1_555 1_555
C26 C27 1_555 1_555
C27 H24 1_555 1_555
C28 C27 1_555 1_555
H25 C28 1_555 1_555
C29 C28 1_555 1_555
C30 N3 1_555 1_555
C31 N3 1_555 1_555
C32 N4 1_555 1_555
C33 C32 1_555 1_555
H26 C33 1_555 1_555
C34 C33 1_555 1_555
H27 C34 1_555 1_555
C35 N4 1_555 1_555
H28 C35 1_555 1_555
C36 C33 1_555 1_555
C37 C36 1_555 1_555
H29 C37 1_555 1_555
H30 C37 1_555 1_555
H31 C37 1_555 1_555
C38 C34 1_555 1_555
C39 C38 1_555 1_555
H32 C39 1_555 1_555
C40 C39 1_555 1_555
H33 C40 1_555 1_555
C41 C40 1_555 1_555
H34 C41 1_555 1_555
C42 C41 1_555 1_555
H35 C42 1_555 1_555
C43 C38 1_555 1_555
H36 C43 1_555 1_555
C44 C35 1_555 1_555
C45 C44 1_555 1_555
H37 C45 1_555 1_555
C46 C45 1_555 1_555
H38 C46 1_555 1_555
C47 C46 1_555 1_555
H39 C47 1_555 1_555
C48 C47 1_555 1_555
H40 C48 1_555 1_555
C49 C44 1_555 1_555
H41 C49 1_555 1_555
C50 C26 1_555 1_555
H42 C50 1_555 1_555
O5 C52 1_555 1_555
O6 C53 1_555 1_555
C51 H43 1_555 1_555
H44 C51 1_555 1_555
H45 C51 1_555 1_555
C52 C51 1_555 1_555
H46 C52 1_555 1_555
H47 C52 1_555 1_555
C53 O5 1_555 1_555
C54 C53 1_555 1_555
H48 C54 1_555 1_555
H49 C54 1_555 1_555
H50 C54 1_555 1_555
C4 C5 1_555 1_555
C4 C7 1_555 1_555
C5 C6 1_555 1_555
C7 C11 1_555 1_555
C9 C10 1_555 1_555
C18 C19 1_555 1_555
C24 C25 1_555 1_555
C29 C30 1_555 1_555
C29 C32 1_555 1_555
C30 C50 1_555 1_555
C31 C32 1_555 1_555
C34 C35 1_555 1_555
C42 C43 1_555 1_555
C48 C49 1_555 1_555

#END
