
#######################################################################
#
#                 Cambridge Crystallographic Data Centre
#                                CCDC 
#
#######################################################################
#
# If this CIF has been generated from an entry in the Cambridge 
# Structural Database, then it will include bibliographic, chemical, 
# crystal, experimental, refinement or atomic coordinate data resulting 
# from the CCDC's data processing and validation procedures.
#
#######################################################################

data_GUMJUT01
_chemical_formula_moiety         'C3 H11 N1 O9 P3 1-,C12 H9 N2 1+'
_chemical_name_systematic        
'1,10-phenanthrolin-1-ium (((phosphonomethyl)azaniumyl)bis(methylene))bis(hydrogen (phosphonate))'
_symmetry_cell_setting           triclinic
_symmetry_space_group_name_H-M   'P -1'
_symmetry_Int_Tables_number      2
_space_group_name_Hall           '-P 1'
loop_
_symmetry_equiv_pos_site_id
_symmetry_equiv_pos_as_xyz
1 x,y,z
2 -x,-y,-z
_cell_length_a                   8.1425(16)
_cell_length_b                   11.324(2)
_cell_length_c                   11.467(2)
_cell_angle_alpha                72.120(3)
_cell_angle_beta                 74.077(3)
_cell_angle_gamma                85.676(3)
_cell_volume                     967.602
_exptl_crystal_colour            colorless
_exptl_crystal_description       block
_cell_formula_units_Z            2
loop_
_atom_site_label
_atom_site_type_symbol
_atom_site_fract_x
_atom_site_fract_y
_atom_site_fract_z
C1 C 0.4211(3) 0.7217(2) 1.1341(2)
H1 H 0.3367 0.7150 1.2093
C2 C 0.4454(3) 0.8330(2) 1.0370(2)
H2 H 0.3756 0.9004 1.0456
C3 C 0.5736(3) 0.8426(2) 0.9279(2)
H3 H 0.5930 0.9176 0.8633
C4 C 0.6759(3) 0.7396(2) 0.9131(2)
C5 C 0.8095(3) 0.7424(2) 0.8008(2)
H4 H 0.8350 0.8161 0.7348
C6 C 0.8983(3) 0.6397(2) 0.7900(2)
H5 H 0.9844 0.6435 0.7162
C7 C 0.8634(3) 0.5238(2) 0.8899(2)
C8 C 0.9513(3) 0.4135(2) 0.8819(2)
H6 H 1.0355 0.4120 0.8087
C9 C 0.9113(3) 0.3085(2) 0.9833(3)
H7 H 0.9691 0.2350 0.9804
C10 C 0.7828(3) 0.3129(2) 1.0912(2)
H8 H 0.7576 0.2405 1.1590
C11 C 0.7365(3) 0.5176(2) 1.0026(2)
C12 C 0.6431(3) 0.62782(19) 1.01234(19)
N1 N 0.5177(2) 0.62494(17) 1.12018(16)
H9 H 0.5006 0.5571 1.1820
N2 N 0.6946(3) 0.41316(17) 1.10333(18)
C13 C 0.6784(2) 0.84999(19) 0.30246(18)
H10 H 0.5891 0.8952 0.2664
H11 H 0.6928 0.7719 0.2827
C14 C 0.7314(2) 0.73149(18) 0.51302(18)
H12 H 0.7103 0.7409 0.5971
H13 H 0.8492 0.7561 0.4690
C15 C 0.4341(2) 0.78616(19) 0.49614(19)
H14 H 0.4039 0.7667 0.5879
H15 H 0.4167 0.7116 0.4760
N3 N 0.61976(19) 0.82272(15) 0.44410(14)
H16 H 0.6335 0.8989 0.4603
O1 O 1.02227(19) 0.84530(15) 0.24691(16)
H17 H 1.1111 0.8700 0.2793
O2 O 0.87205(19) 0.97388(17) 0.08718(14)
O3 O 0.8742(2) 1.04261(14) 0.27893(15)
O4 O 0.36483(18) 1.02924(13) 0.41902(14)
O5 O 0.27031(18) 0.88847(15) 0.31390(14)
O6 O 0.11862(18) 0.87328(14) 0.53880(15)
H18 H 0.1143 0.9149 0.6026
O7 O 0.54763(19) 0.51587(14) 0.62932(13)
O8 O 0.8670(2) 0.50954(16) 0.57532(15)
O9 O 0.7189(2) 0.55438(15) 0.40019(14)
H19 H 0.6157 0.5201 0.3934
P1 P 0.87629(6) 0.93877(5) 0.22536(5)
P2 P 0.29136(6) 0.90744(5) 0.43312(5)
P3 P 0.71211(6) 0.56708(5) 0.53239(5)
H20? H 1.0000 0.5000 0.5000
H21? H 1.0000 1.0000 0.0000
loop_
_geom_bond_atom_site_label_1
_geom_bond_atom_site_label_2
_geom_bond_site_symmetry_1
_geom_bond_site_symmetry_2
C1 H1 1_555 1_555
C2 C1 1_555 1_555
H2 C2 1_555 1_555
C3 C2 1_555 1_555
H3 C3 1_555 1_555
C4 C3 1_555 1_555
C5 C4 1_555 1_555
H4 C5 1_555 1_555
C6 C5 1_555 1_555
H5 C6 1_555 1_555
C7 C6 1_555 1_555
C8 C7 1_555 1_555
H6 C8 1_555 1_555
C9 C8 1_555 1_555
H7 C9 1_555 1_555
C10 C9 1_555 1_555
H8 C10 1_555 1_555
C11 C7 1_555 1_555
C12 C4 1_555 1_555
N1 C1 1_555 1_555
H9 N1 1_555 1_555
N2 C10 1_555 1_555
C13 H10 1_555 1_555
H11 C13 1_555 1_555
C14 H12 1_555 1_555
H13 C14 1_555 1_555
C15 H14 1_555 1_555
H15 C15 1_555 1_555
N3 C13 1_555 1_555
H16 N3 1_555 1_555
O1 H17 1_555 1_555
O2 P1 1_555 1_555
O3 P1 1_555 1_555
O4 P2 1_555 1_555
O5 P2 1_555 1_555
O6 H18 1_555 1_555
O7 P3 1_555 1_555
O8 P3 1_555 1_555
O9 H19 1_555 1_555
P1 C13 1_555 1_555
P2 C15 1_555 1_555
P3 C14 1_555 1_555
C11 C12 1_555 1_555
C11 N2 1_555 1_555
C12 N1 1_555 1_555
C14 N3 1_555 1_555
C15 N3 1_555 1_555
O1 P1 1_555 1_555
O6 P2 1_555 1_555
O9 P3 1_555 1_555

#END
