
#######################################################################
#
#                 Cambridge Crystallographic Data Centre
#                                CCDC 
#
#######################################################################
#
# If this CIF has been generated from an entry in the Cambridge 
# Structural Database, then it will include bibliographic, chemical, 
# crystal, experimental, refinement or atomic coordinate data resulting 
# from the CCDC's data processing and validation procedures.
#
#######################################################################

data_GUMLOR
_chemical_formula_moiety         'C26 H32 Br1 Cl1 O3'
_chemical_name_systematic        
'2-isopropyl-5-methylcyclohexyl (5-bromo-2-chlorophenyl)(4-ethoxyphenyl)acetate'
_symmetry_cell_setting           orthorhombic
_symmetry_space_group_name_H-M   'P 21 21 21'
_symmetry_Int_Tables_number      19
_space_group_name_Hall           'P 2ac 2ab'
loop_
_symmetry_equiv_pos_site_id
_symmetry_equiv_pos_as_xyz
1 x,y,z
2 1/2-x,-y,1/2+z
3 -x,1/2+y,1/2-z
4 1/2+x,1/2-y,-z
_cell_length_a                   6.7415(12)
_cell_length_b                   14.4478(19)
_cell_length_c                   24.729(3)
_cell_angle_alpha                90
_cell_angle_beta                 90
_cell_angle_gamma                90
_cell_volume                     2408.6
_exptl_crystal_colour            colorless
_exptl_crystal_description       Prism
_cell_formula_units_Z            4
loop_
_atom_site_label
_atom_site_type_symbol
_atom_site_fract_x
_atom_site_fract_y
_atom_site_fract_z
Br1 Br 0.80300(4) 0.554643(19) 1.124243(10)
Cl1 Cl 0.89993(10) 0.73661(4) 0.89140(3)
O1 O 0.5854(2) 0.55365(12) 0.82986(6)
O2 O 0.4394(2) 0.58094(11) 0.91041(6)
O3 O 0.8902(2) 0.14885(11) 0.94350(7)
C1 C 0.4003(4) 0.57780(16) 0.80196(9)
H1 H 0.3296 0.6269 0.8230
C2 C 0.2703(3) 0.49373(16) 0.79804(10)
H2 H 0.2379 0.4715 0.8349
H3 H 0.3428 0.4438 0.7790
C3 C 0.0766(4) 0.51542(17) 0.76729(10)
H4 H 0.0029 0.5633 0.7884
C4 C 0.1264(3) 0.55689(18) 0.71236(9)
H5 H 0.0022 0.5757 0.6941
H6 H 0.1915 0.5092 0.6897
C5 C 0.2631(3) 0.64080(16) 0.71714(10)
H7 H 0.1941 0.6905 0.7373
H8 H 0.2944 0.6645 0.6805
C6 C 0.4570(3) 0.61595(16) 0.74650(10)
H9 H 0.5193 0.5640 0.7259
C7 C 0.6106(3) 0.69475(16) 0.74887(9)
H10 H 0.7313 0.6693 0.7671
C8 C 0.5396(4) 0.77733(16) 0.78300(10)
H11 H 0.4987 0.7554 0.8188
H12 H 0.4269 0.8071 0.7650
H13 H 0.6480 0.8220 0.7869
C9 C 0.6746(4) 0.72589(16) 0.69189(9)
H14 H 0.5669 0.7612 0.6750
H15 H 0.7046 0.6714 0.6698
H16 H 0.7930 0.7650 0.6946
C10 C -0.0567(3) 0.43037(17) 0.76268(10)
H17 H -0.0837 0.4057 0.7989
H18 H 0.0099 0.3830 0.7409
H19 H -0.1820 0.4478 0.7453
C11 C 0.5822(3) 0.55929(16) 0.88381(9)
C12 C 0.7849(4) 0.53434(14) 0.90774(9)
H20 H 0.8877 0.5519 0.8805
C13 C 0.8215(3) 0.59260(15) 0.95808(9)
C14 C 0.8735(3) 0.68450(17) 0.95466(10)
C15 C 0.9025(3) 0.74003(17) 0.99998(10)
H21 H 0.9375 0.8034 0.9961
C16 C 0.8794(3) 0.70122(17) 1.05093(10)
H22 H 0.8984 0.7375 1.0825
C17 C 0.8289(4) 0.61009(16) 1.05486(9)
C18 C 0.7984(3) 0.55463(17) 1.00956(8)
H23 H 0.7621 0.4915 1.0137
C19 C 0.8031(4) 0.43027(15) 0.91722(8)
C20 C 0.6397(4) 0.37188(17) 0.92089(10)
H24 H 0.5100 0.3970 0.9176
C21 C 0.6628(4) 0.27728(16) 0.92926(10)
H25 H 0.5497 0.2382 0.9313
C22 C 0.8513(4) 0.24033(16) 0.93466(9)
C23 C 1.0134(4) 0.29807(16) 0.93189(10)
H26 H 1.1429 0.2731 0.9361
C24 C 0.9900(4) 0.39175(16) 0.92303(10)
H27 H 1.1038 0.4304 0.9209
C25 C 0.7278(3) 0.08499(14) 0.94141(10)
H28 H 0.6647 0.0866 0.9053
H29 H 0.6269 0.1014 0.9689
C26 C 0.8110(4) -0.01013(15) 0.95264(11)
H30 H 0.8694 -0.0113 0.9889
H31 H 0.9132 -0.0248 0.9258
H32 H 0.7042 -0.0560 0.9505
loop_
_geom_bond_atom_site_label_1
_geom_bond_atom_site_label_2
_geom_bond_site_symmetry_1
_geom_bond_site_symmetry_2
Br1 C17 1_555 1_555
Cl1 C14 1_555 1_555
O1 C1 1_555 1_555
O2 C11 1_555 1_555
O3 C22 1_555 1_555
C1 H1 1_555 1_555
C2 C1 1_555 1_555
H2 C2 1_555 1_555
H3 C2 1_555 1_555
C3 C2 1_555 1_555
H4 C3 1_555 1_555
C4 C3 1_555 1_555
H5 C4 1_555 1_555
H6 C4 1_555 1_555
C5 C4 1_555 1_555
H7 C5 1_555 1_555
H8 C5 1_555 1_555
C6 C1 1_555 1_555
H9 C6 1_555 1_555
C7 C6 1_555 1_555
H10 C7 1_555 1_555
C8 C7 1_555 1_555
H11 C8 1_555 1_555
H12 C8 1_555 1_555
H13 C8 1_555 1_555
C9 C7 1_555 1_555
H14 C9 1_555 1_555
H15 C9 1_555 1_555
H16 C9 1_555 1_555
C10 C3 1_555 1_555
H17 C10 1_555 1_555
H18 C10 1_555 1_555
H19 C10 1_555 1_555
C11 O1 1_555 1_555
C12 C11 1_555 1_555
H20 C12 1_555 1_555
C13 C12 1_555 1_555
C14 C13 1_555 1_555
C15 C14 1_555 1_555
H21 C15 1_555 1_555
C16 C15 1_555 1_555
H22 C16 1_555 1_555
C17 C16 1_555 1_555
C18 C13 1_555 1_555
H23 C18 1_555 1_555
C19 C12 1_555 1_555
C20 C19 1_555 1_555
H24 C20 1_555 1_555
C21 C20 1_555 1_555
H25 C21 1_555 1_555
C22 C21 1_555 1_555
C23 C22 1_555 1_555
H26 C23 1_555 1_555
C24 C19 1_555 1_555
H27 C24 1_555 1_555
C25 O3 1_555 1_555
H28 C25 1_555 1_555
H29 C25 1_555 1_555
C26 C25 1_555 1_555
H30 C26 1_555 1_555
H31 C26 1_555 1_555
H32 C26 1_555 1_555
C5 C6 1_555 1_555
C17 C18 1_555 1_555
C23 C24 1_555 1_555

#END
