
#######################################################################
#
#                 Cambridge Crystallographic Data Centre
#                                CCDC 
#
#######################################################################
#
# If this CIF has been generated from an entry in the Cambridge 
# Structural Database, then it will include bibliographic, chemical, 
# crystal, experimental, refinement or atomic coordinate data resulting 
# from the CCDC's data processing and validation procedures.
#
#######################################################################

data_GUMNIN
_chemical_name_common            
5,11,17,23-tetra-t-butyl-25-(2-(4-[(2-carbamoylhydrazinylidene)methyl]-2-methoxyphenoxy)ethanolate)-26,27,28-TRIhydroxycalix(4)arene
_chemical_formula_moiety         'C55 H69 N3 O7'
_chemical_name_systematic        
2-(3-methoxy-4-(2-((5,11,17,23-tetra-t-butyl-26,27,28-trihydroxypentacyclo[19.3.1.1^3,7^.1^9,13^.1^15,19^]octacosa-1(25),3(28),4,6,9(27),10,12,15(26),16,18,21,23-dodecaen-25-yl)oxy)ethoxy)benzylidene)hydrazinecarboxamide
_symmetry_cell_setting           triclinic
_symmetry_space_group_name_H-M   'P -1'
_symmetry_Int_Tables_number      2
_space_group_name_Hall           '-P 1'
loop_
_symmetry_equiv_pos_site_id
_symmetry_equiv_pos_as_xyz
1 x,y,z
2 -x,-y,-z
_cell_length_a                   12.6844(5)
_cell_length_b                   15.139(6)
_cell_length_c                   17.8544(7)
_cell_angle_alpha                105.5050(7)
_cell_angle_beta                 107.9920(5)
_cell_angle_gamma                103.9160(7)
_cell_volume                     2940.53
_cell_formula_units_Z            2
loop_
_atom_site_label
_atom_site_type_symbol
_atom_site_fract_x
_atom_site_fract_y
_atom_site_fract_z
C1 C 1.0445(8) 0.6190(7) 0.2485(9)
H1 H 1.1128 0.6488 0.3022
H2 H 1.0686 0.6349 0.2058
C2 C 0.9966(6) 0.5055(6) 0.2232(8)
C3 C 0.9591(8) 0.4568(6) 0.1317(7)
H3 H 0.9647 0.4895 0.0950
C4 C 0.9127(10) 0.3522(8) 0.1057(11)
C5 C 0.9138(9) 0.3079(7) 0.1587(10)
H4 H 0.8913 0.2401 0.1376
C6 C 0.9465(6) 0.3557(6) 0.2457(8)
C7 C 0.9889(6) 0.4574(6) 0.2725(8)
C8 C 0.780(2) 0.3462(18) -0.0355(18)
H5 H 0.7294 0.3030 -0.0929
H6 H 0.8222 0.4082 -0.0350
H7 H 0.7322 0.3555 -0.0034
C9 C 0.9846(16) 0.3114(17) -0.0088(14)
H8 H 1.0312 0.2857 0.0271
H9 H 1.0281 0.3792 0.0057
H10 H 0.9672 0.2753 -0.0669
C10 C 0.815(2) 0.1931(12) -0.0203(15)
H11 H 0.8692 0.1724 0.0159
H12 H 0.8023 0.1604 -0.0782
H13 H 0.7413 0.1768 -0.0141
C11 C 0.8669(13) 0.3018(10) 0.0037(11)
C12 C 0.9323(8) 0.3004(6) 0.2996(8)
H14 H 0.9393 0.2374 0.2764
H15 H 0.9955 0.3355 0.3556
C13 C 0.8188(7) 0.2846(6) 0.3071(6)
C14 C 0.7196(9) 0.2004(6) 0.2475(8)
H16 H 0.7296 0.1553 0.2057
C15 C 0.6112(9) 0.1838(8) 0.2496(9)
C16 C 0.5958(7) 0.2503(6) 0.3136(7)
H17 H 0.5227 0.2384 0.3176
C17 C 0.6937(7) 0.3355(6) 0.3720(7)
C18 C 0.8000(7) 0.3493(6) 0.3695(7)
C19 C 0.4112(18) 0.0720(16) 0.2095(16)
H18 H 0.3578 0.1037 0.1888
H19 H 0.4402 0.0946 0.2702
H20 H 0.3703 0.0024 0.1859
C20 C 0.5358(19) 0.0064(12) 0.2020(16)
H21 H 0.4669 -0.0388 0.2006
H22 H 0.5993 0.0289 0.2567
H23 H 0.5592 -0.0258 0.1591
C21 C 0.4782(19) 0.0843(15) 0.1027(15)
H24 H 0.3940 0.0533 0.0720
H25 H 0.5171 0.0448 0.0786
H26 H 0.5032 0.1477 0.0994
C22 C 0.5071(11) 0.0944(10) 0.1854(12)
C23 C 0.6730(7) 0.4078(6) 0.4373(6)
H27 H 0.6090 0.3731 0.4492
H28 H 0.7438 0.4378 0.4894
C24 C 0.6427(7) 0.4858(6) 0.4091(6)
C25 C 0.5270(7) 0.4719(6) 0.3576(7)
H29 H 0.4679 0.4126 0.3426
C26 C 0.4954(7) 0.5405(7) 0.3281(7)
C27 C 0.5841(6) 0.6221(6) 0.3461(6)
H30 H 0.5648 0.6687 0.3251
C28 C 0.7033(7) 0.6427(6) 0.3938(6)
C29 C 0.7290(6) 0.5714(5) 0.4206(6)
C30 C 0.3658(8) 0.5255(9) 0.2801(10)
C31 C 0.3478(13) 0.5938(14) 0.2375(14)
H31 H 0.4079 0.6081 0.2160
H32 H 0.3526 0.6533 0.2771
H33 H 0.2712 0.5650 0.1915
C32 C 0.3221(11) 0.5638(14) 0.3512(12)
H34 H 0.2473 0.5708 0.3264
H35 H 0.3791 0.6261 0.3919
H36 H 0.3130 0.5179 0.3790
C33 C 0.2962(13) 0.4284(11) 0.2248(13)
H37 H 0.2220 0.4267 0.1875
H38 H 0.2820 0.3888 0.2571
H39 H 0.3371 0.4033 0.1919
C34 C 0.7980(7) 0.7301(6) 0.4065(7)
H40 H 0.8672 0.7443 0.4568
H41 H 0.7719 0.7858 0.4151
C35 C 0.8312(8) 0.7140(6) 0.3287(7)
C36 C 0.9287(7) 0.6856(5) 0.3253(8)
C37 C 0.9479(7) 0.6576(6) 0.2560(7)
C38 C 0.8730(9) 0.6659(7) 0.1836(8)
H42 H 0.8856 0.6481 0.1339
C39 C 0.7819(11) 0.6995(9) 0.1841(12)
C40 C 0.7638(8) 0.7251(7) 0.2569(9)
H43 H 0.7045 0.7508 0.2585
C41 C 0.7001(14) 0.7079(12) 0.1051(13)
C42 C 0.632(2) 0.7726(16) 0.1054(16)
H44 H 0.6079 0.7801 0.0516
H45 H 0.6806 0.8355 0.1495
H46 H 0.5637 0.7452 0.1153
C43 C 0.791(2) 0.7813(19) 0.0879(18)
H47 H 0.8203 0.7457 0.0513
H48 H 0.8551 0.8247 0.1405
H49 H 0.7519 0.8188 0.0612
C44 C 0.662(2) 0.6300(17) 0.0329(16)
H50 H 0.6851 0.6510 -0.0078
H51 H 0.5777 0.6006 0.0106
H52 H 0.6975 0.5831 0.0446
C45 C 1.0710(7) 0.7616(7) 0.4726(7)
H53 H 1.0554 0.7527 0.5205
H54 H 1.0485 0.8161 0.4637
C46 C 1.1964(9) 0.7849(8) 0.4920(12)
H55 H 1.2414 0.8390 0.5461
H56 H 1.2180 0.7288 0.4969
C47 C 1.2069(15) 0.8858(11) 0.2869(17)
H57 H 1.1905 0.9026 0.3368
H58 H 1.1338 0.8511 0.2378
H59 H 1.2490 0.9445 0.2822
C48 C 1.3585(10) 0.8514(7) 0.3721(11)
C49 C 1.3363(9) 0.8393(7) 0.4401(10)
C50 C 1.4310(8) 0.8511(7) 0.5129(7)
H60 H 1.4178 0.8352 0.5569
C51 C 1.5429(9) 0.8867(8) 0.5169(11)
H61 H 1.6059 0.9041 0.5683
C52 C 1.5677(9) 0.8979(8) 0.4538(11)
C53 C 1.4750(10) 0.8845(7) 0.3774(11)
H62 H 1.4909 0.8971 0.3330
C54 C 1.6933(10) 0.9361(7) 0.4647(11)
H63 H 1.7512 0.9466 0.5164
C55 C 1.8995(10) 1.0063(8) 0.3831(11)
N1 N 1.7283(8) 0.9556(7) 0.4103(9)
N2 N 1.8472(6) 0.9854(5) 0.4379(7)
H64 H 1.8901 0.9915 0.4881
N3 N 1.8365(9) 1.0168(8) 0.3157(9)
H65 H 1.8707 1.0442 0.2887
H66 H 1.7606 0.9965 0.2979
O1 O 1.0270(5) 0.5052(4) 0.3578(5)
H67 H 1.0509 0.4710 0.3827
O2 O 0.8921(5) 0.4285(4) 0.4308(5)
H68 H 0.9349 0.4529 0.4099
O3 O 0.8447(5) 0.5939(4) 0.4741(5)
H69 H 0.8779 0.5666 0.4477
O4 O 1.0010(5) 0.6753(4) 0.3991(5)
O5 O 1.2244(5) 0.8095(5) 0.4308(6)
O6 O 1.2719(7) 0.8301(6) 0.2921(7)
O7 O 2.0088(6) 1.0330(6) 0.4137(8)
loop_
_geom_bond_atom_site_label_1
_geom_bond_atom_site_label_2
_geom_bond_site_symmetry_1
_geom_bond_site_symmetry_2
C1 H1 1_555 1_555
H2 C1 1_555 1_555
C2 C1 1_555 1_555
C3 C2 1_555 1_555
H3 C3 1_555 1_555
C4 C3 1_555 1_555
C5 C4 1_555 1_555
H4 C5 1_555 1_555
C6 C5 1_555 1_555
C7 C2 1_555 1_555
C8 H5 1_555 1_555
H6 C8 1_555 1_555
H7 C8 1_555 1_555
C9 H8 1_555 1_555
H9 C9 1_555 1_555
H10 C9 1_555 1_555
C10 H11 1_555 1_555
H12 C10 1_555 1_555
H13 C10 1_555 1_555
C11 C4 1_555 1_555
C12 C6 1_555 1_555
H14 C12 1_555 1_555
H15 C12 1_555 1_555
C13 C12 1_555 1_555
C14 C13 1_555 1_555
H16 C14 1_555 1_555
C15 C14 1_555 1_555
C16 C15 1_555 1_555
H17 C16 1_555 1_555
C17 C16 1_555 1_555
C18 C13 1_555 1_555
C19 H18 1_555 1_555
H19 C19 1_555 1_555
H20 C19 1_555 1_555
C20 H21 1_555 1_555
H22 C20 1_555 1_555
H23 C20 1_555 1_555
C21 H24 1_555 1_555
H25 C21 1_555 1_555
H26 C21 1_555 1_555
C22 C15 1_555 1_555
C23 C17 1_555 1_555
H27 C23 1_555 1_555
H28 C23 1_555 1_555
C24 C23 1_555 1_555
C25 C24 1_555 1_555
H29 C25 1_555 1_555
C26 C25 1_555 1_555
C27 C26 1_555 1_555
H30 C27 1_555 1_555
C28 C27 1_555 1_555
C29 C24 1_555 1_555
C30 C26 1_555 1_555
C31 C30 1_555 1_555
H31 C31 1_555 1_555
H32 C31 1_555 1_555
H33 C31 1_555 1_555
C32 C30 1_555 1_555
H34 C32 1_555 1_555
H35 C32 1_555 1_555
H36 C32 1_555 1_555
C33 C30 1_555 1_555
H37 C33 1_555 1_555
H38 C33 1_555 1_555
H39 C33 1_555 1_555
C34 C28 1_555 1_555
H40 C34 1_555 1_555
H41 C34 1_555 1_555
C35 C34 1_555 1_555
C36 C35 1_555 1_555
C37 C1 1_555 1_555
C38 C37 1_555 1_555
H42 C38 1_555 1_555
C39 C38 1_555 1_555
C40 C35 1_555 1_555
H43 C40 1_555 1_555
C41 C39 1_555 1_555
C42 C41 1_555 1_555
H44 C42 1_555 1_555
H45 C42 1_555 1_555
H46 C42 1_555 1_555
C43 C41 1_555 1_555
H47 C43 1_555 1_555
H48 C43 1_555 1_555
H49 C43 1_555 1_555
C44 C41 1_555 1_555
H50 C44 1_555 1_555
H51 C44 1_555 1_555
H52 C44 1_555 1_555
C45 H53 1_555 1_555
H54 C45 1_555 1_555
C46 C45 1_555 1_555
H55 C46 1_555 1_555
H56 C46 1_555 1_555
C47 H57 1_555 1_555
H58 C47 1_555 1_555
H59 C47 1_555 1_555
C48 C49 1_555 1_555
C49 C50 1_555 1_555
C50 H60 1_555 1_555
C51 C50 1_555 1_555
H61 C51 1_555 1_555
C52 C51 1_555 1_555
C53 C48 1_555 1_555
H62 C53 1_555 1_555
C54 C52 1_555 1_555
H63 C54 1_555 1_555
C55 N2 1_555 1_555
N1 C54 1_555 1_555
N2 N1 1_555 1_555
H64 N2 1_555 1_555
N3 C55 1_555 1_555
H65 N3 1_555 1_555
H66 N3 1_555 1_555
O1 C7 1_555 1_555
H67 O1 1_555 1_555
O2 C18 1_555 1_555
H68 O2 1_555 1_555
O3 C29 1_555 1_555
H69 O3 1_555 1_555
O4 C36 1_555 1_555
O5 C46 1_555 1_555
O6 C47 1_555 1_555
O7 C55 1_555 1_555
C6 C7 1_555 1_555
C8 C11 1_555 1_555
C9 C11 1_555 1_555
C10 C11 1_555 1_555
C17 C18 1_555 1_555
C19 C22 1_555 1_555
C20 C22 1_555 1_555
C21 C22 1_555 1_555
C28 C29 1_555 1_555
C36 C37 1_555 1_555
C39 C40 1_555 1_555
C45 O4 1_555 1_555
C48 O6 1_555 1_555
C49 O5 1_555 1_555
C52 C53 1_555 1_555

#END
