
#######################################################################
#
#                 Cambridge Crystallographic Data Centre
#                                CCDC 
#
#######################################################################
#
# If this CIF has been generated from an entry in the Cambridge 
# Structural Database, then it will include bibliographic, chemical, 
# crystal, experimental, refinement or atomic coordinate data resulting 
# from the CCDC's data processing and validation procedures.
#
#######################################################################

data_GUMROW
_chemical_formula_moiety         'C23 H24 N2 O2 S1'
_chemical_name_systematic        
4-(p-Tosyl)-1,2,3,3a,4,5,5a,6,10b,10c-decahydronaphtho[3,2,1-cd]indole-9-carbonitrile
_symmetry_cell_setting           monoclinic
_symmetry_space_group_name_H-M   'P 21/n'
_symmetry_Int_Tables_number      14
_space_group_name_Hall           '-P 2yn'
loop_
_symmetry_equiv_pos_site_id
_symmetry_equiv_pos_as_xyz
1 x,y,z
2 1/2-x,1/2+y,1/2-z
3 -x,-y,-z
4 1/2+x,1/2-y,1/2+z
_cell_length_a                   10.7662(13)
_cell_length_b                   10.4523(13)
_cell_length_c                   18.614(2)
_cell_angle_alpha                90
_cell_angle_beta                 105.079(2)
_cell_angle_gamma                90
_cell_volume                     2022.54
_exptl_crystal_colour            colorless
_chemical_melting_point          '191-192 deg.C'
_cell_formula_units_Z            4
loop_
_atom_site_label
_atom_site_type_symbol
_atom_site_fract_x
_atom_site_fract_y
_atom_site_fract_z
S1 S 0.18564(9) -0.00487(9) 0.20453(5)
C1 C 0.2411(3) 0.2828(3) 0.09998(17)
H1 H 0.1697 0.3172 0.1177
C2 C 0.1292(3) 0.0892(4) 0.06498(19)
H2 H 0.0446 0.1085 0.0713
H3 H 0.1237 0.0135 0.0342
C3 C 0.1387(4) 0.4114(4) -0.0372(2)
C4 C 0.3178(3) 0.3947(3) 0.08435(18)
H4 H 0.3283 0.4537 0.1264
C5 C 0.2417(4) 0.4658(3) 0.01535(19)
C6 C 0.3106(3) 0.1854(3) 0.15680(19)
H5 H 0.3138 0.2154 0.2071
C7 C 0.1829(3) 0.2012(3) 0.03160(19)
H6 H 0.2520 0.1708 0.0106
C8 C 0.0793(3) 0.0898(3) 0.2398(2)
C9 C 0.0883(3) 0.2803(4) -0.02706(19)
H7 H 0.0696 0.2351 -0.0742
H8 H 0.0084 0.2888 -0.0126
C10 C 0.4528(3) 0.3566(4) 0.0803(2)
H9 H 0.4472 0.3067 0.0357
H10 H 0.5027 0.4329 0.0777
C11 C 0.2751(4) 0.5918(4) 0.0066(2)
H11 H 0.3430 0.6284 0.0421
C12 C -0.0510(4) 0.0631(3) 0.2200(2)
H12 H -0.0833 -0.0008 0.1854
C13 C 0.1254(4) 0.1861(3) 0.2897(2)
H13 H 0.2129 0.2045 0.3037
C14 C 0.5194(3) 0.2788(4) 0.1481(2)
H14 H 0.5242 0.3284 0.1928
H15 H 0.6064 0.2588 0.1460
C15 C 0.0761(4) 0.4845(5) -0.0991(2)
H16 H 0.0092 0.4481 -0.1353
C16 C 0.4457(3) 0.1550(4) 0.1510(2)
H17 H 0.4412 0.1052 0.1064
H18 H 0.4906 0.1047 0.1936
C17 C 0.0410(4) 0.2557(4) 0.3193(2)
H19 H 0.0726 0.3228 0.3517
C18 C 0.2098(4) 0.6650(4) -0.0538(2)
C19 C -0.1334(4) 0.1314(4) 0.2517(2)
H20 H -0.2206 0.1115 0.2388
C20 C -0.0885(4) 0.2282(4) 0.3020(2)
C21 C 0.2424(4) 0.7975(5) -0.0561(2)
C22 C 0.1114(4) 0.6089(5) -0.1077(2)
H21 H 0.0693 0.6552 -0.1496
C23 C -0.1784(4) 0.3012(5) 0.3372(3)
H22 H -0.1292 0.3559 0.3756
H23 H -0.2272 0.2420 0.3584
H24 H -0.2359 0.3520 0.3001
O1 O 0.1156(2) -0.1165(2) 0.17193(13)
O2 O 0.3008(2) -0.0188(2) 0.26368(12)
N1 N 0.2705(4) 0.9027(4) -0.0554(2)
N2 N 0.2255(3) 0.0713(3) 0.13876(15)
loop_
_geom_bond_atom_site_label_1
_geom_bond_atom_site_label_2
_geom_bond_site_symmetry_1
_geom_bond_site_symmetry_2
S1 C8 1_555 1_555
C1 H1 1_555 1_555
C2 H2 1_555 1_555
H3 C2 1_555 1_555
C3 C5 1_555 1_555
C4 C1 1_555 1_555
H4 C4 1_555 1_555
C5 C4 1_555 1_555
C6 C1 1_555 1_555
H5 C6 1_555 1_555
C7 C1 1_555 1_555
H6 C7 1_555 1_555
C8 C12 1_555 1_555
C9 C3 1_555 1_555
H7 C9 1_555 1_555
H8 C9 1_555 1_555
C10 C4 1_555 1_555
H9 C10 1_555 1_555
H10 C10 1_555 1_555
C11 C5 1_555 1_555
H11 C11 1_555 1_555
C12 H12 1_555 1_555
C13 C8 1_555 1_555
H13 C13 1_555 1_555
C14 C10 1_555 1_555
H14 C14 1_555 1_555
H15 C14 1_555 1_555
C15 C3 1_555 1_555
H16 C15 1_555 1_555
C16 C6 1_555 1_555
H17 C16 1_555 1_555
H18 C16 1_555 1_555
C17 C13 1_555 1_555
H19 C17 1_555 1_555
C18 C11 1_555 1_555
C19 C12 1_555 1_555
H20 C19 1_555 1_555
C20 C17 1_555 1_555
C21 C18 1_555 1_555
C22 C15 1_555 1_555
H21 C22 1_555 1_555
C23 C20 1_555 1_555
H22 C23 1_555 1_555
H23 C23 1_555 1_555
H24 C23 1_555 1_555
O1 S1 1_555 1_555
O2 S1 1_555 1_555
N1 C21 1_555 1_555
N2 S1 1_555 1_555
C2 C7 1_555 1_555
C2 N2 1_555 1_555
C6 N2 1_555 1_555
C7 C9 1_555 1_555
C14 C16 1_555 1_555
C18 C22 1_555 1_555
C19 C20 1_555 1_555

#END
