
#######################################################################
#
#                 Cambridge Crystallographic Data Centre
#                                CCDC 
#
#######################################################################
#
# If this CIF has been generated from an entry in the Cambridge 
# Structural Database, then it will include bibliographic, chemical, 
# crystal, experimental, refinement or atomic coordinate data resulting 
# from the CCDC's data processing and validation procedures.
#
#######################################################################

data_GUMSAJ
_chemical_formula_moiety         'C23 H22 N2 O1'
_chemical_name_systematic        
4-Benzyl-5-oxo-1,2,3,3a,4,5,5a,6,10b,10c-decahydronaphtho[3,2,1-cd]indole-9-carbonitrile
_symmetry_cell_setting           triclinic
_symmetry_space_group_name_H-M   'P -1'
_symmetry_Int_Tables_number      2
_space_group_name_Hall           '-P 1'
loop_
_symmetry_equiv_pos_site_id
_symmetry_equiv_pos_as_xyz
1 x,y,z
2 -x,-y,-z
_cell_length_a                   6.5200(13)
_cell_length_b                   9.898(2)
_cell_length_c                   14.700(3)
_cell_angle_alpha                75.52(3)
_cell_angle_beta                 85.29(3)
_cell_angle_gamma                88.87(3)
_cell_volume                     915.427
_chemical_melting_point          '214-215 deg.C'
_cell_formula_units_Z            2
loop_
_atom_site_label
_atom_site_type_symbol
_atom_site_fract_x
_atom_site_fract_y
_atom_site_fract_z
O1 O 1.0389(3) 0.6486(2) 0.31330(15)
N1 N 0.7458(4) 0.6817(2) 0.23473(16)
N2 N 0.0659(4) -0.0971(3) 0.65185(18)
C1 C 1.1208(9) 0.7351(6) -0.0292(4)
H1 H 1.2403 0.6853 -0.0378
C2 C 1.0477(7) 0.7414(5) 0.0595(3)
H2 H 1.1187 0.6956 0.1108
C3 C 0.8737(5) 0.8131(3) 0.0744(2)
C4 C 0.7743(6) 0.8783(4) -0.0019(3)
H3 H 0.6541 0.9277 0.0060
C5 C 0.8520(9) 0.8717(5) -0.0941(3)
H4 H 0.7847 0.9172 -0.1466
C6 C 1.0211(11) 0.8001(6) -0.1034(3)
H5 H 1.0724 0.7946 -0.1633
C7 C 0.7974(5) 0.8177(3) 0.1727(2)
H6 H 0.9023 0.8602 0.1997
H7 H 0.6763 0.8767 0.1698
C8 C 0.8701(5) 0.6088(3) 0.2989(2)
C9 C 0.7648(4) 0.4721(3) 0.34602(18)
H8 H 0.8087 0.4040 0.3101
C10 C 0.5413(4) 0.5079(3) 0.33021(18)
H9 H 0.4916 0.5613 0.3754
C11 C 0.4064(4) 0.3792(3) 0.34848(18)
H10 H 0.2632 0.4097 0.3552
C12 C 0.4258(5) 0.3103(3) 0.26647(19)
H11 H 0.3241 0.2366 0.2770
H12 H 0.5611 0.2687 0.2625
C13 C 0.3937(5) 0.4177(3) 0.1741(2)
H13 H 0.2583 0.4591 0.1781
H14 H 0.4008 0.3718 0.1229
C14 C 0.5580(5) 0.5321(3) 0.1539(2)
H15 H 0.6929 0.4907 0.1476
H16 H 0.5360 0.5985 0.0947
C15 C 0.5522(4) 0.6083(3) 0.2319(2)
H17 H 0.4362 0.6735 0.2268
C16 C 0.7901(4) 0.4068(3) 0.44815(18)
H18 H 0.7751 0.4778 0.4833
H19 H 0.9270 0.3674 0.4549
C17 C 0.6314(4) 0.2932(3) 0.48795(18)
C18 C 0.6605(4) 0.1994(3) 0.57374(19)
H20 H 0.7799 0.2054 0.6030
C19 C 0.5181(4) 0.0982(3) 0.61643(19)
H21 H 0.5405 0.0370 0.6740
C20 C 0.3401(4) 0.0885(3) 0.57246(19)
C21 C 0.3108(4) 0.1785(3) 0.48647(18)
H22 H 0.1924 0.1701 0.4571
C22 C 0.4534(4) 0.2815(3) 0.44245(17)
C23 C 0.1870(5) -0.0155(3) 0.6163(2)
loop_
_geom_bond_atom_site_label_1
_geom_bond_atom_site_label_2
_geom_bond_site_symmetry_1
_geom_bond_site_symmetry_2
O1 C8 1_555 1_555
N1 C7 1_555 1_555
N2 C23 1_555 1_555
C1 H1 1_555 1_555
C2 C1 1_555 1_555
H2 C2 1_555 1_555
C3 C2 1_555 1_555
C4 C3 1_555 1_555
H3 C4 1_555 1_555
C5 C4 1_555 1_555
H4 C5 1_555 1_555
C6 C1 1_555 1_555
H5 C6 1_555 1_555
C7 C3 1_555 1_555
H6 C7 1_555 1_555
H7 C7 1_555 1_555
C8 N1 1_555 1_555
C9 C8 1_555 1_555
H8 C9 1_555 1_555
C10 C9 1_555 1_555
H9 C10 1_555 1_555
C11 C10 1_555 1_555
H10 C11 1_555 1_555
C12 C11 1_555 1_555
H11 C12 1_555 1_555
H12 C12 1_555 1_555
C13 C12 1_555 1_555
H13 C13 1_555 1_555
H14 C13 1_555 1_555
C14 C13 1_555 1_555
H15 C14 1_555 1_555
H16 C14 1_555 1_555
C15 N1 1_555 1_555
H17 C15 1_555 1_555
C16 C9 1_555 1_555
H18 C16 1_555 1_555
H19 C16 1_555 1_555
C17 C16 1_555 1_555
C18 C17 1_555 1_555
H20 C18 1_555 1_555
C19 C18 1_555 1_555
H21 C19 1_555 1_555
C20 C19 1_555 1_555
C21 C20 1_555 1_555
H22 C21 1_555 1_555
C22 C11 1_555 1_555
C23 C20 1_555 1_555
C5 C6 1_555 1_555
C10 C15 1_555 1_555
C14 C15 1_555 1_555
C17 C22 1_555 1_555
C21 C22 1_555 1_555

#END
