
#######################################################################
#
#                 Cambridge Crystallographic Data Centre
#                                CCDC 
#
#######################################################################
#
# If this CIF has been generated from an entry in the Cambridge 
# Structural Database, then it will include bibliographic, chemical, 
# crystal, experimental, refinement or atomic coordinate data resulting 
# from the CCDC's data processing and validation procedures.
#
#######################################################################

data_GUMSIS
_chemical_formula_moiety         'C38 H28 N2 O3 P2,0.5(H2 O1)'
_chemical_name_systematic        
'2,5-bis(4-(diphenylphosphoryl)phenyl)-1,3,4-oxadiazole hemihydrate'
_symmetry_cell_setting           triclinic
_symmetry_space_group_name_H-M   'P -1'
_symmetry_Int_Tables_number      2
_space_group_name_Hall           '-P 1'
loop_
_symmetry_equiv_pos_site_id
_symmetry_equiv_pos_as_xyz
1 x,y,z
2 -x,-y,-z
_cell_length_a                   8.6042(19)
_cell_length_b                   12.291(3)
_cell_length_c                   16.260(4)
_cell_angle_alpha                110.945(4)
_cell_angle_beta                 91.262(2)
_cell_angle_gamma                94.507(3)
_cell_volume                     1598.65
_exptl_crystal_colour            colorless
_exptl_crystal_description       block
_cell_formula_units_Z            2
loop_
_atom_site_label
_atom_site_type_symbol
_atom_site_fract_x
_atom_site_fract_y
_atom_site_fract_z
P1 P 0.33258(4) 0.64239(3) 0.21287(2)
P2 P 0.97144(5) -0.24650(3) -0.37485(2)
O1 O 0.44629(13) 0.72297(10) 0.18996(8)
O2 O 0.52621(13) 0.12136(9) -0.07269(7)
O3 O 0.89218(14) -0.32684(10) -0.45909(7)
N1 N 0.30285(17) 0.04968(13) -0.04042(10)
N2 N 0.37319(17) -0.04210(13) -0.10247(10)
C1 C 0.36938(17) 0.64252(13) 0.32228(10)
C2 C 0.5077(2) 0.70003(16) 0.36761(11)
H1 H 0.5757 0.7405 0.3426
C3 C 0.5449(2) 0.6974(2) 0.45039(13)
H2 H 0.6376 0.7365 0.4809
C4 C 0.4449(3) 0.63691(18) 0.48729(12)
H3 H 0.4699 0.6356 0.5429
C5 C 0.3080(3) 0.57829(19) 0.44218(13)
H4 H 0.2414 0.5365 0.4669
C6 C 0.2698(2) 0.58161(17) 0.36014(12)
H5 H 0.1766 0.5427 0.3301
C7 C 0.13250(18) 0.67264(14) 0.20396(10)
C8 C 0.0610(2) 0.74405(15) 0.27701(11)
H6 H 0.1130 0.7704 0.3323
C9 C -0.0878(2) 0.77622(16) 0.26789(13)
H7 H -0.1344 0.8244 0.3171
C10 C -0.1667(2) 0.73742(17) 0.18662(14)
H8 H -0.2663 0.7590 0.1809
C11 C -0.0970(2) 0.66631(19) 0.11380(14)
H9 H -0.1503 0.6397 0.0588
C12 C 0.0521(2) 0.63401(17) 0.12182(12)
H10 H 0.0984 0.5864 0.0722
C13 C 0.34200(17) 0.49188(13) 0.14087(9)
C14 C 0.47015(18) 0.46662(14) 0.08883(10)
H11 H 0.5442 0.5268 0.0904
C15 C 0.48866(18) 0.35269(14) 0.03467(10)
H12 H 0.5743 0.3367 -0.0002
C16 C 0.37921(18) 0.26277(14) 0.03267(9)
C17 C 0.24972(19) 0.28678(15) 0.08474(10)
H13 H 0.1763 0.2264 0.0836
C18 C 0.23174(18) 0.40078(14) 0.13790(11)
H14 H 0.1452 0.4170 0.1721
C19 C 0.39632(18) 0.14255(14) -0.02548(10)
C20 C 0.50212(18) 0.00446(13) -0.11947(10)
C21 C 0.61764(18) -0.05232(13) -0.18127(10)
C22 C 0.59218(19) -0.17165(14) -0.22924(11)
H15 H 0.5028 -0.2142 -0.2219
C23 C 0.70041(19) -0.22689(14) -0.28797(11)
H16 H 0.6831 -0.3067 -0.3203
C24 C 0.83524(18) -0.16387(13) -0.29909(10)
C25 C 0.8587(2) -0.04472(15) -0.25153(13)
H17 H 0.9478 -0.0020 -0.2590
C26 C 0.7502(2) 0.01126(15) -0.19279(13)
H18 H 0.7665 0.0913 -0.1612
C27 C 1.06815(17) -0.32216(13) -0.31491(10)
C28 C 1.10202(19) -0.43652(14) -0.36192(12)
H19 H 1.0746 -0.4706 -0.4219
C29 C 1.1761(2) -0.49921(17) -0.31955(15)
H20 H 1.1979 -0.5755 -0.3509
C30 C 1.2176(2) -0.44831(19) -0.23071(16)
H21 H 1.2676 -0.4905 -0.2023
C31 C 1.1855(2) -0.33507(19) -0.18361(14)
H22 H 1.2152 -0.3011 -0.1239
C32 C 1.1095(2) -0.27183(15) -0.22493(11)
H23 H 1.0860 -0.1962 -0.1928
C33 C 1.11685(19) -0.14344(13) -0.39146(10)
C34 C 1.2429(2) -0.08724(17) -0.33217(14)
H24 H 1.2532 -0.1001 -0.2794
C35 C 1.3530(2) -0.01229(19) -0.35126(17)
H25 H 1.4361 0.0257 -0.3111
C36 C 1.3387(3) 0.00561(17) -0.42994(15)
H26 H 1.4136 0.0546 -0.4434
C37 C 1.2145(3) -0.0486(2) -0.48854(14)
H27 H 1.2044 -0.0350 -0.5411
C38 C 1.1043(3) -0.12335(18) -0.46967(12)
H28 H 1.0210 -0.1604 -0.5099
O4 O 0.0223(7) -0.0754(5) -0.0193(5)
H29 H 0.1094 -0.0358 -0.0084
H30 H -0.0653 -0.0628 0.0023
loop_
_geom_bond_atom_site_label_1
_geom_bond_atom_site_label_2
_geom_bond_site_symmetry_1
_geom_bond_site_symmetry_2
P1 O1 1_555 1_555
P2 O3 1_555 1_555
O2 C19 1_555 1_555
N1 N2 1_555 1_555
N2 C20 1_555 1_555
C1 P1 1_555 1_555
C2 C1 1_555 1_555
H1 C2 1_555 1_555
C3 C2 1_555 1_555
H2 C3 1_555 1_555
C4 C3 1_555 1_555
H3 C4 1_555 1_555
C5 C4 1_555 1_555
H4 C5 1_555 1_555
C6 C1 1_555 1_555
H5 C6 1_555 1_555
C7 P1 1_555 1_555
C8 C7 1_555 1_555
H6 C8 1_555 1_555
C9 C8 1_555 1_555
H7 C9 1_555 1_555
C10 C9 1_555 1_555
H8 C10 1_555 1_555
C11 C10 1_555 1_555
H9 C11 1_555 1_555
C12 C7 1_555 1_555
H10 C12 1_555 1_555
C13 P1 1_555 1_555
C14 C13 1_555 1_555
H11 C14 1_555 1_555
C15 C14 1_555 1_555
H12 C15 1_555 1_555
C16 C15 1_555 1_555
C17 C16 1_555 1_555
H13 C17 1_555 1_555
C18 C13 1_555 1_555
H14 C18 1_555 1_555
C19 N1 1_555 1_555
C20 O2 1_555 1_555
C21 C20 1_555 1_555
C22 C21 1_555 1_555
H15 C22 1_555 1_555
C23 C22 1_555 1_555
H16 C23 1_555 1_555
C24 P2 1_555 1_555
C25 C24 1_555 1_555
H17 C25 1_555 1_555
C26 C21 1_555 1_555
H18 C26 1_555 1_555
C27 P2 1_555 1_555
C28 C27 1_555 1_555
H19 C28 1_555 1_555
C29 C28 1_555 1_555
H20 C29 1_555 1_555
C30 C29 1_555 1_555
H21 C30 1_555 1_555
C31 C30 1_555 1_555
H22 C31 1_555 1_555
C32 C27 1_555 1_555
H23 C32 1_555 1_555
C33 P2 1_555 1_555
C34 C33 1_555 1_555
H24 C34 1_555 1_555
C35 C34 1_555 1_555
H25 C35 1_555 1_555
C36 C35 1_555 1_555
H26 C36 1_555 1_555
C37 C36 1_555 1_555
H27 C37 1_555 1_555
C38 C33 1_555 1_555
H28 C38 1_555 1_555
O4 H29 1_555 1_555
H30 O4 1_555 1_555
C5 C6 1_555 1_555
C11 C12 1_555 1_555
C16 C19 1_555 1_555
C17 C18 1_555 1_555
C23 C24 1_555 1_555
C25 C26 1_555 1_555
C31 C32 1_555 1_555
C37 C38 1_555 1_555

#END
