
#######################################################################
#
#                 Cambridge Crystallographic Data Centre
#                                CCDC 
#
#######################################################################
#
# If this CIF has been generated from an entry in the Cambridge 
# Structural Database, then it will include bibliographic, chemical, 
# crystal, experimental, refinement or atomic coordinate data resulting 
# from the CCDC's data processing and validation procedures.
#
#######################################################################

data_GUMTUF
_chemical_formula_moiety         'C35 H37 N3 O2 S1'
_chemical_name_systematic        
3',6'-bis(diethylamino)-2-(2-(methylsulfanyl)phenyl)spiro[isoindole-1,9'-xanthen]-3(2H)-one
_symmetry_cell_setting           monoclinic
_symmetry_space_group_name_H-M   'P 21/c'
_symmetry_Int_Tables_number      14
_space_group_name_Hall           '-P 2ybc'
loop_
_symmetry_equiv_pos_site_id
_symmetry_equiv_pos_as_xyz
1 x,y,z
2 -x,1/2+y,1/2-z
3 -x,-y,-z
4 x,1/2-y,1/2+z
_cell_length_a                   8.7284(15)
_cell_length_b                   17.138(3)
_cell_length_c                   20.293(4)
_cell_angle_alpha                90
_cell_angle_beta                 90.986(4)
_cell_angle_gamma                90
_cell_volume                     3035.13
_exptl_crystal_colour            colorless
_exptl_crystal_description       block
_cell_formula_units_Z            4
loop_
_atom_site_label
_atom_site_type_symbol
_atom_site_fract_x
_atom_site_fract_y
_atom_site_fract_z
S1 S 1.25398(19) 0.92559(10) 0.03174(9)
N1 N 0.7900(5) 0.4606(3) 0.1388(2)
N2 N 0.7701(7) 0.9926(3) 0.2415(2)
N3 N 1.0714(4) 0.7779(2) 0.01697(16)
O1 O 0.8548(3) 0.73127(17) 0.18110(13)
O2 O 1.1954(4) 0.7973(2) -0.08120(15)
C1 C 0.6000(8) 0.4009(4) 0.0620(3)
H1 H 0.5253 0.3944 0.0958
H2 H 0.5892 0.3596 0.0303
H3 H 0.5843 0.4502 0.0405
C2 C 0.7577(8) 0.3985(3) 0.0924(3)
H4 H 0.7712 0.3489 0.1148
H5 H 0.8320 0.4009 0.0574
C3 C 0.7681(10) 0.4476(3) 0.2088(3)
H6 H 0.6694 0.4690 0.2207
H7 H 0.8462 0.4764 0.2332
C4 C 0.7743(13) 0.3658(6) 0.2297(5)
H8 H 0.8654 0.3419 0.2133
H9 H 0.6859 0.3387 0.2127
H10 H 0.7755 0.3632 0.2770
C5 C 0.8178(5) 0.5351(3) 0.1158(2)
C6 C 0.8429(5) 0.5493(3) 0.0489(2)
H11 H 0.8398 0.5081 0.0192
C7 C 0.8721(5) 0.6237(3) 0.0266(2)
H12 H 0.8877 0.6311 -0.0182
C8 C 0.8791(5) 0.6881(3) 0.0679(2)
C9 C 0.8551(5) 0.6726(3) 0.1339(2)
C10 C 0.8241(5) 0.5990(3) 0.1583(2)
H13 H 0.8073 0.5921 0.2031
C11 C 0.8494(5) 0.8078(3) 0.1595(2)
C12 C 0.8147(5) 0.8606(3) 0.2079(2)
H14 H 0.7979 0.8434 0.2506
C13 C 0.8046(6) 0.9397(3) 0.1933(2)
C14 C 0.8321(6) 0.9633(3) 0.1280(2)
H15 H 0.8276 1.0158 0.1165
C15 C 0.8657(5) 0.9079(3) 0.0815(2)
H16 H 0.8821 0.9246 0.0386
C16 C 0.8766(5) 0.8281(3) 0.09460(19)
C17 C 0.6894(7) 0.9668(4) 0.3033(3)
H17 H 0.6117 1.0047 0.3147
H18 H 0.6395 0.9170 0.2958
C18 C 0.8002(8) 0.9600(5) 0.3563(3)
H19 H 0.8781 0.9234 0.3443
H20 H 0.7503 0.9420 0.3953
H21 H 0.8460 1.0100 0.3648
C19 C 0.7919(7) 1.0803(4) 0.2314(3)
H22 H 0.8191 1.1057 0.2727
H23 H 0.8718 1.0903 0.1999
C20 C 0.6462(8) 1.1077(4) 0.2069(3)
H24 H 0.6246 1.0846 0.1646
H25 H 0.6490 1.1635 0.2025
H26 H 0.5675 1.0934 0.2371
C21 C 0.9106(5) 0.7696(3) 0.0419(2)
C22 C 0.8206(5) 0.7827(3) -0.0218(2)
C23 C 0.6644(5) 0.7805(3) -0.0319(2)
H27 H 0.5985 0.7740 0.0032
C24 C 0.6083(6) 0.7882(3) -0.0958(2)
H28 H 0.5029 0.7879 -0.1034
C25 C 0.7054(6) 0.7964(3) -0.1486(2)
H29 H 0.6647 0.8011 -0.1911
C26 C 0.8620(6) 0.7977(3) -0.1386(2)
H30 H 0.9279 0.8027 -0.1739
C27 C 0.9188(5) 0.7913(3) -0.0746(2)
C28 C 1.0781(5) 0.7901(3) -0.0492(2)
C29 C 1.2055(5) 0.7720(3) 0.0590(2)
C30 C 1.2461(5) 0.6979(3) 0.0857(2)
H31 H 1.1879 0.6539 0.0755
C31 C 1.3697(7) 0.6923(4) 0.1258(3)
H32 H 1.3959 0.6444 0.1443
C32 C 1.4576(6) 0.7571(4) 0.1396(3)
H33 H 1.5413 0.7524 0.1683
C33 C 1.4256(6) 0.8279(4) 0.1124(3)
H34 H 1.4890 0.8704 0.1213
C34 C 1.317(4) 0.9959(8) 0.0877(10)
H35 H 1.4102 0.9787 0.1087
H36 H 1.2400 1.0036 0.1205
H37 H 1.3343 1.0441 0.0650
C35 C 1.2964(6) 0.8367(3) 0.0708(2)
C36? C 0.863(4) 0.439(2) 0.2665(15)
H38? H 0.9320 0.3962 0.2608
H39? H 0.8007 0.4301 0.3040
H40? H 0.9217 0.4863 0.2732
C37? C 1.414(5) 0.985(2) 0.059(3)
H41? H 1.4469 0.9686 0.1025
H42? H 1.3823 1.0389 0.0612
H43? H 1.4966 0.9800 0.0293
loop_
_geom_bond_atom_site_label_1
_geom_bond_atom_site_label_2
_geom_bond_site_symmetry_1
_geom_bond_site_symmetry_2
S1 C34 1_555 1_555
N1 C2 1_555 1_555
N2 C13 1_555 1_555
N3 C21 1_555 1_555
O1 C9 1_555 1_555
O2 C28 1_555 1_555
C1 H1 1_555 1_555
H2 C1 1_555 1_555
H3 C1 1_555 1_555
C2 C1 1_555 1_555
H4 C2 1_555 1_555
H5 C2 1_555 1_555
C3 N1 1_555 1_555
H6 C3 1_555 1_555
H7 C3 1_555 1_555
C4 C3 1_555 1_555
H8 C4 1_555 1_555
H9 C4 1_555 1_555
H10 C4 1_555 1_555
C5 N1 1_555 1_555
C6 C5 1_555 1_555
H11 C6 1_555 1_555
C7 C6 1_555 1_555
H12 C7 1_555 1_555
C8 C7 1_555 1_555
C9 C8 1_555 1_555
C10 C5 1_555 1_555
H13 C10 1_555 1_555
C11 O1 1_555 1_555
C12 C11 1_555 1_555
H14 C12 1_555 1_555
C13 C12 1_555 1_555
C14 C13 1_555 1_555
H15 C14 1_555 1_555
C15 C14 1_555 1_555
H16 C15 1_555 1_555
C16 C11 1_555 1_555
C17 N2 1_555 1_555
H17 C17 1_555 1_555
H18 C17 1_555 1_555
C18 C17 1_555 1_555
H19 C18 1_555 1_555
H20 C18 1_555 1_555
H21 C18 1_555 1_555
C19 N2 1_555 1_555
H22 C19 1_555 1_555
H23 C19 1_555 1_555
C20 C19 1_555 1_555
H24 C20 1_555 1_555
H25 C20 1_555 1_555
H26 C20 1_555 1_555
C21 C8 1_555 1_555
C22 C21 1_555 1_555
C23 C22 1_555 1_555
H27 C23 1_555 1_555
C24 C23 1_555 1_555
H28 C24 1_555 1_555
C25 C24 1_555 1_555
H29 C25 1_555 1_555
C26 C25 1_555 1_555
H30 C26 1_555 1_555
C27 C22 1_555 1_555
C28 N3 1_555 1_555
C29 N3 1_555 1_555
C30 C29 1_555 1_555
H31 C30 1_555 1_555
C31 C30 1_555 1_555
H32 C31 1_555 1_555
C32 C31 1_555 1_555
H33 C32 1_555 1_555
C33 C32 1_555 1_555
H34 C33 1_555 1_555
C34 H35 1_555 1_555
H36 C34 1_555 1_555
H37 C34 1_555 1_555
C35 S1 1_555 1_555
C9 C10 1_555 1_555
C15 C16 1_555 1_555
C16 C21 1_555 1_555
C26 C27 1_555 1_555
C27 C28 1_555 1_555
C29 C35 1_555 1_555
C33 C35 1_555 1_555

#END
