
#######################################################################
#
#                 Cambridge Crystallographic Data Centre
#                                CCDC 
#
#######################################################################
#
# If this CIF has been generated from an entry in the Cambridge 
# Structural Database, then it will include bibliographic, chemical, 
# crystal, experimental, refinement or atomic coordinate data resulting 
# from the CCDC's data processing and validation procedures.
#
#######################################################################

data_GUMXUH
_chemical_formula_moiety         'C14 H21 N1 O2 S1'
_chemical_name_systematic        
(+)-(Z)-(2R,3R)-3-[(S)-N-Methyl-S-phenylsulfonimidoyl]hept-4-en-2-ol
_symmetry_cell_setting           monoclinic
_symmetry_space_group_name_H-M   'P 21'
_symmetry_Int_Tables_number      4
_space_group_name_Hall           'P 2yb'
loop_
_symmetry_equiv_pos_site_id
_symmetry_equiv_pos_as_xyz
1 x,y,z
2 -x,1/2+y,-z
_cell_length_a                   9.2125(4)
_cell_length_b                   8.0612(4)
_cell_length_c                   9.876(2)
_cell_angle_alpha                90
_cell_angle_beta                 90.83(1)
_cell_angle_gamma                90
_cell_volume                     733.352
_exptl_crystal_colour            colorless
_exptl_crystal_description       irregular
_chemical_melting_point          153deg.C
_cell_formula_units_Z            2
_exptl_crystal_recrystallization_method 'diethyl ether'
loop_
_atom_site_label
_atom_site_type_symbol
_atom_site_fract_x
_atom_site_fract_y
_atom_site_fract_z
S1 S 0.26483(6) 0.70727 0.25484(7)
O1 O 0.2263(3) 0.6013(4) 0.1420(3)
O2 O 0.4642(2) 0.5159(4) 0.4699(2)
N1 N 0.2100(3) 0.6727(4) 0.3978(3)
C1 C 0.4606(3) 0.7107(5) 0.2784(3)
C2 C 0.5243(3) 0.7488(5) 0.1420(3)
C3 C 0.5896(3) 0.8890(5) 0.1097(3)
C4 C 0.6174(3) 1.0382(5) 0.1960(3)
C5 C 0.7765(4) 1.0466(8) 0.2397(5)
C6 C 0.5068(3) 0.5374(5) 0.3327(3)
C7 C 0.6715(3) 0.5211(6) 0.3311(4)
C8 C 0.2173(3) 0.9121(5) 0.2002(4)
C9 C 0.2316(4) 1.0432(5) 0.2923(4)
C10 C 0.1920(3) 1.2009(6) 0.2510(4)
C11 C 0.1373(3) 1.2265(5) 0.1198(4)
C12 C 0.1244(4) 1.0961(5) 0.0314(4)
C13 C 0.1650(4) 0.9371(5) 0.0702(4)
C14 C 0.0503(3) 0.6711(7) 0.4134(4)
H1 H 0.0036 0.5888 0.3442
H2 H 0.0099 0.7928 0.3866
H3 H 0.0218 0.6455 0.5092
H4 H 0.0829 1.1168 -0.0692
H5 H 0.1034 1.3472 0.0880
H6 H 0.4574 0.4502 0.2699
H7 H 0.6235 0.8997 0.0097
H8 H 0.5199 0.6571 0.0681
H9 H 0.7044 0.4295 0.3968
H10 H 0.7058 0.4918 0.2326
H11 H 0.7202 0.6341 0.3589
H12 H 0.5517 1.0358 0.2807
H13 H 0.5956 1.1469 0.1410
H14 H 0.7882 1.1329 0.3220
H15 H 0.8425 1.0787 0.1645
H16 H 0.8074 0.9296 0.2810
H17 H 0.1530 0.8361 0.0012
H18 H 0.2060 1.3040 0.3216
H19 H 0.2693 1.0200 0.3938
H20 H 0.4899 0.8015 0.3515
H21 H 0.3687 0.5538 0.4693
loop_
_geom_bond_atom_site_label_1
_geom_bond_atom_site_label_2
_geom_bond_site_symmetry_1
_geom_bond_site_symmetry_2
S1 O1 1_555 1_555
O2 C6 1_555 1_555
N1 S1 1_555 1_555
C1 S1 1_555 1_555
C2 C1 1_555 1_555
C3 C2 1_555 1_555
C4 C3 1_555 1_555
C5 C4 1_555 1_555
C6 C1 1_555 1_555
C7 C6 1_555 1_555
C8 S1 1_555 1_555
C9 C8 1_555 1_555
C10 C9 1_555 1_555
C11 C10 1_555 1_555
C12 C11 1_555 1_555
C13 C8 1_555 1_555
C14 N1 1_555 1_555
H1 C14 1_555 1_555
H2 C14 1_555 1_555
H3 C14 1_555 1_555
H4 C12 1_555 1_555
H5 C11 1_555 1_555
H6 C6 1_555 1_555
H7 C3 1_555 1_555
H8 C2 1_555 1_555
H9 C7 1_555 1_555
H10 C7 1_555 1_555
H11 C7 1_555 1_555
H12 C4 1_555 1_555
H13 C4 1_555 1_555
H14 C5 1_555 1_555
H15 C5 1_555 1_555
H16 C5 1_555 1_555
H17 C13 1_555 1_555
H18 C10 1_555 1_555
H19 C9 1_555 1_555
H20 C1 1_555 1_555
H21 O2 1_555 1_555
C12 C13 1_555 1_555

#END
