
#######################################################################
#
#                 Cambridge Crystallographic Data Centre
#                                CCDC 
#
#######################################################################
#
# If this CIF has been generated from an entry in the Cambridge 
# Structural Database, then it will include bibliographic, chemical, 
# crystal, experimental, refinement or atomic coordinate data resulting 
# from the CCDC's data processing and validation procedures.
#
#######################################################################

data_GUMYOC
_chemical_formula_moiety         'C25 H27 N1 O2 S1'
_chemical_name_systematic        
(-)-(3R,4R)-4-[(S)-N-Methyl-S-phenylsulfonimidoyl]-6,6-diphenylhex-5-en-3-ol
_symmetry_cell_setting           orthorhombic
_symmetry_space_group_name_H-M   'P 21 21 21'
_symmetry_Int_Tables_number      19
_space_group_name_Hall           'P 2ac 2ab'
loop_
_symmetry_equiv_pos_site_id
_symmetry_equiv_pos_as_xyz
1 x,y,z
2 1/2-x,-y,1/2+z
3 1/2+x,1/2-y,-z
4 -x,1/2+y,1/2-z
_cell_length_a                   8.872(1)
_cell_length_b                   15.110(1)
_cell_length_c                   16.264(5)
_cell_angle_alpha                90
_cell_angle_beta                 90
_cell_angle_gamma                90
_cell_volume                     2180.29
_exptl_crystal_colour            colorless
_exptl_crystal_description       irregular
_chemical_melting_point          111deg.C
_cell_formula_units_Z            4
_exptl_crystal_recrystallization_method 'diethyl ether'
loop_
_atom_site_label
_atom_site_type_symbol
_atom_site_fract_x
_atom_site_fract_y
_atom_site_fract_z
S1 S -0.4242(2) -0.3695(1) -0.2917(1)
O1 O -0.4558(5) -0.3561(3) -0.2049(3)
O2 O -0.1895(6) -0.3008(3) -0.4330(3)
N1 N -0.4635(7) -0.2989(3) -0.3562(4)
C1 C -0.0620(8) -0.3385(4) -0.1843(4)
C2 C -0.1409(8) -0.3192(4) -0.2527(4)
C3 C -0.2232(8) -0.3862(4) -0.3040(4)
C4 C -0.1756(8) -0.3853(4) -0.3958(4)
C5 C -0.0070(8) -0.4125(4) -0.4006(5)
C6 C 0.0493(9) -0.4208(5) -0.4882(5)
C7 C -0.5072(7) -0.4737(4) -0.3154(4)
C8 C -0.5499(9) -0.4905(4) -0.3961(4)
C9 C -0.621(1) -0.5714(5) -0.4158(4)
C10 C -0.636(1) -0.6330(5) -0.3530(5)
C11 C -0.5961(8) -0.6154(4) -0.2733(4)
C12 C -0.5335(8) -0.5346(4) -0.2541(4)
C13 C -0.0484(9) -0.4304(4) -0.1530(4)
C14 C -0.1709(8) -0.4795(4) -0.1260(4)
C15 C -0.153(1) -0.5669(5) -0.0991(4)
C16 C -0.011(1) -0.6044(4) -0.1011(5)
C17 C 0.110(1) -0.5575(5) -0.1261(4)
C18 C 0.096(1) -0.4691(5) -0.1512(5)
C19 C 0.0208(9) -0.2686(4) -0.1424(4)
C20 C 0.110(1) -0.2088(4) -0.1843(4)
C21 C 0.191(1) -0.1421(5) -0.1439(5)
C22 C 0.176(1) -0.1339(4) -0.0597(5)
C23 C 0.085(1) -0.1910(4) -0.0164(4)
C24 C -0.6224(9) -0.2739(4) -0.3611(5)
C25 C 0.011(1) -0.2595(4) -0.0553(4)
H1 H -0.5031 -0.5180 -0.1902
H2 H -0.6107 -0.6649 -0.2289
H3 H -0.6773 -0.6971 -0.3728
H4 H -0.6549 -0.5856 -0.4772
H5 H -0.5412 -0.4413 -0.4441
H6 H -0.2784 -0.4465 -0.1280
H7 H -0.2534 -0.6010 -0.0761
H8 H -0.0001 -0.6694 -0.0799
H9 H 0.2143 -0.5899 -0.1267
H10 H 0.1916 -0.4316 -0.1715
H11 H -0.0605 -0.3067 -0.0193
H12 H 0.0675 -0.1839 0.0502
H13 H 0.2367 -0.0830 -0.0260
H14 H 0.2685 -0.1004 -0.1774
H15 H 0.1164 -0.2118 -0.2487
H16 H -0.1502 -0.2515 -0.2698
H17 H -0.1936 -0.4483 -0.2794
H18 H -0.2366 -0.4360 -0.4272
H19 H 0.0567 -0.3641 -0.3692
H20 H 0.0116 -0.4734 -0.3712
H21 H 0.1463 -0.3797 -0.4973
H22 H 0.0759 -0.4840 -0.5042
H23 H -0.0337 -0.3958 -0.5293
H24 H -0.6414 -0.2214 -0.4052
H25 H -0.6938 -0.3253 -0.3772
H26 H -0.6608 -0.2474 -0.3041
H27 H -0.2903 -0.2945 -0.4180
loop_
_geom_bond_atom_site_label_1
_geom_bond_atom_site_label_2
_geom_bond_site_symmetry_1
_geom_bond_site_symmetry_2
S1 O1 1_555 1_555
O2 C4 1_555 1_555
N1 S1 1_555 1_555
C1 C2 1_555 1_555
C2 C3 1_555 1_555
C3 S1 1_555 1_555
C4 C3 1_555 1_555
C5 C4 1_555 1_555
C6 C5 1_555 1_555
C7 S1 1_555 1_555
C8 C7 1_555 1_555
C9 C8 1_555 1_555
C10 C9 1_555 1_555
C11 C10 1_555 1_555
C12 C7 1_555 1_555
C13 C1 1_555 1_555
C14 C13 1_555 1_555
C15 C14 1_555 1_555
C16 C15 1_555 1_555
C17 C16 1_555 1_555
C18 C13 1_555 1_555
C19 C1 1_555 1_555
C20 C19 1_555 1_555
C21 C20 1_555 1_555
C22 C21 1_555 1_555
C23 C22 1_555 1_555
C24 N1 1_555 1_555
C25 C19 1_555 1_555
H1 C12 1_555 1_555
H2 C11 1_555 1_555
H3 C10 1_555 1_555
H4 C9 1_555 1_555
H5 C8 1_555 1_555
H6 C14 1_555 1_555
H7 C15 1_555 1_555
H8 C16 1_555 1_555
H9 C17 1_555 1_555
H10 C18 1_555 1_555
H11 C25 1_555 1_555
H12 C23 1_555 1_555
H13 C22 1_555 1_555
H14 C21 1_555 1_555
H15 C20 1_555 1_555
H16 C2 1_555 1_555
H17 C3 1_555 1_555
H18 C4 1_555 1_555
H19 C5 1_555 1_555
H20 C5 1_555 1_555
H21 C6 1_555 1_555
H22 C6 1_555 1_555
H23 C6 1_555 1_555
H24 C24 1_555 1_555
H25 C24 1_555 1_555
H26 C24 1_555 1_555
H27 O2 1_555 1_555
C11 C12 1_555 1_555
C17 C18 1_555 1_555
C23 C25 1_555 1_555

#END
