
#######################################################################
#
#                 Cambridge Crystallographic Data Centre
#                                CCDC 
#
#######################################################################
#
# If this CIF has been generated from an entry in the Cambridge 
# Structural Database, then it will include bibliographic, chemical, 
# crystal, experimental, refinement or atomic coordinate data resulting 
# from the CCDC's data processing and validation procedures.
#
#######################################################################

data_GUNCOJ
_chemical_name_common            
'1-Phenyl-3-(pyren-1-yl)prop-2-en-1-one sesquikis(7,7,8,8-tetracyanoquinodimethane)'
_chemical_formula_moiety         'C25 H16 O1,1.5(C12 H4 N4)'
_chemical_name_systematic        
"1-Phenyl-3-(pyren-1-yl)prop-2-en-1-one sesquikis(2,2'-cyclohexa-2,5-diene-1,4-diylidenedimalononitrile)"
_symmetry_cell_setting           triclinic
_symmetry_space_group_name_H-M   'P -1'
_symmetry_Int_Tables_number      2
_space_group_name_Hall           '-P 1'
loop_
_symmetry_equiv_pos_site_id
_symmetry_equiv_pos_as_xyz
1 x,y,z
2 -x,-y,-z
_cell_length_a                   9.0640(18)
_cell_length_b                   11.721(2)
_cell_length_c                   16.445(3)
_cell_angle_alpha                99.43(3)
_cell_angle_beta                 105.49(3)
_cell_angle_gamma                91.66(3)
_cell_volume                     1656.02
_exptl_crystal_colour            black
_exptl_crystal_description       block
_cell_formula_units_Z            2
loop_
_atom_site_label
_atom_site_type_symbol
_atom_site_fract_x
_atom_site_fract_y
_atom_site_fract_z
O1 O 0.9775(4) 0.6677(3) 1.0269(3)
C1 C 0.5479(5) 0.4720(4) 0.7680(3)
C2 C 0.6535(5) 0.3831(5) 0.7810(3)
H1 H 0.7434 0.3999 0.8256
C3 C 0.6280(6) 0.2754(4) 0.7311(3)
H2 H 0.6996 0.2207 0.7426
C4 C 0.4920(5) 0.2460(4) 0.6613(3)
C5 C 0.3855(5) 0.3297(4) 0.6455(3)
C6 C 0.4129(5) 0.4422(4) 0.6975(3)
C7 C 0.4620(6) 0.1365(5) 0.6093(3)
H3 H 0.5323 0.0807 0.6195
C8 C 0.3289(8) 0.1102(6) 0.5429(4)
H4 H 0.3105 0.0370 0.5086
C9 C 0.2247(7) 0.1906(6) 0.5272(4)
H5 H 0.1353 0.1707 0.4826
C10 C 0.2481(6) 0.3039(5) 0.5769(3)
C11 C 0.1403(6) 0.3895(6) 0.5624(4)
H6 H 0.0497 0.3708 0.5185
C12 C 0.1651(6) 0.4942(5) 0.6091(4)
H7 H 0.0934 0.5486 0.5973
C13 C 0.3038(6) 0.5247(5) 0.6787(3)
C14 C 0.3328(6) 0.6361(5) 0.7290(4)
H8 H 0.2628 0.6918 0.7175
C15 C 0.4650(7) 0.6629(4) 0.7956(4)
H9 H 0.4827 0.7376 0.8275
C16 C 0.5735(6) 0.5832(4) 0.8173(3)
C17 C 0.7096(6) 0.6179(4) 0.8914(3)
H10 H 0.7637 0.5579 0.9125
C18 C 0.7639(6) 0.7248(5) 0.9316(3)
H11 H 0.7144 0.7873 0.9117
C19 C 0.9000(6) 0.7479(5) 1.0067(3)
C20 C 0.9373(5) 0.8679(5) 1.0573(3)
C21 C 1.0749(6) 0.8874(5) 1.1190(3)
H12 H 1.1394 0.8273 1.1260
C22 C 1.1198(8) 0.9943(7) 1.1710(4)
H13 H 1.2141 1.0061 1.2124
C23 C 1.0259(8) 1.0823(6) 1.1615(4)
H14 H 1.0546 1.1537 1.1978
C24 C 0.8867(7) 1.0661(5) 1.0977(4)
H15 H 0.8234 1.1267 1.0904
C25 C 0.8433(6) 0.9574(5) 1.0448(3)
H16 H 0.7515 0.9457 1.0014
N1 N 0.1704(5) 0.7938(4) 0.4343(3)
N2 N 0.5594(5) 0.8736(4) 0.6651(3)
C26 C 0.2755(6) 0.7628(4) 0.4787(3)
C27 C 0.4914(6) 0.8079(5) 0.6059(3)
C28 C 0.4074(5) 0.7235(4) 0.5331(3)
C29 C 0.4534(5) 0.6137(4) 0.5173(3)
C30 C 0.5900(5) 0.5775(4) 0.5731(3)
H17 H 0.6486 0.6294 0.6205
C31 C 0.6315(5) 0.4703(4) 0.5567(3)
H18 H 0.7181 0.4483 0.5939
N1A N 0.8296(5) 0.2062(4) 0.5657(3)
N2A N 0.4406(5) 0.1264(4) 0.3349(3)
C26A C 0.7245(6) 0.2372(4) 0.5213(3)
C27A C 0.5086(6) 0.1921(5) 0.3941(3)
C28A C 0.5926(5) 0.2765(4) 0.4669(3)
C29A C 0.5466(5) 0.3863(4) 0.4827(3)
C30A C 0.4100(5) 0.4225(4) 0.4269(3)
H17A H 0.3514 0.3706 0.3795
C31A C 0.3685(5) 0.5297(4) 0.4433(3)
H18A H 0.2819 0.5517 0.4061
N3 N 1.5205(6) -0.0275(4) 0.8721(3)
N4 N 1.1335(5) -0.1005(4) 0.6470(3)
N5 N 1.3184(5) 0.6531(4) 0.9805(3)
N6 N 0.9222(5) 0.5921(4) 0.7498(3)
C32 C 1.4193(7) 0.0080(5) 0.8264(4)
C33 C 1.2029(6) -0.0305(5) 0.7018(3)
C34 C 1.2928(5) 0.0528(4) 0.7718(3)
C35 C 1.2594(5) 0.1652(4) 0.7895(3)
C36 C 1.3568(5) 0.2446(4) 0.8617(3)
H19 H 1.4457 0.2202 0.8954
C37 C 1.3185(5) 0.3535(4) 0.8800(3)
H20 H 1.3819 0.4025 0.9275
C38 C 1.1855(5) 0.3990(4) 0.8305(3)
C39 C 1.0894(5) 0.3194(5) 0.7571(3)
H21 H 1.0017 0.3445 0.7229
C40 C 1.1257(5) 0.2102(5) 0.7382(3)
H22 H 1.0626 0.1614 0.6904
C41 C 1.2422(6) 0.5910(5) 0.9226(3)
C42 C 1.0220(6) 0.5565(4) 0.7954(4)
C43 C 1.1496(5) 0.5115(4) 0.8497(3)
loop_
_geom_bond_atom_site_label_1
_geom_bond_atom_site_label_2
_geom_bond_site_symmetry_1
_geom_bond_site_symmetry_2
O1 C19 1_555 1_555
C1 C2 1_555 1_555
C2 H1 1_555 1_555
C3 C2 1_555 1_555
H2 C3 1_555 1_555
C4 C3 1_555 1_555
C5 C4 1_555 1_555
C6 C1 1_555 1_555
C7 C4 1_555 1_555
H3 C7 1_555 1_555
C8 C7 1_555 1_555
H4 C8 1_555 1_555
C9 C8 1_555 1_555
H5 C9 1_555 1_555
C10 C5 1_555 1_555
C11 C10 1_555 1_555
H6 C11 1_555 1_555
C12 C11 1_555 1_555
H7 C12 1_555 1_555
C13 C6 1_555 1_555
C14 C13 1_555 1_555
H8 C14 1_555 1_555
C15 C14 1_555 1_555
H9 C15 1_555 1_555
C16 C1 1_555 1_555
C17 C16 1_555 1_555
H10 C17 1_555 1_555
C18 C17 1_555 1_555
H11 C18 1_555 1_555
C19 C18 1_555 1_555
C20 C19 1_555 1_555
C21 C20 1_555 1_555
H12 C21 1_555 1_555
C22 C21 1_555 1_555
H13 C22 1_555 1_555
C23 C22 1_555 1_555
H14 C23 1_555 1_555
C24 C23 1_555 1_555
H15 C24 1_555 1_555
C25 C20 1_555 1_555
H16 C25 1_555 1_555
N1 C26 1_555 1_555
N2 C27 1_555 1_555
C26 C28 1_555 1_555
C27 C28 1_555 1_555
C28 C29 1_555 1_555
C29 C30 1_555 1_555
C30 H17 1_555 1_555
C31 C30 1_555 1_555
H18 C31 1_555 1_555
N3 C32 1_555 1_555
N4 C33 1_555 1_555
N5 C41 1_555 1_555
N6 C42 1_555 1_555
C32 C34 1_555 1_555
C33 C34 1_555 1_555
C34 C35 1_555 1_555
C35 C36 1_555 1_555
C36 H19 1_555 1_555
C37 C36 1_555 1_555
H20 C37 1_555 1_555
C38 C37 1_555 1_555
C39 C38 1_555 1_555
H21 C39 1_555 1_555
C40 C35 1_555 1_555
H22 C40 1_555 1_555
C41 C43 1_555 1_555
C42 C43 1_555 1_555
C43 C38 1_555 1_555
N1A C26A 1_555 1_555
N2A C27A 1_555 1_555
C26A C28A 1_555 1_555
C27A C28A 1_555 1_555
C28A C29A 1_555 1_555
C29A C31 1_555 1_555
C30A C29A 1_555 1_555
H17A C30A 1_555 1_555
C31A C29 1_555 1_555
H18A C31A 1_555 1_555
C5 C6 1_555 1_555
C9 C10 1_555 1_555
C12 C13 1_555 1_555
C15 C16 1_555 1_555
C24 C25 1_555 1_555
C39 C40 1_555 1_555
C30A C31A 1_555 1_555

#END
