
#######################################################################
#
#                 Cambridge Crystallographic Data Centre
#                                CCDC 
#
#######################################################################
#
# If this CIF has been generated from an entry in the Cambridge 
# Structural Database, then it will include bibliographic, chemical, 
# crystal, experimental, refinement or atomic coordinate data resulting 
# from the CCDC's data processing and validation procedures.
#
#######################################################################

data_GUNDEA
_chemical_name_common            
'1-Phenyl-3-(pyren-1-yl)prop-2-en-1-one hemikis7,7,8,8-tetracyanoquinodimethane methanol solvate'
_chemical_formula_moiety         'C25 H16 O1,C12 H4 N4,C1 H4 O1'
_chemical_name_systematic        
"1-Phenyl-3-(pyren-1-yl)prop-2-en-1-one 2,2'-cyclohexa-2,5-diene-1,4-diylidenedimalononitrile methanol solvate"
_symmetry_cell_setting           triclinic
_symmetry_space_group_name_H-M   'P -1'
_symmetry_Int_Tables_number      2
_space_group_name_Hall           '-P 1'
loop_
_symmetry_equiv_pos_site_id
_symmetry_equiv_pos_as_xyz
1 x,y,z
2 -x,-y,-z
_cell_length_a                   11.176(2)
_cell_length_b                   11.394(2)
_cell_length_c                   13.466(3)
_cell_angle_alpha                72.83(3)
_cell_angle_beta                 78.68(3)
_cell_angle_gamma                69.39(3)
_cell_volume                     1525.27
_exptl_crystal_colour            black
_exptl_crystal_description       needle
_cell_formula_units_Z            2
loop_
_atom_site_label
_atom_site_type_symbol
_atom_site_fract_x
_atom_site_fract_y
_atom_site_fract_z
O1 O 0.7792(3) 0.9367(3) 0.4638(3)
C1 C 0.9514(4) 1.3294(4) 0.3016(3)
C2 C 1.0724(4) 1.2247(4) 0.3082(3)
H1 H 1.0718 1.1395 0.3314
C3 C 1.1855(4) 1.2490(4) 0.2812(4)
H2 H 1.2612 1.1796 0.2864
C4 C 1.1935(4) 1.3774(4) 0.2449(3)
C5 C 1.0773(4) 1.4794(4) 0.2408(3)
C6 C 0.9574(4) 1.4571(4) 0.2690(3)
C7 C 1.3085(5) 1.4003(5) 0.2158(3)
H3 H 1.3843 1.3312 0.2186
C8 C 1.3134(5) 1.5243(6) 0.1827(4)
H4 H 1.3928 1.5381 0.1628
C9 C 1.2005(5) 1.6318(5) 0.1778(4)
H5 H 1.2053 1.7156 0.1556
C10 C 1.0819(5) 1.6103(4) 0.2068(3)
C11 C 0.9650(5) 1.7167(4) 0.2017(3)
H6 H 0.9668 1.8016 0.1802
C12 C 0.8488(5) 1.6907(4) 0.2295(3)
H7 H 0.7729 1.7597 0.2258
C13 C 0.8417(4) 1.5650(4) 0.2627(3)
C14 C 0.7249(4) 1.5368(4) 0.2923(4)
H8 H 0.6482 1.6049 0.2901
C15 C 0.7204(4) 1.4152(4) 0.3236(3)
H9 H 0.6403 1.4027 0.3417
C16 C 0.8307(4) 1.3054(4) 0.3306(3)
C17 C 0.8169(4) 1.1788(4) 0.3644(3)
H10 H 0.8835 1.1134 0.3988
C18 C 0.7199(4) 1.1441(4) 0.3524(3)
H11 H 0.6544 1.2067 0.3148
C19 C 0.7095(5) 1.0139(4) 0.3945(4)
C20 C 0.6169(4) 0.9745(4) 0.3580(4)
C21 C 0.5794(5) 1.0270(4) 0.2607(4)
H12 H 0.6074 1.0945 0.2171
C22 C 0.4987(5) 0.9815(5) 0.2243(5)
H13 H 0.4764 1.0173 0.1563
C23 C 0.4549(6) 0.8894(6) 0.2849(6)
H14 H 0.4004 0.8609 0.2606
C24 C 0.4901(6) 0.8343(5) 0.3856(6)
H15 H 0.4593 0.7687 0.4291
C25 C 0.5720(5) 0.8778(4) 0.4214(4)
H16 H 0.5961 0.8406 0.4888
N1 N 0.5692(5) 0.7638(5) 0.0254(4)
N2 N 0.6441(4) 0.3473(4) 0.1009(3)
C26 C 0.7390(4) 0.5345(4) 0.0413(4)
C27 C 0.6460(5) 0.6599(6) 0.0321(4)
C28 C 0.6873(5) 0.4289(5) 0.0755(4)
C29 C 0.8650(4) 0.5196(4) 0.0184(3)
C30 C 0.9580(5) 0.3918(4) 0.0313(3)
H17 H 0.9285 0.3206 0.0517
C31 C 1.0837(4) 0.3720(4) 0.0153(3)
H18 H 1.1399 0.2878 0.0258
N1A N 1.4308(5) 0.2362(5) -0.0254(4)
N2A N 1.3559(4) 0.6527(4) -0.1009(3)
C26A C 1.2610(4) 0.4655(4) -0.0413(4)
C27A C 1.3540(5) 0.3401(6) -0.0321(4)
C28A C 1.3127(5) 0.5711(5) -0.0755(4)
C29A C 1.1350(4) 0.4804(4) -0.0184(3)
C30A C 1.0420(5) 0.6082(4) -0.0313(3)
H17A H 1.0715 0.6794 -0.0517
C31A C 0.9163(4) 0.6280(4) -0.0153(3)
H18A H 0.8601 0.7122 -0.0258
N3 N 0.5817(5) 0.4877(6) 0.5869(4)
N4 N 0.8921(6) 0.1146(5) 0.6272(4)
C32 C 0.6892(6) 0.4292(6) 0.5807(4)
C33 C 0.8245(5) 0.3630(5) 0.5688(3)
C34 C 0.8623(5) 0.2223(6) 0.6042(4)
C35 C 0.9104(4) 0.4313(4) 0.5326(3)
C36 C 1.0447(4) 0.3644(4) 0.5244(3)
H19 H 1.0743 0.2745 0.5418
C37 C 0.8707(4) 0.5679(4) 0.5086(3)
H20 H 0.7833 0.6130 0.5158
N3A N 1.4183(5) 0.5123(6) 0.4131(4)
N4A N 1.1079(6) 0.8854(5) 0.3728(4)
C32A C 1.3108(6) 0.5708(6) 0.4193(4)
C33A C 1.1755(5) 0.6370(5) 0.4312(3)
C34A C 1.1377(5) 0.7777(6) 0.3958(4)
C35A C 1.0896(4) 0.5687(4) 0.4674(3)
C36A C 0.9553(4) 0.6356(4) 0.4756(3)
H19A H 0.9257 0.7255 0.4582
C37A C 1.1293(4) 0.4321(4) 0.4914(3)
H20A H 1.2167 0.3870 0.4842
C38 C 0.8862(9) -0.0151(6) 0.9162(7)
H21 H 0.8407 -0.0425 0.9824
H22 H 0.8834 -0.0628 0.8690
H23 H 0.8467 0.0756 0.8878
O2 O 1.0284 -0.0406 0.9311
H24 H 1.0304 -0.0159 0.9844
loop_
_geom_bond_atom_site_label_1
_geom_bond_atom_site_label_2
_geom_bond_site_symmetry_1
_geom_bond_site_symmetry_2
O1 C19 1_555 1_555
C1 C2 1_555 1_555
C2 H1 1_555 1_555
C3 C2 1_555 1_555
H2 C3 1_555 1_555
C4 C3 1_555 1_555
C5 C4 1_555 1_555
C6 C1 1_555 1_555
C7 C4 1_555 1_555
H3 C7 1_555 1_555
C8 C7 1_555 1_555
H4 C8 1_555 1_555
C9 C8 1_555 1_555
H5 C9 1_555 1_555
C10 C5 1_555 1_555
C11 C10 1_555 1_555
H6 C11 1_555 1_555
C12 C11 1_555 1_555
H7 C12 1_555 1_555
C13 C6 1_555 1_555
C14 C13 1_555 1_555
H8 C14 1_555 1_555
C15 C14 1_555 1_555
H9 C15 1_555 1_555
C16 C1 1_555 1_555
C17 C16 1_555 1_555
H10 C17 1_555 1_555
C18 C17 1_555 1_555
H11 C18 1_555 1_555
C19 C18 1_555 1_555
C20 C19 1_555 1_555
C21 C20 1_555 1_555
H12 C21 1_555 1_555
C22 C21 1_555 1_555
H13 C22 1_555 1_555
C23 C22 1_555 1_555
H14 C23 1_555 1_555
C24 C23 1_555 1_555
H15 C24 1_555 1_555
C25 C20 1_555 1_555
H16 C25 1_555 1_555
N1 C27 1_555 1_555
N2 C28 1_555 1_555
C26 C27 1_555 1_555
C28 C26 1_555 1_555
C29 C26 1_555 1_555
C30 C29 1_555 1_555
H17 C30 1_555 1_555
C31 C30 1_555 1_555
H18 C31 1_555 1_555
N3 C32 1_555 1_555
N4 C34 1_555 1_555
C32 C33 1_555 1_555
C33 C34 1_555 1_555
C35 C33 1_555 1_555
C36 C35 1_555 1_555
H19 C36 1_555 1_555
C37 C35 1_555 1_555
H20 C37 1_555 1_555
C38 H21 1_555 1_555
H22 C38 1_555 1_555
H23 C38 1_555 1_555
O2 C38 1_555 1_555
H24 O2 1_555 1_555
N1A C27A 1_555 1_555
N2A C28A 1_555 1_555
C26A C27A 1_555 1_555
C28A C26A 1_555 1_555
C29A C31 1_555 1_555
C30A C29A 1_555 1_555
H17A C30A 1_555 1_555
C31A C29 1_555 1_555
H18A C31A 1_555 1_555
N3A C32A 1_555 1_555
N4A C34A 1_555 1_555
C32A C33A 1_555 1_555
C33A C34A 1_555 1_555
C35A C33A 1_555 1_555
C36A C37 1_555 1_555
H19A C36A 1_555 1_555
C37A C36 1_555 1_555
H20A C37A 1_555 1_555
C5 C6 1_555 1_555
C9 C10 1_555 1_555
C12 C13 1_555 1_555
C15 C16 1_555 1_555
C24 C25 1_555 1_555
C26A C29A 1_555 1_555
C30A C31A 1_555 1_555
C35A C36A 1_555 1_555
C35A C37A 1_555 1_555

#END
