
#######################################################################
#
#                 Cambridge Crystallographic Data Centre
#                                CCDC 
#
#######################################################################
#
# If this CIF has been generated from an entry in the Cambridge 
# Structural Database, then it will include bibliographic, chemical, 
# crystal, experimental, refinement or atomic coordinate data resulting 
# from the CCDC's data processing and validation procedures.
#
#######################################################################

data_GUNFUS
_chemical_formula_moiety         'C16 H11 B1 Cl2 F2 N2 O1'
_chemical_name_systematic        
3,7-Dichloro-5,5-difluoro-10-(4-methoxyphenyl)-5H-dipyrrolo[1,2-c:2',1'-f][1,3,2]diazaborinine-4-ium-5-ide
_symmetry_cell_setting           monoclinic
_symmetry_space_group_name_H-M   'C 2/c'
_symmetry_Int_Tables_number      15
_space_group_name_Hall           '-C 2yn'
loop_
_symmetry_equiv_pos_site_id
_symmetry_equiv_pos_as_xyz
1 x,y,z
2 -x,y,1/2-z
3 1/2+x,1/2+y,z
4 1/2-x,1/2+y,1/2-z
5 -x,-y,-z
6 x,-y,1/2+z
7 1/2-x,1/2-y,-z
8 1/2+x,1/2-y,1/2+z
_cell_length_a                   15.6318(17)
_cell_length_b                   13.1816(14)
_cell_length_c                   15.4701(17)
_cell_angle_alpha                90
_cell_angle_beta                 96.9710(10)
_cell_angle_gamma                90
_cell_volume                     3164.08
_exptl_crystal_colour            red
_exptl_crystal_description       block
_cell_formula_units_Z            8
loop_
_atom_site_label
_atom_site_type_symbol
_atom_site_fract_x
_atom_site_fract_y
_atom_site_fract_z
B1 B 0.62189(11) -0.08953(12) 0.10538(11)
C1 C 0.75900(10) -0.01549(12) 0.04641(11)
C2 C 0.79898(11) 0.07773(13) 0.03906(13)
H1 H 0.8510 0.0897 0.0174
C3 C 0.74586(10) 0.14890(12) 0.07051(11)
H2 H 0.7557 0.2184 0.0743
C4 C 0.67419(9) 0.09758(10) 0.09582(9)
C5 C 0.59722(9) 0.13623(10) 0.12127(9)
C6 C 0.52816(9) 0.07123(11) 0.12880(9)
C7 C 0.44458(10) 0.09072(14) 0.15009(11)
H3 H 0.4222 0.1538 0.1623
C8 C 0.40220(11) -0.00056(15) 0.14946(12)
H4 H 0.3456 -0.0111 0.1602
C9 C 0.46025(10) -0.07403(13) 0.12976(10)
C10 C 0.58979(9) 0.24643(10) 0.13615(10)
C11 C 0.52152(10) 0.30223(11) 0.09338(11)
H5 H 0.4788 0.2692 0.0568
C12 C 0.51665(11) 0.40583(12) 0.10471(12)
H6 H 0.4712 0.4421 0.0750
C13 C 0.57892(11) 0.45617(12) 0.16001(11)
C14 C 0.64645(12) 0.40213(13) 0.20458(11)
H7 H 0.6878 0.4352 0.2428
C15 C 0.65193(11) 0.29806(12) 0.19165(11)
H8 H 0.6980 0.2622 0.2206
C16 C 0.63067(19) 0.61462(16) 0.21682(18)
H9 H 0.6315 0.5940 0.2764
H10 H 0.6172 0.6856 0.2117
H11 H 0.6862 0.6026 0.1982
Cl1 Cl 0.79593(3) -0.13030(4) 0.01612(4)
Cl2 Cl 0.44276(3) -0.20148(4) 0.12448(3)
F1 F 0.60907(7) -0.16181(7) 0.04147(7)
F2 F 0.65501(7) -0.13232(7) 0.18365(7)
N1 N 0.68435(8) -0.00565(9) 0.08029(8)
N2 N 0.53628(8) -0.03323(9) 0.11632(8)
O1 O 0.56783(9) 0.55847(9) 0.16423(10)
loop_
_geom_bond_atom_site_label_1
_geom_bond_atom_site_label_2
_geom_bond_site_symmetry_1
_geom_bond_site_symmetry_2
B1 F1 1_555 1_555
C1 C2 1_555 1_555
C2 H1 1_555 1_555
C3 C2 1_555 1_555
H2 C3 1_555 1_555
C4 C3 1_555 1_555
C5 C4 1_555 1_555
C6 C5 1_555 1_555
C7 C6 1_555 1_555
H3 C7 1_555 1_555
C8 C7 1_555 1_555
H4 C8 1_555 1_555
C9 C8 1_555 1_555
C10 C5 1_555 1_555
C11 C10 1_555 1_555
H5 C11 1_555 1_555
C12 C11 1_555 1_555
H6 C12 1_555 1_555
C13 C12 1_555 1_555
C14 C13 1_555 1_555
H7 C14 1_555 1_555
C15 C10 1_555 1_555
H8 C15 1_555 1_555
C16 H9 1_555 1_555
H10 C16 1_555 1_555
H11 C16 1_555 1_555
Cl1 C1 1_555 1_555
Cl2 C9 1_555 1_555
F2 B1 1_555 1_555
N1 B1 1_555 1_555
N2 B1 1_555 1_555
O1 C13 1_555 1_555
C1 N1 1_555 1_555
C4 N1 1_555 1_555
C6 N2 1_555 1_555
C9 N2 1_555 1_555
C14 C15 1_555 1_555
C16 O1 1_555 1_555

#END
