
#######################################################################
#
#                 Cambridge Crystallographic Data Centre
#                                CCDC 
#
#######################################################################
#
# If this CIF has been generated from an entry in the Cambridge 
# Structural Database, then it will include bibliographic, chemical, 
# crystal, experimental, refinement or atomic coordinate data resulting 
# from the CCDC's data processing and validation procedures.
#
#######################################################################

data_GUNGED
_chemical_formula_moiety         'C12 H11 B1 Cl2 F2 N2'
_chemical_name_systematic        
3,7-Dichloro-5,5-difluoro-10-(n-propyl)-5H-dipyrrolo[1,2-c:2',1'-f][1,3,2]diazaborinine-4-ium-5-ide
_symmetry_cell_setting           triclinic
_symmetry_space_group_name_H-M   'P -1'
_symmetry_Int_Tables_number      2
_space_group_name_Hall           '-P 1'
loop_
_symmetry_equiv_pos_site_id
_symmetry_equiv_pos_as_xyz
1 x,y,z
2 -x,-y,-z
_cell_length_a                   10.1284(11)
_cell_length_b                   11.8356(13)
_cell_length_c                   12.6560(13)
_cell_angle_alpha                91.2160(10)
_cell_angle_beta                 110.2730(10)
_cell_angle_gamma                107.7390(10)
_cell_volume                     1341.78
_exptl_crystal_colour            red
_exptl_crystal_description       block
_cell_formula_units_Z            4
loop_
_atom_site_label
_atom_site_type_symbol
_atom_site_fract_x
_atom_site_fract_y
_atom_site_fract_z
B1 B 0.8325(2) 0.7080(2) 1.03749(18)
C1 C 0.8583(2) 0.60653(19) 0.86426(19)
C2 C 0.7702(3) 0.5430(2) 0.7563(2)
H1 H 0.8025 0.5127 0.7050
C3 C 0.6285(3) 0.53422(19) 0.74071(18)
H2 H 0.5447 0.4967 0.6757
C4 C 0.6292(2) 0.59159(16) 0.83970(15)
C5 C 0.51310(19) 0.59864(15) 0.87076(15)
C6 C 0.54274(19) 0.65410(15) 0.97900(15)
C7 C 0.4462(2) 0.66559(18) 1.03224(19)
H3 H 0.3425 0.6361 1.0004
C8 C 0.5305(2) 0.72765(19) 1.13924(19)
H4 H 0.4958 0.7482 1.1934
C9 C 0.6776(2) 0.75353(17) 1.15028(16)
C10 C 0.3545(2) 0.54830(18) 0.78777(18)
H5 H 0.2912 0.5086 0.8279
H6 H 0.3480 0.4886 0.7309
C11 C 0.2964(2) 0.6431(2) 0.72865(18)
H7 H 0.2974 0.7005 0.7850
H8 H 0.3624 0.6857 0.6916
C12 C 0.1399(3) 0.5901(3) 0.6412(2)
H9 H 0.1408 0.5415 0.5799
H10 H 0.1033 0.6535 0.6122
H11 H 0.0762 0.5415 0.6759
Cl1 Cl 1.04634(7) 0.64448(7) 0.92808(7)
Cl2 Cl 0.83148(8) 0.83260(6) 1.26429(5)
F1 F 0.92294(13) 0.82280(11) 1.04228(11)
F2 F 0.90507(13) 0.64810(13) 1.11655(10)
N1 N 0.77712(15) 0.63736(13) 0.91650(13)
N2 N 0.68860(16) 0.70944(13) 1.05585(12)
B2 B 0.5029(3) 0.7581(2) 0.49667(18)
C13 C 0.7836(2) 0.77763(19) 0.59235(18)
C14 C 0.9087(3) 0.8402(2) 0.6867(2)
H12 H 1.0034 0.8340 0.7075
C15 C 0.8652(2) 0.9131(2) 0.74327(19)
H13 H 0.9252 0.9654 0.8104
C16 C 0.7140(2) 0.89462(17) 0.68187(16)
C17 C 0.6178(2) 0.94744(16) 0.70246(16)
C18 C 0.4717(2) 0.91823(16) 0.62589(16)
C19 C 0.3560(3) 0.9599(2) 0.62643(19)
H14 H 0.3617 1.0157 0.6821
C20 C 0.2334(3) 0.9038(2) 0.5307(2)
H15 H 0.1408 0.9143 0.5085
C21 C 0.2751(2) 0.82786(19) 0.47302(17)
C22 C 0.6713(2) 1.03061(17) 0.81123(16)
H16 H 0.6180 1.0877 0.7993
H17 H 0.7768 1.0751 0.8328
C23 C 0.6470(3) 0.9615(2) 0.90736(18)
H18 H 0.5409 0.9212 0.8874
H19 H 0.6944 0.9006 0.9152
C24 C 0.7087(3) 1.0411(2) 1.01974(19)
H20 H 0.8140 1.0804 1.0406
H21 H 0.6912 0.9935 1.0771
H22 H 0.6600 1.1002 1.0132
Cl3 Cl 0.16468(7) 0.73671(6) 0.34785(5)
Cl4 Cl 0.77346(7) 0.67108(6) 0.49485(5)
F3 F 0.50353(15) 0.77144(12) 0.38931(9)
F4 F 0.43897(13) 0.64012(10) 0.50443(11)
N3 N 0.66518(17) 0.80884(14) 0.58690(13)
N4 N 0.41708(17) 0.83470(13) 0.52799(12)
loop_
_geom_bond_atom_site_label_1
_geom_bond_atom_site_label_2
_geom_bond_site_symmetry_1
_geom_bond_site_symmetry_2
B1 F1 1_555 1_555
C1 C2 1_555 1_555
C2 H1 1_555 1_555
C3 C2 1_555 1_555
H2 C3 1_555 1_555
C4 C3 1_555 1_555
C5 C4 1_555 1_555
C6 C5 1_555 1_555
C7 C6 1_555 1_555
H3 C7 1_555 1_555
C8 C7 1_555 1_555
H4 C8 1_555 1_555
C9 C8 1_555 1_555
C10 C5 1_555 1_555
H5 C10 1_555 1_555
H6 C10 1_555 1_555
C11 C10 1_555 1_555
H7 C11 1_555 1_555
H8 C11 1_555 1_555
C12 C11 1_555 1_555
H9 C12 1_555 1_555
H10 C12 1_555 1_555
H11 C12 1_555 1_555
Cl1 C1 1_555 1_555
Cl2 C9 1_555 1_555
F2 B1 1_555 1_555
N1 B1 1_555 1_555
N2 B1 1_555 1_555
B2 F3 1_555 1_555
C13 C14 1_555 1_555
C14 H12 1_555 1_555
C15 C14 1_555 1_555
H13 C15 1_555 1_555
C16 C15 1_555 1_555
C17 C16 1_555 1_555
C18 C17 1_555 1_555
C19 C18 1_555 1_555
H14 C19 1_555 1_555
C20 C19 1_555 1_555
H15 C20 1_555 1_555
C21 C20 1_555 1_555
C22 C17 1_555 1_555
H16 C22 1_555 1_555
H17 C22 1_555 1_555
C23 C22 1_555 1_555
H18 C23 1_555 1_555
H19 C23 1_555 1_555
C24 C23 1_555 1_555
H20 C24 1_555 1_555
H21 C24 1_555 1_555
H22 C24 1_555 1_555
Cl3 C21 1_555 1_555
Cl4 C13 1_555 1_555
F4 B2 1_555 1_555
N3 B2 1_555 1_555
N4 B2 1_555 1_555
C1 N1 1_555 1_555
C4 N1 1_555 1_555
C6 N2 1_555 1_555
C9 N2 1_555 1_555
C13 N3 1_555 1_555
C16 N3 1_555 1_555
C18 N4 1_555 1_555
C21 N4 1_555 1_555

#END
