
#######################################################################
#
#                 Cambridge Crystallographic Data Centre
#                                CCDC 
#
#######################################################################
#
# If this CIF has been generated from an entry in the Cambridge 
# Structural Database, then it will include bibliographic, chemical, 
# crystal, experimental, refinement or atomic coordinate data resulting 
# from the CCDC's data processing and validation procedures.
#
#######################################################################

data_GUNHII
_chemical_formula_moiety         '2(K1 1+),C12 H20 O4 2-,1.5(C3 H7 N1 O1)'
_chemical_name_systematic        
"bis(Potassium) (+-)-\a,\a'-di-t-butylsuccinate N,N-dimethylformamide solvate"
_symmetry_cell_setting           triclinic
_symmetry_space_group_name_H-M   'P -1'
_symmetry_Int_Tables_number      2
_space_group_name_Hall           '-P 1'
loop_
_symmetry_equiv_pos_site_id
_symmetry_equiv_pos_as_xyz
1 x,y,z
2 -x,-y,-z
_cell_length_a                   12.9463(13)
_cell_length_b                   13.1712(14)
_cell_length_c                   14.2459(15)
_cell_angle_alpha                102.253(8)
_cell_angle_beta                 106.079(8)
_cell_angle_gamma                95.609(8)
_cell_volume                     2249.07
_exptl_crystal_colour            colorless
_exptl_crystal_description       Needle
_cell_formula_units_Z            4
loop_
_atom_site_label
_atom_site_type_symbol
_atom_site_fract_x
_atom_site_fract_y
_atom_site_fract_z
C1 C 0.3943(5) 0.8533(5) 1.0809(5)
C2 C 0.4565(5) 0.7953(5) 1.1542(4)
H1 H 0.4087 0.7810 1.1960
C3 C 0.5642(5) 0.8628(5) 1.2294(4)
H2 H 0.6203 0.8155 1.2343
C4 C 0.6070(4) 0.9550(5) 1.1917(4)
C5 C 0.4705(6) 0.6841(5) 1.0960(5)
C6 C 0.5572(6) 0.6902(6) 1.0421(5)
H3 H 0.5691 0.6190 1.0151
H4 H 0.6255 0.7317 1.0900
H5 H 0.5324 0.7239 0.9866
C7 C 0.3641(7) 0.6299(6) 1.0185(6)
H6 H 0.3487 0.6649 0.9631
H7 H 0.3055 0.6335 1.0497
H8 H 0.3686 0.5560 0.9921
C8 C 0.5036(7) 0.6153(6) 1.1703(6)
H9 H 0.4444 0.6012 1.1985
H10 H 0.5695 0.6522 1.2249
H11 H 0.5182 0.5485 1.1348
C9 C 0.5578(6) 0.9042(6) 1.3396(5)
C10 C 0.4654(7) 0.9661(6) 1.3420(6)
H12 H 0.4624 0.9870 1.4114
H13 H 0.3963 0.9221 1.2985
H14 H 0.4779 1.0291 1.3179
C11 C 0.5432(7) 0.8111(6) 1.3855(5)
H15 H 0.6024 0.7706 1.3834
H16 H 0.4731 0.7659 1.3469
H17 H 0.5447 0.8373 1.4557
C12 C 0.6663(8) 0.9752(7) 1.4033(5)
H18 H 0.6669 0.9965 1.4737
H19 H 0.6748 1.0379 1.3777
H20 H 0.7265 0.9364 1.3993
O1 O 0.5629(3) 1.0345(3) 1.1962(3)
O2 O 0.6884(3) 0.9465(4) 1.1600(3)
O3 O 0.3075(4) 0.8808(4) 1.0909(4)
O4 O 0.4321(3) 0.8724(3) 1.0126(3)
K1 K 0.59265(10) 0.91368(11) 0.94185(10)
C13 C 0.4382(7) 0.7276(7) 0.7042(6)
C14 C 0.4629(9) 0.5459(7) 0.6483(8)
H21 H 0.4801 0.5480 0.7203
H22 H 0.5249 0.5284 0.6250
H23 H 0.3985 0.4923 0.6100
C15 C 0.4174(9) 0.6575(10) 0.5297(7)
H24 H 0.4161 0.7319 0.5301
H25 H 0.3463 0.6156 0.4886
H26 H 0.4740 0.6330 0.5012
N1 N 0.4413(6) 0.6457(5) 0.6335(5)
O5 O 0.4524(5) 0.7230(5) 0.7919(4)
K2 K 0.28430(10) 0.83381(11) 0.83273(10)
C16 C 0.8415(14) 0.6244(15) 1.2097(15)
C17 C 0.7989(12) 0.4647(11) 1.2618(11)
C18 C 0.841(2) 0.6429(18) 1.3726(14)
N2 N 0.8275(9) 0.5811(9) 1.2784(8)
O6 O 0.8662(15) 0.7306(14) 1.2314(13)
C19 C 0.1476(12) 0.8235(14) 0.5868(12)
C20 C 0.1340 0.7483 0.4164
C21 C 0.0603 0.9111 0.4556
N3 N 0.1118 0.8211 0.4903
O7 O 0.1465(18) 0.7431(19) 0.6341(15)
C22 C 0.8568(5) 0.8017(6) 0.9342(5)
C23 C 0.8424(5) 0.7172(5) 0.8372(5)
H27 H 0.7621 0.6995 0.8023
C24 C 0.8929(5) 0.7563(5) 0.7620(5)
H28 H 0.9272 0.6974 0.7331
C25 C 0.9849(5) 0.8514(6) 0.8128(5)
C26 C 0.8778(7) 0.6132(6) 0.8622(6)
C27 C 0.8294(8) 0.5864(7) 0.9401(7)
H29 H 0.8430 0.5164 0.9484
H30 H 0.7507 0.5864 0.9181
H31 H 0.8631 0.6388 1.0045
C28 C 0.9998(7) 0.6192(8) 0.8982(7)
H32 H 1.0300 0.6696 0.9643
H33 H 1.0316 0.6424 0.8499
H34 H 1.0170 0.5495 0.9039
C29 C 0.8307(10) 0.5215(6) 0.7666(7)
H35 H 0.8453 0.4549 0.7837
H36 H 0.8651 0.5326 0.7156
H37 H 0.7518 0.5187 0.7399
C30 C 0.8077(5) 0.7797(6) 0.6700(5)
C31 C 0.7349(6) 0.8576(7) 0.7014(7)
H38 H 0.6829 0.8679 0.6410
H39 H 0.7804 0.9252 0.7413
H40 H 0.6951 0.8291 0.7421
C32 C 0.8702(7) 0.8237(7) 0.6067(6)
H41 H 0.8186 0.8286 0.5435
H42 H 0.9209 0.7768 0.5916
H43 H 0.9111 0.8939 0.6444
C33 C 0.7354(7) 0.6764(7) 0.6044(6)
H44 H 0.7005 0.6426 0.6454
H45 H 0.7799 0.6296 0.5768
H46 H 0.6793 0.6908 0.5489
O8 O 0.9638(4) 0.9387(4) 0.8473(4)
O9 O 1.0807(4) 0.8365(5) 0.8161(4)
O10 O 0.7782(4) 0.8477(4) 0.9434(4)
O11 O 0.9461(4) 0.8210(4) 1.0024(4)
K3 K 0.87371(10) 1.05331(12) 0.96435(11)
K4 K 0.87845(11) 0.91092(13) 1.15893(11)
C34? C 0.2241 0.7779 0.4004
C35? C 0.0681 0.8584 0.3829
N4? N 0.1357 0.8228 0.3466
O12? O 0.1975(12) 0.7537(14) 0.6157(11)
O13? O -0.0130(9) 0.8961(11) 0.3372(8)
C36? C 0.9579 0.5085 1.4251
N5? N 0.8927(19) 0.5298(16) 1.344(2)
O14? O 1.0276 0.5504 1.5011
C37? C 0.1331 0.8176 0.2360
loop_
_geom_bond_atom_site_label_1
_geom_bond_atom_site_label_2
_geom_bond_site_symmetry_1
_geom_bond_site_symmetry_2
C1 C2 1_555 1_555
C2 H1 1_555 1_555
C3 C2 1_555 1_555
H2 C3 1_555 1_555
C4 C3 1_555 1_555
C5 C2 1_555 1_555
C6 C5 1_555 1_555
H3 C6 1_555 1_555
H4 C6 1_555 1_555
H5 C6 1_555 1_555
C7 C5 1_555 1_555
H6 C7 1_555 1_555
H7 C7 1_555 1_555
H8 C7 1_555 1_555
C8 C5 1_555 1_555
H9 C8 1_555 1_555
H10 C8 1_555 1_555
H11 C8 1_555 1_555
C9 C3 1_555 1_555
C10 C9 1_555 1_555
H12 C10 1_555 1_555
H13 C10 1_555 1_555
H14 C10 1_555 1_555
C11 C9 1_555 1_555
H15 C11 1_555 1_555
H16 C11 1_555 1_555
H17 C11 1_555 1_555
C12 C9 1_555 1_555
H18 C12 1_555 1_555
H19 C12 1_555 1_555
H20 C12 1_555 1_555
O1 C4 1_555 1_555
O2 C4 1_555 1_555
O3 C1 1_555 1_555
O4 C1 1_555 1_555
C13 N1 1_555 1_555
C14 H21 1_555 1_555
H22 C14 1_555 1_555
H23 C14 1_555 1_555
C15 H24 1_555 1_555
H25 C15 1_555 1_555
H26 C15 1_555 1_555
N1 C14 1_555 1_555
O5 C13 1_555 1_555
C16 N2 1_555 1_555
C17 N2 1_555 1_555
C18 N2 1_555 1_555
O6 C16 1_555 1_555
C19 N3 1_555 1_555
C20 N3 1_555 1_555
C21 N3 1_555 1_555
O7 C19 1_555 1_555
C22 C23 1_555 1_555
C23 H27 1_555 1_555
C24 C23 1_555 1_555
H28 C24 1_555 1_555
C25 C24 1_555 1_555
C26 C23 1_555 1_555
C27 C26 1_555 1_555
H29 C27 1_555 1_555
H30 C27 1_555 1_555
H31 C27 1_555 1_555
C28 C26 1_555 1_555
H32 C28 1_555 1_555
H33 C28 1_555 1_555
H34 C28 1_555 1_555
C29 C26 1_555 1_555
H35 C29 1_555 1_555
H36 C29 1_555 1_555
H37 C29 1_555 1_555
C30 C24 1_555 1_555
C31 C30 1_555 1_555
H38 C31 1_555 1_555
H39 C31 1_555 1_555
H40 C31 1_555 1_555
C32 C30 1_555 1_555
H41 C32 1_555 1_555
H42 C32 1_555 1_555
H43 C32 1_555 1_555
C33 C30 1_555 1_555
H44 C33 1_555 1_555
H45 C33 1_555 1_555
H46 C33 1_555 1_555
O8 C25 1_555 1_555
O9 C25 1_555 1_555
O10 C22 1_555 1_555
O11 C22 1_555 1_555
C15 N1 1_555 1_555

#END
