
#######################################################################
#
#                 Cambridge Crystallographic Data Centre
#                                CCDC 
#
#######################################################################
#
# If this CIF has been generated from an entry in the Cambridge 
# Structural Database, then it will include bibliographic, chemical, 
# crystal, experimental, refinement or atomic coordinate data resulting 
# from the CCDC's data processing and validation procedures.
#
#######################################################################

data_GUNWAP
_chemical_formula_moiety         'C100 H88 I2 N6 O16,15(C1 H1 Cl3)'
_chemical_name_systematic        
"2,8,14,20-Tetrahexyl-4,24:12,16-bis(O,O'-1,4-dioxo-1,4-dihydronaphthalene-2,3-diyl)-6,10:18,22-bis(O,O'-6-(4-iodo-2,6-dimethylphenyl)-5,7-dioxo-6,7-dihydro-5H-pyrrolo[3,4-b]pyrazine-2,3-diyl)calix[4]resorcinarene cavitand chloroform solvate"
_symmetry_cell_setting           monoclinic
_symmetry_space_group_name_H-M   'P 21/n'
_symmetry_Int_Tables_number      14
_space_group_name_Hall           '-P 2yn'
loop_
_symmetry_equiv_pos_site_id
_symmetry_equiv_pos_as_xyz
1 x,y,z
2 1/2-x,1/2+y,1/2-z
3 -x,-y,-z
4 1/2+x,1/2-y,1/2+z
_cell_length_a                   27.741(2)
_cell_length_b                   29.059(3)
_cell_length_c                   38.382(3)
_cell_angle_alpha                90
_cell_angle_beta                 106.309(4)
_cell_angle_gamma                90
_cell_volume                     29695.7
_exptl_crystal_colour            yellow
_cell_formula_units_Z            8
loop_
_atom_site_label
_atom_site_type_symbol
_atom_site_fract_x
_atom_site_fract_y
_atom_site_fract_z
I1 I 0.12668(6) 0.60847(6) 1.04047(3)
I2 I 0.47475(6) 0.62862(6) 0.42831(4)
O1 O 0.0466(4) 0.6913(5) 0.8566(3)
O2 O 0.0999(4) 0.7623(5) 0.7487(3)
O3 O 0.1008(4) 0.7893(4) 0.6282(3)
O4 O 0.0503(4) 0.7749(4) 0.5616(3)
O5 O 0.2289(5) 0.6968(4) 0.6039(3)
O6 O 0.1988(4) 0.7451(4) 0.6555(3)
O7 O 0.3772(4) 0.7450(4) 0.6975(3)
O8 O 0.3761(5) 0.6697(5) 0.5709(4)
O9 O 0.5423(4) 0.7106(5) 0.6131(3)
O10 O 0.4783(4) 0.7808(4) 0.7162(3)
O11 O 0.4751(4) 0.7959(4) 0.8380(3)
O12 O 0.5233(4) 0.7846(6) 0.9050(3)
O13 O 0.3518(4) 0.6935(5) 0.8586(3)
O14 O 0.3811(4) 0.7463(4) 0.8089(3)
O15 O 0.2022(4) 0.7356(4) 0.7669(3)
O16 O 0.2140(4) 0.6583(4) 0.8946(3)
N1 N 0.1303(5) 0.6722(5) 0.8852(4)
N2 N 0.0909(5) 0.7252(6) 0.7969(4)
N3 N 0.3889(5) 0.7162(5) 0.6443(4)
N4 N 0.4593(6) 0.6871(6) 0.5825(4)
N5 N 0.4900(5) 0.7437(5) 0.6677(3)
N6 N 0.1958(5) 0.7044(5) 0.8200(4)
C1 C 0.0890(6) 0.6895(6) 0.8562(5)
C2 C 0.1130(7) 0.7039(7) 0.8277(5)
C3 C 0.1215(7) 0.7377(7) 0.7780(5)
C4 C 0.1249(8) 0.7854(8) 0.7258(5)
C5 C 0.1027(7) 0.7760(7) 0.6899(5)
H1 H 0.0707 0.7546 0.6813
C6 C 0.1252(6) 0.7968(7) 0.6646(5)
C7 C 0.1218(6) 0.7594(6) 0.6099(4)
C8 C 0.0885(7) 0.7530(7) 0.5730(5)
C9 C 0.1049(7) 0.7185(7) 0.5494(5)
C10 C 0.0694(8) 0.7040(7) 0.5156(5)
H2 H 0.0322 0.7170 0.5087
C11 C 0.0825(8) 0.6748(8) 0.4930(6)
H3 H 0.0563 0.6656 0.4681
C12 C 0.1335(8) 0.6555(8) 0.5027(6)
H4 H 0.1463 0.6321 0.4860
C13 C 0.1636(7) 0.6711(7) 0.5364(5)
H5 H 0.2012 0.6592 0.5448
C14 C 0.1491(6) 0.7000(6) 0.5590(4)
C15 C 0.1879(6) 0.7124(6) 0.5945(4)
C16 C 0.1677(6) 0.7410(6) 0.6196(4)
C17 C 0.2435(6) 0.7713(6) 0.6621(5)
C18 C 0.2887(6) 0.7454(6) 0.6747(4)
H6 H 0.2877 0.7092 0.6778
C19 C 0.3322(6) 0.7680(6) 0.6824(4)
C20 C 0.4088(6) 0.7382(6) 0.6756(4)
C21 C 0.4204(7) 0.7078(7) 0.6260(5)
C22 C 0.4130(7) 0.6851(7) 0.5890(5)
C23 C 0.4971(6) 0.7072(6) 0.6108(4)
C24 C 0.4712(6) 0.7212(6) 0.6385(4)
C25 C 0.4571(6) 0.7549(6) 0.6870(4)
C26 C 0.4527(6) 0.7992(6) 0.7405(4)
C27 C 0.4744(6) 0.7903(6) 0.7762(4)
H7 H 0.5082 0.7712 0.7844
C28 C 0.4522(6) 0.8059(6) 0.8012(4)
C29 C 0.4544(6) 0.7651(6) 0.8578(4)
C30 C 0.4874(6) 0.7598(6) 0.8946(4)
C31 C 0.4731(6) 0.7248(6) 0.9166(4)
C32 C 0.5052(6) 0.7141(6) 0.9515(4)
H8 H 0.5407 0.7304 0.9609
C33 C 0.4905(7) 0.6825(7) 0.9730(5)
H9 H 0.5139 0.6762 0.9996
C34 C 0.4458(8) 0.6590(8) 0.9608(6)
H10 H 0.4364 0.6328 0.9771
C35 C 0.4133(7) 0.6696(7) 0.9274(5)
H11 H 0.3777 0.6534 0.9190
C36 C 0.4267(6) 0.7013(6) 0.9044(4)
C37 C 0.3932(6) 0.7103(5) 0.8690(4)
C38 C 0.4113(6) 0.7424(6) 0.8444(4)
C39 C 0.3350(6) 0.7681(6) 0.8034(4)
C40 C 0.2925(6) 0.7405(6) 0.7905(4)
H12 H 0.2955 0.7046 0.7867
C41 C 0.2478(6) 0.7615(6) 0.7832(4)
C42 C 0.1734(6) 0.7250(6) 0.7889(4)
C43 C 0.1636(6) 0.6943(6) 0.8399(4)
C44 C 0.1735(6) 0.6730(6) 0.8763(4)
C45 C 0.1275(6) 0.6594(6) 0.9192(5)
C46 C 0.1047(7) 0.6168(6) 0.9249(5)
C47 C 0.0814(7) 0.5864(7) 0.8916(5)
H13 H 0.0540 0.6061 0.8716
H14 H 0.0633 0.5571 0.8998
H15 H 0.1106 0.5747 0.8801
C48 C 0.1045(7) 0.6029(7) 0.9591(5)
H16 H 0.0898 0.5703 0.9630
C49 C 0.1236(6) 0.6316(6) 0.9883(4)
C50 C 0.1441(7) 0.6741(7) 0.9862(5)
H17 H 0.1585 0.6952 1.0093
C51 C 0.1449(6) 0.6883(6) 0.9493(4)
C52 C 0.1681(7) 0.7345(6) 0.9453(5)
H18 H 0.1971 0.7299 0.9318
H19 H 0.1843 0.7493 0.9718
H20 H 0.1395 0.7572 0.9294
C53 C 0.1636(7) 0.8168(7) 0.7389(5)
C54 C 0.1825(6) 0.8370(6) 0.7115(4)
H21 H 0.2133 0.8599 0.7201
C55 C 0.1645(6) 0.8294(6) 0.6754(4)
C56 C 0.1986(6) 0.8964(6) 0.6491(4)
H22 H 0.2177 0.9074 0.6763
H23 H 0.2216 0.9062 0.6317
C57 C 0.1483(6) 0.9214(6) 0.6364(5)
H24 H 0.1231 0.9018 0.6149
H25 H 0.1317 0.9237 0.6586
C58 C 0.1545(6) 0.9691(6) 0.6227(4)
H26 H 0.1699 0.9664 0.6000
H27 H 0.1811 0.9879 0.6439
C59 C 0.1047(7) 0.9970(8) 0.6108(5)
H28 H 0.1107 1.0277 0.5967
H29 H 0.0764 0.9765 0.5922
C60 C 0.0863(8) 1.0104(8) 0.6423(5)
H30 H 0.1148 1.0303 0.6614
H31 H 0.0789 0.9799 0.6561
C61 C 0.0369(9) 1.0397(9) 0.6289(7)
H32 H 0.0089 1.0202 0.6092
H33 H 0.0449 1.0711 0.6165
H34 H 0.0229 1.0480 0.6517
C62 C 0.2885(6) 0.8405(6) 0.6650(4)
H35 H 0.2883 0.8763 0.6599
C63 C 0.3358(6) 0.8166(6) 0.6785(4)
C64 C 0.3845(6) 0.8405(6) 0.6886(4)
H36 H 0.4068 0.8250 0.6727
C65 C 0.3860(6) 0.8928(6) 0.6825(4)
H37 H 0.3647 0.9003 0.6549
H38 H 0.3676 0.9098 0.7003
C66 C 0.4360(8) 0.9117(8) 0.6888(6)
H39 H 0.4553 0.8933 0.6723
H40 H 0.4566 0.9063 0.7169
C67 C 0.4366(9) 0.9633(8) 0.6802(6)
H41 H 0.4735 0.9722 0.6781
H42 H 0.4102 0.9695 0.6540
C68 C 0.4239(9) 0.9949(9) 0.7077(6)
H43 H 0.4517 0.9906 0.7336
H44 H 0.3879 0.9851 0.7110
C69 C 0.4220(9) 1.0460(9) 0.6966(6)
H45 H 0.4563 1.0544 0.6898
H46 H 0.3912 1.0509 0.6724
C70 C 0.4158(10) 1.0797(10) 0.7260(7)
H47 H 0.3801 1.0971 0.7166
H48 H 0.4458 1.1047 0.7315
H49 H 0.4172 1.0609 0.7505
C71 C 0.4107(6) 0.8285(6) 0.7286(4)
C72 C 0.3901(6) 0.8444(6) 0.7549(4)
H50 H 0.3588 0.8668 0.7467
C73 C 0.4074(6) 0.8334(6) 0.7919(4)
C74 C 0.4162(7) 0.9253(7) 0.8292(5)
H51 H 0.4413 0.9118 0.8539
H52 H 0.4347 0.9226 0.8080
C75 C 0.4054(9) 0.9742(9) 0.8345(7)
H53 H 0.3851 0.9761 0.8547
H54 H 0.3810 0.9873 0.8094
C76 C 0.4541(14) 1.0077(13) 0.8471(10)
H55 H 0.4453 1.0387 0.8595
H56 H 0.4851 0.9904 0.8659
C77 C 0.5077(12) 1.0590(12) 0.8273(9)
H57 H 0.5119 1.0726 0.8056
H58 H 0.5391 1.0464 0.8414
H59 H 0.4967 1.0820 0.8413
C78 C 0.3783(6) 0.8445(6) 0.8182(4)
H60 H 0.4009 0.8347 0.8450
C79 C 0.3313(6) 0.8143(6) 0.8085(4)
C80 C 0.2829(6) 0.8338(6) 0.8013(4)
H61 H 0.2791 0.8694 0.8062
C81 C 0.2410(7) 0.8078(7) 0.7881(5)
C82 C 0.1866(7) 0.8277(7) 0.7779(5)
H62 H 0.1661 0.8082 0.7930
C83 C 0.1836(7) 0.8764(7) 0.7878(5)
H63 H 0.2058 0.8970 0.7747
H64 H 0.1990 0.8803 0.8168
C84 C 0.1281(8) 0.8939(7) 0.7762(5)
H65 H 0.1140 0.8915 0.7470
H66 H 0.1058 0.8711 0.7876
C85 C 0.1205(7) 0.9418(7) 0.7871(5)
H67 H 0.1466 0.9639 0.7789
H68 H 0.1298 0.9430 0.8164
C86 C 0.0687(8) 0.9608(8) 0.7719(6)
H69 H 0.0574 0.9561 0.7429
H70 H 0.0430 0.9415 0.7828
C87 C 0.0644(9) 1.0097(9) 0.7799(7)
H71 H 0.0774 1.0143 0.8090
H72 H 0.0251 1.0189 0.7714
C88 C 0.0921(12) 1.0420(11) 0.7629(8)
H73 H 0.0876 1.0319 0.7351
H74 H 0.1315 1.0415 0.7777
H75 H 0.0775 1.0764 0.7635
C89 C 0.4669(8) 0.6754(7) 0.5475(5)
C90 C 0.4965(7) 0.6364(7) 0.5444(4)
C91 C 0.5247(8) 0.6092(9) 0.5772(5)
H76 H 0.5531 0.6307 0.5948
H77 H 0.5424 0.5799 0.5686
H78 H 0.4989 0.5975 0.5918
C92 C 0.4989(7) 0.6258(8) 0.5098(5)
H79 H 0.5217 0.5980 0.5061
C93 C 0.4740(10) 0.6491(9) 0.4820(8)
C94 C 0.4481(7) 0.6896(7) 0.4836(5)
H80 H 0.4319 0.7094 0.4601
C95 C 0.4445(6) 0.7031(7) 0.5182(4)
C96 C 0.4193(8) 0.7456(9) 0.5219(6)
H81 H 0.3841 0.7380 0.5274
H82 H 0.4123 0.7652 0.4970
H83 H 0.4427 0.7655 0.5440
C97 C 0.1935(6) 0.8427(6) 0.6487(4)
H84 H 0.1719 0.8322 0.6218
C98 C 0.2425(5) 0.8163(5) 0.6587(4)
C99 C 0.3674(6) 0.8966(6) 0.8188(5)
H85 H 0.3446 0.9071 0.7923
H86 H 0.3464 0.9032 0.8381
C100 C 0.4645(15) 1.0169(15) 0.8163(11)
H87 H 0.4314 1.0284 0.7958
H88 H 0.4795 0.9869 0.8063
I3 I 0.45116(7) 0.89088(7) -0.07038(4)
I4 I 0.11200(6) 0.88866(6) 0.53741(4)
O17 O 0.5321(4) 0.8049(5) 0.1123(3)
O18 O 0.4816(4) 0.7296(4) 0.2194(3)
O19 O 0.4819(4) 0.7103(4) 0.3418(3)
O20 O 0.5337(4) 0.7343(5) 0.4056(3)
O21 O 0.3503(4) 0.8013(5) 0.3626(3)
O22 O 0.3824(4) 0.7532(4) 0.3125(3)
O23 O 0.2038(4) 0.7498(4) 0.2723(3)
O24 O 0.2121(4) 0.8302(4) 0.3979(3)
O25 O 0.0456(4) 0.7910(4) 0.3596(3)
O26 O 0.1057(4) 0.7121(5) 0.2570(3)
O27 O 0.1059(4) 0.6970(4) 0.1339(3)
O28 O 0.0573(5) 0.7097(5) 0.0672(3)
O29 O 0.2298(4) 0.7989(5) 0.1121(4)
O30 O 0.2003(4) 0.7463(4) 0.1620(3)
O31 O 0.3781(4) 0.7575(4) 0.2026(3)
O32 O 0.3616(5) 0.8302(5) 0.0732(3)
N7 N 0.4472(5) 0.8231(5) 0.0834(4)
N8 N 0.4882(5) 0.7671(5) 0.1701(4)
N9 N 0.1949(5) 0.7809(5) 0.3249(3)
N10 N 0.1276(5) 0.8130(5) 0.3882(4)
N11 N 0.0920(5) 0.7533(6) 0.3019(4)
N12 N 0.3849(5) 0.7873(5) 0.1490(3)
C101 C 0.1388(6) 0.8032(6) 0.4521(4)
C102 C 0.4890(6) 0.8055(6) 0.1124(4)
C103 C 0.4649(7) 0.7899(7) 0.1409(5)
C104 C 0.4583(6) 0.7542(6) 0.1902(4)
C105 C 0.4580(6) 0.7080(6) 0.2427(4)
C106 C 0.4794(6) 0.7182(6) 0.2789(4)
H89 H 0.5112 0.7401 0.2867
C107 C 0.4594(6) 0.6998(6) 0.3047(4)
C108 C 0.4585(6) 0.7399(6) 0.3602(4)
C109 C 0.4938(6) 0.7529(6) 0.3953(4)
C110 C 0.4761(7) 0.7872(6) 0.4185(5)
C111 C 0.5081(6) 0.8001(6) 0.4516(4)
H90 H 0.5448 0.7860 0.4603
C112 C 0.4926(7) 0.8312(7) 0.4731(5)
H91 H 0.5172 0.8432 0.4978
C113 C 0.4426(7) 0.8461(7) 0.4609(5)
H92 H 0.4292 0.8692 0.4774
C114 C 0.4117(7) 0.8330(7) 0.4300(5)
H93 H 0.3745 0.8461 0.4224
C115 C 0.4260(6) 0.8021(6) 0.4064(4)
C116 C 0.3926(6) 0.7889(6) 0.3715(4)
C117 C 0.4125(6) 0.7596(6) 0.3480(4)
C118 C 0.2932(6) 0.7526(6) 0.2935(4)
H94 H 0.2923 0.7885 0.2884
C119 C 0.2503(6) 0.7270(6) 0.2873(4)
C120 C 0.1759(6) 0.7576(6) 0.2944(4)
C121 C 0.1615(7) 0.7881(7) 0.3434(5)
C122 C 0.1725(6) 0.8127(6) 0.3796(4)
C123 C 0.0877(7) 0.7942(7) 0.3601(5)
C124 C 0.1134(6) 0.7778(6) 0.3318(5)
C125 C 0.1258(7) 0.7409(7) 0.2856(5)
C126 C 0.1301(6) 0.6936(6) 0.2332(5)
C127 C 0.1076(7) 0.7047(7) 0.1967(5)
H95 H 0.0751 0.7257 0.1890
C128 C 0.1296(6) 0.6873(6) 0.1708(5)
C129 C 0.1261(6) 0.7278(6) 0.1158(4)
C130 C 0.0935(6) 0.7329(6) 0.0767(4)
C131 C 0.1101(6) 0.7667(6) 0.0534(4)
C132 C 0.0779(8) 0.7719(8) 0.0191(5)
H96 H 0.0441 0.7529 0.0097
C133 C 0.0938(8) 0.8049(8) -0.0027(6)
H97 H 0.0696 0.8113 -0.0290
C134 C 0.1373(7) 0.8287(7) 0.0074(5)
H98 H 0.1477 0.8532 -0.0096
C135 C 0.1673(7) 0.8183(6) 0.0423(5)
H99 H 0.2027 0.8346 0.0520
C136 C 0.1530(7) 0.7891(7) 0.0633(5)
C137 C 0.1884(6) 0.7798(6) 0.1018(4)
C138 C 0.1698(6) 0.7496(6) 0.1262(4)
C139 C 0.2481(6) 0.7241(6) 0.1689(4)
C140 C 0.2897(6) 0.7507(6) 0.1812(4)
H100 H 0.2864 0.7865 0.1852
C141 C 0.3359(5) 0.7305(5) 0.1882(4)
C142 C 0.4068(6) 0.7679(6) 0.1797(4)
C143 C 0.4146(6) 0.7978(6) 0.1296(4)
C144 C 0.4013(6) 0.8198(6) 0.0922(4)
C145 C 0.4493(7) 0.8364(7) 0.0475(5)
C146 C 0.4351(6) 0.8056(6) 0.0198(4)
C147 C 0.4174(7) 0.7607(7) 0.0224(5)
H101 H 0.4417 0.7438 0.0459
H102 H 0.4172 0.7416 -0.0018
H103 H 0.3797 0.7623 0.0251
C148 C 0.4368(6) 0.8231(6) -0.0137(5)
H104 H 0.4263 0.8010 -0.0365
C149 C 0.4509(7) 0.8662(7) -0.0189(5)
C150 C 0.4682(9) 0.8990(9) 0.0107(6)
H105 H 0.4808 0.9326 0.0067
C151 C 0.4779(12) 0.9186(11) 0.0763(8)
H106 H 0.4447 0.9235 0.0853
H107 H 0.4885 0.9509 0.0667
H108 H 0.5082 0.9063 0.0987
C152 C 0.4192(6) 0.6774(6) 0.2319(4)
C153 C 0.3997(6) 0.6584(6) 0.2589(4)
H109 H 0.3701 0.6341 0.2510
C154 C 0.4179(6) 0.6702(6) 0.2958(4)
C155 C 0.3899(5) 0.6549(5) 0.3222(4)
H110 H 0.4116 0.6650 0.3492
C156 C 0.3821(6) 0.6022(6) 0.3220(5)
H111 H 0.3584 0.5919 0.2957
H112 H 0.3629 0.5934 0.3420
C157 C 0.4330(6) 0.5748(6) 0.3305(5)
H113 H 0.4536 0.5840 0.3114
H114 H 0.4561 0.5824 0.3576
C158 C 0.4184(8) 0.5225(7) 0.3268(6)
H115 H 0.3958 0.5155 0.2995
H116 H 0.3961 0.5145 0.3451
C159 C 0.4674(7) 0.4903(7) 0.3362(5)
H117 H 0.4910 0.4993 0.3191
H118 H 0.4888 0.4950 0.3642
C160 C 0.4508(7) 0.4410(7) 0.3298(5)
H119 H 0.4243 0.4375 0.3033
H120 H 0.4327 0.4303 0.3499
C161 C 0.4992(8) 0.4097(8) 0.3324(6)
H121 H 0.4880 0.3788 0.3167
H122 H 0.5166 0.4007 0.3604
H123 H 0.5256 0.4286 0.3219
C162 C 0.3390(5) 0.7282(5) 0.3073(4)
C163 C 0.3390(6) 0.6807(6) 0.3131(4)
C164 C 0.2925(6) 0.6583(6) 0.3052(4)
H124 H 0.2915 0.6222 0.3087
C165 C 0.2501(6) 0.6808(6) 0.2935(4)
C166 C 0.1963(6) 0.6548(6) 0.2829(5)
H125 H 0.1742 0.6697 0.2991
C167 C 0.2034(7) 0.6043(7) 0.2927(5)
H126 H 0.2350 0.5911 0.2846
H127 H 0.1704 0.5854 0.2780
C168 C 0.2125(12) 0.5966(11) 0.3335(8)
H128 H 0.1790 0.6059 0.3409
H129 H 0.2424 0.6189 0.3481
C169 C 0.2277(10) 0.5417(9) 0.3462(7)
H130 H 0.2026 0.5188 0.3274
H131 H 0.2654 0.5349 0.3450
C170 C 0.2245(9) 0.5326(9) 0.3831(6)
H132 H 0.2446 0.5013 0.3929
H133 H 0.2430 0.5603 0.4007
C171 C 0.1746(8) 0.5284(9) 0.3859(6)
H134 H 0.1568 0.5004 0.3686
H135 H 0.1545 0.5594 0.3750
C172 C 0.1668(11) 0.5198(10) 0.4256(7)
H136 H 0.1359 0.4963 0.4233
H137 H 0.1586 0.5521 0.4366
H138 H 0.2007 0.5053 0.4434
C173 C 0.1707(6) 0.6661(6) 0.2437(4)
C174 C 0.1920(7) 0.6506(6) 0.2166(4)
H139 H 0.2252 0.6306 0.2246
C175 C 0.1723(6) 0.6598(6) 0.1807(4)
C176 C 0.2024(6) 0.6492(6) 0.1524(4)
H140 H 0.1805 0.6612 0.1261
C177 C 0.2094(6) 0.5979(6) 0.1501(4)
H141 H 0.2314 0.5856 0.1763
H142 H 0.2305 0.5911 0.1309
C178 C 0.1598(6) 0.5708(6) 0.1386(5)
H143 H 0.1458 0.5666 0.1621
H144 H 0.1325 0.5908 0.1189
C179 C 0.1637(6) 0.5248(6) 0.1231(5)
H145 H 0.1904 0.5048 0.1433
H146 H 0.1792 0.5293 0.1004
C180 C 0.1155(7) 0.4966(7) 0.1099(5)
H147 H 0.0879 0.5164 0.0902
H148 H 0.1233 0.4658 0.0966
C181 C 0.0936(7) 0.4829(7) 0.1407(5)
H149 H 0.0882 0.5133 0.1553
H150 H 0.1198 0.4607 0.1594
C182 C 0.0421(8) 0.4572(8) 0.1261(6)
H151 H 0.0448 0.4323 0.1058
H152 H 0.0129 0.4818 0.1142
H153 H 0.0330 0.4397 0.1483
C183 C 0.2498(5) 0.6775(5) 0.1638(4)
C184 C 0.2959(6) 0.6582(6) 0.1701(4)
H154 H 0.2988 0.6224 0.1654
C185 C 0.3405(5) 0.6847(5) 0.1828(4)
C186 C 0.3931(5) 0.6641(5) 0.1927(4)
H155 H 0.4130 0.6816 0.1761
C187 C 0.3959(6) 0.6125(6) 0.1847(4)
H156 H 0.3777 0.6060 0.1564
H157 H 0.3763 0.5932 0.2006
C188 C 0.4513(7) 0.5964(7) 0.1941(5)
H158 H 0.4715 0.6177 0.1800
H159 H 0.4686 0.6004 0.2229
C189 C 0.4547(7) 0.5458(7) 0.1835(5)
H160 H 0.4932 0.5380 0.1849
H161 H 0.4325 0.5412 0.1556
C190 C 0.4361(8) 0.5110(7) 0.2080(5)
H162 H 0.4576 0.5162 0.2358
H163 H 0.3972 0.5184 0.2060
C191 C 0.4404(10) 0.4618(9) 0.1982(7)
H164 H 0.4790 0.4551 0.1990
H165 H 0.4179 0.4566 0.1705
C192 C 0.4241(9) 0.4261(9) 0.2227(6)
H166 H 0.4253 0.3920 0.2119
H167 H 0.3863 0.4336 0.2235
H168 H 0.4493 0.4279 0.2499
C193 C 0.4668(9) 0.8827(8) 0.0451(6)
C194 C 0.1214(7) 0.8293(7) 0.4208(5)
C195 C 0.0984(7) 0.8724(7) 0.4232(5)
C196 C 0.0808(7) 0.9017(7) 0.3883(5)
H169 H 0.1127 0.9190 0.3834
H170 H 0.0538 0.9270 0.3916
H171 H 0.0635 0.8797 0.3656
C197 C 0.0954(6) 0.8894(6) 0.4568(4)
H172 H 0.0796 0.9221 0.4589
C198 C 0.1136(6) 0.8621(6) 0.4867(4)
C199 C 0.1346(6) 0.8214(6) 0.4864(5)
H173 H 0.1483 0.8023 0.5107
C200 C 0.1634(7) 0.7558(7) 0.4513(5)
H174 H 0.1548 0.7437 0.4237
H175 H 0.1490 0.7317 0.4673
H176 H 0.2036 0.7589 0.4625
Cl1 Cl 0.7874(2) 0.4116(2) 0.17886(16)
Cl2 Cl 0.6933(2) 0.3935(2) 0.19405(15)
Cl3 Cl 0.6960(2) 0.41254(19) 0.12121(14)
C201 C 0.7272(8) 0.3874(8) 0.1614(5)
H177 H 0.7314 0.3512 0.1568
Cl4 Cl 0.2260(2) 0.3909(2) 0.33403(14)
Cl5 Cl 0.1316(2) 0.40340(19) 0.35111(14)
Cl6 Cl 0.22536(19) 0.40508(19) 0.40867(14)
C202 C 0.1915(7) 0.3797(7) 0.3653(5)
H178 H 0.1886 0.3429 0.3684
Cl7 Cl 0.8561(3) 0.3703(4) 0.3501(3)
Cl8 Cl 0.7888(4) 0.3637(4) 0.2774(3)
Cl9 Cl 0.8944(4) 0.3458(4) 0.2903(3)
C203 C 0.8434(12) 0.3420(12) 0.3058(9)
H179 H 0.8371 0.3060 0.3098
Cl10 Cl 0.7012(3) -0.0100(3) 0.3905(2)
Cl11 Cl 0.7169(3) 0.0816(3) 0.41885(19)
Cl12 Cl 0.6365(3) 0.0296(3) 0.4299(2)
C204 C 0.6991(10) 0.0256(9) 0.4276(7)
H180 H 0.7235 0.0125 0.4527
Cl13 Cl 0.76403(17) 0.18930(19) 0.43154(12)
Cl14 Cl 0.72033(19) 0.2607(2) 0.46495(16)
Cl15 Cl 0.65627(17) 0.1951(2) 0.41677(14)
C205 C 0.7130(7) 0.2259(7) 0.4253(5)
H181 H 0.7114 0.2481 0.4024
Cl16 Cl 0.7215(2) 0.3892(2) 0.33886(16)
Cl17 Cl 0.7177(2) 0.4059(2) 0.41212(15)
Cl18 Cl 0.6260(2) 0.4003(2) 0.35370(15)
C206 C 0.6859(8) 0.3794(8) 0.3695(5)
H182 H 0.6841 0.3427 0.3737
Cl19 Cl 0.9145(8) 0.4769(7) 0.7071(4)
Cl20 Cl 0.9219(4) 0.4324(4) 0.7734(3)
Cl21 Cl 0.9348(4) 0.5292(4) 0.7702(3)
C207 C 0.937(2) 0.476(2) 0.7438(15)
H183 H 0.9765 0.4706 0.7463
Cl22 Cl 0.8421(4) 0.5851(4) 0.5040(3)
Cl23 Cl 0.7766(3) 0.6600(3) 0.4719(2)
Cl24 Cl 0.7379(3) 0.5828(3) 0.49840(18)
C208 C 0.7923(6) 0.6171(6) 0.5077(5)
H184 H 0.8000 0.6330 0.5341
Cl25 Cl 0.73365(19) 0.70575(18) 0.38228(13)
Cl26 Cl 0.84092(18) 0.69213(18) 0.39759(13)
Cl27 Cl 0.8035(2) 0.7663(2) 0.43137(15)
C209 C 0.7921(7) 0.7338(7) 0.3915(5)
H185 H 0.7926 0.7561 0.3691
Cl28 Cl 0.9482(4) 0.4151(3) 0.6235(3)
Cl29 Cl 0.9256(4) 0.3604(4) 0.6758(3)
Cl30 Cl 0.8681(4) 0.3511(4) 0.5984(3)
C210 C 0.9277(9) 0.3607(9) 0.6288(6)
H186 H 0.9543 0.3354 0.6249
Cl31 Cl 0.6885(3) 0.5093(3) 0.8844(2)
Cl32 Cl 0.6992(3) 0.4195(2) 0.91540(18)
Cl33 Cl 0.6249(3) 0.4790(3) 0.9284(2)
C211 C 0.6823(10) 0.4783(9) 0.9204(7)
H187 H 0.7090 0.4918 0.9444
Cl34 Cl 0.56477(19) 0.13686(19) 0.68671(13)
Cl35 Cl 0.6374(2) 0.1435(2) 0.75636(15)
Cl36 Cl 0.5330(2) 0.1567(2) 0.75093(17)
C212 C 0.5804(6) 0.1646(7) 0.7299(5)
H188 H 0.5844 0.2010 0.7258
Cl37 Cl 0.2653(3) 0.0743(3) 0.5171(2)
Cl38 Cl 0.1715(3) 0.0585(3) 0.5322(2)
Cl39 Cl 0.1927(3) 0.1470(3) 0.5068(2)
C213 C 0.2182(9) 0.1002(8) 0.5302(6)
H189 H 0.2346 0.1116 0.5577
Cl40 Cl 0.3565(2) 0.3553(2) 0.58692(16)
Cl41 Cl 0.4365(2) 0.3975(2) 0.64047(16)
Cl42 Cl 0.3965(2) 0.3096(2) 0.65384(15)
C214 C 0.4124(7) 0.3474(7) 0.6210(5)
H190 H 0.4394 0.3306 0.6098
Cl43 Cl 0.7966(2) 0.4932(3) 0.7732(2)
Cl44 Cl 0.6953(3) 0.4714(3) 0.77154(19)
Cl45 Cl 0.7122(3) 0.5245(3) 0.71366(18)
C215 C 0.7329(7) 0.5153(8) 0.7592(5)
H191 H 0.7306 0.5467 0.7737
Cl46 Cl 0.5608(2) 0.3638(2) 0.94678(14)
Cl47 Cl 0.52196(19) 0.3164(2) 0.87965(14)
Cl48 Cl 0.4888(2) 0.4087(2) 0.88812(17)
C216 C 0.5081(7) 0.3573(6) 0.9101(5)
H192 H 0.4780 0.3439 0.9198
Cl49 Cl 0.4423(2) 0.6409(2) 0.80985(14)
Cl50 Cl 0.4680(2) 0.6638(2) 0.74372(16)
Cl51 Cl 0.36363(19) 0.6552(2) 0.74306(14)
C217 C 0.4238(7) 0.6714(8) 0.7686(5)
H193 H 0.4229 0.7075 0.7749
Cl52 Cl 0.1025(8) 0.5472(7) 0.5658(5)
Cl53 Cl 0.0690(4) 0.5304(4) 0.4877(3)
Cl54 Cl 0.1743(3) 0.5361(3) 0.5248(2)
C218 C 0.1146(7) 0.5183(12) 0.5296(6)
H194 H 0.1154 0.4817 0.5347
Cl55 Cl 0.4077(3) 0.5486(3) 0.5718(2)
Cl56 Cl 0.3889(3) 0.4525(3) 0.55207(19)
Cl57 Cl 0.4709(2) 0.5005(3) 0.5354(2)
C219 C 0.4131(7) 0.5061(8) 0.5393(6)
H195 H 0.3890 0.5164 0.5131
Cl58 Cl 0.3558(3) 0.6046(3) 0.4795(2)
Cl59 Cl 0.2862(2) 0.5469(2) 0.50321(18)
Cl60 Cl 0.2594(3) 0.6410(3) 0.4799(2)
C220 C 0.3098(8) 0.6060(8) 0.5065(6)
H196 H 0.3253 0.6180 0.5340
Cl61 Cl 0.3630(3) 0.4475(3) 0.45858(18)
Cl62 Cl 0.3412(3) 0.4513(3) 0.38076(18)
Cl63 Cl 0.4008(3) 0.5215(3) 0.42358(19)
C221 C 0.3528(8) 0.4871(9) 0.4187(6)
H197 H 0.3197 0.5076 0.4169
Cl64 Cl 0.3587(2) 0.3503(2) 0.33791(15)
Cl65 Cl 0.2853(2) 0.3471(2) 0.26876(18)
Cl66 Cl 0.3890(3) 0.3295(2) 0.2736(2)
C222 C 0.3430(7) 0.3231(8) 0.2965(6)
H198 H 0.3376 0.2869 0.3005
Cl67 Cl 0.3065(4) 0.8599(3) 0.4943(2)
Cl68 Cl 0.2220(3) 0.9211(3) 0.4805(2)
Cl69 Cl 0.3103(4) 0.9481(4) 0.4639(2)
C223 C 0.2741(9) 0.9014(10) 0.4689(7)
H199 H 0.2599 0.8869 0.4420
Cl70 Cl 0.4578(4) 0.8355(4) 0.6060(3)
Cl71 Cl 0.5310(4) 0.9048(4) 0.6360(3)
Cl72 Cl 0.4831(4) 0.9041(4) 0.5598(3)
C224 C 0.5027(6) 0.8675(5) 0.5957(3)
H200 H 0.5313 0.8450 0.5911
Cl73 Cl 0.2065(5) 0.4554(5) 0.7712(3)
Cl74 Cl 0.2366(5) 0.4994(5) 0.7115(3)
Cl75 Cl 0.3068(4) 0.4797(7) 0.7778(5)
C225 C 0.2451(5) 0.4984(7) 0.7601(5)
H201 H 0.2390 0.5318 0.7705
Cl76 Cl 0.2072(6) 0.5087(5) 0.6208(4)
Cl77 Cl 0.2247(7) 0.4091(6) 0.6103(5)
Cl78 Cl 0.3057(8) 0.4720(10) 0.6142(7)
C226 C 0.2443(8) 0.4670(9) 0.6152(8)
H202 H 0.2316 0.4716 0.5862
Cl79 Cl 0.7947(2) 0.5929(2) 0.88037(14)
Cl80 Cl 0.70361(18) 0.6018(2) 0.82185(15)
Cl81 Cl 0.80073(19) 0.61459(19) 0.80843(14)
C227 C 0.7658(7) 0.6233(8) 0.8408(5)
H203 H 0.7645 0.6595 0.8469
Cl82 Cl 0.3429(2) 0.68934(19) 0.40098(14)
Cl83 Cl 0.2353(2) 0.6985(2) 0.38924(14)
Cl84 Cl 0.3044(2) 0.7589(2) 0.43963(17)
C228 C 0.2928(7) 0.7290(7) 0.3992(5)
H204 H 0.2910 0.7534 0.3776
Cl85 Cl 0.25987(16) 0.18587(18) 0.42721(11)
Cl86 Cl 0.15264(16) 0.19899(19) 0.41337(13)
Cl87 Cl 0.22228(18) 0.2560(2) 0.46590(17)
C229 C 0.2104(6) 0.2283(7) 0.4238(5)
H205 H 0.2104 0.2531 0.4028
H206? H 0.4638 1.0117 0.8762
H207? H 0.4853 0.9911 0.8406
C230? C 0.4469(17) 1.0561(17) 0.8294(12)
H208? H 0.4380 1.0822 0.8466
H209? H 0.4198 1.0566 0.8029
H210? H 0.5081 1.0594 0.8024
H211? H 0.5259 1.0326 0.8393
H212? H 0.5231 1.0865 0.8392
Cl88? Cl 0.4797(6) 0.8259(5) 0.6209(4)
Cl89? Cl 0.5154(6) 0.9195(5) 0.6142(4)
Cl90? Cl 0.4445(6) 0.8720(7) 0.5557(4)
H213? H 0.5341 0.8542 0.5874
Cl91? Cl 0.1973(6) 0.4719(7) 0.7728(5)
Cl92? Cl 0.2178(10) 0.5340(9) 0.7248(6)
Cl93? Cl 0.3062(9) 0.4780(15) 0.7743(11)
Cl94? Cl 0.2446(6) 0.4828(6) 0.6597(4)
Cl95? Cl 0.1912(7) 0.4344(7) 0.5947(5)
Cl96? Cl 0.2971(9) 0.4602(13) 0.6031(9)
Cl97? Cl 0.5076(8) -0.0334(7) 0.4747(5)
Cl98? Cl 0.5123(7) 0.0434(6) 0.5261(5)
Cl99? Cl 0.4235(6) -0.0160(6) 0.5015(4)
C231? C 0.4763(14) 0.0112(14) 0.4887(10)
H214? H 0.4614 0.0341 0.4661
Cl100? Cl 0.5208(6) 0.4484(6) 0.0286(4)
Cl101? Cl 0.5160(12) 0.5143(12) -0.0326(9)
Cl102? Cl 0.4579(9) 0.5217(9) 0.0166(7)
C232? C 0.5107(17) 0.5106(17) 0.0080(12)
H215? H 0.5390 0.5326 0.0251
loop_
_geom_bond_atom_site_label_1
_geom_bond_atom_site_label_2
_geom_bond_site_symmetry_1
_geom_bond_site_symmetry_2
I1 C49 1_555 1_555
I2 C93 1_555 1_555
O1 C1 1_555 1_555
O2 C3 1_555 1_555
O3 C6 1_555 1_555
O4 C8 1_555 1_555
O5 C15 1_555 1_555
O6 C16 1_555 1_555
O7 C19 1_555 1_555
O8 C22 1_555 1_555
O9 C23 1_555 1_555
O10 C25 1_555 1_555
O11 C28 1_555 1_555
O12 C30 1_555 1_555
O13 C37 1_555 1_555
O14 C38 1_555 1_555
O15 C41 1_555 1_555
O16 C44 1_555 1_555
N1 C1 1_555 1_555
N2 C2 1_555 1_555
N3 C20 1_555 1_555
N4 C22 1_555 1_555
N5 C24 1_555 1_555
N6 C42 1_555 1_555
C1 C2 1_555 1_555
C2 C43 1_555 1_555
C3 N2 1_555 1_555
C4 O2 1_555 1_555
C5 C4 1_555 1_555
H1 C5 1_555 1_555
C6 C5 1_555 1_555
C7 O3 1_555 1_555
C8 C7 1_555 1_555
C9 C8 1_555 1_555
C10 C9 1_555 1_555
H2 C10 1_555 1_555
C11 C10 1_555 1_555
H3 C11 1_555 1_555
C12 C11 1_555 1_555
H4 C12 1_555 1_555
C13 C12 1_555 1_555
H5 C13 1_555 1_555
C14 C9 1_555 1_555
C15 C14 1_555 1_555
C16 C7 1_555 1_555
C17 O6 1_555 1_555
C18 C17 1_555 1_555
H6 C18 1_555 1_555
C19 C18 1_555 1_555
C20 O7 1_555 1_555
C21 N3 1_555 1_555
C22 C21 1_555 1_555
C23 N4 1_555 1_555
C24 C21 1_555 1_555
C25 N5 1_555 1_555
C26 O10 1_555 1_555
C27 C26 1_555 1_555
H7 C27 1_555 1_555
C28 C27 1_555 1_555
C29 O11 1_555 1_555
C30 C29 1_555 1_555
C31 C30 1_555 1_555
C32 C31 1_555 1_555
H8 C32 1_555 1_555
C33 C32 1_555 1_555
H9 C33 1_555 1_555
C34 C33 1_555 1_555
H10 C34 1_555 1_555
C35 C34 1_555 1_555
H11 C35 1_555 1_555
C36 C31 1_555 1_555
C37 C36 1_555 1_555
C38 C29 1_555 1_555
C39 O14 1_555 1_555
C40 C39 1_555 1_555
H12 C40 1_555 1_555
C41 C40 1_555 1_555
C42 O15 1_555 1_555
C43 N6 1_555 1_555
C44 N1 1_555 1_555
C45 N1 1_555 1_555
C46 C45 1_555 1_555
C47 C46 1_555 1_555
H13 C47 1_555 1_555
H14 C47 1_555 1_555
H15 C47 1_555 1_555
C48 C46 1_555 1_555
H16 C48 1_555 1_555
C49 C48 1_555 1_555
C50 C49 1_555 1_555
H17 C50 1_555 1_555
C51 C45 1_555 1_555
C52 C51 1_555 1_555
H18 C52 1_555 1_555
H19 C52 1_555 1_555
H20 C52 1_555 1_555
C53 C4 1_555 1_555
C54 C53 1_555 1_555
H21 C54 1_555 1_555
C55 C6 1_555 1_555
C56 H22 1_555 1_555
H23 C56 1_555 1_555
C57 C56 1_555 1_555
H24 C57 1_555 1_555
H25 C57 1_555 1_555
C58 C57 1_555 1_555
H26 C58 1_555 1_555
H27 C58 1_555 1_555
C59 C58 1_555 1_555
H28 C59 1_555 1_555
H29 C59 1_555 1_555
C60 C59 1_555 1_555
H30 C60 1_555 1_555
H31 C60 1_555 1_555
C61 C60 1_555 1_555
H32 C61 1_555 1_555
H33 C61 1_555 1_555
H34 C61 1_555 1_555
C62 H35 1_555 1_555
C63 C19 1_555 1_555
C64 C63 1_555 1_555
H36 C64 1_555 1_555
C65 C64 1_555 1_555
H37 C65 1_555 1_555
H38 C65 1_555 1_555
C66 C65 1_555 1_555
H39 C66 1_555 1_555
H40 C66 1_555 1_555
C67 C66 1_555 1_555
H41 C67 1_555 1_555
H42 C67 1_555 1_555
C68 C67 1_555 1_555
H43 C68 1_555 1_555
H44 C68 1_555 1_555
C69 C68 1_555 1_555
H45 C69 1_555 1_555
H46 C69 1_555 1_555
C70 C69 1_555 1_555
H47 C70 1_555 1_555
H48 C70 1_555 1_555
H49 C70 1_555 1_555
C71 C26 1_555 1_555
C72 C71 1_555 1_555
H50 C72 1_555 1_555
C73 C28 1_555 1_555
C74 H51 1_555 1_555
H52 C74 1_555 1_555
C75 C74 1_555 1_555
H53 C75 1_555 1_555
H54 C75 1_555 1_555
C76 C75 1_555 1_555
H55 C76 1_555 1_555
H56 C76 1_555 1_555
C77 H57 1_555 1_555
H58 C77 1_555 1_555
H59 C77 1_555 1_555
C78 C73 1_555 1_555
H60 C78 1_555 1_555
C79 C39 1_555 1_555
C80 C79 1_555 1_555
H61 C80 1_555 1_555
C81 C41 1_555 1_555
C82 C53 1_555 1_555
H62 C82 1_555 1_555
C83 C82 1_555 1_555
H63 C83 1_555 1_555
H64 C83 1_555 1_555
C84 C83 1_555 1_555
H65 C84 1_555 1_555
H66 C84 1_555 1_555
C85 C84 1_555 1_555
H67 C85 1_555 1_555
H68 C85 1_555 1_555
C86 C85 1_555 1_555
H69 C86 1_555 1_555
H70 C86 1_555 1_555
C87 C86 1_555 1_555
H71 C87 1_555 1_555
H72 C87 1_555 1_555
C88 C87 1_555 1_555
H73 C88 1_555 1_555
H74 C88 1_555 1_555
H75 C88 1_555 1_555
C89 N4 1_555 1_555
C90 C89 1_555 1_555
C91 C90 1_555 1_555
H76 C91 1_555 1_555
H77 C91 1_555 1_555
H78 C91 1_555 1_555
C92 C90 1_555 1_555
H79 C92 1_555 1_555
C93 C92 1_555 1_555
C94 C93 1_555 1_555
H80 C94 1_555 1_555
C95 C89 1_555 1_555
C96 C95 1_555 1_555
H81 C96 1_555 1_555
H82 C96 1_555 1_555
H83 C96 1_555 1_555
C97 C55 1_555 1_555
H84 C97 1_555 1_555
C98 C17 1_555 1_555
C99 C74 1_555 1_555
H85 C99 1_555 1_555
H86 C99 1_555 1_555
C100 C76 1_555 1_555
H87 C100 1_555 1_555
H88 C100 1_555 1_555
I3 C149 1_555 1_555
I4 C198 1_555 1_555
O17 C102 1_555 1_555
O18 C104 1_555 1_555
O19 C107 1_555 1_555
O20 C109 1_555 1_555
O21 C116 1_555 1_555
O22 C117 1_555 1_555
O23 C119 1_555 1_555
O24 C122 1_555 1_555
O25 C123 1_555 1_555
O26 C125 1_555 1_555
O27 C128 1_555 1_555
O28 C130 1_555 1_555
O29 C137 1_555 1_555
O30 C138 1_555 1_555
O31 C141 1_555 1_555
O32 C144 1_555 1_555
N7 C102 1_555 1_555
N8 C103 1_555 1_555
N9 C120 1_555 1_555
N10 C122 1_555 1_555
N11 C124 1_555 1_555
N12 C142 1_555 1_555
C101 C194 1_555 1_555
C102 C103 1_555 1_555
C103 C143 1_555 1_555
C104 N8 1_555 1_555
C105 O18 1_555 1_555
C106 C105 1_555 1_555
H89 C106 1_555 1_555
C107 C106 1_555 1_555
C108 O19 1_555 1_555
C109 C108 1_555 1_555
C110 C109 1_555 1_555
C111 C110 1_555 1_555
H90 C111 1_555 1_555
C112 C111 1_555 1_555
H91 C112 1_555 1_555
C113 C112 1_555 1_555
H92 C113 1_555 1_555
C114 C113 1_555 1_555
H93 C114 1_555 1_555
C115 C110 1_555 1_555
C116 C115 1_555 1_555
C117 C108 1_555 1_555
C118 H94 1_555 1_555
C119 C118 1_555 1_555
C120 O23 1_555 1_555
C121 N9 1_555 1_555
C122 C121 1_555 1_555
C123 N10 1_555 1_555
C124 C121 1_555 1_555
C125 N11 1_555 1_555
C126 O26 1_555 1_555
C127 C126 1_555 1_555
H95 C127 1_555 1_555
C128 C127 1_555 1_555
C129 O27 1_555 1_555
C130 C129 1_555 1_555
C131 C130 1_555 1_555
C132 C131 1_555 1_555
H96 C132 1_555 1_555
C133 C132 1_555 1_555
H97 C133 1_555 1_555
C134 C133 1_555 1_555
H98 C134 1_555 1_555
C135 C134 1_555 1_555
H99 C135 1_555 1_555
C136 C131 1_555 1_555
C137 C136 1_555 1_555
C138 C129 1_555 1_555
C139 O30 1_555 1_555
C140 C139 1_555 1_555
H100 C140 1_555 1_555
C141 C140 1_555 1_555
C142 O31 1_555 1_555
C143 N12 1_555 1_555
C144 N7 1_555 1_555
C145 N7 1_555 1_555
C146 C145 1_555 1_555
C147 C146 1_555 1_555
H101 C147 1_555 1_555
H102 C147 1_555 1_555
H103 C147 1_555 1_555
C148 C146 1_555 1_555
H104 C148 1_555 1_555
C149 C148 1_555 1_555
C150 C149 1_555 1_555
H105 C150 1_555 1_555
C151 H106 1_555 1_555
H107 C151 1_555 1_555
H108 C151 1_555 1_555
C152 C105 1_555 1_555
C153 C152 1_555 1_555
H109 C153 1_555 1_555
C154 C107 1_555 1_555
C155 C154 1_555 1_555
H110 C155 1_555 1_555
C156 C155 1_555 1_555
H111 C156 1_555 1_555
H112 C156 1_555 1_555
C157 C156 1_555 1_555
H113 C157 1_555 1_555
H114 C157 1_555 1_555
C158 C157 1_555 1_555
H115 C158 1_555 1_555
H116 C158 1_555 1_555
C159 C158 1_555 1_555
H117 C159 1_555 1_555
H118 C159 1_555 1_555
C160 C159 1_555 1_555
H119 C160 1_555 1_555
H120 C160 1_555 1_555
C161 C160 1_555 1_555
H121 C161 1_555 1_555
H122 C161 1_555 1_555
H123 C161 1_555 1_555
C162 O22 1_555 1_555
C163 C155 1_555 1_555
C164 C163 1_555 1_555
H124 C164 1_555 1_555
C165 C119 1_555 1_555
C166 C165 1_555 1_555
H125 C166 1_555 1_555
C167 C166 1_555 1_555
H126 C167 1_555 1_555
H127 C167 1_555 1_555
C168 C167 1_555 1_555
H128 C168 1_555 1_555
H129 C168 1_555 1_555
C169 C168 1_555 1_555
H130 C169 1_555 1_555
H131 C169 1_555 1_555
C170 C169 1_555 1_555
H132 C170 1_555 1_555
H133 C170 1_555 1_555
C171 C170 1_555 1_555
H134 C171 1_555 1_555
H135 C171 1_555 1_555
C172 C171 1_555 1_555
H136 C172 1_555 1_555
H137 C172 1_555 1_555
H138 C172 1_555 1_555
C173 C126 1_555 1_555
C174 C173 1_555 1_555
H139 C174 1_555 1_555
C175 C128 1_555 1_555
C176 C175 1_555 1_555
H140 C176 1_555 1_555
C177 C176 1_555 1_555
H141 C177 1_555 1_555
H142 C177 1_555 1_555
C178 C177 1_555 1_555
H143 C178 1_555 1_555
H144 C178 1_555 1_555
C179 C178 1_555 1_555
H145 C179 1_555 1_555
H146 C179 1_555 1_555
C180 C179 1_555 1_555
H147 C180 1_555 1_555
H148 C180 1_555 1_555
C181 C180 1_555 1_555
H149 C181 1_555 1_555
H150 C181 1_555 1_555
C182 C181 1_555 1_555
H151 C182 1_555 1_555
H152 C182 1_555 1_555
H153 C182 1_555 1_555
C183 C139 1_555 1_555
C184 C183 1_555 1_555
H154 C184 1_555 1_555
C185 C141 1_555 1_555
C186 C152 1_555 1_555
H155 C186 1_555 1_555
C187 C186 1_555 1_555
H156 C187 1_555 1_555
H157 C187 1_555 1_555
C188 C187 1_555 1_555
H158 C188 1_555 1_555
H159 C188 1_555 1_555
C189 C188 1_555 1_555
H160 C189 1_555 1_555
H161 C189 1_555 1_555
C190 C189 1_555 1_555
H162 C190 1_555 1_555
H163 C190 1_555 1_555
C191 C190 1_555 1_555
H164 C191 1_555 1_555
H165 C191 1_555 1_555
C192 C191 1_555 1_555
H166 C192 1_555 1_555
H167 C192 1_555 1_555
H168 C192 1_555 1_555
C193 C145 1_555 1_555
C194 N10 1_555 1_555
C195 C194 1_555 1_555
C196 C195 1_555 1_555
H169 C196 1_555 1_555
H170 C196 1_555 1_555
H171 C196 1_555 1_555
C197 C195 1_555 1_555
H172 C197 1_555 1_555
C198 C197 1_555 1_555
C199 C101 1_555 1_555
H173 C199 1_555 1_555
C200 C101 1_555 1_555
H174 C200 1_555 1_555
H175 C200 1_555 1_555
H176 C200 1_555 1_555
Cl1 C201 1_555 1_555
Cl2 C201 1_555 1_555
Cl3 C201 1_555 1_555
C201 H177 1_555 1_555
Cl4 C202 1_555 1_555
Cl5 C202 1_555 1_555
Cl6 C202 1_555 1_555
C202 H178 1_555 1_555
Cl7 C203 1_555 1_555
Cl8 C203 1_555 1_555
Cl9 C203 1_555 1_555
C203 H179 1_555 1_555
Cl10 C204 1_555 1_555
Cl11 C204 1_555 1_555
Cl12 C204 1_555 1_555
C204 H180 1_555 1_555
Cl13 C205 1_555 1_555
Cl14 C205 1_555 1_555
Cl15 C205 1_555 1_555
C205 H181 1_555 1_555
Cl16 C206 1_555 1_555
Cl17 C206 1_555 1_555
Cl18 C206 1_555 1_555
C206 H182 1_555 1_555
Cl19 C207 1_555 1_555
Cl20 C207 1_555 1_555
Cl21 C207 1_555 1_555
C207 H183 1_555 1_555
Cl22 C208 1_555 1_555
Cl23 C208 1_555 1_555
Cl24 C208 1_555 1_555
C208 H184 1_555 1_555
Cl25 C209 1_555 1_555
Cl26 C209 1_555 1_555
Cl27 C209 1_555 1_555
C209 H185 1_555 1_555
Cl28 C210 1_555 1_555
Cl29 C210 1_555 1_555
Cl30 C210 1_555 1_555
C210 H186 1_555 1_555
Cl31 C211 1_555 1_555
Cl32 C211 1_555 1_555
Cl33 C211 1_555 1_555
C211 H187 1_555 1_555
Cl34 C212 1_555 1_555
Cl35 C212 1_555 1_555
Cl36 C212 1_555 1_555
C212 H188 1_555 1_555
Cl37 C213 1_555 1_555
Cl38 C213 1_555 1_555
Cl39 C213 1_555 1_555
C213 H189 1_555 1_555
Cl40 C214 1_555 1_555
Cl41 C214 1_555 1_555
Cl42 C214 1_555 1_555
C214 H190 1_555 1_555
Cl43 C215 1_555 1_555
Cl44 C215 1_555 1_555
Cl45 C215 1_555 1_555
C215 H191 1_555 1_555
Cl46 C216 1_555 1_555
Cl47 C216 1_555 1_555
Cl48 C216 1_555 1_555
C216 H192 1_555 1_555
Cl49 C217 1_555 1_555
Cl50 C217 1_555 1_555
Cl51 C217 1_555 1_555
C217 H193 1_555 1_555
Cl52 C218 1_555 1_555
Cl53 C218 1_555 1_555
Cl54 C218 1_555 1_555
C218 H194 1_555 1_555
Cl55 C219 1_555 1_555
Cl56 C219 1_555 1_555
Cl57 C219 1_555 1_555
C219 H195 1_555 1_555
Cl58 C220 1_555 1_555
Cl59 C220 1_555 1_555
Cl60 C220 1_555 1_555
C220 H196 1_555 1_555
Cl61 C221 1_555 1_555
Cl62 C221 1_555 1_555
Cl63 C221 1_555 1_555
C221 H197 1_555 1_555
Cl64 C222 1_555 1_555
Cl65 C222 1_555 1_555
Cl66 C222 1_555 1_555
C222 H198 1_555 1_555
Cl67 C223 1_555 1_555
Cl68 C223 1_555 1_555
Cl69 C223 1_555 1_555
C223 H199 1_555 1_555
Cl70 C224 1_555 1_555
Cl71 C224 1_555 1_555
Cl72 C224 1_555 1_555
C224 H200 1_555 1_555
Cl73 C225 1_555 1_555
Cl74 C225 1_555 1_555
Cl75 C225 1_555 1_555
C225 H201 1_555 1_555
Cl76 C226 1_555 1_555
Cl77 C226 1_555 1_555
Cl78 C226 1_555 1_555
C226 H202 1_555 1_555
Cl79 C227 1_555 1_555
Cl80 C227 1_555 1_555
Cl81 C227 1_555 1_555
C227 H203 1_555 1_555
Cl82 C228 1_555 1_555
Cl83 C228 1_555 1_555
Cl84 C228 1_555 1_555
C228 H204 1_555 1_555
Cl85 C229 1_555 1_555
Cl86 C229 1_555 1_555
Cl87 C229 1_555 1_555
C229 H205 1_555 1_555
C3 C42 1_555 1_555
C13 C14 1_555 1_555
C15 C16 1_555 1_555
C20 C25 1_555 1_555
C23 C24 1_555 1_555
C35 C36 1_555 1_555
C37 C38 1_555 1_555
C43 C44 1_555 1_555
C50 C51 1_555 1_555
C54 C55 1_555 1_555
C56 C97 1_555 1_555
C62 C63 1_555 1_555
C62 C98 1_555 1_555
C64 C71 1_555 1_555
C72 C73 1_555 1_555
C77 C100 1_555 1_555
C78 C79 1_555 1_555
C78 C99 1_555 1_555
C80 C81 1_555 1_555
C81 C82 1_555 1_555
C94 C95 1_555 1_555
C97 C98 1_555 1_555
C104 C142 1_555 1_555
C114 C115 1_555 1_555
C116 C117 1_555 1_555
C118 C162 1_555 1_555
C120 C125 1_555 1_555
C123 C124 1_555 1_555
C135 C136 1_555 1_555
C137 C138 1_555 1_555
C143 C144 1_555 1_555
C150 C193 1_555 1_555
C151 C193 1_555 1_555
C153 C154 1_555 1_555
C162 C163 1_555 1_555
C164 C165 1_555 1_555
C166 C173 1_555 1_555
C174 C175 1_555 1_555
C176 C183 1_555 1_555
C184 C185 1_555 1_555
C185 C186 1_555 1_555
C198 C199 1_555 1_555

#END
