
#######################################################################
#
#                 Cambridge Crystallographic Data Centre
#                                CCDC 
#
#######################################################################
#
# If this CIF has been generated from an entry in the Cambridge 
# Structural Database, then it will include bibliographic, chemical, 
# crystal, experimental, refinement or atomic coordinate data resulting 
# from the CCDC's data processing and validation procedures.
#
#######################################################################

data_GUNZIZ
_chemical_name_common            
2-(4-t-Butylphenyl)-5-(4-[4-(N,N-diphenylamino)phenyl]octatetraynylphenyl)-1,3,4-oxadiazole
_chemical_formula_moiety         'C44 H31 N3 O1'
_chemical_name_systematic        
4-(8-(4-(5-(4-t-Butylphenyl)-1,3,4-oxadiazol-2-yl)phenyl)octa-1,3,5,7-tetrayn-1-yl)-N,N-diphenylaniline
_symmetry_cell_setting           triclinic
_symmetry_space_group_name_H-M   'P -1'
_symmetry_Int_Tables_number      2
_space_group_name_Hall           '-P 1'
loop_
_symmetry_equiv_pos_site_id
_symmetry_equiv_pos_as_xyz
1 x,y,z
2 -x,-y,-z
_cell_length_a                   8.0926(7)
_cell_length_b                   11.9612(10)
_cell_length_c                   18.1669(15)
_cell_angle_alpha                108.52(1)
_cell_angle_beta                 93.64(1)
_cell_angle_gamma                93.63(1)
_cell_volume                     1657.59
_exptl_crystal_colour            yellow
_exptl_crystal_description       rhombic
_cell_formula_units_Z            2
_exptl_crystal_recrystallization_method dichloromethane/n-hexane
loop_
_atom_site_label
_atom_site_type_symbol
_atom_site_fract_x
_atom_site_fract_y
_atom_site_fract_z
O1 O 0.6066(3) 0.2233(2) 0.04245(15)
N1 N 0.5958(4) 0.0692(3) 0.08514(18)
N2 N 0.7425(4) 0.0705(3) 0.04717(18)
N3 N -1.6046(4) 0.7974(3) 0.47807(18)
C1 C 0.5211(5) 0.1600(3) 0.0809(2)
C2 C 0.7435(5) 0.1622(3) 0.0237(2)
C3 C -0.0838(5) 0.3112(3) 0.2031(2)
C4 C -0.2096(5) 0.3413(3) 0.2324(2)
C5 C -0.3524(5) 0.3757(3) 0.2664(2)
C6 C -0.4785(5) 0.4071(3) 0.2957(2)
C7 C -0.6215(5) 0.4453(3) 0.3261(2)
C8 C -0.7503(5) 0.4817(3) 0.3513(2)
C9 C -0.8923(5) 0.5296(3) 0.3778(2)
C10 C -1.0164(5) 0.5740(3) 0.3999(2)
C11 C 0.3664(5) 0.1995(3) 0.1112(2)
C12 C 0.3147(5) 0.3085(3) 0.1115(2)
H1 H 0.3814 0.3579 0.0911
C13 C 0.1671(5) 0.3452(3) 0.1412(2)
H2 H 0.1328 0.4195 0.1408
C14 C 0.0683(5) 0.2741(3) 0.1716(2)
C15 C 0.1197(5) 0.1634(3) 0.1704(2)
H3 H 0.0522 0.1130 0.1897
C16 C 0.2676(5) 0.1277(3) 0.1410(2)
H4 H 0.3025 0.0535 0.1413
C17 C 0.8676(5) 0.2026(3) -0.0191(2)
C18 C 1.0000(5) 0.1366(3) -0.0431(2)
H5 H 1.0078 0.0642 -0.0325
C19 C 1.1211(5) 0.1746(3) -0.0821(2)
H6 H 1.2116 0.1280 -0.0974
C20 C 1.1141(5) 0.2795(3) -0.0996(2)
C21 C 0.9802(5) 0.3450(3) -0.0747(2)
H7 H 0.9725 0.4177 -0.0850
C22 C 0.8574(5) 0.3077(3) -0.0355(2)
H8 H 0.7668 0.3541 -0.0199
C23 C 1.2530(5) 0.3221(3) -0.1405(2)
C24 C 1.3163(5) 0.2186(3) -0.2030(2)
H9 H 1.3995 0.2491 -0.2304
H10 H 1.2231 0.1750 -0.2403
H11 H 1.3668 0.1655 -0.1784
C25 C 1.1937(5) 0.4108(4) -0.1793(3)
H12 H 1.2827 0.4324 -0.2077
H13 H 1.1648 0.4819 -0.1393
H14 H 1.0958 0.3748 -0.2157
C26 C 1.3973(5) 0.3823(4) -0.0794(3)
H15 H 1.4406 0.3248 -0.0567
H16 H 1.3581 0.4477 -0.0383
H17 H 1.4856 0.4131 -0.1041
C27 C -1.1632(5) 0.6323(3) 0.4223(2)
C28 C -1.2663(5) 0.6024(3) 0.4729(2)
H18 H -1.2375 0.5431 0.4948
C29 C -1.4094(5) 0.6577(3) 0.4916(2)
H19 H -1.4781 0.6364 0.5265
C30 C -1.4545(5) 0.7440(3) 0.4600(2)
C31 C -1.3488(5) 0.7779(3) 0.4111(2)
H20 H -1.3762 0.8386 0.3903
C32 C -1.2053(5) 0.7232(3) 0.3934(2)
H21 H -1.1331 0.7477 0.3610
C33 C -1.6469(5) 0.8270(3) 0.5568(2)
C34 C -1.8013(5) 0.7895(3) 0.5732(2)
H22 H -1.8788 0.7412 0.5323
C35 C -1.5323(5) 0.8948(3) 0.6173(2)
H23 H -1.4257 0.9206 0.6066
C36 C -1.5751(5) 0.9248(3) 0.6935(2)
H24 H -1.4965 0.9705 0.7349
C37 C -1.7294(5) 0.8890(3) 0.7100(2)
H25 H -1.7576 0.9104 0.7624
C38 C -1.8425(5) 0.8223(4) 0.6499(2)
H26 H -1.9498 0.7983 0.6609
C39 C -1.6983(5) 0.8382(3) 0.4251(2)
C40 C -1.7044(5) 0.7810(4) 0.3445(2)
H27 H -1.6456 0.7129 0.3248
C41 C -1.7950(5) 0.8232(4) 0.2935(3)
H28 H -1.7963 0.7846 0.2389
C42 C -1.8841(5) 0.9208(4) 0.3208(3)
H29 H -1.9459 0.9494 0.2853
C43 C -1.8820(5) 0.9764(4) 0.4003(3)
H30 H -1.9442 1.0428 0.4195
C44 C -1.7903(5) 0.9360(4) 0.4522(2)
H31 H -1.7900 0.9750 0.5066
loop_
_geom_bond_atom_site_label_1
_geom_bond_atom_site_label_2
_geom_bond_site_symmetry_1
_geom_bond_site_symmetry_2
O1 C1 1_555 1_555
N1 N2 1_555 1_555
N2 C2 1_555 1_555
N3 C30 1_555 1_555
C1 N1 1_555 1_555
C2 O1 1_555 1_555
C3 C4 1_555 1_555
C4 C5 1_555 1_555
C5 C6 1_555 1_555
C6 C7 1_555 1_555
C7 C8 1_555 1_555
C8 C9 1_555 1_555
C9 C10 1_555 1_555
C10 C27 1_555 1_555
C11 C1 1_555 1_555
C12 C11 1_555 1_555
H1 C12 1_555 1_555
C13 C12 1_555 1_555
H2 C13 1_555 1_555
C14 C3 1_555 1_555
C15 C14 1_555 1_555
H3 C15 1_555 1_555
C16 C11 1_555 1_555
H4 C16 1_555 1_555
C17 C2 1_555 1_555
C18 C17 1_555 1_555
H5 C18 1_555 1_555
C19 C18 1_555 1_555
H6 C19 1_555 1_555
C20 C19 1_555 1_555
C21 C20 1_555 1_555
H7 C21 1_555 1_555
C22 C17 1_555 1_555
H8 C22 1_555 1_555
C23 C20 1_555 1_555
C24 C23 1_555 1_555
H9 C24 1_555 1_555
H10 C24 1_555 1_555
H11 C24 1_555 1_555
C25 C23 1_555 1_555
H12 C25 1_555 1_555
H13 C25 1_555 1_555
H14 C25 1_555 1_555
C26 C23 1_555 1_555
H15 C26 1_555 1_555
H16 C26 1_555 1_555
H17 C26 1_555 1_555
C27 C28 1_555 1_555
C28 H18 1_555 1_555
C29 C28 1_555 1_555
H19 C29 1_555 1_555
C30 C29 1_555 1_555
C31 C30 1_555 1_555
H20 C31 1_555 1_555
C32 C27 1_555 1_555
H21 C32 1_555 1_555
C33 N3 1_555 1_555
C34 C33 1_555 1_555
H22 C34 1_555 1_555
C35 C33 1_555 1_555
H23 C35 1_555 1_555
C36 C35 1_555 1_555
H24 C36 1_555 1_555
C37 C36 1_555 1_555
H25 C37 1_555 1_555
C38 C34 1_555 1_555
H26 C38 1_555 1_555
C39 N3 1_555 1_555
C40 C39 1_555 1_555
H27 C40 1_555 1_555
C41 C40 1_555 1_555
H28 C41 1_555 1_555
C42 C41 1_555 1_555
H29 C42 1_555 1_555
C43 C42 1_555 1_555
H30 C43 1_555 1_555
C44 C39 1_555 1_555
H31 C44 1_555 1_555
C13 C14 1_555 1_555
C15 C16 1_555 1_555
C21 C22 1_555 1_555
C31 C32 1_555 1_555
C37 C38 1_555 1_555
C43 C44 1_555 1_555

#END
