
#######################################################################
#
#                 Cambridge Crystallographic Data Centre
#                                CCDC 
#
#######################################################################
#
# If this CIF has been generated from an entry in the Cambridge 
# Structural Database, then it will include bibliographic, chemical, 
# crystal, experimental, refinement or atomic coordinate data resulting 
# from the CCDC's data processing and validation procedures.
#
#######################################################################

data_GUPBAU
_chemical_formula_moiety         'C17 H28 B10 N1 P1'
_chemical_name_systematic        
1-(N,N-Dimethylaminomethyl)-2-(diphenylphosphino)-1,2-dicarba-closo-dodecaborane(10)
_symmetry_cell_setting           monoclinic
_symmetry_space_group_name_H-M   'P 21/n'
_symmetry_Int_Tables_number      14
_space_group_name_Hall           '-P 2yn'
loop_
_symmetry_equiv_pos_site_id
_symmetry_equiv_pos_as_xyz
1 x,y,z
2 1/2+x,1/2-y,1/2+z
3 -x,-y,-z
4 1/2-x,1/2+y,1/2-z
_cell_length_a                   9.8428(4)
_cell_length_b                   21.1031(2)
_cell_length_c                   11.78250(1)
_cell_angle_alpha                90
_cell_angle_beta                 112.863(6)
_cell_angle_gamma                90
_cell_volume                     2255.11
_exptl_crystal_colour            yellow
_exptl_crystal_description       block
_chemical_melting_point          '114 deg.C'
_cell_formula_units_Z            4
_chemical_properties_physical    'slightly hygroscopic'
_exptl_crystal_recrystallization_method hexane/dichloromethane
loop_
_atom_site_label
_atom_site_type_symbol
_atom_site_fract_x
_atom_site_fract_y
_atom_site_fract_z
P1 P 0.17289(6) 0.87742(3) 0.36918(6)
N1 N -0.0188(2) 0.88499(11) 0.0692(2)
C1 C 0.3100(2) 0.86411(10) 0.29561(19)
C2 C 0.2335(3) 0.83615(11) 0.1501(2)
C3 C 0.0658(3) 0.82731(13) 0.0913(2)
H1 H 0.0409 0.8053 0.0135
H2 H 0.0366 0.8003 0.1446
C4 C -0.0393(4) 0.91306(19) -0.0485(3)
H3 H 0.0551 0.9214 -0.0514
H4 H -0.0931 0.9520 -0.0585
H5 H -0.0936 0.8843 -0.1135
C5 C -0.1627(3) 0.87269(19) 0.0745(4)
H6 H -0.2161 0.8427 0.0117
H7 H -0.2174 0.9115 0.0613
H8 H -0.1488 0.8558 0.1538
C6 C 0.2917(2) 0.86718(11) 0.5321(2)
C7 C 0.3981(3) 0.90954(13) 0.6038(2)
H9 H 0.4153 0.9465 0.5686
C8 C 0.4785(3) 0.89748(17) 0.7265(3)
H10 H 0.5503 0.9261 0.7734
C9 C 0.4530(4) 0.84331(19) 0.7803(3)
H11 H 0.5069 0.8354 0.8634
C10 C 0.3479(4) 0.80121(18) 0.7107(3)
H12 H 0.3308 0.7645 0.7468
C11 C 0.2670(3) 0.81285(13) 0.5873(3)
H13 H 0.1956 0.7840 0.5409
C12 C 0.1285(3) 0.96190(12) 0.3576(2)
C13 C 0.2224(3) 1.01323(12) 0.3740(2)
H14 H 0.3201 1.0062 0.3854
C14 C 0.1732(4) 1.07461(14) 0.3737(3)
H15 H 0.2382 1.1084 0.3865
C15 C 0.0300(5) 1.08578(16) 0.3547(3)
H16 H -0.0025 1.1271 0.3551
C16 C -0.0660(4) 1.03655(19) 0.3352(3)
H17 H -0.1642 1.0447 0.3207
C17 C -0.0189(3) 0.97416(15) 0.3367(3)
H18 H -0.0852 0.9409 0.3239
B1 B 0.3097(3) 0.91080(13) 0.1766(3)
H19 H 0.2454 0.9548 0.1484
B2 B 0.4682(3) 0.90450(13) 0.3162(3)
H20 H 0.5087 0.9450 0.3792
B3 B 0.4762(3) 0.82628(13) 0.3728(3)
H21 H 0.5213 0.8160 0.4721
B4 B 0.3237(3) 0.78413(12) 0.2681(3)
H22 H 0.2680 0.7468 0.2992
B5 B 0.3350(3) 0.85825(15) 0.0685(3)
H23 H 0.2881 0.8685 -0.0308
B6 B 0.4873(3) 0.90140(15) 0.1732(3)
H24 H 0.5404 0.9399 0.1426
B7 B 0.5904(3) 0.84850(15) 0.2943(3)
H25 H 0.7109 0.8524 0.3421
B8 B 0.4999(3) 0.77341(14) 0.2646(3)
H26 H 0.5609 0.7286 0.2931
B9 B 0.3432(3) 0.77997(14) 0.1249(3)
H27 H 0.3015 0.7393 0.0625
B10 B 0.5071(3) 0.82020(15) 0.1407(3)
H28 H 0.5736 0.8059 0.0885
loop_
_geom_bond_atom_site_label_1
_geom_bond_atom_site_label_2
_geom_bond_site_symmetry_1
_geom_bond_site_symmetry_2
P1 C1 1_555 1_555
N1 C3 1_555 1_555
C1 C2 1_555 1_555
C2 C3 1_555 1_555
C3 H1 1_555 1_555
H2 C3 1_555 1_555
C4 N1 1_555 1_555
H3 C4 1_555 1_555
H4 C4 1_555 1_555
H5 C4 1_555 1_555
C5 N1 1_555 1_555
H6 C5 1_555 1_555
H7 C5 1_555 1_555
H8 C5 1_555 1_555
C6 P1 1_555 1_555
C7 C6 1_555 1_555
H9 C7 1_555 1_555
C8 C7 1_555 1_555
H10 C8 1_555 1_555
C9 C8 1_555 1_555
H11 C9 1_555 1_555
C10 C9 1_555 1_555
H12 C10 1_555 1_555
C11 C6 1_555 1_555
H13 C11 1_555 1_555
C12 P1 1_555 1_555
C13 C12 1_555 1_555
H14 C13 1_555 1_555
C14 C13 1_555 1_555
H15 C14 1_555 1_555
C15 C14 1_555 1_555
H16 C15 1_555 1_555
C16 C15 1_555 1_555
H17 C16 1_555 1_555
C17 C12 1_555 1_555
H18 C17 1_555 1_555
B1 C1 1_555 1_555
H19 B1 1_555 1_555
B2 C1 1_555 1_555
H20 B2 1_555 1_555
B3 C1 1_555 1_555
H21 B3 1_555 1_555
B4 C1 1_555 1_555
H22 B4 1_555 1_555
B5 C2 1_555 1_555
H23 B5 1_555 1_555
B6 B1 1_555 1_555
H24 B6 1_555 1_555
B7 B2 1_555 1_555
H25 B7 1_555 1_555
B8 B3 1_555 1_555
H26 B8 1_555 1_555
B9 C2 1_555 1_555
H27 B9 1_555 1_555
B10 B5 1_555 1_555
H28 B10 1_555 1_555
C2 B1 1_555 1_555
C2 B4 1_555 1_555
C10 C11 1_555 1_555
C16 C17 1_555 1_555
B1 B5 1_555 1_555
B1 B2 1_555 1_555
B2 B6 1_555 1_555
B2 B3 1_555 1_555
B3 B7 1_555 1_555
B3 B4 1_555 1_555
B4 B9 1_555 1_555
B4 B8 1_555 1_555
B5 B9 1_555 1_555
B5 B6 1_555 1_555
B6 B10 1_555 1_555
B6 B7 1_555 1_555
B7 B8 1_555 1_555
B7 B10 1_555 1_555
B8 B9 1_555 1_555
B8 B10 1_555 1_555
B9 B10 1_555 1_555

#END
