
#######################################################################
#
#                 Cambridge Crystallographic Data Centre
#                                CCDC 
#
#######################################################################
#
# If this CIF has been generated from an entry in the Cambridge 
# Structural Database, then it will include bibliographic, chemical, 
# crystal, experimental, refinement or atomic coordinate data resulting 
# from the CCDC's data processing and validation procedures.
#
#######################################################################

data_GUPLOT
_chemical_formula_moiety         'C17 H18 Br1 N1 O5'
_chemical_name_systematic        
'Dimethyl 2-(4-bromophenyl)-3-((hydroxyimino)methyl)-4-methylcyclopent-3-ene-1,1-dicarboxylate'
_symmetry_cell_setting           monoclinic
_symmetry_space_group_name_H-M   'P 21/n'
_symmetry_Int_Tables_number      14
_space_group_name_Hall           '-P 2yn'
loop_
_symmetry_equiv_pos_site_id
_symmetry_equiv_pos_as_xyz
1 x,y,z
2 1/2-x,1/2+y,1/2-z
3 -x,-y,-z
4 1/2+x,1/2-y,1/2+z
_cell_length_a                   9.1050(2)
_cell_length_b                   8.8773(2)
_cell_length_c                   21.8658(7)
_cell_angle_alpha                90
_cell_angle_beta                 93.584(2)
_cell_angle_gamma                90
_cell_volume                     1763.91
_exptl_crystal_colour            colorless
_exptl_crystal_description       'plate or rod'
_cell_formula_units_Z            4
loop_
_atom_site_label
_atom_site_type_symbol
_atom_site_fract_x
_atom_site_fract_y
_atom_site_fract_z
Br1 Br -0.19226(4) 0.37051(4) 0.127469(19)
C1 C -0.0410(3) 0.5143(4) 0.12020(16)
C2 C -0.0336(3) 0.6407(4) 0.15532(14)
H1 H -0.1045 0.6584 0.1833
C3 C 0.0792(4) 0.7432(4) 0.14947(15)
H2 H 0.0834 0.8288 0.1740
C4 C 0.1849(3) 0.7216(4) 0.10833(15)
C5 C 0.1728(3) 0.5932(4) 0.07214(15)
H3 H 0.2418 0.5767 0.0432
C6 C 0.0620(4) 0.4896(4) 0.07769(15)
H4 H 0.0567 0.4041 0.0531
C7 C 0.3116(3) 0.8308(3) 0.10368(13)
H5 H 0.2808 0.9319 0.1155
C8 C 0.3709(3) 0.8359(3) 0.04030(14)
C9 C 0.2902(3) 0.9094(3) -0.01029(14)
H6 H 0.3321 0.9189 -0.0478
N1 N 0.1623(3) 0.9609(3) -0.00357(12)
O1 O 0.1055(2) 1.0305(3) -0.05759(10)
H7 H 0.0229 1.0629 -0.0525
C10 C 0.4943(3) 0.7576(3) 0.03793(15)
C11 C 0.5799(3) 0.7233(4) -0.01692(16)
H8 H 0.6643 0.6634 -0.0045
H9 H 0.6115 0.8158 -0.0347
H10 H 0.5185 0.6689 -0.0466
C12 C 0.5406(3) 0.6924(4) 0.09941(15)
H11 H 0.6455 0.7049 0.1085
H12 H 0.5165 0.5861 0.1011
C13 C 0.4523(3) 0.7831(3) 0.14396(14)
C14 C 0.4139(4) 0.6964(5) 0.20043(18)
O2 O 0.4286(3) 0.5642(3) 0.20793(12)
O3 O 0.3561(2) 0.7901(3) 0.24018(11)
C15 C 0.2998(4) 0.7229(4) 0.29407(17)
H13 H 0.2608 0.8002 0.3191
H14 H 0.3780 0.6712 0.3169
H15 H 0.2233 0.6526 0.2820
C16 C 0.5436(3) 0.9221(4) 0.16347(14)
O4 O 0.5155(2) 1.0494(3) 0.14930(10)
O5 O 0.6634(2) 0.8799(2) 0.19668(9)
C17 C 0.7723(3) 0.9955(4) 0.21220(15)
H16 H 0.8533 0.9520 0.2362
H17 H 0.7284 1.0736 0.2353
H18 H 0.8070 1.0374 0.1753
loop_
_geom_bond_atom_site_label_1
_geom_bond_atom_site_label_2
_geom_bond_site_symmetry_1
_geom_bond_site_symmetry_2
Br1 C1 1_555 1_555
C1 C2 1_555 1_555
C2 H1 1_555 1_555
C3 C2 1_555 1_555
H2 C3 1_555 1_555
C4 C3 1_555 1_555
C5 C4 1_555 1_555
H3 C5 1_555 1_555
C6 C1 1_555 1_555
H4 C6 1_555 1_555
C7 C4 1_555 1_555
H5 C7 1_555 1_555
C8 C7 1_555 1_555
C9 C8 1_555 1_555
H6 C9 1_555 1_555
N1 C9 1_555 1_555
O1 N1 1_555 1_555
H7 O1 1_555 1_555
C10 C8 1_555 1_555
C11 C10 1_555 1_555
H8 C11 1_555 1_555
H9 C11 1_555 1_555
H10 C11 1_555 1_555
C12 C10 1_555 1_555
H11 C12 1_555 1_555
H12 C12 1_555 1_555
C13 C7 1_555 1_555
C14 C13 1_555 1_555
O2 C14 1_555 1_555
O3 C14 1_555 1_555
C15 O3 1_555 1_555
H13 C15 1_555 1_555
H14 C15 1_555 1_555
H15 C15 1_555 1_555
C16 C13 1_555 1_555
O4 C16 1_555 1_555
O5 C16 1_555 1_555
C17 O5 1_555 1_555
H16 C17 1_555 1_555
H17 C17 1_555 1_555
H18 C17 1_555 1_555
C5 C6 1_555 1_555
C12 C13 1_555 1_555

#END
