
#######################################################################
#
#                 Cambridge Crystallographic Data Centre
#                                CCDC 
#
#######################################################################
#
# If this CIF has been generated from an entry in the Cambridge 
# Structural Database, then it will include bibliographic, chemical, 
# crystal, experimental, refinement or atomic coordinate data resulting 
# from the CCDC's data processing and validation procedures.
#
#######################################################################

data_GUPLUZ
_chemical_formula_moiety         'C16 H15 Br1 O6'
_chemical_name_systematic        
'2-(4-Bromophenyl)-1-(methoxycarbonyl)-4-methylcyclopent-3-ene-1,3-dicarboxylic acid'
_symmetry_cell_setting           orthorhombic
_symmetry_space_group_name_H-M   'P 21 21 21'
_symmetry_Int_Tables_number      19
_space_group_name_Hall           'P 2ac 2ab'
loop_
_symmetry_equiv_pos_site_id
_symmetry_equiv_pos_as_xyz
1 x,y,z
2 1/2-x,-y,1/2+z
3 -x,1/2+y,1/2-z
4 1/2+x,1/2-y,-z
_cell_length_a                   6.2104(4)
_cell_length_b                   14.4026(11)
_cell_length_c                   18.6240(12)
_cell_angle_alpha                90
_cell_angle_beta                 90
_cell_angle_gamma                90
_cell_volume                     1665.84
_exptl_crystal_colour            colorless
_exptl_crystal_description       rod-like
_cell_formula_units_Z            4
loop_
_atom_site_label
_atom_site_type_symbol
_atom_site_fract_x
_atom_site_fract_y
_atom_site_fract_z
Br1 Br 0.35676(15) 0.30579(5) -0.09714(4)
O1 O 1.0154(6) 0.3637(2) 0.2147(2)
O2 O 0.7832(6) 0.3145(3) 0.2971(3)
H1 H 0.867(10) 0.263(3) 0.303(4)
O3 O 0.6915(6) 0.7341(3) 0.2585(2)
H2 H 0.802(8) 0.772(4) 0.271(4)
O4 O 0.9637(6) 0.6667(3) 0.2038(2)
O5 O 0.6322(7) 0.6984(3) 0.0831(2)
O6 O 0.3234(5) 0.6287(3) 0.10655(19)
C1 C 0.8459(8) 0.3730(3) 0.2486(3)
C2 C 0.7059(7) 0.4543(3) 0.2368(2)
C3 C 0.5459(7) 0.4861(3) 0.2774(2)
C4 C 0.4539(9) 0.4481(4) 0.3456(3)
H3 H 0.3369 0.4867 0.3612
H4 H 0.5635 0.4470 0.3819
H5 H 0.4021 0.3862 0.3375
C5 C 0.4456(7) 0.5714(3) 0.2435(2)
H6 H 0.4236 0.6200 0.2788
H7 H 0.3087 0.5565 0.2212
C6 C 0.6120(7) 0.6008(3) 0.1872(2)
C7 C 0.7724(8) 0.6701(3) 0.2180(3)
C8 C 0.5242(8) 0.6483(3) 0.1191(3)
C9 C 0.2333(10) 0.6693(6) 0.0421(4)
H8 H 0.0860 0.6501 0.0370
H9 H 0.3143 0.6490 0.0011
H10 H 0.2398 0.7358 0.0454
C10 C 0.7326(6) 0.5089(3) 0.1675(2)
H11 H 0.8855 0.5221 0.1596
C11 C 0.6420(7) 0.4571(3) 0.1032(2)
C12 C 0.4517(8) 0.4094(4) 0.1071(3)
H12 H 0.3799 0.4057 0.1509
C13 C 0.3630(11) 0.3662(4) 0.0467(3)
H13 H 0.2305 0.3363 0.0495
C14 C 0.4735(10) 0.3687(4) -0.0157(3)
C15 C 0.6660(13) 0.4136(5) -0.0210(3)
H14 H 0.7409 0.4143 -0.0642
C16 C 0.7479(10) 0.4576(4) 0.0383(3)
H15 H 0.8787 0.4887 0.0345
loop_
_geom_bond_atom_site_label_1
_geom_bond_atom_site_label_2
_geom_bond_site_symmetry_1
_geom_bond_site_symmetry_2
Br1 C14 1_555 1_555
O1 C1 1_555 1_555
O2 H1 1_555 1_555
O3 H2 1_555 1_555
O4 C7 1_555 1_555
O5 C8 1_555 1_555
O6 C8 1_555 1_555
C1 O2 1_555 1_555
C2 C1 1_555 1_555
C3 C2 1_555 1_555
C4 C3 1_555 1_555
H3 C4 1_555 1_555
H4 C4 1_555 1_555
H5 C4 1_555 1_555
C5 C3 1_555 1_555
H6 C5 1_555 1_555
H7 C5 1_555 1_555
C6 C5 1_555 1_555
C7 O3 1_555 1_555
C8 C6 1_555 1_555
C9 O6 1_555 1_555
H8 C9 1_555 1_555
H9 C9 1_555 1_555
H10 C9 1_555 1_555
C10 C2 1_555 1_555
H11 C10 1_555 1_555
C11 C10 1_555 1_555
C12 C11 1_555 1_555
H12 C12 1_555 1_555
C13 C12 1_555 1_555
H13 C13 1_555 1_555
C14 C13 1_555 1_555
C15 C14 1_555 1_555
H14 C15 1_555 1_555
C16 C11 1_555 1_555
H15 C16 1_555 1_555
C6 C7 1_555 1_555
C6 C10 1_555 1_555
C15 C16 1_555 1_555

#END
