
#######################################################################
#
#                 Cambridge Crystallographic Data Centre
#                                CCDC 
#
#######################################################################
#
# If this CIF has been generated from an entry in the Cambridge 
# Structural Database, then it will include bibliographic, chemical, 
# crystal, experimental, refinement or atomic coordinate data resulting 
# from the CCDC's data processing and validation procedures.
#
#######################################################################

data_GUPLIM
_chemical_formula_moiety         'C31 H24 O2 S4'
_chemical_name_systematic        
9-(4-(Benzoyloxymethyl)-5-methyl-1,3-dithiol-2-ylidene)-10-(4,5-dimethyl-1,3-dithiol-2-ylidene)-9,10-dihydroanthracene
_symmetry_cell_setting           monoclinic
_symmetry_space_group_name_H-M   'P 21/n'
_symmetry_Int_Tables_number      14
_space_group_name_Hall           '-P 2yn'
loop_
_symmetry_equiv_pos_site_id
_symmetry_equiv_pos_as_xyz
1 x,y,z
2 1/2+x,1/2-y,1/2+z
3 -x,-y,-z
4 1/2-x,1/2+y,1/2-z
_cell_length_a                   15.803(6)
_cell_length_b                   10.258(4)
_cell_length_c                   18.149(7)
_cell_angle_alpha                90
_cell_angle_beta                 113.94(2)
_cell_angle_gamma                90
_cell_volume                     2688.98
_exptl_crystal_colour            yellow
_exptl_crystal_description       prism
_chemical_melting_point          '228-231 deg.C'
_cell_formula_units_Z            4
_exptl_crystal_recrystallization_method dichloromethane
loop_
_atom_site_label
_atom_site_type_symbol
_atom_site_fract_x
_atom_site_fract_y
_atom_site_fract_z
S1 S 0.18149(3) 0.39208(4) 0.61132(2)
S2 S 0.08819(3) 0.55815(4) 0.47005(3)
S3 S 0.49976(3) 0.27004(5) 0.47305(4)
S4 S 0.39939(4) 0.45834(6) 0.34761(3)
O1 O 0.29037(10) 0.58571(12) 0.75801(8)
O2 O 0.30072(10) 0.78031(13) 0.70506(9)
C1 C 0.22251(13) 0.12695(17) 0.54944(10)
H1 H 0.1765 0.1434 0.5694
C2 C 0.28018(15) 0.01872(18) 0.57688(12)
H2 H 0.2736 -0.0382 0.6155
C3 C 0.34699(15) -0.00570(19) 0.54769(12)
H3 H 0.3862 -0.0796 0.5664
C4 C 0.35738(13) 0.07673(18) 0.49132(12)
H4 H 0.4033 0.0583 0.4716
C5 C 0.19675(14) 0.3481(2) 0.26336(12)
H5 H 0.2434 0.3346 0.2437
C6 C 0.10877(16) 0.3859(2) 0.21060(12)
H6 H 0.0957 0.3989 0.1552
C7 C 0.03981(15) 0.4048(2) 0.23813(12)
H7 H -0.0206 0.4296 0.2016
C8 C 0.05912(13) 0.38739(18) 0.31938(11)
H8 H 0.0117 0.4006 0.3381
C9 C 0.17185(11) 0.32645(16) 0.46029(10)
C10 C 0.30836(12) 0.28051(18) 0.40396(11)
C11 C 0.21765(12) 0.32941(18) 0.34545(11)
C12 C 0.14746(12) 0.35064(17) 0.37355(10)
C13 C 0.23192(11) 0.21161(16) 0.49280(10)
C14 C 0.30088(12) 0.18689(17) 0.46309(11)
C15 C 0.14795(11) 0.41052(16) 0.50670(10)
C16 C 0.15927(12) 0.55534(17) 0.62926(11)
C17 C 0.11570(12) 0.63034(17) 0.56455(11)
C18 C 0.19019(14) 0.59272(19) 0.71613(11)
H9 H 0.1693 0.6826 0.7197
H10 H 0.1615 0.5334 0.7424
C19 C 0.08514(14) 0.76987(19) 0.56249(13)
H11 H 0.1116(10) 0.8045(7) 0.6133(8)
H12 H 0.0220(10) 0.7729(2) 0.5444(10)
H13 H 0.1032(10) 0.8169(8) 0.5285(9)
C20 C 0.39048(13) 0.32584(19) 0.40629(11)
C21 C 0.56625(14) 0.3894(2) 0.45070(15)
C22 C 0.52042(15) 0.4751(2) 0.39401(15)
C23 C 0.66970(15) 0.3799(2) 0.4980(2)
H14 H 0.6982(6) 0.4600(17) 0.4929(11)
H15 H 0.6936(5) 0.3094(19) 0.4773(10)
H16 H 0.6830(3) 0.364(2) 0.5537(11)
C24 C 0.56014(18) 0.5865(3) 0.36386(17)
H17 H 0.6234(12) 0.5737(12) 0.3797(12)
H18 H 0.5503(14) 0.6645(15) 0.3854(12)
H19 H 0.5312(12) 0.5901(14) 0.3079(11)
C25 C 0.33809(13) 0.68625(17) 0.74490(10)
C26 C 0.44003(14) 0.66754(19) 0.78500(11)
C27 C 0.47951(19) 0.5602(3) 0.83273(15)
H20 H 0.4418 0.4951 0.8414
C28 C 0.5762(2) 0.5493(4) 0.86796(17)
H21 H 0.6038 0.4757 0.9006
C29 C 0.63100(19) 0.6417(3) 0.85638(16)
H22 H 0.6964 0.6324 0.8810
C30 C 0.59241(17) 0.7481(3) 0.80935(17)
H23 H 0.6308 0.8130 0.8015
C31 C 0.49640(15) 0.7608(2) 0.77296(14)
H24 H 0.4695 0.8342 0.7397
loop_
_geom_bond_atom_site_label_1
_geom_bond_atom_site_label_2
_geom_bond_site_symmetry_1
_geom_bond_site_symmetry_2
S1 C15 1_555 1_555
S2 C15 1_555 1_555
S3 C20 1_555 1_555
S4 C20 1_555 1_555
O1 C18 1_555 1_555
O2 C25 1_555 1_555
C1 H1 1_555 1_555
C2 C1 1_555 1_555
H2 C2 1_555 1_555
C3 C2 1_555 1_555
H3 C3 1_555 1_555
C4 C3 1_555 1_555
H4 C4 1_555 1_555
C5 H5 1_555 1_555
C6 C5 1_555 1_555
H6 C6 1_555 1_555
C7 C6 1_555 1_555
H7 C7 1_555 1_555
C8 C7 1_555 1_555
H8 C8 1_555 1_555
C9 C12 1_555 1_555
C10 C11 1_555 1_555
C11 C5 1_555 1_555
C12 C8 1_555 1_555
C13 C1 1_555 1_555
C14 C4 1_555 1_555
C15 C9 1_555 1_555
C16 S1 1_555 1_555
C17 S2 1_555 1_555
C18 C16 1_555 1_555
H9 C18 1_555 1_555
H10 C18 1_555 1_555
C19 C17 1_555 1_555
H11 C19 1_555 1_555
H12 C19 1_555 1_555
H13 C19 1_555 1_555
C20 C10 1_555 1_555
C21 S3 1_555 1_555
C22 S4 1_555 1_555
C23 C21 1_555 1_555
H14 C23 1_555 1_555
H15 C23 1_555 1_555
H16 C23 1_555 1_555
C24 C22 1_555 1_555
H17 C24 1_555 1_555
H18 C24 1_555 1_555
H19 C24 1_555 1_555
C25 O1 1_555 1_555
C26 C25 1_555 1_555
C27 C26 1_555 1_555
H20 C27 1_555 1_555
C28 C27 1_555 1_555
H21 C28 1_555 1_555
C29 C28 1_555 1_555
H22 C29 1_555 1_555
C30 C29 1_555 1_555
H23 C30 1_555 1_555
C31 C26 1_555 1_555
H24 C31 1_555 1_555
C9 C13 1_555 1_555
C10 C14 1_555 1_555
C11 C12 1_555 1_555
C13 C14 1_555 1_555
C16 C17 1_555 1_555
C21 C22 1_555 1_555
C30 C31 1_555 1_555

#END
