
#######################################################################
#
#                 Cambridge Crystallographic Data Centre
#                                CCDC 
#
#######################################################################
#
# If this CIF has been generated from an entry in the Cambridge 
# Structural Database, then it will include bibliographic, chemical, 
# crystal, experimental, refinement or atomic coordinate data resulting 
# from the CCDC's data processing and validation procedures.
#
#######################################################################

data_GUPMAF
_chemical_formula_moiety         'C24 H20 O2 S4'
_chemical_name_systematic        
9-(4,5-Dimethyl-1,3-dithiol-2-ylidene)-10-(4,5-bis(hydroxymethyl)-1,3-dithiol-2-ylidene)-9,10-dihydroanthracene
_symmetry_cell_setting           monoclinic
_symmetry_space_group_name_H-M   'P 21/n'
_symmetry_Int_Tables_number      14
_space_group_name_Hall           '-P 2yn'
loop_
_symmetry_equiv_pos_site_id
_symmetry_equiv_pos_as_xyz
1 x,y,z
2 1/2+x,1/2-y,1/2+z
3 -x,-y,-z
4 1/2-x,1/2+y,1/2-z
_cell_length_a                   11.193(3)
_cell_length_b                   12.803(4)
_cell_length_c                   15.343(5)
_cell_angle_alpha                90
_cell_angle_beta                 102.48(1)
_cell_angle_gamma                90
_cell_volume                     2146.76
_exptl_crystal_colour            yellow
_exptl_crystal_description       block
_chemical_melting_point          'above 250 deg.C'
_cell_formula_units_Z            4
_exptl_crystal_recrystallization_method dichloromethane/methanol
loop_
_atom_site_label
_atom_site_type_symbol
_atom_site_fract_x
_atom_site_fract_y
_atom_site_fract_z
S1 S 0.32260(4) 0.58531(4) 0.02689(3)
S2 S 0.55993(4) 0.60228(4) 0.15132(4)
S3 S 0.31456(5) 0.07735(4) 0.15892(3)
S4 S 0.54940(5) 0.11685(4) 0.28149(4)
C1 C 0.14862(16) 0.46418(15) 0.11636(12)
H1 H 0.1488 0.5352 0.0983
C2 C 0.04003(18) 0.40682(16) 0.09476(13)
H2 H -0.0319 0.4383 0.0607
C3 C 0.03702(18) 0.30450(16) 0.12292(14)
H3 H -0.0367 0.2654 0.1081
C4 C 0.14265(17) 0.25915(15) 0.17341(13)
H4 H 0.1397 0.1895 0.1942
C5 C 0.51143(18) 0.31322(16) 0.39017(13)
H5 H 0.5055 0.2438 0.4107
C6 C 0.58412(19) 0.38526(17) 0.44525(14)
H6 H 0.6275 0.3650 0.5030
C7 C 0.59274(18) 0.48703(17) 0.41572(13)
H7 H 0.6430 0.5362 0.4531
C8 C 0.52777(17) 0.51678(15) 0.33185(13)
H8 H 0.5339 0.5868 0.3127
C9 C 0.37550(16) 0.47556(14) 0.18722(12)
C10 C 0.36815(16) 0.26744(14) 0.24455(12)
C11 C 0.44731(16) 0.34143(15) 0.30461(12)
C12 C 0.45365(16) 0.44581(15) 0.27479(12)
C13 C 0.25708(16) 0.41906(14) 0.16399(12)
C14 C 0.25316(16) 0.31394(15) 0.19324(12)
C15 C 0.41232(16) 0.54579(14) 0.13087(12)
C16 C 0.43947(18) 0.65044(15) -0.01192(13)
C17 C 0.54782(18) 0.65746(15) 0.04463(14)
C18 C 0.4029(2) 0.69780(17) -0.10377(14)
H9 H 0.4699 0.7431 -0.1147
H10 H 0.3905 0.6413 -0.1489
C19 C 0.6596(2) 0.7148(2) 0.03071(16)
H12 H 0.6725 0.7025 -0.0306
H13 H 0.7328 0.6943 0.0744
C20 C 0.40317(17) 0.16748(14) 0.23230(13)
C21 C 0.4282(2) -0.01829(17) 0.16420(15)
C22 C 0.5363(2) -0.00021(17) 0.22001(15)
C23 C 0.3897(3) -0.1121(2) 0.10572(18)
H17 H 0.4476 -0.1700 0.1259
H18 H 0.3076 -0.1349 0.1125
H19 H 0.3880 -0.0952 0.0445
C24 C 0.6468(3) -0.0693(2) 0.2412(2)
H20 H 0.6936 -0.0625 0.3073
H21 H 0.7009 -0.0519 0.2027
H22 H 0.6215 -0.1406 0.2296
O1 O 0.2900(3) 0.7597(3) -0.1144(2)
O2 O 0.6295(4) 0.8333(3) 0.0401(3)
H11? H 0.3559 0.7477 -0.0989
H14? H 0.7122 0.7668 0.0963
H15? H 0.6350 0.7631 -0.0195
H16? H 0.7153 0.6666 0.0145
O3? O 0.3864(4) -0.0920(3) 0.0192(3)
O4? O 0.7149(6) -0.0670(5) 0.1947(4)
O5? O 0.6515(8) -0.1604(7) 0.2286(6)
loop_
_geom_bond_atom_site_label_1
_geom_bond_atom_site_label_2
_geom_bond_site_symmetry_1
_geom_bond_site_symmetry_2
S1 C15 1_555 1_555
S2 C15 1_555 1_555
S3 C20 1_555 1_555
S4 C20 1_555 1_555
C1 H1 1_555 1_555
C2 C1 1_555 1_555
H2 C2 1_555 1_555
C3 C2 1_555 1_555
H3 C3 1_555 1_555
C4 C3 1_555 1_555
H4 C4 1_555 1_555
C5 H5 1_555 1_555
C6 C5 1_555 1_555
H6 C6 1_555 1_555
C7 C6 1_555 1_555
H7 C7 1_555 1_555
C8 C7 1_555 1_555
H8 C8 1_555 1_555
C9 C12 1_555 1_555
C10 C11 1_555 1_555
C11 C5 1_555 1_555
C12 C8 1_555 1_555
C13 C1 1_555 1_555
C14 C4 1_555 1_555
C15 C9 1_555 1_555
C16 S1 1_555 1_555
C17 S2 1_555 1_555
C18 C16 1_555 1_555
H9 C18 1_555 1_555
H10 C18 1_555 1_555
C19 C17 1_555 1_555
H12 C19 1_555 1_555
H13 C19 1_555 1_555
C20 C10 1_555 1_555
C21 S3 1_555 1_555
C22 S4 1_555 1_555
C23 C21 1_555 1_555
H17 C23 1_555 1_555
H18 C23 1_555 1_555
H19 C23 1_555 1_555
C24 C22 1_555 1_555
H20 C24 1_555 1_555
H21 C24 1_555 1_555
H22 C24 1_555 1_555
O1 C18 1_555 1_555
O2 C19 1_555 1_555
C9 C13 1_555 1_555
C10 C14 1_555 1_555
C11 C12 1_555 1_555
C13 C14 1_555 1_555
C16 C17 1_555 1_555
C21 C22 1_555 1_555

#END
