
#######################################################################
#
#                 Cambridge Crystallographic Data Centre
#                                CCDC 
#
#######################################################################
#
# If this CIF has been generated from an entry in the Cambridge 
# Structural Database, then it will include bibliographic, chemical, 
# crystal, experimental, refinement or atomic coordinate data resulting 
# from the CCDC's data processing and validation procedures.
#
#######################################################################

data_GUPNOV
_chemical_formula_moiety         'C46 H58 I2 Mg2 N4'
_chemical_name_systematic        
bis(\m~2~-Iodo)-bis(N,N'-dimesitylpentane-2,4-di-iminato-N,N')-di-magnesium
_symmetry_cell_setting           triclinic
_symmetry_space_group_name_H-M   'P -1'
_symmetry_Int_Tables_number      2
_space_group_name_Hall           '-P 1'
loop_
_symmetry_equiv_pos_site_id
_symmetry_equiv_pos_as_xyz
1 x,y,z
2 -x,-y,-z
_cell_length_a                   8.5311(17)
_cell_length_b                   11.016(2)
_cell_length_c                   13.514(3)
_cell_angle_alpha                66.59(3)
_cell_angle_beta                 83.35(3)
_cell_angle_gamma                80.08(3)
_cell_volume                     1146.48
_exptl_crystal_colour            colorless
_exptl_crystal_description       block
_cell_formula_units_Z            1
loop_
_atom_site_label
_atom_site_type_symbol
_atom_site_fract_x
_atom_site_fract_y
_atom_site_fract_z
I1 I 0.725596(18) 0.542587(15) 0.515529(13)
Mg1 Mg 0.59422(9) 0.36077(7) 0.47029(6)
N1 N 0.6629(2) 0.17484(18) 0.57496(15)
C1 C 0.7203(3) -0.0683(2) 0.6268(2)
H1 H 0.8250 -0.0813 0.6554
H2 H 0.7194 -0.1323 0.5931
H3 H 0.6382 -0.0825 0.6858
N2 N 0.6665(2) 0.32720(18) 0.33607(14)
C2 C 0.6868(3) 0.0727(2) 0.54327(18)
C3 C 0.6885(3) 0.0872(2) 0.43550(18)
H4 H 0.6864 0.0071 0.4251
C4 C 0.6928(3) 0.2024(2) 0.34024(18)
C5 C 0.7345(4) 0.1795(3) 0.2363(2)
H5 H 0.6469 0.2227 0.1876
H6 H 0.7518 0.0834 0.2524
H7 H 0.8319 0.2178 0.2016
C6 C 0.7000(3) 0.1542(2) 0.68235(17)
C7 C 0.8579(3) 0.1568(2) 0.70066(18)
C8 C 0.8930(3) 0.1505(2) 0.8006(2)
H8 H 0.9996 0.1525 0.8131
C9 C 0.7756(3) 0.1415(2) 0.8828(2)
C10 C 0.6209(3) 0.1375(2) 0.86318(19)
H9 H 0.5403 0.1294 0.9193
C11 C 0.5800(3) 0.1450(2) 0.76372(18)
C12 C 0.9872(3) 0.1687(3) 0.6126(2)
H10 H 0.9984 0.0909 0.5930
H11 H 1.0882 0.1728 0.6383
H12 H 0.9590 0.2502 0.5491
C13 C 0.8144(4) 0.1396(3) 0.9896(2)
H13 H 0.7872 0.2296 0.9898
H14 H 0.9285 0.1097 1.0002
H15 H 0.7529 0.0781 1.0481
C14 C 0.4090(3) 0.1442(3) 0.7467(2)
H16 H 0.3480 0.2319 0.7362
H17 H 0.3639 0.0758 0.8101
H18 H 0.4037 0.1243 0.6827
C15 C 0.6957(3) 0.4341(2) 0.23377(17)
C16 C 0.8478(3) 0.4732(2) 0.20835(19)
C17 C 0.8758(3) 0.5773(3) 0.1100(2)
H19 H 0.9792 0.6035 0.0922
C18 C 0.7567(3) 0.6439(2) 0.03702(19)
C19 C 0.6071(3) 0.6032(2) 0.06542(19)
H20 H 0.5245 0.6473 0.0166
C20 C 0.5732(3) 0.5002(2) 0.16300(18)
C21 C 0.9798(3) 0.4035(3) 0.2848(2)
H21 H 0.9525 0.4186 0.3519
H22 H 1.0791 0.4392 0.2514
H23 H 0.9938 0.3075 0.3009
C22 C 0.7896(4) 0.7551(3) -0.0692(2)
H24 H 0.6923 0.7891 -0.1095
H25 H 0.8737 0.7211 -0.1113
H26 H 0.8242 0.8274 -0.0559
C23 C 0.4066(3) 0.4635(3) 0.1889(2)
H27 H 0.4116 0.3672 0.2307
H28 H 0.3540 0.4876 0.1217
H29 H 0.3460 0.5120 0.2313
I1A I 0.274404(18) 0.457413(15) 0.484471(13)
Mg1A Mg 0.40578(9) 0.63923(7) 0.52971(6)
N1A N 0.3371(2) 0.82516(18) 0.42504(15)
C1A C 0.2797(3) 1.0683(2) 0.3732(2)
H1A H 0.1750 1.0813 0.3446
H2A H 0.2806 1.1323 0.4069
H3A H 0.3618 1.0825 0.3142
N2A N 0.3335(2) 0.67280(18) 0.66393(14)
C2A C 0.3132(3) 0.9273(2) 0.45673(18)
C3A C 0.3115(3) 0.9128(2) 0.56450(18)
H4A H 0.3136 0.9929 0.5749
C4A C 0.3072(3) 0.7976(2) 0.65976(18)
C5A C 0.2655(4) 0.8205(3) 0.7637(2)
H5A H 0.3531 0.7773 0.8124
H6A H 0.2482 0.9166 0.7476
H7A H 0.1681 0.7822 0.7984
C6A C 0.3000(3) 0.8458(2) 0.31765(17)
C7A C 0.1421(3) 0.8432(2) 0.29934(18)
C8A C 0.1070(3) 0.8495(2) 0.1994(2)
H8A H 0.0004 0.8475 0.1869
C9A C 0.2244(3) 0.8585(2) 0.1172(2)
C10A C 0.3791(3) 0.8625(2) 0.13682(19)
H9A H 0.4597 0.8706 0.0807
C11A C 0.4200(3) 0.8550(2) 0.23628(18)
C12A C 0.0128(3) 0.8313(3) 0.3874(2)
H10A H 0.0016 0.9091 0.4070
H11A H -0.0882 0.8272 0.3617
H12A H 0.0410 0.7498 0.4509
C13A C 0.1856(4) 0.8604(3) 0.0104(2)
H13A H 0.2128 0.7704 0.0102
H14A H 0.0715 0.8903 -0.0002
H15A H 0.2471 0.9219 -0.0481
C14A C 0.5910(3) 0.8558(3) 0.2533(2)
H16A H 0.6520 0.7681 0.2638
H17A H 0.6361 0.9242 0.1899
H18A H 0.5963 0.8757 0.3173
C15A C 0.3043(3) 0.5659(2) 0.76623(17)
C16A C 0.1522(3) 0.5268(2) 0.79165(19)
C17A C 0.1242(3) 0.4227(3) 0.8900(2)
H19A H 0.0208 0.3965 0.9078
C18A C 0.2433(3) 0.3561(2) 0.96298(19)
C19A C 0.3929(3) 0.3968(2) 0.93458(19)
H20A H 0.4755 0.3527 0.9834
C20A C 0.4268(3) 0.4998(2) 0.83700(18)
C21A C 0.0202(3) 0.5965(3) 0.7152(2)
H21A H 0.0475 0.5814 0.6481
H22A H -0.0791 0.5608 0.7486
H23A H 0.0062 0.6925 0.6991
C22A C 0.2104(4) 0.2449(3) 1.0692(2)
H24A H 0.3077 0.2109 1.1095
H25A H 0.1263 0.2789 1.1113
H26A H 0.1758 0.1726 1.0559
C23A C 0.5934(3) 0.5365(3) 0.8111(2)
H27A H 0.5884 0.6328 0.7693
H28A H 0.6460 0.5124 0.8783
H29A H 0.6540 0.4880 0.7687
loop_
_geom_bond_atom_site_label_1
_geom_bond_atom_site_label_2
_geom_bond_site_symmetry_1
_geom_bond_site_symmetry_2
I1 Mg1 1_555 1_555
Mg1 N1 1_555 1_555
N1 C2 1_555 1_555
C1 H1 1_555 1_555
H2 C1 1_555 1_555
H3 C1 1_555 1_555
N2 Mg1 1_555 1_555
C2 C1 1_555 1_555
C3 C2 1_555 1_555
H4 C3 1_555 1_555
C4 N2 1_555 1_555
C5 C4 1_555 1_555
H5 C5 1_555 1_555
H6 C5 1_555 1_555
H7 C5 1_555 1_555
C6 N1 1_555 1_555
C7 C6 1_555 1_555
C8 C7 1_555 1_555
H8 C8 1_555 1_555
C9 C8 1_555 1_555
C10 C9 1_555 1_555
H9 C10 1_555 1_555
C11 C6 1_555 1_555
C12 C7 1_555 1_555
H10 C12 1_555 1_555
H11 C12 1_555 1_555
H12 C12 1_555 1_555
C13 C9 1_555 1_555
H13 C13 1_555 1_555
H14 C13 1_555 1_555
H15 C13 1_555 1_555
C14 C11 1_555 1_555
H16 C14 1_555 1_555
H17 C14 1_555 1_555
H18 C14 1_555 1_555
C15 N2 1_555 1_555
C16 C15 1_555 1_555
C17 C16 1_555 1_555
H19 C17 1_555 1_555
C18 C17 1_555 1_555
C19 C18 1_555 1_555
H20 C19 1_555 1_555
C20 C15 1_555 1_555
C21 C16 1_555 1_555
H21 C21 1_555 1_555
H22 C21 1_555 1_555
H23 C21 1_555 1_555
C22 C18 1_555 1_555
H24 C22 1_555 1_555
H25 C22 1_555 1_555
H26 C22 1_555 1_555
C23 C20 1_555 1_555
H27 C23 1_555 1_555
H28 C23 1_555 1_555
H29 C23 1_555 1_555
I1A Mg1 1_555 1_555
Mg1A I1 1_555 1_555
N1A Mg1A 1_555 1_555
C1A H1A 1_555 1_555
H2A C1A 1_555 1_555
H3A C1A 1_555 1_555
N2A Mg1A 1_555 1_555
C2A N1A 1_555 1_555
C3A C2A 1_555 1_555
H4A C3A 1_555 1_555
C4A N2A 1_555 1_555
C5A C4A 1_555 1_555
H5A C5A 1_555 1_555
H6A C5A 1_555 1_555
H7A C5A 1_555 1_555
C6A N1A 1_555 1_555
C7A C6A 1_555 1_555
C8A C7A 1_555 1_555
H8A C8A 1_555 1_555
C9A C8A 1_555 1_555
C10A C9A 1_555 1_555
H9A C10A 1_555 1_555
C11A C6A 1_555 1_555
C12A C7A 1_555 1_555
H10A C12A 1_555 1_555
H11A C12A 1_555 1_555
H12A C12A 1_555 1_555
C13A C9A 1_555 1_555
H13A C13A 1_555 1_555
H14A C13A 1_555 1_555
H15A C13A 1_555 1_555
C14A C11A 1_555 1_555
H16A C14A 1_555 1_555
H17A C14A 1_555 1_555
H18A C14A 1_555 1_555
C15A N2A 1_555 1_555
C16A C15A 1_555 1_555
C17A C16A 1_555 1_555
H19A C17A 1_555 1_555
C18A C17A 1_555 1_555
C19A C18A 1_555 1_555
H20A C19A 1_555 1_555
C20A C15A 1_555 1_555
C21A C16A 1_555 1_555
H21A C21A 1_555 1_555
H22A C21A 1_555 1_555
H23A C21A 1_555 1_555
C22A C18A 1_555 1_555
H24A C22A 1_555 1_555
H25A C22A 1_555 1_555
H26A C22A 1_555 1_555
C23A C20A 1_555 1_555
H27A C23A 1_555 1_555
H28A C23A 1_555 1_555
H29A C23A 1_555 1_555
C3 C4 1_555 1_555
C10 C11 1_555 1_555
C19 C20 1_555 1_555
I1A Mg1A 1_555 1_555
C1A C2A 1_555 1_555
C3A C4A 1_555 1_555
C10A C11A 1_555 1_555
C19A C20A 1_555 1_555

#END
