
#######################################################################
#
#                 Cambridge Crystallographic Data Centre
#                                CCDC 
#
#######################################################################
#
# If this CIF has been generated from an entry in the Cambridge 
# Structural Database, then it will include bibliographic, chemical, 
# crystal, experimental, refinement or atomic coordinate data resulting 
# from the CCDC's data processing and validation procedures.
#
#######################################################################

data_GUPQEO
_chemical_formula_moiety         'C23 H29 Be1 I1 N2'
_chemical_name_systematic        
(N,N'-Dimesitylpentane-2,4-di-iminato-N,N')-iodo-beryllium
_symmetry_cell_setting           monoclinic
_symmetry_space_group_name_H-M   'C 2/c'
_symmetry_Int_Tables_number      15
_space_group_name_Hall           '-C 2yn'
loop_
_symmetry_equiv_pos_site_id
_symmetry_equiv_pos_as_xyz
1 x,y,z
2 -x,y,1/2-z
3 1/2+x,1/2+y,z
4 1/2-x,1/2+y,1/2-z
5 -x,-y,-z
6 x,-y,1/2+z
7 1/2-x,1/2-y,-z
8 1/2+x,1/2-y,1/2+z
_cell_length_a                   14.5500(3)
_cell_length_b                   10.1094(3)
_cell_length_c                   16.3074(4)
_cell_angle_alpha                90
_cell_angle_beta                 111.130(2)
_cell_angle_gamma                90
_cell_volume                     2237.41
_exptl_crystal_colour            colorless
_exptl_crystal_description       block
_chemical_melting_point          '199-201 deg.C'
_cell_formula_units_Z            4
loop_
_atom_site_label
_atom_site_type_symbol
_atom_site_fract_x
_atom_site_fract_y
_atom_site_fract_z
I1 I 0.0000 0.493670(11) 0.2500
N1 N 0.04593(7) 0.80953(10) 0.19307(6)
C1 C 0.0000 1.00601(16) 0.2500
H1 H 0.0000 1.1000 0.2500
Be1 Be 0.0000 0.7208(2) 0.2500
C2 C 0.03934(9) 0.94166(12) 0.19435(8)
C3 C 0.07541(11) 1.02430(13) 0.13535(9)
H2 H 0.1476 1.0261 0.1587
H3 H 0.0501 1.1146 0.1327
H4 H 0.0520 0.9860 0.0762
C4 C 0.09937(9) 0.74996(12) 0.14347(8)
C5 C 0.20195(9) 0.74047(13) 0.18297(8)
C6 C 0.25271(10) 0.67540(14) 0.13706(9)
H5 H 0.3224 0.6683 0.1629
C7 C 0.20445(10) 0.62046(13) 0.05455(9)
C8 C 0.10265(10) 0.63371(13) 0.01657(8)
H6 H 0.0691 0.5982 -0.0404
C9 C 0.04853(9) 0.69797(12) 0.06006(8)
C10 C 0.25559(10) 0.79697(16) 0.27327(9)
H7 H 0.2384 0.7463 0.3169
H8 H 0.2364 0.8896 0.2747
H9 H 0.3268 0.7917 0.2869
C11 C 0.26185(12) 0.54688(16) 0.00812(11)
H10 H 0.3210 0.5974 0.0128
H11 H 0.2207 0.5357 -0.0540
H12 H 0.2811 0.4599 0.0354
C12 C -0.06178(9) 0.70987(13) 0.01924(8)
H13 H -0.0850 0.6674 -0.0387
H14 H -0.0803 0.8036 0.0128
H15 H -0.0919 0.6664 0.0571
N1A N -0.04593(7) 0.80953(10) 0.30693(6)
C2A C -0.03934(9) 0.94166(12) 0.30565(8)
C3A C -0.07541(11) 1.02430(13) 0.36465(9)
H2A H -0.1476 1.0261 0.3413
H3A H -0.0501 1.1146 0.3673
H4A H -0.0520 0.9860 0.4238
C4A C -0.09937(9) 0.74996(12) 0.35653(8)
C5A C -0.20195(9) 0.74047(13) 0.31703(8)
C6A C -0.25271(10) 0.67540(14) 0.36294(9)
H5A H -0.3224 0.6683 0.3371
C7A C -0.20445(10) 0.62046(13) 0.44545(9)
C8A C -0.10265(10) 0.63371(13) 0.48343(8)
H6A H -0.0691 0.5982 0.5404
C9A C -0.04853(9) 0.69797(12) 0.43994(8)
C10A C -0.25559(10) 0.79697(16) 0.22673(9)
H7A H -0.2384 0.7463 0.1831
H8A H -0.2364 0.8896 0.2253
H9A H -0.3268 0.7917 0.2131
C11A C -0.26185(12) 0.54688(16) 0.49188(11)
H10A H -0.3210 0.5974 0.4872
H11A H -0.2207 0.5357 0.5540
H12A H -0.2811 0.4599 0.4646
C12A C 0.06178(9) 0.70987(13) 0.48076(8)
H13A H 0.0850 0.6674 0.5387
H14A H 0.0803 0.8036 0.4872
H15A H 0.0919 0.6664 0.4429
loop_
_geom_bond_atom_site_label_1
_geom_bond_atom_site_label_2
_geom_bond_site_symmetry_1
_geom_bond_site_symmetry_2
I1 Be1 1_555 1_555
N1 Be1 1_555 1_555
C1 H1 1_555 1_555
Be1 N1A 1_555 1_555
C2 N1 1_555 1_555
C3 C2 1_555 1_555
H2 C3 1_555 1_555
H3 C3 1_555 1_555
H4 C3 1_555 1_555
C4 N1 1_555 1_555
C5 C4 1_555 1_555
C6 C5 1_555 1_555
H5 C6 1_555 1_555
C7 C6 1_555 1_555
C8 C7 1_555 1_555
H6 C8 1_555 1_555
C9 C4 1_555 1_555
C10 C5 1_555 1_555
H7 C10 1_555 1_555
H8 C10 1_555 1_555
H9 C10 1_555 1_555
C11 C7 1_555 1_555
H10 C11 1_555 1_555
H11 C11 1_555 1_555
H12 C11 1_555 1_555
C12 C9 1_555 1_555
H13 C12 1_555 1_555
H14 C12 1_555 1_555
H15 C12 1_555 1_555
N1A C2A 1_555 1_555
C2A C1 1_555 1_555
C3A C2A 1_555 1_555
H2A C3A 1_555 1_555
H3A C3A 1_555 1_555
H4A C3A 1_555 1_555
C4A N1A 1_555 1_555
C5A C4A 1_555 1_555
C6A C5A 1_555 1_555
H5A C6A 1_555 1_555
C7A C6A 1_555 1_555
C8A C7A 1_555 1_555
H6A C8A 1_555 1_555
C9A C4A 1_555 1_555
C10A C5A 1_555 1_555
H7A C10A 1_555 1_555
H8A C10A 1_555 1_555
H9A C10A 1_555 1_555
C11A C7A 1_555 1_555
H10A C11A 1_555 1_555
H11A C11A 1_555 1_555
H12A C11A 1_555 1_555
C12A C9A 1_555 1_555
H13A C12A 1_555 1_555
H14A C12A 1_555 1_555
H15A C12A 1_555 1_555
C1 C2 1_555 1_555
C8 C9 1_555 1_555
C8A C9A 1_555 1_555

#END
