
#######################################################################
#
#                 Cambridge Crystallographic Data Centre
#                                CCDC 
#
#######################################################################
#
# If this CIF has been generated from an entry in the Cambridge 
# Structural Database, then it will include bibliographic, chemical, 
# crystal, experimental, refinement or atomic coordinate data resulting 
# from the CCDC's data processing and validation procedures.
#
#######################################################################

data_GUPQUE
_chemical_formula_moiety         'C46 H58 Mg2 N4'
_chemical_name_systematic        
bis(N,N'-Dimesitylpentane-2,4-di-iminato-N,N')-di-magnesium(i)
_symmetry_cell_setting           monoclinic
_symmetry_space_group_name_H-M   'P 2/n'
_symmetry_Int_Tables_number      13
_space_group_name_Hall           '-P 2yac'
loop_
_symmetry_equiv_pos_site_id
_symmetry_equiv_pos_as_xyz
1 x,y,z
2 1/2-x,y,1/2-z
3 -x,-y,-z
4 1/2+x,-y,1/2+z
_cell_length_a                   13.487(3)
_cell_length_b                   8.1980(16)
_cell_length_c                   19.795(4)
_cell_angle_alpha                90
_cell_angle_beta                 100.88(3)
_cell_angle_gamma                90
_cell_volume                     2149.32
_exptl_crystal_colour            'light yellow'
_exptl_crystal_description       block
_cell_formula_units_Z            2
loop_
_atom_site_label
_atom_site_type_symbol
_atom_site_fract_x
_atom_site_fract_y
_atom_site_fract_z
Mg1 Mg 0.31308(4) 0.22176(8) 0.31511(3)
N1 N 0.29172(10) 0.29197(18) 0.41012(7)
C1 C 0.33883(13) 0.3705(3) 0.53201(9)
H1 H 0.3062 0.4773 0.5236
H2 H 0.4011 0.3816 0.5664
H3 H 0.2930 0.2947 0.5491
N2 N 0.46060(10) 0.16572(18) 0.35166(7)
C2 C 0.36372(12) 0.3054(2) 0.46577(8)
C3 C 0.46471(12) 0.2591(2) 0.46792(8)
H4 H 0.5092 0.2777 0.5105
C4 C 0.50901(11) 0.1893(2) 0.41597(8)
C5 C 0.61785(12) 0.1365(2) 0.43694(9)
H5 H 0.6230 0.0189 0.4293
H6 H 0.6417 0.1610 0.4858
H7 H 0.6594 0.1953 0.4093
C6 C 0.18974(11) 0.3332(2) 0.41496(8)
C7 C 0.12522(12) 0.2119(2) 0.43163(8)
C8 C 0.02508(12) 0.2522(2) 0.43254(9)
H8 H -0.0187 0.1703 0.4441
C9 C -0.01278(12) 0.4080(2) 0.41705(8)
C10 C 0.05206(13) 0.5251(2) 0.39894(9)
H9 H 0.0270 0.6319 0.3875
C11 C 0.15295(12) 0.4908(2) 0.39705(8)
C12 C 0.16150(15) 0.0405(2) 0.44679(12)
H10 H 0.1035 -0.0313 0.4472
H11 H 0.2065 0.0368 0.4918
H12 H 0.1982 0.0038 0.4113
C13 C -0.12128(13) 0.4482(3) 0.41895(10)
H13 H -0.1533 0.3545 0.4369
H14 H -0.1573 0.4736 0.3724
H15 H -0.1239 0.5428 0.4489
C14 C 0.22042(15) 0.6190(2) 0.37569(11)
H16 H 0.1819 0.7199 0.3642
H17 H 0.2461 0.5810 0.3353
H18 H 0.2772 0.6398 0.4136
C15 C 0.51509(11) 0.0955(2) 0.30335(8)
C16 C 0.50536(12) -0.0714(2) 0.28840(8)
C17 C 0.55665(13) -0.1367(2) 0.23961(9)
H19 H 0.5508 -0.2501 0.2297
C18 C 0.61600(13) -0.0406(2) 0.20520(9)
C19 C 0.62224(12) 0.1247(2) 0.21972(8)
H20 H 0.6617 0.1920 0.1960
C20 C 0.57255(12) 0.1957(2) 0.26804(8)
C21 C 0.43996(16) -0.1782(2) 0.32359(11)
H21 H 0.4567 -0.1600 0.3734
H22 H 0.4518 -0.2929 0.3136
H23 H 0.3688 -0.1513 0.3067
C22 C 0.67231(17) -0.1135(3) 0.15332(11)
H24 H 0.6272 -0.1200 0.1084
H25 H 0.6958 -0.2231 0.1682
H26 H 0.7304 -0.0445 0.1497
C23 C 0.57901(15) 0.3770(2) 0.28061(11)
H27 H 0.6269 0.4250 0.2547
H28 H 0.6021 0.3977 0.3298
H29 H 0.5122 0.4260 0.2655
Mg1A Mg 0.18692(4) 0.22176(8) 0.18489(3)
N1A N 0.20828(10) 0.29197(18) 0.08988(7)
C1A C 0.16117(13) 0.3705(3) -0.03201(9)
H1A H 0.1938 0.4773 -0.0236
H2A H 0.0989 0.3816 -0.0664
H3A H 0.2070 0.2947 -0.0491
N2A N 0.03940(10) 0.16572(18) 0.14834(7)
C2A C 0.13628(12) 0.3054(2) 0.03423(8)
C3A C 0.03529(12) 0.2591(2) 0.03208(8)
H4A H -0.0092 0.2777 -0.0105
C4A C -0.00901(11) 0.1893(2) 0.08403(8)
C5A C -0.11785(12) 0.1365(2) 0.06306(9)
H5A H -0.1230 0.0189 0.0707
H6A H -0.1417 0.1610 0.0142
H7A H -0.1594 0.1953 0.0907
C6A C 0.31026(11) 0.3332(2) 0.08504(8)
C7A C 0.37478(12) 0.2119(2) 0.06837(8)
C8A C 0.47492(12) 0.2522(2) 0.06746(9)
H8A H 0.5187 0.1703 0.0559
C9A C 0.51278(12) 0.4080(2) 0.08295(8)
C10A C 0.44794(13) 0.5251(2) 0.10106(9)
H9A H 0.4730 0.6319 0.1125
C11A C 0.34705(12) 0.4908(2) 0.10295(8)
C12A C 0.33850(15) 0.0405(2) 0.05321(12)
H10A H 0.3965 -0.0313 0.0528
H11A H 0.2935 0.0368 0.0082
H12A H 0.3018 0.0038 0.0887
C13A C 0.62128(13) 0.4482(3) 0.08105(10)
H13A H 0.6533 0.3545 0.0631
H14A H 0.6573 0.4736 0.1276
H15A H 0.6239 0.5428 0.0511
C14A C 0.27958(15) 0.6190(2) 0.12431(11)
H16A H 0.3181 0.7199 0.1358
H17A H 0.2539 0.5810 0.1647
H18A H 0.2228 0.6398 0.0864
C15A C -0.01509(11) 0.0955(2) 0.19665(8)
C16A C -0.00536(12) -0.0714(2) 0.21160(8)
C17A C -0.05665(13) -0.1367(2) 0.26039(9)
H19A H -0.0508 -0.2501 0.2703
C18A C -0.11600(13) -0.0406(2) 0.29480(9)
C19A C -0.12224(12) 0.1247(2) 0.28028(8)
H20A H -0.1617 0.1920 0.3040
C20A C -0.07255(12) 0.1957(2) 0.23196(8)
C21A C 0.06004(16) -0.1782(2) 0.17641(11)
H21A H 0.0433 -0.1600 0.1266
H22A H 0.0482 -0.2929 0.1864
H23A H 0.1312 -0.1513 0.1933
C22A C -0.17231(17) -0.1135(3) 0.34668(11)
H24A H -0.1272 -0.1200 0.3916
H25A H -0.1958 -0.2231 0.3318
H26A H -0.2304 -0.0445 0.3503
C23A C -0.07901(15) 0.3770(2) 0.21939(11)
H27A H -0.1269 0.4250 0.2453
H28A H -0.1021 0.3977 0.1702
H29A H -0.0122 0.4260 0.2345
loop_
_geom_bond_atom_site_label_1
_geom_bond_atom_site_label_2
_geom_bond_site_symmetry_1
_geom_bond_site_symmetry_2
Mg1 N1 1_555 1_555
N1 C2 1_555 1_555
C1 H1 1_555 1_555
H2 C1 1_555 1_555
H3 C1 1_555 1_555
N2 Mg1 1_555 1_555
C2 C1 1_555 1_555
C3 C2 1_555 1_555
H4 C3 1_555 1_555
C4 N2 1_555 1_555
C5 C4 1_555 1_555
H5 C5 1_555 1_555
H6 C5 1_555 1_555
H7 C5 1_555 1_555
C6 N1 1_555 1_555
C7 C6 1_555 1_555
C8 C7 1_555 1_555
H8 C8 1_555 1_555
C9 C8 1_555 1_555
C10 C9 1_555 1_555
H9 C10 1_555 1_555
C11 C6 1_555 1_555
C12 C7 1_555 1_555
H10 C12 1_555 1_555
H11 C12 1_555 1_555
H12 C12 1_555 1_555
C13 C9 1_555 1_555
H13 C13 1_555 1_555
H14 C13 1_555 1_555
H15 C13 1_555 1_555
C14 C11 1_555 1_555
H16 C14 1_555 1_555
H17 C14 1_555 1_555
H18 C14 1_555 1_555
C15 N2 1_555 1_555
C16 C15 1_555 1_555
C17 C16 1_555 1_555
H19 C17 1_555 1_555
C18 C17 1_555 1_555
C19 C18 1_555 1_555
H20 C19 1_555 1_555
C20 C15 1_555 1_555
C21 C16 1_555 1_555
H21 C21 1_555 1_555
H22 C21 1_555 1_555
H23 C21 1_555 1_555
C22 C18 1_555 1_555
H24 C22 1_555 1_555
H25 C22 1_555 1_555
H26 C22 1_555 1_555
C23 C20 1_555 1_555
H27 C23 1_555 1_555
H28 C23 1_555 1_555
H29 C23 1_555 1_555
Mg1A Mg1 1_555 1_555
N1A Mg1A 1_555 1_555
C1A H1A 1_555 1_555
H2A C1A 1_555 1_555
H3A C1A 1_555 1_555
N2A Mg1A 1_555 1_555
C2A N1A 1_555 1_555
C3A C2A 1_555 1_555
H4A C3A 1_555 1_555
C4A N2A 1_555 1_555
C5A C4A 1_555 1_555
H5A C5A 1_555 1_555
H6A C5A 1_555 1_555
H7A C5A 1_555 1_555
C6A N1A 1_555 1_555
C7A C6A 1_555 1_555
C8A C7A 1_555 1_555
H8A C8A 1_555 1_555
C9A C8A 1_555 1_555
C10A C9A 1_555 1_555
H9A C10A 1_555 1_555
C11A C6A 1_555 1_555
C12A C7A 1_555 1_555
H10A C12A 1_555 1_555
H11A C12A 1_555 1_555
H12A C12A 1_555 1_555
C13A C9A 1_555 1_555
H13A C13A 1_555 1_555
H14A C13A 1_555 1_555
H15A C13A 1_555 1_555
C14A C11A 1_555 1_555
H16A C14A 1_555 1_555
H17A C14A 1_555 1_555
H18A C14A 1_555 1_555
C15A N2A 1_555 1_555
C16A C15A 1_555 1_555
C17A C16A 1_555 1_555
H19A C17A 1_555 1_555
C18A C17A 1_555 1_555
C19A C18A 1_555 1_555
H20A C19A 1_555 1_555
C20A C15A 1_555 1_555
C21A C16A 1_555 1_555
H21A C21A 1_555 1_555
H22A C21A 1_555 1_555
H23A C21A 1_555 1_555
C22A C18A 1_555 1_555
H24A C22A 1_555 1_555
H25A C22A 1_555 1_555
H26A C22A 1_555 1_555
C23A C20A 1_555 1_555
H27A C23A 1_555 1_555
H28A C23A 1_555 1_555
H29A C23A 1_555 1_555
C3 C4 1_555 1_555
C10 C11 1_555 1_555
C19 C20 1_555 1_555
C1A C2A 1_555 1_555
C3A C4A 1_555 1_555
C10A C11A 1_555 1_555
C19A C20A 1_555 1_555

#END
