
#######################################################################
#
#                 Cambridge Crystallographic Data Centre
#                                CCDC 
#
#######################################################################
#
# If this CIF has been generated from an entry in the Cambridge 
# Structural Database, then it will include bibliographic, chemical, 
# crystal, experimental, refinement or atomic coordinate data resulting 
# from the CCDC's data processing and validation procedures.
#
#######################################################################

data_GUPQOY
_chemical_formula_moiety         'C34 H34 Mg1 N4'
_chemical_name_systematic        
bis(N,N'-Diphenylpentane-2,4-di-iminato-N,N')-magnesium
_symmetry_cell_setting           monoclinic
_symmetry_space_group_name_H-M   'P c'
_symmetry_Int_Tables_number      7
_space_group_name_Hall           'P -2yc'
loop_
_symmetry_equiv_pos_site_id
_symmetry_equiv_pos_as_xyz
1 x,y,z
2 x,-y,1/2+z
_cell_length_a                   11.156(2)
_cell_length_b                   19.757(4)
_cell_length_c                   13.836(3)
_cell_angle_alpha                90
_cell_angle_beta                 106.23(3)
_cell_angle_gamma                90
_cell_volume                     2928.05
_exptl_crystal_colour            yellow
_exptl_crystal_description       block
_chemical_melting_point          '131-133 deg.C'
_cell_formula_units_Z            4
loop_
_atom_site_label
_atom_site_type_symbol
_atom_site_fract_x
_atom_site_fract_y
_atom_site_fract_z
Mg1 Mg 0.41856(7) 0.91442(4) 0.64066(6)
N1 N 0.51661(19) 0.96822(10) 0.56252(15)
C1 C 0.6331(3) 0.97902(14) 0.4344(2)
H1 H 0.6449 1.0261 0.4575
H2 H 0.6019 0.9781 0.3608
H3 H 0.7130 0.9550 0.4558
N2 N 0.33792(19) 0.85444(10) 0.51964(16)
C2 C 0.5397(2) 0.94502(13) 0.4793(2)
N3 N 0.30403(19) 0.94905(10) 0.72152(16)
C3 C 0.4819(2) 0.88694(13) 0.4274(2)
H4 H 0.5122 0.8738 0.3725
N4 N 0.54371(18) 0.87271(10) 0.76335(16)
C4 C 0.3881(2) 0.84573(13) 0.44295(19)
C5 C 0.3497(3) 0.78634(14) 0.3709(2)
H5 H 0.3348 0.7465 0.4081
H6 H 0.4166 0.7765 0.3397
H7 H 0.2732 0.7978 0.3185
C6 C 0.5889(2) 1.02326(13) 0.61780(19)
C7 C 0.7173(3) 1.01914(14) 0.6574(2)
H8 H 0.7606 0.9799 0.6461
C8 C 0.7826(3) 1.07243(15) 0.7136(2)
H9 H 0.8707 1.0697 0.7403
C9 C 0.7203(3) 1.12914(15) 0.7308(2)
H10 H 0.7656 1.1657 0.7685
C10 C 0.5924(3) 1.13305(14) 0.6933(2)
H11 H 0.5496 1.1722 0.7059
C11 C 0.5259(3) 1.08026(13) 0.63747(19)
H12 H 0.4376 1.0829 0.6126
C12 C 0.2311(2) 0.81656(13) 0.5234(2)
C13 C 0.2307(2) 0.78530(13) 0.6136(2)
H13 H 0.3019 0.7887 0.6703
C14 C 0.1274(3) 0.74929(13) 0.6214(2)
H14 H 0.1290 0.7274 0.6828
C15 C 0.0225(3) 0.74497(14) 0.5411(2)
H15 H -0.0476 0.7195 0.5463
C16 C 0.0200(3) 0.77752(15) 0.4538(2)
H16 H -0.0534 0.7754 0.3988
C17 C 0.1223(3) 0.81380(15) 0.4437(2)
H17 H 0.1182 0.8367 0.3825
C18 C 0.2192(3) 0.94940(15) 0.8693(2)
H18 H 0.2437 0.9936 0.9008
H19 H 0.2173 0.9161 0.9214
H20 H 0.1361 0.9528 0.8214
C19 C 0.3129(2) 0.92726(12) 0.81430(19)
C20 C 0.4065(2) 0.88306(13) 0.86859(19)
H21 H 0.3924 0.8653 0.9283
C21 C 0.5168(2) 0.86076(12) 0.84978(19)
C22 C 0.6040(3) 0.81964(14) 0.9338(2)
H22 H 0.6555 0.7899 0.9052
H23 H 0.5545 0.7922 0.9675
H24 H 0.6580 0.8504 0.9826
C23 C 0.2048(2) 0.99500(13) 0.67472(19)
C24 C 0.2036(2) 1.06151(13) 0.7068(2)
H25 H 0.2698 1.0778 0.7611
C25 C 0.1057(3) 1.10424(14) 0.6597(2)
H26 H 0.1046 1.1494 0.6830
C26 C 0.0102(2) 1.08176(14) 0.5795(2)
H27 H -0.0568 1.1110 0.5478
C27 C 0.0134(3) 1.01649(15) 0.5463(2)
H28 H -0.0512 1.0010 0.4901
C28 C 0.1091(2) 0.97293(14) 0.5932(2)
H29 H 0.1094 0.9278 0.5696
C29 C 0.6643(2) 0.85897(12) 0.75284(19)
C30 C 0.7750(2) 0.88090(13) 0.8215(2)
H30 H 0.7713 0.9027 0.8817
C31 C 0.8891(3) 0.87156(14) 0.8036(2)
H31 H 0.9631 0.8854 0.8526
C32 C 0.8971(3) 0.84210(15) 0.7149(2)
H32 H 0.9757 0.8366 0.7019
C33 C 0.7889(3) 0.82090(14) 0.6458(2)
H33 H 0.7933 0.8006 0.5847
C34 C 0.6747(2) 0.82873(13) 0.6641(2)
H34 H 0.6015 0.8133 0.6156
Mg2 Mg 0.54555(7) 0.58963(4) 0.09067(6)
N5 N 0.65390(19) 0.64063(11) 0.21280(16)
N6 N 0.42436(19) 0.55797(10) 0.16665(16)
N7 N 0.45862(19) 0.64190(10) -0.03632(16)
N8 N 0.6474(2) 0.53198(10) 0.02064(16)
C35 C 0.6983(3) 0.69732(16) 0.3798(2)
H35 H 0.7617 0.6702 0.4274
H36 H 0.6438 0.7189 0.4153
H37 H 0.7393 0.7322 0.3499
C36 C 0.6206(2) 0.65149(13) 0.2968(2)
C37 C 0.5143(3) 0.62374(14) 0.3153(2)
H38 H 0.4994 0.6378 0.3766
C38 C 0.4260(2) 0.57841(14) 0.2583(2)
C39 C 0.3292(3) 0.55149(16) 0.3076(2)
H39 H 0.2453 0.5631 0.2658
H40 H 0.3430 0.5719 0.3744
H41 H 0.3370 0.5022 0.3143
C40 C 0.7717(2) 0.66147(13) 0.2026(2)
C41 C 0.8841(3) 0.64314(16) 0.2708(2)
H42 H 0.8839 0.6190 0.3301
C42 C 0.9963(3) 0.65988(16) 0.2527(2)
H43 H 1.0723 0.6482 0.3011
C43 C 1.0000(3) 0.69291(16) 0.1666(2)
H44 H 1.0775 0.7038 0.1545
C44 C 0.8882(3) 0.71006(17) 0.0976(2)
H45 H 0.8889 0.7327 0.0372
C45 C 0.7757(3) 0.69460(15) 0.1154(2)
H46 H 0.7000 0.7068 0.0672
C46 C 0.3238(2) 0.51574(14) 0.1119(2)
C47 C 0.3394(3) 0.44672(14) 0.1096(2)
H47 H 0.4158 0.4267 0.1469
C48 C 0.2435(4) 0.40616(18) 0.0529(3)
H48 H 0.2555 0.3586 0.0514
C49 C 0.1341(4) 0.4329(2) 0.0002(3)
H49 H 0.0685 0.4044 -0.0364
C50 C 0.1179(3) 0.5027(2) -0.0004(3)
H50 H 0.0419 0.5220 -0.0398
C51 C 0.2123(3) 0.54464(18) 0.0564(3)
H51 H 0.2004 0.5922 0.0571
C52 C 0.4411(3) 0.68799(14) -0.2068(2)
H52 H 0.3684 0.6665 -0.2534
H53 H 0.5038 0.6980 -0.2422
H54 H 0.4152 0.7302 -0.1812
C53 C 0.4964(3) 0.64054(13) -0.1197(2)
C54 C 0.5901(2) 0.59737(13) -0.1327(2)
H55 H 0.6106 0.6033 -0.1943
C55 C 0.6590(2) 0.54679(13) -0.0701(2)
C56 C 0.7490(3) 0.50779(14) -0.1131(2)
H56 H 0.8320 0.5285 -0.0904
H57 H 0.7198 0.5089 -0.1868
H58 H 0.7535 0.4607 -0.0900
C57 C 0.3569(2) 0.68404(13) -0.0316(2)
C58 C 0.3728(3) 0.72696(13) 0.0506(2)
H59 H 0.4507 0.7280 0.1008
C59 C 0.2761(3) 0.76828(14) 0.0599(2)
H60 H 0.2889 0.7979 0.1160
C60 C 0.1623(3) 0.76670(14) -0.0109(2)
H61 H 0.0969 0.7958 -0.0051
C61 C 0.1439(3) 0.72268(16) -0.0902(2)
H62 H 0.0645 0.7206 -0.1384
C62 C 0.2394(3) 0.68115(15) -0.1011(2)
H63 H 0.2247 0.6506 -0.1561
C63 C 0.7268(3) 0.48119(14) 0.0795(2)
C64 C 0.6753(4) 0.41964(14) 0.0946(2)
H64 H 0.5893 0.4108 0.0643
C65 C 0.7517(5) 0.37034(18) 0.1553(3)
H65 H 0.7175 0.3281 0.1670
C66 C 0.8782(6) 0.3842(3) 0.1982(3)
H66 H 0.9307 0.3508 0.2381
C67 C 0.9271(4) 0.4452(3) 0.1834(3)
H67 H 1.0131 0.4542 0.2134
C68 C 0.8524(3) 0.49379(19) 0.1253(2)
H68 H 0.8870 0.5365 0.1163
loop_
_geom_bond_atom_site_label_1
_geom_bond_atom_site_label_2
_geom_bond_site_symmetry_1
_geom_bond_site_symmetry_2
Mg1 N1 1_555 1_555
N1 C2 1_555 1_555
C1 H1 1_555 1_555
H2 C1 1_555 1_555
H3 C1 1_555 1_555
N2 Mg1 1_555 1_555
C2 C1 1_555 1_555
N3 Mg1 1_555 1_555
C3 C2 1_555 1_555
H4 C3 1_555 1_555
N4 Mg1 1_555 1_555
C4 N2 1_555 1_555
C5 C4 1_555 1_555
H5 C5 1_555 1_555
H6 C5 1_555 1_555
H7 C5 1_555 1_555
C6 N1 1_555 1_555
C7 C6 1_555 1_555
H8 C7 1_555 1_555
C8 C7 1_555 1_555
H9 C8 1_555 1_555
C9 C8 1_555 1_555
H10 C9 1_555 1_555
C10 C9 1_555 1_555
H11 C10 1_555 1_555
C11 C6 1_555 1_555
H12 C11 1_555 1_555
C12 N2 1_555 1_555
C13 C12 1_555 1_555
H13 C13 1_555 1_555
C14 C13 1_555 1_555
H14 C14 1_555 1_555
C15 C14 1_555 1_555
H15 C15 1_555 1_555
C16 C15 1_555 1_555
H16 C16 1_555 1_555
C17 C12 1_555 1_555
H17 C17 1_555 1_555
C18 H18 1_555 1_555
H19 C18 1_555 1_555
H20 C18 1_555 1_555
C19 N3 1_555 1_555
C20 C19 1_555 1_555
H21 C20 1_555 1_555
C21 N4 1_555 1_555
C22 C21 1_555 1_555
H22 C22 1_555 1_555
H23 C22 1_555 1_555
H24 C22 1_555 1_555
C23 N3 1_555 1_555
C24 C23 1_555 1_555
H25 C24 1_555 1_555
C25 C24 1_555 1_555
H26 C25 1_555 1_555
C26 C25 1_555 1_555
H27 C26 1_555 1_555
C27 C26 1_555 1_555
H28 C27 1_555 1_555
C28 C23 1_555 1_555
H29 C28 1_555 1_555
C29 N4 1_555 1_555
C30 C29 1_555 1_555
H30 C30 1_555 1_555
C31 C30 1_555 1_555
H31 C31 1_555 1_555
C32 C31 1_555 1_555
H32 C32 1_555 1_555
C33 C32 1_555 1_555
H33 C33 1_555 1_555
C34 C29 1_555 1_555
H34 C34 1_555 1_555
Mg2 N5 1_555 1_555
N5 C36 1_555 1_555
N6 Mg2 1_555 1_555
N7 Mg2 1_555 1_555
N8 Mg2 1_555 1_555
C35 H35 1_555 1_555
H36 C35 1_555 1_555
H37 C35 1_555 1_555
C36 C35 1_555 1_555
C37 C36 1_555 1_555
H38 C37 1_555 1_555
C38 N6 1_555 1_555
C39 C38 1_555 1_555
H39 C39 1_555 1_555
H40 C39 1_555 1_555
H41 C39 1_555 1_555
C40 N5 1_555 1_555
C41 C40 1_555 1_555
H42 C41 1_555 1_555
C42 C41 1_555 1_555
H43 C42 1_555 1_555
C43 C42 1_555 1_555
H44 C43 1_555 1_555
C44 C43 1_555 1_555
H45 C44 1_555 1_555
C45 C40 1_555 1_555
H46 C45 1_555 1_555
C46 N6 1_555 1_555
C47 C46 1_555 1_555
H47 C47 1_555 1_555
C48 C47 1_555 1_555
H48 C48 1_555 1_555
C49 C48 1_555 1_555
H49 C49 1_555 1_555
C50 C49 1_555 1_555
H50 C50 1_555 1_555
C51 C46 1_555 1_555
H51 C51 1_555 1_555
C52 H52 1_555 1_555
H53 C52 1_555 1_555
H54 C52 1_555 1_555
C53 N7 1_555 1_555
C54 C53 1_555 1_555
H55 C54 1_555 1_555
C55 N8 1_555 1_555
C56 C55 1_555 1_555
H56 C56 1_555 1_555
H57 C56 1_555 1_555
H58 C56 1_555 1_555
C57 N7 1_555 1_555
C58 C57 1_555 1_555
H59 C58 1_555 1_555
C59 C58 1_555 1_555
H60 C59 1_555 1_555
C60 C59 1_555 1_555
H61 C60 1_555 1_555
C61 C60 1_555 1_555
H62 C61 1_555 1_555
C62 C57 1_555 1_555
H63 C62 1_555 1_555
C63 N8 1_555 1_555
C64 C63 1_555 1_555
H64 C64 1_555 1_555
C65 C64 1_555 1_555
H65 C65 1_555 1_555
C66 C65 1_555 1_555
H66 C66 1_555 1_555
C67 C66 1_555 1_555
H67 C67 1_555 1_555
C68 C63 1_555 1_555
H68 C68 1_555 1_555
C3 C4 1_555 1_555
C10 C11 1_555 1_555
C16 C17 1_555 1_555
C18 C19 1_555 1_555
C20 C21 1_555 1_555
C27 C28 1_555 1_555
C33 C34 1_555 1_555
C37 C38 1_555 1_555
C44 C45 1_555 1_555
C50 C51 1_555 1_555
C52 C53 1_555 1_555
C54 C55 1_555 1_555
C61 C62 1_555 1_555
C67 C68 1_555 1_555

#END
