
#######################################################################
#
#                 Cambridge Crystallographic Data Centre
#                                CCDC 
#
#######################################################################
#
# If this CIF has been generated from an entry in the Cambridge 
# Structural Database, then it will include bibliographic, chemical, 
# crystal, experimental, refinement or atomic coordinate data resulting 
# from the CCDC's data processing and validation procedures.
#
#######################################################################

data_GUPQAK
_chemical_formula_moiety         'C42 H63 I1 Mg1 N4'
_chemical_name_systematic        
(N,N'-bis(2,6-Di-isopropylphenyl)-2,2,6,6-tetramethylheptane-3,5-di-iminato-N,N')-iodo-(4-(dimethylamino)pyridine-N)-magnesium
_symmetry_cell_setting           monoclinic
_symmetry_space_group_name_H-M   'P 21/c'
_symmetry_Int_Tables_number      14
_space_group_name_Hall           '-P 2ybc'
loop_
_symmetry_equiv_pos_site_id
_symmetry_equiv_pos_as_xyz
1 x,y,z
2 -x,1/2+y,1/2-z
3 -x,-y,-z
4 x,1/2-y,1/2+z
_cell_length_a                   18.635(4)
_cell_length_b                   12.616(3)
_cell_length_c                   18.220(4)
_cell_angle_alpha                90
_cell_angle_beta                 105.00(3)
_cell_angle_gamma                90
_cell_volume                     4137.55
_exptl_crystal_colour            colorless
_exptl_crystal_description       block
_cell_formula_units_Z            4
loop_
_atom_site_label
_atom_site_type_symbol
_atom_site_fract_x
_atom_site_fract_y
_atom_site_fract_z
I1 I 0.671862(17) 0.33564(3) 0.874104(18)
Mg1 Mg 0.71162(7) 0.33557(11) 0.74332(7)
N1 N 0.81009(17) 0.2724(3) 0.73570(19)
C1 C 0.8792(2) 0.2397(3) 0.6314(2)
N2 N 0.72463(17) 0.4841(3) 0.7032(2)
C2 C 0.8284(2) 0.3031(3) 0.6727(2)
N3 N 0.62552(18) 0.2577(3) 0.66315(19)
C3 C 0.7976(2) 0.3949(3) 0.6318(2)
H1 H 0.8048 0.3965 0.5820
N4 N 0.45034(19) 0.1163(3) 0.4992(2)
C4 C 0.7587(2) 0.4846(3) 0.6474(2)
C5 C 0.7568(2) 0.5779(3) 0.5894(3)
C6 C 0.9202(2) 0.1430(3) 0.6732(3)
H2 H 0.8841 0.0937 0.6851
H3 H 0.9552 0.1660 0.7204
H4 H 0.9473 0.1074 0.6408
C7 C 0.8272(3) 0.1959(4) 0.5575(3)
H5 H 0.8557 0.1506 0.5316
H6 H 0.8056 0.2550 0.5242
H7 H 0.7875 0.1544 0.5698
C8 C 0.9382(2) 0.3126(4) 0.6132(3)
H8 H 0.9659 0.3482 0.6598
H9 H 0.9140 0.3658 0.5758
H10 H 0.9726 0.2705 0.5925
C9 C 0.8339(3) 0.5945(4) 0.5747(3)
H11 H 0.8336 0.6600 0.5458
H12 H 0.8454 0.5344 0.5457
H13 H 0.8716 0.5996 0.6234
C10 C 0.7326(3) 0.6867(3) 0.6110(3)
H14 H 0.7373 0.7389 0.5727
H15 H 0.7642 0.7076 0.6607
H16 H 0.6808 0.6833 0.6135
C11 C 0.7017(3) 0.5433(4) 0.5138(3)
H17 H 0.6527 0.5303 0.5226
H18 H 0.7197 0.4782 0.4953
H19 H 0.6978 0.5995 0.4759
C12 C 0.8515(2) 0.1972(3) 0.7906(2)
C13 C 0.9181(2) 0.2286(3) 0.8423(2)
C14 C 0.9548(2) 0.1571(4) 0.8964(3)
H20 H 1.0008 0.1769 0.9302
C15 C 0.9264(2) 0.0574(4) 0.9028(3)
H21 H 0.9519 0.0097 0.9411
C16 C 0.8599(2) 0.0279(4) 0.8525(3)
H22 H 0.8403 -0.0408 0.8565
C17 C 0.8214(2) 0.0961(3) 0.7968(2)
C18 C 0.9518(2) 0.3388(3) 0.8415(2)
H23 H 0.9202 0.3791 0.7977
C19 C 0.9513(3) 0.3976(4) 0.9140(3)
H24 H 0.9002 0.4019 0.9190
H25 H 0.9709 0.4693 0.9121
H26 H 0.9823 0.3597 0.9578
C20 C 1.0321(2) 0.3358(4) 0.8321(3)
H27 H 1.0655 0.3056 0.8779
H28 H 1.0482 0.4080 0.8243
H29 H 1.0334 0.2920 0.7880
C21 C 0.7498(2) 0.0558(4) 0.7420(3)
H30 H 0.7312 0.1122 0.7032
C22 C 0.7628(2) -0.0452(3) 0.7000(3)
H31 H 0.7824 -0.1011 0.7371
H32 H 0.7985 -0.0303 0.6703
H33 H 0.7157 -0.0685 0.6659
C23 C 0.6899(2) 0.0361(4) 0.7846(3)
H34 H 0.7070 -0.0190 0.8231
H35 H 0.6439 0.0130 0.7486
H36 H 0.6807 0.1018 0.8094
C24 C 0.6921(2) 0.5750(3) 0.7311(2)
C25 C 0.7347(2) 0.6322(3) 0.7933(3)
C26 C 0.7048(2) 0.7212(3) 0.8182(3)
H37 H 0.7346 0.7621 0.8585
C27 C 0.6322(2) 0.7522(3) 0.7856(3)
H38 H 0.6129 0.8154 0.8015
C28 C 0.5888(2) 0.6897(3) 0.7301(3)
H39 H 0.5382 0.7084 0.7097
C29 C 0.6163(2) 0.5999(3) 0.7024(2)
C30 C 0.8139(2) 0.5984(4) 0.8352(3)
H40 H 0.8189 0.5211 0.8252
C31 C 0.8286(3) 0.6131(5) 0.9207(3)
H41 H 0.8750 0.5773 0.9463
H42 H 0.7875 0.5825 0.9381
H43 H 0.8327 0.6888 0.9329
C32 C 0.8714(3) 0.6574(5) 0.8050(4)
H44 H 0.8652 0.7339 0.8104
H45 H 0.8647 0.6400 0.7512
H46 H 0.9213 0.6363 0.8339
C33 C 0.5627(2) 0.5330(3) 0.6431(3)
H47 H 0.5923 0.4799 0.6224
C34 C 0.5099(2) 0.4731(4) 0.6802(3)
H48 H 0.5387 0.4345 0.7247
H49 H 0.4802 0.4229 0.6436
H50 H 0.4768 0.5237 0.6959
C35 C 0.5172(3) 0.5997(4) 0.5766(3)
H51 H 0.4877 0.6521 0.5958
H52 H 0.4840 0.5533 0.5398
H53 H 0.5509 0.6363 0.5517
C36 C 0.5652(2) 0.2181(3) 0.6800(2)
H54 H 0.5624 0.2231 0.7312
C37 C 0.5069(2) 0.1705(3) 0.6285(2)
H55 H 0.4658 0.1441 0.6448
C38 C 0.5079(2) 0.1611(3) 0.5521(2)
C39 C 0.5726(2) 0.2007(3) 0.5341(3)
H56 H 0.5779 0.1955 0.4838
C40 C 0.6272(2) 0.2465(3) 0.5899(3)
H57 H 0.6696 0.2726 0.5760
C41 C 0.3824(2) 0.0878(4) 0.5196(3)
H58 H 0.3935 0.0345 0.5601
H59 H 0.3465 0.0587 0.4751
H60 H 0.3614 0.1510 0.5375
C42 C 0.4507(2) 0.1059(4) 0.4202(2)
H61 H 0.4263 0.1676 0.3917
H62 H 0.4239 0.0413 0.3991
H63 H 0.5020 0.1016 0.4163
loop_
_geom_bond_atom_site_label_1
_geom_bond_atom_site_label_2
_geom_bond_site_symmetry_1
_geom_bond_site_symmetry_2
I1 Mg1 1_555 1_555
Mg1 N1 1_555 1_555
N1 C2 1_555 1_555
C1 C2 1_555 1_555
N2 Mg1 1_555 1_555
C2 C3 1_555 1_555
N3 Mg1 1_555 1_555
C3 H1 1_555 1_555
N4 C38 1_555 1_555
C4 N2 1_555 1_555
C5 C4 1_555 1_555
C6 C1 1_555 1_555
H2 C6 1_555 1_555
H3 C6 1_555 1_555
H4 C6 1_555 1_555
C7 C1 1_555 1_555
H5 C7 1_555 1_555
H6 C7 1_555 1_555
H7 C7 1_555 1_555
C8 C1 1_555 1_555
H8 C8 1_555 1_555
H9 C8 1_555 1_555
H10 C8 1_555 1_555
C9 C5 1_555 1_555
H11 C9 1_555 1_555
H12 C9 1_555 1_555
H13 C9 1_555 1_555
C10 C5 1_555 1_555
H14 C10 1_555 1_555
H15 C10 1_555 1_555
H16 C10 1_555 1_555
C11 C5 1_555 1_555
H17 C11 1_555 1_555
H18 C11 1_555 1_555
H19 C11 1_555 1_555
C12 N1 1_555 1_555
C13 C12 1_555 1_555
C14 C13 1_555 1_555
H20 C14 1_555 1_555
C15 C14 1_555 1_555
H21 C15 1_555 1_555
C16 C15 1_555 1_555
H22 C16 1_555 1_555
C17 C12 1_555 1_555
C18 C13 1_555 1_555
H23 C18 1_555 1_555
C19 C18 1_555 1_555
H24 C19 1_555 1_555
H25 C19 1_555 1_555
H26 C19 1_555 1_555
C20 C18 1_555 1_555
H27 C20 1_555 1_555
H28 C20 1_555 1_555
H29 C20 1_555 1_555
C21 C17 1_555 1_555
H30 C21 1_555 1_555
C22 C21 1_555 1_555
H31 C22 1_555 1_555
H32 C22 1_555 1_555
H33 C22 1_555 1_555
C23 C21 1_555 1_555
H34 C23 1_555 1_555
H35 C23 1_555 1_555
H36 C23 1_555 1_555
C24 N2 1_555 1_555
C25 C24 1_555 1_555
C26 C25 1_555 1_555
H37 C26 1_555 1_555
C27 C26 1_555 1_555
H38 C27 1_555 1_555
C28 C27 1_555 1_555
H39 C28 1_555 1_555
C29 C24 1_555 1_555
C30 C25 1_555 1_555
H40 C30 1_555 1_555
C31 C30 1_555 1_555
H41 C31 1_555 1_555
H42 C31 1_555 1_555
H43 C31 1_555 1_555
C32 C30 1_555 1_555
H44 C32 1_555 1_555
H45 C32 1_555 1_555
H46 C32 1_555 1_555
C33 C29 1_555 1_555
H47 C33 1_555 1_555
C34 C33 1_555 1_555
H48 C34 1_555 1_555
H49 C34 1_555 1_555
H50 C34 1_555 1_555
C35 C33 1_555 1_555
H51 C35 1_555 1_555
H52 C35 1_555 1_555
H53 C35 1_555 1_555
C36 N3 1_555 1_555
H54 C36 1_555 1_555
C37 C36 1_555 1_555
H55 C37 1_555 1_555
C38 C37 1_555 1_555
C39 C38 1_555 1_555
H56 C39 1_555 1_555
C40 N3 1_555 1_555
H57 C40 1_555 1_555
C41 N4 1_555 1_555
H58 C41 1_555 1_555
H59 C41 1_555 1_555
H60 C41 1_555 1_555
C42 N4 1_555 1_555
H61 C42 1_555 1_555
H62 C42 1_555 1_555
H63 C42 1_555 1_555
C3 C4 1_555 1_555
C16 C17 1_555 1_555
C28 C29 1_555 1_555
C39 C40 1_555 1_555

#END
