
#######################################################################
#
#                 Cambridge Crystallographic Data Centre
#                                CCDC 
#
#######################################################################
#
# If this CIF has been generated from an entry in the Cambridge 
# Structural Database, then it will include bibliographic, chemical, 
# crystal, experimental, refinement or atomic coordinate data resulting 
# from the CCDC's data processing and validation procedures.
#
#######################################################################

data_GUPRIT
_chemical_formula_moiety         'C52 H71 I1 Mg2 N4'
_chemical_name_systematic        
(\m~2~-Hydrido)-(\m~2~-iodo)-(N,N'-bis(2,6-di-isopropylphenyl)pentane-2,4-di-iminato)-(N,N'-dimesitylpentane-2,4-di-iminato)-di-magnesium
_symmetry_cell_setting           triclinic
_symmetry_space_group_name_H-M   'P -1'
_symmetry_Int_Tables_number      2
_space_group_name_Hall           '-P 1'
loop_
_symmetry_equiv_pos_site_id
_symmetry_equiv_pos_as_xyz
1 x,y,z
2 -x,-y,-z
_cell_length_a                   9.3356(19)
_cell_length_b                   12.512(3)
_cell_length_c                   23.369(5)
_cell_angle_alpha                79.79(3)
_cell_angle_beta                 87.38(3)
_cell_angle_gamma                70.49(3)
_cell_volume                     2531.92
_exptl_crystal_colour            yellow
_exptl_crystal_description       block
_cell_formula_units_Z            2
loop_
_atom_site_label
_atom_site_type_symbol
_atom_site_fract_x
_atom_site_fract_y
_atom_site_fract_z
I1 I 0.66947(5) 0.80608(4) 0.72246(2)
Mg1 Mg 0.67091(19) 0.57345(14) 0.73756(7)
N1 N 0.7211(5) 0.4916(4) 0.66759(18)
C1 C 0.8867(8) 0.3559(6) 0.6081(3)
H1 H 0.8148 0.3163 0.6030
H2 H 0.9903 0.3007 0.6112
H3 H 0.8790 0.4171 0.5746
H4 H 0.467(9) 0.615(7) 0.760(3)
Mg2 Mg 0.3987(2) 0.78156(16) 0.76385(8)
N2 N 0.8373(5) 0.4492(4) 0.78853(17)
C2 C 0.8495(6) 0.4080(5) 0.6632(2)
N3 N 0.2063(6) 0.8835(4) 0.7191(2)
C3 C 0.9595(6) 0.3565(5) 0.7081(2)
H5 H 1.0538 0.3066 0.6969
N4 N 0.3338(5) 0.8441(4) 0.8385(2)
C4 C 0.9498(6) 0.3684(5) 0.7667(2)
C5 C 1.0722(6) 0.2797(5) 0.8063(2)
H6 H 1.1142 0.3184 0.8308
H7 H 1.1532 0.2364 0.7829
H8 H 1.0286 0.2268 0.8310
C6 C 0.6075(6) 0.5235(5) 0.6222(2)
C7 C 0.6032(8) 0.6131(5) 0.5756(2)
C8 C 0.4857(9) 0.6425(6) 0.5339(3)
H9 H 0.4797 0.7023 0.5018
C9 C 0.3824(9) 0.5889(7) 0.5380(3)
H10 H 0.3054 0.6108 0.5089
C10 C 0.3862(7) 0.5030(7) 0.5838(3)
H11 H 0.3106 0.4671 0.5862
C11 C 0.4998(7) 0.4666(6) 0.6274(2)
C12 C 0.7149(10) 0.6768(6) 0.5698(3)
H12 H 0.7814 0.6498 0.6054
C13 C 0.8158(11) 0.6563(8) 0.5167(4)
H13 H 0.8726 0.5740 0.5199
H14 H 0.8872 0.6991 0.5149
H15 H 0.7523 0.6828 0.4814
C14 C 0.6336(14) 0.8103(8) 0.5639(4)
H16 H 0.6118 0.8442 0.5228
H17 H 0.7001 0.8444 0.5798
H18 H 0.5384 0.8256 0.5854
C15 C 0.5042(8) 0.3688(6) 0.6767(3)
H19 H 0.5890 0.3600 0.7037
C16 C 0.5385(15) 0.2556(8) 0.6552(5)
H20 H 0.5516 0.1932 0.6886
H21 H 0.6320 0.2409 0.6326
H22 H 0.4540 0.2595 0.6306
C17 C 0.3608(10) 0.3934(9) 0.7111(4)
H23 H 0.3393 0.4673 0.7243
H24 H 0.3730 0.3321 0.7449
H25 H 0.2762 0.3971 0.6867
C18 C 0.8349(5) 0.4418(4) 0.8510(2)
C19 C 0.8948(6) 0.5109(5) 0.8764(2)
C20 C 0.8925(7) 0.5015(6) 0.9369(2)
H26 H 0.9337 0.5473 0.9550
C21 C 0.8305(7) 0.4256(6) 0.9706(2)
H27 H 0.8300 0.4192 1.0117
C22 C 0.7697(6) 0.3596(5) 0.9452(2)
H28 H 0.7274 0.3082 0.9689
C23 C 0.7689(6) 0.3666(4) 0.8850(2)
C24 C 0.9689(7) 0.5924(6) 0.8399(2)
H29 H 0.9358 0.6048 0.7985
C25 C 1.1387(8) 0.5430(8) 0.8430(3)
H30 H 1.1728 0.5260 0.8836
H31 H 1.1821 0.5987 0.8207
H32 H 1.1723 0.4720 0.8265
C26 C 0.9139(10) 0.7107(7) 0.8609(3)
H33 H 0.9650 0.7037 0.8978
H34 H 0.8038 0.7345 0.8665
H35 H 0.9384 0.7683 0.8316
C27 C 0.6982(8) 0.2951(5) 0.8580(3)
H36 H 0.7304 0.2958 0.8165
C28 C 0.7559(10) 0.1662(6) 0.8917(5)
H37 H 0.7031 0.1613 0.9288
H38 H 0.8656 0.1420 0.8991
H39 H 0.7346 0.1157 0.8681
C29 C 0.5304(8) 0.3394(6) 0.8595(4)
H40 H 0.4973 0.3328 0.9000
H41 H 0.4889 0.2944 0.8388
H42 H 0.4937 0.4204 0.8408
C30 C -0.0613(8) 1.0107(6) 0.7100(3)
H43 H -0.0382 1.0661 0.6789
H44 H -0.1385 1.0521 0.7354
H45 H -0.0999 0.9594 0.6928
C31 C 0.0821(7) 0.9401(5) 0.7452(3)
C32 C 0.0726(7) 0.9411(5) 0.8052(3)
H46 H -0.0269 0.9743 0.8190
C33 C 0.1892(7) 0.9000(5) 0.8479(3)
C34 C 0.1396(9) 0.9238(6) 0.9084(3)
H47 H 0.1883 0.8550 0.9371
H48 H 0.0289 0.9438 0.9110
H49 H 0.1694 0.9879 0.9162
C35 C 0.2001(7) 0.8938(5) 0.6565(3)
C36 C 0.2425(10) 0.9813(6) 0.6215(3)
C37 C 0.2375(11) 0.9866(7) 0.5607(3)
H50 H 0.2648 1.0457 0.5362
C38 C 0.1956(10) 0.9116(7) 0.5356(3)
C39 C 0.1512(8) 0.8287(6) 0.5710(3)
H51 H 0.1169 0.7783 0.5536
C40 C 0.1547(7) 0.8155(5) 0.6323(3)
C41 C 0.2873(12) 1.0650(7) 0.6475(4)
H52 H 0.2153 1.0923 0.6778
H53 H 0.2867 1.1304 0.6173
H54 H 0.3897 1.0278 0.6645
C42 C 0.1951(13) 0.9218(9) 0.4692(4)
H55 H 0.1399 1.0014 0.4514
H56 H 0.1450 0.8707 0.4583
H57 H 0.2999 0.8997 0.4554
C43 C 0.1093(8) 0.7228(6) 0.6694(3)
H58 H 0.1982 0.6672 0.6913
H59 H 0.0688 0.6836 0.6447
H60 H 0.0312 0.7565 0.6966
C44 C 0.4398(7) 0.8305(5) 0.8840(2)
C45 C 0.4897(8) 0.9226(5) 0.8884(3)
C46 C 0.5884(9) 0.9093(5) 0.9350(3)
H61 H 0.6236 0.9710 0.9383
C47 C 0.6352(8) 0.8113(5) 0.9756(3)
C48 C 0.5874(7) 0.7201(5) 0.9694(2)
H62 H 0.6207 0.6511 0.9971
C49 C 0.4923(7) 0.7264(4) 0.9239(2)
C50 C 0.4402(10) 1.0308(5) 0.8449(3)
H63 H 0.4671 1.0130 0.8058
H64 H 0.4911 1.0834 0.8533
H65 H 0.3299 1.0674 0.8469
C51 C 0.7428(10) 0.7995(7) 1.0254(3)
H66 H 0.8482 0.7666 1.0134
H67 H 0.7223 0.7489 1.0594
H68 H 0.7270 0.8756 1.0352
C52 C 0.4421(7) 0.6274(5) 0.9178(2)
H69 H 0.3321 0.6548 0.9107
H70 H 0.4671 0.5702 0.9536
H71 H 0.4943 0.5921 0.8850
loop_
_geom_bond_atom_site_label_1
_geom_bond_atom_site_label_2
_geom_bond_site_symmetry_1
_geom_bond_site_symmetry_2
I1 Mg1 1_555 1_555
Mg1 N1 1_555 1_555
N1 C2 1_555 1_555
C1 H1 1_555 1_555
H2 C1 1_555 1_555
H3 C1 1_555 1_555
H4 Mg1 1_555 1_555
Mg2 I1 1_555 1_555
N2 Mg1 1_555 1_555
C2 C1 1_555 1_555
N3 Mg2 1_555 1_555
C3 C2 1_555 1_555
H5 C3 1_555 1_555
N4 Mg2 1_555 1_555
C4 N2 1_555 1_555
C5 C4 1_555 1_555
H6 C5 1_555 1_555
H7 C5 1_555 1_555
H8 C5 1_555 1_555
C6 N1 1_555 1_555
C7 C6 1_555 1_555
C8 C7 1_555 1_555
H9 C8 1_555 1_555
C9 C8 1_555 1_555
H10 C9 1_555 1_555
C10 C9 1_555 1_555
H11 C10 1_555 1_555
C11 C6 1_555 1_555
C12 C7 1_555 1_555
H12 C12 1_555 1_555
C13 C12 1_555 1_555
H13 C13 1_555 1_555
H14 C13 1_555 1_555
H15 C13 1_555 1_555
C14 C12 1_555 1_555
H16 C14 1_555 1_555
H17 C14 1_555 1_555
H18 C14 1_555 1_555
C15 C11 1_555 1_555
H19 C15 1_555 1_555
C16 C15 1_555 1_555
H20 C16 1_555 1_555
H21 C16 1_555 1_555
H22 C16 1_555 1_555
C17 C15 1_555 1_555
H23 C17 1_555 1_555
H24 C17 1_555 1_555
H25 C17 1_555 1_555
C18 N2 1_555 1_555
C19 C18 1_555 1_555
C20 C19 1_555 1_555
H26 C20 1_555 1_555
C21 C20 1_555 1_555
H27 C21 1_555 1_555
C22 C21 1_555 1_555
H28 C22 1_555 1_555
C23 C18 1_555 1_555
C24 C19 1_555 1_555
H29 C24 1_555 1_555
C25 C24 1_555 1_555
H30 C25 1_555 1_555
H31 C25 1_555 1_555
H32 C25 1_555 1_555
C26 C24 1_555 1_555
H33 C26 1_555 1_555
H34 C26 1_555 1_555
H35 C26 1_555 1_555
C27 C23 1_555 1_555
H36 C27 1_555 1_555
C28 C27 1_555 1_555
H37 C28 1_555 1_555
H38 C28 1_555 1_555
H39 C28 1_555 1_555
C29 C27 1_555 1_555
H40 C29 1_555 1_555
H41 C29 1_555 1_555
H42 C29 1_555 1_555
C30 H43 1_555 1_555
H44 C30 1_555 1_555
H45 C30 1_555 1_555
C31 N3 1_555 1_555
C32 C31 1_555 1_555
H46 C32 1_555 1_555
C33 N4 1_555 1_555
C34 C33 1_555 1_555
H47 C34 1_555 1_555
H48 C34 1_555 1_555
H49 C34 1_555 1_555
C35 N3 1_555 1_555
C36 C35 1_555 1_555
C37 C36 1_555 1_555
H50 C37 1_555 1_555
C38 C37 1_555 1_555
C39 C38 1_555 1_555
H51 C39 1_555 1_555
C40 C35 1_555 1_555
C41 C36 1_555 1_555
H52 C41 1_555 1_555
H53 C41 1_555 1_555
H54 C41 1_555 1_555
C42 C38 1_555 1_555
H55 C42 1_555 1_555
H56 C42 1_555 1_555
H57 C42 1_555 1_555
C43 C40 1_555 1_555
H58 C43 1_555 1_555
H59 C43 1_555 1_555
H60 C43 1_555 1_555
C44 N4 1_555 1_555
C45 C44 1_555 1_555
C46 C45 1_555 1_555
H61 C46 1_555 1_555
C47 C46 1_555 1_555
C48 C47 1_555 1_555
H62 C48 1_555 1_555
C49 C44 1_555 1_555
C50 C45 1_555 1_555
H63 C50 1_555 1_555
H64 C50 1_555 1_555
H65 C50 1_555 1_555
C51 C47 1_555 1_555
H66 C51 1_555 1_555
H67 C51 1_555 1_555
H68 C51 1_555 1_555
C52 C49 1_555 1_555
H69 C52 1_555 1_555
H70 C52 1_555 1_555
H71 C52 1_555 1_555
H4 Mg2 1_555 1_555
C3 C4 1_555 1_555
C10 C11 1_555 1_555
C22 C23 1_555 1_555
C30 C31 1_555 1_555
C32 C33 1_555 1_555
C39 C40 1_555 1_555
C48 C49 1_555 1_555

#END
