
#######################################################################
#
#                 Cambridge Crystallographic Data Centre
#                                CCDC 
#
#######################################################################
#
# If this CIF has been generated from an entry in the Cambridge 
# Structural Database, then it will include bibliographic, chemical, 
# crystal, experimental, refinement or atomic coordinate data resulting 
# from the CCDC's data processing and validation procedures.
#
#######################################################################

data_GUPREP
_chemical_formula_moiety         'C70 H106 Mg2 N4,C7 H8'
_chemical_name_systematic        
"bis(N,N'-bis(2,6-Di-isopropylphenyl)-2,2,6,6-tetramethylheptane-3,5-di-iminato-N,N')-di-magnesium toluene solvate"
_symmetry_cell_setting           monoclinic
_symmetry_space_group_name_H-M   'C 2/c'
_symmetry_Int_Tables_number      15
_space_group_name_Hall           '-C 2yn'
loop_
_symmetry_equiv_pos_site_id
_symmetry_equiv_pos_as_xyz
1 x,y,z
2 -x,y,1/2-z
3 1/2+x,1/2+y,z
4 1/2-x,1/2+y,1/2-z
5 -x,-y,-z
6 x,-y,1/2+z
7 1/2-x,1/2-y,-z
8 1/2+x,1/2-y,1/2+z
_cell_length_a                   24.703(5)
_cell_length_b                   12.025(2)
_cell_length_c                   25.867(5)
_cell_angle_alpha                90
_cell_angle_beta                 111.08(3)
_cell_angle_gamma                90
_cell_volume                     7169.67
_exptl_crystal_colour            orange
_exptl_crystal_description       block
_cell_formula_units_Z            4
loop_
_atom_site_label
_atom_site_type_symbol
_atom_site_fract_x
_atom_site_fract_y
_atom_site_fract_z
Mg1 Mg 0.44070(4) 0.58779(7) 0.21423(3)
N1 N 0.36843(9) 0.67085(16) 0.21788(8)
C1 C 0.25772(11) 0.6806(2) 0.19556(11)
N2 N 0.39280(9) 0.48926(16) 0.14798(8)
C2 C 0.31569(11) 0.6279(2) 0.19617(10)
C3 C 0.30665(11) 0.5226(2) 0.16874(10)
H1 H 0.2721 0.4865 0.1677
C4 C 0.33821(11) 0.4615(2) 0.14305(10)
C5 C 0.30493(11) 0.3550(2) 0.11277(11)
C6 C 0.26009(11) 0.7990(2) 0.21940(11)
H2 H 0.2847 0.7989 0.2588
H3 H 0.2208 0.8230 0.2153
H4 H 0.2763 0.8504 0.1993
C7 C 0.23102(13) 0.6050(2) 0.22856(14)
H5 H 0.2210 0.5327 0.2100
H6 H 0.1959 0.6400 0.2304
H7 H 0.2592 0.5942 0.2662
C8 C 0.21602(13) 0.6885(3) 0.13495(13)
H8 H 0.2339 0.7334 0.1137
H9 H 0.1797 0.7234 0.1335
H10 H 0.2080 0.6137 0.1190
C9 C 0.30889(12) 0.2717(2) 0.15909(11)
H11 H 0.3497 0.2543 0.1800
H12 H 0.2881 0.2034 0.1428
H13 H 0.2914 0.3044 0.1841
C10 C 0.24043(12) 0.3786(2) 0.07924(12)
H14 H 0.2202 0.3953 0.1047
H15 H 0.2228 0.3131 0.0570
H16 H 0.2373 0.4424 0.0547
C11 C 0.32845(12) 0.2938(2) 0.07264(11)
H17 H 0.3251 0.3423 0.0412
H18 H 0.3059 0.2258 0.0591
H19 H 0.3693 0.2743 0.0922
C12 C 0.38208(10) 0.7744(2) 0.24826(10)
C13 C 0.39321(11) 0.7742(2) 0.30578(11)
C14 C 0.40683(11) 0.8750(2) 0.33404(12)
H20 H 0.4138 0.8768 0.3726
C15 C 0.41047(11) 0.9723(2) 0.30734(12)
H21 H 0.4183 1.0406 0.3272
C16 C 0.40278(11) 0.9706(2) 0.25207(12)
H22 H 0.4068 1.0375 0.2343
C17 C 0.38911(11) 0.8718(2) 0.22154(11)
C18 C 0.39236(12) 0.6690(2) 0.33780(11)
H23 H 0.3782 0.6067 0.3107
C19 C 0.45396(12) 0.6410(3) 0.37697(11)
H24 H 0.4794 0.6334 0.3556
H25 H 0.4534 0.5709 0.3961
H26 H 0.4684 0.7007 0.4043
C20 C 0.35214(13) 0.6778(3) 0.37133(12)
H27 H 0.3679 0.7327 0.4010
H28 H 0.3496 0.6052 0.3875
H29 H 0.3134 0.7012 0.3468
C21 C 0.38404(11) 0.8728(2) 0.16135(11)
H30 H 0.3692 0.7985 0.1450
C22 C 0.34197(13) 0.9619(2) 0.12692(12)
H31 H 0.3039 0.9514 0.1299
H32 H 0.3383 0.9555 0.0880
H33 H 0.3569 1.0359 0.1409
C23 C 0.44427(12) 0.8898(2) 0.15797(12)
H34 H 0.4605 0.9606 0.1756
H35 H 0.4408 0.8911 0.1190
H36 H 0.4699 0.8288 0.1772
C24 C 0.41696(11) 0.4600(2) 0.10683(10)
C25 C 0.46470(11) 0.3880(2) 0.11934(10)
C26 C 0.48645(12) 0.3628(2) 0.07778(11)
H37 H 0.5185 0.3136 0.0858
C27 C 0.46262(13) 0.4077(2) 0.02543(11)
H38 H 0.4768 0.3867 -0.0028
C28 C 0.41816(13) 0.4831(2) 0.01449(11)
H39 H 0.4029 0.5164 -0.0212
C29 C 0.39475(12) 0.5121(2) 0.05421(10)
C30 C 0.49298(12) 0.3312(2) 0.17496(11)
H40 H 0.4763 0.3647 0.2014
C31 C 0.55861(12) 0.3498(3) 0.19868(12)
H41 H 0.5766 0.3106 0.1758
H42 H 0.5744 0.3213 0.2367
H43 H 0.5668 0.4296 0.1988
C32 C 0.47975(14) 0.2067(2) 0.17138(13)
H44 H 0.4909 0.1734 0.1421
H45 H 0.4381 0.1954 0.1628
H46 H 0.5017 0.1714 0.2069
C33 C 0.34765(12) 0.6000(2) 0.03988(11)
H47 H 0.3334 0.6056 0.0714
C34 C 0.37333(15) 0.7131(3) 0.03334(14)
H48 H 0.4072 0.7291 0.0666
H49 H 0.3441 0.7713 0.0283
H50 H 0.3851 0.7111 0.0010
C35 C 0.29577(15) 0.5746(3) -0.01263(13)
H51 H 0.3083 0.5732 -0.0445
H52 H 0.2661 0.6322 -0.0182
H53 H 0.2795 0.5020 -0.0089
Mg1A Mg 0.55930(4) 0.58779(7) 0.28577(3)
N1A N 0.63157(9) 0.67085(16) 0.28212(8)
C1A C 0.74228(11) 0.6806(2) 0.30444(11)
N2A N 0.60720(9) 0.48926(16) 0.35202(8)
C2A C 0.68431(11) 0.6279(2) 0.30383(10)
C3A C 0.69335(11) 0.5226(2) 0.33126(10)
H1A H 0.7279 0.4865 0.3323
C4A C 0.66179(11) 0.4615(2) 0.35695(10)
C5A C 0.69507(11) 0.3550(2) 0.38723(11)
C6A C 0.73991(11) 0.7990(2) 0.28060(11)
H2A H 0.7153 0.7989 0.2412
H3A H 0.7792 0.8230 0.2847
H4A H 0.7237 0.8504 0.3007
C7A C 0.76898(13) 0.6050(2) 0.27144(14)
H5A H 0.7790 0.5327 0.2900
H6A H 0.8041 0.6400 0.2696
H7A H 0.7408 0.5942 0.2338
C8A C 0.78398(13) 0.6885(3) 0.36505(13)
H8A H 0.7661 0.7334 0.3863
H9A H 0.8203 0.7234 0.3665
H10A H 0.7920 0.6137 0.3810
C9A C 0.69111(12) 0.2717(2) 0.34091(11)
H11A H 0.6503 0.2543 0.3200
H12A H 0.7119 0.2034 0.3572
H13A H 0.7086 0.3044 0.3159
C10A C 0.75957(12) 0.3786(2) 0.42076(12)
H14A H 0.7798 0.3953 0.3953
H15A H 0.7772 0.3131 0.4430
H16A H 0.7627 0.4424 0.4453
C11A C 0.67155(12) 0.2938(2) 0.42736(11)
H17A H 0.6749 0.3423 0.4588
H18A H 0.6941 0.2258 0.4409
H19A H 0.6307 0.2743 0.4078
C12A C 0.61792(10) 0.7744(2) 0.25174(10)
C13A C 0.60679(11) 0.7742(2) 0.19422(11)
C14A C 0.59317(11) 0.8750(2) 0.16596(12)
H20A H 0.5862 0.8768 0.1274
C15A C 0.58953(11) 0.9723(2) 0.19266(12)
H21A H 0.5817 1.0406 0.1728
C16A C 0.59722(11) 0.9706(2) 0.24793(12)
H22A H 0.5932 1.0375 0.2657
C17A C 0.61089(11) 0.8718(2) 0.27846(11)
C18A C 0.60764(12) 0.6690(2) 0.16220(11)
H23A H 0.6218 0.6067 0.1893
C19A C 0.54604(12) 0.6410(3) 0.12303(11)
H24A H 0.5206 0.6334 0.1444
H25A H 0.5466 0.5709 0.1039
H26A H 0.5316 0.7007 0.0957
C20A C 0.64786(13) 0.6778(3) 0.12867(12)
H27A H 0.6321 0.7327 0.0990
H28A H 0.6504 0.6052 0.1125
H29A H 0.6866 0.7012 0.1532
C21A C 0.61596(11) 0.8728(2) 0.33865(11)
H30A H 0.6308 0.7985 0.3550
C22A C 0.65803(13) 0.9619(2) 0.37308(12)
H31A H 0.6961 0.9514 0.3701
H32A H 0.6617 0.9555 0.4120
H33A H 0.6431 1.0359 0.3591
C23A C 0.55573(12) 0.8898(2) 0.34203(12)
H34A H 0.5395 0.9606 0.3244
H35A H 0.5592 0.8911 0.3810
H36A H 0.5301 0.8288 0.3228
C24A C 0.58304(11) 0.4600(2) 0.39317(10)
C25A C 0.53530(11) 0.3880(2) 0.38066(10)
C26A C 0.51355(12) 0.3628(2) 0.42222(11)
H37A H 0.4815 0.3136 0.4142
C27A C 0.53738(13) 0.4077(2) 0.47457(11)
H38A H 0.5232 0.3867 0.5028
C28A C 0.58184(13) 0.4831(2) 0.48551(11)
H39A H 0.5971 0.5164 0.5212
C29A C 0.60525(12) 0.5121(2) 0.44579(10)
C30A C 0.50702(12) 0.3312(2) 0.32504(11)
H40A H 0.5237 0.3647 0.2986
C31A C 0.44139(12) 0.3498(3) 0.30132(12)
H41A H 0.4234 0.3106 0.3242
H42A H 0.4256 0.3213 0.2633
H43A H 0.4332 0.4296 0.3012
C32A C 0.52025(14) 0.2067(2) 0.32862(13)
H44A H 0.5091 0.1734 0.3579
H45A H 0.5619 0.1954 0.3372
H46A H 0.4983 0.1714 0.2931
C33A C 0.65235(12) 0.6000(2) 0.46012(11)
H47A H 0.6666 0.6056 0.4286
C34A C 0.62667(15) 0.7131(3) 0.46666(14)
H48A H 0.5928 0.7291 0.4334
H49A H 0.6559 0.7713 0.4717
H50A H 0.6149 0.7111 0.4990
C35A C 0.70423(15) 0.5746(3) 0.51263(13)
H51A H 0.6917 0.5732 0.5445
H52A H 0.7339 0.6322 0.5182
H53A H 0.7205 0.5020 0.5089
C36? C 0.5518(4) -0.0873(9) -0.0071(4)
H54? H 0.5704 -0.1476 -0.0177
C37? C 0.5810(8) 0.0009(17) 0.0179(11)
H55? H 0.6215 0.0032 0.0253
C38? C 0.4998(8) 0.0857(15) 0.0228(9)
H56? H 0.4824 0.1475 0.0337
C39? C 0.4020(8) 0.0013(15) -0.0154(12)
H57? H 0.3912 0.0707 -0.0018
H58? H 0.3815 -0.0041 -0.0555
H59? H 0.3914 -0.0620 0.0029
C40? C 0.4668(4) 0.0003(7) -0.0027(3)
C41? C 0.4947(5) -0.0889(9) -0.0172(7)
H60? H 0.4726 -0.1522 -0.0345
C42? C 0.5568(5) 0.0866(8) 0.0335(4)
H61? H 0.5798 0.1481 0.0520
loop_
_geom_bond_atom_site_label_1
_geom_bond_atom_site_label_2
_geom_bond_site_symmetry_1
_geom_bond_site_symmetry_2
Mg1 N1 1_555 1_555
N1 C2 1_555 1_555
C1 C2 1_555 1_555
N2 Mg1 1_555 1_555
C2 C3 1_555 1_555
C3 H1 1_555 1_555
C4 N2 1_555 1_555
C5 C4 1_555 1_555
C6 C1 1_555 1_555
H2 C6 1_555 1_555
H3 C6 1_555 1_555
H4 C6 1_555 1_555
C7 C1 1_555 1_555
H5 C7 1_555 1_555
H6 C7 1_555 1_555
H7 C7 1_555 1_555
C8 C1 1_555 1_555
H8 C8 1_555 1_555
H9 C8 1_555 1_555
H10 C8 1_555 1_555
C9 C5 1_555 1_555
H11 C9 1_555 1_555
H12 C9 1_555 1_555
H13 C9 1_555 1_555
C10 C5 1_555 1_555
H14 C10 1_555 1_555
H15 C10 1_555 1_555
H16 C10 1_555 1_555
C11 C5 1_555 1_555
H17 C11 1_555 1_555
H18 C11 1_555 1_555
H19 C11 1_555 1_555
C12 N1 1_555 1_555
C13 C12 1_555 1_555
C14 C13 1_555 1_555
H20 C14 1_555 1_555
C15 C14 1_555 1_555
H21 C15 1_555 1_555
C16 C15 1_555 1_555
H22 C16 1_555 1_555
C17 C12 1_555 1_555
C18 C13 1_555 1_555
H23 C18 1_555 1_555
C19 C18 1_555 1_555
H24 C19 1_555 1_555
H25 C19 1_555 1_555
H26 C19 1_555 1_555
C20 C18 1_555 1_555
H27 C20 1_555 1_555
H28 C20 1_555 1_555
H29 C20 1_555 1_555
C21 C17 1_555 1_555
H30 C21 1_555 1_555
C22 C21 1_555 1_555
H31 C22 1_555 1_555
H32 C22 1_555 1_555
H33 C22 1_555 1_555
C23 C21 1_555 1_555
H34 C23 1_555 1_555
H35 C23 1_555 1_555
H36 C23 1_555 1_555
C24 N2 1_555 1_555
C25 C24 1_555 1_555
C26 C25 1_555 1_555
H37 C26 1_555 1_555
C27 C26 1_555 1_555
H38 C27 1_555 1_555
C28 C27 1_555 1_555
H39 C28 1_555 1_555
C29 C24 1_555 1_555
C30 C25 1_555 1_555
H40 C30 1_555 1_555
C31 C30 1_555 1_555
H41 C31 1_555 1_555
H42 C31 1_555 1_555
H43 C31 1_555 1_555
C32 C30 1_555 1_555
H44 C32 1_555 1_555
H45 C32 1_555 1_555
H46 C32 1_555 1_555
C33 C29 1_555 1_555
H47 C33 1_555 1_555
C34 C33 1_555 1_555
H48 C34 1_555 1_555
H49 C34 1_555 1_555
H50 C34 1_555 1_555
C35 C33 1_555 1_555
H51 C35 1_555 1_555
H52 C35 1_555 1_555
H53 C35 1_555 1_555
Mg1A Mg1 1_555 1_555
N1A Mg1A 1_555 1_555
C1A C2A 1_555 1_555
N2A Mg1A 1_555 1_555
C2A N1A 1_555 1_555
C3A C2A 1_555 1_555
H1A C3A 1_555 1_555
C4A N2A 1_555 1_555
C5A C4A 1_555 1_555
C6A C1A 1_555 1_555
H2A C6A 1_555 1_555
H3A C6A 1_555 1_555
H4A C6A 1_555 1_555
C7A C1A 1_555 1_555
H5A C7A 1_555 1_555
H6A C7A 1_555 1_555
H7A C7A 1_555 1_555
C8A C1A 1_555 1_555
H8A C8A 1_555 1_555
H9A C8A 1_555 1_555
H10A C8A 1_555 1_555
C9A C5A 1_555 1_555
H11A C9A 1_555 1_555
H12A C9A 1_555 1_555
H13A C9A 1_555 1_555
C10A C5A 1_555 1_555
H14A C10A 1_555 1_555
H15A C10A 1_555 1_555
H16A C10A 1_555 1_555
C11A C5A 1_555 1_555
H17A C11A 1_555 1_555
H18A C11A 1_555 1_555
H19A C11A 1_555 1_555
C12A N1A 1_555 1_555
C13A C12A 1_555 1_555
C14A C13A 1_555 1_555
H20A C14A 1_555 1_555
C15A C14A 1_555 1_555
H21A C15A 1_555 1_555
C16A C15A 1_555 1_555
H22A C16A 1_555 1_555
C17A C12A 1_555 1_555
C18A C13A 1_555 1_555
H23A C18A 1_555 1_555
C19A C18A 1_555 1_555
H24A C19A 1_555 1_555
H25A C19A 1_555 1_555
H26A C19A 1_555 1_555
C20A C18A 1_555 1_555
H27A C20A 1_555 1_555
H28A C20A 1_555 1_555
H29A C20A 1_555 1_555
C21A C17A 1_555 1_555
H30A C21A 1_555 1_555
C22A C21A 1_555 1_555
H31A C22A 1_555 1_555
H32A C22A 1_555 1_555
H33A C22A 1_555 1_555
C23A C21A 1_555 1_555
H34A C23A 1_555 1_555
H35A C23A 1_555 1_555
H36A C23A 1_555 1_555
C24A N2A 1_555 1_555
C25A C24A 1_555 1_555
C26A C25A 1_555 1_555
H37A C26A 1_555 1_555
C27A C26A 1_555 1_555
H38A C27A 1_555 1_555
C28A C27A 1_555 1_555
H39A C28A 1_555 1_555
C29A C24A 1_555 1_555
C30A C25A 1_555 1_555
H40A C30A 1_555 1_555
C31A C30A 1_555 1_555
H41A C31A 1_555 1_555
H42A C31A 1_555 1_555
H43A C31A 1_555 1_555
C32A C30A 1_555 1_555
H44A C32A 1_555 1_555
H45A C32A 1_555 1_555
H46A C32A 1_555 1_555
C33A C29A 1_555 1_555
H47A C33A 1_555 1_555
C34A C33A 1_555 1_555
H48A C34A 1_555 1_555
H49A C34A 1_555 1_555
H50A C34A 1_555 1_555
C35A C33A 1_555 1_555
H51A C35A 1_555 1_555
H52A C35A 1_555 1_555
H53A C35A 1_555 1_555
C3 C4 1_555 1_555
C16 C17 1_555 1_555
C28 C29 1_555 1_555
C3A C4A 1_555 1_555
C16A C17A 1_555 1_555
C28A C29A 1_555 1_555

#END
