
#######################################################################
#
#                 Cambridge Crystallographic Data Centre
#                                CCDC 
#
#######################################################################
#
# If this CIF has been generated from an entry in the Cambridge 
# Structural Database, then it will include bibliographic, chemical, 
# crystal, experimental, refinement or atomic coordinate data resulting 
# from the CCDC's data processing and validation procedures.
#
#######################################################################

data_GUPSIU
_chemical_formula_moiety         'C90 H136 Mg2 N10,2(C6 H6)'
_chemical_name_systematic        
"(\m~2~-1,6-bis(1-Adamantyl)hexaaza-2,4-diene-1,6-diido-N^1^,N^3^,N^4^,N^6^)-bis(N,N'-bis(2,6-di-isopropylphenyl)-2,2,6,6-tetramethylheptane-3,5-di-iminato-N,N')-di-magnesium benzene solvate"
_symmetry_cell_setting           orthorhombic
_symmetry_space_group_name_H-M   'P b c a'
_symmetry_Int_Tables_number      61
_space_group_name_Hall           '-P 2ac 2ab'
loop_
_symmetry_equiv_pos_site_id
_symmetry_equiv_pos_as_xyz
1 x,y,z
2 1/2-x,-y,1/2+z
3 1/2+x,1/2-y,-z
4 -x,1/2+y,1/2-z
5 -x,-y,-z
6 1/2+x,y,1/2-z
7 1/2-x,1/2+y,z
8 x,1/2-y,1/2+z
_cell_length_a                   24.043(5)
_cell_length_b                   15.576(3)
_cell_length_c                   24.908(5)
_cell_angle_alpha                90
_cell_angle_beta                 90
_cell_angle_gamma                90
_cell_volume                     9327.89
_exptl_crystal_colour            colorless
_exptl_crystal_description       block
_cell_formula_units_Z            4
loop_
_atom_site_label
_atom_site_type_symbol
_atom_site_fract_x
_atom_site_fract_y
_atom_site_fract_z
Mg1 Mg 0.02786(3) 0.85884(4) 0.03122(3)
N1 N 0.00004(8) 0.80311(11) 0.10036(8)
C1 C -0.02680(12) 0.65061(15) 0.13341(11)
N2 N 0.10172(8) 0.79125(12) 0.02398(8)
C2 C 0.00975(10) 0.71808(14) 0.10194(10)
N3 N -0.02446(8) 0.87000(11) -0.03480(8)
C3 C 0.05207(10) 0.68004(14) 0.07085(10)
H1 H 0.0481 0.6195 0.0680
N4 N -0.03752(8) 0.94767(11) -0.04967(8)
C4 C 0.09927(9) 0.71137(14) 0.04290(9)
N5 N -0.01703(8) 1.01200(11) -0.02202(8)
C5 C 0.14486(10) 0.63961(15) 0.03654(11)
C6 C -0.06127(11) 0.68370(16) 0.18091(11)
H2 H -0.0810 0.6356 0.1977
H3 H -0.0883 0.7261 0.1681
H4 H -0.0366 0.7105 0.2073
C7 C -0.06801(15) 0.6137(2) 0.09100(13)
H5 H -0.0913 0.5696 0.1078
H6 H -0.0470 0.5883 0.0613
H7 H -0.0916 0.6601 0.0773
C8 C 0.00679(17) 0.5753(2) 0.15538(15)
H8 H 0.0371 0.5971 0.1778
H9 H 0.0223 0.5422 0.1255
H10 H -0.0175 0.5383 0.1769
C9 C 0.15593(12) 0.59817(18) 0.09203(13)
H11 H 0.1222 0.5688 0.1044
H12 H 0.1662 0.6429 0.1179
H13 H 0.1864 0.5566 0.0889
C10 C 0.20252(10) 0.66531(16) 0.01496(13)
H14 H 0.2264 0.6144 0.0130
H15 H 0.2194 0.7077 0.0391
H16 H 0.1985 0.6903 -0.0210
C11 C 0.12082(11) 0.57173(16) -0.00211(13)
H17 H 0.0873 0.5463 0.0137
H18 H 0.1486 0.5267 -0.0083
H19 H 0.1113 0.5990 -0.0363
C12 C -0.03051(9) 0.84955(14) 0.14082(9)
C13 C -0.08625(10) 0.87380(14) 0.13248(10)
C14 C -0.11401(11) 0.91849(16) 0.17321(11)
H20 H -0.1518 0.9342 0.1681
C15 C -0.08797(11) 0.94011(17) 0.22022(11)
H21 H -0.1080 0.9682 0.2480
C16 C -0.03231(11) 0.92063(16) 0.22681(10)
H22 H -0.0139 0.9378 0.2588
C17 C -0.00260(10) 0.87652(15) 0.18771(10)
C18 C -0.11825(10) 0.85479(15) 0.08136(10)
H23 H -0.0936 0.8207 0.0571
C19 C -0.17148(11) 0.8027(2) 0.09123(13)
H24 H -0.1624 0.7507 0.1116
H25 H -0.1881 0.7866 0.0567
H26 H -0.1980 0.8375 0.1117
C20 C -0.13330(12) 0.93860(16) 0.05275(11)
H27 H -0.1583 0.9724 0.0755
H28 H -0.1519 0.9255 0.0187
H29 H -0.0994 0.9716 0.0457
C21 C 0.05942(10) 0.86139(17) 0.19607(11)
H30 H 0.0773 0.8594 0.1598
C22 C 0.07139(15) 0.7757(3) 0.22389(19)
H31 H 0.1116 0.7691 0.2288
H32 H 0.0573 0.7285 0.2017
H33 H 0.0530 0.7746 0.2590
C23 C 0.08712(14) 0.9320(3) 0.2274(2)
H34 H 0.0708 0.9352 0.2633
H35 H 0.0816 0.9868 0.2088
H36 H 0.1270 0.9200 0.2303
C24 C 0.15192(9) 0.82938(14) 0.00229(10)
C25 C 0.16320(10) 0.82870(15) -0.05298(11)
C26 C 0.21360(10) 0.86263(15) -0.07082(11)
H37 H 0.2221 0.8610 -0.1080
C27 C 0.25134(11) 0.89850(16) -0.03575(12)
H38 H 0.2861 0.9190 -0.0485
C28 C 0.23808(10) 0.90432(16) 0.01797(12)
H39 H 0.2634 0.9313 0.0419
C29 C 0.18845(10) 0.87146(15) 0.03785(11)
C30 C 0.12420(11) 0.79202(17) -0.09528(11)
H40 H 0.0899 0.7706 -0.0769
C31 C 0.15028(14) 0.71706(19) -0.12637(13)
H41 H 0.1814 0.7383 -0.1480
H42 H 0.1223 0.6913 -0.1500
H43 H 0.1638 0.6738 -0.1010
C32 C 0.10717(12) 0.86249(19) -0.13507(12)
H44 H 0.0859 0.9068 -0.1162
H45 H 0.0842 0.8375 -0.1635
H46 H 0.1406 0.8882 -0.1509
C33 C 0.17510(10) 0.88313(18) 0.09707(12)
H47 H 0.1378 0.8566 0.1033
C34 C 0.21569(19) 0.8390(2) 0.13496(14)
H48 H 0.2526 0.8651 0.1312
H49 H 0.2179 0.7778 0.1261
H50 H 0.2028 0.8457 0.1720
C35 C 0.1702(2) 0.9753(2) 0.11141(15)
H51 H 0.2059 1.0040 0.1051
H52 H 0.1601 0.9806 0.1494
H53 H 0.1414 1.0022 0.0892
C36 C -0.05289(9) 0.80398(14) -0.06830(9)
C37 C -0.03305(10) 0.71700(14) -0.04716(10)
H54 H -0.0426 0.7117 -0.0086
H55 H 0.0079 0.7129 -0.0507
C38 C -0.11620(10) 0.80807(16) -0.06230(12)
H56 H -0.1299 0.8641 -0.0755
H57 H -0.1263 0.8030 -0.0239
C39 C -0.03786(12) 0.81097(16) -0.12779(10)
H58 H 0.0030 0.8078 -0.1321
H59 H -0.0506 0.8670 -0.1420
C40 C -0.06058(11) 0.64393(15) -0.07881(11)
H60 H -0.0471 0.5875 -0.0648
C41 C -0.12332(11) 0.64908(16) -0.07264(12)
H61 H -0.1335 0.6433 -0.0343
H62 H -0.1411 0.6017 -0.0928
C42 C -0.14366(11) 0.73541(17) -0.09419(12)
H63 H -0.1850 0.7391 -0.0901
C43 C -0.12852(12) 0.74358(18) -0.15338(12)
H64 H -0.1419 0.7993 -0.1675
H65 H -0.1466 0.6971 -0.1741
C44 C -0.06551(12) 0.73777(16) -0.15968(11)
H66 H -0.0554 0.7428 -0.1985
C45 C -0.04545(12) 0.65192(16) -0.13790(11)
H67 H -0.0629 0.6046 -0.1584
H68 H -0.0046 0.6475 -0.1422
Mg1D Mg -0.02786(3) 1.14116(4) -0.03122(3)
N1D N -0.00004(8) 1.19689(11) -0.10036(8)
C1D C 0.02680(12) 1.34939(15) -0.13341(11)
N2D N -0.10172(8) 1.20875(12) -0.02398(8)
C2D C -0.00975(10) 1.28192(14) -0.10194(10)
N3D N 0.02446(8) 1.13000(11) 0.03480(8)
C3D C -0.05207(10) 1.31996(14) -0.07085(10)
H1D H -0.0481 1.3805 -0.0680
N4D N 0.03752(8) 1.05233(11) 0.04967(8)
C4D C -0.09927(9) 1.28863(14) -0.04290(9)
N5D N 0.01703(8) 0.98800(11) 0.02202(8)
C5D C -0.14486(10) 1.36039(15) -0.03654(11)
C6D C 0.06127(11) 1.31630(16) -0.18091(11)
H2D H 0.0810 1.3644 -0.1977
H3D H 0.0883 1.2739 -0.1681
H4D H 0.0366 1.2895 -0.2073
C7D C 0.06801(15) 1.3863(2) -0.09100(13)
H5D H 0.0913 1.4304 -0.1078
H6D H 0.0470 1.4117 -0.0613
H7D H 0.0916 1.3399 -0.0773
C8D C -0.00679(17) 1.4247(2) -0.15538(15)
H8D H -0.0371 1.4029 -0.1778
H9D H -0.0223 1.4578 -0.1255
H10D H 0.0175 1.4617 -0.1769
C9D C -0.15593(12) 1.40183(18) -0.09203(13)
H11D H -0.1222 1.4312 -0.1044
H12D H -0.1662 1.3571 -0.1179
H13D H -0.1864 1.4434 -0.0889
C10D C -0.20252(10) 1.33469(16) -0.01496(13)
H14D H -0.2264 1.3856 -0.0130
H15D H -0.2194 1.2923 -0.0391
H16D H -0.1985 1.3097 0.0210
C11D C -0.12082(11) 1.42827(16) 0.00211(13)
H17D H -0.0873 1.4537 -0.0137
H18D H -0.1486 1.4733 0.0083
H19D H -0.1113 1.4010 0.0363
C12D C 0.03051(9) 1.15045(14) -0.14082(9)
C13D C 0.08625(10) 1.12620(14) -0.13248(10)
C14D C 0.11401(11) 1.08151(16) -0.17321(11)
H20D H 0.1518 1.0658 -0.1681
C15D C 0.08797(11) 1.05989(17) -0.22022(11)
H21D H 0.1080 1.0318 -0.2480
C16D C 0.03231(11) 1.07937(16) -0.22681(10)
H22D H 0.0139 1.0622 -0.2588
C17D C 0.00260(10) 1.12348(15) -0.18771(10)
C18D C 0.11825(10) 1.14521(15) -0.08136(10)
H23D H 0.0936 1.1793 -0.0571
C19D C 0.17148(11) 1.1973(2) -0.09123(13)
H24D H 0.1624 1.2493 -0.1116
H25D H 0.1881 1.2134 -0.0567
H26D H 0.1980 1.1625 -0.1117
C20D C 0.13330(12) 1.06140(16) -0.05275(11)
H27D H 0.1583 1.0276 -0.0755
H28D H 0.1519 1.0745 -0.0187
H29D H 0.0994 1.0284 -0.0457
C21D C -0.05942(10) 1.13861(17) -0.19607(11)
H30D H -0.0773 1.1406 -0.1598
C22D C -0.07139(15) 1.2243(3) -0.22389(19)
H31D H -0.1116 1.2309 -0.2288
H32D H -0.0573 1.2715 -0.2017
H33D H -0.0530 1.2254 -0.2590
C23D C -0.08712(14) 1.0680(3) -0.2274(2)
H34D H -0.0708 1.0648 -0.2633
H35D H -0.0816 1.0132 -0.2088
H36D H -0.1270 1.0800 -0.2303
C24D C -0.15192(9) 1.17062(14) -0.00229(10)
C25D C -0.16320(10) 1.17130(15) 0.05298(11)
C26D C -0.21360(10) 1.13737(15) 0.07082(11)
H37D H -0.2221 1.1390 0.1080
C27D C -0.25134(11) 1.10150(16) 0.03575(12)
H38D H -0.2861 1.0810 0.0485
C28D C -0.23808(10) 1.09568(16) -0.01797(12)
H39D H -0.2634 1.0687 -0.0419
C29D C -0.18845(10) 1.12854(15) -0.03785(11)
C30D C -0.12420(11) 1.20798(17) 0.09528(11)
H40D H -0.0899 1.2294 0.0769
C31D C -0.15028(14) 1.28294(19) 0.12637(13)
H41D H -0.1814 1.2617 0.1480
H42D H -0.1223 1.3087 0.1500
H43D H -0.1638 1.3262 0.1010
C32D C -0.10717(12) 1.13751(19) 0.13507(12)
H44D H -0.0859 1.0932 0.1162
H45D H -0.0842 1.1625 0.1635
H46D H -0.1406 1.1118 0.1509
C33D C -0.17510(10) 1.11687(18) -0.09707(12)
H47D H -0.1378 1.1434 -0.1033
C34D C -0.21569(19) 1.1610(2) -0.13496(14)
H48D H -0.2526 1.1349 -0.1312
H49D H -0.2179 1.2222 -0.1261
H50D H -0.2028 1.1543 -0.1720
C35D C -0.1702(2) 1.0247(2) -0.11141(15)
H51D H -0.2059 0.9960 -0.1051
H52D H -0.1601 1.0194 -0.1494
H53D H -0.1414 0.9978 -0.0892
C36D C 0.05289(9) 1.19602(14) 0.06830(9)
C37D C 0.03305(10) 1.28300(14) 0.04716(10)
H54D H 0.0426 1.2883 0.0086
H55D H -0.0079 1.2871 0.0507
C38D C 0.11620(10) 1.19193(16) 0.06230(12)
H56D H 0.1299 1.1359 0.0755
H57D H 0.1263 1.1970 0.0239
C39D C 0.03786(12) 1.18903(16) 0.12779(10)
H58D H -0.0030 1.1922 0.1321
H59D H 0.0506 1.1330 0.1420
C40D C 0.06058(11) 1.35607(15) 0.07881(11)
H60D H 0.0471 1.4125 0.0648
C41D C 0.12332(11) 1.35092(16) 0.07264(12)
H61D H 0.1335 1.3567 0.0343
H62D H 0.1411 1.3983 0.0928
C42D C 0.14366(11) 1.26459(17) 0.09419(12)
H63D H 0.1850 1.2609 0.0901
C43D C 0.12852(12) 1.25642(18) 0.15338(12)
H64D H 0.1419 1.2007 0.1675
H65D H 0.1466 1.3029 0.1741
C44D C 0.06551(12) 1.26223(16) 0.15968(11)
H66D H 0.0554 1.2572 0.1985
C45D C 0.04545(12) 1.34808(16) 0.13790(11)
H67D H 0.0629 1.3954 0.1584
H68D H 0.0046 1.3525 0.1422
C46 C 0.20351(17) 0.0744(4) 0.30853(18)
H69 H 0.1792 0.0859 0.3377
C47 C 0.2175(2) 0.1370(4) 0.2764(2)
H70 H 0.2020 0.1925 0.2814
C48 C 0.2540(2) 0.1232(5) 0.2359(2)
H71 H 0.2648 0.1695 0.2134
C49 C 0.2752(2) 0.0442(4) 0.22744(18)
H72 H 0.3010 0.0359 0.1991
C50 C 0.2608(2) -0.0227(4) 0.2578(2)
H73 H 0.2752 -0.0784 0.2508
C51 C 0.22325(19) -0.0085(4) 0.3012(2)
H74 H 0.2121 -0.0540 0.3241
loop_
_geom_bond_atom_site_label_1
_geom_bond_atom_site_label_2
_geom_bond_site_symmetry_1
_geom_bond_site_symmetry_2
Mg1 N1 1_555 1_555
N1 C2 1_555 1_555
C1 C2 1_555 1_555
N2 Mg1 1_555 1_555
C2 C3 1_555 1_555
N3 Mg1 1_555 1_555
C3 H1 1_555 1_555
N4 N3 1_555 1_555
C4 N2 1_555 1_555
N5 N4 1_555 1_555
C5 C4 1_555 1_555
C6 C1 1_555 1_555
H2 C6 1_555 1_555
H3 C6 1_555 1_555
H4 C6 1_555 1_555
C7 C1 1_555 1_555
H5 C7 1_555 1_555
H6 C7 1_555 1_555
H7 C7 1_555 1_555
C8 C1 1_555 1_555
H8 C8 1_555 1_555
H9 C8 1_555 1_555
H10 C8 1_555 1_555
C9 C5 1_555 1_555
H11 C9 1_555 1_555
H12 C9 1_555 1_555
H13 C9 1_555 1_555
C10 C5 1_555 1_555
H14 C10 1_555 1_555
H15 C10 1_555 1_555
H16 C10 1_555 1_555
C11 C5 1_555 1_555
H17 C11 1_555 1_555
H18 C11 1_555 1_555
H19 C11 1_555 1_555
C12 N1 1_555 1_555
C13 C12 1_555 1_555
C14 C13 1_555 1_555
H20 C14 1_555 1_555
C15 C14 1_555 1_555
H21 C15 1_555 1_555
C16 C15 1_555 1_555
H22 C16 1_555 1_555
C17 C12 1_555 1_555
C18 C13 1_555 1_555
H23 C18 1_555 1_555
C19 C18 1_555 1_555
H24 C19 1_555 1_555
H25 C19 1_555 1_555
H26 C19 1_555 1_555
C20 C18 1_555 1_555
H27 C20 1_555 1_555
H28 C20 1_555 1_555
H29 C20 1_555 1_555
C21 C17 1_555 1_555
H30 C21 1_555 1_555
C22 C21 1_555 1_555
H31 C22 1_555 1_555
H32 C22 1_555 1_555
H33 C22 1_555 1_555
C23 C21 1_555 1_555
H34 C23 1_555 1_555
H35 C23 1_555 1_555
H36 C23 1_555 1_555
C24 N2 1_555 1_555
C25 C24 1_555 1_555
C26 C25 1_555 1_555
H37 C26 1_555 1_555
C27 C26 1_555 1_555
H38 C27 1_555 1_555
C28 C27 1_555 1_555
H39 C28 1_555 1_555
C29 C24 1_555 1_555
C30 C25 1_555 1_555
H40 C30 1_555 1_555
C31 C30 1_555 1_555
H41 C31 1_555 1_555
H42 C31 1_555 1_555
H43 C31 1_555 1_555
C32 C30 1_555 1_555
H44 C32 1_555 1_555
H45 C32 1_555 1_555
H46 C32 1_555 1_555
C33 C29 1_555 1_555
H47 C33 1_555 1_555
C34 C33 1_555 1_555
H48 C34 1_555 1_555
H49 C34 1_555 1_555
H50 C34 1_555 1_555
C35 C33 1_555 1_555
H51 C35 1_555 1_555
H52 C35 1_555 1_555
H53 C35 1_555 1_555
C36 N3 1_555 1_555
C37 C36 1_555 1_555
H54 C37 1_555 1_555
H55 C37 1_555 1_555
C38 C36 1_555 1_555
H56 C38 1_555 1_555
H57 C38 1_555 1_555
C39 C36 1_555 1_555
H58 C39 1_555 1_555
H59 C39 1_555 1_555
C40 C37 1_555 1_555
H60 C40 1_555 1_555
C41 C40 1_555 1_555
H61 C41 1_555 1_555
H62 C41 1_555 1_555
C42 C38 1_555 1_555
H63 C42 1_555 1_555
C43 C42 1_555 1_555
H64 C43 1_555 1_555
H65 C43 1_555 1_555
C44 C39 1_555 1_555
H66 C44 1_555 1_555
C45 C40 1_555 1_555
H67 C45 1_555 1_555
H68 C45 1_555 1_555
C46 H69 1_555 1_555
C47 C46 1_555 1_555
H70 C47 1_555 1_555
C48 C47 1_555 1_555
H71 C48 1_555 1_555
C49 C48 1_555 1_555
H72 C49 1_555 1_555
C50 C49 1_555 1_555
H73 C50 1_555 1_555
C51 C46 1_555 1_555
H74 C51 1_555 1_555
Mg1D N5 1_555 1_555
N1D Mg1D 1_555 1_555
C1D C2D 1_555 1_555
N2D Mg1D 1_555 1_555
C2D N1D 1_555 1_555
N3D Mg1D 1_555 1_555
C3D C2D 1_555 1_555
H1D C3D 1_555 1_555
N4D N3D 1_555 1_555
C4D N2D 1_555 1_555
N5D Mg1 1_555 1_555
C5D C4D 1_555 1_555
C6D C1D 1_555 1_555
H2D C6D 1_555 1_555
H3D C6D 1_555 1_555
H4D C6D 1_555 1_555
C7D C1D 1_555 1_555
H5D C7D 1_555 1_555
H6D C7D 1_555 1_555
H7D C7D 1_555 1_555
C8D C1D 1_555 1_555
H8D C8D 1_555 1_555
H9D C8D 1_555 1_555
H10D C8D 1_555 1_555
C9D C5D 1_555 1_555
H11D C9D 1_555 1_555
H12D C9D 1_555 1_555
H13D C9D 1_555 1_555
C10D C5D 1_555 1_555
H14D C10D 1_555 1_555
H15D C10D 1_555 1_555
H16D C10D 1_555 1_555
C11D C5D 1_555 1_555
H17D C11D 1_555 1_555
H18D C11D 1_555 1_555
H19D C11D 1_555 1_555
C12D N1D 1_555 1_555
C13D C12D 1_555 1_555
C14D C13D 1_555 1_555
H20D C14D 1_555 1_555
C15D C14D 1_555 1_555
H21D C15D 1_555 1_555
C16D C15D 1_555 1_555
H22D C16D 1_555 1_555
C17D C12D 1_555 1_555
C18D C13D 1_555 1_555
H23D C18D 1_555 1_555
C19D C18D 1_555 1_555
H24D C19D 1_555 1_555
H25D C19D 1_555 1_555
H26D C19D 1_555 1_555
C20D C18D 1_555 1_555
H27D C20D 1_555 1_555
H28D C20D 1_555 1_555
H29D C20D 1_555 1_555
C21D C17D 1_555 1_555
H30D C21D 1_555 1_555
C22D C21D 1_555 1_555
H31D C22D 1_555 1_555
H32D C22D 1_555 1_555
H33D C22D 1_555 1_555
C23D C21D 1_555 1_555
H34D C23D 1_555 1_555
H35D C23D 1_555 1_555
H36D C23D 1_555 1_555
C24D N2D 1_555 1_555
C25D C24D 1_555 1_555
C26D C25D 1_555 1_555
H37D C26D 1_555 1_555
C27D C26D 1_555 1_555
H38D C27D 1_555 1_555
C28D C27D 1_555 1_555
H39D C28D 1_555 1_555
C29D C24D 1_555 1_555
C30D C25D 1_555 1_555
H40D C30D 1_555 1_555
C31D C30D 1_555 1_555
H41D C31D 1_555 1_555
H42D C31D 1_555 1_555
H43D C31D 1_555 1_555
C32D C30D 1_555 1_555
H44D C32D 1_555 1_555
H45D C32D 1_555 1_555
H46D C32D 1_555 1_555
C33D C29D 1_555 1_555
H47D C33D 1_555 1_555
C34D C33D 1_555 1_555
H48D C34D 1_555 1_555
H49D C34D 1_555 1_555
H50D C34D 1_555 1_555
C35D C33D 1_555 1_555
H51D C35D 1_555 1_555
H52D C35D 1_555 1_555
H53D C35D 1_555 1_555
C36D N3D 1_555 1_555
C37D C36D 1_555 1_555
H54D C37D 1_555 1_555
H55D C37D 1_555 1_555
C38D C36D 1_555 1_555
H56D C38D 1_555 1_555
H57D C38D 1_555 1_555
C39D C36D 1_555 1_555
H58D C39D 1_555 1_555
H59D C39D 1_555 1_555
C40D C37D 1_555 1_555
H60D C40D 1_555 1_555
C41D C40D 1_555 1_555
H61D C41D 1_555 1_555
H62D C41D 1_555 1_555
C42D C38D 1_555 1_555
H63D C42D 1_555 1_555
C43D C42D 1_555 1_555
H64D C43D 1_555 1_555
H65D C43D 1_555 1_555
C44D C39D 1_555 1_555
H66D C44D 1_555 1_555
C45D C40D 1_555 1_555
H67D C45D 1_555 1_555
H68D C45D 1_555 1_555
C3 C4 1_555 1_555
N5 N5D 1_555 1_555
C16 C17 1_555 1_555
C28 C29 1_555 1_555
C41 C42 1_555 1_555
C43 C44 1_555 1_555
C44 C45 1_555 1_555
C50 C51 1_555 1_555
C3D C4D 1_555 1_555
N4D N5D 1_555 1_555
C16D C17D 1_555 1_555
C28D C29D 1_555 1_555
C41D C42D 1_555 1_555
C43D C44D 1_555 1_555
C44D C45D 1_555 1_555

#END
