
#######################################################################
#
#                 Cambridge Crystallographic Data Centre
#                                CCDC 
#
#######################################################################
#
# If this CIF has been generated from an entry in the Cambridge 
# Structural Database, then it will include bibliographic, chemical, 
# crystal, experimental, refinement or atomic coordinate data resulting 
# from the CCDC's data processing and validation procedures.
#
#######################################################################

data_GUPSAM
_chemical_formula_moiety         'C35 H53 N2 1-,Na1 1+'
_chemical_name_systematic        
"Sodium N,N'-bis(2,6-di-isopropylphenyl)-2,2,6,6-tetramethylhept-3-en-3-amido-5-imide"
_symmetry_cell_setting           monoclinic
_symmetry_space_group_name_H-M   'P 21/c'
_symmetry_Int_Tables_number      14
_space_group_name_Hall           '-P 2ybc'
loop_
_symmetry_equiv_pos_site_id
_symmetry_equiv_pos_as_xyz
1 x,y,z
2 -x,1/2+y,1/2-z
3 -x,-y,-z
4 x,1/2-y,1/2+z
_cell_length_a                   17.185(3)
_cell_length_b                   12.073(2)
_cell_length_c                   17.560(4)
_cell_angle_alpha                90
_cell_angle_beta                 118.91(3)
_cell_angle_gamma                90
_cell_volume                     3189.23
_exptl_crystal_colour            yellow
_exptl_crystal_description       block
_cell_formula_units_Z            4
loop_
_atom_site_label
_atom_site_type_symbol
_atom_site_fract_x
_atom_site_fract_y
_atom_site_fract_z
Na1 Na 0.34604(4) 0.43410(5) 0.40955(4)
N1 N 0.31717(7) 0.55615(10) 0.29769(7)
C1 C 0.23362(9) 0.67690(12) 0.16201(9)
N2 N 0.20229(7) 0.38584(10) 0.31072(7)
C2 C 0.24442(9) 0.57683(11) 0.22343(8)
C3 C 0.16588(9) 0.51453(12) 0.19566(8)
H1 H 0.1191 0.5354 0.1401
C4 C 0.14378(8) 0.42655(11) 0.23515(8)
C5 C 0.04677(9) 0.38210(12) 0.17854(9)
C6 C 0.31667(10) 0.74911(13) 0.19120(9)
H2 H 0.3025 0.8122 0.1516
H3 H 0.3641 0.7051 0.1903
H4 H 0.3364 0.7762 0.2503
C7 C 0.20583(11) 0.63641(13) 0.06917(9)
H5 H 0.1943 0.7004 0.0308
H6 H 0.1518 0.5915 0.0478
H7 H 0.2537 0.5916 0.0699
C8 C 0.16024(11) 0.75309(13) 0.15925(11)
H8 H 0.1758 0.7757 0.2185
H9 H 0.1036 0.7131 0.1332
H10 H 0.1547 0.8189 0.1243
C9 C 0.04323(10) 0.32663(14) 0.09800(10)
H11 H 0.0874 0.2671 0.1166
H12 H 0.0562 0.3817 0.0647
H13 H -0.0162 0.2957 0.0615
C10 C -0.02079(10) 0.47784(14) 0.15009(11)
H14 H -0.0813 0.4477 0.1200
H15 H -0.0118 0.5272 0.1107
H16 H -0.0123 0.5195 0.2014
C11 C 0.01597(10) 0.29507(14) 0.22205(10)
H17 H 0.0166 0.3274 0.2735
H18 H 0.0562 0.2312 0.2395
H19 H -0.0445 0.2710 0.1809
C12 C 0.40455(9) 0.59240(11) 0.32832(8)
C13 C 0.44421(9) 0.66201(11) 0.40212(8)
C14 C 0.53502(9) 0.68539(12) 0.43971(9)
H20 H 0.5614 0.7338 0.4884
C15 C 0.58739(9) 0.63999(13) 0.40790(10)
H21 H 0.6492 0.6558 0.4350
C16 C 0.54826(9) 0.57068(13) 0.33546(10)
H22 H 0.5842 0.5392 0.3136
C17 C 0.45810(9) 0.54647(11) 0.29448(9)
C18 C 0.38877(10) 0.71414(13) 0.43872(9)
H23 H 0.3259 0.6893 0.4021
C19 C 0.39013(14) 0.84107(14) 0.43596(12)
H24 H 0.4509 0.8676 0.4729
H25 H 0.3512 0.8711 0.4572
H26 H 0.3692 0.8657 0.3760
C20 C 0.41967(11) 0.67606(15) 0.53201(10)
H27 H 0.4197 0.5949 0.5340
H28 H 0.3792 0.7051 0.5518
H29 H 0.4799 0.7037 0.5701
C21 C 0.41497(10) 0.47242(12) 0.21450(9)
H30 H 0.3540 0.5026 0.1764
C22 C 0.40326(13) 0.35406(14) 0.23787(11)
H31 H 0.4617 0.3211 0.2750
H32 H 0.3716 0.3102 0.1845
H33 H 0.3690 0.3549 0.2691
C23 C 0.46278(12) 0.47225(17) 0.16051(11)
H34 H 0.4717 0.5487 0.1477
H35 H 0.4268 0.4323 0.1059
H36 H 0.5205 0.4356 0.1932
C24 C 0.19175(8) 0.31020(11) 0.36604(8)
C25 C 0.16414(9) 0.34898(12) 0.42530(9)
C26 C 0.17051(10) 0.27798(13) 0.49061(9)
H37 H 0.1520 0.3035 0.5305
C27 C 0.20317(10) 0.17130(13) 0.49893(10)
H38 H 0.2083 0.1248 0.5448
C28 C 0.22837(10) 0.13308(12) 0.43954(10)
H39 H 0.2501 0.0595 0.4448
C29 C 0.22257(9) 0.20018(12) 0.37233(9)
C30 C 0.12819(10) 0.46612(13) 0.41682(10)
H40 H 0.0985 0.4853 0.3536
C31 C 0.20161(14) 0.55003(17) 0.4634(2)
H41 H 0.2356 0.5307 0.5252
H42 H 0.1756 0.6239 0.4573
H43 H 0.2412 0.5498 0.4378
C32 C 0.05840(14) 0.47768(18) 0.44578(15)
H44 H 0.0122 0.4215 0.4166
H45 H 0.0317 0.5516 0.4305
H46 H 0.0863 0.4674 0.5089
C33 C 0.24598(10) 0.15492(12) 0.30511(9)
H47 H 0.2303 0.2128 0.2592
C34 C 0.34550(10) 0.13089(14) 0.34471(11)
H48 H 0.3791 0.1998 0.3671
H49 H 0.3577 0.0999 0.3000
H50 H 0.3634 0.0776 0.3924
C35 C 0.19287(12) 0.05022(15) 0.26085(13)
H51 H 0.2087 -0.0089 0.3041
H52 H 0.2068 0.0265 0.2154
H53 H 0.1292 0.0661 0.2347
loop_
_geom_bond_atom_site_label_1
_geom_bond_atom_site_label_2
_geom_bond_site_symmetry_1
_geom_bond_site_symmetry_2
N1 C2 1_555 1_555
C1 C2 1_555 1_555
N2 C4 1_555 1_555
C2 C3 1_555 1_555
C3 H1 1_555 1_555
C4 C3 1_555 1_555
C5 C4 1_555 1_555
C6 C1 1_555 1_555
H2 C6 1_555 1_555
H3 C6 1_555 1_555
H4 C6 1_555 1_555
C7 C1 1_555 1_555
H5 C7 1_555 1_555
H6 C7 1_555 1_555
H7 C7 1_555 1_555
C8 C1 1_555 1_555
H8 C8 1_555 1_555
H9 C8 1_555 1_555
H10 C8 1_555 1_555
C9 C5 1_555 1_555
H11 C9 1_555 1_555
H12 C9 1_555 1_555
H13 C9 1_555 1_555
C10 C5 1_555 1_555
H14 C10 1_555 1_555
H15 C10 1_555 1_555
H16 C10 1_555 1_555
C11 C5 1_555 1_555
H17 C11 1_555 1_555
H18 C11 1_555 1_555
H19 C11 1_555 1_555
C12 N1 1_555 1_555
C13 C12 1_555 1_555
C14 C13 1_555 1_555
H20 C14 1_555 1_555
C15 C14 1_555 1_555
H21 C15 1_555 1_555
C16 C15 1_555 1_555
H22 C16 1_555 1_555
C17 C12 1_555 1_555
C18 C13 1_555 1_555
H23 C18 1_555 1_555
C19 C18 1_555 1_555
H24 C19 1_555 1_555
H25 C19 1_555 1_555
H26 C19 1_555 1_555
C20 C18 1_555 1_555
H27 C20 1_555 1_555
H28 C20 1_555 1_555
H29 C20 1_555 1_555
C21 C17 1_555 1_555
H30 C21 1_555 1_555
C22 C21 1_555 1_555
H31 C22 1_555 1_555
H32 C22 1_555 1_555
H33 C22 1_555 1_555
C23 C21 1_555 1_555
H34 C23 1_555 1_555
H35 C23 1_555 1_555
H36 C23 1_555 1_555
C24 N2 1_555 1_555
C25 C24 1_555 1_555
C26 C25 1_555 1_555
H37 C26 1_555 1_555
C27 C26 1_555 1_555
H38 C27 1_555 1_555
C28 C27 1_555 1_555
H39 C28 1_555 1_555
C29 C24 1_555 1_555
C30 C25 1_555 1_555
H40 C30 1_555 1_555
C31 C30 1_555 1_555
H41 C31 1_555 1_555
H42 C31 1_555 1_555
H43 C31 1_555 1_555
C32 C30 1_555 1_555
H44 C32 1_555 1_555
H45 C32 1_555 1_555
H46 C32 1_555 1_555
C33 C29 1_555 1_555
H47 C33 1_555 1_555
C34 C33 1_555 1_555
H48 C34 1_555 1_555
H49 C34 1_555 1_555
H50 C34 1_555 1_555
C35 C33 1_555 1_555
H51 C35 1_555 1_555
H52 C35 1_555 1_555
H53 C35 1_555 1_555
C16 C17 1_555 1_555
C28 C29 1_555 1_555

#END
