
#######################################################################
#
#                 Cambridge Crystallographic Data Centre
#                                CCDC 
#
#######################################################################
#
# If this CIF has been generated from an entry in the Cambridge 
# Structural Database, then it will include bibliographic, chemical, 
# crystal, experimental, refinement or atomic coordinate data resulting 
# from the CCDC's data processing and validation procedures.
#
#######################################################################

data_GUPSOA
_chemical_formula_moiety         'C66 H88 Mg2 N10,5(C6 H6)'
_chemical_name_systematic        
"(\m~2~-1,6-bis(1-Adamantyl)hexaaza-2,4-diene-1,6-diido-N^1^,N^3^,N^4^,N^6^)-bis(N,N'-dimesitylpentane-2,4-di-iminato-N,N')-di-magnesium benzene solvate"
_symmetry_cell_setting           triclinic
_symmetry_space_group_name_H-M   'P -1'
_symmetry_Int_Tables_number      2
_space_group_name_Hall           '-P 1'
loop_
_symmetry_equiv_pos_site_id
_symmetry_equiv_pos_as_xyz
1 x,y,z
2 -x,-y,-z
_cell_length_a                   10.335(2)
_cell_length_b                   15.552(3)
_cell_length_c                   27.259(6)
_cell_angle_alpha                87.34(3)
_cell_angle_beta                 80.64(3)
_cell_angle_gamma                79.23(3)
_cell_volume                     4246.27
_exptl_crystal_colour            colorless
_exptl_crystal_description       block
_cell_formula_units_Z            2
loop_
_atom_site_label
_atom_site_type_symbol
_atom_site_fract_x
_atom_site_fract_y
_atom_site_fract_z
Mg1 Mg 0.29203(9) 0.09136(6) 0.03569(3)
N1 N 0.1510(2) 0.16908(14) 0.00236(9)
N2 N 0.1596(2) 0.05272(14) 0.09190(9)
N3 N 0.4697(2) 0.11671(13) 0.05024(8)
N4 N 0.5779(2) 0.06290(14) 0.03240(8)
N5 N 0.4335(2) -0.00029(14) -0.00376(8)
C1 C -0.0648(3) 0.1898(2) -0.02771(11)
H1 H -0.1056 0.2490 -0.0164
H2 H -0.1347 0.1549 -0.0276
H3 H -0.0160 0.1929 -0.0615
C2 C 0.0300(3) 0.14770(18) 0.00660(11)
C3 C -0.0167(3) 0.08803(18) 0.04216(11)
H4 H -0.0973 0.0709 0.0374
C4 C 0.0370(3) 0.04991(18) 0.08359(11)
C5 C -0.0531(3) 0.0033(2) 0.12086(12)
H5 H -0.0115 -0.0583 0.1238
H6 H -0.1393 0.0071 0.1095
H7 H -0.0668 0.0310 0.1533
C6 C 0.1761(3) 0.24422(18) -0.02767(11)
C7 C 0.1295(3) 0.32805(19) -0.00817(12)
C8 C 0.1593(3) 0.3997(2) -0.03686(13)
H8 H 0.1275 0.4565 -0.0236
C9 C 0.2337(3) 0.3920(2) -0.08408(15)
C10 C 0.2791(3) 0.3084(2) -0.10235(13)
H9 H 0.3305 0.3015 -0.1346
C11 C 0.2522(3) 0.23401(19) -0.07525(12)
C12 C 0.0477(3) 0.3407(2) 0.04293(12)
H10 H 0.0462 0.3999 0.0542
H11 H 0.0874 0.2977 0.0662
H12 H -0.0436 0.3329 0.0417
C13 C 0.2628(5) 0.4718(2) -0.11459(19)
H13 H 0.3500 0.4574 -0.1357
H14 H 0.2636 0.5193 -0.0923
H15 H 0.1936 0.4904 -0.1355
C14 C 0.3014(3) 0.1447(2) -0.09734(12)
H16 H 0.3613 0.1094 -0.0767
H17 H 0.3496 0.1506 -0.1310
H18 H 0.2253 0.1161 -0.0987
C15 C 0.1978(3) 0.02298(19) 0.13895(11)
C16 C 0.2828(3) -0.0582(2) 0.14252(11)
C17 C 0.3270(3) -0.0820(2) 0.18761(12)
H19 H 0.3847 -0.1367 0.1901
C18 C 0.2906(3) -0.0294(2) 0.22913(11)
C19 C 0.2061(3) 0.0498(2) 0.22449(12)
H20 H 0.1792 0.0867 0.2526
C20 C 0.1593(3) 0.0776(2) 0.18037(11)
C21 C 0.3218(3) -0.1203(2) 0.09971(12)
H21 H 0.2419 -0.1386 0.0917
H22 H 0.3841 -0.1718 0.1089
H23 H 0.3646 -0.0910 0.0706
C22 C 0.3390(4) -0.0591(3) 0.27749(12)
H24 H 0.2678 -0.0804 0.3002
H25 H 0.3641 -0.0098 0.2925
H26 H 0.4167 -0.1064 0.2712
C23 C 0.0675(3) 0.1645(2) 0.17797(12)
H27 H -0.0253 0.1560 0.1855
H28 H 0.0839 0.1902 0.1445
H29 H 0.0841 0.2039 0.2023
C24 C 0.4941(3) 0.18231(17) 0.08342(10)
C25 C 0.6116(3) 0.22580(19) 0.06223(12)
H30 H 0.5978 0.2534 0.0296
H31 H 0.6945 0.1813 0.0573
C26 C 0.3676(3) 0.25157(18) 0.09077(11)
H32 H 0.2904 0.2236 0.1042
H33 H 0.3519 0.2793 0.0583
C27 C 0.5163(3) 0.13968(19) 0.13391(11)
H34 H 0.5986 0.0947 0.1297
H35 H 0.4404 0.1106 0.1476
C28 C 0.6249(3) 0.2956(2) 0.09829(15)
H36 H 0.7027 0.3239 0.0845
C29 C 0.4966(3) 0.3652(2) 0.10506(14)
H37 H 0.5050 0.4110 0.1278
H38 H 0.4819 0.3933 0.0726
C30 C 0.3796(3) 0.32152(19) 0.12658(12)
H39 H 0.2957 0.3663 0.1310
C31 C 0.4012(3) 0.2783(2) 0.17659(12)
H40 H 0.3241 0.2505 0.1905
H41 H 0.4084 0.3231 0.2002
C32 C 0.5286(3) 0.2093(2) 0.17004(13)
H42 H 0.5429 0.1812 0.2029
C33 C 0.6462(4) 0.2522(3) 0.14888(16)
H43 H 0.7290 0.2076 0.1448
H44 H 0.6558 0.2968 0.1721
Mg1A Mg 0.70797(9) -0.09136(6) -0.03569(3)
N1A N 0.8490(2) -0.16908(14) -0.00236(9)
N2A N 0.8404(2) -0.05272(14) -0.09190(9)
N3A N 0.5303(2) -0.11671(13) -0.05024(8)
N4A N 0.4221(2) -0.06290(14) -0.03240(8)
N5A N 0.5665(2) 0.00029(14) 0.00376(8)
C1A C 1.0648(3) -0.1898(2) 0.02771(11)
H1A H 1.1056 -0.2490 0.0164
H2A H 1.1347 -0.1549 0.0276
H3A H 1.0160 -0.1929 0.0615
C2A C 0.9700(3) -0.14770(18) -0.00660(11)
C3A C 1.0167(3) -0.08803(18) -0.04216(11)
H4A H 1.0973 -0.0709 -0.0374
C4A C 0.9630(3) -0.04991(18) -0.08359(11)
C5A C 1.0531(3) -0.0033(2) -0.12086(12)
H5A H 1.0115 0.0583 -0.1238
H6A H 1.1393 -0.0071 -0.1095
H7A H 1.0668 -0.0310 -0.1533
C6A C 0.8239(3) -0.24422(18) 0.02767(11)
C7A C 0.8705(3) -0.32805(19) 0.00817(12)
C8A C 0.8407(3) -0.3997(2) 0.03686(13)
H8A H 0.8725 -0.4565 0.0236
C9A C 0.7663(3) -0.3920(2) 0.08408(15)
C10A C 0.7209(3) -0.3084(2) 0.10235(13)
H9A H 0.6695 -0.3015 0.1346
C11A C 0.7478(3) -0.23401(19) 0.07525(12)
C12A C 0.9523(3) -0.3407(2) -0.04293(12)
H10A H 0.9538 -0.3999 -0.0542
H11A H 0.9126 -0.2977 -0.0662
H12A H 1.0436 -0.3329 -0.0417
C13A C 0.7372(5) -0.4718(2) 0.11459(19)
H13A H 0.6500 -0.4574 0.1357
H14A H 0.7364 -0.5193 0.0923
H15A H 0.8064 -0.4904 0.1355
C14A C 0.6986(3) -0.1447(2) 0.09734(12)
H16A H 0.6387 -0.1094 0.0767
H17A H 0.6504 -0.1506 0.1310
H18A H 0.7747 -0.1161 0.0987
C15A C 0.8022(3) -0.02298(19) -0.13895(11)
C16A C 0.7172(3) 0.0582(2) -0.14252(11)
C17A C 0.6730(3) 0.0820(2) -0.18761(12)
H19A H 0.6153 0.1367 -0.1901
C18A C 0.7094(3) 0.0294(2) -0.22913(11)
C19A C 0.7939(3) -0.0498(2) -0.22449(12)
H20A H 0.8208 -0.0867 -0.2526
C20A C 0.8407(3) -0.0776(2) -0.18037(11)
C21A C 0.6782(3) 0.1203(2) -0.09971(12)
H21A H 0.7581 0.1386 -0.0917
H22A H 0.6159 0.1718 -0.1089
H23A H 0.6354 0.0910 -0.0706
C22A C 0.6610(4) 0.0591(3) -0.27749(12)
H24A H 0.7322 0.0804 -0.3002
H25A H 0.6359 0.0098 -0.2925
H26A H 0.5833 0.1064 -0.2712
C23A C 0.9325(3) -0.1645(2) -0.17797(12)
H27A H 1.0253 -0.1560 -0.1855
H28A H 0.9161 -0.1902 -0.1445
H29A H 0.9159 -0.2039 -0.2023
C24A C 0.5059(3) -0.18231(17) -0.08342(10)
C25A C 0.3884(3) -0.22580(19) -0.06223(12)
H30A H 0.4022 -0.2534 -0.0296
H31A H 0.3055 -0.1813 -0.0573
C26A C 0.6324(3) -0.25157(18) -0.09077(11)
H32A H 0.7096 -0.2236 -0.1042
H33A H 0.6481 -0.2793 -0.0583
C27A C 0.4837(3) -0.13968(19) -0.13391(11)
H34A H 0.4014 -0.0947 -0.1297
H35A H 0.5596 -0.1106 -0.1476
C28A C 0.3751(3) -0.2956(2) -0.09829(15)
H36A H 0.2973 -0.3239 -0.0845
C29A C 0.5034(3) -0.3652(2) -0.10506(14)
H37A H 0.4950 -0.4110 -0.1278
H38A H 0.5181 -0.3933 -0.0726
C30A C 0.6204(3) -0.32152(19) -0.12658(12)
H39A H 0.7043 -0.3663 -0.1310
C31A C 0.5988(3) -0.2783(2) -0.17659(12)
H40A H 0.6759 -0.2505 -0.1905
H41A H 0.5916 -0.3231 -0.2002
C32A C 0.4714(3) -0.2093(2) -0.17004(13)
H42A H 0.4571 -0.1812 -0.2029
C33A C 0.3538(4) -0.2522(3) -0.14888(16)
H43A H 0.2710 -0.2076 -0.1448
H44A H 0.3442 -0.2968 -0.1721
Mg2 Mg 0.34138(9) -0.08860(6) -0.46030(4)
N6 N 0.2374(3) -0.16369(19) -0.49093(10)
N7 N 0.1903(2) -0.04994(16) -0.40390(10)
N8 N 0.5330(2) -0.11293(14) -0.44521(8)
N9 N 0.6121(2) -0.06113(15) -0.46576(9)
N10 N 0.4332(2) 0.00067(15) -0.50326(8)
C34 C 0.0285(4) -0.1798(4) -0.51955(15)
H45 H 0.0207 -0.2391 -0.5073
H46 H 0.0770 -0.1825 -0.5536
H47 H -0.0607 -0.1445 -0.5192
C35 C 0.1037(4) -0.1385(3) -0.48642(15)
C36 C 0.0279(4) -0.0783(3) -0.45159(18)
H48 H -0.0620 -0.0585 -0.4563
C37 C 0.0651(3) -0.0434(2) -0.41110(16)
C38 C -0.0473(3) 0.0046(2) -0.37369(18)
H49 H -0.0463 -0.0248 -0.3411
H50 H -0.1329 0.0044 -0.3847
H51 H -0.0352 0.0651 -0.3711
C39 C 0.3006(4) -0.2400(3) -0.51893(12)
C40 C 0.3713(4) -0.2320(3) -0.56726(13)
C41 C 0.4363(5) -0.3073(3) -0.59233(14)
H52 H 0.4824 -0.3020 -0.6251
C42 C 0.4362(6) -0.3899(3) -0.57105(16)
C43 C 0.3661(5) -0.3952(3) -0.52353(15)
H53 H 0.3642 -0.4515 -0.5086
C44 C 0.2993(4) -0.3229(3) -0.49707(12)
C45 C 0.3719(4) -0.1432(3) -0.59196(15)
H54 H 0.4233 -0.1103 -0.5750
H55 H 0.2801 -0.1112 -0.5900
H56 H 0.4128 -0.1505 -0.6269
C46 C 0.5086(7) -0.4707(3) -0.6000(2)
H57 H 0.5023 -0.5230 -0.5789
H58 H 0.6026 -0.4663 -0.6101
H59 H 0.4677 -0.4749 -0.6296
C47 C 0.2237(4) -0.3331(2) -0.44528(13)
H60 H 0.2609 -0.3034 -0.4214
H61 H 0.2318 -0.3955 -0.4363
H62 H 0.1294 -0.3072 -0.4446
C48 C 0.2166(3) -0.02518(19) -0.35709(12)
C49 C 0.2056(3) -0.08182(19) -0.31574(13)
C50 C 0.2429(3) -0.0591(2) -0.27193(13)
H63 H 0.2349 -0.0974 -0.2439
C51 C 0.2913(3) 0.0173(2) -0.26768(13)
C52 C 0.2997(3) 0.0722(2) -0.30901(13)
H64 H 0.3316 0.1251 -0.3068
C53 C 0.2637(3) 0.05314(19) -0.35343(13)
C54 C 0.1539(3) -0.1661(2) -0.31791(13)
H65 H 0.0595 -0.1574 -0.3031
H66 H 0.2050 -0.2123 -0.2994
H67 H 0.1638 -0.1834 -0.3526
C55 C 0.3307(4) 0.0398(3) -0.21995(13)
H68 H 0.3317 0.1027 -0.2198
H69 H 0.4198 0.0069 -0.2170
H70 H 0.2664 0.0247 -0.1918
C56 C 0.2688(3) 0.1174(2) -0.39659(14)
H71 H 0.2939 0.1708 -0.3864
H72 H 0.1809 0.1319 -0.4071
H73 H 0.3349 0.0913 -0.4243
C57 C 0.5934(3) -0.17521(17) -0.40882(10)
C58 C 0.5950(3) -0.12748(19) -0.36125(11)
H74 H 0.5039 -0.0966 -0.3484
H75 H 0.6536 -0.0834 -0.3685
C59 C 0.5021(3) -0.24253(17) -0.39686(10)
H76 H 0.5000 -0.2738 -0.4275
H77 H 0.4102 -0.2124 -0.3843
C60 C 0.7337(3) -0.22258(19) -0.42882(12)
H78 H 0.7939 -0.1796 -0.4371
H79 H 0.7325 -0.2538 -0.4595
C61 C 0.6462(4) -0.1934(2) -0.32200(12)
H80 H 0.6474 -0.1619 -0.2910
C62 C 0.5547(3) -0.2606(2) -0.31046(11)
H81 H 0.5872 -0.3031 -0.2850
H82 H 0.4634 -0.2307 -0.2970
C63 C 0.5523(3) -0.30836(18) -0.35756(11)
H83 H 0.4916 -0.3520 -0.3499
C64 C 0.6931(3) -0.35563(19) -0.37806(12)
H84 H 0.6916 -0.3869 -0.4087
H85 H 0.7267 -0.3991 -0.3533
C65 C 0.7845(3) -0.2879(2) -0.38953(14)
H86 H 0.8770 -0.3184 -0.4025
C66 C 0.7862(4) -0.2401(2) -0.34187(15)
H87 H 0.8196 -0.2827 -0.3166
H88 H 0.8466 -0.1971 -0.3489
Mg2A Mg 0.65862(9) 0.08860(6) -0.53970(4)
N6A N 0.7626(3) 0.16369(19) -0.50907(10)
N7A N 0.8097(2) 0.04994(16) -0.59610(10)
N8A N 0.4670(2) 0.11293(14) -0.55479(8)
N9A N 0.3879(2) 0.06113(15) -0.53424(9)
N10A N 0.5668(2) -0.00067(15) -0.49674(8)
C34A C 0.9715(4) 0.1798(4) -0.48045(15)
H45A H 0.9793 0.2391 -0.4927
H46A H 0.9230 0.1825 -0.4464
H47A H 1.0607 0.1445 -0.4808
C35A C 0.8963(4) 0.1385(3) -0.51358(15)
C36A C 0.9721(4) 0.0783(3) -0.54841(18)
H48A H 1.0620 0.0585 -0.5437
C37A C 0.9349(3) 0.0434(2) -0.58890(16)
C38A C 1.0473(3) -0.0046(2) -0.62631(18)
H49A H 1.0463 0.0248 -0.6589
H50A H 1.1329 -0.0044 -0.6153
H51A H 1.0352 -0.0651 -0.6289
C39A C 0.6994(4) 0.2400(3) -0.48107(12)
C40A C 0.6287(4) 0.2320(3) -0.43274(13)
C41A C 0.5637(5) 0.3073(3) -0.40767(14)
H52A H 0.5176 0.3020 -0.3749
C42A C 0.5638(6) 0.3899(3) -0.42895(16)
C43A C 0.6339(5) 0.3952(3) -0.47647(15)
H53A H 0.6358 0.4515 -0.4914
C44A C 0.7007(4) 0.3229(3) -0.50293(12)
C45A C 0.6281(4) 0.1432(3) -0.40804(15)
H54A H 0.5767 0.1103 -0.4250
H55A H 0.7199 0.1112 -0.4100
H56A H 0.5872 0.1505 -0.3731
C46A C 0.4914(7) 0.4707(3) -0.4000(2)
H57A H 0.4977 0.5230 -0.4211
H58A H 0.3974 0.4663 -0.3899
H59A H 0.5323 0.4749 -0.3704
C47A C 0.7763(4) 0.3331(2) -0.55472(13)
H60A H 0.7391 0.3034 -0.5786
H61A H 0.7682 0.3955 -0.5637
H62A H 0.8706 0.3072 -0.5554
C48A C 0.7834(3) 0.02518(19) -0.64291(12)
C49A C 0.7944(3) 0.08182(19) -0.68426(13)
C50A C 0.7571(3) 0.0591(2) -0.72807(13)
H63A H 0.7651 0.0974 -0.7561
C51A C 0.7087(3) -0.0173(2) -0.73232(13)
C52A C 0.7003(3) -0.0722(2) -0.69099(13)
H64A H 0.6684 -0.1251 -0.6932
C53A C 0.7363(3) -0.05314(19) -0.64657(13)
C54A C 0.8461(3) 0.1661(2) -0.68209(13)
H65A H 0.9405 0.1574 -0.6969
H66A H 0.7950 0.2123 -0.7006
H67A H 0.8362 0.1834 -0.6474
C55A C 0.6693(4) -0.0398(3) -0.78005(13)
H68A H 0.6683 -0.1027 -0.7802
H69A H 0.5802 -0.0069 -0.7830
H70A H 0.7336 -0.0247 -0.8082
C56A C 0.7312(3) -0.1174(2) -0.60341(14)
H71A H 0.7061 -0.1708 -0.6136
H72A H 0.8191 -0.1319 -0.5929
H73A H 0.6651 -0.0913 -0.5757
C57A C 0.4066(3) 0.17521(17) -0.59118(10)
C58A C 0.4050(3) 0.12748(19) -0.63875(11)
H74A H 0.4961 0.0966 -0.6516
H75A H 0.3464 0.0834 -0.6315
C59A C 0.4979(3) 0.24253(17) -0.60314(10)
H76A H 0.5000 0.2738 -0.5725
H77A H 0.5898 0.2124 -0.6157
C60A C 0.2663(3) 0.22258(19) -0.57118(12)
H78A H 0.2061 0.1796 -0.5629
H79A H 0.2675 0.2538 -0.5405
C61A C 0.3538(4) 0.1934(2) -0.67800(12)
H80A H 0.3526 0.1619 -0.7090
C62A C 0.4453(3) 0.2606(2) -0.68954(11)
H81A H 0.4128 0.3031 -0.7150
H82A H 0.5366 0.2307 -0.7030
C63A C 0.4477(3) 0.30836(18) -0.64244(11)
H83A H 0.5084 0.3520 -0.6501
C64A C 0.3069(3) 0.35563(19) -0.62194(12)
H84A H 0.3084 0.3869 -0.5913
H85A H 0.2733 0.3991 -0.6467
C65A C 0.2155(3) 0.2879(2) -0.61047(14)
H86A H 0.1230 0.3184 -0.5975
C66A C 0.2138(4) 0.2401(2) -0.65813(15)
H87A H 0.1804 0.2827 -0.6834
H88A H 0.1534 0.1971 -0.6511
C67 C -0.2479(6) 0.3738(4) -0.1287(2)
H89 H -0.2197 0.3549 -0.1620
C68 C -0.1622(6) 0.4026(3) -0.10433(18)
H90 H -0.0744 0.4048 -0.1207
C69 C -0.1988(5) 0.4284(3) -0.05708(17)
H91 H -0.1370 0.4485 -0.0402
C70 C -0.3228(6) 0.4259(3) -0.03359(19)
H92 H -0.3481 0.4443 -0.0001
C71 C -0.4126(5) 0.3971(3) -0.0573(3)
H93 H -0.4999 0.3950 -0.0404
C72 C -0.3753(6) 0.3711(3) -0.1063(3)
H94 H -0.4367 0.3519 -0.1238
C73 C 0.4087(5) 0.4246(3) -0.25291(17)
H95 H 0.3141 0.4363 -0.2496
C74 C 0.4768(5) 0.3397(3) -0.25737(16)
H96 H 0.4295 0.2928 -0.2572
C75 C 0.6145(5) 0.3229(3) -0.26204(17)
H97 H 0.6622 0.2644 -0.2646
C76 C 0.6819(5) 0.3914(4) -0.26294(17)
H98 H 0.7766 0.3802 -0.2672
C77 C 0.6128(5) 0.4760(3) -0.25768(18)
H99 H 0.6597 0.5229 -0.2572
C78 C 0.4767(5) 0.4927(3) -0.25318(18)
H100 H 0.4293 0.5512 -0.2502
C79 C 0.0404(6) 0.2354(4) -0.19306(19)
H101 H 0.0408 0.2290 -0.1583
C80 C -0.0220(5) 0.1821(3) -0.2172(3)
H102 H -0.0638 0.1385 -0.1990
C81 C -0.0233(6) 0.1921(5) -0.2655(3)
H103 H -0.0684 0.1562 -0.2814
C82 C 0.0355(7) 0.2498(6) -0.2918(2)
H104 H 0.0351 0.2544 -0.3266
C83 C 0.0966(5) 0.3029(4) -0.2700(2)
H105 H 0.1377 0.3455 -0.2897
C84 C 0.1010(5) 0.2970(3) -0.21976(18)
H106 H 0.1447 0.3344 -0.2043
C85 C 0.0041(5) -0.4016(3) -0.21883(18)
H107 H -0.0229 -0.3781 -0.1864
C86 C 0.1159(15) -0.3778(13) -0.2445(5)
H108 H 0.1732 -0.3498 -0.2294
C87 C -0.0741(9) -0.4533(6) -0.2323(3)
H109 H -0.1424 -0.4747 -0.2102
C88 C -0.0416(6) -0.4715(5) -0.2833(3)
H110 H -0.0961 -0.5034 -0.2974
C89 C 0.0652(7) -0.4458(4) -0.3143(3)
H111 H 0.0858 -0.4614 -0.3483
C90 C 0.1397(9) -0.3973(5) -0.2940(4)
H112 H 0.2104 -0.3763 -0.3149
C91? C 0.0221(12) -0.3607(7) -0.5769(4)
H113? H 0.0826 -0.3291 -0.5663
C92? C 0.0131(15) -0.3818(9) -0.6029(5)
H114? H 0.0515 -0.3571 -0.6330
C93? C -0.1165(9) -0.3310(6) -0.5651(4)
H115? H -0.1496 -0.2797 -0.5461
C94? C -0.1258(14) -0.3675(7) -0.5876(4)
H116? H -0.1841 -0.3365 -0.6086
C95? C -0.2063(11) -0.3771(8) -0.5813(5)
H117? H -0.3001 -0.3580 -0.5738
C96? C -0.1756(8) -0.3984(6) -0.5425(4)
H118? H -0.2692 -0.3857 -0.5317
C97? C -0.1506(9) -0.4528(5) -0.6091(3)
H119? H -0.2080 -0.4850 -0.6212
C98? C -0.0970(9) -0.4466(6) -0.5123(3)
H120? H -0.1361 -0.4685 -0.4814
C99? C -0.0166(9) -0.4808(5) -0.6189(3)
H121? H 0.0196 -0.5330 -0.6368
C100? C 0.0380(9) -0.4639(5) -0.5260(3)
H122? H 0.0923 -0.4960 -0.5040
C101? C 0.0665(12) -0.4316(7) -0.6024(4)
H123? H 0.1602 -0.4507 -0.6101
C102? C 0.0957(5) -0.4362(3) -0.57043(18)
H124? H 0.1893 -0.4520 -0.5805
C103? C -0.135(2) -0.6373(15) -0.7610(4)
C104? C -0.1079(5) -0.6166(3) -0.81097(18)
C105? C -0.0058(7) -0.5702(5) -0.8263(3)
C106? C -0.0698(5) -0.4641(3) -0.20173(18)
C107? C -0.0366(12) -0.4369(8) -0.2521(3)
C108? C -0.0645(12) -0.6084(9) -0.7286(5)
H125? H -0.2011 -0.6713 -0.7492
H126? H -0.1545 -0.6343 -0.8340
H127? H -0.0145 -0.4390 -0.1388
H128? H -0.1336 -0.4999 -0.1897
H129? H -0.0893 -0.4513 -0.2750
H130? H -0.0846 -0.6191 -0.6938
loop_
_geom_bond_atom_site_label_1
_geom_bond_atom_site_label_2
_geom_bond_site_symmetry_1
_geom_bond_site_symmetry_2
Mg1 N1 1_555 1_555
N1 C2 1_555 1_555
N2 Mg1 1_555 1_555
N3 Mg1 1_555 1_555
N4 N3 1_555 1_555
N5 Mg1 1_555 1_555
C1 H1 1_555 1_555
H2 C1 1_555 1_555
H3 C1 1_555 1_555
C2 C1 1_555 1_555
C3 C2 1_555 1_555
H4 C3 1_555 1_555
C4 N2 1_555 1_555
C5 C4 1_555 1_555
H5 C5 1_555 1_555
H6 C5 1_555 1_555
H7 C5 1_555 1_555
C6 N1 1_555 1_555
C7 C6 1_555 1_555
C8 C7 1_555 1_555
H8 C8 1_555 1_555
C9 C8 1_555 1_555
C10 C9 1_555 1_555
H9 C10 1_555 1_555
C11 C6 1_555 1_555
C12 C7 1_555 1_555
H10 C12 1_555 1_555
H11 C12 1_555 1_555
H12 C12 1_555 1_555
C13 C9 1_555 1_555
H13 C13 1_555 1_555
H14 C13 1_555 1_555
H15 C13 1_555 1_555
C14 C11 1_555 1_555
H16 C14 1_555 1_555
H17 C14 1_555 1_555
H18 C14 1_555 1_555
C15 N2 1_555 1_555
C16 C15 1_555 1_555
C17 C16 1_555 1_555
H19 C17 1_555 1_555
C18 C17 1_555 1_555
C19 C18 1_555 1_555
H20 C19 1_555 1_555
C20 C15 1_555 1_555
C21 C16 1_555 1_555
H21 C21 1_555 1_555
H22 C21 1_555 1_555
H23 C21 1_555 1_555
C22 C18 1_555 1_555
H24 C22 1_555 1_555
H25 C22 1_555 1_555
H26 C22 1_555 1_555
C23 C20 1_555 1_555
H27 C23 1_555 1_555
H28 C23 1_555 1_555
H29 C23 1_555 1_555
C24 N3 1_555 1_555
C25 C24 1_555 1_555
H30 C25 1_555 1_555
H31 C25 1_555 1_555
C26 C24 1_555 1_555
H32 C26 1_555 1_555
H33 C26 1_555 1_555
C27 C24 1_555 1_555
H34 C27 1_555 1_555
H35 C27 1_555 1_555
C28 C25 1_555 1_555
H36 C28 1_555 1_555
C29 C28 1_555 1_555
H37 C29 1_555 1_555
H38 C29 1_555 1_555
C30 C26 1_555 1_555
H39 C30 1_555 1_555
C31 C30 1_555 1_555
H40 C31 1_555 1_555
H41 C31 1_555 1_555
C32 C27 1_555 1_555
H42 C32 1_555 1_555
C33 C28 1_555 1_555
H43 C33 1_555 1_555
H44 C33 1_555 1_555
Mg2 N6 1_555 1_555
N6 C35 1_555 1_555
N7 Mg2 1_555 1_555
N8 Mg2 1_555 1_555
N9 N8 1_555 1_555
N10 Mg2 1_555 1_555
C34 H45 1_555 1_555
H46 C34 1_555 1_555
H47 C34 1_555 1_555
C35 C34 1_555 1_555
C36 C35 1_555 1_555
H48 C36 1_555 1_555
C37 N7 1_555 1_555
C38 C37 1_555 1_555
H49 C38 1_555 1_555
H50 C38 1_555 1_555
H51 C38 1_555 1_555
C39 N6 1_555 1_555
C40 C39 1_555 1_555
C41 C40 1_555 1_555
H52 C41 1_555 1_555
C42 C41 1_555 1_555
C43 C42 1_555 1_555
H53 C43 1_555 1_555
C44 C39 1_555 1_555
C45 C40 1_555 1_555
H54 C45 1_555 1_555
H55 C45 1_555 1_555
H56 C45 1_555 1_555
C46 C42 1_555 1_555
H57 C46 1_555 1_555
H58 C46 1_555 1_555
H59 C46 1_555 1_555
C47 C44 1_555 1_555
H60 C47 1_555 1_555
H61 C47 1_555 1_555
H62 C47 1_555 1_555
C48 N7 1_555 1_555
C49 C48 1_555 1_555
C50 C49 1_555 1_555
H63 C50 1_555 1_555
C51 C50 1_555 1_555
C52 C51 1_555 1_555
H64 C52 1_555 1_555
C53 C48 1_555 1_555
C54 C49 1_555 1_555
H65 C54 1_555 1_555
H66 C54 1_555 1_555
H67 C54 1_555 1_555
C55 C51 1_555 1_555
H68 C55 1_555 1_555
H69 C55 1_555 1_555
H70 C55 1_555 1_555
C56 C53 1_555 1_555
H71 C56 1_555 1_555
H72 C56 1_555 1_555
H73 C56 1_555 1_555
C57 N8 1_555 1_555
C58 C57 1_555 1_555
H74 C58 1_555 1_555
H75 C58 1_555 1_555
C59 C57 1_555 1_555
H76 C59 1_555 1_555
H77 C59 1_555 1_555
C60 C57 1_555 1_555
H78 C60 1_555 1_555
H79 C60 1_555 1_555
C61 C58 1_555 1_555
H80 C61 1_555 1_555
C62 C61 1_555 1_555
H81 C62 1_555 1_555
H82 C62 1_555 1_555
C63 C59 1_555 1_555
H83 C63 1_555 1_555
C64 C63 1_555 1_555
H84 C64 1_555 1_555
H85 C64 1_555 1_555
C65 C60 1_555 1_555
H86 C65 1_555 1_555
C66 C61 1_555 1_555
H87 C66 1_555 1_555
H88 C66 1_555 1_555
C67 H89 1_555 1_555
C68 C67 1_555 1_555
H90 C68 1_555 1_555
C69 C68 1_555 1_555
H91 C69 1_555 1_555
C70 C69 1_555 1_555
H92 C70 1_555 1_555
C71 C70 1_555 1_555
H93 C71 1_555 1_555
C72 C67 1_555 1_555
H94 C72 1_555 1_555
C73 H95 1_555 1_555
C74 C73 1_555 1_555
H96 C74 1_555 1_555
C75 C74 1_555 1_555
H97 C75 1_555 1_555
C76 C75 1_555 1_555
H98 C76 1_555 1_555
C77 C76 1_555 1_555
H99 C77 1_555 1_555
C78 C73 1_555 1_555
H100 C78 1_555 1_555
C79 H101 1_555 1_555
C80 C79 1_555 1_555
H102 C80 1_555 1_555
C81 C80 1_555 1_555
H103 C81 1_555 1_555
C82 C81 1_555 1_555
H104 C82 1_555 1_555
C83 C82 1_555 1_555
H105 C83 1_555 1_555
C84 C79 1_555 1_555
H106 C84 1_555 1_555
C85 H107 1_555 1_555
C86 C85 1_555 1_555
H108 C86 1_555 1_555
C87 C85 1_555 1_555
H109 C87 1_555 1_555
C88 C87 1_555 1_555
H110 C88 1_555 1_555
C89 C88 1_555 1_555
H111 C89 1_555 1_555
C90 C86 1_555 1_555
H112 C90 1_555 1_555
Mg1A N1A 1_555 1_555
N1A C2A 1_555 1_555
N2A Mg1A 1_555 1_555
N3A Mg1A 1_555 1_555
N4A N5 1_555 1_555
N5A N4 1_555 1_555
C1A H1A 1_555 1_555
H2A C1A 1_555 1_555
H3A C1A 1_555 1_555
C2A C1A 1_555 1_555
C3A C2A 1_555 1_555
H4A C3A 1_555 1_555
C4A N2A 1_555 1_555
C5A C4A 1_555 1_555
H5A C5A 1_555 1_555
H6A C5A 1_555 1_555
H7A C5A 1_555 1_555
C6A N1A 1_555 1_555
C7A C6A 1_555 1_555
C8A C7A 1_555 1_555
H8A C8A 1_555 1_555
C9A C8A 1_555 1_555
C10A C9A 1_555 1_555
H9A C10A 1_555 1_555
C11A C6A 1_555 1_555
C12A C7A 1_555 1_555
H10A C12A 1_555 1_555
H11A C12A 1_555 1_555
H12A C12A 1_555 1_555
C13A C9A 1_555 1_555
H13A C13A 1_555 1_555
H14A C13A 1_555 1_555
H15A C13A 1_555 1_555
C14A C11A 1_555 1_555
H16A C14A 1_555 1_555
H17A C14A 1_555 1_555
H18A C14A 1_555 1_555
C15A N2A 1_555 1_555
C16A C15A 1_555 1_555
C17A C16A 1_555 1_555
H19A C17A 1_555 1_555
C18A C17A 1_555 1_555
C19A C18A 1_555 1_555
H20A C19A 1_555 1_555
C20A C15A 1_555 1_555
C21A C16A 1_555 1_555
H21A C21A 1_555 1_555
H22A C21A 1_555 1_555
H23A C21A 1_555 1_555
C22A C18A 1_555 1_555
H24A C22A 1_555 1_555
H25A C22A 1_555 1_555
H26A C22A 1_555 1_555
C23A C20A 1_555 1_555
H27A C23A 1_555 1_555
H28A C23A 1_555 1_555
H29A C23A 1_555 1_555
C24A N3A 1_555 1_555
C25A C24A 1_555 1_555
H30A C25A 1_555 1_555
H31A C25A 1_555 1_555
C26A C24A 1_555 1_555
H32A C26A 1_555 1_555
H33A C26A 1_555 1_555
C27A C24A 1_555 1_555
H34A C27A 1_555 1_555
H35A C27A 1_555 1_555
C28A C25A 1_555 1_555
H36A C28A 1_555 1_555
C29A C28A 1_555 1_555
H37A C29A 1_555 1_555
H38A C29A 1_555 1_555
C30A C26A 1_555 1_555
H39A C30A 1_555 1_555
C31A C30A 1_555 1_555
H40A C31A 1_555 1_555
H41A C31A 1_555 1_555
C32A C27A 1_555 1_555
H42A C32A 1_555 1_555
C33A C28A 1_555 1_555
H43A C33A 1_555 1_555
H44A C33A 1_555 1_555
Mg2A N6A 1_555 1_555
N6A C35A 1_555 1_555
N7A Mg2A 1_555 1_555
N8A Mg2A 1_555 1_555
N9A N10 1_555 1_555
N10A N9 1_555 1_555
C34A H45A 1_555 1_555
H46A C34A 1_555 1_555
H47A C34A 1_555 1_555
C35A C34A 1_555 1_555
C36A C35A 1_555 1_555
H48A C36A 1_555 1_555
C37A N7A 1_555 1_555
C38A C37A 1_555 1_555
H49A C38A 1_555 1_555
H50A C38A 1_555 1_555
H51A C38A 1_555 1_555
C39A N6A 1_555 1_555
C40A C39A 1_555 1_555
C41A C40A 1_555 1_555
H52A C41A 1_555 1_555
C42A C41A 1_555 1_555
C43A C42A 1_555 1_555
H53A C43A 1_555 1_555
C44A C39A 1_555 1_555
C45A C40A 1_555 1_555
H54A C45A 1_555 1_555
H55A C45A 1_555 1_555
H56A C45A 1_555 1_555
C46A C42A 1_555 1_555
H57A C46A 1_555 1_555
H58A C46A 1_555 1_555
H59A C46A 1_555 1_555
C47A C44A 1_555 1_555
H60A C47A 1_555 1_555
H61A C47A 1_555 1_555
H62A C47A 1_555 1_555
C48A N7A 1_555 1_555
C49A C48A 1_555 1_555
C50A C49A 1_555 1_555
H63A C50A 1_555 1_555
C51A C50A 1_555 1_555
C52A C51A 1_555 1_555
H64A C52A 1_555 1_555
C53A C48A 1_555 1_555
C54A C49A 1_555 1_555
H65A C54A 1_555 1_555
H66A C54A 1_555 1_555
H67A C54A 1_555 1_555
C55A C51A 1_555 1_555
H68A C55A 1_555 1_555
H69A C55A 1_555 1_555
H70A C55A 1_555 1_555
C56A C53A 1_555 1_555
H71A C56A 1_555 1_555
H72A C56A 1_555 1_555
H73A C56A 1_555 1_555
C57A N8A 1_555 1_555
C58A C57A 1_555 1_555
H74A C58A 1_555 1_555
H75A C58A 1_555 1_555
C59A C57A 1_555 1_555
H76A C59A 1_555 1_555
H77A C59A 1_555 1_555
C60A C57A 1_555 1_555
H78A C60A 1_555 1_555
H79A C60A 1_555 1_555
C61A C58A 1_555 1_555
H80A C61A 1_555 1_555
C62A C61A 1_555 1_555
H81A C62A 1_555 1_555
H82A C62A 1_555 1_555
C63A C59A 1_555 1_555
H83A C63A 1_555 1_555
C64A C63A 1_555 1_555
H84A C64A 1_555 1_555
H85A C64A 1_555 1_555
C65A C60A 1_555 1_555
H86A C65A 1_555 1_555
C66A C61A 1_555 1_555
H87A C66A 1_555 1_555
H88A C66A 1_555 1_555
N5 N5A 1_555 1_555
C3 C4 1_555 1_555
C10 C11 1_555 1_555
C19 C20 1_555 1_555
C29 C30 1_555 1_555
C31 C32 1_555 1_555
C32 C33 1_555 1_555
N10 N10A 1_555 1_555
C36 C37 1_555 1_555
C43 C44 1_555 1_555
C52 C53 1_555 1_555
C62 C63 1_555 1_555
C64 C65 1_555 1_555
C65 C66 1_555 1_555
C71 C72 1_555 1_555
C77 C78 1_555 1_555
C83 C84 1_555 1_555
C89 C90 1_555 1_555
Mg1A N5A 1_555 1_555
N3A N4A 1_555 1_555
C3A C4A 1_555 1_555
C10A C11A 1_555 1_555
C19A C20A 1_555 1_555
C29A C30A 1_555 1_555
C31A C32A 1_555 1_555
C32A C33A 1_555 1_555
Mg2A N10A 1_555 1_555
N8A N9A 1_555 1_555
C36A C37A 1_555 1_555
C43A C44A 1_555 1_555
C52A C53A 1_555 1_555
C62A C63A 1_555 1_555
C64A C65A 1_555 1_555
C65A C66A 1_555 1_555

#END
