
#######################################################################
#
#                 Cambridge Crystallographic Data Centre
#                                CCDC 
#
#######################################################################
#
# If this CIF has been generated from an entry in the Cambridge 
# Structural Database, then it will include bibliographic, chemical, 
# crystal, experimental, refinement or atomic coordinate data resulting 
# from the CCDC's data processing and validation procedures.
#
#######################################################################

data_GUPTER
_chemical_formula_moiety         'C42 H64 Mg1 N4,2(C6 H6)'
_chemical_name_systematic        
"(N,N'-bis(2,6-Di-isopropylphenyl)-2,2,6,6-tetramethylheptane-3,5-di-iminato)-hydrido-(4-(dimethylamino)pyridine-N)-magnesium benzene solvate"
_symmetry_cell_setting           triclinic
_symmetry_space_group_name_H-M   'P -1'
_symmetry_Int_Tables_number      2
_space_group_name_Hall           '-P 1'
loop_
_symmetry_equiv_pos_site_id
_symmetry_equiv_pos_as_xyz
1 x,y,z
2 -x,-y,-z
_cell_length_a                   10.138(2)
_cell_length_b                   12.995(3)
_cell_length_c                   19.537(4)
_cell_angle_alpha                98.83(3)
_cell_angle_beta                 102.51(3)
_cell_angle_gamma                96.70(3)
_cell_volume                     2452.81
_exptl_crystal_colour            colorless
_exptl_crystal_description       block
_cell_formula_units_Z            2
loop_
_atom_site_label
_atom_site_type_symbol
_atom_site_fract_x
_atom_site_fract_y
_atom_site_fract_z
Mg1 Mg 0.65010(10) 0.96806(8) 0.19085(6)
N1 N 0.6780(2) 0.84538(19) 0.24573(13)
C1 C 0.5520(3) 0.7371(2) 0.31902(18)
N2 N 0.6544(2) 1.07769(19) 0.28096(14)
C2 C 0.6094(3) 0.8419(2) 0.29693(16)
N3 N 0.4410(3) 0.9324(2) 0.13287(15)
C3 C 0.5699(3) 0.9332(2) 0.33069(16)
H1 H 0.5052 0.9183 0.3579
N4 N 0.0360(3) 0.8697(4) 0.0089(2)
C4 C 0.6064(3) 1.0431(2) 0.33262(16)
C5 C 0.5812(3) 1.1123(2) 0.40004(17)
C6 C 0.6272(4) 0.6428(3) 0.3060(2)
H2 H 0.5834 0.5825 0.3218
H3 H 0.7229 0.6615 0.3328
H4 H 0.6235 0.6243 0.2550
C7 C 0.5476(4) 0.7518(3) 0.3983(2)
H5 H 0.4823 0.7993 0.4071
H6 H 0.6388 0.7822 0.4281
H7 H 0.5190 0.6833 0.4100
C8 C 0.4040(4) 0.7066(3) 0.2739(2)
H8 H 0.4038 0.6987 0.2232
H9 H 0.3507 0.7619 0.2862
H10 H 0.3633 0.6398 0.2836
C9 C 0.6602(4) 1.0759(3) 0.46659(18)
H11 H 0.6468 1.1187 0.5097
H12 H 0.7578 1.0841 0.4673
H13 H 0.6261 1.0016 0.4650
C10 C 0.4269(3) 1.0943(3) 0.39630(19)
H14 H 0.4085 1.1391 0.4372
H15 H 0.3972 1.0202 0.3973
H16 H 0.3768 1.1122 0.3520
C11 C 0.6247(4) 1.2317(3) 0.4127(2)
H17 H 0.5753 1.2599 0.3726
H18 H 0.7233 1.2475 0.4168
H19 H 0.6034 1.2643 0.4569
C12 C 0.7595(3) 0.7697(2) 0.22382(18)
C13 C 0.8955(4) 0.7782(3) 0.2627(2)
C14 C 0.9758(4) 0.7053(3) 0.2376(3)
H20 H 1.0673 0.7075 0.2633
C15 C 0.9220(6) 0.6313(3) 0.1761(3)
H21 H 0.9774 0.5828 0.1605
C16 C 0.7921(5) 0.6258(3) 0.1373(3)
H22 H 0.7578 0.5743 0.0951
C17 C 0.7093(4) 0.6955(3) 0.1595(2)
C18 C 0.9563(4) 0.8653(3) 0.3270(2)
H23 H 0.9130 0.9286 0.3175
C19 C 0.9280(5) 0.8406(4) 0.3967(3)
H24 H 0.8291 0.8294 0.3925
H25 H 0.9716 0.8997 0.4356
H26 H 0.9651 0.7767 0.4067
C20 C 1.1109(4) 0.8973(4) 0.3381(3)
H27 H 1.1576 0.8381 0.3498
H28 H 1.1435 0.9579 0.3773
H29 H 1.1304 0.9163 0.2943
C21 C 0.5671(4) 0.6876(3) 0.1126(2)
H30 H 0.5170 0.7374 0.1375
C22 C 0.4841(6) 0.5750(4) 0.0983(3)
H31 H 0.3942 0.5732 0.0667
H32 H 0.4723 0.5563 0.1436
H33 H 0.5334 0.5244 0.0757
C23 C 0.5740(5) 0.7200(3) 0.0411(2)
H34 H 0.6235 0.7920 0.0498
H35 H 0.4810 0.7172 0.0124
H36 H 0.6218 0.6716 0.0155
C24 C 0.7008(3) 1.1868(2) 0.28087(19)
C25 C 0.8391(3) 1.2291(3) 0.3099(2)
C26 C 0.8812(5) 1.3354(3) 0.3110(3)
H37 H 0.9736 1.3657 0.3326
C27 C 0.7925(5) 1.3968(4) 0.2817(4)
H38 H 0.8226 1.4697 0.2842
C28 C 0.6589(5) 1.3529(3) 0.2484(3)
H39 H 0.5987 1.3957 0.2266
C29 C 0.6102(4) 1.2474(3) 0.2462(2)
C30 C 0.9448(3) 1.1636(3) 0.3391(2)
H40 H 0.8953 1.0927 0.3397
C31 C 1.0385(4) 1.1481(4) 0.2886(3)
H41 H 0.9848 1.1103 0.2417
H42 H 1.1085 1.1071 0.3076
H43 H 1.0828 1.2170 0.2839
C32 C 1.0273(5) 1.2105(4) 0.4154(3)
H44 H 1.0783 1.2797 0.4161
H45 H 1.0914 1.1634 0.4317
H46 H 0.9648 1.2183 0.4471
C33 C 0.4655(4) 1.2021(3) 0.2079(2)
H47 H 0.4470 1.1281 0.2160
C34 C 0.3604(4) 1.2644(4) 0.2347(3)
H48 H 0.3730 1.2675 0.2861
H49 H 0.2677 1.2293 0.2100
H50 H 0.3737 1.3361 0.2248
C35 C 0.4456(5) 1.1989(4) 0.1277(2)
H51 H 0.4513 1.2709 0.1181
H52 H 0.3556 1.1589 0.1025
H53 H 0.5170 1.1648 0.1109
C36 C 0.3320(4) 0.9086(3) 0.1607(2)
H54 H 0.3494 0.9070 0.2103
C37 C 0.1992(4) 0.8868(4) 0.1224(2)
H55 H 0.1283 0.8694 0.1453
C38 C 0.1665(4) 0.8899(4) 0.0484(2)
C39 C 0.2791(4) 0.9151(4) 0.0200(2)
H56 H 0.2653 0.9187 -0.0292
C40 C 0.4089(4) 0.9345(3) 0.0627(2)
H57 H 0.4821 0.9508 0.0410
C41 C -0.0779(4) 0.8380(6) 0.0408(3)
H58 H -0.0627 0.7744 0.0607
H59 H -0.1640 0.8234 0.0041
H60 H -0.0828 0.8951 0.0789
C42 C -0.0012(5) 0.8781(6) -0.0656(3)
H61 H 0.0537 0.9406 -0.0732
H62 H -0.0984 0.8844 -0.0791
H63 H 0.0158 0.8150 -0.0948
H64 H 0.743(7) 0.999(6) 0.129(4)
C43 C 0.2832(7) 0.4703(5) 0.4958(4)
H65 H 0.3207 0.4455 0.5380
C44 C 0.3307(5) 0.4457(4) 0.4373(5)
H66 H 0.4012 0.4034 0.4381
C45 C 0.2774(6) 0.4816(4) 0.3769(3)
H67 H 0.3105 0.4641 0.3354
C46 C 0.1787(6) 0.5412(4) 0.3761(3)
H68 H 0.1414 0.5663 0.3339
C47 C 0.1315(5) 0.5660(4) 0.4356(5)
H69 H 0.0618 0.6090 0.4350
C48 C 0.1820(8) 0.5303(5) 0.4953(4)
H70 H 0.1476 0.5468 0.5365
C49 C 1.0412(7) 0.3845(5) 0.1697(5)
H71 H 1.0703 0.3866 0.2196
C50 C 1.1299(7) 0.4163(5) 0.1320(5)
H72 H 1.2228 0.4405 0.1563
C51 C 1.0928(9) 0.4153(7) 0.0624(5)
H73 H 1.1602 0.4339 0.0376
C52 C 0.9552(9) 0.3870(8) 0.0250(5)
H74 H 0.9265 0.3960 -0.0231
C53 C 0.8663(9) 0.3475(7) 0.0586(6)
H75 H 0.7758 0.3185 0.0325
C54 C 0.9043(8) 0.3479(6) 0.1329(6)
H76 H 0.8386 0.3239 0.1573
loop_
_geom_bond_atom_site_label_1
_geom_bond_atom_site_label_2
_geom_bond_site_symmetry_1
_geom_bond_site_symmetry_2
Mg1 N1 1_555 1_555
N1 C2 1_555 1_555
C1 C2 1_555 1_555
N2 Mg1 1_555 1_555
C2 C3 1_555 1_555
N3 Mg1 1_555 1_555
C3 H1 1_555 1_555
N4 C38 1_555 1_555
C4 N2 1_555 1_555
C5 C4 1_555 1_555
C6 C1 1_555 1_555
H2 C6 1_555 1_555
H3 C6 1_555 1_555
H4 C6 1_555 1_555
C7 C1 1_555 1_555
H5 C7 1_555 1_555
H6 C7 1_555 1_555
H7 C7 1_555 1_555
C8 C1 1_555 1_555
H8 C8 1_555 1_555
H9 C8 1_555 1_555
H10 C8 1_555 1_555
C9 C5 1_555 1_555
H11 C9 1_555 1_555
H12 C9 1_555 1_555
H13 C9 1_555 1_555
C10 C5 1_555 1_555
H14 C10 1_555 1_555
H15 C10 1_555 1_555
H16 C10 1_555 1_555
C11 C5 1_555 1_555
H17 C11 1_555 1_555
H18 C11 1_555 1_555
H19 C11 1_555 1_555
C12 N1 1_555 1_555
C13 C12 1_555 1_555
C14 C13 1_555 1_555
H20 C14 1_555 1_555
C15 C14 1_555 1_555
H21 C15 1_555 1_555
C16 C15 1_555 1_555
H22 C16 1_555 1_555
C17 C12 1_555 1_555
C18 C13 1_555 1_555
H23 C18 1_555 1_555
C19 C18 1_555 1_555
H24 C19 1_555 1_555
H25 C19 1_555 1_555
H26 C19 1_555 1_555
C20 C18 1_555 1_555
H27 C20 1_555 1_555
H28 C20 1_555 1_555
H29 C20 1_555 1_555
C21 C17 1_555 1_555
H30 C21 1_555 1_555
C22 C21 1_555 1_555
H31 C22 1_555 1_555
H32 C22 1_555 1_555
H33 C22 1_555 1_555
C23 C21 1_555 1_555
H34 C23 1_555 1_555
H35 C23 1_555 1_555
H36 C23 1_555 1_555
C24 N2 1_555 1_555
C25 C24 1_555 1_555
C26 C25 1_555 1_555
H37 C26 1_555 1_555
C27 C26 1_555 1_555
H38 C27 1_555 1_555
C28 C27 1_555 1_555
H39 C28 1_555 1_555
C29 C24 1_555 1_555
C30 C25 1_555 1_555
H40 C30 1_555 1_555
C31 C30 1_555 1_555
H41 C31 1_555 1_555
H42 C31 1_555 1_555
H43 C31 1_555 1_555
C32 C30 1_555 1_555
H44 C32 1_555 1_555
H45 C32 1_555 1_555
H46 C32 1_555 1_555
C33 C29 1_555 1_555
H47 C33 1_555 1_555
C34 C33 1_555 1_555
H48 C34 1_555 1_555
H49 C34 1_555 1_555
H50 C34 1_555 1_555
C35 C33 1_555 1_555
H51 C35 1_555 1_555
H52 C35 1_555 1_555
H53 C35 1_555 1_555
C36 N3 1_555 1_555
H54 C36 1_555 1_555
C37 C36 1_555 1_555
H55 C37 1_555 1_555
C38 C37 1_555 1_555
C39 C38 1_555 1_555
H56 C39 1_555 1_555
C40 N3 1_555 1_555
H57 C40 1_555 1_555
C41 N4 1_555 1_555
H58 C41 1_555 1_555
H59 C41 1_555 1_555
H60 C41 1_555 1_555
C42 N4 1_555 1_555
H61 C42 1_555 1_555
H62 C42 1_555 1_555
H63 C42 1_555 1_555
H64 Mg1 1_555 1_555
C43 H65 1_555 1_555
C44 C43 1_555 1_555
H66 C44 1_555 1_555
C45 C44 1_555 1_555
H67 C45 1_555 1_555
C46 C45 1_555 1_555
H68 C46 1_555 1_555
C47 C46 1_555 1_555
H69 C47 1_555 1_555
C48 C43 1_555 1_555
H70 C48 1_555 1_555
C49 H71 1_555 1_555
C50 C49 1_555 1_555
H72 C50 1_555 1_555
C51 C50 1_555 1_555
H73 C51 1_555 1_555
C52 C51 1_555 1_555
H74 C52 1_555 1_555
C53 C52 1_555 1_555
H75 C53 1_555 1_555
C54 C49 1_555 1_555
H76 C54 1_555 1_555
C3 C4 1_555 1_555
C16 C17 1_555 1_555
C28 C29 1_555 1_555
C39 C40 1_555 1_555
C47 C48 1_555 1_555
C53 C54 1_555 1_555

#END
