
#######################################################################
#
#                 Cambridge Crystallographic Data Centre
#                                CCDC 
#
#######################################################################
#
# If this CIF has been generated from an entry in the Cambridge 
# Structural Database, then it will include bibliographic, chemical, 
# crystal, experimental, refinement or atomic coordinate data resulting 
# from the CCDC's data processing and validation procedures.
#
#######################################################################

data_GUQJEJ
_chemical_formula_moiety         'C38 H32 B1 F2 N5,C1 H4 O1'
_chemical_name_systematic        
"4-(1H-benzimidazol-2-yl)-N-(4-(5,5-difluoro-1,3,7,9-tetramethyl-5H-dipyrrolo[1,2-c:2',1'-f][1,3,2]diazaborinin-10-yl)phenyl)-N-phenylaniline methanol solvate"
_symmetry_cell_setting           triclinic
_symmetry_space_group_name_H-M   'P -1'
_symmetry_Int_Tables_number      2
_space_group_name_Hall           '-P 1'
loop_
_symmetry_equiv_pos_site_id
_symmetry_equiv_pos_as_xyz
1 x,y,z
2 -x,-y,-z
_cell_length_a                   9.3898(10)
_cell_length_b                   13.8341(13)
_cell_length_c                   14.7132(16)
_cell_angle_alpha                115.649(10)
_cell_angle_beta                 97.644(9)
_cell_angle_gamma                100.717(8)
_cell_volume                     1642.94
_cell_formula_units_Z            2
loop_
_atom_site_label
_atom_site_type_symbol
_atom_site_fract_x
_atom_site_fract_y
_atom_site_fract_z
F1 F 1.3377(3) 0.6978(2) 1.4006(2)
N1 N 0.5985(5) 0.0929(3) 0.4135(3)
H1 H 0.6162 0.1562 0.4680
F2 F 1.2346(3) 0.5757(2) 1.4536(2)
N2 N 1.1189(5) 0.5486(3) 1.2842(3)
N3 N 1.3645(4) 0.5113(3) 1.3165(3)
N4 N 0.6061(5) -0.0805(3) 0.3137(3)
C1 C 1.3252(6) 0.4234(4) 1.2155(4)
N5 N 0.9937(5) 0.0057(3) 0.7569(3)
C2 C 1.1880(6) 0.3986(4) 1.1511(4)
C3 C 0.8175(5) 0.0791(4) 0.6845(4)
H2 H 0.8157 0.1291 0.7513
C4 C 1.0855(6) 0.4617(4) 1.1810(4)
C5 C 1.0286(6) -0.0938(4) 0.7493(4)
C6 C 1.1139(6) 0.2052(4) 0.8599(4)
H3 H 1.1289 0.2088 0.8001
C7 C 0.9996(6) 0.5918(4) 1.2962(4)
C8 C 0.6473(6) 0.0027(4) 0.4090(4)
C9 C 1.0250(6) 0.1000(4) 0.9433(4)
H4 H 0.9788 0.0324 0.9396
C10 C 0.9052(6) 0.0055(4) 0.6707(4)
C11 C 1.1413(5) 0.2982(4) 1.0465(4)
C12 C 1.0445(6) 0.1039(4) 0.8550(4)
C13 C 0.9408(6) 0.4537(4) 1.1301(4)
C14 C 0.7341(6) 0.0786(4) 0.6010(4)
H5 H 0.6765 0.1287 0.6118
C15 C 1.1606(6) 0.3012(4) 0.9568(4)
H6 H 1.2060 0.3689 0.9604
C16 C 1.4491(6) 0.3763(4) 1.1977(4)
C17 C 0.5237(6) -0.0458(4) 0.2526(4)
C18 C 0.9211(6) -0.1957(4) 0.6932(4)
H7 H 0.8254 -0.1995 0.6627
C19 C 0.8563(6) 0.3769(4) 1.0204(4)
H8 H 0.9104 0.3907 0.9743
H9 H 0.7599 0.3896 1.0094
H10 H 0.8444 0.3011 1.0068
C20 C 0.9065(6) -0.0689(4) 0.5706(4)
H11 H 0.9652 -0.1182 0.5604
C21 C 1.1682(6) -0.0890(4) 0.7974(4)
H12 H 1.2389 -0.0203 0.8367
C22 C 0.5178(6) 0.0645(4) 0.3171(4)
C23 C 0.3779(6) -0.0460(5) 0.1087(4)
H13 H 0.3299 -0.0818 0.0385
C24 C 1.5058(6) 0.5213(4) 1.3609(4)
C25 C 0.4535(6) -0.1007(4) 0.1495(4)
H14 H 0.4563 -0.1731 0.1076
C26 C 1.5850(6) 0.6084(4) 1.4681(4)
H15 H 1.6184 0.6785 1.4684
H16 H 1.6695 0.5884 1.4920
H17 H 1.5183 0.6147 1.5132
C27 C 0.4436(6) 0.1193(4) 0.2753(4)
H18 H 0.4421 0.1923 0.3164
C28 C 1.4667(6) 0.2886(4) 1.0995(4)
H19 H 1.5655 0.2794 1.1099
H20 H 1.4516 0.3101 1.0459
H21 H 1.3945 0.2195 1.0794
C29 C 0.3731(7) 0.0631(4) 0.1724(4)
H22 H 0.3206 0.0980 0.1436
C30 C 1.2049(6) -0.1855(5) 0.7880(5)
H23 H 1.2995 -0.1815 0.8202
C31 C 1.0727(6) 0.1950(4) 1.0383(4)
H24 H 1.0589 0.1902 1.0979
C32 C 1.5571(6) 0.4377(4) 1.2895(5)
H25 H 1.6502 0.4255 1.3021
C33 C 0.7333(6) 0.0043(4) 0.4991(4)
C34 C 0.8907(6) 0.5359(4) 1.2030(5)
H26 H 0.7994 0.5509 1.1914
C35 C 0.9928(6) 0.6828(4) 1.3965(4)
H27 H 1.0228 0.6659 1.4517
H28 H 0.8925 0.6894 1.3931
H29 H 1.0588 0.7518 1.4095
C36 C 0.8210(6) -0.0700(4) 0.4862(4)
H30 H 0.8217 -0.1210 0.4195
C37 C 1.1000(7) -0.2860(5) 0.7309(5)
H31 H 1.1243 -0.3506 0.7241
C38 C 0.9591(7) -0.2933(4) 0.6831(4)
H32 H 0.8891 -0.3624 0.6443
B1 B 1.2638(7) 0.5845(5) 1.3668(5)
O1 O 0.6316(5) 0.6995(3) 0.2495(4)
H33 H 0.6322 0.7650 0.2699
C39 C 0.5090(7) 0.6314(4) 0.1654(5)
H34 H 0.4189 0.6458 0.1857
H35 H 0.5049 0.5546 0.1442
H36 H 0.5189 0.6470 0.1087
loop_
_geom_bond_atom_site_label_1
_geom_bond_atom_site_label_2
_geom_bond_site_symmetry_1
_geom_bond_site_symmetry_2
F1 B1 1_555 1_555
N1 H1 1_555 1_555
F2 B1 1_555 1_555
N2 C4 1_555 1_555
N3 C1 1_555 1_555
N4 C8 1_555 1_555
C1 C2 1_555 1_555
N5 C5 1_555 1_555
C2 C4 1_555 1_555
C3 H2 1_555 1_555
C4 C13 1_555 1_555
C5 C18 1_555 1_555
C6 H3 1_555 1_555
C7 N2 1_555 1_555
C8 N1 1_555 1_555
C9 H4 1_555 1_555
C10 N5 1_555 1_555
C11 C2 1_555 1_555
C12 N5 1_555 1_555
C13 C19 1_555 1_555
C14 C3 1_555 1_555
H5 C14 1_555 1_555
C15 C6 1_555 1_555
H6 C15 1_555 1_555
C16 C1 1_555 1_555
C17 N4 1_555 1_555
C18 H7 1_555 1_555
C19 H8 1_555 1_555
H9 C19 1_555 1_555
H10 C19 1_555 1_555
C20 C10 1_555 1_555
H11 C20 1_555 1_555
C21 C5 1_555 1_555
H12 C21 1_555 1_555
C22 N1 1_555 1_555
C23 H13 1_555 1_555
C24 N3 1_555 1_555
C25 C17 1_555 1_555
H14 C25 1_555 1_555
C26 C24 1_555 1_555
H15 C26 1_555 1_555
H16 C26 1_555 1_555
H17 C26 1_555 1_555
C27 C22 1_555 1_555
H18 C27 1_555 1_555
C28 C16 1_555 1_555
H19 C28 1_555 1_555
H20 C28 1_555 1_555
H21 C28 1_555 1_555
C29 C23 1_555 1_555
H22 C29 1_555 1_555
C30 C21 1_555 1_555
H23 C30 1_555 1_555
C31 C9 1_555 1_555
H24 C31 1_555 1_555
C32 C16 1_555 1_555
H25 C32 1_555 1_555
C33 C8 1_555 1_555
C34 C7 1_555 1_555
H26 C34 1_555 1_555
C35 C7 1_555 1_555
H27 C35 1_555 1_555
H28 C35 1_555 1_555
H29 C35 1_555 1_555
C36 C20 1_555 1_555
H30 C36 1_555 1_555
C37 C30 1_555 1_555
H31 C37 1_555 1_555
C38 C18 1_555 1_555
H32 C38 1_555 1_555
B1 N2 1_555 1_555
O1 H33 1_555 1_555
C39 O1 1_555 1_555
H34 C39 1_555 1_555
H35 C39 1_555 1_555
H36 C39 1_555 1_555
N3 B1 1_555 1_555
C3 C10 1_555 1_555
C6 C12 1_555 1_555
C9 C12 1_555 1_555
C11 C15 1_555 1_555
C11 C31 1_555 1_555
C13 C34 1_555 1_555
C14 C33 1_555 1_555
C17 C22 1_555 1_555
C23 C25 1_555 1_555
C24 C32 1_555 1_555
C27 C29 1_555 1_555
C33 C36 1_555 1_555
C37 C38 1_555 1_555

#END
