
#######################################################################
#
#                 Cambridge Crystallographic Data Centre
#                                CCDC 
#
#######################################################################
#
# If this CIF has been generated from an entry in the Cambridge 
# Structural Database, then it will include bibliographic, chemical, 
# crystal, experimental, refinement or atomic coordinate data resulting 
# from the CCDC's data processing and validation procedures.
#
#######################################################################

data_GUQJOT
_chemical_formula_moiety         'C39 H33 B1 F2 N4 O2'
_chemical_name_systematic        
"2-((4-((4-(5,5-difluoro-1,3,7,9-tetramethyl-5H-dipyrrolo[1,2-c:2',1'-f][1,3,2]diazaborinin-10-yl)phenyl)(phenyl)amino)benzylidene)amino)benzoic acid"
_symmetry_cell_setting           monoclinic
_symmetry_space_group_name_H-M   'P 21/c'
_symmetry_Int_Tables_number      14
_space_group_name_Hall           '-P 2ybc'
loop_
_symmetry_equiv_pos_site_id
_symmetry_equiv_pos_as_xyz
1 x,y,z
2 -x,1/2+y,1/2-z
3 -x,-y,-z
4 x,1/2-y,1/2+z
_cell_length_a                   12.2716(5)
_cell_length_b                   15.4317(6)
_cell_length_c                   34.6653(16)
_cell_angle_alpha                90
_cell_angle_beta                 91.902(4)
_cell_angle_gamma                90
_cell_volume                     6561.01
_exptl_crystal_colour            red
_exptl_crystal_description       block
_cell_formula_units_Z            8
loop_
_atom_site_label
_atom_site_type_symbol
_atom_site_fract_x
_atom_site_fract_y
_atom_site_fract_z
F1 F 0.5447(3) 0.1225(2) 0.11278(11)
N1 N 0.4200(3) 0.2371(3) 0.12519(14)
N2 N 0.4602(3) 0.7409(3) 0.10269(13)
N3 N 0.5277(4) 0.2364(3) 0.06653(15)
F2 F 0.3882(3) 0.1311(2) 0.07581(12)
C1 C 0.4691(4) 0.6488(3) 0.10104(15)
C2 C 0.4846(4) 0.3707(3) 0.09840(16)
C3 C 0.5332(4) 0.3280(4) 0.06819(16)
C4 C 0.3794(4) 0.5993(3) 0.08938(15)
H1 H 0.3145 0.6266 0.0819
C5 C 0.4825(4) 0.4675(3) 0.09866(14)
C6 C 0.4317(4) 0.3273(4) 0.12721(16)
N4 N 0.1184(4) 0.8817(3) 0.22490(14)
C7 C 0.5440(4) 0.7934(3) 0.08717(16)
C8 C 0.5728(4) 0.5171(3) 0.10932(15)
H2 H 0.6387 0.4901 0.1158
C9 C 0.5927(4) 0.3568(4) 0.03635(17)
C10 C 0.3856(4) 0.5099(3) 0.08880(15)
H3 H 0.3241 0.4777 0.0817
C11 C 0.3757(4) 0.7782(3) 0.12329(17)
C12 C 0.5655(4) 0.6071(3) 0.11040(16)
H4 H 0.6268 0.6396 0.1176
C13 C 0.2187(4) 0.8593(4) 0.16745(17)
C14 C 0.3825(4) 0.3563(4) 0.16136(17)
C15 C 0.2513(4) 0.8960(3) 0.13325(17)
H5 H 0.2203 0.9479 0.1248
C16 C 0.5803(4) 0.8663(3) 0.10728(16)
H6 H 0.5514 0.8800 0.1310
C17 C 0.0462(5) 0.9311(4) 0.24765(18)
C18 C 0.3390(4) 0.7393(3) 0.15656(16)
H7 H 0.3672 0.6858 0.1642
C19 C 0.5873(4) 0.7734(4) 0.05258(16)
H8 H 0.5636 0.7245 0.0391
C20 C 0.3287(4) 0.8567(4) 0.11163(16)
H9 H 0.3503 0.8827 0.0889
C21 C 0.2616(4) 0.7784(4) 0.17836(16)
H10 H 0.2376 0.7512 0.2004
C22 C -0.0161(5) 0.8845(4) 0.27355(19)
C23 C 0.7022(5) 0.8993(4) 0.05730(19)
H11 H 0.7548 0.9350 0.0469
C24 C 0.1433(4) 0.9060(4) 0.19128(18)
H12 H 0.1117 0.9565 0.1814
O1 O 0.0805(4) 0.7507(3) 0.26591(16)
H13 H 0.1044 0.7804 0.2485
C25 C 0.0379(6) 1.0213(4) 0.24547(19)
H14 H 0.0813 1.0534 0.2293
C26 C -0.0381(6) 1.0611(5) 0.2686(2)
H15 H -0.0448 1.1211 0.2674
C27 C 0.6593(4) 0.9184(4) 0.09195(18)
H16 H 0.6836 0.9672 0.1055
C28 C 0.5807(5) 0.2104(5) 0.0349(2)
C29 C 0.3622(5) 0.2124(4) 0.15577(19)
B1 B 0.4693(6) 0.1771(5) 0.0952(2)
C30 C 0.3394(5) 0.2852(4) 0.17813(18)
H17 H 0.3010 0.2849 0.2008
C31 C -0.0916(5) 0.9282(5) 0.29559(19)
H18 H -0.1349 0.8978 0.3124
C32 C 0.3816(5) 0.4454(4) 0.17835(17)
H19 H 0.4548 0.4673 0.1804
H20 H 0.3515 0.4432 0.2035
H21 H 0.3380 0.4830 0.1620
C33 C 0.6220(5) 0.2830(5) 0.01650(19)
H22 H 0.6629 0.2820 -0.0056
C34 C 0.6664(5) 0.8262(4) 0.03773(18)
H23 H 0.6961 0.8123 0.0142
C35 C -0.1014(6) 1.0176(5) 0.2921(2)
H24 H -0.1525 1.0471 0.3063
C36 C -0.0057(6) 0.7908(5) 0.2810(2)
C37 C 0.3271(5) 0.1198(4) 0.1619(2)
H25 H 0.2791 0.1021 0.1409
H26 H 0.2897 0.1155 0.1857
H27 H 0.3901 0.0829 0.1630
O2 O -0.0667(5) 0.7492(4) 0.30059(19)
C38 C 0.6266(5) 0.4449(4) 0.02470(17)
H28 H 0.5644 0.4826 0.0239
H29 H 0.6573 0.4425 -0.0004
H30 H 0.6802 0.4667 0.0430
C39 C 0.5882(6) 0.1152(4) 0.0238(2)
H31 H 0.6317 0.0849 0.0430
H32 H 0.6213 0.1101 -0.0008
H33 H 0.5164 0.0905 0.0223
C40 C 1.0640(4) 0.6841(3) 0.10694(15)
H34 H 1.1289 0.7127 0.1134
N5 N 0.9193(3) 0.9621(3) 0.12971(13)
F3 F 1.0528(3) 1.0728(2) 0.12110(11)
N6 N 1.0323(3) 0.9648(3) 0.07181(13)
C41 C 1.0247(4) 0.8744(3) 0.06956(15)
N7 N 0.9628(3) 0.4593(3) 0.09660(13)
F4 F 0.9000(3) 1.0752(2) 0.08215(11)
C42 C 0.8833(4) 0.4165(3) 0.11778(16)
C43 C 0.9739(4) 0.8286(3) 0.09910(15)
C44 C 0.9256(4) 0.8709(3) 0.12985(16)
C45 C 0.8766(4) 0.6877(3) 0.08844(15)
H35 H 0.8136 0.7188 0.0822
C46 C 0.9714(4) 0.7320(3) 0.09818(15)
C47 C 0.8734(4) 0.5994(3) 0.08783(15)
H36 H 0.8087 0.5709 0.0812
N8 N 0.6319(4) 0.3040(3) 0.21860(15)
C48 C 0.9669(4) 0.5522(3) 0.09717(15)
C49 C 1.0624(4) 0.5957(3) 0.10634(15)
H37 H 1.1259 0.5647 0.1121
C50 C 0.7327(4) 0.3278(4) 0.16108(17)
C51 C 0.8402(4) 0.3377(3) 0.10461(16)
H38 H 0.8626 0.3144 0.0814
C52 C 1.0917(5) 0.9924(4) 0.04225(19)
C53 C 0.8477(4) 0.4514(4) 0.15181(16)
H39 H 0.8741 0.5050 0.1601
C54 C 1.0471(4) 0.4136(4) 0.07842(17)
C55 C 0.7741(4) 0.4080(4) 0.17339(16)
H40 H 0.7513 0.4319 0.1964
C56 C 1.0911(5) 0.3395(4) 0.09612(18)
H41 H 1.0643 0.3197 0.1193
C57 C 0.8744(4) 0.8410(4) 0.16338(16)
C58 C 0.5560(5) 0.2575(4) 0.24104(19)
B2 B 0.9764(6) 1.0224(4) 0.1004(2)
C59 C 0.7646(4) 0.2946(4) 0.12589(17)
H42 H 0.7346 0.2429 0.1167
C60 C 1.0845(5) 0.4413(4) 0.04333(18)
H43 H 1.0534 0.4895 0.0312
C61 C 0.6560(4) 0.2790(4) 0.18479(18)
H44 H 0.6243 0.2287 0.1748
O3 O 0.6024(4) 0.4341(3) 0.26134(16)
H45 H 0.6211 0.4075 0.2422
C62 C 1.0763(4) 0.8462(4) 0.03590(17)
C63 C 0.4968(5) 0.3043(4) 0.26771(18)
C64 C 0.8364(5) 0.9127(4) 0.18173(17)
H46 H 0.7983 0.9126 0.2045
C65 C 0.4202(5) 0.2634(5) 0.28904(19)
H47 H 0.3790 0.2944 0.3064
C66 C 0.5435(5) 0.1689(4) 0.23746(19)
H48 H 0.5859 0.1374 0.2207
C67 C 1.1177(5) 0.9213(4) 0.01986(18)
H49 H 1.1571 0.9236 -0.0026
C68 C 0.8641(5) 0.9859(4) 0.16085(19)
O4 O 0.4543(5) 0.4385(3) 0.29594(17)
C69 C 1.1687(6) 0.3966(5) 0.0263(2)
H50 H 1.1956 0.4152 0.0029
C70 C 1.1745(5) 0.2964(5) 0.0788(2)
H51 H 1.2056 0.2478 0.0906
C71 C 0.8670(5) 0.7489(4) 0.17792(16)
H52 H 0.8160 0.7170 0.1618
H53 H 0.8429 0.7491 0.2040
H54 H 0.9375 0.7220 0.1772
C72 C 1.2116(6) 0.3247(6) 0.0443(3)
H55 H 1.2675 0.2944 0.0328
C73 C 0.8361(6) 1.0788(4) 0.16915(19)
H56 H 0.9013 1.1132 0.1693
H57 H 0.8034 1.0825 0.1939
H58 H 0.7858 1.0998 0.1495
C74 C 1.1217(5) 1.0843(4) 0.03612(19)
H59 H 1.1896 1.0965 0.0496
H60 H 1.0657 1.1211 0.0458
H61 H 1.1291 1.0947 0.0090
C75 C 0.4048(6) 0.1732(5) 0.2842(2)
H62 H 0.3520 0.1452 0.2983
C76 C 0.4645(6) 0.1271(5) 0.2600(2)
H63 H 0.4541 0.0676 0.2578
C77 C 1.0825(5) 0.7567(4) 0.01851(17)
H64 H 1.1321 0.7217 0.0338
H65 H 1.1081 0.7609 -0.0073
H66 H 1.0115 0.7306 0.0180
C78 C 0.5155(6) 0.3963(5) 0.2757(2)
loop_
_geom_bond_atom_site_label_1
_geom_bond_atom_site_label_2
_geom_bond_site_symmetry_1
_geom_bond_site_symmetry_2
F1 B1 1_555 1_555
N1 C6 1_555 1_555
N2 C1 1_555 1_555
N3 C3 1_555 1_555
F2 B1 1_555 1_555
C1 C4 1_555 1_555
C2 C3 1_555 1_555
C3 C9 1_555 1_555
C4 H1 1_555 1_555
C5 C2 1_555 1_555
C6 C2 1_555 1_555
N4 C17 1_555 1_555
C7 N2 1_555 1_555
C8 C5 1_555 1_555
H2 C8 1_555 1_555
C9 C33 1_555 1_555
C10 C4 1_555 1_555
H3 C10 1_555 1_555
C11 N2 1_555 1_555
C12 C1 1_555 1_555
H4 C12 1_555 1_555
C13 C15 1_555 1_555
C14 C6 1_555 1_555
C15 H5 1_555 1_555
C16 C7 1_555 1_555
H6 C16 1_555 1_555
C17 C22 1_555 1_555
C18 C11 1_555 1_555
H7 C18 1_555 1_555
C19 C7 1_555 1_555
H8 C19 1_555 1_555
C20 C11 1_555 1_555
H9 C20 1_555 1_555
C21 C13 1_555 1_555
H10 C21 1_555 1_555
C22 C31 1_555 1_555
C23 H11 1_555 1_555
C24 N4 1_555 1_555
H12 C24 1_555 1_555
O1 H13 1_555 1_555
C25 C17 1_555 1_555
H14 C25 1_555 1_555
C26 C25 1_555 1_555
H15 C26 1_555 1_555
C27 C16 1_555 1_555
H16 C27 1_555 1_555
C28 N3 1_555 1_555
C29 N1 1_555 1_555
B1 N1 1_555 1_555
C30 C14 1_555 1_555
H17 C30 1_555 1_555
C31 H18 1_555 1_555
C32 C14 1_555 1_555
H19 C32 1_555 1_555
H20 C32 1_555 1_555
H21 C32 1_555 1_555
C33 C28 1_555 1_555
H22 C33 1_555 1_555
C34 C19 1_555 1_555
H23 C34 1_555 1_555
C35 C26 1_555 1_555
H24 C35 1_555 1_555
C36 C22 1_555 1_555
C37 C29 1_555 1_555
H25 C37 1_555 1_555
H26 C37 1_555 1_555
H27 C37 1_555 1_555
O2 C36 1_555 1_555
C38 C9 1_555 1_555
H28 C38 1_555 1_555
H29 C38 1_555 1_555
H30 C38 1_555 1_555
C39 C28 1_555 1_555
H31 C39 1_555 1_555
H32 C39 1_555 1_555
H33 C39 1_555 1_555
C40 H34 1_555 1_555
N5 C44 1_555 1_555
F3 B2 1_555 1_555
N6 C41 1_555 1_555
C41 C43 1_555 1_555
N7 C42 1_555 1_555
F4 B2 1_555 1_555
C42 C51 1_555 1_555
C43 C44 1_555 1_555
C44 C57 1_555 1_555
C45 H35 1_555 1_555
C46 C40 1_555 1_555
C47 C45 1_555 1_555
H36 C47 1_555 1_555
N8 C58 1_555 1_555
C48 N7 1_555 1_555
C49 C40 1_555 1_555
H37 C49 1_555 1_555
C50 C55 1_555 1_555
C51 H38 1_555 1_555
C52 N6 1_555 1_555
C53 C42 1_555 1_555
H39 C53 1_555 1_555
C54 N7 1_555 1_555
C55 C53 1_555 1_555
H40 C55 1_555 1_555
C56 C54 1_555 1_555
H41 C56 1_555 1_555
C57 C64 1_555 1_555
C58 C63 1_555 1_555
B2 N5 1_555 1_555
C59 C50 1_555 1_555
H42 C59 1_555 1_555
C60 C54 1_555 1_555
H43 C60 1_555 1_555
C61 N8 1_555 1_555
H44 C61 1_555 1_555
O3 H45 1_555 1_555
C62 C41 1_555 1_555
C63 C65 1_555 1_555
C64 H46 1_555 1_555
C65 H47 1_555 1_555
C66 C58 1_555 1_555
H48 C66 1_555 1_555
C67 C52 1_555 1_555
H49 C67 1_555 1_555
C68 N5 1_555 1_555
O4 C78 1_555 1_555
C69 C60 1_555 1_555
H50 C69 1_555 1_555
C70 C56 1_555 1_555
H51 C70 1_555 1_555
C71 C57 1_555 1_555
H52 C71 1_555 1_555
H53 C71 1_555 1_555
H54 C71 1_555 1_555
C72 C69 1_555 1_555
H55 C72 1_555 1_555
C73 C68 1_555 1_555
H56 C73 1_555 1_555
H57 C73 1_555 1_555
H58 C73 1_555 1_555
C74 C52 1_555 1_555
H59 C74 1_555 1_555
H60 C74 1_555 1_555
H61 C74 1_555 1_555
C75 C65 1_555 1_555
H62 C75 1_555 1_555
C76 C66 1_555 1_555
H63 C76 1_555 1_555
C77 C62 1_555 1_555
H64 C77 1_555 1_555
H65 C77 1_555 1_555
H66 C77 1_555 1_555
C78 O3 1_555 1_555
N3 B1 1_555 1_555
C5 C10 1_555 1_555
C8 C12 1_555 1_555
C13 C24 1_555 1_555
C15 C20 1_555 1_555
C18 C21 1_555 1_555
C23 C27 1_555 1_555
C23 C34 1_555 1_555
O1 C36 1_555 1_555
C29 C30 1_555 1_555
C31 C35 1_555 1_555
N6 B2 1_555 1_555
C43 C46 1_555 1_555
C45 C46 1_555 1_555
C47 C48 1_555 1_555
C48 C49 1_555 1_555
C50 C61 1_555 1_555
C51 C59 1_555 1_555
C62 C67 1_555 1_555
C63 C78 1_555 1_555
C64 C68 1_555 1_555
C70 C72 1_555 1_555
C75 C76 1_555 1_555

#END
