
#######################################################################
#
#                 Cambridge Crystallographic Data Centre
#                                CCDC 
#
#######################################################################
#
# If this CIF has been generated from an entry in the Cambridge 
# Structural Database, then it will include bibliographic, chemical, 
# crystal, experimental, refinement or atomic coordinate data resulting 
# from the CCDC's data processing and validation procedures.
#
#######################################################################

data_GUQKAF
_chemical_formula_moiety         'C29 H36 Br1 N1 O6'
_chemical_name_systematic        
'(2s,3S,5S)-4,4-Di-t-butyl 2-methyl 3-(4-bromophenyl)-2-methyl-5-phenylpyrrolidine-2,4,4-tricarboxylate'
_symmetry_cell_setting           orthorhombic
_symmetry_space_group_name_H-M   'P 21 21 21'
_symmetry_Int_Tables_number      19
_space_group_name_Hall           'P 2ac 2ab'
loop_
_symmetry_equiv_pos_site_id
_symmetry_equiv_pos_as_xyz
1 x,y,z
2 1/2-x,-y,1/2+z
3 -x,1/2+y,1/2-z
4 1/2+x,1/2-y,-z
_cell_length_a                   11.202(2)
_cell_length_b                   11.863(2)
_cell_length_c                   22.167(5)
_cell_angle_alpha                90
_cell_angle_beta                 90
_cell_angle_gamma                90
_cell_volume                     2945.76
_exptl_crystal_description       block
_cell_formula_units_Z            4
loop_
_atom_site_label
_atom_site_type_symbol
_atom_site_fract_x
_atom_site_fract_y
_atom_site_fract_z
Br1 Br 0.77495(6) 1.00987(6) 1.00554(3)
C1 C 0.6523(4) 0.9369(4) 0.96050(17)
C2 C 0.5906(4) 0.8501(4) 0.98654(18)
H1 H 0.6070 0.8281 1.0259
C3 C 0.5033(4) 0.7957(4) 0.95330(16)
H2 H 0.4596 0.7378 0.9710
C4 C 0.4799(3) 0.8260(3) 0.89430(14)
C5 C 0.5445(3) 0.9133(3) 0.86922(16)
H3 H 0.5300 0.9345 0.8295
C6 C 0.6307(3) 0.9701(3) 0.90239(17)
H4 H 0.6730 1.0296 0.8854
C7 C 0.3882(3) 0.7585(3) 0.85864(15)
H5 H 0.3476 0.7063 0.8861
C8 C 0.4462(3) 0.6897(3) 0.80646(16)
C9 C 0.3391(3) 0.8448(3) 0.75930(15)
H6 H 0.3781 0.9186 0.7568
C10 C 0.2924(3) 0.8324(3) 0.82615(14)
C11 C 0.2448(3) 0.8425(3) 0.70974(15)
C12 C 0.2204(4) 0.7480(4) 0.67516(18)
H7 H 0.2614 0.6812 0.6826
C13 C 0.1361(5) 0.7516(4) 0.6297(2)
H8 H 0.1218 0.6876 0.6065
C14 C 0.0738(5) 0.8479(4) 0.6185(2)
H9 H 0.0176 0.8498 0.5876
C15 C 0.0941(4) 0.9414(4) 0.6526(2)
H10 H 0.0499 1.0065 0.6459
C16 C 0.1810(4) 0.9397(3) 0.69750(18)
H11 H 0.1963 1.0048 0.7196
C17 C 0.1699(3) 0.7737(3) 0.82781(15)
C18 C -0.0444(3) 0.8185(3) 0.81729(17)
C19 C -0.0669(4) 0.7358(4) 0.7662(2)
H12 H -0.0338 0.7652 0.7295
H13 H -0.1513 0.7251 0.7613
H14 H -0.0299 0.6650 0.7756
C20 C -0.1022(4) 0.9313(4) 0.8043(2)
H15 H -0.0883 0.9815 0.8376
H16 H -0.1865 0.9211 0.7989
H17 H -0.0684 0.9628 0.7683
C21 C -0.0826(4) 0.7739(4) 0.87815(19)
H18 H -0.0456 0.7021 0.8852
H19 H -0.1678 0.7655 0.8789
H20 H -0.0586 0.8259 0.9091
C22 C 0.2760(3) 0.9479(3) 0.85545(15)
C23 C 0.2271(4) 1.0323(3) 0.95401(18)
C24 C 0.1210(6) 1.0987(5) 0.9320(3)
H21 H 0.1375 1.1281 0.8925
H22 H 0.1056 1.1599 0.9592
H23 H 0.0523 1.0504 0.9302
C25 C 0.2016(6) 0.9765(5) 1.0138(2)
H24 H 0.1371 0.9239 1.0091
H25 H 0.1797 1.0328 1.0429
H26 H 0.2716 0.9374 1.0274
C26 C 0.3385(5) 1.1016(4) 0.9573(2)
H27 H 0.4035 1.0553 0.9708
H28 H 0.3269 1.1626 0.9852
H29 H 0.3565 1.1313 0.9181
C27 C 0.5795(4) 0.6617(4) 0.8154(2)
H30 H 0.6073 0.6175 0.7819
H31 H 0.5895 0.6197 0.8520
H32 H 0.6246 0.7303 0.8177
C28 C 0.3850(3) 0.5756(3) 0.79722(18)
C29 C 0.3298(7) 0.4047(4) 0.8413(3)
H33 H 0.2449 0.4110 0.8366
H34 H 0.3473 0.3616 0.8769
H35 H 0.3632 0.3677 0.8067
N1 N 0.4332(3) 0.7607(3) 0.75380(14)
H36 H 0.4771 0.7539 0.7222
O1 O 0.1574(2) 0.6735(2) 0.83436(14)
O2 O 0.0842(2) 0.84838(19) 0.81944(12)
O3 O 0.2885(3) 1.0363(2) 0.83056(12)
O4 O 0.2456(2) 0.93429(19) 0.91306(10)
O5 O 0.3811(3) 0.5158(2) 0.84705(13)
O6 O 0.3548(3) 0.5407(3) 0.74886(13)
loop_
_geom_bond_atom_site_label_1
_geom_bond_atom_site_label_2
_geom_bond_site_symmetry_1
_geom_bond_site_symmetry_2
Br1 C1 1_555 1_555
C1 C2 1_555 1_555
C2 H1 1_555 1_555
C3 C2 1_555 1_555
H2 C3 1_555 1_555
C4 C3 1_555 1_555
C5 C4 1_555 1_555
H3 C5 1_555 1_555
C6 C1 1_555 1_555
H4 C6 1_555 1_555
C7 C4 1_555 1_555
H5 C7 1_555 1_555
C8 C7 1_555 1_555
C9 H6 1_555 1_555
C10 C7 1_555 1_555
C11 C9 1_555 1_555
C12 C11 1_555 1_555
H7 C12 1_555 1_555
C13 C12 1_555 1_555
H8 C13 1_555 1_555
C14 C13 1_555 1_555
H9 C14 1_555 1_555
C15 C14 1_555 1_555
H10 C15 1_555 1_555
C16 C11 1_555 1_555
H11 C16 1_555 1_555
C17 C10 1_555 1_555
C18 C19 1_555 1_555
C19 H12 1_555 1_555
H13 C19 1_555 1_555
H14 C19 1_555 1_555
C20 C18 1_555 1_555
H15 C20 1_555 1_555
H16 C20 1_555 1_555
H17 C20 1_555 1_555
C21 C18 1_555 1_555
H18 C21 1_555 1_555
H19 C21 1_555 1_555
H20 C21 1_555 1_555
C22 C10 1_555 1_555
C23 C24 1_555 1_555
C24 H21 1_555 1_555
H22 C24 1_555 1_555
H23 C24 1_555 1_555
C25 C23 1_555 1_555
H24 C25 1_555 1_555
H25 C25 1_555 1_555
H26 C25 1_555 1_555
C26 C23 1_555 1_555
H27 C26 1_555 1_555
H28 C26 1_555 1_555
H29 C26 1_555 1_555
C27 C8 1_555 1_555
H30 C27 1_555 1_555
H31 C27 1_555 1_555
H32 C27 1_555 1_555
C28 C8 1_555 1_555
C29 H33 1_555 1_555
H34 C29 1_555 1_555
H35 C29 1_555 1_555
N1 C8 1_555 1_555
H36 N1 1_555 1_555
O1 C17 1_555 1_555
O2 C17 1_555 1_555
O3 C22 1_555 1_555
O4 C22 1_555 1_555
O5 C28 1_555 1_555
O6 C28 1_555 1_555
C5 C6 1_555 1_555
C9 C10 1_555 1_555
C9 N1 1_555 1_555
C15 C16 1_555 1_555
C18 O2 1_555 1_555
C23 O4 1_555 1_555
C29 O5 1_555 1_555

#END
