
#######################################################################
#
#                 Cambridge Crystallographic Data Centre
#                                CCDC 
#
#######################################################################
#
# If this CIF has been generated from an entry in the Cambridge 
# Structural Database, then it will include bibliographic, chemical, 
# crystal, experimental, refinement or atomic coordinate data resulting 
# from the CCDC's data processing and validation procedures.
#
#######################################################################

data_GUQMOV
_chemical_formula_moiety         'C28 H34 N4 O2 2+,2(C7 H7 O3 S1 1-),H2 O1'
_chemical_name_systematic        
'N-(9-(2-((2-Ammonioethyl)carbamoyl)phenyl)-6-(ethylamino)-2,7-dimethyl-3H-xanthen-3-ylidene)ethanaminium bis(4-methylbenzenesulfonate) monohydrate'
_symmetry_cell_setting           triclinic
_symmetry_space_group_name_H-M   'P -1'
_symmetry_Int_Tables_number      2
_space_group_name_Hall           '-P 1'
loop_
_symmetry_equiv_pos_site_id
_symmetry_equiv_pos_as_xyz
1 x,y,z
2 -x,-y,-z
_cell_length_a                   12.036(5)
_cell_length_b                   13.718(5)
_cell_length_c                   14.809(6)
_cell_angle_alpha                103.902(7)
_cell_angle_beta                 99.066(7)
_cell_angle_gamma                114.803(6)
_cell_volume                     2059.86
_exptl_crystal_colour            red
_exptl_crystal_description       block
_cell_formula_units_Z            2
loop_
_atom_site_label
_atom_site_type_symbol
_atom_site_fract_x
_atom_site_fract_y
_atom_site_fract_z
N1 N 0.6604(5) 0.7230(4) 0.4691(3)
H1 H 0.6355 0.6542 0.4286
N2 N 0.4811(5) 1.2976(4) 0.7802(3)
N3 N 0.0850(4) 0.6808(4) 0.2721(3)
N4 N -0.1099(4) 0.6065(3) 0.0825(3)
H2 H -0.1013 0.5472 0.0872
H3 H -0.1822 0.5964 0.0468
O1 O 0.5508(3) 1.0002(3) 0.6153(2)
O2 O 0.1409(4) 0.8581(3) 0.3720(2)
C1 C 0.5093(5) 0.8893(4) 0.5600(3)
C2 C 0.6041(5) 0.8643(4) 0.5428(3)
H4 H 0.6914 0.9213 0.5680
C3 C 0.5686(5) 0.7510(4) 0.4862(3)
C4 C 0.4358(5) 0.6656(4) 0.4477(3)
C5 C 0.3470(5) 0.6970(4) 0.4690(3)
H5 H 0.2594 0.6407 0.4441
C6 C 0.3781(5) 0.8088(4) 0.5262(3)
C7 C 0.2877(5) 0.8422(4) 0.5525(3)
C8 C 0.3318(5) 0.9571(4) 0.6079(3)
C9 C 0.2508(5) 1.0032(4) 0.6350(3)
H6 H 0.1609 0.9544 0.6145
C10 C 0.2978(5) 1.1140(4) 0.6890(3)
C11 C 0.4331(5) 1.1877(4) 0.7229(3)
C12 C 0.4632(5) 1.0332(4) 0.6396(3)
C13 C 0.5153(5) 1.1457(4) 0.6966(3)
H7 H 0.6053 1.1940 0.7177
C14 C 0.7971(6) 0.7984(5) 0.5128(4)
H8 H 0.8182 0.8743 0.5072
H9 H 0.8438 0.7673 0.4760
C15 C 0.8428(6) 0.8131(5) 0.6194(4)
H10 H 0.7984 0.8456 0.6566
H11 H 0.9353 0.8646 0.6449
H12 H 0.8240 0.7386 0.6254
C16 C 0.6155(6) 1.3698(5) 0.8321(4)
H13 H 0.6336 1.4504 0.8542
H14 H 0.6665 1.3620 0.7872
C17 C 0.6570(6) 1.3408(6) 0.9191(4)
H15 H 0.6119 1.3542 0.9664
H16 H 0.7495 1.3892 0.9494
H17 H 0.6366 1.2603 0.8982
C18 C 0.3988(5) 0.5460(4) 0.3888(4)
H18 H 0.4253 0.5097 0.4309
H19 H 0.4409 0.5470 0.3373
H20 H 0.3057 0.5029 0.3595
C19 C 0.2096(6) 1.1614(5) 0.7168(4)
H21 H 0.1203 1.1023 0.6850
H22 H 0.2259 1.2274 0.6957
H23 H 0.2258 1.1852 0.7875
C20 C 0.1540(5) 0.7566(4) 0.5291(3)
C21 C 0.0688(5) 0.7061(4) 0.4353(3)
C22 C -0.0527(5) 0.6183(4) 0.4152(3)
H24 H -0.1100 0.5852 0.3513
C23 C -0.0918(5) 0.5779(4) 0.4885(4)
H25 H -0.1749 0.5158 0.4740
C24 C -0.0116(6) 0.6271(5) 0.5810(4)
H26 H -0.0397 0.6015 0.6315
C25 C 0.1087(6) 0.7128(5) 0.6005(3)
H27 H 0.1647 0.7445 0.6648
C26 C 0.1037(5) 0.7559(4) 0.3579(3)
C27 C 0.1098(5) 0.7198(4) 0.1905(3)
H28 H 0.1319 0.6685 0.1466
H29 H 0.1841 0.7976 0.2152
C28 C -0.0042(5) 0.7219(5) 0.1340(3)
H30 H -0.0325 0.7660 0.1792
H31 H 0.0206 0.7607 0.0866
S1 S 0.62663(14) 0.47865(11) 0.21063(9)
O3 O 0.5550(4) 0.5044(3) 0.1402(3)
O4 O 0.6569(4) 0.5519(3) 0.3092(2)
O5 O 0.7396(3) 0.4781(3) 0.1878(2)
C29 C 0.5222(5) 0.3372(4) 0.2023(3)
C30 C 0.3921(6) 0.2979(5) 0.1782(4)
H32 H 0.3571 0.3459 0.1670
C31 C 0.3133(7) 0.1859(6) 0.1708(5)
H33 H 0.2232 0.1575 0.1533
C32 C 0.3607(7) 0.1154(5) 0.1879(4)
C33 C 0.4889(8) 0.1574(6) 0.2152(4)
H34 H 0.5238 0.1104 0.2295
C34 C 0.5713(7) 0.2698(5) 0.2229(4)
H35 H 0.6614 0.2986 0.2424
C35 C 0.2720(8) -0.0073(6) 0.1755(5)
H36 H 0.3160 -0.0529 0.1629
H37 H 0.1954 -0.0382 0.1207
H38 H 0.2470 -0.0104 0.2351
S2 S 1.04893(14) 0.39427(12) 0.13900(9)
O6 O 0.9952(4) 0.4346(3) 0.0702(2)
O7 O 1.0793(4) 0.4641(3) 0.2389(2)
O8 O 1.1525(4) 0.3765(3) 0.1167(3)
C36 C 0.9256(6) 0.2567(5) 0.1225(3)
C37 C 0.8039(7) 0.2332(6) 0.0994(5)
H39 H 0.7816 0.2904 0.0925
C38 C 0.7086(8) 0.1227(7) 0.0852(6)
H40 H 0.6221 0.1078 0.0700
C39 C 0.7324(7) 0.0349(6) 0.0920(4)
C40 C 0.8574(11) 0.0666(8) 0.1206(7)
H41 H 0.8804 0.0113 0.1318
C41 C 0.9554(8) 0.1735(7) 0.1350(6)
H42 H 1.0421 0.1893 0.1532
C42 C 0.6315(7) -0.0819(6) 0.0756(5)
H43 H 0.5818 -0.1187 0.0067
H44 H 0.5747 -0.0778 0.1154
H45 H 0.6712 -0.1265 0.0939
O9 O 0.6695(4) 0.6323(4) 0.0332(3)
loop_
_geom_bond_atom_site_label_1
_geom_bond_atom_site_label_2
_geom_bond_site_symmetry_1
_geom_bond_site_symmetry_2
N1 H1 1_555 1_555
N2 C11 1_555 1_555
N3 C26 1_555 1_555
N4 H2 1_555 1_555
H3 N4 1_555 1_555
O1 C1 1_555 1_555
O2 C26 1_555 1_555
C1 C2 1_555 1_555
C2 H4 1_555 1_555
C3 N1 1_555 1_555
C4 C3 1_555 1_555
C5 C4 1_555 1_555
H5 C5 1_555 1_555
C6 C1 1_555 1_555
C7 C6 1_555 1_555
C8 C7 1_555 1_555
C9 C8 1_555 1_555
H6 C9 1_555 1_555
C10 C9 1_555 1_555
C11 C10 1_555 1_555
C12 O1 1_555 1_555
C13 C11 1_555 1_555
H7 C13 1_555 1_555
C14 N1 1_555 1_555
H8 C14 1_555 1_555
H9 C14 1_555 1_555
C15 C14 1_555 1_555
H10 C15 1_555 1_555
H11 C15 1_555 1_555
H12 C15 1_555 1_555
C16 N2 1_555 1_555
H13 C16 1_555 1_555
H14 C16 1_555 1_555
C17 C16 1_555 1_555
H15 C17 1_555 1_555
H16 C17 1_555 1_555
H17 C17 1_555 1_555
C18 C4 1_555 1_555
H18 C18 1_555 1_555
H19 C18 1_555 1_555
H20 C18 1_555 1_555
C19 C10 1_555 1_555
H21 C19 1_555 1_555
H22 C19 1_555 1_555
H23 C19 1_555 1_555
C20 C7 1_555 1_555
C21 C20 1_555 1_555
C22 C21 1_555 1_555
H24 C22 1_555 1_555
C23 C22 1_555 1_555
H25 C23 1_555 1_555
C24 C23 1_555 1_555
H26 C24 1_555 1_555
C25 C20 1_555 1_555
H27 C25 1_555 1_555
C26 C21 1_555 1_555
C27 N3 1_555 1_555
H28 C27 1_555 1_555
H29 C27 1_555 1_555
C28 N4 1_555 1_555
H30 C28 1_555 1_555
H31 C28 1_555 1_555
S1 O3 1_555 1_555
O4 S1 1_555 1_555
O5 S1 1_555 1_555
C29 S1 1_555 1_555
C30 C29 1_555 1_555
H32 C30 1_555 1_555
C31 C30 1_555 1_555
H33 C31 1_555 1_555
C32 C31 1_555 1_555
C33 C32 1_555 1_555
H34 C33 1_555 1_555
C34 C29 1_555 1_555
H35 C34 1_555 1_555
C35 C32 1_555 1_555
H36 C35 1_555 1_555
H37 C35 1_555 1_555
H38 C35 1_555 1_555
S2 O6 1_555 1_555
O7 S2 1_555 1_555
O8 S2 1_555 1_555
C36 S2 1_555 1_555
C37 C36 1_555 1_555
H39 C37 1_555 1_555
C38 C37 1_555 1_555
H40 C38 1_555 1_555
C39 C38 1_555 1_555
C40 C39 1_555 1_555
H41 C40 1_555 1_555
C41 C36 1_555 1_555
H42 C41 1_555 1_555
C42 C39 1_555 1_555
H43 C42 1_555 1_555
H44 C42 1_555 1_555
H45 C42 1_555 1_555
C2 C3 1_555 1_555
C5 C6 1_555 1_555
C8 C12 1_555 1_555
C12 C13 1_555 1_555
C24 C25 1_555 1_555
C27 C28 1_555 1_555
C33 C34 1_555 1_555
C40 C41 1_555 1_555

#END
