
#######################################################################
#
#                 Cambridge Crystallographic Data Centre
#                                CCDC 
#
#######################################################################
#
# If this CIF has been generated from an entry in the Cambridge 
# Structural Database, then it will include bibliographic, chemical, 
# crystal, experimental, refinement or atomic coordinate data resulting 
# from the CCDC's data processing and validation procedures.
#
#######################################################################

data_GUQQIU
_chemical_formula_moiety         'C16 H10,C6 F5 I1'
_chemical_name_systematic        'pyrene 1,2,3,4,5-pentafluoro-6-iodobenzene'
_symmetry_cell_setting           monoclinic
_symmetry_space_group_name_H-M   'P 21/c'
_symmetry_Int_Tables_number      14
_space_group_name_Hall           '-P 2ybc'
loop_
_symmetry_equiv_pos_site_id
_symmetry_equiv_pos_as_xyz
1 x,y,z
2 -x,1/2+y,1/2-z
3 -x,-y,-z
4 x,1/2-y,1/2+z
_cell_length_a                   12.2670(19)
_cell_length_b                   15.636(2)
_cell_length_c                   9.2024(14)
_cell_angle_alpha                90
_cell_angle_beta                 97.593(3)
_cell_angle_gamma                90
_cell_volume                     1749.61
_cell_formula_units_Z            4
loop_
_atom_site_label
_atom_site_type_symbol
_atom_site_fract_x
_atom_site_fract_y
_atom_site_fract_z
C1 C 0.7701(3) 0.0893(2) 0.7665(4)
C2 C 0.7055(3) 0.0505(2) 0.8595(4)
C3 C 0.6746(3) -0.0343(2) 0.8426(4)
C4 C 0.7087(3) -0.0810(2) 0.7292(4)
C5 C 0.7728(3) -0.0435(2) 0.6346(4)
C6 C 0.8025(3) 0.0415(2) 0.6540(4)
F1 F 0.67143(17) 0.09410(13) 0.9713(2)
F2 F 0.61229(17) -0.07120(14) 0.9337(2)
F3 F 0.68037(16) -0.16353(13) 0.7114(2)
F4 F 0.80733(17) -0.08938(13) 0.5268(2)
F5 F 0.86533(16) 0.07635(13) 0.5606(2)
I1 I 0.820642(18) 0.215692(14) 0.79517(3)
C7 C 0.6131(3) 1.0802(2) 0.3315(4)
H1 H 0.6521 1.1217 0.2833
C8 C 0.6116(3) 0.9988(2) 0.2849(4)
H2 H 0.6485 0.9842 0.2039
C9 C 0.5552(3) 0.9332(2) 0.3554(3)
C10 C 0.5539(3) 0.8477(2) 0.3111(4)
H3 H 0.5912 0.8313 0.2313
C11 C 0.4985(3) 0.7863(2) 0.3827(4)
H4 H 0.4986 0.7284 0.3517
C12 C 0.4431(3) 0.8090(2) 0.4988(4)
H5 H 0.4049 0.7664 0.5458
C13 C 0.4426(3) 0.8938(2) 0.5477(3)
C14 C 0.4988(3) 0.9565(2) 0.4756(3)
C7B C 0.3869(3) 0.9198(2) 0.6685(4)
H1B H 0.3479 0.8783 0.7167
C8B C 0.3884(3) 1.0012(2) 0.7151(4)
H2B H 0.3515 1.0158 0.7961
C9B C 0.4448(3) 1.0668(2) 0.6446(3)
C10B C 0.4461(3) 1.1523(2) 0.6889(4)
H3B H 0.4088 1.1687 0.7687
C11B C 0.5015(3) 1.2137(2) 0.6173(4)
H4B H 0.5014 1.2716 0.6483
C12B C 0.5569(3) 1.1910(2) 0.5012(4)
H5B H 0.5951 1.2336 0.4542
C13B C 0.5574(3) 1.1062(2) 0.4523(3)
C14B C 0.5012(3) 1.0435(2) 0.5244(3)
C15 C -0.0875(3) 0.0110(2) 0.2354(4)
H6 H -0.1269 0.0019 0.3163
C16 C -0.0328(3) 0.0850(2) 0.2261(4)
H7 H -0.0331 0.1263 0.3018
C17 C 0.0263(3) 0.1032(2) 0.1045(4)
C18 C 0.0832(3) 0.1799(2) 0.0917(4)
H8 H 0.0816 0.2230 0.1641
C19 C 0.1420(3) 0.1938(2) -0.0246(4)
H9 H 0.1808 0.2460 -0.0307
C20 C 0.1445(3) 0.1322(2) -0.1321(4)
H10 H 0.1852 0.1426 -0.2113
C21 C 0.0877(3) 0.0545(2) -0.1258(4)
C22 C 0.0283(2) 0.0395(2) -0.0055(3)
C15B C 0.0875(3) -0.0110(2) -0.2354(4)
H6B H 0.1269 -0.0019 -0.3163
C16B C 0.0328(3) -0.0850(2) -0.2261(4)
H7B H 0.0331 -0.1263 -0.3018
C17B C -0.0263(3) -0.1032(2) -0.1045(4)
C18B C -0.0832(3) -0.1799(2) -0.0917(4)
H8B H -0.0816 -0.2230 -0.1641
C19B C -0.1420(3) -0.1938(2) 0.0246(4)
H9B H -0.1808 -0.2460 0.0307
C20B C -0.1445(3) -0.1322(2) 0.1321(4)
H10B H -0.1852 -0.1426 0.2113
C21B C -0.0877(3) -0.0545(2) 0.1258(4)
C22B C -0.0283(2) -0.0395(2) 0.0055(3)
loop_
_geom_bond_atom_site_label_1
_geom_bond_atom_site_label_2
_geom_bond_site_symmetry_1
_geom_bond_site_symmetry_2
C1 C2 1_555 1_555
C2 C3 1_555 1_555
C3 C4 1_555 1_555
C4 C5 1_555 1_555
C5 C6 1_555 1_555
C6 C1 1_555 1_555
F1 C2 1_555 1_555
F2 C3 1_555 1_555
F3 C4 1_555 1_555
F4 C5 1_555 1_555
F5 C6 1_555 1_555
I1 C1 1_555 1_555
C7 H1 1_555 1_555
C8 C7 1_555 1_555
H2 C8 1_555 1_555
C9 C8 1_555 1_555
C10 C9 1_555 1_555
H3 C10 1_555 1_555
C11 C10 1_555 1_555
H4 C11 1_555 1_555
C12 C11 1_555 1_555
H5 C12 1_555 1_555
C13 C12 1_555 1_555
C14 C9 1_555 1_555
C15 H6 1_555 1_555
C16 C15 1_555 1_555
H7 C16 1_555 1_555
C17 C16 1_555 1_555
C18 C17 1_555 1_555
H8 C18 1_555 1_555
C19 C18 1_555 1_555
H9 C19 1_555 1_555
C20 C19 1_555 1_555
H10 C20 1_555 1_555
C21 C20 1_555 1_555
C22 C17 1_555 1_555
C7B C13 1_555 1_555
H1B C7B 1_555 1_555
C8B C7B 1_555 1_555
H2B C8B 1_555 1_555
C9B C8B 1_555 1_555
C10B C9B 1_555 1_555
H3B C10B 1_555 1_555
C11B C10B 1_555 1_555
H4B C11B 1_555 1_555
C12B C11B 1_555 1_555
H5B C12B 1_555 1_555
C13B C7 1_555 1_555
C14B C14 1_555 1_555
C15B C21 1_555 1_555
H6B C15B 1_555 1_555
C16B C15B 1_555 1_555
H7B C16B 1_555 1_555
C17B C16B 1_555 1_555
C18B C17B 1_555 1_555
H8B C18B 1_555 1_555
C19B C18B 1_555 1_555
H9B C19B 1_555 1_555
C20B C19B 1_555 1_555
H10B C20B 1_555 1_555
C21B C15 1_555 1_555
C22B C22 1_555 1_555
C13 C14 1_555 1_555
C21 C22 1_555 1_555
C9B C14B 1_555 1_555
C12B C13B 1_555 1_555
C13B C14B 1_555 1_555
C17B C22B 1_555 1_555
C20B C21B 1_555 1_555
C21B C22B 1_555 1_555

#END
