
#######################################################################
#
#                 Cambridge Crystallographic Data Centre
#                                CCDC 
#
#######################################################################
#
# If this CIF has been generated from an entry in the Cambridge 
# Structural Database, then it will include bibliographic, chemical, 
# crystal, experimental, refinement or atomic coordinate data resulting 
# from the CCDC's data processing and validation procedures.
#
#######################################################################

data_GUQRIV
_chemical_formula_moiety         'C15 H15 I1 O4'
_chemical_name_systematic        
'(1S,2R,4R,5R)-benzyl 4-iodo-7-oxo-6-oxabicyclo[3.2.1]octane-2-carboxylate'
_symmetry_cell_setting           orthorhombic
_symmetry_space_group_name_H-M   'P 21 21 21'
_symmetry_Int_Tables_number      19
_space_group_name_Hall           'P 2ac 2ab'
loop_
_symmetry_equiv_pos_site_id
_symmetry_equiv_pos_as_xyz
1 x,y,z
2 1/2-x,-y,1/2+z
3 -x,1/2+y,1/2-z
4 1/2+x,1/2-y,-z
_cell_length_a                   10.629(6)
_cell_length_b                   11.749(6)
_cell_length_c                   23.397(12)
_cell_angle_alpha                90
_cell_angle_beta                 90
_cell_angle_gamma                90
_cell_volume                     2921.82
_exptl_crystal_colour            colorless
_exptl_crystal_description       block
_chemical_melting_point          '355-356 K'
_cell_formula_units_Z            8
_exptl_crystal_recrystallization_method 'methyl t-butyl ether'
loop_
_atom_site_label
_atom_site_type_symbol
_atom_site_fract_x
_atom_site_fract_y
_atom_site_fract_z
I1 I 0.84300(4) 0.09478(4) 0.92109(2)
O1 O 0.6292(4) -0.1405(3) 0.81665(16)
O2 O 0.5172(4) -0.1247(4) 0.73652(16)
O3 O 0.7252(3) 0.2292(4) 0.70913(16)
O4 O 0.5546(4) 0.1252(4) 0.69150(19)
C1 C 0.5552(5) -0.0804(5) 0.7789(2)
C2 C 0.5369(5) 0.0379(5) 0.8024(2)
H1 H 0.4548 0.0702 0.7925
C3 C 0.6478(4) 0.1154(4) 0.7846(2)
H2 H 0.6454 0.1831 0.8090
C4 C 0.7737(5) 0.0582(5) 0.7937(2)
H3 H 0.8390 0.1158 0.7928
H4 H 0.7890 0.0064 0.7621
C5 C 0.7842(5) -0.0078(5) 0.8493(2)
H5 H 0.8478 -0.0672 0.8437
C6 C 0.6608(6) -0.0669(5) 0.8652(2)
H6 H 0.6680 -0.1098 0.9009
C7 C 0.5506(5) 0.0152(5) 0.8661(2)
H7 H 0.5702 0.0841 0.8871
H8 H 0.4756 -0.0197 0.8820
C8 C 0.6352(5) 0.1552(5) 0.7230(2)
C9 C 0.7131(6) 0.2860(6) 0.6546(2)
H9 H 0.7293 0.3666 0.6599
H10 H 0.6270 0.2781 0.6414
C10 C 0.7992(6) 0.2423(5) 0.6092(2)
C11 C 0.8980(5) 0.3065(6) 0.5893(2)
H11 H 0.9130 0.3779 0.6050
C12 C 0.9739(7) 0.2675(7) 0.5469(3)
H12 H 1.0399 0.3131 0.5345
C13 C 0.9571(9) 0.1666(8) 0.5228(3)
H13 H 1.0104 0.1421 0.4937
C14 C 0.8608(10) 0.0989(8) 0.5410(3)
H14 H 0.8487 0.0278 0.5244
C15 C 0.7787(7) 0.1359(6) 0.5852(3)
H15 H 0.7129 0.0901 0.5977
I2 I -0.33841(4) 0.59267(4) 0.92544(2)
O5 O -0.2238(3) 0.5537(3) 0.74866(13)
O6 O -0.0590(4) 0.4757(4) 0.70626(15)
O7 O 0.1192(4) 0.3472(4) 0.86578(17)
O8 O -0.0035(4) 0.2815(4) 0.79766(18)
C16 C -0.1010(4) 0.5196(5) 0.7476(2)
C17 C -0.0416(5) 0.5487(5) 0.8046(2)
H16 H 0.0479 0.5671 0.8009
C18 C -0.0654(5) 0.4514(4) 0.8475(2)
H17 H -0.0441 0.4786 0.8859
C19 C -0.2036(5) 0.4151(5) 0.8471(2)
H18 H -0.2176 0.3647 0.8149
H19 H -0.2211 0.3725 0.8817
C20 C -0.2953(5) 0.5144(5) 0.8431(2)
H20 H -0.3742 0.4854 0.8271
C21 C -0.2488(5) 0.6084(5) 0.80452(19)
H21 H -0.3104 0.6701 0.8012
C22 C -0.1205(5) 0.6525(4) 0.8218(2)
H22 H -0.1155 0.6679 0.8625
H23 H -0.0970 0.7201 0.8005
C23 C 0.0176(5) 0.3511(5) 0.8335(2)
C24 C 0.2077(7) 0.2531(8) 0.8527(3)
H24 H 0.1610 0.1831 0.8469
H25 H 0.2531 0.2701 0.8178
C25 C 0.2964(5) 0.2384(6) 0.8995(2)
C26 C 0.4014(6) 0.3080(6) 0.9056(3)
H26 H 0.4142 0.3677 0.8801
C27 C 0.4866(6) 0.2895(6) 0.9489(3)
H27 H 0.5563 0.3368 0.9526
C28 C 0.4695(7) 0.2031(6) 0.9863(2)
H28 H 0.5288 0.1908 1.0149
C29 C 0.3682(7) 0.1344(6) 0.9829(3)
H29 H 0.3575 0.0760 1.0092
C30 C 0.2810(6) 0.1506(6) 0.9406(3)
H30 H 0.2108 0.1035 0.9387
loop_
_geom_bond_atom_site_label_1
_geom_bond_atom_site_label_2
_geom_bond_site_symmetry_1
_geom_bond_site_symmetry_2
I1 C5 1_555 1_555
O1 C1 1_555 1_555
O2 C1 1_555 1_555
O3 C8 1_555 1_555
O4 C8 1_555 1_555
C1 C2 1_555 1_555
C2 H1 1_555 1_555
C3 C2 1_555 1_555
H2 C3 1_555 1_555
C4 C3 1_555 1_555
H3 C4 1_555 1_555
H4 C4 1_555 1_555
C5 C4 1_555 1_555
H5 C5 1_555 1_555
C6 O1 1_555 1_555
H6 C6 1_555 1_555
C7 C2 1_555 1_555
H7 C7 1_555 1_555
H8 C7 1_555 1_555
C8 C3 1_555 1_555
C9 O3 1_555 1_555
H9 C9 1_555 1_555
H10 C9 1_555 1_555
C10 C9 1_555 1_555
C11 C10 1_555 1_555
H11 C11 1_555 1_555
C12 C11 1_555 1_555
H12 C12 1_555 1_555
C13 C12 1_555 1_555
H13 C13 1_555 1_555
C14 C13 1_555 1_555
H14 C14 1_555 1_555
C15 C10 1_555 1_555
H15 C15 1_555 1_555
I2 C20 1_555 1_555
O5 C16 1_555 1_555
O6 C16 1_555 1_555
O7 C23 1_555 1_555
O8 C23 1_555 1_555
C16 C17 1_555 1_555
C17 H16 1_555 1_555
C18 C17 1_555 1_555
H17 C18 1_555 1_555
C19 C18 1_555 1_555
H18 C19 1_555 1_555
H19 C19 1_555 1_555
C20 C19 1_555 1_555
H20 C20 1_555 1_555
C21 O5 1_555 1_555
H21 C21 1_555 1_555
C22 C17 1_555 1_555
H22 C22 1_555 1_555
H23 C22 1_555 1_555
C23 C18 1_555 1_555
C24 O7 1_555 1_555
H24 C24 1_555 1_555
H25 C24 1_555 1_555
C25 C24 1_555 1_555
C26 C25 1_555 1_555
H26 C26 1_555 1_555
C27 C26 1_555 1_555
H27 C27 1_555 1_555
C28 C27 1_555 1_555
H28 C28 1_555 1_555
C29 C28 1_555 1_555
H29 C29 1_555 1_555
C30 C25 1_555 1_555
H30 C30 1_555 1_555
C5 C6 1_555 1_555
C6 C7 1_555 1_555
C14 C15 1_555 1_555
C20 C21 1_555 1_555
C21 C22 1_555 1_555
C29 C30 1_555 1_555

#END
