
#######################################################################
#
#                 Cambridge Crystallographic Data Centre
#                                CCDC 
#
#######################################################################
#
# If this CIF has been generated from an entry in the Cambridge 
# Structural Database, then it will include bibliographic, chemical, 
# crystal, experimental, refinement or atomic coordinate data resulting 
# from the CCDC's data processing and validation procedures.
#
#######################################################################

data_GUQRAN
_chemical_formula_moiety         'C16 H10,C6 Br2 F4'
_chemical_name_systematic        'pyrene 1,4-dibromo-2,3,5,6-tetrafluorobenzene'
_symmetry_cell_setting           triclinic
_symmetry_space_group_name_H-M   'P -1'
_symmetry_Int_Tables_number      2
_space_group_name_Hall           '-P 1'
loop_
_symmetry_equiv_pos_site_id
_symmetry_equiv_pos_as_xyz
1 x,y,z
2 -x,-y,-z
_cell_length_a                   7.046(4)
_cell_length_b                   8.334(4)
_cell_length_c                   8.623(5)
_cell_angle_alpha                116.290(8)
_cell_angle_beta                 90.150(9)
_cell_angle_gamma                102.722(9)
_cell_volume                     439.92
_cell_formula_units_Z            1
loop_
_atom_site_label
_atom_site_type_symbol
_atom_site_fract_x
_atom_site_fract_y
_atom_site_fract_z
Br1 Br 0.50399(8) 0.69154(8) 0.74183(7)
C1 C 0.4979(7) 0.5830(7) 0.8904(6)
C2 C 0.5690(7) 0.6872(7) 1.0647(7)
C3 C 0.5711(7) 0.6060(7) 1.1724(6)
F1 F 0.6392(5) 0.8700(4) 1.1303(4)
F2 F 0.6424(5) 0.7123(4) 1.3392(4)
Br1A Br 0.49601(8) 0.30846(8) 1.25817(7)
C1A C 0.5021(7) 0.4170(7) 1.1096(6)
C2A C 0.4310(7) 0.3128(7) 0.9353(7)
C3A C 0.4289(7) 0.3940(7) 0.8276(6)
F1A F 0.3608(5) 0.1300(4) 0.8697(4)
F2A F 0.3576(5) 0.2877(4) 0.6608(4)
C4 C 0.9894(7) 0.2967(7) 1.1512(7)
H1 H 0.9994 0.2477 1.2307
C5 C 0.9126(7) 0.1811(7) 0.9848(7)
H2 H 0.8682 0.0526 0.9502
C6 C 0.8192(8) 0.1282(7) 0.6846(7)
H3 H 0.7784 -0.0012 0.6465
C7 C 0.8019(8) 0.1974(8) 0.5681(7)
H4 H 0.7477 0.1156 0.4511
C8 C 0.8629(8) 0.3850(7) 0.6203(7)
H5 H 0.8491 0.4304 0.5385
C9 C 0.9439(7) 0.5083(7) 0.7899(7)
C10 C 0.9600(6) 0.4394(6) 0.9127(6)
C11 C 0.8965(7) 0.2469(6) 0.8595(6)
C4A C 1.0106(7) 0.7033(7) 0.8488(7)
H1A H 1.0006 0.7523 0.7693
C5A C 1.0874(7) 0.8189(7) 1.0152(7)
H2A H 1.1318 0.9474 1.0498
C6A C 1.1808(8) 0.8718(7) 1.3154(7)
H3A H 1.2216 1.0012 1.3535
C7A C 1.1981(8) 0.8026(8) 1.4319(7)
H4A H 1.2523 0.8844 1.5489
C8A C 1.1371(8) 0.6150(7) 1.3797(7)
H5A H 1.1509 0.5696 1.4615
C9A C 1.0561(7) 0.4917(7) 1.2101(7)
C10A C 1.0400(6) 0.5606(6) 1.0873(6)
C11A C 1.1035(7) 0.7531(6) 1.1405(6)
loop_
_geom_bond_atom_site_label_1
_geom_bond_atom_site_label_2
_geom_bond_site_symmetry_1
_geom_bond_site_symmetry_2
Br1 C1 1_555 1_555
C1 C2 1_555 1_555
C2 C3 1_555 1_555
C3 F2 1_555 1_555
F1 C2 1_555 1_555
C4 H1 1_555 1_555
C5 C4 1_555 1_555
H2 C5 1_555 1_555
C6 H3 1_555 1_555
C7 C6 1_555 1_555
H4 C7 1_555 1_555
C8 C7 1_555 1_555
H5 C8 1_555 1_555
C9 C8 1_555 1_555
C10 C9 1_555 1_555
C11 C5 1_555 1_555
Br1A C1A 1_555 1_555
C1A C3 1_555 1_555
C2A C1A 1_555 1_555
C3A C1 1_555 1_555
F1A C2A 1_555 1_555
F2A C3A 1_555 1_555
C4A C9 1_555 1_555
H1A C4A 1_555 1_555
C5A C4A 1_555 1_555
H2A C5A 1_555 1_555
C6A H3A 1_555 1_555
C7A C6A 1_555 1_555
H4A C7A 1_555 1_555
C8A C7A 1_555 1_555
H5A C8A 1_555 1_555
C9A C4 1_555 1_555
C10A C10 1_555 1_555
C11A C5A 1_555 1_555
C6 C11 1_555 1_555
C10 C11 1_555 1_555
C2A C3A 1_555 1_555
C6A C11A 1_555 1_555
C8A C9A 1_555 1_555
C9A C10A 1_555 1_555
C10A C11A 1_555 1_555

#END
