
#######################################################################
#
#                 Cambridge Crystallographic Data Centre
#                                CCDC 
#
#######################################################################
#
# If this CIF has been generated from an entry in the Cambridge 
# Structural Database, then it will include bibliographic, chemical, 
# crystal, experimental, refinement or atomic coordinate data resulting 
# from the CCDC's data processing and validation procedures.
#
#######################################################################

data_GUQROZ
_chemical_formula_moiety         'C13 H26 O3 P1 1+,Cl1 1-'
_chemical_name_systematic        
'((2,2-dimethylbicyclo[2.2.1]hept-3-yl)methyl)tris(hydroxymethyl)phosphonium chloride'
_symmetry_cell_setting           monoclinic
_symmetry_space_group_name_H-M   'P 21/c'
_symmetry_Int_Tables_number      14
_space_group_name_Hall           '-P 2ybc'
loop_
_symmetry_equiv_pos_site_id
_symmetry_equiv_pos_as_xyz
1 x,y,z
2 x,1/2-y,1/2+z
3 -x,-y,-z
4 -x,1/2+y,1/2-z
_cell_length_a                   16.504(7)
_cell_length_b                   7.561(5)
_cell_length_c                   12.142(3)
_cell_angle_alpha                90
_cell_angle_beta                 92.54(2)
_cell_angle_gamma                90
_cell_volume                     1513.67
_exptl_crystal_colour            colorless
_exptl_crystal_description       needles
_chemical_melting_point          137-139deg.C
_cell_formula_units_Z            4
loop_
_atom_site_label
_atom_site_type_symbol
_atom_site_fract_x
_atom_site_fract_y
_atom_site_fract_z
Cl1 Cl 0.39940(5) 0.19649(12) 0.51269(7)
P1 P 0.63607(5) 0.30161(12) 0.34632(6)
O1 O 0.69089(13) 0.4503(3) 0.53671(17)
H1 H 0.6750 0.5556 0.5400
O2 O 0.47727(13) 0.3555(3) 0.31438(19)
H2 H 0.4525 0.3239 0.3700
O3 O 0.68006(15) 0.4669(3) 0.17010(18)
H3 H 0.6646 0.5503 0.1286
C1 C 0.84388(19) 0.2955(5) 0.3728(3)
H4 H 0.8223 0.4074 0.4041
C2 C 0.78893(19) 0.1353(4) 0.3847(3)
H5 H 0.7754 0.1292 0.4641
C3 C 0.8468(2) -0.0269(5) 0.3630(3)
C4 C 0.9296(2) 0.0676(5) 0.3554(3)
H6 H 0.9774 -0.0097 0.3742
C5 C 0.9349(2) 0.1650(5) 0.2443(3)
H7 H 0.9896 0.2155 0.2358
H8 H 0.9215 0.0851 0.1815
C6 C 0.8707(2) 0.3119(5) 0.2531(3)
H9 H 0.8244 0.2923 0.1997
H10 H 0.8944 0.4298 0.2397
C7 C 0.9218(2) 0.2264(5) 0.4325(3)
H11 H 0.9678 0.3100 0.4291
H12 H 0.9135 0.1915 0.5098
C8 C 0.70771(18) 0.1314(4) 0.3170(2)
H13 H 0.6817 0.0154 0.3289
H14 H 0.7196 0.1389 0.2379
C9 C 0.8494(2) -0.1520(5) 0.4609(3)
H15 H 0.8650 -0.0863 0.5281
H16 H 0.8892 -0.2457 0.4493
H17 H 0.7957 -0.2048 0.4685
C10 C 0.8224(2) -0.1320(5) 0.2588(3)
H18 H 0.8205 -0.0526 0.1949
H19 H 0.7688 -0.1849 0.2670
H20 H 0.8622 -0.2257 0.2478
C11 C 0.62721(19) 0.3432(5) 0.4929(2)
H21 H 0.5747 0.4021 0.5047
H22 H 0.6275 0.2289 0.5327
C12 C 0.53709(18) 0.2291(4) 0.2918(3)
H23 H 0.5389 0.2115 0.2112
H24 H 0.5231 0.1145 0.3257
C13 C 0.6619(2) 0.5072(4) 0.2804(2)
H25 H 0.6158 0.5909 0.2816
H26 H 0.7095 0.5621 0.3194
loop_
_geom_bond_atom_site_label_1
_geom_bond_atom_site_label_2
_geom_bond_site_symmetry_1
_geom_bond_site_symmetry_2
P1 C8 1_555 1_555
O1 H1 1_555 1_555
O2 H2 1_555 1_555
O3 H3 1_555 1_555
C1 H4 1_555 1_555
C2 C1 1_555 1_555
H5 C2 1_555 1_555
C3 C2 1_555 1_555
C4 C3 1_555 1_555
H6 C4 1_555 1_555
C5 C4 1_555 1_555
H7 C5 1_555 1_555
H8 C5 1_555 1_555
C6 C1 1_555 1_555
H9 C6 1_555 1_555
H10 C6 1_555 1_555
C7 C1 1_555 1_555
H11 C7 1_555 1_555
H12 C7 1_555 1_555
C8 C2 1_555 1_555
H13 C8 1_555 1_555
H14 C8 1_555 1_555
C9 C3 1_555 1_555
H15 C9 1_555 1_555
H16 C9 1_555 1_555
H17 C9 1_555 1_555
C10 C3 1_555 1_555
H18 C10 1_555 1_555
H19 C10 1_555 1_555
H20 C10 1_555 1_555
C11 P1 1_555 1_555
H21 C11 1_555 1_555
H22 C11 1_555 1_555
C12 P1 1_555 1_555
H23 C12 1_555 1_555
H24 C12 1_555 1_555
C13 P1 1_555 1_555
H25 C13 1_555 1_555
H26 C13 1_555 1_555
O1 C11 1_555 1_555
O2 C12 1_555 1_555
O3 C13 1_555 1_555
C4 C7 1_555 1_555
C5 C6 1_555 1_555

#END
