
#######################################################################
#
#                 Cambridge Crystallographic Data Centre
#                                CCDC 
#
#######################################################################
#
# If this CIF has been generated from an entry in the Cambridge 
# Structural Database, then it will include bibliographic, chemical, 
# crystal, experimental, refinement or atomic coordinate data resulting 
# from the CCDC's data processing and validation procedures.
#
#######################################################################

data_GUQSAN
_chemical_name_common            (E)-3-phenyl-2-phosphonylacrylamide
_chemical_formula_moiety         'C11 H14 N1 O4 P1'
_chemical_name_systematic        
'Dimethyl (3-amino-3-oxo-1-phenylprop-1-en-2-yl)phosphonate'
_symmetry_cell_setting           monoclinic
_symmetry_space_group_name_H-M   'P 21/c'
_symmetry_Int_Tables_number      14
_space_group_name_Hall           '-P 2ybc'
loop_
_symmetry_equiv_pos_site_id
_symmetry_equiv_pos_as_xyz
1 x,y,z
2 -x,1/2+y,1/2-z
3 -x,-y,-z
4 x,1/2-y,1/2+z
_cell_length_a                   24.732(4)
_cell_length_b                   9.2832(11)
_cell_length_c                   18.052(3)
_cell_angle_alpha                90
_cell_angle_beta                 105.924(4)
_cell_angle_gamma                90
_cell_volume                     3985.55
_exptl_crystal_colour            colorless
_exptl_crystal_description       block
_cell_formula_units_Z            12
loop_
_atom_site_label
_atom_site_type_symbol
_atom_site_fract_x
_atom_site_fract_y
_atom_site_fract_z
P1 P 0.49431(5) 0.36683(11) 0.32257(6)
O1 O 0.45732(11) 0.1618(3) 0.46073(13)
O2 O 0.47852(11) 0.4373(3) 0.24747(14)
O3 O 0.49083(17) 0.4634(3) 0.39189(17)
O4 O 0.55634(12) 0.3141(4) 0.34828(19)
N1 N 0.49763(13) 0.0087(3) 0.39486(17)
H1 H 0.5096 -0.0474 0.4338
H2 H 0.5044 -0.0112 0.3518
C1 C 0.45071(15) 0.2185(4) 0.32981(19)
C2 C 0.46875(15) 0.1259(4) 0.4012(2)
C3 C 0.5137(3) 0.6029(5) 0.4052(3)
H3 H 0.5066 0.6418 0.4509
H4 H 0.4965 0.6635 0.3620
H5 H 0.5535 0.5986 0.4117
C4 C 0.5843(2) 0.2640(6) 0.2929(4)
H6 H 0.5734 0.1663 0.2789
H7 H 0.6242 0.2685 0.3149
H8 H 0.5738 0.3237 0.2478
C5 C 0.40431(15) 0.1999(4) 0.2716(2)
H9 H 0.4002 0.2656 0.2315
C6 C 0.35875(16) 0.0935(4) 0.2602(2)
C7 C 0.32247(19) 0.0798(5) 0.1868(3)
H10 H 0.3274 0.1379 0.1472
C8 C 0.2788(2) -0.0193(7) 0.1718(4)
H11 H 0.2549 -0.0274 0.1223
C9 C 0.2709(2) -0.1040(7) 0.2286(4)
H12 H 0.2417 -0.1704 0.2183
C10 C 0.3060(2) -0.0917(6) 0.3007(4)
H13 H 0.3002 -0.1496 0.3399
C11 C 0.35006(19) 0.0051(5) 0.3171(3)
H14 H 0.3740 0.0107 0.3668
P2 P 0.08218(4) 0.35293(12) 0.47825(6)
O5 O 0.13276(12) 0.1934(3) 0.65189(14)
O6 O 0.09363(12) 0.4262(3) 0.41299(15)
O7 O 0.02740(11) 0.2599(3) 0.46047(17)
O8 O 0.06923(13) 0.4518(3) 0.54151(16)
N2 N 0.12073(14) 0.0053(3) 0.57116(17)
H15 H 0.1151 -0.0537 0.6050
H16 H 0.1198 -0.0252 0.5258
C12 C 0.13898(14) 0.2374(4) 0.52551(18)
C13 C 0.13073(15) 0.1419(4) 0.58865(19)
C14 C 0.0085(2) 0.1823(7) 0.3895(4)
H17 H -0.0116 0.2464 0.3497
H18 H -0.0159 0.1054 0.3956
H19 H 0.0403 0.1432 0.3757
C15 C 0.1074(3) 0.5633(6) 0.5755(3)
H20 H 0.1446 0.5242 0.5939
H21 H 0.0963 0.6047 0.6178
H22 H 0.1071 0.6365 0.5378
C16 C 0.18678(15) 0.2442(4) 0.5051(2)
H23 H 0.1862 0.3087 0.4655
C17 C 0.24022(16) 0.1671(5) 0.5346(2)
C18 C 0.28011(19) 0.1841(6) 0.4946(3)
H24 H 0.2721 0.2414 0.4507
C19 C 0.3321(2) 0.1167(8) 0.5195(3)
H25 H 0.3583 0.1282 0.4915
C20 C 0.3451(2) 0.0345(7) 0.5837(4)
H26 H 0.3798 -0.0113 0.5997
C21 C 0.3065(2) 0.0193(6) 0.6252(3)
H27 H 0.3152 -0.0367 0.6696
C22 C 0.25548(19) 0.0858(6) 0.6017(3)
H28 H 0.2303 0.0765 0.6314
P3 P 0.09839(5) 0.84863(12) 0.34450(6)
O9 O 0.03932(12) 0.7815(4) 0.30814(17)
O10 O 0.14476(12) 0.6767(3) 0.20657(14)
O11 O 0.10888(13) 0.9053(3) 0.42237(15)
O12 O 0.09756(14) 0.9640(3) 0.28099(16)
N3 N 0.11578(14) 0.4993(3) 0.27140(17)
H29 H 0.1074 0.4431 0.2320
H30 H 0.1107 0.4711 0.3144
C23 C 0.14935(15) 0.7173(4) 0.33764(19)
C24 C 0.13624(15) 0.6280(4) 0.26595(19)
C25 C 0.0061(2) 0.7149(7) 0.3513(4)
H31 H 0.0191 0.6180 0.3639
H32 H -0.0325 0.7132 0.3214
H33 H 0.0094 0.7683 0.3979
C26 C 0.1439(3) 1.0621(6) 0.2922(3)
H34 H 0.1460 1.1203 0.3369
H35 H 0.1385 1.1231 0.2478
H36 H 0.1782 1.0088 0.2995
C27 C 0.19770(16) 0.7100(4) 0.3937(2)
H37 H 0.1993 0.7696 0.4356
C28 C 0.24862(17) 0.6242(5) 0.4003(2)
C29 C 0.2930(2) 0.6445(7) 0.4653(3)
H38 H 0.2888 0.7066 0.5038
C30 C 0.3434(3) 0.5731(10) 0.4737(4)
H39 H 0.3729 0.5887 0.5176
C31 C 0.3504(3) 0.4803(9) 0.4186(4)
H40 H 0.3843 0.4318 0.4252
C32 C 0.3080(2) 0.4595(7) 0.3547(3)
H41 H 0.3128 0.3976 0.3166
C33 C 0.2569(2) 0.5299(5) 0.3452(3)
H42 H 0.2278 0.5132 0.3009
loop_
_geom_bond_atom_site_label_1
_geom_bond_atom_site_label_2
_geom_bond_site_symmetry_1
_geom_bond_site_symmetry_2
P1 O2 1_555 1_555
O1 C2 1_555 1_555
O3 P1 1_555 1_555
O4 P1 1_555 1_555
N1 H1 1_555 1_555
H2 N1 1_555 1_555
C1 P1 1_555 1_555
C2 N1 1_555 1_555
C3 O3 1_555 1_555
H3 C3 1_555 1_555
H4 C3 1_555 1_555
H5 C3 1_555 1_555
C4 O4 1_555 1_555
H6 C4 1_555 1_555
H7 C4 1_555 1_555
H8 C4 1_555 1_555
C5 C1 1_555 1_555
H9 C5 1_555 1_555
C6 C5 1_555 1_555
C7 C6 1_555 1_555
H10 C7 1_555 1_555
C8 C7 1_555 1_555
H11 C8 1_555 1_555
C9 C8 1_555 1_555
H12 C9 1_555 1_555
C10 C9 1_555 1_555
H13 C10 1_555 1_555
C11 C6 1_555 1_555
H14 C11 1_555 1_555
P2 O6 1_555 1_555
O5 C13 1_555 1_555
O7 P2 1_555 1_555
O8 P2 1_555 1_555
N2 H15 1_555 1_555
H16 N2 1_555 1_555
C12 P2 1_555 1_555
C13 N2 1_555 1_555
C14 O7 1_555 1_555
H17 C14 1_555 1_555
H18 C14 1_555 1_555
H19 C14 1_555 1_555
C15 O8 1_555 1_555
H20 C15 1_555 1_555
H21 C15 1_555 1_555
H22 C15 1_555 1_555
C16 C12 1_555 1_555
H23 C16 1_555 1_555
C17 C16 1_555 1_555
C18 C17 1_555 1_555
H24 C18 1_555 1_555
C19 C18 1_555 1_555
H25 C19 1_555 1_555
C20 C19 1_555 1_555
H26 C20 1_555 1_555
C21 C20 1_555 1_555
H27 C21 1_555 1_555
C22 C17 1_555 1_555
H28 C22 1_555 1_555
P3 O9 1_555 1_555
O9 C25 1_555 1_555
O10 C24 1_555 1_555
O11 P3 1_555 1_555
O12 P3 1_555 1_555
N3 H29 1_555 1_555
H30 N3 1_555 1_555
C23 P3 1_555 1_555
C24 N3 1_555 1_555
C25 H31 1_555 1_555
H32 C25 1_555 1_555
H33 C25 1_555 1_555
C26 O12 1_555 1_555
H34 C26 1_555 1_555
H35 C26 1_555 1_555
H36 C26 1_555 1_555
C27 C23 1_555 1_555
H37 C27 1_555 1_555
C28 C27 1_555 1_555
C29 C28 1_555 1_555
H38 C29 1_555 1_555
C30 C29 1_555 1_555
H39 C30 1_555 1_555
C31 C30 1_555 1_555
H40 C31 1_555 1_555
C32 C31 1_555 1_555
H41 C32 1_555 1_555
C33 C28 1_555 1_555
H42 C33 1_555 1_555
C1 C2 1_555 1_555
C10 C11 1_555 1_555
C12 C13 1_555 1_555
C21 C22 1_555 1_555
C23 C24 1_555 1_555
C32 C33 1_555 1_555

#END
