
#######################################################################
#
#                 Cambridge Crystallographic Data Centre
#                                CCDC 
#
#######################################################################
#
# If this CIF has been generated from an entry in the Cambridge 
# Structural Database, then it will include bibliographic, chemical, 
# crystal, experimental, refinement or atomic coordinate data resulting 
# from the CCDC's data processing and validation procedures.
#
#######################################################################

data_GUQWUM
_chemical_formula_moiety         'C25 H24 O4 S1'
_chemical_name_systematic        
8-methyl-6-((4-methylphenyl)sulfonyl)-5-phenyl-5,6,7,8-tetrahydronaphtho[2,3-d][1,3]dioxole
_symmetry_cell_setting           monoclinic
_symmetry_space_group_name_H-M   'P 21/c'
_symmetry_Int_Tables_number      14
_space_group_name_Hall           '-P 2ybc'
loop_
_symmetry_equiv_pos_site_id
_symmetry_equiv_pos_as_xyz
1 x,y,z
2 -x,1/2+y,1/2-z
3 -x,-y,-z
4 x,1/2-y,1/2+z
_cell_length_a                   10.8495(5)
_cell_length_b                   9.9471(5)
_cell_length_c                   19.6318(10)
_cell_angle_alpha                90
_cell_angle_beta                 94.6880(10)
_cell_angle_gamma                90
_cell_volume                     2111.6
_exptl_crystal_colour            colorless
_cell_formula_units_Z            4
loop_
_atom_site_label
_atom_site_type_symbol
_atom_site_fract_x
_atom_site_fract_y
_atom_site_fract_z
C1 C 0.7407(3) 0.4572(3) 0.23896(15)
C2 C 0.8620(3) 0.4811(3) 0.26136(16)
H1 H 0.8929 0.4531 0.3046
C3 C 0.9376(3) 0.5473(3) 0.21877(18)
H2 H 1.0191 0.5651 0.2345
C4 C 0.8962(3) 0.5874(3) 0.15432(19)
C5 C 0.7739(4) 0.5645(4) 0.13392(18)
H3 H 0.7428 0.5941 0.0910
C6 C 0.6952(3) 0.4987(3) 0.17511(17)
H4 H 0.6131 0.4829 0.1598
C7 C 0.9809(4) 0.6533(4) 0.1070(2)
H5 H 0.9850 0.5989 0.0668
H6 H 1.0621 0.6621 0.1298
H7 H 0.9494 0.7406 0.0941
C8 C 0.5397(2) 0.4845(3) 0.32585(14)
H8 H 0.5265 0.5600 0.2940
C9 C 0.5916(2) 0.5393(2) 0.39519(13)
H9 H 0.6094 0.4621 0.4254
C10 C 0.4933(2) 0.6246(2) 0.42670(13)
C11 C 0.5334(2) 0.7144(2) 0.47944(14)
H10 H 0.6165 0.7193 0.4952
C12 C 0.4484(3) 0.7939(3) 0.50689(14)
C13 C 0.3475(3) 0.9439(3) 0.5657(2)
H11 H 0.3247 0.9274 0.6117
H12 H 0.3488 1.0402 0.5583
C14 C 0.3262(3) 0.7896(3) 0.48379(16)
C15 C 0.2834(3) 0.7025(3) 0.43355(17)
H13 H 0.1998 0.7000 0.4186
C16 C 0.3682(2) 0.6166(3) 0.40479(15)
C17 C 0.3189(3) 0.5215(3) 0.34792(18)
H14 H 0.3028 0.5756 0.3064
C18 C 0.4164(3) 0.4166(3) 0.33310(17)
H15 H 0.4249 0.3517 0.3701
H16 H 0.3903 0.3689 0.2913
C19 C 0.7108(2) 0.6176(2) 0.39223(13)
C20 C 0.8157(3) 0.5811(3) 0.43313(15)
H17 H 0.8136 0.5054 0.4608
C21 C 0.9231(3) 0.6556(4) 0.43333(18)
H18 H 0.9923 0.6304 0.4615
C22 C 0.9281(3) 0.7660(3) 0.39238(19)
H19 H 1.0005 0.8162 0.3926
C23 C 0.8258(3) 0.8022(3) 0.35109(17)
H20 H 0.8295 0.8764 0.3225
C24 C 0.7173(3) 0.7299(3) 0.35135(15)
H21 H 0.6480 0.7570 0.3238
C25 C 0.2022(3) 0.4539(4) 0.3608(2)
H22 H 0.2126 0.4061 0.4034
H23 H 0.1799 0.3918 0.3244
H24 H 0.1380 0.5198 0.3631
O1 O 0.5681(2) 0.2800(2) 0.24430(13)
O2 O 0.7192(2) 0.3033(2) 0.34477(12)
O3 O 0.4675(2) 0.8882(2) 0.55764(11)
O4 O 0.2602(2) 0.8828(2) 0.51760(13)
S1 S 0.64348(7) 0.36514(7) 0.29011(4)
loop_
_geom_bond_atom_site_label_1
_geom_bond_atom_site_label_2
_geom_bond_site_symmetry_1
_geom_bond_site_symmetry_2
C1 C2 1_555 1_555
C2 H1 1_555 1_555
C3 C2 1_555 1_555
H2 C3 1_555 1_555
C4 C3 1_555 1_555
C5 C4 1_555 1_555
H3 C5 1_555 1_555
C6 C1 1_555 1_555
H4 C6 1_555 1_555
C7 C4 1_555 1_555
H5 C7 1_555 1_555
H6 C7 1_555 1_555
H7 C7 1_555 1_555
C8 H8 1_555 1_555
C9 C8 1_555 1_555
H9 C9 1_555 1_555
C10 C9 1_555 1_555
C11 C10 1_555 1_555
H10 C11 1_555 1_555
C12 C11 1_555 1_555
C13 H11 1_555 1_555
H12 C13 1_555 1_555
C14 C12 1_555 1_555
C15 C14 1_555 1_555
H13 C15 1_555 1_555
C16 C10 1_555 1_555
C17 C16 1_555 1_555
H14 C17 1_555 1_555
C18 C8 1_555 1_555
H15 C18 1_555 1_555
H16 C18 1_555 1_555
C19 C9 1_555 1_555
C20 C19 1_555 1_555
H17 C20 1_555 1_555
C21 C20 1_555 1_555
H18 C21 1_555 1_555
C22 C21 1_555 1_555
H19 C22 1_555 1_555
C23 C22 1_555 1_555
H20 C23 1_555 1_555
C24 C19 1_555 1_555
H21 C24 1_555 1_555
C25 C17 1_555 1_555
H22 C25 1_555 1_555
H23 C25 1_555 1_555
H24 C25 1_555 1_555
O1 S1 1_555 1_555
O2 S1 1_555 1_555
O3 C12 1_555 1_555
O4 C13 1_555 1_555
S1 C1 1_555 1_555
C5 C6 1_555 1_555
C8 S1 1_555 1_555
C13 O3 1_555 1_555
C14 O4 1_555 1_555
C15 C16 1_555 1_555
C17 C18 1_555 1_555
C23 C24 1_555 1_555

#END
