
#######################################################################
#
#                 Cambridge Crystallographic Data Centre
#                                CCDC 
#
#######################################################################
#
# If this CIF has been generated from an entry in the Cambridge 
# Structural Database, then it will include bibliographic, chemical, 
# crystal, experimental, refinement or atomic coordinate data resulting 
# from the CCDC's data processing and validation procedures.
#
#######################################################################

data_GUQZUP
_chemical_formula_moiety         'C48 H24'
_chemical_name_systematic        
trinaphtho[1,2,3,4-fgh:1',2',3',4'-pqr:1'',2'',3'',4''-za_1_b_1_]trinaphthylene
_symmetry_cell_setting           monoclinic
_symmetry_space_group_name_H-M   'P 21/c'
_symmetry_Int_Tables_number      14
_space_group_name_Hall           '-P 2ybc'
loop_
_symmetry_equiv_pos_site_id
_symmetry_equiv_pos_as_xyz
1 x,y,z
2 -x,1/2+y,1/2-z
3 -x,-y,-z
4 x,1/2-y,1/2+z
_cell_length_a                   12.2985(19)
_cell_length_b                   7.9282(12)
_cell_length_c                   13.998(2)
_cell_angle_alpha                90
_cell_angle_beta                 90.123(2)
_cell_angle_gamma                90
_cell_volume                     1364.87
_exptl_crystal_colour            brown
_exptl_crystal_description       PLATE
_cell_formula_units_Z            2
loop_
_atom_site_label
_atom_site_type_symbol
_atom_site_fract_x
_atom_site_fract_y
_atom_site_fract_z
C1 C 0.71714(14) -0.0279(2) 0.56832(12)
C2 C 0.60998(14) -0.0165(2) 0.53477(12)
C3 C 0.52322(14) 0.0246(2) 0.59970(12)
C4 C 0.41347(14) 0.0438(2) 0.56490(12)
C5 C 0.33046(14) 0.0903(2) 0.62769(12)
C6 C 0.34806(14) 0.0656(2) 0.72924(12)
C7 C 0.26104(15) 0.0449(2) 0.79429(13)
H1 H 0.1888 0.0669 0.7736
C8 C 0.27902(16) -0.0064(2) 0.88681(13)
H2 H 0.2195 -0.0165 0.9296
C9 C 0.38376(16) -0.0435(2) 0.91819(13)
H3 H 0.3955 -0.0822 0.9816
C10 C 0.46993(15) -0.0240(2) 0.85708(12)
H4 H 0.5411 -0.0507 0.8788
C11 C 0.45518(14) 0.0348(2) 0.76268(12)
C12 C 0.54518(14) 0.0434(2) 0.69691(12)
C13 C 0.65619(14) 0.0754(2) 0.72611(12)
C14 C 0.68016(15) 0.1565(2) 0.81351(12)
H5 H 0.6229 0.1790 0.8571
C15 C 0.78421(15) 0.2036(2) 0.83693(13)
H6 H 0.7989 0.2544 0.8970
C16 C 0.86826(15) 0.1765(2) 0.77193(13)
H7 H 0.9402 0.2107 0.7875
C17 C 0.84761(15) 0.1007(2) 0.68565(13)
H8 H 0.9054 0.0857 0.6416
C18 C 0.74202(14) 0.0445(2) 0.66095(12)
C19 C 0.79586(14) -0.1154(2) 0.51004(12)
C20 C 0.89257(15) -0.1845(2) 0.54848(13)
H9 H 0.9105 -0.1621 0.6133
C21 C 0.96106(15) -0.2825(2) 0.49524(14)
H10 H 1.0270 -0.3230 0.5223
C22 C 0.22953(14) 0.1524(2) 0.58725(12)
C23 C 0.15997(14) 0.2601(2) 0.63854(13)
H11 H 0.1784 0.2901 0.7023
C24 C 0.06616(14) 0.3231(2) 0.59898(13)
H12 H 0.0199 0.3940 0.6355
C1B C 0.28286(14) 0.0279(2) 0.43168(12)
C2B C 0.39002(14) 0.0165(2) 0.46523(12)
C3B C 0.47678(14) -0.0246(2) 0.40030(12)
C4B C 0.58653(14) -0.0438(2) 0.43510(12)
C5B C 0.66954(14) -0.0903(2) 0.37231(12)
C6B C 0.65194(14) -0.0656(2) 0.27076(12)
C7B C 0.73896(15) -0.0449(2) 0.20571(13)
H1B H 0.8112 -0.0669 0.2264
C8B C 0.72098(16) 0.0064(2) 0.11319(13)
H2B H 0.7805 0.0165 0.0704
C9B C 0.61624(16) 0.0435(2) 0.08181(13)
H3B H 0.6045 0.0822 0.0184
C10B C 0.53007(15) 0.0240(2) 0.14292(12)
H4B H 0.4589 0.0507 0.1212
C11B C 0.54482(14) -0.0348(2) 0.23732(12)
C12B C 0.45482(14) -0.0434(2) 0.30309(12)
C13B C 0.34381(14) -0.0754(2) 0.27389(12)
C14B C 0.31984(15) -0.1565(2) 0.18649(12)
H5B H 0.3771 -0.1790 0.1429
C15B C 0.21579(15) -0.2036(2) 0.16307(13)
H6B H 0.2011 -0.2544 0.1030
C16B C 0.13174(15) -0.1765(2) 0.22807(13)
H7B H 0.0598 -0.2107 0.2125
C17B C 0.15239(15) -0.1007(2) 0.31435(13)
H8B H 0.0946 -0.0857 0.3584
C18B C 0.25798(14) -0.0445(2) 0.33905(12)
C19B C 0.20414(14) 0.1154(2) 0.48996(12)
C20B C 0.10743(15) 0.1845(2) 0.45152(13)
H9B H 0.0895 0.1621 0.3867
C21B C 0.03894(15) 0.2825(2) 0.50476(14)
H10B H -0.0270 0.3230 0.4777
C22B C 0.77047(14) -0.1524(2) 0.41275(12)
C23B C 0.84003(14) -0.2601(2) 0.36146(13)
H11B H 0.8216 -0.2901 0.2977
C24B C 0.93384(14) -0.3231(2) 0.40102(13)
H12B H 0.9801 -0.3940 0.3645
loop_
_geom_bond_atom_site_label_1
_geom_bond_atom_site_label_2
_geom_bond_site_symmetry_1
_geom_bond_site_symmetry_2
C1 C2 1_555 1_555
C2 C3 1_555 1_555
C3 C4 1_555 1_555
C4 C5 1_555 1_555
C5 C6 1_555 1_555
C6 C7 1_555 1_555
C7 H1 1_555 1_555
C8 C7 1_555 1_555
H2 C8 1_555 1_555
C9 C8 1_555 1_555
H3 C9 1_555 1_555
C10 C9 1_555 1_555
H4 C10 1_555 1_555
C11 C6 1_555 1_555
C12 C3 1_555 1_555
C13 C12 1_555 1_555
C14 C13 1_555 1_555
H5 C14 1_555 1_555
C15 C14 1_555 1_555
H6 C15 1_555 1_555
C16 C15 1_555 1_555
H7 C16 1_555 1_555
C17 C16 1_555 1_555
H8 C17 1_555 1_555
C18 C1 1_555 1_555
C19 C1 1_555 1_555
C20 C19 1_555 1_555
H9 C20 1_555 1_555
C21 C20 1_555 1_555
H10 C21 1_555 1_555
C22 C5 1_555 1_555
C23 C22 1_555 1_555
H11 C23 1_555 1_555
C24 C23 1_555 1_555
H12 C24 1_555 1_555
C1B C2B 1_555 1_555
C2B C4 1_555 1_555
C3B C2B 1_555 1_555
C4B C2 1_555 1_555
C5B C4B 1_555 1_555
C6B C5B 1_555 1_555
C7B C6B 1_555 1_555
H1B C7B 1_555 1_555
C8B C7B 1_555 1_555
H2B C8B 1_555 1_555
C9B C8B 1_555 1_555
H3B C9B 1_555 1_555
C10B C9B 1_555 1_555
H4B C10B 1_555 1_555
C11B C6B 1_555 1_555
C12B C3B 1_555 1_555
C13B C12B 1_555 1_555
C14B C13B 1_555 1_555
H5B C14B 1_555 1_555
C15B C14B 1_555 1_555
H6B C15B 1_555 1_555
C16B C15B 1_555 1_555
H7B C16B 1_555 1_555
C17B C16B 1_555 1_555
H8B C17B 1_555 1_555
C18B C1B 1_555 1_555
C19B C22 1_555 1_555
C20B C19B 1_555 1_555
H9B C20B 1_555 1_555
C21B C24 1_555 1_555
H10B C21B 1_555 1_555
C22B C19 1_555 1_555
C23B C22B 1_555 1_555
H11B C23B 1_555 1_555
C24B C21 1_555 1_555
H12B C24B 1_555 1_555
C10 C11 1_555 1_555
C11 C12 1_555 1_555
C13 C18 1_555 1_555
C17 C18 1_555 1_555
C1B C19B 1_555 1_555
C3B C4B 1_555 1_555
C5B C22B 1_555 1_555
C10B C11B 1_555 1_555
C11B C12B 1_555 1_555
C13B C18B 1_555 1_555
C17B C18B 1_555 1_555
C20B C21B 1_555 1_555
C23B C24B 1_555 1_555

#END
