
#######################################################################
#
#                 Cambridge Crystallographic Data Centre
#                                CCDC 
#
#######################################################################
#
# If this CIF has been generated from an entry in the Cambridge 
# Structural Database, then it will include bibliographic, chemical, 
# crystal, experimental, refinement or atomic coordinate data resulting 
# from the CCDC's data processing and validation procedures.
#
#######################################################################

data_GUQZAV
_chemical_formula_moiety         'C20 H20 O2'
_chemical_name_systematic        
(2,2-dimethyl-6-phenyl-3,4-dihydro-2H-pyran-5-yl)(phenyl)methanone
_symmetry_cell_setting           monoclinic
_symmetry_space_group_name_H-M   'P 21'
_symmetry_Int_Tables_number      4
_space_group_name_Hall           'P 2yb'
loop_
_symmetry_equiv_pos_site_id
_symmetry_equiv_pos_as_xyz
1 x,y,z
2 -x,1/2+y,-z
_cell_length_a                   6.7885(14)
_cell_length_b                   15.896(3)
_cell_length_c                   7.7042(16)
_cell_angle_alpha                90
_cell_angle_beta                 96.326(4)
_cell_angle_gamma                90
_cell_volume                     826.298
_exptl_crystal_colour            colorless
_cell_formula_units_Z            2
loop_
_atom_site_label
_atom_site_type_symbol
_atom_site_fract_x
_atom_site_fract_y
_atom_site_fract_z
O1 O 0.2600(3) 0.63390(19) 0.1709(4)
O2 O 0.7279(3) 0.42179(13) 0.3288(3)
C1 C 0.8134(7) 0.8295(2) 0.3411(6)
H1 H 0.8954 0.8758 0.3666
C2 C 0.6204(7) 0.8318(2) 0.3757(5)
H2 H 0.5713 0.8798 0.4250
C3 C 0.4978(5) 0.7635(2) 0.3382(5)
H3 H 0.3657 0.7661 0.3595
C4 C 0.5706(4) 0.69108(17) 0.2688(4)
C5 C 0.4344(4) 0.6190(2) 0.2229(4)
C6 C 0.5063(4) 0.5312(2) 0.2220(4)
C7 C 0.6505(4) 0.50062(17) 0.3384(4)
C8 C 0.7399(4) 0.54228(16) 0.4998(4)
C9 C 0.9431(4) 0.54010(19) 0.5440(4)
H4 H 1.0233 0.5126 0.4717
C10 C 1.0273(5) 0.5786(2) 0.6950(4)
H5 H 1.1642 0.5780 0.7226
C11 C 0.9102(5) 0.6175(2) 0.8040(4)
H6 H 0.9673 0.6432 0.9058
C12 C 0.6775(5) 0.37450(19) 0.1660(4)
C13 C 0.4589(5) 0.3837(2) 0.1147(5)
H7 H 0.3874 0.3612 0.2066
H8 H 0.4212 0.3516 0.0093
C14 C 0.4021(5) 0.4749(2) 0.0833(5)
H9 H 0.4366 0.4921 -0.0304
H10 H 0.2599 0.4809 0.0830
C15 C 0.7345(7) 0.2847(2) 0.2173(6)
H11 H 0.6512 0.2648 0.3016
H12 H 0.8704 0.2832 0.2672
H13 H 0.7178 0.2494 0.1157
C16 C 0.8027(6) 0.4082(3) 0.0308(6)
H14 H 0.9403 0.3988 0.0693
H15 H 0.7793 0.4675 0.0157
H16 H 0.7679 0.3798 -0.0782
C17 C 0.7094(5) 0.6187(2) 0.7634(4)
H17 H 0.6298 0.6448 0.8381
C18 C 0.6243(4) 0.5812(2) 0.6117(4)
H18 H 0.4873 0.5823 0.5849
C19 C 0.7658(4) 0.68965(18) 0.2349(4)
H19 H 0.8170 0.6414 0.1886
C20 C 0.8854(6) 0.7588(2) 0.2688(6)
H20 H 1.0158 0.7575 0.2425
loop_
_geom_bond_atom_site_label_1
_geom_bond_atom_site_label_2
_geom_bond_site_symmetry_1
_geom_bond_site_symmetry_2
O1 C5 1_555 1_555
O2 C7 1_555 1_555
C1 H1 1_555 1_555
C2 C1 1_555 1_555
H2 C2 1_555 1_555
C3 C2 1_555 1_555
H3 C3 1_555 1_555
C4 C3 1_555 1_555
C5 C4 1_555 1_555
C6 C5 1_555 1_555
C7 C6 1_555 1_555
C8 C7 1_555 1_555
C9 C8 1_555 1_555
H4 C9 1_555 1_555
C10 C9 1_555 1_555
H5 C10 1_555 1_555
C11 C10 1_555 1_555
H6 C11 1_555 1_555
C12 O2 1_555 1_555
C13 C12 1_555 1_555
H7 C13 1_555 1_555
H8 C13 1_555 1_555
C14 C6 1_555 1_555
H9 C14 1_555 1_555
H10 C14 1_555 1_555
C15 C12 1_555 1_555
H11 C15 1_555 1_555
H12 C15 1_555 1_555
H13 C15 1_555 1_555
C16 C12 1_555 1_555
H14 C16 1_555 1_555
H15 C16 1_555 1_555
H16 C16 1_555 1_555
C17 C11 1_555 1_555
H17 C17 1_555 1_555
C18 C8 1_555 1_555
H18 C18 1_555 1_555
C19 C4 1_555 1_555
H19 C19 1_555 1_555
C20 C1 1_555 1_555
H20 C20 1_555 1_555
C13 C14 1_555 1_555
C17 C18 1_555 1_555
C19 C20 1_555 1_555

#END
