
#######################################################################
#
#                 Cambridge Crystallographic Data Centre
#                                CCDC 
#
#######################################################################
#
# If this CIF has been generated from an entry in the Cambridge 
# Structural Database, then it will include bibliographic, chemical, 
# crystal, experimental, refinement or atomic coordinate data resulting 
# from the CCDC's data processing and validation procedures.
#
#######################################################################

data_GURHIL
_chemical_formula_moiety         'C15 H15 N3 O2 S1'
_chemical_name_systematic        
2-(2-Methoxybenzoyl)-N-phenylhydrazinecarbothioamide
_symmetry_cell_setting           triclinic
_symmetry_space_group_name_H-M   'P -1'
_symmetry_Int_Tables_number      2
_space_group_name_Hall           '-P 1'
loop_
_symmetry_equiv_pos_site_id
_symmetry_equiv_pos_as_xyz
1 x,y,z
2 -x,-y,-z
_cell_length_a                   10.439(3)
_cell_length_b                   11.681(3)
_cell_length_c                   12.527(3)
_cell_angle_alpha                96.413(5)
_cell_angle_beta                 108.390(5)
_cell_angle_gamma                95.946(5)
_cell_volume                     1424.74
_cell_formula_units_Z            4
loop_
_atom_site_label
_atom_site_type_symbol
_atom_site_fract_x
_atom_site_fract_y
_atom_site_fract_z
S1 S 0.68276(7) 0.29110(6) 0.17346(5)
O1 O 0.56295(17) 0.48904(15) -0.17223(14)
N1 N 0.4339(2) 0.20623(17) 0.02198(16)
H1 H 0.3727 0.2168 -0.0392
N2 N 0.5494(2) 0.35356(18) -0.02106(17)
H2 H 0.4788 0.3481 -0.0808
N3 N 0.6599(2) 0.43657(18) -0.00361(17)
H3 H 0.7278 0.4466 0.0588
O2 O 0.88248(18) 0.56347(16) 0.12779(14)
C1 C 0.6608(2) 0.5009(2) -0.08362(19)
C2 C 0.5514(2) 0.2810(2) 0.05479(19)
C3 C 0.7994(3) 0.6286(2) -0.1587(2)
H4 H 0.7263 0.6131 -0.2265
C4 C 0.7870(2) 0.58226(19) -0.06474(19)
C5 C 0.3972(2) 0.1128(2) 0.07422(19)
C6 C 0.4429(3) -0.0490(2) 0.1720(2)
H5 H 0.5042 -0.0961 0.2084
C7 C 0.8969(2) 0.6096(2) 0.0368(2)
C8 C 0.2620(3) 0.0886(2) 0.0645(2)
H6 H 0.2002 0.1352 0.0276
C9 C 0.4886(3) 0.0434(2) 0.1275(2)
H7 H 0.5800 0.0587 0.1335
C10 C 1.0236(3) 0.7218(2) -0.0535(3)
H8 H 1.1034 0.7680 -0.0499
C11 C 0.9166(3) 0.6967(2) -0.1544(2)
H9 H 0.9236 0.7256 -0.2189
C12 C 0.3088(3) -0.0724(2) 0.1633(2)
H10 H 0.2794 -0.1347 0.1942
C13 C 1.0139(3) 0.6794(2) 0.0415(2)
H11 H 1.0865 0.6978 0.1095
C14 C 0.9953(3) 0.5788(3) 0.2304(2)
H12 H 0.9691 0.5406 0.2859
H13 H 1.0232 0.6604 0.2587
H14 H 1.0697 0.5458 0.2158
C15 C 0.2175(3) -0.0038(2) 0.1089(2)
H15 H 0.1259 -0.0199 0.1022
S2 S 1.17852(7) 0.44676(7) 0.45192(6)
O3 O 1.32292(18) 0.25656(16) 0.79833(15)
N4 N 1.3089(2) 0.40819(18) 0.65640(17)
H16 H 1.3728 0.4255 0.7213
N5 N 1.4091(2) 0.56215(17) 0.60904(16)
H17 H 1.4651 0.5637 0.6765
O4 O 0.96322(17) 0.21114(15) 0.53546(14)
N6 N 1.2119(2) 0.31281(17) 0.63587(17)
H18 H 1.1434 0.3001 0.5738
C16 C 1.3043(2) 0.4744(2) 0.57530(19)
C17 C 1.2226(2) 0.2406(2) 0.7103(2)
C18 C 1.4422(2) 0.6519(2) 0.55202(19)
C19 C 0.9870(3) 0.1257(2) 0.6003(2)
C20 C 1.5152(2) 0.7539(2) 0.6185(2)
H19 H 1.5397 0.7608 0.6973
C21 C 1.4106(3) 0.6409(2) 0.4357(2)
H20 H 1.3638 0.5713 0.3899
C22 C 1.1144(2) 0.1398(2) 0.6853(2)
C23 C 1.1429(3) 0.0538(2) 0.7530(2)
H21 H 1.2272 0.0621 0.8100
C24 C 1.0492(3) -0.0438(2) 0.7381(3)
H22 H 1.0705 -0.1012 0.7839
C25 C 1.5526(3) 0.8459(2) 0.5700(2)
H23 H 1.6005 0.9152 0.6157
C26 C 1.4487(3) 0.7331(2) 0.3877(2)
H24 H 1.4261 0.7257 0.3090
C27 C 1.5190(3) 0.8352(2) 0.4535(2)
H25 H 1.5440 0.8971 0.4200
C28 C 0.8922(3) 0.0284(2) 0.5877(2)
H26 H 0.8062 0.0202 0.5330
C29 C 0.8295(3) 0.2091(3) 0.4579(2)
H27 H 0.8280 0.2748 0.4181
H28 H 0.7661 0.2125 0.4991
H29 H 0.8041 0.1385 0.4042
C30 C 0.9249(3) -0.0555(3) 0.6552(3)
H30 H 0.8615 -0.1215 0.6446
loop_
_geom_bond_atom_site_label_1
_geom_bond_atom_site_label_2
_geom_bond_site_symmetry_1
_geom_bond_site_symmetry_2
S1 C2 1_555 1_555
O1 C1 1_555 1_555
N1 H1 1_555 1_555
N2 H2 1_555 1_555
N3 N2 1_555 1_555
H3 N3 1_555 1_555
O2 C7 1_555 1_555
C1 N3 1_555 1_555
C2 N1 1_555 1_555
C3 H4 1_555 1_555
C4 C1 1_555 1_555
C5 N1 1_555 1_555
C6 H5 1_555 1_555
C7 C4 1_555 1_555
C8 C5 1_555 1_555
H6 C8 1_555 1_555
C9 C5 1_555 1_555
H7 C9 1_555 1_555
C10 H8 1_555 1_555
C11 C3 1_555 1_555
H9 C11 1_555 1_555
C12 C6 1_555 1_555
H10 C12 1_555 1_555
C13 C7 1_555 1_555
H11 C13 1_555 1_555
C14 O2 1_555 1_555
H12 C14 1_555 1_555
H13 C14 1_555 1_555
H14 C14 1_555 1_555
C15 C8 1_555 1_555
H15 C15 1_555 1_555
S2 C16 1_555 1_555
O3 C17 1_555 1_555
N4 H16 1_555 1_555
N5 H17 1_555 1_555
O4 C19 1_555 1_555
N6 N4 1_555 1_555
H18 N6 1_555 1_555
C16 N4 1_555 1_555
C17 N6 1_555 1_555
C18 N5 1_555 1_555
C19 C22 1_555 1_555
C20 C18 1_555 1_555
H19 C20 1_555 1_555
C21 C18 1_555 1_555
H20 C21 1_555 1_555
C22 C17 1_555 1_555
C23 C22 1_555 1_555
H21 C23 1_555 1_555
C24 C23 1_555 1_555
H22 C24 1_555 1_555
C25 C20 1_555 1_555
H23 C25 1_555 1_555
C26 C21 1_555 1_555
H24 C26 1_555 1_555
C27 C25 1_555 1_555
H25 C27 1_555 1_555
C28 C19 1_555 1_555
H26 C28 1_555 1_555
C29 O4 1_555 1_555
H27 C29 1_555 1_555
H28 C29 1_555 1_555
H29 C29 1_555 1_555
C30 C24 1_555 1_555
H30 C30 1_555 1_555
N2 C2 1_555 1_555
C3 C4 1_555 1_555
C6 C9 1_555 1_555
C10 C11 1_555 1_555
C10 C13 1_555 1_555
C12 C15 1_555 1_555
N5 C16 1_555 1_555
C26 C27 1_555 1_555
C28 C30 1_555 1_555

#END
