
#######################################################################
#
#                 Cambridge Crystallographic Data Centre
#                                CCDC 
#
#######################################################################
#
# If this CIF has been generated from an entry in the Cambridge 
# Structural Database, then it will include bibliographic, chemical, 
# crystal, experimental, refinement or atomic coordinate data resulting 
# from the CCDC's data processing and validation procedures.
#
#######################################################################

data_GURJOU
_chemical_formula_moiety         'C13 H20 B10 O2'
_chemical_name_systematic        
1,4-(([1-phenylbut-1-en-1-yl]oxy)carbonyl)-1,2-dicarbadodecaborane
_symmetry_cell_setting           triclinic
_symmetry_space_group_name_H-M   'P -1'
_symmetry_Int_Tables_number      2
_space_group_name_Hall           '-P 1'
loop_
_symmetry_equiv_pos_site_id
_symmetry_equiv_pos_as_xyz
1 x,y,z
2 -x,-y,-z
_cell_length_a                   6.6623(4)
_cell_length_b                   11.3564(7)
_cell_length_c                   12.8542(8)
_cell_angle_alpha                69.3760(10)
_cell_angle_beta                 75.6860(10)
_cell_angle_gamma                78.9450(10)
_cell_volume                     876.066
_exptl_crystal_colour            colorless
_exptl_crystal_description       block
_cell_formula_units_Z            2
loop_
_atom_site_label
_atom_site_type_symbol
_atom_site_fract_x
_atom_site_fract_y
_atom_site_fract_z
C1 C 0.2416(2) 0.14167(13) 0.29050(11)
C2 C 0.2244(2) 0.07763(14) 0.19786(12)
H1 H 0.2271 -0.0254 0.2203
C3 C 0.2568(2) 0.05547(13) 0.40790(12)
O1 O 0.16562(17) 0.10221(9) 0.49243(8)
C4 C 0.0524(2) 0.22406(13) 0.48536(12)
C5 C -0.0050(2) 0.22959(13) 0.60281(12)
C6 C 0.1445(3) 0.19151(16) 0.67055(13)
H2 H 0.2803 0.1632 0.6419
C7 C 0.0914(3) 0.19561(18) 0.78027(15)
H3 H 0.1921 0.1698 0.8252
C8 C -0.1078(3) 0.23735(18) 0.82358(14)
H4 H -0.1418 0.2410 0.8971
C9 C -0.2572(3) 0.27383(17) 0.75778(14)
H5 H -0.3929 0.3016 0.7872
C10 C -0.2067(3) 0.26946(15) 0.64806(13)
H6 H -0.3090 0.2935 0.6044
C11 C 0.0150(2) 0.31174(13) 0.38915(12)
C12 C -0.0955(3) 0.44148(15) 0.38656(14)
H7 H -0.0128 0.5048 0.3292
H8 H -0.1042 0.4522 0.4592
C13 C -0.3129(3) 0.4651(2) 0.36187(19)
H9 H -0.3739 0.5488 0.3619
H10 H -0.3970 0.4040 0.4191
H11 H -0.3056 0.4573 0.2890
B1 B 0.0025(3) 0.15900(16) 0.25477(14)
H12 H -0.1365 0.1161 0.3107
B2 B 0.1001(2) 0.28401(15) 0.27441(13)
B3 B 0.3775(3) 0.26939(17) 0.22927(15)
H13 H 0.4783 0.2988 0.2696
B4 B 0.4552(3) 0.13372(19) 0.18388(15)
H14 H 0.6044 0.0743 0.1954
B5 B 0.0676(3) 0.17463(18) 0.10889(15)
H15 H -0.0312 0.1420 0.0699
B6 B -0.0117(3) 0.31129(17) 0.15360(14)
H16 H -0.1623 0.3694 0.1431
B7 B 0.2189(3) 0.38023(17) 0.13773(14)
H17 H 0.2167 0.4830 0.1171
B8 B 0.4387(3) 0.28545(19) 0.08326(16)
H18 H 0.5790 0.3268 0.0273
B9 B 0.3430(3) 0.15917(18) 0.06583(15)
H19 H 0.4210 0.1168 -0.0008
B10 B 0.1980(3) 0.31179(18) 0.03614(15)
H20 H 0.1825 0.3705 -0.0508
O2 O 0.34238(18) -0.05015(10) 0.42819(9)
loop_
_geom_bond_atom_site_label_1
_geom_bond_atom_site_label_2
_geom_bond_site_symmetry_1
_geom_bond_site_symmetry_2
C1 C2 1_555 1_555
C2 H1 1_555 1_555
C3 C1 1_555 1_555
O1 C3 1_555 1_555
C4 O1 1_555 1_555
C5 C4 1_555 1_555
C6 C5 1_555 1_555
H2 C6 1_555 1_555
C7 C6 1_555 1_555
H3 C7 1_555 1_555
C8 C7 1_555 1_555
H4 C8 1_555 1_555
C9 C8 1_555 1_555
H5 C9 1_555 1_555
C10 C5 1_555 1_555
H6 C10 1_555 1_555
C11 C4 1_555 1_555
C12 C11 1_555 1_555
H7 C12 1_555 1_555
H8 C12 1_555 1_555
C13 C12 1_555 1_555
H9 C13 1_555 1_555
H10 C13 1_555 1_555
H11 C13 1_555 1_555
B1 C1 1_555 1_555
H12 B1 1_555 1_555
B2 C1 1_555 1_555
B3 C1 1_555 1_555
H13 B3 1_555 1_555
B4 C1 1_555 1_555
H14 B4 1_555 1_555
B5 C2 1_555 1_555
H15 B5 1_555 1_555
B6 B1 1_555 1_555
H16 B6 1_555 1_555
B7 B2 1_555 1_555
H17 B7 1_555 1_555
B8 B3 1_555 1_555
H18 B8 1_555 1_555
B9 C2 1_555 1_555
H19 B9 1_555 1_555
B10 B5 1_555 1_555
H20 B10 1_555 1_555
O2 C3 1_555 1_555
C2 B1 1_555 1_555
C2 B4 1_555 1_555
C9 C10 1_555 1_555
C11 B2 1_555 1_555
B1 B2 1_555 1_555
B1 B5 1_555 1_555
B2 B3 1_555 1_555
B2 B6 1_555 1_555
B3 B4 1_555 1_555
B3 B7 1_555 1_555
B4 B8 1_555 1_555
B4 B9 1_555 1_555
B5 B6 1_555 1_555
B5 B9 1_555 1_555
B6 B7 1_555 1_555
B6 B10 1_555 1_555
B7 B8 1_555 1_555
B7 B10 1_555 1_555
B8 B9 1_555 1_555
B8 B10 1_555 1_555
B9 B10 1_555 1_555

#END
