
#######################################################################
#
#                 Cambridge Crystallographic Data Centre
#                                CCDC 
#
#######################################################################
#
# If this CIF has been generated from an entry in the Cambridge 
# Structural Database, then it will include bibliographic, chemical, 
# crystal, experimental, refinement or atomic coordinate data resulting 
# from the CCDC's data processing and validation procedures.
#
#######################################################################

data_GURJIO
_chemical_formula_moiety         'C22 H30 B10 O4'
_chemical_name_systematic        
4-(1,2-bis[4-(methoxycarbonyl)phenyl]ethenyl)-1,2-dicarbadodecaborane
_symmetry_cell_setting           monoclinic
_symmetry_space_group_name_H-M   'P 21/c'
_symmetry_Int_Tables_number      14
_space_group_name_Hall           '-P 2ybc'
loop_
_symmetry_equiv_pos_site_id
_symmetry_equiv_pos_as_xyz
1 x,y,z
2 -x,1/2+y,1/2-z
3 -x,-y,-z
4 x,1/2-y,1/2+z
_cell_length_a                   10.3898(10)
_cell_length_b                   28.770(3)
_cell_length_c                   9.6471(10)
_cell_angle_alpha                90
_cell_angle_beta                 117.068(2)
_cell_angle_gamma                90
_cell_volume                     2567.8
_exptl_crystal_colour            colorless
_exptl_crystal_description       block
_cell_formula_units_Z            4
loop_
_atom_site_label
_atom_site_type_symbol
_atom_site_fract_x
_atom_site_fract_y
_atom_site_fract_z
B1 B -0.1269(4) -0.12769(12) 0.0782(5)
H1 H -0.2048 -0.1059 -0.0165
B2 B 0.0126(4) -0.10150(11) 0.2385(4)
B3 B 0.0425(5) -0.13911(13) 0.3972(5)
H2 H 0.0801 -0.1251 0.5154
B4 B -0.0785(6) -0.18556(14) 0.3312(6)
H3 H -0.1211 -0.2019 0.4050
B5 B -0.0763(5) -0.18180(14) 0.0360(5)
H4 H -0.1178 -0.1956 -0.0828
B6 B 0.0477(5) -0.13484(13) 0.1028(5)
H5 H 0.0886 -0.1183 0.0277
B7 B 0.1559(4) -0.14279(13) 0.3049(5)
H6 H 0.2694 -0.1314 0.3631
B8 B 0.0980(5) -0.19439(13) 0.3615(5)
H7 H 0.1734 -0.2166 0.4565
B9 B -0.0452(5) -0.21817(13) 0.1949(5)
H8 H -0.0666 -0.2557 0.1786
B10 B 0.1010(5) -0.19185(13) 0.1809(5)
H9 H 0.1785 -0.2124 0.1579
O1 O -0.5041(3) 0.15065(11) 0.1219(4)
O2 O -0.2992(3) 0.13392(8) 0.1175(3)
O3 O 0.4300(4) 0.15151(10) 0.7009(3)
O4 O 0.4469(3) 0.22105(8) 0.6132(3)
C1 C -0.1265(4) -0.13084(12) 0.2508(5)
H10 H -0.2059 -0.1106 0.2717
C2 C -0.1735(4) -0.17625(12) 0.1383(5)
H11 H -0.2874 -0.1872 0.0820
C3 C 0.0229(3) -0.04703(10) 0.2514(3)
C4 C -0.1116(3) -0.01880(9) 0.1958(3)
C5 C -0.1788(4) -0.01056(11) 0.2884(4)
H12 H -0.1440 -0.0248 0.3853
C6 C -0.2974(4) 0.01867(12) 0.2383(4)
H13 H -0.3413 0.0236 0.3023
C7 C -0.3515(3) 0.04043(10) 0.0968(4)
C8 C -0.2887(3) 0.03044(11) 0.0016(4)
H14 H -0.3264 0.0437 -0.0970
C9 C -0.1708(3) 0.00117(11) 0.0498(4)
H15 H -0.1308 -0.0052 -0.0170
C10 C -0.4736(4) 0.07525(12) 0.0467(5)
H16 H -0.5252 0.0755 -0.0661
H17 H -0.5406 0.0649 0.0848
C11 C -0.4280(4) 0.12347(12) 0.1017(4)
C12 C -0.2448(5) 0.18012(13) 0.1649(5)
H18 H -0.1502 0.1826 0.1713
H19 H -0.2395 0.1866 0.2650
H20 H -0.3084 0.2021 0.0902
C13 C 0.1540(3) -0.02708(10) 0.3073(3)
H21 H 0.2294 -0.0482 0.3347
C14 C 0.2012(3) 0.02157(10) 0.3334(3)
C15 C 0.1168(4) 0.05962(10) 0.3274(4)
H22 H 0.0199 0.0553 0.3022
C16 C 0.1753(4) 0.10428(11) 0.3586(4)
H23 H 0.1163 0.1292 0.3537
C17 C 0.3181(4) 0.11240(10) 0.3965(4)
C18 C 0.4012(4) 0.07487(12) 0.3982(4)
H24 H 0.4974 0.0795 0.4209
C19 C 0.3444(4) 0.03076(11) 0.3669(4)
H25 H 0.4032 0.0062 0.3680
C20 C 0.3809(4) 0.16070(11) 0.4347(4)
H26 H 0.4661 0.1620 0.4181
H27 H 0.3109 0.1825 0.3634
C21 C 0.4212(4) 0.17557(11) 0.5970(4)
C22 C 0.4903(5) 0.24053(15) 0.7646(5)
H28 H 0.5064 0.2733 0.7617
H29 H 0.5780 0.2259 0.8380
H30 H 0.4157 0.2355 0.7955
loop_
_geom_bond_atom_site_label_1
_geom_bond_atom_site_label_2
_geom_bond_site_symmetry_1
_geom_bond_site_symmetry_2
B1 H1 1_555 1_555
B2 B1 1_555 1_555
B3 B2 1_555 1_555
H2 B3 1_555 1_555
B4 B3 1_555 1_555
H3 B4 1_555 1_555
B5 B1 1_555 1_555
H4 B5 1_555 1_555
B6 B1 1_555 1_555
H5 B6 1_555 1_555
B7 B2 1_555 1_555
H6 B7 1_555 1_555
B8 B3 1_555 1_555
H7 B8 1_555 1_555
B9 B4 1_555 1_555
H8 B9 1_555 1_555
B10 B5 1_555 1_555
H9 B10 1_555 1_555
O1 C11 1_555 1_555
O2 C11 1_555 1_555
O3 C21 1_555 1_555
O4 C21 1_555 1_555
C1 B1 1_555 1_555
H10 C1 1_555 1_555
C2 B1 1_555 1_555
H11 C2 1_555 1_555
C3 B2 1_555 1_555
C4 C3 1_555 1_555
C5 C4 1_555 1_555
H12 C5 1_555 1_555
C6 C5 1_555 1_555
H13 C6 1_555 1_555
C7 C6 1_555 1_555
C8 C7 1_555 1_555
H14 C8 1_555 1_555
C9 C4 1_555 1_555
H15 C9 1_555 1_555
C10 C7 1_555 1_555
H16 C10 1_555 1_555
H17 C10 1_555 1_555
C11 C10 1_555 1_555
C12 O2 1_555 1_555
H18 C12 1_555 1_555
H19 C12 1_555 1_555
H20 C12 1_555 1_555
C13 C3 1_555 1_555
H21 C13 1_555 1_555
C14 C13 1_555 1_555
C15 C14 1_555 1_555
H22 C15 1_555 1_555
C16 C15 1_555 1_555
H23 C16 1_555 1_555
C17 C16 1_555 1_555
C18 C17 1_555 1_555
H24 C18 1_555 1_555
C19 C14 1_555 1_555
H25 C19 1_555 1_555
C20 C17 1_555 1_555
H26 C20 1_555 1_555
H27 C20 1_555 1_555
C21 C20 1_555 1_555
C22 O4 1_555 1_555
H28 C22 1_555 1_555
H29 C22 1_555 1_555
H30 C22 1_555 1_555
B2 B6 1_555 1_555
B2 C1 1_555 1_555
B3 B7 1_555 1_555
B3 C1 1_555 1_555
B4 B8 1_555 1_555
B4 C1 1_555 1_555
B4 C2 1_555 1_555
B5 B6 1_555 1_555
B5 B9 1_555 1_555
B5 C2 1_555 1_555
B6 B7 1_555 1_555
B6 B10 1_555 1_555
B7 B8 1_555 1_555
B7 B10 1_555 1_555
B8 B9 1_555 1_555
B8 B10 1_555 1_555
B9 B10 1_555 1_555
B9 C2 1_555 1_555
C1 C2 1_555 1_555
C8 C9 1_555 1_555
C18 C19 1_555 1_555

#END
