
#######################################################################
#
#                 Cambridge Crystallographic Data Centre
#                                CCDC 
#
#######################################################################
#
# If this CIF has been generated from an entry in the Cambridge 
# Structural Database, then it will include bibliographic, chemical, 
# crystal, experimental, refinement or atomic coordinate data resulting 
# from the CCDC's data processing and validation procedures.
#
#######################################################################

data_GURSUJ
_chemical_formula_moiety         'C22 H26 O1'
_chemical_name_systematic        
1-(1-methyl-4-phenylcyclohexyl)-3-phenylpropan-1-one
_symmetry_cell_setting           monoclinic
_symmetry_space_group_name_H-M   'P 21/n'
_symmetry_Int_Tables_number      14
_space_group_name_Hall           '-P 2yn'
loop_
_symmetry_equiv_pos_site_id
_symmetry_equiv_pos_as_xyz
1 x,y,z
2 1/2-x,1/2+y,1/2-z
3 -x,-y,-z
4 1/2+x,1/2-y,1/2+z
_cell_length_a                   10.7302(10)
_cell_length_b                   10.1147(9)
_cell_length_c                   16.0345(15)
_cell_angle_alpha                90
_cell_angle_beta                 90.386(2)
_cell_angle_gamma                90
_cell_volume                     1740.23
_exptl_crystal_colour            colorless
_exptl_crystal_description       block
_cell_formula_units_Z            4
loop_
_atom_site_label
_atom_site_type_symbol
_atom_site_fract_x
_atom_site_fract_y
_atom_site_fract_z
O1 O 0.44434(11) 0.69883(13) 0.02568(8)
C1 C 0.30129(14) 0.39507(15) 0.26342(10)
H1 H 0.2425 0.4653 0.2620
C2 C 0.29998(17) 0.30617(18) 0.32906(11)
H2 H 0.2403 0.3154 0.3722
C3 C 0.38558(18) 0.20384(18) 0.33182(11)
H3 H 0.3867 0.1445 0.3777
C4 C 0.46890(16) 0.18857(17) 0.26794(12)
H4 H 0.5260 0.1168 0.2688
C5 C 0.46984(14) 0.27718(15) 0.20256(10)
H5 H 0.5279 0.2656 0.1587
C6 C 0.38747(12) 0.38291(14) 0.19968(9)
C7 C 0.39605(14) 0.48460(16) 0.13146(10)
H6 H 0.4067 0.4390 0.0773
H7 H 0.3171 0.5350 0.1288
C8 C 0.5005(2) 0.5775(2) 0.14439(12)
H8 H 0.5782 0.5250 0.1487
H9 H 0.4884 0.6215 0.1989
C9 C 0.52031(12) 0.68276(14) 0.08036(8)
C10 C 0.63745(12) 0.76780(13) 0.08732(8)
C11 C 0.64821(14) 0.85917(14) 0.01165(8)
H10 H 0.6620 0.8049 -0.0388
H11 H 0.5686 0.9074 0.0040
C12 C 0.75398(15) 0.95900(14) 0.02028(8)
H12 H 0.7535 1.0182 -0.0289
H13 H 0.8346 0.9113 0.0212
C13 C 0.74287(13) 1.04255(14) 0.09971(9)
H14 H 0.6631 1.0934 0.0958
C14 C 0.73404(14) 0.95084(16) 0.17550(9)
H15 H 0.8135 0.9021 0.1821
H16 H 0.7217 1.0048 0.2263
C15 C 0.62720(14) 0.85176(16) 0.16729(9)
H17 H 0.5470 0.9001 0.1666
H18 H 0.6276 0.7926 0.2165
C16 C 0.75071(14) 0.67469(15) 0.09111(10)
H19 H 0.7515 0.6277 0.1446
H20 H 0.8274 0.7265 0.0858
H21 H 0.7453 0.6106 0.0454
C17 C 0.84849(13) 1.14148(13) 0.10559(8)
C18 C 0.96844(13) 1.10367(14) 0.13024(9)
H22 H 0.9841 1.0140 0.1445
C19 C 1.06454(13) 1.19401(15) 0.13431(9)
H23 H 1.1450 1.1663 0.1523
C20 C 1.04475(14) 1.32453(15) 0.11250(10)
H24 H 1.1110 1.3867 0.1152
C21 C 0.92694(14) 1.36340(15) 0.08666(10)
H25 H 0.9125 1.4527 0.0710
C22 C 0.82994(14) 1.27318(15) 0.08338(10)
H26 H 0.7496 1.3015 0.0657
loop_
_geom_bond_atom_site_label_1
_geom_bond_atom_site_label_2
_geom_bond_site_symmetry_1
_geom_bond_site_symmetry_2
O1 C9 1_555 1_555
C1 H1 1_555 1_555
C2 C1 1_555 1_555
H2 C2 1_555 1_555
C3 C2 1_555 1_555
H3 C3 1_555 1_555
C4 C3 1_555 1_555
H4 C4 1_555 1_555
C5 C4 1_555 1_555
H5 C5 1_555 1_555
C6 C1 1_555 1_555
C7 C6 1_555 1_555
H6 C7 1_555 1_555
H7 C7 1_555 1_555
C8 C7 1_555 1_555
H8 C8 1_555 1_555
H9 C8 1_555 1_555
C9 C8 1_555 1_555
C10 C9 1_555 1_555
C11 C10 1_555 1_555
H10 C11 1_555 1_555
H11 C11 1_555 1_555
C12 C11 1_555 1_555
H12 C12 1_555 1_555
H13 C12 1_555 1_555
C13 C12 1_555 1_555
H14 C13 1_555 1_555
C14 C13 1_555 1_555
H15 C14 1_555 1_555
H16 C14 1_555 1_555
C15 C10 1_555 1_555
H17 C15 1_555 1_555
H18 C15 1_555 1_555
C16 C10 1_555 1_555
H19 C16 1_555 1_555
H20 C16 1_555 1_555
H21 C16 1_555 1_555
C17 C13 1_555 1_555
C18 C17 1_555 1_555
H22 C18 1_555 1_555
C19 C18 1_555 1_555
H23 C19 1_555 1_555
C20 C19 1_555 1_555
H24 C20 1_555 1_555
C21 C20 1_555 1_555
H25 C21 1_555 1_555
C22 C17 1_555 1_555
H26 C22 1_555 1_555
C5 C6 1_555 1_555
C14 C15 1_555 1_555
C21 C22 1_555 1_555

#END
