
#######################################################################
#
#                 Cambridge Crystallographic Data Centre
#                                CCDC 
#
#######################################################################
#
# If this CIF has been generated from an entry in the Cambridge 
# Structural Database, then it will include bibliographic, chemical, 
# crystal, experimental, refinement or atomic coordinate data resulting 
# from the CCDC's data processing and validation procedures.
#
#######################################################################

data_GURWOH
_chemical_formula_moiety         'C19 H22 O5'
_chemical_name_systematic        
4,4,16-trimethyl-2,10-dioxapentacyclo[13.2.1.0^1,12^.0^3,8^.0^8,12^]octadec-5-ene-7,11,17-trione
_symmetry_cell_setting           monoclinic
_symmetry_space_group_name_H-M   'P 21/c'
_symmetry_Int_Tables_number      14
_space_group_name_Hall           '-P 2ybc'
loop_
_symmetry_equiv_pos_site_id
_symmetry_equiv_pos_as_xyz
1 x,y,z
2 -x,1/2+y,1/2-z
3 -x,-y,-z
4 x,1/2-y,1/2+z
_cell_length_a                   6.6033(14)
_cell_length_b                   26.229(6)
_cell_length_c                   9.322(2)
_cell_angle_alpha                90
_cell_angle_beta                 95.630(3)
_cell_angle_gamma                90
_cell_volume                     1606.76
_exptl_crystal_colour            colorless
_exptl_crystal_description       needle
_cell_formula_units_Z            4
loop_
_atom_site_label
_atom_site_type_symbol
_atom_site_fract_x
_atom_site_fract_y
_atom_site_fract_z
C1 C 0.0661(2) 0.57881(5) 0.50543(13)
C2 C 0.0282(2) 0.53540(5) 0.29255(13)
H1 H -0.0713 0.5372 0.2061
H2 H 0.0797 0.5000 0.3031
C3 C 0.2050(2) 0.57263(4) 0.27805(12)
C4 C 0.3464(2) 0.54473(4) 0.18701(13)
C5 C 0.2583(2) 0.54279(5) 0.03383(13)
H3 H 0.3100 0.5183 -0.0281
C6 C 0.1095(2) 0.57398(5) -0.02090(13)
H4 H 0.0484 0.5663 -0.1150
C7 C 0.0294(2) 0.62026(5) 0.05284(13)
C8 C 0.1642(2) 0.62346(4) 0.19437(12)
H5 H 0.3003 0.6343 0.1668
C9 C -0.1999(2) 0.61928(5) 0.06560(14)
H6 H -0.2315 0.5917 0.1307
H7 H -0.2727 0.6136 -0.0298
H8 H -0.2422 0.6520 0.1040
C10 C 0.0757(2) 0.66664(5) -0.04075(14)
H9 H 0.0433 0.6981 0.0088
H10 H -0.0071 0.6646 -0.1338
H11 H 0.2202 0.6666 -0.0566
C11 C 0.2659(2) 0.65158(5) 0.41337(13)
C12 C 0.4769(2) 0.67232(5) 0.37977(14)
C13 C 0.6124(2) 0.67853(5) 0.51999(14)
H12 H 0.7252 0.6530 0.5238
C14 C 0.4661(2) 0.66471(5) 0.63288(13)
H13 H 0.4976 0.6853 0.7226
C15 C 0.7017(3) 0.73192(5) 0.53173(17)
H14 H 0.7772 0.7387 0.4483
H15 H 0.7939 0.7347 0.6204
H16 H 0.5916 0.7569 0.5340
C16 C 0.2551(2) 0.67989(5) 0.55590(13)
H17 H 0.1418 0.6675 0.6086
H18 H 0.2428 0.7172 0.5416
C17 C 0.4791(2) 0.60749(5) 0.66696(13)
H19 H 0.3757 0.5988 0.7331
H20 H 0.6148 0.5998 0.7173
C18 C 0.4450(2) 0.57387(5) 0.53109(13)
H21 H 0.5667 0.5753 0.4771
H22 H 0.4244 0.5380 0.5596
C19 C 0.2579(2) 0.59249(4) 0.43430(12)
O1 O 0.02230(15) 0.58945(3) 0.62446(9)
O2 O -0.06563(14) 0.55040(3) 0.41846(9)
O3 O 0.50615(15) 0.52407(3) 0.22972(9)
O4 O 0.11209(14) 0.66092(3) 0.29775(9)
O5 O 0.51632(16) 0.68848(3) 0.26454(10)
loop_
_geom_bond_atom_site_label_1
_geom_bond_atom_site_label_2
_geom_bond_site_symmetry_1
_geom_bond_site_symmetry_2
C1 C19 1_555 1_555
C2 H1 1_555 1_555
H2 C2 1_555 1_555
C3 C2 1_555 1_555
C4 C3 1_555 1_555
C5 C4 1_555 1_555
H3 C5 1_555 1_555
C6 C5 1_555 1_555
H4 C6 1_555 1_555
C7 C6 1_555 1_555
C8 C3 1_555 1_555
H5 C8 1_555 1_555
C9 C7 1_555 1_555
H6 C9 1_555 1_555
H7 C9 1_555 1_555
H8 C9 1_555 1_555
C10 C7 1_555 1_555
H9 C10 1_555 1_555
H10 C10 1_555 1_555
H11 C10 1_555 1_555
C11 C12 1_555 1_555
C12 C13 1_555 1_555
C13 H12 1_555 1_555
C14 C13 1_555 1_555
H13 C14 1_555 1_555
C15 C13 1_555 1_555
H14 C15 1_555 1_555
H15 C15 1_555 1_555
H16 C15 1_555 1_555
C16 C11 1_555 1_555
H17 C16 1_555 1_555
H18 C16 1_555 1_555
C17 C14 1_555 1_555
H19 C17 1_555 1_555
H20 C17 1_555 1_555
C18 C17 1_555 1_555
H21 C18 1_555 1_555
H22 C18 1_555 1_555
C19 C3 1_555 1_555
O1 C1 1_555 1_555
O2 C1 1_555 1_555
O3 C4 1_555 1_555
O4 C8 1_555 1_555
O5 C12 1_555 1_555
C2 O2 1_555 1_555
C7 C8 1_555 1_555
C11 C19 1_555 1_555
C11 O4 1_555 1_555
C14 C16 1_555 1_555
C18 C19 1_555 1_555

#END
