
#######################################################################
#
#                 Cambridge Crystallographic Data Centre
#                                CCDC 
#
#######################################################################
#
# If this CIF has been generated from an entry in the Cambridge 
# Structural Database, then it will include bibliographic, chemical, 
# crystal, experimental, refinement or atomic coordinate data resulting 
# from the CCDC's data processing and validation procedures.
#
#######################################################################

data_GUSGUX
_chemical_formula_moiety         'C27 H23 B1 F2 N2'
_chemical_name_systematic        
9,9-Difluoro-7,11-dimethyl-5,9,12,13-tetrahydro-6H-8\l^5^,9\l^5^-benzo[g]benzo[6',7']isoindolo[2',1':3,4][1,3,2]diazaborinino[6,1-a]isoindole
_symmetry_cell_setting           monoclinic
_symmetry_space_group_name_H-M   'C 2/c'
_symmetry_Int_Tables_number      15
_space_group_name_Hall           '-C 2yn'
loop_
_symmetry_equiv_pos_site_id
_symmetry_equiv_pos_as_xyz
1 x,y,z
2 -x,y,1/2-z
3 1/2+x,1/2+y,z
4 1/2-x,1/2+y,1/2-z
5 -x,-y,-z
6 x,-y,1/2+z
7 1/2-x,1/2-y,-z
8 1/2+x,1/2-y,1/2+z
_cell_length_a                   14.658(3)
_cell_length_b                   11.193(2)
_cell_length_c                   13.253(3)
_cell_angle_alpha                90
_cell_angle_beta                 106.679(4)
_cell_angle_gamma                90
_cell_volume                     2082.9
_exptl_crystal_colour            red
_exptl_crystal_description       block
_cell_formula_units_Z            4
loop_
_atom_site_label
_atom_site_type_symbol
_atom_site_fract_x
_atom_site_fract_y
_atom_site_fract_z
C1 C 0.59504(14) 0.81261(18) 0.94488(16)
N1 N 0.54775(11) 0.64650(14) 0.84428(13)
C2 C 0.54654(14) 0.77008(18) 0.84211(16)
C3 C 0.5000 0.8286(2) 0.7500
H1 H 0.5000 0.9117 0.7500
C4 C 0.61650(14) 0.93273(19) 0.98751(17)
F1 F 0.43307(12) 0.49425(13) 0.77393(11)
C5 C 0.62389(14) 0.71270(19) 1.00672(16)
C6 C 0.64559(15) 0.9439(2) 1.09798(18)
C7 C 0.59557(15) 0.61183(19) 0.94380(18)
C8 C 0.61328(15) 1.03533(19) 0.92750(17)
H2 H 0.5963 1.0289 0.8545
C9 C 0.67765(15) 0.7222(2) 1.12104(16)
H3 H 0.7456 0.7244 1.1293
H4 H 0.6644 0.6532 1.1588
C10 C 0.64735(16) 0.8352(2) 1.16523(17)
H5 H 0.5843 0.8232 1.1733
H6 H 0.6907 0.8497 1.2347
C11 C 0.63453(15) 1.1461(2) 0.9731(2)
H7 H 0.6302 1.2138 0.9313
C12 C 0.66827(16) 1.0559(2) 1.14174(19)
H8 H 0.6883 1.0633 1.2147
B1 B 0.5000 0.5650(4) 0.7500
C13 C 0.61387(16) 0.48375(19) 0.97389(18)
H9 H 0.5573 0.4380 0.9434
H10 H 0.6314 0.4765 1.0492
H11 H 0.6647 0.4544 0.9485
C14 C 0.66221(16) 1.1561(2) 1.0812(2)
H12 H 0.6767 1.2306 1.1129
C1A C 0.40496(14) 0.81261(18) 0.55512(16)
N1A N 0.45225(11) 0.64650(14) 0.65572(13)
C2A C 0.45346(14) 0.77008(18) 0.65789(16)
C4A C 0.38350(14) 0.93273(19) 0.51249(17)
F1A F 0.56693(12) 0.49425(13) 0.72607(11)
C5A C 0.37611(14) 0.71270(19) 0.49328(16)
C6A C 0.35441(15) 0.9439(2) 0.40202(18)
C7A C 0.40443(15) 0.61183(19) 0.55620(18)
C8A C 0.38672(15) 1.03533(19) 0.57250(17)
H2A H 0.4037 1.0289 0.6455
C9A C 0.32235(15) 0.7222(2) 0.37896(16)
H3A H 0.2544 0.7244 0.3707
H4A H 0.3356 0.6532 0.3412
C10A C 0.35265(16) 0.8352(2) 0.33477(17)
H5A H 0.4157 0.8232 0.3267
H6A H 0.3093 0.8497 0.2653
C11A C 0.36547(15) 1.1461(2) 0.5269(2)
H7A H 0.3698 1.2138 0.5687
C12A C 0.33173(16) 1.0559(2) 0.35826(19)
H8A H 0.3117 1.0633 0.2853
C13A C 0.38613(16) 0.48375(19) 0.52611(18)
H9A H 0.4427 0.4380 0.5566
H10A H 0.3686 0.4765 0.4508
H11A H 0.3353 0.4544 0.5515
C14A C 0.33779(16) 1.1561(2) 0.4188(2)
H12A H 0.3233 1.2306 0.3871
loop_
_geom_bond_atom_site_label_1
_geom_bond_atom_site_label_2
_geom_bond_site_symmetry_1
_geom_bond_site_symmetry_2
C1 C2 1_555 1_555
N1 C2 1_555 1_555
C2 C3 1_555 1_555
C3 H1 1_555 1_555
C4 C1 1_555 1_555
F1 B1 1_555 1_555
C5 C1 1_555 1_555
C6 C4 1_555 1_555
C7 N1 1_555 1_555
C8 C4 1_555 1_555
H2 C8 1_555 1_555
C9 C5 1_555 1_555
H3 C9 1_555 1_555
H4 C9 1_555 1_555
C10 C6 1_555 1_555
H5 C10 1_555 1_555
H6 C10 1_555 1_555
C11 C8 1_555 1_555
H7 C11 1_555 1_555
C12 C6 1_555 1_555
H8 C12 1_555 1_555
B1 N1 1_555 1_555
C13 C7 1_555 1_555
H9 C13 1_555 1_555
H10 C13 1_555 1_555
H11 C13 1_555 1_555
C14 C11 1_555 1_555
H12 C14 1_555 1_555
C1A C2A 1_555 1_555
N1A B1 1_555 1_555
C2A C3 1_555 1_555
C4A C1A 1_555 1_555
F1A B1 1_555 1_555
C5A C1A 1_555 1_555
C6A C4A 1_555 1_555
C7A N1A 1_555 1_555
C8A C4A 1_555 1_555
H2A C8A 1_555 1_555
C9A C5A 1_555 1_555
H3A C9A 1_555 1_555
H4A C9A 1_555 1_555
C10A C6A 1_555 1_555
H5A C10A 1_555 1_555
H6A C10A 1_555 1_555
C11A C8A 1_555 1_555
H7A C11A 1_555 1_555
C12A C6A 1_555 1_555
H8A C12A 1_555 1_555
C13A C7A 1_555 1_555
H9A C13A 1_555 1_555
H10A C13A 1_555 1_555
H11A C13A 1_555 1_555
C14A C11A 1_555 1_555
H12A C14A 1_555 1_555
C5 C7 1_555 1_555
C9 C10 1_555 1_555
C12 C14 1_555 1_555
N1A C2A 1_555 1_555
C5A C7A 1_555 1_555
C9A C10A 1_555 1_555
C12A C14A 1_555 1_555

#END
