
#######################################################################
#
#                 Cambridge Crystallographic Data Centre
#                                CCDC 
#
#######################################################################
#
# If this CIF has been generated from an entry in the Cambridge 
# Structural Database, then it will include bibliographic, chemical, 
# crystal, experimental, refinement or atomic coordinate data resulting 
# from the CCDC's data processing and validation procedures.
#
#######################################################################

data_GUSJIO
_chemical_name_common            
'3-(bis(4-(dimethylamino)phenyl)methyl)-4-oxocyclohexyl 4-bromobenzoate'
_chemical_formula_moiety         'C30 H33 Br1 N2 O3'
_chemical_name_systematic        
'trans-(1S,3S)-3-(bis(4-(Dimethylamino)phenyl)methyl)-4-oxocyclohexyl 4-bromobenzoate'
_symmetry_cell_setting           monoclinic
_symmetry_space_group_name_H-M   'C 2'
_symmetry_Int_Tables_number      5
_space_group_name_Hall           'C 2y'
loop_
_symmetry_equiv_pos_site_id
_symmetry_equiv_pos_as_xyz
1 x,y,z
2 -x,y,-z
3 1/2+x,1/2+y,z
4 1/2-x,1/2+y,-z
_cell_length_a                   22.414(5)
_cell_length_b                   5.8309(12)
_cell_length_c                   23.777(5)
_cell_angle_alpha                90
_cell_angle_beta                 117.32(3)
_cell_angle_gamma                90
_cell_volume                     2760.89
_exptl_crystal_colour            colorless
_exptl_crystal_description       plate
_cell_formula_units_Z            4
loop_
_atom_site_label
_atom_site_type_symbol
_atom_site_fract_x
_atom_site_fract_y
_atom_site_fract_z
Br1 Br 0.65643(3) 0.9073(2) 0.83773(3)
O1 O 0.95898(16) 1.2034(6) 1.07948(14)
O2 O 0.98363(19) 0.8416(7) 1.06478(17)
O3 O 1.1771(2) 1.6585(7) 1.22842(18)
N1 N 0.8801(2) 1.0214(8) 1.3260(2)
N2 N 1.3577(2) 1.3092(9) 1.5058(2)
C1 C 1.0257(2) 1.2216(9) 1.1335(2)
H1 H 1.0374 1.0746 1.1579
C2 C 1.02104(19) 1.4125(9) 1.17399(18)
H2 H 0.9855 1.3765 1.1863
H3 H 1.0086 1.5569 1.1493
C3 C 1.08851(19) 1.4450(9) 1.2340(2)
H4 H 1.0849 1.5844 1.2568
C4 C 1.1423(2) 1.4893(9) 1.2132(2)
C5 C 1.1465(3) 1.3063(11) 1.1692(2)
H5 H 1.1613 1.1590 1.1922
H6 H 1.1799 1.3527 1.1550
C6 C 1.0776(3) 1.2761(11) 1.1117(2)
H7 H 1.0650 1.4187 1.0863
H8 H 1.0796 1.1502 1.0847
C7 C 0.9443(3) 0.9982(9) 1.0509(2)
C8 C 0.8736(3) 0.9841(9) 1.0004(2)
C9 C 0.8546(3) 0.8009(11) 0.9617(3)
H9 H 0.8865 0.6831 0.9685
C10 C 0.7903(3) 0.7773(13) 0.9124(4)
H10 H 0.7788 0.6490 0.8847
C11 C 0.7445(3) 0.9410(13) 0.9045(2)
C12 C 0.7611(3) 1.1233(12) 0.9431(3)
H11 H 0.7282 1.2362 0.9374
C13 C 0.8263(3) 1.1475(11) 0.9916(2)
H12 H 0.8380 1.2777 1.0186
C14 C 1.1052(2) 1.2380(7) 1.2793(2)
H13 H 1.1099 1.1016 1.2562
C15 C 1.0464(2) 1.1884(8) 1.29363(19)
C16 C 1.0103(2) 0.9854(7) 1.2715(2)
H14 H 1.0234 0.8808 1.2486
C17 C 0.9558(2) 0.9308(10) 1.2819(2)
H15 H 0.9327 0.7900 1.2664
C18 C 0.9347(2) 1.0804(9) 1.3148(2)
C19 C 0.9695(2) 1.2844(8) 1.3359(2)
H16 H 0.9559 1.3905 1.3582
C20 C 1.0242(2) 1.3371(8) 1.32514(19)
H17 H 1.0468 1.4793 1.3399
C21 C 0.8347(3) 0.8467(12) 1.2876(4)
H18 H 0.8597 0.7047 1.2914
H19 H 0.8127 0.8966 1.2433
H20 H 0.8007 0.8194 1.3019
C22 C 0.8545(3) 1.1920(12) 1.3527(4)
H21 H 0.8897 1.2358 1.3947
H22 H 0.8159 1.1296 1.3566
H23 H 0.8404 1.3272 1.3252
C23 C 1.1719(2) 1.2663(8) 1.3388(2)
C24 C 1.1881(2) 1.4569(8) 1.3784(2)
H24 H 1.1569 1.5796 1.3675
C25 C 1.2481(2) 1.4726(8) 1.4330(2)
H25 H 1.2571 1.6043 1.4591
C26 C 1.2961(2) 1.2975(9) 1.4505(2)
C27 C 1.2799(2) 1.1057(10) 1.4112(2)
H26 H 1.3108 0.9821 1.4220
C28 C 1.2193(2) 1.0935(8) 1.3567(2)
H27 H 1.2100 0.9615 1.3306
C29 C 1.3728(3) 1.5086(12) 1.5439(3)
H28 H 1.3359 1.5410 1.5539
H29 H 1.3788 1.6388 1.5209
H30 H 1.4143 1.4839 1.5832
C30 C 1.4126(3) 1.1734(12) 1.5098(3)
H31 H 1.4006 1.0106 1.5069
H32 H 1.4522 1.2026 1.5504
H33 H 1.4225 1.2138 1.4750
loop_
_geom_bond_atom_site_label_1
_geom_bond_atom_site_label_2
_geom_bond_site_symmetry_1
_geom_bond_site_symmetry_2
Br1 C11 1_555 1_555
O1 C1 1_555 1_555
O2 C7 1_555 1_555
O3 C4 1_555 1_555
N1 C18 1_555 1_555
N2 C26 1_555 1_555
C1 H1 1_555 1_555
C2 C1 1_555 1_555
H2 C2 1_555 1_555
H3 C2 1_555 1_555
C3 C2 1_555 1_555
H4 C3 1_555 1_555
C4 C3 1_555 1_555
C5 C4 1_555 1_555
H5 C5 1_555 1_555
H6 C5 1_555 1_555
C6 C1 1_555 1_555
H7 C6 1_555 1_555
H8 C6 1_555 1_555
C7 O1 1_555 1_555
C8 C7 1_555 1_555
C9 C8 1_555 1_555
H9 C9 1_555 1_555
C10 C9 1_555 1_555
H10 C10 1_555 1_555
C11 C10 1_555 1_555
C12 C11 1_555 1_555
H11 C12 1_555 1_555
C13 C8 1_555 1_555
H12 C13 1_555 1_555
C14 C3 1_555 1_555
H13 C14 1_555 1_555
C15 C14 1_555 1_555
C16 C15 1_555 1_555
H14 C16 1_555 1_555
C17 C16 1_555 1_555
H15 C17 1_555 1_555
C18 C17 1_555 1_555
C19 C18 1_555 1_555
H16 C19 1_555 1_555
C20 C15 1_555 1_555
H17 C20 1_555 1_555
C21 N1 1_555 1_555
H18 C21 1_555 1_555
H19 C21 1_555 1_555
H20 C21 1_555 1_555
C22 N1 1_555 1_555
H21 C22 1_555 1_555
H22 C22 1_555 1_555
H23 C22 1_555 1_555
C23 C14 1_555 1_555
C24 C23 1_555 1_555
H24 C24 1_555 1_555
C25 C24 1_555 1_555
H25 C25 1_555 1_555
C26 C25 1_555 1_555
C27 C26 1_555 1_555
H26 C27 1_555 1_555
C28 C23 1_555 1_555
H27 C28 1_555 1_555
C29 N2 1_555 1_555
H28 C29 1_555 1_555
H29 C29 1_555 1_555
H30 C29 1_555 1_555
C30 N2 1_555 1_555
H31 C30 1_555 1_555
H32 C30 1_555 1_555
H33 C30 1_555 1_555
C5 C6 1_555 1_555
C12 C13 1_555 1_555
C19 C20 1_555 1_555
C27 C28 1_555 1_555

#END
