
#######################################################################
#
#                 Cambridge Crystallographic Data Centre
#                                CCDC 
#
#######################################################################
#
# If this CIF has been generated from an entry in the Cambridge 
# Structural Database, then it will include bibliographic, chemical, 
# crystal, experimental, refinement or atomic coordinate data resulting 
# from the CCDC's data processing and validation procedures.
#
#######################################################################

data_GUSRIV06
_chemical_formula_moiety         'C11 H13 N1 O2'
_chemical_name_systematic        
3-(Dimethylamino)-1-(2-hydroxyphenyl)prop-2-en-1-one
_symmetry_cell_setting           monoclinic
_symmetry_space_group_name_H-M   'P 21/n'
_symmetry_Int_Tables_number      14
_space_group_name_Hall           '-P 2yn'
loop_
_symmetry_equiv_pos_site_id
_symmetry_equiv_pos_as_xyz
1 x,y,z
2 1/2-x,1/2+y,1/2-z
3 -x,-y,-z
4 1/2+x,1/2-y,1/2+z
_cell_length_a                   8.9638(18)
_cell_length_b                   10.520(2)
_cell_length_c                   11.467(2)
_cell_angle_alpha                90
_cell_angle_beta                 109.75(3)
_cell_angle_gamma                90
_cell_volume                     1017.72
_exptl_crystal_colour            yellow
_exptl_crystal_description       block
_cell_formula_units_Z            4
loop_
_atom_site_label
_atom_site_type_symbol
_atom_site_fract_x
_atom_site_fract_y
_atom_site_fract_z
C1 C 0.19813(13) 0.23046(11) 0.32842(10)
O1 O 0.09595(12) 0.23793(12) 0.49334(9)
O2 O 0.33126(14) 0.36587(12) 0.50091(9)
H1 H 0.2602 0.3373 0.5233
C2 C 0.07636(14) 0.19686(12) 0.38534(11)
C3 C 0.32243(14) 0.31326(12) 0.39164(11)
C4 C -0.05791(14) 0.12302(12) 0.31910(11)
H2 H -0.0732 0.0978 0.2381
C5 C 0.19664(15) 0.18188(13) 0.21427(11)
H3 H 0.1155 0.1273 0.1704
N1 N -0.29814(13) 0.02488(11) 0.32672(11)
C6 C 0.44011(16) 0.34332(14) 0.34183(13)
H4 H 0.5226 0.3973 0.3847
C7 C -0.16501(15) 0.08901(13) 0.37501(12)
H5 H -0.1409 0.1142 0.4571
C8 C 0.43455(17) 0.29349(15) 0.22984(14)
H6 H 0.5133 0.3140 0.1971
C9 C -0.35200(19) -0.01779(17) 0.19937(16)
H7 H -0.3336 0.0478 0.1476
H8 H -0.4633 -0.0365 0.1735
H9 H -0.2949 -0.0930 0.1925
C10 C 0.31297(17) 0.21327(15) 0.16565(13)
H10 H 0.3094 0.1803 0.0895
C11 C -0.3979(2) -0.00581(18) 0.40088(18)
H11 H -0.3495 0.0265 0.4834
H12 H -0.4093 -0.0964 0.4039
H13 H -0.5004 0.0324 0.3640
loop_
_geom_bond_atom_site_label_1
_geom_bond_atom_site_label_2
_geom_bond_site_symmetry_1
_geom_bond_site_symmetry_2
C1 C2 1_555 1_555
O1 C2 1_555 1_555
O2 H1 1_555 1_555
C2 C4 1_555 1_555
C3 C1 1_555 1_555
C4 H2 1_555 1_555
C5 C1 1_555 1_555
H3 C5 1_555 1_555
N1 C7 1_555 1_555
C6 C3 1_555 1_555
H4 C6 1_555 1_555
C7 C4 1_555 1_555
H5 C7 1_555 1_555
C8 C6 1_555 1_555
H6 C8 1_555 1_555
C9 N1 1_555 1_555
H7 C9 1_555 1_555
H8 C9 1_555 1_555
H9 C9 1_555 1_555
C10 C5 1_555 1_555
H10 C10 1_555 1_555
C11 N1 1_555 1_555
H11 C11 1_555 1_555
H12 C11 1_555 1_555
H13 C11 1_555 1_555
O2 C3 1_555 1_555
C8 C10 1_555 1_555

#END
