
#######################################################################
#
#                 Cambridge Crystallographic Data Centre
#                                CCDC 
#
#######################################################################
#
# If this CIF has been generated from an entry in the Cambridge 
# Structural Database, then it will include bibliographic, chemical, 
# crystal, experimental, refinement or atomic coordinate data resulting 
# from the CCDC's data processing and validation procedures.
#
#######################################################################

data_GUSYEA
_chemical_formula_moiety         'C18 H14 B1 N1'
_chemical_name_systematic        
2-phenyl-1,2-dihydronaphtho[2,3-e][1,2]azaborinine
_symmetry_cell_setting           monoclinic
_symmetry_space_group_name_H-M   'P 21/n'
_symmetry_Int_Tables_number      14
_space_group_name_Hall           '-P 2yn'
loop_
_symmetry_equiv_pos_site_id
_symmetry_equiv_pos_as_xyz
1 x,y,z
2 1/2-x,1/2+y,1/2-z
3 -x,-y,-z
4 1/2+x,1/2-y,1/2+z
_cell_length_a                   7.6082(4)
_cell_length_b                   5.8948(3)
_cell_length_c                   28.6991(15)
_cell_angle_alpha                90
_cell_angle_beta                 93.583(3)
_cell_angle_gamma                90
_cell_volume                     1284.6
_exptl_crystal_colour            colorless
_exptl_crystal_description       plate
_cell_formula_units_Z            4
loop_
_atom_site_label
_atom_site_type_symbol
_atom_site_fract_x
_atom_site_fract_y
_atom_site_fract_z
N1 N 0.4341(2) 0.0227(4) 0.23458(7)
B1 B 0.4641(3) 0.1633(5) 0.19611(9)
C1 C 0.5476(3) 0.3926(4) 0.20891(8)
C2 C 0.5971(3) 0.4406(4) 0.25347(8)
C3 C 0.5738(3) 0.2824(4) 0.29107(8)
C4 C 0.4861(3) 0.0682(4) 0.28080(7)
C5 C 0.4633(3) -0.0826(4) 0.31654(8)
C6 C 0.5300(3) -0.0389(4) 0.36298(8)
C7 C 0.6210(3) 0.1679(4) 0.37282(8)
C8 C 0.6387(3) 0.3251(4) 0.33634(8)
C9 C 0.6912(3) 0.2098(4) 0.41910(9)
C10 C 0.6692(3) 0.0554(5) 0.45349(9)
C11 C 0.5772(3) -0.1477(5) 0.44380(8)
C12 C 0.5099(3) -0.1939(4) 0.39992(8)
C13 C 0.4194(3) 0.0838(4) 0.14439(8)
C14 C 0.3348(3) -0.1214(4) 0.13269(8)
C15 C 0.2987(3) -0.1853(5) 0.08645(9)
C16 C 0.3467(3) -0.0441(5) 0.05081(9)
C17 C 0.4312(3) 0.1578(5) 0.06140(9)
C18 C 0.4667(3) 0.2199(4) 0.10746(9)
H1 H 0.572(4) 0.500(5) 0.1822(10)
H2 H 0.391(4) -0.121(6) 0.2282(10)
H3 H 0.652(3) 0.578(5) 0.2628(8)
H4 H 0.402(4) -0.233(5) 0.3082(9)
H5 H 0.711(4) 0.470(5) 0.3439(9)
H6 H 0.759(3) 0.351(5) 0.4251(8)
H7 H 0.712(3) 0.089(5) 0.4845(9)
H8 H 0.559(3) -0.255(5) 0.4691(9)
H9 H 0.446(4) -0.329(5) 0.3933(9)
H10 H 0.301(3) -0.226(5) 0.1581(9)
H11 H 0.245(3) -0.324(5) 0.0792(9)
H12 H 0.329(3) -0.086(5) 0.0180(10)
H13 H 0.471(4) 0.262(5) 0.0364(10)
H14 H 0.534(4) 0.362(5) 0.1144(9)
loop_
_geom_bond_atom_site_label_1
_geom_bond_atom_site_label_2
_geom_bond_site_symmetry_1
_geom_bond_site_symmetry_2
N1 B1 1_555 1_555
B1 C1 1_555 1_555
C1 C2 1_555 1_555
C2 C3 1_555 1_555
C3 C4 1_555 1_555
C4 N1 1_555 1_555
C5 C4 1_555 1_555
C6 C5 1_555 1_555
C7 C6 1_555 1_555
C8 C3 1_555 1_555
C9 C7 1_555 1_555
C10 C9 1_555 1_555
C11 C10 1_555 1_555
C12 C6 1_555 1_555
C13 B1 1_555 1_555
C14 C13 1_555 1_555
C15 C14 1_555 1_555
C16 C15 1_555 1_555
C17 C16 1_555 1_555
C18 C13 1_555 1_555
H1 C1 1_555 1_555
H2 N1 1_555 1_555
H3 C2 1_555 1_555
H4 C5 1_555 1_555
H5 C8 1_555 1_555
H6 C9 1_555 1_555
H7 C10 1_555 1_555
H8 C11 1_555 1_555
H9 C12 1_555 1_555
H10 C14 1_555 1_555
H11 C15 1_555 1_555
H12 C16 1_555 1_555
H13 C17 1_555 1_555
H14 C18 1_555 1_555
C7 C8 1_555 1_555
C11 C12 1_555 1_555
C17 C18 1_555 1_555

#END
