
#######################################################################
#
#                 Cambridge Crystallographic Data Centre
#                                CCDC 
#
#######################################################################
#
# If this CIF has been generated from an entry in the Cambridge 
# Structural Database, then it will include bibliographic, chemical, 
# crystal, experimental, refinement or atomic coordinate data resulting 
# from the CCDC's data processing and validation procedures.
#
#######################################################################

data_GUSZOL
_chemical_formula_moiety         'C30 H18 O12 S4 4-,4(C1 H6 N3 1+),5(C4 H8 O2)'
_chemical_name_systematic        
"tetrakis(guanidinium) 4,4',4'',4'''-benzene-1,2,4,5-tetrayl-tetrakis(benzenesulfonate) 1,4-dioxane solvate"
_symmetry_cell_setting           triclinic
_symmetry_space_group_name_H-M   'P -1'
_symmetry_Int_Tables_number      2
_space_group_name_Hall           '-P 1'
loop_
_symmetry_equiv_pos_site_id
_symmetry_equiv_pos_as_xyz
1 x,y,z
2 -x,-y,-z
_cell_length_a                   16.049(4)
_cell_length_b                   18.303(4)
_cell_length_c                   35.233(8)
_cell_angle_alpha                80.303(3)
_cell_angle_beta                 85.430(3)
_cell_angle_gamma                77.818(3)
_cell_volume                     9961.46
_cell_formula_units_Z            6
loop_
_atom_site_label
_atom_site_type_symbol
_atom_site_fract_x
_atom_site_fract_y
_atom_site_fract_z
S5 S -0.30387(10) 0.90030(8) 0.16161(7)
S6 S 0.25014(9) 0.68826(7) 0.13239(4)
O13 O -0.3789(5) 0.9546(5) 0.1598(3)
O14 O -0.2655(3) 0.9009(3) 0.19871(15)
O15 O -0.3102(4) 0.8209(3) 0.16594(19)
O16 O 0.2460(6) 0.7097(5) 0.1692(2)
O17 O 0.3342(3) 0.6902(4) 0.11230(17)
O18 O 0.2184(4) 0.6158(3) 0.13706(18)
C31 C -0.2264(3) 0.9205(3) 0.12491(15)
C32 C -0.1942(4) 0.8684(4) 0.09972(17)
H19 H -0.2129 0.8219 0.1023
C33 C -0.1328(4) 0.8869(3) 0.07030(16)
H20 H -0.1100 0.8526 0.0528
C34 C -0.1066(3) 0.9542(3) 0.06722(14)
C35 C -0.1381(3) 1.0048(3) 0.09221(15)
H21 H -0.1189 1.0511 0.0896
C36 C -0.1986(4) 0.9876(3) 0.12160(16)
H22 H -0.2203 1.0221 0.1391
C37 C 0.1761(3) 0.7554(3) 0.10358(13)
C38 C 0.1562(3) 0.7433(3) 0.06786(15)
H23 H 0.1757 0.6950 0.0601
C39 C 0.1090(3) 0.8001(3) 0.04391(16)
H24 H 0.0982 0.7918 0.0190
C40 C 0.0763(3) 0.8694(3) 0.05498(13)
C41 C 0.0925(4) 0.8797(3) 0.09152(16)
H25 H 0.0688 0.9271 0.0996
C42 C 0.1408(4) 0.8250(3) 0.11654(18)
H26 H 0.1504 0.8333 0.1416
C43 C -0.0824(3) 1.0432(3) 0.00771(13)
H27 H -0.1362 1.0735 0.0133
C44 C -0.0484(3) 0.9763(3) 0.03393(13)
C45 C 0.0346(3) 0.9367(3) 0.02656(15)
S5A S 0.30387(10) 1.09970(8) -0.16161(7)
S6A S -0.25014(9) 1.31174(7) -0.13239(4)
O13A O 0.3789(5) 1.0454(5) -0.1598(3)
O14A O 0.2655(3) 1.0991(3) -0.19871(15)
O15A O 0.3102(4) 1.1791(3) -0.16594(19)
O16A O -0.2460(6) 1.2903(5) -0.1692(2)
O17A O -0.3342(3) 1.3098(4) -0.11230(17)
O18A O -0.2184(4) 1.3842(3) -0.13706(18)
C31A C 0.2264(3) 1.0795(3) -0.12491(15)
C32A C 0.1942(4) 1.1316(4) -0.09972(17)
H19A H 0.2129 1.1781 -0.1023
C33A C 0.1328(4) 1.1131(3) -0.07030(16)
H20A H 0.1100 1.1474 -0.0528
C34A C 0.1066(3) 1.0458(3) -0.06722(14)
C35A C 0.1381(3) 0.9952(3) -0.09221(15)
H21A H 0.1189 0.9489 -0.0896
C36A C 0.1986(4) 1.0124(3) -0.12160(16)
H22A H 0.2203 0.9779 -0.1391
C37A C -0.1761(3) 1.2446(3) -0.10358(13)
C38A C -0.1562(3) 1.2567(3) -0.06786(15)
H23A H -0.1757 1.3050 -0.0601
C39A C -0.1090(3) 1.1999(3) -0.04391(16)
H24A H -0.0982 1.2082 -0.0190
C40A C -0.0763(3) 1.1306(3) -0.05498(13)
C41A C -0.0925(4) 1.1203(3) -0.09152(16)
H25A H -0.0688 1.0729 -0.0996
C42A C -0.1408(4) 1.1750(3) -0.11654(18)
H26A H -0.1504 1.1667 -0.1416
C43A C 0.0824(3) 0.9568(3) -0.00771(13)
H27A H 0.1362 0.9265 -0.0133
C44A C 0.0484(3) 1.0237(3) -0.03393(13)
C45A C -0.0346(3) 1.0633(3) -0.02656(15)
S7 S 0.65196(9) 0.49905(7) 0.37225(4)
S8 S 1.20313(9) 0.29832(8) 0.34022(5)
O19 O 0.5766(4) 0.5345(3) 0.39873(19)
O20 O 0.6548(5) 0.4167(4) 0.3699(2)
O21 O 0.6564(4) 0.5451(3) 0.33736(15)
O22 O 1.1908(2) 0.2223(2) 0.34427(10)
O23 O 1.2862(3) 0.3104(3) 0.33641(14)
O24 O 1.1561(3) 0.3441(3) 0.29997(15)
C46 C 0.7432(3) 0.4958(3) 0.39841(14)
C47 C 0.7986(3) 0.4330(3) 0.40892(12)
H28 H 0.7931 0.3877 0.4004
C48 C 0.8662(3) 0.4315(3) 0.43274(12)
H29 H 0.9040 0.3852 0.4413
C49 C 0.8763(3) 0.4971(3) 0.44313(13)
C50 C 0.8216(3) 0.5649(3) 0.43196(14)
H30 H 0.8305 0.6098 0.4397
C51 C 0.7512(3) 0.5679(3) 0.40867(14)
H31 H 0.7124 0.6137 0.4005
C52 C 1.1431(3) 0.3435(3) 0.37728(13)
C53 C 1.1388(3) 0.3002(3) 0.41455(15)
H32 H 1.1632 0.2477 0.4191
C54 C 1.0972(3) 0.3377(3) 0.44430(15)
H33 H 1.0913 0.3099 0.4694
C55 C 1.0650(3) 0.4141(3) 0.43772(13)
C56 C 1.0659(3) 0.4534(3) 0.40003(12)
H34 H 1.0383 0.5051 0.3950
C57 C 1.1071(3) 0.4172(3) 0.36993(14)
H35 H 1.1096 0.4444 0.3445
C58 C 0.9172(3) 0.5420(3) 0.50114(13)
H36 H 0.8608 0.5712 0.5021
C59 C 0.9418(3) 0.4995(3) 0.47168(13)
C60 C 1.0261(3) 0.4564(3) 0.46985(13)
S7A S 1.34804(9) 0.50095(7) 0.62775(4)
S8A S 0.79687(9) 0.70168(8) 0.65978(5)
O19A O 1.4234(4) 0.4655(3) 0.60127(19)
O20A O 1.3452(5) 0.5833(4) 0.6301(2)
O21A O 1.3436(4) 0.4549(3) 0.66264(15)
O22A O 0.8092(2) 0.7777(2) 0.65573(10)
O23A O 0.7138(3) 0.6896(3) 0.66359(14)
O24A O 0.8439(3) 0.6559(3) 0.70003(15)
C46A C 1.2568(3) 0.5042(3) 0.60159(14)
C47A C 1.2014(3) 0.5670(3) 0.59108(12)
H28A H 1.2069 0.6123 0.5996
C48A C 1.1338(3) 0.5685(3) 0.56726(12)
H29A H 1.0960 0.6148 0.5587
C49A C 1.1237(3) 0.5029(3) 0.55687(13)
C50A C 1.1784(3) 0.4351(3) 0.56804(14)
H30A H 1.1695 0.3902 0.5603
C51A C 1.2488(3) 0.4321(3) 0.59133(14)
H31A H 1.2876 0.3863 0.5995
C52A C 0.8569(3) 0.6565(3) 0.62272(13)
C53A C 0.8612(3) 0.6998(3) 0.58545(15)
H32A H 0.8368 0.7523 0.5809
C54A C 0.9028(3) 0.6623(3) 0.55570(15)
H33A H 0.9087 0.6901 0.5306
C55A C 0.9350(3) 0.5859(3) 0.56228(13)
C56A C 0.9341(3) 0.5466(3) 0.59997(12)
H34A H 0.9617 0.4949 0.6050
C57A C 0.8929(3) 0.5828(3) 0.63007(14)
H35A H 0.8904 0.5556 0.6555
C58A C 1.0828(3) 0.4580(3) 0.49886(13)
H36A H 1.1392 0.4288 0.4979
C59A C 1.0582(3) 0.5005(3) 0.52832(13)
C60A C 0.9739(3) 0.5436(3) 0.53015(13)
S9 S -0.33067(13) 0.17397(11) 0.36091(7)
O25 O -0.4064(5) 0.2240(4) 0.3741(2)
O26 O -0.2952(4) 0.2028(3) 0.32350(16)
O27 O -0.3486(2) 0.0917(2) 0.36795(11)
S10 S 0.19655(13) -0.03273(11) 0.33482(6)
O28 O 0.1522(3) 0.0121(3) 0.30054(14)
O29 O 0.2833(3) -0.0211(3) 0.33511(16)
O30 O 0.1958(4) -0.1142(3) 0.34047(18)
S11 S 0.33074(7) 0.16357(6) 0.63844(3)
S12 S -0.22396(6) 0.37377(6) 0.65158(3)
O31 O 0.3508(6) 0.2390(6) 0.6286(3)
O32 O 0.2946(6) 0.1459(5) 0.6777(3)
O33 O 0.4028(5) 0.1067(4) 0.6308(2)
O34 O -0.20841(17) 0.32605(16) 0.68895(8)
O35 O -0.30717(18) 0.37743(16) 0.63736(8)
O36 O -0.2085(2) 0.44984(19) 0.65014(10)
C61 C -0.2546(3) 0.1689(3) 0.39711(13)
C62 C -0.1968(3) 0.1021(3) 0.40480(14)
H37 H -0.2020 0.0592 0.3940
C63 C -0.1288(3) 0.0979(2) 0.42915(12)
H38 H -0.0893 0.0516 0.4357
C64 C -0.1212(3) 0.1634(2) 0.44330(12)
C65 C -0.1797(3) 0.2299(2) 0.43272(12)
H39 H -0.1735 0.2748 0.4414
C66 C -0.2479(3) 0.2328(3) 0.40959(12)
H40 H -0.2881 0.2786 0.4029
C67 C 0.1505(4) 0.0033(3) 0.37697(16)
C68 C 0.1445(3) -0.0364(3) 0.41446(14)
H41 H 0.1676 -0.0891 0.4196
C69 C 0.1048(3) 0.0016(3) 0.44398(14)
H42 H 0.1035 -0.0255 0.4694
C70 C 0.0675(3) 0.0765(2) 0.43779(12)
C71 C 0.0685(3) 0.1160(3) 0.39977(13)
H43 H 0.0409 0.1677 0.3943
C72 C 0.1108(3) 0.0778(3) 0.37009(15)
H44 H 0.1118 0.1045 0.3445
C73 C 0.2510(3) 0.1668(3) 0.60541(13)
C74 C 0.2506(3) 0.0991(3) 0.59224(13)
H45 H 0.2916 0.0544 0.6000
C75 C 0.1851(3) 0.1004(3) 0.56639(12)
H46 H 0.1828 0.0558 0.5565
C76 C 0.1251(3) 0.1661(3) 0.55576(13)
C77 C 0.1313(3) 0.2308(3) 0.56999(13)
H47 H 0.0913 0.2762 0.5622
C78 C 0.1930(3) 0.2328(3) 0.59508(13)
H48 H 0.1951 0.2779 0.6047
C79 C -0.1535(2) 0.3300(2) 0.61703(11)
C80 C -0.1422(3) 0.3677(3) 0.58017(12)
H49 H -0.1650 0.4204 0.5742
C81 C -0.0966(3) 0.3279(3) 0.55137(14)
H50 H -0.0896 0.3536 0.5259
C82 C -0.0628(3) 0.2525(3) 0.56011(13)
C83 C -0.0706(3) 0.2136(3) 0.59768(13)
H51 H -0.0449 0.1615 0.6039
C84 C -0.1173(3) 0.2533(2) 0.62601(12)
H52 H -0.1242 0.2276 0.6515
C85 C -0.0531(3) 0.1620(2) 0.47041(12)
C86 C 0.0291(3) 0.1188(2) 0.47014(12)
C87 C 0.0857(3) 0.1221(3) 0.49726(13)
H53 H 0.1428 0.0945 0.4956
C88 C 0.0601(2) 0.1658(2) 0.52732(12)
C89 C -0.0226(3) 0.2075(2) 0.52871(12)
C90 C -0.0792(3) 0.2059(2) 0.50059(12)
H54 H -0.1358 0.2345 0.5017
C91 C 0.4720(4) 0.8399(3) 0.11823(16)
N1 N 0.4012(3) 0.8291(3) 0.10777(14)
H55 H 0.3938 0.7828 0.1079
H56 H 0.3602 0.8681 0.1005
N2 N 0.4808(4) 0.9132(3) 0.12182(16)
H57 H 0.4378 0.9517 0.1169
H58 H 0.5292 0.9206 0.1290
N3 N 0.5371(4) 0.7846(3) 0.12958(16)
H59 H 0.5333 0.7371 0.1303
H60 H 0.5841 0.7954 0.1364
C92 C 0.6717(4) 0.7283(4) 0.25739(18)
N4 N 0.6620(4) 0.7139(4) 0.2228(2)
H61 H 0.6739 0.7452 0.2022
H62 H 0.6437 0.6730 0.2203
N5 N 0.6985(3) 0.7882(3) 0.25950(14)
H63 H 0.7097 0.8182 0.2383
H64 H 0.7057 0.7995 0.2821
N6 N 0.6562(4) 0.6809(4) 0.28898(18)
H65 H 0.6644 0.6907 0.3118
H66 H 0.6377 0.6398 0.2870
C93 C 0.2343(3) 0.8773(3) 0.23577(13)
N7 N 0.2576(3) 0.8465(3) 0.20184(14)
H67 H 0.2620 0.8764 0.1798
H68 H 0.2678 0.7971 0.2025
N8 N 0.2202(3) 0.9477(3) 0.23359(13)
H69 H 0.2042 0.9686 0.2544
H70 H 0.2264 0.9763 0.2112
N9 N 0.2266(2) 0.8289(2) 0.26866(11)
H71 H 0.2108 0.8464 0.2905
H72 H 0.2374 0.7798 0.2683
C94 C 0.2060(3) 0.5440(3) 0.24183(14)
N10 N 0.1951(3) 0.5213(3) 0.20865(15)
H73 H 0.2019 0.5505 0.1866
H74 H 0.1810 0.4772 0.2090
N11 N 0.2264(3) 0.6084(2) 0.24122(13)
H75 H 0.2305 0.6248 0.2630
H76 H 0.2365 0.6361 0.2190
N12 N 0.1907(3) 0.5016(3) 0.27501(14)
H77 H 0.1946 0.5176 0.2969
H78 H 0.1767 0.4576 0.2752
C95 C 0.4236(5) 0.7832(4) 0.3737(2)
N13 N 0.3440(3) 0.7621(3) 0.37782(14)
H79 H 0.2975 0.7962 0.3719
H80 H 0.3404 0.7147 0.3863
N14 N 0.4320(4) 0.8528(3) 0.36123(16)
H81 H 0.4829 0.8642 0.3590
H82 H 0.3868 0.8882 0.3550
N15 N 0.4849(4) 0.7229(4) 0.38435(17)
H83 H 0.5385 0.7277 0.3833
H84 H 0.4717 0.6784 0.3923
C96 C 0.4178(3) 0.1099(3) 0.37209(14)
N16 N 0.4832(4) 0.0529(3) 0.37393(15)
H85 H 0.4757 0.0075 0.3719
H86 H 0.5345 0.0602 0.3771
N17 N 0.3396(3) 0.1025(3) 0.36731(12)
H87 H 0.3296 0.0579 0.3652
H88 H 0.2974 0.1421 0.3662
N18 N 0.4335(4) 0.1920(3) 0.35842(17)
H89 H 0.4079 0.2115 0.3357
H90 H 0.4906 0.1907 0.3550
C97 C 0.4197(4) 0.4244(3) 0.37855(16)
N19 N 0.4278(4) 0.4897(3) 0.38950(15)
H91 H 0.4786 0.4974 0.3932
H92 H 0.3821 0.5246 0.3930
N20 N 0.4869(4) 0.3724(3) 0.37336(16)
H93 H 0.4814 0.3304 0.3656
H94 H 0.5379 0.3791 0.3776
N21 N 0.3439(5) 0.4186(4) 0.3730(2)
H95 H 0.3349 0.3777 0.3652
H96 H 0.3006 0.4554 0.3769
C98 C 0.1982(4) 0.2100(4) 0.2418(2)
N22 N 0.1846(4) 0.1651(4) 0.27614(18)
H97 H 0.1807 0.1924 0.2958
H98 H 0.2289 0.1248 0.2798
N23 N 0.1830(4) 0.1878(3) 0.21090(17)
H99 H 0.1914 0.2147 0.1883
H100 H 0.1641 0.1456 0.2123
N24 N 0.2251(3) 0.2712(3) 0.23721(15)
H101 H 0.2323 0.2957 0.2138
H102 H 0.2367 0.2893 0.2574
C99 C 0.6864(4) 0.0688(3) 0.26475(16)
N25 N 0.6691(3) 0.0225(3) 0.29679(12)
H103 H 0.6585 0.0397 0.3189
H104 H 0.6684 -0.0250 0.2957
N26 N 0.7031(3) 0.0454(3) 0.23041(16)
H105 H 0.7143 0.0773 0.2099
H106 H 0.7029 -0.0018 0.2283
N27 N 0.6880(3) 0.1399(3) 0.26530(15)
H107 H 0.6996 0.1691 0.2439
H108 H 0.6775 0.1583 0.2871
C100 C 0.6834(4) 0.4098(4) 0.2617(2)
N28 N 0.6729(3) 0.3643(3) 0.29326(16)
H109 H 0.6735 0.3792 0.3157
H110 H 0.6650 0.3185 0.2923
N29 N 0.7032(4) 0.3885(4) 0.22903(19)
H111 H 0.7106 0.3402 0.2270
H112 H 0.7096 0.4219 0.2085
N30 N 0.6949(3) 0.4767(3) 0.26265(15)
H113 H 0.6957 0.4922 0.2849
H114 H 0.7020 0.5072 0.2410
C101 C 0.4519(5) 0.1622(5) 0.1448(2)
N31 N 0.5126(4) 0.1058(3) 0.15503(17)
H115 H 0.5009 0.0613 0.1648
H116 H 0.5659 0.1116 0.1523
N32 N 0.3715(4) 0.1570(4) 0.14826(18)
H117 H 0.3571 0.1135 0.1579
H118 H 0.3317 0.1970 0.1409
N33 N 0.4792(4) 0.2304(4) 0.12815(18)
H119 H 0.4349 0.2705 0.1291
H120 H 0.4972 0.2279 0.1032
C102 C 0.4494(5) 0.4941(4) 0.1431(2)
N34 N 0.3701(4) 0.4878(4) 0.14797(18)
H121 H 0.3568 0.4455 0.1601
H122 H 0.3297 0.5260 0.1391
N35 N 0.5135(5) 0.4339(4) 0.15713(19)
H123 H 0.5003 0.3915 0.1693
H124 H 0.5673 0.4383 0.1538
N36 N 0.4704(3) 0.5637(3) 0.12262(14)
H125 H 0.4233 0.6016 0.1223
H126 H 0.4883 0.5576 0.0980
S1 S -0.26308(8) 0.97875(7) -0.12459(4)
S2 S -0.31425(7) 0.56663(6) 0.15334(3)
O1 O -0.3421(2) 0.9682(2) -0.10326(10)
O2 O -0.2595(2) 0.95667(18) -0.16207(9)
O3 O -0.2470(2) 1.0540(2) -0.12576(10)
S3 S 0.3126(2) 0.76679(14) -0.15782(10)
O4 O 0.2626(4) 0.7613(3) -0.20118(18)
O5 O 0.3752(4) 0.7098(3) -0.1589(2)
O6 O 0.3198(5) 0.8444(4) -0.1575(2)
S4 S 0.2390(2) 0.35264(14) 0.13633(12)
O7 O 0.2343(6) 0.3792(5) 0.1738(2)
O8 O 0.3237(5) 0.3514(4) 0.1180(3)
O9 O 0.2091(5) 0.2827(4) 0.1389(2)
O10 O -0.2883(4) 0.5704(4) 0.19218(13)
O11 O -0.3193(4) 0.4869(3) 0.1541(2)
O12 O -0.3866(3) 0.6250(3) 0.1435(3)
C1 C -0.1824(3) 0.9135(3) -0.09783(14)
C2 C -0.1482(3) 0.8458(3) -0.11079(16)
H1 H -0.1606 0.8388 -0.1357
C3 C -0.0970(3) 0.7893(3) -0.08831(15)
H2 H -0.0763 0.7421 -0.0970
C4 C -0.0745(3) 0.8002(3) -0.05223(13)
C5 C -0.1004(3) 0.8696(3) -0.04159(15)
H3 H -0.0808 0.8793 -0.0185
C6 C -0.1557(3) 0.9273(3) -0.06417(14)
H4 H -0.1744 0.9755 -0.0562
C7 C 0.2261(3) 0.7500(3) -0.12595(14)
C8 C 0.1966(3) 0.6820(3) -0.12283(15)
H5 H 0.2171 0.6480 -0.1406
C9 C 0.1372(3) 0.6649(3) -0.09352(14)
H6 H 0.1166 0.6193 -0.0913
C10 C 0.1080(3) 0.7148(3) -0.06741(13)
C11 C 0.1360(3) 0.7813(3) -0.07109(15)
H7 H 0.1159 0.8160 -0.0536
C12 C 0.1959(3) 0.7975(3) -0.10171(16)
H8 H 0.2147 0.8441 -0.1047
C13 C 0.1757(3) 0.4207(3) 0.10300(14)
C14 C 0.1645(3) 0.4077(3) 0.06464(16)
H9 H 0.1887 0.3609 0.0561
C15 C 0.1164(3) 0.4676(3) 0.04092(16)
H10 H 0.1081 0.4610 0.0154
C16 C 0.0801(3) 0.5360(3) 0.05235(14)
C17 C 0.0896(3) 0.5450(3) 0.09053(14)
H11 H 0.0632 0.5907 0.0997
C18 C 0.1383(3) 0.4859(3) 0.11487(14)
H12 H 0.1449 0.4923 0.1406
C19 C -0.2291(3) 0.5847(3) 0.12107(13)
C20 C -0.1989(3) 0.6507(3) 0.11995(16)
H13 H -0.2216 0.6838 0.1380
C21 C -0.1375(4) 0.6685(4) 0.09353(17)
H14 H -0.1181 0.7142 0.0932
C22 C -0.1018(3) 0.6207(3) 0.06651(14)
C23 C -0.1305(3) 0.5537(3) 0.06925(15)
H15 H -0.1066 0.5191 0.0521
C24 C -0.1942(3) 0.5356(3) 0.09680(15)
H16 H -0.2126 0.4891 0.0983
C25 C -0.0295(3) 0.7341(3) -0.02567(13)
C26 C 0.0500(3) 0.6898(3) -0.03335(13)
C27 C 0.0828(3) 0.6270(3) -0.00916(14)
H17 H 0.1379 0.5992 -0.0151
C28 C 0.0369(3) 0.6010(3) 0.02523(13)
C29 C -0.0427(3) 0.6431(3) 0.03340(13)
C30 C -0.0754(3) 0.7097(3) 0.00876(13)
H18 H -0.1292 0.7392 0.0152
S13? S 0.2958(2) 0.76831(16) -0.16731(11)
O37? O 0.2953(6) 0.7516(5) -0.1949(2)
O38? O 0.3851(5) 0.7140(4) -0.1415(3)
O39? O 0.3061(6) 0.8465(5) -0.1655(3)
S14? S 0.2586(4) 0.35293(19) 0.12678(16)
O40? O 0.2550(6) 0.3815(5) 0.1641(3)
O41? O 0.2364(7) 0.2788(5) 0.1322(3)
O42? O 0.3369(6) 0.3543(5) 0.1036(3)
O43? O -0.3313(9) 0.4948(7) 0.1449(5)
O44? O -0.3879(8) 0.6170(8) 0.1325(6)
O45? O -0.3090(16) 0.5978(18) 0.1878(5)
O46? O -0.3827(7) 0.9625(6) 0.1476(4)
O47? O -0.294(2) 0.8928(14) 0.2012(5)
O48? O -0.3255(5) 0.8304(4) 0.1485(3)
O49? O 0.2308(10) 0.7073(9) 0.1717(4)
O50? O 0.2440(6) 0.6133(4) 0.1262(3)
O51? O 0.3327(13) 0.7050(14) 0.1155(7)
O52? O 0.6922(7) 0.5179(6) 0.3316(3)
O53? O 0.5817(6) 0.5537(5) 0.3813(3)
O54? O 0.6391(6) 0.4222(5) 0.3766(3)
O55? O 1.2926(4) 0.2836(4) 0.3595(2)
O56? O 1.2008(7) 0.3498(6) 0.3074(3)
S15? S -0.35397(16) 0.16599(14) 0.37660(8)
O57? O -0.4260(4) 0.1981(4) 0.4012(2)
O58? O -0.3488(4) 0.2122(4) 0.33788(19)
S16? S 0.23236(19) -0.04062(15) 0.34634(8)
O59? O 0.2084(6) 0.0008(5) 0.3080(3)
O60? O 0.3117(5) -0.0315(4) 0.3580(2)
O61? O 0.2246(5) -0.1208(4) 0.3498(2)
O62? O 0.3416(5) 0.2415(4) 0.6376(3)
O63? O 0.4094(5) 0.1142(5) 0.6219(3)
O64? O 0.3001(7) 0.1308(6) 0.6752(3)
H127? H 0.5126 0.5758 0.1346
H128? H 0.5229 0.2364 0.1415
H129? H 0.4111 0.2216 0.3765
H130? H 0.1352 0.1485 0.2756
loop_
_geom_bond_atom_site_label_1
_geom_bond_atom_site_label_2
_geom_bond_site_symmetry_1
_geom_bond_site_symmetry_2
S1 O1 1_555 1_555
S2 O10 1_555 1_555
O2 S1 1_555 1_555
O3 S1 1_555 1_555
S3 O4 1_555 1_555
O5 S3 1_555 1_555
O6 S3 1_555 1_555
S4 O7 1_555 1_555
O8 S4 1_555 1_555
O9 S4 1_555 1_555
O11 S2 1_555 1_555
O12 S2 1_555 1_555
C1 S1 1_555 1_555
C2 C1 1_555 1_555
H1 C2 1_555 1_555
C3 C2 1_555 1_555
H2 C3 1_555 1_555
C4 C3 1_555 1_555
C5 C4 1_555 1_555
H3 C5 1_555 1_555
C6 C1 1_555 1_555
H4 C6 1_555 1_555
C7 S3 1_555 1_555
C8 C7 1_555 1_555
H5 C8 1_555 1_555
C9 C8 1_555 1_555
H6 C9 1_555 1_555
C10 C9 1_555 1_555
C11 C10 1_555 1_555
H7 C11 1_555 1_555
C12 C7 1_555 1_555
H8 C12 1_555 1_555
C13 S4 1_555 1_555
C14 C13 1_555 1_555
H9 C14 1_555 1_555
C15 C14 1_555 1_555
H10 C15 1_555 1_555
C16 C15 1_555 1_555
C17 C16 1_555 1_555
H11 C17 1_555 1_555
C18 C13 1_555 1_555
H12 C18 1_555 1_555
C19 S2 1_555 1_555
C20 C19 1_555 1_555
H13 C20 1_555 1_555
C21 C20 1_555 1_555
H14 C21 1_555 1_555
C22 C21 1_555 1_555
C23 C22 1_555 1_555
H15 C23 1_555 1_555
C24 C19 1_555 1_555
H16 C24 1_555 1_555
C25 C4 1_555 1_555
C26 C10 1_555 1_555
C27 C26 1_555 1_555
H17 C27 1_555 1_555
C28 C16 1_555 1_555
C29 C22 1_555 1_555
C30 C25 1_555 1_555
H18 C30 1_555 1_555
S5 O13 1_555 1_555
S6 O16 1_555 1_555
O14 S5 1_555 1_555
O15 S5 1_555 1_555
O17 S6 1_555 1_555
O18 S6 1_555 1_555
C31 S5 1_555 1_555
C32 C31 1_555 1_555
H19 C32 1_555 1_555
C33 C32 1_555 1_555
H20 C33 1_555 1_555
C34 C33 1_555 1_555
C35 C34 1_555 1_555
H21 C35 1_555 1_555
C36 C31 1_555 1_555
H22 C36 1_555 1_555
C37 S6 1_555 1_555
C38 C37 1_555 1_555
H23 C38 1_555 1_555
C39 C38 1_555 1_555
H24 C39 1_555 1_555
C40 C39 1_555 1_555
C41 C40 1_555 1_555
H25 C41 1_555 1_555
C42 C37 1_555 1_555
H26 C42 1_555 1_555
C43 H27 1_555 1_555
C44 C34 1_555 1_555
C45 C40 1_555 1_555
S7 O19 1_555 1_555
S8 O22 1_555 1_555
O20 S7 1_555 1_555
O21 S7 1_555 1_555
O23 S8 1_555 1_555
O24 S8 1_555 1_555
C46 S7 1_555 1_555
C47 C46 1_555 1_555
H28 C47 1_555 1_555
C48 C47 1_555 1_555
H29 C48 1_555 1_555
C49 C48 1_555 1_555
C50 C49 1_555 1_555
H30 C50 1_555 1_555
C51 C46 1_555 1_555
H31 C51 1_555 1_555
C52 S8 1_555 1_555
C53 C52 1_555 1_555
H32 C53 1_555 1_555
C54 C53 1_555 1_555
H33 C54 1_555 1_555
C55 C54 1_555 1_555
C56 C55 1_555 1_555
H34 C56 1_555 1_555
C57 C52 1_555 1_555
H35 C57 1_555 1_555
C58 H36 1_555 1_555
C59 C49 1_555 1_555
C60 C55 1_555 1_555
S9 O25 1_555 1_555
O26 S9 1_555 1_555
O27 S9 1_555 1_555
S10 O28 1_555 1_555
O29 S10 1_555 1_555
O30 S10 1_555 1_555
S11 O31 1_555 1_555
S12 O34 1_555 1_555
O32 S11 1_555 1_555
O33 S11 1_555 1_555
O35 S12 1_555 1_555
O36 S12 1_555 1_555
C61 S9 1_555 1_555
C62 C61 1_555 1_555
H37 C62 1_555 1_555
C63 C62 1_555 1_555
H38 C63 1_555 1_555
C64 C63 1_555 1_555
C65 C64 1_555 1_555
H39 C65 1_555 1_555
C66 C61 1_555 1_555
H40 C66 1_555 1_555
C67 S10 1_555 1_555
C68 C67 1_555 1_555
H41 C68 1_555 1_555
C69 C68 1_555 1_555
H42 C69 1_555 1_555
C70 C69 1_555 1_555
C71 C70 1_555 1_555
H43 C71 1_555 1_555
C72 C67 1_555 1_555
H44 C72 1_555 1_555
C73 S11 1_555 1_555
C74 C73 1_555 1_555
H45 C74 1_555 1_555
C75 C74 1_555 1_555
H46 C75 1_555 1_555
C76 C75 1_555 1_555
C77 C76 1_555 1_555
H47 C77 1_555 1_555
C78 C73 1_555 1_555
H48 C78 1_555 1_555
C79 S12 1_555 1_555
C80 C79 1_555 1_555
H49 C80 1_555 1_555
C81 C80 1_555 1_555
H50 C81 1_555 1_555
C82 C81 1_555 1_555
C83 C82 1_555 1_555
H51 C83 1_555 1_555
C84 C79 1_555 1_555
H52 C84 1_555 1_555
C85 C64 1_555 1_555
C86 C70 1_555 1_555
C87 C86 1_555 1_555
H53 C87 1_555 1_555
C88 C76 1_555 1_555
C89 C82 1_555 1_555
C90 C85 1_555 1_555
H54 C90 1_555 1_555
C91 N1 1_555 1_555
N1 H55 1_555 1_555
H56 N1 1_555 1_555
N2 C91 1_555 1_555
H57 N2 1_555 1_555
H58 N2 1_555 1_555
N3 C91 1_555 1_555
H59 N3 1_555 1_555
H60 N3 1_555 1_555
C92 N4 1_555 1_555
N4 H61 1_555 1_555
H62 N4 1_555 1_555
N5 C92 1_555 1_555
H63 N5 1_555 1_555
H64 N5 1_555 1_555
N6 C92 1_555 1_555
H65 N6 1_555 1_555
H66 N6 1_555 1_555
C93 N7 1_555 1_555
N7 H67 1_555 1_555
H68 N7 1_555 1_555
N8 C93 1_555 1_555
H69 N8 1_555 1_555
H70 N8 1_555 1_555
N9 C93 1_555 1_555
H71 N9 1_555 1_555
H72 N9 1_555 1_555
C94 N10 1_555 1_555
N10 H73 1_555 1_555
H74 N10 1_555 1_555
N11 C94 1_555 1_555
H75 N11 1_555 1_555
H76 N11 1_555 1_555
N12 C94 1_555 1_555
H77 N12 1_555 1_555
H78 N12 1_555 1_555
C95 N13 1_555 1_555
N13 H79 1_555 1_555
H80 N13 1_555 1_555
N14 C95 1_555 1_555
H81 N14 1_555 1_555
H82 N14 1_555 1_555
N15 C95 1_555 1_555
H83 N15 1_555 1_555
H84 N15 1_555 1_555
C96 N16 1_555 1_555
N16 H85 1_555 1_555
H86 N16 1_555 1_555
N17 C96 1_555 1_555
H87 N17 1_555 1_555
H88 N17 1_555 1_555
N18 C96 1_555 1_555
H89 N18 1_555 1_555
H90 N18 1_555 1_555
C97 N19 1_555 1_555
N19 H91 1_555 1_555
H92 N19 1_555 1_555
N20 C97 1_555 1_555
H93 N20 1_555 1_555
H94 N20 1_555 1_555
N21 C97 1_555 1_555
H95 N21 1_555 1_555
H96 N21 1_555 1_555
C98 N22 1_555 1_555
N22 H97 1_555 1_555
H98 N22 1_555 1_555
N23 C98 1_555 1_555
H99 N23 1_555 1_555
H100 N23 1_555 1_555
N24 C98 1_555 1_555
H101 N24 1_555 1_555
H102 N24 1_555 1_555
C99 N25 1_555 1_555
N25 H103 1_555 1_555
H104 N25 1_555 1_555
N26 C99 1_555 1_555
H105 N26 1_555 1_555
H106 N26 1_555 1_555
N27 C99 1_555 1_555
H107 N27 1_555 1_555
H108 N27 1_555 1_555
C100 N28 1_555 1_555
N28 H109 1_555 1_555
H110 N28 1_555 1_555
N29 C100 1_555 1_555
H111 N29 1_555 1_555
H112 N29 1_555 1_555
N30 C100 1_555 1_555
H113 N30 1_555 1_555
H114 N30 1_555 1_555
C101 N31 1_555 1_555
N31 H115 1_555 1_555
H116 N31 1_555 1_555
N32 C101 1_555 1_555
H117 N32 1_555 1_555
H118 N32 1_555 1_555
N33 C101 1_555 1_555
H119 N33 1_555 1_555
H120 N33 1_555 1_555
C102 N34 1_555 1_555
N34 H121 1_555 1_555
H122 N34 1_555 1_555
N35 C102 1_555 1_555
H123 N35 1_555 1_555
H124 N35 1_555 1_555
N36 C102 1_555 1_555
H125 N36 1_555 1_555
H126 N36 1_555 1_555
S5A O13A 1_555 1_555
S6A O16A 1_555 1_555
O14A S5A 1_555 1_555
O15A S5A 1_555 1_555
O17A S6A 1_555 1_555
O18A S6A 1_555 1_555
C31A S5A 1_555 1_555
C32A C31A 1_555 1_555
H19A C32A 1_555 1_555
C33A C32A 1_555 1_555
H20A C33A 1_555 1_555
C34A C33A 1_555 1_555
C35A C34A 1_555 1_555
H21A C35A 1_555 1_555
C36A C31A 1_555 1_555
H22A C36A 1_555 1_555
C37A S6A 1_555 1_555
C38A C37A 1_555 1_555
H23A C38A 1_555 1_555
C39A C38A 1_555 1_555
H24A C39A 1_555 1_555
C40A C39A 1_555 1_555
C41A C40A 1_555 1_555
H25A C41A 1_555 1_555
C42A C37A 1_555 1_555
H26A C42A 1_555 1_555
C43A C45 1_555 1_555
H27A C43A 1_555 1_555
C44A C34A 1_555 1_555
C45A C43 1_555 1_555
S7A O19A 1_555 1_555
S8A O22A 1_555 1_555
O20A S7A 1_555 1_555
O21A S7A 1_555 1_555
O23A S8A 1_555 1_555
O24A S8A 1_555 1_555
C46A S7A 1_555 1_555
C47A C46A 1_555 1_555
H28A C47A 1_555 1_555
C48A C47A 1_555 1_555
H29A C48A 1_555 1_555
C49A C48A 1_555 1_555
C50A C49A 1_555 1_555
H30A C50A 1_555 1_555
C51A C46A 1_555 1_555
H31A C51A 1_555 1_555
C52A S8A 1_555 1_555
C53A C52A 1_555 1_555
H32A C53A 1_555 1_555
C54A C53A 1_555 1_555
H33A C54A 1_555 1_555
C55A C54A 1_555 1_555
C56A C55A 1_555 1_555
H34A C56A 1_555 1_555
C57A C52A 1_555 1_555
H35A C57A 1_555 1_555
C58A C60 1_555 1_555
H36A C58A 1_555 1_555
C59A C49A 1_555 1_555
C60A C58 1_555 1_555
C5 C6 1_555 1_555
C11 C12 1_555 1_555
C17 C18 1_555 1_555
C23 C24 1_555 1_555
C25 C26 1_555 1_555
C27 C28 1_555 1_555
C28 C29 1_555 1_555
C29 C30 1_555 1_555
C35 C36 1_555 1_555
C41 C42 1_555 1_555
C43 C44 1_555 1_555
C44 C45 1_555 1_555
C50 C51 1_555 1_555
C56 C57 1_555 1_555
C58 C59 1_555 1_555
C59 C60 1_555 1_555
C65 C66 1_555 1_555
C71 C72 1_555 1_555
C77 C78 1_555 1_555
C83 C84 1_555 1_555
C85 C86 1_555 1_555
C87 C88 1_555 1_555
C88 C89 1_555 1_555
C89 C90 1_555 1_555
C35A C36A 1_555 1_555
C40A C45A 1_555 1_555
C41A C42A 1_555 1_555
C43A C44A 1_555 1_555
C44A C45A 1_555 1_555
C50A C51A 1_555 1_555
C55A C60A 1_555 1_555
C56A C57A 1_555 1_555
C58A C59A 1_555 1_555
C59A C60A 1_555 1_555

#END
