
#######################################################################
#
#                 Cambridge Crystallographic Data Centre
#                                CCDC 
#
#######################################################################
#
# If this CIF has been generated from an entry in the Cambridge 
# Structural Database, then it will include bibliographic, chemical, 
# crystal, experimental, refinement or atomic coordinate data resulting 
# from the CCDC's data processing and validation procedures.
#
#######################################################################

data_GUSZUR
_chemical_formula_moiety         'C30 H18 O12 S4 4-,4(C4 H8 O2),4(C1 H6 N3 1+)'
_chemical_name_systematic        
'tetrakis(guanidinium) 1,2,4,5-tetrakis(4-sulfonatophenyl)benzene 1,4-dioxane solvate'
_symmetry_cell_setting           monoclinic
_symmetry_space_group_name_H-M   'P 21'
_symmetry_Int_Tables_number      4
_space_group_name_Hall           'P 2yb'
loop_
_symmetry_equiv_pos_site_id
_symmetry_equiv_pos_as_xyz
1 x,y,z
2 -x,1/2+y,-z
_cell_length_a                   6.001(3)
_cell_length_b                   35.559(15)
_cell_length_c                   15.223(6)
_cell_angle_alpha                90
_cell_angle_beta                 101.047(4)
_cell_angle_gamma                90
_cell_volume                     3188.24
_exptl_crystal_colour            colorless
_exptl_crystal_description       block
_cell_formula_units_Z            2
loop_
_atom_site_label
_atom_site_type_symbol
_atom_site_fract_x
_atom_site_fract_y
_atom_site_fract_z
S1 S 0.3981(12) 0.2128(3) 0.8376(5)
S2 S -0.3206(13) 0.2123(3) 0.3071(6)
S3 S 0.6106(12) 0.5054(3) 0.1642(5)
S4 S 1.3271(13) 0.5060(3) 0.6853(6)
O1 O 0.1593(18) 0.2118(5) 0.8449(11)
O2 O 0.555(2) 0.2226(4) 0.9193(9)
O3 O 0.450(2) 0.1776(4) 0.7976(10)
O4 O -0.193(3) 0.1777(4) 0.3157(11)
O5 O -0.532(2) 0.2103(5) 0.3349(11)
O6 O -0.324(3) 0.2220(4) 0.2128(8)
O7 O 0.482(2) 0.4865(4) 0.0845(9)
O8 O 0.503(2) 0.5405(4) 0.1791(11)
O9 O 0.8574(18) 0.5084(5) 0.1641(11)
O10 O 1.430(2) 0.5221(4) 0.6122(9)
O11 O 1.210(2) 0.5342(4) 0.7245(10)
O12 O 1.531(2) 0.4892(4) 0.7260(11)
C1 C 0.481(2) 0.3300(3) 0.5561(7)
C2 C 0.3319(18) 0.3329(3) 0.4744(7)
C3 C 0.3526(18) 0.3624(3) 0.4166(6)
H1 H 0.2506 0.3643 0.3608
C4 C 0.523(2) 0.3891(3) 0.4406(7)
C5 C 0.6720(18) 0.3862(3) 0.5223(7)
C6 C 0.6512(19) 0.3567(3) 0.5800(6)
H2 H 0.7532 0.3548 0.6358
C7 C 0.455(3) 0.3008(3) 0.6247(6)
C8 C 0.635(2) 0.2766(4) 0.6551(9)
H3 H 0.7716 0.2788 0.6328
C9 C 0.615(2) 0.2491(4) 0.7182(9)
H4 H 0.7377 0.2326 0.7390
C10 C 0.414(3) 0.2459(4) 0.7508(7)
C11 C 0.234(2) 0.2701(5) 0.7205(9)
H5 H 0.0976 0.2679 0.7428
C12 C 0.255(2) 0.2976(4) 0.6574(9)
H6 H 0.1315 0.3141 0.6366
C13 C 0.174(2) 0.3017(4) 0.4365(6)
C14 C 0.2419(18) 0.2643(4) 0.4379(8)
H7 H 0.3942 0.2577 0.4628
C15 C 0.087(2) 0.2366(3) 0.4028(10)
H8 H 0.1333 0.2110 0.4037
C16 C -0.136(2) 0.2462(4) 0.3663(9)
C17 C -0.2040(18) 0.2836(4) 0.3649(10)
H9 H -0.3564 0.2903 0.3399
C18 C -0.049(2) 0.3114(3) 0.4000(9)
H10 H -0.0955 0.3369 0.3990
C19 C 0.542(3) 0.4188(3) 0.3732(6)
C20 C 0.368(2) 0.4445(4) 0.3457(9)
H11 H 0.2334 0.4432 0.3697
C21 C 0.391(2) 0.4719(4) 0.2831(10)
H12 H 0.2724 0.4895 0.2644
C22 C 0.589(3) 0.4738(4) 0.2481(7)
C23 C 0.763(2) 0.4481(5) 0.2756(9)
H13 H 0.8975 0.4493 0.2516
C24 C 0.740(2) 0.4206(4) 0.3381(9)
H14 H 0.8585 0.4030 0.3569
C25 C 0.8486(19) 0.4150(4) 0.5616(6)
C26 C 0.7811(16) 0.4524(4) 0.5616(7)
H15 H 0.6281 0.4591 0.5379
C27 C 0.937(2) 0.4800(3) 0.5962(9)
H16 H 0.8913 0.5055 0.5962
C28 C 1.161(2) 0.4702(4) 0.6309(8)
C29 C 1.2288(16) 0.4328(4) 0.6309(9)
H17 H 1.3818 0.4261 0.6546
C30 C 1.072(2) 0.4052(3) 0.5962(8)
H18 H 1.1186 0.3796 0.5962
C31 C 0.117(5) 0.2274(5) 0.0682(17)
N1 N -0.016(4) 0.2209(7) -0.0115(18)
H19 H -0.1629 0.2174 -0.0154
H20 H 0.0431 0.2201 -0.0601
N2 N 0.335(5) 0.2316(7) 0.0644(18)
H21 H 0.4353 0.2358 0.1138
H22 H 0.3791 0.2303 0.0126
N3 N 0.075(4) 0.2301(7) 0.1507(17)
H23 H 0.1874 0.2343 0.1960
H24 H -0.0644 0.2277 0.1598
C32 C 0.016(3) 0.6081(7) 0.2008(9)
N4 N 0.114(4) 0.6409(7) 0.2206(15)
H25 H 0.2618 0.6422 0.2386
H26 H 0.0311 0.6615 0.2158
N5 N 0.108(4) 0.5741(7) 0.2035(15)
H27 H 0.2558 0.5714 0.2204
H28 H 0.0215 0.5543 0.1882
N6 N -0.208(3) 0.6114(9) 0.1738(11)
H29 H -0.2722 0.6337 0.1711
H30 H -0.2917 0.5912 0.1588
C33 C 0.668(3) 0.6066(7) 0.6700(8)
N7 N 0.801(3) 0.5766(6) 0.6898(15)
H31 H 0.7414 0.5539 0.6863
H32 H 0.9492 0.5794 0.7064
N8 N 0.445(3) 0.6116(8) 0.6435(11)
H33 H 0.3533 0.5920 0.6359
H34 H 0.3889 0.6344 0.6336
N9 N 0.752(4) 0.6416(6) 0.6780(14)
H35 H 0.8985 0.6453 0.6967
H36 H 0.6606 0.6610 0.6644
C34 C 0.847(6) 0.4907(5) 0.920(2)
N10 N 0.910(5) 0.4971(8) 0.841(2)
H37 H 1.0539 0.4960 0.8370
H38 H 0.8064 0.5024 0.7932
N11 N 0.632(5) 0.4918(9) 0.935(2)
H39 H 0.6055 0.4874 0.9894
H40 H 0.5180 0.4969 0.8912
N12 N 0.987(5) 0.4826(8) 0.996(2)
H41 H 1.1340 0.4809 0.9977
H42 H 0.9331 0.4788 1.0455
O13 O 0.966(3) 0.6098(10) 0.4968(12)
O14 O 0.569(3) 0.6028(10) 0.3626(13)
C35 C 0.936(4) 0.5780(8) 0.438(2)
H43 H 1.0065 0.5556 0.4709
H44 H 1.0109 0.5827 0.3870
C36 C 0.684(5) 0.5707(7) 0.405(2)
H45 H 0.6658 0.5496 0.3614
H46 H 0.6131 0.5632 0.4556
C37 C 0.610(4) 0.6355(8) 0.417(2)
H47 H 0.5327 0.6329 0.4683
H48 H 0.5444 0.6576 0.3815
C38 C 0.861(5) 0.6421(7) 0.451(2)
H49 H 0.9356 0.6480 0.3999
H50 H 0.8813 0.6640 0.4920
O15 O 0.134(5) 0.3716(13) 0.184(3)
O16 O 0.468(5) 0.3483(11) 0.087(2)
C39 C 0.176(7) 0.3920(10) 0.108(3)
H51 H 0.1426 0.4190 0.1148
H52 H 0.0756 0.3825 0.0534
C40 C 0.423(7) 0.3874(10) 0.099(3)
H53 H 0.4519 0.4019 0.0468
H54 H 0.5246 0.3971 0.1533
C41 C 0.434(7) 0.3282(10) 0.165(3)
H55 H 0.5387 0.3379 0.2186
H56 H 0.4667 0.3012 0.1587
C42 C 0.190(7) 0.3330(11) 0.177(3)
H57 H 0.0861 0.3216 0.1260
H58 H 0.1689 0.3196 0.2323
O19 O 0.964(5) 0.3255(7) 0.876(2)
O20 O 0.704(6) 0.3920(8) 0.855(2)
C47 C 0.990(5) 0.3526(10) 0.810(2)
H67 H 0.8867 0.3463 0.7525
H68 H 1.1477 0.3521 0.7991
C48 C 0.934(6) 0.3916(8) 0.840(2)
H69 H 1.0394 0.3981 0.8967
H70 H 0.9523 0.4105 0.7945
C49 C 0.674(5) 0.3646(11) 0.920(2)
H71 H 0.5138 0.3648 0.9280
H72 H 0.7717 0.3708 0.9781
C50 C 0.734(6) 0.3258(8) 0.890(2)
H73 H 0.7162 0.3071 0.9368
H74 H 0.6289 0.3189 0.8343
O23 O 0.151(5) 0.6182(9) 0.8534(15)
O24 O 0.436(5) 0.6060(10) 1.0204(15)
C55 C 0.194(6) 0.6477(7) 0.919(2)
H83 H 0.0583 0.6641 0.9127
H84 H 0.3230 0.6632 0.9081
C56 C 0.247(6) 0.6309(10) 1.0123(17)
H85 H 0.2823 0.6513 1.0570
H86 H 0.1132 0.6171 1.0243
C57 C 0.393(6) 0.5768(8) 0.955(2)
H87 H 0.2616 0.5616 0.9646
H88 H 0.5270 0.5601 0.9611
C58 C 0.343(6) 0.5942(10) 0.8616(17)
H89 H 0.4766 0.6089 0.8515
H90 H 0.3137 0.5741 0.8159
O17? O 0.077(8) 0.3754(10) 0.204(3)
O18? O 0.150(8) 0.3117(9) 0.102(2)
C43? C -0.107(6) 0.3557(13) 0.151(3)
H59? H -0.1447 0.3670 0.0908
H60? H -0.2430 0.3576 0.1791
C44? C -0.045(7) 0.3146(11) 0.143(3)
H61? H -0.0108 0.3030 0.2037
H62? H -0.1745 0.3009 0.1073
C45? C 0.337(6) 0.3313(13) 0.155(3)
H63? H 0.4707 0.3298 0.1256
H64? H 0.3774 0.3193 0.2144
C46? C 0.277(7) 0.3721(11) 0.166(3)
H65? H 0.4049 0.3849 0.2050
H66? H 0.2502 0.3847 0.1068
O21? O 0.166(5) 0.5861(8) 0.922(2)
O22? O 0.529(5) 0.6384(8) 0.962(2)
C51? C 0.186(5) 0.6112(10) 0.997(2)
H75? H 0.2736 0.5988 1.0514
H76? H 0.0336 0.6174 1.0086
C52? C 0.307(6) 0.6470(7) 0.978(3)
H77? H 0.2172 0.6596 0.9249
H78? H 0.3193 0.6643 1.0297
C53? C 0.508(5) 0.6133(10) 0.887(2)
H79? H 0.6601 0.6074 0.8746
H80? H 0.4171 0.6253 0.8333
C54? C 0.392(6) 0.5771(7) 0.909(3)
H81? H 0.3835 0.5590 0.8590
H82? H 0.4798 0.5655 0.9637
loop_
_geom_bond_atom_site_label_1
_geom_bond_atom_site_label_2
_geom_bond_site_symmetry_1
_geom_bond_site_symmetry_2
S1 O1 1_555 1_555
S2 O4 1_555 1_555
S3 O7 1_555 1_555
S4 O10 1_555 1_555
O2 S1 1_555 1_555
O3 S1 1_555 1_555
O5 S2 1_555 1_555
O6 S2 1_555 1_555
O8 S3 1_555 1_555
O9 S3 1_555 1_555
O11 S4 1_555 1_555
O12 S4 1_555 1_555
C1 C2 1_555 1_555
C2 C3 1_555 1_555
C3 H1 1_555 1_555
C4 C3 1_555 1_555
C5 C4 1_555 1_555
C6 C1 1_555 1_555
H2 C6 1_555 1_555
C7 C1 1_555 1_555
C8 C7 1_555 1_555
H3 C8 1_555 1_555
C9 C8 1_555 1_555
H4 C9 1_555 1_555
C10 S1 1_555 1_555
C11 C10 1_555 1_555
H5 C11 1_555 1_555
C12 C7 1_555 1_555
H6 C12 1_555 1_555
C13 C2 1_555 1_555
C14 C13 1_555 1_555
H7 C14 1_555 1_555
C15 C14 1_555 1_555
H8 C15 1_555 1_555
C16 S2 1_555 1_555
C17 C16 1_555 1_555
H9 C17 1_555 1_555
C18 C13 1_555 1_555
H10 C18 1_555 1_555
C19 C4 1_555 1_555
C20 C19 1_555 1_555
H11 C20 1_555 1_555
C21 C20 1_555 1_555
H12 C21 1_555 1_555
C22 S3 1_555 1_555
C23 C22 1_555 1_555
H13 C23 1_555 1_555
C24 C19 1_555 1_555
H14 C24 1_555 1_555
C25 C5 1_555 1_555
C26 C25 1_555 1_555
H15 C26 1_555 1_555
C27 C26 1_555 1_555
H16 C27 1_555 1_555
C28 S4 1_555 1_555
C29 C28 1_555 1_555
H17 C29 1_555 1_555
C30 C25 1_555 1_555
H18 C30 1_555 1_555
C31 N1 1_555 1_555
N1 H19 1_555 1_555
H20 N1 1_555 1_555
N2 C31 1_555 1_555
H21 N2 1_555 1_555
H22 N2 1_555 1_555
N3 C31 1_555 1_555
H23 N3 1_555 1_555
H24 N3 1_555 1_555
C32 N4 1_555 1_555
N4 H25 1_555 1_555
H26 N4 1_555 1_555
N5 C32 1_555 1_555
H27 N5 1_555 1_555
H28 N5 1_555 1_555
N6 C32 1_555 1_555
H29 N6 1_555 1_555
H30 N6 1_555 1_555
C33 N7 1_555 1_555
N7 H31 1_555 1_555
H32 N7 1_555 1_555
N8 C33 1_555 1_555
H33 N8 1_555 1_555
H34 N8 1_555 1_555
N9 C33 1_555 1_555
H35 N9 1_555 1_555
H36 N9 1_555 1_555
C34 N10 1_555 1_555
N10 H37 1_555 1_555
H38 N10 1_555 1_555
N11 C34 1_555 1_555
H39 N11 1_555 1_555
H40 N11 1_555 1_555
N12 C34 1_555 1_555
H41 N12 1_555 1_555
H42 N12 1_555 1_555
O13 C35 1_555 1_555
O14 C36 1_555 1_555
C35 H43 1_555 1_555
H44 C35 1_555 1_555
C36 C35 1_555 1_555
H45 C36 1_555 1_555
H46 C36 1_555 1_555
C37 O14 1_555 1_555
H47 C37 1_555 1_555
H48 C37 1_555 1_555
C38 O13 1_555 1_555
H49 C38 1_555 1_555
H50 C38 1_555 1_555
O15 C39 1_555 1_555
O16 C40 1_555 1_555
C39 H51 1_555 1_555
H52 C39 1_555 1_555
C40 C39 1_555 1_555
H53 C40 1_555 1_555
H54 C40 1_555 1_555
C41 O16 1_555 1_555
H55 C41 1_555 1_555
H56 C41 1_555 1_555
C42 O15 1_555 1_555
H57 C42 1_555 1_555
H58 C42 1_555 1_555
O19 C47 1_555 1_555
O20 C48 1_555 1_555
C47 H67 1_555 1_555
H68 C47 1_555 1_555
C48 C47 1_555 1_555
H69 C48 1_555 1_555
H70 C48 1_555 1_555
C49 O20 1_555 1_555
H71 C49 1_555 1_555
H72 C49 1_555 1_555
C50 O19 1_555 1_555
H73 C50 1_555 1_555
H74 C50 1_555 1_555
O23 C55 1_555 1_555
O24 C56 1_555 1_555
C55 H83 1_555 1_555
H84 C55 1_555 1_555
C56 C55 1_555 1_555
H85 C56 1_555 1_555
H86 C56 1_555 1_555
C57 O24 1_555 1_555
H87 C57 1_555 1_555
H88 C57 1_555 1_555
C58 O23 1_555 1_555
H89 C58 1_555 1_555
H90 C58 1_555 1_555
C5 C6 1_555 1_555
C9 C10 1_555 1_555
C11 C12 1_555 1_555
C15 C16 1_555 1_555
C17 C18 1_555 1_555
C21 C22 1_555 1_555
C23 C24 1_555 1_555
C27 C28 1_555 1_555
C29 C30 1_555 1_555
C37 C38 1_555 1_555
C41 C42 1_555 1_555
C49 C50 1_555 1_555
C57 C58 1_555 1_555

#END
