
#######################################################################
#
#                 Cambridge Crystallographic Data Centre
#                                CCDC 
#
#######################################################################
#
# If this CIF has been generated from an entry in the Cambridge 
# Structural Database, then it will include bibliographic, chemical, 
# crystal, experimental, refinement or atomic coordinate data resulting 
# from the CCDC's data processing and validation procedures.
#
#######################################################################

data_GUTBAA
_chemical_formula_moiety         'C30 H18 O12 S4 4-,5(C4 H8 O1),4(C1 H6 N3 1+)'
_chemical_name_systematic        
'tetrakis(guanidinium) 1,2,4,5-tetrakis(4-sulfonatophenyl)benzene tetrahydrofuran solvate'
_symmetry_cell_setting           triclinic
_symmetry_space_group_name_H-M   'P 1'
_symmetry_Int_Tables_number      1
_space_group_name_Hall           'P 1'
loop_
_symmetry_equiv_pos_site_id
_symmetry_equiv_pos_as_xyz
1 x,y,z
_cell_length_a                   12.043(5)
_cell_length_b                   15.891(6)
_cell_length_c                   34.087(13)
_cell_angle_alpha                84.671(5)
_cell_angle_beta                 87.393(5)
_cell_angle_gamma                83.725(4)
_cell_volume                     6452.18
_exptl_crystal_colour            white
_exptl_crystal_description       block
_cell_formula_units_Z            4
loop_
_atom_site_label
_atom_site_type_symbol
_atom_site_fract_x
_atom_site_fract_y
_atom_site_fract_z
S1 S 0.9430(6) 0.3786(4) 0.2568(2)
O1 O 0.8949(13) 0.3020(8) 0.2727(4)
O2 O 1.0647(8) 0.3710(11) 0.2572(5)
O3 O 0.8983(15) 0.4078(11) 0.2187(4)
S2 S 0.9683(6) 0.9554(5) 0.2284(2)
O4 O 1.0915(10) 0.9467(12) 0.2294(5)
O5 O 0.9165(13) 1.0336(8) 0.2407(5)
O6 O 0.9332(14) 0.9390(11) 0.1899(4)
S3 S 0.4576(7) 1.0587(5) 0.5101(2)
O7 O 0.4980(13) 1.0331(10) 0.5485(4)
O8 O 0.3364(10) 1.0583(11) 0.5086(5)
O9 O 0.4932(13) 1.1357(8) 0.4903(5)
S4 S 0.4218(6) 0.5008(4) 0.5695(2)
O10 O 0.4686(13) 0.5367(10) 0.6015(4)
O11 O 0.4728(13) 0.4162(8) 0.5616(5)
O12 O 0.2997(9) 0.5070(10) 0.5690(5)
C1 C 0.8859(10) 0.4543(7) 0.2922(4)
C2 C 0.9518(8) 0.5168(8) 0.3000(4)
H1 H 1.0268 0.5152 0.2899
C3 C 0.9080(10) 0.5818(7) 0.3227(4)
H2 H 0.9531 0.6246 0.3280
C4 C 0.7983(11) 0.5843(7) 0.3374(4)
C5 C 0.7324(8) 0.5217(8) 0.3295(4)
H3 H 0.6574 0.5234 0.3396
C6 C 0.7762(10) 0.4567(7) 0.3069(4)
H4 H 0.7311 0.4140 0.3015
C7 C 0.9257(11) 0.8759(7) 0.2585(3)
C8 C 0.8231(10) 0.8459(8) 0.2544(3)
H5 H 0.7859 0.8577 0.2302
C9 C 0.7748(9) 0.7985(8) 0.2857(4)
H6 H 0.7047 0.7780 0.2829
C10 C 0.8292(11) 0.7812(8) 0.3211(3)
C11 C 0.9318(11) 0.8112(8) 0.3253(3)
H7 H 0.9690 0.7994 0.3494
C12 C 0.9801(9) 0.8586(8) 0.2940(4)
H8 H 1.0502 0.8791 0.2968
C13 C 0.5074(10) 0.9708(7) 0.4840(4)
C14 C 0.6170(10) 0.9696(7) 0.4693(4)
H9 H 0.6603 1.0139 0.4739
C15 C 0.6632(8) 0.9036(8) 0.4477(4)
H10 H 0.7382 0.9028 0.4376
C16 C 0.5999(11) 0.8387(7) 0.4408(4)
C17 C 0.4903(10) 0.8399(7) 0.4556(4)
H11 H 0.4470 0.7956 0.4509
C18 C 0.4440(8) 0.9059(8) 0.4772(4)
H12 H 0.3691 0.9067 0.4872
C19 C 0.4677(10) 0.5666(7) 0.5227(3)
C20 C 0.5573(10) 0.6116(8) 0.5285(3)
H13 H 0.5825 0.6137 0.5544
C21 C 0.6100(9) 0.6537(8) 0.4966(4)
H14 H 0.6713 0.6845 0.5006
C22 C 0.5731(11) 0.6507(8) 0.4587(3)
C23 C 0.4835(11) 0.6057(8) 0.4528(3)
H15 H 0.4583 0.6037 0.4270
C24 C 0.4308(9) 0.5636(8) 0.4848(3)
H16 H 0.3695 0.5329 0.4808
C25 C 0.7531(12) 0.6543(7) 0.3641(3)
C26 C 0.7692(12) 0.7397(7) 0.3571(3)
C27 C 0.7197(12) 0.7979(5) 0.3823(4)
H17 H 0.7307 0.8563 0.3775
C28 C 0.6540(12) 0.7706(7) 0.4146(3)
C29 C 0.6379(11) 0.6852(7) 0.4217(3)
C30 C 0.6875(12) 0.6270(5) 0.3964(4)
H18 H 0.6765 0.5686 0.4012
S9 S 0.4748(4) 0.9479(3) 0.20524(16)
O25 O 0.5987(8) 0.9452(7) 0.2070(4)
O26 O 0.4269(11) 1.0355(6) 0.2112(4)
O27 O 0.4480(10) 0.9176(7) 0.1692(3)
S10 S 0.4458(6) 0.3952(5) 0.2555(3)
O28 O 0.4076(14) 0.3181(9) 0.2738(5)
O29 O 0.5680(10) 0.3884(11) 0.2558(5)
O30 O 0.4023(15) 0.4169(11) 0.2166(4)
S11 S -0.0404(7) 1.0767(5) 0.5072(3)
O31 O -0.1635(10) 1.0811(11) 0.5053(6)
O32 O -0.0029(15) 1.1553(9) 0.4905(5)
O33 O -0.0067(15) 1.0440(11) 0.5457(4)
S12 S -0.0754(7) 0.4911(5) 0.5477(2)
O34 O -0.0282(15) 0.4123(8) 0.5322(5)
O35 O -0.2002(10) 0.4986(11) 0.5457(6)
O36 O -0.0350(14) 0.5002(11) 0.5860(4)
C31 C 0.3871(11) 0.4753(7) 0.2874(4)
C32 C 0.4528(9) 0.5389(8) 0.2940(4)
H19 H 0.5275 0.5369 0.2837
C33 C 0.4092(11) 0.6054(7) 0.3158(4)
H20 H 0.4542 0.6488 0.3203
C34 C 0.2999(11) 0.6083(7) 0.3310(4)
C35 C 0.2342(9) 0.5447(8) 0.3244(4)
H21 H 0.1595 0.5467 0.3348
C36 C 0.2778(10) 0.4782(7) 0.3026(4)
H22 H 0.2328 0.4347 0.2981
C37 C 0.4258(11) 0.8858(8) 0.2449(3)
C38 C 0.4577(10) 0.9009(7) 0.2821(3)
H23 H 0.5117 0.9392 0.2846
C39 C 0.4105(12) 0.8599(8) 0.3156(3)
H24 H 0.4323 0.8702 0.3410
C40 C 0.3315(11) 0.8038(8) 0.3118(3)
C41 C 0.2997(10) 0.7888(7) 0.2746(4)
H25 H 0.2457 0.7505 0.2721
C42 C 0.3468(11) 0.8298(8) 0.2412(3)
H26 H 0.3250 0.8195 0.2158
C43 C 0.0097(12) 0.9919(7) 0.4792(4)
C44 C 0.1173(11) 0.9935(7) 0.4627(4)
H27 H 0.1601 1.0382 0.4673
C45 C 0.1621(9) 0.9298(9) 0.4395(4)
H28 H 0.2356 0.9310 0.4283
C46 C 0.0995(12) 0.8645(8) 0.4328(4)
C47 C -0.0080(11) 0.8628(7) 0.4493(4)
H29 H -0.0509 0.8181 0.4447
C48 C -0.0529(9) 0.9265(8) 0.4725(4)
H30 H -0.1264 0.9254 0.4837
C49 C -0.0236(12) 0.5767(8) 0.5089(3)
C50 C 0.0828(11) 0.6006(8) 0.5126(3)
H31 H 0.1225 0.5832 0.5359
C51 C 0.1312(9) 0.6502(9) 0.4821(4)
H32 H 0.2039 0.6666 0.4846
C52 C 0.0732(12) 0.6758(8) 0.4480(3)
C53 C -0.0332(12) 0.6518(9) 0.4443(3)
H33 H -0.0728 0.6693 0.4210
C54 C -0.0816(9) 0.6023(9) 0.4748(4)
H34 H -0.1543 0.5859 0.4723
C55 C 0.2507(12) 0.6807(6) 0.3552(3)
C56 C 0.2678(11) 0.7658(7) 0.3476(3)
C57 C 0.2201(12) 0.8250(5) 0.3727(4)
H35 H 0.2318 0.8832 0.3675
C58 C 0.1552(11) 0.7989(6) 0.4054(3)
C59 C 0.1381(11) 0.7138(7) 0.4131(3)
C60 C 0.1858(12) 0.6547(5) 0.3879(4)
H36 H 0.1741 0.5965 0.3932
S16 S 0.9662(4) 0.4467(3) 1.04854(15)
O46 O 0.9206(10) 0.3691(6) 1.0421(3)
O47 O 0.9269(9) 0.4779(7) 1.0858(3)
O48 O 1.0881(7) 0.4342(7) 1.0448(3)
S17 S 0.4087(8) 0.4660(7) 0.7601(3)
O49 O 0.4490(16) 0.3806(9) 0.7755(6)
O50 O 0.4413(17) 0.4944(12) 0.7207(5)
O51 O 0.2884(12) 0.4840(14) 0.7672(6)
S18 S 0.4303(8) 1.0460(6) 0.7377(3)
O52 O 0.4848(16) 1.0305(13) 0.7007(5)
O53 O 0.4609(16) 1.1216(10) 0.7533(6)
O54 O 0.3087(12) 1.0394(13) 0.7381(6)
S19 S 1.0045(10) 1.0106(7) 0.9962(3)
O55 O 1.1255(12) 0.9925(13) 0.9959(6)
O56 O 0.9558(19) 1.0056(14) 1.0354(5)
O57 O 0.9758(19) 1.0932(11) 0.9743(6)
C61 C 0.4769(12) 0.5374(7) 0.7863(3)
C62 C 0.5299(12) 0.6056(8) 0.7689(3)
H37 H 0.5319 0.6173 0.7411
C63 C 0.5802(11) 0.6567(7) 0.7923(4)
H38 H 0.6165 0.7033 0.7804
C64 C 0.5774(12) 0.6396(8) 0.8331(3)
C65 C 0.5243(12) 0.5714(8) 0.8504(3)
H39 H 0.5223 0.5597 0.8783
C66 C 0.4740(11) 0.5203(7) 0.8271(3)
H40 H 0.4378 0.4737 0.8389
C67 C 0.4990(9) 0.9535(7) 0.7649(3)
C68 C 0.6142(9) 0.9401(7) 0.7685(3)
H41 H 0.6615 0.9736 0.7521
C69 C 0.6602(8) 0.8779(8) 0.7962(4)
H42 H 0.7390 0.8687 0.7987
C70 C 0.5910(11) 0.8290(8) 0.8203(4)
C71 C 0.4758(11) 0.8423(8) 0.8166(3)
H43 H 0.4285 0.8089 0.8331
C72 C 0.4298(8) 0.9046(8) 0.7889(4)
H44 H 0.3511 0.9138 0.7865
C73 C 0.9153(11) 0.5211(7) 1.0099(3)
C74 C 0.9579(9) 0.5167(7) 0.9715(4)
H45 H 1.0193 0.4762 0.9660
C75 C 0.9107(11) 0.5716(8) 0.9411(3)
H46 H 0.9398 0.5686 0.9149
C76 C 0.8208(11) 0.6308(7) 0.9492(3)
C77 C 0.7782(9) 0.6352(7) 0.9876(4)
H47 H 0.7167 0.6757 0.9931
C78 C 0.8254(11) 0.5803(8) 1.0180(3)
H48 H 0.7962 0.5833 1.0442
C79 C 0.9394(11) 0.9328(7) 0.9725(4)
C80 C 0.9951(8) 0.8567(8) 0.9616(4)
H49 H 1.0716 0.8423 0.9674
C81 C 0.9388(11) 0.8016(7) 0.9424(4)
H50 H 0.9768 0.7495 0.9350
C82 C 0.8268(11) 0.8226(7) 0.9340(4)
C83 C 0.7710(8) 0.8987(8) 0.9448(4)
H51 H 0.6945 0.9131 0.9391
C84 C 0.8273(11) 0.9538(6) 0.9641(4)
H52 H 0.7893 1.0058 0.9715
C85 C 0.6424(11) 0.6875(7) 0.8599(3)
C86 C 0.6513(11) 0.7741(7) 0.8526(3)
C87 C 0.7132(11) 0.8146(5) 0.8771(4)
H53 H 0.7193 0.8738 0.8721
C88 C 0.7662(11) 0.7686(7) 0.9089(3)
C89 C 0.7572(11) 0.6821(7) 0.9163(3)
C90 C 0.6953(11) 0.6415(5) 0.8917(4)
H54 H 0.6892 0.5823 0.8967
S23 S -0.1070(5) 0.4605(4) 0.7744(2)
O67 O -0.2280(9) 0.4905(10) 0.7740(4)
O68 O -0.0863(13) 0.3780(7) 0.7967(4)
O69 O -0.0586(13) 0.4739(9) 0.7357(4)
S24 S -0.0485(5) 1.0191(4) 0.7202(2)
O70 O -0.0024(11) 0.9827(9) 0.6852(4)
O71 O -0.0061(12) 1.0969(8) 0.7263(5)
O72 O -0.1709(9) 1.0273(9) 0.7214(5)
S25 S 0.4824(5) 0.9986(4) 1.0167(2)
O73 O 0.6042(9) 0.9859(10) 1.0114(5)
O74 O 0.4427(12) 1.0875(7) 1.0025(4)
O75 O 0.4431(12) 0.9816(9) 1.0564(3)
S26 S 0.4763(5) 0.4240(4) 1.04051(19)
O76 O 0.5992(9) 0.4187(10) 1.0403(5)
O77 O 0.4324(13) 0.4377(11) 1.0795(4)
O78 O 0.4433(14) 0.3483(9) 1.0243(4)
C91 C -0.0412(10) 0.5305(7) 0.8006(4)
C92 C -0.0960(8) 0.6078(8) 0.8103(4)
H55 H -0.1714 0.6235 0.8033
C93 C -0.0407(10) 0.6622(6) 0.8303(4)
H56 H -0.0781 0.7150 0.8369
C94 C 0.0696(10) 0.6392(7) 0.8406(4)
C95 C 0.1244(8) 0.5619(8) 0.8309(4)
H57 H 0.1998 0.5462 0.8380
C96 C 0.0690(10) 0.5076(6) 0.8110(4)
H58 H 0.1065 0.4547 0.8044
C97 C -0.0015(12) 0.9466(8) 0.7612(4)
C98 C -0.0460(11) 0.9547(7) 0.7992(4)
H59 H -0.1044 0.9982 0.8039
C99 C -0.0049(12) 0.8991(9) 0.8304(3)
H60 H -0.0353 0.9046 0.8563
C100 C 0.0805(12) 0.8354(8) 0.8236(4)
C101 C 0.1250(11) 0.8273(8) 0.7856(4)
H61 H 0.1834 0.7838 0.7809
C102 C 0.0840(12) 0.8829(9) 0.7544(3)
H62 H 0.1143 0.8774 0.7285
C103 C 0.4211(12) 0.9359(7) 0.9835(3)
C104 C 0.4276(11) 0.9524(7) 0.9427(3)
H63 H 0.4644 0.9990 0.9312
C105 C 0.3803(12) 0.9006(8) 0.9189(3)
H64 H 0.3847 0.9119 0.8910
C106 C 0.3264(12) 0.8324(7) 0.9358(3)
C107 C 0.3199(11) 0.8159(7) 0.9765(4)
H65 H 0.2831 0.7692 0.9881
C108 C 0.3672(12) 0.8676(8) 1.0004(3)
H66 H 0.3628 0.8564 1.0283
C109 C 0.4244(8) 0.5107(6) 1.0043(3)
C110 C 0.4866(7) 0.5598(7) 0.9776(3)
H67 H 0.5660 0.5516 0.9775
C111 C 0.4328(9) 0.6207(7) 0.9510(3)
H68 H 0.4753 0.6543 0.9328
C112 C 0.3167(9) 0.6326(7) 0.9511(3)
C113 C 0.2545(7) 0.5835(7) 0.9778(3)
H69 H 0.1751 0.5916 0.9779
C114 C 0.3083(8) 0.5225(6) 1.0044(3)
H70 H 0.2658 0.4890 1.0226
C115 C 0.1352(10) 0.6941(7) 0.8644(3)
C116 C 0.1391(10) 0.7814(7) 0.8578(3)
C117 C 0.2023(11) 0.8227(4) 0.8816(4)
H71 H 0.2050 0.8823 0.8771
C118 C 0.2615(10) 0.7767(7) 0.9120(3)
C119 C 0.2576(11) 0.6894(6) 0.9186(3)
C120 C 0.1944(11) 0.6481(5) 0.8948(4)
H72 H 0.1917 0.5885 0.8994
C121 C 0.1628(12) 0.2292(8) 1.0048(4)
N1 N 0.2237(14) 0.1620(9) 0.9913(4)
H73 H 0.2970 0.1572 0.9923
H74 H 0.1905 0.1224 0.9815
N2 N 0.0510(12) 0.2397(10) 1.0042(5)
H75 H 0.0137 0.2848 1.0134
H76 H 0.0149 0.2014 0.9946
N3 N 0.2142(15) 0.2883(9) 1.0195(5)
H77 H 0.2876 0.2828 1.0203
H78 H 0.1750 0.3329 1.0285
C122 C 0.6996(13) 0.1919(10) 1.0308(4)
N4 N 0.6011(14) 0.2051(12) 1.0132(5)
H79 H 0.5697 0.1618 1.0060
H80 H 0.5680 0.2571 1.0088
N5 N 0.7449(16) 0.2590(11) 1.0413(5)
H81 H 0.8095 0.2519 1.0528
H82 H 0.7101 0.3104 1.0366
N6 N 0.7443(16) 0.1119(10) 1.0364(5)
H83 H 0.8090 0.0998 1.0478
H84 H 0.7094 0.0708 1.0287
C123 C 0.1549(11) 0.3944(7) 0.1528(4)
N7 N 0.2149(13) 0.3978(9) 0.1196(4)
H85 H 0.2864 0.3788 0.1195
H86 H 0.1837 0.4189 0.0975
N8 N 0.0457(11) 0.4219(8) 0.1540(5)
H87 H 0.0071 0.4185 0.1766
H88 H 0.0125 0.4433 0.1323
N9 N 0.2016(14) 0.3628(8) 0.1858(4)
H89 H 0.2731 0.3439 0.1857
H90 H 0.1615 0.3606 0.2080
C124 C 0.6409(13) 0.4333(7) 0.1462(4)
N10 N 0.6972(15) 0.4340(9) 0.1123(4)
H91 H 0.7707 0.4306 0.1118
H92 H 0.6615 0.4380 0.0902
N11 N 0.5295(12) 0.4391(9) 0.1481(5)
H93 H 0.4921 0.4435 0.1263
H94 H 0.4935 0.4384 0.1712
N12 N 0.6806(15) 0.4278(10) 0.1820(4)
H95 H 0.7532 0.4240 0.1851
H96 H 0.6344 0.4279 0.2028
C125 C 0.1620(12) 0.9732(7) 0.1127(4)
N13 N 0.2136(13) 0.9866(8) 0.0782(4)
H97 H 0.2870 0.9844 0.0765
H98 H 0.1748 0.9978 0.0567
N14 N 0.0505(12) 0.9799(9) 0.1131(5)
H99 H 0.0151 0.9927 0.0910
H100 H 0.0124 0.9715 0.1355
N15 N 0.2138(15) 0.9561(9) 0.1465(4)
H101 H 0.2871 0.9531 0.1467
H102 H 0.1747 0.9477 0.1687
C126 C 0.7356(15) 0.8991(8) 0.0992(5)
N16 N 0.7592(19) 0.8838(11) 0.0623(5)
H103 H 0.8271 0.8631 0.0552
H104 H 0.7070 0.8942 0.0447
N17 N 0.6322(15) 0.9305(11) 0.1091(6)
H105 H 0.5812 0.9406 0.0911
H106 H 0.6149 0.9411 0.1336
N18 N 0.8050(16) 0.8866(11) 0.1287(5)
H107 H 0.8749 0.8661 0.1245
H108 H 0.7812 0.8989 0.1525
C127 C 0.1678(16) 0.1454(10) 0.2674(4)
N19 N 0.0635(16) 0.1605(13) 0.2576(6)
H109 H 0.0307 0.1210 0.2476
H110 H 0.0261 0.2101 0.2611
N20 N 0.2071(18) 0.2101(11) 0.2822(5)
H111 H 0.1635 0.2577 0.2847
H112 H 0.2767 0.2055 0.2896
N21 N 0.2166(18) 0.0688(11) 0.2610(5)
H113 H 0.1787 0.0323 0.2508
H114 H 0.2869 0.0544 0.2669
C128 C 0.6341(11) 0.1608(8) 0.2442(3)
N22 N 0.5295(11) 0.1818(10) 0.2329(4)
H115 H 0.4961 0.2330 0.2360
H116 H 0.4939 0.1446 0.2223
N23 N 0.6798(15) 0.2215(10) 0.2598(5)
H117 H 0.6413 0.2713 0.2620
H118 H 0.7488 0.2121 0.2679
N24 N 0.6884(14) 0.0836(8) 0.2395(5)
H119 H 0.7578 0.0714 0.2469
H120 H 0.6545 0.0452 0.2290
C129 C 0.2699(17) 0.2857(12) 0.5265(4)
N25 N 0.210(2) 0.2289(13) 0.5145(6)
H121 H 0.2423 0.1789 0.5089
H122 H 0.1371 0.2410 0.5122
N26 N 0.213(2) 0.3591(13) 0.5347(6)
H123 H 0.1400 0.3669 0.5320
H124 H 0.2480 0.3996 0.5428
N27 N 0.3792(17) 0.2796(14) 0.5317(6)
H125 H 0.4214 0.2325 0.5270
H126 H 0.4094 0.3225 0.5399
C130 C 0.7382(15) 0.3110(10) 0.5028(4)
N28 N 0.6814(17) 0.3879(11) 0.5030(5)
H127 H 0.7160 0.4319 0.5074
H128 H 0.6092 0.3946 0.4988
N29 N 0.8457(15) 0.2984(13) 0.5089(6)
H129 H 0.8814 0.2471 0.5082
H130 H 0.8822 0.3411 0.5137
N30 N 0.6824(17) 0.2469(11) 0.4955(5)
H131 H 0.7176 0.1955 0.4947
H132 H 0.6103 0.2558 0.4914
C131 C 0.2621(14) 1.0208(8) 0.6223(5)
N31 N 0.2059(16) 1.0261(11) 0.5897(5)
H133 H 0.1327 1.0378 0.5906
H134 H 0.2414 1.0179 0.5670
N32 N 0.2051(17) 1.0335(11) 0.6551(5)
H135 H 0.1320 1.0451 0.6549
H136 H 0.2398 1.0305 0.6774
N33 N 0.3723(14) 1.0049(10) 0.6247(6)
H137 H 0.4033 1.0034 0.6477
H138 H 0.4142 0.9959 0.6034
C132 C -0.2543(15) 1.0468(9) 0.6156(5)
N34 N -0.3006(18) 1.0787(11) 0.5824(5)
H139 H -0.3708 1.1011 0.5826
H140 H -0.2614 1.0776 0.5600
N35 N -0.3066(18) 1.0458(11) 0.6501(6)
H141 H -0.3769 1.0674 0.6521
H142 H -0.2715 1.0237 0.6713
N36 N -0.1490(15) 1.0128(10) 0.6180(6)
H143 H -0.1222 0.9929 0.6410
H144 H -0.1059 1.0101 0.5965
C133 C 0.1679(14) 0.5645(8) 0.6710(5)
N37 N 0.0851(15) 0.5861(10) 0.6462(5)
H145 H 0.0208 0.6108 0.6548
H146 H 0.0947 0.5756 0.6213
N38 N 0.1447(18) 0.5830(11) 0.7076(5)
H147 H 0.1962 0.5718 0.7254
H148 H 0.0778 0.6066 0.7142
N39 N 0.2656(15) 0.5290(11) 0.6577(6)
H149 H 0.3212 0.5160 0.6738
H150 H 0.2749 0.5185 0.6328
C134 C 0.7374(13) 0.4969(7) 0.6575(5)
N40 N 0.6872(17) 0.5005(10) 0.6233(5)
H151 H 0.6140 0.5024 0.6229
H152 H 0.7273 0.5009 0.6011
N41 N 0.6770(15) 0.4962(9) 0.6910(5)
H153 H 0.7102 0.4930 0.7137
H154 H 0.6037 0.4990 0.6906
N42 N 0.8485(13) 0.4927(10) 0.6571(6)
H155 H 0.8834 0.4894 0.6794
H156 H 0.8870 0.4932 0.6345
C135 C 0.2077(12) 0.2745(10) 0.7423(4)
N43 N 0.1544(16) 0.2123(11) 0.7316(5)
H157 H 0.0916 0.2242 0.7190
H158 H 0.1816 0.1591 0.7371
N44 N 0.1650(16) 0.3547(10) 0.7337(5)
H159 H 0.1022 0.3657 0.7211
H160 H 0.1996 0.3968 0.7407
N45 N 0.3029(14) 0.2523(12) 0.7610(5)
H161 H 0.3275 0.1983 0.7658
H162 H 0.3411 0.2917 0.7687
C136 C 0.7329(16) 0.2417(11) 0.7645(4)
N46 N 0.6831(19) 0.1827(12) 0.7499(6)
H163 H 0.6104 0.1899 0.7469
H164 H 0.7224 0.1360 0.7430
N47 N 0.6858(18) 0.3142(11) 0.7759(6)
H165 H 0.6132 0.3273 0.7742
H166 H 0.7269 0.3496 0.7854
N48 N 0.8425(16) 0.2294(13) 0.7687(6)
H167 H 0.8806 0.1823 0.7617
H168 H 0.8772 0.2683 0.7784
O91 O -0.0189(16) 0.7823(11) 0.0831(5)
C137 C 0.0962(18) 0.7896(15) 0.0724(8)
H169 H 0.1369 0.8011 0.0956
H170 H 0.1029 0.8368 0.0516
C138 C 0.144(2) 0.7057(13) 0.0574(7)
H171 H 0.1467 0.7079 0.0282
H172 H 0.2191 0.6860 0.0675
C139 C 0.0554(17) 0.6528(15) 0.0759(7)
H173 H 0.0834 0.6236 0.1010
H174 H 0.0454 0.6084 0.0582
C140 C -0.0589(18) 0.7003(12) 0.0844(7)
H175 H -0.1126 0.6968 0.0636
H176 H -0.0914 0.6820 0.1106
O92 O 0.3602(15) 0.7219(11) 0.0930(5)
C141 C 0.4397(18) 0.7732(16) 0.1046(8)
H177 H 0.4518 0.7624 0.1332
H178 H 0.4141 0.8342 0.0986
C142 C 0.547(2) 0.7484(14) 0.0809(8)
H179 H 0.5461 0.7777 0.0540
H180 H 0.6138 0.7617 0.0943
C143 C 0.546(2) 0.6533(14) 0.0799(8)
H181 H 0.5813 0.6213 0.1033
H182 H 0.5843 0.6329 0.0557
C144 C 0.4209(19) 0.6474(14) 0.0803(7)
H183 H 0.3986 0.6388 0.0535
H184 H 0.4026 0.5977 0.0982
O93 O 0.763(2) 0.6401(14) 0.1797(7)
C145 C 0.756(3) 0.624(2) 0.2218(7)
H185 H 0.7827 0.6704 0.2347
H186 H 0.8015 0.5698 0.2303
C146 C 0.634(3) 0.617(2) 0.2315(10)
H187 H 0.6181 0.6213 0.2600
H188 H 0.6126 0.5624 0.2244
C147 C 0.573(3) 0.6903(19) 0.2077(9)
H189 H 0.5736 0.7452 0.2192
H190 H 0.4955 0.6804 0.2023
C148 C 0.653(2) 0.6808(18) 0.1722(9)
H191 H 0.6187 0.6484 0.1534
H192 H 0.6605 0.7382 0.1590
O94 O 0.252(2) 0.6143(15) 0.1881(7)
C149 C 0.152(2) 0.593(2) 0.2089(10)
H193 H 0.1738 0.5536 0.2322
H194 H 0.1119 0.5599 0.1916
C150 C 0.067(3) 0.663(2) 0.2231(9)
H195 H -0.0081 0.6451 0.2289
H196 H 0.0930 0.6891 0.2460
C151 C 0.075(3) 0.720(2) 0.1850(9)
H197 H 0.0609 0.7808 0.1892
H198 H 0.0239 0.7058 0.1651
C152 C 0.197(3) 0.6931(17) 0.1743(9)
H199 H 0.2042 0.6966 0.1451
H200 H 0.2408 0.7370 0.1828
O95 O 0.3979(11) 0.2663(8) 0.1415(4)
C153 C 0.3356(16) 0.1948(10) 0.1411(5)
H201 H 0.2569 0.2126 0.1343
H202 H 0.3374 0.1601 0.1668
C154 C 0.3982(13) 0.1470(13) 0.1089(5)
H203 H 0.3831 0.1747 0.0822
H204 H 0.3834 0.0867 0.1104
C155 C 0.5147(15) 0.1575(10) 0.1218(6)
H205 H 0.5710 0.1432 0.1007
H206 H 0.5328 0.1194 0.1458
C156 C 0.5148(13) 0.2502(10) 0.1302(6)
H207 H 0.5642 0.2567 0.1519
H208 H 0.5355 0.2867 0.1064
O96 O 0.9082(11) 0.1707(8) 0.1003(4)
C157 C 1.0094(14) 0.2046(12) 0.1089(5)
H209 H 1.0078 0.2645 0.0978
H210 H 1.0749 0.1715 0.0970
C158 C 1.0174(15) 0.1988(14) 0.1531(5)
H211 H 1.0589 0.2437 0.1620
H212 H 1.0498 0.1421 0.1642
C159 C 0.8926(15) 0.2144(13) 0.1616(6)
H213 H 0.8746 0.1941 0.1893
H214 H 0.8678 0.2760 0.1578
C160 C 0.8334(16) 0.1668(12) 0.1338(5)
H215 H 0.8267 0.1074 0.1445
H216 H 0.7583 0.1956 0.1277
O97 O 0.3932(13) 0.0931(9) 0.3232(4)
C161 C 0.3272(14) 0.0700(15) 0.3568(5)
H217 H 0.3042 0.0126 0.3549
H218 H 0.2587 0.1105 0.3579
C162 C 0.3897(15) 0.0702(15) 0.3934(4)
H219 H 0.3593 0.1183 0.4085
H220 H 0.3849 0.0165 0.4103
C163 C 0.5071(14) 0.0792(14) 0.3798(5)
H221 H 0.5553 0.0253 0.3857
H222 H 0.5371 0.1247 0.3928
C164 C 0.5017(13) 0.1018(13) 0.3362(5)
H223 H 0.5191 0.1610 0.3298
H224 H 0.5580 0.0639 0.3223
O98 O 0.9550(11) 0.0367(8) 0.3506(4)
C165 C 0.8415(14) 0.0290(11) 0.3397(7)
H225 H 0.7996 0.0007 0.3619
H226 H 0.8418 -0.0044 0.3166
C166 C 0.7892(16) 0.1197(12) 0.3298(6)
H227 H 0.8226 0.1471 0.3055
H228 H 0.7070 0.1236 0.3281
C167 C 0.8250(15) 0.1533(12) 0.3668(6)
H229 H 0.7829 0.1314 0.3905
H230 H 0.8165 0.2162 0.3648
C168 C 0.9485(14) 0.1169(11) 0.3669(6)
H231 H 0.9949 0.1558 0.3508
H232 H 0.9755 0.1093 0.3941
O99 O 0.0957(17) 0.3323(15) 0.4458(5)
C169 C 0.058(2) 0.2778(11) 0.4196(7)
H233 H 0.0212 0.2313 0.4345
H234 H 0.1215 0.2525 0.4036
C170 C -0.025(2) 0.3332(16) 0.3930(7)
H235 H -0.0304 0.3096 0.3673
H236 H -0.1009 0.3405 0.4059
C171 C 0.028(2) 0.4152(13) 0.3885(6)
H237 H -0.0283 0.4647 0.3831
H238 H 0.0862 0.4148 0.3670
C172 C 0.079(2) 0.4164(13) 0.4283(7)
H239 H 0.1507 0.4412 0.4250
H240 H 0.0277 0.4516 0.4454
O100 O 0.5130(12) 0.3390(9) 0.4458(4)
C173 C 0.5789(17) 0.3683(13) 0.4126(5)
H241 H 0.6572 0.3424 0.4148
H242 H 0.5782 0.4308 0.4113
C174 C 0.5292(15) 0.3427(14) 0.3763(5)
H243 H 0.5422 0.3831 0.3531
H244 H 0.5599 0.2847 0.3704
C175 C 0.4073(15) 0.3463(13) 0.3882(5)
H245 H 0.3702 0.3051 0.3747
H246 H 0.3691 0.4040 0.3819
C176 C 0.4058(14) 0.3230(12) 0.4328(5)
H247 H 0.3450 0.3584 0.4460
H248 H 0.3940 0.2625 0.4389
O101 O 0.1445(11) 0.7706(8) 0.5810(4)
C177 C 0.2577(12) 0.7286(11) 0.5815(6)
H249 H 0.2656 0.6802 0.5649
H250 H 0.2783 0.7074 0.6087
C178 C 0.3301(16) 0.7967(12) 0.5649(5)
H251 H 0.3237 0.8472 0.5802
H252 H 0.4093 0.7752 0.5601
C179 C 0.2625(15) 0.8084(14) 0.5289(5)
H253 H 0.2691 0.7559 0.5150
H254 H 0.2852 0.8559 0.5105
C180 C 0.1465(16) 0.8282(12) 0.5456(5)
H255 H 0.1331 0.8881 0.5519
H256 H 0.0899 0.8171 0.5271
O102 O 0.7863(13) 0.7238(10) 0.5798(4)
C181 C 0.8444(17) 0.7815(14) 0.5538(6)
H257 H 0.9084 0.7510 0.5399
H258 H 0.8722 0.8255 0.5684
C182 C 0.7581(16) 0.8203(15) 0.5253(6)
H259 H 0.7414 0.7806 0.5062
H260 H 0.7779 0.8742 0.5113
C183 C 0.6660(18) 0.8336(13) 0.5561(6)
H261 H 0.5925 0.8405 0.5436
H262 H 0.6739 0.8858 0.5690
C184 C 0.6726(15) 0.7576(12) 0.5864(6)
H263 H 0.6587 0.7748 0.6135
H264 H 0.6198 0.7168 0.5811
O103 O 0.3913(17) 0.6810(9) 0.6857(6)
C185 C 0.467(2) 0.7221(13) 0.6604(7)
H265 H 0.4483 0.7184 0.6327
H266 H 0.5435 0.6936 0.6643
C186 C 0.463(2) 0.8139(12) 0.6683(8)
H267 H 0.5329 0.8247 0.6806
H268 H 0.4538 0.8515 0.6436
C187 C 0.366(2) 0.8280(10) 0.6958(8)
H269 H 0.3026 0.8620 0.6820
H270 H 0.3850 0.8582 0.7182
C188 C 0.3353(19) 0.7411(13) 0.7097(6)
H271 H 0.3566 0.7267 0.7374
H272 H 0.2535 0.7399 0.7085
O104 O 0.9134(15) 0.6860(10) 0.6793(5)
C189 C 0.8068(18) 0.6789(15) 0.6983(8)
H273 H 0.8074 0.6263 0.7163
H274 H 0.7483 0.6792 0.6788
C190 C 0.788(2) 0.7571(12) 0.7210(6)
H275 H 0.7097 0.7676 0.7305
H276 H 0.8379 0.7522 0.7437
C191 C 0.8187(18) 0.8257(14) 0.6901(6)
H277 H 0.8350 0.8778 0.7016
H278 H 0.7614 0.8400 0.6700
C192 C 0.9232(17) 0.7752(10) 0.6747(6)
H279 H 0.9361 0.7933 0.6464
H280 H 0.9885 0.7872 0.6890
O105 O 0.5079(13) 0.1918(9) 0.6251(5)
C193 C 0.3960(16) 0.2172(12) 0.6391(7)
H281 H 0.3815 0.1828 0.6641
H282 H 0.3436 0.2030 0.6197
C194 C 0.3689(17) 0.3104(12) 0.6460(8)
H283 H 0.3479 0.3465 0.6216
H284 H 0.3110 0.3198 0.6671
C195 C 0.4852(15) 0.3208(14) 0.6586(7)
H285 H 0.4902 0.3088 0.6875
H286 H 0.5033 0.3796 0.6512
C196 C 0.5663(17) 0.2577(11) 0.6375(6)
H287 H 0.6020 0.2876 0.6143
H288 H 0.6258 0.2328 0.6555
O106 O 0.9910(13) 0.2800(9) 0.6745(5)
C197 C 1.0553(19) 0.2821(15) 0.6384(5)
H289 H 1.1310 0.2527 0.6429
H290 H 1.0629 0.3417 0.6284
C198 C 0.999(2) 0.2388(16) 0.6083(7)
H291 H 1.0214 0.2578 0.5809
H292 H 1.0113 0.1761 0.6126
C199 C 0.882(2) 0.2719(15) 0.6186(6)
H293 H 0.8279 0.2344 0.6105
H294 H 0.8629 0.3300 0.6059
C200 C 0.8809(15) 0.2720(13) 0.6631(6)
H295 H 0.8288 0.3200 0.6716
H296 H 0.8554 0.2184 0.6756
O107 O 0.2216(9) 0.0331(7) 0.8614(3)
C201 C 0.1763(13) 0.0776(11) 0.8275(3)
H297 H 0.1618 0.0370 0.8085
H298 H 0.2302 0.1155 0.8149
C202 C 0.0684(13) 0.1298(11) 0.8381(4)
H299 H 0.0691 0.1896 0.8269
H300 H 0.0035 0.1062 0.8280
C203 C 0.0634(13) 0.1243(11) 0.8819(4)
H301 H -0.0078 0.1040 0.8925
H302 H 0.0701 0.1804 0.8915
C204 C 0.1607(13) 0.0617(10) 0.8942(3)
H303 H 0.2100 0.0890 0.9105
H304 H 0.1333 0.0128 0.9104
O108 O 0.690(3) 0.0482(17) 0.8586(8)
C205 C 0.575(3) 0.060(2) 0.8510(12)
H305 H 0.5351 0.0139 0.8649
H306 H 0.5620 0.0623 0.8224
C206 C 0.536(3) 0.145(2) 0.8671(12)
H307 H 0.5396 0.1930 0.8465
H308 H 0.4601 0.1463 0.8792
C207 C 0.624(3) 0.145(2) 0.8976(11)
H309 H 0.5973 0.1178 0.9231
H310 H 0.6355 0.2044 0.9016
C208 C 0.735(3) 0.098(2) 0.8853(9)
H311 H 0.7873 0.1365 0.8721
H312 H 0.7717 0.0627 0.9075
O109 O 0.1918(12) 0.4180(9) 0.9206(4)
C209 C 0.1643(16) 0.3548(12) 0.8969(5)
H313 H 0.0970 0.3764 0.8819
H314 H 0.1473 0.3036 0.9139
C210 C 0.2606(15) 0.3318(15) 0.8685(5)
H315 H 0.2682 0.3763 0.8466
H316 H 0.2564 0.2762 0.8581
C211 C 0.3513(18) 0.3284(13) 0.8985(6)
H317 H 0.3577 0.2735 0.9149
H318 H 0.4247 0.3369 0.8852
C212 C 0.3110(13) 0.4015(13) 0.9231(6)
H319 H 0.3312 0.3864 0.9509
H320 H 0.3468 0.4529 0.9132
O110 O 0.8088(19) 0.3150(13) 0.9312(6)
C213 C 0.832(2) 0.353(2) 0.8922(7)
H321 H 0.8815 0.3128 0.8768
H322 H 0.8688 0.4053 0.8932
C214 C 0.719(2) 0.372(2) 0.8740(9)
H323 H 0.7220 0.4045 0.8477
H324 H 0.6794 0.3213 0.8728
C215 C 0.671(3) 0.4272(18) 0.9060(8)
H325 H 0.7054 0.4812 0.9051
H326 H 0.5887 0.4390 0.9053
C216 C 0.708(2) 0.3662(17) 0.9407(8)
H327 H 0.7199 0.3986 0.9633
H328 H 0.6483 0.3290 0.9486
S5? S 0.9388(13) 0.3664(8) 0.2671(4)
O13? O 0.894(3) 0.2917(17) 0.2869(9)
O14? O 1.0602(17) 0.360(2) 0.2705(10)
O15? O 0.906(3) 0.390(2) 0.2276(7)
S6? S 0.9717(12) 0.9452(9) 0.2181(4)
O16? O 1.0942(15) 0.951(2) 0.2160(9)
O17? O 0.919(2) 1.0320(13) 0.2229(9)
O18? O 0.943(3) 0.921(2) 0.1802(7)
S7? S 0.4606(12) 1.0408(8) 0.5212(4)
O19? O 0.495(2) 1.0078(19) 0.5611(6)
O20? O 0.3378(15) 1.048(2) 0.5218(9)
O21? O 0.502(2) 1.1223(14) 0.5096(9)
S8? S 0.4179(11) 0.4887(8) 0.5570(4)
O22? O 0.445(2) 0.499(2) 0.5971(6)
O23? O 0.474(2) 0.4161(15) 0.5404(9)
O24? O 0.3002(15) 0.5063(19) 0.5492(9)
S13? S 0.4406(16) 0.3789(10) 0.2684(7)
O37? O 0.398(3) 0.305(2) 0.2903(12)
O38? O 0.5625(18) 0.366(3) 0.2702(13)
O39? O 0.407(3) 0.392(3) 0.2281(8)
S14? S -0.0414(16) 1.0536(14) 0.5181(6)
O40? O -0.1638(19) 1.057(3) 0.5177(13)
O41? O -0.009(4) 1.137(2) 0.5046(13)
O42? O -0.007(4) 1.028(3) 0.5583(9)
S15? S -0.0791(19) 0.5110(12) 0.5469(5)
O43? O -0.047(3) 0.4197(10) 0.5433(11)
O44? O -0.200(2) 0.532(3) 0.5458(15)
O45? O -0.027(3) 0.537(3) 0.5806(11)
S20? S 0.4169(12) 0.4859(10) 0.7497(5)
O58? O 0.454(2) 0.3942(13) 0.7584(9)
O59? O 0.444(3) 0.505(2) 0.7079(7)
O60? O 0.2950(16) 0.498(2) 0.7563(9)
S21? S 0.4413(11) 1.0318(9) 0.7281(5)
O61? O 0.498(2) 1.010(2) 0.6914(7)
O62? O 0.473(2) 1.1141(14) 0.7364(9)
O63? O 0.3227(15) 1.021(2) 0.7279(10)
S22? S 0.9979(16) 1.0036(12) 1.0042(5)
O64? O 1.1165(19) 0.974(2) 1.0055(10)
O65? O 0.940(3) 0.993(2) 1.0416(8)
O66? O 0.977(3) 1.0900(14) 0.9858(9)
S27? S -0.0953(14) 0.4772(10) 0.7589(5)
O79? O -0.2178(17) 0.498(3) 0.7594(11)
O80? O -0.065(3) 0.3901(15) 0.7762(10)
O81? O -0.053(3) 0.488(2) 0.7185(7)
S28? S -0.0606(11) 1.0380(8) 0.7350(5)
O82? O -0.023(3) 1.029(2) 0.6945(7)
O83? O -0.016(3) 1.1097(17) 0.7491(10)
O84? O -0.1817(15) 1.045(2) 0.7397(10)
S29? S 0.4873(13) 1.0091(10) 1.0015(5)
O85? O 0.6090(17) 0.998(2) 0.9952(11)
O86? O 0.453(3) 1.0953(15) 0.9827(10)
O87? O 0.455(3) 1.000(2) 1.0425(7)
S30? S 0.4844(14) 0.4278(10) 1.0271(5)
O88? O 0.6063(18) 0.432(3) 1.0267(11)
O89? O 0.447(3) 0.430(3) 1.0679(7)
O90? O 0.458(3) 0.3525(19) 1.0098(10)
loop_
_geom_bond_atom_site_label_1
_geom_bond_atom_site_label_2
_geom_bond_site_symmetry_1
_geom_bond_site_symmetry_2
S1 O1 1_555 1_555
O2 S1 1_555 1_555
O3 S1 1_555 1_555
S2 O4 1_555 1_555
O5 S2 1_555 1_555
O6 S2 1_555 1_555
S3 O7 1_555 1_555
O8 S3 1_555 1_555
O9 S3 1_555 1_555
S4 O10 1_555 1_555
O11 S4 1_555 1_555
O12 S4 1_555 1_555
C1 S1 1_555 1_555
C2 C1 1_555 1_555
H1 C2 1_555 1_555
C3 C2 1_555 1_555
H2 C3 1_555 1_555
C4 C3 1_555 1_555
C5 C4 1_555 1_555
H3 C5 1_555 1_555
C6 C1 1_555 1_555
H4 C6 1_555 1_555
C7 S2 1_555 1_555
C8 C7 1_555 1_555
H5 C8 1_555 1_555
C9 C8 1_555 1_555
H6 C9 1_555 1_555
C10 C9 1_555 1_555
C11 C10 1_555 1_555
H7 C11 1_555 1_555
C12 C7 1_555 1_555
H8 C12 1_555 1_555
C13 S3 1_555 1_555
C14 C13 1_555 1_555
H9 C14 1_555 1_555
C15 C14 1_555 1_555
H10 C15 1_555 1_555
C16 C15 1_555 1_555
C17 C16 1_555 1_555
H11 C17 1_555 1_555
C18 C13 1_555 1_555
H12 C18 1_555 1_555
C19 S4 1_555 1_555
C20 C19 1_555 1_555
H13 C20 1_555 1_555
C21 C20 1_555 1_555
H14 C21 1_555 1_555
C22 C21 1_555 1_555
C23 C22 1_555 1_555
H15 C23 1_555 1_555
C24 C19 1_555 1_555
H16 C24 1_555 1_555
C25 C4 1_555 1_555
C26 C10 1_555 1_555
C27 C26 1_555 1_555
H17 C27 1_555 1_555
C28 C16 1_555 1_555
C29 C22 1_555 1_555
C30 C25 1_555 1_555
H18 C30 1_555 1_555
S9 O25 1_555 1_555
O26 S9 1_555 1_555
O27 S9 1_555 1_555
S10 O28 1_555 1_555
O29 S10 1_555 1_555
O30 S10 1_555 1_555
S11 O31 1_555 1_555
O32 S11 1_555 1_555
O33 S11 1_555 1_555
S12 O34 1_555 1_555
O35 S12 1_555 1_555
O36 S12 1_555 1_555
C31 S10 1_555 1_555
C32 C31 1_555 1_555
H19 C32 1_555 1_555
C33 C32 1_555 1_555
H20 C33 1_555 1_555
C34 C33 1_555 1_555
C35 C34 1_555 1_555
H21 C35 1_555 1_555
C36 C31 1_555 1_555
H22 C36 1_555 1_555
C37 S9 1_555 1_555
C38 C37 1_555 1_555
H23 C38 1_555 1_555
C39 C38 1_555 1_555
H24 C39 1_555 1_555
C40 C39 1_555 1_555
C41 C40 1_555 1_555
H25 C41 1_555 1_555
C42 C37 1_555 1_555
H26 C42 1_555 1_555
C43 S11 1_555 1_555
C44 C43 1_555 1_555
H27 C44 1_555 1_555
C45 C44 1_555 1_555
H28 C45 1_555 1_555
C46 C45 1_555 1_555
C47 C46 1_555 1_555
H29 C47 1_555 1_555
C48 C43 1_555 1_555
H30 C48 1_555 1_555
C49 S12 1_555 1_555
C50 C49 1_555 1_555
H31 C50 1_555 1_555
C51 C50 1_555 1_555
H32 C51 1_555 1_555
C52 C51 1_555 1_555
C53 C52 1_555 1_555
H33 C53 1_555 1_555
C54 C49 1_555 1_555
H34 C54 1_555 1_555
C55 C34 1_555 1_555
C56 C40 1_555 1_555
C57 C56 1_555 1_555
H35 C57 1_555 1_555
C58 C46 1_555 1_555
C59 C52 1_555 1_555
C60 C55 1_555 1_555
H36 C60 1_555 1_555
S16 O46 1_555 1_555
O47 S16 1_555 1_555
O48 S16 1_555 1_555
S17 O49 1_555 1_555
O50 S17 1_555 1_555
O51 S17 1_555 1_555
S18 O52 1_555 1_555
O53 S18 1_555 1_555
O54 S18 1_555 1_555
S19 O55 1_555 1_555
O56 S19 1_555 1_555
O57 S19 1_555 1_555
C61 S17 1_555 1_555
C62 C61 1_555 1_555
H37 C62 1_555 1_555
C63 C62 1_555 1_555
H38 C63 1_555 1_555
C64 C63 1_555 1_555
C65 C64 1_555 1_555
H39 C65 1_555 1_555
C66 C61 1_555 1_555
H40 C66 1_555 1_555
C67 S18 1_555 1_555
C68 C67 1_555 1_555
H41 C68 1_555 1_555
C69 C68 1_555 1_555
H42 C69 1_555 1_555
C70 C69 1_555 1_555
C71 C70 1_555 1_555
H43 C71 1_555 1_555
C72 C67 1_555 1_555
H44 C72 1_555 1_555
C73 S16 1_555 1_555
C74 C73 1_555 1_555
H45 C74 1_555 1_555
C75 C74 1_555 1_555
H46 C75 1_555 1_555
C76 C75 1_555 1_555
C77 C76 1_555 1_555
H47 C77 1_555 1_555
C78 C73 1_555 1_555
H48 C78 1_555 1_555
C79 S19 1_555 1_555
C80 C79 1_555 1_555
H49 C80 1_555 1_555
C81 C80 1_555 1_555
H50 C81 1_555 1_555
C82 C81 1_555 1_555
C83 C82 1_555 1_555
H51 C83 1_555 1_555
C84 C79 1_555 1_555
H52 C84 1_555 1_555
C85 C64 1_555 1_555
C86 C70 1_555 1_555
C87 C86 1_555 1_555
H53 C87 1_555 1_555
C88 C82 1_555 1_555
C89 C76 1_555 1_555
C90 C85 1_555 1_555
H54 C90 1_555 1_555
S23 O67 1_555 1_555
O68 S23 1_555 1_555
O69 S23 1_555 1_555
S24 O70 1_555 1_555
O71 S24 1_555 1_555
O72 S24 1_555 1_555
S25 O73 1_555 1_555
O74 S25 1_555 1_555
O75 S25 1_555 1_555
S26 O76 1_555 1_555
O77 S26 1_555 1_555
O78 S26 1_555 1_555
C91 S23 1_555 1_555
C92 C91 1_555 1_555
H55 C92 1_555 1_555
C93 C92 1_555 1_555
H56 C93 1_555 1_555
C94 C93 1_555 1_555
C95 C94 1_555 1_555
H57 C95 1_555 1_555
C96 C91 1_555 1_555
H58 C96 1_555 1_555
C97 S24 1_555 1_555
C98 C97 1_555 1_555
H59 C98 1_555 1_555
C99 C98 1_555 1_555
H60 C99 1_555 1_555
C100 C99 1_555 1_555
C101 C100 1_555 1_555
H61 C101 1_555 1_555
C102 C97 1_555 1_555
H62 C102 1_555 1_555
C103 S25 1_555 1_555
C104 C103 1_555 1_555
H63 C104 1_555 1_555
C105 C104 1_555 1_555
H64 C105 1_555 1_555
C106 C105 1_555 1_555
C107 C106 1_555 1_555
H65 C107 1_555 1_555
C108 C103 1_555 1_555
H66 C108 1_555 1_555
C109 S26 1_555 1_555
C110 C109 1_555 1_555
H67 C110 1_555 1_555
C111 C110 1_555 1_555
H68 C111 1_555 1_555
C112 C111 1_555 1_555
C113 C112 1_555 1_555
H69 C113 1_555 1_555
C114 C109 1_555 1_555
H70 C114 1_555 1_555
C115 C94 1_555 1_555
C116 C100 1_555 1_555
C117 C116 1_555 1_555
H71 C117 1_555 1_555
C118 C106 1_555 1_555
C119 C112 1_555 1_555
C120 C115 1_555 1_555
H72 C120 1_555 1_555
C121 N1 1_555 1_555
N1 H73 1_555 1_555
H74 N1 1_555 1_555
N2 C121 1_555 1_555
H75 N2 1_555 1_555
H76 N2 1_555 1_555
N3 C121 1_555 1_555
H77 N3 1_555 1_555
H78 N3 1_555 1_555
C122 N4 1_555 1_555
N4 H79 1_555 1_555
H80 N4 1_555 1_555
N5 C122 1_555 1_555
H81 N5 1_555 1_555
H82 N5 1_555 1_555
N6 C122 1_555 1_555
H83 N6 1_555 1_555
H84 N6 1_555 1_555
C123 N7 1_555 1_555
N7 H85 1_555 1_555
H86 N7 1_555 1_555
N8 C123 1_555 1_555
H87 N8 1_555 1_555
H88 N8 1_555 1_555
N9 C123 1_555 1_555
H89 N9 1_555 1_555
H90 N9 1_555 1_555
C124 N10 1_555 1_555
N10 H91 1_555 1_555
H92 N10 1_555 1_555
N11 C124 1_555 1_555
H93 N11 1_555 1_555
H94 N11 1_555 1_555
N12 C124 1_555 1_555
H95 N12 1_555 1_555
H96 N12 1_555 1_555
C125 N13 1_555 1_555
N13 H97 1_555 1_555
H98 N13 1_555 1_555
N14 C125 1_555 1_555
H99 N14 1_555 1_555
H100 N14 1_555 1_555
N15 C125 1_555 1_555
H101 N15 1_555 1_555
H102 N15 1_555 1_555
C126 N16 1_555 1_555
N16 H103 1_555 1_555
H104 N16 1_555 1_555
N17 C126 1_555 1_555
H105 N17 1_555 1_555
H106 N17 1_555 1_555
N18 C126 1_555 1_555
H107 N18 1_555 1_555
H108 N18 1_555 1_555
C127 N19 1_555 1_555
N19 H109 1_555 1_555
H110 N19 1_555 1_555
N20 C127 1_555 1_555
H111 N20 1_555 1_555
H112 N20 1_555 1_555
N21 C127 1_555 1_555
H113 N21 1_555 1_555
H114 N21 1_555 1_555
C128 N22 1_555 1_555
N22 H115 1_555 1_555
H116 N22 1_555 1_555
N23 C128 1_555 1_555
H117 N23 1_555 1_555
H118 N23 1_555 1_555
N24 C128 1_555 1_555
H119 N24 1_555 1_555
H120 N24 1_555 1_555
C129 N25 1_555 1_555
N25 H121 1_555 1_555
H122 N25 1_555 1_555
N26 C129 1_555 1_555
H123 N26 1_555 1_555
H124 N26 1_555 1_555
N27 C129 1_555 1_555
H125 N27 1_555 1_555
H126 N27 1_555 1_555
C130 N28 1_555 1_555
N28 H127 1_555 1_555
H128 N28 1_555 1_555
N29 C130 1_555 1_555
H129 N29 1_555 1_555
H130 N29 1_555 1_555
N30 C130 1_555 1_555
H131 N30 1_555 1_555
H132 N30 1_555 1_555
C131 N31 1_555 1_555
N31 H133 1_555 1_555
H134 N31 1_555 1_555
N32 C131 1_555 1_555
H135 N32 1_555 1_555
H136 N32 1_555 1_555
N33 C131 1_555 1_555
H137 N33 1_555 1_555
H138 N33 1_555 1_555
C132 N34 1_555 1_555
N34 H139 1_555 1_555
H140 N34 1_555 1_555
N35 C132 1_555 1_555
H141 N35 1_555 1_555
H142 N35 1_555 1_555
N36 C132 1_555 1_555
H143 N36 1_555 1_555
H144 N36 1_555 1_555
C133 N37 1_555 1_555
N37 H145 1_555 1_555
H146 N37 1_555 1_555
N38 C133 1_555 1_555
H147 N38 1_555 1_555
H148 N38 1_555 1_555
N39 C133 1_555 1_555
H149 N39 1_555 1_555
H150 N39 1_555 1_555
C134 N40 1_555 1_555
N40 H151 1_555 1_555
H152 N40 1_555 1_555
N41 C134 1_555 1_555
H153 N41 1_555 1_555
H154 N41 1_555 1_555
N42 C134 1_555 1_555
H155 N42 1_555 1_555
H156 N42 1_555 1_555
C135 N43 1_555 1_555
N43 H157 1_555 1_555
H158 N43 1_555 1_555
N44 C135 1_555 1_555
H159 N44 1_555 1_555
H160 N44 1_555 1_555
N45 C135 1_555 1_555
H161 N45 1_555 1_555
H162 N45 1_555 1_555
C136 N46 1_555 1_555
N46 H163 1_555 1_555
H164 N46 1_555 1_555
N47 C136 1_555 1_555
H165 N47 1_555 1_555
H166 N47 1_555 1_555
N48 C136 1_555 1_555
H167 N48 1_555 1_555
H168 N48 1_555 1_555
O91 C137 1_555 1_555
C137 H169 1_555 1_555
H170 C137 1_555 1_555
C138 C137 1_555 1_555
H171 C138 1_555 1_555
H172 C138 1_555 1_555
C139 C138 1_555 1_555
H173 C139 1_555 1_555
H174 C139 1_555 1_555
C140 O91 1_555 1_555
H175 C140 1_555 1_555
H176 C140 1_555 1_555
O92 C141 1_555 1_555
C141 H177 1_555 1_555
H178 C141 1_555 1_555
C142 C141 1_555 1_555
H179 C142 1_555 1_555
H180 C142 1_555 1_555
C143 C142 1_555 1_555
H181 C143 1_555 1_555
H182 C143 1_555 1_555
C144 O92 1_555 1_555
H183 C144 1_555 1_555
H184 C144 1_555 1_555
O93 C145 1_555 1_555
C145 H185 1_555 1_555
H186 C145 1_555 1_555
C146 C145 1_555 1_555
H187 C146 1_555 1_555
H188 C146 1_555 1_555
C147 C146 1_555 1_555
H189 C147 1_555 1_555
H190 C147 1_555 1_555
C148 O93 1_555 1_555
H191 C148 1_555 1_555
H192 C148 1_555 1_555
O94 C149 1_555 1_555
C149 H193 1_555 1_555
H194 C149 1_555 1_555
C150 C149 1_555 1_555
H195 C150 1_555 1_555
H196 C150 1_555 1_555
C151 C150 1_555 1_555
H197 C151 1_555 1_555
H198 C151 1_555 1_555
C152 O94 1_555 1_555
H199 C152 1_555 1_555
H200 C152 1_555 1_555
O95 C153 1_555 1_555
C153 H201 1_555 1_555
H202 C153 1_555 1_555
C154 C153 1_555 1_555
H203 C154 1_555 1_555
H204 C154 1_555 1_555
C155 C154 1_555 1_555
H205 C155 1_555 1_555
H206 C155 1_555 1_555
C156 O95 1_555 1_555
H207 C156 1_555 1_555
H208 C156 1_555 1_555
O96 C157 1_555 1_555
C157 H209 1_555 1_555
H210 C157 1_555 1_555
C158 C157 1_555 1_555
H211 C158 1_555 1_555
H212 C158 1_555 1_555
C159 C158 1_555 1_555
H213 C159 1_555 1_555
H214 C159 1_555 1_555
C160 O96 1_555 1_555
H215 C160 1_555 1_555
H216 C160 1_555 1_555
O97 C161 1_555 1_555
C161 H217 1_555 1_555
H218 C161 1_555 1_555
C162 C161 1_555 1_555
H219 C162 1_555 1_555
H220 C162 1_555 1_555
C163 C162 1_555 1_555
H221 C163 1_555 1_555
H222 C163 1_555 1_555
C164 O97 1_555 1_555
H223 C164 1_555 1_555
H224 C164 1_555 1_555
O98 C165 1_555 1_555
C165 H225 1_555 1_555
H226 C165 1_555 1_555
C166 C165 1_555 1_555
H227 C166 1_555 1_555
H228 C166 1_555 1_555
C167 C166 1_555 1_555
H229 C167 1_555 1_555
H230 C167 1_555 1_555
C168 O98 1_555 1_555
H231 C168 1_555 1_555
H232 C168 1_555 1_555
O99 C169 1_555 1_555
C169 H233 1_555 1_555
H234 C169 1_555 1_555
C170 C169 1_555 1_555
H235 C170 1_555 1_555
H236 C170 1_555 1_555
C171 C170 1_555 1_555
H237 C171 1_555 1_555
H238 C171 1_555 1_555
C172 O99 1_555 1_555
H239 C172 1_555 1_555
H240 C172 1_555 1_555
O100 C173 1_555 1_555
C173 H241 1_555 1_555
H242 C173 1_555 1_555
C174 C173 1_555 1_555
H243 C174 1_555 1_555
H244 C174 1_555 1_555
C175 C174 1_555 1_555
H245 C175 1_555 1_555
H246 C175 1_555 1_555
C176 O100 1_555 1_555
H247 C176 1_555 1_555
H248 C176 1_555 1_555
O101 C177 1_555 1_555
C177 H249 1_555 1_555
H250 C177 1_555 1_555
C178 C177 1_555 1_555
H251 C178 1_555 1_555
H252 C178 1_555 1_555
C179 C178 1_555 1_555
H253 C179 1_555 1_555
H254 C179 1_555 1_555
C180 O101 1_555 1_555
H255 C180 1_555 1_555
H256 C180 1_555 1_555
O102 C181 1_555 1_555
C181 H257 1_555 1_555
H258 C181 1_555 1_555
C182 C181 1_555 1_555
H259 C182 1_555 1_555
H260 C182 1_555 1_555
C183 C182 1_555 1_555
H261 C183 1_555 1_555
H262 C183 1_555 1_555
C184 O102 1_555 1_555
H263 C184 1_555 1_555
H264 C184 1_555 1_555
O103 C185 1_555 1_555
C185 H265 1_555 1_555
H266 C185 1_555 1_555
C186 C185 1_555 1_555
H267 C186 1_555 1_555
H268 C186 1_555 1_555
C187 C186 1_555 1_555
H269 C187 1_555 1_555
H270 C187 1_555 1_555
C188 O103 1_555 1_555
H271 C188 1_555 1_555
H272 C188 1_555 1_555
O104 C189 1_555 1_555
C189 H273 1_555 1_555
H274 C189 1_555 1_555
C190 C189 1_555 1_555
H275 C190 1_555 1_555
H276 C190 1_555 1_555
C191 C190 1_555 1_555
H277 C191 1_555 1_555
H278 C191 1_555 1_555
C192 O104 1_555 1_555
H279 C192 1_555 1_555
H280 C192 1_555 1_555
O105 C193 1_555 1_555
C193 H281 1_555 1_555
H282 C193 1_555 1_555
C194 C193 1_555 1_555
H283 C194 1_555 1_555
H284 C194 1_555 1_555
C195 C194 1_555 1_555
H285 C195 1_555 1_555
H286 C195 1_555 1_555
C196 O105 1_555 1_555
H287 C196 1_555 1_555
H288 C196 1_555 1_555
O106 C197 1_555 1_555
C197 H289 1_555 1_555
H290 C197 1_555 1_555
C198 C197 1_555 1_555
H291 C198 1_555 1_555
H292 C198 1_555 1_555
C199 C198 1_555 1_555
H293 C199 1_555 1_555
H294 C199 1_555 1_555
C200 O106 1_555 1_555
H295 C200 1_555 1_555
H296 C200 1_555 1_555
O107 C201 1_555 1_555
C201 H297 1_555 1_555
H298 C201 1_555 1_555
C202 C201 1_555 1_555
H299 C202 1_555 1_555
H300 C202 1_555 1_555
C203 C202 1_555 1_555
H301 C203 1_555 1_555
H302 C203 1_555 1_555
C204 O107 1_555 1_555
H303 C204 1_555 1_555
H304 C204 1_555 1_555
O108 C205 1_555 1_555
C205 H305 1_555 1_555
H306 C205 1_555 1_555
C206 C205 1_555 1_555
H307 C206 1_555 1_555
H308 C206 1_555 1_555
C207 C206 1_555 1_555
H309 C207 1_555 1_555
H310 C207 1_555 1_555
C208 O108 1_555 1_555
H311 C208 1_555 1_555
H312 C208 1_555 1_555
O109 C209 1_555 1_555
C209 H313 1_555 1_555
H314 C209 1_555 1_555
C210 C209 1_555 1_555
H315 C210 1_555 1_555
H316 C210 1_555 1_555
C211 C210 1_555 1_555
H317 C211 1_555 1_555
H318 C211 1_555 1_555
C212 O109 1_555 1_555
H319 C212 1_555 1_555
H320 C212 1_555 1_555
O110 C213 1_555 1_555
C213 H321 1_555 1_555
H322 C213 1_555 1_555
C214 C213 1_555 1_555
H323 C214 1_555 1_555
H324 C214 1_555 1_555
C215 C214 1_555 1_555
H325 C215 1_555 1_555
H326 C215 1_555 1_555
C216 O110 1_555 1_555
H327 C216 1_555 1_555
H328 C216 1_555 1_555
C5 C6 1_555 1_555
C11 C12 1_555 1_555
C17 C18 1_555 1_555
C23 C24 1_555 1_555
C25 C26 1_555 1_555
C27 C28 1_555 1_555
C28 C29 1_555 1_555
C29 C30 1_555 1_555
C35 C36 1_555 1_555
C41 C42 1_555 1_555
C47 C48 1_555 1_555
C53 C54 1_555 1_555
C55 C56 1_555 1_555
C57 C58 1_555 1_555
C58 C59 1_555 1_555
C59 C60 1_555 1_555
C65 C66 1_555 1_555
C71 C72 1_555 1_555
C77 C78 1_555 1_555
C83 C84 1_555 1_555
C85 C86 1_555 1_555
C87 C88 1_555 1_555
C88 C89 1_555 1_555
C89 C90 1_555 1_555
C95 C96 1_555 1_555
C101 C102 1_555 1_555
C107 C108 1_555 1_555
C113 C114 1_555 1_555
C115 C116 1_555 1_555
C117 C118 1_555 1_555
C118 C119 1_555 1_555
C119 C120 1_555 1_555
C139 C140 1_555 1_555
C143 C144 1_555 1_555
C147 C148 1_555 1_555
C151 C152 1_555 1_555
C155 C156 1_555 1_555
C159 C160 1_555 1_555
C163 C164 1_555 1_555
C167 C168 1_555 1_555
C171 C172 1_555 1_555
C175 C176 1_555 1_555
C179 C180 1_555 1_555
C183 C184 1_555 1_555
C187 C188 1_555 1_555
C191 C192 1_555 1_555
C195 C196 1_555 1_555
C199 C200 1_555 1_555
C203 C204 1_555 1_555
C207 C208 1_555 1_555
C211 C212 1_555 1_555
C215 C216 1_555 1_555

#END
