
#######################################################################
#
#                 Cambridge Crystallographic Data Centre
#                                CCDC 
#
#######################################################################
#
# If this CIF has been generated from an entry in the Cambridge 
# Structural Database, then it will include bibliographic, chemical, 
# crystal, experimental, refinement or atomic coordinate data resulting 
# from the CCDC's data processing and validation procedures.
#
#######################################################################

data_GUTBII
_chemical_formula_moiety         'C16 H16 Br1 N1 O1'
_chemical_name_systematic        N-(4-bromophenyl)-3-phenylbutanamide
_symmetry_cell_setting           monoclinic
_symmetry_space_group_name_H-M   'P 21'
_symmetry_Int_Tables_number      4
_space_group_name_Hall           'P 2yb'
loop_
_symmetry_equiv_pos_site_id
_symmetry_equiv_pos_as_xyz
1 x,y,z
2 -x,1/2+y,-z
_cell_length_a                   6.7753(3)
_cell_length_b                   9.7463(4)
_cell_length_c                   10.5571(5)
_cell_angle_alpha                90
_cell_angle_beta                 93.5333(6)
_cell_angle_gamma                90
_cell_volume                     695.804
_exptl_crystal_colour            colorless
_exptl_crystal_description       block
_cell_formula_units_Z            2
loop_
_atom_site_label
_atom_site_type_symbol
_atom_site_fract_x
_atom_site_fract_y
_atom_site_fract_z
Br1 Br 0.885937(19) 0.688631(18) -0.307152(12)
O1 O 0.04266(19) 0.51327(12) 0.01537(13)
N1 N 0.1472(2) 0.73418(15) -0.00903(13)
H1 H 0.110(3) 0.8179(12) 0.003(2)
C1 C 0.0224(2) 0.63673(17) 0.03275(15)
C2 C -0.1475(2) 0.6930(2) 0.10436(13)
H2 H -0.2737 0.6741 0.0551
H3 H -0.1332 0.7937 0.1125
C3 C -0.1551(3) 0.62953(18) 0.23735(16)
H4 H -0.1545 0.5274 0.2279
C4 C 0.0177(2) 0.66911(18) 0.32834(14)
C5 C 0.0751(3) 0.80586(19) 0.34611(18)
H5 H 0.0142 0.8754 0.2942
C6 C 0.2208(3) 0.8412(2) 0.43925(17)
H6 H 0.2591 0.9344 0.4504
C7 C 0.3100(3) 0.7402(2) 0.51578(19)
H7 H 0.4072 0.7645 0.5806
C8 C 0.2572(3) 0.6039(2) 0.49753(19)
H8 H 0.3201 0.5344 0.5486
C9 C 0.1121(3) 0.56924(18) 0.40448(18)
H9 H 0.0765 0.4756 0.3925
C10 C -0.3498(3) 0.6707(3) 0.29351(17)
H10 H -0.3573 0.6286 0.3774
H11 H -0.4612 0.6392 0.2374
H12 H -0.3553 0.7708 0.3017
C11 C 0.3184(2) 0.71599(14) -0.07790(15)
C12 C 0.3811(3) 0.58871(18) -0.12133(17)
H13 H 0.3084 0.5079 -0.1051
C13 C 0.5518(3) 0.58143(19) -0.18889(18)
H14 H 0.5958 0.4954 -0.2188
C14 C 0.6571(2) 0.7003(2) -0.21234(14)
C15 C 0.5961(3) 0.8267(2) -0.16851(19)
H15 H 0.6692 0.9074 -0.1844
C16 C 0.4274(3) 0.83363(17) -0.10132(16)
H16 H 0.3852 0.9198 -0.0707
loop_
_geom_bond_atom_site_label_1
_geom_bond_atom_site_label_2
_geom_bond_site_symmetry_1
_geom_bond_site_symmetry_2
Br1 C14 1_555 1_555
O1 C1 1_555 1_555
N1 H1 1_555 1_555
C1 N1 1_555 1_555
C2 C1 1_555 1_555
H2 C2 1_555 1_555
H3 C2 1_555 1_555
C3 C2 1_555 1_555
H4 C3 1_555 1_555
C4 C3 1_555 1_555
C5 C4 1_555 1_555
H5 C5 1_555 1_555
C6 C5 1_555 1_555
H6 C6 1_555 1_555
C7 C6 1_555 1_555
H7 C7 1_555 1_555
C8 C7 1_555 1_555
H8 C8 1_555 1_555
C9 C4 1_555 1_555
H9 C9 1_555 1_555
C10 C3 1_555 1_555
H10 C10 1_555 1_555
H11 C10 1_555 1_555
H12 C10 1_555 1_555
C11 N1 1_555 1_555
C12 C11 1_555 1_555
H13 C12 1_555 1_555
C13 C12 1_555 1_555
H14 C13 1_555 1_555
C14 C13 1_555 1_555
C15 C14 1_555 1_555
H15 C15 1_555 1_555
C16 C11 1_555 1_555
H16 C16 1_555 1_555
C8 C9 1_555 1_555
C15 C16 1_555 1_555

#END
