
#######################################################################
#
#                 Cambridge Crystallographic Data Centre
#                                CCDC 
#
#######################################################################
#
# If this CIF has been generated from an entry in the Cambridge 
# Structural Database, then it will include bibliographic, chemical, 
# crystal, experimental, refinement or atomic coordinate data resulting 
# from the CCDC's data processing and validation procedures.
#
#######################################################################

data_GUTQER
_chemical_name_common            
4-(2-(Benzothiazol-2-yl)vinyl)-benzo-15-crown-5
_chemical_formula_moiety         'C23 H25 N1 O5 S1'
_chemical_name_systematic        
15-(2-(Benzothiazol-2-yl)vinyl)-2,3,5,6,8,9,11,12-octahydro-1,4,7,10,13-benzopentaoxacyclopentadecine
_symmetry_cell_setting           monoclinic
_symmetry_space_group_name_H-M   'P 21/c'
_symmetry_Int_Tables_number      14
_space_group_name_Hall           '-P 2ybc'
loop_
_symmetry_equiv_pos_site_id
_symmetry_equiv_pos_as_xyz
1 x,y,z
2 x,1/2-y,1/2+z
3 -x,-y,-z
4 -x,1/2+y,1/2-z
_cell_length_a                   5.0566(7)
_cell_length_b                   14.156(2)
_cell_length_c                   28.558(4)
_cell_angle_alpha                90
_cell_angle_beta                 93.492(8)
_cell_angle_gamma                90
_cell_volume                     2040.42
_exptl_crystal_colour            yellow
_exptl_crystal_description       plate
_chemical_melting_point          '139-140 deg.C'
_cell_formula_units_Z            4
_exptl_crystal_recrystallization_method methanol
loop_
_atom_site_label
_atom_site_type_symbol
_atom_site_fract_x
_atom_site_fract_y
_atom_site_fract_z
O1 O -0.6252(3) 0.46818(11) -0.22100(5)
O2 O -0.4569(3) 0.53920(11) -0.30775(6)
O3 O -0.9148(3) 0.67437(12) -0.33556(6)
O4 O -1.1164(3) 0.75635(11) -0.22251(6)
O5 O -0.9362(3) 0.57958(11) -0.17981(5)
C1 C -0.4209(5) 0.4244(2) -0.24666(9)
C2 C -0.4905(6) 0.4414(2) -0.29759(9)
C3 C -0.5544(6) 0.5663(2) -0.35384(9)
C4 C -0.8447(6) 0.5879(2) -0.35753(10)
C5 C -0.9222(5) 0.6695(2) -0.28585(9)
C6 C -1.1179(5) 0.7445(2) -0.27240(9)
C7 C -1.2748(5) 0.6893(2) -0.19904(9)
C8 C -1.1155(5) 0.6442(2) -0.15914(9)
C9 C -0.7642(4) 0.5296(2) -0.15049(8)
C10 C -0.5924(5) 0.4679(2) -0.17281(8)
C11 C -0.4114(5) 0.4138(2) -0.14650(9)
C12 C -0.3904(5) 0.4217(2) -0.09710(10)
C13 C -0.5575(5) 0.4833(2) -0.07550(10)
C14 C -0.7456(5) 0.5370(2) -0.10207(9)
S1 S 0.2684(10) 0.2067(3) -0.04739(11)
N1 N 0.2195(29) 0.2977(10) 0.0317(4)
C15 C -0.1773(17) 0.3542(6) -0.0765(3)
H1 H -0.1008(17) 0.3107(6) -0.0971(3)
C16 C -0.0933(9) 0.3529(3) -0.0316(2)
H2 H -0.1770(9) 0.3943(3) -0.0109(2)
C17 C 0.1179(10) 0.2928(4) -0.0119(2)
C21 C 0.4695(5) 0.1747(2) -0.00329(9)
C22 C 0.4264(5) 0.2309(2) 0.03630(9)
C23 C 0.5756(5) 0.2159(2) 0.07858(10)
C24 C 0.7660(5) 0.1459(2) 0.08035(11)
C25 C 0.8095(6) 0.0907(2) 0.04169(11)
C26 C 0.6631(6) 0.1040(2) -0.00026(11)
H5 H -0.4231(44) 0.3556(17) -0.2403(8)
H6 H -0.2441(48) 0.4520(16) -0.2376(8)
H7 H -0.3718(49) 0.4029(17) -0.3173(9)
H8 H -0.6751(52) 0.4225(17) -0.3058(9)
H9 H -0.5287(48) 0.5116(17) -0.3787(9)
H10 H -0.4717(71) 0.6328(25) -0.3632(12)
H11 H -0.9113(60) 0.5983(20) -0.3940(12)
H12 H -0.9500(54) 0.5328(19) -0.3449(10)
H13 H -0.7418(47) 0.6835(15) -0.2690(8)
H14 H -0.9871(45) 0.6048(16) -0.2754(8)
H15 H -1.0611(45) 0.8045(17) -0.2850(8)
H16 H -1.3063(56) 0.7253(17) -0.2874(10)
H17 H -1.3545(43) 0.6426(16) -0.2206(8)
H18 H -1.4359(49) 0.7231(16) -0.1865(8)
H19 H -1.0106(48) 0.6917(17) -0.1399(9)
H20 H -1.2357(47) 0.6079(16) -0.1375(8)
H21 H -0.2943(50) 0.3707(17) -0.1609(9)
H22 H -0.5502(57) 0.4887(19) -0.0405(11)
H23 H -0.8592(50) 0.5808(17) -0.0859(9)
H24 H 0.5387(63) 0.2533(22) 0.1027(12)
H25 H 0.8736(54) 0.1383(19) 0.1097(10)
H26 H 0.9396(60) 0.0435(21) 0.0441(11)
H27 H 0.6892(54) 0.0621(19) -0.0269(10)
S2? S -0.8015(10) 0.3162(3) 0.01918(14)
N2? N -0.7030(34) 0.2001(13) -0.0461(5)
C18? C -0.2102(20) 0.3787(6) -0.0621(3)
H3? H -0.2159(20) 0.3987(6) -0.0304(3)
C19? C -0.0341(11) 0.3116(4) -0.0726(2)
H4? H -0.0311(11) 0.2909(4) -0.1042(2)
C20? C -0.8481(10) 0.2692(4) -0.0376(2)
loop_
_geom_bond_atom_site_label_1
_geom_bond_atom_site_label_2
_geom_bond_site_symmetry_1
_geom_bond_site_symmetry_2
O1 C1 1_555 1_555
O2 C2 1_555 1_555
O3 C4 1_555 1_555
O4 C6 1_555 1_555
O5 C8 1_555 1_555
C1 C2 1_555 1_555
C2 H7 1_555 1_555
C3 O2 1_555 1_555
C4 C3 1_555 1_555
C5 O3 1_555 1_555
C6 C5 1_555 1_555
C7 O4 1_555 1_555
C8 C7 1_555 1_555
C9 O5 1_555 1_555
C10 O1 1_555 1_555
C11 C10 1_555 1_555
C12 C11 1_555 1_555
C13 C12 1_555 1_555
C14 C9 1_555 1_555
S1 C17 1_555 1_555
N1 C17 1_555 1_555
C15 C12 1_555 1_555
H1 C15 1_555 1_555
C16 C15 1_555 1_555
H2 C16 1_555 1_555
C17 C16 1_555 1_555
C21 S1 1_555 1_555
C22 N1 1_555 1_555
C23 C22 1_555 1_555
C24 C23 1_555 1_555
C25 C24 1_555 1_555
C26 C21 1_555 1_555
H5 C1 1_555 1_555
H6 C1 1_555 1_555
H8 C2 1_555 1_555
H9 C3 1_555 1_555
H10 C3 1_555 1_555
H11 C4 1_555 1_555
H12 C4 1_555 1_555
H13 C5 1_555 1_555
H14 C5 1_555 1_555
H15 C6 1_555 1_555
H16 C6 1_555 1_555
H17 C7 1_555 1_555
H18 C7 1_555 1_555
H19 C8 1_555 1_555
H20 C8 1_555 1_555
H21 C11 1_555 1_555
H22 C13 1_555 1_555
H23 C14 1_555 1_555
H24 C23 1_555 1_555
H25 C24 1_555 1_555
H26 C25 1_555 1_555
H27 C26 1_555 1_555
C9 C10 1_555 1_555
C13 C14 1_555 1_555
C21 C22 1_555 1_555
C25 C26 1_555 1_555

#END
