
#######################################################################
#
#                 Cambridge Crystallographic Data Centre
#                                CCDC 
#
#######################################################################
#
# If this CIF has been generated from an entry in the Cambridge 
# Structural Database, then it will include bibliographic, chemical, 
# crystal, experimental, refinement or atomic coordinate data resulting 
# from the CCDC's data processing and validation procedures.
#
#######################################################################

data_GUTXEZ
_chemical_formula_moiety         'C36 H41 N3 O4 S1'
_chemical_name_systematic        
'4-(((5-((4-Butylphenyl)diazenyl)-2-thienyl)imino)methyl)-3-hydroxyphenyl 4-(octyloxy)benzoate'
_symmetry_cell_setting           monoclinic
_symmetry_space_group_name_H-M   'C 2/c'
_symmetry_Int_Tables_number      15
_space_group_name_Hall           '-C 2yn'
loop_
_symmetry_equiv_pos_site_id
_symmetry_equiv_pos_as_xyz
1 x,y,z
2 -x,y,1/2-z
3 1/2+x,1/2+y,z
4 1/2-x,1/2+y,1/2-z
5 -x,-y,-z
6 x,-y,1/2+z
7 1/2-x,1/2-y,-z
8 1/2+x,1/2-y,1/2+z
_cell_length_a                   72.65(5)
_cell_length_b                   5.633(3)
_cell_length_c                   16.57(3)
_cell_angle_alpha                90
_cell_angle_beta                 95.35(14)
_cell_angle_gamma                90
_cell_volume                     6751.52
_exptl_crystal_colour            orange
_exptl_crystal_description       prism
_cell_formula_units_Z            8
loop_
_atom_site_label
_atom_site_type_symbol
_atom_site_fract_x
_atom_site_fract_y
_atom_site_fract_z
C1 C 0.0153(3) -0.058(5) -0.1190(17)
H1 H 0.0039 0.0003 -0.1460
H2 H 0.0128 -0.1413 -0.0707
H3 H 0.0211 -0.1635 -0.1544
C2 C 0.0267(2) 0.126(4) -0.0992(13)
H4 H 0.0204 0.2324 -0.0649
H5 H 0.0285 0.2117 -0.1486
C3 C 0.0447(2) 0.075(4) -0.0581(10)
H6 H 0.0425 -0.0098 -0.0089
H7 H 0.0505 -0.0381 -0.0922
C4 C 0.0574(2) 0.236(3) -0.0369(9)
H8 H 0.0514 0.3507 -0.0043
H9 H 0.0596 0.3182 -0.0866
C5 C 0.07545(18) 0.197(3) 0.0053(7)
C6 C 0.07981(16) -0.014(2) 0.0481(8)
H10 H 0.0706 -0.1273 0.0492
C7 C 0.09690(16) -0.065(2) 0.0890(7)
H11 H 0.0987 -0.2061 0.1176
C8 C 0.11117(15) 0.094(2) 0.0872(7)
C9 C 0.10738(17) 0.303(2) 0.0434(6)
H12 H 0.1166 0.4157 0.0392
C10 C 0.09011(19) 0.341(3) 0.0070(7)
H13 H 0.0882 0.4853 -0.0200
C11 C 0.14840(16) -0.176(2) 0.1980(6)
C12 C 0.15221(15) -0.378(2) 0.2439(7)
H14 H 0.1438 -0.5018 0.2470
C13 C 0.17034(15) -0.3772(19) 0.2862(6)
H15 H 0.1750 -0.4989 0.3201
C14 C 0.18020(16) -0.1721(19) 0.2704(5)
C15 C 0.20660(16) 0.064(2) 0.2884(6)
H16 H 0.2014 0.1706 0.2499
C16 C 0.22449(16) 0.109(2) 0.3280(6)
C17 C 0.23276(16) -0.037(2) 0.3890(7)
C18 C 0.25032(17) 0.001(2) 0.4240(6)
H17 H 0.2556 -0.1005 0.4639
C19 C 0.25978(15) 0.188(2) 0.3997(6)
C20 C 0.25279(15) 0.349(2) 0.3405(6)
H18 H 0.2596 0.4777 0.3246
C21 C 0.23470(16) 0.304(2) 0.3068(6)
H19 H 0.2293 0.4093 0.2684
C22 C 0.29159(17) 0.089(2) 0.4191(7)
C23 C 0.31001(15) 0.132(2) 0.4593(6)
C24 C 0.32445(15) -0.020(2) 0.4479(6)
H20 H 0.3225 -0.1513 0.4144
C25 C 0.34179(14) 0.024(2) 0.4862(6)
H21 H 0.3514 -0.0826 0.4808
C26 C 0.34487(16) 0.235(2) 0.5345(7)
C27 C 0.33084(16) 0.3829(19) 0.5439(6)
H22 H 0.3330 0.5190 0.5752
C28 C 0.31309(15) 0.337(2) 0.5077(6)
H23 H 0.3034 0.4403 0.5154
C29 C 0.36707(14) 0.445(2) 0.6179(6)
H24 H 0.3604 0.4301 0.6656
H25 H 0.3635 0.5936 0.5910
C30 C 0.38755(15) 0.443(2) 0.6417(7)
H26 H 0.3938 0.4583 0.5927
H27 H 0.3906 0.5837 0.6742
C31 C 0.39528(16) 0.237(2) 0.6866(6)
H28 H 0.3927 0.0956 0.6542
H29 H 0.3892 0.2198 0.7360
C32 C 0.41638(17) 0.258(3) 0.7087(7)
H30 H 0.4224 0.2675 0.6590
H31 H 0.4189 0.4039 0.7385
C33 C 0.42471(18) 0.053(3) 0.7589(8)
H32 H 0.4221 -0.0953 0.7302
H33 H 0.4192 0.0449 0.8099
C34 C 0.4457(2) 0.085(3) 0.7756(10)
H34 H 0.4511 0.0879 0.7242
H35 H 0.4481 0.2381 0.8014
C35 C 0.4545(2) -0.093(4) 0.8251(10)
H36 H 0.4522 -0.2445 0.7982
H37 H 0.4486 -0.0982 0.8753
C36 C 0.4749(2) -0.070(3) 0.8459(10)
H38 H 0.4793 -0.2001 0.8798
H39 H 0.4775 0.0769 0.8743
H40 H 0.4811 -0.0711 0.7971
N1 N 0.12943(12) 0.0550(17) 0.1242(5)
N2 N 0.13113(13) -0.1491(17) 0.1583(6)
N3 N 0.19759(13) -0.1247(19) 0.3062(5)
O1 O 0.22406(9) -0.2292(14) 0.4178(4)
H41 H 0.2118 -0.2408 0.4021
O2 O 0.27790(11) 0.2344(13) 0.4335(4)
O3 O 0.28846(10) -0.0805(18) 0.3714(5)
O4 O 0.36288(10) 0.2491(15) 0.5640(4)
S1 S 0.16668(4) 0.0156(6) 0.20382(16)
loop_
_geom_bond_atom_site_label_1
_geom_bond_atom_site_label_2
_geom_bond_site_symmetry_1
_geom_bond_site_symmetry_2
C1 H1 1_555 1_555
H2 C1 1_555 1_555
H3 C1 1_555 1_555
C2 C1 1_555 1_555
H4 C2 1_555 1_555
H5 C2 1_555 1_555
C3 C2 1_555 1_555
H6 C3 1_555 1_555
H7 C3 1_555 1_555
C4 C3 1_555 1_555
H8 C4 1_555 1_555
H9 C4 1_555 1_555
C5 C4 1_555 1_555
C6 C5 1_555 1_555
H10 C6 1_555 1_555
C7 C6 1_555 1_555
H11 C7 1_555 1_555
C8 C7 1_555 1_555
C9 C8 1_555 1_555
H12 C9 1_555 1_555
C10 C5 1_555 1_555
H13 C10 1_555 1_555
C11 C12 1_555 1_555
C12 H14 1_555 1_555
C13 C12 1_555 1_555
H15 C13 1_555 1_555
C14 C13 1_555 1_555
C15 H16 1_555 1_555
C16 C15 1_555 1_555
C17 C16 1_555 1_555
C18 C17 1_555 1_555
H17 C18 1_555 1_555
C19 C18 1_555 1_555
C20 C19 1_555 1_555
H18 C20 1_555 1_555
C21 C16 1_555 1_555
H19 C21 1_555 1_555
C22 C23 1_555 1_555
C23 C24 1_555 1_555
C24 H20 1_555 1_555
C25 C24 1_555 1_555
H21 C25 1_555 1_555
C26 C25 1_555 1_555
C27 C26 1_555 1_555
H22 C27 1_555 1_555
C28 C23 1_555 1_555
H23 C28 1_555 1_555
C29 H24 1_555 1_555
H25 C29 1_555 1_555
C30 C29 1_555 1_555
H26 C30 1_555 1_555
H27 C30 1_555 1_555
C31 C30 1_555 1_555
H28 C31 1_555 1_555
H29 C31 1_555 1_555
C32 C31 1_555 1_555
H30 C32 1_555 1_555
H31 C32 1_555 1_555
C33 C32 1_555 1_555
H32 C33 1_555 1_555
H33 C33 1_555 1_555
C34 C33 1_555 1_555
H34 C34 1_555 1_555
H35 C34 1_555 1_555
C35 C34 1_555 1_555
H36 C35 1_555 1_555
H37 C35 1_555 1_555
C36 C35 1_555 1_555
H38 C36 1_555 1_555
H39 C36 1_555 1_555
H40 C36 1_555 1_555
N1 C8 1_555 1_555
N2 C11 1_555 1_555
N3 C14 1_555 1_555
O1 C17 1_555 1_555
H41 O1 1_555 1_555
O2 C19 1_555 1_555
O3 C22 1_555 1_555
O4 C26 1_555 1_555
S1 C11 1_555 1_555
C9 C10 1_555 1_555
C14 S1 1_555 1_555
C15 N3 1_555 1_555
C20 C21 1_555 1_555
C22 O2 1_555 1_555
C27 C28 1_555 1_555
C29 O4 1_555 1_555
N1 N2 1_555 1_555

#END
