
#######################################################################
#
#                 Cambridge Crystallographic Data Centre
#                                CCDC 
#
#######################################################################
#
# If this CIF has been generated from an entry in the Cambridge 
# Structural Database, then it will include bibliographic, chemical, 
# crystal, experimental, refinement or atomic coordinate data resulting 
# from the CCDC's data processing and validation procedures.
#
#######################################################################

data_GUVFOU
_chemical_formula_moiety         'C21 H20 N2'
_chemical_name_systematic        
11-phenyl-1,2,3,9,10,12b-hexahydrodipyrrolo[1,2-a:3',2'-c][1]benzazepine
_symmetry_cell_setting           orthorhombic
_symmetry_space_group_name_H-M   'P b c a'
_symmetry_Int_Tables_number      61
_space_group_name_Hall           '-P 2ac 2ab'
loop_
_symmetry_equiv_pos_site_id
_symmetry_equiv_pos_as_xyz
1 x,y,z
2 1/2-x,-y,1/2+z
3 -x,1/2+y,1/2-z
4 1/2+x,1/2-y,-z
5 -x,-y,-z
6 1/2+x,y,1/2-z
7 x,1/2-y,1/2+z
8 1/2-x,1/2+y,z
_cell_length_a                   7.8694(14)
_cell_length_b                   16.844(3)
_cell_length_c                   24.623(4)
_cell_angle_alpha                90
_cell_angle_beta                 90
_cell_angle_gamma                90
_cell_volume                     3263.83
_exptl_crystal_colour            colorless
_exptl_crystal_description       block
_cell_formula_units_Z            8
loop_
_atom_site_label
_atom_site_type_symbol
_atom_site_fract_x
_atom_site_fract_y
_atom_site_fract_z
C1 C 0.9042(7) 0.0098(4) 0.6345(3)
H1 H 0.8050 -0.0060 0.6171
C2 C 0.9452(9) -0.0245(4) 0.6830(3)
H2 H 0.8785 -0.0654 0.6967
C3 C 1.0804(10) 0.0005(4) 0.7107(3)
H3 H 1.1046 -0.0209 0.7446
C4 C 1.1846(9) 0.0583(3) 0.6889(2)
H4 H 1.2797 0.0757 0.7079
C5 C 1.1461(8) 0.0904(3) 0.6381(2)
H5 H 1.2178 0.1281 0.6227
C6 C 1.0035(6) 0.0665(3) 0.6106(2)
C7 C 0.9569(6) 0.0991(3) 0.5572(2)
C8 C 0.8510(7) 0.0694(3) 0.5186(2)
H6 H 0.7946 0.0210 0.5203
C9 C 0.8413(6) 0.1246(3) 0.4757(2)
C10 C 0.9391(5) 0.1883(3) 0.48968(19)
C11 C 0.9673(5) 0.2651(3) 0.46175(18)
H7 H 0.9757 0.3129 0.4806
C12 C 0.9813(5) 0.2607(3) 0.4011(2)
C13 C 0.8562(6) 0.2261(3) 0.3693(2)
C14 C 0.8681(8) 0.2313(3) 0.3129(2)
H8 H 0.7847 0.2086 0.2911
C15 C 1.0033(9) 0.2700(4) 0.2897(3)
H9 H 1.0092 0.2746 0.2521
C16 C 1.1275(8) 0.3014(5) 0.3204(3)
H10 H 1.2203 0.3259 0.3041
C17 C 1.1169(6) 0.2973(4) 0.3754(3)
H11 H 1.2029 0.3196 0.3963
C18 C 0.7410(7) 0.1149(3) 0.4239(2)
H12 H 0.8044 0.0797 0.3995
C19 C 0.5604(8) 0.0804(3) 0.4318(2)
H13 H 0.5557 0.0257 0.4196
H14 H 0.5274 0.0825 0.4697
C20 C 0.4442(7) 0.1325(4) 0.3974(3)
H15 H 0.3644 0.1003 0.3770
H16 H 0.3811 0.1692 0.4201
C21 C 0.5620(8) 0.1763(4) 0.3599(2)
H17 H 0.5931 0.1439 0.3289
H18 H 0.5112 0.2254 0.3472
N1 N 1.0110(4) 0.1722(2) 0.53936(15)
H19 H 1.0793 0.2031 0.5566
N2 N 0.7097(5) 0.1918(2) 0.39509(15)
loop_
_geom_bond_atom_site_label_1
_geom_bond_atom_site_label_2
_geom_bond_site_symmetry_1
_geom_bond_site_symmetry_2
C1 H1 1_555 1_555
C2 C1 1_555 1_555
H2 C2 1_555 1_555
C3 C2 1_555 1_555
H3 C3 1_555 1_555
C4 C3 1_555 1_555
H4 C4 1_555 1_555
C5 C4 1_555 1_555
H5 C5 1_555 1_555
C6 C1 1_555 1_555
C7 C6 1_555 1_555
C8 C7 1_555 1_555
H6 C8 1_555 1_555
C9 C8 1_555 1_555
C10 C9 1_555 1_555
C11 C10 1_555 1_555
H7 C11 1_555 1_555
C12 C11 1_555 1_555
C13 C12 1_555 1_555
C14 C13 1_555 1_555
H8 C14 1_555 1_555
C15 C14 1_555 1_555
H9 C15 1_555 1_555
C16 C15 1_555 1_555
H10 C16 1_555 1_555
C17 C12 1_555 1_555
H11 C17 1_555 1_555
C18 C9 1_555 1_555
H12 C18 1_555 1_555
C19 C18 1_555 1_555
H13 C19 1_555 1_555
H14 C19 1_555 1_555
C20 C19 1_555 1_555
H15 C20 1_555 1_555
H16 C20 1_555 1_555
C21 C20 1_555 1_555
H17 C21 1_555 1_555
H18 C21 1_555 1_555
N1 C7 1_555 1_555
H19 N1 1_555 1_555
N2 C13 1_555 1_555
C5 C6 1_555 1_555
C10 N1 1_555 1_555
C16 C17 1_555 1_555
C18 N2 1_555 1_555
C21 N2 1_555 1_555

#END
