
#######################################################################
#
#                 Cambridge Crystallographic Data Centre
#                                CCDC 
#
#######################################################################
#
# If this CIF has been generated from an entry in the Cambridge 
# Structural Database, then it will include bibliographic, chemical, 
# crystal, experimental, refinement or atomic coordinate data resulting 
# from the CCDC's data processing and validation procedures.
#
#######################################################################

data_GUVROF
_chemical_name_common            
(1R,2S,3S,4S)-(6-O-Acetyl-1,3-O-isopropylidene-3,5-dideoxy-alpha-D-glucofuranoso)-1,3,5-trihydro-2,3-oxathiaindene-2,2-dioxide
_chemical_formula_moiety         'C11 H16 O8 S1'
_chemical_name_systematic        
'(6,6-Dimethyl-2,2-dioxidotetrahydro-3H-[1,3]dioxolo[4,5]furo[2,3-d][1,2]oxathiol-3-yl)methyl acetate'
_symmetry_cell_setting           triclinic
_symmetry_space_group_name_H-M   'P 1'
_symmetry_Int_Tables_number      1
_space_group_name_Hall           'P 1'
loop_
_symmetry_equiv_pos_site_id
_symmetry_equiv_pos_as_xyz
1 x,y,z
_cell_length_a                   7.0836(14)
_cell_length_b                   10.832(2)
_cell_length_c                   14.895(3)
_cell_angle_alpha                96.01(3)
_cell_angle_beta                 98.85(3)
_cell_angle_gamma                108.59(3)
_cell_volume                     1055.84
_exptl_crystal_colour            colorless
_exptl_crystal_description       black
_chemical_melting_point          '105-106 deg.C'
_cell_formula_units_Z            3
loop_
_atom_site_label
_atom_site_type_symbol
_atom_site_fract_x
_atom_site_fract_y
_atom_site_fract_z
S1 S 0.47041(9) 0.34985(5) 0.39885(5)
O1 O 0.2796(4) -0.18132(16) 0.33900(11)
O2 O 0.3829(3) -0.07909(15) 0.48814(11)
O3 O 0.2550(3) 0.01594(16) 0.30346(11)
O4 O 0.5744(2) 0.24455(15) 0.42583(13)
O5 O 0.5846(3) 0.4242(2) 0.34159(19)
O6 O 0.4417(3) 0.41512(17) 0.48073(14)
O7 O 0.0668(3) 0.39062(15) 0.31501(12)
O8 O -0.0964(3) 0.26913(19) 0.17766(14)
C2 C 0.3809(7) -0.2995(3) 0.4493(2)
H3 H 0.5170 -0.2648 0.4388
H4 H 0.3099 -0.3822 0.4090
H5 H 0.3852 -0.3130 0.5121
C3 C 0.0576(6) -0.2440(4) 0.4434(3)
H6 H 0.0027 -0.1761 0.4301
H7 H 0.0536 -0.2569 0.5059
H8 H -0.0216 -0.3249 0.4025
C4 C 0.2728(5) -0.2039(2) 0.43026(17)
C5 C 0.4838(4) 0.0131(2) 0.43496(17)
H9 H 0.6314 0.0338 0.4476
C6 C 0.3840(4) -0.0511(2) 0.33544(16)
H10 H 0.4872 -0.0449 0.2976
C7 C 0.2319(3) 0.10356(18) 0.37595(14)
H11 H 0.1084 0.0633 0.3994
C8 C 0.4225(3) 0.1335(2) 0.44917(16)
H12 H 0.3991 0.1519 0.5116
C9 C 0.2315(3) 0.2300(2) 0.33888(15)
H13 H 0.2322 0.2174 0.2728
C10 C 0.0529(4) 0.2722(2) 0.35360(19)
H14 H -0.0732 0.2025 0.3241
H15 H 0.0536 0.2886 0.4190
C11 C -0.0129(4) 0.3757(3) 0.22517(19)
C12 C 0.0134(6) 0.5033(3) 0.1917(2)
H16 H -0.0456 0.4870 0.1273
H17 H 0.1556 0.5535 0.2011
H18 H -0.0528 0.5521 0.2252
S2 S 0.11621(10) 0.86866(5) 0.02738(5)
O9 O 0.3878(3) 1.28904(16) -0.06950(11)
O10 O 0.4617(3) 1.40330(16) 0.07482(11)
O11 O 0.2796(3) 1.20652(15) 0.11897(11)
O12 O 0.3087(2) 0.97390(15) 0.00219(12)
O13 O 0.1898(4) 0.7924(2) 0.08492(17)
O14 O -0.0253(3) 0.80460(17) -0.05626(14)
C1 C -0.1977(4) 0.9450(2) 0.07058(19)
H1 H -0.2374 1.0133 0.1017
H2 H -0.2533 0.9326 0.0053
O15 O -0.2247(3) 0.93681(18) 0.24577(14)
C13 C 0.2169(6) 1.4402(4) -0.0391(3)
H19 H 0.1118 1.3712 -0.0220
H20 H 0.1819 1.4421 -0.1037
H21 H 0.2308 1.5236 -0.0045
C14 C 0.5854(6) 1.5184(3) -0.0442(2)
H22 H 0.7068 1.4965 -0.0308
H23 H 0.6057 1.6026 -0.0090
H24 H 0.5547 1.5222 -0.1087
C15 C 0.4123(4) 1.4149(2) -0.01932(17)
C16 C 0.4521(4) 1.2751(2) 0.08599(17)
H25 H 0.5760 1.2764 0.1264
C17 C 0.4337(4) 1.2051(2) -0.01056(17)
H26 H 0.5561 1.1853 -0.0191
C18 C 0.2483(4) 1.0830(2) -0.02431(16)
H27 H 0.1683 1.0622 -0.0872
C19 C 0.1293(3) 1.11410(19) 0.04731(14)
H28 H 0.0278 1.1511 0.0212
C20 C 0.0306(3) 0.98810(19) 0.08597(15)
H29 H 0.0860 1.0021 0.1522
O24 O -0.2788(2) 0.82397(15) 0.10498(12)
C21 C -0.2841(4) 0.8342(2) 0.1950(2)
C22 C -0.3759(6) 0.7025(3) 0.2219(2)
H30 H -0.3780 0.7136 0.2865
H31 H -0.2966 0.6480 0.2092
H32 H -0.5123 0.6613 0.1873
S3 S 0.67472(8) 0.06701(5) 0.78368(4)
O16 O 0.0449(2) -0.30195(14) 0.67632(11)
O17 O 0.1826(3) -0.43171(15) 0.75147(12)
O18 O 0.4891(2) -0.25945(16) 0.79534(12)
O19 O 0.4444(2) -0.00365(14) 0.78980(11)
O20 O 0.7814(3) 0.1251(2) 0.87385(14)
O21 O 0.6795(3) 0.14562(17) 0.71350(14)
O22 O 1.0172(2) 0.04560(17) 0.69542(11)
O23 O 1.0033(3) 0.1138(2) 0.55893(14)
C23 C -0.1732(5) -0.4694(3) 0.7454(3)
H33 H -0.1390 -0.4077 0.8016
H34 H -0.1985 -0.5570 0.7594
H35 H -0.2928 -0.4653 0.7074
C24 C -0.0369(5) -0.5257(3) 0.6060(2)
H36 H 0.0781 -0.4965 0.5771
H37 H -0.1563 -0.5249 0.5660
H38 H -0.0559 -0.6138 0.6180
C25 C -0.0005(4) -0.4350(2) 0.69520(18)
C26 C 0.1833(3) -0.2170(2) 0.75353(16)
H39 H 0.1182 -0.1736 0.7939
C27 C 0.2850(4) -0.3043(2) 0.80164(16)
H40 H 0.2702 -0.3011 0.8661
C28 C 0.3517(3) -0.12065(19) 0.71976(15)
H41 H 0.3067 -0.1006 0.6591
C29 C 0.5129(3) -0.1874(2) 0.72003(16)
H42 H 0.4910 -0.2458 0.6616
C30 C 0.7216(3) -0.0814(2) 0.74189(15)
H43 H 0.8078 -0.1026 0.7916
C31 C 0.8284(3) -0.0610(2) 0.66132(17)
H44 H 0.8530 -0.1406 0.6387
H45 H 0.7465 -0.0387 0.6115
C32 C 1.0839(4) 0.1325(3) 0.63844(19)
C33 C 1.2598(4) 0.2484(3) 0.6870(2)
H46 H 1.3027 0.3076 0.6447
H47 H 1.3694 0.2197 0.7114
H48 H 1.2214 0.2929 0.7365
loop_
_geom_bond_atom_site_label_1
_geom_bond_atom_site_label_2
_geom_bond_site_symmetry_1
_geom_bond_site_symmetry_2
S1 O4 1_555 1_555
S2 O12 1_555 1_555
S3 O19 1_555 1_555
O1 C4 1_555 1_555
O2 C4 1_555 1_555
O3 C6 1_555 1_555
O4 C8 1_555 1_555
O5 S1 1_555 1_555
O6 S1 1_555 1_555
O7 C10 1_555 1_555
O8 C11 1_555 1_555
O9 C15 1_555 1_555
O10 C15 1_555 1_555
O11 C16 1_555 1_555
O12 C18 1_555 1_555
O13 S2 1_555 1_555
O14 S2 1_555 1_555
C1 H1 1_555 1_555
H2 C1 1_555 1_555
O15 C21 1_555 1_555
O16 C25 1_555 1_555
O17 C25 1_555 1_555
O18 C27 1_555 1_555
O19 C28 1_555 1_555
O20 S3 1_555 1_555
O21 S3 1_555 1_555
O22 C31 1_555 1_555
O23 C32 1_555 1_555
C2 H3 1_555 1_555
H4 C2 1_555 1_555
H5 C2 1_555 1_555
C3 H6 1_555 1_555
H7 C3 1_555 1_555
H8 C3 1_555 1_555
C4 C2 1_555 1_555
C5 O2 1_555 1_555
H9 C5 1_555 1_555
C6 O1 1_555 1_555
H10 C6 1_555 1_555
C7 O3 1_555 1_555
H11 C7 1_555 1_555
C8 C5 1_555 1_555
H12 C8 1_555 1_555
C9 S1 1_555 1_555
H13 C9 1_555 1_555
C10 C9 1_555 1_555
H14 C10 1_555 1_555
H15 C10 1_555 1_555
C11 O7 1_555 1_555
C12 C11 1_555 1_555
H16 C12 1_555 1_555
H17 C12 1_555 1_555
H18 C12 1_555 1_555
C13 H19 1_555 1_555
H20 C13 1_555 1_555
H21 C13 1_555 1_555
C14 H22 1_555 1_555
H23 C14 1_555 1_555
H24 C14 1_555 1_555
C15 C13 1_555 1_555
C16 O10 1_555 1_555
H25 C16 1_555 1_555
C17 O9 1_555 1_555
H26 C17 1_555 1_555
C18 C17 1_555 1_555
H27 C18 1_555 1_555
C19 O11 1_555 1_555
H28 C19 1_555 1_555
C20 S2 1_555 1_555
H29 C20 1_555 1_555
O24 C1 1_555 1_555
C21 O24 1_555 1_555
C22 C21 1_555 1_555
H30 C22 1_555 1_555
H31 C22 1_555 1_555
H32 C22 1_555 1_555
C23 H33 1_555 1_555
H34 C23 1_555 1_555
H35 C23 1_555 1_555
C24 H36 1_555 1_555
H37 C24 1_555 1_555
H38 C24 1_555 1_555
C25 C23 1_555 1_555
C26 O16 1_555 1_555
H39 C26 1_555 1_555
C27 O17 1_555 1_555
H40 C27 1_555 1_555
C28 C26 1_555 1_555
H41 C28 1_555 1_555
C29 O18 1_555 1_555
H42 C29 1_555 1_555
C30 S3 1_555 1_555
H43 C30 1_555 1_555
C31 C30 1_555 1_555
H44 C31 1_555 1_555
H45 C31 1_555 1_555
C32 O22 1_555 1_555
C33 C32 1_555 1_555
H46 C33 1_555 1_555
H47 C33 1_555 1_555
H48 C33 1_555 1_555
C1 C20 1_555 1_555
C3 C4 1_555 1_555
C5 C6 1_555 1_555
C7 C8 1_555 1_555
C7 C9 1_555 1_555
C14 C15 1_555 1_555
C16 C17 1_555 1_555
C18 C19 1_555 1_555
C19 C20 1_555 1_555
C24 C25 1_555 1_555
C26 C27 1_555 1_555
C28 C29 1_555 1_555
C29 C30 1_555 1_555

#END
