
#######################################################################
#
#                 Cambridge Crystallographic Data Centre
#                                CCDC 
#
#######################################################################
#
# If this CIF has been generated from an entry in the Cambridge 
# Structural Database, then it will include bibliographic, chemical, 
# crystal, experimental, refinement or atomic coordinate data resulting 
# from the CCDC's data processing and validation procedures.
#
#######################################################################

data_GUVSUM
_chemical_formula_moiety         'C18 H26 N2 O4 S1'
_chemical_name_systematic        
't-Butyl 7-(methylsulfonyl)-1-phenyl-hexahydro-1H-pyrrolo[1,2-a]imidazole-5-carboxylate'
_symmetry_cell_setting           triclinic
_symmetry_space_group_name_H-M   'P -1'
_symmetry_Int_Tables_number      2
_space_group_name_Hall           '-P 1'
loop_
_symmetry_equiv_pos_site_id
_symmetry_equiv_pos_as_xyz
1 x,y,z
2 -x,-y,-z
_cell_length_a                   9.8870(12)
_cell_length_b                   13.6122(17)
_cell_length_c                   14.1798(17)
_cell_angle_alpha                90.404(2)
_cell_angle_beta                 101.890(2)
_cell_angle_gamma                93.496(2)
_cell_volume                     1863.58
_exptl_crystal_colour            colorless
_exptl_crystal_description       'triangular plate'
_chemical_melting_point          '135.9-137.5 deg.C'
_cell_formula_units_Z            4
loop_
_atom_site_label
_atom_site_type_symbol
_atom_site_fract_x
_atom_site_fract_y
_atom_site_fract_z
C1 C 0.8328(6) 1.0930(4) 0.0198(4)
H1 H 0.8035 1.1257 -0.0426
H2 H 0.9352 1.0955 0.0369
C2 C 0.7734(7) 1.1405(4) 0.0988(4)
H3 H 0.8418 1.1897 0.1363
H4 H 0.6885 1.1736 0.0705
N1 N 0.7417(5) 1.0600(3) 0.1605(3)
C3 C 0.8663(6) 1.0310(4) 0.2296(4)
H5 H 0.9496 1.0447 0.2008
C4 C 0.8815(6) 1.0943(4) 0.3212(4)
O1 O 0.9660(5) 1.1623(3) 0.3399(3)
O2 O 0.7895(4) 1.0657(3) 0.3734(3)
C5 C 0.7753(6) 1.1223(5) 0.4606(4)
C6 C 0.7410(7) 1.2270(5) 0.4327(5)
H6 H 0.8208 1.2613 0.4135
H7 H 0.7191 1.2617 0.4879
H8 H 0.6610 1.2253 0.3787
C7 C 0.6540(7) 1.0677(5) 0.4904(5)
H9 H 0.6776 1.0003 0.5077
H10 H 0.5735 1.0657 0.4367
H11 H 0.6320 1.1014 0.5461
C8 C 0.9070(7) 1.1182(5) 0.5376(4)
H12 H 0.9835 1.1548 0.5163
H13 H 0.9294 1.0494 0.5482
H14 H 0.8931 1.1477 0.5979
C9 C 0.8441(6) 0.9198(4) 0.2406(4)
H15 H 0.9312 0.8871 0.2417
H16 H 0.8122 0.9050 0.3010
C10 C 0.7337(5) 0.8849(4) 0.1530(4)
H17 H 0.7753 0.8387 0.1135
S1 S 0.58743(14) 0.82181(10) 0.18781(10)
O3 O 0.6416(4) 0.7470(3) 0.2544(3)
O4 O 0.4870(4) 0.7901(3) 0.1021(3)
C11 C 0.5134(6) 0.9093(4) 0.2501(4)
H18 H 0.4761 0.9605 0.2056
H19 H 0.5843 0.9392 0.3027
H20 H 0.4385 0.8769 0.2765
C12 C 0.6959(5) 0.9774(4) 0.0938(4)
H21 H 0.5939 0.9765 0.0678
N2 N 0.7731(5) 0.9905(3) 0.0159(3)
C13 C 0.7258(6) 0.9423(4) -0.0729(4)
C14 C 0.6164(6) 0.8696(4) -0.0874(4)
H22 H 0.5740 0.8510 -0.0353
C15 C 0.5700(6) 0.8249(4) -0.1766(4)
H23 H 0.4939 0.7773 -0.1858
C16 C 0.6321(6) 0.8482(5) -0.2532(4)
H24 H 0.6000 0.8165 -0.3143
C17 C 0.7423(6) 0.9186(5) -0.2393(4)
H25 H 0.7867 0.9346 -0.2911
C18 C 0.7880(6) 0.9657(4) -0.1508(4)
H26 H 0.8625 1.0146 -0.1427
C19 C 0.2930(6) 0.3895(4) 0.0909(4)
H27 H 0.3912 0.3842 0.1227
H28 H 0.2686 0.3419 0.0360
C20 C 0.1970(6) 0.3725(4) 0.1624(4)
H29 H 0.1073 0.3394 0.1300
H30 H 0.2402 0.3314 0.2163
N3 N 0.1770(4) 0.4717(3) 0.1978(3)
C21 C 0.2989(5) 0.5124(4) 0.2703(4)
H31 H 0.3837 0.4788 0.2635
C22 C 0.2678(5) 0.4946(4) 0.3702(4)
O5 O 0.2321(5) 0.5568(3) 0.4189(3)
O6 O 0.2868(4) 0.4010(3) 0.3939(3)
C23 C 0.2669(6) 0.3655(4) 0.4891(4)
C24 C 0.3747(7) 0.4178(5) 0.5672(4)
H32 H 0.4673 0.4072 0.5559
H33 H 0.3662 0.3918 0.6301
H34 H 0.3607 0.4885 0.5662
C25 C 0.1204(7) 0.3774(5) 0.5002(6)
H35 H 0.0558 0.3418 0.4475
H36 H 0.1022 0.4474 0.4981
H37 H 0.1079 0.3507 0.5620
C26 C 0.2926(8) 0.2565(5) 0.4842(5)
H38 H 0.3883 0.2492 0.4777
H39 H 0.2287 0.2253 0.4285
H40 H 0.2774 0.2249 0.5434
C27 C 0.3157(6) 0.6224(4) 0.2484(4)
H41 H 0.2911 0.6632 0.2997
H42 H 0.4124 0.6412 0.2437
C28 C 0.2166(5) 0.6364(4) 0.1517(4)
H43 H 0.2695 0.6701 0.1069
S2 S 0.07506(14) 0.70843(10) 0.16309(10)
O7 O 0.1335(4) 0.7987(3) 0.2133(3)
O8 O -0.0114(4) 0.7162(3) 0.0685(3)
C29 C -0.0205(6) 0.6419(4) 0.2360(4)
H44 H 0.0370 0.6358 0.3006
H45 H -0.0488 0.5761 0.2075
H46 H -0.1029 0.6766 0.2406
C30 C 0.1696(6) 0.5318(4) 0.1129(4)
H47 H 0.0733 0.5292 0.0732
N4 N 0.2662(5) 0.4912(3) 0.0592(3)
C31 C 0.2662(6) 0.5151(4) -0.0361(4)
C32 C 0.3507(6) 0.4676(4) -0.0874(4)
H48 H 0.4078 0.4182 -0.0572
C33 C 0.3515(6) 0.4922(4) -0.1823(4)
H49 H 0.4106 0.4599 -0.2157
C34 C 0.2692(6) 0.5621(4) -0.2289(4)
H50 H 0.2699 0.5773 -0.2941
C35 C 0.1843(7) 0.6103(4) -0.1786(4)
H51 H 0.1264 0.6585 -0.2100
C36 C 0.1835(6) 0.5884(4) -0.0832(4)
H52 H 0.1269 0.6229 -0.0495
loop_
_geom_bond_atom_site_label_1
_geom_bond_atom_site_label_2
_geom_bond_site_symmetry_1
_geom_bond_site_symmetry_2
C1 H1 1_555 1_555
H2 C1 1_555 1_555
C2 C1 1_555 1_555
H3 C2 1_555 1_555
H4 C2 1_555 1_555
N1 C2 1_555 1_555
C3 N1 1_555 1_555
H5 C3 1_555 1_555
C4 C3 1_555 1_555
O1 C4 1_555 1_555
O2 C4 1_555 1_555
C5 O2 1_555 1_555
C6 C5 1_555 1_555
H6 C6 1_555 1_555
H7 C6 1_555 1_555
H8 C6 1_555 1_555
C7 C5 1_555 1_555
H9 C7 1_555 1_555
H10 C7 1_555 1_555
H11 C7 1_555 1_555
C8 C5 1_555 1_555
H12 C8 1_555 1_555
H13 C8 1_555 1_555
H14 C8 1_555 1_555
C9 C3 1_555 1_555
H15 C9 1_555 1_555
H16 C9 1_555 1_555
C10 C9 1_555 1_555
H17 C10 1_555 1_555
S1 C10 1_555 1_555
O3 S1 1_555 1_555
O4 S1 1_555 1_555
C11 S1 1_555 1_555
H18 C11 1_555 1_555
H19 C11 1_555 1_555
H20 C11 1_555 1_555
C12 N1 1_555 1_555
H21 C12 1_555 1_555
N2 C1 1_555 1_555
C13 N2 1_555 1_555
C14 C13 1_555 1_555
H22 C14 1_555 1_555
C15 C14 1_555 1_555
H23 C15 1_555 1_555
C16 C15 1_555 1_555
H24 C16 1_555 1_555
C17 C16 1_555 1_555
H25 C17 1_555 1_555
C18 C13 1_555 1_555
H26 C18 1_555 1_555
C19 H27 1_555 1_555
H28 C19 1_555 1_555
C20 C19 1_555 1_555
H29 C20 1_555 1_555
H30 C20 1_555 1_555
N3 C20 1_555 1_555
C21 N3 1_555 1_555
H31 C21 1_555 1_555
C22 C21 1_555 1_555
O5 C22 1_555 1_555
O6 C22 1_555 1_555
C23 O6 1_555 1_555
C24 C23 1_555 1_555
H32 C24 1_555 1_555
H33 C24 1_555 1_555
H34 C24 1_555 1_555
C25 C23 1_555 1_555
H35 C25 1_555 1_555
H36 C25 1_555 1_555
H37 C25 1_555 1_555
C26 C23 1_555 1_555
H38 C26 1_555 1_555
H39 C26 1_555 1_555
H40 C26 1_555 1_555
C27 C21 1_555 1_555
H41 C27 1_555 1_555
H42 C27 1_555 1_555
C28 C27 1_555 1_555
H43 C28 1_555 1_555
S2 C28 1_555 1_555
O7 S2 1_555 1_555
O8 S2 1_555 1_555
C29 S2 1_555 1_555
H44 C29 1_555 1_555
H45 C29 1_555 1_555
H46 C29 1_555 1_555
C30 N3 1_555 1_555
H47 C30 1_555 1_555
N4 C19 1_555 1_555
C31 N4 1_555 1_555
C32 C31 1_555 1_555
H48 C32 1_555 1_555
C33 C32 1_555 1_555
H49 C33 1_555 1_555
C34 C33 1_555 1_555
H50 C34 1_555 1_555
C35 C34 1_555 1_555
H51 C35 1_555 1_555
C36 C31 1_555 1_555
H52 C36 1_555 1_555
C10 C12 1_555 1_555
C12 N2 1_555 1_555
C17 C18 1_555 1_555
C28 C30 1_555 1_555
C30 N4 1_555 1_555
C35 C36 1_555 1_555

#END
