
#######################################################################
#
#                 Cambridge Crystallographic Data Centre
#                                CCDC 
#
#######################################################################
#
# If this CIF has been generated from an entry in the Cambridge 
# Structural Database, then it will include bibliographic, chemical, 
# crystal, experimental, refinement or atomic coordinate data resulting 
# from the CCDC's data processing and validation procedures.
#
#######################################################################

data_GUVTEX
_chemical_formula_moiety         'C30 H34 N2 O4 S1'
_chemical_name_systematic        
'(3R*,5R*,7S*,7aR*)-t-Butyl 1-benzyl-3-phenyl-7-(phenylsulfonyl)-hexahydro-1H-pyrrolo[1,2-a]imidazole-5-carboxylate'
_symmetry_cell_setting           monoclinic
_symmetry_space_group_name_H-M   'P 21/c'
_symmetry_Int_Tables_number      14
_space_group_name_Hall           '-P 2ybc'
loop_
_symmetry_equiv_pos_site_id
_symmetry_equiv_pos_as_xyz
1 x,y,z
2 -x,1/2+y,1/2-z
3 -x,-y,-z
4 x,1/2-y,1/2+z
_cell_length_a                   5.8271(12)
_cell_length_b                   13.968(3)
_cell_length_c                   33.404(7)
_cell_angle_alpha                90
_cell_angle_beta                 93.368(4)
_cell_angle_gamma                90
_cell_volume                     2714.15
_exptl_crystal_colour            colorless
_exptl_crystal_description       rod
_chemical_melting_point          '176.4-177.0 deg.C'
_cell_formula_units_Z            4
loop_
_atom_site_label
_atom_site_type_symbol
_atom_site_fract_x
_atom_site_fract_y
_atom_site_fract_z
N1 N 0.1189(3) 0.72184(10) 0.42286(4)
C1 C 0.3317(3) 0.66758(13) 0.43460(5)
H1 H 0.4677 0.7003 0.4238
C2 C 0.2870(3) 0.57365(13) 0.41269(5)
H2 H 0.4329 0.5400 0.4083
H3 H 0.1877 0.5313 0.4280
N2 N 0.1708(3) 0.60220(10) 0.37441(4)
C3 C 0.0494(3) 0.69204(12) 0.38133(5)
H4 H -0.1203 0.6810 0.3788
O1 O 0.0051(2) 0.97434(9) 0.43505(4)
C4 C 0.1145(3) 0.77778(12) 0.35360(5)
H5 H -0.0312 0.8098 0.3435
C5 C 0.2490(3) 0.84809(13) 0.38111(5)
H6 H 0.2149 0.9152 0.3733
H7 H 0.4166 0.8370 0.3807
C6 C 0.1610(3) 0.82522(12) 0.42271(5)
H8 H 0.2811 0.8421 0.4442
C7 C 0.3655(3) 0.65826(12) 0.47959(5)
C8 C 0.5698(3) 0.68684(14) 0.49961(6)
H9 H 0.6900 0.7126 0.4849
C9 C 0.5995(4) 0.67803(14) 0.54096(6)
H10 H 0.7403 0.6977 0.5543
C10 C 0.4280(4) 0.64120(14) 0.56297(6)
H11 H 0.4488 0.6360 0.5913
C11 C 0.2243(4) 0.61178(14) 0.54322(6)
H12 H 0.1052 0.5856 0.5581
C12 C 0.1932(3) 0.62028(14) 0.50214(6)
H13 H 0.0525 0.6000 0.4890
C13 C 0.0238(3) 0.52692(13) 0.35642(6)
H14 H -0.0625 0.5526 0.3324
H15 H -0.0890 0.5068 0.3758
C14 C 0.1627(3) 0.44088(13) 0.34466(5)
C15 C 0.0845(4) 0.34827(14) 0.35054(6)
H16 H -0.0545 0.3385 0.3635
C16 C 0.2073(4) 0.26967(15) 0.33772(7)
H17 H 0.1513 0.2067 0.3417
C17 C 0.4112(4) 0.28331(15) 0.31916(6)
H18 H 0.4950 0.2299 0.3102
C18 C 0.4921(4) 0.37523(15) 0.31377(6)
H19 H 0.6327 0.3848 0.3013
C19 C 0.3691(3) 0.45339(14) 0.32642(6)
H20 H 0.4264 0.5162 0.3226
S1 S 0.27634(8) 0.74876(3) 0.311028(14)
O2 O 0.5102(2) 0.72420(9) 0.32336(4)
O3 O 0.1433(2) 0.68437(9) 0.28517(4)
C20 C 0.2800(3) 0.86357(13) 0.28804(5)
C21 C 0.0830(3) 0.89692(14) 0.26687(5)
H21 H -0.0472 0.8566 0.2624
C22 C 0.0801(4) 0.98993(14) 0.25242(6)
H22 H -0.0545 1.0138 0.2384
C23 C 0.2710(4) 1.04845(15) 0.25811(6)
H23 H 0.2672 1.1120 0.2479
C24 C 0.4675(4) 1.01430(14) 0.27864(6)
H24 H 0.5990 1.0542 0.2823
C25 C 0.4725(3) 0.92152(14) 0.29396(6)
H25 H 0.6065 0.8981 0.3083
C26 C -0.0555(3) 0.88324(13) 0.42803(5)
O4 O -0.2492(2) 0.85294(10) 0.42439(4)
C27 C -0.1641(4) 1.05402(14) 0.43291(7)
C28 C -0.2726(5) 1.06008(17) 0.39067(8)
H26 H -0.1516 1.0626 0.3715
H27 H -0.3672 1.1180 0.3880
H28 H -0.3691 1.0036 0.3852
C29 C -0.0112(4) 1.13947(16) 0.44272(9)
H29 H 0.0602 1.1324 0.4699
H30 H -0.1036 1.1981 0.4412
H31 H 0.1089 1.1432 0.4234
C30 C -0.3394(4) 1.04076(17) 0.46417(8)
H32 H -0.4424 0.9877 0.4563
H33 H -0.4291 1.0997 0.4664
H34 H -0.2599 1.0263 0.4901
loop_
_geom_bond_atom_site_label_1
_geom_bond_atom_site_label_2
_geom_bond_site_symmetry_1
_geom_bond_site_symmetry_2
N1 C1 1_555 1_555
C1 H1 1_555 1_555
C2 C1 1_555 1_555
H2 C2 1_555 1_555
H3 C2 1_555 1_555
N2 C2 1_555 1_555
C3 N1 1_555 1_555
H4 C3 1_555 1_555
O1 C26 1_555 1_555
C4 C3 1_555 1_555
H5 C4 1_555 1_555
C5 C4 1_555 1_555
H6 C5 1_555 1_555
H7 C5 1_555 1_555
C6 N1 1_555 1_555
H8 C6 1_555 1_555
C7 C1 1_555 1_555
C8 C7 1_555 1_555
H9 C8 1_555 1_555
C9 C8 1_555 1_555
H10 C9 1_555 1_555
C10 C9 1_555 1_555
H11 C10 1_555 1_555
C11 C10 1_555 1_555
H12 C11 1_555 1_555
C12 C7 1_555 1_555
H13 C12 1_555 1_555
C13 N2 1_555 1_555
H14 C13 1_555 1_555
H15 C13 1_555 1_555
C14 C13 1_555 1_555
C15 C14 1_555 1_555
H16 C15 1_555 1_555
C16 C15 1_555 1_555
H17 C16 1_555 1_555
C17 C16 1_555 1_555
H18 C17 1_555 1_555
C18 C17 1_555 1_555
H19 C18 1_555 1_555
C19 C14 1_555 1_555
H20 C19 1_555 1_555
S1 C4 1_555 1_555
O2 S1 1_555 1_555
O3 S1 1_555 1_555
C20 S1 1_555 1_555
C21 C20 1_555 1_555
H21 C21 1_555 1_555
C22 C21 1_555 1_555
H22 C22 1_555 1_555
C23 C22 1_555 1_555
H23 C23 1_555 1_555
C24 C23 1_555 1_555
H24 C24 1_555 1_555
C25 C20 1_555 1_555
H25 C25 1_555 1_555
C26 C6 1_555 1_555
O4 C26 1_555 1_555
C27 O1 1_555 1_555
C28 C27 1_555 1_555
H26 C28 1_555 1_555
H27 C28 1_555 1_555
H28 C28 1_555 1_555
C29 C27 1_555 1_555
H29 C29 1_555 1_555
H30 C29 1_555 1_555
H31 C29 1_555 1_555
C30 C27 1_555 1_555
H32 C30 1_555 1_555
H33 C30 1_555 1_555
H34 C30 1_555 1_555
N2 C3 1_555 1_555
C5 C6 1_555 1_555
C11 C12 1_555 1_555
C18 C19 1_555 1_555
C24 C25 1_555 1_555

#END
