
#######################################################################
#
#                 Cambridge Crystallographic Data Centre
#                                CCDC 
#
#######################################################################
#
# If this CIF has been generated from an entry in the Cambridge 
# Structural Database, then it will include bibliographic, chemical, 
# crystal, experimental, refinement or atomic coordinate data resulting 
# from the CCDC's data processing and validation procedures.
#
#######################################################################

data_GUVTOH
_chemical_formula_moiety         'C25 H32 N2 O4 S1'
_chemical_name_systematic        
'(3R*,5R*,7R*,7aR*)-t-Butyl 1-benzyl-7-(methylsulfonyl)-3-phenyl-hexahydro-1H-pyrrolo[1,2-a]imidazole-5-carboxylate'
_symmetry_cell_setting           orthorhombic
_symmetry_space_group_name_H-M   'P n a 21'
_symmetry_Int_Tables_number      33
_space_group_name_Hall           'P 2c -2n'
loop_
_symmetry_equiv_pos_site_id
_symmetry_equiv_pos_as_xyz
1 x,y,z
2 -x,-y,1/2+z
3 1/2+x,1/2-y,z
4 1/2-x,1/2+y,1/2+z
_cell_length_a                   10.3278(17)
_cell_length_b                   19.337(3)
_cell_length_c                   12.0147(19)
_cell_angle_alpha                90
_cell_angle_beta                 90
_cell_angle_gamma                90
_cell_volume                     2399.44
_exptl_crystal_colour            colorless
_exptl_crystal_description       lath
_chemical_melting_point          '147.8-151.2 deg.C'
_cell_formula_units_Z            4
loop_
_atom_site_label
_atom_site_type_symbol
_atom_site_fract_x
_atom_site_fract_y
_atom_site_fract_z
N1 N 0.8507(3) 0.78711(15) 0.2457(3)
C1 C 0.8598(4) 0.74652(18) 0.1405(3)
H1 H 0.9485 0.7529 0.1086
C2 C 0.8460(4) 0.67083(19) 0.1788(3)
H2 H 0.7543 0.6558 0.1779
H3 H 0.8976 0.6393 0.1314
N2 N 0.8971(3) 0.67356(15) 0.2927(3)
C3 C 0.8360(4) 0.73632(18) 0.3361(3)
H4 H 0.7426 0.7282 0.3537
C4 C 0.9084(4) 0.7660(2) 0.4375(3)
H5 H 0.9820 0.7347 0.4570
C5 C 0.9626(4) 0.83582(19) 0.3972(3)
H6 H 0.9039 0.8743 0.4172
H7 H 1.0493 0.8448 0.4292
C6 C 0.9698(4) 0.82636(18) 0.2723(3)
H8 H 1.0470 0.7973 0.2540
C7 C 0.7611(3) 0.76773(19) 0.0533(4)
C8 C 0.6831(4) 0.82503(18) 0.0632(4)
H9 H 0.6832 0.8510 0.1303
C9 C 0.6035(5) 0.8452(2) -0.0250(4)
H10 H 0.5523 0.8858 -0.0187
C10 C 0.5992(5) 0.8061(2) -0.1218(4)
H11 H 0.5433 0.8194 -0.1809
C11 C 0.6753(5) 0.7483(2) -0.1322(4)
H12 H 0.6728 0.7217 -0.1986
C12 C 0.7559(4) 0.7289(2) -0.0456(3)
H13 H 0.8083 0.6888 -0.0531
C13 C 0.8700(4) 0.61005(19) 0.3584(3)
H14 H 0.7762 0.5996 0.3561
H15 H 0.8951 0.6175 0.4371
C14 C 0.9451(4) 0.5505(2) 0.3110(3)
C15 C 0.8850(4) 0.5010(2) 0.2453(4)
H16 H 0.7939 0.5028 0.2347
C16 C 0.9566(6) 0.4489(2) 0.1948(4)
H17 H 0.9143 0.4159 0.1489
C17 C 1.0882(5) 0.4448(2) 0.2108(4)
H18 H 1.1369 0.4090 0.1765
C18 C 1.1484(5) 0.4932(2) 0.2770(4)
H19 H 1.2392 0.4905 0.2891
C19 C 1.0776(4) 0.5458(2) 0.3262(4)
H20 H 1.1206 0.5792 0.3709
S1 S 0.80315(10) 0.77341(5) 0.55417(10)
O1 O 0.7644(3) 0.70468(14) 0.5873(2)
O2 O 0.7014(3) 0.82209(13) 0.5283(2)
C20 C 0.9046(5) 0.8092(2) 0.6566(3)
H21 H 0.9824 0.7806 0.6644
H22 H 0.8584 0.8108 0.7278
H23 H 0.9295 0.8562 0.6346
C21 C 0.9800(4) 0.8948(2) 0.2100(3)
O3 O 1.0003(3) 0.94957(14) 0.2548(3)
O4 O 0.9683(3) 0.88481(12) 0.1014(2)
C22 C 0.9798(4) 0.94234(18) 0.0189(3)
C23 C 1.1142(4) 0.9729(2) 0.0240(4)
H24 H 1.1785 0.9361 0.0145
H25 H 1.1270 0.9953 0.0963
H26 H 1.1244 1.0071 -0.0355
C24 C 0.8743(4) 0.99602(18) 0.0401(4)
H27 H 0.8929 1.0207 0.1095
H28 H 0.7902 0.9728 0.0462
H29 H 0.8720 1.0290 -0.0218
C25 C 0.9565(5) 0.9050(2) -0.0902(3)
H30 H 0.8717 0.8824 -0.0881
H31 H 1.0242 0.8702 -0.1013
H32 H 0.9587 0.9384 -0.1515
loop_
_geom_bond_atom_site_label_1
_geom_bond_atom_site_label_2
_geom_bond_site_symmetry_1
_geom_bond_site_symmetry_2
N1 C1 1_555 1_555
C1 H1 1_555 1_555
C2 C1 1_555 1_555
H2 C2 1_555 1_555
H3 C2 1_555 1_555
N2 C2 1_555 1_555
C3 N1 1_555 1_555
H4 C3 1_555 1_555
C4 C3 1_555 1_555
H5 C4 1_555 1_555
C5 C4 1_555 1_555
H6 C5 1_555 1_555
H7 C5 1_555 1_555
C6 N1 1_555 1_555
H8 C6 1_555 1_555
C7 C1 1_555 1_555
C8 C7 1_555 1_555
H9 C8 1_555 1_555
C9 C8 1_555 1_555
H10 C9 1_555 1_555
C10 C9 1_555 1_555
H11 C10 1_555 1_555
C11 C10 1_555 1_555
H12 C11 1_555 1_555
C12 C7 1_555 1_555
H13 C12 1_555 1_555
C13 N2 1_555 1_555
H14 C13 1_555 1_555
H15 C13 1_555 1_555
C14 C13 1_555 1_555
C15 C14 1_555 1_555
H16 C15 1_555 1_555
C16 C15 1_555 1_555
H17 C16 1_555 1_555
C17 C16 1_555 1_555
H18 C17 1_555 1_555
C18 C17 1_555 1_555
H19 C18 1_555 1_555
C19 C14 1_555 1_555
H20 C19 1_555 1_555
S1 C4 1_555 1_555
O1 S1 1_555 1_555
O2 S1 1_555 1_555
C20 S1 1_555 1_555
H21 C20 1_555 1_555
H22 C20 1_555 1_555
H23 C20 1_555 1_555
C21 C6 1_555 1_555
O3 C21 1_555 1_555
O4 C21 1_555 1_555
C22 O4 1_555 1_555
C23 C22 1_555 1_555
H24 C23 1_555 1_555
H25 C23 1_555 1_555
H26 C23 1_555 1_555
C24 C22 1_555 1_555
H27 C24 1_555 1_555
H28 C24 1_555 1_555
H29 C24 1_555 1_555
C25 C22 1_555 1_555
H30 C25 1_555 1_555
H31 C25 1_555 1_555
H32 C25 1_555 1_555
N2 C3 1_555 1_555
C5 C6 1_555 1_555
C11 C12 1_555 1_555
C18 C19 1_555 1_555

#END
