
#######################################################################
#
#                 Cambridge Crystallographic Data Centre
#                                CCDC 
#
#######################################################################
#
# If this CIF has been generated from an entry in the Cambridge 
# Structural Database, then it will include bibliographic, chemical, 
# crystal, experimental, refinement or atomic coordinate data resulting 
# from the CCDC's data processing and validation procedures.
#
#######################################################################

data_GUVTOI
_chemical_formula_moiety         'C24 H18 N4 S3,0.5(C4 H10 O1)'
_chemical_name_systematic        
1-(1,3-benzothiazol-2-yl)-N,N-bis(1,3-benzothiazol-2-ylmethyl)methanamine
_symmetry_cell_setting           triclinic
_symmetry_space_group_name_H-M   'P -1'
_symmetry_Int_Tables_number      2
_space_group_name_Hall           '-P 1'
loop_
_symmetry_equiv_pos_site_id
_symmetry_equiv_pos_as_xyz
1 x,y,z
2 -x,-y,-z
_cell_length_a                   6.6530(3)
_cell_length_b                   14.3098(6)
_cell_length_c                   14.5822(7)
_cell_angle_alpha                61.4710(10)
_cell_angle_beta                 88.474(2)
_cell_angle_gamma                79.1380(10)
_cell_volume                     1194.61
_exptl_crystal_colour            yellow
_exptl_crystal_description       BLOCK
_cell_formula_units_Z            2
loop_
_atom_site_label
_atom_site_type_symbol
_atom_site_fract_x
_atom_site_fract_y
_atom_site_fract_z
S1 S 0.40279(7) 0.15702(4) 0.47208(4)
S2 S 0.27604(8) 0.38911(4) 0.15881(4)
S3 S 0.25502(7) 0.44886(4) 0.38876(5)
N1 N 0.1195(2) 0.05355(12) 0.57200(13)
N2 N -0.0211(2) 0.34050(12) 0.08966(12)
N3 N -0.1239(2) 0.54789(12) 0.36542(12)
N4 N -0.0043(2) 0.30973(12) 0.34526(12)
C1 C 0.0012(3) 0.19336(15) 0.39103(15)
H1 H 0.0358 0.1702 0.3375
H2 H -0.1361 0.1784 0.4139
C2 C 0.1562(3) 0.13010(14) 0.48240(15)
C3 C 0.4652(3) 0.05555(14) 0.60010(15)
C4 C 0.6507(3) 0.01905(15) 0.66060(18)
H3 H 0.7686 0.0480 0.6318
C5 C 0.6574(3) -0.06029(16) 0.76342(18)
H4 H 0.7813 -0.0853 0.8064
C6 C 0.4877(4) -0.10437(17) 0.8055(2)
H5 H 0.4962 -0.1581 0.8770
C7 C 0.3052(3) -0.07124(16) 0.74462(18)
H6 H 0.1903 -0.1035 0.7731
C8 C 0.2940(3) 0.00976(13) 0.64160(16)
C9 C -0.1080(3) 0.37025(16) 0.23985(15)
H7 H -0.1536 0.4475 0.2214
H8 H -0.2311 0.3412 0.2388
C10 C 0.0308(3) 0.36203(14) 0.16109(14)
C11 C 0.3140(3) 0.37193(14) 0.04962(14)
C12 C 0.4860(3) 0.37765(15) -0.00699(15)
H9 H 0.6035 0.3968 0.0099
C13 C 0.4821(3) 0.35475(16) -0.08855(15)
H10 H 0.5984 0.3582 -0.1284
C14 C 0.3113(3) 0.32676(17) -0.11319(16)
H11 H 0.3129 0.3104 -0.1692
C15 C 0.1381(3) 0.32219(17) -0.05775(16)
H12 H 0.0205 0.3039 -0.0758
C16 C 0.1393(3) 0.34469(14) 0.02442(14)
C17 C -0.0894(3) 0.35415(15) 0.41340(16)
H13 H -0.0500 0.2993 0.4875
H14 H -0.2410 0.3719 0.4032
C18 C -0.0096(3) 0.45492(15) 0.38820(14)
C19 C 0.2093(3) 0.58523(15) 0.35501(14)
C20 C 0.3495(3) 0.65143(16) 0.33751(17)
H15 H 0.4930 0.6233 0.3468
C21 C 0.2730(4) 0.75976(17) 0.30610(18)
H16 H 0.3657 0.8073 0.2922
C22 C 0.0642(3) 0.80027(16) 0.29458(17)
H17 H 0.0159 0.8752 0.2726
C23 C -0.0763(3) 0.73355(16) 0.31451(17)
H18 H -0.2196 0.7617 0.3073
C24 C -0.0023(3) 0.62444(14) 0.34531(14)
loop_
_geom_bond_atom_site_label_1
_geom_bond_atom_site_label_2
_geom_bond_site_symmetry_1
_geom_bond_site_symmetry_2
S1 C2 1_555 1_555
S2 C10 1_555 1_555
S3 C18 1_555 1_555
N1 C2 1_555 1_555
N2 C10 1_555 1_555
N3 C18 1_555 1_555
N4 C1 1_555 1_555
C1 H1 1_555 1_555
H2 C1 1_555 1_555
C2 C1 1_555 1_555
C3 S1 1_555 1_555
C4 C3 1_555 1_555
H3 C4 1_555 1_555
C5 C4 1_555 1_555
H4 C5 1_555 1_555
C6 C5 1_555 1_555
H5 C6 1_555 1_555
C7 C6 1_555 1_555
H6 C7 1_555 1_555
C8 N1 1_555 1_555
C9 N4 1_555 1_555
H7 C9 1_555 1_555
H8 C9 1_555 1_555
C10 C9 1_555 1_555
C11 S2 1_555 1_555
C12 C11 1_555 1_555
H9 C12 1_555 1_555
C13 C12 1_555 1_555
H10 C13 1_555 1_555
C14 C13 1_555 1_555
H11 C14 1_555 1_555
C15 C14 1_555 1_555
H12 C15 1_555 1_555
C16 N2 1_555 1_555
C17 N4 1_555 1_555
H13 C17 1_555 1_555
H14 C17 1_555 1_555
C18 C17 1_555 1_555
C19 S3 1_555 1_555
C20 C19 1_555 1_555
H15 C20 1_555 1_555
C21 C20 1_555 1_555
H16 C21 1_555 1_555
C22 C21 1_555 1_555
H17 C22 1_555 1_555
C23 C22 1_555 1_555
H18 C23 1_555 1_555
C24 N3 1_555 1_555
C3 C8 1_555 1_555
C7 C8 1_555 1_555
C11 C16 1_555 1_555
C15 C16 1_555 1_555
C19 C24 1_555 1_555
C23 C24 1_555 1_555

#END
