
#######################################################################
#
#                 Cambridge Crystallographic Data Centre
#                                CCDC 
#
#######################################################################
#
# If this CIF has been generated from an entry in the Cambridge 
# Structural Database, then it will include bibliographic, chemical, 
# crystal, experimental, refinement or atomic coordinate data resulting 
# from the CCDC's data processing and validation procedures.
#
#######################################################################

data_GUVWOL
_chemical_formula_moiety         'C23 H35 N1 O2'
_chemical_name_systematic        
2-(2-hydroxy-2,5,5,8a-tetramethyldecahydronaphthalen-1-yl)-N-(2-methylphenyl)acetamide
_symmetry_cell_setting           monoclinic
_symmetry_space_group_name_H-M   'P 21'
_symmetry_Int_Tables_number      4
_space_group_name_Hall           'P 2yb'
loop_
_symmetry_equiv_pos_site_id
_symmetry_equiv_pos_as_xyz
1 x,y,z
2 -x,1/2+y,-z
_cell_length_a                   6.3001(5)
_cell_length_b                   13.2663(10)
_cell_length_c                   12.7082(10)
_cell_angle_alpha                90
_cell_angle_beta                 96.983(2)
_cell_angle_gamma                90
_cell_volume                     1054.26
_exptl_crystal_colour            colorless
_exptl_crystal_description       block
_cell_formula_units_Z            2
loop_
_atom_site_label
_atom_site_type_symbol
_atom_site_fract_x
_atom_site_fract_y
_atom_site_fract_z
O1 O 0.4624(2) 0.38763(11) 0.90592(12)
H1 H 0.5362 0.4362 0.9269
O2 O 0.3383(3) 0.06216(10) 1.00512(14)
N1 N 0.2698(2) 0.22934(12) 1.01913(11)
H2 H 0.3134 0.2876 1.0012
C1 C 0.0998(3) 0.23103(14) 1.08233(13)
C2 C 0.0322(3) 0.32517(14) 1.11475(15)
C3 C -0.1453(4) 0.32833(19) 1.16972(18)
H3 H -0.1947 0.3906 1.1900
C4 C -0.2502(4) 0.2428(2) 1.19504(17)
H4 H -0.3692 0.2472 1.2315
C5 C -0.1783(4) 0.1515(2) 1.16623(18)
H5 H -0.2466 0.0931 1.1848
C6 C -0.0049(3) 0.14439(16) 1.10965(17)
H6 H 0.0419 0.0815 1.0898
C7 C 0.3739(3) 0.15013(14) 0.98281(15)
C8 C 0.5396(3) 0.17800(15) 0.91191(16)
H7 H 0.6079 0.1167 0.8914
H8 H 0.6485 0.2187 0.9523
C9 C 0.4531(3) 0.23662(13) 0.80977(13)
H9 H 0.2994 0.2439 0.8135
C10 C 0.5404(3) 0.34563(14) 0.81224(16)
C11 C 0.4370(4) 0.40191(15) 0.71547(18)
H10 H 0.5034 0.4677 0.7131
H11 H 0.2869 0.4123 0.7224
C12 C 0.4552(4) 0.34729(15) 0.61180(17)
H12 H 0.6046 0.3408 0.6016
H13 H 0.3838 0.3862 0.5532
C13 C 0.3536(3) 0.24265(16) 0.61310(15)
H14 H 0.2113 0.2551 0.6342
C14 C 0.4691(3) 0.17743(14) 0.70513(14)
C15 C 0.7835(4) 0.35592(19) 0.82392(19)
H15 H 0.8226 0.4244 0.8415
H16 H 0.8349 0.3379 0.7584
H17 H 0.8459 0.3120 0.8793
C16 C 0.7032(3) 0.15146(18) 0.69257(18)
H18 H 0.7818 0.1407 0.7612
H19 H 0.7663 0.2061 0.6578
H20 H 0.7073 0.0913 0.6508
C17 C 0.3428(3) 0.07858(15) 0.71010(17)
H21 H 0.4192 0.0347 0.7628
H22 H 0.2047 0.0936 0.7329
C18 C 0.3081(5) 0.02307(19) 0.6044(2)
H23 H 0.4451 0.0016 0.5847
H24 H 0.2220 -0.0366 0.6116
C19 C 0.1974(4) 0.0897(2) 0.5183(2)
H25 H 0.0535 0.1032 0.5343
H26 H 0.1858 0.0530 0.4518
C20 C 0.3085(4) 0.1906(2) 0.50341(17)
C21 C 0.5087(5) 0.1731(3) 0.4470(2)
H27 H 0.6003 0.1248 0.4861
H28 H 0.5843 0.2356 0.4431
H29 H 0.4663 0.1482 0.3767
C22 C 0.1549(6) 0.2562(3) 0.4303(2)
H30 H 0.1083 0.2197 0.3664
H31 H 0.2268 0.3167 0.4131
H32 H 0.0333 0.2732 0.4655
C23 C 0.1454(4) 0.42079(16) 1.0915(2)
H33 H 0.0722 0.4774 1.1175
H34 H 0.1467 0.4273 1.0164
H35 H 0.2897 0.4188 1.1259
loop_
_geom_bond_atom_site_label_1
_geom_bond_atom_site_label_2
_geom_bond_site_symmetry_1
_geom_bond_site_symmetry_2
O1 H1 1_555 1_555
O2 C7 1_555 1_555
N1 H2 1_555 1_555
C1 N1 1_555 1_555
C2 C1 1_555 1_555
C3 C2 1_555 1_555
H3 C3 1_555 1_555
C4 C3 1_555 1_555
H4 C4 1_555 1_555
C5 C4 1_555 1_555
H5 C5 1_555 1_555
C6 C1 1_555 1_555
H6 C6 1_555 1_555
C7 N1 1_555 1_555
C8 C7 1_555 1_555
H7 C8 1_555 1_555
H8 C8 1_555 1_555
C9 C8 1_555 1_555
H9 C9 1_555 1_555
C10 O1 1_555 1_555
C11 C10 1_555 1_555
H10 C11 1_555 1_555
H11 C11 1_555 1_555
C12 C11 1_555 1_555
H12 C12 1_555 1_555
H13 C12 1_555 1_555
C13 C12 1_555 1_555
H14 C13 1_555 1_555
C14 C9 1_555 1_555
C15 C10 1_555 1_555
H15 C15 1_555 1_555
H16 C15 1_555 1_555
H17 C15 1_555 1_555
C16 C14 1_555 1_555
H18 C16 1_555 1_555
H19 C16 1_555 1_555
H20 C16 1_555 1_555
C17 C14 1_555 1_555
H21 C17 1_555 1_555
H22 C17 1_555 1_555
C18 C17 1_555 1_555
H23 C18 1_555 1_555
H24 C18 1_555 1_555
C19 C18 1_555 1_555
H25 C19 1_555 1_555
H26 C19 1_555 1_555
C20 C13 1_555 1_555
C21 C20 1_555 1_555
H27 C21 1_555 1_555
H28 C21 1_555 1_555
H29 C21 1_555 1_555
C22 C20 1_555 1_555
H30 C22 1_555 1_555
H31 C22 1_555 1_555
H32 C22 1_555 1_555
C23 C2 1_555 1_555
H33 C23 1_555 1_555
H34 C23 1_555 1_555
H35 C23 1_555 1_555
C5 C6 1_555 1_555
C9 C10 1_555 1_555
C13 C14 1_555 1_555
C19 C20 1_555 1_555

#END
