
#######################################################################
#
#                 Cambridge Crystallographic Data Centre
#                                CCDC 
#
#######################################################################
#
# If this CIF has been generated from an entry in the Cambridge 
# Structural Database, then it will include bibliographic, chemical, 
# crystal, experimental, refinement or atomic coordinate data resulting 
# from the CCDC's data processing and validation procedures.
#
#######################################################################

data_GUVYEC
_chemical_formula_moiety         'C14 H12 N2 O2'
_chemical_name_systematic        3-(2-Furyl)-5-(4-methoxyphenyl)-1H-pyrazole
_symmetry_cell_setting           monoclinic
_symmetry_space_group_name_H-M   'P 21/n'
_symmetry_Int_Tables_number      14
_space_group_name_Hall           '-P 2yn'
loop_
_symmetry_equiv_pos_site_id
_symmetry_equiv_pos_as_xyz
1 x,y,z
2 1/2-x,1/2+y,1/2-z
3 -x,-y,-z
4 1/2+x,1/2-y,1/2+z
_cell_length_a                   15.4329(19)
_cell_length_b                   4.1384(5)
_cell_length_c                   18.362(2)
_cell_angle_alpha                90
_cell_angle_beta                 96.198(2)
_cell_angle_gamma                90
_cell_volume                     1165.88
_exptl_crystal_colour            yellow
_exptl_crystal_description       block
_cell_formula_units_Z            4
loop_
_atom_site_label
_atom_site_type_symbol
_atom_site_fract_x
_atom_site_fract_y
_atom_site_fract_z
C1 C 0.91198(15) -0.2123(6) 0.55285(11)
H1 H 0.9052 -0.4284 0.5704
H2 H 0.9365 -0.2193 0.5070
H3 H 0.8561 -0.1079 0.5461
C2 C 0.94513(13) -0.0084(5) 0.67446(11)
C3 C 0.86778(13) -0.1180(5) 0.69627(11)
H4 H 0.8268 -0.2184 0.6629
C4 C 0.85157(13) -0.0774(5) 0.76844(12)
H5 H 0.7992 -0.1520 0.7829
C5 C 0.91088(11) 0.0707(4) 0.81971(11)
C6 C 0.98785(13) 0.1825(6) 0.79579(12)
H6 H 1.0289 0.2852 0.8288
C7 C 1.00441(14) 0.1439(6) 0.72431(13)
H7 H 1.0563 0.2216 0.7095
C8 C 0.89154(12) 0.1090(4) 0.89550(11)
C9 C 0.82575(12) -0.0139(5) 0.93232(11)
H8 H 0.7802 -0.1469 0.9134
C10 C 0.84134(12) 0.1019(4) 1.00400(11)
C11 C 0.79165(12) 0.0458(5) 1.06510(11)
C12 C 0.79955(14) 0.1345(5) 1.13590(13)
H9 H 0.8444 0.2568 1.1601
C13 C 0.72669(15) 0.0064(6) 1.16674(13)
H10 H 0.7143 0.0289 1.2149
C14 C 0.67976(16) -0.1514(6) 1.11382(14)
H11 H 0.6280 -0.2596 1.1192
N1 N 0.94144(10) 0.2870(4) 0.94513(9)
H12 H 0.9900(14) 0.398(5) 0.9423(11)
N2 N 0.91255(10) 0.2886(4) 1.01206(9)
O1 O 0.96842(10) -0.0367(4) 0.60477(8)
O2 O 0.71767(10) -0.1335(4) 1.05023(8)
loop_
_geom_bond_atom_site_label_1
_geom_bond_atom_site_label_2
_geom_bond_site_symmetry_1
_geom_bond_site_symmetry_2
C1 H1 1_555 1_555
H2 C1 1_555 1_555
H3 C1 1_555 1_555
C2 C3 1_555 1_555
C3 H4 1_555 1_555
C4 C3 1_555 1_555
H5 C4 1_555 1_555
C5 C4 1_555 1_555
C6 C5 1_555 1_555
H6 C6 1_555 1_555
C7 C2 1_555 1_555
H7 C7 1_555 1_555
C8 C5 1_555 1_555
C9 C8 1_555 1_555
H8 C9 1_555 1_555
C10 C9 1_555 1_555
C11 C10 1_555 1_555
C12 C11 1_555 1_555
H9 C12 1_555 1_555
C13 C12 1_555 1_555
H10 C13 1_555 1_555
C14 C13 1_555 1_555
H11 C14 1_555 1_555
N1 C8 1_555 1_555
H12 N1 1_555 1_555
N2 C10 1_555 1_555
O1 C1 1_555 1_555
O2 C11 1_555 1_555
C2 O1 1_555 1_555
C6 C7 1_555 1_555
C14 O2 1_555 1_555
N1 N2 1_555 1_555

#END
