
#######################################################################
#
#                 Cambridge Crystallographic Data Centre
#                                CCDC 
#
#######################################################################
#
# If this CIF has been generated from an entry in the Cambridge 
# Structural Database, then it will include bibliographic, chemical, 
# crystal, experimental, refinement or atomic coordinate data resulting 
# from the CCDC's data processing and validation procedures.
#
#######################################################################

data_GUVYOM
_chemical_name_common            
meso-tetramethyl-meso-tetrakis(3-chloropropyl)calix[4]pyrrole
_chemical_formula_moiety         'C36 H48 Cl4 N4'
_chemical_name_systematic        
5,10,15,20-tetrakis(3-chloropropyl)-5,10,15,20-tetramethyl-5,10,15,20,22,24-hexahydroporphyrin
_symmetry_cell_setting           monoclinic
_symmetry_space_group_name_H-M   'C 2/c'
_symmetry_Int_Tables_number      15
_space_group_name_Hall           '-C 2yn'
loop_
_symmetry_equiv_pos_site_id
_symmetry_equiv_pos_as_xyz
1 x,y,z
2 -x,y,1/2-z
3 1/2+x,1/2+y,z
4 1/2-x,1/2+y,1/2-z
5 -x,-y,-z
6 x,-y,1/2+z
7 1/2-x,1/2-y,-z
8 1/2+x,1/2-y,1/2+z
_cell_length_a                   38.2270(9)
_cell_length_b                   10.4690(5)
_cell_length_c                   18.2640(8)
_cell_angle_alpha                90
_cell_angle_beta                 97.1890(10)
_cell_angle_gamma                90
_cell_volume                     7251.77
_exptl_crystal_colour            colorless
_exptl_crystal_description       block
_cell_formula_units_Z            8
loop_
_atom_site_label
_atom_site_type_symbol
_atom_site_fract_x
_atom_site_fract_y
_atom_site_fract_z
C1 C 0.17244(14) -0.6246(5) 0.7678(3)
H1 H 0.1962 -0.6373 0.7908
H2 H 0.1727 -0.6019 0.7170
H3 H 0.1592 -0.7019 0.7708
C2 C 0.15481(12) -0.5144(4) 0.8084(2)
C3 C 0.15329(13) -0.5529(5) 0.8903(2)
H4 H 0.1424 -0.4840 0.9148
H5 H 0.1383 -0.6275 0.8913
C4 C 0.18898(17) -0.5827(7) 0.9337(3)
H6 H 0.1991 -0.6563 0.9118
H7 H 0.2046 -0.5108 0.9297
C5 C 0.1871(2) -0.6095(9) 1.0141(4)
H8 H 0.2095 -0.6441 1.0363
H9 H 0.1691 -0.6733 1.0184
C6 C 0.17600(11) -0.3934(4) 0.8050(2)
C7 C 0.20626(13) -0.3673(5) 0.7760(3)
H10 H 0.2189 -0.4250 0.7509
C8 C 0.21527(13) -0.2376(5) 0.7904(3)
H11 H 0.2349 -0.1958 0.7766
C9 C 0.19026(11) -0.1846(4) 0.8280(2)
C10 C 0.18614(12) -0.0507(4) 0.8581(2)
C11 C 0.21657(13) 0.0340(5) 0.8375(3)
H12 H 0.2387 -0.0022 0.8579
H13 H 0.2144 0.1184 0.8570
H14 H 0.2155 0.0385 0.7848
C12 C 0.18570(14) -0.0563(6) 0.9439(3)
H15 H 0.1823 0.0296 0.9616
H16 H 0.1656 -0.1069 0.9539
C13 C 0.21772(17) -0.1105(8) 0.9864(3)
H17 H 0.2379 -0.0582 0.9784
H18 H 0.2217 -0.1956 0.9681
C14 C 0.2152(2) -0.1178(9) 1.0689(3)
H19 H 0.2365 -0.1571 1.0933
H20 H 0.1956 -0.1725 1.0768
C15 C 0.15157(12) 0.0061(4) 0.8266(2)
C16 C 0.12616(13) 0.0734(4) 0.8577(2)
H21 H 0.1268 0.0927 0.9076
C17 C 0.09933(11) 0.1077(4) 0.8022(2)
H22 H 0.0792 0.1541 0.8087
C18 C 0.10769(10) 0.0618(4) 0.7373(2)
C19 C 0.08940(10) 0.0758(4) 0.6601(2)
C20 C 0.10730(13) 0.1818(4) 0.6206(3)
H23 H 0.0958 0.1905 0.5711
H24 H 0.1316 0.1605 0.6195
H25 H 0.1057 0.2609 0.6466
C21 C 0.05026(11) 0.1116(4) 0.6634(3)
H26 H 0.0402 0.0499 0.6945
H27 H 0.0495 0.1944 0.6869
C22 C 0.02715(13) 0.1166(5) 0.5890(3)
H28 H 0.0351 0.1860 0.5601
H29 H 0.0300 0.0376 0.5626
C23 C -0.01140(13) 0.1353(5) 0.5960(3)
H30 H -0.0191 0.0690 0.6274
H31 H -0.0250 0.1272 0.5477
C24 C 0.09045(10) -0.0486(4) 0.6178(2)
C25 C 0.09905(12) -0.0738(5) 0.5494(3)
H32 H 0.1087 -0.0160 0.5188
C26 C 0.09089(13) -0.2031(5) 0.5327(3)
H33 H 0.0940 -0.2451 0.4891
C27 C 0.07775(11) -0.2553(4) 0.5919(2)
C28 C 0.06242(12) -0.3847(4) 0.6029(3)
C29 C 0.07330(16) -0.4783(5) 0.5439(3)
H34 H 0.0636 -0.5613 0.5513
H35 H 0.0985 -0.4839 0.5484
H36 H 0.0645 -0.4477 0.4956
C30 C 0.02163(13) -0.3805(5) 0.5893(3)
H37 H 0.0148 -0.3665 0.5370
H38 H 0.0130 -0.4644 0.6008
C31 C 0.00273(15) -0.2851(6) 0.6298(3)
H39 H 0.0091 -0.2000 0.6152
H40 H 0.0102 -0.2940 0.6823
C32 C -0.03685(14) -0.2995(5) 0.6154(4)
H41 H -0.0434 -0.3819 0.6338
H42 H -0.0441 -0.2979 0.5626
C33 C 0.07599(11) -0.4375(4) 0.6795(2)
C34 C 0.06003(12) -0.5036(4) 0.7296(3)
H43 H 0.0361 -0.5218 0.7266
C35 C 0.08628(13) -0.5398(4) 0.7871(3)
H44 H 0.0826 -0.5862 0.8288
C36 C 0.11762(12) -0.4957(4) 0.7714(2)
Cl1 Cl 0.17731(7) -0.4700(4) 1.06237(12)
Cl2 Cl 0.20951(7) 0.0329(3) 1.11005(11)
Cl3 Cl -0.01975(3) 0.28680(13) 0.63361(8)
Cl4 Cl -0.05962(5) -0.17750(17) 0.65770(11)
N1 N 0.16673(9) -0.2805(4) 0.83607(19)
H45 H 0.1463(7) -0.278(5) 0.852(3)
N2 N 0.13957(9) 0.0007(3) 0.75274(18)
H46 H 0.1522(10) -0.043(4) 0.727(2)
N3 N 0.07761(9) -0.1597(3) 0.64336(18)
H47 H 0.0701(11) -0.166(4) 0.6854(15)
N4 N 0.11065(10) -0.4332(4) 0.7054(2)
H48 H 0.1243(13) -0.399(5) 0.687(3)
loop_
_geom_bond_atom_site_label_1
_geom_bond_atom_site_label_2
_geom_bond_site_symmetry_1
_geom_bond_site_symmetry_2
C1 H1 1_555 1_555
H2 C1 1_555 1_555
H3 C1 1_555 1_555
C2 C1 1_555 1_555
C3 C2 1_555 1_555
H4 C3 1_555 1_555
H5 C3 1_555 1_555
C4 C3 1_555 1_555
H6 C4 1_555 1_555
H7 C4 1_555 1_555
C5 C4 1_555 1_555
H8 C5 1_555 1_555
H9 C5 1_555 1_555
C6 C2 1_555 1_555
C7 C6 1_555 1_555
H10 C7 1_555 1_555
C8 C7 1_555 1_555
H11 C8 1_555 1_555
C9 C8 1_555 1_555
C10 C9 1_555 1_555
C11 C10 1_555 1_555
H12 C11 1_555 1_555
H13 C11 1_555 1_555
H14 C11 1_555 1_555
C12 C10 1_555 1_555
H15 C12 1_555 1_555
H16 C12 1_555 1_555
C13 C12 1_555 1_555
H17 C13 1_555 1_555
H18 C13 1_555 1_555
C14 C13 1_555 1_555
H19 C14 1_555 1_555
H20 C14 1_555 1_555
C15 C10 1_555 1_555
C16 C15 1_555 1_555
H21 C16 1_555 1_555
C17 C16 1_555 1_555
H22 C17 1_555 1_555
C18 C17 1_555 1_555
C19 C18 1_555 1_555
C20 C19 1_555 1_555
H23 C20 1_555 1_555
H24 C20 1_555 1_555
H25 C20 1_555 1_555
C21 C19 1_555 1_555
H26 C21 1_555 1_555
H27 C21 1_555 1_555
C22 C21 1_555 1_555
H28 C22 1_555 1_555
H29 C22 1_555 1_555
C23 C22 1_555 1_555
H30 C23 1_555 1_555
H31 C23 1_555 1_555
C24 C19 1_555 1_555
C25 C24 1_555 1_555
H32 C25 1_555 1_555
C26 C25 1_555 1_555
H33 C26 1_555 1_555
C27 C26 1_555 1_555
C28 C27 1_555 1_555
C29 C28 1_555 1_555
H34 C29 1_555 1_555
H35 C29 1_555 1_555
H36 C29 1_555 1_555
C30 C28 1_555 1_555
H37 C30 1_555 1_555
H38 C30 1_555 1_555
C31 C30 1_555 1_555
H39 C31 1_555 1_555
H40 C31 1_555 1_555
C32 C31 1_555 1_555
H41 C32 1_555 1_555
H42 C32 1_555 1_555
C33 C28 1_555 1_555
C34 C33 1_555 1_555
H43 C34 1_555 1_555
C35 C34 1_555 1_555
H44 C35 1_555 1_555
C36 C2 1_555 1_555
Cl1 C5 1_555 1_555
Cl2 C14 1_555 1_555
Cl3 C23 1_555 1_555
Cl4 C32 1_555 1_555
N1 C6 1_555 1_555
H45 N1 1_555 1_555
N2 C15 1_555 1_555
H46 N2 1_555 1_555
N3 C24 1_555 1_555
H47 N3 1_555 1_555
N4 C33 1_555 1_555
H48 N4 1_555 1_555
C9 N1 1_555 1_555
C18 N2 1_555 1_555
C27 N3 1_555 1_555
C35 C36 1_555 1_555
C36 N4 1_555 1_555

#END
