
#######################################################################
#
#                 Cambridge Crystallographic Data Centre
#                                CCDC 
#
#######################################################################
#
# If this CIF has been generated from an entry in the Cambridge 
# Structural Database, then it will include bibliographic, chemical, 
# crystal, experimental, refinement or atomic coordinate data resulting 
# from the CCDC's data processing and validation procedures.
#
#######################################################################

data_GUVZON
_chemical_formula_moiety         'C11 H8 O5'
_chemical_name_systematic        '8-Methoxy-2-oxo-2H-chromene-3-carboxylic acid'
_symmetry_cell_setting           monoclinic
_symmetry_space_group_name_H-M   'P 21/c'
_symmetry_Int_Tables_number      14
_space_group_name_Hall           '-P 2ybc'
loop_
_symmetry_equiv_pos_site_id
_symmetry_equiv_pos_as_xyz
1 x,y,z
2 -x,1/2+y,1/2-z
3 -x,-y,-z
4 x,1/2-y,1/2+z
_cell_length_a                   5.1525(6)
_cell_length_b                   19.922(2)
_cell_length_c                   9.4581(11)
_cell_angle_alpha                90
_cell_angle_beta                 100.4680(10)
_cell_angle_gamma                90
_cell_volume                     954.698
_exptl_crystal_colour            yellow
_exptl_crystal_description       block
_cell_formula_units_Z            4
loop_
_atom_site_label
_atom_site_type_symbol
_atom_site_fract_x
_atom_site_fract_y
_atom_site_fract_z
C1 C 0.3959(3) 0.37661(7) 0.13286(14)
C2 C 0.6080(2) 0.42137(7) 0.20082(14)
C3 C 0.6494(3) 0.43188(7) 0.34411(14)
H1 H 0.7844 0.4607 0.3851
C4 C 0.4921(3) 0.40014(7) 0.43518(14)
C5 C 0.5312(3) 0.40917(8) 0.58523(15)
H2 H 0.6623 0.4379 0.6308
C6 C 0.3740(3) 0.37515(8) 0.66356(15)
H3 H 0.3978 0.3816 0.7625
C7 C 0.1783(3) 0.33084(8) 0.59677(15)
H4 H 0.0763 0.3076 0.6522
C8 C 0.1346(3) 0.32112(7) 0.44921(15)
C9 C 0.2949(3) 0.35675(6) 0.36953(13)
C10 C 0.7784(3) 0.45531(7) 0.11148(14)
C11 C -0.2023(3) 0.23872(8) 0.44923(19)
H5 H -0.0871 0.2082 0.5093
H6 H -0.3285 0.2137 0.3823
H7 H -0.2932 0.2662 0.5079
O1 O 0.25075(18) 0.34567(5) 0.22442(9)
O2 O 0.3318(2) 0.36349(7) 0.00816(11)
O3 O 0.7349(2) 0.44790(6) -0.02267(11)
O4 O 0.9657(2) 0.49106(6) 0.17925(11)
H8 H 1.0378 0.5113 0.1215
O5 O -0.0497(2) 0.28061(6) 0.37172(11)
loop_
_geom_bond_atom_site_label_1
_geom_bond_atom_site_label_2
_geom_bond_site_symmetry_1
_geom_bond_site_symmetry_2
C1 C2 1_555 1_555
C2 C3 1_555 1_555
C3 H1 1_555 1_555
C4 C3 1_555 1_555
C5 C4 1_555 1_555
H2 C5 1_555 1_555
C6 C5 1_555 1_555
H3 C6 1_555 1_555
C7 C6 1_555 1_555
H4 C7 1_555 1_555
C8 C7 1_555 1_555
C9 C4 1_555 1_555
C10 C2 1_555 1_555
C11 H5 1_555 1_555
H6 C11 1_555 1_555
H7 C11 1_555 1_555
O1 C1 1_555 1_555
O2 C1 1_555 1_555
O3 C10 1_555 1_555
O4 C10 1_555 1_555
H8 O4 1_555 1_555
O5 C8 1_555 1_555
C8 C9 1_555 1_555
C9 O1 1_555 1_555
C11 O5 1_555 1_555

#END
