
#######################################################################
#
#                 Cambridge Crystallographic Data Centre
#                                CCDC 
#
#######################################################################
#
# If this CIF has been generated from an entry in the Cambridge 
# Structural Database, then it will include bibliographic, chemical, 
# crystal, experimental, refinement or atomic coordinate data resulting 
# from the CCDC's data processing and validation procedures.
#
#######################################################################

data_GUWBOQ
_chemical_name_common            2-(3-Bromopropoxy)naphthalene
_chemical_formula_moiety         'C13 H13 Br1 O1'
_chemical_name_systematic        2-(3-Bromopropyloxy)naphthalene
_symmetry_cell_setting           orthorhombic
_symmetry_space_group_name_H-M   'P 21 21 21'
_symmetry_Int_Tables_number      19
_space_group_name_Hall           'P 2ac 2ab'
loop_
_symmetry_equiv_pos_site_id
_symmetry_equiv_pos_as_xyz
1 x,y,z
2 1/2-x,-y,1/2+z
3 -x,1/2+y,1/2-z
4 1/2+x,1/2-y,-z
_cell_length_a                   5.7690(7)
_cell_length_b                   13.3296(16)
_cell_length_c                   15.1264(18)
_cell_angle_alpha                90
_cell_angle_beta                 90
_cell_angle_gamma                90
_cell_volume                     1163.2
_exptl_crystal_colour            colorless
_exptl_crystal_description       block
_cell_formula_units_Z            4
loop_
_atom_site_label
_atom_site_type_symbol
_atom_site_fract_x
_atom_site_fract_y
_atom_site_fract_z
Br1 Br 0.80323(7) 0.24621(3) 0.10860(2)
C1 C 0.1072(6) 0.5282(2) 0.5422(2)
H1 H -0.0279 0.5659 0.5376
C2 C 0.2525(6) 0.5447(2) 0.6105(2)
H2 H 0.2182 0.5941 0.6519
C3 C 0.4541(6) 0.4879(2) 0.6191(2)
H3 H 0.5527 0.4996 0.6667
C4 C 0.5086(6) 0.4161(2) 0.5593(2)
H4 H 0.6433 0.3787 0.5664
C5 C 0.3623(5) 0.3977(2) 0.48630(18)
C6 C 0.1570(5) 0.4541(2) 0.47707(19)
C7 C 0.0136(6) 0.4361(2) 0.4040(2)
H5 H -0.1226 0.4726 0.3975
C8 C 0.0705(5) 0.3659(2) 0.3421(2)
H6 H -0.0276 0.3549 0.2943
C9 C 0.2775(5) 0.3095(2) 0.34990(18)
C10 C 0.4190(5) 0.3242(2) 0.42059(18)
H7 H 0.5536 0.2864 0.4263
C11 C 0.5139(6) 0.1805(2) 0.2880(2)
H8 H 0.5106 0.1401 0.3413
H9 H 0.6526 0.2216 0.2890
C12 C 0.5130(7) 0.1138(2) 0.2071(2)
H10 H 0.6453 0.0691 0.2103
H11 H 0.3743 0.0727 0.2084
C13 C 0.5210(6) 0.1679(3) 0.1209(2)
H12 H 0.3879 0.2120 0.1165
H13 H 0.5119 0.1196 0.0731
O1 O 0.3119(3) 0.24260(17) 0.28344(12)
loop_
_geom_bond_atom_site_label_1
_geom_bond_atom_site_label_2
_geom_bond_site_symmetry_1
_geom_bond_site_symmetry_2
Br1 C13 1_555 1_555
C1 H1 1_555 1_555
C2 C1 1_555 1_555
H2 C2 1_555 1_555
C3 C2 1_555 1_555
H3 C3 1_555 1_555
C4 C3 1_555 1_555
H4 C4 1_555 1_555
C5 C4 1_555 1_555
C6 C1 1_555 1_555
C7 C6 1_555 1_555
H5 C7 1_555 1_555
C8 C7 1_555 1_555
H6 C8 1_555 1_555
C9 C8 1_555 1_555
C10 C5 1_555 1_555
H7 C10 1_555 1_555
C11 H8 1_555 1_555
H9 C11 1_555 1_555
C12 C11 1_555 1_555
H10 C12 1_555 1_555
H11 C12 1_555 1_555
C13 C12 1_555 1_555
H12 C13 1_555 1_555
H13 C13 1_555 1_555
O1 C9 1_555 1_555
C5 C6 1_555 1_555
C9 C10 1_555 1_555
C11 O1 1_555 1_555

#END
