
#######################################################################
#
#                 Cambridge Crystallographic Data Centre
#                                CCDC 
#
#######################################################################
#
# If this CIF has been generated from an entry in the Cambridge 
# Structural Database, then it will include bibliographic, chemical, 
# crystal, experimental, refinement or atomic coordinate data resulting 
# from the CCDC's data processing and validation procedures.
#
#######################################################################

data_GUWCIL
_chemical_formula_moiety         'C9 H11 N1 O3'
_chemical_name_systematic        2-(N-Hydroxyethanimidoyl)-5-methoxyphenol
_symmetry_cell_setting           monoclinic
_symmetry_space_group_name_H-M   'P 21/c'
_symmetry_Int_Tables_number      14
_space_group_name_Hall           '-P 2ybc'
loop_
_symmetry_equiv_pos_site_id
_symmetry_equiv_pos_as_xyz
1 x,y,z
2 -x,1/2+y,1/2-z
3 -x,-y,-z
4 x,1/2-y,1/2+z
_cell_length_a                   9.404(2)
_cell_length_b                   14.429(4)
_cell_length_c                   6.6130(18)
_cell_angle_alpha                90
_cell_angle_beta                 93.564(4)
_cell_angle_gamma                90
_cell_volume                     895.585
_exptl_crystal_colour            colorless
_exptl_crystal_description       hexagonal
_chemical_melting_point          '459 K'
_cell_formula_units_Z            4
loop_
_atom_site_label
_atom_site_type_symbol
_atom_site_fract_x
_atom_site_fract_y
_atom_site_fract_z
N1 N 0.60482(15) 0.41577(10) -0.3019(2)
O1 O 0.06270(12) 0.38412(10) 0.2115(2)
O2 O 0.34554(12) 0.46554(9) -0.31631(18)
H1 H 0.4269 0.4615 -0.3534
O3 O 0.73955(13) 0.41209(9) -0.3825(2)
H2 H 0.7403 0.4461 -0.4818
C1 C 0.0430(2) 0.34096(19) 0.4012(3)
H3 H 0.0622 0.2758 0.3914
H4 H -0.0535 0.3499 0.4366
H5 H 0.1069 0.3680 0.5036
C2 C 0.19502(17) 0.37974(12) 0.1370(3)
C3 C 0.20910(17) 0.42206(12) -0.0462(3)
H6 H 0.1307 0.4510 -0.1115
C4 C 0.33787(17) 0.42238(11) -0.1350(3)
C5 C 0.45952(16) 0.37873(10) -0.0388(2)
C6 C 0.43969(17) 0.33689(11) 0.1462(3)
H7 H 0.5174 0.3080 0.2135
C7 C 0.31125(17) 0.33573(12) 0.2355(3)
H8 H 0.3025 0.3062 0.3591
C8 C 0.59976(16) 0.37780(10) -0.1278(3)
C9 C 0.72555(18) 0.33410(14) -0.0171(3)
H9 H 0.8091 0.3450 -0.0899
H10 H 0.7099 0.2686 -0.0060
H11 H 0.7385 0.3606 0.1160
loop_
_geom_bond_atom_site_label_1
_geom_bond_atom_site_label_2
_geom_bond_site_symmetry_1
_geom_bond_site_symmetry_2
N1 O3 1_555 1_555
O1 C1 1_555 1_555
O2 H1 1_555 1_555
O3 H2 1_555 1_555
C1 H3 1_555 1_555
H4 C1 1_555 1_555
H5 C1 1_555 1_555
C2 O1 1_555 1_555
C3 C2 1_555 1_555
H6 C3 1_555 1_555
C4 O2 1_555 1_555
C5 C4 1_555 1_555
C6 C5 1_555 1_555
H7 C6 1_555 1_555
C7 C2 1_555 1_555
H8 C7 1_555 1_555
C8 N1 1_555 1_555
C9 C8 1_555 1_555
H9 C9 1_555 1_555
H10 C9 1_555 1_555
H11 C9 1_555 1_555
C3 C4 1_555 1_555
C5 C8 1_555 1_555
C6 C7 1_555 1_555

#END
