
#######################################################################
#
#                 Cambridge Crystallographic Data Centre
#                                CCDC 
#
#######################################################################
#
# If this CIF has been generated from an entry in the Cambridge 
# Structural Database, then it will include bibliographic, chemical, 
# crystal, experimental, refinement or atomic coordinate data resulting 
# from the CCDC's data processing and validation procedures.
#
#######################################################################

data_GUWNES
_chemical_formula_moiety         'C6 H8 N4 2+,2(H2 O4 P1 1-)'
_chemical_name_systematic        "2,2'-biimidazolium bis(dihydrogen phosphate)"
_symmetry_cell_setting           monoclinic
_symmetry_space_group_name_H-M   'C 2/c'
_symmetry_Int_Tables_number      15
_space_group_name_Hall           '-C 2yn'
loop_
_symmetry_equiv_pos_site_id
_symmetry_equiv_pos_as_xyz
1 x,y,z
2 -x,y,1/2-z
3 1/2+x,1/2+y,z
4 1/2-x,1/2+y,1/2-z
5 -x,-y,-z
6 x,-y,1/2+z
7 1/2-x,1/2-y,-z
8 1/2+x,1/2-y,1/2+z
_cell_length_a                   15.903(2)
_cell_length_b                   9.6799(12)
_cell_length_c                   8.4361(11)
_cell_angle_alpha                90
_cell_angle_beta                 107.858(2)
_cell_angle_gamma                90
_cell_volume                     1236.08
_exptl_crystal_colour            colorless
_exptl_crystal_description       block
_cell_formula_units_Z            4
loop_
_atom_site_label
_atom_site_type_symbol
_atom_site_fract_x
_atom_site_fract_y
_atom_site_fract_z
P1 P 0.24930(4) 0.06022(5) 0.17765(7)
O1 O 0.34078(10) 0.06611(17) 0.1615(2)
O2 O 0.23411(11) 0.17257(17) 0.2980(2)
H1 H 0.2479(19) 0.2506(15) 0.280(3)
O3 O 0.17987(11) 0.0908(2) 0.0061(2)
H2 H 0.196(2) 0.082(3) -0.076(3)
O4 O 0.22817(13) -0.07408(15) 0.2458(2)
N1 N 0.42771(12) -0.1266(2) 0.0568(3)
H3 H 0.3942(17) -0.073(2) 0.100(3)
N2 N 0.53735(13) -0.1753(2) -0.0336(3)
H4 H 0.5839(13) -0.169(3) -0.072(3)
C1 C 0.49207(14) -0.0724(2) 0.0062(3)
C2 C 0.49982(17) -0.2966(3) -0.0099(4)
H5 H 0.5183 -0.3844 -0.0290
C3 C 0.43115(16) -0.2672(3) 0.0460(3)
H6 H 0.3934 -0.3304 0.0722
N1D N 0.57229(12) 0.1266(2) -0.0568(3)
H3D H 0.6058(17) 0.073(2) -0.100(3)
N2D N 0.46265(13) 0.1753(2) 0.0336(3)
H4D H 0.4161(13) 0.169(3) 0.072(3)
C1D C 0.50793(14) 0.0724(2) -0.0062(3)
C2D C 0.50018(17) 0.2966(3) 0.0099(4)
H5D H 0.4817 0.3844 0.0290
C3D C 0.56885(16) 0.2672(3) -0.0460(3)
H6D H 0.6066 0.3304 -0.0722
loop_
_geom_bond_atom_site_label_1
_geom_bond_atom_site_label_2
_geom_bond_site_symmetry_1
_geom_bond_site_symmetry_2
P1 O1 1_555 1_555
O2 P1 1_555 1_555
H1 O2 1_555 1_555
O3 P1 1_555 1_555
H2 O3 1_555 1_555
O4 P1 1_555 1_555
N1 H3 1_555 1_555
N2 H4 1_555 1_555
C1 N1 1_555 1_555
C2 N2 1_555 1_555
H5 C2 1_555 1_555
C3 N1 1_555 1_555
H6 C3 1_555 1_555
N1D H3D 1_555 1_555
N2D H4D 1_555 1_555
C1D C1 1_555 1_555
C2D N2D 1_555 1_555
H5D C2D 1_555 1_555
C3D N1D 1_555 1_555
H6D C3D 1_555 1_555
N2 C1 1_555 1_555
C2 C3 1_555 1_555
N1D C1D 1_555 1_555
N2D C1D 1_555 1_555
C2D C3D 1_555 1_555

#END
