
#######################################################################
#
#                 Cambridge Crystallographic Data Centre
#                                CCDC 
#
#######################################################################
#
# If this CIF has been generated from an entry in the Cambridge 
# Structural Database, then it will include bibliographic, chemical, 
# crystal, experimental, refinement or atomic coordinate data resulting 
# from the CCDC's data processing and validation procedures.
#
#######################################################################

data_GUXJIT
_chemical_formula_moiety         'C31 H40 N2'
_chemical_name_systematic        
N-(2-((2,6-Diisopropylphenyl)amino)benzylidene)-2,6-diisopropylaniline
_symmetry_cell_setting           triclinic
_symmetry_space_group_name_H-M   'P -1'
_symmetry_Int_Tables_number      2
_space_group_name_Hall           '-P 1'
loop_
_symmetry_equiv_pos_site_id
_symmetry_equiv_pos_as_xyz
1 x,y,z
2 -x,-y,-z
_cell_length_a                   11.543(4)
_cell_length_b                   14.378(5)
_cell_length_c                   18.275(6)
_cell_angle_alpha                86.184(5)
_cell_angle_beta                 77.648(5)
_cell_angle_gamma                70.693(5)
_cell_volume                     2796.15
_exptl_crystal_colour            yellow
_cell_formula_units_Z            4
loop_
_atom_site_label
_atom_site_type_symbol
_atom_site_fract_x
_atom_site_fract_y
_atom_site_fract_z
N1 N 0.6759(3) 0.1484(2) 0.28111(18)
N2 N 0.4373(3) 0.2053(2) 0.26227(17)
H1 H 0.4939 0.1657 0.2838
C1 C 0.6777(3) 0.2313(3) 0.2519(2)
H2 H 0.7514 0.2464 0.2465
C2 C 0.5746(4) 0.3024(3) 0.2268(2)
C3 C 0.5933(4) 0.3885(3) 0.1927(2)
H3 H 0.6706 0.3975 0.1886
C4 C 0.5009(4) 0.4589(3) 0.1656(2)
H4 H 0.5143 0.5162 0.1447
C5 C 0.3872(4) 0.4447(3) 0.1695(2)
H5 H 0.3245 0.4919 0.1500
C6 C 0.3660(4) 0.3606(3) 0.2021(2)
H6 H 0.2885 0.3522 0.2054
C7 C 0.4597(4) 0.2888(3) 0.2300(2)
C8 C 0.7851(4) 0.0776(3) 0.2995(3)
C9 C 0.8664(4) 0.0093(3) 0.2439(3)
C10 C 0.9632(4) -0.0652(3) 0.2647(3)
H7 H 1.0165 -0.1121 0.2293
C11 C 0.9835(5) -0.0725(4) 0.3357(4)
H8 H 1.0504 -0.1236 0.3481
C12 C 0.9066(5) -0.0056(4) 0.3888(3)
H9 H 0.9220 -0.0116 0.4371
C13 C 0.8056(4) 0.0714(3) 0.3724(3)
C14 C 0.8451(4) 0.0190(3) 0.1643(3)
H10 H 0.7577 0.0600 0.1663
C15 C 0.8629(5) -0.0792(4) 0.1294(3)
H11 H 0.8090 -0.1110 0.1606
H12 H 0.9486 -0.1205 0.1248
H13 H 0.8422 -0.0681 0.0806
C16 C 0.9276(5) 0.0722(4) 0.1146(3)
H14 H 0.9143 0.1344 0.1369
H15 H 0.9062 0.0830 0.0660
H16 H 1.0141 0.0326 0.1095
C17 C 0.7147(5) 0.1472(4) 0.4312(3)
H17 H 0.6865 0.2094 0.4045
C18 C 0.5995(5) 0.1207(5) 0.4653(3)
H18 H 0.5626 0.1081 0.4262
H19 H 0.5403 0.1742 0.4961
H20 H 0.6219 0.0627 0.4954
C19 C 0.7741(6) 0.1679(5) 0.4925(4)
H21 H 0.8470 0.1856 0.4702
H22 H 0.7978 0.1100 0.5225
H23 H 0.7147 0.2211 0.5236
C20 C 0.3299(4) 0.1795(3) 0.2631(2)
C21 C 0.2339(4) 0.1970(3) 0.3288(3)
C22 C 0.1327(4) 0.1675(4) 0.3284(3)
H24 H 0.0698 0.1771 0.3713
C23 C 0.1209(5) 0.1236(4) 0.2663(4)
H25 H 0.0513 0.1041 0.2673
C24 C 0.2134(6) 0.1097(4) 0.2036(3)
H26 H 0.2052 0.0818 0.1613
C25 C 0.3175(4) 0.1355(3) 0.2011(3)
C26 C 0.2432(4) 0.2469(4) 0.3967(3)
H27 H 0.3236 0.2593 0.3861
C27 C 0.2390(5) 0.1831(4) 0.4661(3)
H28 H 0.3061 0.1216 0.4567
H29 H 0.1602 0.1709 0.4781
H30 H 0.2481 0.2164 0.5072
C28 C 0.1379(5) 0.3467(4) 0.4108(3)
H31 H 0.1424 0.3866 0.3667
H32 H 0.1476 0.3797 0.4520
H33 H 0.0581 0.3362 0.4226
C29 C 0.4206(5) 0.1163(4) 0.1298(3)
H34 H 0.4750 0.1544 0.1348
C30 C 0.5011(5) 0.0102(4) 0.1229(3)
H35 H 0.5656 0.0012 0.0785
H36 H 0.4505 -0.0301 0.1198
H37 H 0.5387 -0.0085 0.1660
C31 C 0.3714(6) 0.1510(5) 0.0604(3)
H38 H 0.4399 0.1383 0.0180
H39 H 0.3268 0.2205 0.0643
H40 H 0.3156 0.1165 0.0542
N3 N 0.3759(3) 0.7140(2) 0.23133(16)
N4 N 0.6169(3) 0.6518(2) 0.23942(18)
H41 H 0.5546 0.6416 0.2265
C32 C 0.3692(4) 0.7945(3) 0.2609(2)
H42 H 0.2918 0.8441 0.2707
C33 C 0.4724(4) 0.8123(3) 0.2796(2)
C34 C 0.4517(5) 0.9062(3) 0.3115(2)
H43 H 0.3718 0.9526 0.3188
C35 C 0.5434(6) 0.9285(4) 0.3306(3)
H44 H 0.5275 0.9897 0.3518
C36 C 0.6636(5) 0.8607(4) 0.3192(3)
H45 H 0.7279 0.8771 0.3324
C37 C 0.6889(4) 0.7692(4) 0.2886(3)
H46 H 0.7699 0.7246 0.2812
C38 C 0.5938(4) 0.7435(3) 0.2689(2)
C39 C 0.2672(3) 0.6987(3) 0.2170(2)
C40 C 0.1919(4) 0.6641(3) 0.2753(2)
C41 C 0.0932(4) 0.6411(3) 0.2579(3)
H47 H 0.0393 0.6201 0.2955
C42 C 0.0741(4) 0.6491(3) 0.1852(3)
H48 H 0.0095 0.6309 0.1742
C43 C 0.1485(4) 0.6830(3) 0.1299(3)
H49 H 0.1326 0.6899 0.0817
C44 C 0.2481(3) 0.7076(3) 0.1442(2)
C45 C 0.2174(4) 0.6502(3) 0.3536(2)
H50 H 0.2451 0.7048 0.3635
C46 C 0.1052(5) 0.6522(4) 0.4152(3)
H51 H 0.0383 0.7127 0.4126
H52 H 0.1283 0.6476 0.4631
H53 H 0.0779 0.5976 0.4088
C47 C 0.3248(4) 0.5552(4) 0.3590(3)
H54 H 0.3966 0.5547 0.3209
H55 H 0.2996 0.4997 0.3521
H56 H 0.3458 0.5515 0.4074
C48 C 0.3322(4) 0.7438(3) 0.0820(2)
H57 H 0.4089 0.7371 0.0998
C49 C 0.2731(5) 0.8519(4) 0.0667(3)
H58 H 0.2480 0.8885 0.1127
H59 H 0.2010 0.8608 0.0454
H60 H 0.3328 0.8751 0.0321
C50 C 0.3715(5) 0.6837(4) 0.0101(3)
H61 H 0.4107 0.6156 0.0207
H62 H 0.4297 0.7070 -0.0256
H63 H 0.2990 0.6907 -0.0102
C51 C 0.7321(4) 0.5717(3) 0.2278(3)
C52 C 0.7993(4) 0.5480(3) 0.1542(3)
C53 C 0.9087(5) 0.4683(4) 0.1426(3)
H64 H 0.9543 0.4521 0.0941
C54 C 0.9507(5) 0.4132(4) 0.2006(4)
H65 H 1.0247 0.3602 0.1913
C55 C 0.8853(6) 0.4348(4) 0.2726(4)
H66 H 0.9151 0.3967 0.3120
C56 C 0.7736(5) 0.5144(4) 0.2870(3)
C57 C 0.7581(5) 0.6079(4) 0.0877(3)
H67 H 0.6703 0.6484 0.1041
C58 C 0.8341(7) 0.6779(4) 0.0640(3)
H68 H 0.8274 0.7171 0.1062
H69 H 0.8021 0.7203 0.0250
H70 H 0.9205 0.6404 0.0458
C59 C 0.7657(5) 0.5482(4) 0.0207(3)
H71 H 0.7145 0.5067 0.0351
H72 H 0.8511 0.5082 0.0029
H73 H 0.7364 0.5920 -0.0183
C60 C 0.6984(5) 0.5321(4) 0.3666(3)
H74 H 0.6221 0.5881 0.3655
C61 C 0.6577(5) 0.4439(4) 0.3972(3)
H75 H 0.6128 0.4280 0.3640
H76 H 0.6044 0.4599 0.4459
H77 H 0.7304 0.3884 0.4011
C62 C 0.7690(6) 0.5601(5) 0.4189(3)
H78 H 0.7927 0.6162 0.3991
H79 H 0.8428 0.5057 0.4229
H80 H 0.7158 0.5760 0.4676
loop_
_geom_bond_atom_site_label_1
_geom_bond_atom_site_label_2
_geom_bond_site_symmetry_1
_geom_bond_site_symmetry_2
N1 C1 1_555 1_555
N2 H1 1_555 1_555
C1 H2 1_555 1_555
C2 C1 1_555 1_555
C3 C2 1_555 1_555
H3 C3 1_555 1_555
C4 C3 1_555 1_555
H4 C4 1_555 1_555
C5 C4 1_555 1_555
H5 C5 1_555 1_555
C6 C5 1_555 1_555
H6 C6 1_555 1_555
C7 N2 1_555 1_555
C8 N1 1_555 1_555
C9 C8 1_555 1_555
C10 C9 1_555 1_555
H7 C10 1_555 1_555
C11 C10 1_555 1_555
H8 C11 1_555 1_555
C12 C11 1_555 1_555
H9 C12 1_555 1_555
C13 C8 1_555 1_555
C14 C9 1_555 1_555
H10 C14 1_555 1_555
C15 C14 1_555 1_555
H11 C15 1_555 1_555
H12 C15 1_555 1_555
H13 C15 1_555 1_555
C16 C14 1_555 1_555
H14 C16 1_555 1_555
H15 C16 1_555 1_555
H16 C16 1_555 1_555
C17 C13 1_555 1_555
H17 C17 1_555 1_555
C18 C17 1_555 1_555
H18 C18 1_555 1_555
H19 C18 1_555 1_555
H20 C18 1_555 1_555
C19 C17 1_555 1_555
H21 C19 1_555 1_555
H22 C19 1_555 1_555
H23 C19 1_555 1_555
C20 N2 1_555 1_555
C21 C20 1_555 1_555
C22 C21 1_555 1_555
H24 C22 1_555 1_555
C23 C22 1_555 1_555
H25 C23 1_555 1_555
C24 C23 1_555 1_555
H26 C24 1_555 1_555
C25 C20 1_555 1_555
C26 C21 1_555 1_555
H27 C26 1_555 1_555
C27 C26 1_555 1_555
H28 C27 1_555 1_555
H29 C27 1_555 1_555
H30 C27 1_555 1_555
C28 C26 1_555 1_555
H31 C28 1_555 1_555
H32 C28 1_555 1_555
H33 C28 1_555 1_555
C29 C25 1_555 1_555
H34 C29 1_555 1_555
C30 C29 1_555 1_555
H35 C30 1_555 1_555
H36 C30 1_555 1_555
H37 C30 1_555 1_555
C31 C29 1_555 1_555
H38 C31 1_555 1_555
H39 C31 1_555 1_555
H40 C31 1_555 1_555
N3 C32 1_555 1_555
N4 H41 1_555 1_555
C32 H42 1_555 1_555
C33 C32 1_555 1_555
C34 C33 1_555 1_555
H43 C34 1_555 1_555
C35 C34 1_555 1_555
H44 C35 1_555 1_555
C36 C35 1_555 1_555
H45 C36 1_555 1_555
C37 C36 1_555 1_555
H46 C37 1_555 1_555
C38 N4 1_555 1_555
C39 N3 1_555 1_555
C40 C39 1_555 1_555
C41 C40 1_555 1_555
H47 C41 1_555 1_555
C42 C41 1_555 1_555
H48 C42 1_555 1_555
C43 C42 1_555 1_555
H49 C43 1_555 1_555
C44 C39 1_555 1_555
C45 C40 1_555 1_555
H50 C45 1_555 1_555
C46 C45 1_555 1_555
H51 C46 1_555 1_555
H52 C46 1_555 1_555
H53 C46 1_555 1_555
C47 C45 1_555 1_555
H54 C47 1_555 1_555
H55 C47 1_555 1_555
H56 C47 1_555 1_555
C48 C44 1_555 1_555
H57 C48 1_555 1_555
C49 C48 1_555 1_555
H58 C49 1_555 1_555
H59 C49 1_555 1_555
H60 C49 1_555 1_555
C50 C48 1_555 1_555
H61 C50 1_555 1_555
H62 C50 1_555 1_555
H63 C50 1_555 1_555
C51 N4 1_555 1_555
C52 C51 1_555 1_555
C53 C52 1_555 1_555
H64 C53 1_555 1_555
C54 C53 1_555 1_555
H65 C54 1_555 1_555
C55 C54 1_555 1_555
H66 C55 1_555 1_555
C56 C51 1_555 1_555
C57 C52 1_555 1_555
H67 C57 1_555 1_555
C58 C57 1_555 1_555
H68 C58 1_555 1_555
H69 C58 1_555 1_555
H70 C58 1_555 1_555
C59 C57 1_555 1_555
H71 C59 1_555 1_555
H72 C59 1_555 1_555
H73 C59 1_555 1_555
C60 C56 1_555 1_555
H74 C60 1_555 1_555
C61 C60 1_555 1_555
H75 C61 1_555 1_555
H76 C61 1_555 1_555
H77 C61 1_555 1_555
C62 C60 1_555 1_555
H78 C62 1_555 1_555
H79 C62 1_555 1_555
H80 C62 1_555 1_555
C2 C7 1_555 1_555
C6 C7 1_555 1_555
C12 C13 1_555 1_555
C24 C25 1_555 1_555
C33 C38 1_555 1_555
C37 C38 1_555 1_555
C43 C44 1_555 1_555
C55 C56 1_555 1_555

#END
