
#######################################################################
#
#                 Cambridge Crystallographic Data Centre
#                                CCDC 
#
#######################################################################
#
# If this CIF has been generated from an entry in the Cambridge 
# Structural Database, then it will include bibliographic, chemical, 
# crystal, experimental, refinement or atomic coordinate data resulting 
# from the CCDC's data processing and validation procedures.
#
#######################################################################

data_GUXVEB
_chemical_formula_moiety         'C17 H21 N3 O2'
_chemical_name_systematic        
3-Isobutyl-1-isopropylimidazo[2,1-b]quinazoline-2,5(1H,3H)-dione
_symmetry_cell_setting           monoclinic
_symmetry_space_group_name_H-M   'P 21/c'
_symmetry_Int_Tables_number      14
_space_group_name_Hall           '-P 2ybc'
loop_
_symmetry_equiv_pos_site_id
_symmetry_equiv_pos_as_xyz
1 x,y,z
2 -x,1/2+y,1/2-z
3 -x,-y,-z
4 x,1/2-y,1/2+z
_cell_length_a                   8.9420(6)
_cell_length_b                   18.1103(12)
_cell_length_c                   10.365(7)
_cell_angle_alpha                90
_cell_angle_beta                 102.0670(10)
_cell_angle_gamma                90
_cell_volume                     1641.44
_exptl_crystal_colour            colorless
_exptl_crystal_description       plate
_chemical_melting_point          '95-97 deg.C'
_cell_formula_units_Z            4
_exptl_crystal_recrystallization_method dichloromethane
loop_
_atom_site_label
_atom_site_type_symbol
_atom_site_fract_x
_atom_site_fract_y
_atom_site_fract_z
C1 C 0.2817(2) 0.18949(11) 0.36017(19)
C2 C 0.1719(3) 0.15075(14) 0.4111(2)
H1 H 0.1566 0.1007 0.3926
C3 C 0.0870(3) 0.18582(17) 0.4880(2)
H2 H 0.0154 0.1595 0.5230
C4 C 0.1076(3) 0.26043(16) 0.5137(2)
H3 H 0.0486 0.2842 0.5651
C5 C 0.2139(2) 0.29986(14) 0.4644(2)
H4 H 0.2261 0.3501 0.4821
C6 C 0.3042(2) 0.26475(11) 0.38742(18)
C7 C 0.4932(2) 0.27007(10) 0.27363(17)
C8 C 0.3731(2) 0.15112(11) 0.2792(2)
C9 C 0.5974(2) 0.17439(11) 0.1679(2)
H5 H 0.5457 0.1512 0.0851
C10 C 0.6615(2) 0.24884(11) 0.1416(2)
C11 C 0.6431(2) 0.38001(11) 0.2252(2)
H6 H 0.5885 0.4014 0.2890
C12 C 0.5866(4) 0.41867(13) 0.0967(3)
H7 H 0.6404 0.4004 0.0323
H8 H 0.6041 0.4708 0.1083
H9 H 0.4791 0.4096 0.0672
C13 C 0.8109(3) 0.39003(17) 0.2810(4)
H10 H 0.8386 0.3637 0.3629
H11 H 0.8328 0.4416 0.2959
H12 H 0.8684 0.3711 0.2197
C14 C 0.7269(3) 0.12475(12) 0.2410(2)
H13 H 0.8184 0.1372 0.2092
H14 H 0.7460 0.1382 0.3335
C15 C 0.7094(8) 0.0435(3) 0.2331(8)
H17 H 0.6204 0.0339 0.2720
C16 C 0.6611(13) 0.0132(3) 0.0915(6)
H18 H 0.5690 0.0374 0.0474
H19 H 0.6433 -0.0389 0.0946
H20 H 0.7409 0.0224 0.0443
C17 C 0.8426(15) 0.0074(6) 0.3305(12)
H21 H 0.9373 0.0193 0.3055
H22 H 0.8290 -0.0452 0.3290
H23 H 0.8448 0.0256 0.4179
N1 N 0.41231(17) 0.30657(9) 0.33976(15)
N2 N 0.48616(17) 0.19558(8) 0.24684(15)
N3 N 0.60291(18) 0.30066(8) 0.21359(15)
O1 O 0.35799(19) 0.08738(8) 0.24240(17)
O2 O 0.7516(2) 0.26026(9) 0.07135(18)
H15? H 0.8230 0.1426 0.2233
H16? H 0.7323 0.1291 0.3351
C18? C 0.711(2) 0.0458(5) 0.2010(14)
H24? H 0.6050 0.0284 0.1857
C19? C 0.780(2) 0.0374(8) 0.0830(9)
H25? H 0.7284 0.0694 0.0141
H26? H 0.7695 -0.0129 0.0530
H27? H 0.8864 0.0502 0.1057
C20? C 0.822(3) -0.0059(10) 0.2901(17)
H28? H 0.9245 0.0044 0.2807
H29? H 0.7968 -0.0562 0.2655
H30? H 0.8146 0.0017 0.3803
loop_
_geom_bond_atom_site_label_1
_geom_bond_atom_site_label_2
_geom_bond_site_symmetry_1
_geom_bond_site_symmetry_2
C1 C2 1_555 1_555
C2 H1 1_555 1_555
C3 C2 1_555 1_555
H2 C3 1_555 1_555
C4 C3 1_555 1_555
H3 C4 1_555 1_555
C5 C4 1_555 1_555
H4 C5 1_555 1_555
C6 C1 1_555 1_555
C7 N1 1_555 1_555
C8 C1 1_555 1_555
C9 H5 1_555 1_555
C10 C9 1_555 1_555
C11 H6 1_555 1_555
C12 C11 1_555 1_555
H7 C12 1_555 1_555
H8 C12 1_555 1_555
H9 C12 1_555 1_555
C13 C11 1_555 1_555
H10 C13 1_555 1_555
H11 C13 1_555 1_555
H12 C13 1_555 1_555
C14 C9 1_555 1_555
H13 C14 1_555 1_555
H14 C14 1_555 1_555
C15 C14 1_555 1_555
H17 C15 1_555 1_555
C16 C15 1_555 1_555
H18 C16 1_555 1_555
H19 C16 1_555 1_555
H20 C16 1_555 1_555
C17 C15 1_555 1_555
H21 C17 1_555 1_555
H22 C17 1_555 1_555
H23 C17 1_555 1_555
N1 C6 1_555 1_555
N2 C7 1_555 1_555
N3 C7 1_555 1_555
O1 C8 1_555 1_555
O2 C10 1_555 1_555
C5 C6 1_555 1_555
C8 N2 1_555 1_555
C9 N2 1_555 1_555
C10 N3 1_555 1_555
C11 N3 1_555 1_555

#END
