
#######################################################################
#
#                 Cambridge Crystallographic Data Centre
#                                CCDC 
#
#######################################################################
#
# If this CIF has been generated from an entry in the Cambridge 
# Structural Database, then it will include bibliographic, chemical, 
# crystal, experimental, refinement or atomic coordinate data resulting 
# from the CCDC's data processing and validation procedures.
#
#######################################################################

data_GUXXOO
_chemical_formula_moiety         'C67 F6'
_chemical_name_systematic        
1,9-(2-difluoromethylene-3,4,5,6-tetrafluorophenyl)-C60-fullerene
_symmetry_cell_setting           orthorhombic
_symmetry_space_group_name_H-M   'P b c a'
_symmetry_Int_Tables_number      61
_space_group_name_Hall           '-P 2ac 2ab'
loop_
_symmetry_equiv_pos_site_id
_symmetry_equiv_pos_as_xyz
1 x,y,z
2 1/2-x,-y,1/2+z
3 -x,1/2+y,1/2-z
4 1/2+x,1/2-y,-z
5 -x,-y,-z
6 1/2+x,y,1/2-z
7 x,1/2-y,1/2+z
8 1/2-x,1/2+y,z
_cell_length_a                   9.9998(6)
_cell_length_b                   20.6538(12)
_cell_length_c                   31.3512(18)
_cell_angle_alpha                90
_cell_angle_beta                 90
_cell_angle_gamma                90
_cell_volume                     6475.08
_exptl_crystal_colour            'dark brown'
_exptl_crystal_description       plate
_cell_formula_units_Z            8
_exptl_crystal_recrystallization_method 'carbon disulfide'
loop_
_atom_site_label
_atom_site_type_symbol
_atom_site_fract_x
_atom_site_fract_y
_atom_site_fract_z
C1 C -0.1620(4) 0.4077(2) 0.13393(13)
C2 C -0.2428(5) 0.3618(3) 0.15172(16)
C3 C -0.2180(5) 0.3366(3) 0.19272(16)
C4 C -0.1080(5) 0.3592(2) 0.21503(14)
C5 C -0.0276(4) 0.4067(2) 0.19695(13)
C6 C 0.0969(4) 0.43407(19) 0.21521(11)
C7 C -0.0523(4) 0.43040(19) 0.15676(12)
C8 C 0.0477(4) 0.4830(2) 0.14302(12)
C9 C 0.1411(4) 0.49035(19) 0.18457(11)
C10 C 0.1339(4) 0.5577(2) 0.20513(15)
C11 C 0.0431(4) 0.6044(2) 0.19399(12)
C12 C -0.0421(4) 0.5969(2) 0.15585(16)
C13 C 0.2653(4) 0.5773(2) 0.21896(11)
C14 C 0.3618(4) 0.5324(2) 0.20109(12)
C15 C 0.2913(4) 0.4850(2) 0.17604(13)
C16 C 0.2996(5) 0.6421(2) 0.22352(12)
C17 C 0.2029(5) 0.6913(2) 0.21241(14)
C18 C 0.0779(4) 0.6725(2) 0.19758(13)
C19 C 0.0158(5) 0.7069(2) 0.16264(16)
C20 C 0.0820(6) 0.7589(4) 0.14384(18)
C21 C 0.2132(7) 0.7777(4) 0.15855(18)
C22 C 0.2724(5) 0.7447(2) 0.19208(16)
C23 C 0.4304(4) 0.6647(2) 0.20967(12)
C24 C 0.5225(4) 0.6216(2) 0.19288(14)
C25 C 0.4123(5) 0.7281(2) 0.19053(14)
C26 C 0.4887(5) 0.7460(2) 0.15469(17)
C27 C 0.5857(4) 0.7003(2) 0.13765(17)
C28 C 0.6025(4) 0.6401(2) 0.15615(14)
C29 C 0.6166(4) 0.5827(2) 0.12913(14)
C30 C 0.5458(5) 0.5296(2) 0.14971(13)
C31 C 0.4742(5) 0.4853(2) 0.12513(15)
C32 C 0.4721(6) 0.4917(4) 0.0789(2)
C33 C 0.5401(5) 0.5426(2) 0.05906(16)
C34 C 0.6139(4) 0.5892(2) 0.08508(14)
C35 C 0.5974(4) 0.6520(2) 0.06563(17)
C36 C 0.4791(5) 0.5771(2) 0.02407(14)
C37 C 0.3403(7) 0.4728(4) 0.06383(18)
C38 C 0.2602(5) 0.4545(2) 0.10076(16)
C39 C 0.3457(5) 0.4623(2) 0.13899(13)
C40 C 0.1258(4) 0.4692(2) 0.10155(13)
C41 C -0.0271(5) 0.5505(2) 0.08421(16)
C42 C 0.0676(5) 0.5050(2) 0.06709(15)
C43 C 0.2820(5) 0.5056(2) 0.02989(15)
C44 C 0.0105(5) 0.7209(2) 0.07232(14)
C45 C 0.0792(5) 0.7653(2) 0.09699(14)
C46 C 0.2102(6) 0.7882(2) 0.08379(14)
C47 C 0.2924(5) 0.7957(2) 0.12143(17)
C48 C 0.4271(4) 0.7801(2) 0.11990(16)
C49 C 0.4863(4) 0.7558(2) 0.08028(18)
C50 C 0.4060(5) 0.7487(2) 0.04454(14)
C51 C 0.4214(5) 0.6918(2) 0.01759(14)
C52 C 0.4877(4) 0.5539(2) 0.18825(12)
C53 C -0.0569(4) 0.6603(2) 0.13685(13)
C54 C -0.0601(4) 0.6678(2) 0.09268(14)
C55 C -0.0457(4) 0.6112(2) 0.06575(13)
C56 C 0.0342(5) 0.6292(2) 0.02867(15)
C57 C 0.1255(4) 0.5857(2) 0.01195(12)
C58 C 0.0688(4) 0.6968(2) 0.03300(13)
C59 C 0.1940(5) 0.7189(2) 0.01994(14)
C60 C 0.2574(5) 0.6081(2) -0.00146(11)
C61 C 0.2896(4) 0.6734(2) 0.00234(12)
C62 C 0.3533(5) 0.5589(2) 0.00952(13)
C63 C 0.1437(5) 0.5224(2) 0.03101(14)
C64 C 0.5838(4) 0.7068(2) 0.09115(14)
C65 C 0.2660(5) 0.7654(2) 0.04594(14)
C66 C 0.5146(4) 0.6445(2) 0.02802(13)
C67 C -0.0280(4) 0.5440(2) 0.13031(12)
F1 F -0.1888(2) 0.42937(13) 0.09460(7)
F2 F -0.3477(3) 0.33950(15) 0.13010(9)
F3 F -0.2976(4) 0.2916(2) 0.20893(15)
F4 F -0.0783(3) 0.33324(14) 0.25305(8)
F5 F 0.1938(2) 0.38715(11) 0.21692(7)
F6 F 0.0844(3) 0.45501(13) 0.25616(7)
C68? C 0.275(2) 0.5134(11) 0.1946(7)
C69? C 0.056(2) 0.5528(10) 0.1841(6)
C70? C -0.047(2) 0.5585(13) 0.0999(8)
C71? C -0.014(2) 0.5742(11) 0.0555(6)
C72? C 0.346(3) 0.7722(12) 0.0560(7)
C73? C 0.280(3) 0.7336(12) 0.0227(7)
C74? C 0.471(3) 0.7471(14) 0.0633(10)
C75? C 0.526(2) 0.7441(12) 0.1050(8)
C76? C 0.450(3) 0.7656(14) 0.1399(9)
C77? C 0.476(3) 0.7251(13) 0.1760(9)
C78? C 0.574(2) 0.6749(14) 0.1622(8)
C79? C 0.604(2) 0.6886(13) 0.1175(9)
C80? C 0.099(2) 0.4835(12) 0.0774(9)
C81? C 0.088(3) 0.5250(12) 0.0428(9)
C82? C 0.212(2) 0.4749(10) 0.1621(6)
C83? C 0.178(3) 0.5633(15) 0.2093(9)
C84? C 0.499(3) 0.6924(13) 0.0353(7)
C85? C 0.374(3) 0.6849(13) 0.0099(8)
C86? C -0.216(3) 0.3638(15) 0.1659(9)
C87? C -0.192(3) 0.3423(16) 0.2052(9)
C88? C -0.097(3) 0.3635(15) 0.2319(9)
C89? C -0.011(2) 0.4103(10) 0.2192(7)
F7? F -0.0768(11) 0.3936(5) 0.0812(3)
F8? F -0.2284(12) 0.4667(6) 0.0955(3)
F9? F -0.2987(18) 0.3427(10) 0.1386(6)
F10? F -0.267(3) 0.2857(15) 0.2162(9)
F11? F -0.0812(16) 0.3362(8) 0.2716(4)
F12? F 0.0847(14) 0.4275(7) 0.2479(5)
C90? C 0.0014(15) 0.4914(7) 0.1138(4)
C91? C -0.1061(15) 0.4469(8) 0.1093(4)
C92? C -0.1225(16) 0.4141(7) 0.1487(5)
C93? C -0.0251(17) 0.4383(9) 0.1776(4)
C94? C 0.0514(16) 0.4860(9) 0.1560(5)
C95? C 0.4584(17) 0.5928(8) 0.2050(5)
C96? C 0.4122(17) 0.5299(8) 0.1940(5)
C97? C 0.4879(17) 0.5079(7) 0.1586(5)
C98? C 0.5809(15) 0.5571(10) 0.1476(5)
C99? C 0.5626(17) 0.6096(8) 0.1763(6)
C100? C 0.1504(13) 0.6798(9) 0.2077(6)
C101? C 0.2239(18) 0.6244(7) 0.2207(5)
C102? C 0.3621(16) 0.6397(8) 0.2182(5)
C103? C 0.3740(15) 0.7046(9) 0.2037(6)
C104? C 0.2432(18) 0.7294(7) 0.1972(7)
C105? C -0.0026(17) 0.6382(7) 0.0418(6)
C106? C 0.1038(18) 0.6557(8) 0.0141(5)
C107? C 0.1489(19) 0.7184(9) 0.0260(6)
C108? C 0.070(2) 0.7396(7) 0.0611(5)
C109? C -0.0233(16) 0.6900(9) 0.0708(5)
C110? C 0.549(2) 0.5341(7) 0.0714(7)
C111? C 0.522(2) 0.5759(10) 0.0365(5)
C112? C 0.5682(19) 0.6387(8) 0.0474(6)
C113? C 0.6242(17) 0.6357(8) 0.0889(6)
C114? C 0.6121(18) 0.5711(10) 0.1038(5)
C115? C 0.133(2) 0.7765(12) 0.0933(7)
C116? C 0.098(2) 0.7606(18) 0.1359(9)
C117? C 0.214(3) 0.7673(19) 0.1615(6)
C118? C 0.321(2) 0.7873(13) 0.1347(8)
C119? C 0.270(2) 0.7930(11) 0.0925(6)
C120? C 0.4079(13) 0.5697(9) 0.0118(6)
C121? C 0.3334(19) 0.6249(7) -0.0010(5)
C122? C 0.1955(16) 0.6084(8) 0.0004(5)
C123? C 0.1849(14) 0.5431(8) 0.0140(6)
C124? C 0.3162(17) 0.5191(7) 0.0211(6)
C125? C 0.459(2) 0.486(2) 0.0822(9)
C126? C 0.4279(19) 0.4705(13) 0.1252(7)
C127? C 0.2898(19) 0.4547(9) 0.1273(6)
C128? C 0.2359(18) 0.4603(12) 0.0855(7)
C129? C 0.341(3) 0.480(2) 0.0577(6)
C130? C -0.0551(18) 0.6742(8) 0.1156(5)
C131? C -0.0663(16) 0.6093(7) 0.1302(6)
C132? C -0.0139(18) 0.6064(7) 0.1722(5)
C133? C 0.0298(18) 0.6695(8) 0.1837(5)
C134? C 0.004(2) 0.7114(6) 0.1487(6)
loop_
_geom_bond_atom_site_label_1
_geom_bond_atom_site_label_2
_geom_bond_site_symmetry_1
_geom_bond_site_symmetry_2
C1 C2 1_555 1_555
C2 C3 1_555 1_555
C3 C4 1_555 1_555
C4 C5 1_555 1_555
C5 C6 1_555 1_555
C6 C9 1_555 1_555
C7 C1 1_555 1_555
C8 C7 1_555 1_555
C9 C8 1_555 1_555
C10 C9 1_555 1_555
C11 C10 1_555 1_555
C12 C11 1_555 1_555
C13 C10 1_555 1_555
C14 C13 1_555 1_555
C15 C9 1_555 1_555
C16 C13 1_555 1_555
C17 C16 1_555 1_555
C18 C11 1_555 1_555
C19 C18 1_555 1_555
C20 C19 1_555 1_555
C21 C20 1_555 1_555
C22 C17 1_555 1_555
C23 C16 1_555 1_555
C24 C23 1_555 1_555
C25 C22 1_555 1_555
C26 C25 1_555 1_555
C27 C26 1_555 1_555
C28 C24 1_555 1_555
C29 C28 1_555 1_555
C30 C29 1_555 1_555
C31 C30 1_555 1_555
C32 C31 1_555 1_555
C33 C32 1_555 1_555
C34 C29 1_555 1_555
C35 C34 1_555 1_555
C36 C33 1_555 1_555
C37 C32 1_555 1_555
C38 C37 1_555 1_555
C39 C15 1_555 1_555
C40 C8 1_555 1_555
C41 C42 1_555 1_555
C42 C40 1_555 1_555
C43 C37 1_555 1_555
C44 C45 1_555 1_555
C45 C20 1_555 1_555
C46 C45 1_555 1_555
C47 C21 1_555 1_555
C48 C26 1_555 1_555
C49 C48 1_555 1_555
C50 C49 1_555 1_555
C51 C50 1_555 1_555
C52 C14 1_555 1_555
C53 C12 1_555 1_555
C54 C44 1_555 1_555
C55 C41 1_555 1_555
C56 C55 1_555 1_555
C57 C56 1_555 1_555
C58 C44 1_555 1_555
C59 C58 1_555 1_555
C60 C57 1_555 1_555
C61 C51 1_555 1_555
C62 C36 1_555 1_555
C63 C42 1_555 1_555
C64 C27 1_555 1_555
C65 C46 1_555 1_555
C66 C35 1_555 1_555
C67 C8 1_555 1_555
F1 C1 1_555 1_555
F2 C2 1_555 1_555
F3 C3 1_555 1_555
F4 C4 1_555 1_555
F5 C6 1_555 1_555
F6 C6 1_555 1_555
C5 C7 1_555 1_555
C12 C67 1_555 1_555
C14 C15 1_555 1_555
C17 C18 1_555 1_555
C19 C53 1_555 1_555
C21 C22 1_555 1_555
C23 C25 1_555 1_555
C24 C52 1_555 1_555
C27 C28 1_555 1_555
C30 C52 1_555 1_555
C31 C39 1_555 1_555
C33 C34 1_555 1_555
C35 C64 1_555 1_555
C36 C66 1_555 1_555
C38 C39 1_555 1_555
C38 C40 1_555 1_555
C41 C67 1_555 1_555
C43 C62 1_555 1_555
C43 C63 1_555 1_555
C46 C47 1_555 1_555
C47 C48 1_555 1_555
C49 C64 1_555 1_555
C50 C65 1_555 1_555
C51 C66 1_555 1_555
C53 C54 1_555 1_555
C54 C55 1_555 1_555
C56 C58 1_555 1_555
C57 C63 1_555 1_555
C59 C61 1_555 1_555
C59 C65 1_555 1_555
C60 C61 1_555 1_555
C60 C62 1_555 1_555

#END
