
#######################################################################
#
#                 Cambridge Crystallographic Data Centre
#                                CCDC 
#
#######################################################################
#
# If this CIF has been generated from an entry in the Cambridge 
# Structural Database, then it will include bibliographic, chemical, 
# crystal, experimental, refinement or atomic coordinate data resulting 
# from the CCDC's data processing and validation procedures.
#
#######################################################################

data_GUYHOY
_chemical_formula_moiety         'C56 H58 N6 O14 Si10'
_chemical_name_systematic        
trans-9,19-bis(3-azidopropyl)-9,19-dimethyl-1,3,5,7,11,13,15,17-octaphenylpentacyclo(11.7.1.1^3,11^.1^5,17^.1^7,15^)decasiloxane
_symmetry_cell_setting           triclinic
_symmetry_space_group_name_H-M   'P -1'
_symmetry_Int_Tables_number      2
_space_group_name_Hall           '-P 1'
loop_
_symmetry_equiv_pos_site_id
_symmetry_equiv_pos_as_xyz
1 x,y,z
2 -x,-y,-z
_cell_length_a                   9.9231(2)
_cell_length_b                   13.2854(3)
_cell_length_c                   13.9868(7)
_cell_angle_alpha                68.2520(13)
_cell_angle_beta                 71.0568(13)
_cell_angle_gamma                68.8461(13)
_cell_volume                     1557.98
_exptl_crystal_colour            colorless
_exptl_crystal_description       block
_cell_formula_units_Z            1
_exptl_crystal_recrystallization_method THF/methanol
loop_
_atom_site_label
_atom_site_type_symbol
_atom_site_fract_x
_atom_site_fract_y
_atom_site_fract_z
Si1 Si 0.79575(11) 0.44359(9) 0.33730(8)
Si2 Si 0.68253(12) 0.29059(9) 0.55764(8)
Si3 Si 0.42090(11) 0.29336(9) 0.47778(8)
Si4 Si 0.46552(11) 0.52397(9) 0.31787(8)
O1 O 0.7811(4) 0.3507(3) 0.4499(2)
O2 O 0.6443(3) 0.4869(3) 0.2986(2)
O3 O 0.5594(4) 0.2599(3) 0.5296(3)
O4 O 0.5977(3) 0.3732(2) 0.6309(2)
O5 O 0.4025(3) 0.4194(2) 0.3987(2)
O6 O 0.2747(4) 0.2879(3) 0.5699(3)
C1 C 0.9461(4) 0.3808(3) 0.2399(3)
C2 C 1.0855(5) 0.3200(4) 0.2619(3)
H1 H 1.1016 0.3089 0.3288
C3 C 1.2008(5) 0.2755(4) 0.1882(4)
H2 H 1.2952 0.2347 0.2045
C4 C 1.1774(5) 0.2910(4) 0.0902(4)
H3 H 1.2561 0.2605 0.0395
C5 C 1.0411(5) 0.3500(4) 0.0666(4)
H4 H 1.0256 0.3605 -0.0004
C6 C 0.9247(5) 0.3948(3) 0.1417(3)
H5 H 0.8303 0.4350 0.1254
C7 C 0.8028(5) 0.1597(3) 0.6270(3)
C8 C 0.9427(5) 0.1077(4) 0.5759(4)
H6 H 0.9796 0.1422 0.5037
C9 C 1.0291(5) 0.0066(4) 0.6283(4)
H7 H 1.1250 -0.0263 0.5923
C10 C 0.9769(6) -0.0459(4) 0.7313(4)
H8 H 1.0347 -0.1166 0.7662
C11 C 0.8402(6) 0.0040(4) 0.7845(4)
H9 H 0.8047 -0.0316 0.8567
C12 C 0.7540(5) 0.1061(4) 0.7332(4)
H10 H 0.6603 0.1401 0.7711
C13 C 0.4521(4) 0.1907(3) 0.4076(3)
C14 C 0.5750(5) 0.1768(4) 0.3237(3)
H11 H 0.6406 0.2225 0.3012
C15 C 0.6018(5) 0.0966(4) 0.2729(4)
H12 H 0.6857 0.0874 0.2165
C16 C 0.5055(6) 0.0304(4) 0.3051(4)
H13 H 0.5239 -0.0244 0.2707
C17 C 0.3833(5) 0.0438(4) 0.3867(4)
H14 H 0.3172 -0.0013 0.4080
C18 C 0.3571(5) 0.1234(3) 0.4377(3)
H15 H 0.2730 0.1319 0.4941
C19 C 0.4130(5) 0.5678(4) 0.1908(3)
C20 C 0.4475(5) 0.6624(4) 0.1112(4)
H16 H 0.4977 0.7037 0.1237
C21 C 0.4098(6) 0.6969(5) 0.0144(4)
H17 H 0.4343 0.7612 -0.0386
C22 C 0.3364(6) 0.6376(5) -0.0051(4)
H18 H 0.3101 0.6612 -0.0711
C23 C 0.3019(6) 0.5443(5) 0.0722(4)
H19 H 0.2522 0.5033 0.0591
C24 C 0.3391(6) 0.5095(4) 0.1693(4)
H20 H 0.3140 0.4451 0.2218
O7 O 0.8311(4) 0.5446(3) 0.3501(3)
Si5 Si 0.14022(14) 0.34608(11) 0.64951(10)
C25 C -0.0335(9) 0.3740(8) 0.6131(8)
H21 H -0.0206 0.4048 0.5363
H22 H -0.0616 0.3037 0.6365
H23 H -0.1114 0.4286 0.6470
C26 C 0.1419(9) 0.2493(8) 0.7869(6)
H24 H 0.1187 0.1806 0.7927
H25 H 0.0625 0.2870 0.8370
C27 C 0.2887(14) 0.2147(10) 0.8195(9)
H28 H 0.2968 0.2769 0.8337
H29 H 0.3674 0.1993 0.7602
C28 C 0.3100(15) 0.1104(11) 0.9151(9)
H30 H 0.3167 0.0468 0.8971
H31 H 0.2258 0.1225 0.9712
N1 N 0.4401(7) 0.0911(5) 0.9507(5)
Si1A Si 0.20425(11) 0.55641(9) 0.66270(8)
Si2A Si 0.31747(12) 0.70941(9) 0.44236(8)
Si3A Si 0.57910(11) 0.70664(9) 0.52222(8)
Si4A Si 0.53448(11) 0.47603(9) 0.68213(8)
O1A O 0.2189(4) 0.6493(3) 0.5501(2)
O2A O 0.3557(3) 0.5131(3) 0.7014(2)
O3A O 0.4406(4) 0.7401(3) 0.4704(3)
O4A O 0.4023(3) 0.6268(2) 0.3691(2)
O5A O 0.5975(3) 0.5806(2) 0.6013(2)
O6A O 0.7253(4) 0.7121(3) 0.4301(3)
C1A C 0.0539(4) 0.6192(3) 0.7601(3)
C2A C -0.0855(5) 0.6800(4) 0.7381(3)
H1A H -0.1016 0.6911 0.6712
C3A C -0.2008(5) 0.7245(4) 0.8118(4)
H2A H -0.2952 0.7653 0.7955
C4A C -0.1774(5) 0.7090(4) 0.9098(4)
H3A H -0.2561 0.7395 0.9605
C5A C -0.0411(5) 0.6500(4) 0.9334(4)
H4A H -0.0256 0.6395 1.0004
C6A C 0.0753(5) 0.6052(3) 0.8583(3)
H5A H 0.1697 0.5650 0.8746
C7A C 0.1972(5) 0.8403(3) 0.3730(3)
C8A C 0.0573(5) 0.8923(4) 0.4241(4)
H6A H 0.0204 0.8578 0.4963
C9A C -0.0291(5) 0.9934(4) 0.3717(4)
H7A H -0.1250 1.0263 0.4077
C10A C 0.0231(6) 1.0459(4) 0.2687(4)
H8A H -0.0347 1.1166 0.2338
C11A C 0.1598(6) 0.9960(4) 0.2155(4)
H9A H 0.1953 1.0316 0.1433
C12A C 0.2460(5) 0.8939(4) 0.2668(4)
H10A H 0.3397 0.8599 0.2289
C13A C 0.5479(4) 0.8093(3) 0.5924(3)
C14A C 0.4250(5) 0.8232(4) 0.6763(3)
H11A H 0.3594 0.7775 0.6988
C15A C 0.3982(5) 0.9034(4) 0.7271(4)
H12A H 0.3143 0.9126 0.7835
C16A C 0.4945(6) 0.9696(4) 0.6949(4)
H13A H 0.4761 1.0244 0.7293
C17A C 0.6167(5) 0.9562(4) 0.6133(4)
H14A H 0.6828 1.0013 0.5920
C18A C 0.6429(5) 0.8766(3) 0.5623(3)
H15A H 0.7270 0.8681 0.5059
C19A C 0.5870(5) 0.4322(4) 0.8092(3)
C20A C 0.5525(5) 0.3376(4) 0.8888(4)
H16A H 0.5023 0.2963 0.8763
C21A C 0.5902(6) 0.3031(5) 0.9856(4)
H17A H 0.5657 0.2388 1.0386
C22A C 0.6636(6) 0.3624(5) 1.0051(4)
H18A H 0.6899 0.3388 1.0711
C23A C 0.6981(6) 0.4557(5) 0.9278(4)
H19A H 0.7478 0.4967 0.9409
C24A C 0.6609(6) 0.4905(4) 0.8307(4)
H20A H 0.6860 0.5549 0.7782
O7A O 0.1689(4) 0.4554(3) 0.6499(3)
Si5A Si 0.85978(14) 0.65392(11) 0.35049(10)
C25A C 1.0335(9) 0.6260(8) 0.3869(8)
H21A H 1.0206 0.5952 0.4637
H22A H 1.0616 0.6963 0.3635
H23A H 1.1114 0.5714 0.3530
C26A C 0.8581(9) 0.7507(8) 0.2131(6)
H24A H 0.8813 0.8194 0.2073
H25A H 0.9375 0.7130 0.1630
C27A C 0.7113(14) 0.7853(10) 0.1805(9)
H28A H 0.7032 0.7231 0.1663
H29A H 0.6326 0.8007 0.2398
C28A C 0.6900(15) 0.8896(11) 0.0849(9)
H30A H 0.6833 0.9532 0.1029
H31A H 0.7742 0.8775 0.0288
N1A N 0.5599(7) 0.9089(5) 0.0493(5)
H26? H 0.1288 0.2940 0.8340
H27? H 0.2402 0.1934 0.7870
N2? N 0.5000 1.0000 0.0000
C29? C 0.0245(19) 0.1877(15) 0.8311(11)
H32? H 0.0533 0.1264 0.8002
H33? H -0.0680 0.2359 0.8151
C30? C 0.010(2) 0.1406(14) 0.9492(11)
H34? H 1.0522 0.7995 0.0220
H35? H 0.1087 0.1239 0.9599
N3? N -0.0690(18) 0.0557(11) 1.0037(14)
N4? N 0.017(2) -0.0296(11) 0.9760(14)
N5? N 0.0754(17) -0.1257(11) 0.9656(11)
loop_
_geom_bond_atom_site_label_1
_geom_bond_atom_site_label_2
_geom_bond_site_symmetry_1
_geom_bond_site_symmetry_2
Si1 O1 1_555 1_555
Si2 O1 1_555 1_555
Si3 O3 1_555 1_555
Si4 O2 1_555 1_555
O2 Si1 1_555 1_555
O3 Si2 1_555 1_555
O4 Si2 1_555 1_555
O5 Si3 1_555 1_555
O6 Si3 1_555 1_555
C1 Si1 1_555 1_555
C2 C1 1_555 1_555
H1 C2 1_555 1_555
C3 C2 1_555 1_555
H2 C3 1_555 1_555
C4 C3 1_555 1_555
H3 C4 1_555 1_555
C5 C4 1_555 1_555
H4 C5 1_555 1_555
C6 C1 1_555 1_555
H5 C6 1_555 1_555
C7 Si2 1_555 1_555
C8 C7 1_555 1_555
H6 C8 1_555 1_555
C9 C8 1_555 1_555
H7 C9 1_555 1_555
C10 C9 1_555 1_555
H8 C10 1_555 1_555
C11 C10 1_555 1_555
H9 C11 1_555 1_555
C12 C7 1_555 1_555
H10 C12 1_555 1_555
C13 Si3 1_555 1_555
C14 C13 1_555 1_555
H11 C14 1_555 1_555
C15 C14 1_555 1_555
H12 C15 1_555 1_555
C16 C15 1_555 1_555
H13 C16 1_555 1_555
C17 C16 1_555 1_555
H14 C17 1_555 1_555
C18 C13 1_555 1_555
H15 C18 1_555 1_555
C19 Si4 1_555 1_555
C20 C19 1_555 1_555
H16 C20 1_555 1_555
C21 C20 1_555 1_555
H17 C21 1_555 1_555
C22 C21 1_555 1_555
H18 C22 1_555 1_555
C23 C22 1_555 1_555
H19 C23 1_555 1_555
C24 C19 1_555 1_555
H20 C24 1_555 1_555
O7 Si1 1_555 1_555
Si5 O6 1_555 1_555
C25 Si5 1_555 1_555
H21 C25 1_555 1_555
H22 C25 1_555 1_555
H23 C25 1_555 1_555
C26 Si5 1_555 1_555
H24 C26 1_555 1_555
H25 C26 1_555 1_555
C27 C26 1_555 1_555
H28 C27 1_555 1_555
H29 C27 1_555 1_555
C28 C27 1_555 1_555
H30 C28 1_555 1_555
H31 C28 1_555 1_555
N1 C28 1_555 1_555
Si1A O1A 1_555 1_555
Si2A O1A 1_555 1_555
Si3A O3A 1_555 1_555
Si4A O4 1_555 1_555
O2A Si1A 1_555 1_555
O3A Si2A 1_555 1_555
O4A Si4 1_555 1_555
O5A Si3A 1_555 1_555
O6A Si3A 1_555 1_555
C1A Si1A 1_555 1_555
C2A C1A 1_555 1_555
H1A C2A 1_555 1_555
C3A C2A 1_555 1_555
H2A C3A 1_555 1_555
C4A C3A 1_555 1_555
H3A C4A 1_555 1_555
C5A C4A 1_555 1_555
H4A C5A 1_555 1_555
C6A C1A 1_555 1_555
H5A C6A 1_555 1_555
C7A Si2A 1_555 1_555
C8A C7A 1_555 1_555
H6A C8A 1_555 1_555
C9A C8A 1_555 1_555
H7A C9A 1_555 1_555
C10A C9A 1_555 1_555
H8A C10A 1_555 1_555
C11A C10A 1_555 1_555
H9A C11A 1_555 1_555
C12A C7A 1_555 1_555
H10A C12A 1_555 1_555
C13A Si3A 1_555 1_555
C14A C13A 1_555 1_555
H11A C14A 1_555 1_555
C15A C14A 1_555 1_555
H12A C15A 1_555 1_555
C16A C15A 1_555 1_555
H13A C16A 1_555 1_555
C17A C16A 1_555 1_555
H14A C17A 1_555 1_555
C18A C13A 1_555 1_555
H15A C18A 1_555 1_555
C19A Si4A 1_555 1_555
C20A C19A 1_555 1_555
H16A C20A 1_555 1_555
C21A C20A 1_555 1_555
H17A C21A 1_555 1_555
C22A C21A 1_555 1_555
H18A C22A 1_555 1_555
C23A C22A 1_555 1_555
H19A C23A 1_555 1_555
C24A C19A 1_555 1_555
H20A C24A 1_555 1_555
O7A Si5 1_555 1_555
Si5A O7 1_555 1_555
C25A Si5A 1_555 1_555
H21A C25A 1_555 1_555
H22A C25A 1_555 1_555
H23A C25A 1_555 1_555
C26A Si5A 1_555 1_555
H24A C26A 1_555 1_555
H25A C26A 1_555 1_555
C27A C26A 1_555 1_555
H28A C27A 1_555 1_555
H29A C27A 1_555 1_555
C28A C27A 1_555 1_555
H30A C28A 1_555 1_555
H31A C28A 1_555 1_555
N1A C28A 1_555 1_555
Si4 O5 1_555 1_555
C5 C6 1_555 1_555
C11 C12 1_555 1_555
C17 C18 1_555 1_555
C23 C24 1_555 1_555
Si1A O7A 1_555 1_555
Si2A O4A 1_555 1_555
Si4A O2A 1_555 1_555
Si4A O5A 1_555 1_555
O6A Si5A 1_555 1_555
C5A C6A 1_555 1_555
C11A C12A 1_555 1_555
C17A C18A 1_555 1_555
C23A C24A 1_555 1_555

#END
