
#######################################################################
#
#                 Cambridge Crystallographic Data Centre
#                                CCDC 
#
#######################################################################
#
# If this CIF has been generated from an entry in the Cambridge 
# Structural Database, then it will include bibliographic, chemical, 
# crystal, experimental, refinement or atomic coordinate data resulting 
# from the CCDC's data processing and validation procedures.
#
#######################################################################

data_GUYPEW
_chemical_name_common            3,6-Diphenyl-1,2-di-(2,3)-naphthopentalene
_chemical_formula_moiety         'C36 H22'
_chemical_name_systematic        
6,13-Diphenylnaphtho[2',3':4,5]pentaleno[1,2-b]naphthalene
_symmetry_cell_setting           monoclinic
_symmetry_space_group_name_H-M   'P 21/c'
_symmetry_Int_Tables_number      14
_space_group_name_Hall           '-P 2ybc'
loop_
_symmetry_equiv_pos_site_id
_symmetry_equiv_pos_as_xyz
1 x,y,z
2 -x,1/2+y,1/2-z
3 -x,-y,-z
4 x,1/2-y,1/2+z
_cell_length_a                   21.1917(7)
_cell_length_b                   9.8843(3)
_cell_length_c                   22.7413(9)
_cell_angle_alpha                90
_cell_angle_beta                 101.744(1)
_cell_angle_gamma                90
_cell_volume                     4663.79
_exptl_crystal_colour            red
_exptl_crystal_description       block
_chemical_melting_point          'above 300 deg.C'
_cell_formula_units_Z            8
_exptl_crystal_recrystallization_method hexane
loop_
_atom_site_label
_atom_site_type_symbol
_atom_site_fract_x
_atom_site_fract_y
_atom_site_fract_z
C1 C 0.2642(1) 0.6198(2) 0.2210(1)
C2 C 0.3157(1) 0.7045(2) 0.2280(1)
C3 C 0.3188(1) 0.7767(2) 0.2859(1)
C4 C 0.3620(1) 0.8696(2) 0.3146(1)
C5 C 0.3573(1) 0.9162(2) 0.3729(1)
C6 C 0.4009(1) 1.0121(3) 0.4037(1)
C7 C 0.3976(1) 1.0532(3) 0.4603(1)
C8 C 0.3511(1) 1.0003(3) 0.4891(1)
C9 C 0.3070(1) 0.9086(2) 0.4605(1)
C10 C 0.3085(1) 0.8638(2) 0.4016(1)
C11 C 0.2634(1) 0.7681(2) 0.3704(1)
C12 C 0.2681(1) 0.7271(2) 0.3137(1)
C13 C 0.2317(1) 0.6289(2) 0.2711(1)
C14 C 0.1805(1) 0.5445(2) 0.2648(1)
C15 C 0.1773(1) 0.4709(2) 0.2071(1)
C16 C 0.1357(1) 0.3754(2) 0.1796(1)
C17 C 0.1414(1) 0.3236(2) 0.1223(1)
C18 C 0.0987(1) 0.2224(2) 0.0933(1)
C19 C 0.1041(1) 0.1726(2) 0.0384(1)
C20 C 0.1523(1) 0.2224(2) 0.0099(1)
C21 C 0.1936(1) 0.3205(2) 0.0366(1)
C22 C 0.1896(1) 0.3742(2) 0.0932(1)
C23 C 0.2335(1) 0.4742(2) 0.1230(1)
C24 C 0.2284(1) 0.5198(2) 0.1788(1)
C25 C 0.3640(1) 0.7181(2) 0.1895(1)
C26 C 0.3863(1) 0.8449(2) 0.1766(1)
C27 C 0.4326(1) 0.8575(2) 0.1421(1)
C28 C 0.4570(1) 0.7446(2) 0.1192(1)
C29 C 0.4353(1) 0.6173(2) 0.1312(1)
C30 C 0.3889(1) 0.6042(2) 0.1659(1)
C31 C 0.1341(1) 0.5303(2) 0.3049(1)
C32 C 0.1125(1) 0.4042(2) 0.3187(1)
C33 C 0.0685(1) 0.3914(2) 0.3555(1)
C34 C 0.0442(1) 0.5044(2) 0.3786(1)
C35 C 0.0647(1) 0.6319(2) 0.3650(1)
C36 C 0.1090(1) 0.6450(2) 0.3283(1)
H1 H 0.3950 0.9037 0.2955
H2 H 0.4331 1.0508 0.3841
H3 H 0.4286 1.1181 0.4805
H4 H 0.3494 1.0285 0.5290
H5 H 0.2745 0.8736 0.4801
H6 H 0.2302 0.7326 0.3887
H7 H 0.1020 0.3425 0.1988
H8 H 0.0660 0.1873 0.1130
H9 H 0.0751 0.1038 0.0196
H10 H 0.1561 0.1875 -0.0281
H11 H 0.2261 0.3536 0.0166
H12 H 0.2660 0.5103 0.1041
H13 H 0.3697 0.9243 0.1923
H14 H 0.4472 0.9455 0.1337
H15 H 0.4894 0.7546 0.0954
H16 H 0.4522 0.5385 0.1147
H17 H 0.3739 0.5162 0.1750
H18 H 0.1284 0.3251 0.3022
H19 H 0.0547 0.3035 0.3651
H20 H 0.0131 0.4942 0.4039
H21 H 0.0485 0.7108 0.3815
H22 H 0.1222 0.7327 0.3174
C37 C 0.2668(1) 0.1216(2) 0.2277(1)
C38 C 0.3208(1) 0.1988(2) 0.2360(1)
C39 C 0.3248(1) 0.2705(2) 0.2940(1)
C40 C 0.3682(1) 0.3655(2) 0.3209(1)
C41 C 0.3619(1) 0.4220(2) 0.3771(1)
C42 C 0.4059(1) 0.5190(3) 0.4065(1)
C43 C 0.3995(1) 0.5728(2) 0.4604(1)
C44 C 0.3494(1) 0.5326(2) 0.4875(1)
C45 C 0.3052(1) 0.4388(2) 0.4601(1)
C46 C 0.3098(1) 0.3808(2) 0.4044(1)
C47 C 0.2651(1) 0.2828(2) 0.3748(1)
C48 C 0.2724(1) 0.2293(2) 0.3210(1)
C49 C 0.2344(1) 0.1326(2) 0.2781(1)
C50 C 0.1798(1) 0.0555(2) 0.2695(1)
C51 C 0.1756(1) -0.0153(2) 0.2112(1)
C52 C 0.1326(1) -0.1088(2) 0.1834(1)
C53 C 0.1381(1) -0.1612(2) 0.1261(1)
C54 C 0.0920(1) -0.2521(3) 0.0946(1)
C55 C 0.0958(1) -0.2970(3) 0.0387(1)
C56 C 0.1464(1) -0.2543(3) 0.0119(1)
C57 C 0.1922(1) -0.1673(2) 0.0416(1)
C58 C 0.1891(1) -0.1174(2) 0.0989(1)
C59 C 0.2353(1) -0.0237(2) 0.1298(1)
C60 C 0.2289(1) 0.0262(2) 0.1848(1)
C61 C 0.3692(1) 0.2111(2) 0.1978(1)
C62 C 0.3509(1) 0.2222(2) 0.1352(1)
C63 C 0.3966(1) 0.2349(2) 0.0998(1)
C64 C 0.4614(1) 0.2381(2) 0.1263(1)
C65 C 0.4803(1) 0.2246(2) 0.1877(1)
C66 C 0.4349(1) 0.2115(2) 0.2233(1)
C67 C 0.1313(1) 0.0425(2) 0.3072(1)
C68 C 0.1483(1) 0.0310(2) 0.3696(1)
C69 C 0.1014(1) 0.0161(2) 0.4037(1)
C70 C 0.0369(1) 0.0132(2) 0.3761(1)
C71 C 0.0193(1) 0.0283(2) 0.3147(1)
C72 C 0.0659(1) 0.0426(2) 0.2805(1)
H23 H 0.4023 0.3942 0.3020
H24 H 0.4403 0.5482 0.3879
H25 H 0.4301 0.6383 0.4794
H26 H 0.3459 0.5709 0.5251
H27 H 0.2702 0.4133 0.4792
H28 H 0.2298 0.2547 0.3920
H29 H 0.0984 -0.1385 0.2022
H30 H 0.0577 -0.2829 0.1127
H31 H 0.0638 -0.3577 0.0176
H32 H 0.1486 -0.2857 -0.0276
H33 H 0.2276 -0.1407 0.0233
H34 H 0.2707 0.0046 0.1126
H35 H 0.3060 0.2210 0.1168
H36 H 0.3835 0.2415 0.0570
H37 H 0.4930 0.2502 0.1018
H38 H 0.5252 0.2265 0.2058
H39 H 0.4486 0.2012 0.2661
H40 H 0.1931 0.0330 0.3888
H41 H 0.1137 0.0078 0.4467
H42 H 0.0045 0.0010 0.3997
H43 H -0.0254 0.0274 0.2959
H44 H 0.0531 0.0528 0.2375
loop_
_geom_bond_atom_site_label_1
_geom_bond_atom_site_label_2
_geom_bond_site_symmetry_1
_geom_bond_site_symmetry_2
C1 C2 1_555 1_555
C2 C3 1_555 1_555
C3 C4 1_555 1_555
C4 C5 1_555 1_555
C5 C6 1_555 1_555
C6 C7 1_555 1_555
C7 C8 1_555 1_555
C8 C9 1_555 1_555
C9 C10 1_555 1_555
C10 C5 1_555 1_555
C11 C10 1_555 1_555
C12 C3 1_555 1_555
C13 C1 1_555 1_555
C14 C13 1_555 1_555
C15 C14 1_555 1_555
C16 C15 1_555 1_555
C17 C16 1_555 1_555
C18 C17 1_555 1_555
C19 C18 1_555 1_555
C20 C19 1_555 1_555
C21 C20 1_555 1_555
C22 C17 1_555 1_555
C23 C22 1_555 1_555
C24 C1 1_555 1_555
C25 C2 1_555 1_555
C26 C25 1_555 1_555
C27 C26 1_555 1_555
C28 C27 1_555 1_555
C29 C28 1_555 1_555
C30 C25 1_555 1_555
C31 C14 1_555 1_555
C32 C31 1_555 1_555
C33 C32 1_555 1_555
C34 C33 1_555 1_555
C35 C34 1_555 1_555
C36 C31 1_555 1_555
C37 C38 1_555 1_555
C38 C39 1_555 1_555
C39 C40 1_555 1_555
C40 C41 1_555 1_555
C41 C42 1_555 1_555
C42 C43 1_555 1_555
C43 C44 1_555 1_555
C44 C45 1_555 1_555
C45 C46 1_555 1_555
C46 C41 1_555 1_555
C47 C46 1_555 1_555
C48 C39 1_555 1_555
C49 C37 1_555 1_555
C50 C49 1_555 1_555
C51 C50 1_555 1_555
C52 C51 1_555 1_555
C53 C52 1_555 1_555
C54 C53 1_555 1_555
C55 C54 1_555 1_555
C56 C55 1_555 1_555
C57 C56 1_555 1_555
C58 C53 1_555 1_555
C59 C58 1_555 1_555
C60 C37 1_555 1_555
C61 C38 1_555 1_555
C62 C61 1_555 1_555
C63 C62 1_555 1_555
C64 C63 1_555 1_555
C65 C64 1_555 1_555
C66 C61 1_555 1_555
C67 C50 1_555 1_555
C68 C67 1_555 1_555
C69 C68 1_555 1_555
C70 C69 1_555 1_555
C71 C70 1_555 1_555
C72 C67 1_555 1_555
H1 C4 1_555 1_555
H2 C6 1_555 1_555
H3 C7 1_555 1_555
H4 C8 1_555 1_555
H5 C9 1_555 1_555
H6 C11 1_555 1_555
H7 C16 1_555 1_555
H8 C18 1_555 1_555
H9 C19 1_555 1_555
H10 C20 1_555 1_555
H11 C21 1_555 1_555
H12 C23 1_555 1_555
H13 C26 1_555 1_555
H14 C27 1_555 1_555
H15 C28 1_555 1_555
H16 C29 1_555 1_555
H17 C30 1_555 1_555
H18 C32 1_555 1_555
H19 C33 1_555 1_555
H20 C34 1_555 1_555
H21 C35 1_555 1_555
H22 C36 1_555 1_555
H23 C40 1_555 1_555
H24 C42 1_555 1_555
H25 C43 1_555 1_555
H26 C44 1_555 1_555
H27 C45 1_555 1_555
H28 C47 1_555 1_555
H29 C52 1_555 1_555
H30 C54 1_555 1_555
H31 C55 1_555 1_555
H32 C56 1_555 1_555
H33 C57 1_555 1_555
H34 C59 1_555 1_555
H35 C62 1_555 1_555
H36 C63 1_555 1_555
H37 C64 1_555 1_555
H38 C65 1_555 1_555
H39 C66 1_555 1_555
H40 C68 1_555 1_555
H41 C69 1_555 1_555
H42 C70 1_555 1_555
H43 C71 1_555 1_555
H44 C72 1_555 1_555
C11 C12 1_555 1_555
C12 C13 1_555 1_555
C15 C24 1_555 1_555
C21 C22 1_555 1_555
C23 C24 1_555 1_555
C29 C30 1_555 1_555
C35 C36 1_555 1_555
C47 C48 1_555 1_555
C48 C49 1_555 1_555
C51 C60 1_555 1_555
C57 C58 1_555 1_555
C59 C60 1_555 1_555
C65 C66 1_555 1_555
C71 C72 1_555 1_555

#END
