
#######################################################################
#
#                 Cambridge Crystallographic Data Centre
#                                CCDC 
#
#######################################################################
#
# If this CIF has been generated from an entry in the Cambridge 
# Structural Database, then it will include bibliographic, chemical, 
# crystal, experimental, refinement or atomic coordinate data resulting 
# from the CCDC's data processing and validation procedures.
#
#######################################################################

data_GUYSID
_chemical_formula_moiety         'C6 H12 S1 Te1 2+,2(C1 F3 O3 S1 1-)'
_chemical_name_systematic        
'5-Thioniatelluroniabicyclo[3.3.0]octane bis(trifluoromethanesulfonate)'
_symmetry_cell_setting           monoclinic
_symmetry_space_group_name_H-M   'P 21/n'
_symmetry_Int_Tables_number      14
_space_group_name_Hall           '-P 2yn'
loop_
_symmetry_equiv_pos_site_id
_symmetry_equiv_pos_as_xyz
1 x,y,z
2 1/2-x,1/2+y,1/2-z
3 -x,-y,-z
4 1/2+x,1/2-y,1/2+z
_cell_length_a                   10.5080(4)
_cell_length_b                   10.2087(4)
_cell_length_c                   16.4276(7)
_cell_angle_alpha                90
_cell_angle_beta                 103.5000(10)
_cell_angle_gamma                90
_cell_volume                     1713.55
_exptl_crystal_colour            colorless
_exptl_crystal_description       plate
_chemical_melting_point          152-154deg.C(dec)
_cell_formula_units_Z            4
loop_
_atom_site_label
_atom_site_type_symbol
_atom_site_fract_x
_atom_site_fract_y
_atom_site_fract_z
Te1 Te 0.05002(2) 0.35667(2) 0.100275(14)
S1 S 0.11630(10) 0.13579(8) 0.05563(6)
C1 C -0.0171(4) 0.2474(4) 0.1931(2)
H1 H -0.002(5) 0.297(5) 0.235(3)
H2 H -0.107(4) 0.233(4) 0.166(3)
C2 C 0.0589(4) 0.1197(4) 0.2119(2)
H3 H 0.020(4) 0.069(4) 0.249(3)
H4 H 0.142(5) 0.134(4) 0.242(3)
C3 C 0.0574(4) 0.0403(4) 0.1338(2)
H5 H -0.027(4) 0.014(4) 0.107(3)
H6 H 0.110(5) -0.030(5) 0.141(3)
C4 C 0.2927(4) 0.1515(4) 0.1025(3)
H7 H 0.309(5) 0.104(5) 0.154(3)
H8 H 0.338(6) 0.112(6) 0.066(4)
C5 C 0.3308(4) 0.2945(4) 0.1116(3)
H9 H 0.424(5) 0.305(5) 0.138(3)
H10 H 0.323(5) 0.326(5) 0.059(3)
C6 C 0.2514(4) 0.3693(4) 0.1629(3)
H11 H 0.264(6) 0.333(5) 0.219(4)
H12 H 0.261(5) 0.459(5) 0.162(3)
S2 S 0.25686(9) 0.75769(10) 0.05832(6)
O1 O 0.1735(3) 0.8357(3) -0.0052(2)
O2 O 0.3066(3) 0.8246(3) 0.13602(19)
O3 O 0.2074(4) 0.6290(3) 0.0651(3)
C7 C 0.4001(5) 0.7277(6) 0.0178(3)
F1 F 0.4404(10) 0.8633(9) 0.0015(7)
F2 F 0.5013(9) 0.6815(11) 0.0598(7)
F3 F 0.3547(12) 0.6779(14) -0.0625(6)
S3 S -0.05828(9) 0.64715(8) 0.16244(6)
O4 O -0.0024(3) 0.7686(3) 0.1962(2)
O5 O 0.0302(3) 0.5351(3) 0.18937(17)
O6 O -0.1234(3) 0.6427(3) 0.07538(19)
C8 C -0.1862(5) 0.6144(6) 0.2170(3)
F4 F -0.2940(10) 0.6879(11) 0.1872(7)
F5 F -0.2250(10) 0.4846(8) 0.2071(7)
F6 F -0.1590(11) 0.6371(11) 0.2960(5)
F7? F 0.4827(13) 0.8293(12) 0.0314(9)
F8? F 0.4676(14) 0.8208(12) -0.0003(9)
F9? F 0.4690(11) 0.6220(10) 0.0622(7)
F10? F 0.4841(13) 0.6511(13) 0.0810(8)
F11? F 0.3845(13) 0.7024(13) -0.0599(6)
F12? F 0.3733(12) 0.6412(10) -0.0466(7)
F13? F -0.2725(11) 0.6965(12) 0.2155(7)
F14? F -0.2669(9) 0.7346(9) 0.1966(7)
F15? F -0.2431(13) 0.4951(11) 0.1835(8)
F16? F -0.2664(9) 0.5277(10) 0.1922(7)
F17? F -0.1381(10) 0.5808(10) 0.2995(5)
F18? F -0.1221(12) 0.6225(14) 0.3013(6)
loop_
_geom_bond_atom_site_label_1
_geom_bond_atom_site_label_2
_geom_bond_site_symmetry_1
_geom_bond_site_symmetry_2
Te1 S1 1_555 1_555
S1 C3 1_555 1_555
S2 O1 1_555 1_555
S3 O4 1_555 1_555
O2 S2 1_555 1_555
O3 S2 1_555 1_555
O5 S3 1_555 1_555
O6 S3 1_555 1_555
C1 Te1 1_555 1_555
H1 C1 1_555 1_555
H2 C1 1_555 1_555
C2 C1 1_555 1_555
H3 C2 1_555 1_555
H4 C2 1_555 1_555
C3 C2 1_555 1_555
H5 C3 1_555 1_555
H6 C3 1_555 1_555
C4 S1 1_555 1_555
H7 C4 1_555 1_555
H8 C4 1_555 1_555
C5 C4 1_555 1_555
H9 C5 1_555 1_555
H10 C5 1_555 1_555
C6 Te1 1_555 1_555
H11 C6 1_555 1_555
H12 C6 1_555 1_555
C7 S2 1_555 1_555
F1 C7 1_555 1_555
F2 C7 1_555 1_555
F3 C7 1_555 1_555
C8 S3 1_555 1_555
F4 C8 1_555 1_555
F5 C8 1_555 1_555
F6 C8 1_555 1_555
C5 C6 1_555 1_555

#END
