
#######################################################################
#
#                 Cambridge Crystallographic Data Centre
#                                CCDC 
#
#######################################################################
#
# If this CIF has been generated from an entry in the Cambridge 
# Structural Database, then it will include bibliographic, chemical, 
# crystal, experimental, refinement or atomic coordinate data resulting 
# from the CCDC's data processing and validation procedures.
#
#######################################################################

data_GUYWUU
_chemical_name_common            
'bis(Ciprofloxacinium) hydrogen citrate tetrahydrofuran solvate trihydrate'
_chemical_formula_moiety         
'2(C17 H19 F1 N3 O3 1+),C6 H6 O7 2-,C4 H8 O1,3(H2 O1)'
_chemical_name_systematic        
'bis(4-(3-carboxy-1-cyclopropyl-6-fluoro-4-oxo-1,4-dihydroquinolin-7-yl)piperazin-1-ium) hydrogen citrate tetrahydrofuran solvate trihydrate'
_chemical_properties_biological  'Ciprofloxacin is an antibiotic drug'
_symmetry_cell_setting           triclinic
_symmetry_space_group_name_H-M   'P -1'
_symmetry_Int_Tables_number      2
_space_group_name_Hall           '-P 1'
loop_
_symmetry_equiv_pos_site_id
_symmetry_equiv_pos_as_xyz
1 x,y,z
2 -x,-y,-z
_cell_length_a                   10.225(2)
_cell_length_b                   13.8350(6)
_cell_length_c                   18.560(7)
_cell_angle_alpha                72.83(4)
_cell_angle_beta                 86.82(6)
_cell_angle_gamma                68.03(5)
_cell_volume                     2321.89
_exptl_crystal_colour            colorless
_exptl_crystal_description       Prism
_cell_formula_units_Z            2
loop_
_atom_site_label
_atom_site_type_symbol
_atom_site_fract_x
_atom_site_fract_y
_atom_site_fract_z
F1 F 0.2935(2) 0.29579(19) 0.44355(13)
N1 N 0.7307(2) 0.44472(17) 0.39827(14)
N2 N 0.3597(3) 0.3709(2) 0.29820(16)
N3 N 0.2316(3) 0.3096(2) 0.19826(17)
H1 H 0.200(4) 0.259(3) 0.197(3)
H2 H 0.188(4) 0.372(2) 0.164(2)
O1 O 0.9673(3) 0.4222(3) 0.58144(17)
O2 O 0.8328(3) 0.3579(2) 0.66253(15)
H3 H 0.761(4) 0.345(4) 0.658(3)
O3 O 0.6245(2) 0.33028(18) 0.61512(13)
C1 C 0.8051(3) 0.4380(2) 0.45839(18)
H4 H 0.8805 0.4612 0.4498
C2 C 0.7753(3) 0.3988(2) 0.53164(18)
C3 C 0.6591(3) 0.3645(2) 0.54775(18)
C4 C 0.5809(3) 0.3699(2) 0.48286(17)
C5 C 0.4664(3) 0.3346(2) 0.49266(18)
H5 H 0.4388 0.3098 0.5410
C6 C 0.3968(3) 0.3368(2) 0.43196(19)
C7 C 0.4315(3) 0.3755(2) 0.35738(18)
C8 C 0.5444(3) 0.4100(2) 0.34766(18)
H6 H 0.5712 0.4346 0.2991
C9 C 0.6183(3) 0.4085(2) 0.40906(17)
C10 C 0.7700(3) 0.4849(2) 0.32148(18)
H7 H 0.8131 0.4299 0.2950
C11 C 0.6768(4) 0.5942(3) 0.2739(2)
H8 H 0.5955 0.6356 0.2965
H9 H 0.6627 0.6042 0.2206
C12 C 0.8205(4) 0.5765(3) 0.3027(2)
H10 H 0.8931 0.5758 0.2667
H11 H 0.8260 0.6072 0.3426
C13 C 0.8675(4) 0.3949(3) 0.5924(2)
C14 C 0.2069(3) 0.4091(3) 0.2907(2)
H12 H 0.1697 0.4794 0.2524
H13 H 0.1677 0.4179 0.3383
C15 C 0.1650(4) 0.3275(3) 0.2689(2)
H14 H 0.1954 0.2590 0.3091
H15 H 0.0631 0.3544 0.2612
C16 C 0.3863(4) 0.2795(3) 0.2024(2)
H16 H 0.4222 0.2763 0.1533
H17 H 0.4306 0.2078 0.2384
C17 C 0.4233(4) 0.3624(3) 0.2266(2)
H18 H 0.5250 0.3393 0.2328
H19 H 0.3873 0.4328 0.1883
F2 F 1.2509(2) 0.16831(16) 0.58960(10)
N4 N 0.7885(2) 0.06533(17) 0.56138(13)
N5 N 1.1405(3) 0.07845(19) 0.72053(13)
N6 N 1.2875(3) 0.0213(2) 0.86166(16)
H20 H 1.370(3) -0.015(3) 0.887(2)
H21 H 1.228(4) 0.068(3) 0.882(2)
O4 O 0.6170(2) 0.11912(18) 0.34922(13)
O5 O 0.7685(3) 0.19279(18) 0.29148(13)
H22 H 0.826(4) 0.211(3) 0.308(2)
O6 O 0.9494(2) 0.21080(16) 0.37021(12)
C18 C 0.7356(3) 0.0837(2) 0.49177(17)
H23 H 0.6610 0.0622 0.4877
C19 C 0.7850(3) 0.1322(2) 0.42611(16)
C20 C 0.8996(3) 0.1655(2) 0.42926(16)
C21 C 0.9585(3) 0.14477(19) 0.50387(15)
C22 C 1.0750(3) 0.1709(2) 0.51371(16)
H24 H 1.1138 0.2037 0.4716
C23 C 1.1318(3) 0.1493(2) 0.58355(17)
C24 C 1.0756(3) 0.1021(2) 0.65111(16)
C25 C 0.9611(3) 0.0754(2) 0.64118(16)
H25 H 0.9215 0.0436 0.6834
C26 C 0.9036(3) 0.0952(2) 0.56908(16)
C27 C 0.7378(3) 0.0050(2) 0.62822(18)
H26 H 0.8020 -0.0703 0.6519
C28 C 0.6520(4) 0.0627(3) 0.6810(2)
H27 H 0.6296 0.1405 0.6688
H28 H 0.6660 0.0237 0.7345
C29 C 0.5861(4) 0.0239(3) 0.6308(2)
H29 H 0.5601 -0.0384 0.6540
H30 H 0.5237 0.0784 0.5884
C30 C 0.7158(3) 0.1463(2) 0.35353(18)
C31 C 1.1845(4) 0.1575(2) 0.74016(18)
H31 H 1.1094 0.2015 0.7646
H32 H 1.2035 0.2057 0.6947
C32 C 1.3150(4) 0.0976(3) 0.79233(19)
H33 H 1.3914 0.0568 0.7668
H34 H 1.3434 0.1495 0.8063
C33 C 1.2319(3) -0.0543(2) 0.84268(18)
H35 H 1.2061 -0.0974 0.8885
H36 H 1.3052 -0.1039 0.8209
C34 C 1.1042(3) 0.0085(2) 0.78732(17)
H37 H 1.0735 -0.0420 0.7730
H38 H 1.0272 0.0525 0.8108
O7 O 1.4400(3) 0.12180(19) 1.08156(15)
O8 O 1.3799(2) 0.07063(18) 0.99019(14)
O9 O 1.0423(3) 0.44141(19) 0.87245(16)
O10 O 0.8456(3) 0.51603(19) 0.92689(16)
O11 O 1.1327(2) 0.22795(17) 0.89539(11)
H39 H 1.116(4) 0.2937(17) 0.875(2)
O12 O 1.0600(3) 0.09705(17) 1.07993(13)
O13 O 1.0511(2) 0.07025(16) 0.96819(12)
C35 C 1.3567(3) 0.1346(2) 1.03121(18)
C36 C 1.2186(3) 0.2321(2) 1.01449(17)
H40 H 1.2380 0.2955 0.9852
H41 H 1.1849 0.2444 1.0621
C37 C 1.0987(3) 0.2264(2) 0.97223(15)
C38 C 0.9608(3) 0.3238(2) 0.97133(18)
H42 H 0.8830 0.3081 0.9566
H43 H 0.9475 0.3284 1.0225
C39 C 0.9502(4) 0.4345(3) 0.9204(2)
C40 C 1.0703(3) 0.1230(2) 1.01075(17)
O14 O 0.6303(7) 0.3351(5) 0.8892(3)
C41 C 0.6974(8) 0.3194(5) 0.8251(3)
H44 H 0.7884 0.3260 0.8257
H45 H 0.6410 0.3736 0.7806
C42 C 0.7154(9) 0.2124(5) 0.8240(5)
H46 H 0.6824 0.2150 0.7752
H47 H 0.8144 0.1650 0.8332
C43 C 0.6349(12) 0.1726(6) 0.8820(7)
H48 H 0.5445 0.1817 0.8613
H49 H 0.6855 0.0959 0.9081
C44 C 0.6166(14) 0.2366(11) 0.9308(5)
H50 H 0.6874 0.1984 0.9727
H51 H 0.5240 0.2512 0.9510
O15 O 1.0786(4) 0.1784(3) 1.19615(16)
H52 H 1.008(3) 0.235(2) 1.184(3)
H53 H 1.064(4) 0.154(3) 1.1612(17)
O16 O 1.1398(4) 0.6144(3) 0.8325(2)
H54 H 1.121(5) 0.558(3) 0.849(3)
H55 H 1.204(4) 0.594(4) 0.855(3)
O17 O 1.3545(8) 0.5264(7) 0.9477(6)
H56 H 1.4388 0.5131 0.9550
H57 H 1.2863 0.5457 0.9675
O18? O 1.3839(12) 0.5178(12) 1.0379(8)
H58? H 1.3797 0.5624 1.0620
H59? H 1.3072 0.5025 1.0532
H60? H 1.0000 0.0000 1.0000
H61? H 1.5000 0.0000 1.0000
loop_
_geom_bond_atom_site_label_1
_geom_bond_atom_site_label_2
_geom_bond_site_symmetry_1
_geom_bond_site_symmetry_2
F1 C6 1_555 1_555
N1 C1 1_555 1_555
N2 C7 1_555 1_555
N3 H1 1_555 1_555
H2 N3 1_555 1_555
O1 C13 1_555 1_555
O2 H3 1_555 1_555
O3 C3 1_555 1_555
C1 H4 1_555 1_555
C2 C1 1_555 1_555
C3 C2 1_555 1_555
C4 C3 1_555 1_555
C5 C4 1_555 1_555
H5 C5 1_555 1_555
C6 C5 1_555 1_555
C7 C6 1_555 1_555
C8 C7 1_555 1_555
H6 C8 1_555 1_555
C9 N1 1_555 1_555
C10 N1 1_555 1_555
H7 C10 1_555 1_555
C11 C10 1_555 1_555
H8 C11 1_555 1_555
H9 C11 1_555 1_555
C12 C10 1_555 1_555
H10 C12 1_555 1_555
H11 C12 1_555 1_555
C13 O2 1_555 1_555
C14 N2 1_555 1_555
H12 C14 1_555 1_555
H13 C14 1_555 1_555
C15 N3 1_555 1_555
H14 C15 1_555 1_555
H15 C15 1_555 1_555
C16 N3 1_555 1_555
H16 C16 1_555 1_555
H17 C16 1_555 1_555
C17 N2 1_555 1_555
H18 C17 1_555 1_555
H19 C17 1_555 1_555
F2 C23 1_555 1_555
N4 C18 1_555 1_555
N5 C24 1_555 1_555
N6 H20 1_555 1_555
H21 N6 1_555 1_555
O4 C30 1_555 1_555
O5 H22 1_555 1_555
O6 C20 1_555 1_555
C18 H23 1_555 1_555
C19 C18 1_555 1_555
C20 C19 1_555 1_555
C21 C20 1_555 1_555
C22 C21 1_555 1_555
H24 C22 1_555 1_555
C23 C22 1_555 1_555
C24 C23 1_555 1_555
C25 C24 1_555 1_555
H25 C25 1_555 1_555
C26 N4 1_555 1_555
C27 N4 1_555 1_555
H26 C27 1_555 1_555
C28 C27 1_555 1_555
H27 C28 1_555 1_555
H28 C28 1_555 1_555
C29 C27 1_555 1_555
H29 C29 1_555 1_555
H30 C29 1_555 1_555
C30 O5 1_555 1_555
C31 N5 1_555 1_555
H31 C31 1_555 1_555
H32 C31 1_555 1_555
C32 N6 1_555 1_555
H33 C32 1_555 1_555
H34 C32 1_555 1_555
C33 N6 1_555 1_555
H35 C33 1_555 1_555
H36 C33 1_555 1_555
C34 N5 1_555 1_555
H37 C34 1_555 1_555
H38 C34 1_555 1_555
O7 C35 1_555 1_555
O8 C35 1_555 1_555
O9 C39 1_555 1_555
O10 C39 1_555 1_555
O11 H39 1_555 1_555
O12 C40 1_555 1_555
O13 C40 1_555 1_555
C35 C36 1_555 1_555
C36 H40 1_555 1_555
H41 C36 1_555 1_555
C37 O11 1_555 1_555
C38 C37 1_555 1_555
H42 C38 1_555 1_555
H43 C38 1_555 1_555
C39 C38 1_555 1_555
C40 C37 1_555 1_555
O14 C41 1_555 1_555
C41 H44 1_555 1_555
H45 C41 1_555 1_555
C42 C41 1_555 1_555
H46 C42 1_555 1_555
H47 C42 1_555 1_555
C43 C42 1_555 1_555
H48 C43 1_555 1_555
H49 C43 1_555 1_555
C44 O14 1_555 1_555
H50 C44 1_555 1_555
H51 C44 1_555 1_555
O15 H52 1_555 1_555
H53 O15 1_555 1_555
O16 H54 1_555 1_555
H55 O16 1_555 1_555
O17 H56 1_555 1_555
H57 O17 1_555 1_555
C2 C13 1_555 1_555
C4 C9 1_555 1_555
C8 C9 1_555 1_555
C11 C12 1_555 1_555
C14 C15 1_555 1_555
C16 C17 1_555 1_555
C19 C30 1_555 1_555
C21 C26 1_555 1_555
C25 C26 1_555 1_555
C28 C29 1_555 1_555
C31 C32 1_555 1_555
C33 C34 1_555 1_555
C36 C37 1_555 1_555
C43 C44 1_555 1_555

#END
