
#######################################################################
#
#                 Cambridge Crystallographic Data Centre
#                                CCDC 
#
#######################################################################
#
# If this CIF has been generated from an entry in the Cambridge 
# Structural Database, then it will include bibliographic, chemical, 
# crystal, experimental, refinement or atomic coordinate data resulting 
# from the CCDC's data processing and validation procedures.
#
#######################################################################

data_GUZCUA
_chemical_name_common            
(11,11-Dimethyl-5-((4-methylphenyl)sulfonyl)-3-oxa-5-azatricyclo[6.2.1.0$1,6!]undec-4-yl)(phenyl)methanol
_chemical_formula_moiety         'C25 H31 N1 O4 S1'
_chemical_name_systematic        
(-)-(1S,4S,6R,8R,14R)-[11,11-Dimethyl-5-(4-tolylsulfonyl)-3-oxa-5-aza-tricyclo[6.2.1.01,6]undec-4-yl]-phenyl-methanol
_symmetry_cell_setting           monoclinic
_symmetry_space_group_name_H-M   'P 21'
_symmetry_Int_Tables_number      4
_space_group_name_Hall           'P 2yb'
loop_
_symmetry_equiv_pos_site_id
_symmetry_equiv_pos_as_xyz
1 x,y,z
2 -x,1/2+y,-z
_cell_length_a                   10.120(2)
_cell_length_b                   14.074(3)
_cell_length_c                   8.1262(18)
_cell_angle_alpha                90
_cell_angle_beta                 94.735(18)
_cell_angle_gamma                90
_cell_volume                     1153.46
_exptl_crystal_colour            colorless
_exptl_crystal_description       block
_cell_formula_units_Z            2
loop_
_atom_site_label
_atom_site_type_symbol
_atom_site_fract_x
_atom_site_fract_y
_atom_site_fract_z
C1 C -0.3831(3) 0.6130(2) 0.5562(4)
C2 C -0.4107(3) 0.6662(3) 0.3987(5)
H1 H -0.5039 0.6598 0.3619
H2 H -0.3926 0.7331 0.4184
O1 O -0.3325(2) 0.63298(18) 0.2714(3)
C3 C -0.1958(3) 0.6397(2) 0.3070(4)
H3 H -0.1561 0.6072 0.2165
N1 N -0.1558(3) 0.5831(2) 0.4598(3)
C4 C -0.2326(3) 0.5991(3) 0.6070(4)
H4 H -0.1984 0.656 0.6656
C5 C -0.2346(3) 0.5160(3) 0.7307(5)
H5 H -0.1933 0.4599 0.6886
H6 H -0.1888 0.5331 0.8362
C6 C -0.3835(4) 0.4991(3) 0.7475(5)
H7 H -0.4039 0.4379 0.7969
C7 C -0.4353(4) 0.5852(4) 0.8365(5)
H8 H -0.3768 0.6016 0.933
H9 H -0.5237 0.5737 0.8701
C8 C -0.4364(4) 0.6633(3) 0.7057(5)
H10 H -0.3795 0.7157 0.7431
H11 H -0.5256 0.687 0.6786
C9 C -0.4427(3) 0.5121(3) 0.5692(5)
C10 C -0.5955(4) 0.5125(3) 0.5509(6)
H12 H -0.626 0.5412 0.4474
H13 H -0.6281 0.5482 0.6397
H14 H -0.6277 0.4484 0.5541
C11 C -0.3958(5) 0.4387(3) 0.4475(6)
H15 H -0.301 0.4414 0.4481
H16 H -0.4349 0.4525 0.3384
H17 H -0.4221 0.3763 0.4795
C12 C -0.1404(3) 0.7417(3) 0.3096(4)
H18 H -0.0435 0.7368 0.3207
C13 C -0.1790(3) 0.7919(3) 0.1480(4)
C14 C -0.0906(4) 0.7938(3) 0.0279(5)
H19 H -0.0091 0.7635 0.0467
C15 C -0.1219(5) 0.8404(4) -0.1212(5)
H20 H -0.0616 0.8408 -0.2015
C16 C -0.2396(5) 0.8850(3) -0.1494(5)
H21 H -0.2593 0.9171 -0.2484
C17 C -0.3295(4) 0.8835(3) -0.0338(5)
H22 H -0.4112 0.9133 -0.0546
C18 C -0.2989(4) 0.8373(3) 0.1150(5)
H23 H -0.3603 0.8369 0.194
O2 O -0.1781(2) 0.7907(2) 0.4492(3)
H24 H -0.137 0.8408 0.4593
S1 S -0.00508(9) 0.54227(6) 0.48309(11)
C19 C 0.0787(3) 0.6034(3) 0.6497(4)
C20 C 0.1300(4) 0.6934(3) 0.6240(5)
H25 H 0.1169 0.7222 0.5209
C21 C 0.2007(4) 0.7397(4) 0.7536(6)
H26 H 0.2349 0.7998 0.7355
C22 C 0.2218(4) 0.6999(3) 0.9075(6)
C23 C 0.1684(4) 0.6101(3) 0.9308(5)
H27 H 0.18 0.5819 1.0344
C24 C 0.0988(3) 0.5623(3) 0.8042(4)
H28 H 0.0652 0.5021 0.8226
C25 C 0.2996(5) 0.7500(5) 1.0478(7)
H29 H 0.3916 0.7334 1.048
H30 H 0.267 0.7311 1.1506
H31 H 0.2896 0.8175 1.0343
O3 O 0.0559(2) 0.5644(2) 0.3353(3)
O4 O -0.0090(3) 0.44437(18) 0.5327(3)
loop_
_geom_bond_atom_site_label_1
_geom_bond_atom_site_label_2
_geom_bond_site_symmetry_1
_geom_bond_site_symmetry_2
C1 C2 1_555 1_555
C2 H1 1_555 1_555
H2 C2 1_555 1_555
O1 C2 1_555 1_555
C3 O1 1_555 1_555
H3 C3 1_555 1_555
N1 C3 1_555 1_555
C4 C1 1_555 1_555
H4 C4 1_555 1_555
C5 C4 1_555 1_555
H5 C5 1_555 1_555
H6 C5 1_555 1_555
C6 C5 1_555 1_555
H7 C6 1_555 1_555
C7 C6 1_555 1_555
H8 C7 1_555 1_555
H9 C7 1_555 1_555
C8 C1 1_555 1_555
H10 C8 1_555 1_555
H11 C8 1_555 1_555
C9 C1 1_555 1_555
C10 C9 1_555 1_555
H12 C10 1_555 1_555
H13 C10 1_555 1_555
H14 C10 1_555 1_555
C11 C9 1_555 1_555
H15 C11 1_555 1_555
H16 C11 1_555 1_555
H17 C11 1_555 1_555
C12 C3 1_555 1_555
H18 C12 1_555 1_555
C13 C12 1_555 1_555
C14 C13 1_555 1_555
H19 C14 1_555 1_555
C15 C14 1_555 1_555
H20 C15 1_555 1_555
C16 C15 1_555 1_555
H21 C16 1_555 1_555
C17 C16 1_555 1_555
H22 C17 1_555 1_555
C18 C13 1_555 1_555
H23 C18 1_555 1_555
O2 C12 1_555 1_555
H24 O2 1_555 1_555
S1 N1 1_555 1_555
C19 S1 1_555 1_555
C20 C19 1_555 1_555
H25 C20 1_555 1_555
C21 C20 1_555 1_555
H26 C21 1_555 1_555
C22 C21 1_555 1_555
C23 C22 1_555 1_555
H27 C23 1_555 1_555
C24 C19 1_555 1_555
H28 C24 1_555 1_555
C25 C22 1_555 1_555
H29 C25 1_555 1_555
H30 C25 1_555 1_555
H31 C25 1_555 1_555
O3 S1 1_555 1_555
O4 S1 1_555 1_555
N1 C4 1_555 1_555
C6 C9 1_555 1_555
C7 C8 1_555 1_555
C17 C18 1_555 1_555
C23 C24 1_555 1_555

#END
