
#######################################################################
#
#                 Cambridge Crystallographic Data Centre
#                                CCDC 
#
#######################################################################
#
# If this CIF has been generated from an entry in the Cambridge 
# Structural Database, then it will include bibliographic, chemical, 
# crystal, experimental, refinement or atomic coordinate data resulting 
# from the CCDC's data processing and validation procedures.
#
#######################################################################

data_GUZDEM
_chemical_formula_moiety         'C36 H20 Cl5 F1'
_chemical_name_systematic        
'1-fluoro-2,3,4,5,6-penta(4-chlorophenyl)benzene unknown solvate'
_symmetry_cell_setting           triclinic
_symmetry_space_group_name_H-M   'P -1'
_symmetry_Int_Tables_number      2
_space_group_name_Hall           '-P 1'
loop_
_symmetry_equiv_pos_site_id
_symmetry_equiv_pos_as_xyz
1 x,y,z
2 -x,-y,-z
_cell_length_a                   10.393(2)
_cell_length_b                   12.530(3)
_cell_length_c                   14.291(3)
_cell_angle_alpha                105.49(3)
_cell_angle_beta                 109.04(3)
_cell_angle_gamma                102.88(3)
_cell_volume                     1594.11
_exptl_crystal_colour            colorless
_exptl_crystal_description       prism
_cell_formula_units_Z            2
loop_
_atom_site_label
_atom_site_type_symbol
_atom_site_fract_x
_atom_site_fract_y
_atom_site_fract_z
C1 C 0.49163(16) 0.23729(13) 0.46025(12)
C2 C 0.59636(16) 0.34364(13) 0.53273(12)
C3 C 0.61571(16) 0.37289(13) 0.63963(12)
C4 C 0.53586(16) 0.29281(14) 0.67022(12)
C5 C 0.43312(16) 0.18530(13) 0.59371(12)
C6 C 0.40610(16) 0.15681(13) 0.48511(12)
C7 C 0.67870(15) 0.42320(13) 0.49526(12)
C8 C 0.68196(16) 0.53893(13) 0.51650(13)
H1 H 0.6304 0.5678 0.5555
C9 C 0.75902(17) 0.61294(14) 0.48192(13)
H2 H 0.7602 0.6918 0.4967
C10 C 0.83391(17) 0.57040(14) 0.42576(13)
C11 C 0.83312(17) 0.45575(14) 0.40273(13)
H3 H 0.8853 0.4277 0.3639
C12 C 0.75461(17) 0.38227(13) 0.43738(12)
H4 H 0.7526 0.3031 0.4215
C13 C 0.71582(18) 0.49129(14) 0.71917(12)
C14 C 0.6606(2) 0.56981(16) 0.76749(15)
H5 H 0.5604 0.5456 0.7527
C15 C 0.7497(3) 0.68331(17) 0.83716(17)
H6 H 0.7112 0.7370 0.8696
C16 C 0.8951(3) 0.71666(16) 0.85841(15)
C17 C 0.9536(2) 0.64032(16) 0.81281(14)
H7 H 1.0542 0.6646 0.8289
C18 C 0.86314(18) 0.52704(15) 0.74275(13)
H8 H 0.9023 0.4736 0.7107
C19 C 0.56400(18) 0.32196(14) 0.78511(13)
C20 C 0.45596(19) 0.33015(16) 0.82053(14)
H9 H 0.3618 0.3176 0.7710
C21 C 0.4837(2) 0.3565(2) 0.92762(15)
H10 H 0.4096 0.3629 0.9516
C22 C 0.6198(2) 0.3732(2) 0.99824(15)
C23 C 0.7301(2) 0.3673(2) 0.96559(16)
H11 H 0.8244 0.3809 1.0156
C24 C 0.7010(2) 0.34111(17) 0.85871(14)
H12 H 0.7760 0.3362 0.8354
C25 C 0.35121(17) 0.09945(13) 0.62699(12)
C26 C 0.20508(18) 0.07888(14) 0.60183(13)
H13 H 0.1579 0.1225 0.5662
C27 C 0.12705(18) -0.00450(14) 0.62798(14)
H14 H 0.0272 -0.0177 0.6114
C28 C 0.19667(19) -0.06787(14) 0.67841(14)
C29 C 0.3422(2) -0.04795(15) 0.70628(14)
H15 H 0.3888 -0.0917 0.7421
C30 C 0.41973(19) 0.03724(15) 0.68114(14)
H16 H 0.5207 0.0531 0.7012
C31 C 0.29272(16) 0.04692(13) 0.39869(12)
C32 C 0.19334(17) 0.05311(14) 0.30903(13)
H17 H 0.1994 0.1276 0.3031
C33 C 0.08556(18) -0.04747(15) 0.22814(13)
H18 H 0.0180 -0.0422 0.1675
C34 C 0.07822(18) -0.15576(14) 0.23741(14)
C35 C 0.17623(18) -0.16423(14) 0.32495(14)
H19 H 0.1705 -0.2391 0.3301
C36 C 0.28286(17) -0.06341(13) 0.40530(13)
H20 H 0.3501 -0.0694 0.4656
Cl1 Cl 0.93389(5) 0.66431(4) 0.38490(4)
Cl2 Cl 1.00731(9) 0.85862(5) 0.94459(5)
Cl3 Cl 0.65559(8) 0.40446(8) 1.13256(4)
Cl4 Cl 0.09831(5) -0.17584(4) 0.70853(4)
Cl5 Cl -0.05598(5) -0.28287(4) 0.13729(4)
F1 F 0.46901(10) 0.21041(8) 0.35640(7)
loop_
_geom_bond_atom_site_label_1
_geom_bond_atom_site_label_2
_geom_bond_site_symmetry_1
_geom_bond_site_symmetry_2
C1 C2 1_555 1_555
C2 C3 1_555 1_555
C3 C4 1_555 1_555
C4 C5 1_555 1_555
C5 C6 1_555 1_555
C6 C1 1_555 1_555
C7 C2 1_555 1_555
C8 C7 1_555 1_555
H1 C8 1_555 1_555
C9 C8 1_555 1_555
H2 C9 1_555 1_555
C10 C9 1_555 1_555
C11 C10 1_555 1_555
H3 C11 1_555 1_555
C12 C7 1_555 1_555
H4 C12 1_555 1_555
C13 C3 1_555 1_555
C14 C13 1_555 1_555
H5 C14 1_555 1_555
C15 C14 1_555 1_555
H6 C15 1_555 1_555
C16 C15 1_555 1_555
C17 C16 1_555 1_555
H7 C17 1_555 1_555
C18 C13 1_555 1_555
H8 C18 1_555 1_555
C19 C4 1_555 1_555
C20 C19 1_555 1_555
H9 C20 1_555 1_555
C21 C20 1_555 1_555
H10 C21 1_555 1_555
C22 C21 1_555 1_555
C23 C22 1_555 1_555
H11 C23 1_555 1_555
C24 C19 1_555 1_555
H12 C24 1_555 1_555
C25 C5 1_555 1_555
C26 C25 1_555 1_555
H13 C26 1_555 1_555
C27 C26 1_555 1_555
H14 C27 1_555 1_555
C28 C27 1_555 1_555
C29 C28 1_555 1_555
H15 C29 1_555 1_555
C30 C25 1_555 1_555
H16 C30 1_555 1_555
C31 C6 1_555 1_555
C32 C31 1_555 1_555
H17 C32 1_555 1_555
C33 C32 1_555 1_555
H18 C33 1_555 1_555
C34 C33 1_555 1_555
C35 C34 1_555 1_555
H19 C35 1_555 1_555
C36 C31 1_555 1_555
H20 C36 1_555 1_555
Cl1 C10 1_555 1_555
Cl2 C16 1_555 1_555
Cl3 C22 1_555 1_555
Cl4 C28 1_555 1_555
Cl5 C34 1_555 1_555
F1 C1 1_555 1_555
C11 C12 1_555 1_555
C17 C18 1_555 1_555
C23 C24 1_555 1_555
C29 C30 1_555 1_555
C35 C36 1_555 1_555

#END
