
#######################################################################
#
#                 Cambridge Crystallographic Data Centre
#                                CCDC 
#
#######################################################################
#
# If this CIF has been generated from an entry in the Cambridge 
# Structural Database, then it will include bibliographic, chemical, 
# crystal, experimental, refinement or atomic coordinate data resulting 
# from the CCDC's data processing and validation procedures.
#
#######################################################################

data_GUZDOV
_chemical_formula_moiety         'C17 H18 B1 N2 1+,C1 F3 O3 S1 1-'
_chemical_name_systematic        
'1-(1-Ethyl-1,2-azaborinin-2(1H)-yl)-4-phenylpyridinium trifluoromethanesulfonate'
_symmetry_cell_setting           monoclinic
_symmetry_space_group_name_H-M   'P 21/n'
_symmetry_Int_Tables_number      14
_space_group_name_Hall           '-P 2yn'
loop_
_symmetry_equiv_pos_site_id
_symmetry_equiv_pos_as_xyz
1 x,y,z
2 1/2-x,1/2+y,1/2-z
3 -x,-y,-z
4 1/2+x,1/2-y,1/2+z
_cell_length_a                   9.3812(9)
_cell_length_b                   14.3671(13)
_cell_length_c                   14.2217(13)
_cell_angle_alpha                90
_cell_angle_beta                 100.9400(10)
_cell_angle_gamma                90
_cell_volume                     1881.97
_exptl_crystal_colour            colorless
_exptl_crystal_description       block
_cell_formula_units_Z            4
loop_
_atom_site_label
_atom_site_type_symbol
_atom_site_fract_x
_atom_site_fract_y
_atom_site_fract_z
S1 S 0.04168(4) 0.23365(3) 1.00059(3)
O1 O 0.02971(14) 0.13402(9) 0.99740(10)
O2 O 0.18158(13) 0.26823(9) 0.98972(10)
O3 O -0.02207(15) 0.27806(11) 1.07295(10)
C18 C -0.07686(19) 0.26842(12) 0.89009(13)
F1 F -0.07837(16) 0.36056(9) 0.87886(11)
F2 F -0.21292(12) 0.24232(10) 0.88822(10)
F3 F -0.03596(14) 0.23233(9) 0.81341(8)
N1 N 1.08501(13) 0.56090(9) 0.62974(9)
N2 N 0.86997(13) 0.50984(9) 0.70376(9)
B1 B 1.00052(18) 0.48796(12) 0.65724(12)
C1 C 1.20103(17) 0.53883(12) 0.58782(11)
C2 C 1.23765(17) 0.44966(13) 0.57149(11)
C3 C 1.15698(19) 0.37448(12) 0.59751(12)
C4 C 1.03869(19) 0.38937(12) 0.63906(12)
C5 C 1.06049(18) 0.66207(11) 0.63943(12)
C6 C 1.1710(2) 0.70547(13) 0.71886(14)
C7 C 0.74081(17) 0.46972(12) 0.66634(12)
C8 C 0.62153(17) 0.48004(12) 0.70775(12)
C9 C 0.62908(15) 0.53136(10) 0.79229(10)
C10 C 0.76336(16) 0.57293(11) 0.82905(11)
C11 C 0.87916(16) 0.56166(11) 0.78447(11)
C12 C 0.50423(15) 0.53900(10) 0.84111(10)
C13 C 0.39047(17) 0.47485(12) 0.82190(12)
C14 C 0.27640(17) 0.47785(13) 0.87099(12)
C15 C 0.27272(18) 0.54608(13) 0.93924(12)
C16 C 0.38342(18) 0.61071(12) 0.95824(12)
C17 C 0.49900(17) 0.60755(11) 0.91024(12)
H1 H 1.257(2) 0.5897(13) 0.5707(13)
H2 H 1.316(2) 0.4393(14) 0.5443(15)
H3 H 1.189(2) 0.3140(14) 0.5882(14)
H4 H 0.988(2) 0.3352(14) 0.6583(14)
H5 H 0.961(2) 0.6713(13) 0.6507(13)
H6 H 1.066(2) 0.6913(14) 0.5811(15)
H7 H 1.271(3) 0.6924(18) 0.7076(18)
H8 H 1.157(3) 0.7680(17) 0.7197(18)
H9 H 1.165(2) 0.6798(15) 0.7817(16)
H10 H 0.737(2) 0.4366(13) 0.6086(14)
H11 H 0.535(2) 0.4545(13) 0.6768(13)
H12 H 0.7781(19) 0.6069(12) 0.8842(14)
H13 H 0.969(2) 0.5879(13) 0.8092(13)
H14 H 0.3841(19) 0.4270(13) 0.7727(13)
H15 H 0.202(2) 0.4316(14) 0.8582(14)
H16 H 0.198(2) 0.5479(14) 0.9708(15)
H17 H 0.383(2) 0.6587(14) 1.0059(14)
H18 H 0.576(2) 0.6531(13) 0.9257(14)
loop_
_geom_bond_atom_site_label_1
_geom_bond_atom_site_label_2
_geom_bond_site_symmetry_1
_geom_bond_site_symmetry_2
S1 O1 1_555 1_555
O2 S1 1_555 1_555
O3 S1 1_555 1_555
N1 B1 1_555 1_555
N2 B1 1_555 1_555
B1 C4 1_555 1_555
C1 N1 1_555 1_555
C2 C1 1_555 1_555
C3 C2 1_555 1_555
C4 C3 1_555 1_555
C5 N1 1_555 1_555
C6 C5 1_555 1_555
C7 N2 1_555 1_555
C8 C7 1_555 1_555
C9 C8 1_555 1_555
C10 C9 1_555 1_555
C11 N2 1_555 1_555
C12 C9 1_555 1_555
C13 C12 1_555 1_555
C14 C13 1_555 1_555
C15 C14 1_555 1_555
C16 C15 1_555 1_555
C17 C12 1_555 1_555
C18 S1 1_555 1_555
F1 C18 1_555 1_555
F2 C18 1_555 1_555
F3 C18 1_555 1_555
H1 C1 1_555 1_555
H2 C2 1_555 1_555
H3 C3 1_555 1_555
H4 C4 1_555 1_555
H5 C5 1_555 1_555
H6 C5 1_555 1_555
H7 C6 1_555 1_555
H8 C6 1_555 1_555
H9 C6 1_555 1_555
H10 C7 1_555 1_555
H11 C8 1_555 1_555
H12 C10 1_555 1_555
H13 C11 1_555 1_555
H14 C13 1_555 1_555
H15 C14 1_555 1_555
H16 C15 1_555 1_555
H17 C16 1_555 1_555
H18 C17 1_555 1_555
C10 C11 1_555 1_555
C16 C17 1_555 1_555

#END
