
#######################################################################
#
#                 Cambridge Crystallographic Data Centre
#                                CCDC 
#
#######################################################################
#
# If this CIF has been generated from an entry in the Cambridge 
# Structural Database, then it will include bibliographic, chemical, 
# crystal, experimental, refinement or atomic coordinate data resulting 
# from the CCDC's data processing and validation procedures.
#
#######################################################################

data_GUZHUG
_chemical_formula_moiety         'C37 H39 N1 O4'
_chemical_name_systematic        
'methyl 4,7-bis((4-t-butylphenyl)ethynyl)-5,6-dimethoxy-1-methyl-1H-indole-2-carboxylate'
_symmetry_cell_setting           monoclinic
_symmetry_space_group_name_H-M   'P 21/c'
_symmetry_Int_Tables_number      14
_space_group_name_Hall           '-P 2ybc'
loop_
_symmetry_equiv_pos_site_id
_symmetry_equiv_pos_as_xyz
1 x,y,z
2 -x,1/2+y,1/2-z
3 -x,-y,-z
4 x,1/2-y,1/2+z
_cell_length_a                   10.4721(7)
_cell_length_b                   20.8688(13)
_cell_length_c                   14.2792(10)
_cell_angle_alpha                90
_cell_angle_beta                 98.592(4)
_cell_angle_gamma                90
_cell_volume                     3085.56
_exptl_crystal_colour            yellow
_exptl_crystal_description       block
_cell_formula_units_Z            4
loop_
_atom_site_label
_atom_site_type_symbol
_atom_site_fract_x
_atom_site_fract_y
_atom_site_fract_z
O1 O 0.21646(13) 0.16938(7) 0.30543(9)
O2 O 0.34702(12) 0.13238(7) 0.47814(9)
O3 O -0.18676(14) -0.14131(7) 0.30286(10)
O4 O -0.07964(15) -0.17815(7) 0.44010(11)
N1 N 0.08719(16) -0.06498(8) 0.44493(11)
C1 C 0.5453(3) -0.08758(12) 1.07128(14)
H1 H 0.4512 -0.0916 1.0647
H2 H 0.5688 -0.0422 1.0703
H3 H 0.5846 -0.1067 1.1314
C2 C 0.59470(19) -0.12249(10) 0.98865(13)
C3 C 0.53583(18) -0.09039(9) 0.89532(13)
C4 C 0.40172(18) -0.09102(10) 0.86762(13)
H4 H 0.3486 -0.1121 0.9064
C5 C 0.34464(19) -0.06143(10) 0.78463(14)
H5 H 0.2535 -0.0627 0.7674
C6 C 0.42042(19) -0.02967(9) 0.72617(13)
C7 C 0.36059(19) -0.00199(10) 0.63806(13)
C8 C 0.30532(18) 0.01565(9) 0.56246(13)
C9 C 0.23589(18) 0.03235(9) 0.47145(12)
C10 C 0.13933(18) -0.00771(9) 0.42056(13)
C11 C 0.07571(17) 0.00992(9) 0.32946(13)
C12 C 0.10284(17) 0.06902(9) 0.28753(12)
C13 C 0.03787(17) 0.08770(9) 0.19638(13)
C14 C -0.01479(18) 0.10204(9) 0.11906(13)
C15 C -0.07752(17) 0.12343(9) 0.02739(13)
C16 C -0.07914(19) 0.18833(10) 0.00470(13)
H6 H -0.0358 0.2181 0.0487
C17 C -0.14314(19) 0.20984(10) -0.08125(13)
H7 H -0.1434 0.2544 -0.0948
C18 C -0.20753(17) 0.16789(9) -0.14891(12)
C19 C -0.28310(19) 0.19482(10) -0.24104(13)
C20 C -0.3534(2) 0.14170(12) -0.30303(15)
H8 H -0.4117 0.1187 -0.2670
H9 H -0.2899 0.1117 -0.3219
H10 H -0.4034 0.1608 -0.3597
C21 C 0.7421(2) -0.12041(14) 1.00378(18)
H11 H 0.7757 -0.1430 1.0624
H12 H 0.7712 -0.0757 1.0084
H13 H 0.7741 -0.1411 0.9502
C22 C 0.60980(19) -0.05917(9) 0.83596(13)
H14 H 0.7011 -0.0586 0.8525
C23 C 0.55374(19) -0.02883(9) 0.75312(13)
H15 H 0.6069 -0.0074 0.7147
C24 C 0.1277(2) -0.10115(12) 0.53191(16)
H16 H 0.2039 -0.1269 0.5249
H17 H 0.0574 -0.1295 0.5442
H18 H 0.1489 -0.0714 0.5850
C25 C -0.00890(18) -0.08265(10) 0.37134(13)
C26 C -0.01651(18) -0.03833(9) 0.29975(14)
H19 H -0.0731 -0.0398 0.2412
C27 C -0.2005(2) 0.10294(10) -0.12711(14)
H20 H -0.2398 0.0730 -0.1726
C28 C -0.1375(2) 0.08056(10) -0.04061(14)
H21 H -0.1352 0.0359 -0.0277
C29 C -0.3828(2) 0.24313(11) -0.21592(15)
H22 H -0.3383 0.2786 -0.1797
H23 H -0.4408 0.2219 -0.1777
H24 H -0.4332 0.2598 -0.2742
C30 C -0.1909(2) 0.22907(12) -0.29884(15)
H25 H -0.2395 0.2444 -0.3586
H26 H -0.1239 0.1991 -0.3122
H27 H -0.1505 0.2655 -0.2625
C31 C 0.19269(18) 0.10944(9) 0.33998(13)
C32 C 0.1431(2) 0.21785(10) 0.34601(16)
H28 H 0.0507 0.2082 0.3307
H29 H 0.1606 0.2598 0.3200
H30 H 0.1681 0.2184 0.4149
C33 C 0.25973(17) 0.09047(9) 0.42897(12)
C34 C 0.46617(19) 0.13724(10) 0.44023(14)
H31 H 0.5141 0.0969 0.4510
H32 H 0.5181 0.1723 0.4717
H33 H 0.4477 0.1458 0.3721
C35 C -0.09215(19) -0.13879(10) 0.37702(14)
C36 C -0.2844(2) -0.18949(12) 0.31174(17)
H34 H -0.2429 -0.2314 0.3234
H35 H -0.3462 -0.1911 0.2531
H36 H -0.3298 -0.1784 0.3648
C37 C 0.5529(2) -0.19268(10) 0.98881(15)
H37 H 0.5815 -0.2150 0.9352
H38 H 0.4586 -0.1950 0.9832
H39 H 0.5918 -0.2130 1.0481
loop_
_geom_bond_atom_site_label_1
_geom_bond_atom_site_label_2
_geom_bond_site_symmetry_1
_geom_bond_site_symmetry_2
O1 C31 1_555 1_555
O2 C33 1_555 1_555
O3 C35 1_555 1_555
O4 C35 1_555 1_555
N1 C10 1_555 1_555
C1 H1 1_555 1_555
H2 C1 1_555 1_555
H3 C1 1_555 1_555
C2 C1 1_555 1_555
C3 C2 1_555 1_555
C4 C3 1_555 1_555
H4 C4 1_555 1_555
C5 C4 1_555 1_555
H5 C5 1_555 1_555
C6 C5 1_555 1_555
C7 C6 1_555 1_555
C8 C7 1_555 1_555
C9 C8 1_555 1_555
C10 C9 1_555 1_555
C11 C10 1_555 1_555
C12 C11 1_555 1_555
C13 C12 1_555 1_555
C14 C13 1_555 1_555
C15 C14 1_555 1_555
C16 C15 1_555 1_555
H6 C16 1_555 1_555
C17 C16 1_555 1_555
H7 C17 1_555 1_555
C18 C17 1_555 1_555
C19 C18 1_555 1_555
C20 C19 1_555 1_555
H8 C20 1_555 1_555
H9 C20 1_555 1_555
H10 C20 1_555 1_555
C21 C2 1_555 1_555
H11 C21 1_555 1_555
H12 C21 1_555 1_555
H13 C21 1_555 1_555
C22 C3 1_555 1_555
H14 C22 1_555 1_555
C23 C6 1_555 1_555
H15 C23 1_555 1_555
C24 N1 1_555 1_555
H16 C24 1_555 1_555
H17 C24 1_555 1_555
H18 C24 1_555 1_555
C25 N1 1_555 1_555
C26 C11 1_555 1_555
H19 C26 1_555 1_555
C27 C18 1_555 1_555
H20 C27 1_555 1_555
C28 C15 1_555 1_555
H21 C28 1_555 1_555
C29 C19 1_555 1_555
H22 C29 1_555 1_555
H23 C29 1_555 1_555
H24 C29 1_555 1_555
C30 C19 1_555 1_555
H25 C30 1_555 1_555
H26 C30 1_555 1_555
H27 C30 1_555 1_555
C31 C12 1_555 1_555
C32 O1 1_555 1_555
H28 C32 1_555 1_555
H29 C32 1_555 1_555
H30 C32 1_555 1_555
C33 C9 1_555 1_555
C34 O2 1_555 1_555
H31 C34 1_555 1_555
H32 C34 1_555 1_555
H33 C34 1_555 1_555
C35 C25 1_555 1_555
C36 O3 1_555 1_555
H34 C36 1_555 1_555
H35 C36 1_555 1_555
H36 C36 1_555 1_555
C37 C2 1_555 1_555
H37 C37 1_555 1_555
H38 C37 1_555 1_555
H39 C37 1_555 1_555
C22 C23 1_555 1_555
C25 C26 1_555 1_555
C27 C28 1_555 1_555
C31 C33 1_555 1_555

#END
