
#######################################################################
#
#                 Cambridge Crystallographic Data Centre
#                                CCDC 
#
#######################################################################
#
# If this CIF has been generated from an entry in the Cambridge 
# Structural Database, then it will include bibliographic, chemical, 
# crystal, experimental, refinement or atomic coordinate data resulting 
# from the CCDC's data processing and validation procedures.
#
#######################################################################

data_GUZMOE
_chemical_formula_moiety         'C18 H12 Br2 O2'
_chemical_name_systematic        
meso-7,7'-Dibromo-1,1',2,2'-tetrahydro-3H,3'H-1,1'-biindene-3,3'-dione
_symmetry_cell_setting           triclinic
_symmetry_space_group_name_H-M   'P -1'
_symmetry_Int_Tables_number      2
_space_group_name_Hall           '-P 1'
loop_
_symmetry_equiv_pos_site_id
_symmetry_equiv_pos_as_xyz
1 x,y,z
2 -x,-y,-z
_cell_length_a                   8.6427(9)
_cell_length_b                   8.8279(9)
_cell_length_c                   10.4921(10)
_cell_angle_alpha                82.672(2)
_cell_angle_beta                 88.813(2)
_cell_angle_gamma                82.695(2)
_cell_volume                     787.524
_exptl_crystal_colour            colorless
_cell_formula_units_Z            2
loop_
_atom_site_label
_atom_site_type_symbol
_atom_site_fract_x
_atom_site_fract_y
_atom_site_fract_z
Br1 Br 0.18047(7) 0.34439(7) 0.96792(4)
Br2 Br 0.32698(6) 0.61690(5) 0.63060(5)
O1 O 0.5800(4) -0.1812(4) 0.6935(3)
O2 O -0.0657(3) 0.0517(4) 0.6624(3)
C1 C 0.3976(3) 0.2035(4) 0.7235(3)
H1 H 0.4348 0.2947 0.7506
C2 C 0.5349(4) 0.0973(4) 0.6720(3)
H2 H 0.5322 0.1068 0.5789
H3 H 0.6338 0.1247 0.6978
C3 C 0.5156(4) -0.0628(4) 0.7284(3)
C4 C 0.3999(4) -0.0514(4) 0.8351(3)
C5 C 0.3579(5) -0.1701(6) 0.9222(4)
H4 H 0.3984 -0.2718 0.9164
C6 C 0.2544(6) -0.1329(7) 1.0175(4)
H5 H 0.2189 -0.2104 1.0749
C7 C 0.2020(5) 0.0221(8) 1.0287(3)
H6 H 0.1372 0.0463 1.0970
C8 C 0.2447(4) 0.1387(5) 0.9407(3)
C9 C 0.3425(4) 0.1025(4) 0.8383(3)
C10 C 0.2742(3) 0.2515(3) 0.6153(2)
H7 H 0.3268 0.2923 0.5371
C11 C 0.1889(4) 0.1175(4) 0.5845(3)
H8 H 0.1838 0.1165 0.4923
H9 H 0.2427 0.0197 0.6229
C12 C 0.0266(4) 0.1452(4) 0.6408(3)
C13 C 0.0015(4) 0.3085(4) 0.6626(3)
C14 C -0.1376(4) 0.3965(5) 0.6919(3)
H10 H -0.2303 0.3531 0.7028
C15 C -0.1332(6) 0.5497(5) 0.7042(3)
H11 H -0.2239 0.6100 0.7255
C16 C 0.0043(6) 0.6147(5) 0.6853(3)
H12 H 0.0053 0.7183 0.6930
C17 C 0.1404(5) 0.5257(4) 0.6549(3)
C18 C 0.1406(4) 0.3703(4) 0.6457(2)
loop_
_geom_bond_atom_site_label_1
_geom_bond_atom_site_label_2
_geom_bond_site_symmetry_1
_geom_bond_site_symmetry_2
Br1 C8 1_555 1_555
Br2 C17 1_555 1_555
O1 C3 1_555 1_555
O2 C12 1_555 1_555
C1 H1 1_555 1_555
C2 C1 1_555 1_555
H2 C2 1_555 1_555
H3 C2 1_555 1_555
C3 C2 1_555 1_555
C4 C3 1_555 1_555
C5 C4 1_555 1_555
H4 C5 1_555 1_555
C6 C5 1_555 1_555
H5 C6 1_555 1_555
C7 C6 1_555 1_555
H6 C7 1_555 1_555
C8 C7 1_555 1_555
C9 C1 1_555 1_555
C10 C1 1_555 1_555
H7 C10 1_555 1_555
C11 C10 1_555 1_555
H8 C11 1_555 1_555
H9 C11 1_555 1_555
C12 C11 1_555 1_555
C13 C12 1_555 1_555
C14 C13 1_555 1_555
H10 C14 1_555 1_555
C15 C14 1_555 1_555
H11 C15 1_555 1_555
C16 C15 1_555 1_555
H12 C16 1_555 1_555
C17 C16 1_555 1_555
C18 C10 1_555 1_555
C4 C9 1_555 1_555
C8 C9 1_555 1_555
C13 C18 1_555 1_555
C17 C18 1_555 1_555

#END
