
#######################################################################
#
#                 Cambridge Crystallographic Data Centre
#                                CCDC 
#
#######################################################################
#
# If this CIF has been generated from an entry in the Cambridge 
# Structural Database, then it will include bibliographic, chemical, 
# crystal, experimental, refinement or atomic coordinate data resulting 
# from the CCDC's data processing and validation procedures.
#
#######################################################################

data_GUZTAX01
_chemical_compound_source        'leaves of Psidium guajava'
_chemical_name_common            
7,9-Dihydroxy-2,2,4a-trimethyl-13-methylene-10-phenyl-1,2,2a,3,4,4a,10,10a,11,12,13,13a-dodecahydrocyclobuta[6,7]cyclonona[1,2-b]chromene-6,8-dicarbaldehyde
_chemical_formula_moiety         'C30 H34 O5'
_chemical_name_systematic        Guajadial
_chemical_properties_biological  
'tested for inhibition of the growth of human hepatoma cells'
_symmetry_cell_setting           monoclinic
_symmetry_space_group_name_H-M   'P 21'
_symmetry_Int_Tables_number      4
_space_group_name_Hall           'P 2yb'
loop_
_symmetry_equiv_pos_site_id
_symmetry_equiv_pos_as_xyz
1 x,y,z
2 -x,1/2+y,-z
_cell_length_a                   6.5752(10)
_cell_length_b                   17.504(3)
_cell_length_c                   10.7096(18)
_cell_angle_alpha                90
_cell_angle_beta                 90.862(16)
_cell_angle_gamma                90
_cell_volume                     1232.45
_exptl_crystal_colour            colorless
_exptl_crystal_description       block
_cell_formula_units_Z            2
loop_
_atom_site_label
_atom_site_type_symbol
_atom_site_fract_x
_atom_site_fract_y
_atom_site_fract_z
O1 O -0.1128(10) 0.2409(4) 0.5521(7)
O2 O 0.4163(8) 0.1949(4) 0.8427(6)
H1 H 0.4280 0.1899 0.9186
O3 O 0.3944(12) 0.2602(5) 1.0586(7)
O4 O -0.1599(11) 0.3369(4) 0.9597(9)
H2 H -0.2661 0.3537 0.9294
O5 O -0.4320(10) 0.3615(4) 0.7915(10)
C1 C -0.2137(12) 0.0854(6) 0.2039(9)
H3 H -0.3179 0.0704 0.2636
C2 C -0.1632(11) 0.1714(5) 0.2225(8)
H4 H -0.0246 0.1807 0.1967
H5 H -0.2529 0.2016 0.1694
C3 C -0.1864(11) 0.1975(5) 0.3598(8)
H6 H -0.2604 0.2448 0.3578
H7 H -0.2723 0.1607 0.3996
C4 C 0.0013(16) 0.2100(7) 0.4483(10)
C5 C 0.1192(13) 0.1378(5) 0.4871(8)
H8 H 0.0176 0.0998 0.5111
C6 C 0.2486(14) 0.1008(5) 0.3889(9)
H9 H 0.3900 0.1131 0.4065
H10 H 0.2131 0.1228 0.3084
C7 C 0.2272(14) 0.0127(6) 0.3797(10)
H11 H 0.3326 -0.0071 0.3262
H12 H 0.2475 -0.0094 0.4621
C8 C 0.0210(13) -0.0119(5) 0.3283(9)
C9 C -0.0405(11) 0.0247(5) 0.2065(8)
H13 H 0.0805 0.0469 0.1684
C10 C -0.1701(13) -0.0159(6) 0.1023(10)
H14 H -0.0897 -0.0351 0.0339
H15 H -0.2588 -0.0554 0.1340
C11 C -0.2798(14) 0.0582(6) 0.0722(9)
C12 C -0.1812(14) 0.1028(8) -0.0302(13)
H16 H -0.2273 0.0837 -0.1098
H17 H -0.0361 0.0974 -0.0235
H18 H -0.2170 0.1558 -0.0230
C13 C -0.5109(12) 0.0544(6) 0.0509(8)
H19 H -0.5397 0.0372 -0.0326
H20 H -0.5685 0.1043 0.0624
H21 H -0.5689 0.0194 0.1095
C14 C 0.149(2) 0.2715(6) 0.4043(11)
H22 H 0.2601 0.2758 0.4631
H23 H 0.0794 0.3196 0.3982
H24 H 0.2006 0.2577 0.3239
C15 C -0.0986(16) -0.0596(6) 0.3881(11)
H25 H -0.2263 -0.0716 0.3551
H26 H -0.0552 -0.0812 0.4633
C16 C 0.2570(12) 0.1528(5) 0.6066(7)
H27 H 0.3814 0.1785 0.5800
C17 C 0.1486(10) 0.2050(5) 0.6988(9)
C18 C -0.0290(13) 0.2428(5) 0.6661(12)
C19 C -0.1402(12) 0.2869(5) 0.7539(11)
C20 C -0.0611(13) 0.2988(5) 0.8742(9)
C21 C 0.1315(13) 0.2674(5) 0.9051(9)
C22 C 0.2322(13) 0.2228(5) 0.8147(9)
C23 C 0.3165(11) 0.0764(5) 0.6649(7)
C24 C 0.5112(12) 0.0473(6) 0.6523(8)
H28 H 0.6108 0.0765 0.6142
C25 C 0.5584(14) -0.0257(6) 0.6967(11)
H29 H 0.6900 -0.0445 0.6892
C26 C 0.4138(18) -0.0696(6) 0.7506(10)
H30 H 0.4455 -0.1188 0.7770
C27 C 0.2193(16) -0.0413(5) 0.7663(8)
H31 H 0.1217 -0.0707 0.8059
C28 C 0.1705(12) 0.0320(5) 0.7223(8)
H32 H 0.0394 0.0509 0.7316
C29 C -0.3290(13) 0.3244(6) 0.7189(14)
H33 H -0.3745 0.3202 0.6366
C30 C 0.2252(16) 0.2822(6) 1.0249(10)
H34 H 0.1514 0.3109 1.0816
loop_
_geom_bond_atom_site_label_1
_geom_bond_atom_site_label_2
_geom_bond_site_symmetry_1
_geom_bond_site_symmetry_2
O1 C4 1_555 1_555
O2 H1 1_555 1_555
O3 C30 1_555 1_555
O4 H2 1_555 1_555
O5 C29 1_555 1_555
C1 H3 1_555 1_555
C2 C1 1_555 1_555
H4 C2 1_555 1_555
H5 C2 1_555 1_555
C3 C2 1_555 1_555
H6 C3 1_555 1_555
H7 C3 1_555 1_555
C4 C3 1_555 1_555
C5 C4 1_555 1_555
H8 C5 1_555 1_555
C6 C5 1_555 1_555
H9 C6 1_555 1_555
H10 C6 1_555 1_555
C7 C6 1_555 1_555
H11 C7 1_555 1_555
H12 C7 1_555 1_555
C8 C7 1_555 1_555
C9 C1 1_555 1_555
H13 C9 1_555 1_555
C10 C9 1_555 1_555
H14 C10 1_555 1_555
H15 C10 1_555 1_555
C11 C1 1_555 1_555
C12 C11 1_555 1_555
H16 C12 1_555 1_555
H17 C12 1_555 1_555
H18 C12 1_555 1_555
C13 C11 1_555 1_555
H19 C13 1_555 1_555
H20 C13 1_555 1_555
H21 C13 1_555 1_555
C14 C4 1_555 1_555
H22 C14 1_555 1_555
H23 C14 1_555 1_555
H24 C14 1_555 1_555
C15 C8 1_555 1_555
H25 C15 1_555 1_555
H26 C15 1_555 1_555
C16 C5 1_555 1_555
H27 C16 1_555 1_555
C17 C16 1_555 1_555
C18 O1 1_555 1_555
C19 C18 1_555 1_555
C20 O4 1_555 1_555
C21 C20 1_555 1_555
C22 O2 1_555 1_555
C23 C16 1_555 1_555
C24 C23 1_555 1_555
H28 C24 1_555 1_555
C25 C24 1_555 1_555
H29 C25 1_555 1_555
C26 C25 1_555 1_555
H30 C26 1_555 1_555
C27 C26 1_555 1_555
H31 C27 1_555 1_555
C28 C23 1_555 1_555
H32 C28 1_555 1_555
C29 C19 1_555 1_555
H33 C29 1_555 1_555
C30 C21 1_555 1_555
H34 C30 1_555 1_555
C8 C9 1_555 1_555
C10 C11 1_555 1_555
C17 C18 1_555 1_555
C17 C22 1_555 1_555
C19 C20 1_555 1_555
C21 C22 1_555 1_555
C27 C28 1_555 1_555

#END
