
#######################################################################
#
#                 Cambridge Crystallographic Data Centre
#                                CCDC 
#
#######################################################################
#
# If this CIF has been generated from an entry in the Cambridge 
# Structural Database, then it will include bibliographic, chemical, 
# crystal, experimental, refinement or atomic coordinate data resulting 
# from the CCDC's data processing and validation procedures.
#
#######################################################################

data_GUZYEF01
_chemical_formula_moiety         'C12 H8 N2 O4'
_chemical_name_systematic        "2,2'-Bipyridine-4,4'-dicarboxylic acid"
_symmetry_cell_setting           orthorhombic
_symmetry_space_group_name_H-M   'F d d 2'
_symmetry_Int_Tables_number      43
_space_group_name_Hall           'F 2 -2d'
loop_
_symmetry_equiv_pos_site_id
_symmetry_equiv_pos_as_xyz
1 x,y,z
2 -x,-y,z
3 1/4-x,1/4+y,1/4+z
4 3/4+x,3/4-y,1/4+z
5 x,1/2+y,1/2+z
6 -x,1/2-y,1/2+z
7 1/4-x,3/4+y,3/4+z
8 3/4+x,1/4-y,3/4+z
9 1/2+x,y,1/2+z
10 1/2-x,-y,1/2+z
11 3/4-x,1/4+y,3/4+z
12 1/4+x,3/4-y,3/4+z
13 1/2+x,1/2+y,z
14 1/2-x,1/2-y,z
15 3/4-x,3/4+y,1/4+z
16 1/4+x,1/4-y,1/4+z
_cell_length_a                   37.808(8)
_cell_length_b                   14.620(3)
_cell_length_c                   3.6627(7)
_cell_angle_alpha                90
_cell_angle_beta                 90
_cell_angle_gamma                90
_cell_volume                     2024.57
_exptl_crystal_colour            colorless
_exptl_crystal_description       block
_cell_formula_units_Z            8
loop_
_atom_site_label
_atom_site_type_symbol
_atom_site_fract_x
_atom_site_fract_y
_atom_site_fract_z
O1 O 0.03825(9) 0.2923(2) 0.6320(9)
H1 H 0.0433 0.3452 0.5786
O2 O 0.09470(9) 0.2665(2) 0.5026(12)
N1 N 0.04481(10) -0.0374(2) 0.8919(12)
C1 C 0.06641(13) 0.2407(3) 0.6029(12)
C2 C 0.05876(12) 0.1429(3) 0.7020(13)
C3 C 0.08585(12) 0.0843(3) 0.7859(12)
H2 H 0.1092 0.1041 0.7758
C4 C 0.07793(12) -0.0048(3) 0.8861(13)
H3 H 0.0964 -0.0436 0.9520
C5 C 0.01814(11) 0.0198(3) 0.8006(11)
C6 C 0.02451(11) 0.1101(3) 0.7125(12)
H4 H 0.0057 0.1489 0.6602
O1A O -0.03825(9) -0.2923(2) 0.6320(9)
H1A H -0.0433 -0.3452 0.5786
O2A O -0.09470(9) -0.2665(2) 0.5026(12)
N1A N -0.04481(10) 0.0374(2) 0.8919(12)
C1A C -0.06641(13) -0.2407(3) 0.6029(12)
C2A C -0.05876(12) -0.1429(3) 0.7020(13)
C3A C -0.08585(12) -0.0843(3) 0.7859(12)
H2A H -0.1092 -0.1041 0.7758
C4A C -0.07793(12) 0.0048(3) 0.8861(13)
H3A H -0.0964 0.0436 0.9520
C5A C -0.01814(11) -0.0198(3) 0.8006(11)
C6A C -0.02451(11) -0.1101(3) 0.7125(12)
H4A H -0.0057 -0.1489 0.6602
loop_
_geom_bond_atom_site_label_1
_geom_bond_atom_site_label_2
_geom_bond_site_symmetry_1
_geom_bond_site_symmetry_2
O1 H1 1_555 1_555
O2 C1 1_555 1_555
N1 C4 1_555 1_555
C1 O1 1_555 1_555
C2 C1 1_555 1_555
C3 C2 1_555 1_555
H2 C3 1_555 1_555
C4 C3 1_555 1_555
H3 C4 1_555 1_555
C5 N1 1_555 1_555
C6 C2 1_555 1_555
H4 C6 1_555 1_555
O1A H1A 1_555 1_555
O2A C1A 1_555 1_555
N1A C4A 1_555 1_555
C1A O1A 1_555 1_555
C2A C1A 1_555 1_555
C3A C2A 1_555 1_555
H2A C3A 1_555 1_555
C4A C3A 1_555 1_555
H3A C4A 1_555 1_555
C5A C5 1_555 1_555
C6A C2A 1_555 1_555
H4A C6A 1_555 1_555
C5 C6 1_555 1_555
N1A C5A 1_555 1_555
C5A C6A 1_555 1_555

#END
