
#######################################################################
#
#                 Cambridge Crystallographic Data Centre
#                                CCDC 
#
#######################################################################
#
# If this CIF has been generated from an entry in the Cambridge 
# Structural Database, then it will include bibliographic, chemical, 
# crystal, experimental, refinement or atomic coordinate data resulting 
# from the CCDC's data processing and validation procedures.
#
#######################################################################

data_HABJEZ
_chemical_formula_moiety         'C10 H18 N1 1+,C10 H17 N1,Cl1 1-'
_chemical_name_systematic        
'bis(3aR-(3a\a,4a\b,7a\b,7b\a)-Decahydro-1H-dicyclopenta(b,d)pyrrole) hydrogen chloride'
_symmetry_cell_setting           rhombohedral
_symmetry_space_group_name_H-M   'R 3 2'
_symmetry_Int_Tables_number      155
_space_group_name_Hall           'R 3 2"'
loop_
_symmetry_equiv_pos_site_id
_symmetry_equiv_pos_as_xyz
1 x,y,z
2 1/3+x,2/3+y,2/3+z
3 2/3+x,1/3+y,1/3+z
4 -y,x-y,z
5 -x+y,-x,z
6 1/3-y,2/3+x-y,2/3+z
7 1/3-x+y,2/3-x,2/3+z
8 2/3-y,1/3+x-y,1/3+z
9 2/3-x+y,1/3-x,1/3+z
10 y,x,-z
11 2/3+y,1/3+x,1/3-z
12 1/3+y,2/3+x,2/3-z
13 x-y,-y,-z
14 -x,-x+y,-z
15 2/3+x-y,1/3-y,1/3-z
16 2/3-x,1/3-x+y,1/3-z
17 1/3+x-y,2/3-y,2/3-z
18 1/3-x,2/3-x+y,2/3-z
_cell_length_a                   17.320(2)
_cell_length_b                   17.320(2)
_cell_length_c                   16.963(2)
_cell_angle_alpha                90
_cell_angle_beta                 90
_cell_angle_gamma                120
_cell_volume                     4406.86
_exptl_crystal_colour            colorless
_cell_formula_units_Z            9
loop_
_atom_site_label
_atom_site_type_symbol
_atom_site_fract_x
_atom_site_fract_y
_atom_site_fract_z
Cl1 Cl 0.4761(1) 0.0000 0.5000
N1 N 0.4591(1) 0.0361(1) 0.3203(1)
C1 C 0.5503(2) 0.0894(2) 0.2882(2)
C2 C 0.5659(2) 0.1683(2) 0.2377(2)
C3 C 0.6217(3) 0.1707(3) 0.1692(2)
C4 C 0.5860(3) 0.0751(3) 0.1512(2)
C5 C 0.5647(2) 0.0269(2) 0.2322(2)
C6 C 0.4786(2) -0.0614(2) 0.2344(2)
C7 C 0.4748(2) -0.1296(3) 0.2950(3)
C8 C 0.3774(2) -0.1852(2) 0.3139(3)
C9 C 0.3387(2) -0.1237(2) 0.3100(2)
C10 C 0.4078(2) -0.0408(2) 0.2661(2)
H1 H 0.4622(16) 0.0168(17) 0.3685(15)
H2 H 0.4313(30) 0.0696(32) 0.3295(32)
H3 H 0.5907(18) 0.1065(19) 0.3314(15)
H4 H 0.5889(20) 0.2246(21) 0.2730(19)
H5 H 0.5125(29) 0.1615(26) 0.2217(21)
H6 H 0.6946(34) 0.2027(29) 0.1842(25)
H7 H 0.6214(25) 0.2049(23) 0.1224(21)
H8 H 0.5322 0.0535 0.1211
H9 H 0.6282 0.0659 0.1221
H10 H 0.6137(27) 0.0235(24) 0.2457(21)
H11 H 0.4635(24) -0.0880(21) 0.1896(20)
H12 H 0.5086(23) -0.0903(25) 0.3434(22)
H13 H 0.4855(28) -0.1681(30) 0.2677(26)
H14 H 0.3690 -0.2112 0.3654
H15 H 0.3487 -0.2317 0.2754
H16 H 0.2855(25) -0.1488(23) 0.2852(20)
H17 H 0.3297(21) -0.1093(22) 0.3610(20)
H18 H 0.3852(21) -0.0194(20) 0.2257(17)
loop_
_geom_bond_atom_site_label_1
_geom_bond_atom_site_label_2
_geom_bond_site_symmetry_1
_geom_bond_site_symmetry_2
N1 C1 1_555 1_555
C1 C2 1_555 1_555
C2 C3 1_555 1_555
C3 C4 1_555 1_555
C4 C5 1_555 1_555
C5 C1 1_555 1_555
C6 C5 1_555 1_555
C7 C6 1_555 1_555
C8 C7 1_555 1_555
C9 C8 1_555 1_555
C10 N1 1_555 1_555
H1 N1 1_555 1_555
H2 N1 1_555 1_555
H3 C1 1_555 1_555
H4 C2 1_555 1_555
H5 C2 1_555 1_555
H6 C3 1_555 1_555
H7 C3 1_555 1_555
H8 C4 1_555 1_555
H9 C4 1_555 1_555
H10 C5 1_555 1_555
H11 C6 1_555 1_555
H12 C7 1_555 1_555
H13 C7 1_555 1_555
H14 C8 1_555 1_555
H15 C8 1_555 1_555
H16 C9 1_555 1_555
H17 C9 1_555 1_555
H18 C10 1_555 1_555
C6 C10 1_555 1_555
C9 C10 1_555 1_555

#END
