
#######################################################################
#
#                 Cambridge Crystallographic Data Centre
#                                CCDC 
#
#######################################################################
#
# If this CIF has been generated from an entry in the Cambridge 
# Structural Database, then it will include bibliographic, chemical, 
# crystal, experimental, refinement or atomic coordinate data resulting 
# from the CCDC's data processing and validation procedures.
#
#######################################################################

data_HABNAZ01
_chemical_compound_source        'roots of Sinomenium acutum'
_chemical_name_common            
(9alpha,13alpha)-5,6,8,14-Tetradehydro-4-hydroxy-3,6-dimethoxy-17-methylmorphinan-7-one
_chemical_formula_moiety         'C19 H21 N1 O4'
_chemical_name_systematic        Sinoacutine
_symmetry_cell_setting           orthorhombic
_symmetry_space_group_name_H-M   'P 21 21 21'
_symmetry_Int_Tables_number      19
_space_group_name_Hall           'P 2ac 2ab'
loop_
_symmetry_equiv_pos_site_id
_symmetry_equiv_pos_as_xyz
1 x,y,z
2 1/2-x,-y,1/2+z
3 -x,1/2+y,1/2-z
4 1/2+x,1/2-y,-z
_cell_length_a                   10.817(2)
_cell_length_b                   11.463(2)
_cell_length_c                   13.025(2)
_cell_angle_alpha                90
_cell_angle_beta                 90
_cell_angle_gamma                90
_cell_volume                     1615.04
_exptl_crystal_colour            brown
_exptl_crystal_description       block
_cell_formula_units_Z            4
loop_
_atom_site_label
_atom_site_type_symbol
_atom_site_fract_x
_atom_site_fract_y
_atom_site_fract_z
O1 O 0.05831(16) 0.2702(2) 0.68968(14)
O2 O 0.21088(17) 0.43990(19) 0.63827(13)
O3 O 0.60864(16) 0.49527(18) 0.50712(13)
O4 O 0.78471(16) 0.4468(2) 0.64249(17)
N1 N 0.45223(19) 0.60454(19) 0.96691(16)
C1 C 0.2679(2) 0.2623(2) 0.90933(19)
H1 H 0.2787 0.2236 0.9715
C2 C 0.1719(2) 0.2299(2) 0.8458(2)
H2 H 0.1202 0.1683 0.8635
C3 C 0.1541(2) 0.2901(2) 0.75607(18)
C4 C 0.2347(2) 0.3789(2) 0.72621(17)
C5 C 0.4615(2) 0.5063(2) 0.64487(18)
H3 H 0.3978 0.5175 0.5980
C6 C 0.5755(2) 0.4926(2) 0.60869(18)
C7 C 0.6815(2) 0.4702(2) 0.6757(2)
C8 C 0.6565(2) 0.4776(3) 0.7852(2)
H4 H 0.7225 0.4715 0.8307
C9 C 0.5171(2) 0.4960(2) 0.93644(18)
H5 H 0.5960 0.4930 0.9732
C10 C 0.4455(2) 0.3845(2) 0.9606(2)
H6 H 0.5040 0.3207 0.9667
H7 H 0.4056 0.3938 1.0267
C11 C 0.3488(2) 0.3510(2) 0.88279(19)
C12 C 0.3372(2) 0.4074(2) 0.78695(18)
C13 C 0.42958(19) 0.5046(2) 0.75726(16)
C14 C 0.5437(2) 0.4927(2) 0.82304(18)
C15 C 0.3717(2) 0.6247(2) 0.78631(18)
H8 H 0.4283 0.6869 0.7678
H9 H 0.2955 0.6360 0.7483
C16 C 0.3448(2) 0.6301(2) 0.90162(19)
H10 H 0.3144 0.7074 0.9183
H11 H 0.2796 0.5749 0.9175
C17 C -0.0483(2) 0.2158(3) 0.7300(2)
H12 H -0.0305 0.1354 0.7444
H13 H -0.1142 0.2205 0.6807
H14 H -0.0727 0.2544 0.7921
C18 C 0.5152(3) 0.5287(3) 0.4377(2)
H15 H 0.4490 0.4730 0.4401
H16 H 0.5487 0.5315 0.3695
H17 H 0.4844 0.6043 0.4562
C19 C 0.5399(3) 0.7029(3) 0.9657(2)
H18 H 0.6085 0.6857 1.0099
H19 H 0.4990 0.7722 0.9894
H20 H 0.5693 0.7150 0.8970
H21 H 0.148(4) 0.418(4) 0.602(3)
loop_
_geom_bond_atom_site_label_1
_geom_bond_atom_site_label_2
_geom_bond_site_symmetry_1
_geom_bond_site_symmetry_2
O1 C3 1_555 1_555
O2 C4 1_555 1_555
O3 C6 1_555 1_555
O4 C7 1_555 1_555
N1 C9 1_555 1_555
C1 H1 1_555 1_555
C2 C1 1_555 1_555
H2 C2 1_555 1_555
C3 C2 1_555 1_555
C4 C3 1_555 1_555
C5 H3 1_555 1_555
C6 C5 1_555 1_555
C7 C6 1_555 1_555
C8 C7 1_555 1_555
H4 C8 1_555 1_555
C9 H5 1_555 1_555
C10 C9 1_555 1_555
H6 C10 1_555 1_555
H7 C10 1_555 1_555
C11 C1 1_555 1_555
C12 C4 1_555 1_555
C13 C5 1_555 1_555
C14 C8 1_555 1_555
C15 C13 1_555 1_555
H8 C15 1_555 1_555
H9 C15 1_555 1_555
C16 N1 1_555 1_555
H10 C16 1_555 1_555
H11 C16 1_555 1_555
C17 O1 1_555 1_555
H12 C17 1_555 1_555
H13 C17 1_555 1_555
H14 C17 1_555 1_555
C18 O3 1_555 1_555
H15 C18 1_555 1_555
H16 C18 1_555 1_555
H17 C18 1_555 1_555
C19 N1 1_555 1_555
H18 C19 1_555 1_555
H19 C19 1_555 1_555
H20 C19 1_555 1_555
H21 O2 1_555 1_555
C9 C14 1_555 1_555
C10 C11 1_555 1_555
C11 C12 1_555 1_555
C12 C13 1_555 1_555
C13 C14 1_555 1_555
C15 C16 1_555 1_555

#END
