
#######################################################################
#
#                 Cambridge Crystallographic Data Centre
#                                CCDC 
#
#######################################################################
#
# If this CIF has been generated from an entry in the Cambridge 
# Structural Database, then it will include bibliographic, chemical, 
# crystal, experimental, refinement or atomic coordinate data resulting 
# from the CCDC's data processing and validation procedures.
#
#######################################################################

data_HABROR
_chemical_formula_moiety         'C26 H34'
_chemical_name_systematic        1,1'-Diphenyl-1,1'-bicyloheptyl
_symmetry_cell_setting           monoclinic
_symmetry_space_group_name_H-M   'C 2/c'
_symmetry_Int_Tables_number      15
_space_group_name_Hall           '-C 2yn'
loop_
_symmetry_equiv_pos_site_id
_symmetry_equiv_pos_as_xyz
1 x,y,z
2 1/2+x,1/2+y,z
3 -x,y,1/2-z
4 1/2-x,1/2+y,1/2-z
5 -x,-y,-z
6 1/2-x,1/2-y,-z
7 x,-y,1/2+z
8 1/2+x,1/2-y,1/2+z
_cell_length_a                   20.841(13)
_cell_length_b                   20.805(16)
_cell_length_c                   19.27(2)
_cell_angle_alpha                90
_cell_angle_beta                 104.25(6)
_cell_angle_gamma                90
_cell_volume                     8098.33
_exptl_crystal_colour            Colorless
_cell_formula_units_Z            16
loop_
_atom_site_label
_atom_site_type_symbol
_atom_site_fract_x
_atom_site_fract_y
_atom_site_fract_z
C1 C 0.3452(2) -0.1026(3) 0.2384(3)
C2 C 0.2727(2) -0.1225(3) 0.2037(3)
C3 C 0.2622(3) -0.1920(3) 0.1779(3)
C4 C 0.2604(3) -0.1989(3) 0.0982(3)
C5 C 0.3245(3) -0.1854(3) 0.0770(3)
C6 C 0.3576(3) -0.1218(3) 0.1045(3)
C7 C 0.3882(3) -0.1217(3) 0.1861(3)
C8 C 0.3715(3) -0.1400(3) 0.3093(3)
C9 C 0.3296(3) -0.1582(3) 0.3529(3)
C10 C 0.3583(3) -0.1873(3) 0.4184(3)
C11 C 0.4206(3) -0.2002(3) 0.4430(3)
C12 C 0.4625(3) -0.1853(3) 0.3996(3)
C13 C 0.4374(3) -0.1557(3) 0.3338(3)
C14 C 0.3503(3) -0.0258(3) 0.2551(3)
C15 C 0.2974(3) -0.0050(3) 0.2957(3)
C16 C 0.3038(3) 0.0645(3) 0.3232(3)
C17 C 0.3431(3) 0.0704(3) 0.4013(3)
C18 C 0.4162(3) 0.0552(3) 0.4162(3)
C19 C 0.4321(3) -0.0087(3) 0.3850(3)
C20 C 0.4201(3) -0.0079(3) 0.3036(3)
C21 C 0.3383(3) 0.0111(3) 0.1837(3)
C22 C 0.2757(3) 0.0284(3) 0.1442(3)
C23 C 0.2650(3) 0.0568(3) 0.0766(3)
C24 C 0.3174(4) 0.0695(3) 0.0477(3)
C25 C 0.3807(4) 0.0554(3) 0.0859(3)
C26 C 0.3909(3) 0.0274(3) 0.1526(3)
H1 H 0.2564 -0.0958 0.1625
H2 H 0.2463 -0.1141 0.2371
H3 H 0.2223 -0.2088 0.1874
H4 H 0.2988 -0.2164 0.2053
H5 H 0.2279 -0.1695 0.0719
H6 H 0.2458 -0.2417 0.0833
H7 H 0.3172 -0.1875 0.0259
H8 H 0.3550 -0.2190 0.0971
H9 H 0.3244 -0.088 0.0936
H10 H 0.3910 -0.1119 0.0796
H11 H 0.4042 -0.1644 0.1989
H12 H 0.4260 -0.0937 0.1955
H13 H 0.4671 -0.1456 0.3044
H14 H 0.5088 -0.1949 0.4159
H15 H 0.4376 -0.2195 0.4891
H16 H 0.3239 -0.1990 0.4470
H17 H 0.2831 -0.1495 0.3364
H18 H 0.4283 0.0357 0.2919
H19 H 0.4529 -0.0343 0.2901
H20 H 0.4770 -0.0211 0.4066
H21 H 0.4032 -0.0407 0.3964
H22 H 0.4375 0.0882 0.3950
H23 H 0.4352 0.0559 0.4669
H24 H 0.3384 0.1133 0.4180
H25 H 0.3235 0.0416 0.4292
H26 H 0.3261 0.0888 0.2939
H27 H 0.2605 0.0825 0.3180
H28 H 0.3006 -0.0324 0.3366
H29 H 0.2544 -0.0113 0.2641
H30 H 0.2383 0.0200 0.1637
H31 H 0.2211 0.0684 0.0505
H32 H 0.3098 0.0879 0.0007
H33 H 0.4177 0.0652 0.0662
H34 H 0.4352 0.0176 0.1792
C27 C 0.0401(3) 0.2168(2) 0.7570(3)
C28 C 0.0698(3) 0.2797(3) 0.7928(3)
C29 C 0.1465(3) 0.2825(3) 0.8170(3)
C30 C 0.1741(3) 0.2636(3) 0.8949(3)
C31 C 0.1645(3) 0.1944(3) 0.9142(3)
C32 C 0.0934(3) 0.1690(3) 0.8872(3)
C33 C 0.0717(3) 0.1600(3) 0.8061(3)
C34 C 0.0575(3) 0.2096(3) 0.6828(3)
C35 C 0.0642(3) 0.2626(3) 0.6411(3)
C36 C 0.0752(3) 0.2554(3) 0.5732(3)
C37 C 0.0809(3) 0.1957(4) 0.5467(3)
C38 C 0.0778(3) 0.1428(3) 0.5867(3)
C39 C 0.0663(3) 0.1493(3) 0.6549(3)
H35 H 0.1097 0.1458 0.7906
H36 H 0.0400 0.1256 0.7965
H37 H 0.0892 0.1289 0.9103
H38 H 0.0639 0.1993 0.9009
H39 H 0.1931 0.1682 0.8938
H40 H 0.1780 0.1894 0.9653
H41 H 0.2204 0.2738 0.9088
H42 H 0.1522 0.2901 0.9227
H43 H 0.1639 0.2529 0.7881
H44 H 0.1614 0.3248 0.8087
H45 H 0.0532 0.2868 0.8344
H46 H 0.0541 0.3141 0.7598
H47 H 0.0613 0.3047 0.6605
H48 H 0.0782 0.2921 0.5440
H49 H 0.0887 0.1906 0.4999
H50 H 0.0825 0.1009 0.5678
H51 H 0.0647 0.1121 0.6840
C27B C -0.0401(3) 0.2168(2) 0.7430(3)
C28B C -0.0698(3) 0.2797(3) 0.7072(3)
C33B C -0.0717(3) 0.1600(3) 0.6939(3)
C34B C -0.0575(3) 0.2096(3) 0.8172(3)
C29B C -0.1465(3) 0.2825(3) 0.6830(3)
H45B H -0.0532 0.2868 0.6656
H46B H -0.0541 0.3141 0.7402
C32B C -0.0934(3) 0.1690(3) 0.6128(3)
H35B H -0.1097 0.1458 0.7094
H36B H -0.0400 0.1256 0.7035
C35B C -0.0642(3) 0.2626(3) 0.8589(3)
C39B C -0.0663(3) 0.1493(3) 0.8451(3)
C30B C -0.1741(3) 0.2636(3) 0.6051(3)
H43B H -0.1639 0.2529 0.7119
H44B H -0.1614 0.3248 0.6913
C31B C -0.1645(3) 0.1944(3) 0.5858(3)
H37B H -0.0892 0.1289 0.5897
H38B H -0.0639 0.1993 0.5991
C36B C -0.0752(3) 0.2554(3) 0.9268(3)
H47B H -0.0613 0.3047 0.8395
C38B C -0.0778(3) 0.1428(3) 0.9133(3)
H51B H -0.0647 0.1121 0.8160
H41B H -0.2204 0.2738 0.5912
H42B H -0.1522 0.2901 0.5773
H39B H -0.1931 0.1682 0.6062
H40B H -0.1780 0.1894 0.5347
C37B C -0.0809(3) 0.1957(4) 0.9533(3)
H48B H -0.0782 0.2921 0.9560
H50B H -0.0825 0.1009 0.9322
H49B H -0.0887 0.1906 1.0001
C40 C 0.0357(3) 0.0870(3) 0.2397(3)
C41 C 0.0463(3) 0.1502(3) 0.2019(3)
C42 C 0.1082(3) 0.1527(3) 0.1728(3)
C43 C 0.0946(4) 0.1337(3) 0.0933(3)
C44 C 0.0760(3) 0.0638(3) 0.0766(3)
C45 C 0.0207(3) 0.0391(3) 0.1077(3)
C46 C 0.0410(3) 0.0298(3) 0.1891(3)
C47 C 0.0911(3) 0.0799(3) 0.3096(3)
C48 C 0.1201(3) 0.1324(3) 0.3508(3)
C49 C 0.1665(3) 0.1245(3) 0.4157(3)
C50 C 0.1857(3) 0.0655(3) 0.4425(3)
C51 C 0.1600(3) 0.0120(3) 0.4020(3)
C52 C 0.1141(3) 0.0195(3) 0.3370(3)
H52 H 0.0475 0.1850 0.2350
H53 H 0.0085 0.1566 0.1624
H54 H 0.1405 0.1240 0.2006
H55 H 0.1262 0.1954 0.1789
H56 H 0.1330 0.1437 0.0763
H57 H 0.0586 0.1593 0.0665
H58 H 0.1144 0.0385 0.0973
H59 H 0.0651 0.0567 0.0258
H60 H 0.0043 -0.0009 0.0852
H61 H -0.0145 0.0699 0.0962
H62 H 0.0145 -0.0043 0.2011
H63 H 0.0860 0.0152 0.2012
H64 H 0.1068 0.1750 0.3341
H65 H 0.1861 0.1616 0.4423
H66 H 0.2167 0.0608 0.4882
H67 H 0.1728 -0.0301 0.4207
H68 H 0.0986 -0.0180 0.3087
C40B C -0.0357(3) 0.0870(3) 0.2603(3)
C41B C -0.0463(3) 0.1502(3) 0.2981(3)
C46B C -0.0410(3) 0.0298(3) 0.3109(3)
C47B C -0.0911(3) 0.0799(3) 0.1904(3)
C42B C -0.1082(3) 0.1527(3) 0.3272(3)
H52B H -0.0475 0.1850 0.2650
H53B H -0.0085 0.1566 0.3376
C45B C -0.0207(3) 0.0391(3) 0.3923(3)
H62B H -0.0145 -0.0043 0.2989
H63B H -0.0860 0.0152 0.2988
C48B C -0.1201(3) 0.1324(3) 0.1492(3)
C52B C -0.1141(3) 0.0195(3) 0.1630(3)
C43B C -0.0946(4) 0.1337(3) 0.4067(3)
H54B H -0.1405 0.1240 0.2994
H55B H -0.1262 0.1954 0.3211
C44B C -0.0760(3) 0.0638(3) 0.4234(3)
H60B H -0.0043 -0.0009 0.4148
H61B H 0.0145 0.0699 0.4038
C49B C -0.1665(3) 0.1245(3) 0.0843(3)
H64B H -0.1068 0.1750 0.1659
C51B C -0.1600(3) 0.0120(3) 0.0980(3)
H68B H -0.0986 -0.0180 0.1913
H56B H -0.1330 0.1437 0.4237
H57B H -0.0586 0.1593 0.4335
H58B H -0.1144 0.0385 0.4027
H59B H -0.0651 0.0567 0.4742
C50B C -0.1857(3) 0.0655(3) 0.0575(3)
H65B H -0.1861 0.1616 0.0577
H67B H -0.1728 -0.0301 0.0793
H66B H -0.2167 0.0608 0.0118
loop_
_geom_bond_atom_site_label_1
_geom_bond_atom_site_label_2
_geom_bond_site_symmetry_1
_geom_bond_site_symmetry_2
C1 C2 1_555 1_555
C2 C3 1_555 1_555
C3 C4 1_555 1_555
C4 C5 1_555 1_555
C5 C6 1_555 1_555
C6 C7 1_555 1_555
C7 C1 1_555 1_555
C8 C1 1_555 1_555
C9 C8 1_555 1_555
C10 C9 1_555 1_555
C11 C10 1_555 1_555
C12 C11 1_555 1_555
C13 C8 1_555 1_555
C14 C1 1_555 1_555
C15 C14 1_555 1_555
C16 C15 1_555 1_555
C17 C16 1_555 1_555
C18 C17 1_555 1_555
C19 C18 1_555 1_555
C20 C14 1_555 1_555
C21 C14 1_555 1_555
C22 C21 1_555 1_555
C23 C22 1_555 1_555
C24 C23 1_555 1_555
C25 C24 1_555 1_555
C26 C21 1_555 1_555
H1 C2 1_555 1_555
H2 C2 1_555 1_555
H3 C3 1_555 1_555
H4 C3 1_555 1_555
H5 C4 1_555 1_555
H6 C4 1_555 1_555
H7 C5 1_555 1_555
H8 C5 1_555 1_555
H9 C6 1_555 1_555
H10 C6 1_555 1_555
H11 C7 1_555 1_555
H12 C7 1_555 1_555
H13 C13 1_555 1_555
H14 C12 1_555 1_555
H15 C11 1_555 1_555
H16 C10 1_555 1_555
H17 C9 1_555 1_555
H18 C20 1_555 1_555
H19 C20 1_555 1_555
H20 C19 1_555 1_555
H21 C19 1_555 1_555
H22 C18 1_555 1_555
H23 C18 1_555 1_555
H24 C17 1_555 1_555
H25 C17 1_555 1_555
H26 C16 1_555 1_555
H27 C16 1_555 1_555
H28 C15 1_555 1_555
H29 C15 1_555 1_555
H30 C22 1_555 1_555
H31 C23 1_555 1_555
H32 C24 1_555 1_555
H33 C25 1_555 1_555
H34 C26 1_555 1_555
C27 C28 1_555 1_555
C28 C29 1_555 1_555
C29 C30 1_555 1_555
C30 C31 1_555 1_555
C31 C32 1_555 1_555
C32 C33 1_555 1_555
C33 C27 1_555 1_555
C34 C27 1_555 1_555
C35 C34 1_555 1_555
C36 C35 1_555 1_555
C37 C36 1_555 1_555
C38 C37 1_555 1_555
C39 C34 1_555 1_555
H35 C33 1_555 1_555
H36 C33 1_555 1_555
H37 C32 1_555 1_555
H38 C32 1_555 1_555
H39 C31 1_555 1_555
H40 C31 1_555 1_555
H41 C30 1_555 1_555
H42 C30 1_555 1_555
H43 C29 1_555 1_555
H44 C29 1_555 1_555
H45 C28 1_555 1_555
H46 C28 1_555 1_555
H47 C35 1_555 1_555
H48 C36 1_555 1_555
H49 C37 1_555 1_555
H50 C38 1_555 1_555
H51 C39 1_555 1_555
C40 C41 1_555 1_555
C41 C42 1_555 1_555
C42 C43 1_555 1_555
C43 C44 1_555 1_555
C44 C45 1_555 1_555
C45 C46 1_555 1_555
C46 C40 1_555 1_555
C47 C40 1_555 1_555
C48 C47 1_555 1_555
C49 C48 1_555 1_555
C50 C49 1_555 1_555
C51 C50 1_555 1_555
C52 C47 1_555 1_555
H52 C41 1_555 1_555
H53 C41 1_555 1_555
H54 C42 1_555 1_555
H55 C42 1_555 1_555
H56 C43 1_555 1_555
H57 C43 1_555 1_555
H58 C44 1_555 1_555
H59 C44 1_555 1_555
H60 C45 1_555 1_555
H61 C45 1_555 1_555
H62 C46 1_555 1_555
H63 C46 1_555 1_555
H64 C48 1_555 1_555
H65 C49 1_555 1_555
H66 C50 1_555 1_555
H67 C51 1_555 1_555
H68 C52 1_555 1_555
C27B C27 1_555 1_555
C28B C27B 1_555 1_555
C33B C27B 1_555 1_555
C34B C27B 1_555 1_555
C29B C28B 1_555 1_555
H45B C28B 1_555 1_555
H46B C28B 1_555 1_555
C32B C33B 1_555 1_555
H35B C33B 1_555 1_555
H36B C33B 1_555 1_555
C35B C34B 1_555 1_555
C39B C34B 1_555 1_555
C30B C29B 1_555 1_555
H43B C29B 1_555 1_555
H44B C29B 1_555 1_555
C31B C32B 1_555 1_555
H37B C32B 1_555 1_555
H38B C32B 1_555 1_555
C36B C35B 1_555 1_555
H47B C35B 1_555 1_555
C38B C39B 1_555 1_555
H51B C39B 1_555 1_555
H41B C30B 1_555 1_555
H42B C30B 1_555 1_555
H39B C31B 1_555 1_555
H40B C31B 1_555 1_555
C37B C36B 1_555 1_555
H48B C36B 1_555 1_555
H50B C38B 1_555 1_555
H49B C37B 1_555 1_555
C40B C40 1_555 1_555
C41B C40B 1_555 1_555
C46B C40B 1_555 1_555
C47B C40B 1_555 1_555
C42B C41B 1_555 1_555
H52B C41B 1_555 1_555
H53B C41B 1_555 1_555
C45B C46B 1_555 1_555
H62B C46B 1_555 1_555
H63B C46B 1_555 1_555
C48B C47B 1_555 1_555
C52B C47B 1_555 1_555
C43B C42B 1_555 1_555
H54B C42B 1_555 1_555
H55B C42B 1_555 1_555
C44B C45B 1_555 1_555
H60B C45B 1_555 1_555
H61B C45B 1_555 1_555
C49B C48B 1_555 1_555
H64B C48B 1_555 1_555
C51B C52B 1_555 1_555
H68B C52B 1_555 1_555
H56B C43B 1_555 1_555
H57B C43B 1_555 1_555
H58B C44B 1_555 1_555
H59B C44B 1_555 1_555
C50B C49B 1_555 1_555
H65B C49B 1_555 1_555
H67B C51B 1_555 1_555
H66B C50B 1_555 1_555
C12 C13 1_555 1_555
C19 C20 1_555 1_555
C25 C26 1_555 1_555
C38 C39 1_555 1_555
C51 C52 1_555 1_555
C30B C31B 1_555 1_555
C38B C37B 1_555 1_555
C43B C44B 1_555 1_555
C51B C50B 1_555 1_555

#END
