
#######################################################################
#
#                 Cambridge Crystallographic Data Centre
#                                CCDC 
#
#######################################################################
#
# If this CIF has been generated from an entry in the Cambridge 
# Structural Database, then it will include bibliographic, chemical, 
# crystal, experimental, refinement or atomic coordinate data resulting 
# from the CCDC's data processing and validation procedures.
#
#######################################################################

data_HABTIQ
_chemical_formula_moiety         'C12 H17 N3 O1,2(H2 O1)'
_chemical_name_systematic        
'5-(cyclohexylmethyl)-4,5-dihydropyrrolo[3,4-c]pyrazol-6(2H)-one dihydrate'
_symmetry_cell_setting           monoclinic
_symmetry_space_group_name_H-M   'P 21/c'
_symmetry_Int_Tables_number      14
_space_group_name_Hall           '-P 2ybc'
loop_
_symmetry_equiv_pos_site_id
_symmetry_equiv_pos_as_xyz
1 x,y,z
2 -x,1/2+y,1/2-z
3 -x,-y,-z
4 x,1/2-y,1/2+z
_cell_length_a                   12.2885(9)
_cell_length_b                   6.3383(5)
_cell_length_c                   17.5830(16)
_cell_angle_alpha                90
_cell_angle_beta                 100.490(7)
_cell_angle_gamma                90
_cell_volume                     1346.62
_exptl_crystal_colour            colorless
_exptl_crystal_description       plate
_cell_formula_units_Z            4
loop_
_atom_site_label
_atom_site_type_symbol
_atom_site_fract_x
_atom_site_fract_y
_atom_site_fract_z
O1 O 0.18713(11) 0.5497(2) 0.16220(8)
N1 N 0.04490(13) 0.8151(3) -0.06549(10)
H1 H 0.0067 0.9154 -0.0903
N2 N 0.07041(13) 0.8089(3) 0.01284(10)
N3 N 0.22478(12) 0.3367(3) 0.06302(10)
C1 C 0.08444(16) 0.6504(3) -0.10143(13)
H2 H 0.0760 0.6269 -0.1544
C2 C 0.13980(15) 0.5254(3) -0.04296(12)
C3 C 0.12855(15) 0.6293(3) 0.02428(12)
C4 C 0.18181(15) 0.5089(3) 0.09227(12)
C5 C 0.20202(16) 0.3249(3) -0.02226(12)
H3 H 0.1574 0.2025 -0.0404
H4 H 0.2699 0.3212 -0.0430
C6 C 0.28168(16) 0.1687(3) 0.11089(13)
H5 H 0.2394 0.0394 0.1001
H6 H 0.2838 0.2039 0.1648
C7 C 0.39963(15) 0.1291(3) 0.09831(12)
H7 H 0.3958 0.0800 0.0450
C8 C 0.47011(16) 0.3263(3) 0.10912(14)
H8 H 0.4697 0.3841 0.1601
H9 H 0.4384 0.4309 0.0712
C9 C 0.58983(18) 0.2823(4) 0.10035(16)
H10 H 0.5914 0.2435 0.0472
H11 H 0.6335 0.4096 0.1121
C10 C 0.64067(18) 0.1065(4) 0.15358(16)
H12 H 0.6493 0.1537 0.2068
H13 H 0.7136 0.0739 0.1430
C11 C 0.57008(18) -0.0910(4) 0.14330(15)
H14 H 0.6020 -0.1954 0.1812
H15 H 0.5699 -0.1494 0.0923
C12 C 0.45197(17) -0.0454(4) 0.15260(14)
H16 H 0.4514 -0.0040 0.2056
H17 H 0.4082 -0.1730 0.1421
O2 O 0.13747(14) 0.2570(3) 0.27762(11)
H18 H 0.121(2) 0.130(5) 0.2506(19)
H19 H 0.157(2) 0.349(4) 0.2468(17)
O3 O 0.06131(16) -0.0971(3) 0.19160(9)
H20 H 0.104(2) -0.204(5) 0.1852(16)
H21 H -0.004(3) -0.146(5) 0.1990(19)
loop_
_geom_bond_atom_site_label_1
_geom_bond_atom_site_label_2
_geom_bond_site_symmetry_1
_geom_bond_site_symmetry_2
O1 C4 1_555 1_555
N1 H1 1_555 1_555
N2 N1 1_555 1_555
N3 C4 1_555 1_555
C1 N1 1_555 1_555
H2 C1 1_555 1_555
C2 C1 1_555 1_555
C3 N2 1_555 1_555
C4 C3 1_555 1_555
C5 N3 1_555 1_555
H3 C5 1_555 1_555
H4 C5 1_555 1_555
C6 N3 1_555 1_555
H5 C6 1_555 1_555
H6 C6 1_555 1_555
C7 C6 1_555 1_555
H7 C7 1_555 1_555
C8 C7 1_555 1_555
H8 C8 1_555 1_555
H9 C8 1_555 1_555
C9 C8 1_555 1_555
H10 C9 1_555 1_555
H11 C9 1_555 1_555
C10 C9 1_555 1_555
H12 C10 1_555 1_555
H13 C10 1_555 1_555
C11 C10 1_555 1_555
H14 C11 1_555 1_555
H15 C11 1_555 1_555
C12 C7 1_555 1_555
H16 C12 1_555 1_555
H17 C12 1_555 1_555
O2 H18 1_555 1_555
H19 O2 1_555 1_555
O3 H20 1_555 1_555
H21 O3 1_555 1_555
C2 C3 1_555 1_555
C2 C5 1_555 1_555
C11 C12 1_555 1_555

#END
