
#######################################################################
#
#                 Cambridge Crystallographic Data Centre
#                                CCDC 
#
#######################################################################
#
# If this CIF has been generated from an entry in the Cambridge 
# Structural Database, then it will include bibliographic, chemical, 
# crystal, experimental, refinement or atomic coordinate data resulting 
# from the CCDC's data processing and validation procedures.
#
#######################################################################

data_HABVEO
_chemical_formula_moiety         'C19 H16 N2 O3'
_chemical_name_systematic        
'8-((4-methylbenzoyl)amino)quinolin-5-yl acetate'
_symmetry_cell_setting           monoclinic
_symmetry_space_group_name_H-M   'P 21/c'
_symmetry_Int_Tables_number      14
_space_group_name_Hall           '-P 2ybc'
loop_
_symmetry_equiv_pos_site_id
_symmetry_equiv_pos_as_xyz
1 x,y,z
2 -x,1/2+y,1/2-z
3 -x,-y,-z
4 x,1/2-y,1/2+z
_cell_length_a                   6.1225(6)
_cell_length_b                   16.4269(15)
_cell_length_c                   15.5669(14)
_cell_angle_alpha                90
_cell_angle_beta                 93.055(3)
_cell_angle_gamma                90
_cell_volume                     1563.4
_exptl_crystal_description       block
_chemical_melting_point          '181-182 deg.C'
_cell_formula_units_Z            4
loop_
_atom_site_label
_atom_site_type_symbol
_atom_site_fract_x
_atom_site_fract_y
_atom_site_fract_z
O1 O 0.1630(2) 0.61954(10) 0.56868(9)
O2 O 1.0738(3) 0.49540(9) 0.76221(11)
N1 N 0.9561(2) 0.62575(9) 0.76285(9)
H1 H 0.9904 0.6746 0.7823
O3 O 0.3199(3) 0.62785(10) 0.44282(10)
N2 N 0.7045(3) 0.75841(9) 0.75294(10)
C1 C 1.2860(3) 0.58914(11) 0.84701(11)
C2 C 0.6314(3) 0.69182(11) 0.70744(11)
C3 C 0.4285(3) 0.69187(12) 0.65895(11)
C4 C 0.1581(3) 0.62357(11) 0.48182(13)
C5 C 0.7633(3) 0.62045(11) 0.71087(11)
C6 C 1.0971(3) 0.56536(12) 0.78717(12)
C7 C 0.6948(3) 0.55250(12) 0.66602(12)
H2 H 0.7825 0.5048 0.6681
C8 C 0.3686(3) 0.62018(13) 0.61346(12)
C9 C 1.6459(3) 0.62156(13) 0.96134(12)
C10 C 1.3124(3) 0.66464(12) 0.88554(12)
H3 H 1.2079 0.7063 0.8731
C11 C 0.4953(3) 0.55324(13) 0.61701(12)
H4 H 0.4494 0.5059 0.5860
C12 C 1.4441(3) 0.53091(12) 0.86515(13)
H5 H 1.4310 0.4788 0.8388
C13 C 0.5762(3) 0.82229(12) 0.75296(14)
H6 H 0.6262 0.8687 0.7846
C14 C 0.2986(3) 0.76218(13) 0.66207(13)
H7 H 0.1609 0.7644 0.6310
C15 C 1.4896(3) 0.68010(13) 0.94203(13)
H8 H 1.5039 0.7322 0.9681
C16 C 1.6211(3) 0.54734(14) 0.92110(14)
H9 H 1.7285 0.5064 0.9321
C17 C 0.3703(4) 0.82664(13) 0.70948(14)
H10 H 0.2827 0.8741 0.7133
C18 C 1.8353(4) 0.63908(17) 1.02497(15)
H11 H 1.9423 0.6736 0.9977
H12 H 1.9049 0.5878 1.0433
H13 H 1.7815 0.6672 1.0752
C19 C -0.0703(4) 0.62165(15) 0.44424(17)
H14 H -0.1264 0.5672 0.4470
H15 H -0.0723 0.6390 0.3853
H16 H -0.1596 0.6575 0.4762
loop_
_geom_bond_atom_site_label_1
_geom_bond_atom_site_label_2
_geom_bond_site_symmetry_1
_geom_bond_site_symmetry_2
O1 C4 1_555 1_555
O2 C6 1_555 1_555
N1 H1 1_555 1_555
O3 C4 1_555 1_555
N2 C2 1_555 1_555
C1 C6 1_555 1_555
C2 C3 1_555 1_555
C3 C8 1_555 1_555
C4 C19 1_555 1_555
C5 N1 1_555 1_555
C6 N1 1_555 1_555
C7 C5 1_555 1_555
H2 C7 1_555 1_555
C8 O1 1_555 1_555
C9 C15 1_555 1_555
C10 C1 1_555 1_555
H3 C10 1_555 1_555
C11 C7 1_555 1_555
H4 C11 1_555 1_555
C12 C1 1_555 1_555
H5 C12 1_555 1_555
C13 N2 1_555 1_555
H6 C13 1_555 1_555
C14 C3 1_555 1_555
H7 C14 1_555 1_555
C15 C10 1_555 1_555
H8 C15 1_555 1_555
C16 C9 1_555 1_555
H9 C16 1_555 1_555
C17 C13 1_555 1_555
H10 C17 1_555 1_555
C18 C9 1_555 1_555
H11 C18 1_555 1_555
H12 C18 1_555 1_555
H13 C18 1_555 1_555
C19 H14 1_555 1_555
H15 C19 1_555 1_555
H16 C19 1_555 1_555
C2 C5 1_555 1_555
C8 C11 1_555 1_555
C12 C16 1_555 1_555
C14 C17 1_555 1_555

#END
