
#######################################################################
#
#                 Cambridge Crystallographic Data Centre
#                                CCDC 
#
#######################################################################
#
# If this CIF has been generated from an entry in the Cambridge 
# Structural Database, then it will include bibliographic, chemical, 
# crystal, experimental, refinement or atomic coordinate data resulting 
# from the CCDC's data processing and validation procedures.
#
#######################################################################

data_HABXEP
_chemical_formula_moiety         'C19 H17 N1 O3'
_chemical_name_systematic        
'Methyl 2-acetyl-1-phenyl-1,1a,2,6b-tetrahydrocyclopropa[b]indole-1-carboxylate'
_symmetry_cell_setting           monoclinic
_symmetry_space_group_name_H-M   'P 21/n'
_symmetry_Int_Tables_number      14
_space_group_name_Hall           '-P 2yn'
loop_
_symmetry_equiv_pos_site_id
_symmetry_equiv_pos_as_xyz
1 x,y,z
2 1/2-x,1/2+y,1/2-z
3 -x,-y,-z
4 1/2+x,1/2-y,1/2+z
_cell_length_a                   11.1039(4)
_cell_length_b                   8.1523(3)
_cell_length_c                   18.0817(6)
_cell_angle_alpha                90
_cell_angle_beta                 103.045(4)
_cell_angle_gamma                90
_cell_volume                     1594.56
_cell_formula_units_Z            4
loop_
_atom_site_label
_atom_site_type_symbol
_atom_site_fract_x
_atom_site_fract_y
_atom_site_fract_z
O1 O 0.95186(19) 0.6800(3) 1.03651(11)
N1 N 0.6216(2) 1.0463(3) 0.95413(12)
C1 C 0.5366(2) 0.9746(4) 0.89176(14)
O2 O 0.8025(2) 0.6681(3) 1.10037(12)
C2 C 0.5334(2) 0.8062(4) 0.90240(15)
C3 C 0.8052(2) 0.8208(3) 0.90826(14)
C4 C 0.7586(2) 0.7926(3) 0.97850(14)
C5 C 0.8375(3) 0.7077(4) 1.04423(16)
O3 O 0.6102(3) 1.3103(3) 0.91619(15)
C6 C 0.8853(3) 0.9491(4) 0.90423(15)
H1 H 0.9076 1.0208 0.9450
C7 C 0.4641(3) 1.0492(4) 0.82870(16)
H2 H 0.4652 1.1622 0.8218
C8 C 0.6756(3) 0.9186(4) 1.00634(15)
H3 H 0.6876 0.9382 1.0610
C9 C 0.7719(3) 0.7181(4) 0.84653(15)
H4 H 0.7173 0.6322 0.8479
C10 C 0.6210(3) 0.7599(4) 0.97436(15)
H5 H 0.5967 0.6778 1.0079
C11 C 0.4571(3) 0.7084(4) 0.84960(17)
H6 H 0.4548 0.5955 0.8567
C12 C 0.3889(3) 0.9467(6) 0.77584(17)
H7 H 0.3404 0.9929 0.7321
C13 C 0.8986(3) 0.8675(4) 0.77995(18)
H8 H 0.9302 0.8829 0.7370
C14 C 0.9326(3) 0.9722(4) 0.84071(18)
H9 H 0.9870 1.0580 0.8390
C15 C 0.6577(3) 1.2071(4) 0.9626(2)
C16 C 0.8187(3) 0.7409(5) 0.78228(16)
H10 H 0.7958 0.6705 0.7410
C17 C 1.0317(3) 0.5917(5) 1.09883(19)
H11 H 1.1120 0.5782 1.0883
H12 H 0.9967 0.4860 1.1043
H13 H 1.0390 0.6528 1.1450
C18 C 0.3840(3) 0.7810(6) 0.78600(18)
H14 H 0.3315 0.7169 0.7501
C19 C 0.7560(4) 1.2485(5) 1.0313(2)
H15 H 0.7697 1.3648 1.0332
H16 H 0.8312 1.1931 1.0287
H17 H 0.7301 1.2142 1.0761
loop_
_geom_bond_atom_site_label_1
_geom_bond_atom_site_label_2
_geom_bond_site_symmetry_1
_geom_bond_site_symmetry_2
O1 C5 1_555 1_555
N1 C1 1_555 1_555
C1 C2 1_555 1_555
O2 C5 1_555 1_555
C2 C10 1_555 1_555
C3 C4 1_555 1_555
C4 C5 1_555 1_555
O3 C15 1_555 1_555
C6 C3 1_555 1_555
H1 C6 1_555 1_555
C7 C1 1_555 1_555
H2 C7 1_555 1_555
C8 N1 1_555 1_555
H3 C8 1_555 1_555
C9 C3 1_555 1_555
H4 C9 1_555 1_555
C10 C4 1_555 1_555
H5 C10 1_555 1_555
C11 C2 1_555 1_555
H6 C11 1_555 1_555
C12 C7 1_555 1_555
H7 C12 1_555 1_555
C13 H8 1_555 1_555
C14 C6 1_555 1_555
H9 C14 1_555 1_555
C15 N1 1_555 1_555
C16 C9 1_555 1_555
H10 C16 1_555 1_555
C17 O1 1_555 1_555
H11 C17 1_555 1_555
H12 C17 1_555 1_555
H13 C17 1_555 1_555
C18 C11 1_555 1_555
H14 C18 1_555 1_555
C19 C15 1_555 1_555
H15 C19 1_555 1_555
H16 C19 1_555 1_555
H17 C19 1_555 1_555
C4 C8 1_555 1_555
C8 C10 1_555 1_555
C12 C18 1_555 1_555
C13 C14 1_555 1_555
C13 C16 1_555 1_555

#END
