
#######################################################################
#
#                 Cambridge Crystallographic Data Centre
#                                CCDC 
#
#######################################################################
#
# If this CIF has been generated from an entry in the Cambridge 
# Structural Database, then it will include bibliographic, chemical, 
# crystal, experimental, refinement or atomic coordinate data resulting 
# from the CCDC's data processing and validation procedures.
#
#######################################################################

data_HABXUG
_chemical_formula_moiety         'C24 H16 N2 O2'
_chemical_name_systematic        
2,10-diphenyl-1,2-dihydro-3H-pyrrolo[3',4':3,4]pyrrolo[2,1-b][1,3]benzoxazol-3-one
_symmetry_cell_setting           triclinic
_symmetry_space_group_name_H-M   'P -1'
_symmetry_Int_Tables_number      2
_space_group_name_Hall           '-P 1'
loop_
_symmetry_equiv_pos_site_id
_symmetry_equiv_pos_as_xyz
1 x,y,z
2 -x,-y,-z
_cell_length_a                   7.1492(4)
_cell_length_b                   10.4607(5)
_cell_length_c                   12.1607(6)
_cell_angle_alpha                77.086(3)
_cell_angle_beta                 77.386(4)
_cell_angle_gamma                87.983(4)
_cell_volume                     864.958
_exptl_crystal_colour            colorless
_exptl_crystal_description       block
_cell_formula_units_Z            2
loop_
_atom_site_label
_atom_site_type_symbol
_atom_site_fract_x
_atom_site_fract_y
_atom_site_fract_z
O1 O 0.1498(3) 0.91813(15) 0.91210(14)
O2 O 0.2066(3) 0.60271(17) 1.13029(16)
N1 N 0.2118(3) 0.81883(18) 0.76183(17)
N2 N 0.2618(3) 0.46141(19) 1.00351(17)
C1 C 0.1374(4) 1.0180(2) 0.6115(2)
H1 H 0.1629 0.9809 0.5472
C2 C 0.0723(4) 1.1454(2) 0.6051(2)
H2 H 0.0525 1.1943 0.5348
C3 C 0.0361(4) 1.2018(3) 0.7000(2)
H3 H -0.0074 1.2875 0.6922
C4 C 0.0633(4) 1.1329(2) 0.8066(2)
H4 H 0.0395 1.1701 0.8709
C5 C 0.1272(4) 1.0071(2) 0.8123(2)
C6 C 0.1627(3) 0.9488(2) 0.7182(2)
C7 C 0.2452(3) 0.6963(2) 0.7312(2)
C8 C 0.2814(4) 0.6784(2) 0.6125(2)
C9 C 0.3955(4) 0.7654(3) 0.5206(2)
H5 H 0.4464 0.8399 0.5334
C10 C 0.4337(4) 0.7419(3) 0.4108(2)
H6 H 0.5091 0.8010 0.3500
C11 C 0.3607(5) 0.6315(3) 0.3909(3)
H7 H 0.3857 0.6162 0.3166
C12 C 0.2505(4) 0.5436(3) 0.4810(3)
H8 H 0.2027 0.4681 0.4679
C13 C 0.2108(4) 0.5673(3) 0.5908(2)
H9 H 0.1354 0.5076 0.6512
C14 C 0.2453(3) 0.6105(2) 0.8338(2)
C15 C 0.2147(4) 0.6741(2) 0.9265(2)
C16 C 0.1946(4) 0.8035(2) 0.8781(2)
C17 C 0.2250(4) 0.5822(2) 1.0333(2)
C18 C 0.2797(4) 0.4690(2) 0.8785(2)
H10 H 0.1845 0.4136 0.8653
H11 H 0.4065 0.4437 0.8431
C19 C 0.2816(3) 0.3392(2) 1.0786(2)
C20 C 0.2655(4) 0.3267(3) 1.1968(2)
H12 H 0.2398 0.3997 1.2293
C21 C 0.2881(4) 0.2053(3) 1.2654(3)
H13 H 0.2781 0.1981 1.3441
C22 C 0.3246(4) 0.0958(3) 1.2216(3)
H14 H 0.3393 0.0149 1.2694
C23 C 0.3391(4) 0.1073(3) 1.1052(3)
H15 H 0.3618 0.0332 1.0740
C24 C 0.3204(4) 0.2276(3) 1.0343(3)
H16 H 0.3340 0.2341 0.9554
loop_
_geom_bond_atom_site_label_1
_geom_bond_atom_site_label_2
_geom_bond_site_symmetry_1
_geom_bond_site_symmetry_2
O1 C5 1_555 1_555
O2 C17 1_555 1_555
N1 C6 1_555 1_555
N2 C17 1_555 1_555
C1 H1 1_555 1_555
C2 C1 1_555 1_555
H2 C2 1_555 1_555
C3 C2 1_555 1_555
H3 C3 1_555 1_555
C4 C3 1_555 1_555
H4 C4 1_555 1_555
C5 C4 1_555 1_555
C6 C1 1_555 1_555
C7 N1 1_555 1_555
C8 C7 1_555 1_555
C9 C8 1_555 1_555
H5 C9 1_555 1_555
C10 C9 1_555 1_555
H6 C10 1_555 1_555
C11 C10 1_555 1_555
H7 C11 1_555 1_555
C12 C11 1_555 1_555
H8 C12 1_555 1_555
C13 C8 1_555 1_555
H9 C13 1_555 1_555
C14 C7 1_555 1_555
C15 C14 1_555 1_555
C16 O1 1_555 1_555
C17 C15 1_555 1_555
C18 N2 1_555 1_555
H10 C18 1_555 1_555
H11 C18 1_555 1_555
C19 N2 1_555 1_555
C20 C19 1_555 1_555
H12 C20 1_555 1_555
C21 C20 1_555 1_555
H13 C21 1_555 1_555
C22 C21 1_555 1_555
H14 C22 1_555 1_555
C23 C22 1_555 1_555
H15 C23 1_555 1_555
C24 C19 1_555 1_555
H16 C24 1_555 1_555
N1 C16 1_555 1_555
C5 C6 1_555 1_555
C12 C13 1_555 1_555
C14 C18 1_555 1_555
C15 C16 1_555 1_555
C23 C24 1_555 1_555

#END
