
#######################################################################
#
#                 Cambridge Crystallographic Data Centre
#                                CCDC 
#
#######################################################################
#
# If this CIF has been generated from an entry in the Cambridge 
# Structural Database, then it will include bibliographic, chemical, 
# crystal, experimental, refinement or atomic coordinate data resulting 
# from the CCDC's data processing and validation procedures.
#
#######################################################################

data_HACGIE
_chemical_formula_moiety         'C17 H14 N2 O3'
_chemical_name_systematic        
't-butyl 1,1-dicyano-6-oxo-1a,6-dihydrocyclopropa[a]indene-6a(1H)-carboxylate'
_symmetry_cell_setting           monoclinic
_symmetry_space_group_name_H-M   'P 21/c'
_symmetry_Int_Tables_number      14
_space_group_name_Hall           '-P 2ybc'
loop_
_symmetry_equiv_pos_site_id
_symmetry_equiv_pos_as_xyz
1 x,y,z
2 -x,1/2+y,1/2-z
3 -x,-y,-z
4 x,1/2-y,1/2+z
_cell_length_a                   9.6075(19)
_cell_length_b                   13.172(3)
_cell_length_c                   12.233(2)
_cell_angle_alpha                90
_cell_angle_beta                 98.62(3)
_cell_angle_gamma                90
_cell_volume                     1530.6
_cell_formula_units_Z            4
loop_
_atom_site_label
_atom_site_type_symbol
_atom_site_fract_x
_atom_site_fract_y
_atom_site_fract_z
O1 O 1.0775(2) 0.71850(16) 0.78071(14)
O2 O 0.71103(16) 0.76987(13) 0.87850(14)
O3 O 0.8465(2) 0.88073(18) 0.80306(19)
N1 N 0.8667(3) 0.9636(2) 1.1036(2)
N2 N 1.2920(3) 0.84782(19) 1.0779(2)
C1 C 0.9608(2) 0.71337(18) 1.04572(19)
H1 H 0.8745 0.7028 1.0779
C2 C 1.0689(2) 0.63123(17) 1.05138(18)
C3 C 1.1170(3) 0.56651(19) 1.1388(2)
H2 H 1.0800 0.5697 1.2048
C4 C 1.2211(3) 0.4974(2) 1.1251(2)
H3 H 1.2549 0.4537 1.1828
C5 C 1.2763(3) 0.4920(2) 1.0263(2)
H4 H 1.3458 0.4445 1.0187
C6 C 1.2290(3) 0.5562(2) 0.9395(2)
H5 H 1.2657 0.5527 0.8734
C7 C 1.1252(3) 0.62640(18) 0.95364(19)
C8 C 1.0592(2) 0.7037(2) 0.8753(2)
C9 C 0.9543(2) 0.76255(18) 0.93455(18)
C10 C 1.0219(2) 0.82087(18) 1.03924(18)
C11 C 0.9372(3) 0.9020(2) 1.0756(2)
C12 C 1.1727(3) 0.83674(19) 1.0611(2)
C13 C 0.8302(3) 0.8114(2) 0.8636(2)
C14 C 0.5724(2) 0.8079(2) 0.8180(2)
C15 C 0.4702(3) 0.7316(3) 0.8513(3)
H6 H 0.3768 0.7477 0.8159
H7 H 0.4732 0.7333 0.9301
H8 H 0.4953 0.6649 0.8292
C16 C 0.5714(3) 0.8040(3) 0.6943(3)
H9 H 0.6393 0.8513 0.6741
H10 H 0.4795 0.8217 0.6571
H11 H 0.5950 0.7367 0.6733
C17 C 0.5487(4) 0.9129(3) 0.8596(3)
H12 H 0.6174 0.9584 0.8375
H13 H 0.5575 0.9118 0.9388
H14 H 0.4560 0.9356 0.8292
loop_
_geom_bond_atom_site_label_1
_geom_bond_atom_site_label_2
_geom_bond_site_symmetry_1
_geom_bond_site_symmetry_2
O1 C8 1_555 1_555
O2 C13 1_555 1_555
O3 C13 1_555 1_555
N1 C11 1_555 1_555
N2 C12 1_555 1_555
C1 H1 1_555 1_555
C2 C1 1_555 1_555
C3 C2 1_555 1_555
H2 C3 1_555 1_555
C4 C3 1_555 1_555
H3 C4 1_555 1_555
C5 C4 1_555 1_555
H4 C5 1_555 1_555
C6 C5 1_555 1_555
H5 C6 1_555 1_555
C7 C2 1_555 1_555
C8 C7 1_555 1_555
C9 C1 1_555 1_555
C10 C1 1_555 1_555
C11 C10 1_555 1_555
C12 C10 1_555 1_555
C13 C9 1_555 1_555
C14 O2 1_555 1_555
C15 C14 1_555 1_555
H6 C15 1_555 1_555
H7 C15 1_555 1_555
H8 C15 1_555 1_555
C16 C14 1_555 1_555
H9 C16 1_555 1_555
H10 C16 1_555 1_555
H11 C16 1_555 1_555
C17 C14 1_555 1_555
H12 C17 1_555 1_555
H13 C17 1_555 1_555
H14 C17 1_555 1_555
C6 C7 1_555 1_555
C8 C9 1_555 1_555
C9 C10 1_555 1_555

#END
