
#######################################################################
#
#                 Cambridge Crystallographic Data Centre
#                                CCDC 
#
#######################################################################
#
# If this CIF has been generated from an entry in the Cambridge 
# Structural Database, then it will include bibliographic, chemical, 
# crystal, experimental, refinement or atomic coordinate data resulting 
# from the CCDC's data processing and validation procedures.
#
#######################################################################

data_HACHAW
_chemical_formula_moiety         'C18 H19 F3 O3'
_chemical_name_systematic        
'Cyclohexyl (4-phenyl-4-(trifluoromethyl)oxetan-2-ylidene)acetate'
_symmetry_cell_setting           triclinic
_symmetry_space_group_name_H-M   'P -1'
_symmetry_Int_Tables_number      2
_space_group_name_Hall           '-P 1'
loop_
_symmetry_equiv_pos_site_id
_symmetry_equiv_pos_as_xyz
1 x,y,z
2 -x,-y,-z
_cell_length_a                   8.3805(17)
_cell_length_b                   9.3597(19)
_cell_length_c                   11.327(2)
_cell_angle_alpha                96.34(3)
_cell_angle_beta                 95.40(3)
_cell_angle_gamma                107.19(3)
_cell_volume                     836.049
_exptl_crystal_colour            colorless
_exptl_crystal_description       block
_cell_formula_units_Z            2
loop_
_atom_site_label
_atom_site_type_symbol
_atom_site_fract_x
_atom_site_fract_y
_atom_site_fract_z
F1 F 0.70238(18) -0.16284(14) 0.82730(13)
F2 F 0.90289(15) 0.03129(15) 0.80186(12)
F3 F 0.81351(15) 0.01638(15) 0.97337(10)
O1 O -0.00425(14) -0.26164(13) 0.59087(10)
O2 O 0.23711(14) -0.16114(13) 0.51420(10)
O3 O 0.48173(14) -0.00397(13) 0.86462(9)
C1 C -0.2437(2) -0.45437(19) 0.48498(15)
H1 H -0.3141 -0.4199 0.5402
H2 H -0.2033 -0.5317 0.5200
C2 C -0.3487(2) -0.52304(19) 0.36337(16)
H3 H -0.2812 -0.5660 0.3109
H4 H -0.4490 -0.6062 0.3740
C3 C -0.4047(2) -0.4050(2) 0.30421(17)
H5 H -0.4804 -0.3684 0.3531
H6 H -0.4683 -0.4511 0.2241
C4 C -0.2533(2) -0.2725(2) 0.29125(16)
H7 H -0.2926 -0.1949 0.2556
H8 H -0.1828 -0.3076 0.2365
C5 C -0.1476(2) -0.20250(19) 0.41262(15)
H9 H -0.0463 -0.1206 0.4016
H10 H -0.2141 -0.1583 0.4651
C6 C -0.09499(19) -0.32222(18) 0.47063(14)
H11 H -0.0198 -0.3598 0.4203
C7 C 0.1610(2) -0.18401(17) 0.59954(14)
C8 C 0.2333(2) -0.13412(18) 0.72470(14)
H12 H 0.1649 -0.1560 0.7867
C9 C 0.3960(2) -0.05780(17) 0.75107(13)
C10 C 0.5449(2) 0.00446(19) 0.68752(14)
H13 H 0.5346 0.0833 0.6384
H14 H 0.5842 -0.0730 0.6430
C11 C 0.63865(19) 0.06597(18) 0.81614(14)
C12 C 0.7654(2) -0.0131(2) 0.85534(17)
C13 C 0.70374(18) 0.23403(18) 0.85418(13)
C14 C 0.6660(2) 0.2981(2) 0.96017(15)
H15 H 0.5985 0.2360 1.0092
C15 C 0.7270(3) 0.4526(2) 0.99388(16)
H16 H 0.7010 0.4966 1.0663
C16 C 0.8254(2) 0.5440(2) 0.92364(17)
H17 H 0.8676 0.6502 0.9479
C17 C 0.8623(2) 0.4806(2) 0.81807(16)
H18 H 0.9301 0.5434 0.7695
C18 C 0.8011(2) 0.32583(19) 0.78250(14)
H19 H 0.8256 0.2826 0.7092
loop_
_geom_bond_atom_site_label_1
_geom_bond_atom_site_label_2
_geom_bond_site_symmetry_1
_geom_bond_site_symmetry_2
F1 C12 1_555 1_555
F2 C12 1_555 1_555
F3 C12 1_555 1_555
O1 C6 1_555 1_555
O2 C7 1_555 1_555
O3 C9 1_555 1_555
C1 H1 1_555 1_555
H2 C1 1_555 1_555
C2 C1 1_555 1_555
H3 C2 1_555 1_555
H4 C2 1_555 1_555
C3 C2 1_555 1_555
H5 C3 1_555 1_555
H6 C3 1_555 1_555
C4 C3 1_555 1_555
H7 C4 1_555 1_555
H8 C4 1_555 1_555
C5 C4 1_555 1_555
H9 C5 1_555 1_555
H10 C5 1_555 1_555
C6 C1 1_555 1_555
H11 C6 1_555 1_555
C7 O1 1_555 1_555
C8 C7 1_555 1_555
H12 C8 1_555 1_555
C9 C8 1_555 1_555
C10 C9 1_555 1_555
H13 C10 1_555 1_555
H14 C10 1_555 1_555
C11 O3 1_555 1_555
C12 C11 1_555 1_555
C13 C11 1_555 1_555
C14 C13 1_555 1_555
H15 C14 1_555 1_555
C15 C14 1_555 1_555
H16 C15 1_555 1_555
C16 C15 1_555 1_555
H17 C16 1_555 1_555
C17 C16 1_555 1_555
H18 C17 1_555 1_555
C18 C13 1_555 1_555
H19 C18 1_555 1_555
C5 C6 1_555 1_555
C10 C11 1_555 1_555
C17 C18 1_555 1_555

#END
