
#######################################################################
#
#                 Cambridge Crystallographic Data Centre
#                                CCDC 
#
#######################################################################
#
# If this CIF has been generated from an entry in the Cambridge 
# Structural Database, then it will include bibliographic, chemical, 
# crystal, experimental, refinement or atomic coordinate data resulting 
# from the CCDC's data processing and validation procedures.
#
#######################################################################

data_HACJEC
_chemical_formula_moiety         'C24 H24 N2 O2 S1'
_chemical_name_systematic        
4-(2-Methyl-1-((4-methylphenyl)sulfonyl)-4-vinylpyrrolidin-3-ylidene)-4-phenylbut-2-enenitrile
_symmetry_cell_setting           monoclinic
_symmetry_space_group_name_H-M   'C 2/c'
_symmetry_Int_Tables_number      15
_space_group_name_Hall           '-C 2yn'
loop_
_symmetry_equiv_pos_site_id
_symmetry_equiv_pos_as_xyz
1 x,y,z
2 -x,y,1/2-z
3 1/2+x,1/2+y,z
4 1/2-x,1/2+y,1/2-z
5 -x,-y,-z
6 x,-y,1/2+z
7 1/2-x,1/2-y,-z
8 1/2+x,1/2-y,1/2+z
_cell_length_a                   37.200(8)
_cell_length_b                   7.0923(16)
_cell_length_c                   17.560(4)
_cell_angle_alpha                90
_cell_angle_beta                 104.543(3)
_cell_angle_gamma                90
_cell_volume                     4484.48
_cell_formula_units_Z            8
loop_
_atom_site_label
_atom_site_type_symbol
_atom_site_fract_x
_atom_site_fract_y
_atom_site_fract_z
C1 C 0.01879(8) -0.3262(4) 0.44672(17)
H1 H -0.0078 -0.3381 0.4310
H2 H 0.0260 -0.2669 0.4974
H3 H 0.0299 -0.4491 0.4495
N1 N 0.11245(4) 0.1774(2) 0.23840(9)
O1 O 0.05152(4) 0.33347(19) 0.20300(9)
S1 S 0.067577(15) 0.15034(7) 0.20438(3)
C2 C 0.03176(6) -0.2075(3) 0.38720(14)
N2 N 0.27214(6) -0.1550(3) 0.61307(12)
O2 O 0.06292(4) 0.0440(2) 0.13344(8)
C3 C 0.03238(6) -0.0134(3) 0.39223(14)
H4 H 0.0258 0.0444 0.4343
C4 C 0.04246(6) 0.0969(3) 0.33654(13)
H5 H 0.0426 0.2276 0.3411
C5 C 0.05243(5) 0.0123(3) 0.27353(12)
C6 C 0.05173(6) -0.1815(3) 0.26702(13)
H6 H 0.0581 -0.2399 0.2249
C7 C 0.04136(7) -0.2880(3) 0.32404(15)
H7 H 0.0409 -0.4186 0.3194
C8 C 0.13606(6) 0.0100(3) 0.23813(13)
H8 H 0.1410 -0.0070 0.1869
H9 H 0.1241 -0.1027 0.2512
C9 C 0.17189(6) 0.0504(3) 0.30047(11)
H10 H 0.1818 -0.0675 0.3267
C10 C 0.15837(5) 0.1756(2) 0.35790(11)
C11 C 0.12577(6) 0.2883(3) 0.31226(11)
H11 H 0.1064 0.2902 0.3411
C12 C 0.13514(7) 0.4902(3) 0.29410(15)
H12 H 0.1553 0.4890 0.2690
H13 H 0.1422 0.5609 0.3422
H14 H 0.1138 0.5476 0.2597
C13 C 0.20141(7) 0.1459(3) 0.26886(13)
H15 H 0.1940 0.2470 0.2348
C14 C 0.23591(8) 0.0991(4) 0.28515(16)
H16 H 0.2444 -0.0012 0.3190
H17 H 0.2523 0.1656 0.2631
C15 C 0.17125(5) 0.1808(3) 0.43621(11)
C16 C 0.20266(6) 0.0665(3) 0.47633(12)
H18 H 0.2135 -0.0103 0.4453
C17 C 0.21733(6) 0.0619(3) 0.55349(12)
H19 H 0.2074 0.1382 0.5862
C18 C 0.24791(7) -0.0575(3) 0.58705(13)
C19 C 0.15290(6) 0.3017(3) 0.48551(11)
C20 C 0.16478(8) 0.4836(4) 0.50559(16)
H20 H 0.1850 0.5316 0.4898
C21 C 0.14676(11) 0.5947(5) 0.5491(2)
H21 H 0.1548 0.7173 0.5623
C22 C 0.11733(11) 0.5253(6) 0.57267(18)
H22 H 0.1050 0.6017 0.6010
C23 C 0.10560(8) 0.3444(5) 0.55512(16)
H23 H 0.0857 0.2967 0.5724
C24 C 0.12349(6) 0.2323(4) 0.51149(13)
H24 H 0.1156 0.1090 0.4996
loop_
_geom_bond_atom_site_label_1
_geom_bond_atom_site_label_2
_geom_bond_site_symmetry_1
_geom_bond_site_symmetry_2
C1 H1 1_555 1_555
H2 C1 1_555 1_555
H3 C1 1_555 1_555
N1 S1 1_555 1_555
O1 S1 1_555 1_555
S1 O2 1_555 1_555
C2 C1 1_555 1_555
N2 C18 1_555 1_555
C3 C2 1_555 1_555
H4 C3 1_555 1_555
C4 C3 1_555 1_555
H5 C4 1_555 1_555
C5 S1 1_555 1_555
C6 C5 1_555 1_555
H6 C6 1_555 1_555
C7 C2 1_555 1_555
H7 C7 1_555 1_555
C8 N1 1_555 1_555
H8 C8 1_555 1_555
H9 C8 1_555 1_555
C9 C8 1_555 1_555
H10 C9 1_555 1_555
C10 C9 1_555 1_555
C11 N1 1_555 1_555
H11 C11 1_555 1_555
C12 C11 1_555 1_555
H12 C12 1_555 1_555
H13 C12 1_555 1_555
H14 C12 1_555 1_555
C13 C9 1_555 1_555
H15 C13 1_555 1_555
C14 C13 1_555 1_555
H16 C14 1_555 1_555
H17 C14 1_555 1_555
C15 C10 1_555 1_555
C16 C15 1_555 1_555
H18 C16 1_555 1_555
C17 C16 1_555 1_555
H19 C17 1_555 1_555
C18 C17 1_555 1_555
C19 C15 1_555 1_555
C20 C19 1_555 1_555
H20 C20 1_555 1_555
C21 C20 1_555 1_555
H21 C21 1_555 1_555
C22 C21 1_555 1_555
H22 C22 1_555 1_555
C23 C22 1_555 1_555
H23 C23 1_555 1_555
C24 C19 1_555 1_555
H24 C24 1_555 1_555
C4 C5 1_555 1_555
C6 C7 1_555 1_555
C10 C11 1_555 1_555
C23 C24 1_555 1_555

#END
