
#######################################################################
#
#                 Cambridge Crystallographic Data Centre
#                                CCDC 
#
#######################################################################
#
# If this CIF has been generated from an entry in the Cambridge 
# Structural Database, then it will include bibliographic, chemical, 
# crystal, experimental, refinement or atomic coordinate data resulting 
# from the CCDC's data processing and validation procedures.
#
#######################################################################

data_HACPEI
_chemical_formula_moiety         'C23 H27 N1 O2'
_chemical_name_systematic        
6a-Allyl-1-benzyl-9b-methyl-2a,3,6,6a,8,9,9a,9b-octahydro-1H-cyclohepta[cd]indole-2,7-dione
_symmetry_cell_setting           orthorhombic
_symmetry_space_group_name_H-M   'P b c a'
_symmetry_Int_Tables_number      61
_space_group_name_Hall           '-P 2ac 2ab'
loop_
_symmetry_equiv_pos_site_id
_symmetry_equiv_pos_as_xyz
1 x,y,z
2 1/2+x,1/2-y,-z
3 -x,1/2+y,1/2-z
4 1/2-x,-y,1/2+z
5 -x,-y,-z
6 1/2-x,1/2+y,z
7 x,1/2-y,1/2+z
8 1/2+x,y,1/2-z
_cell_length_a                   9.23960(10)
_cell_length_b                   14.8406(2)
_cell_length_c                   27.0972(3)
_cell_angle_alpha                90
_cell_angle_beta                 90
_cell_angle_gamma                90
_cell_volume                     3715.6
_exptl_crystal_colour            colorless
_exptl_crystal_description       block
_cell_formula_units_Z            8
loop_
_atom_site_label
_atom_site_type_symbol
_atom_site_fract_x
_atom_site_fract_y
_atom_site_fract_z
O1 O 0.08775(16) 0.67833(9) 0.26496(5)
C1 C 0.0875(2) 0.65085(11) 0.30767(7)
N1 N -0.03104(16) 0.62523(10) 0.33308(5)
C2 C -0.1746(2) 0.62174(12) 0.31107(7)
C3 C -0.2354(2) 0.52744(12) 0.30748(6)
C4 C -0.1506(2) 0.45611(13) 0.29133(7)
C5 C -0.2095(2) 0.37076(14) 0.28477(8)
C6 C -0.3545(2) 0.35653(13) 0.29449(8)
C7 C -0.4396(2) 0.42645(14) 0.31131(7)
C8 C -0.3808(2) 0.51169(13) 0.31777(7)
C9 C -0.00476(19) 0.59742(13) 0.38408(7)
C10 C 0.16448(19) 0.58983(12) 0.38674(6)
C11 C 0.22003(19) 0.64213(12) 0.34062(7)
C12 C 0.2940(2) 0.73461(13) 0.34527(7)
C13 C 0.4382(2) 0.73484(15) 0.37052(8)
C14 C 0.4771(2) 0.68784(15) 0.40963(8)
C15 C 0.3907(2) 0.62264(14) 0.44019(8)
C16 C 0.22410(19) 0.62432(12) 0.43716(7)
C17 C 0.1690(2) 0.71964(13) 0.44868(7)
O2 O 0.24251(17) 0.77320(10) 0.47129(5)
C18 C 0.0169(2) 0.74332(15) 0.43231(8)
C19 C -0.0756(2) 0.66170(16) 0.42090(8)
C20 C 0.1687(2) 0.55988(15) 0.47941(7)
C21 C 0.1611(3) 0.60136(17) 0.52972(8)
C22 C 0.2437(3) 0.5795(2) 0.56703(8)
C23 C 0.2022(2) 0.48941(13) 0.37837(8)
H1 H -0.2395 0.6613 0.3284
H2 H -0.1638 0.6444 0.2756
H3 H -0.0513 0.4657 0.2855
H4 H -0.1467 0.3232 0.2766
H5 H -0.3986 0.2989 0.2904
H6 H -0.5400 0.4140 0.3183
H7 H -0.4367 0.5590 0.3307
H8 H -0.0492 0.5382 0.3859
H9 H 0.2900 0.6019 0.3231
H10 H 0.2322 0.7699 0.3636
H11 H 0.3022 0.7623 0.3122
H12 H 0.5035 0.7750 0.3556
H13 H 0.5739 0.6950 0.4197
H14 H 0.4194 0.6283 0.4766
H15 H 0.4210 0.5615 0.4287
H16 H -0.0261 0.7814 0.4601
H17 H 0.0261 0.7786 0.4034
H18 H -0.0986 0.6273 0.4491
H19 H -0.1683 0.6790 0.4058
H20 H 0.2431 0.5084 0.4842
H21 H 0.0721 0.5317 0.4704
H22 H 0.0895 0.6452 0.5365
H23 H 0.2362 0.6048 0.5980
H24 H 0.3123 0.5343 0.5634
H25 H 0.3073 0.4875 0.3760
H26 H 0.1659 0.4552 0.4061
H27 H 0.1663 0.4666 0.3443
loop_
_geom_bond_atom_site_label_1
_geom_bond_atom_site_label_2
_geom_bond_site_symmetry_1
_geom_bond_site_symmetry_2
O1 C1 1_555 1_555
C1 N1 1_555 1_555
N1 C2 1_555 1_555
C2 C3 1_555 1_555
C3 C4 1_555 1_555
C4 C5 1_555 1_555
C5 C6 1_555 1_555
C6 C7 1_555 1_555
C7 C8 1_555 1_555
C8 C3 1_555 1_555
C9 N1 1_555 1_555
C10 C9 1_555 1_555
C11 C1 1_555 1_555
C12 C11 1_555 1_555
C13 C12 1_555 1_555
C14 C13 1_555 1_555
C15 C14 1_555 1_555
C16 C10 1_555 1_555
C17 C16 1_555 1_555
O2 C17 1_555 1_555
C18 C17 1_555 1_555
C19 C9 1_555 1_555
C20 C16 1_555 1_555
C21 C20 1_555 1_555
C22 C21 1_555 1_555
C23 C10 1_555 1_555
H1 C2 1_555 1_555
H2 C2 1_555 1_555
H3 C4 1_555 1_555
H4 C5 1_555 1_555
H5 C6 1_555 1_555
H6 C7 1_555 1_555
H7 C8 1_555 1_555
H8 C9 1_555 1_555
H9 C11 1_555 1_555
H10 C12 1_555 1_555
H11 C12 1_555 1_555
H12 C13 1_555 1_555
H13 C14 1_555 1_555
H14 C15 1_555 1_555
H15 C15 1_555 1_555
H16 C18 1_555 1_555
H17 C18 1_555 1_555
H18 C19 1_555 1_555
H19 C19 1_555 1_555
H20 C20 1_555 1_555
H21 C20 1_555 1_555
H22 C21 1_555 1_555
H23 C22 1_555 1_555
H24 C22 1_555 1_555
H25 C23 1_555 1_555
H26 C23 1_555 1_555
H27 C23 1_555 1_555
C10 C11 1_555 1_555
C15 C16 1_555 1_555
C18 C19 1_555 1_555

#END
