
#######################################################################
#
#                 Cambridge Crystallographic Data Centre
#                                CCDC 
#
#######################################################################
#
# If this CIF has been generated from an entry in the Cambridge 
# Structural Database, then it will include bibliographic, chemical, 
# crystal, experimental, refinement or atomic coordinate data resulting 
# from the CCDC's data processing and validation procedures.
#
#######################################################################

data_HACPOS
_chemical_formula_moiety         'C10 H12 N2 O2'
_chemical_name_systematic        N-(((Benzyloxy)imino)methyl)acetamide
_symmetry_cell_setting           monoclinic
_symmetry_space_group_name_H-M   'P 21/c'
_symmetry_Int_Tables_number      14
_space_group_name_Hall           '-P 2ybc'
loop_
_symmetry_equiv_pos_site_id
_symmetry_equiv_pos_as_xyz
1 x,y,z
2 -x,1/2+y,1/2-z
3 -x,-y,-z
4 x,1/2-y,1/2+z
_cell_length_a                   16.0446(14)
_cell_length_b                   4.7640(4)
_cell_length_c                   13.4292(15)
_cell_angle_alpha                90
_cell_angle_beta                 94.887(7)
_cell_angle_gamma                90
_cell_volume                     1022.75
_exptl_crystal_colour            colorless
_exptl_crystal_description       needle
_cell_formula_units_Z            4
loop_
_atom_site_label
_atom_site_type_symbol
_atom_site_fract_x
_atom_site_fract_y
_atom_site_fract_z
O1 O 0.26999(8) 0.0812(3) 0.96125(9)
O2 O 0.41139(9) 0.5230(3) 0.70236(10)
N1 N 0.31023(10) -0.0416(3) 0.88170(11)
N2 N 0.38043(9) 0.0812(3) 0.74699(10)
H1 H 0.3851 -0.0983 0.7330
C1 C 0.17265(12) 0.0061(4) 1.08117(14)
C2 C 0.10625(16) 0.1798(6) 1.05119(16)
H2 H 0.0914 0.2083 0.9819
C3 C 0.06122(16) 0.3125(6) 1.12039(18)
H3 H 0.0159 0.4317 1.0984
C4 C 0.08128(15) 0.2741(5) 1.22059(16)
H4 H 0.0503 0.3666 1.2681
C5 C 0.14560(14) 0.1033(5) 1.25109(15)
H5 H 0.1596 0.0745 1.3205
C6 C 0.19125(13) -0.0302(5) 1.18209(15)
H6 H 0.2364 -0.1492 1.2050
C7 C 0.22257(16) -0.1329(5) 1.00590(17)
H7 H 0.2605 -0.2751 1.0389
H8 H 0.1849 -0.2277 0.9542
C8 C 0.33988(11) 0.1546(4) 0.82979(12)
H9 H 0.3341 0.3459 0.8479
C9 C 0.41358(11) 0.2704(3) 0.68584(13)
C10 C 0.45221(13) 0.1536(4) 0.59705(13)
H10 H 0.5085 0.2317 0.5944
H11 H 0.4177 0.2038 0.5359
H12 H 0.4558 -0.0512 0.6027
loop_
_geom_bond_atom_site_label_1
_geom_bond_atom_site_label_2
_geom_bond_site_symmetry_1
_geom_bond_site_symmetry_2
O1 N1 1_555 1_555
O2 C9 1_555 1_555
N1 C8 1_555 1_555
N2 H1 1_555 1_555
C1 C2 1_555 1_555
C2 H2 1_555 1_555
C3 C2 1_555 1_555
H3 C3 1_555 1_555
C4 C3 1_555 1_555
H4 C4 1_555 1_555
C5 C4 1_555 1_555
H5 C5 1_555 1_555
C6 C1 1_555 1_555
H6 C6 1_555 1_555
C7 O1 1_555 1_555
H7 C7 1_555 1_555
H8 C7 1_555 1_555
C8 N2 1_555 1_555
H9 C8 1_555 1_555
C9 N2 1_555 1_555
C10 C9 1_555 1_555
H10 C10 1_555 1_555
H11 C10 1_555 1_555
H12 C10 1_555 1_555
C1 C7 1_555 1_555
C5 C6 1_555 1_555

#END
