
#######################################################################
#
#                 Cambridge Crystallographic Data Centre
#                                CCDC 
#
#######################################################################
#
# If this CIF has been generated from an entry in the Cambridge 
# Structural Database, then it will include bibliographic, chemical, 
# crystal, experimental, refinement or atomic coordinate data resulting 
# from the CCDC's data processing and validation procedures.
#
#######################################################################

data_HACQOT
_chemical_formula_moiety         'C22 H15 Br2 N1 O1'
_chemical_name_systematic        
4'-Bromo-4-(4-bromobenzoyl)-3,5-dimethylbiphenyl-2-carbonitrile
_symmetry_cell_setting           monoclinic
_symmetry_space_group_name_H-M   'P 21/c'
_symmetry_Int_Tables_number      14
_space_group_name_Hall           '-P 2ybc'
loop_
_symmetry_equiv_pos_site_id
_symmetry_equiv_pos_as_xyz
1 x,y,z
2 -x,1/2+y,1/2-z
3 -x,-y,-z
4 x,1/2-y,1/2+z
_cell_length_a                   7.8071(7)
_cell_length_b                   30.742(3)
_cell_length_c                   8.1999(7)
_cell_angle_alpha                90
_cell_angle_beta                 103.4080(10)
_cell_angle_gamma                90
_cell_volume                     1914.38
_exptl_crystal_colour            colorless
_exptl_crystal_description       block
_cell_formula_units_Z            4
loop_
_atom_site_label
_atom_site_type_symbol
_atom_site_fract_x
_atom_site_fract_y
_atom_site_fract_z
Br1 Br 0.77327(6) 1.006131(12) 0.18204(5)
Br2 Br 0.07925(6) 0.578464(11) 0.61789(5)
C1 C 0.5126(4) 0.84931(10) 0.7015(3)
C2 C 0.6308(4) 0.81501(10) 0.7430(4)
C3 C 0.5639(4) 0.77240(10) 0.7323(4)
C4 C 0.3835(4) 0.76390(9) 0.6741(3)
C5 C 0.2720(4) 0.79934(9) 0.6324(4)
H1 H 0.1520 0.7943 0.5933
C6 C 0.3322(4) 0.84215(10) 0.6465(4)
C7 C 0.8261(5) 0.82296(13) 0.8001(5)
H2 H 0.8798 0.8199 0.7065
H3 H 0.8766 0.8022 0.8851
H4 H 0.8464 0.8518 0.8449
C8 C 0.6835(5) 0.73781(12) 0.8010(4)
C9 C 0.2045(5) 0.87938(10) 0.6073(5)
H5 H 0.0892 0.8684 0.5569
H6 H 0.2414 0.8990 0.5311
H7 H 0.2012 0.8945 0.7090
C10 C 0.5811(4) 0.89543(10) 0.7354(4)
C11 C 0.6327(4) 0.92094(10) 0.6006(4)
C12 C 0.6973(5) 0.96266(11) 0.6350(4)
H8 H 0.7111 0.9740 0.7425
C13 C 0.7410(5) 0.98740(11) 0.5124(5)
H9 H 0.7851 1.0154 0.5362
C14 C 0.7194(4) 0.97066(10) 0.3539(4)
C15 C 0.6576(5) 0.92957(11) 0.3154(4)
H10 H 0.6441 0.9186 0.2074
C16 C 0.6151(5) 0.90434(11) 0.4411(4)
H11 H 0.5745 0.8761 0.4175
C17 C 0.3110(4) 0.71923(9) 0.6597(3)
C18 C 0.1616(4) 0.70944(9) 0.7159(4)
H12 H 0.1060 0.7313 0.7626
C19 C 0.0929(4) 0.66753(10) 0.7041(4)
H13 H -0.0073 0.6613 0.7428
C20 C 0.1759(4) 0.63544(9) 0.6340(4)
C21 C 0.3224(4) 0.64407(10) 0.5744(4)
H14 H 0.3756 0.6221 0.5254
C22 C 0.3899(4) 0.68570(10) 0.5879(4)
H15 H 0.4899 0.6916 0.5485
N1 N 0.7814(4) 0.71175(12) 0.8623(4)
O1 O 0.5939(4) 0.91049(8) 0.8745(3)
loop_
_geom_bond_atom_site_label_1
_geom_bond_atom_site_label_2
_geom_bond_site_symmetry_1
_geom_bond_site_symmetry_2
Br1 C14 1_555 1_555
Br2 C20 1_555 1_555
C1 C2 1_555 1_555
C2 C3 1_555 1_555
C3 C4 1_555 1_555
C4 C5 1_555 1_555
C5 H1 1_555 1_555
C6 C1 1_555 1_555
C7 C2 1_555 1_555
H2 C7 1_555 1_555
H3 C7 1_555 1_555
H4 C7 1_555 1_555
C8 C3 1_555 1_555
C9 C6 1_555 1_555
H5 C9 1_555 1_555
H6 C9 1_555 1_555
H7 C9 1_555 1_555
C10 C1 1_555 1_555
C11 C10 1_555 1_555
C12 C11 1_555 1_555
H8 C12 1_555 1_555
C13 C12 1_555 1_555
H9 C13 1_555 1_555
C14 C13 1_555 1_555
C15 C14 1_555 1_555
H10 C15 1_555 1_555
C16 C11 1_555 1_555
H11 C16 1_555 1_555
C17 C4 1_555 1_555
C18 C17 1_555 1_555
H12 C18 1_555 1_555
C19 C18 1_555 1_555
H13 C19 1_555 1_555
C20 C19 1_555 1_555
C21 C20 1_555 1_555
H14 C21 1_555 1_555
C22 C17 1_555 1_555
H15 C22 1_555 1_555
N1 C8 1_555 1_555
O1 C10 1_555 1_555
C5 C6 1_555 1_555
C15 C16 1_555 1_555
C21 C22 1_555 1_555

#END
