
#######################################################################
#
#                 Cambridge Crystallographic Data Centre
#                                CCDC 
#
#######################################################################
#
# If this CIF has been generated from an entry in the Cambridge 
# Structural Database, then it will include bibliographic, chemical, 
# crystal, experimental, refinement or atomic coordinate data resulting 
# from the CCDC's data processing and validation procedures.
#
#######################################################################

data_HACQEJ
_chemical_formula_moiety         'C23 H21 N5 O4'
_chemical_name_systematic        
N,N'-bis(((benzyloxy)imino)methyl)pyridine-2,6-dicarboxamide
_symmetry_cell_setting           monoclinic
_symmetry_space_group_name_H-M   'P 21/n'
_symmetry_Int_Tables_number      14
_space_group_name_Hall           '-P 2yn'
loop_
_symmetry_equiv_pos_site_id
_symmetry_equiv_pos_as_xyz
1 x,y,z
2 1/2-x,1/2+y,1/2-z
3 -x,-y,-z
4 1/2+x,1/2-y,1/2+z
_cell_length_a                   9.764(3)
_cell_length_b                   4.8363(15)
_cell_length_c                   45.628(14)
_cell_angle_alpha                90
_cell_angle_beta                 91.567(5)
_cell_angle_gamma                90
_cell_volume                     2153.82
_exptl_crystal_colour            colorless
_exptl_crystal_description       plate
_cell_formula_units_Z            4
loop_
_atom_site_label
_atom_site_type_symbol
_atom_site_fract_x
_atom_site_fract_y
_atom_site_fract_z
O1 O 1.0679(5) -0.8959(10) 0.04512(12)
O2 O 1.3947(5) -0.4116(14) 0.10757(13)
O3 O 0.5231(5) 0.0428(13) 0.04312(12)
O4 O 0.8674(5) 0.2364(14) 0.11467(12)
N1 N 0.8297(5) -0.3511(11) 0.04765(12)
N2 N 1.0880(5) -0.4724(12) 0.06659(12)
H1 H 1.0487 -0.3108 0.0692
N3 N 1.2647(6) -0.3235(16) 0.09714(14)
N4 N 0.7050(5) 0.0525(13) 0.07555(12)
H2 H 0.7818 -0.0320 0.0807
N5 N 0.7381(6) 0.3791(14) 0.11312(15)
C1 C 0.8934(6) -0.5632(14) 0.03443(15)
C2 C 0.8443(6) -0.6850(14) 0.00868(15)
H3 H 0.8915 -0.8362 0.0003
C3 C 0.7252(7) -0.5825(15) -0.00464(16)
H4 H 0.6907 -0.6584 -0.0226
C4 C 0.6582(7) -0.3688(15) 0.00872(15)
H5 H 0.5771 -0.2936 -0.0001
C5 C 0.7092(6) -0.2639(14) 0.03494(15)
C6 C 1.0238(6) -0.6594(13) 0.04903(15)
C7 C 1.2146(6) -0.5236(17) 0.08091(15)
H6 H 1.2612 -0.6947 0.0789
C8 C 1.445(2) -0.199(5) 0.1277(4)
H7 H 1.4087 -0.0171 0.1214
H8 H 1.5466 -0.1910 0.1270
C9 C 1.4029(18) -0.258(4) 0.1590(3)
C10 C 1.4634(16) -0.447(3) 0.1779(3)
H9 H 1.5370 -0.5585 0.1716
C11 C 1.4171(19) -0.474(3) 0.2061(3)
H10 H 1.4588 -0.6040 0.2191
C12 C 1.310(2) -0.312(4) 0.2153(3)
H11 H 1.2785 -0.3305 0.2347
C13 C 1.2498(17) -0.123(4) 0.1963(3)
H12 H 1.1762 -0.0116 0.2027
C14 C 1.2961(18) -0.096(4) 0.1682(3)
H13 H 1.2544 0.0340 0.1552
C15 C 0.6364(7) -0.0434(16) 0.05127(16)
C16 C 0.6655(7) 0.2671(17) 0.09260(16)
H14 H 0.5764 0.3401 0.0890
C17 C 0.953(2) 0.380(5) 0.1376(6)
H15 H 0.9412 0.5830 0.1361
H16 H 1.0515 0.3366 0.1351
C18 C 0.9040(11) 0.272(2) 0.1686(3)
C19 C 0.8222(16) 0.047(3) 0.1730(3)
H17 H 0.7877 -0.0564 0.1566
C20 C 0.7902(19) -0.030(4) 0.2008(3)
H18 H 0.7334 -0.1867 0.2038
C21 C 0.8399(14) 0.118(3) 0.2243(3)
H19 H 0.8176 0.0649 0.2437
C22 C 0.9217(18) 0.344(4) 0.2200(3)
H20 H 0.9562 0.4468 0.2363
C23 C 0.9537(19) 0.421(3) 0.1921(3)
H21 H 1.0105 0.5770 0.1891
C24? C 1.485(2) -0.454(6) 0.1702(5)
C25? C 1.467(2) -0.541(6) 0.1990(5)
C26? C 1.365(2) -0.421(6) 0.2158(4)
C27? C 1.281(2) -0.213(6) 0.2037(5)
C28? C 1.299(2) -0.126(6) 0.1749(5)
C29? C 0.933(5) 0.300(11) 0.1392(13)
C30? C 0.9080(14) 0.262(3) 0.1683(4)
C31? C 0.789(2) 0.109(5) 0.1732(5)
C32? C 0.755(2) 0.035(6) 0.2020(6)
C33? C 0.841(2) 0.115(5) 0.2257(6)
C34? C 0.960(2) 0.268(6) 0.2207(5)
C35? C 0.9939(16) 0.342(6) 0.1920(4)
C36? C 1.449(3) -0.203(6) 0.1288(5)
C37? C 1.401(3) -0.246(6) 0.1581(4)
H22? H 1.5538 -0.5363 0.1588
H23? H 1.5234 -0.6825 0.2073
H24? H 1.3523 -0.4798 0.2354
H25? H 1.2120 -0.1306 0.2151
H26? H 1.2424 0.0156 0.1666
H27? H 0.9469 0.5023 0.1375
H28? H 1.0245 0.2172 0.1368
H29? H 0.7306 0.0555 0.1572
H30? H 0.6742 -0.0681 0.2053
H31? H 0.8181 0.0650 0.2451
H32? H 1.0183 0.3218 0.2368
H33? H 1.0747 0.4454 0.1887
H34? H 1.5502 -0.2095 0.1292
H35? H 1.4206 -0.0160 0.1221
loop_
_geom_bond_atom_site_label_1
_geom_bond_atom_site_label_2
_geom_bond_site_symmetry_1
_geom_bond_site_symmetry_2
O1 C6 1_555 1_555
O2 N3 1_555 1_555
O3 C15 1_555 1_555
O4 N5 1_555 1_555
N1 C1 1_555 1_555
N2 H1 1_555 1_555
N3 C7 1_555 1_555
N4 H2 1_555 1_555
N5 C16 1_555 1_555
C1 C2 1_555 1_555
C2 H3 1_555 1_555
C3 C2 1_555 1_555
H4 C3 1_555 1_555
C4 C3 1_555 1_555
H5 C4 1_555 1_555
C5 N1 1_555 1_555
C6 N2 1_555 1_555
C7 N2 1_555 1_555
H6 C7 1_555 1_555
C8 O2 1_555 1_555
H7 C8 1_555 1_555
H8 C8 1_555 1_555
C9 C8 1_555 1_555
C10 C9 1_555 1_555
H9 C10 1_555 1_555
C11 C10 1_555 1_555
H10 C11 1_555 1_555
C12 C11 1_555 1_555
H11 C12 1_555 1_555
C13 C12 1_555 1_555
H12 C13 1_555 1_555
C14 C9 1_555 1_555
H13 C14 1_555 1_555
C15 N4 1_555 1_555
C16 N4 1_555 1_555
H14 C16 1_555 1_555
C17 O4 1_555 1_555
H15 C17 1_555 1_555
H16 C17 1_555 1_555
C18 C17 1_555 1_555
C19 C18 1_555 1_555
H17 C19 1_555 1_555
C20 C19 1_555 1_555
H18 C20 1_555 1_555
C21 C20 1_555 1_555
H19 C21 1_555 1_555
C22 C21 1_555 1_555
H20 C22 1_555 1_555
C23 C18 1_555 1_555
H21 C23 1_555 1_555
C1 C6 1_555 1_555
C4 C5 1_555 1_555
C5 C15 1_555 1_555
C13 C14 1_555 1_555
C22 C23 1_555 1_555

#END
