
#######################################################################
#
#                 Cambridge Crystallographic Data Centre
#                                CCDC 
#
#######################################################################
#
# If this CIF has been generated from an entry in the Cambridge 
# Structural Database, then it will include bibliographic, chemical, 
# crystal, experimental, refinement or atomic coordinate data resulting 
# from the CCDC's data processing and validation procedures.
#
#######################################################################

data_HACVIS
_chemical_formula_moiety         'C15 H19 N1 O5'
_chemical_name_systematic        
4-(4-Methoxyphenyl)-1,7-dioxa-4-azacycloundecane-8,11-dione
_symmetry_cell_setting           orthorhombic
_symmetry_space_group_name_H-M   'P 21 21 21'
_symmetry_Int_Tables_number      19
_space_group_name_Hall           'P 2ac 2ab'
loop_
_symmetry_equiv_pos_site_id
_symmetry_equiv_pos_as_xyz
1 x,y,z
2 1/2-x,-y,1/2+z
3 -x,1/2+y,1/2-z
4 1/2+x,1/2-y,-z
_cell_length_a                   7.4667(11)
_cell_length_b                   8.8481(13)
_cell_length_c                   22.383(3)
_cell_angle_alpha                90
_cell_angle_beta                 90
_cell_angle_gamma                90
_cell_volume                     1478.76
_exptl_crystal_colour            colorless
_exptl_crystal_description       block
_chemical_melting_point          '358.15 K'
_cell_formula_units_Z            4
loop_
_atom_site_label
_atom_site_type_symbol
_atom_site_fract_x
_atom_site_fract_y
_atom_site_fract_z
N1 N 0.83986(19) 0.52525(16) 0.36319(6)
O1 O 0.3823(2) 0.44813(19) 0.27287(7)
O2 O 0.7902(2) 0.64386(17) 0.15395(6)
O3 O 0.59461(19) 0.29046(15) 0.30613(6)
O4 O 0.80690(17) 0.48987(15) 0.23264(5)
C1 C 0.4966(3) 0.3559(2) 0.26354(10)
C2 C 0.5472(3) 0.3025(2) 0.20232(9)
H1 H 0.4501 0.2431 0.1857
H2 H 0.6522 0.2383 0.2050
C3 C 0.5868(3) 0.4356(2) 0.16128(9)
H3 H 0.6148 0.3968 0.1218
H4 H 0.4791 0.4963 0.1577
C4 C 0.7366(3) 0.5359(2) 0.18086(8)
C5 C 0.9465(3) 0.5802(2) 0.25982(8)
H5 H 0.9071 0.6840 0.2644
H6 H 1.0535 0.5790 0.2352
C6 C 0.9843(2) 0.5113(2) 0.31972(7)
H7 H 1.0104 0.4048 0.3141
H8 H 1.0908 0.5584 0.3361
C7 C 0.7655(3) 0.3863(2) 0.38787(9)
H9 H 0.7624 0.3953 0.4311
H10 H 0.8455 0.3035 0.3781
C8 C 0.5801(3) 0.3466(3) 0.36623(9)
H11 H 0.5276 0.2702 0.3919
H12 H 0.5040 0.4354 0.3671
C9 C 0.8201(2) 0.6600(2) 0.39490(7)
C10 C 0.9244(3) 0.7877(2) 0.38172(8)
H13 H 1.0068 0.7828 0.3506
C11 C 0.9079(3) 0.9198(2) 0.41355(9)
H14 H 0.9797 1.0020 0.4037
C12 C 0.7884(3) 0.9326(2) 0.45921(9)
C13 C 0.6800(3) 0.8114(2) 0.47258(8)
H15 H 0.5958 0.8193 0.5030
C14 C 0.6962(3) 0.6772(2) 0.44077(8)
H16 H 0.6218 0.5965 0.4504
O5 O 0.7864(3) 1.07076(18) 0.48817(8)
C15 C 0.6535(4) 1.0982(4) 0.52972(13)
H17 H 0.5384 1.0858 0.5113
H18 H 0.6648 1.1997 0.5445
H19 H 0.6651 1.0283 0.5623
loop_
_geom_bond_atom_site_label_1
_geom_bond_atom_site_label_2
_geom_bond_site_symmetry_1
_geom_bond_site_symmetry_2
N1 C6 1_555 1_555
O1 C1 1_555 1_555
O2 C4 1_555 1_555
O3 C1 1_555 1_555
O4 C4 1_555 1_555
C1 C2 1_555 1_555
C2 H1 1_555 1_555
H2 C2 1_555 1_555
C3 C2 1_555 1_555
H3 C3 1_555 1_555
H4 C3 1_555 1_555
C4 C3 1_555 1_555
C5 O4 1_555 1_555
H5 C5 1_555 1_555
H6 C5 1_555 1_555
C6 C5 1_555 1_555
H7 C6 1_555 1_555
H8 C6 1_555 1_555
C7 N1 1_555 1_555
H9 C7 1_555 1_555
H10 C7 1_555 1_555
C8 O3 1_555 1_555
H11 C8 1_555 1_555
H12 C8 1_555 1_555
C9 N1 1_555 1_555
C10 C9 1_555 1_555
H13 C10 1_555 1_555
C11 C10 1_555 1_555
H14 C11 1_555 1_555
C12 C11 1_555 1_555
C13 C12 1_555 1_555
H15 C13 1_555 1_555
C14 C9 1_555 1_555
H16 C14 1_555 1_555
O5 C12 1_555 1_555
C15 O5 1_555 1_555
H17 C15 1_555 1_555
H18 C15 1_555 1_555
H19 C15 1_555 1_555
C7 C8 1_555 1_555
C13 C14 1_555 1_555

#END
