
#######################################################################
#
#                 Cambridge Crystallographic Data Centre
#                                CCDC 
#
#######################################################################
#
# If this CIF has been generated from an entry in the Cambridge 
# Structural Database, then it will include bibliographic, chemical, 
# crystal, experimental, refinement or atomic coordinate data resulting 
# from the CCDC's data processing and validation procedures.
#
#######################################################################

data_HACVEO
_chemical_formula_moiety         'C18 H17 N1 O4'
_chemical_name_systematic        
5-Phenyl-4,5,6,7-tetrahydro-3H-2,8,5-benzodioxazacycloundecine-1,9-dione
_symmetry_cell_setting           orthorhombic
_symmetry_space_group_name_H-M   'P b c a'
_symmetry_Int_Tables_number      61
_space_group_name_Hall           '-P 2ac 2ab'
loop_
_symmetry_equiv_pos_site_id
_symmetry_equiv_pos_as_xyz
1 x,y,z
2 1/2-x,-y,1/2+z
3 -x,1/2+y,1/2-z
4 1/2+x,1/2-y,-z
5 -x,-y,-z
6 1/2+x,y,1/2-z
7 x,1/2-y,1/2+z
8 1/2-x,1/2+y,z
_cell_length_a                   8.2002(10)
_cell_length_b                   8.4176(10)
_cell_length_c                   45.418(6)
_cell_angle_alpha                90
_cell_angle_beta                 90
_cell_angle_gamma                90
_cell_volume                     3135.02
_exptl_crystal_colour            colorless
_exptl_crystal_description       block
_chemical_melting_point          '410.15 K'
_cell_formula_units_Z            8
loop_
_atom_site_label
_atom_site_type_symbol
_atom_site_fract_x
_atom_site_fract_y
_atom_site_fract_z
N1 N 0.47123(18) 0.15803(19) 0.16189(4)
O1 O 0.37820(18) 0.1856(2) 0.07023(4)
O2 O 0.51660(14) 0.02380(16) 0.10025(3)
O3 O 0.95618(17) 0.13348(18) 0.11918(3)
O4 O 0.71820(15) 0.26373(16) 0.11835(3)
C1 C 0.6127(2) 0.0684(3) 0.20596(5)
H1 H 0.6838 0.1541 0.2046
C2 C 0.6322(3) -0.0403(3) 0.22842(5)
H2 H 0.7155 -0.0258 0.2421
C3 C 0.5312(3) -0.1692(3) 0.23103(5)
H3 H 0.5472 -0.2437 0.2459
C4 C 0.4055(3) -0.1862(3) 0.21114(6)
H4 H 0.3349 -0.2722 0.2129
C5 C 0.3824(2) -0.0779(3) 0.18872(5)
H5 H 0.2957 -0.0912 0.1758
C6 C 0.4877(2) 0.0519(2) 0.18522(4)
C7 C 0.3456(2) 0.1357(2) 0.13976(5)
H6 H 0.3350 0.2336 0.1287
H7 H 0.2427 0.1175 0.1497
C8 C 0.3735(2) 0.0009(2) 0.11823(4)
H8 H 0.3847 -0.0977 0.1291
H9 H 0.2789 -0.0089 0.1055
C9 C 0.5025(2) 0.1228(3) 0.07729(5)
C10 C 0.6590(2) 0.1373(2) 0.06084(5)
C11 C 0.6502(3) 0.1262(3) 0.03032(5)
H10 H 0.5487 0.1160 0.0214
C12 C 0.7878(4) 0.1302(4) 0.01311(6)
H11 H 0.7797 0.1230 -0.0073
C13 C 0.9379(3) 0.1448(3) 0.02640(6)
H12 H 1.0318 0.1467 0.0149
C14 C 0.9503(3) 0.1565(3) 0.05638(6)
H13 H 1.0526 0.1658 0.0651
C15 C 0.8118(2) 0.1545(2) 0.07398(4)
C16 C 0.8374(2) 0.1791(2) 0.10603(5)
C17 C 0.7306(2) 0.2966(3) 0.14951(5)
H14 H 0.7881 0.3959 0.1526
H15 H 0.7907 0.2124 0.1593
C18 C 0.5614(2) 0.3073(2) 0.16192(5)
H16 H 0.5684 0.3458 0.1820
H17 H 0.5004 0.3850 0.1506
loop_
_geom_bond_atom_site_label_1
_geom_bond_atom_site_label_2
_geom_bond_site_symmetry_1
_geom_bond_site_symmetry_2
N1 C6 1_555 1_555
O1 C9 1_555 1_555
O2 C8 1_555 1_555
O3 C16 1_555 1_555
O4 C16 1_555 1_555
C1 H1 1_555 1_555
C2 C1 1_555 1_555
H2 C2 1_555 1_555
C3 C2 1_555 1_555
H3 C3 1_555 1_555
C4 C3 1_555 1_555
H4 C4 1_555 1_555
C5 C4 1_555 1_555
H5 C5 1_555 1_555
C6 C1 1_555 1_555
C7 N1 1_555 1_555
H6 C7 1_555 1_555
H7 C7 1_555 1_555
C8 C7 1_555 1_555
H8 C8 1_555 1_555
H9 C8 1_555 1_555
C9 O2 1_555 1_555
C10 C9 1_555 1_555
C11 C10 1_555 1_555
H10 C11 1_555 1_555
C12 C11 1_555 1_555
H11 C12 1_555 1_555
C13 C12 1_555 1_555
H12 C13 1_555 1_555
C14 C13 1_555 1_555
H13 C14 1_555 1_555
C15 C10 1_555 1_555
C16 C15 1_555 1_555
C17 O4 1_555 1_555
H14 C17 1_555 1_555
H15 C17 1_555 1_555
C18 N1 1_555 1_555
H16 C18 1_555 1_555
H17 C18 1_555 1_555
C5 C6 1_555 1_555
C14 C15 1_555 1_555
C17 C18 1_555 1_555

#END
