
#######################################################################
#
#                 Cambridge Crystallographic Data Centre
#                                CCDC 
#
#######################################################################
#
# If this CIF has been generated from an entry in the Cambridge 
# Structural Database, then it will include bibliographic, chemical, 
# crystal, experimental, refinement or atomic coordinate data resulting 
# from the CCDC's data processing and validation procedures.
#
#######################################################################

data_HACXAN01
_chemical_formula_moiety         'C18 H18 N4'
_chemical_name_systematic        tris(2-pyridylmethyl)amine
_symmetry_cell_setting           monoclinic
_symmetry_space_group_name_H-M   'P 21/n'
_symmetry_Int_Tables_number      14
_space_group_name_Hall           '-P 2yn'
loop_
_symmetry_equiv_pos_site_id
_symmetry_equiv_pos_as_xyz
1 x,y,z
2 1/2-x,1/2+y,1/2-z
3 -x,-y,-z
4 1/2+x,1/2-y,1/2+z
_cell_length_a                   6.1903(3)
_cell_length_b                   35.9841(18)
_cell_length_c                   14.2498(7)
_cell_angle_alpha                90
_cell_angle_beta                 98.3233(17)
_cell_angle_gamma                90
_cell_volume                     3140.74
_exptl_crystal_colour            colorless
_exptl_crystal_description       Rod
_cell_formula_units_Z            8
loop_
_atom_site_label
_atom_site_type_symbol
_atom_site_fract_x
_atom_site_fract_y
_atom_site_fract_z
C1 C 0.1528(6) 0.69168(11) 0.0592(3)
N1 N 0.3156(5) 0.74650(10) 0.2650(2)
C2 C 0.3364(6) 0.69213(11) 0.4641(3)
C3 C 0.2516(6) 0.84197(11) 0.2765(3)
C4 C 0.3008(6) 0.70403(11) 0.1305(3)
C5 C 0.4425(7) 0.71772(12) 0.4185(3)
C6 C 0.2166(7) 0.71270(12) 0.2210(3)
C7 C 0.3025(7) 0.74735(12) 0.3666(3)
C8 C 0.3495(7) 0.81357(12) 0.2375(3)
N2 N 0.5579(7) 0.81528(13) 0.2163(3)
N3 N 0.5193(6) 0.70619(13) 0.1234(3)
N4 N 0.6645(7) 0.71716(13) 0.4190(3)
C9 C 0.2276(7) 0.68201(13) -0.0214(3)
C10 C 0.2141(7) 0.77876(12) 0.2171(3)
C11 C 0.4413(7) 0.68405(13) -0.0349(3)
C12 C 0.3677(8) 0.87335(13) 0.2923(4)
C13 C 0.6779(8) 0.66213(13) 0.5121(3)
C14 C 0.4598(8) 0.66524(14) 0.5093(3)
C15 C 0.7868(8) 0.68920(14) 0.4651(3)
C16 C 0.6749(7) 0.84827(14) 0.2337(3)
C17 C 0.5928(7) 0.69657(14) 0.0406(3)
C18 C 0.5748(8) 0.87771(13) 0.2731(4)
H1 H 0.7434(7) 0.69836(14) 0.0347(3)
H2 H 0.4852(7) 0.67719(13) -0.0937(3)
H3 H 0.1247(7) 0.67314(13) -0.0724(3)
H4 H 0.0023(6) 0.68986(11) 0.0654(3)
H5 H 0.9402(8) 0.68809(14) 0.4653(3)
H6 H 0.7559(8) 0.64219(13) 0.5449(3)
H7 H 0.3885(8) 0.64696(14) 0.5419(3)
H8 H 0.1830(6) 0.69317(11) 0.4642(3)
H9 H 0.8192(7) 0.85052(14) 0.2191(3)
H10 H 0.6498(8) 0.90056(13) 0.2866(4)
H11 H 0.3008(8) 0.89388(13) 0.3185(4)
H12 H 0.1079(6) 0.83986(11) 0.2920(3)
H13 H 0.2485(7) 0.69161(12) 0.2654(3)
H14 H 0.0561(7) 0.71586(12) 0.2081(3)
H15 H 0.3505(7) 0.77200(12) 0.3926(3)
H16 H 0.1490(7) 0.74365(12) 0.3766(3)
H17 H 0.1909(7) 0.77416(12) 0.1478(3)
H18 H 0.0693(7) 0.78265(12) 0.2372(3)
C19 C 0.4678(6) 0.40668(11) 0.7324(3)
N5 N 0.4124(6) 0.50445(11) 0.7546(3)
C20 C 0.5615(7) 0.56437(14) 0.9446(4)
C21 C -0.0588(8) 0.55499(15) 0.5492(3)
C22 C 0.4801(8) 0.58736(13) 1.0030(3)
C23 C 0.0248(7) 0.57299(14) 0.4762(3)
C24 C 0.1354(8) 0.55890(15) 0.9785(4)
C25 C 0.2431(8) 0.57289(15) 0.4753(3)
C26 C 0.0458(9) 0.40460(19) 0.7736(4)
C27 C 0.2718(9) 0.58572(15) 1.0205(3)
C28 C 0.3838(8) 0.5612(3) 0.5457(4)
N6 N 0.1493(8) 0.43805(18) 0.7647(5)
C29 C 0.3028(9) 0.54897(17) 0.6257(4)
N7 N 0.2150(8) 0.53415(16) 0.9235(5)
C30 C 0.3582(8) 0.43817(16) 0.7438(6)
C31 C 0.4677(9) 0.54070(16) 0.7096(4)
C32 C 0.3645(8) 0.37569(15) 0.7362(4)
C33 C 0.5244(9) 0.50506(16) 0.8573(4)
N8 N 0.0807(8) 0.54081(19) 0.6182(4)
C34 C 0.1569(9) 0.37301(17) 0.7584(6)
C35 C 0.4703(10) 0.47407(17) 0.7060(4)
C36 C 0.4307(9) 0.5367(2) 0.9090(6)
H19 H -0.0977(9) 0.40361(19) 0.7897(4)
H20 H 0.0911(9) 0.34936(17) 0.7631(6)
H21 H 0.4366(8) 0.35342(15) 0.7229(4)
H22 H 0.6159(6) 0.40719(11) 0.7219(3)
H23 H -0.0130(8) 0.55793(15) 0.9884(4)
H24 H 0.2204(9) 0.60323(15) 1.0620(3)
H25 H 0.5730(8) 0.60597(13) 1.0341(3)
H26 H 0.7046(7) 0.56735(14) 0.9290(4)
H27 H -0.2118(8) 0.55298(15) 0.5493(3)
H28 H -0.0700(7) 0.58522(14) 0.4274(3)
H29 H 0.2963(8) 0.58183(15) 0.4202(3)
H30 H 0.5360(8) 0.5612(3) 0.5423(4)
H31 H 0.4705(9) 0.56109(16) 0.7564(4)
H32 H 0.6143(9) 0.53890(16) 0.6899(4)
H33 H 0.4998(9) 0.48117(16) 0.8885(4)
H34 H 0.6836(9) 0.50854(16) 0.8592(4)
H35 H 0.618(8) 0.4758(14) 0.698(4)
H36? H 0.3755(10) 0.45423(17) 0.6835(4)
H37? H 0.4623(5) 0.74657(10) 0.2574(2)
loop_
_geom_bond_atom_site_label_1
_geom_bond_atom_site_label_2
_geom_bond_site_symmetry_1
_geom_bond_site_symmetry_2
C1 C4 1_555 1_555
N1 C6 1_555 1_555
C2 C5 1_555 1_555
C3 C8 1_555 1_555
C4 C6 1_555 1_555
C5 C7 1_555 1_555
C6 H13 1_555 1_555
C7 N1 1_555 1_555
C8 N2 1_555 1_555
N2 C16 1_555 1_555
N3 C4 1_555 1_555
N4 C5 1_555 1_555
C9 C1 1_555 1_555
C10 N1 1_555 1_555
C11 C9 1_555 1_555
C12 C3 1_555 1_555
C13 C14 1_555 1_555
C14 C2 1_555 1_555
C15 N4 1_555 1_555
C16 C18 1_555 1_555
C17 N3 1_555 1_555
C18 C12 1_555 1_555
H1 C17 1_555 1_555
H2 C11 1_555 1_555
H3 C9 1_555 1_555
H4 C1 1_555 1_555
H5 C15 1_555 1_555
H6 C13 1_555 1_555
H7 C14 1_555 1_555
H8 C2 1_555 1_555
H9 C16 1_555 1_555
H10 C18 1_555 1_555
H11 C12 1_555 1_555
H12 C3 1_555 1_555
H14 C6 1_555 1_555
H15 C7 1_555 1_555
H16 C7 1_555 1_555
H17 C10 1_555 1_555
H18 C10 1_555 1_555
C19 C30 1_555 1_555
N5 C31 1_555 1_555
C20 C22 1_555 1_555
C21 C23 1_555 1_555
C22 C27 1_555 1_555
C23 C25 1_555 1_555
C24 C27 1_555 1_555
C25 C28 1_555 1_555
C26 N6 1_555 1_555
C27 H24 1_555 1_555
C28 C29 1_555 1_555
N6 C30 1_555 1_555
C29 C31 1_555 1_555
N7 C24 1_555 1_555
C30 C35 1_555 1_555
C31 H31 1_555 1_555
C32 C19 1_555 1_555
C33 N5 1_555 1_555
N8 C21 1_555 1_555
C34 C26 1_555 1_555
C35 N5 1_555 1_555
C36 C20 1_555 1_555
H19 C26 1_555 1_555
H20 C34 1_555 1_555
H21 C32 1_555 1_555
H22 C19 1_555 1_555
H23 C24 1_555 1_555
H25 C22 1_555 1_555
H26 C20 1_555 1_555
H27 C21 1_555 1_555
H28 C23 1_555 1_555
H29 C25 1_555 1_555
H30 C28 1_555 1_555
H32 C31 1_555 1_555
H33 C33 1_555 1_555
H34 C33 1_555 1_555
H35 C35 1_555 1_555
C8 C10 1_555 1_555
C11 C17 1_555 1_555
C13 C15 1_555 1_555
C29 N8 1_555 1_555
N7 C36 1_555 1_555
C32 C34 1_555 1_555
C33 C36 1_555 1_555

#END
