
#######################################################################
#
#                 Cambridge Crystallographic Data Centre
#                                CCDC 
#
#######################################################################
#
# If this CIF has been generated from an entry in the Cambridge 
# Structural Database, then it will include bibliographic, chemical, 
# crystal, experimental, refinement or atomic coordinate data resulting 
# from the CCDC's data processing and validation procedures.
#
#######################################################################

data_HACYUI
_chemical_formula_moiety         'C37 H32 N4 O3'
_chemical_name_systematic        
2-((4-(4-benzyl-3-methyl-1-(4-methylphenyl)-5-oxo-4,5-dihydro-1H-pyrazol-4-yl)-5-phenylpent-2-en-1-ylidene)amino)-1H-isoindole-1,3(2H)-dione
_symmetry_cell_setting           triclinic
_symmetry_space_group_name_H-M   'P 1'
_symmetry_Int_Tables_number      1
_space_group_name_Hall           'P 1'
loop_
_symmetry_equiv_pos_site_id
_symmetry_equiv_pos_as_xyz
1 x,y,z
_cell_length_a                   8.8033(4)
_cell_length_b                   14.9971(7)
_cell_length_c                   24.8202(11)
_cell_angle_alpha                84.356(3)
_cell_angle_beta                 85.371(3)
_cell_angle_gamma                79.193(4)
_cell_volume                     3196.64
_exptl_crystal_colour            colorless
_exptl_crystal_description       prism
_cell_formula_units_Z            4
loop_
_atom_site_label
_atom_site_type_symbol
_atom_site_fract_x
_atom_site_fract_y
_atom_site_fract_z
O1 O 0.4258 0.9054 0.1323
O2 O 0.6857 0.6872 0.4607
O3 O 0.5563 0.4266 0.4119
N1 N 0.3458 1.0502 0.1607
N2 N 0.3269 1.0921 0.2103
N3 N 0.5338 0.6077 0.3766
N4 N 0.5919 0.5696 0.4260
C1 C 0.4030 0.9589 0.1674
C2 C 0.4320 0.9370 0.2276
C3 C 0.3745 1.0299 0.2479
C4 C 0.3584 1.0528 0.3059
H1 H 0.3284 1.1175 0.3071
H2 H 0.4558 1.0325 0.3220
H3 H 0.2808 1.0230 0.3255
C5 C 0.3393 0.8622 0.2523
H4 H 0.3637 0.8130 0.2280
C6 C 0.3907 0.8216 0.3057
H5 H 0.3903 0.8604 0.3327
C7 C 0.4376 0.7334 0.3176
H6 H 0.4346 0.6943 0.2910
C8 C 0.4934 0.6936 0.3698
H7 H 0.4994 0.7301 0.3974
C9 C 0.6667 0.6092 0.4637
C10 C 0.7220 0.5342 0.5045
C11 C 0.7979 0.5359 0.5508
H8 H 0.8254 0.5890 0.5601
C12 C 0.8317 0.4527 0.5832
H9 H 0.8788 0.4515 0.6155
C13 C 0.7971 0.3743 0.5684
H10 H 0.8224 0.3202 0.5902
C14 C 0.7238 0.3745 0.5206
H11 H 0.7017 0.3208 0.5100
C15 C 0.6849 0.4548 0.4898
C16 C 0.6035 0.4761 0.4386
C17 C 0.2968 1.1048 0.1133
C18 C 0.2773 1.0654 0.0672
H12 H 0.2956 1.0024 0.0666
C19 C 0.2295 1.1222 0.0210
H13 H 0.2216 1.0956 -0.0107
C20 C 0.1937 1.2154 0.0207
C21 C 0.2167 1.2520 0.0685
H14 H 0.1968 1.3149 0.0698
C22 C 0.2684 1.1967 0.1138
H15 H 0.2838 1.2229 0.1449
C23 C 0.1337 1.2741 -0.0275
H16 H 0.0324 1.2634 -0.0335
H17 H 0.2023 1.2598 -0.0588
H18 H 0.1275 1.3369 -0.0214
C24 C 0.1636 0.8959 0.2516
H19 H 0.1350 0.9473 0.2735
H20 H 0.1379 0.9172 0.2147
C25 C 0.0695 0.8240 0.2726
C26 C -0.0239 0.8312 0.3181
H21 H -0.0298 0.8821 0.3374
C27 C -0.1102 0.7672 0.3372
H22 H -0.1779 0.7761 0.3678
C28 C -0.0967 0.6890 0.3109
H23 H -0.1524 0.6437 0.3242
C29 C -0.0044 0.6794 0.2669
H24 H 0.0074 0.6258 0.2499
C30 C 0.0783 0.7487 0.2446
H25 H 0.1368 0.7430 0.2118
C31 C 0.6085 0.9042 0.2327
H26 H 0.6290 0.8984 0.2709
H27 H 0.6373 0.8441 0.2197
C32 C 0.7119 0.9658 0.2022
C33 C 0.7657 0.9522 0.1512
H28 H 0.7445 0.9036 0.1343
C34 C 0.8567 1.0142 0.1229
H29 H 0.8893 1.0092 0.0865
C35 C 0.8956 1.0827 0.1513
H30 H 0.9557 1.1231 0.1339
C36 C 0.8467 1.0893 0.2023
H31 H 0.8748 1.1337 0.2211
C37 C 0.7567 1.0330 0.2278
H32 H 0.7236 1.0397 0.2640
O4 O 0.6045 -0.0526 0.7821
O5 O 0.1854 0.3880 0.5218
O6 O 0.4548 0.5473 0.6182
N5 N 0.5771 0.0129 0.8637
N6 N 0.5228 0.1007 0.8818
N7 N 0.3807 0.3615 0.6055
N8 N 0.3315 0.4475 0.5794
C38 C 0.5681 0.0123 0.8091
C39 C 0.5001 0.1103 0.7888
C40 C 0.4818 0.1556 0.8412
C41 C 0.4189 0.2533 0.8475
H33 H 0.4037 0.2629 0.8854
H34 H 0.3216 0.2704 0.8310
H35 H 0.4907 0.2898 0.8303
C42 C 0.6167 0.1475 0.7449
H36 H 0.6336 0.1072 0.7154
C43 C 0.5598 0.2421 0.7210
H37 H 0.5686 0.2903 0.7407
C44 C 0.4982 0.2615 0.6739
H38 H 0.4868 0.2133 0.6545
C45 C 0.4470 0.3532 0.6502
H39 H 0.4616 0.4038 0.6667
C46 C 0.2389 0.4513 0.5345
C47 C 0.2212 0.5445 0.5103
C48 C 0.1396 0.5839 0.4665
H40 H 0.0845 0.5509 0.4479
C49 C 0.1427 0.6734 0.4516
H41 H 0.0889 0.7023 0.4221
C50 C 0.2256 0.7223 0.4799
H42 H 0.2269 0.7831 0.4685
C51 C 0.3050 0.6829 0.5239
H43 H 0.3589 0.7160 0.5429
C52 C 0.3020 0.5922 0.5389
C53 C 0.3755 0.5311 0.5836
C54 C 0.6154 -0.0607 0.9033
C55 C 0.7119 -0.1409 0.8893
H44 H 0.7540 -0.1465 0.8540
C56 C 0.7444 -0.2128 0.9295
H45 H 0.8026 -0.2679 0.9198
C57 C 0.6921 -0.2041 0.9833
C58 C 0.6016 -0.1258 0.9952
H46 H 0.5632 -0.1194 1.0309
C59 C 0.5613 -0.0517 0.9555
H47 H 0.4987 0.0022 0.9653
C60 C 0.7318 -0.2852 1.0237
H48 H 0.6887 -0.3350 1.0137
H49 H 0.6898 -0.2696 1.0592
H50 H 0.8424 -0.3027 1.0240
C61 C 0.7753 0.1440 0.7687
H51 H 0.7623 0.1847 0.7974
H52 H 0.8128 0.0827 0.7843
C62 C 0.8932 0.1712 0.7259
C63 C 0.9574 0.1130 0.6870
H53 H 0.9327 0.0551 0.6883
C64 C 1.0608 0.1416 0.6450
H54 H 1.0992 0.1039 0.6176
C65 C 1.1045 0.2246 0.6446
H55 H 1.1731 0.2433 0.6172
C66 C 1.0479 0.2778 0.6836
H56 H 1.0814 0.3329 0.6841
C67 C 0.9406 0.2541 0.7237
H57 H 0.8998 0.2947 0.7495
C68 C 0.3434 0.1108 0.7643
H58 H 0.2925 0.1735 0.7567
H59 H 0.3637 0.0833 0.7301
C69 C 0.2345 0.0609 0.8005
C70 C 0.1545 0.0983 0.8459
H60 H 0.1667 0.1556 0.8541
C71 C 0.0549 0.0503 0.8798
H61 H 0.0045 0.0754 0.9107
C72 C 0.0327 -0.0311 0.8677
H62 H -0.0322 -0.0628 0.8903
C73 C 0.1046 -0.0675 0.8224
H63 H 0.0857 -0.1232 0.8137
C74 C 0.2074 -0.0224 0.7884
H64 H 0.2570 -0.0488 0.7578
O7 O 0.5887 0.4512 0.7777
O8 O 0.2632 0.9039 0.5085
O9 O 0.4982 1.0441 0.6224
N9 N 0.5675 0.5047 0.8628
N10 N 0.5193 0.5891 0.8856
N11 N 0.4167 0.8663 0.6010
N12 N 0.3879 0.9536 0.5751
C75 C 0.5559 0.5122 0.8081
C76 C 0.4911 0.6123 0.7922
C77 C 0.4789 0.6498 0.8470
C78 C 0.4244 0.7467 0.8588
H65 H 0.3227 0.7677 0.8461
H66 H 0.4945 0.7835 0.8408
H67 H 0.4209 0.7511 0.8972
C79 C 0.6045 0.6506 0.7498
H68 H 0.6233 0.6102 0.7203
C80 C 0.5462 0.7451 0.7249
H69 H 0.5414 0.7934 0.7462
C81 C 0.5009 0.7645 0.6744
H70 H 0.4943 0.7165 0.6541
C82 C 0.4614 0.8567 0.6496
H71 H 0.4682 0.9068 0.6680
C83 C 0.3211 0.9624 0.5251
C84 C 0.3356 1.0546 0.4994
C85 C 0.2877 1.0983 0.4504
H72 H 0.2398 1.0700 0.4266
C86 C 0.3140 1.1844 0.4388
H73 H 0.2833 1.2155 0.4061
C87 C 0.3821 1.2265 0.4724
H74 H 0.3970 1.2859 0.4626
C88 C 0.4312 1.1834 0.5218
H75 H 0.4792 1.2125 0.5452
C89 C 0.4059 1.0960 0.5344
C90 C 0.4413 1.0312 0.5832
C91 C 0.5988 0.4235 0.8983
C92 C 0.5177 0.4183 0.9474
H76 H 0.4448 0.4678 0.9580
C93 C 0.5451 0.3388 0.9812
H77 H 0.4865 0.3337 1.0139
C94 C 0.6598 0.2664 0.9666
C95 C 0.7358 0.2732 0.9187
H78 H 0.8098 0.2239 0.9084
C96 C 0.7094 0.3509 0.8833
H79 H 0.7654 0.3540 0.8500
C97 C 0.6906 0.1795 1.0052
H80 H 0.7471 0.1304 0.9856
H81 H 0.5938 0.1643 1.0202
H82 H 0.7503 0.1895 1.0341
C98 C 0.7620 0.6484 0.7733
H83 H 0.7471 0.6875 0.8029
H84 H 0.8016 0.5868 0.7880
C99 C 0.8779 0.6785 0.7323
C100 C 0.9436 0.6254 0.6907
H85 H 0.9166 0.5686 0.6895
C101 C 1.0443 0.6531 0.6521
H86 H 1.0835 0.6160 0.6244
C102 C 1.0912 0.7373 0.6530
H87 H 1.1623 0.7558 0.6265
C103 C 1.0333 0.7893 0.6917
H88 H 1.0636 0.8453 0.6927
C104 C 0.9244 0.7612 0.7325
H89 H 0.8841 0.7993 0.7596
C105 C 0.3297 0.6187 0.7695
H90 H 0.2823 0.6824 0.7639
H91 H 0.3442 0.5939 0.7344
C106 C 0.2191 0.5694 0.8055
C107 C 0.1386 0.6067 0.8514
H92 H 0.1517 0.6640 0.8595
C108 C 0.0404 0.5610 0.8850
H93 H -0.0102 0.5869 0.9156
C109 C 0.0182 0.4787 0.8732
H94 H -0.0479 0.4479 0.8959
C110 C 0.0911 0.4402 0.8287
H95 H 0.0740 0.3836 0.8209
C111 C 0.1936 0.4859 0.7938
H96 H 0.2431 0.4595 0.7632
O10 O 0.4135 0.4122 0.1199
O11 O 0.6295 -0.0594 0.3941
O12 O 0.8064 0.1837 0.4490
N13 N 0.4660 0.5495 0.1396
N14 N 0.5425 0.5820 0.1795
N15 N 0.6602 0.1179 0.3586
N16 N 0.7093 0.0750 0.4084
C112 C 0.4723 0.4586 0.1468
C113 C 0.5662 0.4253 0.1961
C114 C 0.5989 0.5129 0.2114
C115 C 0.6882 0.5258 0.2570
H97 H 0.7267 0.5819 0.2498
H98 H 0.7736 0.4759 0.2611
H99 H 0.6223 0.5279 0.2898
C116 C 0.4614 0.3777 0.2381
H100 H 0.4297 0.3292 0.2203
C117 C 0.5407 0.3339 0.2880
H101 H 0.5647 0.3722 0.3121
C118 C 0.5786 0.2456 0.3004
H102 H 0.5662 0.2074 0.2744
C119 C 0.6379 0.2032 0.3511
H103 H 0.6591 0.2382 0.3775
C120 C 0.6893 -0.0149 0.4209
C121 C 0.7534 -0.0434 0.4746
C122 C 0.7582 -0.1239 0.5085
H104 H 0.7151 -0.1719 0.4993
C123 C 0.8290 -0.1283 0.5559
H105 H 0.8446 -0.1829 0.5777
C124 C 0.8778 -0.0539 0.5720
H106 H 0.9282 -0.0607 0.6040
C125 C 0.8562 0.0288 0.5436
H107 H 0.8744 0.0805 0.5579
C126 C 0.8048 0.0315 0.4916
C127 C 0.7789 0.1082 0.4487
C128 C 0.3908 0.6144 0.1005
C129 C 0.3467 0.7048 0.1103
H108 H 0.3713 0.7240 0.1425
C130 C 0.2673 0.7669 0.0735
H109 H 0.2387 0.8273 0.0815
C131 C 0.2289 0.7420 0.0251
C132 C 0.2779 0.6522 0.0154
H110 H 0.2581 0.6336 -0.0176
C133 C 0.3537 0.5891 0.0516
H111 H 0.3809 0.5286 0.0436
C134 C 0.1432 0.8110 -0.0146
H112 H 0.1064 0.7805 -0.0417
H113 H 0.2114 0.8500 -0.0315
H114 H 0.0568 0.8469 0.0041
C135 C 0.3127 0.4446 0.2541
H115 H 0.3408 0.4928 0.2724
H116 H 0.2636 0.4722 0.2214
C136 C 0.1972 0.4001 0.2907
C137 C 0.1573 0.4284 0.3430
H117 H 0.2009 0.4748 0.3542
C138 C 0.0545 0.3885 0.3780
H118 H 0.0338 0.4059 0.4132
C139 C -0.0156 0.3250 0.3616
H119 H -0.0900 0.3013 0.3845
C140 C 0.0210 0.2962 0.3131
H120 H -0.0255 0.2502 0.3029
C141 C 0.1277 0.3324 0.2764
H121 H 0.1512 0.3104 0.2424
C142 C 0.7158 0.3585 0.1786
H122 H 0.7779 0.3394 0.2097
H123 H 0.6875 0.3047 0.1664
C143 C 0.8133 0.4030 0.1327
C144 C 0.7799 0.4033 0.0807
H124 H 0.7042 0.3721 0.0723
C145 C 0.8618 0.4521 0.0377
H125 H 0.8359 0.4543 0.0019
C146 C 0.9753 0.4939 0.0500
H126 H 1.0296 0.5253 0.0232
C147 C 1.0100 0.4888 0.1058
H127 H 1.0882 0.5175 0.1150
C148 C 0.9348 0.4448 0.1445
H128 H 0.9626 0.4415 0.1801
loop_
_geom_bond_atom_site_label_1
_geom_bond_atom_site_label_2
_geom_bond_site_symmetry_1
_geom_bond_site_symmetry_2
O1 C1 1_555 1_555
O2 C9 1_555 1_555
O3 C16 1_555 1_555
N1 N2 1_555 1_555
N2 C3 1_555 1_555
N3 N4 1_555 1_555
N4 C9 1_555 1_555
C1 N1 1_555 1_555
C2 C1 1_555 1_555
C3 C2 1_555 1_555
C4 C3 1_555 1_555
H1 C4 1_555 1_555
H2 C4 1_555 1_555
H3 C4 1_555 1_555
C5 C2 1_555 1_555
H4 C5 1_555 1_555
C6 C5 1_555 1_555
H5 C6 1_555 1_555
C7 C6 1_555 1_555
H6 C7 1_555 1_555
C8 N3 1_555 1_555
H7 C8 1_555 1_555
C9 C10 1_555 1_555
C10 C11 1_555 1_555
C11 H8 1_555 1_555
C12 C11 1_555 1_555
H9 C12 1_555 1_555
C13 C12 1_555 1_555
H10 C13 1_555 1_555
C14 C13 1_555 1_555
H11 C14 1_555 1_555
C15 C10 1_555 1_555
C16 N4 1_555 1_555
C17 N1 1_555 1_555
C18 C17 1_555 1_555
H12 C18 1_555 1_555
C19 C18 1_555 1_555
H13 C19 1_555 1_555
C20 C19 1_555 1_555
C21 C20 1_555 1_555
H14 C21 1_555 1_555
C22 C17 1_555 1_555
H15 C22 1_555 1_555
C23 C20 1_555 1_555
H16 C23 1_555 1_555
H17 C23 1_555 1_555
H18 C23 1_555 1_555
C24 C5 1_555 1_555
H19 C24 1_555 1_555
H20 C24 1_555 1_555
C25 C24 1_555 1_555
C26 C25 1_555 1_555
H21 C26 1_555 1_555
C27 C26 1_555 1_555
H22 C27 1_555 1_555
C28 C27 1_555 1_555
H23 C28 1_555 1_555
C29 C28 1_555 1_555
H24 C29 1_555 1_555
C30 C25 1_555 1_555
H25 C30 1_555 1_555
C31 C2 1_555 1_555
H26 C31 1_555 1_555
H27 C31 1_555 1_555
C32 C31 1_555 1_555
C33 C32 1_555 1_555
H28 C33 1_555 1_555
C34 C33 1_555 1_555
H29 C34 1_555 1_555
C35 C34 1_555 1_555
H30 C35 1_555 1_555
C36 C35 1_555 1_555
H31 C36 1_555 1_555
C37 C32 1_555 1_555
H32 C37 1_555 1_555
O4 C38 1_555 1_555
O5 C46 1_555 1_555
O6 C53 1_555 1_555
N5 N6 1_555 1_555
N6 C40 1_555 1_555
N7 N8 1_555 1_555
N8 C46 1_555 1_555
C38 N5 1_555 1_555
C39 C38 1_555 1_555
C40 C39 1_555 1_555
C41 C40 1_555 1_555
H33 C41 1_555 1_555
H34 C41 1_555 1_555
H35 C41 1_555 1_555
C42 C39 1_555 1_555
H36 C42 1_555 1_555
C43 C42 1_555 1_555
H37 C43 1_555 1_555
C44 C43 1_555 1_555
H38 C44 1_555 1_555
C45 N7 1_555 1_555
H39 C45 1_555 1_555
C46 C47 1_555 1_555
C47 C48 1_555 1_555
C48 H40 1_555 1_555
C49 C48 1_555 1_555
H41 C49 1_555 1_555
C50 C49 1_555 1_555
H42 C50 1_555 1_555
C51 C50 1_555 1_555
H43 C51 1_555 1_555
C52 C47 1_555 1_555
C53 N8 1_555 1_555
C54 N5 1_555 1_555
C55 C54 1_555 1_555
H44 C55 1_555 1_555
C56 C55 1_555 1_555
H45 C56 1_555 1_555
C57 C56 1_555 1_555
C58 C57 1_555 1_555
H46 C58 1_555 1_555
C59 C54 1_555 1_555
H47 C59 1_555 1_555
C60 C57 1_555 1_555
H48 C60 1_555 1_555
H49 C60 1_555 1_555
H50 C60 1_555 1_555
C61 C42 1_555 1_555
H51 C61 1_555 1_555
H52 C61 1_555 1_555
C62 C61 1_555 1_555
C63 C62 1_555 1_555
H53 C63 1_555 1_555
C64 C63 1_555 1_555
H54 C64 1_555 1_555
C65 C64 1_555 1_555
H55 C65 1_555 1_555
C66 C65 1_555 1_555
H56 C66 1_555 1_555
C67 C62 1_555 1_555
H57 C67 1_555 1_555
C68 C39 1_555 1_555
H58 C68 1_555 1_555
H59 C68 1_555 1_555
C69 C68 1_555 1_555
C70 C69 1_555 1_555
H60 C70 1_555 1_555
C71 C70 1_555 1_555
H61 C71 1_555 1_555
C72 C71 1_555 1_555
H62 C72 1_555 1_555
C73 C72 1_555 1_555
H63 C73 1_555 1_555
C74 C69 1_555 1_555
H64 C74 1_555 1_555
O7 C75 1_555 1_555
O8 C83 1_555 1_555
O9 C90 1_555 1_555
N9 N10 1_555 1_555
N10 C77 1_555 1_555
N11 N12 1_555 1_555
N12 C83 1_555 1_555
C75 N9 1_555 1_555
C76 C75 1_555 1_555
C77 C76 1_555 1_555
C78 C77 1_555 1_555
H65 C78 1_555 1_555
H66 C78 1_555 1_555
H67 C78 1_555 1_555
C79 C76 1_555 1_555
H68 C79 1_555 1_555
C80 C79 1_555 1_555
H69 C80 1_555 1_555
C81 C80 1_555 1_555
H70 C81 1_555 1_555
C82 N11 1_555 1_555
H71 C82 1_555 1_555
C83 C84 1_555 1_555
C84 C85 1_555 1_555
C85 H72 1_555 1_555
C86 C85 1_555 1_555
H73 C86 1_555 1_555
C87 C86 1_555 1_555
H74 C87 1_555 1_555
C88 C87 1_555 1_555
H75 C88 1_555 1_555
C89 C84 1_555 1_555
C90 N12 1_555 1_555
C91 N9 1_555 1_555
C92 C91 1_555 1_555
H76 C92 1_555 1_555
C93 C92 1_555 1_555
H77 C93 1_555 1_555
C94 C93 1_555 1_555
C95 C94 1_555 1_555
H78 C95 1_555 1_555
C96 C91 1_555 1_555
H79 C96 1_555 1_555
C97 C94 1_555 1_555
H80 C97 1_555 1_555
H81 C97 1_555 1_555
H82 C97 1_555 1_555
C98 C79 1_555 1_555
H83 C98 1_555 1_555
H84 C98 1_555 1_555
C99 C98 1_555 1_555
C100 C99 1_555 1_555
H85 C100 1_555 1_555
C101 C100 1_555 1_555
H86 C101 1_555 1_555
C102 C101 1_555 1_555
H87 C102 1_555 1_555
C103 C102 1_555 1_555
H88 C103 1_555 1_555
C104 C99 1_555 1_555
H89 C104 1_555 1_555
C105 C76 1_555 1_555
H90 C105 1_555 1_555
H91 C105 1_555 1_555
C106 C105 1_555 1_555
C107 C106 1_555 1_555
H92 C107 1_555 1_555
C108 C107 1_555 1_555
H93 C108 1_555 1_555
C109 C108 1_555 1_555
H94 C109 1_555 1_555
C110 C109 1_555 1_555
H95 C110 1_555 1_555
C111 C106 1_555 1_555
H96 C111 1_555 1_555
O10 C112 1_555 1_555
O11 C120 1_555 1_555
O12 C127 1_555 1_555
N13 N14 1_555 1_555
N14 C114 1_555 1_555
N15 N16 1_555 1_555
N16 C120 1_555 1_555
C112 N13 1_555 1_555
C113 C112 1_555 1_555
C114 C113 1_555 1_555
C115 C114 1_555 1_555
H97 C115 1_555 1_555
H98 C115 1_555 1_555
H99 C115 1_555 1_555
C116 C113 1_555 1_555
H100 C116 1_555 1_555
C117 C116 1_555 1_555
H101 C117 1_555 1_555
C118 C117 1_555 1_555
H102 C118 1_555 1_555
C119 N15 1_555 1_555
H103 C119 1_555 1_555
C120 C121 1_555 1_555
C121 C122 1_555 1_555
C122 H104 1_555 1_555
C123 C122 1_555 1_555
H105 C123 1_555 1_555
C124 C123 1_555 1_555
H106 C124 1_555 1_555
C125 C124 1_555 1_555
H107 C125 1_555 1_555
C126 C121 1_555 1_555
C127 N16 1_555 1_555
C128 N13 1_555 1_555
C129 C128 1_555 1_555
H108 C129 1_555 1_555
C130 C129 1_555 1_555
H109 C130 1_555 1_555
C131 C130 1_555 1_555
C132 C131 1_555 1_555
H110 C132 1_555 1_555
C133 C128 1_555 1_555
H111 C133 1_555 1_555
C134 C131 1_555 1_555
H112 C134 1_555 1_555
H113 C134 1_555 1_555
H114 C134 1_555 1_555
C135 C116 1_555 1_555
H115 C135 1_555 1_555
H116 C135 1_555 1_555
C136 C135 1_555 1_555
C137 C136 1_555 1_555
H117 C137 1_555 1_555
C138 C137 1_555 1_555
H118 C138 1_555 1_555
C139 C138 1_555 1_555
H119 C139 1_555 1_555
C140 C139 1_555 1_555
H120 C140 1_555 1_555
C141 C136 1_555 1_555
H121 C141 1_555 1_555
C142 C113 1_555 1_555
H122 C142 1_555 1_555
H123 C142 1_555 1_555
C143 C142 1_555 1_555
C144 C143 1_555 1_555
H124 C144 1_555 1_555
C145 C144 1_555 1_555
H125 C145 1_555 1_555
C146 C145 1_555 1_555
H126 C146 1_555 1_555
C147 C146 1_555 1_555
H127 C147 1_555 1_555
C148 C143 1_555 1_555
H128 C148 1_555 1_555
C7 C8 1_555 1_555
C14 C15 1_555 1_555
C15 C16 1_555 1_555
C21 C22 1_555 1_555
C29 C30 1_555 1_555
C36 C37 1_555 1_555
C44 C45 1_555 1_555
C51 C52 1_555 1_555
C52 C53 1_555 1_555
C58 C59 1_555 1_555
C66 C67 1_555 1_555
C73 C74 1_555 1_555
C81 C82 1_555 1_555
C88 C89 1_555 1_555
C89 C90 1_555 1_555
C95 C96 1_555 1_555
C103 C104 1_555 1_555
C110 C111 1_555 1_555
C118 C119 1_555 1_555
C125 C126 1_555 1_555
C126 C127 1_555 1_555
C132 C133 1_555 1_555
C140 C141 1_555 1_555
C147 C148 1_555 1_555

#END
