
#######################################################################
#
#                 Cambridge Crystallographic Data Centre
#                                CCDC 
#
#######################################################################
#
# If this CIF has been generated from an entry in the Cambridge 
# Structural Database, then it will include bibliographic, chemical, 
# crystal, experimental, refinement or atomic coordinate data resulting 
# from the CCDC's data processing and validation procedures.
#
#######################################################################

data_HACYAM
_chemical_formula_moiety         'C60 H72 O4 S2'
_chemical_name_systematic        
25,27-Dihydroxy-26,28-bis(2-(phenylthio)ethoxy)-5,11,17,23-tetra-t-butylcalix(4)arene
_symmetry_cell_setting           monoclinic
_symmetry_space_group_name_H-M   'P 21/c'
_symmetry_Int_Tables_number      14
_space_group_name_Hall           '-P 2ybc'
loop_
_symmetry_equiv_pos_site_id
_symmetry_equiv_pos_as_xyz
1 x,y,z
2 x,1/2-y,1/2+z
3 -x,-y,-z
4 -x,1/2+y,1/2-z
_cell_length_a                   17.511(5)
_cell_length_b                   14.597(3)
_cell_length_c                   22.804(5)
_cell_angle_alpha                90
_cell_angle_beta                 111.552(3)
_cell_angle_gamma                90
_cell_volume                     5421.36
_chemical_melting_point          '159-160 deg.C'
_cell_formula_units_Z            4
_exptl_crystal_recrystallization_method dichloromethane/methanol
loop_
_atom_site_label
_atom_site_type_symbol
_atom_site_fract_x
_atom_site_fract_y
_atom_site_fract_z
O1 O 0.26132(18) 0.5603(2) 0.47945(13)
O2 O 0.40259(19) 0.4572(2) 0.49021(14)
H1 H 0.3627 0.4859 0.4909
O3 O 0.3304(2) 0.3264(2) 0.38877(15)
O4 O 0.1974(2) 0.4080(2) 0.40372(15)
H2 H 0.2330 0.3749 0.3998
C1 C 0.0987(3) 0.4929(3) 0.4607(2)
H3 H 0.0481 0.5166 0.4628
H4 H 0.1123 0.5300 0.4306
C2 C 0.1667(3) 0.5027(3) 0.5252(2)
C3 C 0.1519(3) 0.4786(3) 0.5788(2)
H5 H 0.0998 0.4577 0.5742
C4 C 0.2105(4) 0.4840(3) 0.6386(3)
C5 C 0.1911(4) 0.4640(4) 0.6976(3)
C6 C 0.1853(8) 0.5533(5) 0.7286(4)
H6 H 0.1722 0.5416 0.7652
H7 H 0.1431 0.5905 0.6994
H8 H 0.2369 0.5849 0.7408
C7 C 0.1093(6) 0.4168(9) 0.6832(4)
H9 H 0.1002 0.4066 0.7217
H10 H 0.1095 0.3592 0.6630
H11 H 0.0662 0.4548 0.6556
C8 C 0.2565(7) 0.4029(8) 0.7412(4)
H12 H 0.2441 0.3898 0.7780
H13 H 0.3088 0.4331 0.7535
H14 H 0.2585 0.3467 0.7199
C9 C 0.2897(3) 0.5105(3) 0.6444(2)
H15 H 0.3308 0.5125 0.6843
C10 C 0.3092(3) 0.5342(3) 0.5915(2)
C11 C 0.2449(3) 0.5338(3) 0.53285(19)
C12 C 0.3977(3) 0.5536(3) 0.5998(2)
H16 H 0.4236 0.5888 0.6381
H17 H 0.3988 0.5902 0.5646
C13 C 0.4462(3) 0.4654(3) 0.6035(2)
C14 C 0.4897(3) 0.4245(4) 0.6616(3)
H18 H 0.4898 0.4532 0.6980
C15 C 0.5331(4) 0.3423(5) 0.6675(4)
C16 C 0.5816(4) 0.2980(6) 0.7301(4)
C17 C 0.5412(8) 0.3166(6) 0.7770(4)
H19 H 0.5725 0.2883 0.8165
H20 H 0.4866 0.2918 0.7614
H21 H 0.5387 0.3815 0.7829
C18 C 0.5892(8) 0.1940(7) 0.7255(5)
H22 H 0.6196 0.1695 0.7666
H23 H 0.6174 0.1802 0.6975
H24 H 0.5354 0.1671 0.7095
C19 C 0.6653(7) 0.3435(12) 0.7563(7)
H25 H 0.6968 0.3172 0.7965
H26 H 0.6586 0.4080 0.7612
H27 H 0.6935 0.3341 0.7277
C20 C 0.5317(3) 0.3027(4) 0.6123(4)
H28 H 0.5617 0.2493 0.6149
C21 C 0.4871(3) 0.3389(4) 0.5524(3)
C22 C 0.4445(3) 0.4207(3) 0.5489(2)
C23 C 0.4814(3) 0.2878(4) 0.4933(3)
H29 H 0.5314 0.2528 0.5014
H30 H 0.4766 0.3315 0.4601
C24 C 0.4080(3) 0.2234(3) 0.4716(3)
C25 C 0.4104(3) 0.1417(4) 0.5038(3)
H31 H 0.4589 0.1256 0.5364
C26 C 0.3438(4) 0.0835(3) 0.4893(3)
C27 C 0.3491(4) -0.0103(4) 0.5208(3)
C28 C 0.4294(5) -0.0223(6) 0.5777(5)
H32 H 0.4319 0.0222 0.6094
H33 H 0.4752 -0.0138 0.5647
H34 H 0.4314 -0.0828 0.5948
C29 C 0.3489(6) -0.0837(4) 0.4722(5)
H35 H 0.3941 -0.0730 0.4587
H36 H 0.2983 -0.0805 0.4364
H37 H 0.3544 -0.1434 0.4910
C30 C 0.2772(4) -0.0283(5) 0.5417(4)
H38 H 0.2773 0.0165 0.5726
H39 H 0.2823 -0.0884 0.5598
H40 H 0.2266 -0.0242 0.5060
C31 C 0.2717(3) 0.1117(4) 0.4427(3)
H41 H 0.2254 0.0748 0.4335
C32 C 0.2646(3) 0.1921(4) 0.4088(2)
C33 C 0.3354(3) 0.2454(3) 0.4229(2)
C34 C 0.1827(3) 0.2208(4) 0.3610(2)
H42 H 0.1557 0.1675 0.3369
H43 H 0.1919 0.2639 0.3319
C35 C 0.1264(3) 0.2644(3) 0.38968(19)
C36 C 0.0611(3) 0.2152(3) 0.3956(2)
H44 H 0.0540 0.1545 0.3822
C37 C 0.0064(3) 0.2520(3) 0.4202(2)
C38 C -0.0643(3) 0.1952(4) 0.4241(3)
C39 C -0.0350(6) 0.1062(7) 0.4580(7)
H45 H -0.0045 0.1180 0.5018
H46 H -0.0005 0.0754 0.4399
H47 H -0.0814 0.0682 0.4539
C40 C -0.1115(7) 0.1511(12) 0.3598(6)
H48 H -0.1559 0.1150 0.3626
H49 H -0.0751 0.1125 0.3480
H50 H -0.1330 0.1982 0.3287
C41 C -0.1246(7) 0.2488(6) 0.4373(9)
H51 H -0.0995 0.2789 0.4773
H52 H -0.1679 0.2096 0.4387
H53 H -0.1468 0.2939 0.4048
C42 C 0.0214(3) 0.3426(3) 0.4410(2)
H54 H -0.0134 0.3691 0.4587
C43 C 0.0846(3) 0.3947(3) 0.4368(2)
C44 C 0.1370(3) 0.3551(3) 0.4110(2)
C45 C 0.2534(3) 0.6564(3) 0.4663(2)
H55 H 0.2985 0.6891 0.4973
H56 H 0.2024 0.6787 0.4687
C46 C 0.2540(4) 0.6726(5) 0.4024(3)
H57 H 0.2943 0.6325 0.3958
H58 H 0.2707 0.7353 0.3997
S1 S 0.15373(18) 0.65272(16) 0.33954(10)
C47 C 0.1009(3) 0.7628(3) 0.3311(2)
C48 C 0.1179(3) 0.8287(4) 0.3781(2)
H59 H 0.1598 0.8190 0.4170
C49 C 0.0722(4) 0.9091(4) 0.3672(2)
H60 H 0.0836 0.9532 0.3987
C50 C 0.0096(4) 0.9236(3) 0.3092(3)
H61 H -0.0210 0.9773 0.3019
C51 C -0.0074(3) 0.8576(4) 0.2621(2)
H62 H -0.0493 0.8673 0.2233
C52 C 0.0383(4) 0.7773(4) 0.2731(2)
H63 H 0.0269 0.7332 0.2416
C60 C 0.3585(4) 0.3191(4) 0.3370(3)
H71 H 0.3281 0.2717 0.3080
H72 H 0.4163 0.3032 0.3526
C61 C 0.3452(4) 0.4092(4) 0.3044(3)
H73 H 0.3736 0.4565 0.3344
H74 H 0.2871 0.4236 0.2883
S3 S 0.3824(2) 0.4089(2) 0.23963(12)
C62 C 0.3061(7) 0.3518(8) 0.1793(5)
C63 C 0.3301(5) 0.2927(10) 0.1415(7)
H75 H 0.3855 0.2794 0.1517
C64 C 0.2715(9) 0.2534(9) 0.0885(6)
H76 H 0.2876 0.2139 0.0632
C65 C 0.1888(7) 0.2733(9) 0.0732(4)
H77 H 0.1496 0.2470 0.0378
C66 C 0.1648(5) 0.3324(9) 0.1110(7)
H78 H 0.1094 0.3457 0.1008
C67 C 0.2234(9) 0.3717(7) 0.1641(6)
H79 H 0.2073 0.4112 0.1893
C53? C 0.2540(4) 0.6726(5) 0.4024(3)
H64? H 0.2065 0.6388 0.3751
H65? H 0.3012 0.6380 0.4022
S2? S 0.2549(7) 0.7625(8) 0.3622(6)
C54? C 0.1412(13) 0.824(2) 0.3473(12)
C55? C 0.1119(16) 0.7378(17) 0.3234(12)
H66? H 0.1485 0.6900 0.3270
C56? C 0.0279(17) 0.7232(15) 0.2942(11)
H67? H 0.0083 0.6657 0.2782
C57? C -0.0267(13) 0.795(2) 0.2889(11)
H68? H -0.0829 0.7849 0.2693
C58? C 0.0026(16) 0.8807(17) 0.3128(12)
H69? H -0.0339 0.9285 0.3092
C59? C 0.0866(18) 0.8953(16) 0.3420(12)
H70? H 0.1062 0.9528 0.3580
C68? C 0.3452(4) 0.4092(4) 0.3044(3)
H80? H 0.3844 0.4175 0.2840
H81? H 0.3526 0.4583 0.3347
S4? S 0.2420(3) 0.4114(3) 0.2467(2)
C69? C 0.2537(14) 0.3518(11) 0.1845(6)
C70? C 0.3232(8) 0.3115(15) 0.1799(8)
H82? H 0.3736 0.3167 0.2130
C71? C 0.3175(10) 0.2636(15) 0.1257(10)
H83? H 0.3640 0.2367 0.1226
C72? C 0.2422(14) 0.2559(14) 0.0762(7)
H84? H 0.2383 0.2239 0.0400
C73? C 0.1727(9) 0.2962(17) 0.0808(7)
H85? H 0.1223 0.2910 0.0477
C74? C 0.1784(10) 0.3441(14) 0.1350(9)
H86? H 0.1319 0.3710 0.1381
loop_
_geom_bond_atom_site_label_1
_geom_bond_atom_site_label_2
_geom_bond_site_symmetry_1
_geom_bond_site_symmetry_2
O1 C11 1_555 1_555
O2 H1 1_555 1_555
O3 C33 1_555 1_555
O4 H2 1_555 1_555
C1 H3 1_555 1_555
H4 C1 1_555 1_555
C2 C1 1_555 1_555
C3 C2 1_555 1_555
H5 C3 1_555 1_555
C4 C3 1_555 1_555
C5 C4 1_555 1_555
C6 C5 1_555 1_555
H6 C6 1_555 1_555
H7 C6 1_555 1_555
H8 C6 1_555 1_555
C7 C5 1_555 1_555
H9 C7 1_555 1_555
H10 C7 1_555 1_555
H11 C7 1_555 1_555
C8 C5 1_555 1_555
H12 C8 1_555 1_555
H13 C8 1_555 1_555
H14 C8 1_555 1_555
C9 C4 1_555 1_555
H15 C9 1_555 1_555
C10 C9 1_555 1_555
C11 C2 1_555 1_555
C12 C10 1_555 1_555
H16 C12 1_555 1_555
H17 C12 1_555 1_555
C13 C12 1_555 1_555
C14 C13 1_555 1_555
H18 C14 1_555 1_555
C15 C14 1_555 1_555
C16 C15 1_555 1_555
C17 C16 1_555 1_555
H19 C17 1_555 1_555
H20 C17 1_555 1_555
H21 C17 1_555 1_555
C18 C16 1_555 1_555
H22 C18 1_555 1_555
H23 C18 1_555 1_555
H24 C18 1_555 1_555
C19 C16 1_555 1_555
H25 C19 1_555 1_555
H26 C19 1_555 1_555
H27 C19 1_555 1_555
C20 C15 1_555 1_555
H28 C20 1_555 1_555
C21 C20 1_555 1_555
C22 O2 1_555 1_555
C23 C21 1_555 1_555
H29 C23 1_555 1_555
H30 C23 1_555 1_555
C24 C23 1_555 1_555
C25 C24 1_555 1_555
H31 C25 1_555 1_555
C26 C25 1_555 1_555
C27 C26 1_555 1_555
C28 C27 1_555 1_555
H32 C28 1_555 1_555
H33 C28 1_555 1_555
H34 C28 1_555 1_555
C29 C27 1_555 1_555
H35 C29 1_555 1_555
H36 C29 1_555 1_555
H37 C29 1_555 1_555
C30 C27 1_555 1_555
H38 C30 1_555 1_555
H39 C30 1_555 1_555
H40 C30 1_555 1_555
C31 C26 1_555 1_555
H41 C31 1_555 1_555
C32 C31 1_555 1_555
C33 C24 1_555 1_555
C34 C32 1_555 1_555
H42 C34 1_555 1_555
H43 C34 1_555 1_555
C35 C34 1_555 1_555
C36 C35 1_555 1_555
H44 C36 1_555 1_555
C37 C36 1_555 1_555
C38 C37 1_555 1_555
C39 C38 1_555 1_555
H45 C39 1_555 1_555
H46 C39 1_555 1_555
H47 C39 1_555 1_555
C40 C38 1_555 1_555
H48 C40 1_555 1_555
H49 C40 1_555 1_555
H50 C40 1_555 1_555
C41 C38 1_555 1_555
H51 C41 1_555 1_555
H52 C41 1_555 1_555
H53 C41 1_555 1_555
C42 C37 1_555 1_555
H54 C42 1_555 1_555
C43 C1 1_555 1_555
C44 O4 1_555 1_555
C45 O1 1_555 1_555
H55 C45 1_555 1_555
H56 C45 1_555 1_555
C46 C45 1_555 1_555
H57 C46 1_555 1_555
H58 C46 1_555 1_555
S1 C46 1_555 1_555
C47 S1 1_555 1_555
C48 C47 1_555 1_555
H59 C48 1_555 1_555
C49 C48 1_555 1_555
H60 C49 1_555 1_555
C50 C49 1_555 1_555
H61 C50 1_555 1_555
C51 C50 1_555 1_555
H62 C51 1_555 1_555
C52 C47 1_555 1_555
H63 C52 1_555 1_555
C60 O3 1_555 1_555
H71 C60 1_555 1_555
H72 C60 1_555 1_555
C61 C60 1_555 1_555
H73 C61 1_555 1_555
H74 C61 1_555 1_555
S3 C61 1_555 1_555
C62 S3 1_555 1_555
C63 C62 1_555 1_555
H75 C63 1_555 1_555
C64 C63 1_555 1_555
H76 C64 1_555 1_555
C65 C64 1_555 1_555
H77 C65 1_555 1_555
C66 C65 1_555 1_555
H78 C66 1_555 1_555
C67 C62 1_555 1_555
H79 C67 1_555 1_555
C10 C11 1_555 1_555
C13 C22 1_555 1_555
C21 C22 1_555 1_555
C32 C33 1_555 1_555
C35 C44 1_555 1_555
C42 C43 1_555 1_555
C43 C44 1_555 1_555
C51 C52 1_555 1_555
C66 C67 1_555 1_555

#END
