
#######################################################################
#
#                 Cambridge Crystallographic Data Centre
#                                CCDC 
#
#######################################################################
#
# If this CIF has been generated from an entry in the Cambridge 
# Structural Database, then it will include bibliographic, chemical, 
# crystal, experimental, refinement or atomic coordinate data resulting 
# from the CCDC's data processing and validation procedures.
#
#######################################################################

data_HADBET
_chemical_formula_moiety         'C26 H28 N1 O2 1+,Br1 1-'
_chemical_name_systematic        
'N-Benzyl-4-(diphenylacetoxy)piperidinium bromide'
_chemical_properties_biological  
'agent that blocks muscarine-sensitive acetylcholine receptors'
_symmetry_cell_setting           triclinic
_symmetry_space_group_name_H-M   'P -1'
_symmetry_Int_Tables_number      2
_space_group_name_Hall           '-P 1'
loop_
_symmetry_equiv_pos_site_id
_symmetry_equiv_pos_as_xyz
1 x,y,z
2 -x,-y,-z
_cell_length_a                   7.052(2)
_cell_length_b                   12.159(1)
_cell_length_c                   13.858(3)
_cell_angle_alpha                94.12(1)
_cell_angle_beta                 90.96(2)
_cell_angle_gamma                94.06(2)
_cell_volume                     1181.93
_exptl_crystal_colour            Colorless
_cell_formula_units_Z            2
loop_
_atom_site_label
_atom_site_type_symbol
_atom_site_fract_x
_atom_site_fract_y
_atom_site_fract_z
Br1 Br 0.2535(1) 0.1452(1) 0.0484(1)
N1 N 0.7241(3) 0.0905(2) 0.8650(2)
O1 O 0.6617(3) 0.1118(1) 0.6211(1)
O2 O 0.7554(3) 0.0401(2) 0.4776(1)
C1 C 0.7591(5) 0.1753(2) 0.9500(2)
C2 C 0.7753(4) 0.2927(2) 0.9221(2)
C3 C 0.6161(5) 0.3525(3) 0.9181(2)
C4 C 0.6351(6) 0.4612(3) 0.8944(3)
C5 C 0.8095(7) 0.5104(3) 0.8753(3)
C6 C 0.9668(6) 0.4525(3) 0.8795(3)
C7 C 0.9520(5) 0.3433(3) 0.9034(2)
C8 C 0.8844(4) 0.0900(3) 0.7957(2)
C9 C 0.8477(5) -0.0013(3) 0.7163(2)
C10 C 0.6576(5) 0.0057(2) 0.6646(2)
C11 C 0.4982(5) 0.0069(3) 0.7361(2)
C12 C 0.5347(4) 0.0989(3) 0.8154(2)
C13 C 0.7241(4) 0.1182(2) 0.5310(2)
C14 C 0.7531(4) 0.2387(2) 0.5101(2)
C15 C 0.7326(4) 0.2565(2) 0.4029(2)
C16 C 0.5621(5) 0.2900(3) 0.3685(2)
C17 C 0.5393(6) 0.3067(3) 0.2707(3)
C18 C 0.6839(7) 0.2893(3) 0.2086(2)
C19 C 0.8529(6) 0.2559(3) 0.2417(2)
C20 C 0.8770(5) 0.2393(2) 0.3396(2)
C21 C 0.9403(4) 0.2866(2) 0.5571(2)
C22 C 0.9595(5) 0.3967(3) 0.5899(2)
C23 C 1.1285(6) 0.4419(3) 0.6341(3)
C24 C 1.2766(6) 0.3777(4) 0.6478(3)
C25 C 1.2597(5) 0.2684(3) 0.6162(3)
C26 C 1.0934(4) 0.2222(3) 0.5696(2)
H1 H 0.7161(36) 0.0255(23) 0.8925(19)
H2 H 0.6497(40) 0.1614(22) 0.9946(20)
H3 H 0.8711(41) 0.1564(23) 0.9763(21)
H4 H 0.4933 0.3188 0.9318
H5 H 0.5244 0.5026 0.8913
H6 H 0.8208 0.5859 0.8588
H7 H 1.0891 0.4872 0.8660
H8 H 1.0638 0.3029 0.9069
H9 H 0.9000(35) 0.1595(22) 0.7715(18)
H10 H 0.9917(45) 0.0810(25) 0.8305(22)
H11 H 0.9486(45) 0.0045(24) 0.6745(23)
H12 H 0.8379(45) -0.0709(28) 0.7424(24)
H13 H 0.6265(37) -0.0558(23) 0.6098(20)
H14 H 0.3703(42) 0.0178(23) 0.7024(21)
H15 H 0.4883(43) -0.0629(26) 0.7654(22)
H16 H 0.4373(40) 0.0956(23) 0.8671(21)
H17 H 0.5381(41) 0.1730(25) 0.7897(21)
H18 H 0.6514(34) 0.2723(20) 0.5431(18)
H19 H 0.4598 0.3018 0.4120
H20 H 0.4214 0.3305 0.2470
H21 H 0.6671 0.3007 0.1412
H22 H 0.9545 0.2439 0.1978
H23 H 0.9954 0.2156 0.3629
H24 H 0.8555 0.4424 0.5822
H25 H 1.1412 0.5190 0.6552
H26 H 1.3919 0.4093 0.6795
H27 H 1.3634 0.2232 0.6262
H28 H 1.0866 0.1467 0.5460
loop_
_geom_bond_atom_site_label_1
_geom_bond_atom_site_label_2
_geom_bond_site_symmetry_1
_geom_bond_site_symmetry_2
N1 C1 1_555 1_555
O1 C10 1_555 1_555
O2 C13 1_555 1_555
C1 C2 1_555 1_555
C2 C3 1_555 1_555
C3 C4 1_555 1_555
C4 C5 1_555 1_555
C5 C6 1_555 1_555
C6 C7 1_555 1_555
C7 C2 1_555 1_555
C8 N1 1_555 1_555
C9 C8 1_555 1_555
C10 C9 1_555 1_555
C11 C10 1_555 1_555
C12 N1 1_555 1_555
C13 O1 1_555 1_555
C14 C13 1_555 1_555
C15 C14 1_555 1_555
C16 C15 1_555 1_555
C17 C16 1_555 1_555
C18 C17 1_555 1_555
C19 C18 1_555 1_555
C20 C15 1_555 1_555
C21 C14 1_555 1_555
C22 C21 1_555 1_555
C23 C22 1_555 1_555
C24 C23 1_555 1_555
C25 C24 1_555 1_555
C26 C21 1_555 1_555
H1 N1 1_555 1_555
H2 C1 1_555 1_555
H3 C1 1_555 1_555
H4 C3 1_555 1_555
H5 C4 1_555 1_555
H6 C5 1_555 1_555
H7 C6 1_555 1_555
H8 C7 1_555 1_555
H9 C8 1_555 1_555
H10 C8 1_555 1_555
H11 C9 1_555 1_555
H12 C9 1_555 1_555
H13 C10 1_555 1_555
H14 C11 1_555 1_555
H15 C11 1_555 1_555
H16 C12 1_555 1_555
H17 C12 1_555 1_555
H18 C14 1_555 1_555
H19 C16 1_555 1_555
H20 C17 1_555 1_555
H21 C18 1_555 1_555
H22 C19 1_555 1_555
H23 C20 1_555 1_555
H24 C22 1_555 1_555
H25 C23 1_555 1_555
H26 C24 1_555 1_555
H27 C25 1_555 1_555
H28 C26 1_555 1_555
C11 C12 1_555 1_555
C19 C20 1_555 1_555
C25 C26 1_555 1_555

#END
