
#######################################################################
#
#                 Cambridge Crystallographic Data Centre
#                                CCDC 
#
#######################################################################
#
# If this CIF has been generated from an entry in the Cambridge 
# Structural Database, then it will include bibliographic, chemical, 
# crystal, experimental, refinement or atomic coordinate data resulting 
# from the CCDC's data processing and validation procedures.
#
#######################################################################

data_HADBIX
_chemical_formula_moiety         'C26 H34 N1 O2 1+,Cl1 1-'
_chemical_name_systematic        
'N-(Cyclohexylmethyl)-4-(diphenylacetoxy)piperidinium chloride'
_symmetry_cell_setting           monoclinic
_symmetry_space_group_name_H-M   'P 21/n'
_symmetry_Int_Tables_number      14
_space_group_name_Hall           '-P 2yn'
loop_
_symmetry_equiv_pos_site_id
_symmetry_equiv_pos_as_xyz
1 x,y,z
2 1/2-x,1/2+y,1/2-z
3 -x,-y,-z
4 1/2+x,1/2-y,1/2+z
_cell_length_a                   5.833(3)
_cell_length_b                   35.11(2)
_cell_length_c                   11.828(6)
_cell_angle_alpha                90
_cell_angle_beta                 101.31(4)
_cell_angle_gamma                90
_cell_volume                     2375.29
_exptl_crystal_colour            Colorless
_cell_formula_units_Z            4
loop_
_atom_site_label
_atom_site_type_symbol
_atom_site_fract_x
_atom_site_fract_y
_atom_site_fract_z
Cl1 Cl 0.1511(3) 0.2559(1) 0.5477(1)
O1 O 0.4784(8) 0.1528(1) 0.3461(4)
O2 O 0.7398(11) 0.1362(2) 0.2424(5)
N1 N 0.3527(9) 0.2705(1) 0.3333(4)
C1 C 0.3239(12) 0.3112(2) 0.2960(6)
C2 C 0.2016(12) 0.2452(2) 0.2456(5)
C3 C 0.2166(12) 0.2045(2) 0.2837(6)
C4 C 0.4693(12) 0.1913(2) 0.2997(6)
C5 C 0.6213(11) 0.2160(2) 0.3858(6)
C6 C 0.6037(11) 0.2573(2) 0.3500(6)
C7 C 0.6292(14) 0.1288(2) 0.3133(7)
C8 C 0.6407(13) 0.0919(2) 0.3812(6)
C9 C 0.4680(16) 0.3403(2) 0.3712(6)
C10 C 0.4692(20) 0.3395(3) 0.4918(10)
C12 C 0.6487(20) 0.3719(3) 0.5551(10)
C14 C 0.5710(22) 0.4123(3) 0.4971(9)
C15 C 0.5814(22) 0.4120(3) 0.3792(11)
C17 C 0.3986(20) 0.3803(3) 0.3127(10)
C19 C 0.8719(14) 0.0884(2) 0.4655(6)
C20 C 1.0217(17) 0.1186(3) 0.4919(7)
C21 C 1.2272(16) 0.1144(3) 0.5704(7)
C22 C 1.2791(17) 0.0798(3) 0.6242(7)
C23 C 1.1314(20) 0.0498(3) 0.5990(8)
C24 C 0.9293(17) 0.0543(2) 0.5207(7)
C25 C 0.5893(14) 0.0583(2) 0.3013(6)
C26 C 0.3980(16) 0.0361(3) 0.3043(8)
C27 C 0.3511(18) 0.0045(3) 0.2305(10)
C28 C 0.4982(22) -0.0044(3) 0.1563(8)
C29 C 0.6817(18) 0.0179(3) 0.1543(7)
C30 C 0.7295(14) 0.0486(2) 0.2256(7)
H1 H 0.2690 0.2675 0.4167
H2 H 0.1622 0.3180 0.2888
H3 H 0.3619 0.3131 0.2208
H4 H 0.2551 0.2471 0.1741
H5 H 0.0424 0.2538 0.2328
H6 H 0.1174 0.1888 0.2281
H7 H 0.1669 0.2024 0.3562
H8 H 0.5212 0.1919 0.2275
H9 H 0.7807 0.2076 0.3968
H10 H 0.5701 0.2135 0.4578
H11 H 0.6992 0.2728 0.4075
H12 H 0.6593 0.2599 0.2793
H13 H 0.5190 0.0928 0.4253
H14 H 0.9816 0.1428 0.4561
H15 H 1.3356 0.1351 0.5881
H16 H 1.4215 0.0765 0.6798
H17 H 1.1700 0.0255 0.6354
H18 H 0.8210 0.0335 0.5049
H19 H 0.2998 0.0423 0.3580
H20 H 0.2141 -0.0105 0.2308
H21 H 0.4686 -0.0265 0.1077
H22 H 0.7818 0.0120 0.1012
H23 H 0.8643 0.0540 0.2227
C11? C 0.6943(61) 0.3482(9) 0.3871(27)
C13? C 0.7878(70) 0.3789(11) 0.4845(34)
C16? C 0.3263(66) 0.4015(10) 0.4784(30)
C18? C 0.2439(57) 0.3717(9) 0.3728(27)
loop_
_geom_bond_atom_site_label_1
_geom_bond_atom_site_label_2
_geom_bond_site_symmetry_1
_geom_bond_site_symmetry_2
O1 C4 1_555 1_555
O2 C7 1_555 1_555
N1 C1 1_555 1_555
C1 C9 1_555 1_555
C2 N1 1_555 1_555
C3 C2 1_555 1_555
C4 C3 1_555 1_555
C5 C4 1_555 1_555
C6 N1 1_555 1_555
C7 O1 1_555 1_555
C8 C7 1_555 1_555
C9 C10 1_555 1_555
C10 C12 1_555 1_555
C12 C14 1_555 1_555
C14 C15 1_555 1_555
C15 C17 1_555 1_555
C17 C9 1_555 1_555
C19 C8 1_555 1_555
C20 C19 1_555 1_555
C21 C20 1_555 1_555
C22 C21 1_555 1_555
C23 C22 1_555 1_555
C24 C19 1_555 1_555
C25 C8 1_555 1_555
C26 C25 1_555 1_555
C27 C26 1_555 1_555
C28 C27 1_555 1_555
C29 C28 1_555 1_555
C30 C25 1_555 1_555
H1 N1 1_555 1_555
H2 C1 1_555 1_555
H3 C1 1_555 1_555
H4 C2 1_555 1_555
H5 C2 1_555 1_555
H6 C3 1_555 1_555
H7 C3 1_555 1_555
H8 C4 1_555 1_555
H9 C5 1_555 1_555
H10 C5 1_555 1_555
H11 C6 1_555 1_555
H12 C6 1_555 1_555
H13 C8 1_555 1_555
H14 C20 1_555 1_555
H15 C21 1_555 1_555
H16 C22 1_555 1_555
H17 C23 1_555 1_555
H18 C24 1_555 1_555
H19 C26 1_555 1_555
H20 C27 1_555 1_555
H21 C28 1_555 1_555
H22 C29 1_555 1_555
H23 C30 1_555 1_555
C5 C6 1_555 1_555
C23 C24 1_555 1_555
C29 C30 1_555 1_555

#END
