
#######################################################################
#
#                 Cambridge Crystallographic Data Centre
#                                CCDC 
#
#######################################################################
#
# If this CIF has been generated from an entry in the Cambridge 
# Structural Database, then it will include bibliographic, chemical, 
# crystal, experimental, refinement or atomic coordinate data resulting 
# from the CCDC's data processing and validation procedures.
#
#######################################################################

data_HADJIG
_chemical_formula_moiety         'C24 H21 N5'
_chemical_name_systematic        
5'-(3,3-Diethyltriaz-1-enyl)-1,1':3',1''-terphenyl-3,3''-dicarbonitrile
_symmetry_cell_setting           triclinic
_symmetry_space_group_name_H-M   'P -1'
_symmetry_Int_Tables_number      2
_space_group_name_Hall           '-P 1'
loop_
_symmetry_equiv_pos_site_id
_symmetry_equiv_pos_as_xyz
1 x,y,z
2 -x,-y,-z
_cell_length_a                   8.343(6)
_cell_length_b                   14.306(11)
_cell_length_c                   18.797(12)
_cell_angle_alpha                80.66(6)
_cell_angle_beta                 87.54(6)
_cell_angle_gamma                76.01(6)
_cell_volume                     2148.09
_exptl_crystal_colour            colorless
_exptl_crystal_description       prism
_chemical_melting_point          '110-113 deg.C'
_cell_formula_units_Z            4
loop_
_atom_site_label
_atom_site_type_symbol
_atom_site_fract_x
_atom_site_fract_y
_atom_site_fract_z
N1 N 0.1869(5) 0.1944(3) -0.1548(2)
N2 N 0.1132(5) 0.2633(3) -0.1249(2)
N3 N 0.0814(6) 0.2400(4) -0.0551(2)
N4 N 0.8840(5) 0.1205(3) -0.5518(2)
N5 N 0.3289(5) 0.6269(2) -0.5839(2)
C1 C 0.4680(5) 0.1007(3) -0.3723(2)
C2 C 0.5785(5) 0.1279(3) -0.4226(2)
H1 H 0.5837(5) 0.1949(3) -0.4341(2)
C3 C 0.6837(5) 0.0592(3) -0.4579(2)
C4 C 0.6801(6) -0.0376(3) -0.4435(2)
H2 H 0.7530(6) -0.0845(3) -0.4685(2)
C5 C 0.5692(7) -0.0650(3) -0.3927(3)
H3 H 0.5654(7) -0.1322(3) -0.3803(3)
C6 C 0.4647(5) 0.0032(3) -0.3577(2)
H4 H 0.3854(5) -0.0153(3) -0.3231(2)
C7 C 0.3579(4) 0.1747(3) -0.3355(2)
C8 C 0.2936(4) 0.2682(3) -0.3725(2)
H5 H 0.3191(4) 0.2834(3) -0.4227(2)
C9 C 0.1926(4) 0.3404(3) -0.3385(2)
C10 C 0.1546(4) 0.3179(3) -0.2662(2)
H6 H 0.0843(4) 0.3664(3) -0.2417(2)
C11 C 0.2165(5) 0.2254(3) -0.2289(2)
C12 C 0.3165(5) 0.1549(3) -0.2635(2)
H7 H 0.3585(5) 0.0909(3) -0.2370(2)
C13 C 0.1307(4) 0.4398(3) -0.3787(2)
C14 C 0.2184(4) 0.4758(3) -0.4366(2)
H8 H 0.3212(4) 0.4362(3) -0.4507(2)
C15 C 0.1609(5) 0.5683(3) -0.4746(2)
C16 C 0.0149(6) 0.6285(3) -0.4546(2)
H9 H -0.0244(6) 0.6929(3) -0.4809(2)
C17 C -0.0716(5) 0.5935(3) -0.3968(2)
H10 H -0.1722(5) 0.6342(3) -0.3816(2)
C18 C -0.0152(5) 0.5002(3) -0.3596(2)
H11 H -0.0779(5) 0.4756(3) -0.3200(2)
C19 C 0.7961(6) 0.0917(3) -0.5101(3)
C20 C 0.2534(5) 0.6024(3) -0.5350(2)
C21 C 0.0909(11) 0.1160(8) -0.0217(4)
H12 H 0.0836(11) 0.0781(8) -0.0587(4)
H13 H 0.0179(11) 0.1043(8) 0.0178(4)
C22 C 0.2314(13) 0.1101(9) -0.0036(4)
H14 H 0.2768(36) 0.0457(18) 0.0217(37)
H15 H 0.2310(17) 0.1572(39) 0.0275(34)
H16 H 0.2973(27) 0.1226(59) -0.0455(5)
C23 C 0.0536(12) 0.3296(8) -0.0058(5)
H17 H 0.0813(12) 0.3875(8) -0.0312(5)
H18 H 0.0972(12) 0.3129(8) 0.0422(5)
C24 C -0.0955(11) 0.3423(9) -0.0083(7)
H19 H -0.1445(15) 0.3685(85) 0.0336(34)
H20 H -0.1230(12) 0.2812(18) -0.0095(70)
H21 H -0.1368(21) 0.3872(71) -0.0509(37)
N6 N -0.4404(4) 0.2309(3) -0.0002(2)
N7 N -0.4982(4) 0.3004(3) 0.0312(2)
N8 N -0.5056(5) 0.2732(4) 0.1050(2)
N9 N -0.1439(6) -0.1964(3) -0.2192(4)
N10 N -0.4862(5) 0.6892(3) -0.4334(2)
C25 C -0.2328(4) 0.1485(3) -0.2328(2)
C26 C -0.2301(4) 0.0506(3) -0.2151(2)
H22 H -0.2955(4) 0.0292(3) -0.1753(2)
C27 C -0.1365(5) -0.0169(3) -0.2546(3)
C28 C -0.0439(5) 0.0123(4) -0.3121(2)
H23 H 0.0213(5) -0.0353(4) -0.3390(2)
C29 C -0.0446(5) 0.1088(4) -0.3305(2)
H24 H 0.0200(5) 0.1299(4) -0.3706(2)
C30 C -0.1391(5) 0.1760(3) -0.2912(2)
H25 H -0.1406(5) 0.2439(3) -0.3044(2)
C31 C -0.3327(4) 0.2204(3) -0.1912(2)
C32 C -0.4175(4) 0.3107(3) -0.2262(2)
H26 H -0.4089(4) 0.3259(3) -0.2777(2)
C33 C -0.5138(4) 0.3787(3) -0.1874(2)
C34 C -0.5246(4) 0.3558(3) -0.1126(2)
H27 H -0.5911(4) 0.4022(3) -0.0852(2)
C35 C -0.4391(5) 0.2650(3) -0.0783(2)
C36 C -0.3461(4) 0.1988(3) -0.1176(2)
H28 H -0.2885(4) 0.1360(3) -0.0935(2)
C37 C -0.6042(5) 0.4746(3) -0.2259(2)
C38 C -0.5384(4) 0.5194(3) -0.2864(2)
H29 H -0.4329(4) 0.4887(3) -0.3047(2)
C39 C -0.6235(5) 0.6090(3) -0.3208(2)
C40 C -0.7752(5) 0.6567(3) -0.2954(2)
H30 H -0.8329(5) 0.7191(3) -0.3202(2)
C41 C -0.8389(5) 0.6111(3) -0.2358(3)
H31 H -0.9433(5) 0.6423(3) -0.2168(3)
C42 C -0.7570(5) 0.5224(3) -0.2016(2)
H32 H -0.8046(5) 0.4911(3) -0.1597(2)
C43 C -0.1393(6) -0.1171(4) -0.2348(3)
C44 C -0.5500(5) 0.6540(3) -0.3831(3)
C45 C -0.4519(8) 0.1670(6) 0.1385(3)
H33 H -0.4710(8) 0.1264(6) 0.1053(3)
H34 H -0.5140(8) 0.1546(6) 0.1817(3)
C46 C -0.2788(8) 0.1418(5) 0.1551(3)
H35 H -0.2455(15) 0.0738(8) 0.1747(23)
H36 H -0.2585(12) 0.1800(23) 0.1897(19)
H37 H -0.2169(9) 0.1547(32) 0.1119(5)
C47 C -0.5547(9) 0.3523(6) 0.1454(3)
H38 H -0.4782(9) 0.3928(6) 0.1325(3)
H39 H -0.5387(9) 0.3270(6) 0.1957(3)
C48 C -0.6993(10) 0.4126(6) 0.1383(5)
H40 H -0.7285(43) 0.4392(43) 0.1821(15)
H41 H -0.7799(19) 0.3786(13) 0.1284(42)
H42 H -0.6964(28) 0.4645(30) 0.0992(27)
loop_
_geom_bond_atom_site_label_1
_geom_bond_atom_site_label_2
_geom_bond_site_symmetry_1
_geom_bond_site_symmetry_2
N1 N2 1_555 1_555
N2 N3 1_555 1_555
N3 C21 1_555 1_555
N4 C19 1_555 1_555
N5 C20 1_555 1_555
C1 C2 1_555 1_555
C2 H1 1_555 1_555
C3 C2 1_555 1_555
C4 C3 1_555 1_555
H2 C4 1_555 1_555
C5 C4 1_555 1_555
H3 C5 1_555 1_555
C6 C1 1_555 1_555
H4 C6 1_555 1_555
C7 C1 1_555 1_555
C8 C7 1_555 1_555
H5 C8 1_555 1_555
C9 C8 1_555 1_555
C10 C9 1_555 1_555
H6 C10 1_555 1_555
C11 N1 1_555 1_555
C12 C7 1_555 1_555
H7 C12 1_555 1_555
C13 C9 1_555 1_555
C14 C13 1_555 1_555
H8 C14 1_555 1_555
C15 C14 1_555 1_555
C16 C15 1_555 1_555
H9 C16 1_555 1_555
C17 C16 1_555 1_555
H10 C17 1_555 1_555
C18 C13 1_555 1_555
H11 C18 1_555 1_555
C19 C3 1_555 1_555
C20 C15 1_555 1_555
C21 H12 1_555 1_555
H13 C21 1_555 1_555
C22 C21 1_555 1_555
H14 C22 1_555 1_555
H15 C22 1_555 1_555
H16 C22 1_555 1_555
C23 N3 1_555 1_555
H17 C23 1_555 1_555
H18 C23 1_555 1_555
C24 C23 1_555 1_555
H19 C24 1_555 1_555
H20 C24 1_555 1_555
H21 C24 1_555 1_555
N6 N7 1_555 1_555
N7 N8 1_555 1_555
N8 C45 1_555 1_555
N9 C43 1_555 1_555
N10 C44 1_555 1_555
C25 C26 1_555 1_555
C26 H22 1_555 1_555
C27 C26 1_555 1_555
C28 C27 1_555 1_555
H23 C28 1_555 1_555
C29 C28 1_555 1_555
H24 C29 1_555 1_555
C30 C25 1_555 1_555
H25 C30 1_555 1_555
C31 C25 1_555 1_555
C32 C31 1_555 1_555
H26 C32 1_555 1_555
C33 C32 1_555 1_555
C34 C33 1_555 1_555
H27 C34 1_555 1_555
C35 N6 1_555 1_555
C36 C31 1_555 1_555
H28 C36 1_555 1_555
C37 C33 1_555 1_555
C38 C37 1_555 1_555
H29 C38 1_555 1_555
C39 C38 1_555 1_555
C40 C39 1_555 1_555
H30 C40 1_555 1_555
C41 C40 1_555 1_555
H31 C41 1_555 1_555
C42 C37 1_555 1_555
H32 C42 1_555 1_555
C43 C27 1_555 1_555
C44 C39 1_555 1_555
C45 H33 1_555 1_555
H34 C45 1_555 1_555
C46 C45 1_555 1_555
H35 C46 1_555 1_555
H36 C46 1_555 1_555
H37 C46 1_555 1_555
C47 N8 1_555 1_555
H38 C47 1_555 1_555
H39 C47 1_555 1_555
C48 C47 1_555 1_555
H40 C48 1_555 1_555
H41 C48 1_555 1_555
H42 C48 1_555 1_555
C5 C6 1_555 1_555
C10 C11 1_555 1_555
C11 C12 1_555 1_555
C17 C18 1_555 1_555
C29 C30 1_555 1_555
C34 C35 1_555 1_555
C35 C36 1_555 1_555
C41 C42 1_555 1_555

#END
