
#######################################################################
#
#                 Cambridge Crystallographic Data Centre
#                                CCDC 
#
#######################################################################
#
# If this CIF has been generated from an entry in the Cambridge 
# Structural Database, then it will include bibliographic, chemical, 
# crystal, experimental, refinement or atomic coordinate data resulting 
# from the CCDC's data processing and validation procedures.
#
#######################################################################

data_HADLUU
_chemical_formula_moiety         'C24 H21 N1 O1'
_chemical_name_systematic        
Phenyl-(6-exo-phenyl-6-endo-(pyrid-2-yl)bicyclo(2.1.1)hex-5-yl)methanone
_symmetry_cell_setting           triclinic
_symmetry_space_group_name_H-M   'P -1'
_symmetry_Int_Tables_number      2
_space_group_name_Hall           '-P 1'
loop_
_symmetry_equiv_pos_site_id
_symmetry_equiv_pos_as_xyz
1 x,y,z
2 -x,-y,-z
_cell_length_a                   8.7146(12)
_cell_length_b                   9.8997(14)
_cell_length_c                   10.7836(15)
_cell_angle_alpha                88.814(3)
_cell_angle_beta                 78.191(4)
_cell_angle_gamma                75.242(2)
_cell_volume                     880.105
_exptl_crystal_colour            colorless
_exptl_crystal_description       needle
_chemical_melting_point          '230-232 deg.C'
_cell_formula_units_Z            2
_exptl_crystal_recrystallization_method dichloromethane
loop_
_atom_site_label
_atom_site_type_symbol
_atom_site_fract_x
_atom_site_fract_y
_atom_site_fract_z
C1 C 0.13242(16) 0.57483(13) 0.61486(13)
O1 O 0.40967(13) 0.32755(11) 0.54482(10)
N1 N 0.12834(16) 0.88077(12) 0.81684(13)
C2 C -0.11845(16) 0.72865(12) 0.77841(12)
C3 C 0.17323(16) 0.57294(13) 0.79581(12)
C4 C -0.22720(17) 0.75137(13) 0.69718(14)
C5 C -0.17962(17) 0.75265(14) 0.90785(13)
C6 C -0.39256(17) 0.79825(14) 0.74380(15)
C7 C -0.34479(18) 0.79781(16) 0.95491(15)
C8 C -0.45158(18) 0.82147(15) 0.87301(16)
C9 C 0.12037(16) 0.81981(13) 0.70928(14)
C10 C 0.05699(18) 0.45569(14) 0.66746(14)
C11 C 0.41109(16) 0.39975(14) 0.63459(13)
C12 C 0.53002(16) 0.34994(14) 0.71787(13)
C13 C 0.56528(17) 0.44106(15) 0.79808(14)
C14 C 0.29230(16) 0.54135(13) 0.66447(12)
C15 C 0.09274(18) 0.45182(14) 0.80341(13)
C16 C 0.06287(16) 0.68658(13) 0.72670(12)
C17 C 0.72064(18) 0.15832(17) 0.79101(16)
C18 C 0.67752(17) 0.39225(17) 0.87310(15)
C19 C 0.60873(17) 0.20773(15) 0.71539(15)
C20 C 0.1541(2) 0.87741(16) 0.59232(18)
C21 C 0.75556(18) 0.25093(17) 0.86964(16)
C22 C 0.2132(2) 1.06306(18) 0.6948(3)
C23 C 0.1728(2) 1.00083(17) 0.8078(2)
C24 C 0.2034(3) 1.00091(19) 0.5863(3)
H1 H 0.2082(16) 0.5977(14) 0.8715(13)
H2 H -0.1032(19) 0.7365(16) 0.9663(15)
H3 H -0.464(2) 0.8111(16) 0.6869(15)
H4 H 0.1318(17) 0.5993(14) 0.5265(14)
H5 H -0.1851(18) 0.7316(15) 0.6063(15)
H6 H 0.771(2) 0.0636(17) 0.7938(14)
H7 H 0.584(2) 0.1432(18) 0.6578(16)
H8 H 0.837(2) 0.2139(19) 0.9228(17)
H9 H -0.567(2) 0.8534(17) 0.9063(16)
H10 H 0.143(2) 0.8322(19) 0.5160(18)
H11 H 0.251(3) 1.150(2) 0.694(2)
H12 H 0.3516(17) 0.6126(15) 0.6438(13)
H13 H 0.1680(18) 0.3621(16) 0.8192(13)
H14 H 0.1111(18) 0.3672(15) 0.6174(14)
H15 H -0.0623(19) 0.4789(15) 0.6706(13)
H16 H -0.0088(19) 0.4674(15) 0.8722(15)
H17 H 0.5106(18) 0.5424(17) 0.8014(14)
H18 H 0.7008(19) 0.4574(17) 0.9285(15)
H19 H -0.386(2) 0.8125(17) 1.0451(17)
H20 H 0.228(3) 1.038(3) 0.509(2)
H21 H 0.178(3) 1.044(2) 0.889(2)
loop_
_geom_bond_atom_site_label_1
_geom_bond_atom_site_label_2
_geom_bond_site_symmetry_1
_geom_bond_site_symmetry_2
C1 C10 1_555 1_555
O1 C11 1_555 1_555
N1 C9 1_555 1_555
C2 C4 1_555 1_555
C3 C14 1_555 1_555
C4 C6 1_555 1_555
C5 C2 1_555 1_555
C6 C8 1_555 1_555
C7 C5 1_555 1_555
C8 C7 1_555 1_555
C9 C16 1_555 1_555
C10 C15 1_555 1_555
C11 C12 1_555 1_555
C12 C13 1_555 1_555
C13 C18 1_555 1_555
C14 C1 1_555 1_555
C15 C3 1_555 1_555
C16 C1 1_555 1_555
C17 C19 1_555 1_555
C18 C21 1_555 1_555
C19 C12 1_555 1_555
C20 C9 1_555 1_555
C21 C17 1_555 1_555
C22 C23 1_555 1_555
C23 N1 1_555 1_555
C24 C20 1_555 1_555
H1 C3 1_555 1_555
H2 C5 1_555 1_555
H3 C6 1_555 1_555
H4 C1 1_555 1_555
H5 C4 1_555 1_555
H6 C17 1_555 1_555
H7 C19 1_555 1_555
H8 C21 1_555 1_555
H9 C8 1_555 1_555
H10 C20 1_555 1_555
H11 C22 1_555 1_555
H12 C14 1_555 1_555
H13 C15 1_555 1_555
H14 C10 1_555 1_555
H15 C10 1_555 1_555
H16 C15 1_555 1_555
H17 C13 1_555 1_555
H18 C18 1_555 1_555
H19 C7 1_555 1_555
H20 C24 1_555 1_555
H21 C23 1_555 1_555
C2 C16 1_555 1_555
C3 C16 1_555 1_555
C11 C14 1_555 1_555
C22 C24 1_555 1_555

#END
