
#######################################################################
#
#                 Cambridge Crystallographic Data Centre
#                                CCDC 
#
#######################################################################
#
# If this CIF has been generated from an entry in the Cambridge 
# Structural Database, then it will include bibliographic, chemical, 
# crystal, experimental, refinement or atomic coordinate data resulting 
# from the CCDC's data processing and validation procedures.
#
#######################################################################

data_HADLII
_chemical_formula_moiety         'C16 H15 Br1 N1 1+,Br3 1-'
_chemical_name_systematic        
'3-Bromo-1-phenyl-1,2,3,4-tetrahydro-1,4-methanoquinolizinium tribromide'
_symmetry_cell_setting           orthorhombic
_symmetry_space_group_name_H-M   'P c c n'
_symmetry_Int_Tables_number      56
_space_group_name_Hall           '-P 2ab 2ac'
loop_
_symmetry_equiv_pos_site_id
_symmetry_equiv_pos_as_xyz
1 x,y,z
2 1/2+x,1/2+y,-z
3 x,1/2-y,1/2+z
4 1/2-x,y,1/2+z
5 -x,-y,-z
6 1/2-x,1/2-y,z
7 -x,1/2+y,1/2-z
8 1/2+x,-y,1/2-z
_cell_length_a                   15.8349(15)
_cell_length_b                   31.446(2)
_cell_length_c                   7.1571(6)
_cell_angle_alpha                90
_cell_angle_beta                 90
_cell_angle_gamma                90
_cell_volume                     3563.84
_exptl_crystal_colour            yellow
_exptl_crystal_description       needle
_cell_formula_units_Z            8
loop_
_atom_site_label
_atom_site_type_symbol
_atom_site_fract_x
_atom_site_fract_y
_atom_site_fract_z
Br1 Br 0.32917(4) 0.28819(2) 0.98235(12)
C1 C 0.4285(4) 0.37161(17) 0.6302(8)
C2 C 0.4131(4) 0.32554(17) 0.5671(9)
H1 H 0.3527 0.3175 0.5717
H2 H 0.4366 0.3196 0.4417
C3 C 0.4644(4) 0.30537(17) 0.7230(9)
H3 H 0.4706 0.2737 0.7178
C4 C 0.4239(4) 0.32353(17) 0.9015(9)
H4 H 0.4669 0.3258 1.0034
C5 C 0.3946(4) 0.36879(17) 0.8390(8)
H5 H 0.4200 0.3912 0.9184
H6 H 0.3323 0.3714 0.8435
C6 C 0.5238(4) 0.37107(17) 0.6528(7)
N1 N 0.5444(3) 0.33058(14) 0.7051(7)
C7 C 0.5867(4) 0.40076(19) 0.6298(8)
H7 H 0.5739 0.4290 0.5916
C8 C 0.6700(4) 0.38837(19) 0.6640(9)
H8 H 0.7145 0.4084 0.6515
C9 C 0.6879(4) 0.34706(19) 0.7158(8)
H9 H 0.7449 0.3385 0.7344
C10 C 0.6233(4) 0.31801(19) 0.7408(9)
H10 H 0.6347 0.2899 0.7822
C11 C 0.3921(4) 0.40809(18) 0.5211(8)
C12 C 0.3542(4) 0.4020(2) 0.3450(8)
H11 H 0.3525 0.3743 0.2924
C13 C 0.3196(4) 0.4354(2) 0.2482(8)
H12 H 0.2936 0.4306 0.1305
C14 C 0.3227(4) 0.4766(2) 0.3223(9)
H13 H 0.2991 0.4997 0.2550
C15 C 0.3606(4) 0.48334(19) 0.4957(9)
H14 H 0.3627 0.5112 0.5473
C16 C 0.3953(4) 0.44927(18) 0.5928(9)
H15 H 0.4217 0.4541 0.7101
Br2 Br 0.59554(4) 0.298845(18) 0.23665(9)
Br3 Br 0.58419(4) 0.382111(17) 0.15371(8)
Br4 Br 0.56863(5) 0.45710(2) 0.06958(10)
loop_
_geom_bond_atom_site_label_1
_geom_bond_atom_site_label_2
_geom_bond_site_symmetry_1
_geom_bond_site_symmetry_2
Br1 C4 1_555 1_555
C1 C2 1_555 1_555
C2 H1 1_555 1_555
H2 C2 1_555 1_555
C3 C2 1_555 1_555
H3 C3 1_555 1_555
C4 C3 1_555 1_555
H4 C4 1_555 1_555
C5 C1 1_555 1_555
H5 C5 1_555 1_555
H6 C5 1_555 1_555
C6 C1 1_555 1_555
N1 C3 1_555 1_555
C7 C6 1_555 1_555
H7 C7 1_555 1_555
C8 C7 1_555 1_555
H8 C8 1_555 1_555
C9 C8 1_555 1_555
H9 C9 1_555 1_555
C10 N1 1_555 1_555
H10 C10 1_555 1_555
C11 C1 1_555 1_555
C12 C11 1_555 1_555
H11 C12 1_555 1_555
C13 C12 1_555 1_555
H12 C13 1_555 1_555
C14 C13 1_555 1_555
H13 C14 1_555 1_555
C15 C14 1_555 1_555
H14 C15 1_555 1_555
C16 C11 1_555 1_555
H15 C16 1_555 1_555
Br2 Br3 1_555 1_555
Br3 Br4 1_555 1_555
C4 C5 1_555 1_555
C6 N1 1_555 1_555
C9 C10 1_555 1_555
C15 C16 1_555 1_555

#END
