
#######################################################################
#
#                 Cambridge Crystallographic Data Centre
#                                CCDC 
#
#######################################################################
#
# If this CIF has been generated from an entry in the Cambridge 
# Structural Database, then it will include bibliographic, chemical, 
# crystal, experimental, refinement or atomic coordinate data resulting 
# from the CCDC's data processing and validation procedures.
#
#######################################################################

data_HADNOQ
_chemical_formula_moiety         'C16 H32 P2 S2'
_chemical_name_systematic        
"(R,R,R,R)-1,1'-Di-t-butyl-2,2'-biphospholyl 1,1'-disulfide"
_symmetry_cell_setting           orthorhombic
_symmetry_space_group_name_H-M   'P 21 21 21'
_symmetry_Int_Tables_number      19
_space_group_name_Hall           'P 2ac 2ab'
loop_
_symmetry_equiv_pos_site_id
_symmetry_equiv_pos_as_xyz
1 x,y,z
2 1/2-x,-y,1/2+z
3 1/2+x,1/2-y,-z
4 -x,1/2+y,1/2-z
_cell_length_a                   8.780(2)
_cell_length_b                   10.604(2)
_cell_length_c                   21.612(3)
_cell_angle_alpha                90
_cell_angle_beta                 90
_cell_angle_gamma                90
_cell_volume                     2012.14
_exptl_crystal_description       plate
_cell_formula_units_Z            4
loop_
_atom_site_label
_atom_site_type_symbol
_atom_site_fract_x
_atom_site_fract_y
_atom_site_fract_z
S1 S 0.0757(2) -0.2230(2) 0.35489(7)
S2 S 0.1281(2) 0.2488(1) 0.53048(7)
P1 P 0.0527(2) -0.0416(1) 0.34194(5)
P2 P 0.1726(2) 0.0687(1) 0.53572(5)
C1 C 0.1185(6) 0.0607(5) 0.4064(2)
C2 C 0.2143(8) 0.1692(6) 0.3741(3)
C3 C 0.2886(7) 0.1106(7) 0.3178(3)
C4 C 0.1753(7) 0.0255(7) 0.2832(2)
C5 C -0.1437(7) 0.0037(6) 0.3231(3)
C6 C -0.1607(8) 0.1466(7) 0.3140(3)
C7 C -0.2452(7) -0.0387(7) 0.3779(4)
C8 C -0.187(1) -0.0650(8) 0.2629(4)
C9 C 0.1863(6) -0.0119(5) 0.4604(2)
C10 C 0.3628(7) -0.0333(7) 0.4518(3)
C11 C 0.4229(6) -0.0687(6) 0.5148(3)
C12 C 0.3651(6) 0.0294(5) 0.5610(2)
C13 C 0.0361(6) -0.0149(5) 0.5852(2)
C14 C 0.0841(9) -0.1532(6) 0.5953(3)
C15 C -0.1216(7) -0.0135(6) 0.5539(3)
C16 C 0.0307(8) 0.0508(7) 0.6481(3)
H1 H 0.025 0.102 0.423
H2 H 0.294 0.202 0.403
H3 H 0.146 0.240 0.361
H4 H 0.378 0.059 0.331
H5 H 0.324 0.179 0.289
H6 H 0.114 0.076 0.253
H7 H 0.231 -0.043 0.261
H8 H -0.269 0.167 0.304
H9 H -0.131 0.191 0.353
H10 H -0.094 0.175 0.279
H11 H -0.354 -0.016 0.369
H12 H -0.237 -0.132 0.383
H13 H -0.211 0.004 0.417
H14 H -0.294 -0.043 0.251
H15 H -0.116 -0.039 0.229
H16 H -0.179 -0.158 0.269
H17 H 0.135 -0.096 0.463
H18 H 0.413 0.046 0.437
H19 H 0.382 -0.103 0.422
H20 H 0.537 -0.069 0.514
H21 H 0.385 -0.154 0.527
H22 H 0.363 -0.007 0.604
H23 H 0.431 0.106 0.560
H24 H 0.008 -0.196 0.622
H25 H 0.089 -0.197 0.555
H26 H 0.186 -0.156 0.616
H27 H -0.197 -0.059 0.581
H28 H -0.156 0.076 0.548
H29 H -0.115 -0.056 0.513
H30 H -0.043 0.006 0.676
H31 H 0.134 0.049 0.667
H32 H -0.002 0.140 0.642
C17? C 0.299(4) 0.071(3) 0.381(1)
C18? C 0.307(3) -0.128(2) 0.478(1)
H33? H 0.062 0.140 0.415
H34? H 0.350 -0.013 0.383
H35? H 0.357 0.134 0.406
H36? H 0.391 0.104 0.298
H37? H 0.252 0.200 0.316
H38? H 0.093 -0.064 0.467
H39? H 0.351 -0.166 0.440
H40? H 0.254 -0.196 0.503
H41? H 0.496 -0.026 0.486
H42? H 0.478 -0.136 0.538
loop_
_geom_bond_atom_site_label_1
_geom_bond_atom_site_label_2
_geom_bond_site_symmetry_1
_geom_bond_site_symmetry_2
S1 P1 1_555 1_555
S2 P2 1_555 1_555
P1 C1 1_555 1_555
P2 C9 1_555 1_555
C1 C2 1_555 1_555
C2 C3 1_555 1_555
C3 C4 1_555 1_555
C4 P1 1_555 1_555
C5 P1 1_555 1_555
C6 C5 1_555 1_555
C7 C5 1_555 1_555
C8 C5 1_555 1_555
C9 C1 1_555 1_555
C10 C9 1_555 1_555
C11 C10 1_555 1_555
C12 P2 1_555 1_555
C13 P2 1_555 1_555
C14 C13 1_555 1_555
C15 C13 1_555 1_555
C16 C13 1_555 1_555
H1 C1 1_555 1_555
H2 C2 1_555 1_555
H3 C2 1_555 1_555
H4 C3 1_555 1_555
H5 C3 1_555 1_555
H6 C4 1_555 1_555
H7 C4 1_555 1_555
H8 C6 1_555 1_555
H9 C6 1_555 1_555
H10 C6 1_555 1_555
H11 C7 1_555 1_555
H12 C7 1_555 1_555
H13 C7 1_555 1_555
H14 C8 1_555 1_555
H15 C8 1_555 1_555
H16 C8 1_555 1_555
H17 C9 1_555 1_555
H18 C10 1_555 1_555
H19 C10 1_555 1_555
H20 C11 1_555 1_555
H21 C11 1_555 1_555
H22 C12 1_555 1_555
H23 C12 1_555 1_555
H24 C14 1_555 1_555
H25 C14 1_555 1_555
H26 C14 1_555 1_555
H27 C15 1_555 1_555
H28 C15 1_555 1_555
H29 C15 1_555 1_555
H30 C16 1_555 1_555
H31 C16 1_555 1_555
H32 C16 1_555 1_555
C11 C12 1_555 1_555

#END
