
#######################################################################
#
#                 Cambridge Crystallographic Data Centre
#                                CCDC 
#
#######################################################################
#
# If this CIF has been generated from an entry in the Cambridge 
# Structural Database, then it will include bibliographic, chemical, 
# crystal, experimental, refinement or atomic coordinate data resulting 
# from the CCDC's data processing and validation procedures.
#
#######################################################################

data_HADQOT
_chemical_formula_moiety         'C18 H18 N2 O3 S1'
_chemical_name_systematic        
N-(5-Methoxy-2-methylquinol-8-yl)-4-methylbenzenesulfonamide
_symmetry_cell_setting           monoclinic
_symmetry_space_group_name_H-M   'P 21/c'
_symmetry_Int_Tables_number      14
_space_group_name_Hall           '-P 2ybc'
loop_
_symmetry_equiv_pos_site_id
_symmetry_equiv_pos_as_xyz
1 x,y,z
2 x,1/2-y,1/2+z
3 -x,-y,-z
4 -x,1/2+y,1/2-z
_cell_length_a                   11.151(2)
_cell_length_b                   17.693(2)
_cell_length_c                   8.563(5)
_cell_angle_alpha                90
_cell_angle_beta                 109.64(3)
_cell_angle_gamma                90
_cell_volume                     1591.15
_exptl_crystal_colour            colorless
_exptl_crystal_description       block
_chemical_melting_point          '162-164 deg.C'
_cell_formula_units_Z            4
_exptl_crystal_recrystallization_method dichloromethane/hexane
loop_
_atom_site_label
_atom_site_type_symbol
_atom_site_fract_x
_atom_site_fract_y
_atom_site_fract_z
S1 S 0.79286(5) 0.10146(3) 0.35284(7)
O1 O 0.27223(13) 0.21353(7) 0.5225(2)
O2 O 0.73459(14) 0.02800(7) 0.3277(2)
O3 O 0.87730(14) 0.12071(8) 0.2650(2)
N1 N 0.61975(15) 0.30267(8) 0.3632(2)
N2 N 0.68158(15) 0.16475(8) 0.2998(2)
H1 H 0.7162 0.2114 0.2825
C1 C 0.58679(19) 0.37347(10) 0.3800(3)
C2 C 0.6704(2) 0.43432(11) 0.3518(3)
H2 H 0.7406 0.4114 0.3239
H3 H 0.7049 0.4647 0.4527
H4 H 0.6205 0.4668 0.2602
C3 C 0.4782(2) 0.39082(10) 0.4227(3)
H5 H 0.4551 0.4421 0.4291
C4 C 0.40594(19) 0.33452(10) 0.4551(3)
H6 H 0.3339 0.3464 0.4861
C5 C 0.44009(18) 0.25805(10) 0.4419(3)
C6 C 0.1968(2) 0.15316(11) 0.5500(3)
H7 H 0.1286 0.1739 0.5854
H8 H 0.2505 0.1196 0.6363
H9 H 0.1595 0.1246 0.4470
C7 C 0.37139(18) 0.19552(11) 0.4718(3)
C8 C 0.40811(19) 0.12336(10) 0.4493(3)
H10 H 0.3633 0.0814 0.4716
C9 C 0.51149(19) 0.11133(10) 0.3938(3)
H11 H 0.5337 0.0611 0.3751
C10 C 0.54642(18) 0.24583(10) 0.3917(3)
C11 C 0.58107(18) 0.17049(10) 0.3658(3)
C12 C 0.87575(18) 0.11209(10) 0.5660(3)
C13 C 0.88740(19) 0.18262(10) 0.6428(3)
H12 H 0.8449 0.2254 0.5823
C14 C 0.96121(19) 0.18940(10) 0.8072(3)
H13 H 0.9686 0.2374 0.8594
C15 C 1.1017(2) 0.13482(12) 1.0800(3)
H14 H 1.1662 0.1744 1.0951
H15 H 1.1437 0.0866 1.1213
H16 H 1.0450 0.1483 1.1417
C16 C 1.02557(19) 0.12754(11) 0.8993(3)
C17 C 1.0136(2) 0.05808(10) 0.8189(3)
H17 H 1.0579 0.0155 0.8783
C18 C 0.93892(19) 0.04973(10) 0.6553(3)
H18 H 0.9305 0.0016 0.6036
loop_
_geom_bond_atom_site_label_1
_geom_bond_atom_site_label_2
_geom_bond_site_symmetry_1
_geom_bond_site_symmetry_2
S1 O2 1_555 1_555
O1 C6 1_555 1_555
O3 S1 1_555 1_555
N1 C1 1_555 1_555
N2 S1 1_555 1_555
H1 N2 1_555 1_555
C1 C2 1_555 1_555
C2 H2 1_555 1_555
H3 C2 1_555 1_555
H4 C2 1_555 1_555
C3 C1 1_555 1_555
H5 C3 1_555 1_555
C4 C3 1_555 1_555
H6 C4 1_555 1_555
C5 C4 1_555 1_555
C6 H7 1_555 1_555
H8 C6 1_555 1_555
H9 C6 1_555 1_555
C7 O1 1_555 1_555
C8 C7 1_555 1_555
H10 C8 1_555 1_555
C9 C8 1_555 1_555
H11 C9 1_555 1_555
C10 N1 1_555 1_555
C11 N2 1_555 1_555
C12 S1 1_555 1_555
C13 C12 1_555 1_555
H12 C13 1_555 1_555
C14 C13 1_555 1_555
H13 C14 1_555 1_555
C15 H14 1_555 1_555
H15 C15 1_555 1_555
H16 C15 1_555 1_555
C16 C14 1_555 1_555
C17 C16 1_555 1_555
H17 C17 1_555 1_555
C18 C12 1_555 1_555
H18 C18 1_555 1_555
C5 C7 1_555 1_555
C5 C10 1_555 1_555
C9 C11 1_555 1_555
C10 C11 1_555 1_555
C15 C16 1_555 1_555
C17 C18 1_555 1_555

#END
