
#######################################################################
#
#                 Cambridge Crystallographic Data Centre
#                                CCDC 
#
#######################################################################
#
# If this CIF has been generated from an entry in the Cambridge 
# Structural Database, then it will include bibliographic, chemical, 
# crystal, experimental, refinement or atomic coordinate data resulting 
# from the CCDC's data processing and validation procedures.
#
#######################################################################

data_HADQUZ
_chemical_formula_moiety         'C18 H18 N2 O3 S1'
_chemical_name_systematic        
N-(4-Methoxy-2-methylquinol-8-yl)-4-methylbenzenesulfonamide
_symmetry_cell_setting           monoclinic
_symmetry_space_group_name_H-M   'P 21/c'
_symmetry_Int_Tables_number      14
_space_group_name_Hall           '-P 2ybc'
loop_
_symmetry_equiv_pos_site_id
_symmetry_equiv_pos_as_xyz
1 x,y,z
2 x,1/2-y,1/2+z
3 -x,-y,-z
4 -x,1/2+y,1/2-z
_cell_length_a                   11.996(4)
_cell_length_b                   9.993(6)
_cell_length_c                   13.693(7)
_cell_angle_alpha                90
_cell_angle_beta                 92.47(4)
_cell_angle_gamma                90
_cell_volume                     1639.94
_exptl_crystal_colour            colorless
_exptl_crystal_description       block
_chemical_melting_point          '191-193 deg.C'
_cell_formula_units_Z            4
_exptl_crystal_recrystallization_method dichloromethane/hexane
loop_
_atom_site_label
_atom_site_type_symbol
_atom_site_fract_x
_atom_site_fract_y
_atom_site_fract_z
S1 S -0.38323(7) 0.02029(9) 0.28910(6)
O1 O 0.22758(18) -0.0593(2) 0.40045(17)
O2 O -0.42315(18) -0.1074(2) 0.31851(17)
O3 O -0.44546(18) 0.1381(2) 0.30990(18)
N1 N -0.0666(2) 0.1604(2) 0.37746(18)
N2 N -0.2612(2) 0.0462(3) 0.34271(19)
H1 H -0.2525 0.1439 0.3587
C1 C 0.0294(3) 0.2202(3) 0.3968(2)
C2 C 0.0266(3) 0.3707(3) 0.4082(3)
H2 H 0.1015 0.4043 0.4153
H3 H -0.0134 0.3934 0.4651
H4 H -0.0101 0.4098 0.3514
C3 C 0.1320(3) 0.1535(3) 0.4058(2)
H5 H 0.1975 0.2010 0.4196
C4 C 0.1345(2) 0.0172(3) 0.3939(2)
C5 C 0.0338(2) -0.0536(3) 0.3723(2)
C6 C 0.3326(3) 0.0066(4) 0.4177(3)
H6 H 0.3913 -0.0588 0.4207
H7 H 0.3321 0.0544 0.4785
H8 H 0.3448 0.0682 0.3655
C7 C 0.0272(3) -0.1931(3) 0.3583(2)
H9 H 0.0913 -0.2454 0.3634
C8 C -0.0741(3) -0.2507(3) 0.3371(2)
H10 H -0.0778 -0.3427 0.3272
C9 C -0.1726(3) -0.1755(3) 0.3297(2)
H11 H -0.2406 -0.2174 0.3151
C10 C -0.1683(2) -0.0400(3) 0.3441(2)
C11 C -0.0645(2) 0.0242(3) 0.3650(2)
C12 C -0.3616(2) 0.0148(3) 0.1627(2)
C13 C -0.3196(3) 0.1276(4) 0.1185(3)
H12 H -0.3019 0.2034 0.1555
C14 C -0.3042(3) 0.1267(4) 0.0193(3)
H13 H -0.2751 0.2021 -0.0101
C15 C -0.3312(3) 0.0162(4) -0.0370(3)
C16 C -0.3175(3) 0.0202(4) -0.1465(3)
H14 H -0.2409 0.0379 -0.1595
H15 H -0.3638 0.0897 -0.1748
H16 H -0.3393 -0.0644 -0.1745
C17 C -0.3724(3) -0.0949(4) 0.0080(3)
H17 H -0.3904 -0.1703 -0.0293
C18 C -0.3880(3) -0.0973(3) 0.1078(3)
H18 H -0.4157 -0.1735 0.1372
loop_
_geom_bond_atom_site_label_1
_geom_bond_atom_site_label_2
_geom_bond_site_symmetry_1
_geom_bond_site_symmetry_2
S1 O2 1_555 1_555
O1 C4 1_555 1_555
O3 S1 1_555 1_555
N1 C1 1_555 1_555
N2 S1 1_555 1_555
H1 N2 1_555 1_555
C1 C2 1_555 1_555
C2 H2 1_555 1_555
H3 C2 1_555 1_555
H4 C2 1_555 1_555
C3 C1 1_555 1_555
H5 C3 1_555 1_555
C4 C3 1_555 1_555
C5 C4 1_555 1_555
C6 O1 1_555 1_555
H6 C6 1_555 1_555
H7 C6 1_555 1_555
H8 C6 1_555 1_555
C7 C5 1_555 1_555
H9 C7 1_555 1_555
C8 C7 1_555 1_555
H10 C8 1_555 1_555
C9 C8 1_555 1_555
H11 C9 1_555 1_555
C10 N2 1_555 1_555
C11 N1 1_555 1_555
C12 S1 1_555 1_555
C13 C12 1_555 1_555
H12 C13 1_555 1_555
C14 C13 1_555 1_555
H13 C14 1_555 1_555
C15 C14 1_555 1_555
C16 C15 1_555 1_555
H14 C16 1_555 1_555
H15 C16 1_555 1_555
H16 C16 1_555 1_555
C17 C15 1_555 1_555
H17 C17 1_555 1_555
C18 C12 1_555 1_555
H18 C18 1_555 1_555
C5 C11 1_555 1_555
C9 C10 1_555 1_555
C10 C11 1_555 1_555
C17 C18 1_555 1_555

#END
