
#######################################################################
#
#                 Cambridge Crystallographic Data Centre
#                                CCDC 
#
#######################################################################
#
# If this CIF has been generated from an entry in the Cambridge 
# Structural Database, then it will include bibliographic, chemical, 
# crystal, experimental, refinement or atomic coordinate data resulting 
# from the CCDC's data processing and validation procedures.
#
#######################################################################

data_HAFSEO
_chemical_formula_moiety         'C4 H12 B1 N1'
_chemical_name_systematic        1,2-Azaborinan-1-ium-2-ide
_symmetry_cell_setting           triclinic
_symmetry_space_group_name_H-M   'P -1'
_symmetry_Int_Tables_number      2
_space_group_name_Hall           '-P 1'
loop_
_symmetry_equiv_pos_site_id
_symmetry_equiv_pos_as_xyz
1 x,y,z
2 -x,-y,-z
_cell_length_a                   5.3364(4)
_cell_length_b                   5.5873(5)
_cell_length_c                   9.8555(8)
_cell_angle_alpha                81.328(1)
_cell_angle_beta                 85.847(1)
_cell_angle_gamma                74.013(1)
_cell_volume                     279.11
_exptl_crystal_colour            colorless
_exptl_crystal_description       prism
_cell_formula_units_Z            2
loop_
_atom_site_label
_atom_site_type_symbol
_atom_site_fract_x
_atom_site_fract_y
_atom_site_fract_z
N1 N 1.13161(14) 0.65440(14) 0.12902(7)
B1 B 0.82369(19) 0.76187(18) 0.10172(10)
C1 C 1.18868(17) 0.55897(17) 0.27606(9)
C2 C 1.06964(18) 0.76365(18) 0.36558(9)
C3 C 0.77460(18) 0.86464(19) 0.35246(9)
C4 C 0.70426(17) 0.96798(17) 0.20342(10)
H1 H 1.379(3) 0.498(2) 0.2865(12)
H2 H 0.742(2) 0.590(2) 0.1266(11)
H3 H 1.115(2) 0.417(2) 0.3022(11)
H4 H 1.211(2) 0.778(2) 0.1008(12)
H5 H 1.116(2) 0.695(2) 0.4614(13)
H6 H 0.809(2) 0.837(2) -0.0140(11)
H7 H 1.152(2) 0.901(2) 0.3397(11)
H8 H 1.200(3) 0.533(2) 0.0797(13)
H9 H 0.709(3) 0.996(2) 0.4150(14)
H10 H 0.694(2) 0.726(2) 0.3851(12)
H11 H 0.515(3) 1.026(2) 0.1975(13)
H12 H 0.767(2) 1.120(2) 0.1769(12)
loop_
_geom_bond_atom_site_label_1
_geom_bond_atom_site_label_2
_geom_bond_site_symmetry_1
_geom_bond_site_symmetry_2
N1 B1 1_555 1_555
B1 C4 1_555 1_555
C1 N1 1_555 1_555
C2 C1 1_555 1_555
C3 C2 1_555 1_555
C4 C3 1_555 1_555
H1 C1 1_555 1_555
H2 B1 1_555 1_555
H3 C1 1_555 1_555
H4 N1 1_555 1_555
H5 C2 1_555 1_555
H6 B1 1_555 1_555
H7 C2 1_555 1_555
H8 N1 1_555 1_555
H9 C3 1_555 1_555
H10 C3 1_555 1_555
H11 C4 1_555 1_555
H12 C4 1_555 1_555

#END
