
#######################################################################
#
#                 Cambridge Crystallographic Data Centre
#                                CCDC 
#
#######################################################################
#
# If this CIF has been generated from an entry in the Cambridge 
# Structural Database, then it will include bibliographic, chemical, 
# crystal, experimental, refinement or atomic coordinate data resulting 
# from the CCDC's data processing and validation procedures.
#
#######################################################################

data_HAFSAK
_chemical_formula_moiety         'C19 H43 B1 K1 N1 O6 Si1'
_chemical_name_systematic        
(18-Crown-6)-(1-trimethylsilyl-2,2-dihydrido-1,2-azaborinan-2-ide)-potassium
_symmetry_cell_setting           monoclinic
_symmetry_space_group_name_H-M   'P 21/c'
_symmetry_Int_Tables_number      14
_space_group_name_Hall           '-P 2ybc'
loop_
_symmetry_equiv_pos_site_id
_symmetry_equiv_pos_as_xyz
1 x,y,z
2 -x,1/2+y,1/2-z
3 -x,-y,-z
4 x,1/2-y,1/2+z
_cell_length_a                   15.3393(11)
_cell_length_b                   9.7577(7)
_cell_length_c                   17.4261(13)
_cell_angle_alpha                90
_cell_angle_beta                 98.999(1)
_cell_angle_gamma                90
_cell_volume                     2576.17
_exptl_crystal_colour            colorless
_exptl_crystal_description       plate
_cell_formula_units_Z            4
loop_
_atom_site_label
_atom_site_type_symbol
_atom_site_fract_x
_atom_site_fract_y
_atom_site_fract_z
K1 K 0.21655(2) 0.26023(4) 0.37142(2)
Si1 Si 0.25184(3) 0.62968(5) 0.44187(3)
N1 N 0.29692(9) 0.54038(14) 0.37372(7)
B1 B 0.24466(13) 0.5281(2) 0.28922(11)
O1 O 0.27213(11) 0.19325(16) 0.53672(8)
O2 O 0.39232(9) 0.20460(15) 0.42727(9)
O3 O 0.31246(8) 0.06293(13) 0.29571(7)
O4 O 0.14092(9) 0.13845(12) 0.22642(7)
O5 O 0.03062(9) 0.25921(13) 0.32705(9)
O6 O 0.09447(10) 0.14762(14) 0.47496(8)
C1 C 0.39210(12) 0.5419(2) 0.37281(10)
C2 C 0.42156(13) 0.6563(2) 0.32290(11)
C3 C 0.37582(12) 0.6472(2) 0.23860(11)
C4 C 0.27565(12) 0.64745(19) 0.23390(10)
C5 C 0.15645(15) 0.5320(2) 0.46962(13)
C6 C 0.20866(17) 0.8049(2) 0.41186(13)
C7 C 0.33332(17) 0.6549(3) 0.53262(12)
C8 C 0.3608(2) 0.1452(3) 0.55447(15)
C9 C 0.41536(19) 0.2267(3) 0.50868(17)
C10 C 0.43249(15) 0.0904(3) 0.39709(16)
C11 C 0.40470(14) 0.0869(3) 0.31197(16)
C12 C 0.28145(17) 0.0495(2) 0.21504(12)
C13 C 0.18515(17) 0.0219(2) 0.20313(12)
C14 C 0.04834(15) 0.1230(2) 0.21322(14)
C15 C 0.00875(16) 0.2466(2) 0.24529(16)
C16 C -0.02058(16) 0.1732(3) 0.36838(18)
C17 C 0.00707(17) 0.1968(3) 0.45272(18)
C18 C 0.1260(2) 0.1642(3) 0.55610(13)
C19 C 0.2158(2) 0.1114(3) 0.57471(13)
H1 H 0.4104(12) 0.454(2) 0.3519(11)
H2 H 0.1679(14) 0.533(2) 0.2924(12)
H3 H 0.4253(13) 0.548(2) 0.4242(12)
H4 H 0.4872(15) 0.650(2) 0.3265(12)
H5 H 0.2611(12) 0.4224(19) 0.2629(10)
H6 H 0.4073(13) 0.746(2) 0.3448(12)
H7 H 0.3976(14) 0.720(2) 0.2080(13)
H8 H 0.3936(12) 0.563(2) 0.2166(11)
H9 H 0.2469(12) 0.639(2) 0.1793(12)
H10 H 0.2586(13) 0.741(2) 0.2506(12)
H11 H 0.1149(16) 0.507(2) 0.4252(15)
H12 H 0.1773(15) 0.446(3) 0.4966(14)
H13 H 0.1233(15) 0.587(3) 0.5032(14)
H14 H 0.1655(19) 0.801(3) 0.3647(17)
H15 H 0.2540(17) 0.863(3) 0.4053(15)
H16 H 0.1835(17) 0.847(3) 0.4529(16)
H17 H 0.3821(18) 0.711(3) 0.5227(15)
H18 H 0.3045(16) 0.698(3) 0.5718(15)
H19 H 0.3611(15) 0.571(3) 0.5552(13)
H20 H 0.3820(19) 0.160(3) 0.6130(18)
H21 H 0.3694(19) 0.040(3) 0.5388(17)
H22 H 0.3955(18) 0.323(3) 0.5250(16)
H23 H 0.480(2) 0.202(3) 0.5267(16)
H24 H 0.4965(18) 0.095(3) 0.4099(14)
H25 H 0.4144(15) 0.010(3) 0.4218(13)
H26 H 0.4180(15) 0.175(3) 0.2885(13)
H27 H 0.4361(16) 0.014(3) 0.2903(14)
H28 H 0.2950(15) 0.133(2) 0.1912(13)
H29 H 0.3142(15) -0.030(2) 0.1942(13)
H30 H 0.1740(13) -0.055(2) 0.2341(12)
H31 H 0.1629(15) 0.001(2) 0.1496(14)
H32 H 0.0314(14) 0.043(2) 0.2387(12)
H33 H 0.0268(16) 0.113(2) 0.1583(15)
H34 H 0.0334(15) 0.328(3) 0.2212(13)
H35 H -0.0532(18) 0.247(2) 0.2341(15)
H36 H -0.0817(19) 0.188(3) 0.3541(16)
H37 H -0.0120(15) 0.076(3) 0.3552(13)
H38 H 0.0063(16) 0.294(3) 0.4677(15)
H39 H -0.0320(19) 0.148(3) 0.4799(16)
H40 H 0.0846(19) 0.114(3) 0.5823(16)
H41 H 0.1219(15) 0.261(3) 0.5693(14)
H42 H 0.2359(17) 0.114(3) 0.6324(16)
H43 H 0.2197(15) 0.017(3) 0.5560(13)
loop_
_geom_bond_atom_site_label_1
_geom_bond_atom_site_label_2
_geom_bond_site_symmetry_1
_geom_bond_site_symmetry_2
K1 N1 1_555 1_555
Si1 N1 1_555 1_555
N1 B1 1_555 1_555
B1 C4 1_555 1_555
O1 K1 1_555 1_555
O2 K1 1_555 1_555
O3 K1 1_555 1_555
O4 K1 1_555 1_555
O5 K1 1_555 1_555
O6 K1 1_555 1_555
C1 N1 1_555 1_555
C2 C1 1_555 1_555
C3 C2 1_555 1_555
C4 C3 1_555 1_555
C5 Si1 1_555 1_555
C6 Si1 1_555 1_555
C7 Si1 1_555 1_555
C8 O1 1_555 1_555
C9 O2 1_555 1_555
C10 O2 1_555 1_555
C11 O3 1_555 1_555
C12 O3 1_555 1_555
C13 O4 1_555 1_555
C14 O4 1_555 1_555
C15 O5 1_555 1_555
C16 O5 1_555 1_555
C17 O6 1_555 1_555
C18 O6 1_555 1_555
C19 O1 1_555 1_555
H1 C1 1_555 1_555
H2 B1 1_555 1_555
H3 C1 1_555 1_555
H4 C2 1_555 1_555
H5 K1 1_555 1_555
H6 C2 1_555 1_555
H7 C3 1_555 1_555
H8 C3 1_555 1_555
H9 C4 1_555 1_555
H10 C4 1_555 1_555
H11 C5 1_555 1_555
H12 C5 1_555 1_555
H13 C5 1_555 1_555
H14 C6 1_555 1_555
H15 C6 1_555 1_555
H16 C6 1_555 1_555
H17 C7 1_555 1_555
H18 C7 1_555 1_555
H19 C7 1_555 1_555
H20 C8 1_555 1_555
H21 C8 1_555 1_555
H22 C9 1_555 1_555
H23 C9 1_555 1_555
H24 C10 1_555 1_555
H25 C10 1_555 1_555
H26 C11 1_555 1_555
H27 C11 1_555 1_555
H28 C12 1_555 1_555
H29 C12 1_555 1_555
H30 C13 1_555 1_555
H31 C13 1_555 1_555
H32 C14 1_555 1_555
H33 C14 1_555 1_555
H34 C15 1_555 1_555
H35 C15 1_555 1_555
H36 C16 1_555 1_555
H37 C16 1_555 1_555
H38 C17 1_555 1_555
H39 C17 1_555 1_555
H40 C18 1_555 1_555
H41 C18 1_555 1_555
H42 C19 1_555 1_555
H43 C19 1_555 1_555
B1 H5 1_555 1_555
C8 C9 1_555 1_555
C10 C11 1_555 1_555
C12 C13 1_555 1_555
C14 C15 1_555 1_555
C16 C17 1_555 1_555
C18 C19 1_555 1_555

#END
