
#######################################################################
#
#                 Cambridge Crystallographic Data Centre
#                                CCDC 
#
#######################################################################
#
# If this CIF has been generated from an entry in the Cambridge 
# Structural Database, then it will include bibliographic, chemical, 
# crystal, experimental, refinement or atomic coordinate data resulting 
# from the CCDC's data processing and validation procedures.
#
#######################################################################

data_HAFTAM
_chemical_formula_moiety         'C38 H28 N2 O2 S1'
_chemical_name_systematic        
2,2'-(sulfanediylbis(ethane-2,1-diylnitrilomethylylidene))dipyren-1-ol
_symmetry_cell_setting           orthorhombic
_symmetry_space_group_name_H-M   'P c a 21'
_symmetry_Int_Tables_number      29
_space_group_name_Hall           'P 2c -2ac'
loop_
_symmetry_equiv_pos_site_id
_symmetry_equiv_pos_as_xyz
1 x,y,z
2 -x,-y,1/2+z
3 1/2+x,-y,z
4 1/2-x,y,1/2+z
_cell_length_a                   9.4997(12)
_cell_length_b                   7.8857(10)
_cell_length_c                   37.475(5)
_cell_angle_alpha                90
_cell_angle_beta                 90
_cell_angle_gamma                90
_cell_volume                     2807.32
_exptl_crystal_colour            red
_exptl_crystal_description       plate
_cell_formula_units_Z            4
loop_
_atom_site_label
_atom_site_type_symbol
_atom_site_fract_x
_atom_site_fract_y
_atom_site_fract_z
C1 C 0.4017(4) 0.3552(6) 0.91563(10)
C2 C 0.4270(4) 0.5196(5) 0.92773(13)
C3 C 0.3761(4) 0.5701(6) 0.96105(11)
H1 H 0.3966 0.6787 0.9692
C4 C 0.2964(4) 0.4641(6) 0.98233(11)
C5 C 0.2397(5) 0.5120(6) 1.01588(14)
H2 H 0.2594 0.6197 1.0246
C6 C 0.1600(5) 0.4097(8) 1.03517(11)
H3 H 0.1247 0.4480 1.0569
C7 C 0.1265(4) 0.2403(6) 1.02345(10)
C8 C 0.0396(5) 0.1301(8) 1.04271(12)
H4 H 0.0000 0.1650 1.0642
C9 C 0.0127(5) -0.0299(9) 1.02978(18)
H5 H -0.0447 -0.1024 1.0429
C10 C 0.0688(5) -0.0858(7) 0.99781(14)
H6 H 0.0495 -0.1949 0.9898
C11 C 0.1533(4) 0.0202(6) 0.97782(15)
C12 C 0.2124(5) -0.0329(6) 0.94452(14)
H7 H 0.1941 -0.1416 0.9361
C13 C 0.2948(4) 0.0731(5) 0.92511(11)
H8 H 0.3334 0.0347 0.9038
C14 C 0.3234(4) 0.2397(5) 0.93639(9)
C15 C 0.2693(4) 0.2959(5) 0.96924(9)
C16 C 0.1834(4) 0.1852(6) 0.99010(9)
C17 C 0.5012(4) 0.6406(5) 0.90528(11)
H9 H 0.5181 0.7493 0.9139
C18 C 0.6160(4) 0.7251(6) 0.85186(10)
H10 H 0.7068 0.6801 0.8448
H11 H 0.6322 0.8276 0.8655
C19 C 0.5311(4) 0.7679(5) 0.81884(9)
H12 H 0.4959 0.6633 0.8085
H13 H 0.5930 0.8201 0.8015
C20 C 0.2375(4) 0.7701(5) 0.83551(9)
H14 H 0.2720 0.6653 0.8459
H15 H 0.1768 0.8238 0.8530
C21 C 0.1514(4) 0.7283(5) 0.80272(9)
H16 H 0.0601 0.6852 0.8100
H17 H 0.1362 0.8309 0.7890
C22 C 0.2667(4) 0.6458(5) 0.74929(11)
H18 H 0.2505 0.7557 0.7413
C23 C 0.3666(4) 0.3602(5) 0.73799(10)
C24 C 0.3431(4) 0.5263(6) 0.72635(12)
C25 C 0.3962(4) 0.5769(6) 0.69356(10)
H19 H 0.3778 0.6864 0.6856
C26 C 0.4747(4) 0.4715(6) 0.67256(13)
C27 C 0.5334(5) 0.5233(7) 0.63840(14)
H20 H 0.5141 0.6311 0.6296
C28 C 0.6143(5) 0.4184(8) 0.61961(12)
H21 H 0.6510 0.4559 0.5980
C29 C 0.6471(5) 0.2517(7) 0.63122(10)
C30 C 0.7329(5) 0.1406(9) 0.61218(12)
H22 H 0.7722 0.1760 0.5907
C31 C 0.7605(6) -0.0193(9) 0.62438(19)
H23 H 0.8181 -0.0903 0.6110
C32 C 0.7049(5) -0.0778(7) 0.65606(13)
H24 H 0.7259 -0.1870 0.6638
C33 C 0.6178(4) 0.0249(6) 0.67647(16)
C34 C 0.5577(5) -0.0258(6) 0.70982(15)
H25 H 0.5769 -0.1338 0.7185
C35 C 0.4752(4) 0.0764(5) 0.72878(11)
H26 H 0.4359 0.0373 0.7500
C36 C 0.4458(4) 0.2462(5) 0.71710(9)
C37 C 0.5038(4) 0.3044(5) 0.68442(9)
C38 C 0.5882(4) 0.1938(5) 0.66359(10)
N1 N 0.5438(3) 0.6015(4) 0.87408(9)
N2 N 0.2219(3) 0.6015(4) 0.78025(8)
O1 O 0.4510(3) 0.3015(3) 0.88413(8)
H27 H 0.4849 0.3818 0.8732
O2 O 0.3169(3) 0.3040(3) 0.76941(7)
H28 H 0.2671 0.3771 0.7785
S1 S 0.38486(12) 0.90745(10) 0.82679(4)
loop_
_geom_bond_atom_site_label_1
_geom_bond_atom_site_label_2
_geom_bond_site_symmetry_1
_geom_bond_site_symmetry_2
C1 C2 1_555 1_555
C2 C3 1_555 1_555
C3 H1 1_555 1_555
C4 C3 1_555 1_555
C5 C4 1_555 1_555
H2 C5 1_555 1_555
C6 C5 1_555 1_555
H3 C6 1_555 1_555
C7 C6 1_555 1_555
C8 C7 1_555 1_555
H4 C8 1_555 1_555
C9 C8 1_555 1_555
H5 C9 1_555 1_555
C10 C9 1_555 1_555
H6 C10 1_555 1_555
C11 C10 1_555 1_555
C12 C11 1_555 1_555
H7 C12 1_555 1_555
C13 C12 1_555 1_555
H8 C13 1_555 1_555
C14 C1 1_555 1_555
C15 C4 1_555 1_555
C16 C7 1_555 1_555
C17 C2 1_555 1_555
H9 C17 1_555 1_555
C18 H10 1_555 1_555
H11 C18 1_555 1_555
C19 C18 1_555 1_555
H12 C19 1_555 1_555
H13 C19 1_555 1_555
C20 H14 1_555 1_555
H15 C20 1_555 1_555
C21 C20 1_555 1_555
H16 C21 1_555 1_555
H17 C21 1_555 1_555
C22 H18 1_555 1_555
C23 C24 1_555 1_555
C24 C22 1_555 1_555
C25 C24 1_555 1_555
H19 C25 1_555 1_555
C26 C25 1_555 1_555
C27 C26 1_555 1_555
H20 C27 1_555 1_555
C28 C27 1_555 1_555
H21 C28 1_555 1_555
C29 C28 1_555 1_555
C30 C29 1_555 1_555
H22 C30 1_555 1_555
C31 C30 1_555 1_555
H23 C31 1_555 1_555
C32 C31 1_555 1_555
H24 C32 1_555 1_555
C33 C32 1_555 1_555
C34 C33 1_555 1_555
H25 C34 1_555 1_555
C35 C34 1_555 1_555
H26 C35 1_555 1_555
C36 C23 1_555 1_555
C37 C26 1_555 1_555
C38 C29 1_555 1_555
N1 C17 1_555 1_555
N2 C21 1_555 1_555
O1 C1 1_555 1_555
H27 O1 1_555 1_555
O2 C23 1_555 1_555
H28 O2 1_555 1_555
S1 C19 1_555 1_555
C11 C16 1_555 1_555
C13 C14 1_555 1_555
C14 C15 1_555 1_555
C15 C16 1_555 1_555
C18 N1 1_555 1_555
C20 S1 1_555 1_555
C22 N2 1_555 1_555
C33 C38 1_555 1_555
C35 C36 1_555 1_555
C36 C37 1_555 1_555
C37 C38 1_555 1_555

#END
