
#######################################################################
#
#                 Cambridge Crystallographic Data Centre
#                                CCDC 
#
#######################################################################
#
# If this CIF has been generated from an entry in the Cambridge 
# Structural Database, then it will include bibliographic, chemical, 
# crystal, experimental, refinement or atomic coordinate data resulting 
# from the CCDC's data processing and validation procedures.
#
#######################################################################

data_HAFTOX
_chemical_formula_moiety         'C14 H10 Cl2 Se2'
_chemical_name_systematic        1,2-Dichloro-1,2-bis(phenylseleno)ethene
_symmetry_cell_setting           triclinic
_symmetry_space_group_name_H-M   'P -1'
_symmetry_Int_Tables_number      2
_space_group_name_Hall           '-P 1'
loop_
_symmetry_equiv_pos_site_id
_symmetry_equiv_pos_as_xyz
1 x,y,z
2 -x,-y,-z
_cell_length_a                   6.173(4)
_cell_length_b                   8.059(5)
_cell_length_c                   8.068(4)
_cell_angle_alpha                62.99(4)
_cell_angle_beta                 82.66(5)
_cell_angle_gamma                88.98(5)
_cell_volume                     354.292
_cell_formula_units_Z            1
loop_
_atom_site_label
_atom_site_type_symbol
_atom_site_fract_x
_atom_site_fract_y
_atom_site_fract_z
Se1 Se 0.2519(1) 0.2484(1) 0.5915(1)
Cl1 Cl 0.4397(2) 0.5981(1) 0.2186(1)
C1 C 0.4369(6) 0.4702(5) 0.4573(5)
C2 C 0.1574(7) 0.2256(5) 0.3860(5)
C3 C -0.0330(7) 0.3054(6) 0.3198(6)
C4 C -0.1063(8) 0.2843(7) 0.1744(7)
C5 C 0.0104(8) 0.1820(6) 0.0976(6)
C6 C 0.1982(8) 0.1006(6) 0.1660(6)
C7 C 0.2733(7) 0.1219(6) 0.3104(6)
C1A C 0.5631(6) 0.5298(5) 0.5427(5)
Se1A Se 0.7481(1) 0.7516(1) 0.4085(1)
Cl1A Cl 0.5603(2) 0.4019(1) 0.7814(1)
C2A C 0.8426(7) 0.7744(5) 0.6140(5)
C3A C 1.0330(7) 0.6946(6) 0.6802(6)
C7A C 0.7267(7) 0.8781(6) 0.6896(6)
C4A C 1.1063(8) 0.7157(7) 0.8256(7)
C6A C 0.8018(8) 0.8994(6) 0.8340(6)
C5A C 0.9896(8) 0.8180(6) 0.9024(6)
loop_
_geom_bond_atom_site_label_1
_geom_bond_atom_site_label_2
_geom_bond_site_symmetry_1
_geom_bond_site_symmetry_2
Se1 C1 1_555 1_555
Cl1 C1 1_555 1_555
C1 C1A 1_555 1_555
C2 Se1 1_555 1_555
C3 C2 1_555 1_555
C4 C3 1_555 1_555
C5 C4 1_555 1_555
C6 C5 1_555 1_555
C7 C2 1_555 1_555
C1A Se1A 1_555 1_555
Se1A C2A 1_555 1_555
Cl1A C1A 1_555 1_555
C2A C3A 1_555 1_555
C3A C4A 1_555 1_555
C7A C2A 1_555 1_555
C4A C5A 1_555 1_555
C6A C7A 1_555 1_555
C5A C6A 1_555 1_555
C6 C7 1_555 1_555

#END
