
#######################################################################
#
#                 Cambridge Crystallographic Data Centre
#                                CCDC 
#
#######################################################################
#
# If this CIF has been generated from an entry in the Cambridge 
# Structural Database, then it will include bibliographic, chemical, 
# crystal, experimental, refinement or atomic coordinate data resulting 
# from the CCDC's data processing and validation procedures.
#
#######################################################################

data_HAGFUR
_chemical_formula_moiety         'C18 H13 N3 O3'
_chemical_name_systematic        
6,11-Dihydro-3-(isopropoxy)pyrido(2,3-b)phenazine-6,11-dione
_chemical_properties_biological  
'antitumour activity against human cell lines A549, SK-OV-3, SK-MEL-2, XF498 and HCT15'
_symmetry_cell_setting           monoclinic
_symmetry_space_group_name_H-M   'P 21/c'
_symmetry_Int_Tables_number      14
_space_group_name_Hall           '-P 2ybc'
loop_
_symmetry_equiv_pos_site_id
_symmetry_equiv_pos_as_xyz
1 x,y,z
2 x,1/2-y,1/2+z
3 -x,-y,-z
4 -x,1/2+y,1/2-z
_cell_length_a                   8.988(2)
_cell_length_b                   15.2084(5)
_cell_length_c                   23.835(6)
_cell_angle_alpha                90
_cell_angle_beta                 111.874(12)
_cell_angle_gamma                90
_cell_volume                     3023.52
_exptl_crystal_colour            orange
_exptl_crystal_description       block
_chemical_melting_point          '316-318 deg.C'
_cell_formula_units_Z            8
_exptl_crystal_recrystallization_method 'dichloromethane/petroleum ether'
loop_
_atom_site_label
_atom_site_type_symbol
_atom_site_fract_x
_atom_site_fract_y
_atom_site_fract_z
N1 N 0.0241(2) -0.18296(12) 0.26331(8)
C1 C 0.1492(2) -0.13734(13) 0.30121(9)
C2 C 0.1323(2) -0.03961(13) 0.29830(9)
C3 C 0.2640(2) 0.01323(12) 0.34385(8)
N2 N 0.24356(19) 0.09887(10) 0.34250(7)
C4 C 0.3590(2) 0.14655(13) 0.38531(9)
C5 C 0.3409(2) 0.23802(13) 0.38656(9)
H1 H 0.2550 0.2658 0.3570
C6 C 0.4508(2) 0.28611(13) 0.43172(9)
C7 C 0.5854(2) 0.24352(13) 0.47585(9)
H2 H 0.6595 0.2769 0.5062
C8 C 0.6072(2) 0.15639(13) 0.47443(9)
H3 H 0.6967 0.1304 0.5033
C9 C 0.4942(2) 0.10337(12) 0.42902(9)
N3 N 0.51455(19) 0.01626(10) 0.42802(7)
C10 C 0.4006(2) -0.02865(12) 0.38581(8)
C11 C 0.4241(2) -0.12488(13) 0.38306(9)
C12 C 0.2888(2) -0.17727(13) 0.34030(9)
C13 C 0.3032(3) -0.26758(14) 0.33813(11)
H4 H 0.3960 -0.2959 0.3631
C14 C 0.1775(3) -0.31466(15) 0.29829(11)
H5 H 0.1840 -0.3754 0.2954
C15 C 0.0412(3) -0.26986(15) 0.26266(11)
H6 H -0.0440 -0.3025 0.2366
O1 O 0.0192(2) -0.00365(10) 0.26123(8)
O2 O 0.44573(17) 0.37346(9) 0.43955(7)
C16 C 0.3195(3) 0.42491(14) 0.39507(11)
H7 H 0.2188 0.3918 0.3828
C17 C 0.3613(3) 0.43998(18) 0.34087(12)
H8 H 0.4456 0.4828 0.3503
H9 H 0.2686 0.4611 0.3081
H10 H 0.3967 0.3858 0.3293
C18 C 0.3026(4) 0.50700(18) 0.42684(14)
H11 H 0.2798 0.4917 0.4619
H12 H 0.2165 0.5420 0.4000
H13 H 0.4007 0.5399 0.4390
O3 O 0.54942(18) -0.16044(9) 0.41342(7)
N4 N 0.4603(2) 0.24579(12) 0.24316(9)
C19 C 0.3415(2) 0.28950(13) 0.20023(9)
C20 C 0.3636(2) 0.38656(13) 0.19700(9)
C21 C 0.2271(2) 0.43792(12) 0.15315(9)
N5 N 0.24642(19) 0.52366(11) 0.15289(7)
C22 C 0.1245(2) 0.57069(13) 0.11264(9)
C23 C 0.1403(2) 0.66222(13) 0.11022(10)
H14 H 0.2320 0.6902 0.1362
C24 C 0.0187(2) 0.71005(13) 0.06896(9)
C25 C -0.1230(2) 0.66686(14) 0.02975(9)
H15 H -0.2049 0.7001 0.0024
C26 C -0.1407(2) 0.57869(14) 0.03138(9)
H16 H -0.2337 0.5519 0.0053
C27 C -0.0166(2) 0.52706(13) 0.07322(9)
N6 N -0.03397(19) 0.43967(11) 0.07457(7)
C28 C 0.0877(2) 0.39499(12) 0.11382(9)
C29 C 0.0720(2) 0.29779(13) 0.11445(9)
C30 C 0.2068(2) 0.24767(13) 0.15921(9)
C31 C 0.1976(3) 0.15676(14) 0.16196(11)
H17 H 0.1101 0.1267 0.1350
C32 C 0.3190(3) 0.11208(15) 0.20493(11)
H18 H 0.3159 0.0511 0.2074
C33 C 0.4461(3) 0.15876(15) 0.24456(12)
H19 H 0.5268 0.1276 0.2741
O4 O 0.48780(17) 0.42284(9) 0.22706(7)
O5 O 0.01790(18) 0.79761(9) 0.06076(7)
C34 C 0.1604(3) 0.84795(13) 0.09367(10)
H20 H 0.2554 0.8141 0.0960
C35 C 0.1683(3) 0.86748(17) 0.15615(11)
H21 H 0.0862 0.9091 0.1542
H22 H 0.2715 0.8917 0.1796
H23 H 0.1524 0.8142 0.1748
C36 C 0.1486(3) 0.92875(17) 0.05601(14)
H24 H 0.1384 0.9118 0.0159
H25 H 0.2435 0.9637 0.0740
H26 H 0.0565 0.9624 0.0540
O6 O -0.04637(19) 0.26005(10) 0.08076(8)
loop_
_geom_bond_atom_site_label_1
_geom_bond_atom_site_label_2
_geom_bond_site_symmetry_1
_geom_bond_site_symmetry_2
N1 C1 1_555 1_555
C1 C2 1_555 1_555
C2 C3 1_555 1_555
C3 N2 1_555 1_555
N2 C4 1_555 1_555
C4 C5 1_555 1_555
C5 H1 1_555 1_555
C6 C5 1_555 1_555
C7 C6 1_555 1_555
H2 C7 1_555 1_555
C8 C7 1_555 1_555
H3 C8 1_555 1_555
C9 C4 1_555 1_555
N3 C9 1_555 1_555
C10 C3 1_555 1_555
C11 C10 1_555 1_555
C12 C1 1_555 1_555
C13 C12 1_555 1_555
H4 C13 1_555 1_555
C14 C13 1_555 1_555
H5 C14 1_555 1_555
C15 N1 1_555 1_555
H6 C15 1_555 1_555
O1 C2 1_555 1_555
O2 C6 1_555 1_555
C16 O2 1_555 1_555
H7 C16 1_555 1_555
C17 C16 1_555 1_555
H8 C17 1_555 1_555
H9 C17 1_555 1_555
H10 C17 1_555 1_555
C18 C16 1_555 1_555
H11 C18 1_555 1_555
H12 C18 1_555 1_555
H13 C18 1_555 1_555
O3 C11 1_555 1_555
N4 C19 1_555 1_555
C19 C20 1_555 1_555
C20 C21 1_555 1_555
C21 N5 1_555 1_555
N5 C22 1_555 1_555
C22 C23 1_555 1_555
C23 H14 1_555 1_555
C24 C23 1_555 1_555
C25 C24 1_555 1_555
H15 C25 1_555 1_555
C26 C25 1_555 1_555
H16 C26 1_555 1_555
C27 C22 1_555 1_555
N6 C27 1_555 1_555
C28 C21 1_555 1_555
C29 C28 1_555 1_555
C30 C19 1_555 1_555
C31 C30 1_555 1_555
H17 C31 1_555 1_555
C32 C31 1_555 1_555
H18 C32 1_555 1_555
C33 N4 1_555 1_555
H19 C33 1_555 1_555
O4 C20 1_555 1_555
O5 C24 1_555 1_555
C34 O5 1_555 1_555
H20 C34 1_555 1_555
C35 C34 1_555 1_555
H21 C35 1_555 1_555
H22 C35 1_555 1_555
H23 C35 1_555 1_555
C36 C34 1_555 1_555
H24 C36 1_555 1_555
H25 C36 1_555 1_555
H26 C36 1_555 1_555
O6 C29 1_555 1_555
C8 C9 1_555 1_555
N3 C10 1_555 1_555
C11 C12 1_555 1_555
C14 C15 1_555 1_555
C26 C27 1_555 1_555
N6 C28 1_555 1_555
C29 C30 1_555 1_555
C32 C33 1_555 1_555

#END
