
#######################################################################
#
#                 Cambridge Crystallographic Data Centre
#                                CCDC 
#
#######################################################################
#
# If this CIF has been generated from an entry in the Cambridge 
# Structural Database, then it will include bibliographic, chemical, 
# crystal, experimental, refinement or atomic coordinate data resulting 
# from the CCDC's data processing and validation procedures.
#
#######################################################################

data_HAGNEL
_chemical_compound_source        
'Plant-Derived Endophytic Fungus Aspergillus sp. YXf3'
_chemical_name_common            'Aspergiloid I'
_chemical_formula_moiety         'C18 H26 O4'
_chemical_name_systematic        
2',4-dihydroxy-3',3',5-trimethyl-5-vinyl-4,5,6,7-tetrahydro-3H-spiro[2-benzofuran-1,1'-cyclohexan]-3-one
_symmetry_cell_setting           orthorhombic
_symmetry_space_group_name_H-M   'P 21 21 21'
_symmetry_Int_Tables_number      19
_space_group_name_Hall           'P 2ac 2ab'
loop_
_symmetry_equiv_pos_site_id
_symmetry_equiv_pos_as_xyz
1 x,y,z
2 1/2+x,1/2-y,-z
3 -x,1/2+y,1/2-z
4 1/2-x,-y,1/2+z
_cell_length_a                   6.3349(2)
_cell_length_b                   11.1090(3)
_cell_length_c                   23.3643(6)
_cell_angle_alpha                90
_cell_angle_beta                 90
_cell_angle_gamma                90
_cell_volume                     1644.25
_exptl_crystal_colour            colorless
_exptl_crystal_description       piece
_chemical_melting_point          '181-184.9 deg.C'
_cell_formula_units_Z            4
_exptl_crystal_recrystallization_method 'Methanol (2 mL) and H2O (2 drops)'
loop_
_atom_site_label
_atom_site_type_symbol
_atom_site_fract_x
_atom_site_fract_y
_atom_site_fract_z
O1 O 1.0825(5) 0.5950(3) 0.23676(15)
O2 O 0.8565(5) 0.6983(3) 0.18248(15)
O3 O 0.6492(5) 1.0045(2) 0.17929(14)
H1 H 0.7158 1.0439 0.2041
O4 O 0.7632(5) 0.5763(3) 0.35173(14)
H2 H 0.6467 0.5665 0.3352
C1 C 0.9889(9) 0.9478(5) 0.4172(2)
H3 H 0.9878 0.9090 0.4534
H4 H 1.0736 1.0173 0.4114
C2 C 0.8728(8) 0.9052(4) 0.3750(2)
H5 H 0.8788 0.9469 0.3395
C3 C 0.7313(8) 0.7963(4) 0.3778(2)
C4 C 0.8381(7) 0.6956(4) 0.3412(2)
H6 H 0.9922 0.6966 0.3505
C5 C 0.8165(7) 0.7232(4) 0.2786(2)
C6 C 0.6770(7) 0.7985(3) 0.2549(2)
C7 C 0.6932(7) 0.7894(4) 0.1898(2)
C8 C 0.7760(7) 0.9050(4) 0.1603(2)
H7 H 0.9251 0.9189 0.1727
C9 C 0.7707(8) 0.8970(4) 0.0939(2)
C10 C 0.5582(7) 0.8508(4) 0.0725(2)
H8 H 0.5638 0.8416 0.0304
H9 H 0.4477 0.9109 0.0816
C11 C 0.5122(8) 0.8244(4) 0.3506(2)
H10 H 0.4260 0.7501 0.3507
H11 H 0.4387 0.8847 0.3746
C12 C 0.5253(8) 0.8721(4) 0.2895(2)
H12 H 0.3838 0.8691 0.2716
H13 H 0.5724 0.9571 0.2901
C13 C 0.9345(8) 0.6632(4) 0.2334(2)
C14 C 0.9538(7) 0.8180(4) 0.0721(2)
H14 H 0.9298 0.7343 0.0836
H15 H 1.0869 0.8466 0.0886
H16 H 0.9612 0.8230 0.0303
C15 C 0.4975(8) 0.7284(4) 0.0999(2)
H17 H 0.3595 0.7012 0.0848
H18 H 0.6048 0.6670 0.0902
C16 C 0.4845(7) 0.7437(4) 0.1650(2)
H19 H 0.3705 0.8014 0.1744
H20 H 0.4486 0.6654 0.1827
C17 C 0.8087(8) 1.0227(4) 0.0684(2)
H21 H 0.8026 1.0181 0.0265
H22 H 0.9480 1.0520 0.0802
H23 H 0.6997 1.0782 0.0822
C18 C 0.6976(8) 0.7494(4) 0.4386(2)
H24 H 0.8345 0.7298 0.4558
H25 H 0.6096 0.6769 0.4375
H26 H 0.6273 0.8113 0.4616
loop_
_geom_bond_atom_site_label_1
_geom_bond_atom_site_label_2
_geom_bond_site_symmetry_1
_geom_bond_site_symmetry_2
O1 C13 1_555 1_555
O2 C7 1_555 1_555
O3 H1 1_555 1_555
O4 H2 1_555 1_555
C1 H3 1_555 1_555
H4 C1 1_555 1_555
C2 C1 1_555 1_555
H5 C2 1_555 1_555
C3 C2 1_555 1_555
C4 O4 1_555 1_555
H6 C4 1_555 1_555
C5 C4 1_555 1_555
C6 C5 1_555 1_555
C7 C6 1_555 1_555
C8 O3 1_555 1_555
H7 C8 1_555 1_555
C9 C8 1_555 1_555
C10 C9 1_555 1_555
H8 C10 1_555 1_555
H9 C10 1_555 1_555
C11 C3 1_555 1_555
H10 C11 1_555 1_555
H11 C11 1_555 1_555
C12 C6 1_555 1_555
H12 C12 1_555 1_555
H13 C12 1_555 1_555
C13 O2 1_555 1_555
C14 C9 1_555 1_555
H14 C14 1_555 1_555
H15 C14 1_555 1_555
H16 C14 1_555 1_555
C15 C10 1_555 1_555
H17 C15 1_555 1_555
H18 C15 1_555 1_555
C16 C7 1_555 1_555
H19 C16 1_555 1_555
H20 C16 1_555 1_555
C17 C9 1_555 1_555
H21 C17 1_555 1_555
H22 C17 1_555 1_555
H23 C17 1_555 1_555
C18 C3 1_555 1_555
H24 C18 1_555 1_555
H25 C18 1_555 1_555
H26 C18 1_555 1_555
C3 C4 1_555 1_555
C5 C13 1_555 1_555
C7 C8 1_555 1_555
C11 C12 1_555 1_555
C15 C16 1_555 1_555

#END
