
#######################################################################
#
#                 Cambridge Crystallographic Data Centre
#                                CCDC 
#
#######################################################################
#
# If this CIF has been generated from an entry in the Cambridge 
# Structural Database, then it will include bibliographic, chemical, 
# crystal, experimental, refinement or atomic coordinate data resulting 
# from the CCDC's data processing and validation procedures.
#
#######################################################################

data_HAGPOU
_chemical_formula_moiety         'C24 H18 Br2 N2 O1 S1'
_chemical_name_systematic        
2-(1-Benzoyl)propylidene-3-(2,4-dibromophenyl)-5-phenyl-2,3-dihydro-1,3,4-thiadiazole
_symmetry_cell_setting           monoclinic
_symmetry_space_group_name_H-M   'P 21/c'
_symmetry_Int_Tables_number      14
_space_group_name_Hall           '-P 2ybc'
loop_
_symmetry_equiv_pos_site_id
_symmetry_equiv_pos_as_xyz
1 x,y,z
2 -x,1/2+y,1/2-z
3 -x,-y,-z
4 x,1/2-y,1/2+z
_cell_length_a                   11.749(1)
_cell_length_b                   8.533(1)
_cell_length_c                   22.670(4)
_cell_angle_alpha                90
_cell_angle_beta                 100.17(1)
_cell_angle_gamma                90
_cell_volume                     2237.05
_exptl_crystal_colour            'light brown'
_chemical_melting_point          153-155deg.C
_cell_formula_units_Z            4
loop_
_atom_site_label
_atom_site_type_symbol
_atom_site_fract_x
_atom_site_fract_y
_atom_site_fract_z
Br1 Br 0.37918(9) 0.28258(10) 0.44335(5)
Br2 Br 0.46580(11) 0.90190(12) 0.38269(6)
S1 S 0.0274(2) 0.0940(2) 0.3304(1)
O1 O 0.0769(5) -0.0271(7) 0.2396(2)
N1 N 0.0843(6) 0.3280(9) 0.4008(3)
N2 N 0.1492(6) 0.3367(8) 0.3557(3)
C1 C -0.0592(6) 0.1692(9) 0.4359(3)
C2 C -0.1360(7) 0.0470(10) 0.4247(4)
C3 C -0.2070(8) 0.0048(11) 0.4649(4)
C4 C -0.2011(9) 0.0881(12) 0.5164(4)
C5 C -0.1254(8) 0.2123(12) 0.5293(4)
C6 C -0.0541(8) 0.2513(10) 0.4886(4)
C7 C 0.0186(6) 0.2105(10) 0.3939(3)
C8 C 0.2257(7) 0.4665(10) 0.3603(3)
C9 C 0.3284(7) 0.4647(8) 0.3978(3)
C10 C 0.4006(7) 0.5925(9) 0.4049(3)
C11 C 0.3653(8) 0.7249(9) 0.3724(4)
C12 C 0.2609(8) 0.7317(10) 0.3368(4)
C13 C 0.1887(8) 0.6045(12) 0.3301(3)
C14 C 0.1338(6) 0.2212(9) 0.3132(3)
C15 C 0.1880(7) 0.1999(10) 0.2641(3)
C16 C 0.1522(6) 0.0636(9) 0.2280(3)
C17 C 0.2090(6) 0.0245(9) 0.1753(3)
C18 C 0.2885(8) -0.0959(13) 0.1789(4)
C19 C 0.3365(8) -0.1394(14) 0.1283(5)
C20 C 0.3072(8) -0.0609(12) 0.0766(4)
C21 C 0.2274(9) 0.0545(12) 0.0716(4)
C22 C 0.1774(8) 0.0992(11) 0.1200(4)
C23 C 0.2780(12) 0.3271(18) 0.2395(6)
C24 C 0.3847(18) 0.2785(20) 0.2651(6)
H1 H -0.1413 -0.0180 0.3834
H2 H -0.2659 -0.0927 0.4553
H3 H -0.2566 0.0568 0.5478
H4 H -0.1215 0.2781 0.5703
H5 H 0.0060 0.3474 0.4984
H6 H 0.4826 0.5889 0.4352
H7 H 0.2336 0.8390 0.3132
H8 H 0.1046 0.6111 0.3018
H9 H 0.3144 -0.1574 0.2208
H10 H 0.3967 -0.2359 0.1312
H11 H 0.3477 -0.0900 0.0388
H12 H 0.2020 0.1131 0.0291
H13 H 0.1139 0.1920 0.1149
H14 H 0.2624 0.4450 0.2535
H15 H 0.2681 0.3231 0.1913
loop_
_geom_bond_atom_site_label_1
_geom_bond_atom_site_label_2
_geom_bond_site_symmetry_1
_geom_bond_site_symmetry_2
Br1 C9 1_555 1_555
Br2 C11 1_555 1_555
S1 C7 1_555 1_555
O1 C16 1_555 1_555
N1 N2 1_555 1_555
N2 C8 1_555 1_555
C1 C2 1_555 1_555
C2 C3 1_555 1_555
C3 C4 1_555 1_555
C4 C5 1_555 1_555
C5 C6 1_555 1_555
C6 C1 1_555 1_555
C7 N1 1_555 1_555
C8 C9 1_555 1_555
C9 C10 1_555 1_555
C10 C11 1_555 1_555
C11 C12 1_555 1_555
C12 C13 1_555 1_555
C13 C8 1_555 1_555
C14 S1 1_555 1_555
C15 C14 1_555 1_555
C16 C15 1_555 1_555
C17 C16 1_555 1_555
C18 C17 1_555 1_555
C19 C18 1_555 1_555
C20 C19 1_555 1_555
C21 C20 1_555 1_555
C22 C17 1_555 1_555
C23 C15 1_555 1_555
C24 C23 1_555 1_555
H1 C2 1_555 1_555
H2 C3 1_555 1_555
H3 C4 1_555 1_555
H4 C5 1_555 1_555
H5 C6 1_555 1_555
H6 C10 1_555 1_555
H7 C12 1_555 1_555
H8 C13 1_555 1_555
H9 C18 1_555 1_555
H10 C19 1_555 1_555
H11 C20 1_555 1_555
H12 C21 1_555 1_555
H13 C22 1_555 1_555
H14 C23 1_555 1_555
H15 C23 1_555 1_555
N2 C14 1_555 1_555
C1 C7 1_555 1_555
C21 C22 1_555 1_555

#END
