
#######################################################################
#
#                 Cambridge Crystallographic Data Centre
#                                CCDC 
#
#######################################################################
#
# If this CIF has been generated from an entry in the Cambridge 
# Structural Database, then it will include bibliographic, chemical, 
# crystal, experimental, refinement or atomic coordinate data resulting 
# from the CCDC's data processing and validation procedures.
#
#######################################################################

data_HAGQAK
_chemical_formula_moiety         'C9 H12 O2'
_chemical_name_systematic        5-(1-hydroxyethyl)-2-methylphenol
_symmetry_cell_setting           monoclinic
_symmetry_space_group_name_H-M   'P 21'
_symmetry_Int_Tables_number      4
_space_group_name_Hall           'P 2yb'
loop_
_symmetry_equiv_pos_site_id
_symmetry_equiv_pos_as_xyz
1 x,y,z
2 -x,1/2+y,-z
_cell_length_a                   8.47140(10)
_cell_length_b                   5.92450(10)
_cell_length_c                   8.51030(10)
_cell_angle_alpha                90
_cell_angle_beta                 110.3010(10)
_cell_angle_gamma                90
_cell_volume                     400.59
_exptl_crystal_colour            colorless
_exptl_crystal_description       prism
_cell_formula_units_Z            2
loop_
_atom_site_label
_atom_site_type_symbol
_atom_site_fract_x
_atom_site_fract_y
_atom_site_fract_z
O1 O 0.59214(11) 0.8773(2) 0.88372(11)
H1 H 0.6034 0.8367 0.9816
O2 O 0.63087(11) 0.72449(19) 0.21605(10)
H2 H 0.5677 0.6139 0.2126
C1 C 0.82577(17) 1.1179(3) 0.25944(17)
H3 H 0.8772 1.0046 0.2083
H4 H 0.9051 1.2422 0.3037
H5 H 0.7230 1.1761 0.1748
C2 C 0.78271(15) 1.0114(3) 0.39989(15)
C3 C 0.83443(16) 1.1094(3) 0.55927(16)
H6 H 0.8990 1.2444 0.5793
C4 C 0.79317(16) 1.0131(3) 0.68893(16)
H7 H 0.8289 1.0831 0.7960
C5 C 0.70008(15) 0.8153(2) 0.66259(15)
C6 C 0.65858(16) 0.7053(3) 0.80447(16)
H8 H 0.5706 0.5871 0.7571
C7 C 0.81365(17) 0.5960(3) 0.92978(17)
H9 H 0.9012 0.7105 0.9752
H10 H 0.8556 0.4781 0.8737
H11 H 0.7842 0.5290 1.0212
C8 C 0.68734(16) 0.8138(2) 0.37526(15)
C9 C 0.64683(15) 0.7153(3) 0.50498(15)
H12 H 0.5829 0.5799 0.4858
loop_
_geom_bond_atom_site_label_1
_geom_bond_atom_site_label_2
_geom_bond_site_symmetry_1
_geom_bond_site_symmetry_2
O1 H1 1_555 1_555
O2 H2 1_555 1_555
C1 H3 1_555 1_555
H4 C1 1_555 1_555
H5 C1 1_555 1_555
C2 C1 1_555 1_555
C3 C2 1_555 1_555
H6 C3 1_555 1_555
C4 C3 1_555 1_555
H7 C4 1_555 1_555
C5 C4 1_555 1_555
C6 O1 1_555 1_555
H8 C6 1_555 1_555
C7 C6 1_555 1_555
H9 C7 1_555 1_555
H10 C7 1_555 1_555
H11 C7 1_555 1_555
C8 O2 1_555 1_555
C9 C5 1_555 1_555
H12 C9 1_555 1_555
C2 C8 1_555 1_555
C5 C6 1_555 1_555
C8 C9 1_555 1_555

#END
