
#######################################################################
#
#                 Cambridge Crystallographic Data Centre
#                                CCDC 
#
#######################################################################
#
# If this CIF has been generated from an entry in the Cambridge 
# Structural Database, then it will include bibliographic, chemical, 
# crystal, experimental, refinement or atomic coordinate data resulting 
# from the CCDC's data processing and validation procedures.
#
#######################################################################

data_HAGVAO
_chemical_formula_moiety         'C14 H15 Br1 O4'
_chemical_name_systematic        
'Methyl 2-(2-(4-bromophenyl)vinyl)-2-hydroxy-4-oxopentanoate'
_symmetry_cell_setting           orthorhombic
_symmetry_space_group_name_H-M   'P 21 21 21'
_symmetry_Int_Tables_number      19
_space_group_name_Hall           'P 2ac 2ab'
loop_
_symmetry_equiv_pos_site_id
_symmetry_equiv_pos_as_xyz
1 x,y,z
2 1/2-x,-y,1/2+z
3 -x,1/2+y,1/2-z
4 1/2+x,1/2-y,-z
_cell_length_a                   6.0470(7)
_cell_length_b                   7.0526(10)
_cell_length_c                   32.482(3)
_cell_angle_alpha                90
_cell_angle_beta                 90
_cell_angle_gamma                90
_cell_volume                     1385.26
_exptl_crystal_colour            colorless
_exptl_crystal_description       prism
_cell_formula_units_Z            4
loop_
_atom_site_label
_atom_site_type_symbol
_atom_site_fract_x
_atom_site_fract_y
_atom_site_fract_z
Br1 Br 0.39052(8) 0.41099(8) 0.158745(12)
O1 O 1.3244(5) 0.5035(5) 0.37100(9)
H1 H 1.352(11) 0.626(8) 0.3795(17)
O2 O 0.8348(5) 0.5950(5) 0.42934(8)
O3 O 1.1029(6) 0.7924(5) 0.40669(9)
O4 O 1.2773(6) 0.4585(5) 0.46562(9)
C1 C 0.9246(7) 0.5109(6) 0.23571(12)
H2 H 1.0713 0.5576 0.2330
C2 C 0.7943(7) 0.4943(6) 0.20077(13)
H3 H 0.8492 0.5291 0.1744
C3 C 0.5808(7) 0.4250(6) 0.20555(12)
C4 C 0.4989(8) 0.3710(7) 0.24367(12)
H4 H 0.3536 0.3212 0.2461
C5 C 0.6316(7) 0.3908(6) 0.27794(12)
H5 H 0.5753 0.3558 0.3042
C6 C 0.8472(7) 0.4611(6) 0.27487(12)
C7 C 0.9975(8) 0.4804(7) 0.31053(12)
H6 H 1.1425 0.5259 0.3052
C8 C 0.9478(7) 0.4397(6) 0.34930(12)
H7 H 0.8042 0.3917 0.3550
C9 C 1.1052(8) 0.4651(6) 0.38500(12)
C10 C 1.0203(8) 0.6378(7) 0.40875(13)
C11 C 0.7300(9) 0.7487(7) 0.45088(13)
H8 H 0.8141 0.7780 0.4759
H9 H 0.5790 0.7121 0.4584
H10 H 0.7255 0.8608 0.4331
C12 C 1.1138(9) 0.2841(6) 0.41080(12)
H11 H 0.9606 0.2417 0.4163
H12 H 1.1876 0.1837 0.3945
C13 C 1.2337(8) 0.3056(8) 0.45140(13)
C14 C 1.2875(9) 0.1248(8) 0.47326(14)
H13 H 1.4067 0.0591 0.4586
H14 H 1.1560 0.0437 0.4740
H15 H 1.3349 0.1531 0.5014
loop_
_geom_bond_atom_site_label_1
_geom_bond_atom_site_label_2
_geom_bond_site_symmetry_1
_geom_bond_site_symmetry_2
Br1 C3 1_555 1_555
O1 H1 1_555 1_555
O2 C10 1_555 1_555
O3 C10 1_555 1_555
O4 C13 1_555 1_555
C1 H2 1_555 1_555
C2 C1 1_555 1_555
H3 C2 1_555 1_555
C3 C2 1_555 1_555
C4 C3 1_555 1_555
H4 C4 1_555 1_555
C5 C4 1_555 1_555
H5 C5 1_555 1_555
C6 C1 1_555 1_555
C7 C6 1_555 1_555
H6 C7 1_555 1_555
C8 C7 1_555 1_555
H7 C8 1_555 1_555
C9 O1 1_555 1_555
C10 C9 1_555 1_555
C11 O2 1_555 1_555
H8 C11 1_555 1_555
H9 C11 1_555 1_555
H10 C11 1_555 1_555
C12 C9 1_555 1_555
H11 C12 1_555 1_555
H12 C12 1_555 1_555
C13 C12 1_555 1_555
C14 C13 1_555 1_555
H13 C14 1_555 1_555
H14 C14 1_555 1_555
H15 C14 1_555 1_555
C5 C6 1_555 1_555
C8 C9 1_555 1_555

#END
