
#######################################################################
#
#                 Cambridge Crystallographic Data Centre
#                                CCDC 
#
#######################################################################
#
# If this CIF has been generated from an entry in the Cambridge 
# Structural Database, then it will include bibliographic, chemical, 
# crystal, experimental, refinement or atomic coordinate data resulting 
# from the CCDC's data processing and validation procedures.
#
#######################################################################

data_HAGVOC
_chemical_formula_moiety         'C6 H14 N1 1+,C7 H5 O3 1-'
_chemical_name_systematic        'Cyclohexanaminium 4-hydroxybenzoate'
_symmetry_cell_setting           monoclinic
_symmetry_space_group_name_H-M   'P 21/c'
_symmetry_Int_Tables_number      14
_space_group_name_Hall           '-P 2ybc'
loop_
_symmetry_equiv_pos_site_id
_symmetry_equiv_pos_as_xyz
1 x,y,z
2 -x,1/2+y,1/2-z
3 -x,-y,-z
4 x,1/2-y,1/2+z
_cell_length_a                   6.1820(12)
_cell_length_b                   14.184(3)
_cell_length_c                   15.038(3)
_cell_angle_alpha                90
_cell_angle_beta                 99.74(3)
_cell_angle_gamma                90
_cell_volume                     1299.61
_exptl_crystal_colour            colorless
_exptl_crystal_description       block
_cell_formula_units_Z            4
loop_
_atom_site_label
_atom_site_type_symbol
_atom_site_fract_x
_atom_site_fract_y
_atom_site_fract_z
O1 O 0.9444(3) -0.11698(11) 0.38136(12)
O2 O 0.6667(3) -0.01706(12) 0.39009(11)
O3 O 1.2427(3) 0.21797(12) 0.15250(12)
H1 H 1.1744 0.2677 0.1447
C1 C 0.8432(4) -0.03979(16) 0.36207(16)
C2 C 0.9396(3) 0.02820(15) 0.30319(14)
C3 C 1.1339(4) 0.00652(16) 0.27064(16)
H2 H 1.1996 -0.0520 0.2838
C4 C 1.2291(4) 0.07003(17) 0.21969(16)
H3 H 1.3579 0.0541 0.1990
C5 C 1.1344(4) 0.15723(16) 0.19914(14)
C6 C 0.9344(4) 0.17966(16) 0.22785(15)
H4 H 0.8660 0.2372 0.2124
C7 C 0.8415(4) 0.11517(16) 0.27921(15)
H5 H 0.7102 0.1302 0.2982
N1 N 0.6190(4) 0.12496(15) 0.52184(17)
C8 C 0.5491(4) 0.22540(16) 0.50297(15)
H6 H 0.5207 0.2536 0.5594
C9 C 0.7338(4) 0.28114(17) 0.47133(17)
H7 H 0.8627 0.2811 0.5181
H8 H 0.7725 0.2519 0.4179
C10 C 0.6580(5) 0.38247(19) 0.44999(19)
H9 H 0.7724 0.4167 0.4268
H10 H 0.6341 0.4133 0.5051
C11 C 0.4456(5) 0.3864(2) 0.3805(2)
H11 H 0.3987 0.4514 0.3712
H12 H 0.4729 0.3615 0.3234
C12 C 0.2638(4) 0.32920(19) 0.4124(2)
H13 H 0.2238 0.3588 0.4654
H14 H 0.1351 0.3288 0.3654
C13 C 0.3366(4) 0.22813(18) 0.43490(17)
H15 H 0.2225 0.1952 0.4595
H16 H 0.3581 0.1959 0.3802
H17 H 0.622(4) 0.0939(18) 0.4680(17)
H18 H 0.522(4) 0.0898(19) 0.5522(17)
H19 H 0.764(5) 0.119(2) 0.5620(18)
loop_
_geom_bond_atom_site_label_1
_geom_bond_atom_site_label_2
_geom_bond_site_symmetry_1
_geom_bond_site_symmetry_2
O1 C1 1_555 1_555
O2 C1 1_555 1_555
O3 H1 1_555 1_555
C1 C2 1_555 1_555
C2 C3 1_555 1_555
C3 H2 1_555 1_555
C4 C3 1_555 1_555
H3 C4 1_555 1_555
C5 O3 1_555 1_555
C6 C5 1_555 1_555
H4 C6 1_555 1_555
C7 C2 1_555 1_555
H5 C7 1_555 1_555
N1 C8 1_555 1_555
C8 H6 1_555 1_555
C9 C8 1_555 1_555
H7 C9 1_555 1_555
H8 C9 1_555 1_555
C10 C9 1_555 1_555
H9 C10 1_555 1_555
H10 C10 1_555 1_555
C11 C10 1_555 1_555
H11 C11 1_555 1_555
H12 C11 1_555 1_555
C12 C11 1_555 1_555
H13 C12 1_555 1_555
H14 C12 1_555 1_555
C13 C8 1_555 1_555
H15 C13 1_555 1_555
H16 C13 1_555 1_555
H17 N1 1_555 1_555
H18 N1 1_555 1_555
H19 N1 1_555 1_555
C4 C5 1_555 1_555
C6 C7 1_555 1_555
C12 C13 1_555 1_555

#END
