
#######################################################################
#
#                 Cambridge Crystallographic Data Centre
#                                CCDC 
#
#######################################################################
#
# If this CIF has been generated from an entry in the Cambridge 
# Structural Database, then it will include bibliographic, chemical, 
# crystal, experimental, refinement or atomic coordinate data resulting 
# from the CCDC's data processing and validation procedures.
#
#######################################################################

data_HAGWET
_chemical_formula_moiety         'C7 H6 O3,0.5(C4 H10 N2),H2 O1'
_chemical_name_systematic        
'4-Hydroxybenzoic acid hemikis(piperazine) monohydrate'
_symmetry_cell_setting           monoclinic
_symmetry_space_group_name_H-M   'P 21/c'
_symmetry_Int_Tables_number      14
_space_group_name_Hall           '-P 2ybc'
loop_
_symmetry_equiv_pos_site_id
_symmetry_equiv_pos_as_xyz
1 x,y,z
2 -x,1/2+y,1/2-z
3 -x,-y,-z
4 x,1/2-y,1/2+z
_cell_length_a                   6.6120(13)
_cell_length_b                   11.898(2)
_cell_length_c                   12.442(3)
_cell_angle_alpha                90
_cell_angle_beta                 92.48(3)
_cell_angle_gamma                90
_cell_volume                     977.89
_exptl_crystal_colour            colorless
_exptl_crystal_description       block
_cell_formula_units_Z            4
loop_
_atom_site_label
_atom_site_type_symbol
_atom_site_fract_x
_atom_site_fract_y
_atom_site_fract_z
O1 O 0.2333(3) 0.18099(17) -0.16853(13)
O2 O 0.3301(2) 0.01437(14) 0.31830(11)
H1 H 0.2650 0.0163 0.3757
O3 O 0.6080(2) 0.11943(13) 0.30646(12)
C1 C 0.4781(3) 0.1647(2) -0.02498(17)
H2 H 0.5777 0.1864 -0.0713
C2 C 0.5300(3) 0.14101(19) 0.08132(17)
H3 H 0.6642 0.1479 0.1061
C3 C 0.3829(3) 0.10670(16) 0.15242(15)
C4 C 0.1817(3) 0.09748(17) 0.11336(16)
H4 H 0.0829 0.0741 0.1594
C5 C 0.1275(3) 0.12268(17) 0.00680(17)
H5 H -0.0071 0.1172 -0.0177
C6 C 0.2756(3) 0.15623(18) -0.06350(16)
C7 C 0.4429(3) 0.07860(16) 0.26722(15)
H13 H 0.107(6) 0.175(3) -0.186(3)
N1 N 0.7888(2) 0.02757(14) 0.47690(13)
H6 H 0.6625 0.0340 0.4898
C8 C 0.8814(3) -0.07420(18) 0.42942(16)
H7 H 0.9294 -0.0560 0.3589
H8 H 0.7798 -0.1327 0.4206
C9 C 0.9438(3) 0.11683(17) 0.49921(17)
H9 H 0.8809 0.1800 0.5339
H10 H 0.9949 0.1431 0.4317
N1B N 1.2112(2) -0.02757(14) 0.52310(13)
H6B H 1.3375 -0.0340 0.5102
C8B C 1.1186(3) 0.07420(18) 0.57058(16)
H7B H 1.0706 0.0560 0.6411
H8B H 1.2202 0.1327 0.5794
C9B C 1.0562(3) -0.11683(17) 0.50079(17)
H9B H 1.1191 -0.1800 0.4661
H10B H 1.0051 -0.1431 0.5683
O4 O 0.8369(3) 0.18767(18) 0.76376(15)
H11 H 0.754(4) 0.241(2) 0.772(2)
H12 H 0.766(5) 0.133(3) 0.752(3)
loop_
_geom_bond_atom_site_label_1
_geom_bond_atom_site_label_2
_geom_bond_site_symmetry_1
_geom_bond_site_symmetry_2
O1 C6 1_555 1_555
O2 H1 1_555 1_555
O3 C7 1_555 1_555
C1 H2 1_555 1_555
C2 C1 1_555 1_555
H3 C2 1_555 1_555
C3 C2 1_555 1_555
C4 C3 1_555 1_555
H4 C4 1_555 1_555
C5 C4 1_555 1_555
H5 C5 1_555 1_555
C6 C1 1_555 1_555
C7 O2 1_555 1_555
N1 H6 1_555 1_555
C8 N1 1_555 1_555
H7 C8 1_555 1_555
H8 C8 1_555 1_555
C9 N1 1_555 1_555
H9 C9 1_555 1_555
H10 C9 1_555 1_555
O4 H11 1_555 1_555
H12 O4 1_555 1_555
H13 O1 1_555 1_555
N1B H6B 1_555 1_555
C8B C9 1_555 1_555
H7B C8B 1_555 1_555
H8B C8B 1_555 1_555
C9B C8 1_555 1_555
H9B C9B 1_555 1_555
H10B C9B 1_555 1_555
C3 C7 1_555 1_555
C5 C6 1_555 1_555
N1B C8B 1_555 1_555
N1B C9B 1_555 1_555

#END
