
#######################################################################
#
#                 Cambridge Crystallographic Data Centre
#                                CCDC 
#
#######################################################################
#
# If this CIF has been generated from an entry in the Cambridge 
# Structural Database, then it will include bibliographic, chemical, 
# crystal, experimental, refinement or atomic coordinate data resulting 
# from the CCDC's data processing and validation procedures.
#
#######################################################################

data_HAGWEU
_chemical_formula_moiety         'C17 H15 B1 F2 N2 S1'
_chemical_name_systematic        
(2-(((2,6-dimethylphenyl)sulfanyl)(2H-pyrrol-2-ylidene)methyl)-1H-pyrrolato)(difluoro)boron
_symmetry_cell_setting           triclinic
_symmetry_space_group_name_H-M   'P -1'
_symmetry_Int_Tables_number      2
_space_group_name_Hall           '-P 1'
loop_
_symmetry_equiv_pos_site_id
_symmetry_equiv_pos_as_xyz
1 x,y,z
2 -x,-y,-z
_cell_length_a                   8.0536(6)
_cell_length_b                   8.1501(6)
_cell_length_c                   12.6192(9)
_cell_angle_alpha                87.2310(10)
_cell_angle_beta                 73.1110(10)
_cell_angle_gamma                77.7050(10)
_cell_volume                     774.31
_cell_formula_units_Z            2
loop_
_atom_site_label
_atom_site_type_symbol
_atom_site_fract_x
_atom_site_fract_y
_atom_site_fract_z
S1 S 0.68137(5) 0.90599(6) 0.79422(4)
F1 F 1.16403(18) 1.30077(15) 0.64448(11)
F2 F 1.24967(17) 1.16503(17) 0.47943(9)
N1 N 1.16927(18) 1.00440(18) 0.64512(11)
N2 N 0.9419(2) 1.20767(17) 0.58536(11)
C1 C 0.73705(19) 0.8079(2) 0.91172(13)
C2 C 1.0379(2) 0.9257(2) 0.71058(12)
C3 C 0.7547(2) 0.90444(19) 0.99482(13)
C4 C 0.8588(2) 0.99517(19) 0.71954(12)
C5 C 0.8121(2) 1.1363(2) 0.65890(13)
C6 C 0.7413(2) 0.6345(2) 0.92389(15)
C7 C 0.7791(2) 0.8236(2) 1.09046(14)
C8 C 0.7637(3) 0.5621(2) 1.02232(17)
C9 C 1.1232(2) 0.7759(2) 0.74922(15)
C10 C 0.7829(3) 0.6547(2) 1.10411(16)
C11 C 1.3268(2) 0.9058(3) 0.64389(15)
C12 C 1.3028(2) 0.7656(3) 0.70716(16)
C13 C 0.7469(3) 1.0901(2) 0.9845(2)
C14 C 0.6447(3) 1.2230(2) 0.65087(17)
C15 C 0.8583(4) 1.3318(3) 0.53365(18)
C16 C 0.6770(4) 1.3437(3) 0.5717(2)
B1 B 1.1378(3) 1.1737(3) 0.58576(16)
C17 C 0.7253(5) 0.5261(3) 0.8356(2)
H1 H 1.064(3) 0.697(3) 0.7948(19)
H2 H 1.433(3) 0.937(3) 0.6023(19)
H3 H 1.394(3) 0.671(3) 0.715(2)
H4 H 0.533(3) 1.202(3) 0.6922(19)
H5 H 0.923(3) 1.397(3) 0.478(2)
H6 H 0.801(3) 0.600(3) 1.170(2)
H7 H 0.763(3) 0.443(3) 1.0295(19)
H8 H 0.791(3) 0.889(3) 1.149(2)
H9 H 0.590(4) 1.428(3) 0.550(2)
H10 H 0.844(4) 1.118(3) 0.933(2)
H11 H 0.765(4) 0.571(4) 0.765(3)
H12 H 0.651(4) 1.145(3) 0.957(2)
H13 H 0.606(6) 0.558(5) 0.835(4)
H14 H 0.734(4) 1.137(4) 1.054(3)
H15 H 0.781(5) 0.411(5) 0.842(3)
loop_
_geom_bond_atom_site_label_1
_geom_bond_atom_site_label_2
_geom_bond_site_symmetry_1
_geom_bond_site_symmetry_2
S1 C1 1_555 1_555
F1 B1 1_555 1_555
F2 B1 1_555 1_555
N1 C2 1_555 1_555
N2 C5 1_555 1_555
C1 C3 1_555 1_555
C2 C4 1_555 1_555
C3 C7 1_555 1_555
C4 S1 1_555 1_555
C5 C4 1_555 1_555
C6 C1 1_555 1_555
C7 C10 1_555 1_555
C8 C6 1_555 1_555
C9 C2 1_555 1_555
C10 C8 1_555 1_555
C11 N1 1_555 1_555
C12 C9 1_555 1_555
C13 C3 1_555 1_555
C14 C5 1_555 1_555
C15 N2 1_555 1_555
C16 C14 1_555 1_555
B1 N1 1_555 1_555
C17 C6 1_555 1_555
H1 C9 1_555 1_555
H2 C11 1_555 1_555
H3 C12 1_555 1_555
H4 C14 1_555 1_555
H5 C15 1_555 1_555
H6 C10 1_555 1_555
H7 C8 1_555 1_555
H8 C7 1_555 1_555
H9 C16 1_555 1_555
H10 C13 1_555 1_555
H11 C17 1_555 1_555
H12 C13 1_555 1_555
H13 C17 1_555 1_555
H14 C13 1_555 1_555
H15 C17 1_555 1_555
N2 B1 1_555 1_555
C11 C12 1_555 1_555
C15 C16 1_555 1_555

#END
