
#######################################################################
#
#                 Cambridge Crystallographic Data Centre
#                                CCDC 
#
#######################################################################
#
# If this CIF has been generated from an entry in the Cambridge 
# Structural Database, then it will include bibliographic, chemical, 
# crystal, experimental, refinement or atomic coordinate data resulting 
# from the CCDC's data processing and validation procedures.
#
#######################################################################

data_HAGZOH
_chemical_name_common            2',4-dihydroxychalcone
_chemical_formula_moiety         'C15 H12 O3'
_chemical_name_systematic        
1-(2-hydroxyphenyl)-3-(4-hydroxyphenyl)prop-2-en-1-one
_symmetry_cell_setting           monoclinic
_symmetry_space_group_name_H-M   'P 21'
_symmetry_Int_Tables_number      4
_space_group_name_Hall           'P 2yb'
loop_
_symmetry_equiv_pos_site_id
_symmetry_equiv_pos_as_xyz
1 x,y,z
2 -x,1/2+y,-z
_cell_length_a                   3.8566(6)
_cell_length_b                   17.330(3)
_cell_length_c                   17.144(3)
_cell_angle_alpha                90
_cell_angle_beta                 94.954(2)
_cell_angle_gamma                90
_cell_volume                     1141.54
_exptl_crystal_colour            colorless
_exptl_crystal_description       plate
_cell_formula_units_Z            4
loop_
_atom_site_label
_atom_site_type_symbol
_atom_site_fract_x
_atom_site_fract_y
_atom_site_fract_z
O1 O 0.8200(4) 0.38153(9) 0.92119(8)
O2 O 0.4298(4) 0.29467(9) 0.44364(8)
O3 O 0.5477(4) 0.24359(9) 0.31052(9)
C1 C 0.8585(5) 0.29181(12) 0.81913(12)
C2 C 0.6026(5) 0.24146(12) 0.47775(12)
C3 C 0.4927(5) 0.38979(12) 0.71461(12)
C4 C 0.8260(6) 0.12295(13) 0.30401(13)
C5 C 1.0146(5) 0.05293(13) 0.42136(13)
C6 C 0.9834(5) 0.05968(13) 0.34018(13)
C7 C 0.8924(5) 0.11184(12) 0.46614(13)
C8 C 0.5498(5) 0.41117(12) 0.79217(13)
C9 C 0.6770(5) 0.24429(12) 0.56320(12)
C10 C 0.6989(5) 0.18243(12) 0.34877(13)
C11 C 0.7344(5) 0.17803(11) 0.43131(12)
C12 C 0.7995(5) 0.27100(12) 0.74187(13)
C13 C 0.6175(5) 0.31977(11) 0.68690(12)
C14 C 0.5580(5) 0.30337(12) 0.60408(12)
H1 H 0.819(6) 0.2078(13) 0.5876(13)
H2 H 1.115(6) 0.0080(14) 0.4474(12)
H3 H 0.915(6) 0.1091(13) 0.5236(13)
H4 H 0.454(5) 0.4591(13) 0.8091(12)
H5 H 0.985(6) 0.2635(13) 0.8592(13)
H6 H 0.886(6) 0.2229(14) 0.7247(13)
H7 H 0.734(7) 0.4297(17) 0.9308(16)
H8 H 0.418(5) 0.3438(12) 0.5719(11)
H9 H 0.370(5) 0.4238(13) 0.6762(12)
H10 H 0.786(7) 0.1301(15) 0.2471(15)
H11 H 1.069(6) 0.0177(15) 0.3063(13)
H12 H 0.469(8) 0.2762(18) 0.3503(17)
C15 C 0.7411(5) 0.36290(11) 0.84454(12)
O4 O 0.4949(4) 0.01399(8) 0.02528(9)
O5 O -0.1022(4) 0.60023(8) 0.17931(9)
O6 O 0.1666(4) 0.48829(8) 0.10798(8)
C16 C 0.0976(5) 0.44152(11) 0.16076(12)
C17 C 0.2515(5) 0.18858(12) 0.12431(12)
C18 C -0.1453(5) 0.54911(11) 0.23691(11)
C19 C -0.0510(5) 0.47077(11) 0.23157(11)
C20 C 0.5209(5) 0.14764(11) -0.01500(12)
C21 C -0.2943(5) 0.57662(12) 0.30281(13)
C22 C 0.2808(5) 0.32861(11) 0.08752(12)
C23 C 0.3007(5) 0.11193(12) 0.10729(12)
C24 C -0.3407(5) 0.52767(12) 0.36428(13)
C25 C 0.3344(5) 0.24708(11) 0.07238(11)
C26 C -0.0995(5) 0.42290(12) 0.29601(12)
C27 C 0.4396(5) 0.09130(11) 0.03795(12)
C28 C 0.1547(5) 0.35905(12) 0.15152(12)
C29 C 0.4676(5) 0.22434(12) 0.00251(12)
C30 C -0.2414(5) 0.45079(13) 0.36181(13)
H13 H 0.590(7) 0.0085(17) -0.0205(17)
H14 H 0.525(5) 0.2650(12) -0.0341(12)
H15 H 0.332(5) 0.3638(14) 0.0463(12)
H16 H -0.361(6) 0.6299(14) 0.3044(13)
H17 H -0.454(5) 0.5499(13) 0.4102(13)
H18 H -0.004(7) 0.5741(16) 0.1432(15)
H19 H 0.080(6) 0.3255(13) 0.1927(13)
H20 H 0.232(5) 0.0708(12) 0.1419(12)
H21 H -0.044(6) 0.3703(14) 0.2970(12)
H22 H 0.628(6) 0.1344(12) -0.0646(13)
H23 H -0.270(6) 0.4152(15) 0.4067(15)
H24 H 0.149(7) 0.2036(14) 0.1721(15)
loop_
_geom_bond_atom_site_label_1
_geom_bond_atom_site_label_2
_geom_bond_site_symmetry_1
_geom_bond_site_symmetry_2
O1 H7 1_555 1_555
O2 C2 1_555 1_555
O3 C10 1_555 1_555
C1 C12 1_555 1_555
C2 C9 1_555 1_555
C3 C8 1_555 1_555
C4 C6 1_555 1_555
C5 C6 1_555 1_555
C6 H11 1_555 1_555
C7 C5 1_555 1_555
C8 H4 1_555 1_555
C9 C14 1_555 1_555
C10 C4 1_555 1_555
C11 C2 1_555 1_555
C12 C13 1_555 1_555
C13 C3 1_555 1_555
C14 C13 1_555 1_555
H1 C9 1_555 1_555
H2 C5 1_555 1_555
H3 C7 1_555 1_555
H5 C1 1_555 1_555
H6 C12 1_555 1_555
H8 C14 1_555 1_555
H9 C3 1_555 1_555
H10 C4 1_555 1_555
H12 O3 1_555 1_555
C15 O1 1_555 1_555
O4 C27 1_555 1_555
O5 C18 1_555 1_555
O6 C16 1_555 1_555
C16 C19 1_555 1_555
C17 C23 1_555 1_555
C18 C19 1_555 1_555
C19 C26 1_555 1_555
C20 C27 1_555 1_555
C21 C18 1_555 1_555
C22 C25 1_555 1_555
C23 C27 1_555 1_555
C24 C21 1_555 1_555
C25 C17 1_555 1_555
C26 C30 1_555 1_555
C28 C16 1_555 1_555
C29 C20 1_555 1_555
C30 C24 1_555 1_555
H13 O4 1_555 1_555
H14 C29 1_555 1_555
H15 C22 1_555 1_555
H16 C21 1_555 1_555
H17 C24 1_555 1_555
H18 O5 1_555 1_555
H19 C28 1_555 1_555
H20 C23 1_555 1_555
H21 C26 1_555 1_555
H22 C20 1_555 1_555
H23 C30 1_555 1_555
H24 C17 1_555 1_555
C1 C15 1_555 1_555
C7 C11 1_555 1_555
C8 C15 1_555 1_555
C10 C11 1_555 1_555
C22 C28 1_555 1_555
C25 C29 1_555 1_555

#END
