
#######################################################################
#
#                 Cambridge Crystallographic Data Centre
#                                CCDC 
#
#######################################################################
#
# If this CIF has been generated from an entry in the Cambridge 
# Structural Database, then it will include bibliographic, chemical, 
# crystal, experimental, refinement or atomic coordinate data resulting 
# from the CCDC's data processing and validation procedures.
#
#######################################################################

data_HAHBOI
_chemical_compound_source        'soft coral Singularia sp'
_chemical_name_common            'Singuaiol hemihydrate'
_chemical_formula_moiety         'C15 H24 O3,0.5(H2 O1)'
_chemical_name_systematic        '1(5),6(7)-Diepoxy-4-guaiol hemihydrate'
_symmetry_cell_setting           monoclinic
_symmetry_space_group_name_H-M   'P 21'
_symmetry_Int_Tables_number      4
_space_group_name_Hall           'P 2yb'
loop_
_symmetry_equiv_pos_site_id
_symmetry_equiv_pos_as_xyz
1 x,y,z
2 -x,1/2+y,-z
_cell_length_a                   10.3492(13)
_cell_length_b                   9.9790(13)
_cell_length_c                   14.6493(18)
_cell_angle_alpha                90
_cell_angle_beta                 96.382(2)
_cell_angle_gamma                90
_cell_volume                     1503.53
_exptl_crystal_colour            colorless
_exptl_crystal_description       rod
_cell_formula_units_Z            4
_exptl_crystal_recrystallization_method 'hexane/ethyl acetate'
loop_
_atom_site_label
_atom_site_type_symbol
_atom_site_fract_x
_atom_site_fract_y
_atom_site_fract_z
O1 O 0.70920(18) 0.0826(2) 0.19439(13)
H1 H 0.7783 0.0466 0.2201
O2 O 0.48219(16) -0.0122(2) 0.35926(13)
O3 O 0.38221(16) -0.1801(2) 0.20371(13)
C1 C 0.7130(3) 0.0245(4) 0.4115(2)
H2 H 0.7037 0.0429 0.4748
H3 H 0.7986 -0.0103 0.4074
C2 C 0.6903(3) 0.1507(4) 0.3541(2)
H4 H 0.7716 0.1928 0.3459
H5 H 0.6381 0.2132 0.3838
C3 C 0.6211(3) 0.1082(3) 0.2614(2)
C4 C 0.5562(2) -0.0254(3) 0.28154(17)
C5 C 0.6115(2) -0.0740(3) 0.37257(17)
C6 C 0.6167(3) -0.2147(4) 0.40948(19)
H6 H 0.7040 -0.2468 0.4086
C7 C 0.5271(3) -0.3137(4) 0.3563(3)
H7 H 0.4399 -0.2799 0.3533
H8 H 0.5298 -0.3964 0.3899
C8 C 0.5579(3) -0.3431(3) 0.2587(2)
H9 H 0.6094 -0.4191 0.2452
H10 H 0.4806 -0.3967 0.2487
C9 C 0.5015(2) -0.2475(3) 0.1838(2)
C10 C 0.4992(2) -0.1029(3) 0.19948(18)
H11 H 0.4977 -0.0526 0.1435
C11 C 0.5257(3) 0.2133(4) 0.2200(3)
H12 H 0.5717 0.2942 0.2090
H13 H 0.4824 0.1805 0.1630
H14 H 0.4625 0.2314 0.2617
C12 C 0.5886(4) -0.2103(6) 0.5107(3)
H15 H 0.6462 -0.1472 0.5436
H16 H 0.5002 -0.1829 0.5136
H17 H 0.6019 -0.2975 0.5378
C13 C 0.5004(3) -0.2928(4) 0.0849(2)
H18 H 0.4615 -0.2215 0.0474
C14 C 0.6379(4) -0.3082(7) 0.0607(3)
H19 H 0.6354 -0.3369 -0.0021
H20 H 0.6823 -0.2238 0.0683
H21 H 0.6832 -0.3738 0.1002
C15 C 0.4162(4) -0.4159(5) 0.0621(3)
H22 H 0.4189 -0.4404 -0.0011
H23 H 0.4483 -0.4888 0.1010
H24 H 0.3282 -0.3963 0.0724
O4 O 1.15198(18) -0.1477(3) 0.08521(13)
O5 O 0.95868(17) -0.0122(2) 0.25933(13)
H25 H 1.2215 -0.1428 0.1216
O6 O 0.89470(19) -0.2958(3) 0.27388(16)
C16 C 1.1761(3) 0.0758(3) 0.2399(2)
H26 H 1.1690 0.1608 0.2696
H27 H 1.2662 0.0513 0.2435
C17 C 1.1160(3) 0.0812(4) 0.1387(2)
H28 H 1.1808 0.1031 0.0990
H29 H 1.0488 0.1478 0.1313
C18 C 1.0592(3) -0.0579(3) 0.11682(18)
C19 C 1.0271(2) -0.1108(3) 0.21055(16)
C20 C 1.0991(2) -0.0305(3) 0.28343(17)
C21 C 1.1434(3) -0.0689(3) 0.38171(18)
H30 H 1.2354 -0.0847 0.3858
C22 C 1.0820(3) -0.1945(4) 0.41605(18)
H31 H 0.9895 -0.1817 0.4105
H32 H 1.1112 -0.2052 0.4801
C23 C 1.1106(3) -0.3220(3) 0.3663(2)
H33 H 1.1811 -0.3796 0.3891
H34 H 1.0534 -0.3702 0.4018
C24 C 1.0226(3) -0.3559(3) 0.27959(19)
C25 C 0.9826(2) -0.2537(3) 0.21096(19)
H35 H 0.9616 -0.2898 0.1504
C26 C 0.9447(3) -0.0539(4) 0.0422(2)
H36 H 0.9730 -0.0197 -0.0135
H37 H 0.9105 -0.1426 0.0317
H38 H 0.8783 0.0035 0.0614
C27 C 1.1224(4) 0.0499(4) 0.4450(3)
H39 H 1.1619 0.1287 0.4228
H40 H 1.0308 0.0648 0.4456
H41 H 1.1611 0.0304 0.5062
C28 C 1.0234(4) -0.4995(3) 0.2462(2)
H42 H 0.9660 -0.5034 0.1901
C29 C 1.1578(4) -0.5380(4) 0.2229(3)
H43 H 1.1569 -0.6291 0.2017
H44 H 1.1818 -0.4798 0.1754
H45 H 1.2195 -0.5290 0.2765
C30 C 0.9711(5) -0.5981(5) 0.3111(3)
H46 H 0.9739 -0.6872 0.2866
H47 H 1.0236 -0.5940 0.3693
H48 H 0.8829 -0.5754 0.3191
O7 O 1.2145(5) -0.1662(5) -0.1012(3)
H49 H 1.1963 -0.1621 -0.0454
H50 H 1.2364 -0.2389 -0.1271
loop_
_geom_bond_atom_site_label_1
_geom_bond_atom_site_label_2
_geom_bond_site_symmetry_1
_geom_bond_site_symmetry_2
O1 H1 1_555 1_555
O2 C4 1_555 1_555
O3 C9 1_555 1_555
C1 H2 1_555 1_555
H3 C1 1_555 1_555
C2 C1 1_555 1_555
H4 C2 1_555 1_555
H5 C2 1_555 1_555
C3 O1 1_555 1_555
C4 C3 1_555 1_555
C5 O2 1_555 1_555
C6 C5 1_555 1_555
H6 C6 1_555 1_555
C7 C6 1_555 1_555
H7 C7 1_555 1_555
H8 C7 1_555 1_555
C8 C7 1_555 1_555
H9 C8 1_555 1_555
H10 C8 1_555 1_555
C9 C8 1_555 1_555
C10 O3 1_555 1_555
H11 C10 1_555 1_555
C11 C3 1_555 1_555
H12 C11 1_555 1_555
H13 C11 1_555 1_555
H14 C11 1_555 1_555
C12 C6 1_555 1_555
H15 C12 1_555 1_555
H16 C12 1_555 1_555
H17 C12 1_555 1_555
C13 C9 1_555 1_555
H18 C13 1_555 1_555
C14 C13 1_555 1_555
H19 C14 1_555 1_555
H20 C14 1_555 1_555
H21 C14 1_555 1_555
C15 C13 1_555 1_555
H22 C15 1_555 1_555
H23 C15 1_555 1_555
H24 C15 1_555 1_555
O4 H25 1_555 1_555
O5 C19 1_555 1_555
O6 C24 1_555 1_555
C16 H26 1_555 1_555
H27 C16 1_555 1_555
C17 C16 1_555 1_555
H28 C17 1_555 1_555
H29 C17 1_555 1_555
C18 O4 1_555 1_555
C19 C18 1_555 1_555
C20 O5 1_555 1_555
C21 C20 1_555 1_555
H30 C21 1_555 1_555
C22 C21 1_555 1_555
H31 C22 1_555 1_555
H32 C22 1_555 1_555
C23 C22 1_555 1_555
H33 C23 1_555 1_555
H34 C23 1_555 1_555
C24 C23 1_555 1_555
C25 O6 1_555 1_555
H35 C25 1_555 1_555
C26 C18 1_555 1_555
H36 C26 1_555 1_555
H37 C26 1_555 1_555
H38 C26 1_555 1_555
C27 C21 1_555 1_555
H39 C27 1_555 1_555
H40 C27 1_555 1_555
H41 C27 1_555 1_555
C28 C24 1_555 1_555
H42 C28 1_555 1_555
C29 C28 1_555 1_555
H43 C29 1_555 1_555
H44 C29 1_555 1_555
H45 C29 1_555 1_555
C30 C28 1_555 1_555
H46 C30 1_555 1_555
H47 C30 1_555 1_555
H48 C30 1_555 1_555
O7 H49 1_555 1_555
H50 O7 1_555 1_555
C1 C5 1_555 1_555
C2 C3 1_555 1_555
C4 C5 1_555 1_555
C4 C10 1_555 1_555
C9 C10 1_555 1_555
C16 C20 1_555 1_555
C17 C18 1_555 1_555
C19 C20 1_555 1_555
C19 C25 1_555 1_555
C24 C25 1_555 1_555

#END
