
#######################################################################
#
#                 Cambridge Crystallographic Data Centre
#                                CCDC 
#
#######################################################################
#
# If this CIF has been generated from an entry in the Cambridge 
# Structural Database, then it will include bibliographic, chemical, 
# crystal, experimental, refinement or atomic coordinate data resulting 
# from the CCDC's data processing and validation procedures.
#
#######################################################################

data_HAHBIC
_chemical_formula_moiety         'C6 H16 N4 O2 2+,2(H2 O4 P1 1-)'
_chemical_name_systematic        'L-Argininium bis(dihydrogen phosphate)'
_symmetry_cell_setting           orthorhombic
_symmetry_space_group_name_H-M   'P 21 21 21'
_symmetry_Int_Tables_number      19
_space_group_name_Hall           'P 2ac 2ab'
loop_
_symmetry_equiv_pos_site_id
_symmetry_equiv_pos_as_xyz
1 x,y,z
2 1/2-x,-y,1/2+z
3 1/2+x,1/2-y,-z
4 -x,1/2+y,1/2-z
_cell_length_a                   6.9910(2)
_cell_length_b                   9.6760(5)
_cell_length_c                   21.735(2)
_cell_angle_alpha                90
_cell_angle_beta                 90
_cell_angle_gamma                90
_cell_volume                     1470.26
_exptl_crystal_colour            colorless
_exptl_crystal_description       plate
_cell_formula_units_Z            4
_exptl_crystal_recrystallization_method water
loop_
_atom_site_label
_atom_site_type_symbol
_atom_site_fract_x
_atom_site_fract_y
_atom_site_fract_z
P1 P 0.80681(13) 0.37460(9) 0.53565(4)
O1 O 0.7445(4) 0.3503(3) 0.60100(12)
O2 O 1.0137(3) 0.4192(3) 0.52937(12)
O3 O 0.6760(4) 0.4833(3) 0.50331(12)
H1 H 0.596(7) 0.519(5) 0.524(2)
O4 O 0.7961(4) 0.2402(3) 0.49577(18)
H2 H 0.680(8) 0.198(5) 0.492(2)
P2 P 0.86870(13) 0.91646(9) 0.36808(4)
O5 O 0.8041(4) 0.8017(3) 0.32634(11)
O6 O 0.9260(4) 0.8732(3) 0.43213(10)
O7 O 1.0382(4) 0.9917(3) 0.33515(12)
H3 H 1.105(8) 1.066(6) 0.372(2)
O8 O 0.7080(4) 1.0301(3) 0.37063(13)
H4 H 0.616(10) 1.043(8) 0.389(4)
O9 O 0.0545(4) -0.1214(3) 0.64127(13)
H5 H 0.1419 -0.1763 0.6473
O10 O -0.0408(5) -0.2794(3) 0.57282(14)
C1 C -0.0590(5) -0.1696(4) 0.59857(16)
C2 C -0.2250(5) -0.0727(4) 0.58508(16)
H6 H -0.1733 0.0151 0.5699
N1 N -0.3403(5) -0.1375(3) 0.53498(14)
H7 H -0.4387 -0.0830 0.5257
H8 H -0.3836 -0.2193 0.5476
H9 H -0.2673 -0.1490 0.5018
C3 C -0.3451(5) -0.0437(4) 0.64168(15)
H10 H -0.2630 -0.0061 0.6735
H11 H -0.3966 -0.1304 0.6568
C4 C -0.5100(6) 0.0562(4) 0.63093(17)
H12 H -0.4636 0.1389 0.6106
H13 H -0.6054 0.0135 0.6047
C5 C -0.5976(6) 0.0931(5) 0.69191(18)
H14 H -0.6303 0.0090 0.7138
H15 H -0.5043 0.1429 0.7164
N2 N -0.7691(5) 0.1781(4) 0.68503(15)
H16 H -0.7763 0.2333 0.6541
C6 C -0.9139(5) 0.1738(4) 0.72423(16)
N3 N -0.9004(5) 0.1038(4) 0.77659(16)
H17 H -0.7966 0.0605 0.7854
H18 H -0.9955 0.1018 0.8017
N4 N -1.0783(5) 0.2377(4) 0.71153(17)
H19 H -1.0911 0.2823 0.6776
H20 H -1.1715 0.2343 0.7373
loop_
_geom_bond_atom_site_label_1
_geom_bond_atom_site_label_2
_geom_bond_site_symmetry_1
_geom_bond_site_symmetry_2
P1 O1 1_555 1_555
O2 P1 1_555 1_555
O3 P1 1_555 1_555
H1 O3 1_555 1_555
O4 P1 1_555 1_555
H2 O4 1_555 1_555
P2 O5 1_555 1_555
O6 P2 1_555 1_555
O7 P2 1_555 1_555
H3 O7 1_555 1_555
O8 P2 1_555 1_555
H4 O8 1_555 1_555
O9 H5 1_555 1_555
O10 C1 1_555 1_555
C1 O9 1_555 1_555
C2 C1 1_555 1_555
H6 C2 1_555 1_555
N1 C2 1_555 1_555
H7 N1 1_555 1_555
H8 N1 1_555 1_555
H9 N1 1_555 1_555
C3 C2 1_555 1_555
H10 C3 1_555 1_555
H11 C3 1_555 1_555
C4 C3 1_555 1_555
H12 C4 1_555 1_555
H13 C4 1_555 1_555
C5 C4 1_555 1_555
H14 C5 1_555 1_555
H15 C5 1_555 1_555
N2 C5 1_555 1_555
H16 N2 1_555 1_555
C6 N2 1_555 1_555
N3 C6 1_555 1_555
H17 N3 1_555 1_555
H18 N3 1_555 1_555
N4 C6 1_555 1_555
H19 N4 1_555 1_555
H20 N4 1_555 1_555

#END
