
#######################################################################
#
#                 Cambridge Crystallographic Data Centre
#                                CCDC 
#
#######################################################################
#
# If this CIF has been generated from an entry in the Cambridge 
# Structural Database, then it will include bibliographic, chemical, 
# crystal, experimental, refinement or atomic coordinate data resulting 
# from the CCDC's data processing and validation procedures.
#
#######################################################################

data_HAHCUO
_chemical_formula_moiety         'C14 H10 S4'
_chemical_name_systematic        
2,5-bis(Methylthio)naphtho(1,8-bc:4,5-b'c')dithiophene
_symmetry_cell_setting           monoclinic
_symmetry_space_group_name_H-M   'P 21/c'
_symmetry_Int_Tables_number      14
_space_group_name_Hall           '-P 2ybc'
loop_
_symmetry_equiv_pos_site_id
_symmetry_equiv_pos_as_xyz
1 x,y,z
2 -x,1/2+y,1/2-z
3 -x,-y,-z
4 x,1/2-y,1/2+z
_cell_length_a                   15.275(2)
_cell_length_b                   4.694(1)
_cell_length_c                   19.874(2)
_cell_angle_alpha                90
_cell_angle_beta                 111.12(8)
_cell_angle_gamma                90
_cell_volume                     1329.26
_exptl_crystal_colour            yellow
_chemical_melting_point          80deg.C
_cell_formula_units_Z            4
loop_
_atom_site_label
_atom_site_type_symbol
_atom_site_fract_x
_atom_site_fract_y
_atom_site_fract_z
S1 S 0.09888(7) 0.74508(29) 0.50066(6)
C1 C 0.09942(29) 0.9775(11) 0.43225(23)
C2 C 0.02691(31) 1.0867(11) 0.37161(25)
C3 C 0.04736(32) 1.2801(11) 0.32625(25)
C4 C 0.14206(29) 1.3612(11) 0.34104(23)
S2 S 0.19416(7) 1.58907(29) 0.29747(6)
C5 C 0.30766(32) 1.5210(11) 0.36061(25)
C6 C 0.30583(29) 1.3342(11) 0.41318(23)
C7 C 0.37916(31) 1.2167(12) 0.47694(26)
C8 C 0.35880(32) 1.0305(12) 0.52148(26)
C9 C 0.26125(29) 0.9414(11) 0.50794(25)
C10 C 0.22173(32) 0.7703(11) 0.54377(25)
C11 C 0.19142(29) 1.0578(10) 0.44551(23)
C12 C 0.21230(29) 1.2462(10) 0.40085(23)
S3 S 0.28007(10) 0.60306(41) 0.62624(7)
C13 C 0.19022(46) 0.4002(14) 0.64214(37)
S4 S 0.40397(10) 1.69457(35) 0.35190(7)
C14 C 0.43807(41) 1.4558(14) 0.29485(38)
loop_
_geom_bond_atom_site_label_1
_geom_bond_atom_site_label_2
_geom_bond_site_symmetry_1
_geom_bond_site_symmetry_2
S1 C1 1_555 1_555
C1 C2 1_555 1_555
C2 C3 1_555 1_555
C3 C4 1_555 1_555
C4 S2 1_555 1_555
S2 C5 1_555 1_555
C5 C6 1_555 1_555
C6 C7 1_555 1_555
C7 C8 1_555 1_555
C8 C9 1_555 1_555
C9 C10 1_555 1_555
C10 S1 1_555 1_555
C11 C1 1_555 1_555
C12 C4 1_555 1_555
S3 C10 1_555 1_555
C13 S3 1_555 1_555
S4 C5 1_555 1_555
C14 S4 1_555 1_555
C6 C12 1_555 1_555
C9 C11 1_555 1_555
C11 C12 1_555 1_555

#END
