
#######################################################################
#
#                 Cambridge Crystallographic Data Centre
#                                CCDC 
#
#######################################################################
#
# If this CIF has been generated from an entry in the Cambridge 
# Structural Database, then it will include bibliographic, chemical, 
# crystal, experimental, refinement or atomic coordinate data resulting 
# from the CCDC's data processing and validation procedures.
#
#######################################################################

data_HAHVIW
_chemical_formula_moiety         'C14 H14 N4,C42 H70 O35,8(H2 O1)'
_chemical_name_systematic        
'(2)-(\b-Cyclodextrin)-(1,4-bis(imidazol-1-yl)benzene)-pseudorotaxane octahydrate'
_symmetry_cell_setting           monoclinic
_symmetry_space_group_name_H-M   'C 2'
_symmetry_Int_Tables_number      5
_space_group_name_Hall           'C 2y'
loop_
_symmetry_equiv_pos_site_id
_symmetry_equiv_pos_as_xyz
1 x,y,z
2 -x,y,-z
3 1/2+x,1/2+y,z
4 1/2-x,1/2+y,-z
_cell_length_a                   19.101(2)
_cell_length_b                   24.032(2)
_cell_length_c                   32.580(3)
_cell_angle_alpha                90
_cell_angle_beta                 93.763(12)
_cell_angle_gamma                90
_cell_volume                     14923.1
_cell_formula_units_Z            8
loop_
_atom_site_label
_atom_site_type_symbol
_atom_site_fract_x
_atom_site_fract_y
_atom_site_fract_z
C1 C 0.2927(2) 0.7626(2) 0.41120(14)
H1 H 0.3017 0.8028 0.4113
C2 C 0.2562(3) 0.75087(19) 0.44885(14)
H2 H 0.2107 0.7694 0.4503
C3 C 0.2545(2) 0.68902(18) 0.45399(13)
H3 H 0.3016 0.6730 0.4529
C4 C 0.2063(2) 0.66879(19) 0.41819(13)
H4 H 0.1589 0.6836 0.4208
C5 C 0.2348(3) 0.6905(2) 0.37915(15)
H5 H 0.2816 0.6748 0.3762
C6 C 0.1841(2) 0.6717(2) 0.34143(14)
H6 H 0.2036 0.6823 0.3158
H7 H 0.1784 0.6316 0.3416
C7 C 0.5639(2) 0.7783(2) 0.37702(14)
H8 H 0.6021 0.8019 0.3684
C8 C 0.5384(2) 0.7976(2) 0.41770(14)
H9 H 0.5211 0.8358 0.4145
C9 C 0.4784(2) 0.7610(2) 0.42772(14)
H10 H 0.4916 0.7217 0.4309
C10 C 0.4178(2) 0.7703(2) 0.39549(14)
H11 H 0.4045 0.8096 0.3932
C11 C 0.4463(2) 0.7484(2) 0.35628(13)
H12 H 0.4589 0.7090 0.3592
C12 C 0.3910(3) 0.7568(2) 0.32090(16)
H13 H 0.4113 0.7478 0.2952
H14 H 0.3523 0.7314 0.3242
C13 C 0.7561(2) 0.62564(19) 0.35342(15)
H15 H 0.8016 0.6133 0.3445
C14 C 0.7686(2) 0.66250(19) 0.39229(15)
H16 H 0.7935 0.6967 0.3857
C15 C 0.6909(2) 0.6763(2) 0.40455(13)
H17 H 0.6627 0.6434 0.4102
C16 C 0.6602(2) 0.71245(19) 0.36775(14)
H18 H 0.6862 0.7469 0.3633
C17 C 0.6519(2) 0.67616(19) 0.33162(14)
H19 H 0.6200 0.6453 0.3364
C18 C 0.6289(2) 0.70776(19) 0.29098(14)
H20 H 0.6347 0.6835 0.2677
H21 H 0.5796 0.7174 0.2911
C19 C 0.7158(2) 0.40880(19) 0.35639(14)
H22 H 0.7293 0.3702 0.3514
C20 C 0.7669(2) 0.43266(19) 0.39097(14)
H23 H 0.8145 0.4313 0.3814
C21 C 0.7480(2) 0.49225(19) 0.39694(15)
H24 H 0.7014 0.4945 0.4077
C22 C 0.7484(2) 0.52614(19) 0.35572(14)
H25 H 0.7959 0.5300 0.3464
C23 C 0.7007(3) 0.49483(19) 0.32474(14)
H26 H 0.6520 0.4971 0.3325
C24 C 0.7075(2) 0.5231(2) 0.27989(15)
H27 H 0.6886 0.4990 0.2580
H28 H 0.6836 0.5587 0.2779
C25 C 0.4790(3) 0.3034(2) 0.38640(16)
H29 H 0.4523 0.2686 0.3862
C26 C 0.5411(3) 0.3004(2) 0.42170(15)
H30 H 0.5711 0.2690 0.4151
C27 C 0.5844(2) 0.3547(2) 0.41547(14)
H31 H 0.5559 0.3877 0.4204
C28 C 0.6124(2) 0.35751(19) 0.37357(14)
H32 H 0.6440 0.3264 0.3689
C29 C 0.5490(3) 0.3577(2) 0.34235(15)
H33 H 0.5215 0.3918 0.3451
C30 C 0.5649(3) 0.3488(2) 0.29834(15)
H34 H 0.5222 0.3397 0.2820
H35 H 0.5843 0.3826 0.2874
C31 C 0.2229(2) 0.37504(19) 0.41056(14)
H36 H 0.1731 0.3673 0.4135
C32 C 0.2683(2) 0.3495(2) 0.44585(14)
H37 H 0.2580 0.3097 0.4432
C33 C 0.3438(2) 0.3519(2) 0.44238(14)
H38 H 0.3573 0.3912 0.4446
C34 C 0.3613(2) 0.3332(2) 0.40163(14)
H39 H 0.3565 0.2927 0.4000
C35 C 0.3186(2) 0.3594(2) 0.36573(14)
H40 H 0.3307 0.3990 0.3643
C36 C 0.3034(2) 0.33755(19) 0.32242(14)
H41 H 0.2670 0.3591 0.3076
H42 H 0.3452 0.3374 0.3070
C37 C 0.1378(2) 0.5839(2) 0.42466(15)
H43 H 0.1008 0.6117 0.4270
C38 C 0.1449(3) 0.5460(2) 0.46333(15)
H44 H 0.0985 0.5289 0.4641
C39 C 0.1944(3) 0.4965(2) 0.46108(15)
H45 H 0.2417 0.5123 0.4611
C40 C 0.1822(3) 0.46842(19) 0.42159(14)
H46 H 0.1389 0.4465 0.4222
C41 C 0.1767(3) 0.5056(2) 0.38338(15)
H47 H 0.2223 0.5234 0.3808
C42 C 0.1594(3) 0.4715(2) 0.34475(15)
H48 H 0.1576 0.4949 0.3204
H49 H 0.1938 0.4423 0.3418
O1 O 0.31546(16) 0.77128(13) 0.48208(9)
H64 H 0.3532 0.7574 0.4770
O2 O 0.22482(16) 0.67656(13) 0.49347(9)
H65 H 0.1839 0.6870 0.4927
O3 O 0.20568(15) 0.61003(12) 0.42340(9)
O4 O 0.23851(16) 0.75216(13) 0.37622(10)
O5 O 0.12024(16) 0.69722(14) 0.34475(10)
H66 H 0.1257 0.7310 0.3456
O6 O 0.59672(16) 0.79714(13) 0.44848(10)
H67 H 0.6039 0.7652 0.4565
O7 O 0.45400(16) 0.78739(13) 0.46791(9)
H68 H 0.4312 0.7645 0.4801
O8 O 0.36082(15) 0.73587(12) 0.40914(9)
O9 O 0.50377(16) 0.77963(13) 0.34678(10)
O10 O 0.36717(17) 0.80735(14) 0.31894(10)
H69 H 0.3894 0.8255 0.3029
O11 O 0.80439(16) 0.63455(13) 0.42461(10)
H70 H 0.8339 0.6553 0.4358
O12 O 0.70017(17) 0.71680(13) 0.44049(10)
H71 H 0.7079 0.6993 0.4619
O13 O 0.58600(15) 0.72136(12) 0.38107(9)
O14 O 0.72430(17) 0.65506(13) 0.32389(10)
O15 O 0.66665(18) 0.75418(14) 0.28682(10)
H72 H 0.6984 0.7554 0.3050
O16 O 0.76578(17) 0.39971(13) 0.42642(10)
H73 H 0.7333 0.4096 0.4400
O17 O 0.79797(17) 0.51755(14) 0.42532(10)
H74 H 0.7778 0.5384 0.4406
O18 O 0.71753(15) 0.57925(13) 0.36344(9)
O19 O 0.72073(16) 0.43778(13) 0.32068(10)
O20 O 0.77761(17) 0.52940(15) 0.27835(11)
H75 H 0.7945 0.5008 0.2695
O21 O 0.51910(17) 0.29097(13) 0.45998(10)
H76 H 0.5215 0.3199 0.4733
O22 O 0.64451(16) 0.35105(14) 0.44656(10)
H77 H 0.6306 0.3556 0.4696
O23 O 0.64669(15) 0.40845(12) 0.37166(9)
O24 O 0.50690(17) 0.30975(13) 0.34972(10)
O25 O 0.61024(17) 0.30791(15) 0.29674(10)
H78 H 0.6488 0.3203 0.2816
O26 O 0.24784(17) 0.36250(13) 0.48714(10)
H79 H 0.2830 0.3652 0.5028
O27 O 0.38168(17) 0.32474(14) 0.47212(10)
H80 H 0.4235 0.3313 0.4703
O28 O 0.43380(16) 0.34859(12) 0.39500(10)
O29 O 0.24377(16) 0.35423(13) 0.37483(10)
O30 O 0.28197(17) 0.28659(13) 0.32990(10)
H81 H 0.2341 0.2818 0.3196
O31 O 0.14974(17) 0.57876(13) 0.49692(10)
H82 H 0.1903 0.5788 0.5068
O32 O 0.19343(17) 0.46673(13) 0.49459(10)
H83 H 0.2330 0.4551 0.5009
O33 O 0.23716(15) 0.43249(12) 0.41496(9)
O34 O 0.12385(16) 0.55019(13) 0.39077(10)
O35 O 0.09860(18) 0.45090(14) 0.35059(11)
H84 H 0.0804 0.4687 0.3685
C43 C 0.3160(3) 0.7151(2) 0.23800(16)
H50 H 0.3638 0.7172 0.2345
C44 C 0.2678(3) 0.7592(2) 0.23355(16)
H51 H 0.2782 0.7956 0.2266
C45 C 0.2070(3) 0.6817(2) 0.25181(14)
H52 H 0.1713 0.6582 0.2592
C46 C 0.3119(3) 0.6142(2) 0.25676(15)
H53 H 0.3516 0.6108 0.2398
H54 H 0.2788 0.5850 0.2487
C47 C 0.3368(3) 0.6056(2) 0.30079(18)
C48 C 0.4015(3) 0.6287(2) 0.31506(17)
H55 H 0.4278 0.6490 0.2973
C49 C 0.4260(3) 0.6209(2) 0.35587(17)
H56 H 0.4695 0.6349 0.3654
C50 C 0.3849(3) 0.5923(2) 0.38197(15)
C51 C 0.3189(3) 0.5717(2) 0.36701(15)
H57 H 0.2913 0.5527 0.3848
C52 C 0.2950(3) 0.5789(2) 0.32783(17)
H58 H 0.2507 0.5660 0.3188
C53 C 0.4108(3) 0.5852(2) 0.42653(17)
H59 H 0.4497 0.6103 0.4331
H60 H 0.3734 0.5940 0.4442
C54 C 0.5015(3) 0.5130(2) 0.43027(15)
H61 H 0.5387 0.5360 0.4246
C55 C 0.5065(3) 0.4557(2) 0.43747(17)
H62 H 0.5467 0.4339 0.4367
C56 C 0.3922(3) 0.4835(2) 0.44314(16)
H63 H 0.3444 0.4831 0.4472
N1 N 0.2791(2) 0.66688(19) 0.24878(14)
N2 N 0.2002(2) 0.73824(18) 0.24157(14)
N3 N 0.4325(2) 0.53027(19) 0.43293(14)
N4 N 0.4388(2) 0.43704(19) 0.44607(14)
C57 C -0.0612(3) 0.6555(2) 0.12746(14)
H85 H -0.1011 0.6778 0.1354
C58 C -0.0362(2) 0.6826(2) 0.09056(14)
H86 H -0.0209 0.7207 0.0969
C59 C 0.0226(2) 0.6495(2) 0.07476(14)
H87 H 0.0092 0.6103 0.0716
C60 C 0.0825(2) 0.6562(2) 0.10813(14)
H88 H 0.0974 0.6951 0.1114
C61 C 0.0582(2) 0.6314(2) 0.14886(14)
H89 H 0.0448 0.5924 0.1442
C62 C 0.1085(3) 0.6348(2) 0.18655(16)
H90 H 0.0926 0.6137 0.2096
H91 H 0.1559 0.6240 0.1811
C63 C -0.2535(3) 0.50880(19) 0.15010(14)
H92 H -0.2992 0.4959 0.1582
C64 C -0.2627(2) 0.54224(19) 0.11128(15)
H93 H -0.2902 0.5754 0.1172
C65 C -0.1880(2) 0.56183(19) 0.10065(14)
H94 H -0.1582 0.5296 0.0960
C66 C -0.1565(2) 0.5962(2) 0.13466(14)
H95 H -0.1823 0.6309 0.1385
C67 C -0.1499(3) 0.5607(2) 0.17339(16)
H96 H -0.1169 0.5301 0.1698
C68 C -0.1291(2) 0.5929(2) 0.21472(15)
H97 H -0.1358 0.5690 0.2381
H98 H -0.0801 0.6036 0.2155
C69 C -0.2106(2) 0.2881(2) 0.14624(14)
H99 H -0.2247 0.2497 0.1515
C70 C -0.2629(2) 0.31534(18) 0.11209(15)
H100 H -0.3108 0.3161 0.1212
C71 C -0.2357(2) 0.37410(19) 0.10664(15)
H101 H -0.1877 0.3748 0.0978
C72 C -0.2422(3) 0.40227(19) 0.14603(15)
H102 H -0.2910 0.4042 0.1534
C73 C -0.1958(2) 0.37775(19) 0.17914(14)
H103 H -0.1465 0.3823 0.1732
C74 C -0.2096(3) 0.4036(2) 0.22380(15)
H104 H -0.1940 0.3765 0.2444
H105 H -0.1798 0.4361 0.2279
C75 C 0.0229(2) 0.1691(2) 0.11588(14)
H106 H 0.0478 0.1336 0.1145
C76 C -0.0378(2) 0.17775(19) 0.08618(14)
H107 H -0.0710 0.1478 0.0913
C77 C -0.0801(2) 0.2326(2) 0.08807(14)
H108 H -0.0494 0.2645 0.0840
C78 C -0.1081(2) 0.23513(19) 0.13041(14)
H109 H -0.1412 0.2048 0.1345
C79 C -0.0478(2) 0.23312(19) 0.16110(14)
H110 H -0.0186 0.2662 0.1583
C80 C -0.0693(3) 0.2279(2) 0.20782(15)
H111 H -0.0339 0.2438 0.2271
H112 H -0.1143 0.2451 0.2116
C81 C 0.2736(2) 0.25565(18) 0.09239(14)
H113 H 0.3240 0.2505 0.0897
C82 C 0.2344(2) 0.2241(2) 0.05890(14)
H114 H 0.2453 0.1844 0.0618
C83 C 0.1538(2) 0.2329(2) 0.06126(14)
H115 H 0.1405 0.2721 0.0578
C84 C 0.1388(2) 0.21142(19) 0.10283(14)
H116 H 0.1484 0.1714 0.1036
C85 C 0.1833(2) 0.2394(2) 0.13837(14)
H117 H 0.1715 0.2791 0.1385
C86 C 0.1711(3) 0.2161(2) 0.17997(15)
H118 H 0.2018 0.2352 0.2003
H119 H 0.1231 0.2241 0.1861
C87 C 0.3583(3) 0.46438(19) 0.08054(14)
H120 H 0.3945 0.4931 0.0793
C88 C 0.3625(3) 0.4274(2) 0.04248(16)
H121 H 0.4079 0.4084 0.0421
C89 C 0.3030(3) 0.38712(19) 0.04638(14)
H122 H 0.2576 0.4062 0.0444
C90 C 0.3120(3) 0.3517(2) 0.08578(15)
H123 H 0.3570 0.3321 0.0861
C91 C 0.3122(3) 0.3890(2) 0.12265(15)
H124 H 0.2669 0.4080 0.1230
C92 C 0.3324(3) 0.3660(2) 0.16484(16)
H125 H 0.3397 0.3959 0.1846
H126 H 0.2959 0.3417 0.1739
C93 C 0.2086(2) 0.6467(2) 0.09633(15)
H127 H 0.2030 0.6870 0.0998
C94 C 0.2324(2) 0.6355(2) 0.05479(14)
H128 H 0.2778 0.6541 0.0529
C95 C 0.2445(2) 0.57544(19) 0.05173(14)
H129 H 0.1990 0.5568 0.0525
C96 C 0.2918(2) 0.55140(19) 0.08446(14)
H130 H 0.3395 0.5657 0.0823
C97 C 0.2653(2) 0.5678(2) 0.12562(14)
H131 H 0.2214 0.5481 0.1297
C98 C 0.3187(2) 0.5547(2) 0.16116(15)
H132 H 0.2982 0.5637 0.1868
H133 H 0.3282 0.5151 0.1612
O36 O -0.09287(15) 0.68262(13) 0.06038(10)
H148 H -0.0806 0.6678 0.0394
O37 O 0.04676(17) 0.67040(13) 0.03802(10)
H149 H 0.0688 0.6461 0.0268
O38 O 0.14032(15) 0.61995(13) 0.09763(10)
O39 O -0.00493(16) 0.66339(13) 0.16102(9)
O40 O 0.10139(16) 0.69072(13) 0.19137(9)
H150 H 0.1465 0.7066 0.1999
O41 O -0.29642(17) 0.51550(13) 0.07873(10)
H151 H -0.3317 0.5330 0.0710
O42 O -0.19425(17) 0.59704(13) 0.06386(9)
H152 H -0.1923 0.5776 0.0433
O43 O -0.08385(16) 0.60577(13) 0.12366(9)
O44 O -0.22027(16) 0.53802(13) 0.18148(10)
O45 O -0.16920(17) 0.63819(13) 0.21671(11)
H153 H -0.2099 0.6303 0.2095
O46 O -0.25977(16) 0.28253(13) 0.07690(9)
H154 H -0.2267 0.2984 0.0593
O47 O -0.28726(16) 0.39890(13) 0.07569(10)
H155 H -0.2685 0.4036 0.0540
O48 O -0.21108(15) 0.46099(12) 0.13845(10)
O49 O -0.21234(16) 0.32058(12) 0.18325(9)
O50 O -0.27478(17) 0.41864(16) 0.23118(11)
H156 H -0.2737 0.4392 0.2513
O51 O -0.01639(16) 0.16879(14) 0.04512(10)
H157 H 0.0031 0.1968 0.0372
O52 O -0.13762(16) 0.23162(13) 0.05599(9)
H158 H -0.1753 0.2322 0.0667
O53 O -0.14142(16) 0.28922(13) 0.13379(10)
O54 O -0.00614(16) 0.18379(13) 0.15607(9)
O55 O -0.07231(17) 0.17326(13) 0.21102(10)
H159 H -0.1134 0.1632 0.2091
O56 O 0.25371(16) 0.24317(13) 0.01935(9)
H160 H 0.2600 0.2163 0.0045
O57 O 0.12119(16) 0.20022(14) 0.03192(10)
H161 H 0.0793 0.2079 0.0297
O58 O 0.06345(15) 0.22003(12) 0.10903(9)
O59 O 0.25601(16) 0.23440(13) 0.13288(10)
O60 O 0.18235(17) 0.15908(13) 0.18398(10)
H162 H 0.2219 0.1515 0.1773
O61 O 0.35054(17) 0.46103(13) 0.00965(10)
H163 H 0.3086 0.4685 0.0069
O62 O 0.30946(17) 0.34765(13) 0.01130(10)
H164 H 0.3263 0.3640 -0.0078
O63 O 0.25780(16) 0.31237(12) 0.08774(9)
O64 O 0.37268(16) 0.43374(13) 0.11786(10)
O65 O 0.39856(18) 0.33436(14) 0.16069(11)
H165 H 0.4378 0.3566 0.1691
O66 O 0.18698(15) 0.65577(13) 0.02244(9)
H166 H 0.1474 0.6594 0.0305
O67 O 0.27481(16) 0.56062(13) 0.01169(10)
H167 H 0.2442 0.5630 -0.0071
O68 O 0.29197(15) 0.49201(12) 0.08146(9)
O69 O 0.25354(15) 0.62680(13) 0.12750(9)
O70 O 0.38170(16) 0.58329(13) 0.15957(10)
H168 H 0.3763 0.6157 0.1665
C99 C -0.0629(3) 0.5758(2) 0.27023(16)
H134 H -0.0920 0.5450 0.2724
C100 C -0.0815(3) 0.6341(2) 0.27435(14)
H135 H -0.1256 0.6474 0.2800
C101 C 0.0354(3) 0.6316(2) 0.26059(17)
H136 H 0.0807 0.6428 0.2556
C102 C 0.0455(3) 0.5261(2) 0.25505(17)
H137 H 0.0253 0.4964 0.2707
H138 H 0.0946 0.5296 0.2643
C103 C 0.0392(3) 0.5117(2) 0.20964(17)
C104 C -0.0045(3) 0.4707(2) 0.19423(15)
H139 H -0.0314 0.4505 0.2118
C105 C -0.0089(2) 0.4592(2) 0.15301(14)
H140 H -0.0403 0.4323 0.1425
C106 C 0.0333(3) 0.4875(2) 0.12686(15)
C107 C 0.0786(2) 0.5273(2) 0.14229(15)
H141 H 0.1077 0.5460 0.1251
C108 C 0.0808(3) 0.5399(2) 0.18426(16)
H142 H 0.1109 0.5675 0.1949
C109 C 0.0277(3) 0.4733(2) 0.08163(16)
H143 H -0.0209 0.4651 0.0731
H144 H 0.0421 0.5051 0.0660
C110 C 0.1417(3) 0.4265(2) 0.06292(17)
H145 H 0.1700 0.4578 0.0609
C111 C 0.1624(3) 0.3711(2) 0.05661(16)
H146 H 0.2065 0.3591 0.0498
C112 C 0.0463(3) 0.3717(2) 0.07207(16)
H147 H 0.0012 0.3598 0.0768
N5 N 0.0108(2) 0.57572(19) 0.26194(14)
N6 N -0.0219(2) 0.66732(16) 0.26836(12)
N7 N 0.0700(2) 0.42688(17) 0.07295(13)
N8 N 0.1036(2) 0.33720(18) 0.06264(13)
O71 O 0.92132(16) 0.07807(13) 0.00975(10)
O72 O 0.09865(16) 0.07828(13) 0.21027(10)
O73 O 0.58176(16) 0.20139(13) 0.48886(10)
O74 O 0.50762(16) 0.52702(14) 0.15178(10)
O75 O 0.95718(17) 0.64748(14) 0.43190(10)
O76 O 0.46926(17) 0.88833(13) 0.29162(10)
O77 O 0.0000 0.4424(2) 0.5000
O78 O 0.51575(16) 0.39292(13) 0.13879(10)
O79 O 0.40550(17) 0.96322(14) 0.29082(10)
O80 O 0.01261(17) 0.55127(13) 0.45322(10)
O81 O 0.55408(16) 0.52819(14) 0.06974(10)
O82 O 0.50102(17) 0.42937(14) 0.19292(10)
O83 O 0.62848(17) 0.41237(14) 0.18305(10)
O84 O 0.5000 0.46948(19) 0.0000
O85 O 0.32226(17) 0.47834(14) 0.25725(10)
O86 O 0.55639(16) 0.40712(14) 0.04029(10)
loop_
_geom_bond_atom_site_label_1
_geom_bond_atom_site_label_2
_geom_bond_site_symmetry_1
_geom_bond_site_symmetry_2
C1 H1 1_555 1_555
C2 C1 1_555 1_555
H2 C2 1_555 1_555
C3 C2 1_555 1_555
H3 C3 1_555 1_555
C4 C3 1_555 1_555
H4 C4 1_555 1_555
C5 C4 1_555 1_555
H5 C5 1_555 1_555
C6 C5 1_555 1_555
H6 C6 1_555 1_555
H7 C6 1_555 1_555
C7 H8 1_555 1_555
C8 C7 1_555 1_555
H9 C8 1_555 1_555
C9 C8 1_555 1_555
H10 C9 1_555 1_555
C10 C9 1_555 1_555
H11 C10 1_555 1_555
C11 C10 1_555 1_555
H12 C11 1_555 1_555
C12 C11 1_555 1_555
H13 C12 1_555 1_555
H14 C12 1_555 1_555
C13 H15 1_555 1_555
C14 C13 1_555 1_555
H16 C14 1_555 1_555
C15 C14 1_555 1_555
H17 C15 1_555 1_555
C16 C15 1_555 1_555
H18 C16 1_555 1_555
C17 C16 1_555 1_555
H19 C17 1_555 1_555
C18 C17 1_555 1_555
H20 C18 1_555 1_555
H21 C18 1_555 1_555
C19 H22 1_555 1_555
C20 C19 1_555 1_555
H23 C20 1_555 1_555
C21 C20 1_555 1_555
H24 C21 1_555 1_555
C22 C21 1_555 1_555
H25 C22 1_555 1_555
C23 C22 1_555 1_555
H26 C23 1_555 1_555
C24 C23 1_555 1_555
H27 C24 1_555 1_555
H28 C24 1_555 1_555
C25 H29 1_555 1_555
C26 C25 1_555 1_555
H30 C26 1_555 1_555
C27 C26 1_555 1_555
H31 C27 1_555 1_555
C28 C27 1_555 1_555
H32 C28 1_555 1_555
C29 C28 1_555 1_555
H33 C29 1_555 1_555
C30 C29 1_555 1_555
H34 C30 1_555 1_555
H35 C30 1_555 1_555
C31 H36 1_555 1_555
C32 C31 1_555 1_555
H37 C32 1_555 1_555
C33 C32 1_555 1_555
H38 C33 1_555 1_555
C34 C33 1_555 1_555
H39 C34 1_555 1_555
C35 C34 1_555 1_555
H40 C35 1_555 1_555
C36 C35 1_555 1_555
H41 C36 1_555 1_555
H42 C36 1_555 1_555
C37 H43 1_555 1_555
C38 C37 1_555 1_555
H44 C38 1_555 1_555
C39 C38 1_555 1_555
H45 C39 1_555 1_555
C40 C39 1_555 1_555
H46 C40 1_555 1_555
C41 C40 1_555 1_555
H47 C41 1_555 1_555
C42 C41 1_555 1_555
H48 C42 1_555 1_555
H49 C42 1_555 1_555
C43 H50 1_555 1_555
C44 C43 1_555 1_555
H51 C44 1_555 1_555
C45 H52 1_555 1_555
C46 H53 1_555 1_555
H54 C46 1_555 1_555
C47 C46 1_555 1_555
C48 C47 1_555 1_555
H55 C48 1_555 1_555
C49 C48 1_555 1_555
H56 C49 1_555 1_555
C50 C49 1_555 1_555
C51 C50 1_555 1_555
H57 C51 1_555 1_555
C52 C47 1_555 1_555
H58 C52 1_555 1_555
C53 C50 1_555 1_555
H59 C53 1_555 1_555
H60 C53 1_555 1_555
C54 H61 1_555 1_555
C55 C54 1_555 1_555
H62 C55 1_555 1_555
C56 H63 1_555 1_555
N1 C43 1_555 1_555
N2 C44 1_555 1_555
N3 C53 1_555 1_555
N4 C55 1_555 1_555
O1 C2 1_555 1_555
H64 O1 1_555 1_555
O2 C3 1_555 1_555
H65 O2 1_555 1_555
O3 C4 1_555 1_555
O4 C1 1_555 1_555
O5 C6 1_555 1_555
H66 O5 1_555 1_555
O6 C8 1_555 1_555
H67 O6 1_555 1_555
O7 C9 1_555 1_555
H68 O7 1_555 1_555
O8 C1 1_555 1_555
O9 C7 1_555 1_555
O10 C12 1_555 1_555
H69 O10 1_555 1_555
O11 C14 1_555 1_555
H70 O11 1_555 1_555
O12 C15 1_555 1_555
H71 O12 1_555 1_555
O13 C7 1_555 1_555
O14 C13 1_555 1_555
O15 C18 1_555 1_555
H72 O15 1_555 1_555
O16 C20 1_555 1_555
H73 O16 1_555 1_555
O17 C21 1_555 1_555
H74 O17 1_555 1_555
O18 C13 1_555 1_555
O19 C19 1_555 1_555
O20 C24 1_555 1_555
H75 O20 1_555 1_555
O21 C26 1_555 1_555
H76 O21 1_555 1_555
O22 C27 1_555 1_555
H77 O22 1_555 1_555
O23 C19 1_555 1_555
O24 C25 1_555 1_555
O25 C30 1_555 1_555
H78 O25 1_555 1_555
O26 C32 1_555 1_555
H79 O26 1_555 1_555
O27 C33 1_555 1_555
H80 O27 1_555 1_555
O28 C25 1_555 1_555
O29 C31 1_555 1_555
O30 C36 1_555 1_555
H81 O30 1_555 1_555
O31 C38 1_555 1_555
H82 O31 1_555 1_555
O32 C39 1_555 1_555
H83 O32 1_555 1_555
O33 C31 1_555 1_555
O34 C37 1_555 1_555
O35 C42 1_555 1_555
H84 O35 1_555 1_555
C57 H85 1_555 1_555
C58 C57 1_555 1_555
H86 C58 1_555 1_555
C59 C58 1_555 1_555
H87 C59 1_555 1_555
C60 C59 1_555 1_555
H88 C60 1_555 1_555
C61 C60 1_555 1_555
H89 C61 1_555 1_555
C62 C61 1_555 1_555
H90 C62 1_555 1_555
H91 C62 1_555 1_555
C63 H92 1_555 1_555
C64 C63 1_555 1_555
H93 C64 1_555 1_555
C65 C64 1_555 1_555
H94 C65 1_555 1_555
C66 C65 1_555 1_555
H95 C66 1_555 1_555
C67 C66 1_555 1_555
H96 C67 1_555 1_555
C68 C67 1_555 1_555
H97 C68 1_555 1_555
H98 C68 1_555 1_555
C69 H99 1_555 1_555
C70 C69 1_555 1_555
H100 C70 1_555 1_555
C71 C70 1_555 1_555
H101 C71 1_555 1_555
C72 C71 1_555 1_555
H102 C72 1_555 1_555
C73 C72 1_555 1_555
H103 C73 1_555 1_555
C74 C73 1_555 1_555
H104 C74 1_555 1_555
H105 C74 1_555 1_555
C75 H106 1_555 1_555
C76 C75 1_555 1_555
H107 C76 1_555 1_555
C77 C76 1_555 1_555
H108 C77 1_555 1_555
C78 C77 1_555 1_555
H109 C78 1_555 1_555
C79 C78 1_555 1_555
H110 C79 1_555 1_555
C80 C79 1_555 1_555
H111 C80 1_555 1_555
H112 C80 1_555 1_555
C81 H113 1_555 1_555
C82 C81 1_555 1_555
H114 C82 1_555 1_555
C83 C82 1_555 1_555
H115 C83 1_555 1_555
C84 C83 1_555 1_555
H116 C84 1_555 1_555
C85 C84 1_555 1_555
H117 C85 1_555 1_555
C86 C85 1_555 1_555
H118 C86 1_555 1_555
H119 C86 1_555 1_555
C87 H120 1_555 1_555
C88 C87 1_555 1_555
H121 C88 1_555 1_555
C89 C88 1_555 1_555
H122 C89 1_555 1_555
C90 C89 1_555 1_555
H123 C90 1_555 1_555
C91 C90 1_555 1_555
H124 C91 1_555 1_555
C92 C91 1_555 1_555
H125 C92 1_555 1_555
H126 C92 1_555 1_555
C93 H127 1_555 1_555
C94 C93 1_555 1_555
H128 C94 1_555 1_555
C95 C94 1_555 1_555
H129 C95 1_555 1_555
C96 C95 1_555 1_555
H130 C96 1_555 1_555
C97 C96 1_555 1_555
H131 C97 1_555 1_555
C98 C97 1_555 1_555
H132 C98 1_555 1_555
H133 C98 1_555 1_555
C99 H134 1_555 1_555
C100 C99 1_555 1_555
H135 C100 1_555 1_555
C101 H136 1_555 1_555
C102 H137 1_555 1_555
H138 C102 1_555 1_555
C103 C102 1_555 1_555
C104 C103 1_555 1_555
H139 C104 1_555 1_555
C105 C104 1_555 1_555
H140 C105 1_555 1_555
C106 C105 1_555 1_555
C107 C106 1_555 1_555
H141 C107 1_555 1_555
C108 C103 1_555 1_555
H142 C108 1_555 1_555
C109 C106 1_555 1_555
H143 C109 1_555 1_555
H144 C109 1_555 1_555
C110 H145 1_555 1_555
C111 C110 1_555 1_555
H146 C111 1_555 1_555
C112 H147 1_555 1_555
N5 C99 1_555 1_555
N6 C100 1_555 1_555
N7 C109 1_555 1_555
N8 C111 1_555 1_555
O36 C58 1_555 1_555
H148 O36 1_555 1_555
O37 C59 1_555 1_555
H149 O37 1_555 1_555
O38 C60 1_555 1_555
O39 C57 1_555 1_555
O40 C62 1_555 1_555
H150 O40 1_555 1_555
O41 C64 1_555 1_555
H151 O41 1_555 1_555
O42 C65 1_555 1_555
H152 O42 1_555 1_555
O43 C57 1_555 1_555
O44 C63 1_555 1_555
O45 C68 1_555 1_555
H153 O45 1_555 1_555
O46 C70 1_555 1_555
H154 O46 1_555 1_555
O47 C71 1_555 1_555
H155 O47 1_555 1_555
O48 C63 1_555 1_555
O49 C69 1_555 1_555
O50 C74 1_555 1_555
H156 O50 1_555 1_555
O51 C76 1_555 1_555
H157 O51 1_555 1_555
O52 C77 1_555 1_555
H158 O52 1_555 1_555
O53 C69 1_555 1_555
O54 C75 1_555 1_555
O55 C80 1_555 1_555
H159 O55 1_555 1_555
O56 C82 1_555 1_555
H160 O56 1_555 1_555
O57 C83 1_555 1_555
H161 O57 1_555 1_555
O58 C75 1_555 1_555
O59 C81 1_555 1_555
O60 C86 1_555 1_555
H162 O60 1_555 1_555
O61 C88 1_555 1_555
H163 O61 1_555 1_555
O62 C89 1_555 1_555
H164 O62 1_555 1_555
O63 C81 1_555 1_555
O64 C87 1_555 1_555
O65 C92 1_555 1_555
H165 O65 1_555 1_555
O66 C94 1_555 1_555
H166 O66 1_555 1_555
O67 C95 1_555 1_555
H167 O67 1_555 1_555
O68 C87 1_555 1_555
O69 C93 1_555 1_555
O70 C98 1_555 1_555
H168 O70 1_555 1_555
C5 O4 1_555 1_555
C10 O8 1_555 1_555
C11 O9 1_555 1_555
C16 O13 1_555 1_555
C17 O14 1_555 1_555
C22 O18 1_555 1_555
C23 O19 1_555 1_555
C28 O23 1_555 1_555
C29 O24 1_555 1_555
C34 O28 1_555 1_555
C35 O29 1_555 1_555
C37 O3 1_555 1_555
C40 O33 1_555 1_555
C41 O34 1_555 1_555
C45 N2 1_555 1_555
C45 N1 1_555 1_555
C46 N1 1_555 1_555
C51 C52 1_555 1_555
C54 N3 1_555 1_555
C56 N4 1_555 1_555
C56 N3 1_555 1_555
C61 O39 1_555 1_555
C66 O43 1_555 1_555
C67 O44 1_555 1_555
C72 O48 1_555 1_555
C73 O49 1_555 1_555
C78 O53 1_555 1_555
C79 O54 1_555 1_555
C84 O58 1_555 1_555
C85 O59 1_555 1_555
C90 O63 1_555 1_555
C91 O64 1_555 1_555
C93 O38 1_555 1_555
C96 O68 1_555 1_555
C97 O69 1_555 1_555
C101 N6 1_555 1_555
C101 N5 1_555 1_555
C102 N5 1_555 1_555
C107 C108 1_555 1_555
C110 N7 1_555 1_555
C112 N8 1_555 1_555
C112 N7 1_555 1_555

#END
