
#######################################################################
#
#                 Cambridge Crystallographic Data Centre
#                                CCDC 
#
#######################################################################
#
# If this CIF has been generated from an entry in the Cambridge 
# Structural Database, then it will include bibliographic, chemical, 
# crystal, experimental, refinement or atomic coordinate data resulting 
# from the CCDC's data processing and validation procedures.
#
#######################################################################

data_HAJFUW
_chemical_formula_moiety         'C23 H27 N1 O4 S1'
_chemical_name_systematic        
3-((benzyloxy)methyl)-2-((4-methylphenyl)sulfonyl)octahydro-5H-isoindol-5-one
_symmetry_cell_setting           orthorhombic
_symmetry_space_group_name_H-M   'P b c a'
_symmetry_Int_Tables_number      61
_space_group_name_Hall           '-P 2ac 2ab'
loop_
_symmetry_equiv_pos_site_id
_symmetry_equiv_pos_as_xyz
1 x,y,z
2 1/2-x,-y,1/2+z
3 -x,1/2+y,1/2-z
4 1/2+x,1/2-y,-z
5 -x,-y,-z
6 1/2+x,y,1/2-z
7 x,1/2-y,1/2+z
8 1/2-x,1/2+y,z
_cell_length_a                   9.2982(5)
_cell_length_b                   17.6122(11)
_cell_length_c                   25.4699(15)
_cell_angle_alpha                90
_cell_angle_beta                 90
_cell_angle_gamma                90
_cell_volume                     4171
_exptl_crystal_colour            colorless
_exptl_crystal_description       plate
_cell_formula_units_Z            8
loop_
_atom_site_label
_atom_site_type_symbol
_atom_site_fract_x
_atom_site_fract_y
_atom_site_fract_z
S1 S 0.19963(6) 0.73678(4) 0.31231(3)
O1 O 0.19606(19) 0.70477(10) 0.26068(7)
O2 O 0.7670(2) 0.64973(13) 0.50283(9)
O3 O 0.06837(18) 0.74669(11) 0.34126(7)
O4 O 0.2066(2) 0.59102(10) 0.43574(7)
N1 N 0.3033(2) 0.68277(12) 0.34763(8)
C1 C 0.2825(3) 0.82658(14) 0.30769(10)
C2 C 0.2506(3) 0.88227(15) 0.34453(11)
H1 H 0.1823 0.8725 0.3715
C3 C 0.3186(3) 0.95186(15) 0.34178(11)
H2 H 0.2950 0.9902 0.3665
C4 C 0.4212(3) 0.96676(15) 0.30332(11)
C5 C 0.4521(3) 0.91002(16) 0.26707(11)
H3 H 0.5225 0.9192 0.2408
C6 C 0.3830(3) 0.84055(15) 0.26833(10)
H4 H 0.4038 0.8029 0.2427
C7 C 0.4961(4) 1.04215(16) 0.30151(13)
H5 H 0.4456 1.0758 0.2770
H6 H 0.5954 1.0350 0.2897
H7 H 0.4961 1.0649 0.3366
C8 C 0.4421(3) 0.65677(16) 0.32361(11)
H8 H 0.4580 0.6810 0.2890
H9 H 0.4436 0.6009 0.3193
C9 C 0.5556(3) 0.68273(19) 0.36361(12)
H10 H 0.5725 0.7384 0.3589
C10 C 0.4772(3) 0.67053(17) 0.41468(11)
H11 H 0.4661 0.6144 0.4193
C11 C 0.3262(2) 0.70289(15) 0.40414(10)
H12 H 0.3290 0.7594 0.4078
C12 C 0.6991(3) 0.64246(17) 0.36336(11)
H13 H 0.7510 0.6539 0.3304
H14 H 0.6840 0.5869 0.3654
C13 C 0.7890(3) 0.6693(2) 0.41083(13)
H15 H 0.8743 0.6360 0.4141
H16 H 0.8238 0.7214 0.4038
C14 C 0.7104(3) 0.66931(16) 0.46202(12)
C15 C 0.5574(3) 0.69955(17) 0.46210(11)
H17 H 0.5075 0.6830 0.4945
H18 H 0.5590 0.7557 0.4616
C16 C 0.2119(3) 0.67130(15) 0.44004(10)
H19 H 0.2334 0.6857 0.4768
H20 H 0.1172 0.6930 0.4305
C17 C 0.1278(3) 0.55672(17) 0.47773(11)
H21 H 0.1140 0.5021 0.4700
H22 H 0.0317 0.5806 0.4801
C18 C 0.2040(3) 0.56506(15) 0.52964(10)
C19 C 0.3490(3) 0.54691(18) 0.53302(12)
H23 H 0.3967 0.5269 0.5031
C20 C 0.4252(4) 0.55719(19) 0.57870(13)
H24 H 0.5246 0.5450 0.5799
C21 C 0.3576(3) 0.58508(17) 0.62268(13)
H25 H 0.4103 0.5924 0.6542
C22 C 0.2126(3) 0.60241(17) 0.62086(12)
H26 H 0.1654 0.6209 0.6514
C23 C 0.1351(3) 0.59280(16) 0.57405(12)
H27 H 0.0358 0.6052 0.5728
H28? H 0.4281 0.6101 0.3026
H29? H 0.4842 0.6967 0.3010
H30? H 0.4462 0.6208 0.4299
H31? H 0.7293 0.5899 0.3550
H32? H 0.7262 0.6744 0.3330
C24? C 0.529(3) 0.6428(16) 0.3672(10)
H33? H 0.5106 0.5873 0.3721
loop_
_geom_bond_atom_site_label_1
_geom_bond_atom_site_label_2
_geom_bond_site_symmetry_1
_geom_bond_site_symmetry_2
S1 O1 1_555 1_555
O2 C14 1_555 1_555
O3 S1 1_555 1_555
O4 C16 1_555 1_555
N1 S1 1_555 1_555
C1 S1 1_555 1_555
C2 C1 1_555 1_555
H1 C2 1_555 1_555
C3 C2 1_555 1_555
H2 C3 1_555 1_555
C4 C3 1_555 1_555
C5 C4 1_555 1_555
H3 C5 1_555 1_555
C6 C1 1_555 1_555
H4 C6 1_555 1_555
C7 C4 1_555 1_555
H5 C7 1_555 1_555
H6 C7 1_555 1_555
H7 C7 1_555 1_555
C8 N1 1_555 1_555
H8 C8 1_555 1_555
H9 C8 1_555 1_555
C9 C8 1_555 1_555
H10 C9 1_555 1_555
C10 C9 1_555 1_555
H11 C10 1_555 1_555
C11 N1 1_555 1_555
H12 C11 1_555 1_555
C12 C9 1_555 1_555
H13 C12 1_555 1_555
H14 C12 1_555 1_555
C13 C12 1_555 1_555
H15 C13 1_555 1_555
H16 C13 1_555 1_555
C14 C13 1_555 1_555
C15 C10 1_555 1_555
H17 C15 1_555 1_555
H18 C15 1_555 1_555
C16 C11 1_555 1_555
H19 C16 1_555 1_555
H20 C16 1_555 1_555
C17 O4 1_555 1_555
H21 C17 1_555 1_555
H22 C17 1_555 1_555
C18 C17 1_555 1_555
C19 C18 1_555 1_555
H23 C19 1_555 1_555
C20 C19 1_555 1_555
H24 C20 1_555 1_555
C21 C20 1_555 1_555
H25 C21 1_555 1_555
C22 C21 1_555 1_555
H26 C22 1_555 1_555
C23 C18 1_555 1_555
H27 C23 1_555 1_555
C5 C6 1_555 1_555
C10 C11 1_555 1_555
C14 C15 1_555 1_555
C22 C23 1_555 1_555

#END
