
#######################################################################
#
#                 Cambridge Crystallographic Data Centre
#                                CCDC 
#
#######################################################################
#
# If this CIF has been generated from an entry in the Cambridge 
# Structural Database, then it will include bibliographic, chemical, 
# crystal, experimental, refinement or atomic coordinate data resulting 
# from the CCDC's data processing and validation procedures.
#
#######################################################################

data_HAJFIK
_chemical_formula_moiety         'C15 H21 N1 O3 S1'
_chemical_name_systematic        
2-((4-methylphenyl)sulfonyl)octahydro-1H-isoindol-5-ol
_symmetry_cell_setting           monoclinic
_symmetry_space_group_name_H-M   'C 2/c'
_symmetry_Int_Tables_number      15
_space_group_name_Hall           '-C 2yn'
loop_
_symmetry_equiv_pos_site_id
_symmetry_equiv_pos_as_xyz
1 x,y,z
2 -x,y,1/2-z
3 1/2+x,1/2+y,z
4 1/2-x,1/2+y,1/2-z
5 -x,-y,-z
6 x,-y,1/2+z
7 1/2-x,1/2-y,-z
8 1/2+x,1/2-y,1/2+z
_cell_length_a                   18.1147(4)
_cell_length_b                   9.2175(2)
_cell_length_c                   18.0021(4)
_cell_angle_alpha                90
_cell_angle_beta                 102.9091(13)
_cell_angle_gamma                90
_cell_volume                     2929.88
_exptl_crystal_colour            colorless
_exptl_crystal_description       block
_cell_formula_units_Z            8
loop_
_atom_site_label
_atom_site_type_symbol
_atom_site_fract_x
_atom_site_fract_y
_atom_site_fract_z
S1 S 0.36847(2) 1.14387(4) 0.38008(2)
O1 O 0.31044(6) 1.12127(12) 0.42149(6)
O2 O 0.41182(6) 1.27642(11) 0.39084(6)
N1 N 0.42894(7) 1.01323(13) 0.40273(7)
C1 C 0.26524(8) 1.03540(15) 0.25922(9)
H1 H 0.2446 0.9851 0.2960
C2 C 0.32681(8) 1.12884(14) 0.28225(8)
O3 O 0.5568(4) 0.4082(8) 0.4006(3)
H2 H 0.5155 0.3705 0.4040
C3 C 0.23456(8) 1.01689(15) 0.18205(9)
H3 H 0.1928 0.9532 0.1663
C4 C 0.35624(8) 1.20477(15) 0.22850(9)
H4 H 0.3978 1.2691 0.2444
C5 C 0.26389(8) 1.09006(16) 0.12705(9)
C6 C 0.23138(10) 1.06328(19) 0.04375(9)
H5 H 0.2288 0.9586 0.0339
H6 H 0.2638 1.1090 0.0135
H7 H 0.1804 1.1048 0.0295
C7 C 0.32435(8) 1.18566(16) 0.15150(9)
H8 H 0.3439 1.2384 0.1148
C8 C 0.40147(9) 0.86203(15) 0.40675(10)
H9 H 0.3645 0.8344 0.3596
H10 H 0.3785 0.8479 0.4512
C9 C 0.50168(8) 1.01615(16) 0.37707(9)
H11 H 0.5435 1.0535 0.4178
H12 H 0.4974 1.0772 0.3310
C10 C 0.4704(3) 0.6166(4) 0.3950(2)
H13 H 0.4438 0.6032 0.3411
H14 H 0.4423 0.5636 0.4277
C11 C 0.5963(3) 0.8060(5) 0.3706(4)
H15 H 0.6247 0.8270 0.4232
H16 H 0.6216 0.8568 0.3347
C12 C 0.51443(13) 0.8582(2) 0.35969(15)
H17 H 0.4867 0.8363 0.3063
C13 C 0.59517(15) 0.6402(3) 0.35566(16)
H18 H 0.5704 0.6209 0.3018
H19 H 0.6478 0.6035 0.3647
C14 C 0.55236(15) 0.5598(3) 0.40793(17)
H20 H 0.5780 0.5845 0.4616
C15 C 0.47556(14) 0.7779(2) 0.41548(15)
H21 H 0.5064 0.7901 0.4686
H22? H 0.3982 0.8370 0.4594
H23? H 0.3510 0.8488 0.3724
H24? H 0.5371 1.0891 0.4055
H25? H 0.4933 1.0358 0.3218
C16? C 0.5300(3) 0.8625(5) 0.3964(4)
H26? H 0.5500 0.8611 0.4528
C17? C 0.4591(3) 0.7723(5) 0.3819(3)
H27? H 0.4421 0.7645 0.3252
C18? C 0.6074(3) 0.6412(6) 0.3899(4)
H28? H 0.6428 0.5954 0.3623
H29? H 0.6321 0.6421 0.4448
C19? C 0.5361(3) 0.5507(6) 0.3782(4)
H30? H 0.5152 0.5683 0.3227
O4? O 0.5479(8) 0.4110(15) 0.3770(5)
H31? H 0.5071 0.3667 0.3753
C20? C 0.4732(5) 0.6176(8) 0.4108(5)
H32? H 0.4262 0.5597 0.3950
H33? H 0.4880 0.6175 0.4672
C21? C 0.5925(6) 0.7982(9) 0.3621(7)
H34? H 0.6393 0.8563 0.3779
H35? H 0.5770 0.8001 0.3058
loop_
_geom_bond_atom_site_label_1
_geom_bond_atom_site_label_2
_geom_bond_site_symmetry_1
_geom_bond_site_symmetry_2
S1 O1 1_555 1_555
O2 S1 1_555 1_555
N1 S1 1_555 1_555
C1 H1 1_555 1_555
C2 S1 1_555 1_555
O3 H2 1_555 1_555
C3 C1 1_555 1_555
H3 C3 1_555 1_555
C4 C2 1_555 1_555
H4 C4 1_555 1_555
C5 C3 1_555 1_555
C6 C5 1_555 1_555
H5 C6 1_555 1_555
H6 C6 1_555 1_555
H7 C6 1_555 1_555
C7 C4 1_555 1_555
H8 C7 1_555 1_555
C8 N1 1_555 1_555
H9 C8 1_555 1_555
H10 C8 1_555 1_555
C9 N1 1_555 1_555
H11 C9 1_555 1_555
H12 C9 1_555 1_555
C10 H13 1_555 1_555
H14 C10 1_555 1_555
C11 H15 1_555 1_555
H16 C11 1_555 1_555
C12 C9 1_555 1_555
H17 C12 1_555 1_555
C13 C11 1_555 1_555
H18 C13 1_555 1_555
H19 C13 1_555 1_555
C14 O3 1_555 1_555
H20 C14 1_555 1_555
C15 C8 1_555 1_555
H21 C15 1_555 1_555
C1 C2 1_555 1_555
C5 C7 1_555 1_555
C10 C14 1_555 1_555
C10 C15 1_555 1_555
C11 C12 1_555 1_555
C12 C15 1_555 1_555
C13 C14 1_555 1_555

#END
