
#######################################################################
#
#                 Cambridge Crystallographic Data Centre
#                                CCDC 
#
#######################################################################
#
# If this CIF has been generated from an entry in the Cambridge 
# Structural Database, then it will include bibliographic, chemical, 
# crystal, experimental, refinement or atomic coordinate data resulting 
# from the CCDC's data processing and validation procedures.
#
#######################################################################

data_HAJGEG
_chemical_formula_moiety         'C14 H9 Cl2 N3 O3'
_chemical_name_systematic        
N'-(2,6-Dichlorobenzylidene)-4-nitrobenzohydrazide
_symmetry_cell_setting           monoclinic
_symmetry_space_group_name_H-M   'P 21/c'
_symmetry_Int_Tables_number      14
_space_group_name_Hall           '-P 2ybc'
loop_
_symmetry_equiv_pos_site_id
_symmetry_equiv_pos_as_xyz
1 x,y,z
2 -x,1/2+y,1/2-z
3 -x,-y,-z
4 x,1/2-y,1/2+z
_cell_length_a                   10.9601(16)
_cell_length_b                   14.2234(17)
_cell_length_c                   9.1485(12)
_cell_angle_alpha                90
_cell_angle_beta                 92.924(12)
_cell_angle_gamma                90
_cell_volume                     1424.3
_exptl_crystal_colour            red
_exptl_crystal_description       block
_cell_formula_units_Z            4
loop_
_atom_site_label
_atom_site_type_symbol
_atom_site_fract_x
_atom_site_fract_y
_atom_site_fract_z
Cl1 Cl 0.01703(7) 0.61558(5) 0.19786(7)
Cl2 Cl 0.26599(8) 0.40340(5) 0.61081(9)
C1 C 0.2737(2) 0.82064(15) 0.4441(2)
N1 N 0.20316(17) 0.66666(13) 0.42568(19)
N2 N 0.24248(17) 0.74072(12) 0.51188(18)
H1 H 0.2470 0.7363 0.6057
O1 O 0.26328(19) 0.83056(11) 0.31163(16)
C2 C 0.32076(19) 0.89968(15) 0.5385(2)
C3 C 0.4235(2) 0.96357(17) 0.7540(3)
H2 H 0.4629 0.9554 0.8455
C4 C 0.4084(2) 1.05147(17) 0.6959(3)
C5 C 0.3793(2) 0.88694(16) 0.6747(2)
H3 H 0.3890 0.8267 0.7131
C6 C 0.1400(2) 0.50692(16) 0.4045(2)
O2 O 0.5140(2) 1.11931(16) 0.8947(2)
C7 C 0.3082(2) 0.98997(17) 0.4825(3)
H4 H 0.2703 0.9989 0.3903
C8 C 0.1807(2) 0.59025(16) 0.4895(2)
H5 H 0.1899 0.5866 0.5910
N3 N 0.4548(2) 1.13367(18) 0.7807(3)
C9 C 0.0676(2) 0.51058(17) 0.2737(3)
C10 C 0.3510(2) 1.06645(17) 0.5612(3)
H6 H 0.3412 1.1270 0.5240
O3 O 0.4329(3) 1.21098(16) 0.7315(3)
C11 C 0.1383(3) 0.33636(19) 0.3772(3)
H7 H 0.1627 0.2775 0.4120
C12 C 0.1732(2) 0.41706(17) 0.4531(3)
C13 C 0.0323(3) 0.4302(2) 0.1992(3)
H8 H -0.0162 0.4348 0.1131
C14 C 0.0674(3) 0.3444(2) 0.2500(3)
H9 H 0.0432 0.2906 0.1983
loop_
_geom_bond_atom_site_label_1
_geom_bond_atom_site_label_2
_geom_bond_site_symmetry_1
_geom_bond_site_symmetry_2
Cl1 C9 1_555 1_555
Cl2 C12 1_555 1_555
C1 N2 1_555 1_555
N1 N2 1_555 1_555
N2 H1 1_555 1_555
O1 C1 1_555 1_555
C2 C1 1_555 1_555
C3 H2 1_555 1_555
C4 C3 1_555 1_555
C5 C2 1_555 1_555
H3 C5 1_555 1_555
C6 C8 1_555 1_555
O2 N3 1_555 1_555
C7 C2 1_555 1_555
H4 C7 1_555 1_555
C8 N1 1_555 1_555
H5 C8 1_555 1_555
N3 C4 1_555 1_555
C9 C6 1_555 1_555
C10 C4 1_555 1_555
H6 C10 1_555 1_555
O3 N3 1_555 1_555
C11 H7 1_555 1_555
C12 C6 1_555 1_555
C13 C9 1_555 1_555
H8 C13 1_555 1_555
C14 C11 1_555 1_555
H9 C14 1_555 1_555
C3 C5 1_555 1_555
C7 C10 1_555 1_555
C11 C12 1_555 1_555
C13 C14 1_555 1_555

#END
