
#######################################################################
#
#                 Cambridge Crystallographic Data Centre
#                                CCDC 
#
#######################################################################
#
# If this CIF has been generated from an entry in the Cambridge 
# Structural Database, then it will include bibliographic, chemical, 
# crystal, experimental, refinement or atomic coordinate data resulting 
# from the CCDC's data processing and validation procedures.
#
#######################################################################

data_HAJGOR
_chemical_formula_moiety         'C22 H29 N1 O3'
_chemical_name_systematic        
'benzyl 4-cyclohexyl-6-oxooctahydro-2H-isoindole-2-carboxylate'
_symmetry_cell_setting           monoclinic
_symmetry_space_group_name_H-M   'P 21/c'
_symmetry_Int_Tables_number      14
_space_group_name_Hall           '-P 2ybc'
loop_
_symmetry_equiv_pos_site_id
_symmetry_equiv_pos_as_xyz
1 x,y,z
2 -x,1/2+y,1/2-z
3 -x,-y,-z
4 x,1/2-y,1/2+z
_cell_length_a                   6.4374(8)
_cell_length_b                   9.2636(13)
_cell_length_c                   32.837(4)
_cell_angle_alpha                90
_cell_angle_beta                 90.103(5)
_cell_angle_gamma                90
_cell_volume                     1958.18
_exptl_crystal_colour            colorless
_exptl_crystal_description       plate
_cell_formula_units_Z            4
loop_
_atom_site_label
_atom_site_type_symbol
_atom_site_fract_x
_atom_site_fract_y
_atom_site_fract_z
C1 C 0.3740(3) 0.76993(19) 0.59388(5)
H1 H 0.4907 0.7544 0.5768
C2 C 0.3880(3) 0.7382(2) 0.63499(6)
H2 H 0.5137 0.7007 0.6459
C3 C 0.2207(4) 0.7608(2) 0.66011(5)
H3 H 0.2310 0.7403 0.6884
C4 C 0.0380(3) 0.8134(2) 0.64401(5)
H4 H -0.0784 0.8282 0.6613
C5 C 0.0226(3) 0.84495(18) 0.60274(5)
H5 H -0.1041 0.8809 0.5919
C6 C 0.1919(2) 0.82404(16) 0.57748(4)
C7 C 0.1708(3) 0.86551(19) 0.53343(5)
H6 H 0.0328 0.8359 0.5231
H7 H 0.1832 0.9715 0.5305
C8 C 0.3585(2) 0.84795(16) 0.47229(4)
C9 C 0.6558(3) 0.67464(19) 0.47204(5)
H8 H 0.5884 0.5786 0.4727
H9 H 0.6989 0.7018 0.5000
C10 C 0.8380(2) 0.67735(17) 0.44272(5)
H10 H 0.9249 0.7638 0.4492
C11 C 0.9793(3) 0.54664(19) 0.44176(6)
H11 H 1.0634 0.5441 0.4670
H12 H 0.8935 0.4580 0.4409
C12 C 1.1220(3) 0.54863(17) 0.40550(6)
C13 C 1.0362(3) 0.60398(18) 0.36540(5)
H13 H 0.9566 0.5253 0.3522
H14 H 1.1541 0.6282 0.3473
C14 C 0.8948(2) 0.73731(16) 0.36898(5)
H15 H 0.9824 0.8179 0.3798
C15 C 0.7338(2) 0.70304(15) 0.40144(4)
H16 H 0.6605 0.6123 0.3933
C16 C 0.5704(2) 0.81653(16) 0.41123(4)
H17 H 0.6272 0.9153 0.4084
H18 H 0.4470 0.8063 0.3934
C17 C 0.8024(3) 0.78881(18) 0.32832(5)
H19 H 0.7228 0.8788 0.3345
C18 C 0.6495(3) 0.6856(3) 0.30814(5)
H20 H 0.5382 0.6607 0.3277
H21 H 0.7224 0.5954 0.3006
C19 C 0.5526(4) 0.7530(4) 0.26992(6)
H22 H 0.4596 0.6819 0.2567
H23 H 0.4680 0.8378 0.2778
C20 C 0.7190(5) 0.7996(4) 0.23996(6)
H24 H 0.7910 0.7131 0.2293
H25 H 0.6527 0.8496 0.2167
C21 C 0.8767(4) 0.8994(3) 0.25957(6)
H26 H 0.8084 0.9916 0.2669
H27 H 0.9886 0.9208 0.2398
C22 C 0.9705(3) 0.8316(2) 0.29770(5)
H28 H 1.0670 0.9012 0.3106
H29 H 1.0513 0.7449 0.2900
N1 N 0.5198(2) 0.78390(15) 0.45390(4)
O1 O 0.33116(18) 0.79540(12) 0.51042(3)
O2 O 0.25079(19) 0.93983(14) 0.45697(3)
O3 O 1.2984(2) 0.50490(16) 0.40807(5)
loop_
_geom_bond_atom_site_label_1
_geom_bond_atom_site_label_2
_geom_bond_site_symmetry_1
_geom_bond_site_symmetry_2
C1 H1 1_555 1_555
C2 C1 1_555 1_555
H2 C2 1_555 1_555
C3 C2 1_555 1_555
H3 C3 1_555 1_555
C4 C3 1_555 1_555
H4 C4 1_555 1_555
C5 C4 1_555 1_555
H5 C5 1_555 1_555
C6 C1 1_555 1_555
C7 C6 1_555 1_555
H6 C7 1_555 1_555
H7 C7 1_555 1_555
C8 N1 1_555 1_555
C9 H8 1_555 1_555
H9 C9 1_555 1_555
C10 C9 1_555 1_555
H10 C10 1_555 1_555
C11 C10 1_555 1_555
H11 C11 1_555 1_555
H12 C11 1_555 1_555
C12 C11 1_555 1_555
C13 C12 1_555 1_555
H13 C13 1_555 1_555
H14 C13 1_555 1_555
C14 C13 1_555 1_555
H15 C14 1_555 1_555
C15 C10 1_555 1_555
H16 C15 1_555 1_555
C16 C15 1_555 1_555
H17 C16 1_555 1_555
H18 C16 1_555 1_555
C17 C14 1_555 1_555
H19 C17 1_555 1_555
C18 C17 1_555 1_555
H20 C18 1_555 1_555
H21 C18 1_555 1_555
C19 C18 1_555 1_555
H22 C19 1_555 1_555
H23 C19 1_555 1_555
C20 C19 1_555 1_555
H24 C20 1_555 1_555
H25 C20 1_555 1_555
C21 C20 1_555 1_555
H26 C21 1_555 1_555
H27 C21 1_555 1_555
C22 C17 1_555 1_555
H28 C22 1_555 1_555
H29 C22 1_555 1_555
N1 C9 1_555 1_555
O1 C7 1_555 1_555
O2 C8 1_555 1_555
O3 C12 1_555 1_555
C5 C6 1_555 1_555
C8 O1 1_555 1_555
C14 C15 1_555 1_555
C16 N1 1_555 1_555
C21 C22 1_555 1_555

#END
