
#######################################################################
#
#                 Cambridge Crystallographic Data Centre
#                                CCDC 
#
#######################################################################
#
# If this CIF has been generated from an entry in the Cambridge 
# Structural Database, then it will include bibliographic, chemical, 
# crystal, experimental, refinement or atomic coordinate data resulting 
# from the CCDC's data processing and validation procedures.
#
#######################################################################

data_HAJGUX
_chemical_formula_moiety         'C16 H21 N1 O3 S1'
_chemical_name_systematic        
1-methyl-2-((4-methylphenyl)sulfonyl)octahydro-5H-isoindol-5-one
_symmetry_cell_setting           monoclinic
_symmetry_space_group_name_H-M   'P 21/n'
_symmetry_Int_Tables_number      14
_space_group_name_Hall           '-P 2yn'
loop_
_symmetry_equiv_pos_site_id
_symmetry_equiv_pos_as_xyz
1 x,y,z
2 1/2-x,1/2+y,1/2-z
3 -x,-y,-z
4 1/2+x,1/2-y,1/2+z
_cell_length_a                   6.1191(8)
_cell_length_b                   11.5957(14)
_cell_length_c                   21.292(2)
_cell_angle_alpha                90
_cell_angle_beta                 90.255(10)
_cell_angle_gamma                90
_cell_volume                     1510.76
_exptl_crystal_colour            colorless
_exptl_crystal_description       plate
_cell_formula_units_Z            4
loop_
_atom_site_label
_atom_site_type_symbol
_atom_site_fract_x
_atom_site_fract_y
_atom_site_fract_z
S1 S 0.3378(2) 0.37543(10) 0.31210(7)
O1 O 0.7271(8) 0.6331(4) 0.01838(19)
O2 O 0.1097(6) 0.4025(3) 0.30932(19)
O3 O 0.4075(7) 0.2599(3) 0.32761(17)
N1 N 0.4373(8) 0.4035(3) 0.2442(2)
C1 C 0.3959(9) 0.5184(4) 0.2156(2)
H1 H 0.4453 0.5816 0.2435
H2 H 0.2393 0.5292 0.2053
C2 C 0.5348(9) 0.5108(4) 0.1567(3)
H3 H 0.4609 0.4576 0.1263
C3 C 0.5881(11) 0.6229(4) 0.1228(3)
H4 H 0.4534 0.6565 0.1045
H5 H 0.6513 0.6793 0.1527
C4 C 0.7503(10) 0.5967(4) 0.0714(3)
C5 C 0.9495(9) 0.5281(5) 0.0911(3)
H6 H 1.0467 0.5784 0.1164
H7 H 1.0306 0.5048 0.0530
C6 C 0.8950(9) 0.4191(4) 0.1298(2)
H8 H 0.8264 0.3604 0.1023
H9 H 1.0307 0.3860 0.1477
C7 C 0.7408(9) 0.4512(4) 0.1818(2)
H10 H 0.8183 0.5071 0.2099
C8 C 0.6511(9) 0.3538(4) 0.2233(2)
H11 H 0.7490 0.3433 0.2606
C9 C 0.6159(10) 0.2386(4) 0.1914(3)
H12 H 0.5404 0.1862 0.2202
H13 H 0.7576 0.2055 0.1800
H14 H 0.5270 0.2494 0.1535
C10 C 0.4592(8) 0.4698(4) 0.3676(2)
C11 C 0.6683(9) 0.4485(4) 0.3906(2)
H15 H 0.7474 0.3828 0.3767
C12 C 0.7617(10) 0.5238(4) 0.4343(2)
H16 H 0.9052 0.5095 0.4496
C13 C 0.6467(10) 0.6200(4) 0.4557(2)
C14 C 0.4379(10) 0.6398(4) 0.4319(3)
H17 H 0.3572 0.7046 0.4462
C15 C 0.3450(10) 0.5663(4) 0.3875(2)
H18 H 0.2037 0.5822 0.3710
C16 C 0.7519(11) 0.7009(5) 0.5033(3)
H19 H 0.8064 0.6561 0.5391
H20 H 0.6434 0.7569 0.5178
H21 H 0.8739 0.7418 0.4836
loop_
_geom_bond_atom_site_label_1
_geom_bond_atom_site_label_2
_geom_bond_site_symmetry_1
_geom_bond_site_symmetry_2
S1 O2 1_555 1_555
O1 C4 1_555 1_555
O3 S1 1_555 1_555
N1 S1 1_555 1_555
C1 N1 1_555 1_555
H1 C1 1_555 1_555
H2 C1 1_555 1_555
C2 C1 1_555 1_555
H3 C2 1_555 1_555
C3 C2 1_555 1_555
H4 C3 1_555 1_555
H5 C3 1_555 1_555
C4 C3 1_555 1_555
C5 C4 1_555 1_555
H6 C5 1_555 1_555
H7 C5 1_555 1_555
C6 C5 1_555 1_555
H8 C6 1_555 1_555
H9 C6 1_555 1_555
C7 C2 1_555 1_555
H10 C7 1_555 1_555
C8 N1 1_555 1_555
H11 C8 1_555 1_555
C9 C8 1_555 1_555
H12 C9 1_555 1_555
H13 C9 1_555 1_555
H14 C9 1_555 1_555
C10 S1 1_555 1_555
C11 C10 1_555 1_555
H15 C11 1_555 1_555
C12 C11 1_555 1_555
H16 C12 1_555 1_555
C13 C12 1_555 1_555
C14 C13 1_555 1_555
H17 C14 1_555 1_555
C15 C10 1_555 1_555
H18 C15 1_555 1_555
C16 C13 1_555 1_555
H19 C16 1_555 1_555
H20 C16 1_555 1_555
H21 C16 1_555 1_555
C6 C7 1_555 1_555
C7 C8 1_555 1_555
C14 C15 1_555 1_555

#END
