
#######################################################################
#
#                 Cambridge Crystallographic Data Centre
#                                CCDC 
#
#######################################################################
#
# If this CIF has been generated from an entry in the Cambridge 
# Structural Database, then it will include bibliographic, chemical, 
# crystal, experimental, refinement or atomic coordinate data resulting 
# from the CCDC's data processing and validation procedures.
#
#######################################################################

data_HAJHAE
_chemical_formula_moiety         'C16 H19 N1 O3'
_chemical_name_systematic        
'benzyl 5-oxooctahydro-2H-isoindole-2-carboxylate'
_symmetry_cell_setting           monoclinic
_symmetry_space_group_name_H-M   'P 21/c'
_symmetry_Int_Tables_number      14
_space_group_name_Hall           '-P 2ybc'
loop_
_symmetry_equiv_pos_site_id
_symmetry_equiv_pos_as_xyz
1 x,y,z
2 -x,1/2+y,1/2-z
3 -x,-y,-z
4 x,1/2-y,1/2+z
_cell_length_a                   8.7899(4)
_cell_length_b                   11.2965(5)
_cell_length_c                   13.9729(7)
_cell_angle_alpha                90
_cell_angle_beta                 99.078(4)
_cell_angle_gamma                90
_cell_volume                     1370.06
_exptl_crystal_colour            colorless
_exptl_crystal_description       block
_cell_formula_units_Z            4
loop_
_atom_site_label
_atom_site_type_symbol
_atom_site_fract_x
_atom_site_fract_y
_atom_site_fract_z
O1 O 0.64137(17) 0.21213(14) 0.57413(11)
O2 O 0.72631(17) 0.02151(14) 0.58683(11)
N1 N 0.8295(2) 0.16238(16) 0.69365(13)
O3 O 1.1335(2) 0.14845(17) 1.09664(13)
C1 C 0.4127(2) 0.2346(2) 0.32813(16)
H1 H 0.3728 0.1565 0.3195
C2 C 1.0944(2) 0.1098(2) 0.92531(16)
H2 H 1.0905 0.0256 0.9442
H3 H 1.1881 0.1220 0.8954
C3 C 0.7314(2) 0.1230(2) 0.61672(15)
C4 C 0.4987(2) 0.2673(2) 0.41712(16)
C5 C 0.8207(2) 0.27902(19) 0.73945(15)
H4 H 0.7189 0.2914 0.7597
H5 H 0.8402 0.3437 0.6952
C6 C 0.9333(3) 0.0803(2) 0.75372(15)
H6 H 1.0331 0.0730 0.7298
H7 H 0.8864 0.0009 0.7557
C7 C 0.5213(3) 0.1759(2) 0.49654(17)
H8 H 0.4236 0.1649 0.5224
H9 H 0.5494 0.0992 0.4698
C8 C 1.0635(3) 0.3176(2) 0.99789(17)
H10 H 1.1573 0.3589 0.9847
H11 H 1.0365 0.3507 1.0586
C9 C 0.9322(3) 0.3451(2) 0.91527(15)
H12 H 0.8321 0.3275 0.9362
H13 H 0.9339 0.4302 0.8987
C10 C 0.9529(3) 0.1405(2) 0.85314(16)
H14 H 0.8599 0.1223 0.8835
C11 C 0.5560(2) 0.3817(2) 0.42804(16)
H15 H 0.6140 0.4053 0.4882
C12 C 0.4441(3) 0.4289(2) 0.26446(17)
H16 H 0.4258 0.4841 0.2126
C13 C 0.3852(3) 0.3149(2) 0.25239(17)
H17 H 0.3261 0.2921 0.1924
C14 C 0.9490(3) 0.2715(2) 0.82723(16)
H18 H 1.0488 0.2927 0.8057
C15 C 1.1009(3) 0.1876(2) 1.01390(16)
C16 C 0.5296(3) 0.4621(2) 0.35238(18)
H19 H 0.5702 0.5400 0.3607
H20? H 1.0390 0.0361 0.9366
H21? H 1.2010 0.0877 0.9182
H22? H 1.0058 0.0419 0.7159
H23? H 0.8752 0.0187 0.7831
H24? H 0.8442 0.3988 0.9187
H25? H 1.0173 0.3915 0.8952
C17? C 0.885(2) 0.2458(4) 0.8443(4)
H26? H 0.8050 0.1974 0.8701
C18? C 1.017(2) 0.1640(5) 0.8308(7)
H27? H 1.0957 0.2102 0.8017
O4? O 1.225(2) 0.159(2) 1.0616(14)
C19? C 0.985(3) 0.286(2) 1.0135(6)
H28? H 1.0298 0.3480 1.0599
H29? H 0.8928 0.2544 1.0375
loop_
_geom_bond_atom_site_label_1
_geom_bond_atom_site_label_2
_geom_bond_site_symmetry_1
_geom_bond_site_symmetry_2
O1 C3 1_555 1_555
O2 C3 1_555 1_555
N1 C3 1_555 1_555
O3 C15 1_555 1_555
C1 H1 1_555 1_555
C2 H2 1_555 1_555
H3 C2 1_555 1_555
C4 C1 1_555 1_555
C5 N1 1_555 1_555
H4 C5 1_555 1_555
H5 C5 1_555 1_555
C6 N1 1_555 1_555
H6 C6 1_555 1_555
H7 C6 1_555 1_555
C7 O1 1_555 1_555
H8 C7 1_555 1_555
H9 C7 1_555 1_555
C8 H10 1_555 1_555
H11 C8 1_555 1_555
C9 C8 1_555 1_555
H12 C9 1_555 1_555
H13 C9 1_555 1_555
C10 C2 1_555 1_555
H14 C10 1_555 1_555
C11 C4 1_555 1_555
H15 C11 1_555 1_555
C12 H16 1_555 1_555
C13 C1 1_555 1_555
H17 C13 1_555 1_555
C14 C5 1_555 1_555
H18 C14 1_555 1_555
C15 C2 1_555 1_555
C16 C11 1_555 1_555
H19 C16 1_555 1_555
C4 C7 1_555 1_555
C6 C10 1_555 1_555
C8 C15 1_555 1_555
C9 C14 1_555 1_555
C10 C14 1_555 1_555
C12 C13 1_555 1_555
C12 C16 1_555 1_555

#END
