
#######################################################################
#
#                 Cambridge Crystallographic Data Centre
#                                CCDC 
#
#######################################################################
#
# If this CIF has been generated from an entry in the Cambridge 
# Structural Database, then it will include bibliographic, chemical, 
# crystal, experimental, refinement or atomic coordinate data resulting 
# from the CCDC's data processing and validation procedures.
#
#######################################################################

data_HAJJEJ
_chemical_formula_moiety         'C20 H12 S3'
_chemical_name_systematic        2,5-Diphenylbisthieno[2,3-b:3',2'-d]thiophene
_symmetry_cell_setting           monoclinic
_symmetry_space_group_name_H-M   'P 21'
_symmetry_Int_Tables_number      4
_space_group_name_Hall           'P 2yb'
loop_
_symmetry_equiv_pos_site_id
_symmetry_equiv_pos_as_xyz
1 x,y,z
2 -x,1/2+y,-z
_cell_length_a                   11.7534(16)
_cell_length_b                   5.5051(8)
_cell_length_c                   12.7118(18)
_cell_angle_alpha                90
_cell_angle_beta                 103.726(1)
_cell_angle_gamma                90
_cell_volume                     799.01
_exptl_crystal_colour            yellow
_exptl_crystal_description       block
_cell_formula_units_Z            2
loop_
_atom_site_label
_atom_site_type_symbol
_atom_site_fract_x
_atom_site_fract_y
_atom_site_fract_z
C1 C 0.72911(14) 1.0195(3) 0.79989(13)
H1 H 0.7800 0.9134 0.7771
C2 C 0.66910(13) 1.1995(3) 0.73623(13)
C3 C 0.70575(13) 1.0107(3) 0.90468(12)
C4 C 0.62691(14) 1.1866(4) 0.91784(12)
C5 C 0.74383(14) 0.8671(3) 1.00106(13)
C6 C 0.69094(14) 0.9451(3) 1.08128(13)
C7 C 0.82471(14) 0.6740(4) 1.03779(12)
H2 H 0.8673 0.5978 0.9942
C8 C 0.83292(13) 0.6130(3) 1.14315(13)
C9 C 0.66833(13) 1.2545(3) 0.62271(12)
C10 C 0.71902(17) 1.0918(4) 0.56425(14)
H3 H 0.7547 0.9522 0.5980
C11 C 0.7175(2) 1.1333(4) 0.45646(15)
H4 H 0.7522 1.0225 0.4185
C12 C 0.66434(18) 1.3397(5) 0.40523(15)
H5 H 0.6618 1.3665 0.3325
C13 C 0.61565(16) 1.5035(5) 0.46185(16)
H6 H 0.5806 1.6430 0.4275
C14 C 0.61773(16) 1.4645(4) 0.57072(16)
H7 H 0.5852 1.5791 0.6087
C15 C 0.90806(14) 0.4283(3) 1.21003(14)
C16 C 0.93036(16) 0.4357(4) 1.32272(15)
H8 H 0.8978 0.5584 1.3565
C17 C 1.00098(18) 0.2610(5) 1.38472(16)
H9 H 1.0140 0.2666 1.4598
C18 C 1.05176(16) 0.0810(4) 1.33772(18)
H10 H 1.0995 -0.0343 1.3802
C19 C 1.03100(16) 0.0725(4) 1.22532(18)
H11 H 1.0655 -0.0486 1.1924
C20 C 0.95937(15) 0.2430(4) 1.16235(15)
H12 H 0.9452 0.2341 1.0873
S1 S 0.73853(4) 0.78784(9) 1.20045(3)
S2 S 0.58174(4) 1.36653(8) 0.80487(3)
S3 S 0.59509(4) 1.18842(8) 1.04510(3)
loop_
_geom_bond_atom_site_label_1
_geom_bond_atom_site_label_2
_geom_bond_site_symmetry_1
_geom_bond_site_symmetry_2
C1 H1 1_555 1_555
C2 C1 1_555 1_555
C3 C1 1_555 1_555
C4 C3 1_555 1_555
C5 C3 1_555 1_555
C6 C5 1_555 1_555
C7 C5 1_555 1_555
H2 C7 1_555 1_555
C8 C7 1_555 1_555
C9 C2 1_555 1_555
C10 C9 1_555 1_555
H3 C10 1_555 1_555
C11 C10 1_555 1_555
H4 C11 1_555 1_555
C12 C11 1_555 1_555
H5 C12 1_555 1_555
C13 C12 1_555 1_555
H6 C13 1_555 1_555
C14 C9 1_555 1_555
H7 C14 1_555 1_555
C15 C8 1_555 1_555
C16 C15 1_555 1_555
H8 C16 1_555 1_555
C17 C16 1_555 1_555
H9 C17 1_555 1_555
C18 C17 1_555 1_555
H10 C18 1_555 1_555
C19 C18 1_555 1_555
H11 C19 1_555 1_555
C20 C15 1_555 1_555
H12 C20 1_555 1_555
S1 C6 1_555 1_555
S2 C2 1_555 1_555
S3 C4 1_555 1_555
C4 S2 1_555 1_555
C6 S3 1_555 1_555
C8 S1 1_555 1_555
C13 C14 1_555 1_555
C19 C20 1_555 1_555

#END
