
#######################################################################
#
#                 Cambridge Crystallographic Data Centre
#                                CCDC 
#
#######################################################################
#
# If this CIF has been generated from an entry in the Cambridge 
# Structural Database, then it will include bibliographic, chemical, 
# crystal, experimental, refinement or atomic coordinate data resulting 
# from the CCDC's data processing and validation procedures.
#
#######################################################################

data_HAJJIN
_chemical_name_common            2,5-Distyrylbisthieno[2,3-b:3',2'-d]thiophene
_chemical_formula_moiety         'C24 H16 S3'
_chemical_name_systematic        
2,5-bis(2-Phenylvinyl)bisthieno[2,3-b:3',2'-d]thiophene
_symmetry_cell_setting           monoclinic
_symmetry_space_group_name_H-M   'P 21'
_symmetry_Int_Tables_number      4
_space_group_name_Hall           'P 2yb'
loop_
_symmetry_equiv_pos_site_id
_symmetry_equiv_pos_as_xyz
1 x,y,z
2 -x,1/2+y,-z
_cell_length_a                   7.5473(19)
_cell_length_b                   5.8673(15)
_cell_length_c                   21.880(6)
_cell_angle_alpha                90
_cell_angle_beta                 95.380(4)
_cell_angle_gamma                90
_cell_volume                     964.628
_exptl_crystal_colour            colorless
_exptl_crystal_description       block
_cell_formula_units_Z            2
loop_
_atom_site_label
_atom_site_type_symbol
_atom_site_fract_x
_atom_site_fract_y
_atom_site_fract_z
S1 S 0.27747(11) 1.04623(15) 0.36265(4)
S2 S 0.35758(11) 1.23966(15) 0.49680(4)
S3 S 0.34718(11) 1.05136(15) 0.63120(4)
C1 C 0.2296(5) 0.7058(7) 0.13605(16)
H1 H 0.2899 0.8440 0.1399
C2 C 0.1955(5) 0.6079(9) 0.07835(17)
H2 H 0.2311 0.6828 0.0441
C3 C 0.1097(5) 0.4011(9) 0.07136(19)
H3 H 0.0856 0.3370 0.0326
C4 C 0.0597(5) 0.2899(8) 0.12286(19)
H4 H 0.0042 0.1484 0.1188
C5 C 0.0919(5) 0.3887(7) 0.18075(17)
H5 H 0.0574 0.3122 0.2149
C6 C 0.1750(4) 0.6004(6) 0.18827(15)
C7 C 0.2070(4) 0.7166(7) 0.24742(15)
H6 H 0.2771 0.8470 0.2481
C8 C 0.1466(4) 0.6558(6) 0.30043(15)
H7 H 0.0777 0.5243 0.3002
C9 C 0.1782(4) 0.7753(6) 0.35814(15)
C10 C 0.1450(4) 0.6959(6) 0.41498(13)
H8 H 0.0916 0.5562 0.4213
C11 C 0.2015(4) 0.8509(6) 0.46350(15)
C12 C 0.2737(4) 1.0476(6) 0.44164(13)
C13 C 0.2177(4) 0.8525(6) 0.53001(14)
C14 C 0.3004(4) 1.0511(6) 0.55226(13)
C15 C 0.1882(4) 0.6987(6) 0.57870(14)
H9 H 0.1322 0.5583 0.5726
C16 C 0.2510(4) 0.7800(6) 0.63537(15)
C17 C 0.2522(4) 0.6619(6) 0.69386(15)
H10 H 0.1843 0.5298 0.6943
C18 C 0.3406(4) 0.7235(7) 0.74680(15)
H11 H 0.4069 0.8570 0.7463
C19 C 0.3452(4) 0.6048(6) 0.80566(15)
C20 C 0.2655(5) 0.3932(7) 0.81236(18)
H12 H 0.2104 0.3199 0.7780
C21 C 0.2671(5) 0.2894(8) 0.86971(18)
H13 H 0.2132 0.1482 0.8735
C22 C 0.3490(6) 0.3972(10) 0.92066(19)
H14 H 0.3493 0.3292 0.9591
C23 C 0.4299(5) 0.6042(10) 0.91505(17)
H15 H 0.4857 0.6757 0.9496
C24 C 0.4288(5) 0.7071(7) 0.85800(15)
H16 H 0.4850 0.8470 0.8547
loop_
_geom_bond_atom_site_label_1
_geom_bond_atom_site_label_2
_geom_bond_site_symmetry_1
_geom_bond_site_symmetry_2
S1 C9 1_555 1_555
S2 C12 1_555 1_555
S3 C14 1_555 1_555
C1 H1 1_555 1_555
C2 C1 1_555 1_555
H2 C2 1_555 1_555
C3 C2 1_555 1_555
H3 C3 1_555 1_555
C4 C3 1_555 1_555
H4 C4 1_555 1_555
C5 C4 1_555 1_555
H5 C5 1_555 1_555
C6 C1 1_555 1_555
C7 C6 1_555 1_555
H6 C7 1_555 1_555
C8 C7 1_555 1_555
H7 C8 1_555 1_555
C9 C8 1_555 1_555
C10 C9 1_555 1_555
H8 C10 1_555 1_555
C11 C10 1_555 1_555
C12 S1 1_555 1_555
C13 C11 1_555 1_555
C14 S2 1_555 1_555
C15 C13 1_555 1_555
H9 C15 1_555 1_555
C16 S3 1_555 1_555
C17 C16 1_555 1_555
H10 C17 1_555 1_555
C18 C17 1_555 1_555
H11 C18 1_555 1_555
C19 C18 1_555 1_555
C20 C19 1_555 1_555
H12 C20 1_555 1_555
C21 C20 1_555 1_555
H13 C21 1_555 1_555
C22 C21 1_555 1_555
H14 C22 1_555 1_555
C23 C22 1_555 1_555
H15 C23 1_555 1_555
C24 C19 1_555 1_555
H16 C24 1_555 1_555
C5 C6 1_555 1_555
C11 C12 1_555 1_555
C13 C14 1_555 1_555
C15 C16 1_555 1_555
C23 C24 1_555 1_555

#END
