
#######################################################################
#
#                 Cambridge Crystallographic Data Centre
#                                CCDC 
#
#######################################################################
#
# If this CIF has been generated from an entry in the Cambridge 
# Structural Database, then it will include bibliographic, chemical, 
# crystal, experimental, refinement or atomic coordinate data resulting 
# from the CCDC's data processing and validation procedures.
#
#######################################################################

data_HAJNIQ
_chemical_formula_moiety         
'C21 H41 N8 5+,F1 1-,2(Cl1 O4 1-),2(B1 F4 1-),H2 O1'
_chemical_name_systematic        
'1,4,7,10,13,16,21,24-octaazapentacyclo[8.8.8.1^4,7^.1^13,16^.1^21,24^]nonacosa-4(29),16(28),21(27)-triene-1,4,10,16,21-pentium fluoride clathrate diperchlorate bis(tetrafluoroborate) monohydrate'
_symmetry_cell_setting           triclinic
_symmetry_space_group_name_H-M   'P -1'
_symmetry_Int_Tables_number      2
_space_group_name_Hall           '-P 1'
loop_
_symmetry_equiv_pos_site_id
_symmetry_equiv_pos_as_xyz
1 x,y,z
2 -x,-y,-z
_cell_length_a                   18.2470(10)
_cell_length_b                   19.0596(9)
_cell_length_c                   20.7977(11)
_cell_angle_alpha                90.1500(10)
_cell_angle_beta                 91.8500(10)
_cell_angle_gamma                108.6760(10)
_cell_volume                     6847.96
_exptl_crystal_colour            colorless
_exptl_crystal_description       prism
_cell_formula_units_Z            8
loop_
_atom_site_label
_atom_site_type_symbol
_atom_site_fract_x
_atom_site_fract_y
_atom_site_fract_z
F1 F 1.22087(15) 0.74777(13) 0.45251(12)
N1 N 1.3235(2) 0.8710(2) 0.4937(2)
H1 H 1.2883 0.8273 0.4802
N2 N 1.2936(3) 0.7315(3) 0.5830(2)
N3 N 1.2064(3) 0.6294(3) 0.5469(2)
N4 N 1.1195(2) 0.6243(2) 0.4095(2)
H2 H 1.1557 0.6675 0.4228
N5 N 1.3495(3) 0.8012(3) 0.3594(2)
N6 N 1.2646(3) 0.6963(3) 0.3265(2)
N7 N 1.1483(3) 0.8703(3) 0.4678(3)
N8 N 1.0645(3) 0.7676(3) 0.4308(2)
C1 C 1.3720(3) 0.8567(3) 0.5487(3)
H3 H 1.4027 0.9041 0.5675
H4 H 1.4076 0.8335 0.5317
C2 C 1.3277(3) 0.8082(3) 0.6024(3)
H5 H 1.3629 0.8113 0.6391
H6 H 1.2872 0.8271 0.6158
C3 C 1.2214(4) 0.6977(3) 0.5687(3)
H7 H 1.1832 0.7198 0.5733
C4 C 1.2774(4) 0.6087(4) 0.5533(3)
H8 H 1.2871 0.5867 0.5137
H9 H 1.2743 0.5743 0.5882
C5 C 1.3399(3) 0.6830(3) 0.5679(3)
H10 H 1.3731 0.6795 0.6043
H11 H 1.3714 0.7006 0.5309
C6 C 1.1305(3) 0.5792(3) 0.5247(3)
H12 H 1.0910 0.6010 0.5350
H13 H 1.1197 0.5329 0.5477
C7 C 1.1261(3) 0.5632(3) 0.4534(3)
H14 H 1.0818 0.5195 0.4443
H15 H 1.1719 0.5511 0.4424
C8 C 1.3738(3) 0.9048(3) 0.4386(3)
H16 H 1.4166 0.9464 0.4552
H17 H 1.3437 0.9243 0.4085
C9 C 1.4066(3) 0.8535(3) 0.4021(3)
H18 H 1.4490 0.8830 0.3767
H19 H 1.4275 0.8260 0.4327
C10 C 1.3175(3) 0.7306(3) 0.3698(3)
H20 H 1.3312 0.7069 0.4050
C11 C 1.2577(3) 0.7479(3) 0.2765(3)
H21 H 1.2069 0.7541 0.2756
H22 H 1.2673 0.7314 0.2344
C12 C 1.3211(3) 0.8199(3) 0.2977(3)
H23 H 1.3621 0.8339 0.2670
H24 H 1.2999 0.8602 0.3024
C13 C 1.2177(3) 0.6195(3) 0.3266(3)
H25 H 1.2389 0.5938 0.3587
H26 H 1.2198 0.5974 0.2850
C14 C 1.1346(3) 0.6089(3) 0.3409(2)
H27 H 1.1041 0.5582 0.3299
H28 H 1.1163 0.6410 0.3130
C15 C 1.2809(3) 0.9214(3) 0.5184(3)
H29 H 1.3186 0.9691 0.5292
H30 H 1.2561 0.9007 0.5577
C16 C 1.2195(3) 0.9337(3) 0.4721(3)
H31 H 1.2071 0.9770 0.4863
H32 H 1.2406 0.9437 0.4297
C17 C 1.1291(3) 0.8209(4) 0.4222(3)
H33 H 1.1588 0.8231 0.3863
C18 C 1.0316(3) 0.7812(3) 0.4910(3)
H34 H 1.0254 0.7404 0.5204
H35 H 0.9818 0.7883 0.4832
C19 C 1.0902(4) 0.8505(3) 0.5173(3)
H36 H 1.0672 0.8893 0.5233
H37 H 1.1127 0.8415 0.5581
C20 C 1.0324(3) 0.7042(3) 0.3887(3)
H38 H 1.0576 0.7145 0.3478
H39 H 0.9779 0.6973 0.3806
C21 C 1.0407(3) 0.6327(3) 0.4146(3)
H40 H 1.0274 0.6291 0.4595
H41 H 1.0033 0.5916 0.3917
F2 F 0.70430(15) 0.71127(14) 0.74136(12)
N9 N 0.6742(3) 0.5948(2) 0.6689(2)
H42 H 0.6846 0.6362 0.6940
N10 N 0.8492(3) 0.6795(3) 0.7095(3)
N11 N 0.8770(3) 0.7793(4) 0.7702(3)
N12 N 0.7338(3) 0.8306(2) 0.8141(2)
H43 H 0.7220 0.7901 0.7877
N13 N 0.6251(3) 0.7294(3) 0.6207(2)
N14 N 0.6467(3) 0.8267(3) 0.6826(3)
N15 N 0.5971(2) 0.5773(3) 0.8053(2)
N16 N 0.6237(3) 0.6759(3) 0.8675(2)
C22 C 0.7474(4) 0.5908(3) 0.6421(3)
H44 H 0.7631 0.6277 0.6089
H45 H 0.7369 0.5426 0.6216
C23 C 0.8147(4) 0.6025(4) 0.6905(3)
H46 H 0.7964 0.5733 0.7283
H47 H 0.8538 0.5850 0.6718
C24 C 0.8448(3) 0.7083(5) 0.7649(4)
H48 H 0.8199 0.6798 0.7989
C25 C 0.9130(4) 0.8083(4) 0.7098(4)
H49 H 0.9687 0.8299 0.7157
H50 H 0.8921 0.8454 0.6923
C26 C 0.8918(4) 0.7398(4) 0.6664(3)
H51 H 0.8592 0.7445 0.6300
H52 H 0.9377 0.7312 0.6508
C27 C 0.8739(4) 0.8256(4) 0.8237(4)
H53 H 0.9257 0.8589 0.8336
H54 H 0.8573 0.7946 0.8609
C28 C 0.8210(4) 0.8706(3) 0.8131(3)
H55 H 0.8322 0.8945 0.7718
H56 H 0.8339 0.9095 0.8457
C29 C 0.6215(4) 0.5999(3) 0.6126(3)
H57 H 0.5690 0.5868 0.6274
H58 H 0.6223 0.5631 0.5805
C30 C 0.6408(4) 0.6744(4) 0.5802(3)
H59 H 0.6951 0.6912 0.5699
H60 H 0.6105 0.6691 0.5402
C31 C 0.6758(4) 0.7888(4) 0.6457(3)
H61 H 0.7283 0.8025 0.6376
C32 C 0.5623(3) 0.7924(3) 0.6861(3)
H62 H 0.5350 0.8253 0.6703
H63 H 0.5473 0.7780 0.7297
C33 C 0.5475(3) 0.7239(3) 0.6413(3)
H64 H 0.5245 0.6784 0.6643
H65 H 0.5138 0.7260 0.6049
C34 C 0.6903(4) 0.8928(3) 0.7185(3)
H66 H 0.6692 0.9323 0.7083
H67 H 0.7436 0.9084 0.7055
C35 C 0.6885(4) 0.8809(3) 0.7903(3)
H68 H 0.6351 0.8596 0.8023
H69 H 0.7095 0.9287 0.8119
C36 C 0.6368(4) 0.5271(3) 0.7087(3)
H70 H 0.6182 0.4845 0.6799
H71 H 0.6763 0.5189 0.7373
C37 C 0.5711(3) 0.5307(3) 0.7483(3)
H72 H 0.5370 0.5499 0.7222
H73 H 0.5416 0.4811 0.7612
C38 C 0.5909(3) 0.6430(3) 0.8144(3)
H74 H 0.5651 0.6645 0.7851
C39 C 0.6542(4) 0.6270(4) 0.9054(3)
H75 H 0.6274 0.6141 0.9454
H76 H 0.7092 0.6495 0.9150
C40 C 0.6383(4) 0.5590(3) 0.8608(3)
H77 H 0.6863 0.5519 0.8483
H78 H 0.6067 0.5145 0.8814
C41 C 0.6293(3) 0.7510(3) 0.8877(3)
H79 H 0.6135 0.7501 0.9318
H80 H 0.5938 0.7680 0.8611
C42 C 0.7103(4) 0.8050(3) 0.8828(3)
H81 H 0.7468 0.7821 0.9005
H82 H 0.7146 0.8483 0.9091
F3 F -0.23725(14) 0.27308(13) 0.03763(12)
N17 N -0.1048(2) 0.3747(2) 0.0720(2)
H83 H -0.1521 0.3412 0.0621
N18 N -0.2497(3) 0.4272(3) 0.0489(2)
N19 N -0.3604(3) 0.3438(2) 0.0225(2)
N20 N -0.3687(2) 0.1759(2) 0.0050(2)
H84 H -0.3218 0.2096 0.0155
N21 N -0.1206(3) 0.2804(3) -0.0601(2)
N22 N -0.2315(3) 0.1972(3) -0.0897(2)
N23 N -0.1733(3) 0.2419(2) 0.1663(2)
N24 N -0.2838(3) 0.1567(2) 0.1379(2)
C43 C -0.1079(3) 0.4516(3) 0.0618(3)
H85 H -0.1053 0.4618 0.0161
H86 H -0.0625 0.4865 0.0829
C44 C -0.1799(3) 0.4650(3) 0.0870(3)
H87 H -0.1868 0.4484 0.1311
H88 H -0.1722 0.5178 0.0871
C45 C -0.3060(3) 0.3692(3) 0.0666(3)
H89 H -0.3069 0.3480 0.1069
C46 C -0.3452(3) 0.3924(3) -0.0337(3)
H90 H -0.3852 0.4153 -0.0403
H91 H -0.3418 0.3653 -0.0724
C47 C -0.2676(3) 0.4498(3) -0.0152(3)
H92 H -0.2283 0.4485 -0.0451
H93 H -0.2717 0.4993 -0.0141
C48 C -0.4270(3) 0.2793(3) 0.0285(3)
H94 H -0.4732 0.2921 0.0177
H95 H -0.4301 0.2634 0.0728
C49 C -0.4251(3) 0.2156(3) -0.0146(3)
H96 H -0.4766 0.1796 -0.0169
H97 H -0.4132 0.2345 -0.0576
C50 C -0.0451(3) 0.3610(3) 0.0293(3)
H98 H -0.0351 0.3164 0.0439
H99 H 0.0027 0.4018 0.0356
C51 C -0.0651(3) 0.3523(3) -0.0426(3)
H100 H -0.0863 0.3908 -0.0559
H101 H -0.0181 0.3590 -0.0657
C52 C -0.1933(4) 0.2670(4) -0.0787(3)
H102 H -0.2157 0.3042 -0.0837
C53 C -0.1810(3) 0.1534(3) -0.0728(3)
H103 H -0.1815 0.1186 -0.1070
H104 H -0.1967 0.1264 -0.0334
C54 C -0.1008(3) 0.2115(3) -0.0638(3)
H105 H -0.0745 0.2035 -0.0245
H106 H -0.0686 0.2115 -0.1001
C55 C -0.3132(3) 0.1666(3) -0.1051(3)
H107 H -0.3208 0.1321 -0.1410
H108 H -0.3324 0.2063 -0.1188
C56 C -0.3602(3) 0.1271(3) -0.0498(3)
H109 H -0.3364 0.0920 -0.0327
H110 H -0.4115 0.0990 -0.0665
C57 C -0.0831(3) 0.3666(3) 0.1411(3)
H111 H -0.1144 0.3865 0.1680
H112 H -0.0294 0.3964 0.1490
C58 C -0.0928(3) 0.2877(3) 0.1619(3)
H113 H -0.0680 0.2650 0.1313
H114 H -0.0667 0.2892 0.2035
C59 C -0.2109(4) 0.1879(3) 0.1265(3)
H115 H -0.1872 0.1730 0.0925
C60 C -0.3040(3) 0.1922(3) 0.1948(3)
H116 H -0.3217 0.1569 0.2290
H117 H -0.3440 0.2142 0.1840
C61 C -0.2277(3) 0.2517(3) 0.2143(3)
H118 H -0.2326 0.3008 0.2119
H119 H -0.2108 0.2438 0.2576
C62 C -0.3400(3) 0.1003(3) 0.0987(3)
H120 H -0.3672 0.0599 0.1261
H121 H -0.3126 0.0807 0.0677
C63 C -0.3987(3) 0.1276(3) 0.0628(3)
H122 H -0.4187 0.1557 0.0926
H123 H -0.4417 0.0850 0.0483
F4 F 0.75879(15) 0.80334(14) 0.25045(12)
N25 N 0.6974(3) 0.7724(2) 0.3617(2)
H124 H 0.7165 0.7820 0.3216
N26 N 0.6442(3) 0.8838(3) 0.2741(3)
N27 N 0.6931(3) 0.9072(2) 0.1782(3)
N28 N 0.8202(3) 0.8315(3) 0.1380(2)
H125 H 0.8013 0.8222 0.1782
N29 N 0.8846(3) 0.8479(3) 0.3524(3)
N30 N 0.9351(3) 0.8774(3) 0.2580(3)
N31 N 0.6717(3) 0.6379(3) 0.2627(3)
N32 N 0.7262(3) 0.6636(3) 0.1690(3)
C64 C 0.6292(3) 0.8003(4) 0.3668(3)
H126 H 0.5856 0.7667 0.3426
H127 H 0.6153 0.7983 0.4115
C65 C 0.6410(4) 0.8780(4) 0.3431(3)
H128 H 0.5990 0.8943 0.3575
H129 H 0.6889 0.9109 0.3623
C66 C 0.7050(4) 0.9129(3) 0.2405(4)
H130 H 0.7537 0.9362 0.2595
C67 C 0.6098(4) 0.8697(3) 0.1644(3)
H131 H 0.6015 0.8259 0.1376
H132 H 0.5862 0.9027 0.1429
C68 C 0.5773(4) 0.8494(3) 0.2299(3)
H133 H 0.5355 0.8692 0.2373
H134 H 0.5584 0.7960 0.2349
C69 C 0.7524(4) 0.9303(4) 0.1310(3)
H135 H 0.7995 0.9627 0.1517
H136 H 0.7359 0.9585 0.0981
C70 C 0.7701(4) 0.8658(4) 0.0991(3)
H137 H 0.7214 0.8276 0.0884
H138 H 0.7952 0.8829 0.0590
C71 C 0.7601(3) 0.8117(3) 0.4108(3)
H139 H 0.7429 0.7938 0.4531
H140 H 0.7663 0.8642 0.4101
C72 C 0.8385(3) 0.8023(3) 0.4013(3)
H141 H 0.8678 0.8130 0.4419
H142 H 0.8305 0.7508 0.3904
C73 C 0.8984(3) 0.8254(4) 0.2958(4)
H143 H 0.8830 0.7756 0.2838
C74 C 0.9547(3) 0.9497(3) 0.2910(3)
H144 H 0.9312 0.9822 0.2689
H145 H 1.0103 0.9736 0.2945
C75 C 0.9207(3) 0.9287(3) 0.3572(3)
H146 H 0.9609 0.9422 0.3910
H147 H 0.8825 0.9528 0.3659
C76 C 0.9554(3) 0.8675(3) 0.1927(3)
H148 H 0.9541 0.8167 0.1866
H149 H 1.0079 0.8994 0.1861
C77 C 0.9017(3) 0.8849(3) 0.1434(3)
H150 H 0.8988 0.9337 0.1533
H151 H 0.9245 0.8875 0.1017
C78 C 0.6718(3) 0.6890(3) 0.3723(3)
H152 H 0.7176 0.6745 0.3806
H153 H 0.6413 0.6782 0.4105
C79 C 0.6252(3) 0.6423(3) 0.3173(3)
H154 H 0.5998 0.5926 0.3326
H155 H 0.5852 0.6628 0.3031
C80 C 0.6752(3) 0.6724(3) 0.2081(3)
H156 H 0.6438 0.7010 0.1979
C81 C 0.7628(4) 0.6114(4) 0.1979(4)
H157 H 0.8185 0.6342 0.2031
H158 H 0.7519 0.5668 0.1717
C82 C 0.7253(4) 0.5944(4) 0.2630(4)
H159 H 0.6976 0.5419 0.2668
H160 H 0.7636 0.6099 0.2980
C83 C 0.7438(4) 0.6980(4) 0.1073(3)
H161 H 0.7026 0.7171 0.0938
H162 H 0.7452 0.6606 0.0761
C84 C 0.8198(4) 0.7602(4) 0.1075(3)
H163 H 0.8352 0.7698 0.0634
H164 H 0.8587 0.7436 0.1298
Cl1 Cl 0.14690(12) 0.51922(11) 0.16038(10)
O1 O 0.0979(2) 0.49915(18) 0.10706(18)
O2 O 0.1861(2) 0.5937(2) 0.15699(18)
O3 O 0.1991(2) 0.4813(2) 0.16271(18)
O4 O 0.1075(3) 0.5051(2) 0.2133(2)
B2 B 0.1182(4) 0.0893(4) 0.4343(3)
F8 F 0.12710(13) 0.05760(13) 0.48970(11)
F9 F 0.1740(3) 0.1555(3) 0.4361(3)
F10 F 0.0533(3) 0.1029(3) 0.4282(2)
F11 F 0.1315(3) 0.0571(3) 0.3855(3)
F12 F -0.41210(13) 0.27410(12) -0.17510(12)
F13 F -0.3620(3) 0.3856(2) -0.2169(2)
F14 F -0.4893(3) 0.3371(3) -0.2054(3)
F15 F -0.4334(3) 0.2907(2) -0.2758(2)
Cl4 Cl 0.3781(3) 0.0736(3) 0.0242(3)
O13 O 0.37020(15) 0.13540(15) -0.00410(14)
O14 O 0.4226(2) 0.0456(3) -0.0136(2)
O15 O 0.3073(2) 0.02480(17) 0.02900(18)
O16 O 0.4129(3) 0.0940(2) 0.0805(2)
Cl5 Cl 0.9594(3) 0.3748(3) 0.3396(2)
O17 O 0.99510(17) 0.44220(17) 0.36310(14)
O18 O 0.8873(3) 0.3670(3) 0.3195(2)
O19 O 0.9521(3) 0.3259(2) 0.3899(2)
O20 O 0.9992(3) 0.3572(3) 0.2931(2)
B6 B 0.1602(10) 0.9086(8) 0.2625(6)
F24 F 0.21460(18) 0.93410(17) 0.31120(15)
F25 F 0.0910(2) 0.8731(2) 0.3008(2)
F26 F 0.1669(7) 0.8522(7) 0.2259(5)
F27 F 0.1427(7) 0.9542(5) 0.2189(6)
Cl7 Cl 0.4445(10) 0.6153(8) 0.4436(6)
O28 O 0.45360(14) 0.60060(14) 0.50600(14)
O29 O 0.3672(3) 0.5867(3) 0.4226(3)
O30 O 0.4884(3) 0.5888(2) 0.40520(19)
O31 O 0.4649(3) 0.6910(3) 0.4369(3)
B8 B 0.9368(3) 0.0889(3) 0.0688(4)
F35 F 0.8594(2) 0.06080(19) 0.0566(2)
F36 F 0.9530(3) 0.1596(2) 0.0847(2)
F37 F 0.9689(3) 0.0835(3) 0.0150(2)
F38 F 0.9565(4) 0.0534(3) 0.1163(4)
Cl9 Cl 0.3836(3) 0.6544(3) 0.7583(4)
O36 O 0.43540(17) 0.69680(17) 0.80920(14)
O37 O 0.3767(3) 0.7085(3) 0.7172(3)
O38 O 0.4203(3) 0.6137(3) 0.73320(19)
O39 O 0.3197(3) 0.6209(3) 0.7870(2)
Cl10 Cl 0.9755(3) 0.6483(3) 0.2114(2)
O40 O 1.05450(15) 0.67730(15) 0.21530(13)
O41 O 0.9456(3) 0.5808(3) 0.1840(2)
O42 O 0.9309(7) 0.6614(5) 0.2651(7)
O43 O 0.9624(7) 0.7018(7) 0.1647(5)
B11 B 0.8267(9) 0.0930(10) 0.3054(9)
F50 F 0.80340(16) 0.03460(14) 0.34790(13)
F51 F 0.8093(3) 0.1511(3) 0.3354(2)
F52 F 0.9058(4) 0.1088(5) 0.3095(4)
F53 F 0.7968(5) 0.0784(5) 0.2442(5)
B13 B 0.5753(12) 0.5024(10) 0.0930(8)
F64 F 0.53360(16) 0.43120(14) 0.07760(14)
F65 F 0.5240(2) 0.5424(3) 0.0722(2)
F66 F 0.6396(5) 0.5318(5) 0.0628(5)
F67 F 0.5770(5) 0.5161(5) 0.1575(6)
Cl14 Cl 0.1286(12) 0.3154(10) 0.0358(8)
O68 O 0.09950(19) 0.32040(18) 0.09411(17)
O69 O 0.1676(2) 0.25830(19) 0.04360(18)
O70 O 0.1872(8) 0.3815(6) 0.0222(7)
O71 O 0.0771(5) 0.2963(6) -0.0126(6)
Cl15 Cl 0.4116(9) 0.1109(6) 0.4760(7)
O75 O 0.43580(17) 0.07140(16) 0.52398(15)
O76 O 0.4563(2) 0.1835(2) 0.49050(19)
O77 O 0.4317(8) 0.0865(5) 0.4198(5)
O78 O 0.3352(6) 0.0961(6) 0.4935(6)
O93 O 0.5592(6) 0.6894(8) 0.0776(8)
O94 O 1.1402(2) 0.0348(2) 0.0522(2)
O95 O 0.4994(9) 1.1738(9) 0.1712(8)
O96 O 0.4181(13) 0.5228(12) 0.6256(11)
O97 O 0.8373(7) 0.4744(6) 0.2438(5)
B1? B 0.14690(12) 0.51922(11) 0.16038(10)
F5? F 0.0979(2) 0.49915(18) 0.10706(18)
F6? F 0.1861(2) 0.5937(2) 0.15699(18)
F7? F 0.1991(2) 0.4813(2) 0.16271(18)
Cl2? Cl 0.1182(3) 0.0893(2) 0.4343(2)
O5? O 0.12710(13) 0.05760(13) 0.48970(11)
O6? O 0.1740(3) 0.1555(3) 0.4361(3)
O7? O 0.0533(3) 0.1029(3) 0.4282(2)
O8? O 0.1315(3) 0.0571(3) 0.3855(3)
Cl3? Cl -0.4231(4) 0.3230(4) -0.2169(3)
O9? O -0.41210(13) 0.27410(12) -0.17510(12)
O10? O -0.3620(3) 0.3856(2) -0.2169(2)
O11? O -0.4893(3) 0.3371(3) -0.2054(3)
O12? O -0.4334(3) 0.2907(2) -0.2758(2)
B3? B -0.4231(3) 0.3230(3) -0.2169(3)
B4? B 0.3781(3) 0.0736(3) 0.0242(2)
F16? F 0.37020(15) 0.13540(15) -0.00410(14)
F17? F 0.4226(2) 0.0456(3) -0.0136(2)
F18? F 0.3073(2) 0.02480(17) 0.02900(18)
F19? F 0.4129(3) 0.0940(2) 0.0805(2)
B5? B 0.9594(2) 0.3748(2) 0.3396(2)
F20? F 0.99510(17) 0.44220(17) 0.36310(14)
F21? F 0.8873(3) 0.3670(3) 0.3195(2)
F22? F 0.9521(3) 0.3259(2) 0.3899(2)
F23? F 0.9992(3) 0.3572(3) 0.2931(2)
Cl6? Cl 0.1602(2) 0.9086(2) 0.2625(2)
O21? O 0.21460(18) 0.93410(17) 0.31120(15)
O22? O 0.0910(2) 0.8731(2) 0.3008(2)
O23? O 0.1669(7) 0.8522(7) 0.2259(5)
O24? O 0.1427(7) 0.9542(5) 0.2189(6)
O25? O 0.1094(11) 0.8479(9) 0.2727(6)
O26? O 0.2121(9) 0.8998(7) 0.2166(7)
O27? O 0.1372(6) 0.9698(7) 0.2479(5)
F28? F 0.1094(11) 0.8479(9) 0.2727(6)
F29? F 0.2121(9) 0.8998(7) 0.2166(7)
F30? F 0.1372(6) 0.9698(7) 0.2479(5)
B7? B 0.4445(3) 0.6153(3) 0.4436(3)
F31? F 0.45360(14) 0.60060(14) 0.50600(14)
F32? F 0.3672(3) 0.5867(3) 0.4226(3)
F33? F 0.4884(3) 0.5888(2) 0.40520(19)
F34? F 0.4649(3) 0.6910(3) 0.4369(3)
Cl8? Cl 0.9368(3) 0.0889(3) 0.0688(3)
O32? O 0.8594(2) 0.06080(19) 0.0566(2)
O33? O 0.9530(3) 0.1596(2) 0.0847(2)
O34? O 0.9689(3) 0.0835(3) 0.0150(2)
O35? O 0.9565(4) 0.0534(3) 0.1163(4)
B9? B 0.3836(3) 0.6544(3) 0.7583(2)
F39? F 0.43540(17) 0.69680(17) 0.80920(14)
F40? F 0.3767(3) 0.7085(3) 0.7172(3)
F41? F 0.4203(3) 0.6137(3) 0.73320(19)
F42? F 0.3197(3) 0.6209(3) 0.7870(2)
O44? O 0.9662(6) 0.6013(6) 0.2632(5)
O45? O 0.9396(6) 0.6229(6) 0.1566(5)
O46? O 0.9452(7) 0.7011(8) 0.2346(5)
B10? B 0.9755(7) 0.6483(6) 0.2114(7)
F43? F 1.05450(15) 0.67730(15) 0.21530(13)
F44? F 0.9456(3) 0.5808(3) 0.1840(2)
F45? F 0.9309(7) 0.6614(5) 0.2651(7)
F46? F 0.9624(7) 0.7018(7) 0.1647(5)
F47? F 0.9662(6) 0.6013(6) 0.2632(5)
F48? F 0.9396(6) 0.6229(6) 0.1566(5)
F49? F 0.9452(7) 0.7011(8) 0.2346(5)
Cl11? Cl 0.8267(7) 0.0930(6) 0.3054(7)
O47? O 0.80340(16) 0.03460(14) 0.34790(13)
O48? O 0.8093(3) 0.1511(3) 0.3354(2)
O49? O 0.9058(4) 0.1088(5) 0.3095(4)
O50? O 0.7968(5) 0.0784(5) 0.2442(5)
O51? O 0.7467(6) 0.0783(4) 0.2897(4)
O52? O 0.8632(9) 0.0740(7) 0.2595(8)
O53? O 0.8573(10) 0.1634(8) 0.3227(9)
F54? F 0.7467(6) 0.0783(4) 0.2897(4)
F55? F 0.8632(9) 0.0740(7) 0.2595(8)
F56? F 0.8573(10) 0.1634(8) 0.3227(9)
Cl12? Cl 0.8177(9) 0.6148(10) 0.4775(9)
O54? O 0.83580(18) 0.62340(17) 0.41630(14)
O55? O 0.7899(3) 0.6604(3) 0.4917(3)
O56? O 0.8938(9) 0.6181(9) 0.5062(7)
O57? O 0.7759(6) 0.5489(7) 0.5026(6)
O58? O 0.8207(8) 0.6849(5) 0.5089(5)
O59? O 0.7375(7) 0.5734(6) 0.4691(6)
O60? O 0.8462(6) 0.5787(6) 0.5114(5)
B12? B 0.8177(8) 0.6148(6) 0.4775(6)
F57? F 0.83580(18) 0.62340(17) 0.41630(14)
F58? F 0.7899(3) 0.6604(3) 0.4917(3)
F59? F 0.8938(9) 0.6181(9) 0.5062(7)
F60? F 0.7759(6) 0.5489(7) 0.5026(6)
F61? F 0.8207(8) 0.6849(5) 0.5089(5)
F62? F 0.7375(7) 0.5734(6) 0.4691(6)
F63? F 0.8462(6) 0.5787(6) 0.5114(5)
Cl13? Cl 0.5753(8) 0.5024(6) 0.0930(6)
O61? O 0.53360(16) 0.43120(14) 0.07760(14)
O62? O 0.5240(2) 0.5424(3) 0.0722(2)
O63? O 0.6396(5) 0.5318(5) 0.0628(5)
O64? O 0.5770(5) 0.5161(5) 0.1575(6)
O65? O 0.5512(6) 0.5429(6) 0.1343(5)
O66? O 0.6461(10) 0.4915(9) 0.1227(10)
O67? O 0.6009(8) 0.5506(6) 0.0436(7)
F68? F 0.5512(6) 0.5429(6) 0.1343(5)
F69? F 0.6461(10) 0.4915(9) 0.1227(10)
F70? F 0.6009(8) 0.5506(6) 0.0436(7)
O72? O 0.1902(9) 0.2916(6) 0.0333(7)
O73? O 0.1426(8) 0.3818(7) 0.0023(7)
O74? O 0.0653(5) 0.2623(6) -0.0011(5)
B14? B 0.1286(9) 0.3154(6) 0.0358(7)
F71? F 0.09950(19) 0.32040(18) 0.09411(17)
F72? F 0.1676(2) 0.25830(19) 0.04360(18)
F73? F 0.1872(8) 0.3815(6) 0.0222(7)
F74? F 0.0771(5) 0.2963(6) -0.0126(6)
F75? F 0.1902(9) 0.2916(6) 0.0333(7)
F76? F 0.1426(8) 0.3818(7) 0.0023(7)
F77? F 0.0653(5) 0.2623(6) -0.0011(5)
O79? O 0.4684(6) 0.1715(5) 0.4591(7)
O80? O 0.3782(7) 0.0700(7) 0.4232(5)
O81? O 0.3574(6) 0.1424(5) 0.4892(5)
B15? B 0.4116(8) 0.1109(6) 0.4760(6)
F78? F 0.43580(17) 0.07140(16) 0.52398(15)
F79? F 0.4563(2) 0.1835(2) 0.49050(19)
F80? F 0.4317(8) 0.0865(5) 0.4198(5)
F81? F 0.3352(6) 0.0961(6) 0.4935(6)
F82? F 0.4684(6) 0.1715(5) 0.4591(7)
F83? F 0.3782(7) 0.0700(7) 0.4232(5)
F84? F 0.3574(6) 0.1424(5) 0.4892(5)
Cl16? Cl 0.5160(8) 1.0200(6) 0.2642(6)
O82? O 0.5249(4) 1.0900(4) 0.2798(4)
O83? O 0.5645(7) 1.0182(5) 0.3179(6)
O84? O 0.5476(9) 1.0150(9) 0.2091(7)
O85? O 0.4404(8) 0.9944(7) 0.2710(6)
O86? O 0.5873(6) 1.0164(8) 0.2428(7)
O87? O 0.4731(8) 1.0147(11) 0.2048(12)
O88? O 0.4742(14) 0.9528(13) 0.2895(8)
B16? B 0.5160(12) 1.0200(8) 0.2642(10)
F85? F 0.5249(4) 1.0900(4) 0.2798(4)
F86? F 0.5645(7) 1.0182(5) 0.3179(6)
F87? F 0.5476(9) 1.0150(9) 0.2091(7)
F88? F 0.4404(8) 0.9944(7) 0.2710(6)
F89? F 0.5873(6) 1.0164(8) 0.2428(7)
F90? F 0.4731(8) 1.0147(11) 0.2048(12)
F91? F 0.4742(14) 0.9528(13) 0.2895(8)
Cl17? Cl 0.4862(12) 1.0118(8) 0.2345(10)
O89? O 0.4996(4) 1.0842(4) 0.2231(3)
O90? O 0.4909(5) 0.9731(5) 0.1806(5)
O91? O 0.5103(7) 0.9906(6) 0.2898(5)
O92? O 0.4088(9) 0.9935(8) 0.2220(6)
B17? B 0.4862(6) 1.0118(8) 0.2345(8)
F92? F 0.4996(4) 1.0842(4) 0.2231(3)
F93? F 0.4909(5) 0.9731(5) 0.1806(5)
F94? F 0.5103(7) 0.9906(6) 0.2898(5)
F95? F 0.4088(9) 0.9935(8) 0.2220(6)
O98? O 0.8301(6) 0.4923(6) 0.3249(6)
O99? O 1.1307(12) 0.0800(11) 0.0343(11)
loop_
_geom_bond_atom_site_label_1
_geom_bond_atom_site_label_2
_geom_bond_site_symmetry_1
_geom_bond_site_symmetry_2
N1 H1 1_555 1_555
N2 C2 1_555 1_555
N3 C3 1_555 1_555
N4 H2 1_555 1_555
N5 C9 1_555 1_555
N6 C10 1_555 1_555
N7 C16 1_555 1_555
N8 C17 1_555 1_555
C1 N1 1_555 1_555
H3 C1 1_555 1_555
H4 C1 1_555 1_555
C2 C1 1_555 1_555
H5 C2 1_555 1_555
H6 C2 1_555 1_555
C3 N2 1_555 1_555
H7 C3 1_555 1_555
C4 N3 1_555 1_555
H8 C4 1_555 1_555
H9 C4 1_555 1_555
C5 N2 1_555 1_555
H10 C5 1_555 1_555
H11 C5 1_555 1_555
C6 N3 1_555 1_555
H12 C6 1_555 1_555
H13 C6 1_555 1_555
C7 N4 1_555 1_555
H14 C7 1_555 1_555
H15 C7 1_555 1_555
C8 N1 1_555 1_555
H16 C8 1_555 1_555
H17 C8 1_555 1_555
C9 C8 1_555 1_555
H18 C9 1_555 1_555
H19 C9 1_555 1_555
C10 N5 1_555 1_555
H20 C10 1_555 1_555
C11 N6 1_555 1_555
H21 C11 1_555 1_555
H22 C11 1_555 1_555
C12 N5 1_555 1_555
H23 C12 1_555 1_555
H24 C12 1_555 1_555
C13 N6 1_555 1_555
H25 C13 1_555 1_555
H26 C13 1_555 1_555
C14 N4 1_555 1_555
H27 C14 1_555 1_555
H28 C14 1_555 1_555
C15 N1 1_555 1_555
H29 C15 1_555 1_555
H30 C15 1_555 1_555
C16 C15 1_555 1_555
H31 C16 1_555 1_555
H32 C16 1_555 1_555
C17 N7 1_555 1_555
H33 C17 1_555 1_555
C18 N8 1_555 1_555
H34 C18 1_555 1_555
H35 C18 1_555 1_555
C19 N7 1_555 1_555
H36 C19 1_555 1_555
H37 C19 1_555 1_555
C20 N8 1_555 1_555
H38 C20 1_555 1_555
H39 C20 1_555 1_555
C21 N4 1_555 1_555
H40 C21 1_555 1_555
H41 C21 1_555 1_555
N9 H42 1_555 1_555
N10 C23 1_555 1_555
N11 C24 1_555 1_555
N12 H43 1_555 1_555
N13 C30 1_555 1_555
N14 C31 1_555 1_555
N15 C37 1_555 1_555
N16 C38 1_555 1_555
C22 N9 1_555 1_555
H44 C22 1_555 1_555
H45 C22 1_555 1_555
C23 C22 1_555 1_555
H46 C23 1_555 1_555
H47 C23 1_555 1_555
C24 N10 1_555 1_555
H48 C24 1_555 1_555
C25 N11 1_555 1_555
H49 C25 1_555 1_555
H50 C25 1_555 1_555
C26 N10 1_555 1_555
H51 C26 1_555 1_555
H52 C26 1_555 1_555
C27 N11 1_555 1_555
H53 C27 1_555 1_555
H54 C27 1_555 1_555
C28 N12 1_555 1_555
H55 C28 1_555 1_555
H56 C28 1_555 1_555
C29 N9 1_555 1_555
H57 C29 1_555 1_555
H58 C29 1_555 1_555
C30 C29 1_555 1_555
H59 C30 1_555 1_555
H60 C30 1_555 1_555
C31 N13 1_555 1_555
H61 C31 1_555 1_555
C32 N14 1_555 1_555
H62 C32 1_555 1_555
H63 C32 1_555 1_555
C33 N13 1_555 1_555
H64 C33 1_555 1_555
H65 C33 1_555 1_555
C34 N14 1_555 1_555
H66 C34 1_555 1_555
H67 C34 1_555 1_555
C35 N12 1_555 1_555
H68 C35 1_555 1_555
H69 C35 1_555 1_555
C36 N9 1_555 1_555
H70 C36 1_555 1_555
H71 C36 1_555 1_555
C37 C36 1_555 1_555
H72 C37 1_555 1_555
H73 C37 1_555 1_555
C38 N15 1_555 1_555
H74 C38 1_555 1_555
C39 N16 1_555 1_555
H75 C39 1_555 1_555
H76 C39 1_555 1_555
C40 N15 1_555 1_555
H77 C40 1_555 1_555
H78 C40 1_555 1_555
C41 N16 1_555 1_555
H79 C41 1_555 1_555
H80 C41 1_555 1_555
C42 N12 1_555 1_555
H81 C42 1_555 1_555
H82 C42 1_555 1_555
N17 H83 1_555 1_555
N18 C44 1_555 1_555
N19 C45 1_555 1_555
N20 H84 1_555 1_555
N21 C51 1_555 1_555
N22 C52 1_555 1_555
N23 C58 1_555 1_555
N24 C59 1_555 1_555
C43 N17 1_555 1_555
H85 C43 1_555 1_555
H86 C43 1_555 1_555
C44 C43 1_555 1_555
H87 C44 1_555 1_555
H88 C44 1_555 1_555
C45 N18 1_555 1_555
H89 C45 1_555 1_555
C46 N19 1_555 1_555
H90 C46 1_555 1_555
H91 C46 1_555 1_555
C47 N18 1_555 1_555
H92 C47 1_555 1_555
H93 C47 1_555 1_555
C48 N19 1_555 1_555
H94 C48 1_555 1_555
H95 C48 1_555 1_555
C49 N20 1_555 1_555
H96 C49 1_555 1_555
H97 C49 1_555 1_555
C50 N17 1_555 1_555
H98 C50 1_555 1_555
H99 C50 1_555 1_555
C51 C50 1_555 1_555
H100 C51 1_555 1_555
H101 C51 1_555 1_555
C52 N21 1_555 1_555
H102 C52 1_555 1_555
C53 N22 1_555 1_555
H103 C53 1_555 1_555
H104 C53 1_555 1_555
C54 N21 1_555 1_555
H105 C54 1_555 1_555
H106 C54 1_555 1_555
C55 N22 1_555 1_555
H107 C55 1_555 1_555
H108 C55 1_555 1_555
C56 N20 1_555 1_555
H109 C56 1_555 1_555
H110 C56 1_555 1_555
C57 N17 1_555 1_555
H111 C57 1_555 1_555
H112 C57 1_555 1_555
C58 C57 1_555 1_555
H113 C58 1_555 1_555
H114 C58 1_555 1_555
C59 N23 1_555 1_555
H115 C59 1_555 1_555
C60 N24 1_555 1_555
H116 C60 1_555 1_555
H117 C60 1_555 1_555
C61 N23 1_555 1_555
H118 C61 1_555 1_555
H119 C61 1_555 1_555
C62 N24 1_555 1_555
H120 C62 1_555 1_555
H121 C62 1_555 1_555
C63 N20 1_555 1_555
H122 C63 1_555 1_555
H123 C63 1_555 1_555
N25 H124 1_555 1_555
N26 C65 1_555 1_555
N27 C66 1_555 1_555
N28 H125 1_555 1_555
N29 C72 1_555 1_555
N30 C73 1_555 1_555
N31 C79 1_555 1_555
N32 C80 1_555 1_555
C64 N25 1_555 1_555
H126 C64 1_555 1_555
H127 C64 1_555 1_555
C65 C64 1_555 1_555
H128 C65 1_555 1_555
H129 C65 1_555 1_555
C66 N26 1_555 1_555
H130 C66 1_555 1_555
C67 N27 1_555 1_555
H131 C67 1_555 1_555
H132 C67 1_555 1_555
C68 N26 1_555 1_555
H133 C68 1_555 1_555
H134 C68 1_555 1_555
C69 N27 1_555 1_555
H135 C69 1_555 1_555
H136 C69 1_555 1_555
C70 N28 1_555 1_555
H137 C70 1_555 1_555
H138 C70 1_555 1_555
C71 N25 1_555 1_555
H139 C71 1_555 1_555
H140 C71 1_555 1_555
C72 C71 1_555 1_555
H141 C72 1_555 1_555
H142 C72 1_555 1_555
C73 N29 1_555 1_555
H143 C73 1_555 1_555
C74 N30 1_555 1_555
H144 C74 1_555 1_555
H145 C74 1_555 1_555
C75 N29 1_555 1_555
H146 C75 1_555 1_555
H147 C75 1_555 1_555
C76 N30 1_555 1_555
H148 C76 1_555 1_555
H149 C76 1_555 1_555
C77 N28 1_555 1_555
H150 C77 1_555 1_555
H151 C77 1_555 1_555
C78 N25 1_555 1_555
H152 C78 1_555 1_555
H153 C78 1_555 1_555
C79 C78 1_555 1_555
H154 C79 1_555 1_555
H155 C79 1_555 1_555
C80 N31 1_555 1_555
H156 C80 1_555 1_555
C81 N32 1_555 1_555
H157 C81 1_555 1_555
H158 C81 1_555 1_555
C82 N31 1_555 1_555
H159 C82 1_555 1_555
H160 C82 1_555 1_555
C83 N32 1_555 1_555
H161 C83 1_555 1_555
H162 C83 1_555 1_555
C84 N28 1_555 1_555
H163 C84 1_555 1_555
H164 C84 1_555 1_555
Cl1 O1 1_555 1_555
O2 Cl1 1_555 1_555
O3 Cl1 1_555 1_555
O4 Cl1 1_555 1_555
B2 F8 1_555 1_555
F9 B2 1_555 1_555
F10 B2 1_555 1_555
F11 B2 1_555 1_555
Cl4 O13 1_555 1_555
O14 Cl4 1_555 1_555
O15 Cl4 1_555 1_555
O16 Cl4 1_555 1_555
Cl5 O17 1_555 1_555
O18 Cl5 1_555 1_555
O19 Cl5 1_555 1_555
O20 Cl5 1_555 1_555
B6 F24 1_555 1_555
F25 B6 1_555 1_555
F26 B6 1_555 1_555
F27 B6 1_555 1_555
Cl7 O28 1_555 1_555
O29 Cl7 1_555 1_555
O30 Cl7 1_555 1_555
O31 Cl7 1_555 1_555
B8 F35 1_555 1_555
F36 B8 1_555 1_555
F37 B8 1_555 1_555
F38 B8 1_555 1_555
Cl9 O36 1_555 1_555
O37 Cl9 1_555 1_555
O38 Cl9 1_555 1_555
O39 Cl9 1_555 1_555
Cl10 O40 1_555 1_555
O41 Cl10 1_555 1_555
O42 Cl10 1_555 1_555
O43 Cl10 1_555 1_555
B11 F50 1_555 1_555
F51 B11 1_555 1_555
F52 B11 1_555 1_555
F53 B11 1_555 1_555
B13 F64 1_555 1_555
F65 B13 1_555 1_555
F66 B13 1_555 1_555
F67 B13 1_555 1_555
Cl14 O68 1_555 1_555
O69 Cl14 1_555 1_555
O70 Cl14 1_555 1_555
O71 Cl14 1_555 1_555
Cl15 O75 1_555 1_555
O76 Cl15 1_555 1_555
O77 Cl15 1_555 1_555
O78 Cl15 1_555 1_555
C4 C5 1_555 1_555
C6 C7 1_555 1_555
C11 C12 1_555 1_555
C13 C14 1_555 1_555
C18 C19 1_555 1_555
C20 C21 1_555 1_555
C25 C26 1_555 1_555
C27 C28 1_555 1_555
C32 C33 1_555 1_555
C34 C35 1_555 1_555
C39 C40 1_555 1_555
C41 C42 1_555 1_555
C46 C47 1_555 1_555
C48 C49 1_555 1_555
C53 C54 1_555 1_555
C55 C56 1_555 1_555
C60 C61 1_555 1_555
C62 C63 1_555 1_555
C67 C68 1_555 1_555
C69 C70 1_555 1_555
C74 C75 1_555 1_555
C76 C77 1_555 1_555
C81 C82 1_555 1_555
C83 C84 1_555 1_555

#END
