
#######################################################################
#
#                 Cambridge Crystallographic Data Centre
#                                CCDC 
#
#######################################################################
#
# If this CIF has been generated from an entry in the Cambridge 
# Structural Database, then it will include bibliographic, chemical, 
# crystal, experimental, refinement or atomic coordinate data resulting 
# from the CCDC's data processing and validation procedures.
#
#######################################################################

data_HAJXEW
_chemical_formula_moiety         'C6 H18 N3 3+,Cl1 O4 1-,2(Cl1 1-)'
_chemical_name_systematic        
'1,4,7-Triazoniacyclononane perchlorate dichloride'
_symmetry_cell_setting           monoclinic
_symmetry_space_group_name_H-M   'P n'
_symmetry_Int_Tables_number      7
_space_group_name_Hall           'P -2yac'
loop_
_symmetry_equiv_pos_site_id
_symmetry_equiv_pos_as_xyz
1 x,y,z
2 1/2+x,-y,1/2+z
_cell_length_a                   7.1630(2)
_cell_length_b                   8.1670(2)
_cell_length_c                   10.6930(2)
_cell_angle_alpha                90
_cell_angle_beta                 102.4280(10)
_cell_angle_gamma                90
_cell_volume                     610.885
_cell_formula_units_Z            2
loop_
_atom_site_label
_atom_site_type_symbol
_atom_site_fract_x
_atom_site_fract_y
_atom_site_fract_z
Cl1 Cl 0.96533(8) 1.24804(7) 1.12688(6)
O1 O -0.0612(3) 0.8037(3) 1.0001(2)
O2 O 0.1915(3) 0.8434(3) 0.8960(2)
Cl3 Cl 0.07445(8) 0.72419(6) 0.93954(6)
O3 O -0.0263(3) 0.6314(3) 0.83204(19)
O4 O 0.1893(3) 0.6168(3) 1.0301(2)
N1 N 0.6047(3) 1.0393(3) 1.0184(2)
C1 C 0.4606(4) 1.1259(3) 1.0785(3)
H1 H 0.603(4) 0.938(4) 1.045(3)
N2 N 0.5627(3) 1.4174(3) 1.0434(2)
C2 C 0.4007(4) 1.2951(3) 1.0284(3)
H2 H 0.710(4) 1.088(3) 1.046(3)
N3 N 0.7656(3) 1.2767(3) 0.8395(2)
C3 C 0.5853(4) 1.5041(3) 0.9239(3)
H3 H 0.353(4) 1.056(3) 1.068(3)
C4 C 0.6000(4) 1.3967(3) 0.8107(3)
H4 H 0.516(4) 1.126(3) 1.173(3)
C5 C 0.7147(4) 1.0997(3) 0.8119(2)
H5 H 0.337(4) 1.297(3) 0.939(3)
C6 C 0.5594(4) 1.0308(3) 0.8741(3)
H6 H 0.4394 1.0917 0.8411
H7 H 0.5368 0.9150 0.8478
H8 H 0.323(4) 1.331(4) 1.084(3)
H9 H 0.665(4) 1.373(3) 1.074(2)
H10 H 0.547(4) 1.499(4) 1.097(3)
H11 H 0.470(4) 1.570(4) 0.896(3)
H12 H 0.691(4) 1.571(4) 0.951(3)
H13 H 0.486(4) 1.329(3) 0.781(2)
H14 H 0.620(4) 1.468(4) 0.747(3)
H15 H 0.822(5) 1.282(4) 0.922(4)
H16 H 0.846(5) 1.305(5) 0.790(4)
H17 H 0.829(4) 1.041(3) 0.845(2)
H18 H 0.663(4) 1.096(4) 0.722(3)
Cl2 Cl 0.60969(8) 0.74233(7) 1.20174(6)
loop_
_geom_bond_atom_site_label_1
_geom_bond_atom_site_label_2
_geom_bond_site_symmetry_1
_geom_bond_site_symmetry_2
O1 Cl3 1_555 1_555
N1 C1 1_555 1_555
C1 C2 1_555 1_555
H1 N1 1_555 1_555
O2 Cl3 1_555 1_555
N2 C2 1_555 1_555
C2 H5 1_555 1_555
H2 N1 1_555 1_555
Cl3 O3 1_555 1_555
N3 C4 1_555 1_555
C3 N2 1_555 1_555
H3 C1 1_555 1_555
O4 Cl3 1_555 1_555
C4 C3 1_555 1_555
H4 C1 1_555 1_555
C5 N3 1_555 1_555
C6 N1 1_555 1_555
H6 C6 1_555 1_555
H7 C6 1_555 1_555
H8 C2 1_555 1_555
H9 N2 1_555 1_555
H10 N2 1_555 1_555
H11 C3 1_555 1_555
H12 C3 1_555 1_555
H13 C4 1_555 1_555
H14 C4 1_555 1_555
H15 N3 1_555 1_555
H16 N3 1_555 1_555
H17 C5 1_555 1_555
H18 C5 1_555 1_555
C5 C6 1_555 1_555

#END
