
#######################################################################
#
#                 Cambridge Crystallographic Data Centre
#                                CCDC 
#
#######################################################################
#
# If this CIF has been generated from an entry in the Cambridge 
# Structural Database, then it will include bibliographic, chemical, 
# crystal, experimental, refinement or atomic coordinate data resulting 
# from the CCDC's data processing and validation procedures.
#
#######################################################################

data_HAJXOG
_chemical_formula_moiety         'C6 H18 N3 3+,2(H1 O4 S1 1-),Cl1 1-'
_chemical_name_systematic        
'1,4,7-Triazoniacyclononane bis(hydrogen sulfate) chloride'
_symmetry_cell_setting           triclinic
_symmetry_space_group_name_H-M   'P -1'
_symmetry_Int_Tables_number      2
_space_group_name_Hall           '-P 1'
loop_
_symmetry_equiv_pos_site_id
_symmetry_equiv_pos_as_xyz
1 x,y,z
2 -x,-y,-z
_cell_length_a                   7.6356(2)
_cell_length_b                   8.2878(2)
_cell_length_c                   11.3772(4)
_cell_angle_alpha                87.0930(10)
_cell_angle_beta                 80.5560(10)
_cell_angle_gamma                81.1670(10)
_cell_volume                     701.554
_cell_formula_units_Z            2
loop_
_atom_site_label
_atom_site_type_symbol
_atom_site_fract_x
_atom_site_fract_y
_atom_site_fract_z
Cl1 Cl 0.20217(8) -0.22576(7) 0.54257(5)
S1 S -0.63018(8) -0.27660(7) 1.00801(5)
O1 O -0.7706(2) -0.3677(2) 0.99449(16)
O2 O -0.5671(2) -0.30987(19) 1.12226(15)
O3 O -0.4835(2) -0.2913(2) 0.90726(15)
O4 O -0.7096(3) -0.0911(2) 1.01246(18)
H19 H -0.719(5) -0.051(4) 0.945(3)
N1 N -0.1639(3) -0.4711(3) 0.77775(19)
C1 C -0.1774(3) -0.4530(3) 0.6468(2)
H1 H -0.276(4) -0.443(3) 0.823(3)
N2 N -0.4575(3) -0.2447(2) 0.6618(2)
C2 C -0.3666(3) -0.4108(3) 0.6213(2)
H2 H -0.128(4) -0.572(4) 0.788(3)
N3 N -0.1061(3) -0.0854(2) 0.7403(2)
C3 C -0.3595(4) -0.1019(3) 0.6183(2)
H3 H 0.069(4) -0.393(3) 0.760(3)
C4 C -0.2904(4) -0.0204(3) 0.7132(2)
H4 H 0.004(3) -0.439(3) 0.891(2)
C5 C -0.0912(4) -0.2044(3) 0.8446(2)
H5 H -0.007(3) -0.173(3) 0.882(2)
C6 C -0.0279(4) -0.3821(3) 0.8174(3)
H6 H -0.210(4) -0.193(3) 0.897(3)
H7 H -0.024(4) -0.131(3) 0.675(3)
H8 H -0.056(4) 0.004(3) 0.761(2)
H9 H -0.373(4) -0.022(3) 0.792(3)
H10 H -0.277(3) 0.079(3) 0.682(2)
H11 H -0.444(4) -0.015(3) 0.588(2)
H12 H -0.270(4) -0.132(3) 0.556(2)
H13 H -0.568(5) -0.230(4) 0.638(3)
H14 H -0.486(4) -0.246(3) 0.742(3)
H15 H -0.375(4) -0.408(3) 0.535(3)
H16 H -0.441(4) -0.490(3) 0.654(2)
H17 H -0.128(3) -0.562(3) 0.609(2)
H18 H -0.107(4) -0.373(3) 0.610(2)
S2 S 0.21696(8) -0.81652(7) 0.76069(5)
O5 O 0.0244(2) -0.79015(19) 0.75573(16)
O6 O 0.2761(2) -0.98735(19) 0.79391(15)
O7 O 0.3266(2) -0.7611(2) 0.65606(16)
O8 O 0.2316(3) -0.7114(2) 0.86792(16)
H20 H 0.347(6) -0.703(5) 0.865(4)
loop_
_geom_bond_atom_site_label_1
_geom_bond_atom_site_label_2
_geom_bond_site_symmetry_1
_geom_bond_site_symmetry_2
S1 O1 1_555 1_555
N1 C1 1_555 1_555
C1 C2 1_555 1_555
H1 N1 1_555 1_555
S2 O5 1_555 1_555
O2 S1 1_555 1_555
N2 C2 1_555 1_555
C2 H15 1_555 1_555
H2 N1 1_555 1_555
O3 S1 1_555 1_555
N3 C4 1_555 1_555
C3 N2 1_555 1_555
H3 C6 1_555 1_555
O4 S1 1_555 1_555
C4 C3 1_555 1_555
H4 C6 1_555 1_555
C5 N3 1_555 1_555
H5 C5 1_555 1_555
O6 S2 1_555 1_555
C6 N1 1_555 1_555
H6 C5 1_555 1_555
O7 S2 1_555 1_555
H7 N3 1_555 1_555
O8 S2 1_555 1_555
H8 N3 1_555 1_555
H9 C4 1_555 1_555
H10 C4 1_555 1_555
H11 C3 1_555 1_555
H12 C3 1_555 1_555
H13 N2 1_555 1_555
H14 N2 1_555 1_555
H16 C2 1_555 1_555
H17 C1 1_555 1_555
H18 C1 1_555 1_555
H19 O4 1_555 1_555
H20 O8 1_555 1_555
C5 C6 1_555 1_555

#END
