
#######################################################################
#
#                 Cambridge Crystallographic Data Centre
#                                CCDC 
#
#######################################################################
#
# If this CIF has been generated from an entry in the Cambridge 
# Structural Database, then it will include bibliographic, chemical, 
# crystal, experimental, refinement or atomic coordinate data resulting 
# from the CCDC's data processing and validation procedures.
#
#######################################################################

data_HAKDED
_chemical_formula_moiety         'C12 H36 N6 6+,6(H2 O4 P1 1-),2(H3 O4 P1)'
_chemical_name_systematic        
'1,4,7,10,13,16-Hexaazoniacyclooctadecane hexakis(dihydrogen phosphate) phosphoric acid solvate'
_symmetry_cell_setting           monoclinic
_symmetry_space_group_name_H-M   'P 21/n'
_symmetry_Int_Tables_number      14
_space_group_name_Hall           '-P 2yn'
loop_
_symmetry_equiv_pos_site_id
_symmetry_equiv_pos_as_xyz
1 x,y,z
2 1/2+x,1/2-y,1/2+z
3 -x,-y,-z
4 1/2-x,1/2+y,1/2-z
_cell_length_a                   11.5267(2)
_cell_length_b                   14.1193(4)
_cell_length_c                   12.0357(3)
_cell_angle_alpha                90.0
_cell_angle_beta                 103.6260(10)
_cell_angle_gamma                90.0
_cell_volume                     1903.67
_exptl_crystal_colour            colorless
_cell_formula_units_Z            2
loop_
_atom_site_label
_atom_site_type_symbol
_atom_site_fract_x
_atom_site_fract_y
_atom_site_fract_z
P1 P 0.45543(5) 0.15335(5) 0.39617(6)
O1 O 0.47714(15) 0.17747(13) 0.52637(13)
H19 H 0.4707 0.2362 0.5345
O2 O 0.32977(15) 0.19470(14) 0.34277(15)
H20 H 0.3177 0.194 0.2712
O3 O 0.45430(14) 0.04616(13) 0.39131(15)
O4 O 0.55042(15) 0.19643(14) 0.34440(14)
N1 N 0.56340(18) 0.05552(16) 0.7976(2)
C1 C 0.4420(2) 0.0988(2) 0.7876(2)
H1 H 0.435(2) 0.108(2) 0.861(3)
N2 N 0.72993(19) 0.08626(18) 0.62790(18)
C2 C 0.6659(2) 0.1236(2) 0.8085(2)
H2 H 0.438(2) 0.157(2) 0.740(2)
N3 N 0.68359(19) -0.03099(18) 0.39220(18)
C3 C 0.7624(2) 0.0806(2) 0.7568(2)
H3 H 0.582(2) 0.015(2) 0.860(3)
C4 C 0.8146(2) 0.0306(2) 0.5754(2)
H4 H 0.561(2) 0.020(2) 0.739(2)
C5 C 0.7836(2) 0.0349(2) 0.4456(2)
H5 H 0.698(2) 0.1403(19) 0.891(2)
C6 C 0.3425(2) 0.0299(2) 0.7362(2)
H6 H 0.638(2) 0.181(2) 0.767(2)
H7 H 0.780(2) 0.014(2) 0.778(2)
H8 H 0.837(2) 0.1140(19) 0.782(2)
H9 H 0.659(2) 0.063(2) 0.601(2)
H10 H 0.731(3) 0.149(3) 0.608(3)
H11 H 0.815(2) -0.029(2) 0.601(2)
H12 H 0.893(2) 0.0563(19) 0.604(2)
H13 H 0.852(2) 0.0132(18) 0.418(2)
H14 H 0.761(2) 0.099(2) 0.417(2)
H15 H 0.708(3) -0.089(3) 0.419(3)
H16 H 0.616(2) -0.018(2) 0.411(2)
H17 H 0.267(2) 0.053(2) 0.758(2)
H18 H 0.361(2) -0.032(2) 0.764(2)
N3B N 0.31641(19) 0.03099(18) 0.60780(18)
C5B C 0.2164(2) -0.0349(2) 0.5544(2)
C4B C 0.1854(2) -0.0306(2) 0.4246(2)
N2B N 0.27007(19) -0.08626(18) 0.37210(18)
C3B C 0.2376(2) -0.0806(2) 0.2432(2)
C2B C 0.3341(2) -0.1236(2) 0.1915(2)
N1B N 0.43660(18) -0.05552(16) 0.2024(2)
C1B C 0.5580(2) -0.0988(2) 0.2124(2)
H1B H 0.565(2) -0.108(2) 0.139(3)
H2B H 0.562(2) -0.157(2) 0.260(2)
C6B C 0.6575(2) -0.0299(2) 0.2638(2)
H17B H 0.733(2) -0.053(2) 0.242(2)
H18B H 0.639(2) 0.032(2) 0.236(2)
H3B H 0.418(2) -0.015(2) 0.140(3)
H4B H 0.439(2) -0.020(2) 0.261(2)
H5B H 0.302(2) -0.1403(19) 0.109(2)
H6B H 0.362(2) -0.181(2) 0.233(2)
H7B H 0.220(2) -0.014(2) 0.222(2)
H8B H 0.163(2) -0.1140(19) 0.218(2)
H9B H 0.341(2) -0.063(2) 0.399(2)
H10B H 0.269(3) -0.149(3) 0.392(3)
H11B H 0.185(2) 0.029(2) 0.399(2)
H12B H 0.107(2) -0.0563(19) 0.396(2)
H13B H 0.148(2) -0.0132(18) 0.582(2)
H14B H 0.239(2) -0.099(2) 0.583(2)
H15B H 0.292(3) 0.089(3) 0.581(3)
H16B H 0.384(2) 0.018(2) 0.589(2)
P2 P 0.75567(5) 0.34784(5) 0.53171(6)
O5 O 0.64559(14) 0.41777(13) 0.50800(16)
H21 H 0.5905 0.3944 0.5341
O6 O 0.86758(14) 0.40705(13) 0.55248(15)
O7 O 0.74981(15) 0.29290(14) 0.41732(15)
H22 H 0.6863 0.2613 0.4002
O8 O 0.74618(14) 0.28031(13) 0.62624(14)
P3 P 0.94269(5) 0.11645(5) 0.18189(5)
O9 O 0.96166(14) 0.14545(13) 0.06630(14)
O10 O 0.95046(15) 0.00565(13) 0.19493(15)
H23 H 0.9107 -0.0198 0.1349
O11 O 0.81593(15) 0.14226(14) 0.19392(16)
H24 H 0.795 0.1941 0.1609
O12 O 1.03709(15) 0.15736(14) 0.27889(15)
P4 P 0.91742(5) -0.21729(5) 0.42878(6)
O13 O 0.97805(16) -0.15085(15) 0.52339(15)
H25 H 0.9587 -0.1655 0.5842
O14 O 0.78437(15) -0.20502(13) 0.39324(15)
O15 O 0.93890(15) -0.32395(13) 0.46053(16)
H26 H 1.0067 -0.3401 0.4527
O16 O 0.98158(16) -0.19359(14) 0.33171(15)
H27 H 0.9637 -0.2345 0.2798
loop_
_geom_bond_atom_site_label_1
_geom_bond_atom_site_label_2
_geom_bond_site_symmetry_1
_geom_bond_site_symmetry_2
P1 O1 1_555 1_555
N1 C1 1_555 1_555
C1 H1 1_555 1_555
P2 O5 1_555 1_555
N2 C3 1_555 1_555
C2 N1 1_555 1_555
H2 C1 1_555 1_555
P3 O9 1_555 1_555
N3 C5 1_555 1_555
C3 C2 1_555 1_555
H3 N1 1_555 1_555
P4 O13 1_555 1_555
C4 N2 1_555 1_555
H4 N1 1_555 1_555
C5 C4 1_555 1_555
H5 C2 1_555 1_555
C6 C1 1_555 1_555
H6 C2 1_555 1_555
H7 C3 1_555 1_555
H8 C3 1_555 1_555
H9 N2 1_555 1_555
H10 N2 1_555 1_555
H11 C4 1_555 1_555
H12 C4 1_555 1_555
H13 C5 1_555 1_555
H14 C5 1_555 1_555
H15 N3 1_555 1_555
H16 N3 1_555 1_555
H17 C6 1_555 1_555
H18 C6 1_555 1_555
O1 H19 1_555 1_555
O2 P1 1_555 1_555
H20 O2 1_555 1_555
O3 P1 1_555 1_555
O4 P1 1_555 1_555
O5 H21 1_555 1_555
O6 P2 1_555 1_555
O7 P2 1_555 1_555
H22 O7 1_555 1_555
O8 P2 1_555 1_555
O10 P3 1_555 1_555
H23 O10 1_555 1_555
O11 P3 1_555 1_555
H24 O11 1_555 1_555
O12 P3 1_555 1_555
O13 H25 1_555 1_555
O14 P4 1_555 1_555
O15 P4 1_555 1_555
H26 O15 1_555 1_555
O16 P4 1_555 1_555
H27 O16 1_555 1_555
N3B C6 1_555 1_555
C5B N3B 1_555 1_555
C4B C5B 1_555 1_555
N2B C4B 1_555 1_555
C3B N2B 1_555 1_555
C2B C3B 1_555 1_555
N1B C2B 1_555 1_555
C1B N1B 1_555 1_555
H1B C1B 1_555 1_555
H2B C1B 1_555 1_555
C6B N3 1_555 1_555
H17B C6B 1_555 1_555
H18B C6B 1_555 1_555
H3B N1B 1_555 1_555
H4B N1B 1_555 1_555
H5B C2B 1_555 1_555
H6B C2B 1_555 1_555
H7B C3B 1_555 1_555
H8B C3B 1_555 1_555
H9B N2B 1_555 1_555
H10B N2B 1_555 1_555
H11B C4B 1_555 1_555
H12B C4B 1_555 1_555
H13B C5B 1_555 1_555
H14B C5B 1_555 1_555
H15B N3B 1_555 1_555
H16B N3B 1_555 1_555
C1B C6B 1_555 1_555

#END
