
#######################################################################
#
#                 Cambridge Crystallographic Data Centre
#                                CCDC 
#
#######################################################################
#
# If this CIF has been generated from an entry in the Cambridge 
# Structural Database, then it will include bibliographic, chemical, 
# crystal, experimental, refinement or atomic coordinate data resulting 
# from the CCDC's data processing and validation procedures.
#
#######################################################################

data_HAKDAA
_chemical_formula_moiety         'C10 H16 N1 1+,H2 O4 P1 1-'
_chemical_name_systematic        '4-Phenylbutylammonium dihydrogen phosphate'
_symmetry_cell_setting           orthorhombic
_symmetry_space_group_name_H-M   'A b a 2'
_symmetry_Int_Tables_number      41
_space_group_name_Hall           'A 2 -2ab'
loop_
_symmetry_equiv_pos_site_id
_symmetry_equiv_pos_as_xyz
1 x,y,z
2 -x,-y,z
3 1/2+x,1/2-y,z
4 1/2-x,1/2+y,z
5 x,1/2+y,1/2+z
6 -x,1/2-y,1/2+z
7 1/2+x,-y,1/2+z
8 1/2-x,y,1/2+z
_cell_length_a                   7.2178(14)
_cell_length_b                   36.600(7)
_cell_length_c                   9.1878(18)
_cell_angle_alpha                90
_cell_angle_beta                 90
_cell_angle_gamma                90
_cell_volume                     2427.15
_exptl_crystal_colour            colorless
_exptl_crystal_description       plate
_cell_formula_units_Z            8
loop_
_atom_site_label
_atom_site_type_symbol
_atom_site_fract_x
_atom_site_fract_y
_atom_site_fract_z
P1 P 0.24847(9) 0.459007(16) 0.01647(9)
O1 O 0.1392(3) 0.44650(6) 0.1453(2)
O2 O 0.1707(3) 0.49443(6) -0.0501(2)
H1 H 0.082(5) 0.4952(13) -0.067(4)
O3 O 0.4535(3) 0.46674(6) 0.0494(2)
O4 O 0.2382(4) 0.42782(6) -0.0997(2)
H2 H 0.261(5) 0.4335(8) -0.164(3)
N1 N 0.2694(3) 0.04649(6) 0.2368(2)
H3 H 0.1856 0.0443 0.1663
H4 H 0.2618 0.0274 0.2962
H5 H 0.3823 0.0474 0.1979
C1 C 0.2340(4) 0.08036(8) 0.3197(3)
H6 H 0.3433 0.0865 0.3760
H7 H 0.1328 0.0762 0.3871
C2 C 0.1858(4) 0.11197(9) 0.2207(3)
H8 H 0.0746 0.1060 0.1664
H9 H 0.2855 0.1156 0.1513
C3 C 0.1547(5) 0.14715(10) 0.3042(4)
H10 H 0.0707 0.1422 0.3843
H11 H 0.0944 0.1646 0.2403
C4 C 0.3315(5) 0.16482(10) 0.3658(4)
H12 H 0.2973 0.1849 0.4295
H13 H 0.3982 0.1469 0.4235
C5 C 0.4569(4) 0.17898(9) 0.2472(3)
C6 C 0.5988(5) 0.15737(11) 0.1904(4)
H14 H 0.6209 0.1343 0.2294
C7 C 0.7061(6) 0.16992(14) 0.0772(5)
H15 H 0.7998 0.1552 0.0402
C8 C 0.6777(6) 0.20323(14) 0.0189(6)
H16 H 0.7490 0.2111 -0.0593
C9 C 0.5434(7) 0.22535(13) 0.0755(5)
H17 H 0.5261 0.2487 0.0381
C10 C 0.4321(6) 0.21294(10) 0.1896(4)
H18 H 0.3399 0.2280 0.2268
loop_
_geom_bond_atom_site_label_1
_geom_bond_atom_site_label_2
_geom_bond_site_symmetry_1
_geom_bond_site_symmetry_2
P1 O1 1_555 1_555
O2 P1 1_555 1_555
H1 O2 1_555 1_555
O3 P1 1_555 1_555
O4 P1 1_555 1_555
H2 O4 1_555 1_555
N1 H3 1_555 1_555
H4 N1 1_555 1_555
H5 N1 1_555 1_555
C1 N1 1_555 1_555
H6 C1 1_555 1_555
H7 C1 1_555 1_555
C2 C1 1_555 1_555
H8 C2 1_555 1_555
H9 C2 1_555 1_555
C3 C2 1_555 1_555
H10 C3 1_555 1_555
H11 C3 1_555 1_555
C4 C3 1_555 1_555
H12 C4 1_555 1_555
H13 C4 1_555 1_555
C5 C4 1_555 1_555
C6 C5 1_555 1_555
H14 C6 1_555 1_555
C7 C6 1_555 1_555
H15 C7 1_555 1_555
C8 C7 1_555 1_555
H16 C8 1_555 1_555
C9 C8 1_555 1_555
H17 C9 1_555 1_555
C10 C5 1_555 1_555
H18 C10 1_555 1_555
C9 C10 1_555 1_555

#END
