
#######################################################################
#
#                 Cambridge Crystallographic Data Centre
#                                CCDC 
#
#######################################################################
#
# If this CIF has been generated from an entry in the Cambridge 
# Structural Database, then it will include bibliographic, chemical, 
# crystal, experimental, refinement or atomic coordinate data resulting 
# from the CCDC's data processing and validation procedures.
#
#######################################################################

data_HAKDUT
_chemical_formula_moiety         'C12 H34 N6 4+,4(H2 O4 P1 1-),2(H2 O1)'
_chemical_name_systematic        
'1,4,10,13-Tetraazonia-7,16-diazacyclooctadecane tetrakis(dihydrogen phosphato) dihydrate'
_symmetry_cell_setting           monoclinic
_symmetry_space_group_name_H-M   'P 21/n'
_symmetry_Int_Tables_number      14
_space_group_name_Hall           '-P 2yn'
loop_
_symmetry_equiv_pos_site_id
_symmetry_equiv_pos_as_xyz
1 x,y,z
2 1/2+x,1/2-y,1/2+z
3 -x,-y,-z
4 1/2-x,1/2+y,1/2-z
_cell_length_a                   8.7901(3)
_cell_length_b                   16.1913(5)
_cell_length_c                   10.2531(4)
_cell_angle_alpha                90.0
_cell_angle_beta                 98.324(2)
_cell_angle_gamma                90.0
_cell_volume                     1443.88
_cell_formula_units_Z            2
loop_
_atom_site_label
_atom_site_type_symbol
_atom_site_fract_x
_atom_site_fract_y
_atom_site_fract_z
P1 P -0.30253(7) -0.11835(4) -1.00561(6)
H19 H -0.443(3) -0.0731(17) -1.169(3)
O1 O -0.3678(2) -0.13595(11) -0.87500(16)
H20 H -0.3343 -0.1004 -0.8183
O2 O -0.2998(2) -0.20001(10) -1.07829(16)
O3 O -0.4219(2) -0.05911(10) -1.08654(18)
O4 O -0.14848(19) -0.07563(10) -0.97966(16)
N1 N -0.1615(3) 0.08039(14) -1.1135(2)
C1 C -0.2495(3) 0.13224(17) -1.0290(3)
H1 H -0.352(3) 0.1118(15) -1.044(2)
N2 N -0.0359(2) 0.17034(14) -0.8543(2)
C2 C -0.1873(3) 0.12790(17) -0.8842(3)
H2 H -0.247(2) 0.1883(14) -1.064(2)
N3 N 0.1352(3) 0.04989(13) -0.7004(2)
C3 C 0.0173(3) 0.18465(17) -0.7107(3)
H3 H -0.258(3) 0.1568(16) -0.831(3)
C4 C 0.0365(3) 0.10429(17) -0.6360(3)
H4 H -0.178(3) 0.0713(17) -0.853(3)
C5 C 0.1310(3) -0.03666(16) -0.6615(3)
H5 H -0.057(3) 0.2202(15) -0.680(2)
C6 C -0.2247(3) 0.08763(17) -1.2564(3)
H6 H 0.113(3) 0.2144(14) -0.706(2)
H7 H 0.073(3) 0.1146(15) -0.541(3)
H8 H -0.067(3) 0.0781(14) -0.639(2)
H9 H 0.173(3) -0.0473(16) -0.564(3)
H10 H 0.022(3) -0.0571(15) -0.679(2)
H11 H -0.332(3) 0.0674(15) -1.270(2)
H12 H -0.219(3) 0.1426(16) -1.272(2)
H13 H -0.162(3) 0.0274(19) -1.087(3)
H14 H 0.033(4) 0.1389(19) -0.889(3)
H15 H 0.223(3) 0.0651(17) -0.686(3)
H16 H -0.061(4) 0.0935(17) -1.103(3)
H17 H -0.046(3) 0.2201(18) -0.900(3)
C6B C 0.2247(3) -0.08763(17) -0.7436(3)
N1B N 0.1615(3) -0.08039(14) -0.8865(2)
C1B C 0.2495(3) -0.13224(17) -0.9710(3)
H1B H 0.352(3) -0.1118(15) -0.956(2)
C2B C 0.1873(3) -0.12790(17) -1.1158(3)
N2B N 0.0359(2) -0.17034(14) -1.1457(2)
C3B C -0.0173(3) -0.18465(17) -1.2893(3)
C4B C -0.0365(3) -0.10429(17) -1.3640(3)
N3B N -0.1352(3) -0.04989(13) -1.2996(2)
C5B C -0.1310(3) 0.03666(16) -1.3385(3)
H9B H -0.173(3) 0.0473(16) -1.436(3)
H10B H -0.022(3) 0.0571(15) -1.321(2)
H15B H -0.223(3) -0.0651(17) -1.314(3)
H7B H -0.073(3) -0.1146(15) -1.459(3)
H8B H 0.067(3) -0.0781(14) -1.361(2)
H5B H 0.057(3) -0.2202(15) -1.320(2)
H6B H -0.113(3) -0.2144(14) -1.294(2)
H14B H -0.033(4) -0.1389(19) -1.111(3)
H17B H 0.046(3) -0.2201(18) -1.100(3)
H3B H 0.258(3) -0.1568(16) -1.169(3)
H4B H 0.178(3) -0.0713(17) -1.147(3)
H2B H 0.247(2) -0.1883(14) -0.936(2)
H13B H 0.162(3) -0.0274(19) -0.913(3)
H16B H 0.061(4) -0.0935(17) -0.897(3)
H11B H 0.332(3) -0.0674(15) -0.730(2)
H12B H 0.219(3) -0.1426(16) -0.728(2)
P2 P -0.52042(8) -0.16650(4) -1.40077(6)
H18 H -0.726(4) -0.211(2) -1.480(3)
O5 O -0.6991(2) -0.17434(12) -1.43345(19)
O6 O -0.4461(2) -0.18081(10) -1.52201(18)
O7 O -0.48727(19) -0.08413(10) -1.33443(16)
O8 O -0.4690(2) -0.23861(10) -1.30039(18)
H21 H -0.4199 -0.2188 -1.231
O9 O -0.6777(2) 0.05425(13) -1.34416(18)
H22 H -0.643(4) 0.091(2) -1.392(3)
H23 H -0.615(4) 0.010(2) -1.353(3)
loop_
_geom_bond_atom_site_label_1
_geom_bond_atom_site_label_2
_geom_bond_site_symmetry_1
_geom_bond_site_symmetry_2
P1 O1 1_555 1_555
N1 C1 1_555 1_555
C1 H1 1_555 1_555
P2 O5 1_555 1_555
N2 C2 1_555 1_555
C2 C1 1_555 1_555
H2 C1 1_555 1_555
N3 C4 1_555 1_555
C3 N2 1_555 1_555
H3 C2 1_555 1_555
C4 C3 1_555 1_555
H4 C2 1_555 1_555
C5 N3 1_555 1_555
H5 C3 1_555 1_555
C6 N1 1_555 1_555
H6 C3 1_555 1_555
H7 C4 1_555 1_555
H8 C4 1_555 1_555
H9 C5 1_555 1_555
H10 C5 1_555 1_555
H11 C6 1_555 1_555
H12 C6 1_555 1_555
H13 N1 1_555 1_555
H14 N2 1_555 1_555
H15 N3 1_555 1_555
H16 N1 1_555 1_555
H17 N2 1_555 1_555
H18 O5 1_555 1_555
H19 O3 1_555 1_555
O1 H20 1_555 1_555
O2 P1 1_555 1_555
O3 P1 1_555 1_555
O4 P1 1_555 1_555
O6 P2 1_555 1_555
O7 P2 1_555 1_555
O8 P2 1_555 1_555
H21 O8 1_555 1_555
O9 H22 1_555 1_555
H23 O9 1_555 1_555
C6B C5 1_555 1_555
N1B C6B 1_555 1_555
C1B N1B 1_555 1_555
H1B C1B 1_555 1_555
C2B C1B 1_555 1_555
N2B C2B 1_555 1_555
C3B N2B 1_555 1_555
C4B C3B 1_555 1_555
N3B C4B 1_555 1_555
C5B C6 1_555 1_555
H9B C5B 1_555 1_555
H10B C5B 1_555 1_555
H15B N3B 1_555 1_555
H7B C4B 1_555 1_555
H8B C4B 1_555 1_555
H5B C3B 1_555 1_555
H6B C3B 1_555 1_555
H14B N2B 1_555 1_555
H17B N2B 1_555 1_555
H3B C2B 1_555 1_555
H4B C2B 1_555 1_555
H2B C1B 1_555 1_555
H13B N1B 1_555 1_555
H16B N1B 1_555 1_555
H11B C6B 1_555 1_555
H12B C6B 1_555 1_555
N3B C5B 1_555 1_555

#END
