
#######################################################################
#
#                 Cambridge Crystallographic Data Centre
#                                CCDC 
#
#######################################################################
#
# If this CIF has been generated from an entry in the Cambridge 
# Structural Database, then it will include bibliographic, chemical, 
# crystal, experimental, refinement or atomic coordinate data resulting 
# from the CCDC's data processing and validation procedures.
#
#######################################################################

data_HAKDII
_chemical_formula_moiety         'C22 H23 N5 O1'
_chemical_name_systematic        
(Z)-2-Amino-3-((E)-(2-(benzyloxy)-4-(diethylamino)benzylidene)amino)but-2-enedinitrile
_symmetry_cell_setting           monoclinic
_symmetry_space_group_name_H-M   'P 21/c'
_symmetry_Int_Tables_number      14
_space_group_name_Hall           '-P 2ybc'
loop_
_symmetry_equiv_pos_site_id
_symmetry_equiv_pos_as_xyz
1 x,y,z
2 -x,1/2+y,1/2-z
3 -x,-y,-z
4 x,1/2-y,1/2+z
_cell_length_a                   14.2290(3)
_cell_length_b                   18.1985(3)
_cell_length_c                   16.0679(3)
_cell_angle_alpha                90
_cell_angle_beta                 101.3791(7)
_cell_angle_gamma                90
_cell_volume                     4078.94
_exptl_crystal_colour            red
_exptl_crystal_description       block
_cell_formula_units_Z            8
loop_
_atom_site_label
_atom_site_type_symbol
_atom_site_fract_x
_atom_site_fract_y
_atom_site_fract_z
O1 O 0.50821(10) 0.19894(8) 0.69905(10)
N1 N 0.92274(13) 0.05662(11) 0.62440(14)
N2 N 0.85547(17) -0.12275(13) 0.60364(17)
N3 N 0.60781(16) -0.03539(13) 0.62671(17)
N4 N 0.75038(13) 0.12100(10) 0.64225(12)
N5 N 0.61692(13) 0.45185(10) 0.70473(12)
C1 C 0.85004(17) -0.06051(15) 0.61098(17)
C2 C 0.84249(16) 0.01656(12) 0.62155(15)
C3 C 0.75679(15) 0.04527(12) 0.63059(14)
C4 C 0.67559(18) -0.00153(13) 0.62867(17)
C5 C 0.67102(16) 0.14843(13) 0.65720(14)
C6 C 0.65893(15) 0.22563(12) 0.67000(14)
C7 C 0.72747(16) 0.27781(14) 0.66121(17)
C8 C 0.71496(16) 0.35121(13) 0.67158(17)
C9 C 0.63068(15) 0.37782(12) 0.69351(14)
C10 C 0.56121(15) 0.32611(12) 0.70484(14)
C11 C 0.57494(15) 0.25217(12) 0.69247(14)
C12 C 0.41909(15) 0.21836(13) 0.72113(15)
C13 C 0.42580(15) 0.22786(12) 0.81502(15)
C14 C 0.49749(17) 0.19304(13) 0.87334(18)
C15 C 0.5002(2) 0.20076(17) 0.95985(19)
C16 C 0.4328(2) 0.24288(18) 0.9877(2)
C17 C 0.3625(2) 0.27674(18) 0.9311(2)
C18 C 0.35964(17) 0.26995(14) 0.84468(17)
C19 C 0.52269(19) 0.48094(14) 0.70801(19)
C20 C 0.4543(2) 0.47937(17) 0.6222(2)
C21 C 0.68966(19) 0.50540(13) 0.69554(18)
C22 C 0.6901(2) 0.52924(17) 0.6068(2)
H1 H 0.9214 0.1084 0.6316
H2 H 0.9807 0.0329 0.6189
H3 H 0.6192 0.1161 0.6593
H4 H 0.7856 0.2613 0.6468
H5 H 0.7639 0.3847 0.6643
H6 H 0.5036 0.3422 0.7205
H7 H 0.3984 0.2636 0.6941
H8 H 0.3734 0.1811 0.7010
H9 H 0.5438 0.1637 0.8536
H10 H 0.5499 0.1779 0.9996
H11 H 0.4344 0.2472 1.0469
H12 H 0.3160 0.3058 0.9510
H13 H 0.3113 0.2945 0.8053
H14 H 0.4959 0.4516 0.7463
H15 H 0.5292 0.5301 0.7282
H16 H 0.4596 0.5245 0.5937
H17 H 0.3901 0.4730 0.6294
H18 H 0.4714 0.4399 0.5895
H19 H 0.6804 0.5480 0.7272
H20 H 0.7504 0.4844 0.7185
H21 H 0.7304 0.4973 0.5828
H22 H 0.7129 0.5782 0.6059
H23 H 0.6265 0.5265 0.5747
O2 O 1.00854(10) 0.22440(8) 0.86693(10)
N6 N 0.59048(13) 0.37812(11) 0.92593(13)
N7 N 0.65473(17) 0.55689(13) 0.91059(16)
N8 N 0.89665(16) 0.46426(13) 0.88929(17)
N9 N 0.76052(12) 0.30785(10) 0.90543(12)
N10 N 0.89267(16) -0.02542(12) 0.84149(17)
C23 C 0.66158(17) 0.49434(15) 0.91394(16)
C24 C 0.66931(16) 0.41582(13) 0.91603(14)
C25 C 0.75387(15) 0.38374(12) 0.90748(14)
C26 C 0.83225(17) 0.43032(14) 0.89788(17)
C27 C 0.83837(16) 0.27818(13) 0.89089(14)
C28 C 0.85159(15) 0.20050(13) 0.88300(15)
C29 C 0.78052(16) 0.14884(14) 0.88655(17)
C30 C 0.79302(17) 0.07497(15) 0.87499(19)
C31 C 0.87908(17) 0.04818(14) 0.85616(18)
C32 C 0.95176(16) 0.09890(13) 0.85255(15)
C33 C 0.93883(15) 0.17254(13) 0.86624(14)
C34 C 1.09429(15) 0.20558(13) 0.83796(15)
C35 C 1.07997(15) 0.20233(12) 0.74296(15)
C36 C 1.14611(17) 0.16672(14) 0.70505(18)
C37 C 1.1371(2) 0.16566(16) 0.6175(2)
C38 C 1.0611(2) 0.20062(15) 0.56703(18)
C39 C 0.9944(2) 0.23590(14) 0.60429(19)
C40 C 1.00382(16) 0.23689(13) 0.69134(18)
C41 C 0.8138(2) -0.08132(18) 0.8366(2)
C42 C 0.8098(2) -0.1084(2) 0.9188(2)
C43 C 0.9858(2) -0.05422(15) 0.8291(2)
C44 C 1.0541(2) -0.06037(17) 0.9112(2)
H24 H 0.5341 0.4041 0.9313
H25 H 0.5914 0.3260 0.9279
H26 H 0.8898 0.3099 0.8852
H27 H 0.7215 0.1655 0.8989
H28 H 0.7427 0.0416 0.8786
H29 H 1.0111 0.0827 0.8405
H30 H 1.1423 0.2410 0.8585
H31 H 1.1150 0.1586 0.8601
H32 H 1.1992 0.1431 0.7400
H33 H 1.1837 0.1409 0.5929
H34 H 1.0546 0.1999 0.5071
H35 H 0.9415 0.2601 0.5698
H36 H 0.9577 0.2616 0.7165
H37 H 0.7541 -0.0595 0.8122
H38 H 0.8258 -0.1216 0.8026
H39 H 0.8508 -0.1498 0.9319
H40 H 0.7462 -0.1218 0.9224
H41 H 0.8312 -0.0701 0.9581
H42 H 0.9773 -0.1015 0.8036
H43 H 1.0113 -0.0217 0.7930
H44 H 1.0879 -0.0153 0.9229
H45 H 1.0985 -0.0992 0.9102
H46 H 1.0183 -0.0697 0.9541
loop_
_geom_bond_atom_site_label_1
_geom_bond_atom_site_label_2
_geom_bond_site_symmetry_1
_geom_bond_site_symmetry_2
O1 C11 1_555 1_555
N1 C2 1_555 1_555
N2 C1 1_555 1_555
N3 C4 1_555 1_555
N4 C3 1_555 1_555
N5 C9 1_555 1_555
C1 C2 1_555 1_555
C2 C3 1_555 1_555
C3 C4 1_555 1_555
C5 N4 1_555 1_555
C6 C5 1_555 1_555
C7 C6 1_555 1_555
C8 C7 1_555 1_555
C9 C8 1_555 1_555
C10 C9 1_555 1_555
C11 C6 1_555 1_555
C12 O1 1_555 1_555
C13 C12 1_555 1_555
C14 C13 1_555 1_555
C15 C14 1_555 1_555
C16 C15 1_555 1_555
C17 C16 1_555 1_555
C18 C13 1_555 1_555
C19 N5 1_555 1_555
C20 C19 1_555 1_555
C21 N5 1_555 1_555
C22 C21 1_555 1_555
H1 N1 1_555 1_555
H2 N1 1_555 1_555
H3 C5 1_555 1_555
H4 C7 1_555 1_555
H5 C8 1_555 1_555
H6 C10 1_555 1_555
H7 C12 1_555 1_555
H8 C12 1_555 1_555
H9 C14 1_555 1_555
H10 C15 1_555 1_555
H11 C16 1_555 1_555
H12 C17 1_555 1_555
H13 C18 1_555 1_555
H14 C19 1_555 1_555
H15 C19 1_555 1_555
H16 C20 1_555 1_555
H17 C20 1_555 1_555
H18 C20 1_555 1_555
H19 C21 1_555 1_555
H20 C21 1_555 1_555
H21 C22 1_555 1_555
H22 C22 1_555 1_555
H23 C22 1_555 1_555
O2 C33 1_555 1_555
N6 C24 1_555 1_555
N7 C23 1_555 1_555
N8 C26 1_555 1_555
N9 C25 1_555 1_555
N10 C31 1_555 1_555
C23 C24 1_555 1_555
C24 C25 1_555 1_555
C25 C26 1_555 1_555
C27 N9 1_555 1_555
C28 C27 1_555 1_555
C29 C28 1_555 1_555
C30 C29 1_555 1_555
C31 C30 1_555 1_555
C32 C31 1_555 1_555
C33 C28 1_555 1_555
C34 O2 1_555 1_555
C35 C34 1_555 1_555
C36 C35 1_555 1_555
C37 C36 1_555 1_555
C38 C37 1_555 1_555
C39 C38 1_555 1_555
C40 C35 1_555 1_555
C41 N10 1_555 1_555
C42 C41 1_555 1_555
C43 N10 1_555 1_555
C44 C43 1_555 1_555
H24 N6 1_555 1_555
H25 N6 1_555 1_555
H26 C27 1_555 1_555
H27 C29 1_555 1_555
H28 C30 1_555 1_555
H29 C32 1_555 1_555
H30 C34 1_555 1_555
H31 C34 1_555 1_555
H32 C36 1_555 1_555
H33 C37 1_555 1_555
H34 C38 1_555 1_555
H35 C39 1_555 1_555
H36 C40 1_555 1_555
H37 C41 1_555 1_555
H38 C41 1_555 1_555
H39 C42 1_555 1_555
H40 C42 1_555 1_555
H41 C42 1_555 1_555
H42 C43 1_555 1_555
H43 C43 1_555 1_555
H44 C44 1_555 1_555
H45 C44 1_555 1_555
H46 C44 1_555 1_555
C10 C11 1_555 1_555
C17 C18 1_555 1_555
C32 C33 1_555 1_555
C39 C40 1_555 1_555

#END
