
#######################################################################
#
#                 Cambridge Crystallographic Data Centre
#                                CCDC 
#
#######################################################################
#
# If this CIF has been generated from an entry in the Cambridge 
# Structural Database, then it will include bibliographic, chemical, 
# crystal, experimental, refinement or atomic coordinate data resulting 
# from the CCDC's data processing and validation procedures.
#
#######################################################################

data_HAKDON
_chemical_formula_moiety         'C12 H34 N6 4+,4(H2 O4 P1 1-)'
_chemical_name_systematic        
'1,4,10,13-Tetraazonia-7,16-diazacyclooctadecane tetrakis(dihydrogen phosphate)'
_symmetry_cell_setting           monoclinic
_symmetry_space_group_name_H-M   'P 21/n'
_symmetry_Int_Tables_number      14
_space_group_name_Hall           '-P 2yn'
loop_
_symmetry_equiv_pos_site_id
_symmetry_equiv_pos_as_xyz
1 x,y,z
2 1/2+x,1/2-y,1/2+z
3 -x,-y,-z
4 1/2-x,1/2+y,1/2-z
_cell_length_a                   8.5026(2)
_cell_length_b                   13.4929(4)
_cell_length_c                   11.5923(3)
_cell_angle_alpha                90.0
_cell_angle_beta                 97.5920(10)
_cell_angle_gamma                90.0
_cell_volume                     1318.27
_cell_formula_units_Z            2
loop_
_atom_site_label
_atom_site_type_symbol
_atom_site_fract_x
_atom_site_fract_y
_atom_site_fract_z
P1 P 0.26879(6) 1.13260(4) 0.49408(4)
H18 H 0.391(4) 1.087(2) 0.368(3)
H19 H 0.439(4) 1.114(2) 0.637(3)
O1 O 0.18726(17) 1.03519(10) 0.50384(12)
O2 O 0.15725(16) 1.21903(10) 0.47075(12)
O3 O 0.3828(2) 1.13040(14) 0.39864(17)
O4 O 0.3788(2) 1.16022(12) 0.60978(13)
N1 N 0.0880(2) 0.91897(13) 0.29936(16)
C1 C -0.0339(3) 0.93547(17) 0.19556(19)
H1 H -0.136(3) 0.9240(15) 0.2203(18)
N2 N 0.1579(2) 0.84033(14) 0.55195(14)
C2 C 0.0938(3) 0.81347(16) 0.33851(19)
H2 H -0.011(2) 0.8880(15) 0.1396(17)
N3 N 0.0573(2) 0.88731(14) 0.76604(15)
C3 C 0.2119(3) 0.79562(17) 0.44609(18)
H3 H 0.069(3) 0.9618(19) 0.357(2)
C4 C 0.2514(3) 0.80480(16) 0.66270(18)
H4 H 0.183(3) 0.9346(18) 0.282(2)
C5 C 0.2273(3) 0.87326(17) 0.76035(19)
H5 H -0.012(3) 0.7976(15) 0.3541(17)
C6 C -0.0253(3) 1.03901(17) 0.14798(19)
H6 H 0.132(3) 0.7756(17) 0.278(2)
H7 H 0.316(3) 0.8237(15) 0.4401(16)
H8 H 0.216(3) 0.7247(18) 0.4577(18)
H9 H 0.170(3) 0.9091(18) 0.5483(17)
H10 H 0.051(3) 0.8255(18) 0.555(2)
H11 H 0.363(3) 0.8046(15) 0.6522(17)
H12 H 0.218(2) 0.7396(17) 0.6742(17)
H13 H 0.265(2) 0.9335(16) 0.7473(18)
H14 H 0.283(2) 0.8486(15) 0.8351(18)
H15 H 0.027(3) 0.830(2) 0.786(2)
H16 H -0.098(3) 1.0413(16) 0.080(2)
H17 H 0.082(3) 1.0497(15) 0.1289(18)
N3B N -0.0573(2) 1.11269(14) 0.23396(15)
C5B C -0.2273(3) 1.12674(17) 0.23965(19)
C4B C -0.2514(3) 1.19520(16) 0.33730(18)
N2B N -0.1579(2) 1.15967(14) 0.44805(14)
C3B C -0.2119(3) 1.20438(17) 0.55391(18)
C2B C -0.0938(3) 1.18653(16) 0.66149(19)
N1B N -0.0880(2) 1.08103(13) 0.70064(16)
C1B C 0.0339(3) 1.06453(17) 0.80444(19)
H1B H 0.136(3) 1.0760(15) 0.7797(18)
H2B H 0.011(2) 1.1120(15) 0.8604(17)
C6B C 0.0253(3) 0.96099(17) 0.85202(19)
H16B H 0.098(3) 0.9587(16) 0.920(2)
H17B H -0.082(3) 0.9503(15) 0.8711(18)
H3B H -0.069(3) 1.0382(19) 0.643(2)
H4B H -0.183(3) 1.0654(18) 0.718(2)
H5B H 0.012(3) 1.2024(15) 0.6459(17)
H6B H -0.132(3) 1.2244(17) 0.722(2)
H7B H -0.316(3) 1.1763(15) 0.5599(16)
H8B H -0.216(3) 1.2753(18) 0.5423(18)
H9B H -0.170(3) 1.0909(18) 0.4517(17)
H10B H -0.051(3) 1.1745(18) 0.445(2)
H11B H -0.363(3) 1.1954(15) 0.3478(17)
H12B H -0.218(2) 1.2604(17) 0.3258(17)
H13B H -0.265(2) 1.0665(16) 0.2527(18)
H14B H -0.283(2) 1.1514(15) 0.1649(18)
H15B H -0.027(3) 1.170(2) 0.214(2)
P2 P 0.42162(6) 0.95701(4) 0.14880(5)
H20 H 0.388(4) 1.064(2) 0.021(3)
H21 H 0.303(4) 0.821(3) 0.079(3)
O5 O 0.41810(17) 0.96682(11) 0.27918(11)
O6 O 0.57469(17) 0.91810(10) 0.11459(11)
O7 O 0.37802(18) 1.06140(10) 0.09561(13)
O8 O 0.27909(17) 0.88804(11) 0.10081(13)
loop_
_geom_bond_atom_site_label_1
_geom_bond_atom_site_label_2
_geom_bond_site_symmetry_1
_geom_bond_site_symmetry_2
P1 O1 1_555 1_555
N1 C1 1_555 1_555
C1 H1 1_555 1_555
P2 O5 1_555 1_555
N2 C3 1_555 1_555
C2 N1 1_555 1_555
H2 C1 1_555 1_555
N3 C5 1_555 1_555
C3 C2 1_555 1_555
H3 N1 1_555 1_555
C4 N2 1_555 1_555
H4 N1 1_555 1_555
C5 C4 1_555 1_555
H5 C2 1_555 1_555
C6 C1 1_555 1_555
H6 C2 1_555 1_555
H7 C3 1_555 1_555
H8 C3 1_555 1_555
H9 N2 1_555 1_555
H10 N2 1_555 1_555
H11 C4 1_555 1_555
H12 C4 1_555 1_555
H13 C5 1_555 1_555
H14 C5 1_555 1_555
H15 N3 1_555 1_555
H16 C6 1_555 1_555
H17 C6 1_555 1_555
H18 O3 1_555 1_555
H19 O4 1_555 1_555
H20 O7 1_555 1_555
H21 O8 1_555 1_555
O2 P1 1_555 1_555
O3 P1 1_555 1_555
O4 P1 1_555 1_555
O6 P2 1_555 1_555
O7 P2 1_555 1_555
O8 P2 1_555 1_555
N3B C6 1_555 1_555
C5B N3B 1_555 1_555
C4B C5B 1_555 1_555
N2B C4B 1_555 1_555
C3B N2B 1_555 1_555
C2B C3B 1_555 1_555
N1B C2B 1_555 1_555
C1B N1B 1_555 1_555
H1B C1B 1_555 1_555
H2B C1B 1_555 1_555
C6B N3 1_555 1_555
H16B C6B 1_555 1_555
H17B C6B 1_555 1_555
H3B N1B 1_555 1_555
H4B N1B 1_555 1_555
H5B C2B 1_555 1_555
H6B C2B 1_555 1_555
H7B C3B 1_555 1_555
H8B C3B 1_555 1_555
H9B N2B 1_555 1_555
H10B N2B 1_555 1_555
H11B C4B 1_555 1_555
H12B C4B 1_555 1_555
H13B C5B 1_555 1_555
H14B C5B 1_555 1_555
H15B N3B 1_555 1_555
C1B C6B 1_555 1_555

#END
