
#######################################################################
#
#                 Cambridge Crystallographic Data Centre
#                                CCDC 
#
#######################################################################
#
# If this CIF has been generated from an entry in the Cambridge 
# Structural Database, then it will include bibliographic, chemical, 
# crystal, experimental, refinement or atomic coordinate data resulting 
# from the CCDC's data processing and validation procedures.
#
#######################################################################

data_HAKHEI
_chemical_formula_moiety         'C10 H8 N2 O5'
_chemical_name_systematic        
'Methyl 1,4-dihydroxy-3-oxo-3,4-dihydro-1\l^5^-quinoxaline-2-carboxylate'
_symmetry_cell_setting           monoclinic
_symmetry_space_group_name_H-M   'C 2/c'
_symmetry_Int_Tables_number      15
_space_group_name_Hall           '-C 2yn'
loop_
_symmetry_equiv_pos_site_id
_symmetry_equiv_pos_as_xyz
1 x,y,z
2 -x,y,1/2-z
3 1/2+x,1/2+y,z
4 1/2-x,1/2+y,1/2-z
5 -x,-y,-z
6 x,-y,1/2+z
7 1/2-x,1/2-y,-z
8 1/2+x,1/2-y,1/2+z
_cell_length_a                   14.4320(12)
_cell_length_b                   10.7514(9)
_cell_length_c                   13.2728(11)
_cell_angle_alpha                90
_cell_angle_beta                 108.0190(10)
_cell_angle_gamma                90
_cell_volume                     1958.45
_exptl_crystal_colour            yellow
_exptl_crystal_description       prismatic
_cell_formula_units_Z            8
loop_
_atom_site_label
_atom_site_type_symbol
_atom_site_fract_x
_atom_site_fract_y
_atom_site_fract_z
O1 O 0.13377(7) 0.48476(10) 0.24193(7)
O2 O 0.31992(8) 0.46295(13) 0.01590(9)
O3 O 0.18522(9) 0.32195(11) -0.12274(8)
O4 O 0.29882(9) 0.66278(11) 0.21152(11)
O5 O 0.37251(7) 0.48313(10) 0.27215(8)
N1 N 0.14700(7) 0.45002(10) 0.15434(8)
N2 N 0.17077(8) 0.37153(11) -0.03251(8)
C1 C 0.22803(9) 0.47414(13) 0.13273(10)
C2 C 0.24548(9) 0.43654(14) 0.03502(11)
C3 C 0.08419(9) 0.34456(12) -0.01377(10)
C4 C 0.07012(8) 0.38544(12) 0.08020(9)
C5 C -0.01769(9) 0.36668(13) 0.10017(11)
H1 H -0.0267 0.3965 0.1622
C6 C -0.09113(10) 0.30361(14) 0.02727(13)
H2 H -0.1502 0.2899 0.0400
C7 C -0.07707(11) 0.26010(15) -0.06584(13)
H3 H -0.1269 0.2167 -0.1146
C8 C 0.00866(11) 0.28003(14) -0.08680(11)
H4 H 0.0168 0.2508 -0.1495
C9 C 0.30376(9) 0.55229(14) 0.21027(10)
C10 C 0.44696(11) 0.55032(17) 0.35296(12)
H5 H 0.4690 0.6199 0.3212
H6 H 0.5008 0.4959 0.3846
H7 H 0.4202 0.5796 0.4064
H8 H 0.1745(15) 0.3813(17) -0.1672(15)
loop_
_geom_bond_atom_site_label_1
_geom_bond_atom_site_label_2
_geom_bond_site_symmetry_1
_geom_bond_site_symmetry_2
O1 N1 1_555 1_555
O2 C2 1_555 1_555
O3 N2 1_555 1_555
O4 C9 1_555 1_555
O5 C9 1_555 1_555
N1 C1 1_555 1_555
N2 C2 1_555 1_555
C1 C2 1_555 1_555
C3 N2 1_555 1_555
C4 N1 1_555 1_555
C5 C4 1_555 1_555
H1 C5 1_555 1_555
C6 C5 1_555 1_555
H2 C6 1_555 1_555
C7 C6 1_555 1_555
H3 C7 1_555 1_555
C8 C3 1_555 1_555
H4 C8 1_555 1_555
C9 C1 1_555 1_555
C10 O5 1_555 1_555
H5 C10 1_555 1_555
H6 C10 1_555 1_555
H7 C10 1_555 1_555
H8 O3 1_555 1_555
C3 C4 1_555 1_555
C7 C8 1_555 1_555

#END
