
#######################################################################
#
#                 Cambridge Crystallographic Data Centre
#                                CCDC 
#
#######################################################################
#
# If this CIF has been generated from an entry in the Cambridge 
# Structural Database, then it will include bibliographic, chemical, 
# crystal, experimental, refinement or atomic coordinate data resulting 
# from the CCDC's data processing and validation procedures.
#
#######################################################################

data_HAKJIM
_chemical_name_common            Emtricitabine
_chemical_formula_moiety         'C8 H10 F1 N3 O3 S1'
_chemical_name_systematic        
(-)-cis-5-Fluoro-1-(2-(hydroxymethyl)-1,3-oxathiolan-5-yl)cytosine
_chemical_properties_biological  
'antiviral agent against human immunodeficiency virus type 1 (HIV-1) and hepatitis B virus'
_symmetry_cell_setting           monoclinic
_symmetry_space_group_name_H-M   'P 21'
_symmetry_Int_Tables_number      4
_space_group_name_Hall           'P 2yb'
loop_
_symmetry_equiv_pos_site_id
_symmetry_equiv_pos_as_xyz
1 x,y,z
2 -x,1/2+y,-z
_cell_length_a                   5.141(1)
_cell_length_b                   26.451(2)
_cell_length_c                   7.570(1)
_cell_angle_alpha                90
_cell_angle_beta                 99.31(1)
_cell_angle_gamma                90
_cell_volume                     1015.84
_cell_formula_units_Z            4
loop_
_atom_site_label
_atom_site_type_symbol
_atom_site_fract_x
_atom_site_fract_y
_atom_site_fract_z
C1 C -0.1101(9) 0.4289(2) 0.7540(6)
C2 C -0.0810(10) 0.3469(2) 0.6454(6)
C3 C -0.3196(10) 0.3553(2) 0.5221(6)
C4 C -0.4282(10) 0.4006(2) 0.5056(7)
C5 C -0.3967(11) 0.4912(2) 0.5797(7)
C6 C -0.6871(11) 0.5019(2) 0.5394(8)
C7 C -0.4366(10) 0.5366(2) 0.3021(7)
C8 C -0.5092(14) 0.5090(2) 0.1274(8)
F1 F -0.4168(6) 0.3166(1) 0.4140(4)
N1 N -0.3245(8) 0.4389(2) 0.6202(5)
N2 N 0.0118(8) 0.3833(2) 0.7576(6)
N3 N 0.0480(10) 0.3035(2) 0.6468(7)
O1 O -0.0320(7) 0.4625(2) 0.8636(5)
O2 O -0.2813(7) 0.5040(2) 0.4256(5)
O3 O -0.6499(9) 0.4644(2) 0.1506(5)
S1 S -0.7079(3) 0.5586 0.4072(2)
H1 H -0.583(16) 0.410(3) 0.428(12)
H2 H -0.318(15) 0.518(3) 0.665(11)
H3 H -0.758(13) 0.511(2) 0.656(10)
H4 H -0.800(11) 0.474(2) 0.483(7)
H5 H -0.338(11) 0.564(2) 0.270(7)
H6 H -0.362(13) 0.499(2) 0.068(9)
H7 H -0.597(12) 0.536(2) 0.048(8)
H8 H 0.010(14) 0.282(3) 0.568(11)
H9 H 0.209(16) 0.301(3) 0.728(11)
C9 C 0.6955(10) 0.2443(2) 0.8823(6)
C10 C 0.6500(10) 0.3251(2) 0.9996(6)
C11 C 0.8982(10) 0.3188(2) 1.1138(6)
C12 C 1.0303(10) 0.2752(2) 1.1165(6)
C13 C 1.0767(10) 0.1894(2) 0.9908(7)
C14 C 0.9053(14) 0.1426(2) 1.0029(9)
C15 C 1.2777(12) 0.1528(2) 1.2642(8)
C16 C 1.1334(15) 0.1729(2) 1.4089(9)
F2 F 0.9938(6) 0.3580(1) 1.2183(4)
N4 N 0.9245(8) 0.2366(2) 1.0066(5)
N5 N 0.5579(8) 0.2883(2) 0.8888(6)
N6 N 0.5165(10) 0.3676(2) 1.0014(7)
O4 O 0.6266(8) 0.2112(2) 0.7702(5)
O5 O 1.2998(7) 0.1892(1) 1.1275(5)
O6 O 1.2392(9) 0.2188(2) 1.4820(6)
S2 S 1.1096(4) 0.0993(1) 1.1501(2)
H10 H 1.221(12) 0.271(2) 1.193(8)
H11 H 1.135(11) 0.193(2) 0.875(8)
H12 H 0.843(18) 0.130(4) 0.880(13)
H13 H 0.775(14) 0.151(2) 1.045(9)
H14 H 1.436(12) 0.140(2) 1.306(8)
H15 H 1.154(14) 0.145(3) 1.499(10)
H16 H 0.948(16) 0.179(3) 1.362(10)
H17 H 0.607(12) 0.395(2) 1.066(9)
H18 H 0.380(13) 0.373(2) 0.920(9)
loop_
_geom_bond_atom_site_label_1
_geom_bond_atom_site_label_2
_geom_bond_site_symmetry_1
_geom_bond_site_symmetry_2
C1 N1 1_555 1_555
C2 C3 1_555 1_555
C3 C4 1_555 1_555
C4 N1 1_555 1_555
C5 C6 1_555 1_555
C6 S1 1_555 1_555
C7 C8 1_555 1_555
C8 O3 1_555 1_555
F1 C3 1_555 1_555
N1 C5 1_555 1_555
N2 C1 1_555 1_555
N3 C2 1_555 1_555
O1 C1 1_555 1_555
O2 C5 1_555 1_555
S1 C7 1_555 1_555
H1 C4 1_555 1_555
H2 C5 1_555 1_555
H3 C6 1_555 1_555
H4 C6 1_555 1_555
H5 C7 1_555 1_555
H6 C8 1_555 1_555
H7 C8 1_555 1_555
H8 N3 1_555 1_555
H9 N3 1_555 1_555
C9 N4 1_555 1_555
C10 C11 1_555 1_555
C11 C12 1_555 1_555
C12 N4 1_555 1_555
C13 C14 1_555 1_555
C14 S2 1_555 1_555
C15 C16 1_555 1_555
C16 O6 1_555 1_555
F2 C11 1_555 1_555
N4 C13 1_555 1_555
N5 C9 1_555 1_555
N6 C10 1_555 1_555
O4 C9 1_555 1_555
O5 C13 1_555 1_555
S2 C15 1_555 1_555
H10 C12 1_555 1_555
H11 C13 1_555 1_555
H12 C14 1_555 1_555
H13 C14 1_555 1_555
H14 C15 1_555 1_555
H15 C16 1_555 1_555
H16 C16 1_555 1_555
H17 N6 1_555 1_555
H18 N6 1_555 1_555
C2 N2 1_555 1_555
C7 O2 1_555 1_555
C10 N5 1_555 1_555
C15 O5 1_555 1_555

#END
