
#######################################################################
#
#                 Cambridge Crystallographic Data Centre
#                                CCDC 
#
#######################################################################
#
# If this CIF has been generated from an entry in the Cambridge 
# Structural Database, then it will include bibliographic, chemical, 
# crystal, experimental, refinement or atomic coordinate data resulting 
# from the CCDC's data processing and validation procedures.
#
#######################################################################

data_HAKLIR
_chemical_formula_moiety         'C24 H21 N1 P1 1+,C1 H1 Cl3,Br1 1-'
_chemical_name_systematic        
'(4-aminophenyl)(triphenyl)phosphonium bromide chloroform solvate'
_symmetry_cell_setting           monoclinic
_symmetry_space_group_name_H-M   'P 21/c'
_symmetry_Int_Tables_number      14
_space_group_name_Hall           '-P 2ybc'
loop_
_symmetry_equiv_pos_site_id
_symmetry_equiv_pos_as_xyz
1 x,y,z
2 -x,1/2+y,1/2-z
3 -x,-y,-z
4 x,1/2-y,1/2+z
_cell_length_a                   9.8174(11)
_cell_length_b                   24.848(3)
_cell_length_c                   10.7646(12)
_cell_angle_alpha                90
_cell_angle_beta                 98.057(2)
_cell_angle_gamma                90
_cell_volume                     2600.03
_exptl_crystal_colour            colorless
_exptl_crystal_description       block
_cell_formula_units_Z            4
loop_
_atom_site_label
_atom_site_type_symbol
_atom_site_fract_x
_atom_site_fract_y
_atom_site_fract_z
Br1 Br 0.19580(9) 0.59050(3) 0.48532(10)
P1 P 0.50653(18) 0.62511(7) 0.9695(2)
N1 N 0.8823(8) 0.5385(4) 1.4004(9)
C1 C 0.3305(7) 0.6071(3) 0.9779(9)
C2 C 0.2457(8) 0.5868(3) 0.8763(11)
C3 C 0.1097(9) 0.5753(4) 0.8862(14)
C4 C 0.0609(10) 0.5828(4) 0.9958(14)
C5 C 0.1418(10) 0.6038(4) 1.0982(12)
C6 C 0.2796(8) 0.6158(4) 1.0896(11)
C7 C 0.5176(7) 0.6959(3) 0.9413(8)
C8 C 0.6240(10) 0.7160(4) 0.8856(10)
C9 C 0.6333(11) 0.7700(4) 0.8603(10)
H1 H 0.7076 0.7829 0.8209
C10 C 0.5380(13) 0.8047(4) 0.8907(10)
H2 H 0.5457 0.8419 0.8729
C11 C 0.4301(13) 0.7865(4) 0.9471(12)
C12 C 0.4193(10) 0.7316(4) 0.9748(10)
C13 C 0.5692(7) 0.5918(3) 0.8424(9)
C14 C 0.6693(9) 0.5523(3) 0.8606(12)
C15 C 0.7145(11) 0.5264(4) 0.7599(14)
C16 C 0.6594(12) 0.5387(4) 0.6400(13)
C17 C 0.5622(13) 0.5773(4) 0.6181(13)
C18 C 0.5170(9) 0.6043(3) 0.7194(11)
H3 H 0.4491 0.6316 0.7033
C19 C 0.6088(7) 0.6051(3) 1.1098(7)
C20 C 0.5793(9) 0.5576(3) 1.1695(9)
C21 C 0.6653(8) 0.5363(4) 1.2674(9)
C22 C 0.7921(7) 0.5609(3) 1.3093(8)
C23 C 0.8211(9) 0.6092(3) 1.2515(9)
C24 C 0.7332(7) 0.6304(3) 1.1547(8)
H4 H 0.971(7) 0.556(3) 1.422(6)
H5 H 0.857(7) 0.513(3) 1.422(7)
H6 H 0.284(6) 0.580(2) 0.798(6)
H7 H 0.057(7) 0.560(3) 0.802(7)
H8 H -0.052(10) 0.571(3) 0.993(8)
H9 H 0.099(10) 0.609(4) 1.189(10)
H10 H 0.331(5) 0.628(2) 1.165(5)
H11 H 0.685(7) 0.691(3) 0.868(6)
H12 H 0.355(8) 0.805(3) 0.969(8)
H13 H 0.354(6) 0.720(3) 1.015(6)
H14 H 0.703(5) 0.546(2) 0.936(5)
H15 H 0.771(7) 0.501(3) 0.776(7)
H16 H 0.683(6) 0.520(2) 0.562(7)
H17 H 0.524(8) 0.583(3) 0.536(8)
H18 H 0.503(7) 0.540(3) 1.148(7)
H19 H 0.648(8) 0.504(3) 1.308(8)
H20 H 0.900(7) 0.624(3) 1.279(6)
H21 H 0.749(5) 0.665(2) 1.120(6)
C25 C 0.0354(9) 0.7005(4) 0.6104(10)
H22 H 0.0685 0.6672 0.5718
Cl1 Cl 0.1681(4) 0.72351(16) 0.7222(3)
Cl2 Cl 0.0050(4) 0.74925(16) 0.4925(4)
Cl3 Cl -0.1140(4) 0.6851(2) 0.6646(4)
loop_
_geom_bond_atom_site_label_1
_geom_bond_atom_site_label_2
_geom_bond_site_symmetry_1
_geom_bond_site_symmetry_2
P1 C1 1_555 1_555
N1 C22 1_555 1_555
C1 C2 1_555 1_555
C2 C3 1_555 1_555
C3 C4 1_555 1_555
C4 C5 1_555 1_555
C5 C6 1_555 1_555
C6 C1 1_555 1_555
C7 P1 1_555 1_555
C8 C7 1_555 1_555
C9 C8 1_555 1_555
H1 C9 1_555 1_555
C10 C9 1_555 1_555
H2 C10 1_555 1_555
C11 C10 1_555 1_555
C12 C7 1_555 1_555
C13 P1 1_555 1_555
C14 C13 1_555 1_555
C15 C14 1_555 1_555
C16 C15 1_555 1_555
C17 C16 1_555 1_555
C18 C13 1_555 1_555
H3 C18 1_555 1_555
C19 P1 1_555 1_555
C20 C19 1_555 1_555
C21 C20 1_555 1_555
C22 C21 1_555 1_555
C23 C22 1_555 1_555
C24 C19 1_555 1_555
H4 N1 1_555 1_555
H5 N1 1_555 1_555
H6 C2 1_555 1_555
H7 C3 1_555 1_555
H8 C4 1_555 1_555
H9 C5 1_555 1_555
H10 C6 1_555 1_555
H11 C8 1_555 1_555
H12 C11 1_555 1_555
H13 C12 1_555 1_555
H14 C14 1_555 1_555
H15 C15 1_555 1_555
H16 C16 1_555 1_555
H17 C17 1_555 1_555
H18 C20 1_555 1_555
H19 C21 1_555 1_555
H20 C23 1_555 1_555
H21 C24 1_555 1_555
C25 H22 1_555 1_555
Cl1 C25 1_555 1_555
Cl2 C25 1_555 1_555
Cl3 C25 1_555 1_555
C11 C12 1_555 1_555
C17 C18 1_555 1_555
C23 C24 1_555 1_555

#END
