
#######################################################################
#
#                 Cambridge Crystallographic Data Centre
#                                CCDC 
#
#######################################################################
#
# If this CIF has been generated from an entry in the Cambridge 
# Structural Database, then it will include bibliographic, chemical, 
# crystal, experimental, refinement or atomic coordinate data resulting 
# from the CCDC's data processing and validation procedures.
#
#######################################################################

data_HAKPUG
_chemical_formula_moiety         'C42 H70 O35,C14 H12 O2,11(H2 O1)'
_chemical_name_systematic        
'\b-Cyclodextrin biphenyl-4-ylacetic acid undecahydrate'
_symmetry_cell_setting           triclinic
_symmetry_space_group_name_H-M   'P 1'
_symmetry_Int_Tables_number      1
_space_group_name_Hall           'P 1'
loop_
_symmetry_equiv_pos_site_id
_symmetry_equiv_pos_as_xyz
1 x,y,z
_cell_length_a                   17.842(4)
_cell_length_b                   15.394(2)
_cell_length_c                   15.463(4)
_cell_angle_alpha                103.108(16)
_cell_angle_beta                 113.33(2)
_cell_angle_gamma                99.201(15)
_cell_volume                     3647.14
_cell_formula_units_Z            2
loop_
_atom_site_label
_atom_site_type_symbol
_atom_site_fract_x
_atom_site_fract_y
_atom_site_fract_z
C1 C 0.2006(3) -0.0015(4) 0.2423(4)
H1 H 0.1879 -0.0575 0.2598
C2 C 0.2727(3) -0.0027(4) 0.2122(4)
H2 H 0.2529 -0.0581 0.1544
C3 C 0.2897(3) 0.0818(4) 0.1795(4)
H3 H 0.3115 0.1385 0.2364
C4 C 0.2071(3) 0.0842(3) 0.0980(4)
H4 H 0.1889 0.0314 0.0381
C5 C 0.1377(3) 0.0809(4) 0.1305(4)
H5 H 0.1537 0.1376 0.1857
C6 C 0.0515(4) 0.0723(7) 0.0478(6)
H6 H 0.0099 0.0718 0.0735
H7 H 0.0553 0.1256 0.0246
C7 C 0.2035(3) 0.1668(3) -0.0218(4)
H8 H 0.1888 0.1024 -0.0636
C8 C 0.2830(3) 0.2239(3) -0.0197(4)
H9 H 0.2694 0.2266 -0.0868
C9 C 0.3059(3) 0.3226(3) 0.0500(4)
H10 H 0.3184 0.3207 0.1172
C10 C 0.2315(3) 0.3631(3) 0.0126(4)
H11 H 0.2241 0.3735 -0.0502
C11 C 0.1486(3) 0.2989(3) -0.0026(4)
H12 H 0.1523 0.2992 0.0624
C12 C 0.0705(3) 0.3278(4) -0.0587(4)
H13 H 0.0201 0.2842 -0.0680
H14 H 0.0741 0.3887 -0.0196
C13 C 0.2389(3) 0.5283(3) 0.0534(4)
H15 H 0.2204 0.5093 -0.0185
C14 C 0.3235(3) 0.6036(3) 0.1051(4)
H16 H 0.3150 0.6542 0.0769
C15 C 0.3512(3) 0.6432(3) 0.2155(4)
H17 H 0.3608 0.5944 0.2464
C16 C 0.2805(3) 0.6787(3) 0.2282(4)
H18 H 0.2717 0.7282 0.1982
C17 C 0.1979(3) 0.5986(3) 0.1764(4)
H19 H 0.2061 0.5500 0.2077
C18 C 0.1232(3) 0.6312(4) 0.1817(4)
H20 H 0.0714 0.5805 0.1432
H21 H 0.1322 0.6504 0.2501
C19 C 0.2989(3) 0.8070(3) 0.3660(4)
H22 H 0.2912 0.8358 0.3139
C20 C 0.3835(3) 0.8610(3) 0.4564(4)
H23 H 0.3813 0.9247 0.4808
C21 C 0.3950(3) 0.8168(3) 0.5380(4)
H24 H 0.3989 0.7536 0.5153
C22 C 0.3196(3) 0.8126(3) 0.5612(4)
H25 H 0.3211 0.8756 0.5943
C23 C 0.2340(3) 0.7671(4) 0.4666(4)
H26 H 0.2272 0.7005 0.4416
C24 C 0.1588(4) 0.7808(4) 0.4842(4)
H27 H 0.1071 0.7504 0.4227
H28 H 0.1559 0.7518 0.5327
C25 C 0.3252(3) 0.7975(4) 0.7179(4)
H29 H 0.3259 0.8628 0.7275
C26 C 0.4040(3) 0.7906(3) 0.8031(4)
H30 H 0.4019 0.8175 0.8657
C27 C 0.4015(3) 0.6892(3) 0.7907(4)
H31 H 0.4047 0.6611 0.7292
C28 C 0.3190(3) 0.6375(3) 0.7863(4)
H32 H 0.3184 0.6605 0.8505
C29 C 0.2424(3) 0.6507(4) 0.7037(4)
H33 H 0.2391 0.6203 0.6388
C30 C 0.1605(3) 0.6110(4) 0.7060(5)
H34 H 0.1549 0.5465 0.7028
H35 H 0.1624 0.6445 0.7684
C31 C 0.3066(3) 0.4953(3) 0.8313(4)
H36 H 0.3127 0.5417 0.8905
C32 C 0.3774(3) 0.4474(3) 0.8619(4)
H37 H 0.3694 0.4136 0.9056
C33 C 0.3681(3) 0.3772(4) 0.7693(4)
H38 H 0.3735 0.4091 0.7230
C34 C 0.2814(3) 0.3068(3) 0.7201(4)
H39 H 0.2778 0.2710 0.7639
C35 C 0.2108(3) 0.3569(3) 0.6983(4)
H40 H 0.2090 0.3851 0.6470
C36 C 0.1239(3) 0.2903(4) 0.6643(4)
H41 H 0.0828 0.3255 0.6599
H42 H 0.1058 0.2476 0.5985
C37 C 0.2460(3) 0.1479(4) 0.6134(4)
H43 H 0.2442 0.1385 0.6732
C38 C 0.3151(3) 0.1078(3) 0.5965(4)
H44 H 0.3009 0.0416 0.5894
C39 C 0.3170(3) 0.1169(3) 0.5020(4)
H45 H 0.3294 0.1826 0.5066
C40 C 0.2290(3) 0.0640(3) 0.4152(4)
H46 H 0.2175 -0.0024 0.4074
C41 C 0.1609(3) 0.1028(4) 0.4361(4)
H47 H 0.1677 0.1664 0.4334
C42 C 0.0718(4) 0.0440(5) 0.3621(5)
H48 H 0.0312 0.0744 0.3728
H49 H 0.0644 0.0384 0.2953
O1 O 0.2293(2) 0.0787(2) 0.3275(3)
O2 O 0.3467(2) -0.0097(3) 0.2881(3)
H121 H 0.3576 0.0279 0.3414
O3 O 0.3499(2) 0.0772(3) 0.1409(3)
H122 H 0.3395 0.0239 0.1057
O4 O 0.1268(2) 0.0014(3) 0.1641(3)
O5 O 0.2239(2) 0.1696(2) 0.0770(3)
O6 O 0.3505(2) 0.1824(3) 0.0099(3)
H123 H 0.3535 0.1662 0.0579
O7 O 0.3789(2) 0.3797(2) 0.0522(3)
H124 H 0.3939 0.4310 0.0937
O8 O 0.1345(2) 0.2051(2) -0.0609(3)
O9 O 0.0631(2) 0.3308(3) -0.1528(3)
H125 H 0.0497 0.3776 -0.1623
O10 O 0.2517(2) 0.4502(2) 0.0867(3)
O11 O 0.3861(2) 0.5695(2) 0.0852(3)
H126 H 0.4141 0.6091 0.0738
O12 O 0.4263(2) 0.7191(3) 0.2634(3)
H127 H 0.4674 0.6995 0.2676
O13 O 0.1755(2) 0.5605(2) 0.0728(3)
O14 O 0.1150(3) 0.7065(4) 0.1439(4)
H128 H 0.1155 0.6930 0.0898
O15 O 0.3039(2) 0.7146(2) 0.3314(2)
O16 O 0.4522(2) 0.8648(2) 0.4321(3)
H129 H 0.4458 0.8138 0.3951
O17 O 0.4699(2) 0.8690(3) 0.6284(3)
H130 H 0.5108 0.8787 0.6164
O18 O 0.2311(2) 0.8081(3) 0.3906(3)
O19 O 0.1639(3) 0.8773(3) 0.5192(3)
H131 H 0.1333 0.8925 0.4729
O20 O 0.3275(2) 0.7590(2) 0.6270(3)
O21 O 0.4803(2) 0.8413(3) 0.8086(3)
H132 H 0.4819 0.8217 0.7556
O22 O 0.4722(2) 0.6824(3) 0.8742(3)
H133 H 0.4723 0.7107 0.9261
O23 O 0.2509(2) 0.7478(3) 0.7174(3)
O24 O 0.0871(3) 0.6169(3) 0.6246(4)
H134 H 0.0745 0.6643 0.6430
O25 O 0.3159(2) 0.5406(2) 0.7643(3)
O26 O 0.4597(2) 0.5128(2) 0.9152(3)
H135 H 0.4623 0.5518 0.8873
O27 O 0.4316(2) 0.3285(2) 0.7944(3)
H136 H 0.4789 0.3660 0.8257
O28 O 0.2265(2) 0.4283(2) 0.7880(3)
O29 O 0.1249(3) 0.2381(3) 0.7306(4)
H137 H 0.1065 0.2623 0.7680
O30 O 0.2697(2) 0.2455(2) 0.6280(3)
O31 O 0.3962(2) 0.1522(3) 0.6796(3)
H138 H 0.4041 0.1233 0.7194
O32 O 0.3775(2) 0.0784(3) 0.4828(3)
H139 H 0.4171 0.0826 0.5355
O33 O 0.1668(2) 0.1025(3) 0.5317(3)
O34 O 0.0551(3) -0.0484(3) 0.3717(4)
H140 H 0.0037 -0.0728 0.3442
O96 O 0.0270(4) -0.0031(5) -0.0257(6)
H164 H 0.0481 -0.0423 -0.0050
C43 C 0.6725(4) 0.1987(4) 0.2062(4)
H50 H 0.6736 0.1902 0.1421
C44 C 0.5931(4) 0.1313(4) 0.1908(4)
H51 H 0.5950 0.0681 0.1639
C45 C 0.5910(3) 0.1414(3) 0.2889(4)
H52 H 0.5882 0.2041 0.3163
C46 C 0.6717(3) 0.1256(4) 0.3610(4)
H53 H 0.6708 0.0603 0.3385
C47 C 0.7522(4) 0.1885(4) 0.3697(4)
H54 H 0.7588 0.2531 0.4045
C48 C 0.8311(4) 0.1616(5) 0.4243(6)
H55 H 0.8801 0.2030 0.4279
H56 H 0.8396 0.1680 0.4917
C49 C 0.6995(3) 0.5451(3) 0.1954(4)
H57 H 0.7064 0.5941 0.1660
C50 C 0.6139(3) 0.4729(4) 0.1260(4)
H58 H 0.6122 0.4460 0.0612
C51 C 0.6041(3) 0.3971(4) 0.1719(4)
H59 H 0.6038 0.4241 0.2355
C52 C 0.6775(3) 0.3539(4) 0.1897(4)
H60 H 0.6741 0.3198 0.1259
C53 C 0.7629(3) 0.4290(4) 0.2513(4)
H61 H 0.7699 0.4553 0.3189
C54 C 0.8375(3) 0.3907(4) 0.2560(5)
H62 H 0.8896 0.4412 0.2914
H63 H 0.8422 0.3470 0.2931
C55 C 0.7565(3) 0.8500(4) 0.4839(4)
H64 H 0.7735 0.9181 0.5093
C56 C 0.6736(3) 0.8163(4) 0.3870(4)
H65 H 0.6824 0.8446 0.3398
C57 C 0.6495(3) 0.7112(3) 0.3422(4)
H66 H 0.6382 0.6816 0.3873
C58 C 0.7226(3) 0.6844(3) 0.3264(4)
H67 H 0.7323 0.7114 0.2788
C59 C 0.8033(3) 0.7196(4) 0.4263(4)
H68 H 0.7938 0.6904 0.4726
C60 C 0.8816(4) 0.7028(5) 0.4182(6)
H69 H 0.9300 0.7278 0.4835
H70 H 0.8737 0.6365 0.3943
C61 C 0.7886(3) 0.8973(3) 0.8461(4)
H71 H 0.8031 0.9336 0.9142
C62 C 0.7096(3) 0.9156(3) 0.7738(4)
H72 H 0.7225 0.9813 0.7783
C63 C 0.6872(3) 0.8560(4) 0.6692(4)
H73 H 0.6737 0.7902 0.6642
C64 C 0.7624(3) 0.8797(3) 0.6480(4)
H74 H 0.7711 0.9428 0.6438
C65 C 0.8437(3) 0.8723(3) 0.7279(4)
H75 H 0.8383 0.8067 0.7229
C66 C 0.9228(3) 0.9115(4) 0.7176(4)
H76 H 0.9730 0.9080 0.7713
H77 H 0.9191 0.8752 0.6552
C67 C 0.7847(3) 0.6298(3) 1.0107(4)
H78 H 0.7977 0.6125 1.0713
C68 C 0.7167(3) 0.6811(4) 0.9964(4)
H79 H 0.7378 0.7353 1.0559
C69 C 0.6990(3) 0.7151(4) 0.9073(4)
H80 H 0.6761 0.6615 0.8470
C70 C 0.7835(3) 0.7752(4) 0.9216(4)
H81 H 0.8055 0.8306 0.9800
C71 C 0.8480(3) 0.7188(4) 0.9355(4)
H82 H 0.8264 0.6652 0.8754
C72 C 0.9343(4) 0.7739(5) 0.9560(6)
H83 H 0.9737 0.7363 0.9681
H84 H 0.9308 0.7932 0.8994
C73 C 0.7283(3) 0.2661(3) 0.8618(4)
H85 H 0.7270 0.2040 0.8680
C74 C 0.6607(3) 0.2988(3) 0.8853(4)
H86 H 0.6724 0.3017 0.9535
C75 C 0.6616(3) 0.3956(3) 0.8747(4)
H87 H 0.6497 0.3929 0.8064
C76 C 0.7501(3) 0.4605(3) 0.9466(4)
H88 H 0.7598 0.4690 1.0153
C77 C 0.8190(3) 0.4235(3) 0.9294(4)
H89 H 0.8154 0.4265 0.8652
C78 C 0.9086(3) 0.4756(4) 1.0109(5)
H90 H 0.9491 0.4486 0.9956
H91 H 0.9211 0.5399 1.0128
C79 C 0.6755(3) 0.0756(3) 0.5002(4)
H92 H 0.6687 0.0177 0.4519
C80 C 0.6022(3) 0.0626(3) 0.5271(4)
H93 H 0.6022 0.0110 0.5543
C81 C 0.6123(3) 0.1484(3) 0.6038(4)
H94 H 0.6097 0.1997 0.5759
C82 C 0.6976(3) 0.1733(3) 0.6945(4)
H95 H 0.6983 0.1253 0.7267
C83 C 0.7697(3) 0.1808(3) 0.6631(4)
H96 H 0.7715 0.2328 0.6366
C84 C 0.8565(3) 0.1965(4) 0.7480(4)
H97 H 0.8983 0.1964 0.7226
H98 H 0.8725 0.2570 0.7966
O35 O 0.6702(2) 0.2914(2) 0.2437(3)
O36 O 0.5193(3) 0.1462(3) 0.1205(3)
H141 H 0.5234 0.1430 0.0689
O37 O 0.5159(2) 0.0741(3) 0.2714(3)
H142 H 0.5150 0.0767 0.3245
O38 O 0.7468(3) 0.1816(3) 0.2731(3)
O39 O 0.8240(4) 0.0675(4) 0.3749(4)
H143 H 0.8708 0.0631 0.3808
O40 O 0.7003(2) 0.5850(2) 0.2883(3)
O41 O 0.5469(2) 0.5171(3) 0.1138(3)
H144 H 0.5352 0.5338 0.0644
O42 O 0.5261(2) 0.3252(2) 0.1072(3)
H145 H 0.4902 0.3479 0.0755
O43 O 0.7666(2) 0.5026(2) 0.2075(3)
O44 O 0.8285(3) 0.3456(3) 0.1607(4)
H146 H 0.8445 0.3843 0.1384
O45 O 0.7420(2) 0.8143(2) 0.5539(3)
O46 O 0.6087(2) 0.8458(2) 0.4069(3)
H147 H 0.6298 0.8823 0.4636
O47 O 0.5735(2) 0.6848(3) 0.2493(3)
H148 H 0.5689 0.6337 0.2140
O48 O 0.8218(2) 0.8196(3) 0.4668(3)
O49 O 0.8987(5) 0.7443(5) 0.3531(6)
H149 H 0.9096 0.7073 0.3157
O50 O 0.7682(2) 0.8020(2) 0.8355(3)
O51 O 0.6410(2) 0.8939(3) 0.7970(3)
H150 H 0.6370 0.9418 0.8289
O52 O 0.6143(2) 0.8741(3) 0.6001(3)
H151 H 0.5841 0.8260 0.5544
O53 O 0.8581(2) 0.9233(2) 0.8255(3)
O54 O 0.9292(3) 1.0045(3) 0.7207(4)
H152 H 0.9730 1.0265 0.7181
O55 O 0.7513(2) 0.5476(2) 0.9273(3)
O56 O 0.6432(3) 0.6227(3) 0.9876(3)
H153 H 0.6230 0.5786 0.9362
O57 O 0.6379(2) 0.7663(3) 0.8992(3)
H154 H 0.6388 0.7978 0.8632
O58 O 0.8600(2) 0.6860(3) 1.0193(3)
O59 O 0.9625(4) 0.8530(4) 1.0414(5)
H155 H 0.9863 0.8985 1.0333
O60 O 0.7100(2) 0.2612(2) 0.7630(3)
O61 O 0.5797(2) 0.2346(3) 0.8177(3)
H156 H 0.5582 0.2127 0.8489
O62 O 0.5994(2) 0.4283(2) 0.8983(3)
H157 H 0.6074 0.4839 0.9049
O63 O 0.8101(2) 0.3279(2) 0.9299(3)
O64 O 0.9183(3) 0.4724(3) 1.1060(3)
H158 H 0.9285 0.5250 1.1424
O65 O 0.6736(2) 0.1473(2) 0.4564(3)
O66 O 0.5241(2) 0.0397(3) 0.4388(3)
H159 H 0.4958 -0.0128 0.4271
O67 O 0.5430(2) 0.1314(3) 0.6287(3)
H160 H 0.5564 0.1670 0.6840
O68 O 0.7541(2) 0.0971(2) 0.5867(3)
O69 O 0.8575(2) 0.1267(3) 0.7955(3)
H161 H 0.8688 0.0828 0.7670
C85 C 0.0499(6) 0.4266(8) 0.4412(8)
C86 C 0.0439(7) 0.3684(14) 0.3439(9)
H99 H 0.0129 0.3913 0.2908
H100 H 0.0130 0.3045 0.3279
C87 C 0.1324(6) 0.3725(8) 0.3520(7)
C88 C 0.1964(7) 0.3556(7) 0.4318(7)
H101 H 0.1845 0.3452 0.4825
C89 C 0.2755(6) 0.3539(6) 0.4377(7)
H102 H 0.3158 0.3430 0.4915
C90 C 0.2938(5) 0.3687(5) 0.3621(5)
C91 C 0.2324(7) 0.3821(8) 0.2841(8)
H103 H 0.2445 0.3917 0.2332
C92 C 0.1528(7) 0.3823(10) 0.2765(9)
H104 H 0.1122 0.3891 0.2199
C93 C 0.3792(5) 0.3666(5) 0.3659(5)
C94 C 0.4257(6) 0.3086(6) 0.4073(6)
H105 H 0.4023 0.2678 0.4321
C95 C 0.5036(7) 0.3103(7) 0.4123(8)
H106 H 0.5338 0.2732 0.4434
C96 C 0.5389(7) 0.3665(7) 0.3717(7)
H107 H 0.5915 0.3660 0.3737
C97 C 0.4942(7) 0.4240(7) 0.3278(9)
H108 H 0.5175 0.4636 0.3020
C98 C 0.4150(6) 0.4215(6) 0.3232(7)
H109 H 0.3842 0.4574 0.2906
O70 O 0.0626(5) 0.5161(7) 0.4490(6)
H162 H 0.0244 0.5344 0.4570
O71 O 0.0431(7) 0.3975(7) 0.5024(8)
C99 C 1.0070(6) 0.5365(5) 0.7826(6)
C100 C 0.9397(5) 0.4871(6) 0.6774(7)
H110 H 0.9325 0.4208 0.6633
H111 H 0.9588 0.5066 0.6324
C101 C 0.8540(5) 0.5058(5) 0.6578(6)
C102 C 0.8351(5) 0.5842(6) 0.6339(7)
H112 H 0.8748 0.6259 0.6273
C103 C 0.7580(5) 0.6002(6) 0.6198(6)
H113 H 0.7470 0.6534 0.6049
C104 C 0.6958(5) 0.5387(5) 0.6274(6)
C105 C 0.7142(5) 0.4599(5) 0.6494(7)
H114 H 0.6737 0.4166 0.6530
C106 C 0.7924(6) 0.4451(5) 0.6659(6)
H115 H 0.8042 0.3930 0.6830
C107 C 0.6110(5) 0.5568(5) 0.6088(6)
C108 C 0.5750(6) 0.6058(6) 0.5443(7)
H116 H 0.6043 0.6279 0.5121
C109 C 0.4982(7) 0.6219(7) 0.5274(7)
H117 H 0.4756 0.6540 0.4836
C110 C 0.4538(6) 0.5906(7) 0.5753(8)
H118 H 0.4009 0.6004 0.5630
C111 C 0.4891(7) 0.5444(7) 0.6422(8)
H119 H 0.4600 0.5236 0.6753
C112 C 0.5675(6) 0.5290(6) 0.6599(7)
H120 H 0.5914 0.4997 0.7063
O72 O 1.0544(6) 0.5030(5) 0.8367(5)
O73 O 1.0170(4) 0.6270(4) 0.8098(5)
H163 H 1.0378 0.6479 0.8705
O74 O 0.0481(3) 0.0520(3) 0.6599(4)
O75 O 0.4584(3) 0.0241(3) 0.7605(4)
O76 O 0.4473(3) 0.7291(4) 0.0509(4)
O77 O 0.1654(3) 0.9521(4) 0.6948(4)
O78 O 0.0297(3) 0.8082(3) 0.2122(4)
O79 O 0.0597(3) 0.7826(4) 0.6843(4)
O80 O 0.3328(4) 0.0437(5) 0.8392(4)
O81 O 0.9573(4) 0.6459(4) 0.2348(4)
O82 O 0.5336(4) 0.8889(4) 0.2343(4)
O83 O 0.9447(3) 0.9706(4) 0.4559(5)
O84 O 0.1361(3) 0.7307(4) 0.9854(4)
O85 O 0.4833(5) 0.2146(5) 0.9146(5)
O86 O 0.2919(4) 0.7730(4) 0.9866(5)
O87 O 0.9036(5) 0.1866(9) 0.9937(5)
O88 O 0.1085(4) 0.8663(5) 0.8944(5)
O89 O 0.6262(6) 0.9095(5) 0.0477(6)
O90 O 0.2946(8) 0.9412(5) 0.9559(6)
O91 O 0.6308(5) 0.7585(5) 0.1241(6)
O92 O 0.7951(10) 0.1614(6) 0.0759(9)
O93 O 0.7981(7) 0.0148(7) 0.1772(7)
O94 O 0.6557(9) 0.0632(6) 0.9082(10)
O95 O 0.5263(9) 0.0172(9) 0.9657(7)
H165? H -0.0097 0.0939 0.1148
H166? H 0.0527 0.1309 0.0344
H167? H 0.0417 0.0254 -0.0122
O97? O -0.0140(6) 0.0506(12) 0.0694(9)
loop_
_geom_bond_atom_site_label_1
_geom_bond_atom_site_label_2
_geom_bond_site_symmetry_1
_geom_bond_site_symmetry_2
C1 H1 1_555 1_555
C2 C1 1_555 1_555
H2 C2 1_555 1_555
C3 C2 1_555 1_555
H3 C3 1_555 1_555
C4 C3 1_555 1_555
H4 C4 1_555 1_555
C5 C4 1_555 1_555
H5 C5 1_555 1_555
C6 C5 1_555 1_555
H6 C6 1_555 1_555
H7 C6 1_555 1_555
C7 H8 1_555 1_555
C8 C7 1_555 1_555
H9 C8 1_555 1_555
C9 C8 1_555 1_555
H10 C9 1_555 1_555
C10 C9 1_555 1_555
H11 C10 1_555 1_555
C11 C10 1_555 1_555
H12 C11 1_555 1_555
C12 C11 1_555 1_555
H13 C12 1_555 1_555
H14 C12 1_555 1_555
C13 H15 1_555 1_555
C14 C13 1_555 1_555
H16 C14 1_555 1_555
C15 C14 1_555 1_555
H17 C15 1_555 1_555
C16 C15 1_555 1_555
H18 C16 1_555 1_555
C17 C16 1_555 1_555
H19 C17 1_555 1_555
C18 C17 1_555 1_555
H20 C18 1_555 1_555
H21 C18 1_555 1_555
C19 H22 1_555 1_555
C20 C19 1_555 1_555
H23 C20 1_555 1_555
C21 C20 1_555 1_555
H24 C21 1_555 1_555
C22 C21 1_555 1_555
H25 C22 1_555 1_555
C23 C22 1_555 1_555
H26 C23 1_555 1_555
C24 C23 1_555 1_555
H27 C24 1_555 1_555
H28 C24 1_555 1_555
C25 H29 1_555 1_555
C26 C25 1_555 1_555
H30 C26 1_555 1_555
C27 C26 1_555 1_555
H31 C27 1_555 1_555
C28 C27 1_555 1_555
H32 C28 1_555 1_555
C29 C28 1_555 1_555
H33 C29 1_555 1_555
C30 C29 1_555 1_555
H34 C30 1_555 1_555
H35 C30 1_555 1_555
C31 H36 1_555 1_555
C32 C31 1_555 1_555
H37 C32 1_555 1_555
C33 C32 1_555 1_555
H38 C33 1_555 1_555
C34 C33 1_555 1_555
H39 C34 1_555 1_555
C35 C34 1_555 1_555
H40 C35 1_555 1_555
C36 C35 1_555 1_555
H41 C36 1_555 1_555
H42 C36 1_555 1_555
C37 H43 1_555 1_555
C38 C37 1_555 1_555
H44 C38 1_555 1_555
C39 C38 1_555 1_555
H45 C39 1_555 1_555
C40 C39 1_555 1_555
H46 C40 1_555 1_555
C41 C40 1_555 1_555
H47 C41 1_555 1_555
C42 C41 1_555 1_555
H48 C42 1_555 1_555
H49 C42 1_555 1_555
C43 H50 1_555 1_555
C44 C43 1_555 1_555
H51 C44 1_555 1_555
C45 C44 1_555 1_555
H52 C45 1_555 1_555
C46 C45 1_555 1_555
H53 C46 1_555 1_555
C47 C46 1_555 1_555
H54 C47 1_555 1_555
C48 C47 1_555 1_555
H55 C48 1_555 1_555
H56 C48 1_555 1_555
C49 H57 1_555 1_555
C50 C49 1_555 1_555
H58 C50 1_555 1_555
C51 C50 1_555 1_555
H59 C51 1_555 1_555
C52 C51 1_555 1_555
H60 C52 1_555 1_555
C53 C52 1_555 1_555
H61 C53 1_555 1_555
C54 C53 1_555 1_555
H62 C54 1_555 1_555
H63 C54 1_555 1_555
C55 H64 1_555 1_555
C56 C55 1_555 1_555
H65 C56 1_555 1_555
C57 C56 1_555 1_555
H66 C57 1_555 1_555
C58 C57 1_555 1_555
H67 C58 1_555 1_555
C59 C58 1_555 1_555
H68 C59 1_555 1_555
C60 C59 1_555 1_555
H69 C60 1_555 1_555
H70 C60 1_555 1_555
C61 H71 1_555 1_555
C62 C61 1_555 1_555
H72 C62 1_555 1_555
C63 C62 1_555 1_555
H73 C63 1_555 1_555
C64 C63 1_555 1_555
H74 C64 1_555 1_555
C65 C64 1_555 1_555
H75 C65 1_555 1_555
C66 C65 1_555 1_555
H76 C66 1_555 1_555
H77 C66 1_555 1_555
C67 H78 1_555 1_555
C68 C67 1_555 1_555
H79 C68 1_555 1_555
C69 C68 1_555 1_555
H80 C69 1_555 1_555
C70 C69 1_555 1_555
H81 C70 1_555 1_555
C71 C70 1_555 1_555
H82 C71 1_555 1_555
C72 C71 1_555 1_555
H83 C72 1_555 1_555
H84 C72 1_555 1_555
C73 H85 1_555 1_555
C74 C73 1_555 1_555
H86 C74 1_555 1_555
C75 C74 1_555 1_555
H87 C75 1_555 1_555
C76 C75 1_555 1_555
H88 C76 1_555 1_555
C77 C76 1_555 1_555
H89 C77 1_555 1_555
C78 C77 1_555 1_555
H90 C78 1_555 1_555
H91 C78 1_555 1_555
C79 H92 1_555 1_555
C80 C79 1_555 1_555
H93 C80 1_555 1_555
C81 C80 1_555 1_555
H94 C81 1_555 1_555
C82 C81 1_555 1_555
H95 C82 1_555 1_555
C83 C82 1_555 1_555
H96 C83 1_555 1_555
C84 C83 1_555 1_555
H97 C84 1_555 1_555
H98 C84 1_555 1_555
C85 C86 1_555 1_555
C86 H99 1_555 1_555
H100 C86 1_555 1_555
C87 C86 1_555 1_555
C88 C87 1_555 1_555
H101 C88 1_555 1_555
C89 C88 1_555 1_555
H102 C89 1_555 1_555
C90 C89 1_555 1_555
C91 C90 1_555 1_555
H103 C91 1_555 1_555
C92 C87 1_555 1_555
H104 C92 1_555 1_555
C93 C90 1_555 1_555
C94 C93 1_555 1_555
H105 C94 1_555 1_555
C95 C94 1_555 1_555
H106 C95 1_555 1_555
C96 C95 1_555 1_555
H107 C96 1_555 1_555
C97 C96 1_555 1_555
H108 C97 1_555 1_555
C98 C93 1_555 1_555
H109 C98 1_555 1_555
C99 C100 1_555 1_555
C100 H110 1_555 1_555
H111 C100 1_555 1_555
C101 C100 1_555 1_555
C102 C101 1_555 1_555
H112 C102 1_555 1_555
C103 C102 1_555 1_555
H113 C103 1_555 1_555
C104 C103 1_555 1_555
C105 C104 1_555 1_555
H114 C105 1_555 1_555
C106 C101 1_555 1_555
H115 C106 1_555 1_555
C107 C104 1_555 1_555
C108 C107 1_555 1_555
H116 C108 1_555 1_555
C109 C108 1_555 1_555
H117 C109 1_555 1_555
C110 C109 1_555 1_555
H118 C110 1_555 1_555
C111 C110 1_555 1_555
H119 C111 1_555 1_555
C112 C107 1_555 1_555
H120 C112 1_555 1_555
O1 C1 1_555 1_555
O2 C2 1_555 1_555
H121 O2 1_555 1_555
O3 C3 1_555 1_555
H122 O3 1_555 1_555
O4 C1 1_555 1_555
O5 C4 1_555 1_555
O6 C8 1_555 1_555
H123 O6 1_555 1_555
O7 C9 1_555 1_555
H124 O7 1_555 1_555
O8 C7 1_555 1_555
O9 C12 1_555 1_555
H125 O9 1_555 1_555
O10 C10 1_555 1_555
O11 C14 1_555 1_555
H126 O11 1_555 1_555
O12 C15 1_555 1_555
H127 O12 1_555 1_555
O13 C13 1_555 1_555
O14 C18 1_555 1_555
H128 O14 1_555 1_555
O15 C16 1_555 1_555
O16 C20 1_555 1_555
H129 O16 1_555 1_555
O17 C21 1_555 1_555
H130 O17 1_555 1_555
O18 C19 1_555 1_555
O19 C24 1_555 1_555
H131 O19 1_555 1_555
O20 C22 1_555 1_555
O21 C26 1_555 1_555
H132 O21 1_555 1_555
O22 C27 1_555 1_555
H133 O22 1_555 1_555
O23 C25 1_555 1_555
O24 C30 1_555 1_555
H134 O24 1_555 1_555
O25 C28 1_555 1_555
O26 C32 1_555 1_555
H135 O26 1_555 1_555
O27 C33 1_555 1_555
H136 O27 1_555 1_555
O28 C31 1_555 1_555
O29 C36 1_555 1_555
H137 O29 1_555 1_555
O30 C34 1_555 1_555
O31 C38 1_555 1_555
H138 O31 1_555 1_555
O32 C39 1_555 1_555
H139 O32 1_555 1_555
O33 C37 1_555 1_555
O34 C42 1_555 1_555
H140 O34 1_555 1_555
O35 C43 1_555 1_555
O36 C44 1_555 1_555
H141 O36 1_555 1_555
O37 C45 1_555 1_555
H142 O37 1_555 1_555
O38 C43 1_555 1_555
O39 C48 1_555 1_555
H143 O39 1_555 1_555
O40 C49 1_555 1_555
O41 C50 1_555 1_555
H144 O41 1_555 1_555
O42 C51 1_555 1_555
H145 O42 1_555 1_555
O43 C49 1_555 1_555
O44 C54 1_555 1_555
H146 O44 1_555 1_555
O45 C55 1_555 1_555
O46 C56 1_555 1_555
H147 O46 1_555 1_555
O47 C57 1_555 1_555
H148 O47 1_555 1_555
O48 C55 1_555 1_555
O49 C60 1_555 1_555
H149 O49 1_555 1_555
O50 C61 1_555 1_555
O51 C62 1_555 1_555
H150 O51 1_555 1_555
O52 C63 1_555 1_555
H151 O52 1_555 1_555
O53 C61 1_555 1_555
O54 C66 1_555 1_555
H152 O54 1_555 1_555
O55 C67 1_555 1_555
O56 C68 1_555 1_555
H153 O56 1_555 1_555
O57 C69 1_555 1_555
H154 O57 1_555 1_555
O58 C67 1_555 1_555
O59 C72 1_555 1_555
H155 O59 1_555 1_555
O60 C73 1_555 1_555
O61 C74 1_555 1_555
H156 O61 1_555 1_555
O62 C75 1_555 1_555
H157 O62 1_555 1_555
O63 C73 1_555 1_555
O64 C78 1_555 1_555
H158 O64 1_555 1_555
O65 C46 1_555 1_555
O66 C80 1_555 1_555
H159 O66 1_555 1_555
O67 C81 1_555 1_555
H160 O67 1_555 1_555
O68 C79 1_555 1_555
O69 C84 1_555 1_555
H161 O69 1_555 1_555
O70 C85 1_555 1_555
H162 O70 1_555 1_555
O71 C85 1_555 1_555
O72 C99 1_555 1_555
O73 C99 1_555 1_555
H163 O73 1_555 1_555
O96 C6 1_555 1_555
H164 O96 1_555 1_555
C5 O4 1_555 1_555
C7 O5 1_555 1_555
C11 O8 1_555 1_555
C13 O10 1_555 1_555
C17 O13 1_555 1_555
C19 O15 1_555 1_555
C23 O18 1_555 1_555
C25 O20 1_555 1_555
C29 O23 1_555 1_555
C31 O25 1_555 1_555
C35 O28 1_555 1_555
C37 O30 1_555 1_555
C40 O1 1_555 1_555
C41 O33 1_555 1_555
C47 O38 1_555 1_555
C52 O35 1_555 1_555
C53 O43 1_555 1_555
C58 O40 1_555 1_555
C59 O48 1_555 1_555
C64 O45 1_555 1_555
C65 O53 1_555 1_555
C70 O50 1_555 1_555
C71 O58 1_555 1_555
C76 O55 1_555 1_555
C77 O63 1_555 1_555
C79 O65 1_555 1_555
C82 O60 1_555 1_555
C83 O68 1_555 1_555
C91 C92 1_555 1_555
C97 C98 1_555 1_555
C105 C106 1_555 1_555
C111 C112 1_555 1_555

#END
