
#######################################################################
#
#                 Cambridge Crystallographic Data Centre
#                                CCDC 
#
#######################################################################
#
# If this CIF has been generated from an entry in the Cambridge 
# Structural Database, then it will include bibliographic, chemical, 
# crystal, experimental, refinement or atomic coordinate data resulting 
# from the CCDC's data processing and validation procedures.
#
#######################################################################

data_HAKRUJ
_chemical_formula_moiety         'C25 H22 P1 1+,C1 H2 Cl2,Br1 1-'
_chemical_name_systematic        
'(4-methylphenyl)(triphenyl)phosphonium bromide dichloromethane solvate'
_symmetry_cell_setting           triclinic
_symmetry_space_group_name_H-M   'P -1'
_symmetry_Int_Tables_number      2
_space_group_name_Hall           '-P 1'
loop_
_symmetry_equiv_pos_site_id
_symmetry_equiv_pos_as_xyz
1 x,y,z
2 -x,-y,-z
_cell_length_a                   10.447(17)
_cell_length_b                   13.59(2)
_cell_length_c                   17.75(3)
_cell_angle_alpha                90.65(2)
_cell_angle_beta                 90.83(2)
_cell_angle_gamma                95.84(2)
_cell_volume                     2506.5
_exptl_crystal_colour            colorless
_exptl_crystal_description       block
_cell_formula_units_Z            4
loop_
_atom_site_label
_atom_site_type_symbol
_atom_site_fract_x
_atom_site_fract_y
_atom_site_fract_z
Br1 Br 0.87862(7) 0.61135(5) 0.35174(4)
Br2 Br 0.37787(6) 0.10904(5) 0.14620(4)
P1 P 0.44270(14) 0.53821(10) 0.18133(8)
C1 C 0.4058(5) 0.5506(4) 0.2815(3)
C2 C 0.2761(6) 0.5555(4) 0.3049(3)
H1 H 0.2082 0.5484 0.2685
C3 C 0.2479(6) 0.5705(4) 0.3809(4)
H2 H 0.1610 0.5730 0.3954
C4 C 0.3466(6) 0.5820(4) 0.4359(3)
C5 C 0.4757(6) 0.5775(4) 0.4130(3)
H3 H 0.5432 0.5856 0.4497
C6 C 0.5059(6) 0.5612(4) 0.3364(3)
H4 H 0.5926 0.5574 0.3221
C7 C 0.4819(5) 0.6584(4) 0.1401(3)
C8 C 0.5546(6) 0.6704(4) 0.0727(3)
H5 H 0.5888 0.6145 0.0513
C9 C 0.5768(6) 0.7604(5) 0.0377(4)
H6 H 0.6243 0.7663 -0.0076
C10 C 0.5282(7) 0.8425(5) 0.0701(4)
H7 H 0.5426 0.9050 0.0466
C11 C 0.4578(7) 0.8341(5) 0.1378(4)
H8 H 0.4258 0.8910 0.1592
C12 C 0.4346(6) 0.7421(4) 0.1739(3)
H9 H 0.3885 0.7365 0.2196
C13 C 0.3039(5) 0.4748(4) 0.1334(3)
C14 C 0.2416(6) 0.3866(4) 0.1667(4)
H10 H 0.2670 0.3666 0.2153
C15 C 0.1437(6) 0.3310(5) 0.1262(4)
H11 H 0.1021 0.2726 0.1474
C16 C 0.1063(6) 0.3601(5) 0.0552(4)
H12 H 0.0398 0.3210 0.0283
C17 C 0.1644(6) 0.4457(5) 0.0228(4)
H13 H 0.1362 0.4648 -0.0255
C18 C 0.2647(6) 0.5043(4) 0.0609(3)
H14 H 0.3052 0.5623 0.0385
C19 C 0.5772(5) 0.4672(4) 0.1661(3)
C20 C 0.7044(5) 0.5047(4) 0.1875(3)
H15 H 0.7198 0.5691 0.2092
C21 C 0.8066(6) 0.4485(5) 0.1769(3)
H16 H 0.8914 0.4743 0.1914
C22 C 0.7844(6) 0.3539(5) 0.1449(4)
H17 H 0.8541 0.3152 0.1378
C23 C 0.6597(6) 0.3162(4) 0.1235(4)
H18 H 0.6458 0.2522 0.1011
C24 C 0.5560(6) 0.3703(4) 0.1342(3)
H19 H 0.4715 0.3430 0.1204
C25 C 0.3168(11) 0.6044(7) 0.5169(5)
H20 H 0.2236 0.6049 0.5223
H21 H 0.3600 0.6693 0.5316
H22 H 0.3473 0.5536 0.5495
P2 P -0.05779(14) 0.03811(10) 0.31760(8)
C26 C -0.0962(5) 0.0492(4) 0.2181(3)
C27 C 0.0041(6) 0.0607(4) 0.1623(3)
H23 H 0.0913 0.0573 0.1771
C28 C -0.0268(6) 0.0767(4) 0.0872(4)
H24 H 0.0400 0.0845 0.0513
C29 C -0.1542(6) 0.0814(4) 0.0636(4)
C30 C -0.2542(6) 0.0685(4) 0.1179(3)
H25 H -0.3414 0.0695 0.1022
C31 C -0.2250(6) 0.0544(4) 0.1934(4)
H26 H -0.2923 0.0482 0.2291
C32 C -0.1966(5) -0.0256(4) 0.3658(3)
C33 C -0.2586(6) -0.1125(4) 0.3331(4)
H27 H -0.2358 -0.1331 0.2842
C34 C -0.3555(6) -0.1693(5) 0.3735(4)
H28 H -0.3958 -0.2290 0.3518
C35 C -0.3927(6) -0.1388(5) 0.4450(4)
H29 H -0.4576 -0.1777 0.4715
C36 C -0.3346(6) -0.0520(5) 0.4768(4)
H30 H -0.3615 -0.0304 0.5245
C37 C -0.2339(6) 0.0058(4) 0.4382(3)
H31 H -0.1925 0.0645 0.4608
C38 C -0.0179(6) 0.1583(4) 0.3590(3)
C39 C 0.0541(6) 0.1699(4) 0.4266(3)
H32 H 0.0873 0.1141 0.4485
C40 C 0.0773(7) 0.2614(5) 0.4618(4)
H33 H 0.1258 0.2687 0.5076
C41 C 0.0279(7) 0.3435(5) 0.4286(4)
H34 H 0.0423 0.4063 0.4530
C42 C -0.0413(7) 0.3347(5) 0.3610(4)
H35 H -0.0728 0.3914 0.3393
C43 C -0.0648(6) 0.2425(4) 0.3248(4)
H36 H -0.1112 0.2361 0.2782
C44 C 0.0779(5) -0.0329(4) 0.3326(3)
C45 C 0.2034(5) 0.0046(4) 0.3118(3)
H37 H 0.2178 0.0688 0.2911
C46 C 0.3053(6) -0.0518(5) 0.3214(4)
H38 H 0.3893 -0.0272 0.3064
C47 C 0.2830(6) -0.1454(5) 0.3535(4)
H39 H 0.3527 -0.1844 0.3602
C48 C 0.1597(6) -0.1825(5) 0.3757(4)
H40 H 0.1471 -0.2456 0.3985
C49 C 0.0562(6) -0.1286(4) 0.3650(3)
H41 H -0.0279 -0.1547 0.3788
C50 C -0.1868(12) 0.1015(8) -0.0164(5)
H42 H -0.1080 0.1080 -0.0460
H43 H -0.2280 0.1630 -0.0191
H44 H -0.2459 0.0467 -0.0368
C51 C 1.0085(7) 0.7562(5) 0.1861(4)
H45 H 0.9846 0.7308 0.2366
H46 H 1.0699 0.8162 0.1931
Cl1 Cl 1.08413(18) 0.66444(15) 0.13481(11)
Cl2 Cl 0.86887(19) 0.78733(15) 0.13752(11)
C52 C -0.4938(7) 0.2543(6) 0.3131(4)
H47 H -0.4327 0.3143 0.3074
H48 H -0.5188 0.2284 0.2620
Cl3 Cl -0.63268(19) 0.28594(15) 0.36066(12)
Cl4 Cl -0.41704(19) 0.16342(15) 0.36382(11)
loop_
_geom_bond_atom_site_label_1
_geom_bond_atom_site_label_2
_geom_bond_site_symmetry_1
_geom_bond_site_symmetry_2
P1 C1 1_555 1_555
C1 C2 1_555 1_555
C2 H1 1_555 1_555
C3 C2 1_555 1_555
H2 C3 1_555 1_555
C4 C3 1_555 1_555
C5 C4 1_555 1_555
H3 C5 1_555 1_555
C6 C1 1_555 1_555
H4 C6 1_555 1_555
C7 P1 1_555 1_555
C8 C7 1_555 1_555
H5 C8 1_555 1_555
C9 C8 1_555 1_555
H6 C9 1_555 1_555
C10 C9 1_555 1_555
H7 C10 1_555 1_555
C11 C10 1_555 1_555
H8 C11 1_555 1_555
C12 C7 1_555 1_555
H9 C12 1_555 1_555
C13 P1 1_555 1_555
C14 C13 1_555 1_555
H10 C14 1_555 1_555
C15 C14 1_555 1_555
H11 C15 1_555 1_555
C16 C15 1_555 1_555
H12 C16 1_555 1_555
C17 C16 1_555 1_555
H13 C17 1_555 1_555
C18 C13 1_555 1_555
H14 C18 1_555 1_555
C19 P1 1_555 1_555
C20 C19 1_555 1_555
H15 C20 1_555 1_555
C21 C20 1_555 1_555
H16 C21 1_555 1_555
C22 C21 1_555 1_555
H17 C22 1_555 1_555
C23 C22 1_555 1_555
H18 C23 1_555 1_555
C24 C19 1_555 1_555
H19 C24 1_555 1_555
C25 C4 1_555 1_555
H20 C25 1_555 1_555
H21 C25 1_555 1_555
H22 C25 1_555 1_555
P2 C26 1_555 1_555
C26 C27 1_555 1_555
C27 H23 1_555 1_555
C28 C27 1_555 1_555
H24 C28 1_555 1_555
C29 C28 1_555 1_555
C30 C29 1_555 1_555
H25 C30 1_555 1_555
C31 C26 1_555 1_555
H26 C31 1_555 1_555
C32 P2 1_555 1_555
C33 C32 1_555 1_555
H27 C33 1_555 1_555
C34 C33 1_555 1_555
H28 C34 1_555 1_555
C35 C34 1_555 1_555
H29 C35 1_555 1_555
C36 C35 1_555 1_555
H30 C36 1_555 1_555
C37 C32 1_555 1_555
H31 C37 1_555 1_555
C38 P2 1_555 1_555
C39 C38 1_555 1_555
H32 C39 1_555 1_555
C40 C39 1_555 1_555
H33 C40 1_555 1_555
C41 C40 1_555 1_555
H34 C41 1_555 1_555
C42 C41 1_555 1_555
H35 C42 1_555 1_555
C43 C38 1_555 1_555
H36 C43 1_555 1_555
C44 P2 1_555 1_555
C45 C44 1_555 1_555
H37 C45 1_555 1_555
C46 C45 1_555 1_555
H38 C46 1_555 1_555
C47 C46 1_555 1_555
H39 C47 1_555 1_555
C48 C47 1_555 1_555
H40 C48 1_555 1_555
C49 C44 1_555 1_555
H41 C49 1_555 1_555
C50 C29 1_555 1_555
H42 C50 1_555 1_555
H43 C50 1_555 1_555
H44 C50 1_555 1_555
C51 H45 1_555 1_555
H46 C51 1_555 1_555
Cl1 C51 1_555 1_555
Cl2 C51 1_555 1_555
C52 H47 1_555 1_555
H48 C52 1_555 1_555
Cl3 C52 1_555 1_555
Cl4 C52 1_555 1_555
C5 C6 1_555 1_555
C11 C12 1_555 1_555
C17 C18 1_555 1_555
C23 C24 1_555 1_555
C30 C31 1_555 1_555
C36 C37 1_555 1_555
C42 C43 1_555 1_555
C48 C49 1_555 1_555

#END
