
#######################################################################
#
#                 Cambridge Crystallographic Data Centre
#                                CCDC 
#
#######################################################################
#
# If this CIF has been generated from an entry in the Cambridge 
# Structural Database, then it will include bibliographic, chemical, 
# crystal, experimental, refinement or atomic coordinate data resulting 
# from the CCDC's data processing and validation procedures.
#
#######################################################################

data_HAKXEY
_chemical_formula_moiety         'C30 H31 N5 O1,0.25(C6 H6)'
_chemical_name_systematic        
'2-Amino-5-(3-(2-(6-(diethylamino)-1-benzofuran-2-yl)vinyl)-5,5-dimethylcyclohex-2-en-1-ylidene)penta-1,3-diene-1,1,3-tricarbonitrile benzene solvate'
_symmetry_cell_setting           triclinic
_symmetry_space_group_name_H-M   'P -1'
_symmetry_Int_Tables_number      2
_space_group_name_Hall           '-P 1'
loop_
_symmetry_equiv_pos_site_id
_symmetry_equiv_pos_as_xyz
1 x,y,z
2 -x,-y,-z
_cell_length_a                   10.0455(5)
_cell_length_b                   14.2645(7)
_cell_length_c                   20.6577(11)
_cell_angle_alpha                89.0130(10)
_cell_angle_beta                 79.9670(10)
_cell_angle_gamma                79.2660(10)
_cell_volume                     2863.5
_exptl_crystal_colour            'metallic bronze'
_exptl_crystal_description       platelet-like
_chemical_melting_point          '436 K'
_cell_formula_units_Z            4
loop_
_atom_site_label
_atom_site_type_symbol
_atom_site_fract_x
_atom_site_fract_y
_atom_site_fract_z
N1 N 0.1127(3) -0.0208(2) 0.57515(14)
C2 C 0.6079(2) 0.26582(17) 0.42792(11)
N3 N 0.1980(3) -0.19580(18) 0.40480(11)
C3 C 0.5133(3) 0.21139(19) 0.45433(13)
O1 O 0.76022(17) 0.61028(12) 0.58493(9)
C4 C 0.8726(5) 0.9080(3) 0.8222(2)
H2 H 0.8741 0.8562 0.8525
H3 H 0.8707 0.9662 0.8453
H4 H 0.9535 0.8955 0.7888
C5 C 0.4942(5) 0.8048(3) 0.8145(2)
H5 H 0.4648 0.8701 0.8290
H6 H 0.4449 0.7649 0.8436
H7 H 0.4762 0.7984 0.7708
C9 C 0.7491(4) 0.9172(2) 0.79128(18)
H17 H 0.6693 0.9447 0.8233
H18 H 0.7572 0.9614 0.7552
C10 C 0.6436(4) 0.7755(3) 0.81444(17)
H19 H 0.6621 0.7862 0.8580
H20 H 0.6709 0.7078 0.8044
C15 C 0.8366(3) 0.3158(2) 0.26654(13)
H28 H 0.7973 0.2825 0.2369
H29 H 0.9186 0.2760 0.2763
H30 H 0.8591 0.3734 0.2465
C17 C 0.1777(3) -0.03180(19) 0.52450(15)
N6 N 0.7258(3) 0.82819(19) 0.76652(15)
C19 C 0.7736(3) 0.7962(2) 0.70277(16)
C20 C 0.8633(3) 0.84369(19) 0.65874(17)
H33 H 0.8895 0.8975 0.6736
C21 C 0.7363(3) 0.71480(19) 0.67906(15)
H34 H 0.6781 0.6809 0.7058
N7 N 0.2820(3) 0.13783(19) 0.57467(12)
C23 C 0.6037(3) 0.40426(19) 0.31436(13)
H37 H 0.5396 0.4215 0.3544
H38 H 0.5627 0.3705 0.2856
H39 H 0.6271 0.4609 0.2932
C25 C 0.9121(3) 0.8131(2) 0.59571(16)
H40 H 0.9696 0.8466 0.5682
C27 C 0.9047(3) 0.67992(19) 0.51261(14)
H41 H 0.9621 0.6927 0.4744
C29 C 0.8332(3) 0.60780(19) 0.52113(14)
C33 C 0.7329(3) 0.47365(18) 0.49036(13)
H44 H 0.6789 0.4771 0.5320
C35 C 0.8186(3) 0.53652(19) 0.47745(13)
H46 H 0.8733 0.5327 0.4360
C40 C 0.3260(3) 0.10913(18) 0.52268(13)
C41 C 0.7884(3) 0.68741(18) 0.61574(15)
C45 C 0.7963(2) 0.39215(18) 0.37730(12)
H52 H 0.8888 0.3578 0.3784
H53 H 0.8036 0.4553 0.3606
C46 C 0.6972(3) 0.24843(17) 0.36152(11)
H54 H 0.6500 0.2183 0.3329
H55 H 0.7815 0.2048 0.3658
C47 C 0.8766(3) 0.73184(19) 0.57195(14)
C48 C 0.6286(3) 0.34237(18) 0.46648(12)
H56 H 0.5775 0.3519 0.5087
C50 C 0.2234(3) -0.1318(2) 0.42993(12)
C52 C 0.7333(2) 0.34054(17) 0.32990(12)
C55 C 0.7171(2) 0.40210(18) 0.44601(12)
C57 C 0.2542(2) -0.05228(16) 0.46076(11)
C58 C 0.4795(2) 0.13221(16) 0.42614(11)
H59 H 0.5223 0.1146 0.3833
C59 C 0.3516(2) -0.00268(16) 0.42825(11)
C60 C 0.3882(2) 0.07922(16) 0.45726(11)
N10 N 0.4137(2) -0.03035(14) 0.36765(9)
H60 H 0.3932 -0.0782 0.3493
H61 H 0.4744 -0.0004 0.3467
H63 H 0.4628(18) 0.2289(13) 0.4958(9)
N2 N 1.3282(3) -0.01156(18) -0.28506(12)
C1 C -0.0253(3) 0.57429(17) 0.20493(12)
H1 H -0.0546 0.5557 0.1676
N4 N 1.0951(4) 0.0751(3) -0.09233(16)
C6 C -0.2963(3) 0.6922(3) 0.13810(16)
H8 H -0.3361 0.7572 0.1507
H9 H -0.3427 0.6715 0.1056
H10 H -0.2005 0.6877 0.1201
C7 C 1.0018(3) 0.3502(3) 0.06201(16)
H11 H 1.0801 0.3049 0.0414
H12 H 0.9936 0.3456 0.1089
H13 H 1.0135 0.4135 0.0489
C8 C 0.8621(4) 0.2233(3) 0.06045(16)
H14 H 0.7789 0.2086 0.0498
H15 H 0.8614 0.2160 0.1068
H16 H 0.9399 0.1808 0.0366
C11 C 1.1001(3) 0.0784(3) -0.14825(18)
C12 C -0.4235(3) 0.6876(2) 0.35481(14)
H21 H -0.4816 0.6496 0.3395
H22 H -0.4791 0.7379 0.3832
H23 H -0.3609 0.6481 0.3787
C13 C -0.3114(3) 0.6297(2) 0.19764(14)
H24 H -0.4084 0.6299 0.2127
H25 H -0.2673 0.5647 0.1847
C14 C 0.8790(3) 0.3360(2) -0.03178(13)
H26 H 0.8979 0.3983 -0.0455
H27 H 0.9554 0.2885 -0.0531
C16 C 0.8722(3) 0.3290(3) 0.04112(14)
N5 N 0.6497(3) 0.1664(2) -0.25116(13)
C18 C 0.7447(3) 0.3935(2) 0.07679(13)
H31 H 0.7296 0.3750 0.1225
H32 H 0.7615 0.4584 0.0757
C22 C -0.3436(3) 0.72983(19) 0.29714(13)
H35 H -0.4076 0.7699 0.2735
H36 H -0.2882 0.7702 0.3132
C24 C 1.2301(3) 0.0298(2) -0.25445(14)
C26 C 0.7486(3) 0.1739(2) -0.23248(13)
C28 C 0.3359(3) 0.50071(18) 0.19100(12)
C30 C 1.1077(3) 0.0811(2) -0.21675(13)
C31 C 0.6241(3) 0.35893(18) -0.01201(12)
H42 H 0.5424 0.3598 -0.0276
C32 C 0.4841(3) 0.42830(18) 0.08886(12)
H43 H 0.4068 0.4282 0.0698
C34 C 0.0692(3) 0.62530(18) 0.31788(12)
H45 H 0.0990 0.6419 0.3556
C36 C 0.3064(3) 0.54120(18) 0.25212(12)
H47 H 0.3694 0.5465 0.2793
C37 C 0.4633(3) 0.46174(17) 0.15063(12)
H48 H 0.5415 0.4592 0.1694
C38 C 0.7506(3) 0.27829(18) -0.11302(12)
H49 H 0.6659 0.2794 -0.1257
C39 C 0.6158(3) 0.39251(18) 0.04956(12)
C42 C -0.0666(3) 0.65126(18) 0.31175(12)
H50 H -0.1279 0.6854 0.3460
C43 C 0.7508(3) 0.32200(18) -0.05500(12)
C44 C 0.8691(3) 0.23146(18) -0.15549(12)
H51 H 0.9535 0.2378 -0.1451
C49 C -0.1169(3) 0.62823(18) 0.25545(12)
C51 C 0.9999(3) 0.12276(18) -0.24716(12)
C53 C 0.8732(3) 0.17863(17) -0.20944(12)
C54 C 0.1620(2) 0.57383(17) 0.26702(11)
C56 C 0.1094(3) 0.54994(17) 0.21271(12)
N8 N 1.0034(2) 0.11083(15) -0.31046(10)
H57 H 1.0741 0.0764 -0.3340
H58 H 0.9350 0.1375 -0.3283
N9 N -0.2536(2) 0.65840(16) 0.25159(10)
O2 O 0.21532(17) 0.50323(11) 0.16547(7)
C61 C 0.529(4) 0.0736(18) 0.9792(11)
H62 H 0.5554 0.1212 0.9512
C62 C 0.621(3) 0.014(3) 0.9989(16)
C63 C 0.390(5) 0.072(3) 0.9974(7)
H64 H 0.736(4) 0.024(3) 0.980(2)
H65 H 0.357(6) 0.111(4) 0.980(2)
C61A C 0.471(4) -0.0736(18) 1.0208(11)
H62A H 0.4446 -0.1212 1.0488
C62A C 0.379(3) -0.014(3) 1.0011(16)
C63A C 0.610(5) -0.072(3) 1.0026(7)
H64A H 0.264(4) -0.024(3) 1.020(2)
H65A H 0.643(6) -0.111(4) 1.020(2)
loop_
_geom_bond_atom_site_label_1
_geom_bond_atom_site_label_2
_geom_bond_site_symmetry_1
_geom_bond_site_symmetry_2
N1 C17 1_555 1_555
N2 C24 1_555 1_555
C1 H1 1_555 1_555
C2 C3 1_555 1_555
N3 C50 1_555 1_555
C3 C58 1_555 1_555
O1 C29 1_555 1_555
C4 H2 1_555 1_555
H3 C4 1_555 1_555
H4 C4 1_555 1_555
C5 H5 1_555 1_555
H6 C5 1_555 1_555
H7 C5 1_555 1_555
N4 C11 1_555 1_555
C6 H8 1_555 1_555
H9 C6 1_555 1_555
H10 C6 1_555 1_555
C7 H11 1_555 1_555
H12 C7 1_555 1_555
H13 C7 1_555 1_555
C8 H14 1_555 1_555
H15 C8 1_555 1_555
H16 C8 1_555 1_555
C9 C4 1_555 1_555
H17 C9 1_555 1_555
H18 C9 1_555 1_555
C10 C5 1_555 1_555
H19 C10 1_555 1_555
H20 C10 1_555 1_555
C11 C30 1_555 1_555
C12 H21 1_555 1_555
H22 C12 1_555 1_555
H23 C12 1_555 1_555
C13 C6 1_555 1_555
H24 C13 1_555 1_555
H25 C13 1_555 1_555
C14 H26 1_555 1_555
H27 C14 1_555 1_555
C15 H28 1_555 1_555
H29 C15 1_555 1_555
H30 C15 1_555 1_555
C16 C7 1_555 1_555
N5 C26 1_555 1_555
C17 C57 1_555 1_555
C18 C16 1_555 1_555
H31 C18 1_555 1_555
H32 C18 1_555 1_555
N6 C9 1_555 1_555
C19 N6 1_555 1_555
C20 C19 1_555 1_555
H33 C20 1_555 1_555
C21 C19 1_555 1_555
H34 C21 1_555 1_555
C22 C12 1_555 1_555
H35 C22 1_555 1_555
H36 C22 1_555 1_555
N7 C40 1_555 1_555
C23 H37 1_555 1_555
H38 C23 1_555 1_555
H39 C23 1_555 1_555
C24 C30 1_555 1_555
C25 C20 1_555 1_555
H40 C25 1_555 1_555
C26 C53 1_555 1_555
C27 H41 1_555 1_555
C28 C36 1_555 1_555
C29 C27 1_555 1_555
C30 C51 1_555 1_555
C31 H42 1_555 1_555
C32 H43 1_555 1_555
C33 H44 1_555 1_555
C34 H45 1_555 1_555
C35 C29 1_555 1_555
H46 C35 1_555 1_555
C36 H47 1_555 1_555
C37 C28 1_555 1_555
H48 C37 1_555 1_555
C38 H49 1_555 1_555
C39 C18 1_555 1_555
C40 C60 1_555 1_555
C41 O1 1_555 1_555
C42 C34 1_555 1_555
H50 C42 1_555 1_555
C43 C14 1_555 1_555
C44 C38 1_555 1_555
H51 C44 1_555 1_555
C45 H52 1_555 1_555
H53 C45 1_555 1_555
C46 C2 1_555 1_555
H54 C46 1_555 1_555
H55 C46 1_555 1_555
C47 C25 1_555 1_555
C48 C2 1_555 1_555
H56 C48 1_555 1_555
C49 C1 1_555 1_555
C50 C57 1_555 1_555
C51 C53 1_555 1_555
C52 C15 1_555 1_555
C53 C44 1_555 1_555
C54 C34 1_555 1_555
C55 C33 1_555 1_555
C56 C1 1_555 1_555
C57 C59 1_555 1_555
N8 C51 1_555 1_555
H57 N8 1_555 1_555
H58 N8 1_555 1_555
C58 H59 1_555 1_555
C59 C60 1_555 1_555
N9 C13 1_555 1_555
C60 C58 1_555 1_555
N10 C59 1_555 1_555
H60 N10 1_555 1_555
H61 N10 1_555 1_555
O2 C28 1_555 1_555
C61 H62 1_555 1_555
H63 C3 1_555 1_555
C62 C61 1_555 1_555
C63 C61 1_555 1_555
H64 C62 1_555 1_555
H65 C63 1_555 1_555
C61A H62A 1_555 1_555
C62A C63 1_555 1_555
C63A C62 1_555 1_555
H64A C62A 1_555 1_555
H65A C63A 1_555 1_555
C8 C16 1_555 1_555
C10 N6 1_555 1_555
C14 C16 1_555 1_555
C21 C41 1_555 1_555
C22 N9 1_555 1_555
C23 C52 1_555 1_555
C27 C47 1_555 1_555
C31 C39 1_555 1_555
C31 C43 1_555 1_555
C32 C37 1_555 1_555
C32 C39 1_555 1_555
C33 C35 1_555 1_555
C36 C54 1_555 1_555
C38 C43 1_555 1_555
C41 C47 1_555 1_555
C42 C49 1_555 1_555
C45 C52 1_555 1_555
C45 C55 1_555 1_555
C46 C52 1_555 1_555
C48 C55 1_555 1_555
C49 N9 1_555 1_555
C54 C56 1_555 1_555
C56 O2 1_555 1_555
C61A C62A 1_555 1_555
C61A C63A 1_555 1_555

#END
