
#######################################################################
#
#                 Cambridge Crystallographic Data Centre
#                                CCDC 
#
#######################################################################
#
# If this CIF has been generated from an entry in the Cambridge 
# Structural Database, then it will include bibliographic, chemical, 
# crystal, experimental, refinement or atomic coordinate data resulting 
# from the CCDC's data processing and validation procedures.
#
#######################################################################

data_HAKXIC
_chemical_formula_moiety         'C35 H36 N4 O2'
_chemical_name_systematic        
2-(3-Cyano-4-((1E,3E)-3-(3-((E)-2-(6-(diethylamino)benzofuran-2-yl)vinyl)-5,5-dimethylcyclohex-2-enylidene)prop-1-enyl)-5,5-dimethylfuran-2(5H)-ylidene)malononitrile
_symmetry_cell_setting           monoclinic
_symmetry_space_group_name_H-M   'P 21/n'
_symmetry_Int_Tables_number      14
_space_group_name_Hall           '-P 2yn'
loop_
_symmetry_equiv_pos_site_id
_symmetry_equiv_pos_as_xyz
1 x,y,z
2 1/2-x,1/2+y,1/2-z
3 -x,-y,-z
4 1/2+x,1/2-y,1/2+z
_cell_length_a                   8.8392(2)
_cell_length_b                   14.8729(3)
_cell_length_c                   23.5183(5)
_cell_angle_alpha                90
_cell_angle_beta                 95.2460(10)
_cell_angle_gamma                90
_cell_volume                     3078.87
_exptl_crystal_colour            black
_exptl_crystal_description       rod
_cell_formula_units_Z            4
loop_
_atom_site_label
_atom_site_type_symbol
_atom_site_fract_x
_atom_site_fract_y
_atom_site_fract_z
O1 O 0.20150(14) 0.39950(9) 0.18920(5)
C1 C 0.3197(2) 0.38312(11) 0.15516(7)
C2 C 0.4462(2) 0.35773(12) 0.18790(7)
H1 H 0.5407 0.3434 0.1748
C3 C 0.4106(2) 0.35658(11) 0.24577(7)
C4 C 0.4837(2) 0.33492(13) 0.29927(7)
H2 H 0.5857 0.3161 0.3025
C5 C 0.4065(2) 0.34121(13) 0.34697(7)
H3 H 0.4575 0.3270 0.3827
C6 C 0.2525(2) 0.36848(16) 0.34442(8)
C7 C 0.1781(2) 0.39044(16) 0.29111(8)
H4 H 0.0764 0.4097 0.2875
C8 C 0.2594(2) 0.38276(12) 0.24442(7)
C9 C 0.2792(2) 0.39339(12) 0.09515(7)
H5 H 0.1759 0.4022 0.0831
C10 C 0.3774(2) 0.39137(12) 0.05475(7)
H6 H 0.4812 0.3860 0.0671
C11 C 0.33696(19) 0.39672(11) -0.00598(7)
C12 C 0.4467(2) 0.39008(12) -0.04241(7)
H7 H 0.5483 0.3878 -0.0268
C13 C 0.4173(2) 0.38629(12) -0.10355(7)
C14 C 0.2521(2) 0.37899(13) -0.12587(7)
H8 H 0.2210 0.3158 -0.1251
H9 H 0.2402 0.3992 -0.1657
C15 C 0.14760(19) 0.43480(12) -0.09117(7)
C16 C 0.1727(2) 0.40635(13) -0.02821(7)
H10 H 0.1251 0.4510 -0.0049
H11 H 0.1213 0.3488 -0.0236
C17 C 0.5344(2) 0.38346(13) -0.13670(7)
H12 H 0.6327 0.3877 -0.1179
C18 C 0.5235(2) 0.37477(12) -0.19717(7)
H13 H 0.4262 0.3730 -0.2170
C19 C 0.6456(2) 0.36894(12) -0.22778(7)
H14 H 0.7417 0.3721 -0.2072
C20 C 0.6433(2) 0.35849(12) -0.28792(7)
C21 C 0.5033(2) 0.34963(12) -0.32965(7)
O2 O 0.56983(14) 0.34019(9) -0.38504(5)
C22 C 0.72111(19) 0.34378(12) -0.37751(7)
C23 C 0.76819(19) 0.35496(12) -0.31774(7)
C24 C 0.8027(2) 0.33676(12) -0.42396(7)
C25 C 0.9631(2) 0.33034(14) -0.41947(7)
N1 N 1.0922(2) 0.32272(16) -0.41764(7)
N2 N 0.1780(3) 0.3731(2) 0.39309(7)
C26 C 0.0285(6) 0.4273(3) 0.39078(14)
H15 H 0.0156 0.4545 0.4280
H16 H 0.0280 0.4751 0.3621
C27 C -0.0962(7) 0.3602(3) 0.37492(19)
H17 H -0.1940 0.3901 0.3737
H18 H -0.0919 0.3125 0.4031
H19 H -0.0828 0.3349 0.3377
C28 C 0.2563(8) 0.3490(5) 0.4506(2)
H20 H 0.1828 0.3200 0.4734
H21 H 0.3369 0.3054 0.4453
C29 C 0.3185(4) 0.4220(3) 0.48009(14)
H22 H 0.3624 0.4029 0.5174
H23 H 0.2399 0.4663 0.4845
H24 H 0.3969 0.4484 0.4591
C30 C 0.1798(2) 0.53493(13) -0.09730(9)
H25 H 0.1136 0.5692 -0.0747
H26 H 0.1614 0.5522 -0.1371
H27 H 0.2849 0.5471 -0.0840
C31 C -0.0174(2) 0.41559(13) -0.11319(8)
H28 H -0.0848 0.4445 -0.0885
H29 H -0.0350 0.3512 -0.1134
H30 H -0.0370 0.4389 -0.1517
C32 C 0.4051(2) 0.43372(13) -0.33530(8)
H31 H 0.4689 0.4858 -0.3398
H32 H 0.3519 0.4408 -0.3013
H33 H 0.3318 0.4281 -0.3684
C33 C 0.4119(2) 0.26459(13) -0.32247(8)
H34 H 0.4796 0.2131 -0.3197
H35 H 0.3377 0.2573 -0.3552
H36 H 0.3601 0.2690 -0.2880
C34 C 0.9220(2) 0.36554(12) -0.29351(7)
N3 N 1.04247(19) 0.37586(12) -0.27255(7)
C35 C 0.7250(2) 0.32959(14) -0.47984(8)
N4 N 0.6656(2) 0.32410(15) -0.52502(7)
C36? C 0.0118(9) 0.3482(4) 0.3918(3)
C37? C -0.0571(13) 0.4411(6) 0.3952(4)
C38? C 0.224(3) 0.3476(12) 0.4432(11)
C39? C 0.2867(16) 0.2787(9) 0.4750(6)
H37? H -0.0087 0.3108 0.4245
H38? H -0.0242 0.3173 0.3563
H39? H -0.1670 0.4365 0.3908
H40? H -0.0235 0.4785 0.3650
H41? H -0.0249 0.4677 0.4319
H42? H 0.1346 0.3603 0.4634
H43? H 0.2955 0.3961 0.4549
H44? H 0.3383 0.3021 0.5100
H45? H 0.3590 0.2471 0.4536
H46? H 0.2072 0.2375 0.4840
loop_
_geom_bond_atom_site_label_1
_geom_bond_atom_site_label_2
_geom_bond_site_symmetry_1
_geom_bond_site_symmetry_2
O1 C1 1_555 1_555
C1 C2 1_555 1_555
C2 H1 1_555 1_555
C3 C2 1_555 1_555
C4 C3 1_555 1_555
H2 C4 1_555 1_555
C5 C4 1_555 1_555
H3 C5 1_555 1_555
C6 C5 1_555 1_555
C7 C6 1_555 1_555
H4 C7 1_555 1_555
C8 O1 1_555 1_555
C9 C1 1_555 1_555
H5 C9 1_555 1_555
C10 C9 1_555 1_555
H6 C10 1_555 1_555
C11 C10 1_555 1_555
C12 C11 1_555 1_555
H7 C12 1_555 1_555
C13 C12 1_555 1_555
C14 C13 1_555 1_555
H8 C14 1_555 1_555
H9 C14 1_555 1_555
C15 C14 1_555 1_555
C16 C11 1_555 1_555
H10 C16 1_555 1_555
H11 C16 1_555 1_555
C17 C13 1_555 1_555
H12 C17 1_555 1_555
C18 C17 1_555 1_555
H13 C18 1_555 1_555
C19 C18 1_555 1_555
H14 C19 1_555 1_555
C20 C19 1_555 1_555
C21 C20 1_555 1_555
O2 C21 1_555 1_555
C22 O2 1_555 1_555
C23 C20 1_555 1_555
C24 C22 1_555 1_555
C25 C24 1_555 1_555
N1 C25 1_555 1_555
N2 C6 1_555 1_555
C26 N2 1_555 1_555
H15 C26 1_555 1_555
H16 C26 1_555 1_555
C27 C26 1_555 1_555
H17 C27 1_555 1_555
H18 C27 1_555 1_555
H19 C27 1_555 1_555
C28 N2 1_555 1_555
H20 C28 1_555 1_555
H21 C28 1_555 1_555
C29 C28 1_555 1_555
H22 C29 1_555 1_555
H23 C29 1_555 1_555
H24 C29 1_555 1_555
C30 C15 1_555 1_555
H25 C30 1_555 1_555
H26 C30 1_555 1_555
H27 C30 1_555 1_555
C31 C15 1_555 1_555
H28 C31 1_555 1_555
H29 C31 1_555 1_555
H30 C31 1_555 1_555
C32 C21 1_555 1_555
H31 C32 1_555 1_555
H32 C32 1_555 1_555
H33 C32 1_555 1_555
C33 C21 1_555 1_555
H34 C33 1_555 1_555
H35 C33 1_555 1_555
H36 C33 1_555 1_555
C34 C23 1_555 1_555
N3 C34 1_555 1_555
C35 C24 1_555 1_555
N4 C35 1_555 1_555
C3 C8 1_555 1_555
C7 C8 1_555 1_555
C15 C16 1_555 1_555
C22 C23 1_555 1_555

#END
