
#######################################################################
#
#                 Cambridge Crystallographic Data Centre
#                                CCDC 
#
#######################################################################
#
# If this CIF has been generated from an entry in the Cambridge 
# Structural Database, then it will include bibliographic, chemical, 
# crystal, experimental, refinement or atomic coordinate data resulting 
# from the CCDC's data processing and validation procedures.
#
#######################################################################

data_HAKYEZ
_chemical_formula_moiety         'C19 H12 Cl2 O2'
_chemical_name_systematic        
(2,5-Dichlorophenyl)(4-phenoxyphenyl)methanone
_symmetry_cell_setting           monoclinic
_symmetry_space_group_name_H-M   'P 21/c'
_symmetry_Int_Tables_number      14
_space_group_name_Hall           '-P 2ybc'
loop_
_symmetry_equiv_pos_site_id
_symmetry_equiv_pos_as_xyz
1 x,y,z
2 -x,1/2+y,1/2-z
3 -x,-y,-z
4 x,1/2-y,1/2+z
_cell_length_a                   15.4487(11)
_cell_length_b                   19.0861(13)
_cell_length_c                   5.5265(4)
_cell_angle_alpha                90
_cell_angle_beta                 93.8380(10)
_cell_angle_gamma                90
_cell_volume                     1625.86
_exptl_crystal_colour            colorless
_exptl_crystal_description       platelet
_chemical_melting_point          '367 K'
_cell_formula_units_Z            4
loop_
_atom_site_label
_atom_site_type_symbol
_atom_site_fract_x
_atom_site_fract_y
_atom_site_fract_z
Cl1 Cl 0.18121(4) 0.31677(4) -0.28696(12)
Cl2 Cl 0.36676(5) 0.48188(3) 0.56746(11)
O1 O 0.74685(10) 0.36253(10) -0.0561(3)
O2 O 0.42440(9) 0.31099(8) 0.5756(3)
C1 C 0.9911(2) 0.3694(4) 0.2824(10)
H1 H 1.046(3) 0.372(2) 0.350(8)
C2 C 0.9741(3) 0.3296(3) 0.0816(12)
H2 H 1.013(3) 0.300(2) 0.020(8)
C3 C 0.9263(2) 0.4076(3) 0.3771(7)
H3 H 0.937(3) 0.433(2) 0.520(7)
C4 C 0.8910(2) 0.32541(19) -0.0279(7)
H4 H 0.876(2) 0.2986(18) -0.175(6)
C5 C 0.84343(17) 0.40496(17) 0.2700(5)
H5 H 0.7963(19) 0.4302(15) 0.339(5)
C6 C 0.23967(16) 0.46147(13) 0.2156(5)
H6 H 0.2184(16) 0.5034(14) 0.265(4)
C7 C 0.19791(15) 0.42499(13) 0.0271(5)
H7 H 0.1475(16) 0.4419(13) -0.053(4)
C8 C 0.82719(14) 0.36354(13) 0.0707(4)
C9 C 0.60016(14) 0.39186(12) -0.0434(4)
H8 H 0.6055(14) 0.4171(12) -0.187(4)
C10 C 0.23249(13) 0.36288(12) -0.0464(4)
C11 C 0.30827(13) 0.33649(11) 0.0637(4)
H9 H 0.3310(14) 0.2928(12) 0.015(4)
C12 C 0.66640(13) 0.32228(11) 0.2806(4)
H10 H 0.7154(14) 0.3004(11) 0.353(4)
C13 C 0.31479(13) 0.43491(10) 0.3295(4)
C14 C 0.67194(13) 0.35945(11) 0.0671(4)
C15 C 0.52114(13) 0.38664(11) 0.0585(4)
H11 H 0.4709(14) 0.4099(11) -0.017(4)
C16 C 0.58762(13) 0.31743(10) 0.3820(4)
H12 H 0.5804(13) 0.2911(11) 0.529(4)
C17 C 0.34991(12) 0.37248(10) 0.2558(3)
C18 C 0.43050(12) 0.34173(10) 0.3849(3)
C19 C 0.51385(12) 0.34924(9) 0.2722(3)
loop_
_geom_bond_atom_site_label_1
_geom_bond_atom_site_label_2
_geom_bond_site_symmetry_1
_geom_bond_site_symmetry_2
Cl1 C10 1_555 1_555
Cl2 C13 1_555 1_555
O1 C8 1_555 1_555
O2 C18 1_555 1_555
C1 H1 1_555 1_555
C2 C1 1_555 1_555
H2 C2 1_555 1_555
C3 C1 1_555 1_555
H3 C3 1_555 1_555
C4 C2 1_555 1_555
H4 C4 1_555 1_555
C5 C3 1_555 1_555
H5 C5 1_555 1_555
C6 H6 1_555 1_555
C7 C6 1_555 1_555
H7 C7 1_555 1_555
C8 C4 1_555 1_555
C9 H8 1_555 1_555
C10 C7 1_555 1_555
C11 C10 1_555 1_555
H9 C11 1_555 1_555
C12 H10 1_555 1_555
C13 C6 1_555 1_555
C14 O1 1_555 1_555
C15 C9 1_555 1_555
H11 C15 1_555 1_555
C16 C12 1_555 1_555
H12 C16 1_555 1_555
C17 C11 1_555 1_555
C18 C17 1_555 1_555
C19 C15 1_555 1_555
C5 C8 1_555 1_555
C9 C14 1_555 1_555
C12 C14 1_555 1_555
C13 C17 1_555 1_555
C16 C19 1_555 1_555
C18 C19 1_555 1_555

#END
