
#######################################################################
#
#                 Cambridge Crystallographic Data Centre
#                                CCDC 
#
#######################################################################
#
# If this CIF has been generated from an entry in the Cambridge 
# Structural Database, then it will include bibliographic, chemical, 
# crystal, experimental, refinement or atomic coordinate data resulting 
# from the CCDC's data processing and validation procedures.
#
#######################################################################

data_HAKYUP
_chemical_formula_moiety         'C22 H25 Br1 O3 S1'
_chemical_name_systematic        
2-(Bromomethyl)-5-((4-methylphenyl)sulfonyl)-4-phenyl-6-propyl-3,6-dihydro-2H-pyran
_symmetry_cell_setting           monoclinic
_symmetry_space_group_name_H-M   'P 21/c'
_symmetry_Int_Tables_number      14
_space_group_name_Hall           '-P 2ybc'
loop_
_symmetry_equiv_pos_site_id
_symmetry_equiv_pos_as_xyz
1 x,y,z
2 -x,1/2+y,1/2-z
3 -x,-y,-z
4 x,1/2-y,1/2+z
_cell_length_a                   12.6316(10)
_cell_length_b                   11.9905(10)
_cell_length_c                   14.9713(12)
_cell_angle_alpha                90
_cell_angle_beta                 106.5840(10)
_cell_angle_gamma                90
_cell_volume                     2173.22
_cell_formula_units_Z            4
loop_
_atom_site_label
_atom_site_type_symbol
_atom_site_fract_x
_atom_site_fract_y
_atom_site_fract_z
Br1 Br 1.34721(3) 0.08100(4) 0.11633(3)
C1 C 0.5718(3) -0.0224(4) 0.3759(3)
H1 H 0.5504 -0.0019 0.4303
H2 H 0.5861 -0.1011 0.3771
H3 H 0.5133 -0.0043 0.3211
C2 C 0.6747(3) 0.0404(3) 0.3748(2)
C3 C 0.7750(3) -0.0135(3) 0.3936(2)
H4 H 0.7781 -0.0896 0.4058
C4 C 0.8709(2) 0.0421(2) 0.39466(18)
H5 H 0.9376 0.0040 0.4073
C5 C 0.8665(2) 0.1551(2) 0.37669(17)
C6 C 0.7668(2) 0.2112(2) 0.3575(2)
H6 H 0.7633 0.2874 0.3456
C7 C 0.6730(3) 0.1525(3) 0.3564(3)
H7 H 0.6059 0.1902 0.3426
C8 C 0.85423(19) 0.20606(18) 0.16834(16)
C9 C 0.7738(2) 0.1260(2) 0.13213(19)
H8 H 0.7941 0.0516 0.1311
C10 C 0.6651(2) 0.1556(3) 0.0980(2)
H9 H 0.6117 0.1012 0.0753
C11 C 0.6349(3) 0.2661(3) 0.0972(3)
H10 H 0.5612 0.2862 0.0728
C12 C 0.7121(2) 0.3456(2) 0.1317(2)
H11 H 0.6909 0.4199 0.1319
C13 C 0.8218(2) 0.3167(2) 0.16660(19)
H12 H 0.8745 0.3718 0.1891
C14 C 0.97259(19) 0.17452(17) 0.20156(15)
C15 C 1.03798(19) 0.18381(18) 0.28897(15)
C16 C 1.0197(2) 0.1291(2) 0.12698(16)
H13 H 0.9960 0.0524 0.1138
H14 H 0.9908 0.1719 0.0702
C17 C 1.1442(2) 0.13370(19) 0.15529(16)
H15 H 1.1682 0.2112 0.1534
C18 C 1.1891(2) 0.0642(2) 0.0914(2)
H16 H 1.1532 0.0856 0.0274
H17 H 1.1720 -0.0136 0.0985
C19 C 1.16042(19) 0.15815(19) 0.31636(16)
H18 H 1.1776 0.1145 0.3740
C20 C 1.2296(2) 0.2648(2) 0.33697(19)
H19 H 1.2086 0.3128 0.2826
H20 H 1.2127 0.3040 0.3879
C21 C 1.3522(2) 0.2441(3) 0.3622(2)
H21 H 1.3687 0.2003 0.3134
H22 H 1.3744 0.2010 0.4193
C22 C 1.4187(3) 0.3508(3) 0.3754(3)
H23 H 1.3965 0.3943 0.3193
H24 H 1.4958 0.3332 0.3892
H25 H 1.4060 0.3926 0.4260
O1 O 1.07080(15) 0.19044(16) 0.46642(11)
O2 O 0.96576(16) 0.34528(14) 0.37594(13)
O3 O 1.18722(14) 0.09108(12) 0.24730(11)
S1 S 0.98931(5) 0.22814(5) 0.38340(4)
loop_
_geom_bond_atom_site_label_1
_geom_bond_atom_site_label_2
_geom_bond_site_symmetry_1
_geom_bond_site_symmetry_2
Br1 C18 1_555 1_555
C1 H1 1_555 1_555
H2 C1 1_555 1_555
H3 C1 1_555 1_555
C2 C1 1_555 1_555
C3 C2 1_555 1_555
H4 C3 1_555 1_555
C4 C3 1_555 1_555
H5 C4 1_555 1_555
C5 C4 1_555 1_555
C6 C5 1_555 1_555
H6 C6 1_555 1_555
C7 C2 1_555 1_555
H7 C7 1_555 1_555
C8 C9 1_555 1_555
C9 H8 1_555 1_555
C10 C9 1_555 1_555
H9 C10 1_555 1_555
C11 C10 1_555 1_555
H10 C11 1_555 1_555
C12 C11 1_555 1_555
H11 C12 1_555 1_555
C13 C8 1_555 1_555
H12 C13 1_555 1_555
C14 C8 1_555 1_555
C15 C14 1_555 1_555
C16 C14 1_555 1_555
H13 C16 1_555 1_555
H14 C16 1_555 1_555
C17 C16 1_555 1_555
H15 C17 1_555 1_555
C18 C17 1_555 1_555
H16 C18 1_555 1_555
H17 C18 1_555 1_555
C19 C15 1_555 1_555
H18 C19 1_555 1_555
C20 C19 1_555 1_555
H19 C20 1_555 1_555
H20 C20 1_555 1_555
C21 C20 1_555 1_555
H21 C21 1_555 1_555
H22 C21 1_555 1_555
C22 C21 1_555 1_555
H23 C22 1_555 1_555
H24 C22 1_555 1_555
H25 C22 1_555 1_555
O1 S1 1_555 1_555
O2 S1 1_555 1_555
O3 C17 1_555 1_555
S1 C5 1_555 1_555
C6 C7 1_555 1_555
C12 C13 1_555 1_555
C15 S1 1_555 1_555
C19 O3 1_555 1_555

#END
