
#######################################################################
#
#                 Cambridge Crystallographic Data Centre
#                                CCDC 
#
#######################################################################
#
# If this CIF has been generated from an entry in the Cambridge 
# Structural Database, then it will include bibliographic, chemical, 
# crystal, experimental, refinement or atomic coordinate data resulting 
# from the CCDC's data processing and validation procedures.
#
#######################################################################

data_HAKYOJ
_chemical_formula_moiety         'C26 H25 Br1 O3 S1'
_chemical_name_systematic        
6-Benzyl-2-(bromomethyl)-5-((4-methylphenyl)sulfonyl)-4-phenyl-3,6-dihydro-2H-pyran
_symmetry_cell_setting           triclinic
_symmetry_space_group_name_H-M   'P -1'
_symmetry_Int_Tables_number      2
_space_group_name_Hall           '-P 1'
loop_
_symmetry_equiv_pos_site_id
_symmetry_equiv_pos_as_xyz
1 x,y,z
2 -x,-y,-z
_cell_length_a                   8.2776(14)
_cell_length_b                   11.852(2)
_cell_length_c                   13.594(2)
_cell_angle_alpha                109.910(2)
_cell_angle_beta                 106.751(2)
_cell_angle_gamma                92.444(2)
_cell_volume                     1185.96
_cell_formula_units_Z            2
loop_
_atom_site_label
_atom_site_type_symbol
_atom_site_fract_x
_atom_site_fract_y
_atom_site_fract_z
Br1 Br 0.56534(6) 0.11132(3) 0.44646(4)
C1 C 1.4856(5) 0.8455(4) 1.1292(4)
H1 H 1.5335 0.8736 1.0838
H2 H 1.5417 0.7807 1.1434
H3 H 1.5014 0.9111 1.1980
C2 C 1.2969(4) 0.7997(3) 1.0704(3)
C3 C 1.1837(4) 0.8801(3) 1.0586(3)
H4 H 1.2245 0.9630 1.0890
C4 C 1.0113(4) 0.8405(3) 1.0027(3)
H5 H 0.9370 0.8960 0.9955
C5 C 0.9509(4) 0.7179(3) 0.9578(2)
C6 C 1.0623(5) 0.6354(3) 0.9701(3)
H6 H 1.0218 0.5525 0.9412
C7 C 1.2329(5) 0.6780(3) 1.0256(3)
H7 H 1.3074 0.6227 1.0331
C8 C 0.7051(4) 0.5633(3) 0.7561(2)
C9 C 0.8473(4) 0.7993(3) 0.7212(2)
H8 H 0.7301 0.7984 0.7052
C10 C 0.9511(5) 0.9034(3) 0.7408(3)
H9 H 0.9037 0.9718 0.7360
C11 C 1.1242(5) 0.9065(4) 0.7674(3)
H10 H 1.1943 0.9776 0.7819
C12 C 1.1945(5) 0.8053(4) 0.7727(3)
H11 H 1.3123 0.8079 0.7918
C13 C 1.0900(4) 0.6996(3) 0.7496(3)
H12 H 1.1376 0.6301 0.7505
C14 C 0.9153(4) 0.6956(3) 0.7252(2)
C15 C 0.8009(4) 0.5816(3) 0.6973(2)
C16 C 0.7951(4) 0.4804(3) 0.5917(3)
H13 H 0.7378 0.5019 0.5291
H14 H 0.9108 0.4709 0.5914
C17 C 0.7032(4) 0.3620(3) 0.5797(2)
H15 H 0.7742 0.3306 0.6327
C18 C 0.5715(4) 0.4510(3) 0.7150(2)
H16 H 0.6090 0.4010 0.7593
C19 C 0.6623(5) 0.2698(3) 0.4651(3)
H17 H 0.7662 0.2636 0.4455
H18 H 0.5829 0.2983 0.4142
C20 C 0.3952(4) 0.4815(3) 0.7178(3)
H19 H 0.4069 0.5405 0.7904
H20 H 0.3518 0.5192 0.6644
C21 C 0.2665(4) 0.3739(3) 0.6933(2)
C22 C 0.1960(4) 0.2869(3) 0.5883(3)
H21 H 0.2272 0.2953 0.5304
C23 C 0.0801(5) 0.1876(3) 0.5677(3)
H22 H 0.0353 0.1295 0.4966
C24 C 0.0313(5) 0.1744(3) 0.6510(3)
H23 H -0.0476 0.1079 0.6368
C25 C 0.0991(4) 0.2595(3) 0.7559(3)
H24 H 0.0664 0.2508 0.8132
C26 C 0.2158(4) 0.3582(3) 0.7764(3)
H25 H 0.2612 0.4153 0.8479
O1 O 0.6784(3) 0.5929(2) 0.94643(17)
O2 O 0.6458(3) 0.76813(19) 0.88787(18)
O3 O 0.5476(3) 0.38193(18) 0.60146(16)
S1 S 0.73043(10) 0.66605(7) 0.89215(6)
loop_
_geom_bond_atom_site_label_1
_geom_bond_atom_site_label_2
_geom_bond_site_symmetry_1
_geom_bond_site_symmetry_2
Br1 C19 1_555 1_555
C1 H1 1_555 1_555
H2 C1 1_555 1_555
H3 C1 1_555 1_555
C2 C1 1_555 1_555
C3 C2 1_555 1_555
H4 C3 1_555 1_555
C4 C3 1_555 1_555
H5 C4 1_555 1_555
C5 C4 1_555 1_555
C6 C5 1_555 1_555
H6 C6 1_555 1_555
C7 C2 1_555 1_555
H7 C7 1_555 1_555
C8 C15 1_555 1_555
C9 H8 1_555 1_555
C10 C9 1_555 1_555
H9 C10 1_555 1_555
C11 C10 1_555 1_555
H10 C11 1_555 1_555
C12 C11 1_555 1_555
H11 C12 1_555 1_555
C13 C12 1_555 1_555
H12 C13 1_555 1_555
C14 C9 1_555 1_555
C15 C14 1_555 1_555
C16 C15 1_555 1_555
H13 C16 1_555 1_555
H14 C16 1_555 1_555
C17 C16 1_555 1_555
H15 C17 1_555 1_555
C18 C8 1_555 1_555
H16 C18 1_555 1_555
C19 C17 1_555 1_555
H17 C19 1_555 1_555
H18 C19 1_555 1_555
C20 C18 1_555 1_555
H19 C20 1_555 1_555
H20 C20 1_555 1_555
C21 C20 1_555 1_555
C22 C21 1_555 1_555
H21 C22 1_555 1_555
C23 C22 1_555 1_555
H22 C23 1_555 1_555
C24 C23 1_555 1_555
H23 C24 1_555 1_555
C25 C24 1_555 1_555
H24 C25 1_555 1_555
C26 C21 1_555 1_555
H25 C26 1_555 1_555
O1 S1 1_555 1_555
O2 S1 1_555 1_555
O3 C17 1_555 1_555
S1 C5 1_555 1_555
C6 C7 1_555 1_555
C8 S1 1_555 1_555
C13 C14 1_555 1_555
C18 O3 1_555 1_555
C25 C26 1_555 1_555

#END
