
#######################################################################
#
#                 Cambridge Crystallographic Data Centre
#                                CCDC 
#
#######################################################################
#
# If this CIF has been generated from an entry in the Cambridge 
# Structural Database, then it will include bibliographic, chemical, 
# crystal, experimental, refinement or atomic coordinate data resulting 
# from the CCDC's data processing and validation procedures.
#
#######################################################################

data_HALKUA
_chemical_formula_moiety         'C15 H18 N2 O1 S1'
_chemical_name_systematic        
2-(N-Acetyl)imino-3-isopropyl-5-methyl-4-phenyl-2,3-dihydro-1,3-thiazole
_symmetry_cell_setting           orthorhombic
_symmetry_space_group_name_H-M   'P n m a'
_symmetry_Int_Tables_number      62
_space_group_name_Hall           '-P 2ac 2n'
loop_
_symmetry_equiv_pos_site_id
_symmetry_equiv_pos_as_xyz
1 x,y,z
2 1/2-x,1/2+y,1/2+z
3 x,1/2-y,z
4 1/2-x,-y,1/2+z
5 -x,-y,-z
6 1/2+x,1/2-y,1/2-z
7 -x,1/2+y,-z
8 1/2+x,y,1/2-z
_cell_length_a                   13.454(1)
_cell_length_b                   7.317(1)
_cell_length_c                   15.181(1)
_cell_angle_alpha                90
_cell_angle_beta                 90
_cell_angle_gamma                90
_cell_volume                     1494.46
_exptl_crystal_colour            Colorless
_cell_formula_units_Z            4
loop_
_atom_site_label
_atom_site_type_symbol
_atom_site_fract_x
_atom_site_fract_y
_atom_site_fract_z
S1 S 0.04808(6) 0.2500 0.50453(5)
C1 C -0.0797(3) 0.2500 0.4973(2)
N1 N -0.1096(2) 0.2500 0.4119(1)
C2 C -0.0305(2) 0.2500 0.3515(2)
C3 C 0.0587(2) 0.2500 0.3907(2)
N2 N -0.1463(2) 0.2500 0.5628(2)
C4 C -0.1089(3) 0.2500 0.6452(2)
C5 C -0.1847(5) 0.2500 0.7171(3)
H1 H -0.2579 0.2500 0.6880
H2 H -0.1757 0.3705 0.7574
O1 O -0.0183(3) 0.2500 0.6630(2)
C6 C -0.2159(2) 0.2500 0.3843(2)
H3 H -0.2215 0.2500 0.3134
C7 C -0.2666(2) 0.4253(4) 0.4131(2)
H4 H -0.3435 0.4229 0.3925
H5 H -0.2296 0.5407 0.3832
H6 H -0.2629 0.4373 0.4839
C8 C -0.0495(2) 0.2500 0.2548(2)
C9 C -0.0554(2) 0.4132(4) 0.2099(1)
H7 H -0.0497 0.5412 0.2450
C10 C -0.0689(2) 0.4122(5) 0.1184(2)
H8 H -0.0745 0.5401 0.0833
C11 C -0.0749(3) 0.2500 0.0735(2)
H9 H -0.0846 0.2500 0.0029
C12 C 0.1597(2) 0.2500 0.3487(3)
H10 H 0.2160 0.2500 0.3993
H11 H 0.1678 0.3705 0.3082
H2B H -0.1757 0.1295 0.7574
C7B C -0.2666(2) 0.0747(4) 0.4131(2)
C9B C -0.0554(2) 0.0868(4) 0.2099(1)
C10B C -0.0689(2) 0.0878(5) 0.1184(2)
H11B H 0.1678 0.1295 0.3082
H4B H -0.3435 0.0771 0.3925
H5B H -0.2296 -0.0407 0.3832
H6B H -0.2629 0.0627 0.4839
H7B H -0.0497 -0.0412 0.2450
H8B H -0.0745 -0.0401 0.0833
loop_
_geom_bond_atom_site_label_1
_geom_bond_atom_site_label_2
_geom_bond_site_symmetry_1
_geom_bond_site_symmetry_2
S1 C1 1_555 1_555
C1 N1 1_555 1_555
N1 C2 1_555 1_555
C2 C3 1_555 1_555
C3 S1 1_555 1_555
N2 C1 1_555 1_555
C4 N2 1_555 1_555
C5 C4 1_555 1_555
H1 C5 1_555 1_555
H2 C5 1_555 1_555
O1 C4 1_555 1_555
C6 N1 1_555 1_555
H3 C6 1_555 1_555
C7 C6 1_555 1_555
H4 C7 1_555 1_555
H5 C7 1_555 1_555
H6 C7 1_555 1_555
C8 C2 1_555 1_555
C9 C8 1_555 1_555
H7 C9 1_555 1_555
C10 C9 1_555 1_555
H8 C10 1_555 1_555
C11 C10 1_555 1_555
H9 C11 1_555 1_555
C12 C3 1_555 1_555
H10 C12 1_555 1_555
H11 C12 1_555 1_555
H2B C5 1_555 1_555
C7B C6 1_555 1_555
C9B C8 1_555 1_555
C10B C11 1_555 1_555
H11B C12 1_555 1_555
H4B C7B 1_555 1_555
H5B C7B 1_555 1_555
H6B C7B 1_555 1_555
H7B C9B 1_555 1_555
H8B C10B 1_555 1_555
C9B C10B 1_555 1_555

#END
