
#######################################################################
#
#                 Cambridge Crystallographic Data Centre
#                                CCDC 
#
#######################################################################
#
# If this CIF has been generated from an entry in the Cambridge 
# Structural Database, then it will include bibliographic, chemical, 
# crystal, experimental, refinement or atomic coordinate data resulting 
# from the CCDC's data processing and validation procedures.
#
#######################################################################

data_HALPUH
_chemical_formula_moiety         'C33 H60 F3 N3 O5'
_chemical_name_systematic        
't-Butyl 2-ethyl-2-((2-ethyl-2-((2-ethyl-2-((trifluoroacetyl)amino)heptanoyl)amino)heptanoyl)amino)heptanoate'
_symmetry_cell_setting           monoclinic
_symmetry_space_group_name_H-M   'P 21'
_symmetry_Int_Tables_number      4
_space_group_name_Hall           'P 2yb'
loop_
_symmetry_equiv_pos_site_id
_symmetry_equiv_pos_as_xyz
1 x,y,z
2 -x,1/2+y,-z
_cell_length_a                   6.612(2)
_cell_length_b                   30.544(5)
_cell_length_c                   9.847(3)
_cell_angle_alpha                90
_cell_angle_beta                 97.86(8)
_cell_angle_gamma                90
_cell_volume                     1969.99
_exptl_crystal_colour            colorless
_exptl_crystal_description       prism
_cell_formula_units_Z            2
loop_
_atom_site_label
_atom_site_type_symbol
_atom_site_fract_x
_atom_site_fract_y
_atom_site_fract_z
C1 C 0.2727(10) 0.13956(17) 0.7290(7)
F1 F 0.225(2) 0.1605(4) 0.8399(9)
F2 F 0.1004(13) 0.1254(2) 0.6585(15)
F3 F 0.3522(16) 0.1692(4) 0.6532(11)
C2 C 0.4267(10) 0.10473(18) 0.7828(7)
O1 O 0.5822(8) 0.11681(13) 0.8549(6)
N1 N 0.3657(6) 0.06478(12) 0.7527(5)
H1 H 0.2522 0.0616 0.6994
C3 C 0.4738(6) 0.02513(14) 0.8020(5)
C4 C 0.4907(8) 0.02278(19) 0.9598(6)
H2 H 0.5463 -0.0055 0.9898
H3 H 0.5863 0.0450 0.9989
C5 C 0.2892(10) 0.0293(2) 1.0159(8)
H4 H 0.2416 0.0589 0.9948
H5 H 0.1890 0.0094 0.9687
C6 C 0.2993(16) 0.0221(3) 1.1675(9)
H6 H 0.3991 0.0415 1.2175
H7 H 0.3377 -0.0079 1.1909
C7 C 0.085(2) 0.0319(6) 1.2035(12)
H8 H 0.0276 0.0567 1.1500
H9 H -0.0031 0.0068 1.1793
C8 C 0.089(3) 0.0417(6) 1.3526(12)
H10 H 0.0757 0.0727 1.3650
H11 H 0.2163 0.0319 1.4020
H12 H -0.0217 0.0268 1.3865
C9 C 0.6877(6) 0.02361(17) 0.7565(6)
H13 H 0.7720 0.0463 0.8045
H14 H 0.7504 -0.0044 0.7825
C10 C 0.6829(9) 0.0300(2) 0.6021(6)
H15 H 0.7277 0.0591 0.5845
H16 H 0.5461 0.0259 0.5570
H17 H 0.7718 0.0091 0.5679
C11 C 0.3386(6) -0.01217(13) 0.7377(5)
O2 O 0.1799(4) -0.00357(11) 0.6598(4)
N2 N 0.4025(4) -0.05254(11) 0.7689(4)
H18 H 0.5150 -0.0551 0.8235
C12 C 0.2994(5) -0.09345(15) 0.7192(4)
C13 C 0.2860(6) -0.09588(18) 0.5660(4)
H19 H 0.2005 -0.0721 0.5265
H20 H 0.2190 -0.1231 0.5354
C14 C 0.4914(9) -0.0935(2) 0.5103(6)
H21 H 0.5517 -0.0651 0.5339
H22 H 0.5812 -0.1155 0.5574
C15 C 0.4867(13) -0.1001(3) 0.3597(7)
H23 H 0.3975 -0.0787 0.3093
H24 H 0.4362 -0.1291 0.3336
C16 C 0.7066(17) -0.0946(7) 0.3276(11)
H25 H 0.7583 -0.0669 0.3661
H26 H 0.7893 -0.1175 0.3752
C17 C 0.739(4) -0.0956(11) 0.1789(16)
H27 H 0.8775 -0.1040 0.1725
H28 H 0.7134 -0.0671 0.1394
H29 H 0.6475 -0.1164 0.1303
C18 C 0.0863(5) -0.09620(17) 0.7644(4)
H30 H 0.0033 -0.0725 0.7215
H31 H 0.0230 -0.1235 0.7311
C19 C 0.0852(7) -0.0938(2) 0.9185(5)
H32 H 0.0347 -0.0657 0.9419
H33 H 0.2216 -0.0977 0.9646
H34 H -0.0013 -0.1164 0.9462
C20 C 0.4385(6) -0.13002(14) 0.7858(5)
O3 O 0.5964(4) -0.12104(10) 0.8622(3)
N3 N 0.3749(5) -0.17072(10) 0.7558(4)
H35 H 0.2602 -0.1734 0.7035
C21 C 0.4806(6) -0.21200(14) 0.8027(5)
C22 C 0.5046(8) -0.21534(19) 0.9596(5)
H36 H 0.5805 -0.2417 0.9881
H37 H 0.5836 -0.1905 0.9988
C23 C 0.3060(11) -0.2163(3) 1.0151(8)
H38 H 0.2229 -0.2396 0.9694
H39 H 0.2355 -0.1889 0.9921
C24 C 0.321(2) -0.2233(4) 1.1688(9)
H40 H 0.3825 -0.1977 1.2160
H41 H 0.4084 -0.2482 1.1952
C25 C 0.108(3) -0.2313(8) 1.2123(18)
H42 H 0.0071 -0.2205 1.1393
H43 H 0.0893 -0.2627 1.2178
C26 C 0.062(6) -0.2116(10) 1.344(2)
H44 H -0.0446 -0.1903 1.3246
H45 H 0.1825 -0.1978 1.3901
H46 H 0.0188 -0.2342 1.4011
C27 C 0.6861(6) -0.21481(18) 0.7491(6)
H47 H 0.7672 -0.1896 0.7825
H48 H 0.7570 -0.2407 0.7878
C28 C 0.6767(10) -0.2166(3) 0.5961(6)
H49 H 0.7147 -0.1887 0.5628
H50 H 0.5402 -0.2237 0.5556
H51 H 0.7691 -0.2387 0.5721
C29 C 0.3404(7) -0.24740(15) 0.7377(6)
O4 O 0.1787(5) -0.24014(11) 0.6679(5)
O5 O 0.4143(5) -0.28647(10) 0.7705(4)
C30 C 0.3022(10) -0.32751(16) 0.7236(10)
C31 C 0.4598(14) -0.3621(2) 0.7818(11)
H52 H 0.4175 -0.3752 0.8621
H53 H 0.5906 -0.3485 0.8057
H54 H 0.4697 -0.3844 0.7141
C32 C 0.270(2) -0.3290(3) 0.5678(11)
H55 H 0.3623 -0.3499 0.5368
H56 H 0.2957 -0.3006 0.5323
H57 H 0.1320 -0.3375 0.5359
C33 C 0.1106(16) -0.3281(3) 0.7931(15)
H58 H -0.0058 -0.3211 0.7272
H59 H 0.1233 -0.3068 0.8655
H60 H 0.0933 -0.3566 0.8305
C34? C 0.714(9) -0.0658(17) 0.202(5)
F4? F 0.355(2) 0.17881(19) 0.7510(19)
F5? F 0.0958(18) 0.1392(6) 0.779(2)
F6? F 0.233(2) 0.1346(4) 0.5937(8)
H61? H 0.7898 -0.0816 0.4060
H62? H 0.7631 -0.1231 0.3116
H63? H 0.5841 -0.0520 0.1769
H64? H 0.7464 -0.0835 0.1272
H65? H 0.8175 -0.0437 0.2228
loop_
_geom_bond_atom_site_label_1
_geom_bond_atom_site_label_2
_geom_bond_site_symmetry_1
_geom_bond_site_symmetry_2
C1 F1 1_555 1_555
F2 C1 1_555 1_555
F3 C1 1_555 1_555
C2 C1 1_555 1_555
O1 C2 1_555 1_555
N1 C2 1_555 1_555
H1 N1 1_555 1_555
C3 N1 1_555 1_555
C4 C3 1_555 1_555
H2 C4 1_555 1_555
H3 C4 1_555 1_555
C5 C4 1_555 1_555
H4 C5 1_555 1_555
H5 C5 1_555 1_555
C6 C5 1_555 1_555
H6 C6 1_555 1_555
H7 C6 1_555 1_555
C7 C6 1_555 1_555
H8 C7 1_555 1_555
H9 C7 1_555 1_555
C8 C7 1_555 1_555
H10 C8 1_555 1_555
H11 C8 1_555 1_555
H12 C8 1_555 1_555
C9 C3 1_555 1_555
H13 C9 1_555 1_555
H14 C9 1_555 1_555
C10 C9 1_555 1_555
H15 C10 1_555 1_555
H16 C10 1_555 1_555
H17 C10 1_555 1_555
C11 C3 1_555 1_555
O2 C11 1_555 1_555
N2 C11 1_555 1_555
H18 N2 1_555 1_555
C12 N2 1_555 1_555
C13 C12 1_555 1_555
H19 C13 1_555 1_555
H20 C13 1_555 1_555
C14 C13 1_555 1_555
H21 C14 1_555 1_555
H22 C14 1_555 1_555
C15 C14 1_555 1_555
H23 C15 1_555 1_555
H24 C15 1_555 1_555
C16 C15 1_555 1_555
H25 C16 1_555 1_555
H26 C16 1_555 1_555
C17 C16 1_555 1_555
H27 C17 1_555 1_555
H28 C17 1_555 1_555
H29 C17 1_555 1_555
C18 C12 1_555 1_555
H30 C18 1_555 1_555
H31 C18 1_555 1_555
C19 C18 1_555 1_555
H32 C19 1_555 1_555
H33 C19 1_555 1_555
H34 C19 1_555 1_555
C20 C12 1_555 1_555
O3 C20 1_555 1_555
N3 C20 1_555 1_555
H35 N3 1_555 1_555
C21 N3 1_555 1_555
C22 C21 1_555 1_555
H36 C22 1_555 1_555
H37 C22 1_555 1_555
C23 C22 1_555 1_555
H38 C23 1_555 1_555
H39 C23 1_555 1_555
C24 C23 1_555 1_555
H40 C24 1_555 1_555
H41 C24 1_555 1_555
C25 C24 1_555 1_555
H42 C25 1_555 1_555
H43 C25 1_555 1_555
C26 C25 1_555 1_555
H44 C26 1_555 1_555
H45 C26 1_555 1_555
H46 C26 1_555 1_555
C27 C21 1_555 1_555
H47 C27 1_555 1_555
H48 C27 1_555 1_555
C28 C27 1_555 1_555
H49 C28 1_555 1_555
H50 C28 1_555 1_555
H51 C28 1_555 1_555
C29 C21 1_555 1_555
O4 C29 1_555 1_555
O5 C29 1_555 1_555
C30 O5 1_555 1_555
C31 C30 1_555 1_555
H52 C31 1_555 1_555
H53 C31 1_555 1_555
H54 C31 1_555 1_555
C32 C30 1_555 1_555
H55 C32 1_555 1_555
H56 C32 1_555 1_555
H57 C32 1_555 1_555
C33 C30 1_555 1_555
H58 C33 1_555 1_555
H59 C33 1_555 1_555
H60 C33 1_555 1_555

#END
