
#######################################################################
#
#                 Cambridge Crystallographic Data Centre
#                                CCDC 
#
#######################################################################
#
# If this CIF has been generated from an entry in the Cambridge 
# Structural Database, then it will include bibliographic, chemical, 
# crystal, experimental, refinement or atomic coordinate data resulting 
# from the CCDC's data processing and validation procedures.
#
#######################################################################

data_HALPOA
_chemical_compound_source        'Senecio tsoongianus'
_chemical_name_common            
(4aR,5S,8aR)-4a,5,6,7,8,8a-Hexahydro-8a-hydroxy-3,4a,5-trimethylnaphtho(2,3-b)furan-2(4H)-one
_chemical_formula_moiety         'C15 H20 O3'
_chemical_name_systematic        'Tsoongianolide A'
_symmetry_cell_setting           orthorhombic
_symmetry_space_group_name_H-M   'P 21 21 21'
_symmetry_Int_Tables_number      19
_space_group_name_Hall           'P 2ac 2ab'
loop_
_symmetry_equiv_pos_site_id
_symmetry_equiv_pos_as_xyz
1 x,y,z
2 1/2-x,-y,1/2+z
3 -x,1/2+y,1/2-z
4 1/2+x,1/2-y,-z
_cell_length_a                   6.3660(5)
_cell_length_b                   12.4853(9)
_cell_length_c                   16.0971(11)
_cell_angle_alpha                90
_cell_angle_beta                 90
_cell_angle_gamma                90
_cell_volume                     1279.42
_exptl_crystal_colour            colorless
_exptl_crystal_description       block
_chemical_melting_point          168deg.C.(dec.)
_cell_formula_units_Z            4
_exptl_crystal_recrystallization_method chloroform
loop_
_atom_site_label
_atom_site_type_symbol
_atom_site_fract_x
_atom_site_fract_y
_atom_site_fract_z
O1 O -0.05980(14) 0.39381(6) 0.43958(4)
C1 C 0.00203(15) 0.13940(7) 0.82956(6)
H1 H -0.0956 0.1946 0.8510
H2 H -0.0812 0.0749 0.8155
O2 O -0.11336(12) 0.29253(5) 0.55335(4)
C2 C 0.16122(17) 0.11133(8) 0.89651(6)
H3 H 0.2475 0.0500 0.8777
H4 H 0.0863 0.0896 0.9477
C3 C 0.30448(15) 0.20649(8) 0.91572(6)
H5 H 0.4150 0.1832 0.9550
H6 H 0.2209 0.2631 0.9433
O3 O 0.24656(11) 0.09497(5) 0.72582(4)
H7 H 0.2921 0.1074 0.6778
C4 C 0.40911(15) 0.25369(7) 0.83810(6)
H8 H 0.5010 0.1969 0.8137
C5 C 0.24267(14) 0.28414(7) 0.77152(5)
C6 C 0.35185(15) 0.32107(7) 0.69080(5)
H9 H 0.4230 0.3904 0.7006
H10 H 0.4598 0.2679 0.6746
C7 C 0.19560(15) 0.33319(7) 0.62174(6)
C8 C 0.00501(15) 0.27056(8) 0.62393(6)
C9 C -0.04701(15) 0.20120(8) 0.68270(6)
H11 H -0.1784 0.1652 0.6817
C10 C 0.11010(15) 0.18130(7) 0.75153(6)
C11 C 0.19655(16) 0.39082(8) 0.55163(6)
C12 C 0.00337(17) 0.36425(8) 0.50628(6)
C13 C 0.35543(18) 0.46635(9) 0.51795(6)
H12 H 0.4720 0.4730 0.5574
H13 H 0.2906 0.5367 0.5094
H14 H 0.4086 0.4391 0.4648
C14 C 0.10387(14) 0.37663(8) 0.80229(6)
H15 H 0.1918 0.4393 0.8140
H16 H 0.0306 0.3548 0.8531
H17 H 0.0007 0.3949 0.7594
C15 C 0.55037(16) 0.34725(8) 0.86298(6)
H18 H 0.6515 0.3232 0.9049
H19 H 0.4642 0.4052 0.8860
H20 H 0.6261 0.3734 0.8140
loop_
_geom_bond_atom_site_label_1
_geom_bond_atom_site_label_2
_geom_bond_site_symmetry_1
_geom_bond_site_symmetry_2
O1 C12 1_555 1_555
C1 H1 1_555 1_555
H2 C1 1_555 1_555
O2 C8 1_555 1_555
C2 C1 1_555 1_555
H3 C2 1_555 1_555
H4 C2 1_555 1_555
C3 C2 1_555 1_555
H5 C3 1_555 1_555
H6 C3 1_555 1_555
O3 H7 1_555 1_555
C4 C3 1_555 1_555
H8 C4 1_555 1_555
C5 C4 1_555 1_555
C6 C5 1_555 1_555
H9 C6 1_555 1_555
H10 C6 1_555 1_555
C7 C6 1_555 1_555
C8 C7 1_555 1_555
C9 C8 1_555 1_555
H11 C9 1_555 1_555
C10 C1 1_555 1_555
C11 C7 1_555 1_555
C12 O2 1_555 1_555
C13 C11 1_555 1_555
H12 C13 1_555 1_555
H13 C13 1_555 1_555
H14 C13 1_555 1_555
C14 C5 1_555 1_555
H15 C14 1_555 1_555
H16 C14 1_555 1_555
H17 C14 1_555 1_555
C15 C4 1_555 1_555
H18 C15 1_555 1_555
H19 C15 1_555 1_555
H20 C15 1_555 1_555
O3 C10 1_555 1_555
C5 C10 1_555 1_555
C9 C10 1_555 1_555
C11 C12 1_555 1_555

#END
