
#######################################################################
#
#                 Cambridge Crystallographic Data Centre
#                                CCDC 
#
#######################################################################
#
# If this CIF has been generated from an entry in the Cambridge 
# Structural Database, then it will include bibliographic, chemical, 
# crystal, experimental, refinement or atomic coordinate data resulting 
# from the CCDC's data processing and validation procedures.
#
#######################################################################

data_HALQAN
_chemical_compound_source        'Senecio tsoongianus'
_chemical_formula_moiety         'C30 H38 O4'
_chemical_name_systematic        
(4aR,5S,9aS)-4a,5,6,7,8,9a-Hexahydro-3,4a,5-trimethyl-9a-((4aR,5S,9aR)-4,4a,5,6,7,8-hexahydro-3,4a,5-trimethyl-2-oxonaphtho(2,3-b)furan-9a(2H)-yl)naphtho(2,3-b)furan-2(4H)-one
_symmetry_cell_setting           orthorhombic
_symmetry_space_group_name_H-M   'P 21 21 21'
_symmetry_Int_Tables_number      19
_space_group_name_Hall           'P 2ac 2ab'
loop_
_symmetry_equiv_pos_site_id
_symmetry_equiv_pos_as_xyz
1 x,y,z
2 1/2-x,-y,1/2+z
3 -x,1/2+y,1/2-z
4 1/2+x,1/2-y,-z
_cell_length_a                   10.7301(12)
_cell_length_b                   11.2278(13)
_cell_length_c                   21.169(2)
_cell_angle_alpha                90
_cell_angle_beta                 90
_cell_angle_gamma                90
_cell_volume                     2550.34
_exptl_crystal_colour            colorless
_exptl_crystal_description       block
_chemical_melting_point          185-186deg.C
_cell_formula_units_Z            4
_exptl_crystal_recrystallization_method chloroform
loop_
_atom_site_label
_atom_site_type_symbol
_atom_site_fract_x
_atom_site_fract_y
_atom_site_fract_z
O1 O 0.82211(6) 0.64892(8) 0.77212(3)
O2 O 0.73386(6) 0.87373(7) 0.94235(4)
C1 C 1.40522(8) 0.79881(9) 0.76976(5)
H1 H 1.3858 0.8798 0.7541
H2 H 1.4183 0.7467 0.7326
C2 C 1.31207(8) 0.95186(8) 1.01449(4)
H3 H 1.3138 0.8710 1.0331
H4 H 1.2906 1.0091 1.0484
O3 O 0.93024(5) 0.81028(5) 0.92895(3)
O4 O 0.96688(6) 0.77958(6) 0.80436(3)
C3 C 1.44063(9) 0.98207(10) 0.98776(5)
H5 H 1.5021 0.9855 1.0226
H6 H 1.4670 0.9188 0.9580
C4 C 1.52518(9) 0.80296(9) 0.80909(6)
H7 H 1.5961 0.8253 0.7816
H8 H 1.5170 0.8643 0.8424
C5 C 1.43754(9) 1.10059(10) 0.95373(5)
H9 H 1.5202 1.1158 0.9346
H10 H 1.4210 1.1646 0.9848
C6 C 1.55053(8) 0.68323(9) 0.83917(5)
H11 H 1.6255 0.6894 0.8663
H12 H 1.5682 0.6242 0.8056
C7 C 1.33791(8) 1.10494(9) 0.90190(5)
H13 H 1.3594 1.0411 0.8708
C8 C 1.44114(8) 0.63947(8) 0.87893(4)
H14 H 1.4284 0.6993 0.9133
C9 C 1.20611(8) 1.07516(7) 0.92774(4)
C10 C 1.31766(8) 0.63347(7) 0.84081(4)
C11 C 1.20976(7) 0.60443(7) 0.88753(4)
H15 H 1.2062 0.5175 0.8951
H16 H 1.2251 0.6444 0.9285
C12 C 1.11401(8) 1.06842(8) 0.87111(4)
H17 H 1.0793 1.1485 0.8626
H18 H 1.1591 1.0416 0.8329
C13 C 1.09007(8) 0.64570(8) 0.86074(4)
C14 C 1.01124(8) 0.98446(8) 0.88524(4)
C15 C 1.04443(7) 0.85851(7) 0.90267(4)
C16 C 1.07612(7) 0.77542(7) 0.84476(4)
C17 C 1.14368(7) 0.86215(7) 0.95233(4)
H19 H 1.1568 0.7930 0.9773
C18 C 1.19072(8) 0.81364(8) 0.80871(4)
H20 H 1.1869 0.8858 0.7853
C19 C 1.21426(8) 0.95695(7) 0.96329(4)
C20 C 1.29616(8) 0.75267(8) 0.80771(4)
C21 C 0.89042(8) 1.00319(8) 0.89606(4)
C22 C 0.99569(8) 0.58436(9) 0.83625(4)
C23 C 0.83758(8) 0.89338(8) 0.92353(4)
C24 C 0.91527(8) 0.66796(9) 0.80158(4)
C25 C 0.81316(10) 1.11271(9) 0.88924(6)
H21 H 0.8629 1.1757 0.8695
H22 H 0.7852 1.1392 0.9310
H23 H 0.7405 1.0953 0.8628
C26 C 0.97089(10) 0.45310(9) 0.83641(6)
H24 H 1.0144 0.4162 0.8721
H25 H 1.0010 0.4182 0.7968
H26 H 0.8811 0.4390 0.8404
C27 C 1.32022(9) 0.53599(8) 0.78961(4)
H27 H 1.3876 0.5527 0.7596
H28 H 1.2403 0.5350 0.7672
H29 H 1.3344 0.4583 0.8095
C28 C 1.15633(9) 1.17069(8) 0.97358(5)
H30 H 1.2124 1.1771 1.0100
H31 H 1.0729 1.1480 0.9881
H32 H 1.1520 1.2476 0.9518
C29 C 1.47426(9) 0.52163(9) 0.91089(5)
H33 H 1.5527 0.5306 0.9342
H34 H 1.4837 0.4595 0.8787
H35 H 1.4077 0.4992 0.9403
C30 C 1.34264(11) 1.22251(10) 0.86624(6)
H36 H 1.4277 1.2366 0.8511
H37 H 1.3178 1.2874 0.8945
H38 H 1.2855 1.2192 0.8302
loop_
_geom_bond_atom_site_label_1
_geom_bond_atom_site_label_2
_geom_bond_site_symmetry_1
_geom_bond_site_symmetry_2
O1 C24 1_555 1_555
O2 C23 1_555 1_555
C1 H1 1_555 1_555
H2 C1 1_555 1_555
C2 H3 1_555 1_555
H4 C2 1_555 1_555
O3 C15 1_555 1_555
O4 C16 1_555 1_555
C3 C2 1_555 1_555
H5 C3 1_555 1_555
H6 C3 1_555 1_555
C4 C1 1_555 1_555
H7 C4 1_555 1_555
H8 C4 1_555 1_555
C5 C3 1_555 1_555
H9 C5 1_555 1_555
H10 C5 1_555 1_555
C6 C4 1_555 1_555
H11 C6 1_555 1_555
H12 C6 1_555 1_555
C7 C5 1_555 1_555
H13 C7 1_555 1_555
C8 C6 1_555 1_555
H14 C8 1_555 1_555
C9 C7 1_555 1_555
C10 C8 1_555 1_555
C11 C10 1_555 1_555
H15 C11 1_555 1_555
H16 C11 1_555 1_555
C12 C9 1_555 1_555
H17 C12 1_555 1_555
H18 C12 1_555 1_555
C13 C11 1_555 1_555
C14 C12 1_555 1_555
C15 C14 1_555 1_555
C16 C13 1_555 1_555
C17 C15 1_555 1_555
H19 C17 1_555 1_555
C18 C16 1_555 1_555
H20 C18 1_555 1_555
C19 C2 1_555 1_555
C20 C1 1_555 1_555
C21 C14 1_555 1_555
C22 C13 1_555 1_555
C23 O3 1_555 1_555
C24 O4 1_555 1_555
C25 C21 1_555 1_555
H21 C25 1_555 1_555
H22 C25 1_555 1_555
H23 C25 1_555 1_555
C26 C22 1_555 1_555
H24 C26 1_555 1_555
H25 C26 1_555 1_555
H26 C26 1_555 1_555
C27 C10 1_555 1_555
H27 C27 1_555 1_555
H28 C27 1_555 1_555
H29 C27 1_555 1_555
C28 C9 1_555 1_555
H30 C28 1_555 1_555
H31 C28 1_555 1_555
H32 C28 1_555 1_555
C29 C8 1_555 1_555
H33 C29 1_555 1_555
H34 C29 1_555 1_555
H35 C29 1_555 1_555
C30 C7 1_555 1_555
H36 C30 1_555 1_555
H37 C30 1_555 1_555
H38 C30 1_555 1_555
C9 C19 1_555 1_555
C10 C20 1_555 1_555
C15 C16 1_555 1_555
C17 C19 1_555 1_555
C18 C20 1_555 1_555
C21 C23 1_555 1_555
C22 C24 1_555 1_555

#END
