
#######################################################################
#
#                 Cambridge Crystallographic Data Centre
#                                CCDC 
#
#######################################################################
#
# If this CIF has been generated from an entry in the Cambridge 
# Structural Database, then it will include bibliographic, chemical, 
# crystal, experimental, refinement or atomic coordinate data resulting 
# from the CCDC's data processing and validation procedures.
#
#######################################################################

data_HALROD
_chemical_formula_moiety         'C16 H12 Cl2 O2 S1'
_chemical_name_systematic        
3,7-Dichloro-6-methoxy-2-(4-methoxyphenyl)-1-benzothiophene
_symmetry_cell_setting           monoclinic
_symmetry_space_group_name_H-M   'P c'
_symmetry_Int_Tables_number      7
_space_group_name_Hall           'P -2yc'
loop_
_symmetry_equiv_pos_site_id
_symmetry_equiv_pos_as_xyz
1 x,y,z
2 x,-y,1/2+z
_cell_length_a                   7.1550(14)
_cell_length_b                   9.0530(18)
_cell_length_c                   22.358(5)
_cell_angle_alpha                90
_cell_angle_beta                 94.14(3)
_cell_angle_gamma                90
_cell_volume                     1444.44
_cell_formula_units_Z            4
loop_
_atom_site_label
_atom_site_type_symbol
_atom_site_fract_x
_atom_site_fract_y
_atom_site_fract_z
C1 C 1.104(2) -0.391(3) 0.5378(10)
H1 H 1.1380 -0.4626 0.5088
H2 H 1.0734 -0.4408 0.5738
H3 H 1.2072 -0.3249 0.5469
C2 C 0.9417(12) -0.2456(12) 0.4608(6)
C3 C 0.7911(16) -0.1459(16) 0.4391(5)
C4 C 0.8016(13) -0.0709(11) 0.3855(5)
C5 C 0.9653(15) -0.0777(11) 0.3531(5)
C6 C 1.1145(15) -0.1540(19) 0.3769(6)
H4 H 1.2272 -0.1491 0.3587
C7 C 1.1027(15) -0.2405(17) 0.4284(5)
H5 H 1.2059 -0.2971 0.4416
C8 C 0.9297(18) 0.0034(18) 0.3035(6)
C9 C 0.768(2) 0.0822(16) 0.2947(6)
C10 C 0.6974(10) 0.1834(10) 0.2476(3)
C11 C 0.7962(9) 0.2179(12) 0.1981(4)
H6 H 0.9148 0.1785 0.1946
C12 C 0.7177(12) 0.3115(12) 0.1539(4)
H7 H 0.7838 0.3346 0.1209
C13 C 0.5404(12) 0.3704(11) 0.1592(3)
C14 C 0.4416(9) 0.3359(12) 0.2086(4)
H8 H 0.3230 0.3753 0.2121
C15 C 0.5201(10) 0.2423(11) 0.2528(3)
H9 H 0.4540 0.2192 0.2859
C16 C 0.550(2) 0.5098(15) 0.0708(4)
H10 H 0.4916 0.4591 0.0366
H11 H 0.6752 0.4743 0.0789
H12 H 0.5525 0.6140 0.0628
Cl1 Cl 0.6014(4) -0.1324(5) 0.48078(17)
Cl2 Cl 1.1158(5) 0.0211(7) 0.25594(17)
O1 O 0.9318(10) -0.3022(11) 0.5120(4)
O2 O 0.4503(14) 0.4847(11) 0.1189(5)
S1 S 0.6341(4) 0.0421(4) 0.35319(14)
C17 C 0.589(2) 0.8814(19) 0.1275(6)
H13 H 0.6062 0.9018 0.0861
H14 H 0.5727 0.9724 0.1485
H15 H 0.4808 0.8200 0.1304
C18 C 0.722(2) 0.7192(17) 0.2066(5)
C19 C 0.8707(19) 0.6482(15) 0.2250(6)
C20 C 0.864(2) 0.5750(19) 0.2764(5)
C21 C 0.7243(18) 0.582(2) 0.3090(6)
C22 C 0.566(2) 0.6728(14) 0.2921(6)
H16 H 0.4672 0.6837 0.3165
C23 C 0.569(2) 0.7385(19) 0.2414(8)
H17 H 0.4694 0.7986 0.2278
C24 C 0.7301(16) 0.4821(12) 0.3648(6)
C25 C 0.8985(14) 0.4167(14) 0.3707(5)
C26 C 0.9917(11) 0.3154(10) 0.4194(3)
C27 C 1.1583(11) 0.2418(11) 0.4113(3)
H18 H 1.2202 0.2574 0.3766
C28 C 1.2324(11) 0.1450(10) 0.4549(3)
H19 H 1.3439 0.0957 0.4495
C29 C 1.1399(12) 0.1217(9) 0.5067(3)
C30 C 0.9733(12) 0.1953(11) 0.5148(3)
H20 H 0.9114 0.1797 0.5494
C31 C 0.8992(11) 0.2921(12) 0.4711(3)
H21 H 0.7877 0.3414 0.4765
C32 C 1.126(2) -0.013(2) 0.5990(7)
H22 H 1.0358 -0.0882 0.5871
H23 H 1.0637 0.0682 0.6166
H24 H 1.2182 -0.0532 0.6278
Cl3 Cl 1.0668(5) 0.6292(5) 0.18393(17)
Cl4 Cl 0.5550(5) 0.4766(7) 0.40909(18)
O3 O 0.7399(17) 0.8117(15) 0.1520(4)
O4 O 1.2202(13) 0.0399(13) 0.5448(3)
S2 S 1.0407(4) 0.4579(4) 0.31144(13)
loop_
_geom_bond_atom_site_label_1
_geom_bond_atom_site_label_2
_geom_bond_site_symmetry_1
_geom_bond_site_symmetry_2
C1 H1 1_555 1_555
H2 C1 1_555 1_555
H3 C1 1_555 1_555
C2 C3 1_555 1_555
C3 C4 1_555 1_555
C4 C5 1_555 1_555
C5 C6 1_555 1_555
C6 H4 1_555 1_555
C7 C2 1_555 1_555
H5 C7 1_555 1_555
C8 C5 1_555 1_555
C9 C8 1_555 1_555
C10 C9 1_555 1_555
C11 C10 1_555 1_555
H6 C11 1_555 1_555
C12 C11 1_555 1_555
H7 C12 1_555 1_555
C13 C12 1_555 1_555
C14 C13 1_555 1_555
H8 C14 1_555 1_555
C15 C10 1_555 1_555
H9 C15 1_555 1_555
C16 H10 1_555 1_555
H11 C16 1_555 1_555
H12 C16 1_555 1_555
C17 H13 1_555 1_555
H14 C17 1_555 1_555
H15 C17 1_555 1_555
C18 C19 1_555 1_555
C19 C20 1_555 1_555
C20 C21 1_555 1_555
C21 C22 1_555 1_555
C22 H16 1_555 1_555
C23 C18 1_555 1_555
H17 C23 1_555 1_555
C24 C21 1_555 1_555
C25 C24 1_555 1_555
C26 C25 1_555 1_555
C27 C26 1_555 1_555
H18 C27 1_555 1_555
C28 C27 1_555 1_555
H19 C28 1_555 1_555
C29 C28 1_555 1_555
C30 C29 1_555 1_555
H20 C30 1_555 1_555
C31 C26 1_555 1_555
H21 C31 1_555 1_555
C32 H22 1_555 1_555
H23 C32 1_555 1_555
H24 C32 1_555 1_555
Cl1 C3 1_555 1_555
Cl2 C8 1_555 1_555
Cl3 C19 1_555 1_555
Cl4 C24 1_555 1_555
O1 C1 1_555 1_555
O2 C13 1_555 1_555
O3 C17 1_555 1_555
O4 C29 1_555 1_555
S1 C4 1_555 1_555
S2 C20 1_555 1_555
C2 O1 1_555 1_555
C6 C7 1_555 1_555
C9 S1 1_555 1_555
C14 C15 1_555 1_555
C16 O2 1_555 1_555
C18 O3 1_555 1_555
C22 C23 1_555 1_555
C25 S2 1_555 1_555
C30 C31 1_555 1_555
C32 O4 1_555 1_555

#END
