
#######################################################################
#
#                 Cambridge Crystallographic Data Centre
#                                CCDC 
#
#######################################################################
#
# If this CIF has been generated from an entry in the Cambridge 
# Structural Database, then it will include bibliographic, chemical, 
# crystal, experimental, refinement or atomic coordinate data resulting 
# from the CCDC's data processing and validation procedures.
#
#######################################################################

data_HALXEA
_chemical_name_common            
(18-Crown-6)-(2'-methoxy-1,1'-binaphthalen-2-olato)-potassium
_chemical_formula_moiety         'C33 H39 K1 O8'
_chemical_name_systematic        
(1,4,7,10,13,16-hexaoxacyclooctadecane)-(2'-methoxy-1,1'-binaphthalen-2-olato)-potassium
_symmetry_cell_setting           triclinic
_symmetry_space_group_name_H-M   'P 1'
_symmetry_Int_Tables_number      1
_space_group_name_Hall           'P 1'
loop_
_symmetry_equiv_pos_site_id
_symmetry_equiv_pos_as_xyz
1 x,y,z
_cell_length_a                   10.9339(11)
_cell_length_b                   11.3695(12)
_cell_length_c                   14.208(2)
_cell_angle_alpha                107.602(2)
_cell_angle_beta                 96.818(2)
_cell_angle_gamma                109.876(2)
_cell_volume                     1534.15
_exptl_crystal_colour            colorless
_exptl_crystal_description       block
_cell_formula_units_Z            2
loop_
_atom_site_label
_atom_site_type_symbol
_atom_site_fract_x
_atom_site_fract_y
_atom_site_fract_z
K1 K 1.22610(10) 1.14685(11) 0.83815(8)
O1 O 1.4488(4) 1.3380(4) 0.9255(3)
O2 O 1.4049(4) 1.5500(4) 1.1786(3)
O3 O 1.3381(4) 1.0150(4) 0.9367(3)
O4 O 1.4014(4) 1.0170(4) 0.7524(3)
O5 O 1.2432(4) 1.1020(4) 0.6402(3)
O6 O 0.9864(4) 1.0731(4) 0.6683(3)
O7 O 0.9793(4) 1.1458(4) 0.8725(3)
O8 O 1.1198(4) 1.0585(4) 0.9985(3)
C1 C 1.5335(5) 1.4616(6) 0.9635(4)
C2 C 1.6725(6) 1.4955(6) 0.9633(4)
H1 H 1.6997 1.4264 0.9347
C3 C 1.7670(5) 1.6249(6) 1.0032(4)
H2 H 1.8560 1.6412 1.0020
C4 C 1.7307(5) 1.7340(5) 1.0463(4)
C5 C 1.8251(5) 1.8680(6) 1.0881(4)
H3 H 1.9141 1.8860 1.0860
C6 C 1.7900(5) 1.9725(6) 1.1315(4)
H4 H 1.8547 2.0601 1.1603
C7 C 1.6549(5) 1.9465(6) 1.1322(4)
H5 H 1.6297 2.0172 1.1601
C8 C 1.5605(5) 1.8172(5) 1.0920(4)
H6 H 1.4718 1.8022 1.0938
C9 C 1.5924(5) 1.7057(5) 1.0481(4)
C10 C 1.4964(5) 1.5702(5) 1.0080(4)
C11 C 1.3524(5) 1.5438(5) 1.0123(4)
C12 C 1.2594(5) 1.5288(6) 0.9266(4)
C13 C 1.2920(5) 1.5280(6) 0.8337(4)
H7 H 1.3778 1.5356 0.8274
C14 C 1.2028(6) 1.5167(6) 0.7529(5)
H8 H 1.2275 1.5152 0.6922
C15 C 1.0728(6) 1.5070(6) 0.7608(5)
H9 H 1.0124 1.5013 0.7060
C16 C 1.0354(5) 1.5061(5) 0.8491(5)
H10 H 0.9495 1.5001 0.8539
C17 C 1.1256(5) 1.5140(5) 0.9336(4)
C18 C 1.0891(6) 1.5099(6) 1.0248(5)
H11 H 1.0026 1.5008 1.0301
C19 C 1.1775(6) 1.5191(6) 1.1052(5)
H12 H 1.1510 1.5135 1.1641
C20 C 1.3110(5) 1.5372(6) 1.0983(4)
C21 C 1.3616(6) 1.5277(7) 1.2647(5)
H13 H 1.3326 1.5966 1.2984
H14 H 1.4347 1.5301 1.3110
H15 H 1.2885 1.4415 1.2427
C22 C 1.2951(7) 0.9800(7) 1.0189(5)
H16 H 1.3704 0.9874 1.0673
H17 H 1.2282 0.8885 0.9940
C23 C 1.2364(6) 1.0776(7) 1.0683(4)
H18 H 1.2127 1.0638 1.1289
H19 H 1.3023 1.1689 1.0885
C24 C 1.0709(6) 1.1596(6) 1.0379(5)
H20 H 1.1381 1.2472 1.0483
H21 H 1.0518 1.1602 1.1029
C25 C 0.9460(6) 1.1309(7) 0.9637(5)
H22 H 0.8819 1.0401 0.9484
H23 H 0.9056 1.1928 0.9929
C26 C 0.8635(6) 1.1038(7) 0.7935(5)
H24 H 0.8052 1.1473 0.8188
H25 H 0.8142 1.0073 0.7711
C27 C 0.9045(6) 1.1396(7) 0.7072(5)
H26 H 0.8256 1.1137 0.6540
H27 H 0.9537 1.2361 0.7297
C28 C 1.0340(7) 1.1130(7) 0.5889(5)
H28 H 1.0779 1.2102 0.6130
H29 H 0.9591 1.0833 0.5313
C29 C 1.1312(6) 1.0521(6) 0.5566(4)
H30 H 1.0881 0.9550 0.5341
H31 H 1.1604 1.0751 0.5003
C30 C 1.3542(7) 1.0767(7) 0.6095(5)
H32 H 1.3919 1.1318 0.5712
H33 H 1.3251 0.9830 0.5663
C31 C 1.4568(6) 1.1096(6) 0.7024(5)
H34 H 1.5370 1.1015 0.6841
H35 H 1.4807 1.2013 0.7480
C32 C 1.4957(6) 1.0374(7) 0.8379(5)
H36 H 1.5375 1.1322 0.8803
H37 H 1.5653 1.0088 0.8164
C33 C 1.4275(6) 0.9588(7) 0.8970(5)
H38 H 1.3783 0.8651 0.8532
H39 H 1.4931 0.9639 0.9521
K2 K 0.74889(10) 0.68880(11) 0.53510(8)
O9 O 0.5228(4) 0.4890(4) 0.4733(3)
O10 O 0.6587(4) 0.2567(4) 0.5549(3)
O11 O 0.9780(3) 0.7088(4) 0.6769(3)
O12 O 0.9706(4) 0.6688(5) 0.4740(3)
O13 O 0.8347(3) 0.7739(4) 0.3725(3)
O14 O 0.6154(4) 0.8069(4) 0.4461(3)
O15 O 0.5767(3) 0.8038(4) 0.6418(3)
O16 O 0.7541(4) 0.7362(4) 0.7376(3)
C34 C 0.4353(5) 0.3672(6) 0.4318(4)
C35 C 0.2945(6) 0.3380(6) 0.4227(4)
H40 H 0.2684 0.4081 0.4506
C36 C 0.1987(5) 0.2112(6) 0.3746(4)
H41 H 0.1089 0.1977 0.3694
C37 C 0.2309(5) 0.0996(5) 0.3323(4)
C38 C 0.1317(5) -0.0322(6) 0.2803(4)
H42 H 0.0416 -0.0471 0.2747
C39 C 0.1663(6) -0.1394(6) 0.2377(4)
H43 H 0.1002 -0.2254 0.2031
C40 C 0.3025(6) -0.1164(6) 0.2474(4)
H44 H 0.3266 -0.1880 0.2196
C41 C 0.3996(5) 0.0095(5) 0.2970(4)
H45 H 0.4891 0.0219 0.3021
C42 C 0.3688(5) 0.1228(5) 0.3415(4)
C43 C 0.4689(5) 0.2555(5) 0.3929(4)
C44 C 0.6129(5) 0.2787(5) 0.3923(4)
C45 C 0.6614(5) 0.2978(5) 0.3065(4)
C46 C 0.5799(6) 0.3016(6) 0.2225(4)
H46 H 0.4932 0.2947 0.2247
C47 C 0.6234(6) 0.3149(6) 0.1401(4)
H47 H 0.5664 0.3162 0.0867
C48 C 0.7546(6) 0.3268(6) 0.1340(5)
H48 H 0.7843 0.3356 0.0768
C49 C 0.8370(6) 0.3253(5) 0.2123(5)
H49 H 0.9239 0.3345 0.2085
C50 C 0.7938(5) 0.3101(6) 0.3010(5)
C51 C 0.8761(6) 0.3060(6) 0.3826(5)
H50 H 0.9629 0.3131 0.3801
C52 C 0.8308(5) 0.2918(6) 0.4647(5)
H51 H 0.8883 0.2924 0.5188
C53 C 0.6986(5) 0.2762(5) 0.4704(4)
C54 C 0.6692(6) 0.3786(6) 0.6317(5)
H52 H 0.7618 0.4396 0.6581
H53 H 0.6333 0.3581 0.6860
H54 H 0.6195 0.4195 0.6022
C55 C 0.8636(6) 0.7436(6) 0.8090(4)
H55 H 0.8483 0.6551 0.8106
H56 H 0.8712 0.8029 0.8768
C56 C 0.9895(5) 0.7961(6) 0.7762(4)
H57 H 1.0055 0.8854 0.7762
H58 H 1.0651 0.8025 0.8237
C57 C 1.0986(5) 0.7526(6) 0.6456(5)
H59 H 1.1707 0.7485 0.6896
H60 H 1.1233 0.8451 0.6504
C58 C 1.0779(5) 0.6635(6) 0.5372(4)
H61 H 1.1593 0.6935 0.5145
H62 H 1.0570 0.5717 0.5329
C59 C 0.9939(5) 0.6771(6) 0.3801(4)
H63 H 1.0187 0.6046 0.3445
H64 H 1.0667 0.7618 0.3918
C60 C 0.8681(5) 0.6669(6) 0.3177(4)
H65 H 0.8817 0.6730 0.2528
H66 H 0.7958 0.5812 0.3046
C61 C 0.7231(5) 0.7768(7) 0.3101(4)
H67 H 0.6547 0.6864 0.2760
H68 H 0.7526 0.8116 0.2586
C62 C 0.6662(6) 0.8642(7) 0.3752(5)
H69 H 0.7354 0.9537 0.4115
H70 H 0.5946 0.8712 0.3329
C63 C 0.5345(6) 0.8657(7) 0.4977(4)
H71 H 0.4640 0.8650 0.4490
H72 H 0.5888 0.9581 0.5423
C64 C 0.4748(5) 0.7837(6) 0.5590(4)
H73 H 0.4062 0.8101 0.5850
H74 H 0.4330 0.6892 0.5158
C65 C 0.5303(5) 0.7090(6) 0.6899(5)
H75 H 0.5022 0.6184 0.6408
H76 H 0.4537 0.7169 0.7150
C66 C 0.6408(5) 0.7353(6) 0.7767(4)
H77 H 0.6617 0.8213 0.8300
H78 H 0.6138 0.6655 0.8050
loop_
_geom_bond_atom_site_label_1
_geom_bond_atom_site_label_2
_geom_bond_site_symmetry_1
_geom_bond_site_symmetry_2
K1 O1 1_555 1_555
O1 C1 1_555 1_555
O2 C20 1_555 1_555
O3 K1 1_555 1_555
O4 K1 1_555 1_555
O5 K1 1_555 1_555
O6 K1 1_555 1_555
O7 K1 1_555 1_555
O8 K1 1_555 1_555
C1 C2 1_555 1_555
C2 H1 1_555 1_555
C3 C2 1_555 1_555
H2 C3 1_555 1_555
C4 C3 1_555 1_555
C5 C4 1_555 1_555
H3 C5 1_555 1_555
C6 C5 1_555 1_555
H4 C6 1_555 1_555
C7 C6 1_555 1_555
H5 C7 1_555 1_555
C8 C7 1_555 1_555
H6 C8 1_555 1_555
C9 C4 1_555 1_555
C10 C1 1_555 1_555
C11 C10 1_555 1_555
C12 C11 1_555 1_555
C13 C12 1_555 1_555
H7 C13 1_555 1_555
C14 C13 1_555 1_555
H8 C14 1_555 1_555
C15 C14 1_555 1_555
H9 C15 1_555 1_555
C16 C15 1_555 1_555
H10 C16 1_555 1_555
C17 C12 1_555 1_555
C18 C17 1_555 1_555
H11 C18 1_555 1_555
C19 C18 1_555 1_555
H12 C19 1_555 1_555
C20 C11 1_555 1_555
C21 O2 1_555 1_555
H13 C21 1_555 1_555
H14 C21 1_555 1_555
H15 C21 1_555 1_555
C22 O3 1_555 1_555
H16 C22 1_555 1_555
H17 C22 1_555 1_555
C23 O8 1_555 1_555
H18 C23 1_555 1_555
H19 C23 1_555 1_555
C24 O8 1_555 1_555
H20 C24 1_555 1_555
H21 C24 1_555 1_555
C25 O7 1_555 1_555
H22 C25 1_555 1_555
H23 C25 1_555 1_555
C26 O7 1_555 1_555
H24 C26 1_555 1_555
H25 C26 1_555 1_555
C27 O6 1_555 1_555
H26 C27 1_555 1_555
H27 C27 1_555 1_555
C28 O6 1_555 1_555
H28 C28 1_555 1_555
H29 C28 1_555 1_555
C29 O5 1_555 1_555
H30 C29 1_555 1_555
H31 C29 1_555 1_555
C30 O5 1_555 1_555
H32 C30 1_555 1_555
H33 C30 1_555 1_555
C31 O4 1_555 1_555
H34 C31 1_555 1_555
H35 C31 1_555 1_555
C32 O4 1_555 1_555
H36 C32 1_555 1_555
H37 C32 1_555 1_555
C33 O3 1_555 1_555
H38 C33 1_555 1_555
H39 C33 1_555 1_555
K2 O9 1_555 1_555
O9 C34 1_555 1_555
O10 C53 1_555 1_555
O11 K2 1_555 1_555
O12 K2 1_555 1_555
O13 K2 1_555 1_555
O14 K2 1_555 1_555
O15 K2 1_555 1_555
O16 K2 1_555 1_555
C34 C35 1_555 1_555
C35 H40 1_555 1_555
C36 C35 1_555 1_555
H41 C36 1_555 1_555
C37 C36 1_555 1_555
C38 C37 1_555 1_555
H42 C38 1_555 1_555
C39 C38 1_555 1_555
H43 C39 1_555 1_555
C40 C39 1_555 1_555
H44 C40 1_555 1_555
C41 C40 1_555 1_555
H45 C41 1_555 1_555
C42 C37 1_555 1_555
C43 C34 1_555 1_555
C44 C43 1_555 1_555
C45 C44 1_555 1_555
C46 C45 1_555 1_555
H46 C46 1_555 1_555
C47 C46 1_555 1_555
H47 C47 1_555 1_555
C48 C47 1_555 1_555
H48 C48 1_555 1_555
C49 C48 1_555 1_555
H49 C49 1_555 1_555
C50 C45 1_555 1_555
C51 C50 1_555 1_555
H50 C51 1_555 1_555
C52 C51 1_555 1_555
H51 C52 1_555 1_555
C53 C44 1_555 1_555
C54 O10 1_555 1_555
H52 C54 1_555 1_555
H53 C54 1_555 1_555
H54 C54 1_555 1_555
C55 O16 1_555 1_555
H55 C55 1_555 1_555
H56 C55 1_555 1_555
C56 O11 1_555 1_555
H57 C56 1_555 1_555
H58 C56 1_555 1_555
C57 O11 1_555 1_555
H59 C57 1_555 1_555
H60 C57 1_555 1_555
C58 O12 1_555 1_555
H61 C58 1_555 1_555
H62 C58 1_555 1_555
C59 O12 1_555 1_555
H63 C59 1_555 1_555
H64 C59 1_555 1_555
C60 O13 1_555 1_555
H65 C60 1_555 1_555
H66 C60 1_555 1_555
C61 O13 1_555 1_555
H67 C61 1_555 1_555
H68 C61 1_555 1_555
C62 O14 1_555 1_555
H69 C62 1_555 1_555
H70 C62 1_555 1_555
C63 O14 1_555 1_555
H71 C63 1_555 1_555
H72 C63 1_555 1_555
C64 O15 1_555 1_555
H73 C64 1_555 1_555
H74 C64 1_555 1_555
C65 O15 1_555 1_555
H75 C65 1_555 1_555
H76 C65 1_555 1_555
C66 O16 1_555 1_555
H77 C66 1_555 1_555
H78 C66 1_555 1_555
C8 C9 1_555 1_555
C9 C10 1_555 1_555
C16 C17 1_555 1_555
C19 C20 1_555 1_555
C22 C23 1_555 1_555
C24 C25 1_555 1_555
C26 C27 1_555 1_555
C28 C29 1_555 1_555
C30 C31 1_555 1_555
C32 C33 1_555 1_555
C41 C42 1_555 1_555
C42 C43 1_555 1_555
C49 C50 1_555 1_555
C52 C53 1_555 1_555
C55 C56 1_555 1_555
C57 C58 1_555 1_555
C59 C60 1_555 1_555
C61 C62 1_555 1_555
C63 C64 1_555 1_555
C65 C66 1_555 1_555

#END
