
#######################################################################
#
#                 Cambridge Crystallographic Data Centre
#                                CCDC 
#
#######################################################################
#
# If this CIF has been generated from an entry in the Cambridge 
# Structural Database, then it will include bibliographic, chemical, 
# crystal, experimental, refinement or atomic coordinate data resulting 
# from the CCDC's data processing and validation procedures.
#
#######################################################################

data_HAMBUT01
_chemical_formula_moiety         'C5 H4 Br2 S3'
_chemical_name_systematic        4,5-bis(Bromomethyl)-1,3-dithiole-2-thione
_symmetry_cell_setting           monoclinic
_symmetry_space_group_name_H-M   'C 2/c'
_symmetry_Int_Tables_number      15
_space_group_name_Hall           '-C 2yn'
loop_
_symmetry_equiv_pos_site_id
_symmetry_equiv_pos_as_xyz
1 x,y,z
2 1/2+x,1/2+y,z
3 -x,y,1/2-z
4 1/2-x,1/2+y,1/2-z
5 -x,-y,-z
6 1/2-x,1/2-y,-z
7 x,-y,1/2+z
8 1/2+x,1/2-y,1/2+z
_cell_length_a                   7.510(2)
_cell_length_b                   16.984(5)
_cell_length_c                   7.532(2)
_cell_angle_alpha                90
_cell_angle_beta                 111.234(4)
_cell_angle_gamma                90
_cell_volume                     895.482
_exptl_crystal_colour            yellow
_exptl_crystal_description       block
_chemical_melting_point          '401 K'
_cell_formula_units_Z            4
loop_
_atom_site_label
_atom_site_type_symbol
_atom_site_fract_x
_atom_site_fract_y
_atom_site_fract_z
Br1 Br 0.93133(3) 0.657366(11) 0.99759(3)
C1 C 0.7101(3) 0.65481(11) 0.7552(3)
C2 C 0.5903(2) 0.58464(10) 0.7516(3)
S1 S 0.69281(6) 0.49241(3) 0.75248(7)
C3 C 0.5000 0.43575(15) 0.7500
S2 S 0.5000 0.33898(4) 0.7500
H1 H 0.6388 0.7019 0.7469
H2 H 0.7607 0.6530 0.6575
Br1B Br 0.06867(3) 0.657366(11) 0.50241(3)
C1B C 0.2899(3) 0.65481(11) 0.7448(3)
C2B C 0.4097(2) 0.58464(10) 0.7484(3)
S1B S 0.30719(6) 0.49241(3) 0.74752(7)
H1B H 0.3612 0.7019 0.7531
H2B H 0.2393 0.6530 0.8425
loop_
_geom_bond_atom_site_label_1
_geom_bond_atom_site_label_2
_geom_bond_site_symmetry_1
_geom_bond_site_symmetry_2
Br1 C1 1_555 1_555
C1 C2 1_555 1_555
C2 S1 1_555 1_555
S1 C3 1_555 1_555
C3 S2 1_555 1_555
H1 C1 1_555 1_555
H2 C1 1_555 1_555
Br1B C1B 1_555 1_555
C1B C2B 1_555 1_555
C2B C2 1_555 1_555
S1B C3 1_555 1_555
H1B C1B 1_555 1_555
H2B C1B 1_555 1_555
C2B S1B 1_555 1_555

#END
