
#######################################################################
#
#                 Cambridge Crystallographic Data Centre
#                                CCDC 
#
#######################################################################
#
# If this CIF has been generated from an entry in the Cambridge 
# Structural Database, then it will include bibliographic, chemical, 
# crystal, experimental, refinement or atomic coordinate data resulting 
# from the CCDC's data processing and validation procedures.
#
#######################################################################

data_HAMCOP
_chemical_name_common            
'1-(5-Azido-3-fluoro-4-hydroxy-5-(hydroxymethyl)tetrahydrofuran-2-yl)-2-oxo-1,2-dihydropyrimidin-4-aminium chloride'
_chemical_formula_moiety         'C9 H12 F1 N6 O4 1+,Cl1 1-'
_chemical_name_systematic        
'1-(4-Azido-2-deoxy-2-fluoro-\b-D-arabinofuranosyl)cytosine hydrochloride'
_chemical_properties_biological  'anti-HIV and cytotoxic activity'
_symmetry_cell_setting           monoclinic
_symmetry_space_group_name_H-M   'P 21'
_symmetry_Int_Tables_number      4
_space_group_name_Hall           'P 2yb'
loop_
_symmetry_equiv_pos_site_id
_symmetry_equiv_pos_as_xyz
1 x,y,z
2 -x,1/2+y,-z
_cell_length_a                   6.5738(13)
_cell_length_b                   14.309(3)
_cell_length_c                   7.3271(15)
_cell_angle_alpha                90
_cell_angle_beta                 99.68(3)
_cell_angle_gamma                90
_cell_volume                     679.407
_exptl_crystal_colour            colorless
_exptl_crystal_description       prism
_cell_formula_units_Z            2
loop_
_atom_site_label
_atom_site_type_symbol
_atom_site_fract_x
_atom_site_fract_y
_atom_site_fract_z
C1 C 0.0160(4) 0.38392(19) 0.0153(4)
C2 C -0.1278(4) 0.3264(2) 0.0823(4)
H1 H -0.2687 0.3355 0.0447
C3 C -0.0582(4) 0.2580(2) 0.2014(4)
H2 H -0.1529 0.2211 0.2496
C4 C 0.2936(4) 0.2919(2) 0.1822(4)
C5 C 0.2280(4) 0.16861(18) 0.3887(4)
H3 H 0.3516 0.1406 0.3530
C6 C 0.2805(5) 0.2062(2) 0.5875(4)
H4 H 0.4186 0.1854 0.6447
C7 C 0.1203(4) 0.1628(2) 0.6857(4)
H5 H -0.0012 0.2036 0.6659
C8 C 0.0638(4) 0.0734(2) 0.5755(4)
C9 C -0.1521(6) 0.0350(3) 0.5811(5)
H6 H -0.1688 -0.0244 0.5165
H7 H -0.1675 0.0242 0.7088
F1 F 0.2687(5) 0.30246(14) 0.5919(3)
N1 N -0.0363(5) 0.45808(19) -0.0901(4)
H8 H 0.0771 0.4858 -0.1151
H9 H -0.1061 0.4979 -0.0308
H10 H -0.1149 0.4404 -0.1953
N2 N 0.2186(4) 0.36270(18) 0.0635(3)
N3 N 0.1468(4) 0.24086(16) 0.2539(3)
N4 N 0.2229(4) 0.00338(19) 0.6480(4)
N5 N 0.2289(5) -0.06467(19) 0.5428(4)
N6 N 0.2498(7) -0.1296(3) 0.4619(5)
O1 O 0.4778(3) 0.27659(17) 0.2241(3)
O2 O 0.0756(3) 0.09902(13) 0.3892(2)
O3 O -0.2996(4) 0.0947(3) 0.5021(4)
H11 H -0.3649 0.0709 0.4085
O4 O 0.1783(4) 0.14998(18) 0.8790(3)
H12 H 0.2734 0.1123 0.8991
Cl1 Cl 0.46378(12) 0.51785(6) 0.89148(12)
loop_
_geom_bond_atom_site_label_1
_geom_bond_atom_site_label_2
_geom_bond_site_symmetry_1
_geom_bond_site_symmetry_2
C1 C2 1_555 1_555
C2 H1 1_555 1_555
C3 C2 1_555 1_555
H2 C3 1_555 1_555
C4 N2 1_555 1_555
C5 H3 1_555 1_555
C6 C5 1_555 1_555
H4 C6 1_555 1_555
C7 C6 1_555 1_555
H5 C7 1_555 1_555
C8 C7 1_555 1_555
C9 C8 1_555 1_555
H6 C9 1_555 1_555
H7 C9 1_555 1_555
F1 C6 1_555 1_555
N1 C1 1_555 1_555
H8 N1 1_555 1_555
H9 N1 1_555 1_555
H10 N1 1_555 1_555
N2 C1 1_555 1_555
N3 C3 1_555 1_555
N4 C8 1_555 1_555
N5 N4 1_555 1_555
N6 N5 1_555 1_555
O1 C4 1_555 1_555
O2 C5 1_555 1_555
O3 C9 1_555 1_555
H11 O3 1_555 1_555
O4 C7 1_555 1_555
H12 O4 1_555 1_555
C4 N3 1_555 1_555
C5 N3 1_555 1_555
C8 O2 1_555 1_555

#END
