
#######################################################################
#
#                 Cambridge Crystallographic Data Centre
#                                CCDC 
#
#######################################################################
#
# If this CIF has been generated from an entry in the Cambridge 
# Structural Database, then it will include bibliographic, chemical, 
# crystal, experimental, refinement or atomic coordinate data resulting 
# from the CCDC's data processing and validation procedures.
#
#######################################################################

data_HAMFAC01
_chemical_formula_moiety         'C54 H38 Mg1 N6'
_chemical_name_systematic        
bis(Pyridine)-(5,10,15,20-tetraphenylporphyrinato)-magnesium(ii)
_symmetry_cell_setting           triclinic
_symmetry_space_group_name_H-M   'P -1'
_symmetry_Int_Tables_number      2
_space_group_name_Hall           '-P 1'
loop_
_symmetry_equiv_pos_site_id
_symmetry_equiv_pos_as_xyz
1 x,y,z
2 -x,-y,-z
_cell_length_a                   9.6139(13)
_cell_length_b                   11.0096(16)
_cell_length_c                   11.8656(15)
_cell_angle_alpha                102.063(3)
_cell_angle_beta                 103.785(3)
_cell_angle_gamma                114.043(2)
_cell_volume                     1045.49
_exptl_crystal_colour            'blue purple'
_exptl_crystal_description       plate
_cell_formula_units_Z            1
_exptl_crystal_recrystallization_method pyridine
loop_
_atom_site_label
_atom_site_type_symbol
_atom_site_fract_x
_atom_site_fract_y
_atom_site_fract_z
Mg1 Mg 0.0000 0.0000 0.0000
N1 N 0.0436(3) 0.2304(2) 0.09654(19)
C1 C -0.0677(4) 0.2706(4) 0.0608(3)
H1 H -0.1706 0.2011 0.0045
N2 N 0.1040(2) -0.0180(2) 0.16474(17)
C2 C -0.0424(4) 0.4065(4) 0.1006(3)
H2 H -0.1256 0.4277 0.0722
N3 N 0.2296(2) 0.1007(2) -0.00824(17)
C3 C 0.1072(5) 0.5096(4) 0.1827(3)
H3 H 0.1291 0.6032 0.2116
C4 C 0.2245(4) 0.4720(4) 0.2214(3)
H4 H 0.3284 0.5399 0.2774
C5 C 0.1870(4) 0.3336(4) 0.1769(3)
H5 H 0.2683 0.3101 0.2050
C6 C -0.2176(3) -0.2404(3) 0.2728(2)
C7 C -0.2845(3) -0.3851(3) 0.2371(3)
H6 H -0.2924 -0.4355 0.1603
C8 C -0.3403(4) -0.4572(3) 0.3125(3)
H7 H -0.3848 -0.5552 0.2863
C9 C -0.3307(3) -0.3861(4) 0.4245(3)
H8 H -0.3672 -0.4349 0.4756
C10 C -0.2677(4) -0.2437(4) 0.4613(3)
H9 H -0.2617 -0.1944 0.5378
C11 C -0.2120(3) -0.1712(3) 0.3852(3)
H10 H -0.1700 -0.0735 0.4111
C12 C 0.5632(3) 0.1499(3) 0.2713(2)
C13 C 0.6186(3) 0.2428(3) 0.3908(2)
H11 H 0.5461 0.2641 0.4191
C14 C 0.7800(4) 0.3042(3) 0.4685(3)
H12 H 0.8165 0.3682 0.5476
C15 C 0.8850(4) 0.2696(4) 0.4278(3)
H13 H 0.9940 0.3118 0.4790
C16 C 0.8323(3) 0.1745(3) 0.3135(3)
H14 H 0.9038 0.1486 0.2882
C17 C 0.6721(3) 0.1159(3) 0.2344(3)
H15 H 0.6376 0.0528 0.1553
C18 C -0.1515(3) -0.1623(3) 0.1926(2)
C19 C 0.0184(3) -0.0975(3) 0.2244(2)
C20 C 0.1303(4) -0.1097(3) 0.3203(3)
C21 C 0.2796(4) -0.0384(3) 0.3188(2)
C22 C 0.2650(3) 0.0189(3) 0.2209(2)
C23 C 0.3927(3) 0.0976(3) 0.1856(2)
C24 C 0.3759(3) 0.1363(3) 0.0793(2)
C25 C 0.5066(4) 0.2251(3) 0.0474(3)
C26 C 0.4408(3) 0.2430(3) -0.0570(2)
C27 C 0.2672(3) 0.1657(3) -0.0917(2)
H16 H 0.504(2) 0.303(2) -0.1021(18)
H17 H 0.380(3) -0.034(2) 0.3661(19)
H18 H 0.609(3) 0.268(2) 0.0939(19)
H19 H 0.106(3) -0.153(2) 0.379(2)
N1A N -0.0436(3) -0.2304(2) -0.09654(19)
C1A C 0.0677(4) -0.2706(4) -0.0608(3)
H1A H 0.1706 -0.2011 -0.0045
C2A C 0.0424(4) -0.4065(4) -0.1006(3)
H2A H 0.1256 -0.4277 -0.0722
C3A C -0.1072(5) -0.5096(4) -0.1827(3)
H3A H -0.1291 -0.6032 -0.2116
C4A C -0.2245(4) -0.4720(4) -0.2214(3)
H4A H -0.3284 -0.5399 -0.2774
C5A C -0.1870(4) -0.3336(4) -0.1769(3)
H5A H -0.2683 -0.3101 -0.2050
C27A C -0.2672(3) -0.1657(3) 0.0917(2)
N3A N -0.2296(2) -0.1007(2) 0.00824(17)
N2A N -0.1040(2) 0.0180(2) -0.16474(17)
C19A C -0.0184(3) 0.0975(3) -0.2244(2)
C18A C 0.1515(3) 0.1623(3) -0.1926(2)
C6A C 0.2176(3) 0.2404(3) -0.2728(2)
C7A C 0.2845(3) 0.3851(3) -0.2371(3)
H6A H 0.2924 0.4355 -0.1603
C8A C 0.3403(4) 0.4572(3) -0.3125(3)
H7A H 0.3848 0.5552 -0.2863
C9A C 0.3307(3) 0.3861(4) -0.4245(3)
H8A H 0.3672 0.4349 -0.4756
C10A C 0.2677(4) 0.2437(4) -0.4613(3)
H9A H 0.2617 0.1944 -0.5378
C11A C 0.2120(3) 0.1712(3) -0.3852(3)
H10A H 0.1700 0.0735 -0.4111
C20A C -0.1303(4) 0.1097(3) -0.3203(3)
C21A C -0.2796(4) 0.0384(3) -0.3188(2)
C22A C -0.2650(3) -0.0189(3) -0.2209(2)
C23A C -0.3927(3) -0.0976(3) -0.1856(2)
C12A C -0.5632(3) -0.1499(3) -0.2713(2)
C13A C -0.6186(3) -0.2428(3) -0.3908(2)
H11A H -0.5461 -0.2641 -0.4191
C14A C -0.7800(4) -0.3042(3) -0.4685(3)
H12A H -0.8165 -0.3682 -0.5476
C15A C -0.8850(4) -0.2696(4) -0.4278(3)
H13A H -0.9940 -0.3118 -0.4790
C16A C -0.8323(3) -0.1745(3) -0.3135(3)
H14A H -0.9038 -0.1486 -0.2882
C17A C -0.6721(3) -0.1159(3) -0.2344(3)
H15A H -0.6376 -0.0528 -0.1553
C24A C -0.3759(3) -0.1363(3) -0.0793(2)
C25A C -0.5066(4) -0.2251(3) -0.0474(3)
C26A C -0.4408(3) -0.2430(3) 0.0570(2)
H16A H -0.504(2) -0.303(2) 0.1021(18)
H18A H -0.609(3) -0.268(2) -0.0939(19)
H17A H -0.380(3) 0.034(2) -0.3661(19)
H19A H -0.106(3) 0.153(2) -0.379(2)
loop_
_geom_bond_atom_site_label_1
_geom_bond_atom_site_label_2
_geom_bond_site_symmetry_1
_geom_bond_site_symmetry_2
Mg1 N1 1_555 1_555
N1 C1 1_555 1_555
C1 H1 1_555 1_555
N2 Mg1 1_555 1_555
C2 C1 1_555 1_555
H2 C2 1_555 1_555
N3 Mg1 1_555 1_555
C3 C2 1_555 1_555
H3 C3 1_555 1_555
C4 C3 1_555 1_555
H4 C4 1_555 1_555
C5 N1 1_555 1_555
H5 C5 1_555 1_555
C6 C7 1_555 1_555
C7 H6 1_555 1_555
C8 C7 1_555 1_555
H7 C8 1_555 1_555
C9 C8 1_555 1_555
H8 C9 1_555 1_555
C10 C9 1_555 1_555
H9 C10 1_555 1_555
C11 C6 1_555 1_555
H10 C11 1_555 1_555
C12 C13 1_555 1_555
C13 H11 1_555 1_555
C14 C13 1_555 1_555
H12 C14 1_555 1_555
C15 C14 1_555 1_555
H13 C15 1_555 1_555
C16 C15 1_555 1_555
H14 C16 1_555 1_555
C17 C12 1_555 1_555
H15 C17 1_555 1_555
C18 C6 1_555 1_555
C19 N2 1_555 1_555
C20 C19 1_555 1_555
C21 C20 1_555 1_555
C22 N2 1_555 1_555
C23 C12 1_555 1_555
C24 N3 1_555 1_555
C25 C24 1_555 1_555
C26 C25 1_555 1_555
C27 N3 1_555 1_555
H16 C26 1_555 1_555
H17 C21 1_555 1_555
H18 C25 1_555 1_555
H19 C20 1_555 1_555
N1A Mg1 1_555 1_555
C1A N1A 1_555 1_555
H1A C1A 1_555 1_555
C2A C1A 1_555 1_555
H2A C2A 1_555 1_555
C3A C2A 1_555 1_555
H3A C3A 1_555 1_555
C4A C3A 1_555 1_555
H4A C4A 1_555 1_555
C5A N1A 1_555 1_555
H5A C5A 1_555 1_555
C27A C18 1_555 1_555
N3A Mg1 1_555 1_555
N2A Mg1 1_555 1_555
C19A N2A 1_555 1_555
C18A C27 1_555 1_555
C6A C18A 1_555 1_555
C7A C6A 1_555 1_555
H6A C7A 1_555 1_555
C8A C7A 1_555 1_555
H7A C8A 1_555 1_555
C9A C8A 1_555 1_555
H8A C9A 1_555 1_555
C10A C9A 1_555 1_555
H9A C10A 1_555 1_555
C11A C6A 1_555 1_555
H10A C11A 1_555 1_555
C20A C19A 1_555 1_555
C21A C20A 1_555 1_555
C22A N2A 1_555 1_555
C23A C22A 1_555 1_555
C12A C23A 1_555 1_555
C13A C12A 1_555 1_555
H11A C13A 1_555 1_555
C14A C13A 1_555 1_555
H12A C14A 1_555 1_555
C15A C14A 1_555 1_555
H13A C15A 1_555 1_555
C16A C15A 1_555 1_555
H14A C16A 1_555 1_555
C17A C12A 1_555 1_555
H15A C17A 1_555 1_555
C24A N3A 1_555 1_555
C25A C24A 1_555 1_555
C26A C27A 1_555 1_555
H16A C26A 1_555 1_555
H18A C25A 1_555 1_555
H17A C21A 1_555 1_555
H19A C20A 1_555 1_555
C4 C5 1_555 1_555
C10 C11 1_555 1_555
C16 C17 1_555 1_555
C18 C19 1_555 1_555
C21 C22 1_555 1_555
C22 C23 1_555 1_555
C23 C24 1_555 1_555
C26 C27 1_555 1_555
C4A C5A 1_555 1_555
C27A N3A 1_555 1_555
C19A C18A 1_555 1_555
C10A C11A 1_555 1_555
C21A C22A 1_555 1_555
C23A C24A 1_555 1_555
C16A C17A 1_555 1_555
C25A C26A 1_555 1_555

#END
