
#######################################################################
#
#                 Cambridge Crystallographic Data Centre
#                                CCDC 
#
#######################################################################
#
# If this CIF has been generated from an entry in the Cambridge 
# Structural Database, then it will include bibliographic, chemical, 
# crystal, experimental, refinement or atomic coordinate data resulting 
# from the CCDC's data processing and validation procedures.
#
#######################################################################

data_HAMHUB
_chemical_formula_moiety         'C27 H19 N1 O1 S1'
_chemical_name_systematic        
2-(1,3-benzothiazol-2-yl)-4-(2,2-diphenylvinyl)phenol
_symmetry_cell_setting           triclinic
_symmetry_space_group_name_H-M   'P -1'
_symmetry_Int_Tables_number      2
_space_group_name_Hall           '-P 1'
loop_
_symmetry_equiv_pos_site_id
_symmetry_equiv_pos_as_xyz
1 x,y,z
2 -x,-y,-z
_cell_length_a                   8.7435(8)
_cell_length_b                   11.2211(9)
_cell_length_c                   11.5752(11)
_cell_angle_alpha                90.0410(10)
_cell_angle_beta                 109.120(2)
_cell_angle_gamma                109.109(2)
_cell_volume                     1006.45
_cell_formula_units_Z            2
loop_
_atom_site_label
_atom_site_type_symbol
_atom_site_fract_x
_atom_site_fract_y
_atom_site_fract_z
N1 N 0.2120(2) 0.91001(17) 0.94752(15)
O1 O 0.2722(2) 1.09331(16) 0.81037(17)
H1 H 0.2282 1.0503 0.8560
S1 S 0.31038(8) 0.71663(6) 0.95040(6)
C1 C 0.3004(3) 0.8615(2) 0.90218(18)
C2 C 0.1471(3) 0.8332(2) 1.02608(18)
C3 C 0.1867(3) 0.7221(2) 1.0386(2)
C4 C 0.1284(3) 0.6351(2) 1.1132(2)
H2 H 0.1541 0.5607 1.1211
C5 C 0.0313(3) 0.6620(3) 1.1751(2)
H3 H -0.0088 0.6050 1.2257
C6 C -0.0076(3) 0.7716(2) 1.1637(2)
H4 H -0.0739 0.7872 1.2064
C7 C 0.0495(3) 0.8578(2) 1.09070(19)
H5 H 0.0236 0.9321 1.0842
C8 C 0.3861(3) 0.92335(19) 0.81839(18)
C9 C 0.3687(3) 1.0375(2) 0.7768(2)
C10 C 0.4538(3) 1.0960(2) 0.6994(2)
H6 H 0.4425 1.1714 0.6714
C11 C 0.5547(3) 1.0437(2) 0.6637(2)
H7 H 0.6119 1.0853 0.6123
C12 C 0.5749(3) 0.92963(19) 0.70208(19)
C13 C 0.4890(3) 0.8724(2) 0.77926(19)
H8 H 0.5000 0.7967 0.8064
C14 C 0.6929(3) 0.8858(2) 0.6625(2)
H9 H 0.7620 0.9467 0.6291
C15 C 0.7200(3) 0.77580(19) 0.66525(18)
C16 C 0.8517(3) 0.75596(19) 0.61888(18)
C17 C 0.9142(3) 0.8324(2) 0.5387(2)
H10 H 0.8734 0.8981 0.5125
C18 C 1.0363(3) 0.8124(2) 0.4970(2)
H11 H 1.0762 0.8648 0.4432
C19 C 1.0988(3) 0.7170(2) 0.5339(2)
H12 H 1.1822 0.7049 0.5066
C20 C 1.0372(3) 0.6393(3) 0.6115(2)
H13 H 1.0774 0.5730 0.6363
C21 C 0.9154(3) 0.6590(2) 0.6533(2)
H14 H 0.8751 0.6054 0.7062
C22 C 0.6217(2) 0.66370(18) 0.71334(18)
C23 C 0.6788(3) 0.6466(2) 0.83590(19)
H15 H 0.7783 0.7070 0.8900
C24 C 0.5915(3) 0.5418(2) 0.8796(2)
H16 H 0.6314 0.5323 0.9628
C25 C 0.4468(3) 0.4519(2) 0.8014(3)
H17 H 0.3885 0.3803 0.8307
C26 C 0.3875(3) 0.4674(2) 0.6794(3)
H18 H 0.2877 0.4066 0.6261
C27 C 0.4745(3) 0.5727(2) 0.6346(2)
H19 H 0.4337 0.5820 0.5514
loop_
_geom_bond_atom_site_label_1
_geom_bond_atom_site_label_2
_geom_bond_site_symmetry_1
_geom_bond_site_symmetry_2
N1 C1 1_555 1_555
O1 H1 1_555 1_555
S1 C1 1_555 1_555
C1 C8 1_555 1_555
C2 N1 1_555 1_555
C3 S1 1_555 1_555
C4 C3 1_555 1_555
H2 C4 1_555 1_555
C5 C4 1_555 1_555
H3 C5 1_555 1_555
C6 C5 1_555 1_555
H4 C6 1_555 1_555
C7 C2 1_555 1_555
H5 C7 1_555 1_555
C8 C9 1_555 1_555
C9 O1 1_555 1_555
C10 C9 1_555 1_555
H6 C10 1_555 1_555
C11 C10 1_555 1_555
H7 C11 1_555 1_555
C12 C11 1_555 1_555
C13 C8 1_555 1_555
H8 C13 1_555 1_555
C14 C12 1_555 1_555
H9 C14 1_555 1_555
C15 C14 1_555 1_555
C16 C15 1_555 1_555
C17 C16 1_555 1_555
H10 C17 1_555 1_555
C18 C17 1_555 1_555
H11 C18 1_555 1_555
C19 C18 1_555 1_555
H12 C19 1_555 1_555
C20 C19 1_555 1_555
H13 C20 1_555 1_555
C21 C16 1_555 1_555
H14 C21 1_555 1_555
C22 C15 1_555 1_555
C23 C22 1_555 1_555
H15 C23 1_555 1_555
C24 C23 1_555 1_555
H16 C24 1_555 1_555
C25 C24 1_555 1_555
H17 C25 1_555 1_555
C26 C25 1_555 1_555
H18 C26 1_555 1_555
C27 C22 1_555 1_555
H19 C27 1_555 1_555
C2 C3 1_555 1_555
C6 C7 1_555 1_555
C12 C13 1_555 1_555
C20 C21 1_555 1_555
C26 C27 1_555 1_555

#END
