
#######################################################################
#
#                 Cambridge Crystallographic Data Centre
#                                CCDC 
#
#######################################################################
#
# If this CIF has been generated from an entry in the Cambridge 
# Structural Database, then it will include bibliographic, chemical, 
# crystal, experimental, refinement or atomic coordinate data resulting 
# from the CCDC's data processing and validation procedures.
#
#######################################################################

data_HAMKEO
_chemical_formula_moiety         'C26 H16 O2 S3'
_chemical_name_systematic        
2,6-bis((4-methoxyphenyl)ethynyl)bisthieno[3,2-b:2',3'-d]thiophene
_symmetry_cell_setting           orthorhombic
_symmetry_space_group_name_H-M   'C m c 21'
_symmetry_Int_Tables_number      36
_space_group_name_Hall           'C 2n -2'
loop_
_symmetry_equiv_pos_site_id
_symmetry_equiv_pos_as_xyz
1 x,y,z
2 -x,-y,1/2+z
3 x,-y,1/2+z
4 -x,y,z
5 1/2+x,1/2+y,z
6 1/2-x,1/2-y,1/2+z
7 1/2+x,1/2-y,1/2+z
8 1/2-x,1/2+y,z
_cell_length_a                   50.008(18)
_cell_length_b                   7.318(3)
_cell_length_c                   5.954(2)
_cell_angle_alpha                90
_cell_angle_beta                 90
_cell_angle_gamma                90
_cell_volume                     2178.92
_exptl_crystal_colour            yellow
_exptl_crystal_description       Lath
_chemical_melting_point          '430 K'
_cell_formula_units_Z            4
_exptl_crystal_recrystallization_method 'dichloromethane/hexane (3:2)'
loop_
_atom_site_label
_atom_site_type_symbol
_atom_site_fract_x
_atom_site_fract_y
_atom_site_fract_z
S1 S 0.5000 0.84337(12) 0.97115(16)
S2 S 0.53920(2) 0.66997(8) 0.38805(11)
C1 C 0.51418(5) 0.7176(3) 0.5777(5)
C2 C 0.52475(5) 0.7853(3) 0.7770(5)
C3 C 0.55284(5) 0.8018(4) 0.7779(5)
H1 H 0.5636(7) 0.850(4) 0.892(7)
C4 C 0.56359(5) 0.7455(3) 0.5777(5)
C5 C 0.59055(5) 0.7476(3) 0.5049(5)
C6 C 0.61281(5) 0.7520(3) 0.4293(5)
C7 C 0.63942(5) 0.7542(3) 0.3416(5)
C8 C 0.66025(5) 0.8407(3) 0.4598(5)
H2 H 0.6573(6) 0.903(4) 0.603(6)
C9 C 0.68599(5) 0.8399(3) 0.3749(6)
H3 H 0.7005(5) 0.898(4) 0.445(5)
C10 C 0.69165(5) 0.7520(3) 0.1730(5)
C11 C 0.67125(6) 0.6661(4) 0.0539(5)
H4 H 0.6745(5) 0.604(4) -0.085(6)
C12 C 0.64533(5) 0.6690(4) 0.1383(5)
H5 H 0.6311(5) 0.608(4) 0.057(5)
O1 O 0.71780(4) 0.7597(3) 0.1055(4)
C13 C 0.72501(6) 0.6617(5) -0.0923(7)
H6 H 0.7440(6) 0.678(4) -0.107(7)
H7 H 0.7207(6) 0.530(6) -0.080(7)
H8 H 0.7149(8) 0.713(5) -0.226(8)
S2C S 0.46080(2) 0.66997(8) 0.38805(11)
C1C C 0.48582(5) 0.7176(3) 0.5777(5)
C2C C 0.47525(5) 0.7853(3) 0.7770(5)
C3C C 0.44716(5) 0.8018(4) 0.7779(5)
H1C H 0.4364(7) 0.850(4) 0.892(7)
C4C C 0.43641(5) 0.7455(3) 0.5777(5)
C5C C 0.40945(5) 0.7476(3) 0.5049(5)
C6C C 0.38719(5) 0.7520(3) 0.4293(5)
C7C C 0.36058(5) 0.7542(3) 0.3416(5)
C8C C 0.33975(5) 0.8407(3) 0.4598(5)
H2C H 0.3427(6) 0.903(4) 0.603(6)
C9C C 0.31401(5) 0.8399(3) 0.3749(6)
H3C H 0.2995(5) 0.898(4) 0.445(5)
C10C C 0.30835(5) 0.7520(3) 0.1730(5)
C11C C 0.32875(6) 0.6661(4) 0.0539(5)
H4C H 0.3255(5) 0.604(4) -0.085(6)
C12C C 0.35467(5) 0.6690(4) 0.1383(5)
H5C H 0.3689(5) 0.608(4) 0.057(5)
O1C O 0.28220(4) 0.7597(3) 0.1055(4)
C13C C 0.27499(6) 0.6617(5) -0.0923(7)
H6C H 0.2560(6) 0.678(4) -0.107(7)
H7C H 0.2793(6) 0.530(6) -0.080(7)
H8C H 0.2851(8) 0.713(5) -0.226(8)
loop_
_geom_bond_atom_site_label_1
_geom_bond_atom_site_label_2
_geom_bond_site_symmetry_1
_geom_bond_site_symmetry_2
S1 C2 1_555 1_555
S2 C1 1_555 1_555
C1 C2 1_555 1_555
C2 C3 1_555 1_555
C3 H1 1_555 1_555
C4 S2 1_555 1_555
C5 C4 1_555 1_555
C6 C5 1_555 1_555
C7 C6 1_555 1_555
C8 C7 1_555 1_555
H2 C8 1_555 1_555
C9 C8 1_555 1_555
H3 C9 1_555 1_555
C10 C9 1_555 1_555
C11 C10 1_555 1_555
H4 C11 1_555 1_555
C12 C7 1_555 1_555
H5 C12 1_555 1_555
O1 C10 1_555 1_555
C13 O1 1_555 1_555
H6 C13 1_555 1_555
H7 C13 1_555 1_555
H8 C13 1_555 1_555
S2C C1C 1_555 1_555
C1C C1 1_555 1_555
C2C S1 1_555 1_555
C3C C2C 1_555 1_555
H1C C3C 1_555 1_555
C4C S2C 1_555 1_555
C5C C4C 1_555 1_555
C6C C5C 1_555 1_555
C7C C6C 1_555 1_555
C8C C7C 1_555 1_555
H2C C8C 1_555 1_555
C9C C8C 1_555 1_555
H3C C9C 1_555 1_555
C10C C9C 1_555 1_555
C11C C10C 1_555 1_555
H4C C11C 1_555 1_555
C12C C7C 1_555 1_555
H5C C12C 1_555 1_555
O1C C10C 1_555 1_555
C13C O1C 1_555 1_555
H6C C13C 1_555 1_555
H7C C13C 1_555 1_555
H8C C13C 1_555 1_555
C3 C4 1_555 1_555
C11 C12 1_555 1_555
C1C C2C 1_555 1_555
C3C C4C 1_555 1_555
C11C C12C 1_555 1_555

#END
