
#######################################################################
#
#                 Cambridge Crystallographic Data Centre
#                                CCDC 
#
#######################################################################
#
# If this CIF has been generated from an entry in the Cambridge 
# Structural Database, then it will include bibliographic, chemical, 
# crystal, experimental, refinement or atomic coordinate data resulting 
# from the CCDC's data processing and validation procedures.
#
#######################################################################

data_HAMMAL
_chemical_formula_moiety         'C19 H16 Br1 N1 O1'
_chemical_name_systematic        
9-(2-Bromobenzyl)-2,3,4,9-tetrahydro-1H-carbazol-1-one
_symmetry_cell_setting           orthorhombic
_symmetry_space_group_name_H-M   'P 21 21 21'
_symmetry_Int_Tables_number      19
_space_group_name_Hall           'P 2ac 2ab'
loop_
_symmetry_equiv_pos_site_id
_symmetry_equiv_pos_as_xyz
1 x,y,z
2 1/2-x,-y,1/2+z
3 -x,1/2+y,1/2-z
4 1/2+x,1/2-y,-z
_cell_length_a                   9.7349(12)
_cell_length_b                   10.6512(14)
_cell_length_c                   14.7576(19)
_cell_angle_alpha                90
_cell_angle_beta                 90
_cell_angle_gamma                90
_cell_volume                     1530.19
_exptl_crystal_colour            colorless
_exptl_crystal_description       block
_chemical_melting_point          '269 deg.C'
_cell_formula_units_Z            4
loop_
_atom_site_label
_atom_site_type_symbol
_atom_site_fract_x
_atom_site_fract_y
_atom_site_fract_z
Br1 Br 1.085547(14) 0.705738(13) 0.830859(9)
C1 C 0.81716(13) 0.25283(12) 0.87999(8)
C2 C 0.95174(13) 0.19788(14) 0.89947(8)
C3 C 0.94734(14) 0.06039(14) 0.92744(10)
H1 H 0.9499 0.0558 0.9944
H2 H 1.0311 0.0185 0.9043
C4 C 0.82154(15) -0.01263(14) 0.89389(11)
H3 H 0.8267 -0.0220 0.8272
H4 H 0.8218 -0.0977 0.9210
C5 C 0.68788(14) 0.05469(12) 0.91914(10)
H5 H 0.6090 0.0121 0.8900
H6 H 0.6744 0.0517 0.9856
C6 C 0.69478(13) 0.18830(12) 0.88827(8)
C7 C 0.58768(14) 0.27229(10) 0.86272(8)
C8 C 0.44342(13) 0.26151(12) 0.85667(9)
H7 H 0.3991 0.1847 0.8712
C9 C 0.36778(13) 0.36455(13) 0.82926(11)
H8 H 0.2708 0.3579 0.8241
C10 C 0.43282(15) 0.47962(13) 0.80879(9)
H9 H 0.3782 0.5493 0.7909
C11 C 0.57408(15) 0.49372(11) 0.81404(8)
H10 H 0.6172 0.5715 0.8005
C12 C 0.65088(13) 0.38801(11) 0.84018(8)
C13 C 0.88815(13) 0.47779(12) 0.84231(9)
H11 H 0.8589 0.5349 0.7930
H12 H 0.9797 0.4440 0.8262
C14 C 0.89977(13) 0.55201(11) 0.92979(8)
C15 C 0.82609(13) 0.51897(12) 1.00752(8)
H13 H 0.7650 0.4494 1.0056
C16 C 0.84083(14) 0.58632(13) 1.08764(9)
H14 H 0.7897 0.5626 1.1397
C17 C 0.92997(15) 0.68835(12) 1.09201(9)
H15 H 0.9406 0.7334 1.1471
C18 C 1.00348(15) 0.72419(12) 1.01538(9)
H16 H 1.0639 0.7942 1.0174
C19 C 0.98704(13) 0.65557(12) 0.93555(9)
N1 N 0.79115(11) 0.37462(10) 0.84886(7)
O1 O 1.05983(11) 0.25550(12) 0.89509(8)
loop_
_geom_bond_atom_site_label_1
_geom_bond_atom_site_label_2
_geom_bond_site_symmetry_1
_geom_bond_site_symmetry_2
Br1 C19 1_555 1_555
C1 C2 1_555 1_555
C2 C3 1_555 1_555
C3 H1 1_555 1_555
H2 C3 1_555 1_555
C4 C3 1_555 1_555
H3 C4 1_555 1_555
H4 C4 1_555 1_555
C5 C4 1_555 1_555
H5 C5 1_555 1_555
H6 C5 1_555 1_555
C6 C1 1_555 1_555
C7 C6 1_555 1_555
C8 C7 1_555 1_555
H7 C8 1_555 1_555
C9 C8 1_555 1_555
H8 C9 1_555 1_555
C10 C9 1_555 1_555
H9 C10 1_555 1_555
C11 C10 1_555 1_555
H10 C11 1_555 1_555
C12 C7 1_555 1_555
C13 H11 1_555 1_555
H12 C13 1_555 1_555
C14 C13 1_555 1_555
C15 C14 1_555 1_555
H13 C15 1_555 1_555
C16 C15 1_555 1_555
H14 C16 1_555 1_555
C17 C16 1_555 1_555
H15 C17 1_555 1_555
C18 C17 1_555 1_555
H16 C18 1_555 1_555
C19 C14 1_555 1_555
N1 C1 1_555 1_555
O1 C2 1_555 1_555
C5 C6 1_555 1_555
C11 C12 1_555 1_555
C12 N1 1_555 1_555
C13 N1 1_555 1_555
C18 C19 1_555 1_555

#END
