
#######################################################################
#
#                 Cambridge Crystallographic Data Centre
#                                CCDC 
#
#######################################################################
#
# If this CIF has been generated from an entry in the Cambridge 
# Structural Database, then it will include bibliographic, chemical, 
# crystal, experimental, refinement or atomic coordinate data resulting 
# from the CCDC's data processing and validation procedures.
#
#######################################################################

data_HAMQER
_chemical_formula_moiety         'C14 H25 As1 Cl1 N1'
_chemical_name_systematic        
(t-Butylamino)-chloro-(1,2,3,4,5-pentamethylcyclopenta-2,4-dienyl)arsane
_symmetry_cell_setting           monoclinic
_symmetry_space_group_name_H-M   'P 21/n'
_symmetry_Int_Tables_number      14
_space_group_name_Hall           '-P 2yn'
loop_
_symmetry_equiv_pos_site_id
_symmetry_equiv_pos_as_xyz
1 x,y,z
2 1/2-x,1/2+y,1/2-z
3 -x,-y,-z
4 1/2+x,1/2-y,1/2+z
_cell_length_a                   6.466(1)
_cell_length_b                   17.319(3)
_cell_length_c                   14.069(3)
_cell_angle_alpha                90.00
_cell_angle_beta                 93.34(3)
_cell_angle_gamma                90.00
_cell_volume                     1572.84
_exptl_crystal_colour            yellow
_exptl_crystal_description       prism
_chemical_melting_point          74-75deg.C
_cell_formula_units_Z            4
loop_
_atom_site_label
_atom_site_type_symbol
_atom_site_fract_x
_atom_site_fract_y
_atom_site_fract_z
As1 As -0.02040(5) 0.09039(2) 0.81913(2)
Cl1 Cl -0.21336(14) 0.19466(5) 0.76274(7)
N1 N 0.1949(4) 0.1403(2) 0.8785(2)
H1 H 0.2516(54) 0.1686(22) 0.8482(25)
C1 C 0.1142(5) 0.0608(2) 0.6985(2)
C2 C 0.2319(5) -0.0075(2) 0.7396(2)
C3 C 0.1217(5) -0.0719(2) 0.7194(2)
C4 C -0.0639(5) -0.0522(2) 0.6597(2)
C5 C -0.0655(5) 0.0244(2) 0.6423(2)
C6 C 0.2329(6) 0.1252(2) 0.6523(3)
H2 H 0.3473(25) 0.1416(11) 0.6953(8)
H3 H 0.1409(12) 0.1686(6) 0.6388(17)
H4 H 0.2861(35) 0.1066(5) 0.5935(10)
C7 C 0.4411(5) -0.0027(2) 0.7917(3)
H5 H 0.4259(7) 0.0166(15) 0.8556(7)
H6 H 0.5291(15) 0.0320(13) 0.7580(11)
H7 H 0.5035(19) -0.0537(4) 0.7950(18)
C8 C 0.1788(7) -0.1533(2) 0.7476(3)
H8 H 0.2521(39) -0.1774(6) 0.6972(9)
H9 H 0.0539(7) -0.1824(5) 0.7580(20)
H10 H 0.2671(37) -0.1526(2) 0.8057(12)
C9 C -0.2207(6) -0.1109(2) 0.6240(3)
H11 H -0.2620(33) -0.1422(11) 0.6769(4)
H12 H -0.1602(16) -0.1438(11) 0.5772(15)
H13 H -0.3411(20) -0.0848(2) 0.5950(18)
C10 C -0.2124(6) 0.0680(2) 0.5754(3)
H14 H -0.1562(20) 0.0706(13) 0.5130(5)
H15 H -0.2308(32) 0.1199(5) 0.5995(10)
H16 H -0.3451(14) 0.0417(8) 0.5705(15)
C11 C 0.2001(5) 0.1655(2) 0.9794(2)
C12 C 0.0598(7) 0.2347(2) 0.9930(3)
H17 H 0.0705(36) 0.2505(11) 1.0593(5)
H18 H -0.0824(9) 0.2207(6) 0.9751(20)
H19 H 0.1019(30) 0.2770(6) 0.9533(16)
C13 C 0.4252(6) 0.1862(3) 1.0070(3)
H20 H 0.4362(11) 0.2043(18) 1.0723(8)
H21 H 0.4706(17) 0.2266(13) 0.9652(15)
H22 H 0.5116(9) 0.1409(5) 1.0009(22)
C14 C 0.1342(7) 0.0984(2) 1.0396(3)
H23 H -0.0122(12) 0.0883(11) 1.0263(15)
H24 H 0.1593(42) 0.1110(7) 1.1064(3)
H25 H 0.2133(33) 0.0528(5) 1.0246(15)
loop_
_geom_bond_atom_site_label_1
_geom_bond_atom_site_label_2
_geom_bond_site_symmetry_1
_geom_bond_site_symmetry_2
As1 Cl1 1_555 1_555
N1 As1 1_555 1_555
H1 N1 1_555 1_555
C1 As1 1_555 1_555
C2 C1 1_555 1_555
C3 C2 1_555 1_555
C4 C3 1_555 1_555
C5 C1 1_555 1_555
C6 C1 1_555 1_555
H2 C6 1_555 1_555
H3 C6 1_555 1_555
H4 C6 1_555 1_555
C7 C2 1_555 1_555
H5 C7 1_555 1_555
H6 C7 1_555 1_555
H7 C7 1_555 1_555
C8 C3 1_555 1_555
H8 C8 1_555 1_555
H9 C8 1_555 1_555
H10 C8 1_555 1_555
C9 C4 1_555 1_555
H11 C9 1_555 1_555
H12 C9 1_555 1_555
H13 C9 1_555 1_555
C10 C5 1_555 1_555
H14 C10 1_555 1_555
H15 C10 1_555 1_555
H16 C10 1_555 1_555
C11 N1 1_555 1_555
C12 C11 1_555 1_555
H17 C12 1_555 1_555
H18 C12 1_555 1_555
H19 C12 1_555 1_555
C13 C11 1_555 1_555
H20 C13 1_555 1_555
H21 C13 1_555 1_555
H22 C13 1_555 1_555
C14 C11 1_555 1_555
H23 C14 1_555 1_555
H24 C14 1_555 1_555
H25 C14 1_555 1_555
C4 C5 1_555 1_555

#END
