
#######################################################################
#
#                 Cambridge Crystallographic Data Centre
#                                CCDC 
#
#######################################################################
#
# If this CIF has been generated from an entry in the Cambridge 
# Structural Database, then it will include bibliographic, chemical, 
# crystal, experimental, refinement or atomic coordinate data resulting 
# from the CCDC's data processing and validation procedures.
#
#######################################################################

data_HAMRUL
_chemical_formula_moiety         'C27 H26 N3 1+,Cl1 1-,C2 H3 N1'
_chemical_name_systematic        
'3-(2-naphthylmethyl)-2-propyl-1-(quinolin-2-ylmethyl)-1H-imidazol-3-ium chloride acetonitrile solvate'
_chemical_properties_biological  'potent anti-proliferative effects'
_symmetry_cell_setting           monoclinic
_symmetry_space_group_name_H-M   'P 21/c'
_symmetry_Int_Tables_number      14
_space_group_name_Hall           '-P 2ybc'
loop_
_symmetry_equiv_pos_site_id
_symmetry_equiv_pos_as_xyz
1 x,y,z
2 -x,1/2+y,1/2-z
3 -x,-y,-z
4 x,1/2-y,1/2+z
_cell_length_a                   7.1224(2)
_cell_length_b                   26.0462(6)
_cell_length_c                   13.1530(3)
_cell_angle_alpha                90
_cell_angle_beta                 100.8312(15)
_cell_angle_gamma                90
_cell_volume                     2396.56
_exptl_crystal_colour            colorless
_exptl_crystal_description       plate
_chemical_melting_point          '198-199 deg.C'
_cell_formula_units_Z            4
loop_
_atom_site_label
_atom_site_type_symbol
_atom_site_fract_x
_atom_site_fract_y
_atom_site_fract_z
Cl1 Cl 0.20930(6) 0.317596(15) 0.19645(3)
N1 N 0.6026(2) 0.08752(5) 0.43740(11)
N2 N 0.6292(2) 0.23384(5) 0.37451(11)
N3 N 0.6465(2) 0.18462(5) 0.50743(11)
C1 C 0.6769(3) 0.22088(6) 0.19574(13)
C2 C 0.7418(3) 0.19983(6) 0.43366(13)
C3 C 0.8332(3) 0.18385(7) 0.06472(13)
C4 C 0.6941(3) -0.04958(7) 0.38491(14)
H1 H 0.7566 -0.0789 0.4183
C5 C 0.8289(3) 0.21908(6) 0.14648(13)
H2 H 0.9335 0.2418 0.1672
C6 C 0.6989(3) 0.09173(7) 0.53267(13)
C7 C 0.6723(3) 0.25914(6) 0.28145(13)
H3 H 0.7976 0.2766 0.2990
H4 H 0.5739 0.2855 0.2573
C8 C 0.4725(3) 0.20915(7) 0.49439(14)
H5 H 0.3778 0.2050 0.5359
C9 C 0.9367(3) 0.18460(7) 0.42113(14)
H6 H 1.0156 0.1793 0.4908
H7 H 0.9938 0.2134 0.3885
C10 C 0.6756(3) 0.14998(7) 0.03466(14)
C11 C 0.5209(3) 0.15231(7) 0.08789(14)
H8 H 0.4160 0.1295 0.0694
C12 C 0.7085(3) 0.14429(6) 0.58319(13)
H9 H 0.6262 0.1446 0.6360
H10 H 0.8415 0.1512 0.6186
C13 C 0.5094(3) 0.03643(7) 0.28496(14)
H11 H 0.4468 0.0655 0.2503
C14 C 0.6023(3) 0.04061(6) 0.38947(13)
C15 C 0.5207(3) 0.18704(7) 0.16567(13)
H12 H 0.4147 0.1885 0.1999
C16 C 0.6966(3) -0.00277(7) 0.43975(13)
C17 C 0.7934(3) 0.00368(7) 0.54334(14)
H13 H 0.8557 -0.0247 0.5807
C18 C 0.9894(3) 0.18115(7) 0.01240(14)
H14 H 1.0964 0.2031 0.0328
C19 C 0.9491(3) 0.13576(7) 0.35630(14)
H15 H 0.9394 0.1051 0.3994
H16 H 0.8406 0.1351 0.2970
C20 C 0.5092(3) -0.00935(7) 0.23341(14)
H17 H 0.4462 -0.0118 0.1632
C21 C 0.6019(3) -0.05273(7) 0.28389(14)
H18 H 0.6004 -0.0843 0.2476
C22 C 1.1358(3) 0.13394(7) 0.31646(15)
H19 H 1.1464 0.1646 0.2746
H20 H 1.1381 0.1032 0.2739
H21 H 1.2432 0.1329 0.3752
C23 C 0.4618(3) 0.24033(7) 0.41125(14)
H22 H 0.3588 0.2625 0.3835
C24 C 0.7968(3) 0.05055(7) 0.58922(14)
H23 H 0.8639 0.0555 0.6581
C25 C 0.9879(3) 0.14722(8) -0.06720(15)
H24 H 1.0932 0.1460 -0.1021
C26 C 0.6798(3) 0.11531(7) -0.04792(14)
H25 H 0.5757 0.0925 -0.0690
C27 C 0.8316(3) 0.11434(8) -0.09744(15)
H26 H 0.8314 0.0911 -0.1531
N4 N 0.2577(3) 1.03350(7) 0.99069(14)
C28 C 0.0731(3) 0.97127(8) 0.85245(17)
H27 H 0.0739 0.9367 0.8819
H28 H 0.1345 0.9705 0.7917
H29 H -0.0592 0.9831 0.8318
C29 C 0.1773(3) 1.00617(8) 0.92975(16)
loop_
_geom_bond_atom_site_label_1
_geom_bond_atom_site_label_2
_geom_bond_site_symmetry_1
_geom_bond_site_symmetry_2
N1 C6 1_555 1_555
N2 C2 1_555 1_555
N3 C2 1_555 1_555
C1 C5 1_555 1_555
C2 C9 1_555 1_555
C3 C5 1_555 1_555
C4 H1 1_555 1_555
C5 H2 1_555 1_555
C6 C12 1_555 1_555
C7 N2 1_555 1_555
H3 C7 1_555 1_555
H4 C7 1_555 1_555
C8 N3 1_555 1_555
H5 C8 1_555 1_555
C9 H6 1_555 1_555
H7 C9 1_555 1_555
C10 C3 1_555 1_555
C11 C10 1_555 1_555
H8 C11 1_555 1_555
C12 N3 1_555 1_555
H9 C12 1_555 1_555
H10 C12 1_555 1_555
C13 H11 1_555 1_555
C14 N1 1_555 1_555
C15 C1 1_555 1_555
H12 C15 1_555 1_555
C16 C4 1_555 1_555
C17 C16 1_555 1_555
H13 C17 1_555 1_555
C18 C3 1_555 1_555
H14 C18 1_555 1_555
C19 C9 1_555 1_555
H15 C19 1_555 1_555
H16 C19 1_555 1_555
C20 C13 1_555 1_555
H17 C20 1_555 1_555
C21 C4 1_555 1_555
H18 C21 1_555 1_555
C22 C19 1_555 1_555
H19 C22 1_555 1_555
H20 C22 1_555 1_555
H21 C22 1_555 1_555
C23 N2 1_555 1_555
H22 C23 1_555 1_555
C24 C6 1_555 1_555
H23 C24 1_555 1_555
C25 C18 1_555 1_555
H24 C25 1_555 1_555
C26 C10 1_555 1_555
H25 C26 1_555 1_555
C27 C25 1_555 1_555
H26 C27 1_555 1_555
N4 C29 1_555 1_555
C28 H27 1_555 1_555
H28 C28 1_555 1_555
H29 C28 1_555 1_555
C29 C28 1_555 1_555
C1 C7 1_555 1_555
C8 C23 1_555 1_555
C11 C15 1_555 1_555
C13 C14 1_555 1_555
C14 C16 1_555 1_555
C17 C24 1_555 1_555
C20 C21 1_555 1_555
C26 C27 1_555 1_555

#END
