
#######################################################################
#
#                 Cambridge Crystallographic Data Centre
#                                CCDC 
#
#######################################################################
#
# If this CIF has been generated from an entry in the Cambridge 
# Structural Database, then it will include bibliographic, chemical, 
# crystal, experimental, refinement or atomic coordinate data resulting 
# from the CCDC's data processing and validation procedures.
#
#######################################################################

data_HAMRAR
_chemical_compound_source        'Euonymus oblongifolius'
_chemical_name_common            '8R-hydroxy-3,15-isopimaradien-3-oic acid'
_chemical_formula_moiety         'C20 H30 O3'
_chemical_name_systematic        
'8a-hydroxy-1,4a,7-trimethyl-7-vinyl-3,4,4a,4b,5,6,7,8,8a,9,10,10a-dodecahydrophenanthrene-2-carboxylic acid'
_chemical_properties_biological  
'inhibits LPS-induced nitric oxide production in the murine microglia BV2 cell line, with IC50 values of 2.4 muM'
_symmetry_cell_setting           monoclinic
_symmetry_space_group_name_H-M   'P 21'
_symmetry_Int_Tables_number      4
_space_group_name_Hall           'P 2yb'
loop_
_symmetry_equiv_pos_site_id
_symmetry_equiv_pos_as_xyz
1 x,y,z
2 -x,1/2+y,-z
_cell_length_a                   11.9278(6)
_cell_length_b                   23.5572(10)
_cell_length_c                   12.5460(6)
_cell_angle_alpha                90
_cell_angle_beta                 91.606(5)
_cell_angle_gamma                90
_cell_volume                     3523.86
_exptl_crystal_colour            colorless
_exptl_crystal_description       needle
_chemical_melting_point          '460-462 K'
_cell_formula_units_Z            8
_chemical_properties_physical    Heat-sensitive
_exptl_crystal_recrystallization_method chloroform
loop_
_atom_site_label
_atom_site_type_symbol
_atom_site_fract_x
_atom_site_fract_y
_atom_site_fract_z
O1 O 0.47805(19) 0.18157(10) 0.15780(19)
H1 H 0.5078 0.2071 0.1958
C1 C 0.4480(2) 0.08054(13) 0.1461(2)
H2 H 0.4424 0.0466 0.1934
C2 C 0.2377(2) 0.08784(13) 0.1473(3)
H3 H 0.2459 0.0571 0.2020
C3 C 0.1171(3) 0.04340(13) 0.0034(3)
C4 C 0.5595(3) 0.12145(14) 0.3004(3)
H4 H 0.5700 0.1559 0.3449
H5 H 0.5393 0.0900 0.3486
O2 O 0.02184(19) 0.00754(11) -0.1487(2)
H6 H -0.0413 0.0008 -0.1772
C5 C 0.3390(2) 0.08008(13) 0.0748(2)
C6 C 0.4597(3) 0.13186(13) 0.2220(3)
C7 C 0.2476(3) 0.14332(14) 0.2107(3)
H7 H 0.2535 0.1759 0.1612
H8 H 0.1801 0.1488 0.2537
O3 O -0.0842(2) 0.03602(16) -0.0172(2)
C8 C 0.2189(3) 0.01878(15) -0.0490(3)
H9 H 0.2325 0.0399 -0.1156
H10 H 0.2035 -0.0213 -0.0683
C9 C 0.3407(3) 0.12572(15) -0.0136(3)
H11 H 0.3648 0.1621 0.0173
H12 H 0.2653 0.1298 -0.0458
H13 H 0.3930 0.1143 -0.0684
C10 C 0.3242(3) 0.02142(14) 0.0231(3)
H14 H 0.3907 0.0127 -0.0194
H15 H 0.3192 -0.0077 0.0797
C11 C 0.0239(3) 0.10144(16) 0.1441(3)
H16 H 0.0324 0.0969 0.2215
H17 H -0.0442 0.0819 0.1186
H18 H 0.0183 0.1419 0.1266
C12 C 0.1243(2) 0.07637(13) 0.0911(3)
C13 C 0.5572(3) 0.07277(14) 0.0867(3)
H19 H 0.5738 0.1077 0.0462
H20 H 0.5487 0.0411 0.0352
C14 C 0.0087(3) 0.02954(14) -0.0531(3)
C15 C 0.6545(3) 0.06002(15) 0.1658(3)
H21 H 0.7243 0.0555 0.1258
H22 H 0.6396 0.0236 0.2022
C16 C 0.6722(3) 0.10696(14) 0.2506(3)
C17 C 0.3521(3) 0.14033(15) 0.2838(3)
H23 H 0.3439 0.1085 0.3346
H24 H 0.3583 0.1759 0.3256
C18 C 0.7563(3) 0.08440(15) 0.3333(3)
H25 H 0.8261 0.0725 0.3063
C19 C 0.7276(3) 0.15944(15) 0.2009(3)
H26 H 0.6813 0.1728 0.1402
H27 H 0.8023 0.1492 0.1765
H28 H 0.7344 0.1896 0.2544
C20 C 0.7465(3) 0.07901(19) 0.4363(3)
H29 H 0.6790 0.0901 0.4690
H30 H 0.8069 0.0640 0.4786
O4 O 0.32218(19) 0.99936(11) 0.38748(19)
H31 H 0.3224 0.9928 0.3217
C21 C 0.6313(3) 0.97579(15) 0.7323(3)
C22 C 0.1934(3) 0.91983(14) 0.4104(3)
H32 H 0.1888 0.8818 0.4436
H33 H 0.1927 0.9143 0.3322
C23 C 0.5140(3) 0.93734(14) 0.5814(3)
H34 H 0.4902 0.8997 0.6099
C24 C 0.3063(3) 0.96036(13) 0.5649(2)
H35 H 0.2891 0.9236 0.6009
C25 C 0.7383(3) 0.99033(15) 0.7894(3)
C26 C 0.3063(3) 0.94676(14) 0.4446(3)
O5 O 0.72497(19) 1.00667(12) 0.88875(19)
H36 H 0.7880 1.0101 0.9196
O6 O 0.8319(2) 0.98995(15) 0.7496(2)
C27 C 0.0961(3) 0.97140(14) 0.5581(3)
H37 H 0.0344 0.9980 0.5734
H38 H 0.0865 0.9373 0.6031
C28 C 0.5281(3) 0.99316(17) 0.7913(3)
H39 H 0.5284 1.0349 0.7997
H40 H 0.5320 0.9762 0.8635
C29 C -0.0113(3) 0.91336(15) 0.4268(3)
H41 H -0.0068 0.8799 0.4691
C30 C 0.6268(3) 0.95006(15) 0.6367(3)
C31 C 0.7280(3) 0.92921(16) 0.5793(3)
H42 H 0.7476 0.9566 0.5241
H43 H 0.7111 0.8924 0.5462
H44 H 0.7912 0.9250 0.6303
C32 C 0.2082(3) 0.99967(14) 0.5885(3)
H45 H 0.2158 1.0354 0.5479
H46 H 0.2097 1.0092 0.6654
C33 C 0.4022(3) 0.90669(16) 0.4195(3)
H47 H 0.4042 0.9008 0.3414
H48 H 0.3887 0.8694 0.4532
C34 C 0.4216(3) 0.97989(14) 0.6138(3)
C35 C 0.5162(3) 0.93000(16) 0.4597(3)
H49 H 0.5767 0.9034 0.4410
H50 H 0.5311 0.9670 0.4255
C36 C 0.4176(3) 0.97533(15) 0.7359(3)
H51 H 0.3564 0.9997 0.7616
H52 H 0.4004 0.9356 0.7557
C37 C 0.0869(3) 0.95364(14) 0.4389(3)
C38 C -0.1017(3) 0.91838(17) 0.3659(3)
H53 H -0.1115 0.9508 0.3215
H54 H -0.1575 0.8896 0.3660
C39 C 0.0690(3) 1.00617(15) 0.3680(3)
H55 H 0.1300 1.0333 0.3816
H56 H -0.0028 1.0240 0.3843
H57 H 0.0682 0.9948 0.2929
C40 C 0.4498(3) 1.04127(14) 0.5824(3)
H58 H 0.5241 1.0514 0.6119
H59 H 0.3935 1.0671 0.6108
H60 H 0.4497 1.0445 0.5045
O7 O 0.0743(2) 0.29795(11) -0.09852(19)
H61 H 0.0712 0.3011 -0.1652
O8 O -0.31421(19) 0.29231(12) 0.38876(18)
H62 H -0.3748 0.2835 0.4171
O9 O -0.42697(19) 0.29737(11) 0.24489(19)
C41 C 0.3012(3) 0.35726(14) -0.0507(3)
C42 C 0.0816(3) 0.35393(14) -0.0506(3)
C43 C 0.1879(3) 0.38425(15) -0.0866(3)
H63 H 0.1862 0.4237 -0.0598
H64 H 0.1852 0.3861 -0.1655
C44 C -0.1230(3) 0.35877(14) 0.0782(3)
H65 H -0.1068 0.3987 0.1007
C45 C -0.2331(3) 0.34312(13) 0.1317(3)
C46 C -0.0216(3) 0.32348(14) 0.1210(3)
C47 C 0.0872(3) 0.34660(13) 0.0717(3)
H66 H 0.0975 0.3857 0.1015
C48 C 0.3001(3) 0.34592(15) 0.0707(3)
H67 H 0.3672 0.3234 0.0918
H68 H 0.3044 0.3826 0.1091
C49 C -0.3332(3) 0.30335(13) 0.2865(3)
C50 C -0.0230(3) 0.38708(16) -0.0857(3)
H69 H -0.0166 0.4266 -0.0592
H70 H -0.0279 0.3884 -0.1645
C51 C -0.2306(3) 0.32145(14) 0.2309(3)
C52 C -0.0177(3) 0.33393(15) 0.2419(3)
H71 H 0.0493 0.3149 0.2739
H72 H -0.0105 0.3752 0.2556
C53 C -0.3390(3) 0.35635(15) 0.0673(3)
H73 H -0.3333 0.3944 0.0363
H74 H -0.4036 0.3549 0.1138
H75 H -0.3488 0.3283 0.0100
C54 C -0.1224(3) 0.31171(15) 0.2950(3)
H76 H -0.1133 0.2705 0.3076
H77 H -0.1286 0.3303 0.3653
C55 C 0.3263(3) 0.30259(16) -0.1108(3)
H78 H 0.2731 0.2731 -0.0906
H79 H 0.4029 0.2901 -0.0928
H80 H 0.3191 0.3095 -0.1878
C56 C -0.1299(3) 0.36046(16) -0.0440(3)
H81 H -0.1386 0.3215 -0.0725
H82 H -0.1958 0.3830 -0.0681
C57 C 0.3893(3) 0.40206(15) -0.0723(3)
H83 H 0.3838 0.4363 -0.0329
C58 C 0.1943(3) 0.31387(15) 0.1044(3)
H84 H 0.1926 0.2759 0.0706
H85 H 0.1970 0.3085 0.1827
C59 C 0.4725(3) 0.39930(18) -0.1390(3)
H86 H 0.4825 0.3662 -0.1808
H87 H 0.5224 0.4305 -0.1453
C60 C -0.0370(3) 0.25949(14) 0.0995(3)
H88 H -0.1109 0.2475 0.1232
H89 H 0.0215 0.2382 0.1386
H90 H -0.0314 0.2521 0.0229
O10 O -0.0459(2) 0.11132(10) 0.67052(19)
H91 H -0.0488 0.0844 0.7143
O11 O 0.5009(2) 0.25625(13) 0.4780(2)
C61 C 0.1895(2) 0.20945(13) 0.6474(2)
H92 H 0.1776 0.2415 0.6981
C62 C -0.0196(3) 0.21163(13) 0.6436(2)
H93 H -0.0121 0.2475 0.6857
O12 O 0.38533(19) 0.29105(11) 0.35222(19)
H94 H 0.4464 0.2988 0.3238
C63 C 0.3000(3) 0.25112(14) 0.4998(3)
C64 C 0.0846(2) 0.21008(13) 0.5720(2)
C65 C 0.1929(3) 0.26807(14) 0.4400(3)
H95 H 0.2013 0.3071 0.4122
H96 H 0.1809 0.2424 0.3783
C66 C 0.2998(3) 0.22330(13) 0.5941(3)
C67 C 0.1895(3) 0.15575(14) 0.7175(3)
H97 H 0.1849 0.1214 0.6720
H98 H 0.2596 0.1538 0.7614
C68 C -0.0241(3) 0.16366(14) 0.7272(3)
C69 C 0.4055(3) 0.26621(14) 0.4457(3)
C70 C 0.0913(2) 0.26571(14) 0.5096(3)
H99 H 0.0226 0.2700 0.4642
H100 H 0.0943 0.2979 0.5604
C71 C 0.4041(3) 0.20816(16) 0.6589(3)
H101 H 0.3896 0.2127 0.7349
H102 H 0.4656 0.2333 0.6391
H103 H 0.4246 0.1687 0.6447
C72 C -0.1342(3) 0.21578(16) 0.5847(3)
H104 H -0.1309 0.2449 0.5279
H105 H -0.1530 0.1789 0.5509
C73 C 0.0828(3) 0.15992(14) 0.4932(3)
H106 H 0.1559 0.1569 0.4598
H107 H 0.0243 0.1662 0.4380
H108 H 0.0671 0.1247 0.5315
C74 C -0.1177(3) 0.17642(14) 0.8048(3)
H109 H -0.0945 0.2096 0.8486
H110 H -0.1241 0.1436 0.8536
C75 C -0.2247(3) 0.23174(16) 0.6633(3)
H111 H -0.2977 0.2346 0.6242
H112 H -0.2070 0.2696 0.6937
C76 C 0.0880(3) 0.15848(16) 0.7896(3)
H113 H 0.0967 0.1915 0.8380
H114 H 0.0866 0.1238 0.8341
C77 C -0.2945(3) 0.13475(16) 0.7151(3)
H115 H -0.2504 0.1175 0.6589
H116 H -0.3694 0.1443 0.6863
H117 H -0.3013 0.1079 0.7742
C78 C -0.3037(3) 0.21612(18) 0.8418(3)
H118 H -0.2764 0.2519 0.8660
C79 C -0.2360(3) 0.18888(15) 0.7554(3)
C80 C -0.3932(3) 0.1984(2) 0.8883(4)
H119 H -0.4257 0.1630 0.8686
H120 H -0.4261 0.2209 0.9420
loop_
_geom_bond_atom_site_label_1
_geom_bond_atom_site_label_2
_geom_bond_site_symmetry_1
_geom_bond_site_symmetry_2
O1 H1 1_555 1_555
C1 H2 1_555 1_555
C2 H3 1_555 1_555
C3 C8 1_555 1_555
C4 H4 1_555 1_555
H5 C4 1_555 1_555
O2 H6 1_555 1_555
C5 C1 1_555 1_555
C6 O1 1_555 1_555
C7 C2 1_555 1_555
H7 C7 1_555 1_555
H8 C7 1_555 1_555
O3 C14 1_555 1_555
C8 H9 1_555 1_555
H10 C8 1_555 1_555
C9 C5 1_555 1_555
H11 C9 1_555 1_555
H12 C9 1_555 1_555
H13 C9 1_555 1_555
C10 C5 1_555 1_555
H14 C10 1_555 1_555
H15 C10 1_555 1_555
C11 H16 1_555 1_555
H17 C11 1_555 1_555
H18 C11 1_555 1_555
C12 C2 1_555 1_555
C13 C1 1_555 1_555
H19 C13 1_555 1_555
H20 C13 1_555 1_555
C14 C3 1_555 1_555
C15 C13 1_555 1_555
H21 C15 1_555 1_555
H22 C15 1_555 1_555
C16 C4 1_555 1_555
C17 C6 1_555 1_555
H23 C17 1_555 1_555
H24 C17 1_555 1_555
C18 C16 1_555 1_555
H25 C18 1_555 1_555
C19 C16 1_555 1_555
H26 C19 1_555 1_555
H27 C19 1_555 1_555
H28 C19 1_555 1_555
C20 C18 1_555 1_555
H29 C20 1_555 1_555
H30 C20 1_555 1_555
O4 H31 1_555 1_555
C21 C25 1_555 1_555
C22 H32 1_555 1_555
H33 C22 1_555 1_555
C23 H34 1_555 1_555
C24 H35 1_555 1_555
C25 O5 1_555 1_555
C26 O4 1_555 1_555
O5 H36 1_555 1_555
O6 C25 1_555 1_555
C27 H37 1_555 1_555
H38 C27 1_555 1_555
C28 C21 1_555 1_555
H39 C28 1_555 1_555
H40 C28 1_555 1_555
C29 H41 1_555 1_555
C30 C21 1_555 1_555
C31 C30 1_555 1_555
H42 C31 1_555 1_555
H43 C31 1_555 1_555
H44 C31 1_555 1_555
C32 C24 1_555 1_555
H45 C32 1_555 1_555
H46 C32 1_555 1_555
C33 C26 1_555 1_555
H47 C33 1_555 1_555
H48 C33 1_555 1_555
C34 C23 1_555 1_555
C35 C23 1_555 1_555
H49 C35 1_555 1_555
H50 C35 1_555 1_555
C36 C28 1_555 1_555
H51 C36 1_555 1_555
H52 C36 1_555 1_555
C37 C22 1_555 1_555
C38 C29 1_555 1_555
H53 C38 1_555 1_555
H54 C38 1_555 1_555
C39 C37 1_555 1_555
H55 C39 1_555 1_555
H56 C39 1_555 1_555
H57 C39 1_555 1_555
C40 C34 1_555 1_555
H58 C40 1_555 1_555
H59 C40 1_555 1_555
H60 C40 1_555 1_555
O7 H61 1_555 1_555
O8 H62 1_555 1_555
O9 C49 1_555 1_555
C41 C43 1_555 1_555
C42 O7 1_555 1_555
C43 C42 1_555 1_555
H63 C43 1_555 1_555
H64 C43 1_555 1_555
C44 H65 1_555 1_555
C45 C44 1_555 1_555
C46 C44 1_555 1_555
C47 C42 1_555 1_555
H66 C47 1_555 1_555
C48 C41 1_555 1_555
H67 C48 1_555 1_555
H68 C48 1_555 1_555
C49 O8 1_555 1_555
C50 C42 1_555 1_555
H69 C50 1_555 1_555
H70 C50 1_555 1_555
C51 C45 1_555 1_555
C52 C46 1_555 1_555
H71 C52 1_555 1_555
H72 C52 1_555 1_555
C53 C45 1_555 1_555
H73 C53 1_555 1_555
H74 C53 1_555 1_555
H75 C53 1_555 1_555
C54 C51 1_555 1_555
H76 C54 1_555 1_555
H77 C54 1_555 1_555
C55 C41 1_555 1_555
H78 C55 1_555 1_555
H79 C55 1_555 1_555
H80 C55 1_555 1_555
C56 C44 1_555 1_555
H81 C56 1_555 1_555
H82 C56 1_555 1_555
C57 C41 1_555 1_555
H83 C57 1_555 1_555
C58 C47 1_555 1_555
H84 C58 1_555 1_555
H85 C58 1_555 1_555
C59 C57 1_555 1_555
H86 C59 1_555 1_555
H87 C59 1_555 1_555
C60 C46 1_555 1_555
H88 C60 1_555 1_555
H89 C60 1_555 1_555
H90 C60 1_555 1_555
O10 H91 1_555 1_555
O11 C69 1_555 1_555
C61 H92 1_555 1_555
C62 H93 1_555 1_555
O12 H94 1_555 1_555
C63 C65 1_555 1_555
C64 C61 1_555 1_555
C65 H95 1_555 1_555
H96 C65 1_555 1_555
C66 C61 1_555 1_555
C67 C61 1_555 1_555
H97 C67 1_555 1_555
H98 C67 1_555 1_555
C68 O10 1_555 1_555
C69 O12 1_555 1_555
C70 C64 1_555 1_555
H99 C70 1_555 1_555
H100 C70 1_555 1_555
C71 C66 1_555 1_555
H101 C71 1_555 1_555
H102 C71 1_555 1_555
H103 C71 1_555 1_555
C72 C62 1_555 1_555
H104 C72 1_555 1_555
H105 C72 1_555 1_555
C73 C64 1_555 1_555
H106 C73 1_555 1_555
H107 C73 1_555 1_555
H108 C73 1_555 1_555
C74 C68 1_555 1_555
H109 C74 1_555 1_555
H110 C74 1_555 1_555
C75 C72 1_555 1_555
H111 C75 1_555 1_555
H112 C75 1_555 1_555
C76 C67 1_555 1_555
H113 C76 1_555 1_555
H114 C76 1_555 1_555
C77 H115 1_555 1_555
H116 C77 1_555 1_555
H117 C77 1_555 1_555
C78 H118 1_555 1_555
C79 C74 1_555 1_555
C80 C78 1_555 1_555
H119 C80 1_555 1_555
H120 C80 1_555 1_555
C1 C6 1_555 1_555
C2 C5 1_555 1_555
C3 C12 1_555 1_555
C4 C6 1_555 1_555
O2 C14 1_555 1_555
C7 C17 1_555 1_555
C8 C10 1_555 1_555
C11 C12 1_555 1_555
C15 C16 1_555 1_555
C22 C26 1_555 1_555
C23 C30 1_555 1_555
C24 C26 1_555 1_555
C24 C34 1_555 1_555
C27 C32 1_555 1_555
C27 C37 1_555 1_555
C29 C37 1_555 1_555
C33 C35 1_555 1_555
C34 C36 1_555 1_555
C46 C47 1_555 1_555
C48 C58 1_555 1_555
C49 C51 1_555 1_555
C50 C56 1_555 1_555
C52 C54 1_555 1_555
C62 C64 1_555 1_555
C62 C68 1_555 1_555
C63 C66 1_555 1_555
C63 C69 1_555 1_555
C65 C70 1_555 1_555
C68 C76 1_555 1_555
C75 C79 1_555 1_555
C77 C79 1_555 1_555
C78 C79 1_555 1_555

#END
