
#######################################################################
#
#                 Cambridge Crystallographic Data Centre
#                                CCDC 
#
#######################################################################
#
# If this CIF has been generated from an entry in the Cambridge 
# Structural Database, then it will include bibliographic, chemical, 
# crystal, experimental, refinement or atomic coordinate data resulting 
# from the CCDC's data processing and validation procedures.
#
#######################################################################

data_HAMSIA
_chemical_formula_moiety         'C26 H23 N2 O1 1+,Br1 1-'
_chemical_name_systematic        
'2-(hydroxymethyl)-1,3-bis(2-naphthylmethyl)-1H-imidazol-3-ium bromide'
_chemical_properties_biological  
'evaluated for anti-cancer properties against NSCLC to establish a SAR'
_symmetry_cell_setting           orthorhombic
_symmetry_space_group_name_H-M   'P c a 21'
_symmetry_Int_Tables_number      29
_space_group_name_Hall           'P 2c -2ac'
loop_
_symmetry_equiv_pos_site_id
_symmetry_equiv_pos_as_xyz
1 x,y,z
2 -x,-y,1/2+z
3 1/2-x,y,1/2+z
4 1/2+x,-y,z
_cell_length_a                   14.0733(7)
_cell_length_b                   13.4541(7)
_cell_length_c                   11.0120(4)
_cell_angle_alpha                90
_cell_angle_beta                 90
_cell_angle_gamma                90
_cell_volume                     2085.05
_exptl_crystal_colour            colorless
_exptl_crystal_description       plate
_chemical_melting_point          '208-209 deg.C'
_cell_formula_units_Z            4
loop_
_atom_site_label
_atom_site_type_symbol
_atom_site_fract_x
_atom_site_fract_y
_atom_site_fract_z
Br1 Br 0.81437(2) 0.11950(2) 0.74414(4)
O1 O 0.39830(16) 0.90199(18) 0.3459(2)
H1 H 0.3399 0.8922 0.3353
N1 N 0.56323(19) 1.0010(2) 0.5595(3)
N2 N 0.52010(18) 0.8471(2) 0.5485(2)
C1 C 0.4976(2) 0.9394(2) 0.5135(3)
C2 C 0.6289(2) 0.9466(3) 0.6242(3)
H2 H 0.6829 0.9718 0.6658
C3 C 0.6019(2) 0.8510(3) 0.6169(3)
H3 H 0.6335 0.7959 0.6527
C4 C 0.5693(2) 1.1089(2) 0.5399(3)
H4 H 0.5704 1.1216 0.4514
H5 H 0.6304 1.1328 0.5737
C5 C 0.4899(2) 1.1694(2) 0.5952(3)
C6 C 0.4294(2) 1.1330(3) 0.6813(3)
H6 H 0.4339 1.0652 0.7049
C7 C 0.3600(2) 1.1946(2) 0.7361(4)
C8 C 0.2998(2) 1.1600(3) 0.8298(3)
H7 H 0.3041 1.0928 0.8558
C9 C 0.2352(2) 1.2224(3) 0.8837(3)
H8 H 0.1955 1.1984 0.9471
C10 C 0.2276(2) 1.3214(3) 0.8456(3)
H9 H 0.1823 1.3639 0.8830
C11 C 0.2843(2) 1.3576(2) 0.7553(4)
H10 H 0.2774 1.4246 0.7296
C12 C 0.3540(2) 1.2957(3) 0.6990(3)
C13 C 0.4170(2) 1.3308(2) 0.6091(3)
H11 H 0.4134 1.3982 0.5838
C14 C 0.4827(2) 1.2696(2) 0.5582(3)
H12 H 0.5242 1.2944 0.4973
C15 C 0.4667(2) 0.7551(2) 0.5162(3)
H13 H 0.3985 0.7646 0.5354
H14 H 0.4723 0.7430 0.4278
C16 C 0.5029(2) 0.6669(2) 0.5833(3)
C17 C 0.5680(2) 0.6041(2) 0.5300(3)
H15 H 0.5877 0.6165 0.4489
C18 C 0.6060(2) 0.5216(2) 0.5929(3)
C19 C 0.6744(2) 0.4574(3) 0.5411(3)
H16 H 0.6947 0.4679 0.4598
C20 C 0.7117(3) 0.3805(3) 0.6063(4)
H17 H 0.7565 0.3373 0.5692
C21 C 0.6847(2) 0.3644(2) 0.7278(5)
H18 H 0.7120 0.3115 0.7731
C22 C 0.6189(2) 0.4254(3) 0.7801(3)
H19 H 0.6009 0.4144 0.8621
C23 C 0.5768(2) 0.5051(2) 0.7147(3)
C24 C 0.5078(2) 0.5689(2) 0.7662(3)
H20 H 0.4858 0.5565 0.8463
C25 C 0.4724(2) 0.6475(3) 0.7034(3)
H21 H 0.4268 0.6898 0.7405
C26 C 0.4113(3) 0.9702(3) 0.4425(3)
H22 H 0.3547 0.9702 0.4958
H23 H 0.4201 1.0381 0.4099
loop_
_geom_bond_atom_site_label_1
_geom_bond_atom_site_label_2
_geom_bond_site_symmetry_1
_geom_bond_site_symmetry_2
O1 H1 1_555 1_555
N1 C1 1_555 1_555
N2 C1 1_555 1_555
C1 C26 1_555 1_555
C2 N1 1_555 1_555
H2 C2 1_555 1_555
C3 N2 1_555 1_555
H3 C3 1_555 1_555
C4 N1 1_555 1_555
H4 C4 1_555 1_555
H5 C4 1_555 1_555
C5 C4 1_555 1_555
C6 C5 1_555 1_555
H6 C6 1_555 1_555
C7 C6 1_555 1_555
C8 C7 1_555 1_555
H7 C8 1_555 1_555
C9 C8 1_555 1_555
H8 C9 1_555 1_555
C10 C9 1_555 1_555
H9 C10 1_555 1_555
C11 C10 1_555 1_555
H10 C11 1_555 1_555
C12 C7 1_555 1_555
C13 C12 1_555 1_555
H11 C13 1_555 1_555
C14 C5 1_555 1_555
H12 C14 1_555 1_555
C15 N2 1_555 1_555
H13 C15 1_555 1_555
H14 C15 1_555 1_555
C16 C15 1_555 1_555
C17 C16 1_555 1_555
H15 C17 1_555 1_555
C18 C17 1_555 1_555
C19 C18 1_555 1_555
H16 C19 1_555 1_555
C20 C19 1_555 1_555
H17 C20 1_555 1_555
C21 C20 1_555 1_555
H18 C21 1_555 1_555
C22 C21 1_555 1_555
H19 C22 1_555 1_555
C23 C18 1_555 1_555
C24 C23 1_555 1_555
H20 C24 1_555 1_555
C25 C16 1_555 1_555
H21 C25 1_555 1_555
C26 O1 1_555 1_555
H22 C26 1_555 1_555
H23 C26 1_555 1_555
C2 C3 1_555 1_555
C11 C12 1_555 1_555
C13 C14 1_555 1_555
C22 C23 1_555 1_555
C24 C25 1_555 1_555

#END
