
#######################################################################
#
#                 Cambridge Crystallographic Data Centre
#                                CCDC 
#
#######################################################################
#
# If this CIF has been generated from an entry in the Cambridge 
# Structural Database, then it will include bibliographic, chemical, 
# crystal, experimental, refinement or atomic coordinate data resulting 
# from the CCDC's data processing and validation procedures.
#
#######################################################################

data_HAMSUM
_chemical_formula_moiety         'C26 H25 N4 1+,Cl1 1-,1.5(H2 O1)'
_chemical_name_systematic        
'2-propyl-1,3-bis(quinolin-2-ylmethyl)-1H-imidazol-3-ium chloride sesquihydrate'
_chemical_properties_biological  
'evaluated for anti-cancer properties against NSCLC to establish a SAR'
_symmetry_cell_setting           triclinic
_symmetry_space_group_name_H-M   'P -1'
_symmetry_Int_Tables_number      2
_space_group_name_Hall           '-P 1'
loop_
_symmetry_equiv_pos_site_id
_symmetry_equiv_pos_as_xyz
1 x,y,z
2 -x,-y,-z
_cell_length_a                   7.3455(3)
_cell_length_b                   10.0987(4)
_cell_length_c                   16.9742(6)
_cell_angle_alpha                79.406(2)
_cell_angle_beta                 78.845(2)
_cell_angle_gamma                69.336(2)
_cell_volume                     1146.68
_exptl_crystal_colour            colorless
_exptl_crystal_description       plate
_cell_formula_units_Z            2
loop_
_atom_site_label
_atom_site_type_symbol
_atom_site_fract_x
_atom_site_fract_y
_atom_site_fract_z
O1 O 0.59698(18) 0.09043(13) 0.52289(8)
H1 H 0.6303 0.0874 0.5635
H2 H 0.5343 0.1629 0.4937
Cl1 Cl 0.67208(19) 0.38138(13) 0.46923(7)
O2 O 0.9217(8) 0.2884(6) 0.8338(3)
H3 H 1.021(16) 0.222(13) 0.815(10)
H4 H 0.91(3) 0.373(7) 0.812(13)
N1 N 0.8494(4) 0.4462(3) 0.62981(15)
N2 N 0.9667(4) 0.2180(3) 0.62913(15)
N3 N 0.7728(4) 0.5915(3) 0.76440(15)
N4 N 1.0742(3) 0.0148(3) 0.76245(14)
C1 C 0.8007(5) 0.3269(3) 0.64408(17)
C2 C 1.0477(6) 0.4120(4) 0.6061(2)
H5 H 1.1197 0.4768 0.5926
C3 C 1.1223(5) 0.2695(4) 0.6053(2)
H6 H 1.2561 0.2151 0.5910
C4 C 0.7145(6) 0.5917(3) 0.6280(2)
H7 H 0.5802 0.5904 0.6284
H8 H 0.7499 0.6471 0.5765
C5 C 0.7117(5) 0.6678(3) 0.69701(17)
C6 C 0.6360(4) 0.8179(3) 0.68528(18)
H9 H 0.5941 0.8671 0.6352
C7 C 0.6239(4) 0.8914(3) 0.74683(18)
H10 H 0.5738 0.9927 0.7402
C8 C 0.6867(4) 0.8151(3) 0.82078(17)
C9 C 0.6804(4) 0.8834(3) 0.88772(18)
H11 H 0.6337 0.9846 0.8836
C10 C 0.7410(4) 0.8046(4) 0.95764(19)
H12 H 0.7367 0.8509 1.0022
C11 C 0.8099(4) 0.6552(4) 0.96414(19)
H13 H 0.8491 0.6012 1.0137
C12 C 0.8218(4) 0.5860(3) 0.90068(18)
H14 H 0.8710 0.4848 0.9060
C13 C 0.7608(4) 0.6649(3) 0.82674(17)
C14 C 0.9852(5) 0.0705(3) 0.62586(19)
H15 H 1.0721 0.0393 0.5756
H16 H 0.8542 0.0665 0.6226
C15 C 1.0664(4) -0.0338(3) 0.69732(17)
C16 C 1.1286(4) -0.1800(3) 0.68771(19)
H17 H 1.1203 -0.2087 0.6386
C17 C 1.2004(4) -0.2785(3) 0.74984(19)
H18 H 1.2425 -0.3773 0.7447
C18 C 1.2121(4) -0.2337(3) 0.82223(18)
C19 C 1.2848(4) -0.3292(4) 0.88927(19)
H19 H 1.3280 -0.4291 0.8870
C20 C 1.2936(4) -0.2796(4) 0.95749(19)
H20 H 1.3449 -0.3449 1.0021
C21 C 1.2273(4) -0.1323(4) 0.96196(19)
H21 H 1.2315 -0.0986 1.0101
C22 C 1.1562(4) -0.0363(4) 0.89723(18)
H22 H 1.1130 0.0632 0.9006
C23 C 1.1473(4) -0.0850(3) 0.82638(17)
C24 C 0.6022(5) 0.3171(4) 0.67324(19)
H23 H 0.5917 0.2344 0.6532
H24 H 0.5036 0.4042 0.6505
C25 C 0.5550(6) 0.3009(4) 0.7656(2)
H25 H 0.6523 0.2131 0.7885
H26 H 0.5668 0.3830 0.7858
C26 C 0.3522(7) 0.2929(5) 0.7944(3)
H27 H 0.2551 0.3810 0.7734
H28 H 0.3290 0.2812 0.8537
H29 H 0.3402 0.2113 0.7748
Cl2? Cl 0.59698(18) 0.09043(13) 0.52289(8)
H30? H 0.7278 0.3347 0.5116
H31? H 0.7484 0.3572 0.4249
O3? O 0.67208(19) 0.38138(13) 0.46923(7)
loop_
_geom_bond_atom_site_label_1
_geom_bond_atom_site_label_2
_geom_bond_site_symmetry_1
_geom_bond_site_symmetry_2
O1 H1 1_555 1_555
H2 O1 1_555 1_555
O2 H3 1_555 1_555
H4 O2 1_555 1_555
N1 C1 1_555 1_555
N2 C1 1_555 1_555
N3 C5 1_555 1_555
N4 C15 1_555 1_555
C1 C24 1_555 1_555
C2 N1 1_555 1_555
H5 C2 1_555 1_555
C3 N2 1_555 1_555
H6 C3 1_555 1_555
C4 N1 1_555 1_555
H7 C4 1_555 1_555
H8 C4 1_555 1_555
C5 C4 1_555 1_555
C6 C5 1_555 1_555
H9 C6 1_555 1_555
C7 C6 1_555 1_555
H10 C7 1_555 1_555
C8 C7 1_555 1_555
C9 C8 1_555 1_555
H11 C9 1_555 1_555
C10 C9 1_555 1_555
H12 C10 1_555 1_555
C11 C10 1_555 1_555
H13 C11 1_555 1_555
C12 C11 1_555 1_555
H14 C12 1_555 1_555
C13 N3 1_555 1_555
C14 N2 1_555 1_555
H15 C14 1_555 1_555
H16 C14 1_555 1_555
C15 C14 1_555 1_555
C16 C15 1_555 1_555
H17 C16 1_555 1_555
C17 C16 1_555 1_555
H18 C17 1_555 1_555
C18 C17 1_555 1_555
C19 C18 1_555 1_555
H19 C19 1_555 1_555
C20 C19 1_555 1_555
H20 C20 1_555 1_555
C21 C20 1_555 1_555
H21 C21 1_555 1_555
C22 C21 1_555 1_555
H22 C22 1_555 1_555
C23 N4 1_555 1_555
C24 H23 1_555 1_555
H24 C24 1_555 1_555
C25 C24 1_555 1_555
H25 C25 1_555 1_555
H26 C25 1_555 1_555
C26 C25 1_555 1_555
H27 C26 1_555 1_555
H28 C26 1_555 1_555
H29 C26 1_555 1_555
C2 C3 1_555 1_555
C8 C13 1_555 1_555
C12 C13 1_555 1_555
C18 C23 1_555 1_555
C22 C23 1_555 1_555

#END
