
#######################################################################
#
#                 Cambridge Crystallographic Data Centre
#                                CCDC 
#
#######################################################################
#
# If this CIF has been generated from an entry in the Cambridge 
# Structural Database, then it will include bibliographic, chemical, 
# crystal, experimental, refinement or atomic coordinate data resulting 
# from the CCDC's data processing and validation procedures.
#
#######################################################################

data_HAMSAQ
_chemical_formula_moiety         'C32 H26 O6'
_chemical_name_systematic        
1,1',8,8'-Tetramethoxy-9,9'-bianthracene-10,10'(9H,9'H)-dione
_symmetry_cell_setting           triclinic
_symmetry_space_group_name_H-M   'P -1'
_symmetry_Int_Tables_number      2
_space_group_name_Hall           '-P 1'
loop_
_symmetry_equiv_pos_site_id
_symmetry_equiv_pos_as_xyz
1 x,y,z
2 -x,-y,-z
_cell_length_a                   7.585(2)
_cell_length_b                   8.443(2)
_cell_length_c                   10.631(3)
_cell_angle_alpha                67.801(4)
_cell_angle_beta                 74.187(4)
_cell_angle_gamma                85.328(5)
_cell_volume                     606.316
_exptl_crystal_colour            white
_exptl_crystal_description       block
_cell_formula_units_Z            1
_exptl_crystal_recrystallization_method chloroform/ethanol
loop_
_atom_site_label
_atom_site_type_symbol
_atom_site_fract_x
_atom_site_fract_y
_atom_site_fract_z
O1 O 0.3711(3) -0.1898(2) 0.71932(18)
O2 O 0.0207(2) 0.39447(16) 0.86225(15)
O3 O 0.17835(19) -0.02600(18) 1.23353(13)
C1 C 0.2722(2) -0.1191(2) 1.15674(18)
C2 C 0.3197(3) -0.1023(2) 0.7915(2)
C3 C -0.0320(4) 0.5676(3) 0.8113(3)
H1 H -0.0948 0.5997 0.8893
H2 H -0.1120 0.5804 0.7521
H3 H 0.0751 0.6398 0.7580
C4 C 0.3386(2) -0.1581(2) 0.93691(19)
C5 C 0.2385(2) -0.0762(2) 1.02504(17)
C6 C 0.3934(3) -0.2462(2) 1.2007(2)
H4 H 0.4124 -0.2761 1.2896
C7 C 0.1539(2) 0.1518(2) 0.82388(17)
C8 C 0.1113(2) 0.3233(2) 0.7672(2)
C9 C 0.0951(2) 0.04904(19) 0.97971(16)
H5 H 0.0786 0.1279 1.0298
C10 C 0.4608(3) -0.2847(2) 0.9817(2)
H6 H 0.5254 -0.3396 0.9226
C11 C 0.2534(2) 0.0732(2) 0.73307(18)
C12 C 0.4860(3) -0.3285(3) 1.1136(3)
H7 H 0.5664 -0.4147 1.1443
C13 C 0.2608(3) 0.3308(3) 0.5345(2)
H8 H 0.2950 0.3910 0.4378
C14 C 0.1979(4) -0.0634(4) 1.3697(2)
H9 H 0.1239 0.0121 1.4100
H10 H 0.3241 -0.0481 1.3645
H11 H 0.1591 -0.1798 1.4275
C15 C 0.3045(3) 0.1649(3) 0.5872(2)
H12 H 0.3685 0.1113 0.5269
C16 C 0.1653(3) 0.4128(3) 0.6233(2)
H13 H 0.1378 0.5278 0.5860
C9A C -0.0951(2) -0.04904(19) 1.02029(16)
C5A C -0.2385(2) 0.0762(2) 0.97496(17)
C1A C -0.2722(2) 0.1191(2) 0.84326(18)
O3A O -0.17835(19) 0.02600(18) 0.76647(13)
C14A C -0.1979(4) 0.0634(4) 0.6303(2)
H9A H -0.1239 -0.0121 0.5900
H10A H -0.3241 0.0481 0.6355
H11A H -0.1591 0.1798 0.5725
C6A C -0.3934(3) 0.2462(2) 0.7993(2)
H4A H -0.4124 0.2761 0.7104
C12A C -0.4860(3) 0.3285(3) 0.8864(3)
C10A C -0.4608(3) 0.2847(2) 1.0183(2)
C4A C -0.3386(2) 0.1581(2) 1.06309(19)
C2A C -0.3197(3) 0.1023(2) 1.2085(2)
O1A O -0.3711(3) 0.1898(2) 1.28068(18)
C11A C -0.2534(2) -0.0732(2) 1.26693(18)
C7A C -0.1539(2) -0.1518(2) 1.17612(17)
C8A C -0.1113(2) -0.3233(2) 1.2328(2)
O2A O -0.0207(2) -0.39447(16) 1.13775(15)
C3A C 0.0320(4) -0.5676(3) 1.1887(3)
H1A H 0.0948 -0.5997 1.1107
H2A H 0.1120 -0.5804 1.2479
H3A H -0.0751 -0.6398 1.2420
C16A C -0.1653(3) -0.4128(3) 1.3767(2)
C13A C -0.2608(3) -0.3308(3) 1.4655(2)
H8A H -0.2950 -0.3910 1.5622
C15A C -0.3045(3) -0.1649(3) 1.4128(2)
H12A H -0.3685 -0.1113 1.4731
H13A H -0.1378 -0.5278 1.4140
H5A H -0.0786 -0.1279 0.9702
H6A H -0.5254 0.3396 1.0774
H7A H -0.5664 0.4147 0.8557
loop_
_geom_bond_atom_site_label_1
_geom_bond_atom_site_label_2
_geom_bond_site_symmetry_1
_geom_bond_site_symmetry_2
O1 C2 1_555 1_555
O2 C3 1_555 1_555
O3 C1 1_555 1_555
C1 C5 1_555 1_555
C2 C4 1_555 1_555
C3 H1 1_555 1_555
H2 C3 1_555 1_555
H3 C3 1_555 1_555
C4 C5 1_555 1_555
C5 C9 1_555 1_555
C6 C1 1_555 1_555
H4 C6 1_555 1_555
C7 C8 1_555 1_555
C8 O2 1_555 1_555
C9 C7 1_555 1_555
H5 C9 1_555 1_555
C10 C4 1_555 1_555
H6 C10 1_555 1_555
C11 C2 1_555 1_555
C12 C6 1_555 1_555
H7 C12 1_555 1_555
C13 H8 1_555 1_555
C14 O3 1_555 1_555
H9 C14 1_555 1_555
H10 C14 1_555 1_555
H11 C14 1_555 1_555
C15 C11 1_555 1_555
H12 C15 1_555 1_555
C16 C8 1_555 1_555
H13 C16 1_555 1_555
C9A C9 1_555 1_555
C5A C9A 1_555 1_555
C1A C5A 1_555 1_555
O3A C1A 1_555 1_555
C14A O3A 1_555 1_555
H9A C14A 1_555 1_555
H10A C14A 1_555 1_555
H11A C14A 1_555 1_555
C6A C1A 1_555 1_555
H4A C6A 1_555 1_555
C12A C6A 1_555 1_555
C10A C12A 1_555 1_555
C4A C5A 1_555 1_555
C2A C4A 1_555 1_555
O1A C2A 1_555 1_555
C11A C2A 1_555 1_555
C7A C9A 1_555 1_555
C8A C7A 1_555 1_555
O2A C8A 1_555 1_555
C3A O2A 1_555 1_555
H1A C3A 1_555 1_555
H2A C3A 1_555 1_555
H3A C3A 1_555 1_555
C16A C8A 1_555 1_555
C13A C16A 1_555 1_555
H8A C13A 1_555 1_555
C15A C11A 1_555 1_555
H12A C15A 1_555 1_555
H13A C16A 1_555 1_555
H5A C9A 1_555 1_555
H6A C10A 1_555 1_555
H7A C12A 1_555 1_555
C7 C11 1_555 1_555
C10 C12 1_555 1_555
C13 C16 1_555 1_555
C13 C15 1_555 1_555
C10A C4A 1_555 1_555
C11A C7A 1_555 1_555
C13A C15A 1_555 1_555

#END
