
#######################################################################
#
#                 Cambridge Crystallographic Data Centre
#                                CCDC 
#
#######################################################################
#
# If this CIF has been generated from an entry in the Cambridge 
# Structural Database, then it will include bibliographic, chemical, 
# crystal, experimental, refinement or atomic coordinate data resulting 
# from the CCDC's data processing and validation procedures.
#
#######################################################################

data_HAMSAS
_chemical_formula_moiety         'C27 H27 N4 1+,F6 P1 1-,1.5(H2 O1)'
_chemical_name_systematic        
'2-butyl-1,3-bis(quinolin-2-ylmethyl)-1H-imidazol-3-ium hexafluorophosphate sesquihydrate'
_chemical_properties_biological  'potent anti-proliferative effects'
_symmetry_cell_setting           monoclinic
_symmetry_space_group_name_H-M   'P 21/c'
_symmetry_Int_Tables_number      14
_space_group_name_Hall           '-P 2ybc'
loop_
_symmetry_equiv_pos_site_id
_symmetry_equiv_pos_as_xyz
1 x,y,z
2 -x,1/2+y,1/2-z
3 -x,-y,-z
4 x,1/2-y,1/2+z
_cell_length_a                   15.1142(7)
_cell_length_b                   48.741(2)
_cell_length_c                   7.3043(3)
_cell_angle_alpha                90
_cell_angle_beta                 96.614(3)
_cell_angle_gamma                90
_cell_volume                     5345.13
_exptl_crystal_colour            colorless
_exptl_crystal_description       plate
_cell_formula_units_Z            8
loop_
_atom_site_label
_atom_site_type_symbol
_atom_site_fract_x
_atom_site_fract_y
_atom_site_fract_z
P1 P 0.70194(5) 0.16201(2) 0.25379(11)
F1 F 0.69779(11) 0.12950(3) 0.2327(3)
F2 F 0.59553(11) 0.16291(4) 0.2389(2)
F3 F 0.70626(12) 0.19446(3) 0.2765(3)
F4 F 0.80866(11) 0.16087(3) 0.2700(2)
F5 F 0.70649(12) 0.15886(4) 0.4729(2)
F6 F 0.69775(12) 0.16511(4) 0.0363(2)
P2 P 0.27988(5) 0.08971(2) 0.39169(11)
F7 F 0.25979(13) 0.05874(4) 0.4354(3)
F8 F 0.17590(11) 0.09559(4) 0.3406(2)
F9 F 0.30130(13) 0.12127(4) 0.3459(3)
F10 F 0.38372(11) 0.08460(4) 0.4397(2)
F11 F 0.27238(13) 0.09804(4) 0.5992(3)
F12 F 0.28823(12) 0.08235(4) 0.1814(2)
O1 O 0.14138(15) 0.17701(5) 0.8846(3)
H1 H 0.0894(15) 0.1842(8) 0.860(5)
H2 H 0.171(2) 0.1778(7) 0.787(4)
O2 O 0.22592(15) 0.18836(5) 0.5804(3)
H3 H 0.2789(16) 0.1949(8) 0.576(5)
H4 H 0.206(2) 0.1809(7) 0.475(4)
N1 N 0.94608(15) 0.14762(5) 0.7709(3)
N2 N 1.05526(15) 0.11921(5) 0.7970(3)
N3 N 0.97069(15) 0.20388(5) 0.7895(3)
N4 N 1.00730(16) 0.06555(5) 0.7719(4)
C1 C 0.99643(18) 0.13173(6) 0.8910(4)
C2 C 0.9740(2) 0.14499(7) 0.6004(4)
H5 H 0.9497 0.1541 0.4909
C3 C 1.0419(2) 0.12721(7) 0.6163(4)
H6 H 1.0747 0.1213 0.5203
C4 C 0.87146(19) 0.16493(6) 0.8109(4)
H7 H 0.8542 0.1597 0.9328
H8 H 0.8199 0.1612 0.7178
C5 C 0.89053(18) 0.19522(6) 0.8118(4)
C6 C 0.81887(19) 0.21304(6) 0.8362(4)
H9 H 0.7619 0.2058 0.8520
C7 C 0.83241(19) 0.24052(6) 0.8367(4)
H10 H 0.7851 0.2527 0.8544
C8 C 0.91712(19) 0.25094(6) 0.8109(4)
C9 C 0.9358(2) 0.27927(6) 0.8062(4)
H11 H 0.8905 0.2923 0.8223
C10 C 1.0191(2) 0.28806(6) 0.7786(4)
H12 H 1.0316 0.3072 0.7769
C11 C 1.0860(2) 0.26909(6) 0.7528(4)
H13 H 1.1435 0.2755 0.7332
C12 C 1.07011(19) 0.24156(6) 0.7554(4)
H14 H 1.1161 0.2289 0.7365
C13 C 0.98497(19) 0.23186(6) 0.7862(4)
C14 C 1.12142(18) 0.09896(6) 0.8698(4)
H15 H 1.1341 0.1015 1.0048
H16 H 1.1774 0.1022 0.8151
C15 C 1.09147(19) 0.06966(6) 0.8304(4)
C16 C 1.1549(2) 0.04846(6) 0.8631(4)
H17 H 1.2153 0.0526 0.9039
C17 C 1.1282(2) 0.02212(7) 0.8354(5)
H18 H 1.1699 0.0076 0.8572
C18 C 1.0381(2) 0.01634(6) 0.7740(4)
C19 C 1.0042(2) -0.01052(7) 0.7406(5)
H19 H 1.0430 -0.0258 0.7613
C20 C 0.9170(2) -0.01463(7) 0.6794(5)
H20 H 0.8951 -0.0327 0.6570
C21 C 0.8592(2) 0.00788(7) 0.6493(5)
H21 H 0.7981 0.0048 0.6074
C22 C 0.8895(2) 0.03402(7) 0.6794(5)
H22 H 0.8496 0.0490 0.6571
C23 C 0.97978(19) 0.03889(6) 0.7437(4)
C24 C 0.9884(2) 0.12829(7) 1.0887(4)
H23 H 0.9520 0.1436 1.1282
H24 H 1.0486 0.1300 1.1572
C25 C 0.9480(2) 0.10176(7) 1.1454(5)
H25 H 0.9869 0.0863 1.1184
H26 H 0.9445 0.1020 1.2800
C26 C 0.8581(2) 0.09746(7) 1.0479(5)
H27 H 0.8619 0.0958 0.9140
H28 H 0.8201 0.1135 1.0680
C27 C 0.8150(2) 0.07073(8) 1.1195(6)
H29 H 0.8421 0.0546 1.0687
H30 H 0.7509 0.0708 1.0799
H31 H 0.8253 0.0702 1.2544
N5 N 0.47049(15) 0.12058(5) 0.9582(3)
N6 N 0.45146(15) 0.14791(5) 0.7259(3)
N7 N 0.57576(15) 0.05691(5) 0.9940(3)
N8 N 0.40215(15) 0.20821(5) 0.5721(3)
C28 C 0.50925(18) 0.13032(5) 0.8153(4)
C29 C 0.38740(19) 0.13215(6) 0.9574(4)
H32 H 0.3461 0.1287 1.0434
C30 C 0.37563(19) 0.14914(6) 0.8130(4)
H33 H 0.3244 0.1600 0.7772
C31 C 0.50623(19) 0.09844(6) 1.0814(4)
H34 H 0.4717 0.0974 1.1885
H35 H 0.5690 0.1025 1.1279
C32 C 0.50155(18) 0.07119(6) 0.9825(4)
C33 C 0.42008(19) 0.06275(6) 0.8822(4)
H36 H 0.3685 0.0740 0.8764
C34 C 0.41791(19) 0.03806(6) 0.7946(4)
H37 H 0.3644 0.0319 0.7255
C35 C 0.49470(19) 0.02165(6) 0.8063(4)
C36 C 0.4970(2) -0.00432(6) 0.7226(4)
H38 H 0.4443 -0.0116 0.6572
C37 C 0.5742(2) -0.01913(6) 0.7343(4)
H39 H 0.5751 -0.0366 0.6763
C38 C 0.6514(2) -0.00866(6) 0.8313(4)
H40 H 0.7049 -0.0191 0.8384
C39 C 0.6519(2) 0.01632(6) 0.9166(4)
H41 H 0.7053 0.0231 0.9826
C40 C 0.57298(19) 0.03213(6) 0.9068(4)
C41 C 0.4635(2) 0.16295(6) 0.5557(4)
H42 H 0.4108 0.1599 0.4642
H43 H 0.5162 0.1555 0.5036
C42 C 0.47576(19) 0.19345(6) 0.5866(4)
C43 C 0.56085(19) 0.20464(6) 0.6229(4)
H44 H 0.6118 0.1931 0.6359
C44 C 0.5701(2) 0.23232(6) 0.6393(4)
H45 H 0.6278 0.2402 0.6632
C45 C 0.4945(2) 0.24921(6) 0.6210(4)
C46 C 0.4983(2) 0.27803(6) 0.6311(4)
H46 H 0.5543 0.2870 0.6541
C47 C 0.4226(2) 0.29313(7) 0.6084(4)
H47 H 0.4261 0.3126 0.6146
C48 C 0.3390(2) 0.28036(7) 0.5755(5)
H48 H 0.2865 0.2912 0.5602
C49 C 0.3323(2) 0.25241(6) 0.5655(4)
H49 H 0.2755 0.2439 0.5438
C50 C 0.41030(19) 0.23621(6) 0.5875(4)
C51 C 0.59682(18) 0.12152(6) 0.7629(4)
H50 H 0.6340 0.1146 0.8737
H51 H 0.6275 0.1376 0.7161
C52 C 0.58798(18) 0.09901(6) 0.6148(4)
H52 H 0.5424 0.0856 0.6439
H53 H 0.5671 0.1074 0.4940
C53 C 0.67493(19) 0.08402(6) 0.6004(4)
H54 H 0.7017 0.0784 0.7249
H55 H 0.7172 0.0965 0.5481
C54 C 0.6593(2) 0.05877(6) 0.4784(4)
H56 H 0.6178 0.0464 0.5307
H57 H 0.7161 0.0493 0.4716
H58 H 0.6341 0.0644 0.3544
O3 O 0.17662(19) 0.16358(6) 0.2432(4)
H59 H 0.170(3) 0.1679(9) 0.126(3)
H60 H 0.209(3) 0.1492(8) 0.268(6)
loop_
_geom_bond_atom_site_label_1
_geom_bond_atom_site_label_2
_geom_bond_site_symmetry_1
_geom_bond_site_symmetry_2
P1 F1 1_555 1_555
F2 P1 1_555 1_555
F3 P1 1_555 1_555
F4 P1 1_555 1_555
F5 P1 1_555 1_555
F6 P1 1_555 1_555
P2 F7 1_555 1_555
F8 P2 1_555 1_555
F9 P2 1_555 1_555
F10 P2 1_555 1_555
F11 P2 1_555 1_555
F12 P2 1_555 1_555
O1 H1 1_555 1_555
H2 O1 1_555 1_555
O2 H3 1_555 1_555
H4 O2 1_555 1_555
N1 C1 1_555 1_555
N2 C1 1_555 1_555
N3 C5 1_555 1_555
N4 C15 1_555 1_555
C1 C24 1_555 1_555
C2 N1 1_555 1_555
H5 C2 1_555 1_555
C3 N2 1_555 1_555
H6 C3 1_555 1_555
C4 N1 1_555 1_555
H7 C4 1_555 1_555
H8 C4 1_555 1_555
C5 C4 1_555 1_555
C6 C5 1_555 1_555
H9 C6 1_555 1_555
C7 C6 1_555 1_555
H10 C7 1_555 1_555
C8 C7 1_555 1_555
C9 C8 1_555 1_555
H11 C9 1_555 1_555
C10 C9 1_555 1_555
H12 C10 1_555 1_555
C11 C10 1_555 1_555
H13 C11 1_555 1_555
C12 C11 1_555 1_555
H14 C12 1_555 1_555
C13 N3 1_555 1_555
C14 N2 1_555 1_555
H15 C14 1_555 1_555
H16 C14 1_555 1_555
C15 C14 1_555 1_555
C16 C15 1_555 1_555
H17 C16 1_555 1_555
C17 C16 1_555 1_555
H18 C17 1_555 1_555
C18 C17 1_555 1_555
C19 C18 1_555 1_555
H19 C19 1_555 1_555
C20 C19 1_555 1_555
H20 C20 1_555 1_555
C21 C20 1_555 1_555
H21 C21 1_555 1_555
C22 C21 1_555 1_555
H22 C22 1_555 1_555
C23 N4 1_555 1_555
C24 H23 1_555 1_555
H24 C24 1_555 1_555
C25 C24 1_555 1_555
H25 C25 1_555 1_555
H26 C25 1_555 1_555
C26 C25 1_555 1_555
H27 C26 1_555 1_555
H28 C26 1_555 1_555
C27 C26 1_555 1_555
H29 C27 1_555 1_555
H30 C27 1_555 1_555
H31 C27 1_555 1_555
N5 C28 1_555 1_555
N6 C28 1_555 1_555
N7 C32 1_555 1_555
N8 C42 1_555 1_555
C28 C51 1_555 1_555
C29 N5 1_555 1_555
H32 C29 1_555 1_555
C30 N6 1_555 1_555
H33 C30 1_555 1_555
C31 N5 1_555 1_555
H34 C31 1_555 1_555
H35 C31 1_555 1_555
C32 C31 1_555 1_555
C33 C32 1_555 1_555
H36 C33 1_555 1_555
C34 C33 1_555 1_555
H37 C34 1_555 1_555
C35 C34 1_555 1_555
C36 C35 1_555 1_555
H38 C36 1_555 1_555
C37 C36 1_555 1_555
H39 C37 1_555 1_555
C38 C37 1_555 1_555
H40 C38 1_555 1_555
C39 C38 1_555 1_555
H41 C39 1_555 1_555
C40 N7 1_555 1_555
C41 N6 1_555 1_555
H42 C41 1_555 1_555
H43 C41 1_555 1_555
C42 C41 1_555 1_555
C43 C42 1_555 1_555
H44 C43 1_555 1_555
C44 C43 1_555 1_555
H45 C44 1_555 1_555
C45 C44 1_555 1_555
C46 C45 1_555 1_555
H46 C46 1_555 1_555
C47 C46 1_555 1_555
H47 C47 1_555 1_555
C48 C47 1_555 1_555
H48 C48 1_555 1_555
C49 C48 1_555 1_555
H49 C49 1_555 1_555
C50 N8 1_555 1_555
C51 H50 1_555 1_555
H51 C51 1_555 1_555
C52 C51 1_555 1_555
H52 C52 1_555 1_555
H53 C52 1_555 1_555
C53 C52 1_555 1_555
H54 C53 1_555 1_555
H55 C53 1_555 1_555
C54 C53 1_555 1_555
H56 C54 1_555 1_555
H57 C54 1_555 1_555
H58 C54 1_555 1_555
O3 H59 1_555 1_555
H60 O3 1_555 1_555
C2 C3 1_555 1_555
C8 C13 1_555 1_555
C12 C13 1_555 1_555
C18 C23 1_555 1_555
C22 C23 1_555 1_555
C29 C30 1_555 1_555
C35 C40 1_555 1_555
C39 C40 1_555 1_555
C45 C50 1_555 1_555
C49 C50 1_555 1_555

#END
