
#######################################################################
#
#                 Cambridge Crystallographic Data Centre
#                                CCDC 
#
#######################################################################
#
# If this CIF has been generated from an entry in the Cambridge 
# Structural Database, then it will include bibliographic, chemical, 
# crystal, experimental, refinement or atomic coordinate data resulting 
# from the CCDC's data processing and validation procedures.
#
#######################################################################

data_HAMSOE
_chemical_formula_moiety         'C17 H10 O3 S4'
_chemical_name_systematic        4,5-bis(Benzoylsulfanyl)-1,3-dithiol-2-one
_symmetry_cell_setting           monoclinic
_symmetry_space_group_name_H-M   'C 2/c'
_symmetry_Int_Tables_number      15
_space_group_name_Hall           '-C 2yn'
loop_
_symmetry_equiv_pos_site_id
_symmetry_equiv_pos_as_xyz
1 x,y,z
2 1/2+x,1/2+y,z
3 x,-y,1/2+z
4 1/2+x,1/2-y,1/2+z
5 -x,-y,-z
6 1/2-x,1/2-y,-z
7 -x,y,1/2-z
8 1/2-x,1/2+y,1/2-z
_cell_length_a                   35.6460(6)
_cell_length_b                   5.20360(10)
_cell_length_c                   19.1402(3)
_cell_angle_alpha                90
_cell_angle_beta                 116.0945(8)
_cell_angle_gamma                90
_cell_volume                     3188.39
_exptl_crystal_colour            colorless
_exptl_crystal_description       block
_chemical_melting_point          '388-389 K'
_cell_formula_units_Z            8
_exptl_crystal_recrystallization_method chloroform-methanol
loop_
_atom_site_label
_atom_site_type_symbol
_atom_site_fract_x
_atom_site_fract_y
_atom_site_fract_z
S1 S 0.103610(11) -0.37285(7) 0.31289(2)
S2 S 0.170596(10) 0.02062(6) 0.36723(2)
C1 C 0.10785(4) -0.1736(3) 0.38918(8)
C2 C 0.13792(4) 0.0093(3) 0.41389(7)
S3 S 0.072238(10) -0.22872(7) 0.42787(2)
S4 S 0.141682(10) 0.21377(6) 0.489622(19)
C3 C 0.14634(4) -0.2398(3) 0.30231(8)
O1 O 0.15830(3) -0.3129(2) 0.25555(6)
C4 C 0.03248(4) 0.0064(3) 0.37048(8)
O2 O 0.03936(3) 0.1632(2) 0.33152(7)
C5 C -0.00718(4) -0.0137(3) 0.37810(8)
C6 C -0.03761(5) 0.1718(3) 0.34099(9)
H1 H -0.0328 0.3035 0.3115
C7 C -0.07498(5) 0.1644(3) 0.34707(9)
H2 H -0.0957 0.2919 0.3220
C8 C -0.08222(4) -0.0285(3) 0.38965(8)
H3 H -0.1078 -0.0331 0.3937
C9 C -0.05214(5) -0.2143(3) 0.42622(10)
H4 H -0.0571 -0.3465 0.4553
C10 C -0.01465(5) -0.2077(3) 0.42043(10)
H5 H 0.0059 -0.3359 0.4454
C11 C 0.18540(4) 0.4181(3) 0.50620(8)
O3 O 0.20356(3) 0.4106(2) 0.46565(6)
C12 C 0.19594(4) 0.6008(3) 0.57182(8)
C13 C 0.22677(4) 0.7850(3) 0.58349(8)
H6 H 0.2406 0.7867 0.5508
C14 C 0.23726(4) 0.9649(3) 0.64249(8)
H7 H 0.2583 1.0888 0.6505
C15 C 0.21686(4) 0.9640(3) 0.69012(8)
H8 H 0.2235 1.0900 0.7297
C16 C 0.18678(4) 0.7790(3) 0.67965(8)
H9 H 0.1733 0.7769 0.7128
C17 C 0.17627(4) 0.5969(3) 0.62096(8)
H10 H 0.1558 0.4701 0.6142
loop_
_geom_bond_atom_site_label_1
_geom_bond_atom_site_label_2
_geom_bond_site_symmetry_1
_geom_bond_site_symmetry_2
S1 C1 1_555 1_555
S2 C2 1_555 1_555
C1 C2 1_555 1_555
C2 S4 1_555 1_555
S3 C1 1_555 1_555
S4 C11 1_555 1_555
C3 S1 1_555 1_555
O1 C3 1_555 1_555
C4 S3 1_555 1_555
O2 C4 1_555 1_555
C5 C4 1_555 1_555
C6 C5 1_555 1_555
H1 C6 1_555 1_555
C7 C6 1_555 1_555
H2 C7 1_555 1_555
C8 C7 1_555 1_555
H3 C8 1_555 1_555
C9 C8 1_555 1_555
H4 C9 1_555 1_555
C10 C5 1_555 1_555
H5 C10 1_555 1_555
C11 O3 1_555 1_555
C12 C11 1_555 1_555
C13 C12 1_555 1_555
H6 C13 1_555 1_555
C14 C13 1_555 1_555
H7 C14 1_555 1_555
C15 C14 1_555 1_555
H8 C15 1_555 1_555
C16 C15 1_555 1_555
H9 C16 1_555 1_555
C17 C12 1_555 1_555
H10 C17 1_555 1_555
S2 C3 1_555 1_555
C9 C10 1_555 1_555
C16 C17 1_555 1_555

#END
