
#######################################################################
#
#                 Cambridge Crystallographic Data Centre
#                                CCDC 
#
#######################################################################
#
# If this CIF has been generated from an entry in the Cambridge 
# Structural Database, then it will include bibliographic, chemical, 
# crystal, experimental, refinement or atomic coordinate data resulting 
# from the CCDC's data processing and validation procedures.
#
#######################################################################

data_HAMTUN
_chemical_name_common            
Diethyl(4-fluoro-8-methyl-2,3,4b,9-tetraaza-fluorene-1-yl)amine
_chemical_formula_moiety         'C14 H16 F1 N5'
_chemical_name_systematic        
N,N-diethyl-1-fluoro-6-methylpyrido[1',2':1,2]imidazo[4,5-d]pyridazin-4-amine
_symmetry_cell_setting           monoclinic
_symmetry_space_group_name_H-M   'C 2/c'
_symmetry_Int_Tables_number      15
_space_group_name_Hall           '-C 2yn'
loop_
_symmetry_equiv_pos_site_id
_symmetry_equiv_pos_as_xyz
1 x,y,z
2 -x,y,1/2-z
3 1/2+x,1/2+y,z
4 1/2-x,1/2+y,1/2-z
5 -x,-y,-z
6 x,-y,1/2+z
7 1/2-x,1/2-y,-z
8 1/2+x,1/2-y,1/2+z
_cell_length_a                   15.9765(4)
_cell_length_b                   12.4896(3)
_cell_length_c                   14.4663(3)
_cell_angle_alpha                90
_cell_angle_beta                 114.06(1)
_cell_angle_gamma                90
_cell_volume                     2635.82
_exptl_crystal_colour            colorless
_exptl_crystal_description       block
_chemical_melting_point          '111-113 deg.C'
_cell_formula_units_Z            8
loop_
_atom_site_label
_atom_site_type_symbol
_atom_site_fract_x
_atom_site_fract_y
_atom_site_fract_z
F1 F 0.42733(5) 0.09529(5) 0.13707(5)
N1 N 0.23903(6) 0.25152(8) 0.12501(7)
N2 N 0.29476(7) 0.16606(8) 0.13035(7)
N3 N 0.48941(6) 0.32292(7) 0.12629(6)
N4 N 0.40028(6) 0.46632(7) 0.12170(7)
N5 N 0.20532(6) 0.43126(8) 0.11545(7)
C1 C 0.26597(7) 0.35247(8) 0.12111(7)
C2 C 0.35517(7) 0.37304(8) 0.12274(7)
C3 C 0.40837(7) 0.28420(8) 0.12593(7)
C4 C 0.37459(7) 0.18219(8) 0.13041(8)
C5 C 0.48112(7) 0.43449(8) 0.12459(7)
C6 C 0.55599(7) 0.49835(9) 0.12806(8)
C7 C 0.63205(8) 0.44631(10) 0.13001(8)
C8 C 0.63716(8) 0.33266(10) 0.13019(8)
C9 C 0.56659(7) 0.27126(9) 0.12872(8)
C10 C 0.54874(8) 0.61690(9) 0.13291(9)
C11 C 0.22714(8) 0.54545(9) 0.11936(9)
C12 C 0.19781(10) 0.59420(11) 0.01467(11)
C13 C 0.11320(7) 0.40386(10) 0.10623(9)
C14 C 0.10747(9) 0.39073(12) 0.20810(11)
H1 H 0.6840(11) 0.4869(13) 0.1340(11)
H2 H 0.6921(11) 0.2976(13) 0.1324(12)
H3 H 0.5658(10) 0.1927(12) 0.1300(11)
H4 H 0.5484(11) 0.6393(13) 0.1979(13)
H5 H 0.4898(11) 0.6426(13) 0.0796(12)
H6 H 0.6002(11) 0.6515(13) 0.1276(12)
H7 H 0.1988(10) 0.5814(12) 0.1582(11)
H8 H 0.2919(11) 0.5588(12) 0.1592(12)
H9 H 0.2283(12) 0.5570(13) -0.0235(13)
H10 H 0.1299(13) 0.5931(14) -0.0248(13)
H11 H 0.2134(11) 0.6713(14) 0.0196(12)
H12 H 0.0732(10) 0.4635(12) 0.0682(11)
H13 H 0.0941(10) 0.3343(12) 0.0648(11)
H14 H 0.0428(12) 0.3763(13) 0.1959(13)
H15 H 0.1461(11) 0.3289(13) 0.2472(12)
H16 H 0.1286(12) 0.4559(14) 0.2498(13)
loop_
_geom_bond_atom_site_label_1
_geom_bond_atom_site_label_2
_geom_bond_site_symmetry_1
_geom_bond_site_symmetry_2
F1 C4 1_555 1_555
N1 N2 1_555 1_555
N2 C4 1_555 1_555
N3 C3 1_555 1_555
N4 C2 1_555 1_555
N5 C1 1_555 1_555
C1 N1 1_555 1_555
C2 C1 1_555 1_555
C3 C2 1_555 1_555
C4 C3 1_555 1_555
C5 N3 1_555 1_555
C6 C5 1_555 1_555
C7 C6 1_555 1_555
C8 C7 1_555 1_555
C9 N3 1_555 1_555
C10 C6 1_555 1_555
C11 N5 1_555 1_555
C12 C11 1_555 1_555
C13 N5 1_555 1_555
C14 C13 1_555 1_555
H1 C7 1_555 1_555
H2 C8 1_555 1_555
H3 C9 1_555 1_555
H4 C10 1_555 1_555
H5 C10 1_555 1_555
H6 C10 1_555 1_555
H7 C11 1_555 1_555
H8 C11 1_555 1_555
H9 C12 1_555 1_555
H10 C12 1_555 1_555
H11 C12 1_555 1_555
H12 C13 1_555 1_555
H13 C13 1_555 1_555
H14 C14 1_555 1_555
H15 C14 1_555 1_555
H16 C14 1_555 1_555
N4 C5 1_555 1_555
C8 C9 1_555 1_555

#END
