
#######################################################################
#
#                 Cambridge Crystallographic Data Centre
#                                CCDC 
#
#######################################################################
#
# If this CIF has been generated from an entry in the Cambridge 
# Structural Database, then it will include bibliographic, chemical, 
# crystal, experimental, refinement or atomic coordinate data resulting 
# from the CCDC's data processing and validation procedures.
#
#######################################################################

data_HAMVAV
_chemical_name_common            
4-Ethylsulfanyl-3-fluoro-10H-9-oxa-1,2,10-triazaanthracene
_chemical_formula_moiety         'C12 H10 F1 N3 O1 S1'
_chemical_name_systematic        
4-(ethylsulfanyl)-3-fluoro-5H-pyridazino[3,4-b][1,4]benzoxazine
_symmetry_cell_setting           orthorhombic
_symmetry_space_group_name_H-M   'P c a 21'
_symmetry_Int_Tables_number      29
_space_group_name_Hall           'P 2c -2ac'
loop_
_symmetry_equiv_pos_site_id
_symmetry_equiv_pos_as_xyz
1 x,y,z
2 -x,-y,1/2+z
3 1/2-x,y,1/2+z
4 1/2+x,-y,z
_cell_length_a                   12.566(9)
_cell_length_b                   5.2062(4)
_cell_length_c                   35.081(3)
_cell_angle_alpha                90
_cell_angle_beta                 90
_cell_angle_gamma                90
_cell_volume                     2295.04
_exptl_crystal_colour            'dull light yellow'
_exptl_crystal_description       plate
_chemical_melting_point          '260 deg.C'
_cell_formula_units_Z            8
loop_
_atom_site_label
_atom_site_type_symbol
_atom_site_fract_x
_atom_site_fract_y
_atom_site_fract_z
S1 S 0.66247(7) 1.2446(2) 0.40626(4)
F1 F 0.4546(4) 1.5220(6) 0.41677(16)
O1 O 0.4069(2) 0.7973(6) 0.31153(10)
N1 N 0.3439(3) 1.1148(8) 0.34807(12)
N2 N 0.6076(3) 0.8337(7) 0.34550(11)
N3 N 0.3554(3) 1.3040(7) 0.37475(12)
C1 C 0.4481(3) 1.3300(9) 0.39076(14)
C2 C 0.5392(3) 1.1845(9) 0.38359(13)
C3 C 0.5297(5) 0.9951(7) 0.3569(2)
C4 C 0.4266(5) 0.9741(9) 0.3407(2)
C5 C 0.6695(5) 0.4723(10) 0.3058(2)
H1 H 0.7394 0.4841 0.3160
C6 C 0.6450(3) 0.2873(9) 0.27978(14)
H2 H 0.6974 0.1639 0.2730
C7 C 0.5451(4) 0.2754(10) 0.26298(13)
H3 H 0.5305 0.1500 0.2440
C8 C 0.4670(5) 0.4470(12) 0.2740(2)
H4 H 0.3984 0.4389 0.2627
C9 C 0.4882(3) 0.6282(9) 0.30109(14)
C10 C 0.5887(3) 0.6484(9) 0.31771(13)
C11 C 0.6647(7) 0.9734(11) 0.4398(3)
H5 H 0.6569 0.8115 0.4252
H6 H 0.7348 0.9690 0.4526
C12 C 0.5773(8) 0.9864(13) 0.4700(3)
H7 H 0.5075 0.9777 0.4576
H8 H 0.5833 1.1481 0.4841
H9 H 0.5850 0.8417 0.4877
H10 H 0.673(3) 0.874(9) 0.3496(13)
S2 S 0.41038(7) 0.2537(2) 0.56401(4)
F2 F 0.2012(4) -0.0230(6) 0.55497(15)
O2 O 0.1546(2) 0.7024(5) 0.65887(9)
N4 N 0.3551(3) 0.6681(7) 0.62501(11)
N5 N 0.0923(2) 0.3867(8) 0.62159(12)
N6 N 0.1022(3) 0.1978(8) 0.59521(12)
C13 C 0.1961(3) 0.1679(9) 0.58008(14)
C14 C 0.2878(3) 0.3162(8) 0.58652(13)
C15 C 0.2756(5) 0.5071(8) 0.6141(3)
C16 C 0.1734(4) 0.5313(10) 0.6320(2)
C17 C 0.4119(5) 1.0276(10) 0.6623(2)
H11 H 0.4792 1.0238 0.6500
C18 C 0.3929(3) 1.2153(9) 0.69040(13)
H12 H 0.4475 1.3315 0.6977
C19 C 0.2929(4) 1.2272(10) 0.70718(14)
H13 H 0.2780 1.3547 0.7258
C20 C 0.2145(5) 1.0520(12) 0.6966(2)
H14 H 0.1461 1.0586 0.7081
C21 C 0.2368(3) 0.8706(8) 0.66966(13)
C22 C 0.3377(3) 0.8532(8) 0.65244(13)
C23 C 0.4159(6) 0.5206(9) 0.5319(3)
H15 H 0.4083 0.6813 0.5467
H16 H 0.4869 0.5236 0.5196
C24 C 0.3331(6) 0.5164(10) 0.5016(3)
H17 H 0.3419 0.6665 0.4850
H18 H 0.2624 0.5207 0.5133
H19 H 0.3405 0.3593 0.4864
H20 H 0.414(4) 0.640(11) 0.6184(16)
loop_
_geom_bond_atom_site_label_1
_geom_bond_atom_site_label_2
_geom_bond_site_symmetry_1
_geom_bond_site_symmetry_2
S1 C2 1_555 1_555
F1 C1 1_555 1_555
O1 C4 1_555 1_555
N1 N3 1_555 1_555
N2 C3 1_555 1_555
N3 C1 1_555 1_555
C1 C2 1_555 1_555
C2 C3 1_555 1_555
C3 C4 1_555 1_555
C4 N1 1_555 1_555
C5 H1 1_555 1_555
C6 C5 1_555 1_555
H2 C6 1_555 1_555
C7 C6 1_555 1_555
H3 C7 1_555 1_555
C8 C7 1_555 1_555
H4 C8 1_555 1_555
C9 O1 1_555 1_555
C10 N2 1_555 1_555
C11 S1 1_555 1_555
H5 C11 1_555 1_555
H6 C11 1_555 1_555
C12 C11 1_555 1_555
H7 C12 1_555 1_555
H8 C12 1_555 1_555
H9 C12 1_555 1_555
H10 N2 1_555 1_555
S2 C14 1_555 1_555
F2 C13 1_555 1_555
O2 C16 1_555 1_555
N4 C15 1_555 1_555
N5 N6 1_555 1_555
N6 C13 1_555 1_555
C13 C14 1_555 1_555
C14 C15 1_555 1_555
C15 C16 1_555 1_555
C16 N5 1_555 1_555
C17 H11 1_555 1_555
C18 C17 1_555 1_555
H12 C18 1_555 1_555
C19 C18 1_555 1_555
H13 C19 1_555 1_555
C20 C19 1_555 1_555
H14 C20 1_555 1_555
C21 O2 1_555 1_555
C22 N4 1_555 1_555
C23 S2 1_555 1_555
H15 C23 1_555 1_555
H16 C23 1_555 1_555
C24 C23 1_555 1_555
H17 C24 1_555 1_555
H18 C24 1_555 1_555
H19 C24 1_555 1_555
H20 N4 1_555 1_555
C5 C10 1_555 1_555
C8 C9 1_555 1_555
C9 C10 1_555 1_555
C17 C22 1_555 1_555
C20 C21 1_555 1_555
C21 C22 1_555 1_555

#END
