
#######################################################################
#
#                 Cambridge Crystallographic Data Centre
#                                CCDC 
#
#######################################################################
#
# If this CIF has been generated from an entry in the Cambridge 
# Structural Database, then it will include bibliographic, chemical, 
# crystal, experimental, refinement or atomic coordinate data resulting 
# from the CCDC's data processing and validation procedures.
#
#######################################################################

data_HAMVEX01
_chemical_formula_moiety         'C16 H17 N1 O3'
_chemical_name_systematic        N-cyclohexyl-2-oxo-2H-chromene-3-carboxamide
_symmetry_cell_setting           triclinic
_symmetry_space_group_name_H-M   'P -1'
_symmetry_Int_Tables_number      2
_space_group_name_Hall           '-P 1'
loop_
_symmetry_equiv_pos_site_id
_symmetry_equiv_pos_as_xyz
1 x,y,z
2 -x,-y,-z
_cell_length_a                   6.1616(4)
_cell_length_b                   9.6470(5)
_cell_length_c                   12.1471(6)
_cell_angle_alpha                94.341(2)
_cell_angle_beta                 96.731(2)
_cell_angle_gamma                104.525(2)
_cell_volume                     689.98
_exptl_crystal_colour            colorless
_exptl_crystal_description       block
_cell_formula_units_Z            2
loop_
_atom_site_label
_atom_site_type_symbol
_atom_site_fract_x
_atom_site_fract_y
_atom_site_fract_z
C1 C 0.3569(2) 0.11762(14) 0.43063(11)
C2 C 0.2473(3) -0.00906(16) 0.36425(13)
H1 H 0.0998 -0.0578 0.3713
C3 C 0.3628(3) -0.06089(17) 0.28742(13)
H2 H 0.2920 -0.1462 0.2421
C4 C 0.5827(3) 0.01133(18) 0.27600(14)
H3 H 0.6578 -0.0258 0.2236
C5 C 0.6892(3) 0.13764(17) 0.34208(13)
H4 H 0.8367 0.1859 0.3345
C6 C 0.5768(2) 0.19378(14) 0.42063(11)
C7 C 0.6757(2) 0.32277(14) 0.49435(11)
H5 H 0.8206 0.3769 0.4879
C8 C 0.5644(2) 0.36771(14) 0.57274(11)
C9 C 0.3365(2) 0.28437(15) 0.58429(12)
C10 C 0.6833(2) 0.50162(14) 0.64948(11)
C11 C 0.6991(2) 0.65181(15) 0.82309(11)
H6 H 0.7631 0.7348 0.7843
C12 C 0.8901(3) 0.62019(19) 0.89812(14)
H7 H 0.9999 0.5979 0.8534
H8 H 0.8309 0.5366 0.9358
C13 C 1.0064(3) 0.7479(2) 0.98436(16)
H9 H 1.1227 0.7227 1.0338
H10 H 1.0790 0.8287 0.9470
C14 C 0.8377(3) 0.7914(2) 1.05237(15)
H11 H 0.7793 0.7152 1.0972
H12 H 0.9135 0.8776 1.1024
C15 C 0.6435(3) 0.8198(2) 0.97718(15)
H13 H 0.6997 0.9036 0.9391
H14 H 0.5329 0.8406 1.0221
C16 C 0.5291(3) 0.69088(19) 0.89096(14)
H15 H 0.4603 0.6092 0.9285
H16 H 0.4103 0.7141 0.8419
N1 N 0.5904(2) 0.53019(12) 0.73938(10)
H17 H 0.4619 0.4750 0.7483
O1 O 0.24169(16) 0.16513(10) 0.50956(8)
O2 O 0.22233(18) 0.30856(13) 0.65394(10)
O3 O 0.86015(18) 0.57880(11) 0.62851(9)
loop_
_geom_bond_atom_site_label_1
_geom_bond_atom_site_label_2
_geom_bond_site_symmetry_1
_geom_bond_site_symmetry_2
C1 C2 1_555 1_555
C2 H1 1_555 1_555
C3 C2 1_555 1_555
H2 C3 1_555 1_555
C4 C3 1_555 1_555
H3 C4 1_555 1_555
C5 C4 1_555 1_555
H4 C5 1_555 1_555
C6 C1 1_555 1_555
C7 C6 1_555 1_555
H5 C7 1_555 1_555
C8 C7 1_555 1_555
C9 C8 1_555 1_555
C10 C8 1_555 1_555
C11 H6 1_555 1_555
C12 C11 1_555 1_555
H7 C12 1_555 1_555
H8 C12 1_555 1_555
C13 C12 1_555 1_555
H9 C13 1_555 1_555
H10 C13 1_555 1_555
C14 C13 1_555 1_555
H11 C14 1_555 1_555
H12 C14 1_555 1_555
C15 C14 1_555 1_555
H13 C15 1_555 1_555
H14 C15 1_555 1_555
C16 C11 1_555 1_555
H15 C16 1_555 1_555
H16 C16 1_555 1_555
N1 C10 1_555 1_555
H17 N1 1_555 1_555
O1 C1 1_555 1_555
O2 C9 1_555 1_555
O3 C10 1_555 1_555
C5 C6 1_555 1_555
C9 O1 1_555 1_555
C11 N1 1_555 1_555
C15 C16 1_555 1_555

#END
