
#######################################################################
#
#                 Cambridge Crystallographic Data Centre
#                                CCDC 
#
#######################################################################
#
# If this CIF has been generated from an entry in the Cambridge 
# Structural Database, then it will include bibliographic, chemical, 
# crystal, experimental, refinement or atomic coordinate data resulting 
# from the CCDC's data processing and validation procedures.
#
#######################################################################

data_HAMWID
_chemical_formula_moiety         'C17 H18 N4 2+,2(C7 H4 N1 O5 1-),2(C1 H4 O1)'
_chemical_name_systematic        
'1,3-bis(Benzimidazol-3-ium-1-yl)propane bis(2-hydroxy-5-nitrobenzoate) methanol solvate'
_symmetry_cell_setting           monoclinic
_symmetry_space_group_name_H-M   'C 2/c'
_symmetry_Int_Tables_number      15
_space_group_name_Hall           '-C 2yn'
loop_
_symmetry_equiv_pos_site_id
_symmetry_equiv_pos_as_xyz
1 x,y,z
2 -x,y,1/2-z
3 1/2+x,1/2+y,z
4 1/2-x,1/2+y,1/2-z
5 -x,-y,-z
6 x,-y,1/2+z
7 1/2-x,1/2-y,-z
8 1/2+x,1/2-y,1/2+z
_cell_length_a                   29.596(3)
_cell_length_b                   7.4337(7)
_cell_length_c                   18.3375(17)
_cell_angle_alpha                90
_cell_angle_beta                 125.864(2)
_cell_angle_gamma                90
_cell_volume                     3269.51
_exptl_crystal_colour            colorless
_exptl_crystal_description       block
_chemical_melting_point          '196-198 deg.C'
_cell_formula_units_Z            4
loop_
_atom_site_label
_atom_site_type_symbol
_atom_site_fract_x
_atom_site_fract_y
_atom_site_fract_z
N1 N 0.51619(10) 0.6088(4) 0.63073(18)
N2 N 0.55066(11) 0.7217(4) 0.5629(2)
H1 H 0.5743 0.7537 0.5525
C1 C 0.51293(13) 0.5089(5) 0.6971(2)
H4 H 0.5482 0.4484 0.7389
H5 H 0.4842 0.4175 0.6660
C2 C 0.5000 0.6286(7) 0.7500
H6 H 0.4683 0.7050 0.7092
C3 C 0.56297(13) 0.6424(5) 0.6370(2)
H7 H 0.5988 0.6140 0.6863
C4 C 0.49324(14) 0.7451(5) 0.5045(2)
C5 C 0.47122(13) 0.6737(5) 0.5478(2)
C6 C 0.41393(14) 0.6705(5) 0.5061(3)
H8 H 0.3989 0.6215 0.5342
C7 C 0.38085(16) 0.7431(6) 0.4215(3)
H9 H 0.3424 0.7443 0.3921
C8 C 0.40223(16) 0.8151(6) 0.3777(3)
H10 H 0.3779 0.8621 0.3201
C9 C 0.45891(16) 0.8182(5) 0.4181(2)
H11 H 0.4735 0.8665 0.3891
N1A N 0.48381(10) 0.6088(4) 0.86927(18)
N2A N 0.44934(11) 0.7217(4) 0.9371(2)
H1A H 0.4257 0.7537 0.9475
C1A C 0.48707(13) 0.5089(5) 0.8029(2)
H4A H 0.4518 0.4484 0.7611
H5A H 0.5158 0.4175 0.8340
H6A H 0.5317 0.7050 0.7908
C3A C 0.43703(13) 0.6424(5) 0.8630(2)
H7A H 0.4012 0.6140 0.8137
C4A C 0.50676(14) 0.7451(5) 0.9955(2)
C5A C 0.52878(13) 0.6737(5) 0.9522(2)
C6A C 0.58607(14) 0.6705(5) 0.9939(3)
H8A H 0.6011 0.6215 0.9658
C7A C 0.61915(16) 0.7431(6) 1.0785(3)
H9A H 0.6576 0.7443 1.1079
C8A C 0.59777(16) 0.8151(6) 1.1223(3)
H10A H 0.6221 0.8621 1.1799
C9A C 0.54109(16) 0.8182(5) 1.0819(2)
H11A H 0.5265 0.8665 1.1109
N3 N 0.31503(12) 0.4800(5) 0.6076(2)
O1 O 0.12440(11) 0.3048(4) 0.5293(2)
O2 O 0.06402(11) 0.3777(5) 0.3849(2)
O3 O 0.09722(11) 0.5089(4) 0.29804(19)
H2 H 0.0750 0.4813 0.3092
O4 O 0.35294(10) 0.5294(5) 0.6037(2)
O5 O 0.32384(11) 0.4261(5) 0.6782(2)
C10 C 0.11299(17) 0.3675(6) 0.4567(3)
C11 C 0.15983(14) 0.4335(5) 0.4539(3)
C12 C 0.14924(15) 0.4990(6) 0.3735(3)
C13 C 0.19315(16) 0.5581(5) 0.3711(3)
H12 H 0.1859 0.6027 0.3178
C14 C 0.24690(15) 0.5507(5) 0.4469(3)
H13 H 0.2761 0.5886 0.4448
C15 C 0.25789(13) 0.4866(5) 0.5270(2)
C16 C 0.21455(14) 0.4274(5) 0.5301(3)
H14 H 0.2223 0.3833 0.5838
O6 O 0.1926(2) 0.2770(9) 0.7055(3)
H3 H 0.1730 0.2918 0.6508
C17 C 0.2305(2) 0.1399(9) 0.7281(4)
H15 H 0.2586 0.1816 0.7214
H16 H 0.2115 0.0387 0.6892
H17 H 0.2478 0.1045 0.7894
loop_
_geom_bond_atom_site_label_1
_geom_bond_atom_site_label_2
_geom_bond_site_symmetry_1
_geom_bond_site_symmetry_2
N1 C1 1_555 1_555
N2 H1 1_555 1_555
N3 O4 1_555 1_555
O1 C10 1_555 1_555
O2 C10 1_555 1_555
O3 H2 1_555 1_555
O5 N3 1_555 1_555
O6 H3 1_555 1_555
C1 H4 1_555 1_555
H5 C1 1_555 1_555
C2 C1 1_555 1_555
H6 C2 1_555 1_555
C3 N1 1_555 1_555
H7 C3 1_555 1_555
C4 N2 1_555 1_555
C5 N1 1_555 1_555
C6 C5 1_555 1_555
H8 C6 1_555 1_555
C7 C6 1_555 1_555
H9 C7 1_555 1_555
C8 C7 1_555 1_555
H10 C8 1_555 1_555
C9 C4 1_555 1_555
H11 C9 1_555 1_555
C10 C11 1_555 1_555
C11 C12 1_555 1_555
C12 O3 1_555 1_555
C13 C12 1_555 1_555
H12 C13 1_555 1_555
C14 C13 1_555 1_555
H13 C14 1_555 1_555
C15 N3 1_555 1_555
C16 C11 1_555 1_555
H14 C16 1_555 1_555
C17 O6 1_555 1_555
H15 C17 1_555 1_555
H16 C17 1_555 1_555
H17 C17 1_555 1_555
N1A C1A 1_555 1_555
N2A H1A 1_555 1_555
C1A C2 1_555 1_555
H4A C1A 1_555 1_555
H5A C1A 1_555 1_555
H6A C2 1_555 1_555
C3A N1A 1_555 1_555
H7A C3A 1_555 1_555
C4A N2A 1_555 1_555
C5A N1A 1_555 1_555
C6A C5A 1_555 1_555
H8A C6A 1_555 1_555
C7A C6A 1_555 1_555
H9A C7A 1_555 1_555
C8A C7A 1_555 1_555
H10A C8A 1_555 1_555
C9A C4A 1_555 1_555
H11A C9A 1_555 1_555
N2 C3 1_555 1_555
C4 C5 1_555 1_555
C8 C9 1_555 1_555
C14 C15 1_555 1_555
C15 C16 1_555 1_555
N2A C3A 1_555 1_555
C4A C5A 1_555 1_555
C8A C9A 1_555 1_555

#END
