
#######################################################################
#
#                 Cambridge Crystallographic Data Centre
#                                CCDC 
#
#######################################################################
#
# If this CIF has been generated from an entry in the Cambridge 
# Structural Database, then it will include bibliographic, chemical, 
# crystal, experimental, refinement or atomic coordinate data resulting 
# from the CCDC's data processing and validation procedures.
#
#######################################################################

data_HAMWEY
_chemical_formula_moiety         'C12 H10 O2 S2'
_chemical_name_systematic        4,4'-Dithiodiphenol
_symmetry_cell_setting           monoclinic
_symmetry_space_group_name_H-M   'C 2/c'
_symmetry_Int_Tables_number      15
_space_group_name_Hall           '-C 2yn'
loop_
_symmetry_equiv_pos_site_id
_symmetry_equiv_pos_as_xyz
1 x,y,z
2 1/2+x,1/2+y,z
3 x,-y,1/2+z
4 1/2+x,1/2-y,1/2+z
5 -x,-y,-z
6 1/2-x,1/2-y,-z
7 -x,y,1/2-z
8 1/2-x,1/2+y,1/2-z
_cell_length_a                   20.886(4)
_cell_length_b                   10.959(2)
_cell_length_c                   11.263(2)
_cell_angle_alpha                90
_cell_angle_beta                 115.09(3)
_cell_angle_gamma                90
_cell_volume                     2334.73
_exptl_crystal_colour            yellow
_exptl_crystal_description       block
_cell_formula_units_Z            8
_exptl_crystal_recrystallization_method 'methanol-diethyl ether'
loop_
_atom_site_label
_atom_site_type_symbol
_atom_site_fract_x
_atom_site_fract_y
_atom_site_fract_z
S1 S 0.24192(3) 0.11462(5) 0.33220(5)
S2 S 0.14322(2) 0.14461(4) 0.18475(5)
O1 O 0.43270(7) 0.05363(14) 0.07053(14)
O2 O 0.01560(7) -0.33155(12) -0.03513(14)
C1 C 0.29650(8) 0.09545(16) 0.24787(16)
C2 C 0.33037(10) -0.01454(17) 0.25722(18)
C3 C 0.37673(10) -0.02977(17) 0.20021(18)
C4 C 0.38735(8) 0.06480(15) 0.12950(16)
C5 C 0.35261(9) 0.17381(16) 0.11703(19)
C6 C 0.30811(9) 0.19026(17) 0.17761(19)
C7 C 0.09625(10) -0.17254(17) -0.0154(2)
C8 C 0.04642(8) -0.22269(15) 0.02139(16)
C9 C 0.02876(9) -0.16365(17) 0.11104(17)
C10 C 0.06040(8) -0.05426(16) 0.16365(16)
C11 C 0.10938(8) -0.00209(14) 0.12630(16)
C12 C 0.12695(9) -0.06259(17) 0.03597(19)
H1 H 0.0489(10) -0.0130(17) 0.2281(18)
H2 H 0.3587(10) 0.2384(19) 0.0661(19)
H3 H -0.0032(10) -0.2011(17) 0.1390(18)
H4 H 0.2853(11) 0.2677(19) 0.1695(19)
H5 H 0.1046(11) -0.211(2) -0.082(2)
H6 H 0.1590(12) -0.028(2) 0.012(2)
H7 H 0.4009(10) -0.102(2) 0.2084(19)
H8 H 0.3240(11) -0.082(2) 0.308(2)
H9 H -0.0109(13) -0.352(2) -0.003(2)
H10 H 0.4426(11) -0.016(2) 0.069(2)
loop_
_geom_bond_atom_site_label_1
_geom_bond_atom_site_label_2
_geom_bond_site_symmetry_1
_geom_bond_site_symmetry_2
S1 S2 1_555 1_555
S2 C11 1_555 1_555
O1 C4 1_555 1_555
O2 C8 1_555 1_555
C1 S1 1_555 1_555
C2 C1 1_555 1_555
C3 C2 1_555 1_555
C4 C3 1_555 1_555
C5 C4 1_555 1_555
C6 C1 1_555 1_555
C7 C8 1_555 1_555
C8 C9 1_555 1_555
C9 C10 1_555 1_555
C10 C11 1_555 1_555
C11 C12 1_555 1_555
C12 C7 1_555 1_555
H1 C10 1_555 1_555
H2 C5 1_555 1_555
H3 C9 1_555 1_555
H4 C6 1_555 1_555
H5 C7 1_555 1_555
H6 C12 1_555 1_555
H7 C3 1_555 1_555
H8 C2 1_555 1_555
H9 O2 1_555 1_555
H10 O1 1_555 1_555
C5 C6 1_555 1_555

#END
