
#######################################################################
#
#                 Cambridge Crystallographic Data Centre
#                                CCDC 
#
#######################################################################
#
# If this CIF has been generated from an entry in the Cambridge 
# Structural Database, then it will include bibliographic, chemical, 
# crystal, experimental, refinement or atomic coordinate data resulting 
# from the CCDC's data processing and validation procedures.
#
#######################################################################

data_HAMWUO
_chemical_formula_moiety         'C27 H33 N1 O4'
_chemical_name_systematic        
10-Cyclopropyl-9-(3-methoxy-4-hydroxyphenyl)-3,3,6,6-tetramethyl-1,2,3,4,5,6,7,8,9,10-decahydroacridine-1,8-dione
_chemical_properties_biological  'potential therapeutic agent'
_symmetry_cell_setting           monoclinic
_symmetry_space_group_name_H-M   'P 21/n'
_symmetry_Int_Tables_number      14
_space_group_name_Hall           '-P 2yn'
loop_
_symmetry_equiv_pos_site_id
_symmetry_equiv_pos_as_xyz
1 x,y,z
2 1/2+x,1/2-y,1/2+z
3 -x,-y,-z
4 1/2-x,1/2+y,1/2-z
_cell_length_a                   9.6559(11)
_cell_length_b                   14.9830(16)
_cell_length_c                   16.5393(19)
_cell_angle_alpha                90
_cell_angle_beta                 102.754(2)
_cell_angle_gamma                90
_cell_volume                     2333.77
_exptl_crystal_colour            colorless
_exptl_crystal_description       block
_chemical_melting_point          '547-548 K'
_cell_formula_units_Z            4
_exptl_crystal_recrystallization_method ethanol
loop_
_atom_site_label
_atom_site_type_symbol
_atom_site_fract_x
_atom_site_fract_y
_atom_site_fract_z
O1 O 0.15650(14) 0.14317(10) 0.23645(8)
O2 O 0.59822(13) -0.02301(8) 0.34449(8)
O3 O 0.68693(13) 0.40795(8) 0.25304(8)
O4 O 0.77660(14) 0.31393(9) 0.13602(8)
H1 H 0.7931 0.3670 0.1517
N1 N 0.47633(15) 0.23136(10) 0.48243(8)
C1 C 0.34628(18) 0.23884(12) 0.42505(10)
C2 C 0.32318(17) 0.19156(12) 0.35390(10)
C3 C 0.44009(17) 0.13782(11) 0.32984(10)
H2 H 0.3963 0.0838 0.2990
C4 C 0.54058(16) 0.10698(11) 0.40848(10)
C5 C 0.56092(17) 0.15651(11) 0.47880(10)
C6 C 0.18198(19) 0.19071(13) 0.29842(11)
C7 C 0.0671(2) 0.24760(15) 0.32107(13)
H3 H 0.0107 0.2101 0.3512
H4 H 0.0026 0.2685 0.2694
C8 C 0.1225(2) 0.32850(14) 0.37442(12)
C9 C 0.23291(19) 0.29501(13) 0.44929(11)
H5 H 0.2779 0.3469 0.4818
H6 H 0.1845 0.2594 0.4853
C10 C 0.62018(17) 0.02511(11) 0.40701(10)
C11 C 0.72826(19) -0.00196(12) 0.48312(11)
H7 H 0.8075 -0.0328 0.4656
H8 H 0.6839 -0.0453 0.5149
C12 C 0.78866(18) 0.07542(12) 0.54023(11)
C13 C 0.66422(18) 0.13048(12) 0.55692(11)
H9 H 0.6139 0.0954 0.5922
H10 H 0.7016 0.1851 0.5878
C14 C 0.52220(17) 0.18775(11) 0.27501(10)
C15 C 0.56146(18) 0.27715(11) 0.29037(10)
H11 H 0.5305 0.3087 0.3330
C16 C 0.64476(18) 0.32022(11) 0.24437(10)
C17 C 0.69248(18) 0.27440(12) 0.18214(11)
C18 C 0.6523(2) 0.18681(12) 0.16602(11)
H12 H 0.6827 0.1554 0.1231
C19 C 0.5675(2) 0.14386(12) 0.21195(11)
H13 H 0.5403 0.0836 0.1998
C20 C 0.0006(2) 0.37306(18) 0.40526(16)
H14 H -0.0399 0.3304 0.4385
H15 H -0.0730 0.3921 0.3576
H16 H 0.0369 0.4251 0.4393
C21 C 0.1872(2) 0.39687(15) 0.32442(14)
H17 H 0.2256 0.4472 0.3602
H18 H 0.1137 0.4184 0.2778
H19 H 0.2637 0.3687 0.3032
C22 C 0.8735(2) 0.03962(15) 0.62307(13)
H20 H 0.8123 0.0016 0.6485
H21 H 0.9082 0.0897 0.6601
H22 H 0.9543 0.0047 0.6137
C23 C 0.8845(2) 0.13405(15) 0.49989(14)
H23 H 0.9646 0.0985 0.4903
H24 H 0.9203 0.1842 0.5367
H25 H 0.8300 0.1570 0.4469
C24 C 0.5233(2) 0.29601(13) 0.54805(12)
H26 H 0.5004 0.2825 0.6029
C25 C 0.6618(2) 0.34271(14) 0.55011(14)
H27 H 0.7231 0.3563 0.6050
H28 H 0.7134 0.3276 0.5064
C26 C 0.5263(3) 0.39222(14) 0.52504(15)
H29 H 0.4938 0.4081 0.4658
H30 H 0.5035 0.4368 0.5643
C27 C 0.6359(2) 0.46145(13) 0.31122(13)
H31 H 0.5319 0.4593 0.2989
H32 H 0.6671 0.5233 0.3075
H33 H 0.6735 0.4387 0.3673
loop_
_geom_bond_atom_site_label_1
_geom_bond_atom_site_label_2
_geom_bond_site_symmetry_1
_geom_bond_site_symmetry_2
O1 C6 1_555 1_555
O2 C10 1_555 1_555
O3 C16 1_555 1_555
O4 H1 1_555 1_555
N1 C1 1_555 1_555
C1 C2 1_555 1_555
C2 C3 1_555 1_555
C3 H2 1_555 1_555
C4 C3 1_555 1_555
C5 N1 1_555 1_555
C6 C2 1_555 1_555
C7 C6 1_555 1_555
H3 C7 1_555 1_555
H4 C7 1_555 1_555
C8 C7 1_555 1_555
C9 C1 1_555 1_555
H5 C9 1_555 1_555
H6 C9 1_555 1_555
C10 C4 1_555 1_555
C11 C10 1_555 1_555
H7 C11 1_555 1_555
H8 C11 1_555 1_555
C12 C11 1_555 1_555
C13 C5 1_555 1_555
H9 C13 1_555 1_555
H10 C13 1_555 1_555
C14 C3 1_555 1_555
C15 C14 1_555 1_555
H11 C15 1_555 1_555
C16 C15 1_555 1_555
C17 O4 1_555 1_555
C18 C17 1_555 1_555
H12 C18 1_555 1_555
C19 C14 1_555 1_555
H13 C19 1_555 1_555
C20 C8 1_555 1_555
H14 C20 1_555 1_555
H15 C20 1_555 1_555
H16 C20 1_555 1_555
C21 C8 1_555 1_555
H17 C21 1_555 1_555
H18 C21 1_555 1_555
H19 C21 1_555 1_555
C22 C12 1_555 1_555
H20 C22 1_555 1_555
H21 C22 1_555 1_555
H22 C22 1_555 1_555
C23 C12 1_555 1_555
H23 C23 1_555 1_555
H24 C23 1_555 1_555
H25 C23 1_555 1_555
C24 N1 1_555 1_555
H26 C24 1_555 1_555
C25 C24 1_555 1_555
H27 C25 1_555 1_555
H28 C25 1_555 1_555
C26 C24 1_555 1_555
H29 C26 1_555 1_555
H30 C26 1_555 1_555
C27 O3 1_555 1_555
H31 C27 1_555 1_555
H32 C27 1_555 1_555
H33 C27 1_555 1_555
C4 C5 1_555 1_555
C8 C9 1_555 1_555
C12 C13 1_555 1_555
C16 C17 1_555 1_555
C18 C19 1_555 1_555
C25 C26 1_555 1_555

#END
