
#######################################################################
#
#                 Cambridge Crystallographic Data Centre
#                                CCDC 
#
#######################################################################
#
# If this CIF has been generated from an entry in the Cambridge 
# Structural Database, then it will include bibliographic, chemical, 
# crystal, experimental, refinement or atomic coordinate data resulting 
# from the CCDC's data processing and validation procedures.
#
#######################################################################

data_HAMXUP
_chemical_formula_moiety         'C8 H7 Br1 N5 O1 S1'
_chemical_name_systematic        
3-((4-Bromo-2-thienyl)methylenehydrazinocarbonyl)-1H-1,2,4-triazole
_symmetry_cell_setting           monoclinic
_symmetry_space_group_name_H-M   'P 21/c'
_symmetry_Int_Tables_number      14
_space_group_name_Hall           '-P 2ybc'
loop_
_symmetry_equiv_pos_site_id
_symmetry_equiv_pos_as_xyz
1 x,y,z
2 x,1/2-y,1/2+z
3 -x,-y,-z
4 -x,1/2+y,1/2-z
_cell_length_a                   7.3236(10)
_cell_length_b                   7.6535(10)
_cell_length_c                   18.761(3)
_cell_angle_alpha                90
_cell_angle_beta                 100.312(2)
_cell_angle_gamma                90
_cell_volume                     1034.59
_exptl_crystal_colour            colorless
_exptl_crystal_description       block
_cell_formula_units_Z            4
_exptl_crystal_recrystallization_method ethanol
loop_
_atom_site_label
_atom_site_type_symbol
_atom_site_fract_x
_atom_site_fract_y
_atom_site_fract_z
Br1 Br 1.04858(7) 1.62849(5) 1.13621(2)
S1 S 0.8817(2) 1.08789(15) 1.15594(6)
O1 O 0.6319(5) 0.9003(4) 0.87074(15)
N1 N 0.6310(5) 0.7603(4) 0.97811(16)
N2 N 0.7021(5) 0.8842(4) 1.02899(16)
N3 N 0.4901(5) 0.4569(4) 0.90244(16)
N4 N 0.5102(5) 0.5966(4) 0.79821(17)
N5 N 0.4540(6) 0.4308(5) 0.78557(17)
C1 C 0.6015(5) 0.7703(5) 0.90607(19)
C2 C 0.5311(6) 0.6061(5) 0.86830(19)
C3 C 0.4451(7) 0.3505(6) 0.8471(2)
C4 C 0.7617(6) 1.0304(5) 1.0100(2)
C5 C 0.8428(6) 1.1503(5) 1.0661(2)
C6 C 0.8940(6) 1.3176(6) 1.0586(2)
C7 C 0.9648(6) 1.3961(5) 1.1264(2)
C8 C 0.9702(7) 1.2892(6) 1.1825(2)
H1 H 0.602(6) 0.675(6) 0.999(2)
H2 H 0.426(6) 0.225(7) 0.853(2)
H3 H 0.753(5) 1.067(6) 0.963(2)
H4 H 0.456(7) 0.398(5) 0.7444(14)
H5 H 0.870(6) 1.385(5) 1.011(3)
H6 H 1.007(6) 1.310(6) 1.228(2)
loop_
_geom_bond_atom_site_label_1
_geom_bond_atom_site_label_2
_geom_bond_site_symmetry_1
_geom_bond_site_symmetry_2
Br1 C7 1_555 1_555
S1 C5 1_555 1_555
O1 C1 1_555 1_555
N1 N2 1_555 1_555
N2 C4 1_555 1_555
N3 C2 1_555 1_555
N4 N5 1_555 1_555
N5 C3 1_555 1_555
C1 N1 1_555 1_555
C2 N4 1_555 1_555
C3 N3 1_555 1_555
C4 C5 1_555 1_555
C5 C6 1_555 1_555
C6 C7 1_555 1_555
C7 C8 1_555 1_555
C8 S1 1_555 1_555
H1 N1 1_555 1_555
H2 C3 1_555 1_555
H3 C4 1_555 1_555
H4 N5 1_555 1_555
H5 C6 1_555 1_555
H6 C8 1_555 1_555
C1 C2 1_555 1_555

#END
