
#######################################################################
#
#                 Cambridge Crystallographic Data Centre
#                                CCDC 
#
#######################################################################
#
# If this CIF has been generated from an entry in the Cambridge 
# Structural Database, then it will include bibliographic, chemical, 
# crystal, experimental, refinement or atomic coordinate data resulting 
# from the CCDC's data processing and validation procedures.
#
#######################################################################

data_HAMYUR
_chemical_compound_source        'stem bark of Toona ciliata var. pubescens'
_chemical_formula_moiety         'C28 H38 O8'
_chemical_name_systematic        
'Methyl 6,7-diacetoxy-4,4,8-trimethyl-3-oxo-14,15-epoxyandrost-1-ene-17-carboxylate'
_symmetry_cell_setting           orthorhombic
_symmetry_space_group_name_H-M   'P 21 21 21'
_symmetry_Int_Tables_number      19
_space_group_name_Hall           'P 2ac 2ab'
loop_
_symmetry_equiv_pos_site_id
_symmetry_equiv_pos_as_xyz
1 x,y,z
2 1/2-x,-y,1/2+z
3 -x,1/2+y,1/2-z
4 1/2+x,1/2-y,-z
_cell_length_a                   7.1487(8)
_cell_length_b                   13.2022(14)
_cell_length_c                   28.639(3)
_cell_angle_alpha                90
_cell_angle_beta                 90
_cell_angle_gamma                90
_cell_volume                     2702.91
_exptl_crystal_colour            colorless
_exptl_crystal_description       prismatic
_chemical_melting_point          '232-234 deg.C'
_cell_formula_units_Z            4
_exptl_crystal_recrystallization_method acetone
loop_
_atom_site_label
_atom_site_type_symbol
_atom_site_fract_x
_atom_site_fract_y
_atom_site_fract_z
O1 O 0.7716(5) 1.3120(2) 0.19030(11)
O2 O 0.3950(4) 0.66901(18) 0.15580(9)
O3 O 0.3733(4) 1.07821(17) 0.07802(8)
O4 O 0.0688(5) 1.0383(3) 0.08659(11)
O5 O 0.5739(3) 0.90397(16) 0.07493(7)
O6 O 0.3561(5) 0.8676(2) 0.02015(9)
O7 O 0.9100(5) 0.4813(2) 0.08881(10)
O8 O 0.9834(4) 0.51936(18) 0.16223(9)
C1 C 0.8501(5) 1.0523(3) 0.19891(12)
H1 H 0.9392 1.0062 0.2094
C2 C 0.8976(6) 1.1490(3) 0.19495(13)
H2 H 1.0180 1.1696 0.2028
C3 C 0.7607(7) 1.2239(3) 0.17820(14)
C4 C 0.6077(6) 1.1890(3) 0.14462(12)
C5 C 0.6017(5) 1.0706(2) 0.14097(10)
H3 H 0.6977 1.0523 0.1180
C6 C 0.4169(5) 1.0279(2) 0.12179(11)
H4 H 0.3161 1.0394 0.1443
C7 C 0.4331(5) 0.9149(2) 0.11107(10)
H5 H 0.3128 0.8901 0.0993
C8 C 0.4909(4) 0.8522(2) 0.15326(10)
C9 C 0.6700(5) 0.8987(2) 0.17519(10)
H6 H 0.7636 0.8949 0.1503
C10 C 0.6569(5) 1.0141(2) 0.18709(11)
C11 C 0.7458(6) 0.8287(3) 0.21344(11)
H7 H 0.6535 0.8242 0.2382
H8 H 0.8575 0.8591 0.2266
C12 C 0.7935(5) 0.7209(2) 0.19699(11)
H9 H 0.9275 0.7107 0.1996
H10 H 0.7327 0.6726 0.2175
C13 C 0.7339(5) 0.6994(2) 0.14669(11)
C14 C 0.5372(4) 0.7409(3) 0.13975(11)
C15 C 0.4383(6) 0.6740(3) 0.10684(14)
H11 H 0.3477 0.7018 0.0846
C16 C 0.5655(6) 0.5881(3) 0.09310(13)
H12 H 0.6296 0.6022 0.0640
H13 H 0.4970 0.5250 0.0902
C17 C 0.7015(5) 0.5850(2) 0.13399(12)
H14 H 0.6363 0.5534 0.1604
C18 C 0.8765(5) 0.7391(2) 0.11056(11)
H15 H 0.8848 0.8115 0.1128
H16 H 0.8365 0.7206 0.0797
H17 H 0.9970 0.7098 0.1167
C19 C 0.5316(5) 1.0393(3) 0.22963(11)
H18 H 0.5520 0.9901 0.2538
H19 H 0.4026 1.0380 0.2203
H20 H 0.5626 1.1055 0.2412
C20 C 0.8731(6) 0.5239(3) 0.12457(15)
C21 C 0.1926(7) 1.0764(4) 0.06376(15)
C22 C 0.1689(8) 1.1239(4) 0.01725(15)
H21 H 0.0435 1.1129 0.0064
H22 H 0.2557 1.0942 -0.0044
H23 H 0.1923 1.1953 0.0196
C23 C 0.5165(7) 0.8833(3) 0.03065(13)
C24 C 0.6780(7) 0.8830(3) -0.00209(12)
H24 H 0.6998 0.8152 -0.0130
H25 H 0.7874 0.9074 0.0138
H26 H 0.6510 0.9262 -0.0282
C25 C 1.1452(6) 0.4553(3) 0.15905(15)
H27 H 1.1142 0.3886 0.1699
H28 H 1.2438 0.4828 0.1780
H29 H 1.1860 0.4518 0.1271
C26 C 0.6729(6) 1.2342(3) 0.09738(13)
H30 H 0.6909 1.3059 0.1007
H31 H 0.5796 1.2216 0.0740
H32 H 0.7886 1.2031 0.0882
C27 C 0.4233(6) 1.2388(3) 0.15913(14)
H33 H 0.3804 1.2092 0.1878
H34 H 0.3314 1.2282 0.1352
H35 H 0.4426 1.3101 0.1635
C28 C 0.3196(5) 0.8515(3) 0.18661(12)
H36 H 0.2848 0.9199 0.1940
H37 H 0.3515 0.8162 0.2148
H38 H 0.2166 0.8179 0.1717
loop_
_geom_bond_atom_site_label_1
_geom_bond_atom_site_label_2
_geom_bond_site_symmetry_1
_geom_bond_site_symmetry_2
O1 C3 1_555 1_555
O2 C14 1_555 1_555
O3 C6 1_555 1_555
O4 C21 1_555 1_555
O5 C7 1_555 1_555
O6 C23 1_555 1_555
O7 C20 1_555 1_555
O8 C20 1_555 1_555
C1 H1 1_555 1_555
C2 C1 1_555 1_555
H2 C2 1_555 1_555
C3 C2 1_555 1_555
C4 C3 1_555 1_555
C5 C4 1_555 1_555
H3 C5 1_555 1_555
C6 C5 1_555 1_555
H4 C6 1_555 1_555
C7 C6 1_555 1_555
H5 C7 1_555 1_555
C8 C7 1_555 1_555
C9 C8 1_555 1_555
H6 C9 1_555 1_555
C10 C1 1_555 1_555
C11 C9 1_555 1_555
H7 C11 1_555 1_555
H8 C11 1_555 1_555
C12 C11 1_555 1_555
H9 C12 1_555 1_555
H10 C12 1_555 1_555
C13 C12 1_555 1_555
C14 C8 1_555 1_555
C15 O2 1_555 1_555
H11 C15 1_555 1_555
C16 C15 1_555 1_555
H12 C16 1_555 1_555
H13 C16 1_555 1_555
C17 C13 1_555 1_555
H14 C17 1_555 1_555
C18 C13 1_555 1_555
H15 C18 1_555 1_555
H16 C18 1_555 1_555
H17 C18 1_555 1_555
C19 C10 1_555 1_555
H18 C19 1_555 1_555
H19 C19 1_555 1_555
H20 C19 1_555 1_555
C20 C17 1_555 1_555
C21 O3 1_555 1_555
C22 C21 1_555 1_555
H21 C22 1_555 1_555
H22 C22 1_555 1_555
H23 C22 1_555 1_555
C23 O5 1_555 1_555
C24 C23 1_555 1_555
H24 C24 1_555 1_555
H25 C24 1_555 1_555
H26 C24 1_555 1_555
C25 O8 1_555 1_555
H27 C25 1_555 1_555
H28 C25 1_555 1_555
H29 C25 1_555 1_555
C26 C4 1_555 1_555
H30 C26 1_555 1_555
H31 C26 1_555 1_555
H32 C26 1_555 1_555
C27 C4 1_555 1_555
H33 C27 1_555 1_555
H34 C27 1_555 1_555
H35 C27 1_555 1_555
C28 C8 1_555 1_555
H36 C28 1_555 1_555
H37 C28 1_555 1_555
H38 C28 1_555 1_555
C5 C10 1_555 1_555
C9 C10 1_555 1_555
C13 C14 1_555 1_555
C14 C15 1_555 1_555
C16 C17 1_555 1_555

#END
