
#######################################################################
#
#                 Cambridge Crystallographic Data Centre
#                                CCDC 
#
#######################################################################
#
# If this CIF has been generated from an entry in the Cambridge 
# Structural Database, then it will include bibliographic, chemical, 
# crystal, experimental, refinement or atomic coordinate data resulting 
# from the CCDC's data processing and validation procedures.
#
#######################################################################

data_HAMZUR
_chemical_formula_moiety         'C17 H12 N2 O5,C3 H7 N1 O1'
_chemical_name_systematic        
'2-Amino-7-methyl-4-(3,4-methylenedioxyphenyl)-5-oxopyrano(3,2-c)pyran-3-carbonitrile N,N-dimethylformamide solvate'
_symmetry_cell_setting           triclinic
_symmetry_space_group_name_H-M   'P -1'
_symmetry_Int_Tables_number      2
_space_group_name_Hall           '-P 1'
loop_
_symmetry_equiv_pos_site_id
_symmetry_equiv_pos_as_xyz
1 x,y,z
2 -x,-y,-z
_cell_length_a                   6.7513(18)
_cell_length_b                   11.010(3)
_cell_length_c                   13.740(4)
_cell_angle_alpha                107.117(5)
_cell_angle_beta                 93.142(3)
_cell_angle_gamma                104.813(5)
_cell_volume                     934.245
_exptl_crystal_colour            yellow
_exptl_crystal_description       block
_chemical_melting_point          '501-503 K'
_cell_formula_units_Z            2
_exptl_crystal_recrystallization_method 'aqueous DMF'
loop_
_atom_site_label
_atom_site_type_symbol
_atom_site_fract_x
_atom_site_fract_y
_atom_site_fract_z
O1 O 0.33414(14) 0.46108(9) 0.35445(7)
O2 O -0.27104(16) 0.20080(11) 0.11811(8)
O3 O -0.00581(15) 0.12007(9) 0.13271(7)
O4 O -0.47277(17) 0.65512(15) 0.08459(11)
O5 O -0.19544(16) 0.72972(12) 0.00578(9)
N1 N 0.3683(2) 0.63387(13) 0.49442(10)
N2 N -0.1505(2) 0.69377(13) 0.49341(10)
C1 C 0.2395(2) 0.55010(13) 0.41067(10)
C2 C 0.0407(2) 0.54365(13) 0.38109(10)
C3 C -0.0834(2) 0.45022(13) 0.27893(10)
H1 H -0.2252 0.4091 0.2921
C4 C 0.0176(2) 0.34165(13) 0.24049(10)
C5 C 0.2114(2) 0.35018(13) 0.27866(10)
C6 C -0.0986(2) 0.22205(14) 0.16108(11)
C7 C 0.1924(2) 0.13364(14) 0.17196(11)
C8 C 0.3039(2) 0.24590(14) 0.24386(10)
H2 H 0.4416 0.2555 0.2709
C9 C -0.0581(2) 0.62911(14) 0.44479(11)
C10 C -0.1056(2) 0.52469(13) 0.20279(10)
C11 C -0.2952(2) 0.54806(16) 0.18254(12)
H3 H -0.4121 0.5154 0.2127
C12 C -0.3050(2) 0.62038(16) 0.11710(12)
C13 C -0.1388(2) 0.66641(14) 0.07117(11)
C14 C 0.0483(2) 0.64486(15) 0.08949(12)
H4 H 0.1632 0.6770 0.0579
C15 C 0.0618(2) 0.57320(14) 0.15703(11)
H5 H 0.1899 0.5571 0.1721
C16 C -0.3901(3) 0.7472(2) 0.03162(16)
H6 H -0.4854 0.7299 -0.0314
H7 H -0.3720 0.8391 0.0763
C17 C 0.2586(2) 0.01296(15) 0.12703(12)
H8 H 0.3980 0.0255 0.1600
H9 H 0.2595 -0.0032 0.0530
H10 H 0.1620 -0.0632 0.1383
H18 H 0.497(3) 0.6310(17) 0.5003(13)
H19 H 0.333(3) 0.706(2) 0.5340(15)
O6 O 0.6460(2) 1.12501(13) 0.35697(11)
N3 N 0.7918(2) 0.95910(14) 0.35120(11)
C18 C 0.7951(3) 1.07960(16) 0.34992(12)
H11 H 0.9229 1.1353 0.3430
C19 C 0.9804(3) 0.91828(19) 0.34974(16)
H12 H 1.0964 0.9904 0.3455
H13 H 0.9637 0.8395 0.2899
H14 H 1.0083 0.8974 0.4128
C20 C 0.6037(4) 0.8691(2) 0.3640(2)
H15 H 0.4879 0.9067 0.3599
H16 H 0.6215 0.8563 0.4312
H17 H 0.5748 0.7835 0.3096
loop_
_geom_bond_atom_site_label_1
_geom_bond_atom_site_label_2
_geom_bond_site_symmetry_1
_geom_bond_site_symmetry_2
O1 C1 1_555 1_555
O2 C6 1_555 1_555
O3 C6 1_555 1_555
O4 C12 1_555 1_555
O5 C13 1_555 1_555
O6 C18 1_555 1_555
N1 C1 1_555 1_555
N2 C9 1_555 1_555
N3 C18 1_555 1_555
C1 C2 1_555 1_555
C2 C3 1_555 1_555
C3 H1 1_555 1_555
C4 C3 1_555 1_555
C5 O1 1_555 1_555
C6 C4 1_555 1_555
C7 O3 1_555 1_555
C8 C5 1_555 1_555
H2 C8 1_555 1_555
C9 C2 1_555 1_555
C10 C3 1_555 1_555
C11 C10 1_555 1_555
H3 C11 1_555 1_555
C12 C11 1_555 1_555
C13 C12 1_555 1_555
C14 C13 1_555 1_555
H4 C14 1_555 1_555
C15 C10 1_555 1_555
H5 C15 1_555 1_555
C16 O4 1_555 1_555
H6 C16 1_555 1_555
H7 C16 1_555 1_555
C17 C7 1_555 1_555
H8 C17 1_555 1_555
H9 C17 1_555 1_555
H10 C17 1_555 1_555
C18 H11 1_555 1_555
C19 N3 1_555 1_555
H12 C19 1_555 1_555
H13 C19 1_555 1_555
H14 C19 1_555 1_555
C20 N3 1_555 1_555
H15 C20 1_555 1_555
H16 C20 1_555 1_555
H17 C20 1_555 1_555
H18 N1 1_555 1_555
H19 N1 1_555 1_555
O5 C16 1_555 1_555
C4 C5 1_555 1_555
C7 C8 1_555 1_555
C14 C15 1_555 1_555

#END
