
#######################################################################
#
#                 Cambridge Crystallographic Data Centre
#                                CCDC 
#
#######################################################################
#
# If this CIF has been generated from an entry in the Cambridge 
# Structural Database, then it will include bibliographic, chemical, 
# crystal, experimental, refinement or atomic coordinate data resulting 
# from the CCDC's data processing and validation procedures.
#
#######################################################################

data_HANBUW
_chemical_name_common            
'lup-20(29)-ene-3beta,28-diol N,N-dimethylacetamide solvate'
_chemical_formula_moiety         'C30 H50 O2,C4 H9 N1 O1'
_chemical_name_systematic        'Betulin dimethylacetamide solvate'
_chemical_properties_biological  
'Betulin has been shown to possess anti-HIV and anticancer activities'
_symmetry_cell_setting           monoclinic
_symmetry_space_group_name_H-M   'P 21'
_symmetry_Int_Tables_number      4
_space_group_name_Hall           'P 2yb'
loop_
_symmetry_equiv_pos_site_id
_symmetry_equiv_pos_as_xyz
1 x,y,z
2 -x,1/2+y,-z
_cell_length_a                   7.079(5)
_cell_length_b                   12.496(8)
_cell_length_c                   18.451(13)
_cell_angle_alpha                90
_cell_angle_beta                 100.970(18)
_cell_angle_gamma                90
_cell_volume                     1602.34
_exptl_crystal_colour            colorless
_exptl_crystal_description       Prism
_cell_formula_units_Z            2
loop_
_atom_site_label
_atom_site_type_symbol
_atom_site_fract_x
_atom_site_fract_y
_atom_site_fract_z
C1 C 1.2396(6) 0.0202(4) 0.5656(2)
O1 O 1.4347(5) -0.0910(3) 0.79073(15)
H1 H 1.5142 -0.1379 0.8050
C2 C 1.1671(6) 0.0322(3) 0.31813(19)
H2 H 1.0977 0.1000 0.3184
C3 C 1.3484(6) 0.0936(3) 0.4444(2)
C4 C 1.2728(7) 0.1021(4) 0.2024(2)
C5 C 1.2415(6) 0.0054(3) 0.48110(19)
H3 H 1.3177 -0.0596 0.4788
C6 C 1.4534(6) 0.0349(3) 0.60485(18)
H4 H 1.5205 -0.0263 0.5882
C7 C 1.4117(7) -0.0797(4) 0.7123(2)
H5 H 1.4817 -0.1385 0.6942
C8 C 1.5465(6) 0.1161(4) 0.4928(2)
H6 H 1.6318 0.0569 0.4880
H7 H 1.6001 0.1799 0.4745
C9 C 1.4990(6) 0.0265(4) 0.6909(2)
C10 C 1.3717(6) 0.0502(3) 0.3651(2)
C11 C 1.4874(7) 0.1322(4) 0.3272(2)
H8 H 1.4398 0.2034 0.3345
H9 H 1.6211 0.1295 0.3519
C12 C 1.2019(7) -0.0924(4) 0.6787(2)
H10 H 1.1286 -0.0372 0.6979
H11 H 1.1572 -0.1612 0.6930
C13 C 1.4785(7) 0.1153(4) 0.2444(2)
H12 H 1.5370 0.1761 0.2245
H13 H 1.5521 0.0520 0.2371
C14 C 1.1648(7) -0.0851(4) 0.5947(2)
H14 H 1.0275 -0.0908 0.5760
H15 H 1.2266 -0.1453 0.5754
C15 C 1.1769(6) 0.0087(4) 0.2374(2)
H16 H 1.2632 -0.0528 0.2383
O2 O 1.2347(6) 0.2870(3) 0.16039(19)
H17 H 1.1500 0.3066 0.1263
C16 C 1.5414(7) 0.1319(4) 0.5742(2)
H18 H 1.6711 0.1430 0.6016
H19 H 1.4662 0.1951 0.5802
C17 C 1.0554(6) -0.0514(4) 0.3540(2)
H20 H 1.1181 -0.1204 0.3539
H21 H 0.9261 -0.0579 0.3252
C18 C 1.7180(7) 0.0179(5) 0.7170(2)
H22 H 1.7674 -0.0378 0.6900
H23 H 1.7462 0.0015 0.7687
H24 H 1.7771 0.0847 0.7085
C19 C 0.9933(7) -0.0189(4) 0.1805(2)
H25 H 0.8874 0.0255 0.1908
C20 C 1.0446(7) -0.0206(4) 0.4339(2)
H26 H 0.9612 0.0412 0.4330
H27 H 0.9872 -0.0793 0.4565
C21 C 1.1605(7) 0.2073(4) 0.2022(2)
H28 H 1.0259 0.1949 0.1813
H29 H 1.1691 0.2321 0.2525
C22 C 1.4881(7) -0.0550(4) 0.3708(2)
H30 H 1.4136 -0.1118 0.3864
H31 H 1.6056 -0.0465 0.4061
H32 H 1.5173 -0.0722 0.3234
C23 C 0.9309(9) -0.1333(4) 0.1777(3)
C24 C 1.2342(8) 0.2003(4) 0.4365(3)
H33 H 1.1030 0.1867 0.4134
H34 H 1.2909 0.2492 0.4066
H35 H 1.2380 0.2309 0.4844
C25 C 1.4281(8) 0.1208(4) 0.7305(3)
H36 H 1.4650 0.1865 0.7101
H37 H 1.4842 0.1176 0.7821
H38 H 1.2905 0.1178 0.7245
C26 C 1.2480(9) 0.0628(5) 0.1222(2)
H39 H 1.2624 0.1214 0.0892
H40 H 1.3415 0.0077 0.1176
C27 C 1.0438(8) 0.0180(5) 0.1055(2)
H41 H 1.0366 -0.0420 0.0717
H42 H 0.9542 0.0726 0.0829
C28 C 1.1034(7) 0.1112(5) 0.5806(2)
H43 H 1.1671 0.1789 0.5796
H44 H 1.0701 0.1009 0.6282
H45 H 0.9887 0.1103 0.5432
C29 C 0.7503(12) -0.1597(6) 0.1783(3)
H46 H 0.7122 -0.2310 0.1733
H47 H 0.6613 -0.1069 0.1837
C30 C 1.0744(16) -0.2164(7) 0.1692(8)
H48 H 1.1265 -0.2017 0.1259
H49 H 1.0134 -0.2854 0.1644
H50 H 1.1762 -0.2161 0.2118
N1 N 0.6147(11) 0.3747(7) 0.0308(3)
C31 C 0.4573(14) 0.4489(11) 0.0294(4)
H51 H 0.3418 0.4190 0.0008
H52 H 0.4865 0.5151 0.0075
H53 H 0.4390 0.4619 0.0788
C32 C 0.572(2) 0.2603(9) 0.0010(7)
H54 H 0.5738 0.2119 0.0415
H55 H 0.6673 0.2392 -0.0267
H56 H 0.4469 0.2586 -0.0304
O3 O 0.9244(9) 0.3246(5) 0.0556(3)
C33 C 0.7901(12) 0.3946(8) 0.0570(3)
C34 C 0.8441(13) 0.5039(8) 0.0902(4)
H57 H 0.7859 0.5584 0.0565
H58 H 0.9815 0.5120 0.0992
H59 H 0.7991 0.5107 0.1359
loop_
_geom_bond_atom_site_label_1
_geom_bond_atom_site_label_2
_geom_bond_site_symmetry_1
_geom_bond_site_symmetry_2
C1 C5 1_555 1_555
O1 H1 1_555 1_555
C2 H2 1_555 1_555
C3 C5 1_555 1_555
C4 C13 1_555 1_555
C5 H3 1_555 1_555
C6 C1 1_555 1_555
H4 C6 1_555 1_555
C7 O1 1_555 1_555
H5 C7 1_555 1_555
C8 C3 1_555 1_555
H6 C8 1_555 1_555
H7 C8 1_555 1_555
C9 C6 1_555 1_555
C10 C2 1_555 1_555
C11 C10 1_555 1_555
H8 C11 1_555 1_555
H9 C11 1_555 1_555
C12 C7 1_555 1_555
H10 C12 1_555 1_555
H11 C12 1_555 1_555
C13 C11 1_555 1_555
H12 C13 1_555 1_555
H13 C13 1_555 1_555
C14 C1 1_555 1_555
H14 C14 1_555 1_555
H15 C14 1_555 1_555
C15 C2 1_555 1_555
H16 C15 1_555 1_555
O2 H17 1_555 1_555
C16 C6 1_555 1_555
H18 C16 1_555 1_555
H19 C16 1_555 1_555
C17 C2 1_555 1_555
H20 C17 1_555 1_555
H21 C17 1_555 1_555
C18 C9 1_555 1_555
H22 C18 1_555 1_555
H23 C18 1_555 1_555
H24 C18 1_555 1_555
C19 C15 1_555 1_555
H25 C19 1_555 1_555
C20 C5 1_555 1_555
H26 C20 1_555 1_555
H27 C20 1_555 1_555
C21 C4 1_555 1_555
H28 C21 1_555 1_555
H29 C21 1_555 1_555
C22 C10 1_555 1_555
H30 C22 1_555 1_555
H31 C22 1_555 1_555
H32 C22 1_555 1_555
C23 C19 1_555 1_555
C24 C3 1_555 1_555
H33 C24 1_555 1_555
H34 C24 1_555 1_555
H35 C24 1_555 1_555
C25 C9 1_555 1_555
H36 C25 1_555 1_555
H37 C25 1_555 1_555
H38 C25 1_555 1_555
C26 C4 1_555 1_555
H39 C26 1_555 1_555
H40 C26 1_555 1_555
C27 C19 1_555 1_555
H41 C27 1_555 1_555
H42 C27 1_555 1_555
C28 C1 1_555 1_555
H43 C28 1_555 1_555
H44 C28 1_555 1_555
H45 C28 1_555 1_555
C29 C23 1_555 1_555
H46 C29 1_555 1_555
H47 C29 1_555 1_555
C30 C23 1_555 1_555
H48 C30 1_555 1_555
H49 C30 1_555 1_555
H50 C30 1_555 1_555
N1 C31 1_555 1_555
C31 H51 1_555 1_555
H52 C31 1_555 1_555
H53 C31 1_555 1_555
C32 N1 1_555 1_555
H54 C32 1_555 1_555
H55 C32 1_555 1_555
H56 C32 1_555 1_555
O3 C33 1_555 1_555
C33 N1 1_555 1_555
C34 C33 1_555 1_555
H57 C34 1_555 1_555
H58 C34 1_555 1_555
H59 C34 1_555 1_555
C3 C10 1_555 1_555
C4 C15 1_555 1_555
C7 C9 1_555 1_555
C8 C16 1_555 1_555
C12 C14 1_555 1_555
O2 C21 1_555 1_555
C17 C20 1_555 1_555
C26 C27 1_555 1_555

#END
