
#######################################################################
#
#                 Cambridge Crystallographic Data Centre
#                                CCDC 
#
#######################################################################
#
# If this CIF has been generated from an entry in the Cambridge 
# Structural Database, then it will include bibliographic, chemical, 
# crystal, experimental, refinement or atomic coordinate data resulting 
# from the CCDC's data processing and validation procedures.
#
#######################################################################

data_HANHIO
_chemical_formula_moiety         'C10 H11 N2 O2 1+,N1 O3 1-,0.5(H2 O1)'
_chemical_name_systematic        
'6-Methoxycarbonyl-2-methyl-1H-benzimidazol-3-ium nitrate hemihydrate'
_symmetry_cell_setting           monoclinic
_symmetry_space_group_name_H-M   'P 21/c'
_symmetry_Int_Tables_number      14
_space_group_name_Hall           '-P 2ybc'
loop_
_symmetry_equiv_pos_site_id
_symmetry_equiv_pos_as_xyz
1 x,y,z
2 x,1/2-y,1/2+z
3 -x,-y,-z
4 -x,1/2+y,1/2-z
_cell_length_a                   7.9107(6)
_cell_length_b                   21.5276(17)
_cell_length_c                   14.2691(11)
_cell_angle_alpha                90
_cell_angle_beta                 94.573(2)
_cell_angle_gamma                90
_cell_volume                     2422.27
_exptl_crystal_colour            brown-yellow
_exptl_crystal_description       block
_chemical_melting_point          '374-375 K'
_cell_formula_units_Z            8
_exptl_crystal_recrystallization_method ethanol
loop_
_atom_site_label
_atom_site_type_symbol
_atom_site_fract_x
_atom_site_fract_y
_atom_site_fract_z
O1 O 0.301(3) 0.4430(8) 0.0967(11)
H1 H 0.2140 0.4235 0.0729
H2 H 0.3878 0.4262 0.0760
O2 O 0.0866(6) 0.10217(18) 0.2874(3)
O3 O 0.3559(6) 0.09091(18) 0.3448(3)
N1 N 0.3129(6) 0.38043(19) 0.3367(3)
H3 H 0.3943 0.4052 0.3549
N2 N 0.0684(6) 0.3481(2) 0.2819(3)
H4 H -0.0355 0.3482 0.2589
C1 C 0.0982(8) 0.4637(3) 0.2958(5)
H7 H -0.0173 0.4641 0.2695
H8 H 0.1676 0.4866 0.2557
H9 H 0.1048 0.4825 0.3570
C2 C 0.1599(8) 0.3981(3) 0.3040(4)
C3 C 0.3234(7) 0.3162(2) 0.3373(3)
C4 C 0.4514(7) 0.2758(3) 0.3658(3)
H10 H 0.5577 0.2901 0.3885
C5 C 0.4166(7) 0.2131(2) 0.3595(3)
H11 H 0.5000 0.1846 0.3800
C6 C 0.2578(7) 0.1914(2) 0.3228(3)
C7 C 0.1302(7) 0.2324(2) 0.2935(3)
H12 H 0.0243 0.2185 0.2692
C8 C 0.1663(7) 0.2952(3) 0.3016(3)
C9 C 0.2187(10) 0.1254(3) 0.3152(4)
C10 C 0.3336(10) 0.0230(3) 0.3402(5)
H13 H 0.4378 0.0030 0.3624
H14 H 0.3033 0.0108 0.2764
H15 H 0.2454 0.0109 0.3789
O4 O -0.2064(6) 0.2921(2) -0.0534(4)
O5 O -0.0157(5) 0.35596(18) 0.0126(3)
N3 N 0.3823(6) 0.11389(18) 0.1087(3)
H5 H 0.3795 0.0740 0.1108
N4 N 0.4734(5) 0.20724(17) 0.1234(3)
H6 H 0.5394 0.2383 0.1363
C11 C 0.6800(7) 0.1249(3) 0.1796(4)
H16 H 0.6774 0.0803 0.1816
H17 H 0.7001 0.1408 0.2424
H18 H 0.7693 0.1382 0.1425
C12 C 0.5155(7) 0.1484(2) 0.1372(4)
C13 C 0.2484(7) 0.1512(2) 0.0749(3)
C14 C 0.0873(7) 0.1381(2) 0.0379(4)
H19 H 0.0482 0.0975 0.0304
C15 C -0.0126(7) 0.1879(3) 0.0126(4)
H20 H -0.1232 0.1810 -0.0123
C16 C 0.0456(7) 0.2493(2) 0.0229(3)
C17 C 0.2082(7) 0.2620(2) 0.0598(3)
H21 H 0.2482 0.3025 0.0671
C18 C 0.3077(6) 0.2117(2) 0.0851(3)
C19 C -0.0737(8) 0.2996(3) -0.0104(4)
C20 C -0.1264(9) 0.4074(3) -0.0174(5)
H22 H -0.0742 0.4459 0.0029
H23 H -0.2329 0.4030 0.0098
H24 H -0.1453 0.4072 -0.0847
O6 O 0.7844(5) 0.4881(2) 0.4601(4)
O7 O 0.6504(5) 0.40196(18) 0.4493(3)
O8 O 0.5397(5) 0.48377(16) 0.3849(3)
N5 N 0.6597(6) 0.4572(2) 0.4318(3)
O9 O 0.7327(5) 0.29137(18) 0.1892(3)
O10 O 0.7460(6) 0.38918(19) 0.2125(3)
O11 O 0.5221(6) 0.34922(19) 0.1424(3)
N6 N 0.6644(7) 0.3442(2) 0.1809(3)
loop_
_geom_bond_atom_site_label_1
_geom_bond_atom_site_label_2
_geom_bond_site_symmetry_1
_geom_bond_site_symmetry_2
O1 H1 1_555 1_555
H2 O1 1_555 1_555
O2 C9 1_555 1_555
O3 C9 1_555 1_555
O4 C19 1_555 1_555
O5 C19 1_555 1_555
O6 N5 1_555 1_555
O7 N5 1_555 1_555
O8 N5 1_555 1_555
O9 N6 1_555 1_555
O10 N6 1_555 1_555
O11 N6 1_555 1_555
N1 H3 1_555 1_555
N2 H4 1_555 1_555
N3 H5 1_555 1_555
N4 H6 1_555 1_555
C1 H7 1_555 1_555
H8 C1 1_555 1_555
H9 C1 1_555 1_555
C2 N1 1_555 1_555
C3 N1 1_555 1_555
C4 C3 1_555 1_555
H10 C4 1_555 1_555
C5 C4 1_555 1_555
H11 C5 1_555 1_555
C6 C5 1_555 1_555
C7 C6 1_555 1_555
H12 C7 1_555 1_555
C8 N2 1_555 1_555
C9 C6 1_555 1_555
C10 O3 1_555 1_555
H13 C10 1_555 1_555
H14 C10 1_555 1_555
H15 C10 1_555 1_555
C11 H16 1_555 1_555
H17 C11 1_555 1_555
H18 C11 1_555 1_555
C12 N3 1_555 1_555
C13 N3 1_555 1_555
C14 C13 1_555 1_555
H19 C14 1_555 1_555
C15 C14 1_555 1_555
H20 C15 1_555 1_555
C16 C15 1_555 1_555
C17 C16 1_555 1_555
H21 C17 1_555 1_555
C18 N4 1_555 1_555
C19 C16 1_555 1_555
C20 O5 1_555 1_555
H22 C20 1_555 1_555
H23 C20 1_555 1_555
H24 C20 1_555 1_555
N2 C2 1_555 1_555
N4 C12 1_555 1_555
C1 C2 1_555 1_555
C3 C8 1_555 1_555
C7 C8 1_555 1_555
C11 C12 1_555 1_555
C13 C18 1_555 1_555
C17 C18 1_555 1_555

#END
