
#######################################################################
#
#                 Cambridge Crystallographic Data Centre
#                                CCDC 
#
#######################################################################
#
# If this CIF has been generated from an entry in the Cambridge 
# Structural Database, then it will include bibliographic, chemical, 
# crystal, experimental, refinement or atomic coordinate data resulting 
# from the CCDC's data processing and validation procedures.
#
#######################################################################

data_HANHUA
_chemical_formula_moiety         'C17 H15 Cl1 O2'
_chemical_name_systematic        9-Chloro-10-(dimethoxymethyl)anthracene
_symmetry_cell_setting           orthorhombic
_symmetry_space_group_name_H-M   'P b c a'
_symmetry_Int_Tables_number      61
_space_group_name_Hall           '-P 2ac 2ab'
loop_
_symmetry_equiv_pos_site_id
_symmetry_equiv_pos_as_xyz
1 x,y,z
2 1/2+x,y,1/2-z
3 x,1/2-y,1/2+z
4 1/2-x,1/2+y,z
5 -x,-y,-z
6 1/2-x,-y,1/2+z
7 -x,1/2+y,1/2-z
8 1/2+x,1/2-y,-z
_cell_length_a                   10.553(12)
_cell_length_b                   8.948(10)
_cell_length_c                   30.84(3)
_cell_angle_alpha                90
_cell_angle_beta                 90
_cell_angle_gamma                90
_cell_volume                     2912.17
_exptl_crystal_colour            colorless
_exptl_crystal_description       block
_cell_formula_units_Z            8
_exptl_crystal_recrystallization_method methanol-ethanol
loop_
_atom_site_label
_atom_site_type_symbol
_atom_site_fract_x
_atom_site_fract_y
_atom_site_fract_z
Cl1 Cl 0.70960(15) -0.00737(19) 0.33802(5)
O1 O 0.2791(3) 0.4429(4) 0.42295(12)
O2 O 0.4232(4) 0.6173(4) 0.40408(12)
C1 C 0.3557(5) 0.4899(6) 0.38927(18)
C2 C 0.4426(4) 0.3651(6) 0.37604(15)
C3 C 0.4317(5) 0.2951(6) 0.33597(15)
C4 C 0.3320(6) 0.3339(8) 0.3053(2)
C5 C 0.3213(7) 0.2591(10) 0.2672(2)
C6 C 0.4044(9) 0.1453(10) 0.2562(2)
C7 C 0.4982(7) 0.1059(8) 0.28245(19)
C8 C 0.5150(5) 0.1770(6) 0.32365(15)
C9 C 0.6082(4) 0.1346(6) 0.35240(16)
C10 C 0.6225(4) 0.2002(5) 0.39319(15)
C11 C 0.7172(5) 0.1546(7) 0.42283(19)
C12 C 0.7228(5) 0.2148(8) 0.4626(2)
C13 C 0.6372(6) 0.3229(7) 0.47582(19)
C14 C 0.5482(5) 0.3710(6) 0.44869(16)
C15 C 0.5364(4) 0.3150(5) 0.40588(14)
C16 C 0.1691(6) 0.5331(7) 0.4297(2)
C17 C 0.4658(6) 0.7057(8) 0.3707(2)
H1 H 0.303(4) 0.524(5) 0.3655(11)
H2 H 0.274(4) 0.419(4) 0.3101(15)
H3 H 0.254(3) 0.311(5) 0.2526(14)
H4 H 0.398(4) 0.087(5) 0.2298(11)
H5 H 0.548(4) 0.016(4) 0.2743(16)
H6 H 0.765(4) 0.066(4) 0.4162(14)
H7 H 0.794(3) 0.194(5) 0.4811(13)
H8 H 0.637(5) 0.370(5) 0.5045(9)
H9 H 0.493(4) 0.456(4) 0.4550(15)
H10 H 0.105(3) 0.493(4) 0.4536(9)
H11 H 0.194(4) 0.628(3) 0.4387(11)
H12 H 0.114(4) 0.535(4) 0.4045(8)
H13 H 0.518(3) 0.787(3) 0.3830(9)
H14 H 0.528(3) 0.646(3) 0.3536(8)
H15 H 0.404(2) 0.743(3) 0.3522(8)
loop_
_geom_bond_atom_site_label_1
_geom_bond_atom_site_label_2
_geom_bond_site_symmetry_1
_geom_bond_site_symmetry_2
Cl1 C9 1_555 1_555
O1 C1 1_555 1_555
O2 C1 1_555 1_555
C1 C2 1_555 1_555
C2 C3 1_555 1_555
C3 C4 1_555 1_555
C4 C5 1_555 1_555
C5 C6 1_555 1_555
C6 C7 1_555 1_555
C7 C8 1_555 1_555
C8 C3 1_555 1_555
C9 C8 1_555 1_555
C10 C9 1_555 1_555
C11 C10 1_555 1_555
C12 C11 1_555 1_555
C13 C12 1_555 1_555
C14 C13 1_555 1_555
C15 C2 1_555 1_555
C16 O1 1_555 1_555
C17 O2 1_555 1_555
H1 C1 1_555 1_555
H2 C4 1_555 1_555
H3 C5 1_555 1_555
H4 C6 1_555 1_555
H5 C7 1_555 1_555
H6 C11 1_555 1_555
H7 C12 1_555 1_555
H8 C13 1_555 1_555
H9 C14 1_555 1_555
H10 C16 1_555 1_555
H11 C16 1_555 1_555
H12 C16 1_555 1_555
H13 C17 1_555 1_555
H14 C17 1_555 1_555
H15 C17 1_555 1_555
C10 C15 1_555 1_555
C14 C15 1_555 1_555

#END
