
#######################################################################
#
#                 Cambridge Crystallographic Data Centre
#                                CCDC 
#
#######################################################################
#
# If this CIF has been generated from an entry in the Cambridge 
# Structural Database, then it will include bibliographic, chemical, 
# crystal, experimental, refinement or atomic coordinate data resulting 
# from the CCDC's data processing and validation procedures.
#
#######################################################################

data_HANJIS
_chemical_formula_moiety         'C27 H29 N5 O2 2+,2(F6 P1 1-)'
_chemical_name_systematic        
'13,16-dioxa-10,22,30-triaza-7,19-diazoniahexacyclo[26.3.1.1^7,10^.1^19,22^.0^5,31^.0^24,29^]tetratriaconta-1(32),2,4,7(34),8,19(33),20,24,26,28,30-undecaene bis(hexafluorophosphate)'
_symmetry_cell_setting           triclinic
_symmetry_space_group_name_H-M   'P -1'
_symmetry_Int_Tables_number      2
_space_group_name_Hall           '-P 1'
loop_
_symmetry_equiv_pos_site_id
_symmetry_equiv_pos_as_xyz
1 x,y,z
2 -x,-y,-z
_cell_length_a                   9.1441(7)
_cell_length_b                   9.2830(9)
_cell_length_c                   19.8020(16)
_cell_angle_alpha                84.965(7)
_cell_angle_beta                 78.582(7)
_cell_angle_gamma                64.375(9)
_cell_volume                     1485.56
_exptl_crystal_colour            colorless
_exptl_crystal_description       needle
_cell_formula_units_Z            2
loop_
_atom_site_label
_atom_site_type_symbol
_atom_site_fract_x
_atom_site_fract_y
_atom_site_fract_z
P1 P 0.47095(17) 0.53993(16) 0.32448(7)
F1 F 0.4502(4) 0.7170(4) 0.33746(16)
F2 F 0.4971(5) 0.3641(4) 0.30992(19)
F3 F 0.4731(5) 0.5004(4) 0.40474(17)
F4 F 0.6685(4) 0.4811(4) 0.3116(2)
F5 F 0.4752(6) 0.5815(5) 0.24485(18)
F6 F 0.2788(4) 0.5992(5) 0.3388(2)
P2 P 0.17161(17) 0.43258(18) 0.13729(7)
F7 F 0.1081(7) 0.6147(5) 0.1307(3)
F8 F 0.2139(15) 0.4089(8) 0.0614(3)
F9 F 0.2262(8) 0.2472(6) 0.1432(3)
F10 F 0.3367(8) 0.4107(12) 0.1367(8)
F11 F 0.0949(13) 0.4563(9) 0.2135(3)
F12 F -0.0106(9) 0.4527(8) 0.1426(4)
O1 O -0.3334(4) -0.0129(4) 0.06343(16)
N1 N -0.0910(4) -0.0218(5) 0.38140(18)
O2 O -0.1590(4) 0.1941(4) 0.01598(17)
C1 C -0.0626(5) 0.0994(5) 0.3969(2)
C2 C -0.1849(5) -0.0746(5) 0.4301(2)
N2 N -0.1467(5) 0.1603(5) 0.16659(19)
C3 C -0.2191(5) -0.2016(5) 0.4121(2)
C4 C -0.1355(5) 0.1841(6) 0.4616(2)
N3 N 0.0322(5) 0.0560(5) 0.23441(18)
N4 N -0.2530(4) -0.1793(5) 0.28988(19)
C5 C -0.2536(5) -0.0033(6) 0.4970(2)
N5 N -0.3790(5) -0.1343(5) 0.2033(2)
C6 C 0.1369(6) 0.0438(6) 0.2845(2)
H1 H 0.2236 0.0743 0.2618
H2 H 0.1890 -0.0668 0.2988
C7 C -0.1016(6) 0.3158(6) 0.4723(3)
H3 H -0.1495 0.3728 0.5133
C8 C -0.0897(6) 0.1885(6) 0.2186(2)
H4 H -0.1297 0.2864 0.2404
C9 C -0.2292(6) 0.1275(6) 0.5101(2)
H5 H -0.2767 0.1786 0.5524
C10 C 0.0458(5) 0.1456(5) 0.3474(2)
C11 C -0.0010(6) 0.3593(6) 0.4239(3)
H6 H 0.0190 0.4458 0.4319
C12 C -0.3083(6) -0.2578(6) 0.4602(3)
H7 H -0.3305 -0.3401 0.4482
C13 C -0.3453(5) -0.0699(6) 0.5460(2)
H8 H -0.3884 -0.0271 0.5901
C14 C -0.2725(6) -0.2458(6) 0.2373(2)
H9 H -0.2193 -0.3539 0.2263
C15 C -0.0567(6) 0.0007(6) 0.1492(2)
H10 H -0.0693 -0.0519 0.1145
C16 C 0.0744(6) 0.2737(6) 0.3609(2)
H11 H 0.1440 0.3044 0.3283
C17 C -0.3509(6) -0.0163(6) 0.2884(2)
H12 H -0.3610 0.0594 0.3189
C18 C -0.2691(6) 0.0136(6) -0.0065(2)
H13 H -0.3301 -0.0026 -0.0377
H14 H -0.1541 -0.0607 -0.0186
C19 C -0.3702(6) -0.1965(6) 0.5286(2)
H15 H -0.4267 -0.2417 0.5611
C20 C -0.1481(6) -0.2712(6) 0.3404(2)
H16 H -0.0396 -0.2730 0.3260
H17 H -0.1355 -0.3806 0.3414
C21 C -0.2802(6) 0.2794(6) 0.1340(2)
H18 H -0.3372 0.3745 0.1625
H19 H -0.3589 0.2371 0.1311
C22 C 0.0533(6) -0.0642(6) 0.1924(2)
H20 H 0.1291 -0.1705 0.1934
C23 C -0.2861(6) 0.1827(7) -0.0122(2)
H21 H -0.2786 0.2153 -0.0602
H22 H -0.3932 0.2537 0.0126
C24 C -0.4290(6) 0.0117(6) 0.2340(2)
H23 H -0.5025 0.1104 0.2199
C25 C -0.3239(7) -0.1678(6) 0.0753(2)
H24 H -0.2114 -0.2436 0.0773
H25 H -0.3600 -0.1992 0.0385
C26 C -0.2169(7) 0.3238(6) 0.0629(3)
H26 H -0.3046 0.4159 0.0465
H27 H -0.1277 0.3527 0.0648
C27 C -0.4355(7) -0.1643(7) 0.1435(3)
H28 H -0.5452 -0.0818 0.1415
H29 H -0.4430 -0.2659 0.1500
loop_
_geom_bond_atom_site_label_1
_geom_bond_atom_site_label_2
_geom_bond_site_symmetry_1
_geom_bond_site_symmetry_2
P1 F1 1_555 1_555
F2 P1 1_555 1_555
F3 P1 1_555 1_555
F4 P1 1_555 1_555
F5 P1 1_555 1_555
F6 P1 1_555 1_555
P2 F7 1_555 1_555
F8 P2 1_555 1_555
F9 P2 1_555 1_555
F10 P2 1_555 1_555
F11 P2 1_555 1_555
F12 P2 1_555 1_555
O1 C18 1_555 1_555
N1 C1 1_555 1_555
O2 C23 1_555 1_555
C1 C4 1_555 1_555
C2 N1 1_555 1_555
N2 C8 1_555 1_555
C3 C2 1_555 1_555
C4 C7 1_555 1_555
N3 C6 1_555 1_555
N4 C14 1_555 1_555
C5 C2 1_555 1_555
N5 C14 1_555 1_555
C6 H1 1_555 1_555
H2 C6 1_555 1_555
C7 H3 1_555 1_555
C8 N3 1_555 1_555
H4 C8 1_555 1_555
C9 C4 1_555 1_555
H5 C9 1_555 1_555
C10 C1 1_555 1_555
C11 C7 1_555 1_555
H6 C11 1_555 1_555
C12 C3 1_555 1_555
H7 C12 1_555 1_555
C13 C5 1_555 1_555
H8 C13 1_555 1_555
C14 H9 1_555 1_555
C15 N2 1_555 1_555
H10 C15 1_555 1_555
C16 C10 1_555 1_555
H11 C16 1_555 1_555
C17 N4 1_555 1_555
H12 C17 1_555 1_555
C18 H13 1_555 1_555
H14 C18 1_555 1_555
C19 C12 1_555 1_555
H15 C19 1_555 1_555
C20 C3 1_555 1_555
H16 C20 1_555 1_555
H17 C20 1_555 1_555
C21 N2 1_555 1_555
H18 C21 1_555 1_555
H19 C21 1_555 1_555
C22 N3 1_555 1_555
H20 C22 1_555 1_555
C23 C18 1_555 1_555
H21 C23 1_555 1_555
H22 C23 1_555 1_555
C24 N5 1_555 1_555
H23 C24 1_555 1_555
C25 O1 1_555 1_555
H24 C25 1_555 1_555
H25 C25 1_555 1_555
C26 O2 1_555 1_555
H26 C26 1_555 1_555
H27 C26 1_555 1_555
C27 N5 1_555 1_555
H28 C27 1_555 1_555
H29 C27 1_555 1_555
N4 C20 1_555 1_555
C5 C9 1_555 1_555
C6 C10 1_555 1_555
C11 C16 1_555 1_555
C13 C19 1_555 1_555
C15 C22 1_555 1_555
C17 C24 1_555 1_555
C21 C26 1_555 1_555
C25 C27 1_555 1_555

#END
