
#######################################################################
#
#                 Cambridge Crystallographic Data Centre
#                                CCDC 
#
#######################################################################
#
# If this CIF has been generated from an entry in the Cambridge 
# Structural Database, then it will include bibliographic, chemical, 
# crystal, experimental, refinement or atomic coordinate data resulting 
# from the CCDC's data processing and validation procedures.
#
#######################################################################

data_HANLAL
_chemical_formula_moiety         'C7 H12 N1 O5 1+,Cl1 1-,H2 O1'
_chemical_name_systematic        
'Hydroxy(2,2,5-trimethyl-4,6-dioxo-1,3-dioxan-5-yl)ammonium chloride monohydrate'
_symmetry_cell_setting           triclinic
_symmetry_space_group_name_H-M   'P -1'
_symmetry_Int_Tables_number      2
_space_group_name_Hall           '-P 1'
loop_
_symmetry_equiv_pos_site_id
_symmetry_equiv_pos_as_xyz
1 x,y,z
2 -x,-y,-z
_cell_length_a                   6.04443(18)
_cell_length_b                   7.6997(2)
_cell_length_c                   12.3317(4)
_cell_angle_alpha                74.488(3)
_cell_angle_beta                 85.322(3)
_cell_angle_gamma                86.211(3)
_cell_volume                     550.587
_exptl_crystal_colour            colorless
_exptl_crystal_description       block
_cell_formula_units_Z            2
_exptl_crystal_recrystallization_method dichloromethane/methanol
loop_
_atom_site_label
_atom_site_type_symbol
_atom_site_fract_x
_atom_site_fract_y
_atom_site_fract_z
C1 C 0.8329(3) -0.1384(2) 0.39134(13)
H1 H 0.7533 -0.1165 0.4593
H2 H 0.9443 -0.0475 0.3623
H3 H 0.9067 -0.2589 0.4100
C2 C 0.6673(2) -0.1264(2) 0.30129(12)
C3 C 0.5229(2) 0.0479(2) 0.28212(12)
C4 C 0.7522(3) 0.1666(2) 0.10811(13)
C5 C 0.7790(2) -0.1595(2) 0.19268(13)
C6 C 0.9558(3) 0.2375(2) 0.14007(15)
H4 H 0.9232 0.3609 0.1464
H5 H 1.0766 0.2375 0.0820
H6 H 1.0006 0.1604 0.2126
C7 C 0.6770(3) 0.2686(2) -0.00550(13)
H7 H 0.5402 0.2186 -0.0193
H8 H 0.7929 0.2576 -0.0640
H9 H 0.6487 0.3961 -0.0074
N1 N 0.5132(2) -0.27514(17) 0.34633(11)
H10 H 0.439(3) -0.271(2) 0.4165(13)
H11 H 0.588(3) -0.386(2) 0.3591(14)
O1 O 0.35503(18) -0.26034(15) 0.26536(9)
H12 H 0.302(3) -0.366(2) 0.2822(15)
O2 O 0.37181(17) 0.06722(14) 0.34779(9)
O3 O 0.56596(18) 0.17780(14) 0.18823(9)
O4 O 0.79585(18) -0.01776(14) 0.10185(9)
O5 O 0.8441(2) -0.30641(15) 0.18603(9)
Cl1 Cl 0.72189(6) 0.33801(5) 0.41790(3)
O6 O 0.1983(2) 0.43384(16) 0.31272(13)
H13 H 0.070(3) 0.410(3) 0.3404(19)
H14 H 0.273(3) 0.339(3) 0.3298(19)
loop_
_geom_bond_atom_site_label_1
_geom_bond_atom_site_label_2
_geom_bond_site_symmetry_1
_geom_bond_site_symmetry_2
C1 H1 1_555 1_555
H2 C1 1_555 1_555
H3 C1 1_555 1_555
C2 C1 1_555 1_555
C3 C2 1_555 1_555
C4 C6 1_555 1_555
C5 C2 1_555 1_555
C6 H4 1_555 1_555
H5 C6 1_555 1_555
H6 C6 1_555 1_555
C7 C4 1_555 1_555
H7 C7 1_555 1_555
H8 C7 1_555 1_555
H9 C7 1_555 1_555
N1 C2 1_555 1_555
H10 N1 1_555 1_555
H11 N1 1_555 1_555
O1 N1 1_555 1_555
H12 O1 1_555 1_555
O2 C3 1_555 1_555
O3 C3 1_555 1_555
O4 C4 1_555 1_555
O5 C5 1_555 1_555
O6 H13 1_555 1_555
H14 O6 1_555 1_555
C4 O3 1_555 1_555
C5 O4 1_555 1_555

#END
