
#######################################################################
#
#                 Cambridge Crystallographic Data Centre
#                                CCDC 
#
#######################################################################
#
# If this CIF has been generated from an entry in the Cambridge 
# Structural Database, then it will include bibliographic, chemical, 
# crystal, experimental, refinement or atomic coordinate data resulting 
# from the CCDC's data processing and validation procedures.
#
#######################################################################

data_HANLUF
_chemical_formula_moiety         'C13 H16 N4 O3'
_chemical_name_systematic        
4-(Hydroxyamino)-4-(N-methoxyethanimidoyl)-5-methyl-2-phenyl-2,4-dihydro-3H-pyrazol-3-one
_symmetry_cell_setting           monoclinic
_symmetry_space_group_name_H-M   'P 21/c'
_symmetry_Int_Tables_number      14
_space_group_name_Hall           '-P 2ybc'
loop_
_symmetry_equiv_pos_site_id
_symmetry_equiv_pos_as_xyz
1 x,y,z
2 -x,1/2+y,1/2-z
3 -x,-y,-z
4 x,1/2-y,1/2+z
_cell_length_a                   5.8807(2)
_cell_length_b                   26.2720(8)
_cell_length_c                   9.1340(3)
_cell_angle_alpha                90
_cell_angle_beta                 101.419(4)
_cell_angle_gamma                90
_cell_volume                     1383.25
_exptl_crystal_colour            colorless
_exptl_crystal_description       lath
_cell_formula_units_Z            4
loop_
_atom_site_label
_atom_site_type_symbol
_atom_site_fract_x
_atom_site_fract_y
_atom_site_fract_z
C1 C 0.2262(3) 0.09546(6) -0.18374(17)
H1 H 0.0618 0.1001 -0.2285
H2 H 0.3083 0.0822 -0.2591
H3 H 0.2936 0.1283 -0.1468
C2 C 0.1590(2) 0.05151(5) 0.16031(15)
C3 C 0.2877(3) 0.00197(6) 0.17785(17)
H4 H 0.2003 -0.0234 0.1108
H5 H 0.3063 -0.0097 0.2814
H6 H 0.4409 0.0067 0.1528
C4 C 0.0544(2) 0.07254(5) 0.28698(15)
C5 C 0.2546(2) 0.08915(5) 0.41416(15)
C6 C -0.0707(2) 0.12257(5) 0.25323(16)
C7 C -0.2930(2) 0.12923(6) 0.14414(17)
H7 H -0.3471 0.1644 0.1484
H8 H -0.4097 0.1059 0.1690
H9 H -0.2686 0.1218 0.0432
C8 C 0.3520(2) 0.17273(5) 0.54146(16)
C9 C 0.2330(3) 0.21254(6) 0.59101(18)
H10 H 0.0759 0.2190 0.5457
C10 C 0.3447(3) 0.24296(6) 0.7073(2)
H11 H 0.2634 0.2703 0.7416
C11 C 0.5737(3) 0.23379(6) 0.77395(19)
H12 H 0.6485 0.2543 0.8551
C12 C 0.6924(3) 0.19470(6) 0.72158(18)
H13 H 0.8504 0.1888 0.7661
C13 C 0.5843(3) 0.16383(6) 0.60457(17)
H14 H 0.6673 0.1372 0.5684
N1 N 0.1374(2) 0.08109(5) 0.04675(13)
N2 N -0.0976(2) 0.03447(5) 0.33441(13)
H15 H -0.014(3) 0.0054(6) 0.3577(19)
N3 N 0.23251(19) 0.14018(4) 0.42696(13)
N4 N 0.0274(2) 0.15956(4) 0.33250(13)
O1 O 0.24818(18) 0.06020(4) -0.06202(11)
O2 O -0.13857(17) 0.05265(4) 0.47744(11)
H16 H -0.285(3) 0.0511(7) 0.469(2)
O3 O 0.40112(16) 0.06140(4) 0.48750(11)
loop_
_geom_bond_atom_site_label_1
_geom_bond_atom_site_label_2
_geom_bond_site_symmetry_1
_geom_bond_site_symmetry_2
C1 H1 1_555 1_555
H2 C1 1_555 1_555
H3 C1 1_555 1_555
C2 C3 1_555 1_555
C3 H4 1_555 1_555
H5 C3 1_555 1_555
H6 C3 1_555 1_555
C4 C2 1_555 1_555
C5 C4 1_555 1_555
C6 C4 1_555 1_555
C7 C6 1_555 1_555
H7 C7 1_555 1_555
H8 C7 1_555 1_555
H9 C7 1_555 1_555
C8 C9 1_555 1_555
C9 H10 1_555 1_555
C10 C9 1_555 1_555
H11 C10 1_555 1_555
C11 C10 1_555 1_555
H12 C11 1_555 1_555
C12 C11 1_555 1_555
H13 C12 1_555 1_555
C13 C8 1_555 1_555
H14 C13 1_555 1_555
N1 C2 1_555 1_555
N2 C4 1_555 1_555
H15 N2 1_555 1_555
N3 C5 1_555 1_555
N4 C6 1_555 1_555
O1 C1 1_555 1_555
O2 N2 1_555 1_555
H16 O2 1_555 1_555
O3 C5 1_555 1_555
C8 N3 1_555 1_555
C12 C13 1_555 1_555
N1 O1 1_555 1_555
N3 N4 1_555 1_555

#END
