
#######################################################################
#
#                 Cambridge Crystallographic Data Centre
#                                CCDC 
#
#######################################################################
#
# If this CIF has been generated from an entry in the Cambridge 
# Structural Database, then it will include bibliographic, chemical, 
# crystal, experimental, refinement or atomic coordinate data resulting 
# from the CCDC's data processing and validation procedures.
#
#######################################################################

data_HANLOZ
_chemical_formula_moiety         'C9 H14 N4 O5'
_chemical_name_systematic        
5-(Hydroxyamino)-5-(N-methoxyethanimidoyl)-1,3-dimethylpyrimidine-2,4,6(1H,3H,5H)-trione
_symmetry_cell_setting           triclinic
_symmetry_space_group_name_H-M   'P -1'
_symmetry_Int_Tables_number      2
_space_group_name_Hall           '-P 1'
loop_
_symmetry_equiv_pos_site_id
_symmetry_equiv_pos_as_xyz
1 x,y,z
2 -x,-y,-z
_cell_length_a                   7.7437(3)
_cell_length_b                   10.5514(4)
_cell_length_c                   15.0891(6)
_cell_angle_alpha                107.325(3)
_cell_angle_beta                 97.908(3)
_cell_angle_gamma                90.257(3)
_cell_volume                     1164.41
_exptl_crystal_colour            colorless
_exptl_crystal_description       lath
_cell_formula_units_Z            4
loop_
_atom_site_label
_atom_site_type_symbol
_atom_site_fract_x
_atom_site_fract_y
_atom_site_fract_z
C1 C 1.1656(2) 0.89676(19) 0.11072(12)
H1 H 1.2351 0.8178 0.0966
H2 H 1.2297 0.9715 0.1021
H3 H 1.0545 0.8787 0.0683
C2 C 1.03706(19) 0.83120(15) 0.30293(11)
C3 C 1.0944(2) 0.95049(17) 0.38522(12)
H4 H 1.1925 0.9979 0.3722
H5 H 1.1312 0.9222 0.4409
H6 H 0.9973 1.0096 0.3965
C4 C 0.9448(2) 0.71120(15) 0.31781(11)
C5 C 0.7643(2) 0.75428(15) 0.34200(11)
C6 C 0.6401(2) 0.63499(15) 0.17839(11)
C7 C 0.9403(2) 0.59271(15) 0.22924(11)
C8 C 0.4521(2) 0.75737(17) 0.28698(12)
H7 H 0.4266 0.8336 0.2637
H8 H 0.4473 0.7833 0.3546
H9 H 0.3657 0.6845 0.2544
C9 C 0.7973(2) 0.46435(17) 0.07497(11)
H10 H 0.8942 0.4824 0.0443
H11 H 0.6868 0.4602 0.0336
H12 H 0.8125 0.3793 0.0882
N1 N 1.05235(17) 0.81647(13) 0.21734(9)
N2 N 1.04245(18) 0.68051(14) 0.39885(9)
H13 H 1.139(2) 0.6413(18) 0.3794(12)
N3 N 0.62756(16) 0.71340(13) 0.26935(9)
N4 N 0.79494(17) 0.57099(13) 0.16322(9)
O1 O 1.13241(15) 0.92948(11) 0.20594(8)
O2 O 0.94265(16) 0.57262(12) 0.41261(8)
H14 H 0.905(3) 0.610(2) 0.4647(13)
O3 O 0.74483(15) 0.82547(12) 0.41883(8)
O4 O 0.51877(15) 0.62133(12) 0.11588(8)
O5 O 1.06586(14) 0.52422(11) 0.21813(8)
C10 C 0.6717(2) -0.05218(17) 0.14139(12)
H15 H 0.5607 -0.0753 0.0990
H16 H 0.7375 -0.1324 0.1369
H17 H 0.7398 0.0125 0.1236
C11 C 0.52721(19) 0.18737(15) 0.32270(11)
C12 C 0.5747(2) 0.14982(17) 0.41101(11)
H18 H 0.5864 0.0535 0.3952
H19 H 0.4831 0.1759 0.4508
H20 H 0.6858 0.1955 0.4447
C13 C 0.4399(2) 0.31931(15) 0.32706(11)
C14 C 0.4400(2) 0.34549(15) 0.23253(11)
C15 C 0.1406(2) 0.25438(15) 0.18526(11)
C16 C 0.2577(2) 0.31013(15) 0.35273(11)
C17 C 0.3025(3) 0.30993(19) 0.07212(12)
H21 H 0.1962 0.2673 0.0305
H22 H 0.4046 0.2653 0.0480
H23 H 0.3110 0.4037 0.0748
C18 C -0.0516(2) 0.24582(18) 0.29790(13)
H24 H -0.0809 0.1500 0.2764
H25 H -0.1359 0.2906 0.2643
H26 H -0.0557 0.2805 0.3654
N5 N 0.55330(17) 0.12288(13) 0.23992(9)
N6 N 0.54205(18) 0.42498(13) 0.40182(9)
H27 H 0.642(2) 0.4370(18) 0.3802(12)
N7 N 0.29587(17) 0.30006(13) 0.16661(9)
N8 N 0.12491(17) 0.27022(13) 0.27910(9)
O6 O 0.63789(14) 0.00444(11) 0.23599(8)
O7 O 0.45029(16) 0.54571(11) 0.40545(8)
H28 H 0.445(3) 0.575(2) 0.4653(12)
O8 O 0.56661(15) 0.39853(11) 0.21722(8)
O9 O 0.02058(15) 0.20641(12) 0.12356(8)
O10 O 0.23626(15) 0.32942(12) 0.43362(8)
loop_
_geom_bond_atom_site_label_1
_geom_bond_atom_site_label_2
_geom_bond_site_symmetry_1
_geom_bond_site_symmetry_2
C1 H1 1_555 1_555
H2 C1 1_555 1_555
H3 C1 1_555 1_555
C2 C3 1_555 1_555
C3 H4 1_555 1_555
H5 C3 1_555 1_555
H6 C3 1_555 1_555
C4 C2 1_555 1_555
C5 C4 1_555 1_555
C6 N3 1_555 1_555
C7 C4 1_555 1_555
C8 H7 1_555 1_555
H8 C8 1_555 1_555
H9 C8 1_555 1_555
C9 H10 1_555 1_555
H11 C9 1_555 1_555
H12 C9 1_555 1_555
N1 C2 1_555 1_555
N2 C4 1_555 1_555
H13 N2 1_555 1_555
N3 C5 1_555 1_555
N4 C6 1_555 1_555
O1 C1 1_555 1_555
O2 N2 1_555 1_555
H14 O2 1_555 1_555
O3 C5 1_555 1_555
O4 C6 1_555 1_555
O5 C7 1_555 1_555
C10 H15 1_555 1_555
H16 C10 1_555 1_555
H17 C10 1_555 1_555
C11 C12 1_555 1_555
C12 H18 1_555 1_555
H19 C12 1_555 1_555
H20 C12 1_555 1_555
C13 C11 1_555 1_555
C14 C13 1_555 1_555
C15 N7 1_555 1_555
C16 C13 1_555 1_555
C17 H21 1_555 1_555
H22 C17 1_555 1_555
H23 C17 1_555 1_555
C18 H24 1_555 1_555
H25 C18 1_555 1_555
H26 C18 1_555 1_555
N5 C11 1_555 1_555
N6 C13 1_555 1_555
H27 N6 1_555 1_555
N7 C14 1_555 1_555
N8 C15 1_555 1_555
O6 C10 1_555 1_555
O7 N6 1_555 1_555
H28 O7 1_555 1_555
O8 C14 1_555 1_555
O9 C15 1_555 1_555
O10 C16 1_555 1_555
C7 N4 1_555 1_555
C8 N3 1_555 1_555
C9 N4 1_555 1_555
N1 O1 1_555 1_555
C16 N8 1_555 1_555
C17 N7 1_555 1_555
C18 N8 1_555 1_555
N5 O6 1_555 1_555

#END
