
#######################################################################
#
#                 Cambridge Crystallographic Data Centre
#                                CCDC 
#
#######################################################################
#
# If this CIF has been generated from an entry in the Cambridge 
# Structural Database, then it will include bibliographic, chemical, 
# crystal, experimental, refinement or atomic coordinate data resulting 
# from the CCDC's data processing and validation procedures.
#
#######################################################################

data_HANMAN
_chemical_formula_moiety         'C28 H33 N1 O1'
_chemical_name_systematic        
2,4-di-t-butyl-6-(((diphenylmethyl)imino)methyl)phenol
_symmetry_cell_setting           triclinic
_symmetry_space_group_name_H-M   'P -1'
_symmetry_Int_Tables_number      2
_space_group_name_Hall           '-P 1'
loop_
_symmetry_equiv_pos_site_id
_symmetry_equiv_pos_as_xyz
1 x,y,z
2 -x,-y,-z
_cell_length_a                   10.0491(4)
_cell_length_b                   11.8421(5)
_cell_length_c                   22.5152(9)
_cell_angle_alpha                86.153(3)
_cell_angle_beta                 88.412(3)
_cell_angle_gamma                67.738(4)
_cell_volume                     2474.05
_exptl_crystal_colour            'pale yellow'
_exptl_crystal_description       bar
_cell_formula_units_Z            4
loop_
_atom_site_label
_atom_site_type_symbol
_atom_site_fract_x
_atom_site_fract_y
_atom_site_fract_z
N1 N 0.2584(2) 0.5163(2) 0.78023(8)
C1 C 0.2361(3) 0.4692(2) 0.84015(10)
H1 H 0.3271 0.4429 0.8619
C2 C 0.1935(2) 0.3602(2) 0.83780(11)
C3 C 0.2333(4) 0.2686(3) 0.88309(14)
H2 H 0.2927 0.2719 0.9133
C4 C 0.1871(5) 0.1728(3) 0.88446(18)
H3 H 0.2148 0.1131 0.9156
C5 C 0.1014(4) 0.1647(3) 0.8406(2)
H4 H 0.0696 0.1004 0.8417
C6 C 0.0629(4) 0.2524(3) 0.79490(17)
H5 H 0.0051 0.2471 0.7645
C7 C 0.1084(3) 0.3491(3) 0.79313(13)
H6 H 0.0813 0.4076 0.7614
C8 C 0.1236(2) 0.5702(2) 0.87360(10)
C9 C 0.0243(3) 0.6748(3) 0.84522(12)
H7 H 0.0275 0.6867 0.8040
C10 C -0.0790(3) 0.7611(3) 0.87740(15)
H8 H -0.1446 0.8305 0.8576
C11 C -0.0863(3) 0.7463(3) 0.93798(14)
H9 H -0.1571 0.8046 0.9592
C12 C 0.0115(3) 0.6449(3) 0.96720(12)
H10 H 0.0077 0.6346 1.0084
C13 C 0.1159(3) 0.5578(2) 0.93544(11)
H11 H 0.1822 0.4896 0.9558
C14 C 0.3711(3) 0.5403(2) 0.77071(10)
H12 H 0.4357 0.5255 0.8018
C15 C 0.4032(2) 0.5896(2) 0.71348(9)
C16 C 0.3083(2) 0.6183(2) 0.66517(10)
O1 O 0.18313(19) 0.6001(2) 0.67141(8)
C17 C 0.3435(3) 0.6654(2) 0.61033(10)
C18 C 0.4734(3) 0.6810(2) 0.60758(10)
H13 H 0.4980 0.7117 0.5716
C19 C 0.5703(2) 0.6543(2) 0.65470(10)
C20 C 0.5323(2) 0.6080(2) 0.70713(10)
H14 H 0.5944 0.5883 0.7394
C21 C 0.2415(3) 0.6965(3) 0.55644(11)
C22 C 0.2216(5) 0.5809(4) 0.53938(16)
H15 H 0.1771 0.5513 0.5718
H16 H 0.3136 0.5193 0.5309
H17 H 0.1616 0.5996 0.5048
C23 C 0.3025(4) 0.7466(4) 0.50177(13)
H18 H 0.2365 0.7652 0.4692
H19 H 0.3933 0.6862 0.4908
H20 H 0.3157 0.8194 0.5114
C24 C 0.0957(3) 0.7937(4) 0.57182(16)
H21 H 0.1086 0.8660 0.5824
H22 H 0.0536 0.7630 0.6047
H23 H 0.0332 0.8130 0.5380
C25 C 0.7124(3) 0.6734(3) 0.64637(11)
C26 C 0.8038(5) 0.5928(4) 0.6006(2)
H24 H 0.7491 0.6044 0.5648
H25 H 0.8863 0.6134 0.5921
H26 H 0.8347 0.5090 0.6154
C27 C 0.6817(5) 0.8084(4) 0.6214(2)
H27 H 0.6229 0.8646 0.6492
H28 H 0.7710 0.8197 0.6157
H29 H 0.6324 0.8232 0.5840
C28 C 0.7902(5) 0.6613(5) 0.7044(2)
H30 H 0.7266 0.7149 0.7320
H31 H 0.8209 0.5784 0.7207
H32 H 0.8726 0.6828 0.6974
H33 H 0.184(4) 0.559(4) 0.7098(19)
N2 N 0.4434(2) 0.85653(16) 0.84509(8)
C32 C 0.4034(2) 0.77086(19) 0.88457(9)
H43 H 0.3218 0.7597 0.8667
C33 C 0.5265(2) 0.64669(19) 0.89120(8)
C34 C 0.5021(3) 0.5502(2) 0.92173(9)
H44 H 0.4129 0.5636 0.9393
C35 C 0.6094(3) 0.4344(2) 0.92628(10)
H45 H 0.5914 0.3703 0.9464
C36 C 0.7412(3) 0.4139(2) 0.90140(12)
H46 H 0.8129 0.3361 0.9044
C37 C 0.7677(3) 0.5085(3) 0.87202(14)
H47 H 0.8580 0.4948 0.8556
C38 C 0.6610(3) 0.6242(2) 0.86661(11)
H48 H 0.6800 0.6874 0.8462
C39 C 0.3558(2) 0.82474(18) 0.94441(9)
C40 C 0.4485(3) 0.8520(2) 0.97987(11)
H49 H 0.5418 0.8378 0.9668
C41 C 0.4037(4) 0.9004(3) 1.03473(13)
H50 H 0.4667 0.9191 1.0580
C42 C 0.2674(4) 0.9206(3) 1.05464(13)
H51 H 0.2377 0.9528 1.0915
C43 C 0.1751(4) 0.8933(3) 1.02043(14)
H52 H 0.0827 0.9059 1.0342
C44 C 0.2183(3) 0.8468(2) 0.96517(11)
H53 H 0.1538 0.8302 0.9418
C45 C 0.3768(2) 0.8952(2) 0.79592(9)
H54 H 0.3058 0.8669 0.7865
C46 C 0.4066(2) 0.98151(19) 0.75364(9)
C47 C 0.5167(2) 1.0235(2) 0.76335(9)
O2 O 0.59747(19) 0.98393(16) 0.81358(7)
C48 C 0.5442(3) 1.1059(2) 0.72153(10)
C49 C 0.4540(3) 1.1447(2) 0.67222(10)
H55 H 0.4698 1.1998 0.6443
C50 C 0.3421(3) 1.1072(2) 0.66167(10)
C51 C 0.3212(3) 1.0235(2) 0.70266(10)
H56 H 0.2490 0.9945 0.6963
C52 C 0.6672(3) 1.1503(3) 0.73005(12)
C53 C 0.8107(4) 1.0420(3) 0.73346(17)
H57 H 0.8111 0.9888 0.7676
H58 H 0.8872 1.0711 0.7369
H59 H 0.8244 0.9980 0.6981
C54 C 0.6411(4) 1.2206(3) 0.78668(14)
H60 H 0.6421 1.1667 0.8206
H61 H 0.5495 1.2873 0.7842
H62 H 0.7155 1.2518 0.7908
C55 C 0.6769(5) 1.2383(4) 0.67793(16)
H63 H 0.7483 1.2704 0.6867
H64 H 0.5853 1.3043 0.6725
H65 H 0.7033 1.1950 0.6422
C56 C 0.2475(3) 1.1551(3) 0.60554(12)
C57 C 0.2112(10) 1.2924(7) 0.5937(4)
H66 H 0.1525 1.3212 0.5587
H67 H 0.1600 1.3351 0.6272
H68 H 0.2985 1.3070 0.5877
C58 C 0.1033(9) 1.1350(9) 0.6122(4)
H69 H 0.1232 1.0494 0.6197
H70 H 0.0492 1.1790 0.6448
H71 H 0.0488 1.1641 0.5761
C59 C 0.3316(9) 1.0820(8) 0.5530(4)
H72 H 0.3527 0.9965 0.5618
H73 H 0.2745 1.1091 0.5175
H74 H 0.4198 1.0951 0.5471
H75 H 0.553(4) 0.929(4) 0.8365(17)
C29? C 0.8354(15) 0.5367(11) 0.6493(7)
H34? H 0.8328 0.4968 0.6877
H35? H 0.8181 0.4909 0.6189
H36? H 0.9281 0.5414 0.6432
C30? C 0.7402(17) 0.7128(14) 0.5841(5)
H37? H 0.8308 0.7227 0.5826
H38? H 0.7429 0.6517 0.5576
H39? H 0.6648 0.7890 0.5722
C31? C 0.7475(18) 0.7309(16) 0.7007(6)
H40? H 0.7229 0.6950 0.7367
H41? H 0.8483 0.7159 0.7007
H42? H 0.6930 0.8174 0.6982
C60? C 0.3403(12) 1.1560(13) 0.5519(5)
H76? H 0.3970 1.2032 0.5590
H77? H 0.4027 1.0737 0.5447
H78? H 0.2802 1.1916 0.5178
C61? C 0.1569(14) 1.0807(11) 0.5950(6)
H79? H 0.0983 1.0808 0.6295
H80? H 0.0963 1.1161 0.5610
H81? H 0.2188 0.9982 0.5880
C62? C 0.1405(13) 1.2871(10) 0.6170(6)
H82? H 0.0826 1.2844 0.6513
H83? H 0.1933 1.3376 0.6239
H84? H 0.0795 1.3204 0.5830
C63? C 0.2767(15) 1.2587(11) 0.5696(6)
H85? H 0.3768 1.2314 0.5592
H86? H 0.2199 1.2808 0.5340
H87? H 0.2516 1.3285 0.5932
C64? C 0.2800(14) 1.0506(10) 0.5626(6)
H88? H 0.3794 1.0224 0.5510
H89? H 0.2603 0.9842 0.5824
H90? H 0.2205 1.0804 0.5279
C65? C 0.0889(12) 1.1964(13) 0.6226(6)
H91? H 0.0724 1.1310 0.6449
H92? H 0.0631 1.2659 0.6463
H93? H 0.0314 1.2183 0.5871
loop_
_geom_bond_atom_site_label_1
_geom_bond_atom_site_label_2
_geom_bond_site_symmetry_1
_geom_bond_site_symmetry_2
N1 C1 1_555 1_555
C1 H1 1_555 1_555
C2 C1 1_555 1_555
C3 C2 1_555 1_555
H2 C3 1_555 1_555
C4 C3 1_555 1_555
H3 C4 1_555 1_555
C5 C4 1_555 1_555
H4 C5 1_555 1_555
C6 C5 1_555 1_555
H5 C6 1_555 1_555
C7 C2 1_555 1_555
H6 C7 1_555 1_555
C8 C1 1_555 1_555
C9 C8 1_555 1_555
H7 C9 1_555 1_555
C10 C9 1_555 1_555
H8 C10 1_555 1_555
C11 C10 1_555 1_555
H9 C11 1_555 1_555
C12 C11 1_555 1_555
H10 C12 1_555 1_555
C13 C8 1_555 1_555
H11 C13 1_555 1_555
C14 N1 1_555 1_555
H12 C14 1_555 1_555
C15 C14 1_555 1_555
C16 C15 1_555 1_555
O1 C16 1_555 1_555
C17 C16 1_555 1_555
C18 C17 1_555 1_555
H13 C18 1_555 1_555
C19 C18 1_555 1_555
C20 C15 1_555 1_555
H14 C20 1_555 1_555
C21 C17 1_555 1_555
C22 C21 1_555 1_555
H15 C22 1_555 1_555
H16 C22 1_555 1_555
H17 C22 1_555 1_555
C23 C21 1_555 1_555
H18 C23 1_555 1_555
H19 C23 1_555 1_555
H20 C23 1_555 1_555
C24 C21 1_555 1_555
H21 C24 1_555 1_555
H22 C24 1_555 1_555
H23 C24 1_555 1_555
C25 C19 1_555 1_555
C26 C25 1_555 1_555
H24 C26 1_555 1_555
H25 C26 1_555 1_555
H26 C26 1_555 1_555
C27 C25 1_555 1_555
H27 C27 1_555 1_555
H28 C27 1_555 1_555
H29 C27 1_555 1_555
C28 C25 1_555 1_555
H30 C28 1_555 1_555
H31 C28 1_555 1_555
H32 C28 1_555 1_555
H33 O1 1_555 1_555
N2 C32 1_555 1_555
C32 H43 1_555 1_555
C33 C32 1_555 1_555
C34 C33 1_555 1_555
H44 C34 1_555 1_555
C35 C34 1_555 1_555
H45 C35 1_555 1_555
C36 C35 1_555 1_555
H46 C36 1_555 1_555
C37 C36 1_555 1_555
H47 C37 1_555 1_555
C38 C33 1_555 1_555
H48 C38 1_555 1_555
C39 C32 1_555 1_555
C40 C39 1_555 1_555
H49 C40 1_555 1_555
C41 C40 1_555 1_555
H50 C41 1_555 1_555
C42 C41 1_555 1_555
H51 C42 1_555 1_555
C43 C42 1_555 1_555
H52 C43 1_555 1_555
C44 C39 1_555 1_555
H53 C44 1_555 1_555
C45 N2 1_555 1_555
H54 C45 1_555 1_555
C46 C45 1_555 1_555
C47 C46 1_555 1_555
O2 C47 1_555 1_555
C48 C47 1_555 1_555
C49 C48 1_555 1_555
H55 C49 1_555 1_555
C50 C49 1_555 1_555
C51 C46 1_555 1_555
H56 C51 1_555 1_555
C52 C48 1_555 1_555
C53 C52 1_555 1_555
H57 C53 1_555 1_555
H58 C53 1_555 1_555
H59 C53 1_555 1_555
C54 C52 1_555 1_555
H60 C54 1_555 1_555
H61 C54 1_555 1_555
H62 C54 1_555 1_555
C55 C52 1_555 1_555
H63 C55 1_555 1_555
H64 C55 1_555 1_555
H65 C55 1_555 1_555
C56 C50 1_555 1_555
C57 C56 1_555 1_555
H66 C57 1_555 1_555
H67 C57 1_555 1_555
H68 C57 1_555 1_555
C58 C56 1_555 1_555
H69 C58 1_555 1_555
H70 C58 1_555 1_555
H71 C58 1_555 1_555
C59 C56 1_555 1_555
H72 C59 1_555 1_555
H73 C59 1_555 1_555
H74 C59 1_555 1_555
H75 O2 1_555 1_555
C6 C7 1_555 1_555
C12 C13 1_555 1_555
C19 C20 1_555 1_555
C37 C38 1_555 1_555
C43 C44 1_555 1_555
C50 C51 1_555 1_555

#END
