
#######################################################################
#
#                 Cambridge Crystallographic Data Centre
#                                CCDC 
#
#######################################################################
#
# If this CIF has been generated from an entry in the Cambridge 
# Structural Database, then it will include bibliographic, chemical, 
# crystal, experimental, refinement or atomic coordinate data resulting 
# from the CCDC's data processing and validation procedures.
#
#######################################################################

data_HANNOB
_chemical_formula_moiety         'C6 Cl1 N2 O1 S4'
_chemical_name_systematic        
'8-chloro-4-oxo-3H,4H-[1,2,3]dithiazolo[4,5-f][1,2,3]benzodithiazol-3-yl radical'
_symmetry_cell_setting           orthorhombic
_symmetry_space_group_name_H-M   'P n a 21'
_symmetry_Int_Tables_number      33
_space_group_name_Hall           'P 2c -2n'
loop_
_symmetry_equiv_pos_site_id
_symmetry_equiv_pos_as_xyz
1 x,y,z
2 -x,-y,1/2+z
3 1/2+x,1/2-y,z
4 1/2-x,1/2+y,1/2+z
_cell_length_a                   48.779(3)
_cell_length_b                   3.8228(2)
_cell_length_c                   14.2036(9)
_cell_angle_alpha                90
_cell_angle_beta                 90
_cell_angle_gamma                90
_cell_volume                     2648.58
_exptl_crystal_colour            black
_exptl_crystal_description       needle
_cell_formula_units_Z            12
loop_
_atom_site_label
_atom_site_type_symbol
_atom_site_fract_x
_atom_site_fract_y
_atom_site_fract_z
Cl1 Cl 0.61740(9) 0.9942(14) 0.5183(3)
S1 S 0.55037(9) 0.6812(13) 0.7842(3)
S2 S 0.56530(9) 0.8809(12) 0.6562(3)
S3 S 0.70035(9) 0.5297(14) 0.6962(4)
S4 S 0.67631(9) 0.7425(14) 0.5884(4)
O1 O 0.6295(2) 0.266(3) 0.8781(9)
N1 N 0.5787(3) 0.537(4) 0.8253(11)
N2 N 0.6766(3) 0.430(5) 0.7670(11)
C1 C 0.6279(4) 0.439(6) 0.8084(15)
C2 C 0.6514(3) 0.514(5) 0.7406(14)
C3 C 0.6475(3) 0.693(5) 0.6553(17)
C4 C 0.6211(4) 0.812(5) 0.6307(12)
C5 C 0.5974(4) 0.757(5) 0.6852(15)
C6 C 0.6004(3) 0.583(5) 0.7760(14)
Cl2 Cl 0.66230(9) 1.2026(13) 0.3180(4)
S5 S 0.75776(10) 0.7399(12) 0.4020(4)
S6 S 0.71924(10) 0.9834(14) 0.4139(3)
S7 S 0.67275(10) 0.8770(13) -0.0313(4)
S8 S 0.65535(9) 1.0784(15) 0.0927(4)
O2 O 0.7475(2) 0.463(3) 0.1025(9)
N3 N 0.7562(3) 0.631(4) 0.2933(10)
N4 N 0.7004(3) 0.729(4) 0.0102(11)
C7 C 0.7300(4) 0.624(6) 0.1463(16)
C8 C 0.7048(3) 0.756(5) 0.1022(13)
C9 C 0.6837(3) 0.939(5) 0.1603(12)
C10 C 0.6872(3) 0.981(5) 0.2532(13)
C11 C 0.7117(3) 0.895(4) 0.2974(13)
C12 C 0.7333(4) 0.711(5) 0.2503(16)
Cl3 Cl 0.59884(8) 0.6583(12) 0.2651(3)
S9 S 0.54759(9) 0.1973(12) -0.0240(3)
S10 S 0.57895(9) 0.4185(13) 0.0582(3)
S11 S 0.52105(9) 0.2991(14) 0.4922(3)
S12 S 0.55842(8) 0.5171(12) 0.4413(3)
O3 O 0.4941(2) -0.073(4) 0.2124(8)
N5 N 0.5264(3) 0.098(4) 0.0552(11)
N6 N 0.5090(3) 0.158(4) 0.3926(10)
C13 C 0.5156(4) 0.083(5) 0.2255(12)
C14 C 0.5248(4) 0.228(5) 0.3170(12)
C15 C 0.5498(3) 0.394(4) 0.3279(12)
C16 C 0.5680(4) 0.467(6) 0.2501(13)
C17 C 0.5590(3) 0.354(5) 0.1596(14)
C18 C 0.5339(3) 0.179(5) 0.1430(13)
loop_
_geom_bond_atom_site_label_1
_geom_bond_atom_site_label_2
_geom_bond_site_symmetry_1
_geom_bond_site_symmetry_2
Cl1 C4 1_555 1_555
S1 S2 1_555 1_555
S2 C5 1_555 1_555
S3 S4 1_555 1_555
S4 C3 1_555 1_555
O1 C1 1_555 1_555
N1 S1 1_555 1_555
N2 S3 1_555 1_555
C1 C2 1_555 1_555
C2 N2 1_555 1_555
C3 C2 1_555 1_555
C4 C3 1_555 1_555
C5 C4 1_555 1_555
C6 N1 1_555 1_555
Cl2 C10 1_555 1_555
S5 S6 1_555 1_555
S6 C11 1_555 1_555
S7 S8 1_555 1_555
S8 C9 1_555 1_555
O2 C7 1_555 1_555
N3 S5 1_555 1_555
N4 S7 1_555 1_555
C7 C8 1_555 1_555
C8 N4 1_555 1_555
C9 C8 1_555 1_555
C10 C9 1_555 1_555
C11 C10 1_555 1_555
C12 N3 1_555 1_555
Cl3 C16 1_555 1_555
S9 S10 1_555 1_555
S10 C17 1_555 1_555
S11 S12 1_555 1_555
S12 C15 1_555 1_555
O3 C13 1_555 1_555
N5 S9 1_555 1_555
N6 S11 1_555 1_555
C13 C14 1_555 1_555
C14 N6 1_555 1_555
C15 C14 1_555 1_555
C16 C15 1_555 1_555
C17 C16 1_555 1_555
C18 N5 1_555 1_555
C1 C6 1_555 1_555
C5 C6 1_555 1_555
C7 C12 1_555 1_555
C11 C12 1_555 1_555
C13 C18 1_555 1_555
C17 C18 1_555 1_555

#END
