
#######################################################################
#
#                 Cambridge Crystallographic Data Centre
#                                CCDC 
#
#######################################################################
#
# If this CIF has been generated from an entry in the Cambridge 
# Structural Database, then it will include bibliographic, chemical, 
# crystal, experimental, refinement or atomic coordinate data resulting 
# from the CCDC's data processing and validation procedures.
#
#######################################################################

data_HANVAV
_chemical_formula_moiety         'C17 H17 N1 O7'
_chemical_name_systematic        
'(R)-Dimethyl 3-methyl-2-(4-nitrobenzoyl)cyclopent-3-ene-1,1-dicarboxylate'
_symmetry_cell_setting           monoclinic
_symmetry_space_group_name_H-M   'P 21'
_symmetry_Int_Tables_number      4
_space_group_name_Hall           'P 2yb'
loop_
_symmetry_equiv_pos_site_id
_symmetry_equiv_pos_as_xyz
1 x,y,z
2 -x,1/2+y,-z
_cell_length_a                   9.3322(8)
_cell_length_b                   7.1038(6)
_cell_length_c                   12.7222(11)
_cell_angle_alpha                90
_cell_angle_beta                 107.090(3)
_cell_angle_gamma                90
_cell_volume                     806.165
_exptl_crystal_colour            colorless
_exptl_crystal_description       plate
_cell_formula_units_Z            2
loop_
_atom_site_label
_atom_site_type_symbol
_atom_site_fract_x
_atom_site_fract_y
_atom_site_fract_z
C1 C 1.05229(17) 0.9907(2) 0.05282(13)
C2 C 1.12232(16) 1.0226(2) 0.16373(13)
H1 H 1.2264 1.0502 0.1894
C3 C 1.03752(17) 1.0133(2) 0.23548(12)
H2 H 1.0829 1.0361 0.3116
C4 C 0.88407(16) 0.9702(2) 0.19685(12)
C5 C 0.81634(17) 0.9461(3) 0.08500(13)
H3 H 0.7117 0.9225 0.0585
C6 C 0.90051(17) 0.9562(3) 0.01174(13)
H4 H 0.8548 0.9398 -0.0649
C7 C 0.79938(16) 0.9509(2) 0.27998(12)
C8 C 0.62881(16) 0.9256(3) 0.24165(12)
H5 H 0.5950 0.8576 0.1698
C9 C 0.57027(17) 0.8289(2) 0.33029(12)
C10 C 0.53095(18) 0.9938(3) 0.39661(13)
H6 H 0.4375 0.9678 0.4159
H7 H 0.6132 1.0178 0.4648
C11 C 0.51122(17) 1.1550(3) 0.31946(13)
H8 H 0.4669 1.2707 0.3307
C12 C 0.56093(17) 1.1234(2) 0.23330(13)
C13 C 0.56599(18) 1.2562(3) 0.14377(14)
H9 H 0.5047 1.3671 0.1463
H10 H 0.5268 1.1935 0.0724
H11 H 0.6698 1.2953 0.1537
C14 C 0.68192(16) 0.6903(3) 0.40281(12)
C15 C 0.84808(19) 0.4423(3) 0.39776(15)
H12 H 0.9315 0.5110 0.4480
H13 H 0.8847 0.3717 0.3447
H14 H 0.8051 0.3548 0.4398
C16 C 0.42842(17) 0.7155(2) 0.27222(13)
C17 C 0.22505(19) 0.5492(3) 0.30301(15)
H15 H 0.1523 0.6290 0.2507
H16 H 0.1852 0.5141 0.3635
H17 H 0.2436 0.4353 0.2656
N1 N 1.14348(14) 0.9925(2) -0.02423(11)
O1 O 1.27535(12) 1.0357(2) 0.01156(10)
O2 O 1.08131(13) 0.9500(2) -0.12028(9)
O3 O 0.86509(12) 0.96389(18) 0.37700(9)
O4 O 0.71623(12) 0.6831(2) 0.50135(9)
O5 O 0.73411(12) 0.57462(18) 0.33974(9)
O6 O 0.38082(12) 0.68649(19) 0.17594(9)
O7 O 0.36423(12) 0.6516(2) 0.34641(9)
loop_
_geom_bond_atom_site_label_1
_geom_bond_atom_site_label_2
_geom_bond_site_symmetry_1
_geom_bond_site_symmetry_2
C1 C2 1_555 1_555
C2 H1 1_555 1_555
C3 C2 1_555 1_555
H2 C3 1_555 1_555
C4 C3 1_555 1_555
C5 C4 1_555 1_555
H3 C5 1_555 1_555
C6 C1 1_555 1_555
H4 C6 1_555 1_555
C7 C4 1_555 1_555
C8 C7 1_555 1_555
H5 C8 1_555 1_555
C9 C8 1_555 1_555
C10 C9 1_555 1_555
H6 C10 1_555 1_555
H7 C10 1_555 1_555
C11 C10 1_555 1_555
H8 C11 1_555 1_555
C12 C8 1_555 1_555
C13 C12 1_555 1_555
H9 C13 1_555 1_555
H10 C13 1_555 1_555
H11 C13 1_555 1_555
C14 C9 1_555 1_555
C15 H12 1_555 1_555
H13 C15 1_555 1_555
H14 C15 1_555 1_555
C16 C9 1_555 1_555
C17 H15 1_555 1_555
H16 C17 1_555 1_555
H17 C17 1_555 1_555
N1 C1 1_555 1_555
O1 N1 1_555 1_555
O2 N1 1_555 1_555
O3 C7 1_555 1_555
O4 C14 1_555 1_555
O5 C14 1_555 1_555
O6 C16 1_555 1_555
O7 C16 1_555 1_555
C5 C6 1_555 1_555
C11 C12 1_555 1_555
C15 O5 1_555 1_555
C17 O7 1_555 1_555

#END
