
#######################################################################
#
#                 Cambridge Crystallographic Data Centre
#                                CCDC 
#
#######################################################################
#
# If this CIF has been generated from an entry in the Cambridge 
# Structural Database, then it will include bibliographic, chemical, 
# crystal, experimental, refinement or atomic coordinate data resulting 
# from the CCDC's data processing and validation procedures.
#
#######################################################################

data_HANWUQ
_chemical_formula_moiety         'C48 H45 F6 N7 O3,C5 H12,0.5(C1 H1 Cl3)'
_chemical_name_systematic        
"bis(3-(N'-(4-Trifluoromethylphenyl)ureido)benzyl)(3-(N'-(4-n-butylphenyl)ureido)benzyl)amine n-pentane clathrate chloroform solvate"
_symmetry_cell_setting           triclinic
_symmetry_space_group_name_H-M   'P -1'
_symmetry_Int_Tables_number      2
_space_group_name_Hall           '-P 1'
loop_
_symmetry_equiv_pos_site_id
_symmetry_equiv_pos_as_xyz
1 x,y,z
2 -x,-y,-z
_cell_length_a                   14.7822(6)
_cell_length_b                   18.1191(7)
_cell_length_c                   18.4515(7)
_cell_angle_alpha                94.795(2)
_cell_angle_beta                 93.989(2)
_cell_angle_gamma                98.372(2)
_cell_volume                     4855.5
_exptl_crystal_colour            colorless
_cell_formula_units_Z            4
_exptl_crystal_recrystallization_method chloroform/n-pentane
loop_
_atom_site_label
_atom_site_type_symbol
_atom_site_fract_x
_atom_site_fract_y
_atom_site_fract_z
F1 F 0.5663(7) 0.9553(4) 0.4273(4)
F2 F 0.6566(7) 1.0166(3) 0.5008(3)
F3 F 0.6970(7) 0.9452(5) 0.4223(5)
F4 F 0.4490(6) 0.5739(4) 0.0425(3)
F5 F 0.3370(6) 0.4922(3) -0.0029(2)
F6 F 0.3207(6) 0.6077(3) 0.0182(3)
O1 O 0.4530(3) 0.6913(2) 0.6618(2)
O2 O 0.2528(3) 0.3786(2) 0.3317(2)
O3 O 0.7530(3) 0.3880(2) 0.5447(2)
N1 N 0.5471(4) 0.6153(3) 0.7090(3)
H1 H 0.6030 0.6039 0.7112
N2 N 0.6072(4) 0.7144(3) 0.6502(3)
H2 H 0.6597 0.7004 0.6643
N3 N 0.2163(4) 0.4499(3) 0.4315(3)
H3 H 0.2137 0.4958 0.4503
N4 N 0.2660(4) 0.5063(3) 0.3324(3)
H4 H 0.2656 0.5479 0.3606
N5 N 0.6171(4) 0.3189(3) 0.4962(3)
H5 H 0.5799 0.3075 0.4562
N6 N 0.7144(4) 0.3770(3) 0.4215(3)
H6 H 0.6697 0.3599 0.3875
N7 N 0.3473(4) 0.3393(3) 0.6708(3)
C1 C 0.3886(5) 0.3628(3) 0.7449(3)
H13 H 0.4493 0.3462 0.7506
H14 H 0.3494 0.3384 0.7801
C2 C 0.3999(5) 0.4466(4) 0.7621(3)
C3 C 0.3534(5) 0.4799(4) 0.8151(3)
H15 H 0.3112 0.4493 0.8406
C4 C 0.3670(5) 0.5575(4) 0.8320(3)
H16 H 0.3334 0.5795 0.8678
C5 C 0.4301(5) 0.6020(4) 0.7957(4)
H17 H 0.4402 0.6548 0.8072
C6 C 0.4785(5) 0.5701(4) 0.7430(3)
C7 C 0.4640(5) 0.4931(4) 0.7266(3)
H18 H 0.4978 0.4713 0.6908
C8 C 0.5308(5) 0.6755(4) 0.6731(3)
C9 C 0.6120(5) 0.7747(4) 0.6062(3)
C10 C 0.5428(5) 0.8181(4) 0.5993(4)
H19 H 0.4894 0.8091 0.6251
C11 C 0.5538(6) 0.8757(4) 0.5529(4)
H20 H 0.5063 0.9052 0.5460
C12 C 0.6320(7) 0.8903(4) 0.5173(4)
C13 C 0.7002(6) 0.8486(4) 0.5270(4)
H21 H 0.7550 0.8595 0.5032
C14 C 0.6908(6) 0.7900(4) 0.5712(4)
H22 H 0.7385 0.7606 0.5772
C15 C 0.6388(9) 0.9517(6) 0.4693(5)
C16 C 0.2473(5) 0.3438(4) 0.6675(3)
H23 H 0.2379 0.3924 0.6923
H24 H 0.2158 0.3034 0.6938
C17 C 0.2055(4) 0.3366(4) 0.5900(3)
C18 C 0.1391(5) 0.2771(4) 0.5623(4)
H25 H 0.1204 0.2385 0.5923
C19 C 0.0990(5) 0.2730(5) 0.4908(4)
H26 H 0.0547 0.2312 0.4721
C20 C 0.1240(5) 0.3296(5) 0.4479(4)
H27 H 0.0952 0.3278 0.4000
C21 C 0.1906(5) 0.3890(4) 0.4739(3)
C22 C 0.2307(5) 0.3925(4) 0.5450(3)
H28 H 0.2760 0.4339 0.5630
C23 C 0.2446(4) 0.4400(4) 0.3636(4)
C24 C 0.2885(5) 0.5147(4) 0.2605(3)
C25 C 0.3351(5) 0.5822(4) 0.2447(3)
H29 H 0.3515 0.6215 0.2827
C26 C 0.3583(5) 0.5940(4) 0.1758(3)
H30 H 0.3894 0.6414 0.1662
C27 C 0.3366(6) 0.5373(4) 0.1204(3)
C28 C 0.2888(6) 0.4698(4) 0.1353(4)
H31 H 0.2725 0.4307 0.0969
C29 C 0.2640(5) 0.4578(4) 0.2046(3)
H32 H 0.2306 0.4111 0.2139
C30 C 0.3610(9) 0.5501(5) 0.0458(5)
C31 C 0.3619(5) 0.2628(3) 0.6490(3)
H33 H 0.3218 0.2431 0.6043
H34 H 0.3446 0.2305 0.6881
C32 C 0.4606(5) 0.2594(3) 0.6347(3)
C33 C 0.5173(6) 0.2252(4) 0.6798(4)
H35 H 0.4937 0.2018 0.7202
C34 C 0.6091(5) 0.2250(4) 0.6663(4)
H36 H 0.6479 0.2030 0.6986
C35 C 0.6441(5) 0.2560(4) 0.6071(4)
H37 H 0.7061 0.2544 0.5971
C36 C 0.5862(5) 0.2900(4) 0.5616(3)
C37 C 0.4965(5) 0.2927(3) 0.5758(3)
H38 H 0.4589 0.3174 0.5450
C38 C 0.6982(5) 0.3622(4) 0.4905(3)
C39 C 0.7942(5) 0.4165(4) 0.3975(3)
C40 C 0.7846(5) 0.4453(4) 0.3292(4)
H39 H 0.7259 0.4394 0.3031
C41 C 0.8587(5) 0.4815(4) 0.3008(4)
H40 H 0.8515 0.4987 0.2537
C42 C 0.9447(5) 0.4940(4) 0.3384(4)
C43 C 0.9528(5) 0.4637(5) 0.4044(4)
H41 H 1.0120 0.4692 0.4297
C44 C 0.8805(5) 0.4263(4) 0.4353(4)
H42 H 0.8889 0.4075 0.4815
C45 C 1.0285(6) 0.5375(5) 0.3085(5)
H43 H 1.0852 0.5257 0.3337
H44 H 1.0288 0.5221 0.2558
C46 C 1.0267(7) 0.6203(6) 0.3197(6)
H45 H 1.0259 0.6348 0.3726
H46 H 0.9691 0.6311 0.2951
C47 C 1.1060(7) 0.6681(7) 0.2918(6)
H47 H 1.1084 0.6529 0.2392
H48 H 1.1638 0.6592 0.3177
C48 C 1.0993(10) 0.7539(6) 0.3022(7)
H49 H 1.0406 0.7627 0.2790
H50 H 1.1498 0.7821 0.2796
H51 H 1.1032 0.7704 0.3544
F7 F 0.1329(11) 0.3649(9) -0.1229(8)
F8 F 0.1519(9) 0.3500(7) -0.0133(7)
F9 F 0.0681(13) 0.2683(11) -0.0852(11)
F10 F 0.0747(11) 0.0303(9) 0.3404(8)
F11 F 0.1138(9) -0.0757(8) 0.3733(7)
F12 F 0.0640(9) -0.0635(7) 0.2663(7)
O4 O 0.5653(3) 0.2387(2) -0.0721(2)
O5 O 0.5494(3) -0.0380(3) 0.2421(2)
O6 O 0.4599(3) -0.2033(2) -0.1751(2)
N8 N 0.5932(4) 0.1446(3) -0.1534(3)
H7 H 0.5692 0.1102 -0.1888
N9 N 0.4460(4) 0.1697(3) -0.1465(3)
H8 H 0.4318 0.1298 -0.1782
N10 N 0.6281(4) 0.0731(3) 0.2134(3)
H9 H 0.6246 0.1203 0.2073
N11 N 0.4787(4) 0.0679(3) 0.2432(3)
H10 H 0.4879 0.1157 0.2363
N12 N 0.5282(4) -0.2105(3) -0.0626(3)
H11 H 0.5183 -0.2151 -0.0166
N13 N 0.3731(4) -0.2372(3) -0.0822(3)
H12 H 0.3773 -0.2434 -0.0353
N14 N 0.8269(3) -0.0007(3) -0.0071(3)
C49 C 0.8552(4) 0.0228(4) -0.0765(3)
H52 H 0.8333 -0.0183 -0.1152
H53 H 0.9231 0.0318 -0.0741
C50 C 0.8194(5) 0.0931(4) -0.0972(3)
C51 C 0.8759(5) 0.1593(4) -0.0994(4)
H54 H 0.9402 0.1621 -0.0886
C52 C 0.8395(6) 0.2234(4) -0.1175(4)
H55 H 0.8787 0.2698 -0.1178
C53 C 0.7455(5) 0.2184(4) -0.1349(4)
H56 H 0.7201 0.2613 -0.1476
C54 C 0.6900(5) 0.1516(4) -0.1335(3)
C55 C 0.7246(5) 0.0888(4) -0.1141(3)
H57 H 0.6847 0.0430 -0.1122
C56 C 0.5362(5) 0.1877(4) -0.1210(4)
C57 C 0.3731(5) 0.2079(4) -0.1277(3)
C58 C 0.3836(5) 0.2766(3) -0.0853(3)
H58 H 0.4430 0.3014 -0.0673
C59 C 0.3073(5) 0.3080(4) -0.0700(4)
H59 H 0.3139 0.3545 -0.0408
C60 C 0.2211(5) 0.2728(4) -0.0966(4)
C61 C 0.2120(5) 0.2060(4) -0.1410(4)
H60 H 0.1529 0.1831 -0.1616
C62 C 0.2862(5) 0.1730(4) -0.1554(4)
H61 H 0.2787 0.1262 -0.1842
C63 C 0.1408(9) 0.3057(5) -0.0785(6)
C64 C 0.8765(5) 0.0509(4) 0.0545(3)
H62 H 0.8743 0.1033 0.0439
H63 H 0.9417 0.0437 0.0588
C65 C 0.8362(5) 0.0382(4) 0.1260(3)
C66 C 0.8818(5) 0.0065(4) 0.1809(4)
H64 H 0.9405 -0.0071 0.1740
C67 C 0.8428(6) -0.0051(4) 0.2448(4)
H65 H 0.8748 -0.0275 0.2815
C68 C 0.7576(6) 0.0147(4) 0.2577(4)
H66 H 0.7310 0.0065 0.3023
C69 C 0.7127(5) 0.0474(4) 0.2024(4)
C70 C 0.7516(5) 0.0586(4) 0.1374(4)
H67 H 0.7198 0.0806 0.1004
C71 C 0.5512(6) 0.0294(5) 0.2330(3)
C72 C 0.3921(6) 0.0394(4) 0.2633(3)
C73 C 0.3212(6) 0.0782(4) 0.2457(4)
H68 H 0.3330 0.1211 0.2195
C74 C 0.2349(6) 0.0567(5) 0.2648(4)
H69 H 0.1875 0.0847 0.2524
C75 C 0.2154(7) -0.0066(5) 0.3028(5)
C76 C 0.2863(7) -0.0445(5) 0.3226(4)
H70 H 0.2743 -0.0862 0.3503
C77 C 0.3756(6) -0.0232(4) 0.3028(4)
H71 H 0.4235 -0.0504 0.3159
C78 C 0.1132(9) -0.0345(7) 0.3190(7)
C79 C 0.8420(5) -0.0778(3) 0.0005(3)
H72 H 0.8361 -0.0885 0.0518
H73 H 0.9054 -0.0829 -0.0110
C80 C 0.7754(5) -0.1351(4) -0.0487(3)
C81 C 0.8059(5) -0.1797(4) -0.1041(4)
H74 H 0.8691 -0.1736 -0.1126
C82 C 0.7433(5) -0.2332(4) -0.1466(4)
H75 H 0.7643 -0.2636 -0.1844
C83 C 0.6508(5) -0.2435(4) -0.1354(4)
H76 H 0.6086 -0.2807 -0.1645
C84 C 0.6216(5) -0.1977(4) -0.0801(4)
C85 C 0.6820(5) -0.1435(4) -0.0384(3)
H77 H 0.6602 -0.1115 -0.0024
C86 C 0.4533(5) -0.2161(3) -0.1113(4)
C87 C 0.2844(6) -0.2503(4) -0.1170(4)
C88 C 0.2119(6) -0.2480(5) -0.0738(5)
H78 H 0.2249 -0.2351 -0.0227
C89 C 0.1219(6) -0.2637(6) -0.1018(6)
H79 H 0.0737 -0.2633 -0.0704
C90 C 0.1025(7) -0.2799(6) -0.1758(7)
C91 C 0.1753(7) -0.2823(5) -0.2203(5)
H80 H 0.1618 -0.2955 -0.2712
C92 C 0.2666(5) -0.2662(4) -0.1924(4)
H81 H 0.3151 -0.2660 -0.2235
C93 C -0.0059(10) -0.2986(12) -0.2068(7)
F16 F -0.0258(7) -0.2156(6) -0.2199(6)
F17 F -0.0547(8) -0.3150(6) -0.1592(6)
F18 F -0.0093(7) -0.3298(6) -0.2649(6)
C98 C -0.024(3) -0.063(3) 0.417(3)
C99 C -0.010(3) -0.0402(16) 0.498(2)
C98A C 0.024(3) 0.063(3) 0.583(3)
C99A C 0.010(3) 0.0402(16) 0.502(2)
C100 C 0.4317(8) 0.4198(7) 0.4594(6)
C104 C 0.482(2) 0.4897(12) 0.4630(12)
C100A C 0.5683(8) 0.5802(7) 0.5406(6)
C104A C 0.518(2) 0.5103(12) 0.5370(12)
C102 C -0.1063(19) 0.4612(13) 0.0924(13)
C103 C -0.077(3) 0.441(2) 0.025(3)
C109 C -0.064(2) 0.4562(19) -0.086(2)
C110 C -0.079(2) 0.4457(16) -0.036(2)
C105 C 0.476(2) 0.0289(16) 0.0717(15)
C106 C 0.498(2) -0.021(2) 0.0383(17)
C105A C 0.524(2) -0.0289(16) -0.0717(15)
C106A C 0.502(2) 0.021(2) -0.0383(17)
Cl1 Cl 0.1460(9) -0.2571(8) -0.4516(7)
Cl3 Cl 0.2858(4) -0.1747(3) -0.3748(3)
Cl6 Cl 0.0971(4) -0.1688(3) -0.3604(3)
C107 C 0.1934(11) -0.1636(8) -0.4220(8)
Cl2? Cl 0.3023(5) -0.1560(4) -0.4014(4)
Cl4? Cl 0.1351(6) -0.1041(5) -0.4401(5)
Cl5? Cl 0.1543(4) -0.2222(4) -0.4995(3)
C94? C -0.0329(17) -0.2639(16) -0.2434(14)
C95? C 0.009(2) -0.2121(17) -0.2832(16)
C96? C -0.043(2) -0.1513(17) -0.3113(15)
F13? F 0.1558(8) 0.3756(7) -0.0526(8)
F14? F 0.0865(7) 0.2631(5) -0.0330(5)
F15? F 0.0774(7) 0.3035(6) -0.1363(6)
C97? C 0.1100(16) -0.0100(14) 0.3926(12)
C101? C 0.1654(10) -0.1780(9) -0.5019(7)
C108? C -0.017(3) 0.476(2) 0.082(2)
C111? C 0.0000 0.5000 0.0000
C112? C 0.4444(15) 0.4974(11) 0.5014(13)
C113? C 0.5842(11) 0.0754(9) 0.0105(8)
C114? C 0.5310(11) 0.0230(9) 0.0311(8)
loop_
_geom_bond_atom_site_label_1
_geom_bond_atom_site_label_2
_geom_bond_site_symmetry_1
_geom_bond_site_symmetry_2
Cl1 C107 1_555 1_555
Cl3 C107 1_555 1_555
Cl6 C107 1_555 1_555
F1 C15 1_555 1_555
F2 C15 1_555 1_555
F3 C15 1_555 1_555
F4 C30 1_555 1_555
F5 C30 1_555 1_555
F6 C30 1_555 1_555
F7 C63 1_555 1_555
F8 C63 1_555 1_555
F9 C63 1_555 1_555
F10 C78 1_555 1_555
F11 C78 1_555 1_555
F12 C78 1_555 1_555
O1 C8 1_555 1_555
O2 C23 1_555 1_555
O3 C38 1_555 1_555
O4 C56 1_555 1_555
O5 C71 1_555 1_555
O6 C86 1_555 1_555
N1 H1 1_555 1_555
N2 H2 1_555 1_555
N3 H3 1_555 1_555
N4 H4 1_555 1_555
N5 H5 1_555 1_555
N6 H6 1_555 1_555
N7 C1 1_555 1_555
N8 H7 1_555 1_555
N9 H8 1_555 1_555
N10 H9 1_555 1_555
N11 H10 1_555 1_555
N12 H11 1_555 1_555
N13 H12 1_555 1_555
N14 C49 1_555 1_555
C1 H13 1_555 1_555
H14 C1 1_555 1_555
C2 C1 1_555 1_555
C3 C2 1_555 1_555
H15 C3 1_555 1_555
C4 C3 1_555 1_555
H16 C4 1_555 1_555
C5 C4 1_555 1_555
H17 C5 1_555 1_555
C6 N1 1_555 1_555
C7 C2 1_555 1_555
H18 C7 1_555 1_555
C8 N1 1_555 1_555
C9 N2 1_555 1_555
C10 C9 1_555 1_555
H19 C10 1_555 1_555
C11 C10 1_555 1_555
H20 C11 1_555 1_555
C12 C11 1_555 1_555
C13 C12 1_555 1_555
H21 C13 1_555 1_555
C14 C9 1_555 1_555
H22 C14 1_555 1_555
C15 C12 1_555 1_555
C16 N7 1_555 1_555
H23 C16 1_555 1_555
H24 C16 1_555 1_555
C17 C16 1_555 1_555
C18 C17 1_555 1_555
H25 C18 1_555 1_555
C19 C18 1_555 1_555
H26 C19 1_555 1_555
C20 C19 1_555 1_555
H27 C20 1_555 1_555
C21 N3 1_555 1_555
C22 C17 1_555 1_555
H28 C22 1_555 1_555
C23 N3 1_555 1_555
C24 N4 1_555 1_555
C25 C24 1_555 1_555
H29 C25 1_555 1_555
C26 C25 1_555 1_555
H30 C26 1_555 1_555
C27 C26 1_555 1_555
C28 C27 1_555 1_555
H31 C28 1_555 1_555
C29 C24 1_555 1_555
H32 C29 1_555 1_555
C30 C27 1_555 1_555
C31 N7 1_555 1_555
H33 C31 1_555 1_555
H34 C31 1_555 1_555
C32 C31 1_555 1_555
C33 C32 1_555 1_555
H35 C33 1_555 1_555
C34 C33 1_555 1_555
H36 C34 1_555 1_555
C35 C34 1_555 1_555
H37 C35 1_555 1_555
C36 N5 1_555 1_555
C37 C32 1_555 1_555
H38 C37 1_555 1_555
C38 N5 1_555 1_555
C39 N6 1_555 1_555
C40 C39 1_555 1_555
H39 C40 1_555 1_555
C41 C40 1_555 1_555
H40 C41 1_555 1_555
C42 C41 1_555 1_555
C43 C42 1_555 1_555
H41 C43 1_555 1_555
C44 C39 1_555 1_555
H42 C44 1_555 1_555
C45 C42 1_555 1_555
H43 C45 1_555 1_555
H44 C45 1_555 1_555
C46 C45 1_555 1_555
H45 C46 1_555 1_555
H46 C46 1_555 1_555
C47 C46 1_555 1_555
H47 C47 1_555 1_555
H48 C47 1_555 1_555
C48 C47 1_555 1_555
H49 C48 1_555 1_555
H50 C48 1_555 1_555
H51 C48 1_555 1_555
C49 H52 1_555 1_555
H53 C49 1_555 1_555
C50 C49 1_555 1_555
C51 C50 1_555 1_555
H54 C51 1_555 1_555
C52 C51 1_555 1_555
H55 C52 1_555 1_555
C53 C52 1_555 1_555
H56 C53 1_555 1_555
C54 N8 1_555 1_555
C55 C50 1_555 1_555
H57 C55 1_555 1_555
C56 N8 1_555 1_555
C57 N9 1_555 1_555
C58 C57 1_555 1_555
H58 C58 1_555 1_555
C59 C58 1_555 1_555
H59 C59 1_555 1_555
C60 C59 1_555 1_555
C61 C60 1_555 1_555
H60 C61 1_555 1_555
C62 C57 1_555 1_555
H61 C62 1_555 1_555
C63 C60 1_555 1_555
C64 N14 1_555 1_555
H62 C64 1_555 1_555
H63 C64 1_555 1_555
C65 C64 1_555 1_555
C66 C65 1_555 1_555
H64 C66 1_555 1_555
C67 C66 1_555 1_555
H65 C67 1_555 1_555
C68 C67 1_555 1_555
H66 C68 1_555 1_555
C69 N10 1_555 1_555
C70 C65 1_555 1_555
H67 C70 1_555 1_555
C71 N10 1_555 1_555
C72 N11 1_555 1_555
C73 C72 1_555 1_555
H68 C73 1_555 1_555
C74 C73 1_555 1_555
H69 C74 1_555 1_555
C75 C74 1_555 1_555
C76 C75 1_555 1_555
H70 C76 1_555 1_555
C77 C72 1_555 1_555
H71 C77 1_555 1_555
C78 C75 1_555 1_555
C79 N14 1_555 1_555
H72 C79 1_555 1_555
H73 C79 1_555 1_555
C80 C79 1_555 1_555
C81 C80 1_555 1_555
H74 C81 1_555 1_555
C82 C81 1_555 1_555
H75 C82 1_555 1_555
C83 C82 1_555 1_555
H76 C83 1_555 1_555
C84 N12 1_555 1_555
C85 C80 1_555 1_555
H77 C85 1_555 1_555
C86 N12 1_555 1_555
C87 N13 1_555 1_555
C88 C87 1_555 1_555
H78 C88 1_555 1_555
C89 C88 1_555 1_555
H79 C89 1_555 1_555
C90 C89 1_555 1_555
C91 C90 1_555 1_555
H80 C91 1_555 1_555
C92 C87 1_555 1_555
H81 C92 1_555 1_555
C93 C90 1_555 1_555
F16 C93 1_555 1_555
F17 C93 1_555 1_555
F18 C93 1_555 1_555
C98 C99 1_555 1_555
C99 C99A 1_555 1_555
C100 C104 1_555 1_555
C102 C103 1_555 1_555
C103 C110 1_555 1_555
C104 C104A 1_555 1_555
C105 C106 1_555 1_555
C106 C106A 1_555 1_555
C109 C110 1_555 1_555
C98A C99A 1_555 1_555
C100A C104A 1_555 1_555
C105A C106A 1_555 1_555
N2 C8 1_555 1_555
N4 C23 1_555 1_555
N6 C38 1_555 1_555
N9 C56 1_555 1_555
N11 C71 1_555 1_555
N13 C86 1_555 1_555
C5 C6 1_555 1_555
C6 C7 1_555 1_555
C13 C14 1_555 1_555
C20 C21 1_555 1_555
C21 C22 1_555 1_555
C28 C29 1_555 1_555
C35 C36 1_555 1_555
C36 C37 1_555 1_555
C43 C44 1_555 1_555
C53 C54 1_555 1_555
C54 C55 1_555 1_555
C61 C62 1_555 1_555
C68 C69 1_555 1_555
C69 C70 1_555 1_555
C76 C77 1_555 1_555
C83 C84 1_555 1_555
C84 C85 1_555 1_555
C91 C92 1_555 1_555

#END
