
#######################################################################
#
#                 Cambridge Crystallographic Data Centre
#                                CCDC 
#
#######################################################################
#
# If this CIF has been generated from an entry in the Cambridge 
# Structural Database, then it will include bibliographic, chemical, 
# crystal, experimental, refinement or atomic coordinate data resulting 
# from the CCDC's data processing and validation procedures.
#
#######################################################################

data_HANZED
_chemical_formula_moiety         'C39 H31 Br3 Se2'
_chemical_name_systematic        
1,1'-(2-(3-(4-Bromophenyl)-6-((phenylselanyl)methyl)cyclohex-2-en-1-ylidene)-2-(phenylselanyl)ethane-1,1-diyl)bis(4-bromobenzene)
_symmetry_cell_setting           triclinic
_symmetry_space_group_name_H-M   'P -1'
_symmetry_Int_Tables_number      2
_space_group_name_Hall           '-P 1'
loop_
_symmetry_equiv_pos_site_id
_symmetry_equiv_pos_as_xyz
1 x,y,z
2 -x,-y,-z
_cell_length_a                   10.2623(15)
_cell_length_b                   11.7202(17)
_cell_length_c                   14.783(2)
_cell_angle_alpha                104.520(2)
_cell_angle_beta                 91.896(2)
_cell_angle_gamma                94.454(2)
_cell_volume                     1713.51
_exptl_crystal_colour            colorless
_exptl_crystal_description       block
_cell_formula_units_Z            2
loop_
_atom_site_label
_atom_site_type_symbol
_atom_site_fract_x
_atom_site_fract_y
_atom_site_fract_z
Se1 Se 0.58273(6) 0.37584(6) 0.61203(5)
Se2 Se 0.90208(5) 0.47360(4) 0.80284(4)
Br1 Br 0.25286(10) 1.16346(8) 0.70617(8)
Br2 Br 0.60042(7) 0.16890(6) 1.02985(5)
Br3 Br 1.08692(9) 1.03850(6) 1.17463(5)
C1 C 0.7804(4) 0.5936(4) 0.8111(3)
C2 C 0.7428(4) 0.6309(4) 0.7364(3)
C3 C 0.6571(5) 0.7271(4) 0.7419(3)
H1 H 0.6068 0.7469 0.7938
C4 C 0.6472(5) 0.7874(4) 0.6771(3)
C5 C 0.7260(6) 0.7642(5) 0.5920(4)
H2 H 0.7668 0.8388 0.5850
H3 H 0.6679 0.7299 0.5372
C6 C 0.8323(6) 0.6809(5) 0.5966(4)
H4 H 0.8609 0.6488 0.5341
H5 H 0.9071 0.7252 0.6349
C7 C 0.7827(5) 0.5798(4) 0.6374(3)
H6 H 0.8532 0.5285 0.6393
C8 C 0.6685(6) 0.5086(5) 0.5742(4)
H7 H 0.7001 0.4789 0.5123
H8 H 0.6031 0.5623 0.5688
C9 C 0.7169(6) 0.2689(5) 0.5976(4)
C10 C 0.8120(7) 0.2658(6) 0.5363(6)
H9 H 0.8151 0.3163 0.4968
C11 C 0.9050(9) 0.1853(7) 0.5335(9)
H10 H 0.9706 0.1808 0.4911
C12 C 0.9005(10) 0.1129(8) 0.5927(11)
H11 H 0.9671 0.0639 0.5945
C13 C 0.8011(13) 0.1124(8) 0.6479(8)
H12 H 0.7926 0.0563 0.6824
C14 C 0.7111(9) 0.1937(6) 0.6542(5)
H13 H 0.6462 0.1975 0.6970
C15 C 0.5530(5) 0.8792(4) 0.6844(3)
C16 C 0.5202(5) 0.9466(4) 0.7703(4)
H14 H 0.5597 0.9359 0.8248
C17 C 0.4292(6) 1.0303(5) 0.7770(4)
H15 H 0.4073 1.0748 0.8350
C18 C 0.3728(6) 1.0453(5) 0.6962(5)
C19 C 0.4025(6) 0.9814(6) 0.6109(5)
H16 H 0.3623 0.9930 0.5570
C20 C 0.4931(6) 0.8984(5) 0.6046(4)
H17 H 0.5141 0.8549 0.5460
C21 C 1.0516(5) 0.5418(5) 0.7550(3)
C22 C 1.1363(6) 0.4635(6) 0.7091(4)
H18 H 1.1154 0.3824 0.6982
C23 C 1.2512(7) 0.5059(8) 0.6797(5)
H19 H 1.3099 0.4531 0.6516
C24 C 1.2814(6) 0.6259(8) 0.6911(5)
H20 H 1.3584 0.6540 0.6694
C25 C 1.1956(6) 0.7027(7) 0.7352(5)
H21 H 1.2149 0.7835 0.7432
C26 C 1.0803(5) 0.6622(5) 0.7681(4)
H22 H 1.0234 0.7153 0.7986
C27 C 0.7293(5) 0.6331(4) 0.9094(3)
H23 H 0.6475 0.6687 0.9022
C28 C 0.6926(5) 0.5238(4) 0.9450(3)
C29 C 0.6143(6) 0.4306(6) 0.8870(4)
H24 H 0.5815 0.4379 0.8295
C30 C 0.5842(7) 0.3273(6) 0.9133(4)
H25 H 0.5320 0.2654 0.8735
C31 C 0.6303(5) 0.3158(5) 0.9967(4)
C32 C 0.6999(7) 0.4071(6) 1.0579(4)
H26 H 0.7280 0.3999 1.1165
C33 C 0.7290(7) 0.5118(6) 1.0320(4)
H27 H 0.7743 0.5756 1.0748
C34 C 0.8203(5) 0.7290(4) 0.9750(3)
C35 C 0.9442(6) 0.7101(5) 1.0060(4)
H28 H 0.9748 0.6356 0.9864
C36 C 1.0234(6) 0.8024(6) 1.0666(4)
H29 H 1.1056 0.7887 1.0879
C37 C 0.9801(6) 0.9125(5) 1.0943(4)
C38 C 0.8582(7) 0.9331(5) 1.0630(4)
H30 H 0.8293 1.0084 1.0809
C39 C 0.7795(6) 0.8413(5) 1.0048(4)
H31 H 0.6966 0.8554 0.9850
loop_
_geom_bond_atom_site_label_1
_geom_bond_atom_site_label_2
_geom_bond_site_symmetry_1
_geom_bond_site_symmetry_2
Se1 C8 1_555 1_555
Se2 C1 1_555 1_555
Br1 C18 1_555 1_555
Br2 C31 1_555 1_555
Br3 C37 1_555 1_555
C1 C2 1_555 1_555
C2 C3 1_555 1_555
C3 H1 1_555 1_555
C4 C3 1_555 1_555
C5 C4 1_555 1_555
H2 C5 1_555 1_555
H3 C5 1_555 1_555
C6 C5 1_555 1_555
H4 C6 1_555 1_555
H5 C6 1_555 1_555
C7 C2 1_555 1_555
H6 C7 1_555 1_555
C8 C7 1_555 1_555
H7 C8 1_555 1_555
H8 C8 1_555 1_555
C9 Se1 1_555 1_555
C10 C9 1_555 1_555
H9 C10 1_555 1_555
C11 C10 1_555 1_555
H10 C11 1_555 1_555
C12 C11 1_555 1_555
H11 C12 1_555 1_555
C13 C12 1_555 1_555
H12 C13 1_555 1_555
C14 C9 1_555 1_555
H13 C14 1_555 1_555
C15 C4 1_555 1_555
C16 C15 1_555 1_555
H14 C16 1_555 1_555
C17 C16 1_555 1_555
H15 C17 1_555 1_555
C18 C17 1_555 1_555
C19 C18 1_555 1_555
H16 C19 1_555 1_555
C20 C15 1_555 1_555
H17 C20 1_555 1_555
C21 Se2 1_555 1_555
C22 C21 1_555 1_555
H18 C22 1_555 1_555
C23 C22 1_555 1_555
H19 C23 1_555 1_555
C24 C23 1_555 1_555
H20 C24 1_555 1_555
C25 C24 1_555 1_555
H21 C25 1_555 1_555
C26 C21 1_555 1_555
H22 C26 1_555 1_555
C27 C1 1_555 1_555
H23 C27 1_555 1_555
C28 C27 1_555 1_555
C29 C28 1_555 1_555
H24 C29 1_555 1_555
C30 C29 1_555 1_555
H25 C30 1_555 1_555
C31 C30 1_555 1_555
C32 C31 1_555 1_555
H26 C32 1_555 1_555
C33 C28 1_555 1_555
H27 C33 1_555 1_555
C34 C27 1_555 1_555
C35 C34 1_555 1_555
H28 C35 1_555 1_555
C36 C35 1_555 1_555
H29 C36 1_555 1_555
C37 C36 1_555 1_555
C38 C37 1_555 1_555
H30 C38 1_555 1_555
C39 C34 1_555 1_555
H31 C39 1_555 1_555
C6 C7 1_555 1_555
C13 C14 1_555 1_555
C19 C20 1_555 1_555
C25 C26 1_555 1_555
C32 C33 1_555 1_555
C38 C39 1_555 1_555

#END
