
#######################################################################
#
#                 Cambridge Crystallographic Data Centre
#                                CCDC 
#
#######################################################################
#
# If this CIF has been generated from an entry in the Cambridge 
# Structural Database, then it will include bibliographic, chemical, 
# crystal, experimental, refinement or atomic coordinate data resulting 
# from the CCDC's data processing and validation procedures.
#
#######################################################################

data_HANZIH
_chemical_formula_moiety         'C27 H22 O2 S1'
_chemical_name_systematic        
'1-(Diphenylmethylene)-6-phenyl-1,3,4,5-tetrahydro-2-benzothiophene 2,2-dioxide'
_symmetry_cell_setting           triclinic
_symmetry_space_group_name_H-M   'P -1'
_symmetry_Int_Tables_number      2
_space_group_name_Hall           '-P 1'
loop_
_symmetry_equiv_pos_site_id
_symmetry_equiv_pos_as_xyz
1 x,y,z
2 -x,-y,-z
_cell_length_a                   5.9367(7)
_cell_length_b                   12.8613(14)
_cell_length_c                   14.4078(16)
_cell_angle_alpha                96.173(2)
_cell_angle_beta                 97.658(2)
_cell_angle_gamma                102.352(2)
_cell_volume                     1054.47
_exptl_crystal_colour            colorless
_exptl_crystal_description       prismatic
_cell_formula_units_Z            2
loop_
_atom_site_label
_atom_site_type_symbol
_atom_site_fract_x
_atom_site_fract_y
_atom_site_fract_z
S1 S 0.51004(8) 0.39298(4) 0.08460(3)
O1 O 0.6771(3) 0.35674(13) 0.03379(11)
O2 O 0.5507(3) 0.50550(11) 0.11689(10)
C1 C 0.2248(3) 0.34079(16) 0.01778(14)
H1 H 0.1279 0.3922 0.0243
H2 H 0.2325 0.3231 -0.0487
C2 C 0.4620(3) 0.31399(14) 0.17861(12)
C3 C 0.2538(3) 0.22759(14) 0.14120(12)
C4 C 0.1319(3) 0.24237(14) 0.05949(13)
C5 C -0.0809(3) 0.16010(16) 0.01228(14)
H3 H -0.0371 0.1090 -0.0324
H4 H -0.1877 0.1949 -0.0227
C6 C -0.2021(4) 0.10111(17) 0.08374(16)
H5 H -0.2845 0.1475 0.1162
H6 H -0.3169 0.0382 0.0507
C7 C -0.0359(3) 0.06636(14) 0.15575(13)
C8 C 0.1789(3) 0.12983(14) 0.18194(12)
H7 H 0.2831 0.1108 0.2275
C9 C 0.5948(3) 0.33822(14) 0.26499(13)
C10 C 0.5418(3) 0.27185(14) 0.34164(13)
C11 C 0.3583(4) 0.27862(18) 0.39005(15)
H8 H 0.2625 0.3249 0.3747
C12 C 0.3173(5) 0.2163(2) 0.46148(17)
H9 H 0.1939 0.2211 0.4940
C13 C 0.4555(5) 0.1481(2) 0.48448(18)
H10 H 0.4259 0.1064 0.5324
C14 C 0.6387(5) 0.14066(19) 0.43705(18)
H11 H 0.7326 0.0937 0.4526
C15 C 0.6834(4) 0.20316(17) 0.36605(16)
H12 H 0.8090 0.1989 0.3347
C16 C 0.8040(3) 0.43013(14) 0.29317(13)
C17 C 0.8219(4) 0.49822(16) 0.37653(14)
H13 H 0.7021 0.4877 0.4125
C18 C 1.0170(4) 0.58186(18) 0.40669(16)
H14 H 1.0268 0.6277 0.4623
C19 C 1.1954(4) 0.59718(18) 0.35464(18)
H15 H 1.3265 0.6532 0.3752
C20 C 1.1812(4) 0.53046(19) 0.27270(19)
H16 H 1.3021 0.5413 0.2373
C21 C 0.9862(4) 0.44634(16) 0.24202(16)
H17 H 0.9784 0.4006 0.1865
C22 C -0.1143(3) -0.03341(15) 0.19698(13)
C23 C -0.3350(5) -0.0963(2) 0.1730(2)
H18 H -0.4442 -0.0734 0.1325
C24 C -0.4024(5) -0.1932(3) 0.2068(2)
H19 H -0.5540 -0.2343 0.1875
C25 C -0.2536(5) -0.2284(2) 0.26641(19)
H20 H -0.2991 -0.2937 0.2887
C26 C -0.0347(5) -0.1666(3) 0.2935(3)
H21 H 0.0712 -0.1890 0.3360
C27 C 0.0332(5) -0.0710(2) 0.2592(2)
H22 H 0.1851 -0.0305 0.2789
loop_
_geom_bond_atom_site_label_1
_geom_bond_atom_site_label_2
_geom_bond_site_symmetry_1
_geom_bond_site_symmetry_2
S1 O1 1_555 1_555
O2 S1 1_555 1_555
C1 S1 1_555 1_555
H1 C1 1_555 1_555
H2 C1 1_555 1_555
C2 S1 1_555 1_555
C3 C2 1_555 1_555
C4 C1 1_555 1_555
C5 C4 1_555 1_555
H3 C5 1_555 1_555
H4 C5 1_555 1_555
C6 C5 1_555 1_555
H5 C6 1_555 1_555
H6 C6 1_555 1_555
C7 C6 1_555 1_555
C8 C3 1_555 1_555
H7 C8 1_555 1_555
C9 C2 1_555 1_555
C10 C9 1_555 1_555
C11 C10 1_555 1_555
H8 C11 1_555 1_555
C12 C11 1_555 1_555
H9 C12 1_555 1_555
C13 C12 1_555 1_555
H10 C13 1_555 1_555
C14 C13 1_555 1_555
H11 C14 1_555 1_555
C15 C10 1_555 1_555
H12 C15 1_555 1_555
C16 C9 1_555 1_555
C17 C16 1_555 1_555
H13 C17 1_555 1_555
C18 C17 1_555 1_555
H14 C18 1_555 1_555
C19 C18 1_555 1_555
H15 C19 1_555 1_555
C20 C19 1_555 1_555
H16 C20 1_555 1_555
C21 C16 1_555 1_555
H17 C21 1_555 1_555
C22 C7 1_555 1_555
C23 C22 1_555 1_555
H18 C23 1_555 1_555
C24 C23 1_555 1_555
H19 C24 1_555 1_555
C25 C24 1_555 1_555
H20 C25 1_555 1_555
C26 C25 1_555 1_555
H21 C26 1_555 1_555
C27 C22 1_555 1_555
H22 C27 1_555 1_555
C3 C4 1_555 1_555
C7 C8 1_555 1_555
C14 C15 1_555 1_555
C20 C21 1_555 1_555
C26 C27 1_555 1_555

#END
