
#######################################################################
#
#                 Cambridge Crystallographic Data Centre
#                                CCDC 
#
#######################################################################
#
# If this CIF has been generated from an entry in the Cambridge 
# Structural Database, then it will include bibliographic, chemical, 
# crystal, experimental, refinement or atomic coordinate data resulting 
# from the CCDC's data processing and validation procedures.
#
#######################################################################

data_HAPGAG
_chemical_formula_moiety         'C20 H54 B4 Li2 N4 Si2'
_chemical_name_systematic        
closo-exo-5,6-(bis(\m~2~-Hydrido)-tetramethylethylenediamine-lithium)-1-(tetramethylethylenediamine-lithium)-2,4-bis(trimethylsilyl)-2,4-dicarbaheptaborane
_symmetry_cell_setting           monoclinic
_symmetry_space_group_name_H-M   'P 21/n'
_symmetry_Int_Tables_number      14
_space_group_name_Hall           '-P 2yn'
loop_
_symmetry_equiv_pos_site_id
_symmetry_equiv_pos_as_xyz
1 x,y,z
2 1/2-x,1/2+y,1/2-z
3 -x,-y,-z
4 1/2+x,1/2-y,1/2+z
_cell_length_a                   9.828(4)
_cell_length_b                   22.267(7)
_cell_length_c                   15.064(5)
_cell_angle_alpha                90
_cell_angle_beta                 95.87(3)
_cell_angle_gamma                90
_cell_volume                     3279.32
_exptl_crystal_colour            colorless
_cell_formula_units_Z            4
_chemical_properties_physical    'Extremely air- and moisture-sensitive'
loop_
_atom_site_label
_atom_site_type_symbol
_atom_site_fract_x
_atom_site_fract_y
_atom_site_fract_z
Li1 Li 0.5397(8) 0.6335(3) 0.2495(5)
Li2 Li 0.3521(9) 0.7966(3) 0.2617(5)
Si1 Si 0.3372(2) 0.6192(1) 0.4529(1)
Si2 Si 0.2239(2) 0.6336(1) 0.0647(1)
C1 C 0.3643(5) 0.6400(2) 0.3387(3)
B1 B 0.3161(6) 0.6019(3) 0.2554(4)
C2 C 0.3163(4) 0.6435(2) 0.1747(3)
B2 B 0.3764(6) 0.7066(3) 0.2028(4)
B3 B 0.4070(6) 0.7042(3) 0.3109(4)
B4 B 0.2493(6) 0.6753(3) 0.2638(4)
C3 C 0.2195(6) 0.5540(2) 0.4579(4)
C4 C 0.2672(7) 0.6821(3) 0.5153(4)
C5 C 0.5041(6) 0.5980(3) 0.5151(4)
C6 C 0.1506(7) 0.5572(2) 0.0479(4)
C7 C 0.3443(5) 0.6453(3) -0.0216(3)
C8 C 0.0830(6) 0.6886(3) 0.0428(4)
N1 N 0.6365(5) 0.5521(2) 0.2097(3)
N2 N 0.7498(5) 0.6602(2) 0.2796(4)
C9 C 0.7795(6) 0.5652(3) 0.2077(6)
C10 C 0.8348(7) 0.6079(3) 0.2718(6)
C11 C 0.5778(7) 0.5260(3) 0.1272(5)
C12 C 0.6151(6) 0.5108(3) 0.2806(5)
C13 C 0.7682(6) 0.7026(3) 0.2108(5)
C14 C 0.7824(7) 0.6877(4) 0.3642(6)
N3 N 0.2062(5) 0.8523(2) 0.3062(3)
N4 N 0.4477(5) 0.8737(2) 0.2210(3)
C15 C 0.2346(6) 0.9111(3) 0.2681(5)
C16 C 0.3803(7) 0.9216(2) 0.2656(4)
C17 C 0.0683(6) 0.8355(3) 0.2741(4)
C18 C 0.2189(7) 0.8531(3) 0.4018(4)
C19 C 0.5924(6) 0.8743(3) 0.2473(5)
C20 C 0.4243(7) 0.8791(3) 0.1244(4)
H1 H 0.2782(36) 0.5548(17) 0.2530(22)
H2 H 0.3604(33) 0.7467(16) 0.1581(22)
H3 H 0.4224(31) 0.7411(15) 0.3566(21)
H4 H 0.1328(41) 0.6870(16) 0.2661(25)
H5 H 0.1315 0.5637 0.4276
H6 H 0.2573 0.5203 0.4292
H7 H 0.2096 0.5441 0.5190
H8 H 0.1802 0.6947 0.4864
H9 H 0.2565 0.6692 0.5749
H10 H 0.3303 0.7152 0.5172
H11 H 0.5422 0.5654 0.4842
H12 H 0.5652 0.6317 0.5171
H13 H 0.4915 0.5858 0.5748
H14 H 0.0881 0.5500 0.0918
H15 H 0.1029 0.5538 -0.0107
H16 H 0.2229 0.5280 0.0548
H17 H 0.3829 0.6848 -0.0142
H18 H 0.4162 0.6160 -0.0146
H19 H 0.2961 0.6418 -0.0801
H20 H 0.0188 0.6831 0.0860
H21 H 0.1198 0.7285 0.0479
H22 H 0.0374 0.6829 -0.0161
H23 H 0.7930 0.5803 0.1495
H24 H 0.8286 0.5280 0.2158
H25 H 0.8474 0.5882 0.3288
H26 H 0.9230 0.6206 0.2569
H27 H 0.6260 0.4901 0.1140
H28 H 0.4839 0.5164 0.1331
H29 H 0.5822 0.5544 0.0796
H30 H 0.6550 0.4727 0.2689
H31 H 0.6576 0.5266 0.3359
H32 H 0.5188 0.5058 0.2845
H33 H 0.8602 0.7177 0.2182
H34 H 0.7522 0.6825 0.1543
H35 H 0.7052 0.7354 0.2126
H36 H 0.8775 0.6984 0.3719
H37 H 0.7277 0.7232 0.3679
H38 H 0.7631 0.6600 0.4100
H39 H 0.1966 0.9420 0.3027
H40 H 0.1911 0.9134 0.2082
H41 H 0.3957 0.9591 0.2368
H42 H 0.4212 0.9242 0.3261
H43 H 0.0051 0.8630 0.2968
H44 H 0.0584 0.8369 0.2101
H45 H 0.0498 0.7955 0.2935
H46 H 0.1512 0.8794 0.4223
H47 H 0.2062 0.8132 0.4237
H48 H 0.3085 0.8672 0.4234
H49 H 0.6327 0.9104 0.2271
H50 H 0.6055 0.8727 0.3113
H51 H 0.6352 0.8401 0.2231
H52 H 0.4686 0.9147 0.1059
H53 H 0.4615 0.8446 0.0972
H54 H 0.3279 0.8816 0.1062
loop_
_geom_bond_atom_site_label_1
_geom_bond_atom_site_label_2
_geom_bond_site_symmetry_1
_geom_bond_site_symmetry_2
Li1 C1 1_555 1_555
Li2 N3 1_555 1_555
Si1 C1 1_555 1_555
Si2 C2 1_555 1_555
C1 B1 1_555 1_555
B1 Li1 1_555 1_555
C2 Li1 1_555 1_555
B2 Li1 1_555 1_555
B3 Li1 1_555 1_555
B4 C1 1_555 1_555
C3 Si1 1_555 1_555
C4 Si1 1_555 1_555
C5 Si1 1_555 1_555
C6 Si2 1_555 1_555
C7 Si2 1_555 1_555
C8 Si2 1_555 1_555
N1 Li1 1_555 1_555
N2 Li1 1_555 1_555
C9 N1 1_555 1_555
C10 N2 1_555 1_555
C11 N1 1_555 1_555
C12 N1 1_555 1_555
C13 N2 1_555 1_555
C14 N2 1_555 1_555
N3 C15 1_555 1_555
N4 Li2 1_555 1_555
C15 C16 1_555 1_555
C16 N4 1_555 1_555
C17 N3 1_555 1_555
C18 N3 1_555 1_555
C19 N4 1_555 1_555
C20 N4 1_555 1_555
H1 B1 1_555 1_555
H2 Li2 1_555 1_555
H3 Li2 1_555 1_555
H4 B4 1_555 1_555
H5 C3 1_555 1_555
H6 C3 1_555 1_555
H7 C3 1_555 1_555
H8 C4 1_555 1_555
H9 C4 1_555 1_555
H10 C4 1_555 1_555
H11 C5 1_555 1_555
H12 C5 1_555 1_555
H13 C5 1_555 1_555
H14 C6 1_555 1_555
H15 C6 1_555 1_555
H16 C6 1_555 1_555
H17 C7 1_555 1_555
H18 C7 1_555 1_555
H19 C7 1_555 1_555
H20 C8 1_555 1_555
H21 C8 1_555 1_555
H22 C8 1_555 1_555
H23 C9 1_555 1_555
H24 C9 1_555 1_555
H25 C10 1_555 1_555
H26 C10 1_555 1_555
H27 C11 1_555 1_555
H28 C11 1_555 1_555
H29 C11 1_555 1_555
H30 C12 1_555 1_555
H31 C12 1_555 1_555
H32 C12 1_555 1_555
H33 C13 1_555 1_555
H34 C13 1_555 1_555
H35 C13 1_555 1_555
H36 C14 1_555 1_555
H37 C14 1_555 1_555
H38 C14 1_555 1_555
H39 C15 1_555 1_555
H40 C15 1_555 1_555
H41 C16 1_555 1_555
H42 C16 1_555 1_555
H43 C17 1_555 1_555
H44 C17 1_555 1_555
H45 C17 1_555 1_555
H46 C18 1_555 1_555
H47 C18 1_555 1_555
H48 C18 1_555 1_555
H49 C19 1_555 1_555
H50 C19 1_555 1_555
H51 C19 1_555 1_555
H52 C20 1_555 1_555
H53 C20 1_555 1_555
H54 C20 1_555 1_555
C1 B3 1_555 1_555
B1 C2 1_555 1_555
B1 B4 1_555 1_555
C2 B2 1_555 1_555
C2 B4 1_555 1_555
B2 B3 1_555 1_555
B2 B4 1_555 1_555
B2 H2 1_555 1_555
B3 B4 1_555 1_555
B3 H3 1_555 1_555
C9 C10 1_555 1_555

#END
