
#######################################################################
#
#                 Cambridge Crystallographic Data Centre
#                                CCDC 
#
#######################################################################
#
# If this CIF has been generated from an entry in the Cambridge 
# Structural Database, then it will include bibliographic, chemical, 
# crystal, experimental, refinement or atomic coordinate data resulting 
# from the CCDC's data processing and validation procedures.
#
#######################################################################

data_HAPKAM
_chemical_formula_moiety         'C20 H12 N4 S4'
_chemical_name_systematic        
5,10-bis(4-methyl-2-thienyl)[1,2,5]thiadiazolo[3',4':5,6]naphtho[1,2-c][1,2,5]thiadiazole
_symmetry_cell_setting           monoclinic
_symmetry_space_group_name_H-M   'C 2/c'
_symmetry_Int_Tables_number      15
_space_group_name_Hall           '-C 2yn'
loop_
_symmetry_equiv_pos_site_id
_symmetry_equiv_pos_as_xyz
1 x,y,z
2 -x,y,1/2-z
3 1/2+x,1/2+y,z
4 1/2-x,1/2+y,1/2-z
5 -x,-y,-z
6 x,-y,1/2+z
7 1/2-x,1/2-y,-z
8 1/2+x,1/2-y,1/2+z
_cell_length_a                   11.7955(15)
_cell_length_b                   8.5619(9)
_cell_length_c                   18.814(2)
_cell_angle_alpha                90
_cell_angle_beta                 106.7224(13)
_cell_angle_gamma                90
_cell_volume                     1819.71
_exptl_crystal_colour            red
_exptl_crystal_description       platelet
_cell_formula_units_Z            4
loop_
_atom_site_label
_atom_site_type_symbol
_atom_site_fract_x
_atom_site_fract_y
_atom_site_fract_z
S1 S 0.97898(5) 0.12405(5) 0.35201(3)
S2 S 1.26976(5) 0.17023(5) 0.68966(3)
N1 N 0.93045(15) 0.29680(17) 0.36113(10)
N2 N 1.06795(14) 0.09568(18) 0.43366(9)
C1 C 0.98398(16) 0.34043(19) 0.43124(11)
C2 C 1.06377(16) 0.22545(19) 0.47381(11)
C3 C 1.13076(15) 0.2539(2) 0.54965(11)
C4 C 1.11433(16) 0.3981(2) 0.57753(11)
H1 H 1.1582 0.4223 0.6258
C5 C 1.03377(15) 0.51237(19) 0.53644(10)
C6 C 1.20901(17) 0.13689(19) 0.59545(12)
C7 C 1.24293(16) -0.0067(2) 0.57664(12)
H2 H 1.2195 -0.0459 0.5285
C8 C 1.31749(16) -0.0899(2) 0.63794(12)
C9 C 1.33931(17) -0.0070(2) 0.70178(12)
H3 H 1.3870 -0.0426 0.7473
C10 C 1.3641(2) -0.2521(2) 0.63226(14)
H4 H 1.4184 -0.2810 0.6790
H5 H 1.4042 -0.2537 0.5945
H6 H 1.2994 -0.3247 0.6196
S1D S 1.02102(5) 0.87595(5) 0.64799(3)
S2D S 0.73024(5) 0.82977(5) 0.31034(3)
N1D N 1.06955(15) 0.70320(17) 0.63887(10)
N2D N 0.93205(14) 0.90432(18) 0.56634(9)
C1D C 1.01602(16) 0.65957(19) 0.56876(11)
C2D C 0.93623(16) 0.77455(19) 0.52619(11)
C3D C 0.86924(15) 0.7461(2) 0.45035(11)
C4D C 0.88567(16) 0.6019(2) 0.42247(11)
H1D H 0.8418 0.5777 0.3742
C5D C 0.96623(15) 0.48763(19) 0.46356(10)
C6D C 0.79099(17) 0.86311(19) 0.40455(12)
C7D C 0.75707(16) 1.0067(2) 0.42336(12)
H2D H 0.7805 1.0459 0.4715
C8D C 0.68251(16) 1.0899(2) 0.36206(12)
C9D C 0.66069(17) 1.0070(2) 0.29822(12)
H3D H 0.6130 1.0426 0.2527
C10D C 0.6359(2) 1.2521(2) 0.36774(14)
H4D H 0.5816 1.2810 0.3210
H5D H 0.5958 1.2537 0.4055
H6D H 0.7006 1.3247 0.3804
loop_
_geom_bond_atom_site_label_1
_geom_bond_atom_site_label_2
_geom_bond_site_symmetry_1
_geom_bond_site_symmetry_2
S1 N1 1_555 1_555
S2 C6 1_555 1_555
N1 C1 1_555 1_555
N2 S1 1_555 1_555
C1 C2 1_555 1_555
C2 N2 1_555 1_555
C3 C2 1_555 1_555
C4 C3 1_555 1_555
H1 C4 1_555 1_555
C5 C4 1_555 1_555
C6 C3 1_555 1_555
C7 C6 1_555 1_555
H2 C7 1_555 1_555
C8 C7 1_555 1_555
C9 S2 1_555 1_555
H3 C9 1_555 1_555
C10 C8 1_555 1_555
H4 C10 1_555 1_555
H5 C10 1_555 1_555
H6 C10 1_555 1_555
S1D N1D 1_555 1_555
S2D C6D 1_555 1_555
N1D C1D 1_555 1_555
N2D S1D 1_555 1_555
C1D C5 1_555 1_555
C2D N2D 1_555 1_555
C3D C2D 1_555 1_555
C4D C3D 1_555 1_555
H1D C4D 1_555 1_555
C5D C1 1_555 1_555
C6D C3D 1_555 1_555
C7D C6D 1_555 1_555
H2D C7D 1_555 1_555
C8D C7D 1_555 1_555
C9D S2D 1_555 1_555
H3D C9D 1_555 1_555
C10D C8D 1_555 1_555
H4D C10D 1_555 1_555
H5D C10D 1_555 1_555
H6D C10D 1_555 1_555
C5 C5D 1_555 1_555
C8 C9 1_555 1_555
C1D C2D 1_555 1_555
C4D C5D 1_555 1_555
C8D C9D 1_555 1_555

#END
