
#######################################################################
#
#                 Cambridge Crystallographic Data Centre
#                                CCDC 
#
#######################################################################
#
# If this CIF has been generated from an entry in the Cambridge 
# Structural Database, then it will include bibliographic, chemical, 
# crystal, experimental, refinement or atomic coordinate data resulting 
# from the CCDC's data processing and validation procedures.
#
#######################################################################

data_HAPPUM
_chemical_formula_moiety         'C24 H56 Cl4 Mg2 O8 S4'
_chemical_name_systematic        
'bis(\m-chloro)-dichloro-tetrakis(di-n-propyl sulfone)-di-magnesium'
_symmetry_cell_setting           orthorhombic
_symmetry_space_group_name_H-M   'P b c a'
_symmetry_Int_Tables_number      61
_space_group_name_Hall           '-P 2ac 2ab'
loop_
_symmetry_equiv_pos_site_id
_symmetry_equiv_pos_as_xyz
1 x,y,z
2 1/2+x,1/2-y,-z
3 -x,1/2+y,1/2-z
4 1/2-x,-y,1/2+z
5 -x,-y,-z
6 1/2-x,1/2+y,z
7 x,1/2-y,1/2+z
8 1/2+x,y,1/2-z
_cell_length_a                   18.1880(11)
_cell_length_b                   20.5207(11)
_cell_length_c                   21.6182(13)
_cell_angle_alpha                90
_cell_angle_beta                 90
_cell_angle_gamma                90
_cell_volume                     8068.57
_exptl_crystal_colour            white
_exptl_crystal_description       block
_cell_formula_units_Z            8
loop_
_atom_site_label
_atom_site_type_symbol
_atom_site_fract_x
_atom_site_fract_y
_atom_site_fract_z
Mg1 Mg 0.74979(15) 0.54607(9) 0.48539(9)
Mg2 Mg 0.74598(13) 0.42830(9) 0.37113(8)
Cl1 Cl 0.75386(11) 0.43183(7) 0.48868(7)
Cl2 Cl 0.85697(11) 0.58652(10) 0.52652(9)
Cl3 Cl 0.75799(11) 0.55108(7) 0.37628(7)
Cl4 Cl 0.64641(12) 0.59464(10) 0.52209(10)
S1 S 0.76234(10) 0.43152(8) 0.21343(7)
S2 S 0.57179(10) 0.46826(9) 0.34603(9)
S3 S 0.72221(10) 0.26213(9) 0.36242(8)
S4 S 0.93488(9) 0.4310(1) 0.37775(8)
O1 O 0.7381(2) 0.4285(2) 0.27687(17)
O2 O 0.8396(2) 0.4396(3) 0.2032(2)
O3 O 0.6336(2) 0.4352(2) 0.3762(2)
O4 O 0.5896(2) 0.5138(2) 0.2972(2)
O5 O 0.7409(3) 0.32940(17) 0.37670(19)
O6 O 0.6903(3) 0.2488(2) 0.3032(2)
O7 O 0.8572(2) 0.4206(2) 0.3636(2)
O8 O 0.9851(3) 0.3966(3) 0.3384(2)
C1 C 0.7326(3) 0.3592(3) 0.1779(3)
C2 C 0.6508(4) 0.3447(3) 0.1879(3)
C3 C 0.6265(4) 0.2811(3) 0.1588(4)
C4 C 0.7149(4) 0.4965(3) 0.1781(3)
C5 C 0.7419(4) 0.5617(3) 0.2008(3)
C6 C 0.6985(5) 0.6179(4) 0.1717(4)
C7 C 0.5214(3) 0.5068(3) 0.4036(3)
C8 C 0.4577(3) 0.5474(3) 0.3816(3)
C9 C 0.4279(5) 0.5915(4) 0.4310(4)
C10 C 0.5141(4) 0.4071(3) 0.3159(3)
C11 C 0.4953(4) 0.3520(3) 0.3582(3)
C12 C 0.4586(4) 0.2972(4) 0.3242(4)
C13 C 0.6608(4) 0.2337(3) 0.4204(3)
C14 C 0.6642(4) 0.2688(3) 0.4817(3)
C15 C 0.7343(4) 0.2611(3) 0.5180(3)
C16 C 0.8041(4) 0.2167(3) 0.3694(3)
C17 C 0.8601(4) 0.2367(3) 0.3219(3)
C18 C 0.9271(4) 0.1912(4) 0.3269(4)
C19 C 0.9485(4) 0.4088(4) 0.4550(3)
C20 C 0.9388(4) 0.3358(4) 0.4635(3)
C21 C 0.9495(5) 0.3143(4) 0.5301(4)
C22 C 0.9529(4) 0.5155(3) 0.3741(4)
C23 C 0.9444(4) 0.5415(4) 0.3087(3)
C24 C 0.9487(5) 0.6158(4) 0.3067(4)
H1 H 0.7613 0.3237 0.1946
H2 H 0.7415 0.3639 0.1336
H3 H 0.6413 0.3420 0.2317
H4 H 0.6221 0.3802 0.1708
H5 H 0.6556 0.2465 0.1754
H6 H 0.5752 0.2740 0.1713
H7 H 0.6298 0.2830 0.1154
H8 H 0.7226 0.4942 0.1340
H9 H 0.6636 0.4919 0.1875
H10 H 0.7928 0.5664 0.1909
H11 H 0.7355 0.5634 0.2452
H12 H 0.6477 0.6159 0.1844
H13 H 0.7194 0.6588 0.1845
H14 H 0.7010 0.6147 0.1275
H15 H 0.5323 0.5012 0.4435
H16 H 0.5542 0.5357 0.4254
H17 H 0.4194 0.5181 0.3674
H18 H 0.4745 0.5743 0.3470
H19 H 0.4646 0.6228 0.4425
H20 H 0.4144 0.5667 0.4670
H21 H 0.3856 0.6137 0.4154
H22 H 0.5374 0.3897 0.2792
H23 H 0.4680 0.4281 0.3045
H24 H 0.5394 0.3362 0.3774
H25 H 0.4614 0.3682 0.3900
H26 H 0.4943 0.2763 0.2974
H27 H 0.4406 0.2655 0.3530
H28 H 0.4186 0.3115 0.2991
H29 H 0.6709 0.1880 0.4272
H30 H 0.6118 0.2391 0.4038
H31 H 0.6242 0.2518 0.5074
H32 H 0.6562 0.3150 0.4742
H33 H 0.7750 0.2817 0.4968
H34 H 0.7284 0.2814 0.5581
H35 H 0.7448 0.2160 0.5237
H36 H 0.8232 0.2232 0.4110
H37 H 0.7926 0.1707 0.3637
H38 H 0.8755 0.2815 0.3297
H39 H 0.8383 0.2333 0.2809
H40 H 0.9482 0.1932 0.3674
H41 H 0.9636 0.2038 0.2971
H42 H 0.9121 0.1471 0.3177
H43 H 0.9143 0.4321 0.4807
H44 H 0.9980 0.4204 0.4656
H45 H 0.8900 0.3235 0.4501
H46 H 0.9743 0.3133 0.4382
H47 H 0.9136 0.3348 0.5562
H48 H 0.9977 0.3263 0.5439
H49 H 0.9444 0.2679 0.5327
H50 H 0.9195 0.5377 0.4016
H51 H 1.0028 0.5230 0.3878
H52 H 0.8975 0.5274 0.2924
H53 H 0.9839 0.5236 0.2836
H54 H 0.9095 0.6336 0.3316
H55 H 0.9955 0.6289 0.3226
H56 H 0.9438 0.6306 0.2644
loop_
_geom_bond_atom_site_label_1
_geom_bond_atom_site_label_2
_geom_bond_site_symmetry_1
_geom_bond_site_symmetry_2
Mg1 Cl1 1_555 1_555
Mg2 Cl1 1_555 1_555
Cl2 Mg1 1_555 1_555
Cl3 Mg1 1_555 1_555
Cl4 Mg1 1_555 1_555
S1 O1 1_555 1_555
S2 O3 1_555 1_555
S3 O5 1_555 1_555
S4 O7 1_555 1_555
O1 Mg2 1_555 1_555
O2 S1 1_555 1_555
O3 Mg2 1_555 1_555
O4 S2 1_555 1_555
O5 Mg2 1_555 1_555
O6 S3 1_555 1_555
O7 Mg2 1_555 1_555
O8 S4 1_555 1_555
C1 S1 1_555 1_555
C2 C1 1_555 1_555
C3 C2 1_555 1_555
C4 S1 1_555 1_555
C5 C4 1_555 1_555
C6 C5 1_555 1_555
C7 S2 1_555 1_555
C8 C7 1_555 1_555
C9 C8 1_555 1_555
C10 S2 1_555 1_555
C11 C10 1_555 1_555
C12 C11 1_555 1_555
C13 S3 1_555 1_555
C14 C13 1_555 1_555
C15 C14 1_555 1_555
C16 S3 1_555 1_555
C17 C16 1_555 1_555
C18 C17 1_555 1_555
C19 S4 1_555 1_555
C20 C19 1_555 1_555
C21 C20 1_555 1_555
C22 S4 1_555 1_555
C23 C22 1_555 1_555
C24 C23 1_555 1_555
H1 C1 1_555 1_555
H2 C1 1_555 1_555
H3 C2 1_555 1_555
H4 C2 1_555 1_555
H5 C3 1_555 1_555
H6 C3 1_555 1_555
H7 C3 1_555 1_555
H8 C4 1_555 1_555
H9 C4 1_555 1_555
H10 C5 1_555 1_555
H11 C5 1_555 1_555
H12 C6 1_555 1_555
H13 C6 1_555 1_555
H14 C6 1_555 1_555
H15 C7 1_555 1_555
H16 C7 1_555 1_555
H17 C8 1_555 1_555
H18 C8 1_555 1_555
H19 C9 1_555 1_555
H20 C9 1_555 1_555
H21 C9 1_555 1_555
H22 C10 1_555 1_555
H23 C10 1_555 1_555
H24 C11 1_555 1_555
H25 C11 1_555 1_555
H26 C12 1_555 1_555
H27 C12 1_555 1_555
H28 C12 1_555 1_555
H29 C13 1_555 1_555
H30 C13 1_555 1_555
H31 C14 1_555 1_555
H32 C14 1_555 1_555
H33 C15 1_555 1_555
H34 C15 1_555 1_555
H35 C15 1_555 1_555
H36 C16 1_555 1_555
H37 C16 1_555 1_555
H38 C17 1_555 1_555
H39 C17 1_555 1_555
H40 C18 1_555 1_555
H41 C18 1_555 1_555
H42 C18 1_555 1_555
H43 C19 1_555 1_555
H44 C19 1_555 1_555
H45 C20 1_555 1_555
H46 C20 1_555 1_555
H47 C21 1_555 1_555
H48 C21 1_555 1_555
H49 C21 1_555 1_555
H50 C22 1_555 1_555
H51 C22 1_555 1_555
H52 C23 1_555 1_555
H53 C23 1_555 1_555
H54 C24 1_555 1_555
H55 C24 1_555 1_555
H56 C24 1_555 1_555
Mg2 Cl3 1_555 1_555

#END
