
#######################################################################
#
#                 Cambridge Crystallographic Data Centre
#                                CCDC 
#
#######################################################################
#
# If this CIF has been generated from an entry in the Cambridge 
# Structural Database, then it will include bibliographic, chemical, 
# crystal, experimental, refinement or atomic coordinate data resulting 
# from the CCDC's data processing and validation procedures.
#
#######################################################################

data_HAPQEX02
_chemical_formula_moiety         'C6 H16 N1 1+,C2 Cl3 O2 1-'
_chemical_name_systematic        'di-n-propylammonium trichloroacetate'
_symmetry_cell_setting           orthorhombic
_symmetry_space_group_name_H-M   'P 21 21 21'
_symmetry_Int_Tables_number      19
_space_group_name_Hall           'P 2ac 2ab'
loop_
_symmetry_equiv_pos_site_id
_symmetry_equiv_pos_as_xyz
1 x,y,z
2 1/2-x,-y,1/2+z
3 1/2+x,1/2-y,-z
4 -x,1/2+y,1/2-z
_cell_length_a                   8.60820(10)
_cell_length_b                   16.5540(3)
_cell_length_c                   17.9068(3)
_cell_angle_alpha                90
_cell_angle_beta                 90
_cell_angle_gamma                90
_cell_volume                     2551.72
_exptl_crystal_colour            colorless
_exptl_crystal_description       block
_cell_formula_units_Z            8
loop_
_atom_site_label
_atom_site_type_symbol
_atom_site_fract_x
_atom_site_fract_y
_atom_site_fract_z
Cl1 Cl 0.88827(10) 0.83182(5) 0.06130(5)
Cl2 Cl 0.55625(10) 0.84045(5) 0.06070(5)
Cl3 Cl 0.71951(13) 0.79223(5) -0.07310(5)
O1 O 0.6077(3) 0.97624(16) -0.04311(15)
C1 C 0.7256(4) 0.85708(18) 0.00618(17)
O2 O 0.8645(3) 0.97308(15) -0.03326(14)
C2 C 0.7325(4) 0.94544(17) -0.02576(16)
Cl4 Cl 0.57025(11) 0.74465(7) -0.25648(6)
Cl5 Cl 0.89923(11) 0.74665(7) -0.27617(7)
Cl6 Cl 0.7500(2) 0.60820(7) -0.21057(5)
O3 O 0.8394(3) 0.60657(15) -0.37742(14)
C3 C 0.7170(4) 0.64097(18) -0.35677(16)
O4 O 0.5904(3) 0.64323(15) -0.38670(13)
C4 C 0.7322(4) 0.6844(2) -0.27813(17)
N1 N 0.2843(3) 0.97899(15) -0.03717(14)
H1 H 0.3909 0.9788 -0.0332
H2 H 0.2557 1.0253 -0.0620
C5 C 0.2341(4) 0.90738(18) -0.08173(17)
H3 H 0.1196 0.9077 -0.0866
H4 H 0.2643 0.8573 -0.0552
C6 C 0.2153(4) 0.98003(19) 0.03926(17)
H5 H 0.2577 0.9343 0.0685
H6 H 0.1014 0.9726 0.0354
C7 C 0.2491(4) 1.0586(2) 0.08001(18)
H7 H 0.1895 1.0592 0.1273
H8 H 0.2118 1.1042 0.0490
C8 C 0.3071(4) 0.9077(2) -0.15881(19)
H9 H 0.4201 0.8977 -0.1544
H10 H 0.2923 0.9614 -0.1821
C9 C 0.4204(4) 1.0719(2) 0.0978(2)
H11 H 0.4603 1.0256 0.1260
H12 H 0.4320 1.1212 0.1277
H13 H 0.4790 1.0776 0.0512
C10 C 0.2342(5) 0.8432(2) -0.2078(2)
H14 H 0.2490 0.7901 -0.1848
H15 H 0.2836 0.8439 -0.2571
H16 H 0.1228 0.8541 -0.2133
N2 N 0.1614(3) 0.61003(16) -0.37617(15)
H17 H 0.0576 0.6148 -0.3647
H18 H 0.1712 0.5700 -0.4115
C11 C 0.1914(4) 0.5056(2) -0.2771(2)
H19 H 0.2004 0.4635 -0.3162
H20 H 0.0806 0.5102 -0.2629
C12 C 0.2176(4) 0.68826(19) -0.40865(18)
H21 H 0.3276 0.6822 -0.4239
H22 H 0.2126 0.7308 -0.3699
C13 C 0.2874(5) 0.4807(3) -0.2087(2)
H23 H 0.3969 0.4757 -0.2229
H24 H 0.2498 0.4287 -0.1899
H25 H 0.2767 0.5218 -0.1697
C14 C 0.1217(4) 0.7143(2) -0.4758(2)
H26 H 0.0104 0.7130 -0.4620
H27 H 0.1485 0.7709 -0.4884
C15 C 0.1452(5) 0.6622(2) -0.5448(2)
H28 H 0.2548 0.6637 -0.5595
H29 H 0.0810 0.6829 -0.5857
H30 H 0.1151 0.6064 -0.5336
C16 C 0.2481(4) 0.5860(2) -0.30783(18)
H31 H 0.2352 0.6282 -0.2692
H32 H 0.3601 0.5818 -0.3197
loop_
_geom_bond_atom_site_label_1
_geom_bond_atom_site_label_2
_geom_bond_site_symmetry_1
_geom_bond_site_symmetry_2
Cl1 C1 1_555 1_555
Cl2 C1 1_555 1_555
Cl3 C1 1_555 1_555
O1 C2 1_555 1_555
C1 C2 1_555 1_555
O2 C2 1_555 1_555
Cl4 C4 1_555 1_555
Cl5 C4 1_555 1_555
Cl6 C4 1_555 1_555
O3 C3 1_555 1_555
C3 O4 1_555 1_555
C4 C3 1_555 1_555
N1 H1 1_555 1_555
H2 N1 1_555 1_555
C5 N1 1_555 1_555
H3 C5 1_555 1_555
H4 C5 1_555 1_555
C6 N1 1_555 1_555
H5 C6 1_555 1_555
H6 C6 1_555 1_555
C7 C6 1_555 1_555
H7 C7 1_555 1_555
H8 C7 1_555 1_555
C8 C5 1_555 1_555
H9 C8 1_555 1_555
H10 C8 1_555 1_555
C9 C7 1_555 1_555
H11 C9 1_555 1_555
H12 C9 1_555 1_555
H13 C9 1_555 1_555
C10 C8 1_555 1_555
H14 C10 1_555 1_555
H15 C10 1_555 1_555
H16 C10 1_555 1_555
N2 H17 1_555 1_555
H18 N2 1_555 1_555
C11 H19 1_555 1_555
H20 C11 1_555 1_555
C12 N2 1_555 1_555
H21 C12 1_555 1_555
H22 C12 1_555 1_555
C13 C11 1_555 1_555
H23 C13 1_555 1_555
H24 C13 1_555 1_555
H25 C13 1_555 1_555
C14 C12 1_555 1_555
H26 C14 1_555 1_555
H27 C14 1_555 1_555
C15 C14 1_555 1_555
H28 C15 1_555 1_555
H29 C15 1_555 1_555
H30 C15 1_555 1_555
C16 N2 1_555 1_555
H31 C16 1_555 1_555
H32 C16 1_555 1_555
C11 C16 1_555 1_555

#END
