
#######################################################################
#
#                 Cambridge Crystallographic Data Centre
#                                CCDC 
#
#######################################################################
#
# If this CIF has been generated from an entry in the Cambridge 
# Structural Database, then it will include bibliographic, chemical, 
# crystal, experimental, refinement or atomic coordinate data resulting 
# from the CCDC's data processing and validation procedures.
#
#######################################################################

data_HAPWIG
_chemical_formula_moiety         'C24 H38 Li2 O4 S2'
_chemical_name_systematic        
bis(\m~2~-2-Thienyl)-tetrakis(tetrahydrofuran)-di-lithium
_symmetry_cell_setting           triclinic
_symmetry_space_group_name_H-M   'P -1'
_symmetry_Int_Tables_number      2
_space_group_name_Hall           '-P 1'
loop_
_symmetry_equiv_pos_site_id
_symmetry_equiv_pos_as_xyz
1 x,y,z
2 -x,-y,-z
_cell_length_a                   9.303(2)
_cell_length_b                   9.531(3)
_cell_length_c                   14.945(2)
_cell_angle_alpha                97.29(2)
_cell_angle_beta                 97.15(2)
_cell_angle_gamma                98.03(2)
_cell_volume                     1287.82
_exptl_crystal_colour            colorless
_exptl_crystal_description       block
_cell_formula_units_Z            2
loop_
_atom_site_label
_atom_site_type_symbol
_atom_site_fract_x
_atom_site_fract_y
_atom_site_fract_z
Li1 Li 0.2716(2) 0.3732(2) 0.28225(15)
Li2 Li 0.1431(2) 0.1309(2) 0.21102(15)
S1 S 0.40052(7) 0.14310(12) 0.40607(6)
C1 C 0.23816(14) 0.19046(13) 0.35873(9)
C2 C 0.1413(4) 0.1618(6) 0.4192(4)
H1 H 0.0431 0.1794 0.4081
C3 C 0.1925(7) 0.1052(14) 0.4988(5)
H2 H 0.1339 0.0815 0.5441
C4 C 0.3364(6) 0.0894(9) 0.5017(4)
H3 H 0.3926 0.0543 0.5490
S2 S 0.36574(7) 0.26413(7) 0.07553(5)
C5 C 0.2185(3) 0.2954(3) 0.1330(2)
C6 C 0.1529(5) 0.3933(7) 0.0864(4)
H4 H 0.0715 0.4323 0.1059
C7 C 0.2134(4) 0.4322(4) 0.0083(2)
H5 H 0.1778 0.4987 -0.0278
C8 C 0.3276(5) 0.3634(5) -0.0085(3)
H6 H 0.3784 0.3698 -0.0595
O1 O 0.46451(13) 0.49535(16) 0.30915(9)
C9 C 0.5766(2) 0.5151(2) 0.38683(13)
H7 H 0.5721 0.4279 0.4166
H8 H 0.5647 0.5968 0.4318
C10 C 0.7223(2) 0.5450(5) 0.3501(2)
H9 H 0.7767 0.4632 0.3531
H10 H 0.7843 0.6322 0.3854
C11 C 0.6788(2) 0.5664(2) 0.25077(15)
H11 H 0.7385 0.6528 0.2363
H12 H 0.6905 0.4821 0.2079
C12 C 0.51929(17) 0.58427(19) 0.24673(13)
H13 H 0.5097 0.6855 0.2657
H14 H 0.4658 0.5524 0.1843
O2 O 0.1347(5) 0.5110(7) 0.3241(4)
C13 C 0.1213(8) 0.6376(7) 0.2825(4)
H15 H 0.0267 0.6249 0.2416
H16 H 0.2020 0.6576 0.2463
C14 C 0.1289(4) 0.7595(2) 0.35964(16)
H17 H 0.1784 0.8507 0.3447
H18 H 0.0297 0.7719 0.3736
C15 C 0.2182(4) 0.7106(4) 0.4382(2)
H19 H 0.3246 0.7355 0.4366
H20 H 0.1951 0.7536 0.4975
C16 C 0.1706(10) 0.5516(6) 0.4219(5)
H21 H 0.2507 0.5025 0.4463
H22 H 0.0839 0.5254 0.4521
O3 O 0.17817(13) -0.06138(13) 0.16539(9)
C17 C 0.3315(4) -0.0737(6) 0.17308(16)
H23 H 0.3611 -0.1197 0.2268
H24 H 0.3922 0.0220 0.1796
C18 C 0.3499(3) -0.1656(3) 0.08550(18)
H25 H 0.4434 -0.1311 0.0643
H26 H 0.3475 -0.2671 0.0942
C19 C 0.2209(3) -0.1479(2) 0.01954(13)
H27 H 0.2415 -0.0600 -0.0086
H28 H 0.1935 -0.2316 -0.0291
C20 C 0.1040(2) -0.1373(2) 0.07840(12)
H29 H 0.0292 -0.0839 0.0520
H30 H 0.0552 -0.2338 0.0852
O4 O -0.06992(10) 0.10208(10) 0.20255(7)
C21 C -0.1414(8) 0.2227(6) 0.2303(9)
H31 H -0.1344 0.2926 0.1868
H32 H -0.0960 0.2716 0.2918
C22 C -0.3013(3) 0.1586(3) 0.2306(3)
H33 H -0.3502 0.2209 0.2712
H34 H -0.3577 0.1399 0.1685
C23 C -0.2806(3) 0.0204(4) 0.2676(3)
H35 H -0.3714 -0.0511 0.2529
H36 H -0.2497 0.0377 0.3345
C24 C -0.1589(7) -0.0272(6) 0.2171(6)
H37 H -0.0994 -0.0836 0.2539
H38 H -0.2010 -0.0870 0.1581
C25? C 0.744(3) 0.545(6) 0.355(3)
C26? C 0.696(2) 0.618(2) 0.2744(16)
C27? C 0.5680(19) 0.511(2) 0.2226(10)
C28? C 0.1443(19) 0.6492(14) 0.2874(8)
C29? C 0.2133(8) 0.7606(4) 0.3652(3)
C30? C 0.1577(8) 0.6979(7) 0.4456(4)
C31? C 0.147(2) 0.5380(12) 0.4183(9)
C32? C 0.337(4) -0.062(7) 0.1754(15)
C33? C 0.395(3) -0.142(3) 0.0971(16)
C34? C 0.334(2) -0.080(3) 0.0164(11)
C35? C 0.3594(10) 0.1523(14) 0.4087(8)
C36? C 0.1828(19) -0.054(3) 0.0388(10)
C37? C -0.1490(18) 0.2147(13) 0.2306(17)
C38? C -0.2709(6) 0.1433(6) 0.2732(5)
C39? C -0.2961(7) -0.0123(7) 0.2270(6)
C40? C -0.1393(12) -0.0334(11) 0.2264(11)
C41? C 0.340(2) 0.103(3) 0.4927(13)
C42? C 0.199(2) 0.100(5) 0.5085(17)
C43? C 0.2474(12) 0.3176(16) 0.1364(9)
C44? C 0.3799(11) 0.3273(13) 0.0868(6)
C45? C 0.3413(19) 0.380(2) 0.0035(11)
C46? C 0.2029(16) 0.4090(17) -0.0131(8)
C47? C 0.597(3) 0.487(3) 0.3784(12)
H39? H 0.8003 0.4669 0.3375
H40? H 0.8037 0.6136 0.4059
H41? H 0.6645 0.7104 0.2947
H42? H 0.7752 0.6346 0.2368
H43? H 0.4966 0.5597 0.1886
H44? H 0.6024 0.4404 0.1788
H45? H 0.0397 0.6563 0.2701
H46? H 0.1958 0.6574 0.2337
H47? H 0.1805 0.8537 0.3589
H48? H 0.3217 0.7732 0.3712
H49? H 0.2273 0.7320 0.5024
H50? H 0.0606 0.7237 0.4546
H51? H 0.2272 0.5017 0.4542
H52? H 0.0521 0.4875 0.4292
H53? H 0.3227 -0.1229 0.2235
H54? H 0.4067 0.0261 0.2024
H55? H 0.5035 -0.1248 0.1058
H56? H 0.3597 -0.2459 0.0905
H57? H 0.3254 -0.1489 -0.0404
H58? H 0.3957 0.0102 0.0100
H59? H 0.4517 0.1589 0.3872
H60? H 0.1531 0.0287 0.0118
H61? H 0.1079 -0.1397 0.0150
H62? H -0.1880 0.2577 0.1776
H63? H -0.0850 0.2906 0.2752
H64? H -0.3604 0.1874 0.2616
H65? H -0.2425 0.1497 0.3399
H66? H -0.3479 -0.0778 0.2632
H67? H -0.3506 -0.0241 0.1646
H68? H -0.0943 -0.0497 0.2870
H69? H -0.1316 -0.1154 0.1803
H70? H 0.4160 0.0762 0.5326
H71? H 0.1621 0.0694 0.5606
H72? H 0.4725 0.3023 0.1074
H73? H 0.4093 0.3948 -0.0381
H74? H 0.1598 0.4320 -0.0693
H75? H 0.6040 0.4061 0.4132
H76? H 0.5577 0.5629 0.4155
O5? O 0.5014(16) 0.4397(18) 0.2916(10)
O6? O 0.1604(12) 0.5151(13) 0.3228(9)
O7? O 0.1991(17) -0.0264(19) 0.1367(9)
S3? S 0.0975(3) 0.1576(4) 0.4220(3)
S4? S 0.1172(6) 0.3984(8) 0.0798(5)
loop_
_geom_bond_atom_site_label_1
_geom_bond_atom_site_label_2
_geom_bond_site_symmetry_1
_geom_bond_site_symmetry_2
Li1 C1 1_555 1_555
Li2 C1 1_555 1_555
S1 C1 1_555 1_555
C1 C2 1_555 1_555
C2 H1 1_555 1_555
C3 C2 1_555 1_555
H2 C3 1_555 1_555
C4 S1 1_555 1_555
H3 C4 1_555 1_555
S2 C5 1_555 1_555
C5 Li1 1_555 1_555
C6 C5 1_555 1_555
H4 C6 1_555 1_555
C7 C6 1_555 1_555
H5 C7 1_555 1_555
C8 S2 1_555 1_555
H6 C8 1_555 1_555
O1 Li1 1_555 1_555
C9 O1 1_555 1_555
H7 C9 1_555 1_555
H8 C9 1_555 1_555
C10 C9 1_555 1_555
H9 C10 1_555 1_555
H10 C10 1_555 1_555
C11 C10 1_555 1_555
H11 C11 1_555 1_555
H12 C11 1_555 1_555
C12 O1 1_555 1_555
H13 C12 1_555 1_555
H14 C12 1_555 1_555
O2 Li1 1_555 1_555
C13 O2 1_555 1_555
H15 C13 1_555 1_555
H16 C13 1_555 1_555
C14 C13 1_555 1_555
H17 C14 1_555 1_555
H18 C14 1_555 1_555
C15 C14 1_555 1_555
H19 C15 1_555 1_555
H20 C15 1_555 1_555
C16 O2 1_555 1_555
H21 C16 1_555 1_555
H22 C16 1_555 1_555
O3 Li2 1_555 1_555
C17 O3 1_555 1_555
H23 C17 1_555 1_555
H24 C17 1_555 1_555
C18 C17 1_555 1_555
H25 C18 1_555 1_555
H26 C18 1_555 1_555
C19 C18 1_555 1_555
H27 C19 1_555 1_555
H28 C19 1_555 1_555
C20 O3 1_555 1_555
H29 C20 1_555 1_555
H30 C20 1_555 1_555
O4 Li2 1_555 1_555
C21 O4 1_555 1_555
H31 C21 1_555 1_555
H32 C21 1_555 1_555
C22 C21 1_555 1_555
H33 C22 1_555 1_555
H34 C22 1_555 1_555
C23 C22 1_555 1_555
H35 C23 1_555 1_555
H36 C23 1_555 1_555
C24 O4 1_555 1_555
H37 C24 1_555 1_555
H38 C24 1_555 1_555
Li2 C5 1_555 1_555
C3 C4 1_555 1_555
C7 C8 1_555 1_555
C11 C12 1_555 1_555
C15 C16 1_555 1_555
C19 C20 1_555 1_555
C23 C24 1_555 1_555

#END
