
#######################################################################
#
#                 Cambridge Crystallographic Data Centre
#                                CCDC 
#
#######################################################################
#
# If this CIF has been generated from an entry in the Cambridge 
# Structural Database, then it will include bibliographic, chemical, 
# crystal, experimental, refinement or atomic coordinate data resulting 
# from the CCDC's data processing and validation procedures.
#
#######################################################################

data_HAPWOM
_chemical_formula_moiety         'C16 H26 Li2 O4 S2'
_chemical_name_systematic        
bis(\m~2~-2-Thienyl)-bis(1,2-dimethoxyethane)-di-lithium
_symmetry_cell_setting           triclinic
_symmetry_space_group_name_H-M   'P -1'
_symmetry_Int_Tables_number      2
_space_group_name_Hall           '-P 1'
loop_
_symmetry_equiv_pos_site_id
_symmetry_equiv_pos_as_xyz
1 x,y,z
2 -x,-y,-z
_cell_length_a                   8.625(2)
_cell_length_b                   10.471(2)
_cell_length_c                   12.749(2)
_cell_angle_alpha                76.66(2)
_cell_angle_beta                 81.73(2)
_cell_angle_gamma                67.47(2)
_cell_volume                     1032.85
_exptl_crystal_colour            colorless
_exptl_crystal_description       block
_cell_formula_units_Z            2
loop_
_atom_site_label
_atom_site_type_symbol
_atom_site_fract_x
_atom_site_fract_y
_atom_site_fract_z
S1 S 0.15382(7) 0.04548(6) 0.12660(5)
C1 C 0.1073(3) 0.1764(3) 0.1998(2)
C2 C -0.0611(5) 0.2132(4) 0.2261(4)
H1 H -0.1170 0.2841 0.2680
C3 C -0.1516(3) 0.1455(2) 0.1910(3)
H2 H -0.2690 0.1661 0.2053
C4 C -0.0487(3) 0.0472(2) 0.13417(17)
H3 H -0.0825 -0.0116 0.1033
S2 S 0.2009(2) 0.40235(19) 0.44146(12)
C5 C 0.3160(17) 0.3283(16) 0.3343(11)
C6 C 0.4311(14) 0.3919(13) 0.3012(10)
H4 H 0.5114 0.3660 0.2431
C7 C 0.4284(8) 0.4965(7) 0.3546(4)
H5 H 0.5016 0.5479 0.3362
C8 C 0.3063(8) 0.5134(6) 0.4361(5)
H6 H 0.2827 0.5776 0.4833
O1 O 0.17245(14) 0.05291(11) 0.47745(9)
O2 O 0.45613(14) -0.04980(11) 0.35735(9)
O3 O 0.36238(16) 0.36064(14) 0.04584(9)
O4 O 0.07776(15) 0.54026(12) 0.12794(9)
Li1 Li 0.2138(4) 0.3387(3) 0.1802(2)
Li2 Li 0.2644(4) 0.1382(3) 0.3386(2)
C9 C 0.0661(2) 0.12161(19) 0.55960(14)
H7 H 0.0118 0.0596 0.6053
H8 H -0.0200 0.2091 0.5263
H9 H 0.1333 0.1435 0.6038
C10 C 0.2975(2) -0.07811(17) 0.52191(13)
H10 H 0.2434 -0.1391 0.5714
H11 H 0.3744 -0.0613 0.5632
C11 C 0.3923(2) -0.14704(17) 0.43088(14)
H12 H 0.4863 -0.2345 0.4579
H13 H 0.3175 -0.1719 0.3938
C12 C 0.5595(2) -0.1105(2) 0.27085(16)
H14 H 0.6521 -0.1959 0.3000
H15 H 0.6053 -0.0427 0.2247
H16 H 0.4924 -0.1346 0.2282
C13 C 0.4471(3) 0.2496(2) -0.01143(17)
H17 H 0.3645 0.2245 -0.0391
H18 H 0.5184 0.1674 0.0371
H19 H 0.5171 0.2800 -0.0719
C14 C 0.2670(3) 0.4896(2) -0.02222(15)
H20 H 0.1836 0.4742 -0.0588
H21 H 0.3427 0.5228 -0.0781
C15 C 0.1799(3) 0.5960(2) 0.04694(15)
H22 H 0.2633 0.6149 0.0809
H23 H 0.1093 0.6855 0.0031
C16 C -0.0085(3) 0.6334(2) 0.20061(18)
H24 H 0.0735 0.6490 0.2370
H25 H -0.0776 0.5917 0.2545
H26 H -0.0808 0.7235 0.1604
C17? C 0.134(3) 0.177(5) 0.217(4)
C18? C 0.139(3) 0.089(3) 0.155(2)
C19? C 0.014(3) 0.041(3) 0.138(3)
C20? C -0.123(3) 0.117(4) 0.195(4)
C21? C 0.299(3) 0.332(3) 0.3329(19)
C22? C 0.2180(17) 0.3996(14) 0.4151(9)
C23? C 0.2667(13) 0.4911(11) 0.4533(9)
C24? C 0.4021(14) 0.5038(10) 0.3892(7)
H27? H 0.2440 0.0517 0.1155
H28? H 0.0225 -0.0267 0.0970
H29? H -0.2271 0.1032 0.2062
H30? H 0.1202 0.3830 0.4491
H31? H 0.2155 0.5362 0.5128
H32? H 0.4591 0.5627 0.3965
S3? S -0.0815(19) 0.2407(17) 0.2427(14)
S4? S 0.4572(6) 0.4000(6) 0.2934(4)
loop_
_geom_bond_atom_site_label_1
_geom_bond_atom_site_label_2
_geom_bond_site_symmetry_1
_geom_bond_site_symmetry_2
S1 C1 1_555 1_555
C1 C2 1_555 1_555
C2 H1 1_555 1_555
C3 C2 1_555 1_555
H2 C3 1_555 1_555
C4 S1 1_555 1_555
H3 C4 1_555 1_555
S2 C5 1_555 1_555
C5 C6 1_555 1_555
C6 H4 1_555 1_555
C7 C6 1_555 1_555
H5 C7 1_555 1_555
C8 S2 1_555 1_555
H6 C8 1_555 1_555
O1 Li2 1_555 1_555
O2 Li2 1_555 1_555
O3 Li1 1_555 1_555
O4 Li1 1_555 1_555
Li1 C1 1_555 1_555
Li2 C1 1_555 1_555
C9 O1 1_555 1_555
H7 C9 1_555 1_555
H8 C9 1_555 1_555
H9 C9 1_555 1_555
C10 O1 1_555 1_555
H10 C10 1_555 1_555
H11 C10 1_555 1_555
C11 O2 1_555 1_555
H12 C11 1_555 1_555
H13 C11 1_555 1_555
C12 O2 1_555 1_555
H14 C12 1_555 1_555
H15 C12 1_555 1_555
H16 C12 1_555 1_555
C13 O3 1_555 1_555
H17 C13 1_555 1_555
H18 C13 1_555 1_555
H19 C13 1_555 1_555
C14 O3 1_555 1_555
H20 C14 1_555 1_555
H21 C14 1_555 1_555
C15 O4 1_555 1_555
H22 C15 1_555 1_555
H23 C15 1_555 1_555
C16 O4 1_555 1_555
H24 C16 1_555 1_555
H25 C16 1_555 1_555
H26 C16 1_555 1_555
C3 C4 1_555 1_555
C5 Li1 1_555 1_555
C5 Li2 1_555 1_555
C7 C8 1_555 1_555
C10 C11 1_555 1_555
C14 C15 1_555 1_555

#END
