
#######################################################################
#
#                 Cambridge Crystallographic Data Centre
#                                CCDC 
#
#######################################################################
#
# If this CIF has been generated from an entry in the Cambridge 
# Structural Database, then it will include bibliographic, chemical, 
# crystal, experimental, refinement or atomic coordinate data resulting 
# from the CCDC's data processing and validation procedures.
#
#######################################################################

data_HAQBAF
_chemical_formula_moiety         'C27 H26 N2 O4'
_chemical_name_systematic        
"benzyl 6-ethylidene-2-oxo-1,2,4a,5,6,7-hexahydro-4H-5,9-methanopyrano[4',3':4,5]azocino[3,4-b]indole-8(9H)-carboxylate"
_symmetry_cell_setting           orthorhombic
_symmetry_space_group_name_H-M   'P 21 21 21'
_symmetry_Int_Tables_number      19
_space_group_name_Hall           'P 2ac 2ab'
loop_
_symmetry_equiv_pos_site_id
_symmetry_equiv_pos_as_xyz
1 x,y,z
2 1/2-x,-y,1/2+z
3 -x,1/2+y,1/2-z
4 1/2+x,1/2-y,-z
_cell_length_a                   7.9238(5)
_cell_length_b                   11.0281(8)
_cell_length_c                   25.0507(18)
_cell_angle_alpha                90
_cell_angle_beta                 90
_cell_angle_gamma                90
_cell_volume                     2189.04
_exptl_crystal_colour            colorless
_exptl_crystal_description       block
_cell_formula_units_Z            4
loop_
_atom_site_label
_atom_site_type_symbol
_atom_site_fract_x
_atom_site_fract_y
_atom_site_fract_z
O1 O -0.4423(6) -0.1414(4) -0.60296(17)
C1 C -0.7157(9) -0.0601(5) -0.5728(2)
N1 N -0.3948(7) -0.3008(4) -0.65593(18)
O2 O -0.6083(7) -0.6837(5) -0.59371(19)
C2 C -0.9892(12) 0.0125(7) -0.5488(3)
H1 H -1.0638 0.0770 -0.5448
O3 O -0.5691(6) -0.1517(4) -0.68389(17)
C3 C -0.8280(11) 0.0332(6) -0.5684(3)
H2 H -0.7963 0.1110 -0.5786
N2 N -0.6441(7) -0.4092(5) -0.7655(2)
O4 O -0.7815(8) -0.5705(6) -0.5480(2)
C4 C -1.0393(11) -0.1026(8) -0.5353(3)
H3 H -1.1491 -0.1170 -0.5237
C5 C -0.9246(11) -0.1976(7) -0.5389(3)
H4 H -0.9561 -0.2756 -0.5289
C6 C -0.4784(8) -0.1948(5) -0.6509(2)
C7 C -0.5392(10) -0.0342(6) -0.5918(3)
H5 H -0.5452 0.0147 -0.6240
H6 H -0.4810 0.0130 -0.5648
C8 C -0.7631(10) -0.1756(5) -0.5576(3)
H7 H -0.6859 -0.2389 -0.5599
C9 C -0.2780(10) -0.3500(6) -0.6162(3)
H8 H -0.3096 -0.3198 -0.5812
H9 H -0.1652 -0.3208 -0.6240
C10 C -0.2752(8) -0.4883(5) -0.6146(2)
C11 C -0.3046(8) -0.5511(5) -0.6682(2)
H10 H -0.2181 -0.6141 -0.6716
C12 C -0.2711(8) -0.4586(5) -0.7123(2)
H11 H -0.1592 -0.4243 -0.7079
H12 H -0.2759 -0.4981 -0.7468
C13 C -0.4022(8) -0.3586(5) -0.7097(2)
H13 H -0.3793 -0.2980 -0.7373
C14 C -0.5662(8) -0.4191(5) -0.7205(2)
C15 C -0.6276(8) -0.5225(5) -0.6851(2)
C16 C -0.4764(9) -0.6123(5) -0.6797(2)
H14 H -0.4640 -0.6490 -0.7151
C17 C -0.5258(10) -0.7159(6) -0.6432(3)
H15 H -0.6001 -0.7697 -0.6629
H16 H -0.4247 -0.7615 -0.6346
C18 C -0.6996(9) -0.5828(7) -0.5873(3)
C19 C -0.6901(9) -0.4839(6) -0.6287(3)
H17 H -0.6155 -0.4210 -0.6155
H18 H -0.8014 -0.4484 -0.6325
C20 C -0.2263(10) -0.5404(6) -0.5699(3)
H19 H -0.2120 -0.4889 -0.5409
C21 C -0.1907(13) -0.6717(7) -0.5599(4)
H20 H -0.2832 -0.7071 -0.5407
H21 H -0.0892 -0.6794 -0.5393
H22 H -0.1768 -0.7129 -0.5934
C22 C -0.7674(8) -0.5711(5) -0.7202(2)
C23 C -0.7698(9) -0.5009(6) -0.7664(2)
C24 C -0.8820(10) -0.5235(7) -0.8072(3)
H23 H -0.8819 -0.4760 -0.8378
C25 C -0.9938(10) -0.6174(8) -0.8017(3)
H24 H -1.0684 -0.6355 -0.8292
C26 C -0.9962(9) -0.6860(7) -0.7550(3)
H25 H -1.0740 -0.7486 -0.7516
C27 C -0.8852(8) -0.6627(6) -0.7136(3)
H26 H -0.8896 -0.7075 -0.6822
loop_
_geom_bond_atom_site_label_1
_geom_bond_atom_site_label_2
_geom_bond_site_symmetry_1
_geom_bond_site_symmetry_2
O1 C6 1_555 1_555
C1 C3 1_555 1_555
N1 C6 1_555 1_555
O2 C17 1_555 1_555
C2 H1 1_555 1_555
O3 C6 1_555 1_555
C3 C2 1_555 1_555
H2 C3 1_555 1_555
N2 C14 1_555 1_555
O4 C18 1_555 1_555
C4 C2 1_555 1_555
H3 C4 1_555 1_555
C5 C4 1_555 1_555
H4 C5 1_555 1_555
C7 O1 1_555 1_555
H5 C7 1_555 1_555
H6 C7 1_555 1_555
C8 C1 1_555 1_555
H7 C8 1_555 1_555
C9 N1 1_555 1_555
H8 C9 1_555 1_555
H9 C9 1_555 1_555
C10 C9 1_555 1_555
C11 C10 1_555 1_555
H10 C11 1_555 1_555
C12 C11 1_555 1_555
H11 C12 1_555 1_555
H12 C12 1_555 1_555
C13 N1 1_555 1_555
H13 C13 1_555 1_555
C14 C13 1_555 1_555
C15 C14 1_555 1_555
C16 C11 1_555 1_555
H14 C16 1_555 1_555
C17 C16 1_555 1_555
H15 C17 1_555 1_555
H16 C17 1_555 1_555
C18 O2 1_555 1_555
C19 C15 1_555 1_555
H17 C19 1_555 1_555
H18 C19 1_555 1_555
C20 C10 1_555 1_555
H19 C20 1_555 1_555
C21 C20 1_555 1_555
H20 C21 1_555 1_555
H21 C21 1_555 1_555
H22 C21 1_555 1_555
C22 C15 1_555 1_555
C23 N2 1_555 1_555
C24 C23 1_555 1_555
H23 C24 1_555 1_555
C25 C24 1_555 1_555
H24 C25 1_555 1_555
C26 C25 1_555 1_555
H25 C26 1_555 1_555
C27 C22 1_555 1_555
H26 C27 1_555 1_555
C1 C7 1_555 1_555
C5 C8 1_555 1_555
C12 C13 1_555 1_555
C15 C16 1_555 1_555
C18 C19 1_555 1_555
C22 C23 1_555 1_555
C26 C27 1_555 1_555

#END
