
#######################################################################
#
#                 Cambridge Crystallographic Data Centre
#                                CCDC 
#
#######################################################################
#
# If this CIF has been generated from an entry in the Cambridge 
# Structural Database, then it will include bibliographic, chemical, 
# crystal, experimental, refinement or atomic coordinate data resulting 
# from the CCDC's data processing and validation procedures.
#
#######################################################################

data_HARCEL
_chemical_name_common            tetralone
_chemical_formula_moiety         'C15 H18 O1'
_chemical_name_systematic        
7-methyl-1,3,4,4a,9a,10-hexahydroanthracen-9(2H)-one
_symmetry_cell_setting           orthorhombic
_symmetry_space_group_name_H-M   'P c a 21'
_symmetry_Int_Tables_number      29
_space_group_name_Hall           'P 2c -2ac'
loop_
_symmetry_equiv_pos_site_id
_symmetry_equiv_pos_as_xyz
1 x,y,z
2 -x,-y,1/2+z
3 1/2+x,-y,z
4 1/2-x,y,1/2+z
_cell_length_a                   12.8499(15)
_cell_length_b                   5.2950(6)
_cell_length_c                   17.600(2)
_cell_angle_alpha                90
_cell_angle_beta                 90
_cell_angle_gamma                90
_cell_volume                     1197.51
_exptl_crystal_colour            colorless
_exptl_crystal_description       Block
_chemical_melting_point          '364-366 K'
_cell_formula_units_Z            4
loop_
_atom_site_label
_atom_site_type_symbol
_atom_site_fract_x
_atom_site_fract_y
_atom_site_fract_z
C1 C 0.3279(2) 0.3297(5) 0.55812(16)
O1 O 0.27120(16) 0.2004(4) 0.59826(13)
C2 C 0.32682(18) 0.2994(5) 0.47422(14)
C3 C 0.2555(3) 0.0844(5) 0.3643(2)
C4 C 0.2574(2) 0.1278(5) 0.44171(17)
H1 H 0.2114 0.0406 0.4729
C5 C 0.3948(3) 0.3867(7) 0.35098(17)
H2 H 0.4413 0.4713 0.3195
C6 C 0.3252(3) 0.2163(7) 0.31979(19)
H3 H 0.3255 0.1899 0.2675
C7 C 0.3964(2) 0.4336(5) 0.42892(15)
C8 C 0.4700(2) 0.6233(5) 0.46305(18)
H4 H 0.4385 0.7895 0.4606
H5 H 0.5333 0.6275 0.4331
C9 C 0.4977(2) 0.5644(4) 0.54524(15)
H6 H 0.5339 0.7123 0.5658
C10 C 0.57107(19) 0.3390(5) 0.55307(17)
H7 H 0.5390 0.1922 0.5299
H8 H 0.6350 0.3744 0.5257
C11 C 0.5971(2) 0.2790(6) 0.63516(18)
H9 H 0.6398 0.1280 0.6373
H10 H 0.6367 0.4172 0.6570
C12 C 0.4988(3) 0.2384(5) 0.68076(17)
H11 H 0.5170 0.2105 0.7336
H12 H 0.4636 0.0884 0.6624
C13 C 0.4249(2) 0.4645(5) 0.67524(15)
H13 H 0.3612 0.4270 0.7025
H14 H 0.4570 0.6105 0.6989
C14 C 0.3993(2) 0.5254(5) 0.59275(15)
H15 H 0.3614 0.6861 0.5927
C15 C 0.1810(3) -0.1051(7) 0.3302(2)
H16 H 0.1851 -0.0973 0.2758
H17 H 0.1113 -0.0666 0.3461
H18 H 0.1992 -0.2718 0.3470
loop_
_geom_bond_atom_site_label_1
_geom_bond_atom_site_label_2
_geom_bond_site_symmetry_1
_geom_bond_site_symmetry_2
C1 O1 1_555 1_555
C2 C1 1_555 1_555
C3 C4 1_555 1_555
C4 C2 1_555 1_555
H1 C4 1_555 1_555
C5 H2 1_555 1_555
C6 C3 1_555 1_555
H3 C6 1_555 1_555
C7 C2 1_555 1_555
C8 C7 1_555 1_555
H4 C8 1_555 1_555
H5 C8 1_555 1_555
C9 C8 1_555 1_555
H6 C9 1_555 1_555
C10 C9 1_555 1_555
H7 C10 1_555 1_555
H8 C10 1_555 1_555
C11 C10 1_555 1_555
H9 C11 1_555 1_555
H10 C11 1_555 1_555
C12 C11 1_555 1_555
H11 C12 1_555 1_555
H12 C12 1_555 1_555
C13 C12 1_555 1_555
H13 C13 1_555 1_555
H14 C13 1_555 1_555
C14 C1 1_555 1_555
H15 C14 1_555 1_555
C15 C3 1_555 1_555
H16 C15 1_555 1_555
H17 C15 1_555 1_555
H18 C15 1_555 1_555
C5 C6 1_555 1_555
C5 C7 1_555 1_555
C9 C14 1_555 1_555
C13 C14 1_555 1_555

#END
