
#######################################################################
#
#                 Cambridge Crystallographic Data Centre
#                                CCDC 
#
#######################################################################
#
# If this CIF has been generated from an entry in the Cambridge 
# Structural Database, then it will include bibliographic, chemical, 
# crystal, experimental, refinement or atomic coordinate data resulting 
# from the CCDC's data processing and validation procedures.
#
#######################################################################

data_HARGOZ
_chemical_formula_moiety         'C23 H23 F3 N4 O5'
_chemical_name_systematic        
1-(2,4-dinitrophenyl)-2-({3-[3-(2,2,2-trifluoroethyl)-2-oxaspiro[4.4]nonan-3-yl]phenyl}methylidene)hydrazine
_symmetry_cell_setting           triclinic
_symmetry_space_group_name_H-M   'P 1'
_symmetry_Int_Tables_number      1
_space_group_name_Hall           'P 1'
loop_
_symmetry_equiv_pos_site_id
_symmetry_equiv_pos_as_xyz
1 x,y,z
_cell_length_a                   8.4899(4)
_cell_length_b                   15.6292(7)
_cell_length_c                   17.5790(8)
_cell_angle_alpha                80.236(2)
_cell_angle_beta                 82.522(2)
_cell_angle_gamma                87.461(2)
_cell_volume                     2278.63
_exptl_crystal_colour            red
_exptl_crystal_description       plate
_cell_formula_units_Z            4
loop_
_atom_site_label
_atom_site_type_symbol
_atom_site_fract_x
_atom_site_fract_y
_atom_site_fract_z
O1 O 1.8286(6) 0.4648(3) -0.0152(3)
O2 O 1.9674(6) 0.3963(3) -0.0994(3)
O3 O 1.8774(8) 0.1045(4) -0.1117(4)
O4 O 1.6639(8) 0.0415(4) -0.0521(4)
N1 N 1.4662(6) 0.3830(3) 0.1406(3)
N2 N 1.5888(6) 0.3921(3) 0.0793(3)
H1 H 1.636614 0.442038 0.063710
N3 N 1.8578(6) 0.3985(3) -0.0465(3)
N4 N 1.7544(8) 0.1036(4) -0.0682(4)
C1 C 1.6329(7) 0.3231(4) 0.0443(3)
C2 C 1.7604(8) 0.3245(4) -0.0191(3)
C3 C 1.7980(8) 0.2519(4) -0.0545(3)
H2 H 1.882704 0.253203 -0.095671
C4 C 1.7108(8) 0.1781(4) -0.0291(4)
C5 C 1.5902(8) 0.1734(4) 0.0313(4)
H3 H 1.533352 0.121173 0.048209
C6 C 1.5517(8) 0.2440(4) 0.0674(4)
H4 H 1.467968 0.239666 0.109264
C7 C 1.4325(7) 0.4514(4) 0.1703(3)
H5 H 1.487214 0.503295 0.148568
C8 C 1.3111(7) 0.4512(4) 0.2371(4)
C9 C 1.2369(8) 0.3757(5) 0.2769(5)
H6 H 1.261723 0.322325 0.258545
C10 C 1.1311(10) 0.3769(6) 0.3406(6)
H7 H 1.080043 0.324870 0.365632
C11 C 1.0958(10) 0.4529(7) 0.3699(6)
H8 H 1.023997 0.452402 0.416186
C12 C 1.1646(8) 0.5299(5) 0.3323(4)
C13 C 1.2737(7) 0.5280(4) 0.2657(3)
H9 H 1.322977 0.580175 0.239594
F1 F 1.420(2) 0.5392(10) 0.4278(12)
F2 F 1.4377(15) 0.6390(8) 0.4858(7)
F3 F 1.2122(17) 0.5651(11) 0.5084(8)
O5 O 1.1383(11) 0.6928(6) 0.2910(6)
C14 C 1.1328(18) 0.6213(10) 0.3582(9)
C15 C 0.9759(19) 0.7242(12) 0.2802(10)
H10 H 0.922995 0.687037 0.251262
H11 H 0.974225 0.784993 0.252864
C16 C 0.901(3) 0.7168(13) 0.3632(13)
C17 C 0.9657(18) 0.6296(11) 0.4000(9)
H12 H 0.899073 0.581864 0.392890
H13 H 0.968549 0.627861 0.456363
C18 C 0.932(2) 0.7913(12) 0.4041(12)
H14 H 1.036349 0.817017 0.383211
H15 H 0.929521 0.771433 0.460785
C19 C 0.798(3) 0.8565(13) 0.3872(19)
H16 H 0.805003 0.882294 0.331393
H17 H 0.792045 0.903062 0.419262
C20 C 0.661(3) 0.7939(15) 0.4120(18)
H18 H 0.642980 0.777212 0.469265
H19 H 0.561237 0.820147 0.393574
C21 C 0.715(3) 0.7159(16) 0.3731(16)
H20 H 0.675751 0.721184 0.321886
H21 H 0.675782 0.661436 0.406025
C22 C 1.2813(18) 0.6593(11) 0.3904(9)
H22 H 1.371603 0.668908 0.348411
H23 H 1.250178 0.715825 0.406947
C23 C 1.330(2) 0.5974(13) 0.4569(11)
F7 F 0.8813(8) 0.0792(4) 1.4789(4)
F8 F 0.6786(9) 0.1524(6) 1.5115(3)
F9 F 0.8683(9) 0.2126(4) 1.4328(4)
O7 O 0.4515(7) 0.1905(6) 1.4064(4)
O8 O 1.3122(6) 0.4118(3) 0.9508(3)
O9 O 1.4180(8) 0.3561(3) 0.8516(3)
O10 O 1.3906(11) 0.0602(4) 0.8418(4)
O11 O 1.2338(8) -0.0239(3) 0.9254(3)
N5 N 1.0011(6) 0.3081(3) 1.1239(3)
N6 N 1.1162(6) 0.3243(3) 1.0605(3)
H38 H 1.158677 0.375754 1.046201
N7 N 1.3353(6) 0.3499(3) 0.9157(3)
N8 N 1.2944(9) 0.0477(4) 0.9008(4)
C34 C 1.1616(7) 0.2582(3) 1.0211(3)
C35 C 1.1049(8) 0.1737(4) 1.0500(4)
H39 H 1.034244 0.163979 1.096991
C36 C 1.1498(9) 0.1056(4) 1.0116(4)
H40 H 1.112550 0.049058 1.032722
C37 C 1.2500(9) 0.1193(4) 0.9417(4)
C38 C 1.3097(8) 0.1994(4) 0.9108(4)
H41 H 1.379634 0.207472 0.863473
C39 C 1.2660(7) 0.2682(3) 0.9497(3)
C40 C 0.9561(8) 0.3723(4) 1.1567(4)
H42 H 1.002445 0.427269 1.137905
C41 C 0.8328(8) 0.3623(4) 1.2237(3)
C42 C 0.7678(8) 0.2814(4) 1.2544(3)
H43 H 0.802771 0.232453 1.230643
C43 C 0.6541(7) 0.2711(5) 1.3184(3)
C44 C 0.6039(8) 0.3469(6) 1.3512(4)
H44 H 0.525204 0.341765 1.395341
C45 C 0.6659(9) 0.4267(5) 1.3209(4)
H45 H 0.629766 0.476491 1.343054
C46 C 0.7800(9) 0.4334(5) 1.2586(4)
H46 H 0.825031 0.488377 1.238207
C47 C 0.5842(8) 0.1824(6) 1.3483(4)
C48 C 0.7095(10) 0.1180(5) 1.3847(5)
H47 H 0.659460 0.060818 1.402114
H48 H 0.797503 0.110720 1.343260
C49 C 0.7790(12) 0.1424(7) 1.4516(5)
C50 C 0.5144(11) 0.1477(7) 1.2832(5)
H49 H 0.490709 0.196150 1.241842
H50 H 0.590769 0.106835 1.259793
C51 C 0.3651(12) 0.1022(6) 1.3199(6)
C52 C 0.3283(13) 0.1432(8) 1.3939(8)
H51 H 0.232741 0.181471 1.389607
H52 H 0.304179 0.096636 1.439202
C53 C 0.3818(16) 0.0023(6) 1.3406(7)
H53 H 0.492920 -0.017388 1.327320
H54 H 0.348946 -0.017513 1.396754
C54 C 0.284(2) -0.0284(10) 1.2970(12)
H55 H 0.245906 -0.086257 1.323433
H56 H 0.343039 -0.035268 1.245973
C55 C 0.1464(17) 0.0309(10) 1.2850(10)
H57 H 0.065883 0.024501 1.331521
H58 H 0.096235 0.021658 1.239321
C56 C 0.2267(17) 0.1203(9) 1.2707(10)
H59 H 0.265694 0.138581 1.214973
H60 H 0.152819 0.165565 1.288756
F10 F 0.7539(6) 0.4153(6) 0.4959(3)
F11 F 0.5272(6) 0.3852(6) 0.5509(4)
F12 F 0.6466(10) 0.4949(6) 0.5738(4)
O12 O 0.9999(5) 0.3989(3) 0.5854(3)
O13 O 0.2107(6) 0.5335(3) 1.0425(3)
O14 O 0.0714(6) 0.6042(3) 1.1248(3)
O15 O 0.1706(7) 0.8976(4) 1.1362(4)
O16 O 0.3926(8) 0.9535(4) 1.0795(4)
N9 N 0.5730(6) 0.6124(3) 0.8875(3)
N10 N 0.4530(6) 0.6048(3) 0.9472(3)
H61 H 0.403369 0.555301 0.961862
N11 N 0.1827(7) 0.5994(3) 1.0728(3)
N12 N 0.2956(8) 0.8949(4) 1.0944(4)
C57 C 0.4090(7) 0.6730(4) 0.9845(4)
C58 C 0.2840(7) 0.6734(3) 1.0445(3)
C59 C 0.2481(8) 0.7456(4) 1.0808(4)
H62 H 0.163311 0.743976 1.122019
C60 C 0.3351(9) 0.8186(4) 1.0570(4)
C61 C 0.4612(8) 0.8218(4) 0.9961(4)
H63 H 0.521826 0.872806 0.980010
C62 C 0.4953(8) 0.7520(4) 0.9608(4)
H64 H 0.578925 0.755103 0.919005
C63 C 0.6038(7) 0.5457(4) 0.8548(4)
H65 H 0.544850 0.494671 0.874468
C64 C 0.7251(7) 0.5445(4) 0.7887(4)
C65 C 0.8123(8) 0.6183(5) 0.7573(5)
H66 H 0.800569 0.669091 0.780654
C66 C 0.9181(10) 0.6145(6) 0.6896(7)
H67 H 0.975089 0.664936 0.665554
C67 C 0.9418(8) 0.5414(5) 0.6574(5)
H68 H 1.017145 0.541076 0.612492
C68 C 0.8573(7) 0.4666(5) 0.6894(4)
C69 C 0.7502(7) 0.4696(4) 0.7549(4)
H69 H 0.691703 0.419285 0.777755
C70 C 0.8853(7) 0.3852(5) 0.6536(4)
C71 C 0.9538(11) 0.3104(5) 0.7092(4)
H70 H 0.875602 0.263785 0.726470
H71 H 0.982602 0.331389 0.755519
C72 C 1.1040(10) 0.2767(6) 0.6614(4)
C73 C 1.1466(9) 0.3626(6) 0.6048(5)
H72 H 1.201570 0.402154 0.630559
H73 H 1.216055 0.350756 0.557826
C74 C 1.2425(15) 0.2449(8) 0.7067(7)
H74 H 1.307052 0.294359 0.711788
H75 H 1.202842 0.214709 0.759484
C75 C 1.340(2) 0.1837(11) 0.6617(9)
H76 H 1.429845 0.214112 0.627972
H77 H 1.382652 0.134854 0.697435
C76 C 1.231(2) 0.1518(10) 0.6145(10)
H78 H 1.207140 0.090236 0.635202
H79 H 1.282259 0.155627 0.560124
C77 C 1.0736(15) 0.2083(8) 0.6169(7)
H80 H 1.051802 0.233852 0.563724
H81 H 0.982169 0.172998 0.643355
C78 C 0.7326(9) 0.3558(6) 0.6279(4)
H82 H 0.753961 0.297873 0.612689
H83 H 0.649476 0.349021 0.673378
C79 C 0.6672(9) 0.4144(8) 0.5621(5)
F13 F 1.2008(16) 0.8618(8) 0.4913(5)
F14 F 1.1592(16) 0.9179(11) 0.5875(13)
F15 F 1.1369(10) 0.7860(7) 0.5955(6)
O17 O 1.3665(8) 0.8766(4) 0.7013(4)
O18 O 0.7242(6) 0.5904(3) 1.0752(3)
O19 O 0.6233(8) 0.6455(4) 1.1746(3)
O20 O 0.6785(13) 0.9407(4) 1.1923(4)
O21 O 0.8239(8) 1.0242(3) 1.1029(3)
N13 N 1.0376(6) 0.6929(3) 0.9039(3)
N14 N 0.9270(6) 0.6774(3) 0.9680(3)
H84 H 0.886225 0.625573 0.983151
N15 N 0.7030(7) 0.6522(4) 1.1125(3)
N16 N 0.7650(9) 0.9542(4) 1.1310(4)
C80 C 0.8816(7) 0.7424(4) 1.0075(3)
C81 C 0.7771(7) 0.7328(4) 1.0779(3)
C82 C 0.7384(8) 0.8031(4) 1.1174(4)
H85 H 0.669247 0.795560 1.165014
C83 C 0.7998(9) 0.8817(4) 1.0875(4)
C84 C 0.9009(9) 0.8947(4) 1.0180(4)
H86 H 0.942492 0.950513 0.997748
C85 C 0.9400(8) 0.8269(4) 0.9789(4)
H87 H 1.008508 0.836543 0.931214
C86 C 1.0850(8) 0.6260(4) 0.8717(3)
H88 H 1.043236 0.570422 0.892831
C87 C 1.2024(8) 0.6366(4) 0.8032(4)
C88 C 1.2562(10) 0.5605(5) 0.7725(4)
H89 H 1.216963 0.505165 0.796459
C89 C 1.3685(11) 0.5693(6) 0.7061(4)
H90 H 1.406839 0.519140 0.685070
C90 C 1.4221(10) 0.6468(7) 0.6722(4)
H91 H 1.498428 0.650523 0.627193
C91 C 1.3698(9) 0.7238(5) 0.7004(4)
C92 C 1.2605(8) 0.7168(4) 0.7667(4)
H92 H 1.224673 0.767590 0.787384
C93 C 1.4340(10) 0.8102(6) 0.6610(4)
C94 C 1.6150(12) 0.8154(8) 0.6563(7)
H93 H 1.663274 0.830444 0.601537
H94 H 1.660960 0.758995 0.679165
C95 C 1.6465(16) 0.8883(6) 0.7039(5)
C96 C 1.4832(18) 0.8870(7) 0.7534(6)
H95 H 1.478351 0.838040 0.797503
H96 H 1.462426 0.941882 0.774409
C97 C 1.800(2) 0.8675(9) 0.7509(9)
H97 H 1.770260 0.830241 0.801748
H98 H 1.884403 0.836854 0.720594
C98 C 1.855(3) 0.9475(10) 0.7618(10)
H99 H 1.971653 0.950815 0.748291
H100 H 1.826812 0.956382 0.816410
C99 C 1.765(3) 1.0190(10) 0.7032(10)
H101 H 1.683784 1.052507 0.732659
H102 H 1.841176 1.059858 0.670147
C100 C 1.690(2) 0.9684(8) 0.6563(8)
H103 H 1.595224 0.999727 0.637598
H104 H 1.765548 0.958079 0.610650
C101 C 1.3913(14) 0.8340(6) 0.5766(5)
H105 H 1.450722 0.886369 0.550961
H106 H 1.430403 0.786064 0.548266
C102 C 1.2221(14) 0.8507(6) 0.5669(6)
F4? F 1.373(2) 0.6501(12) 0.4331(10)
F5? F 1.314(3) 0.5483(16) 0.5437(11)
F6? F 1.390(4) 0.5080(16) 0.4398(19)
O6? O 1.1860(17) 0.6743(10) 0.3223(10)
C24? C 1.107(3) 0.6039(14) 0.3691(13)
C25? C 0.907(3) 0.7212(19) 0.3594(18)
C26? C 0.928(2) 0.6226(15) 0.3675(14)
H24? H 0.891461 0.601489 0.322872
H25? H 0.866691 0.593654 0.416111
C27? C 1.045(3) 0.7265(19) 0.2944(16)
H26? H 1.012301 0.703876 0.249615
H27? H 1.074668 0.787856 0.276734
C28? C 0.859(4) 0.7571(16) 0.4360(15)
H28? H 0.952968 0.767052 0.460818
H29? H 0.786417 0.717453 0.473163
C29? C 0.772(5) 0.8445(19) 0.406(3)
H30? H 0.844420 0.885254 0.370386
H31? H 0.721811 0.873073 0.449896
C30? C 0.645(4) 0.807(2) 0.363(2)
H32? H 0.545773 0.792192 0.398417
H33? H 0.619587 0.848833 0.317161
C31? C 0.729(4) 0.727(2) 0.339(2)
H34? H 0.729032 0.728346 0.282771
H35? H 0.671544 0.674403 0.367087
C32? C 1.139(2) 0.5848(16) 0.4526(11)
H36? H 1.084063 0.530917 0.478027
H37? H 1.091768 0.632495 0.479247
C33? C 1.313(3) 0.5739(16) 0.4654(15)
loop_
_geom_bond_atom_site_label_1
_geom_bond_atom_site_label_2
_geom_bond_site_symmetry_1
_geom_bond_site_symmetry_2
O1 N3 1_555 1_555
O2 N3 1_555 1_555
O3 N4 1_555 1_555
O4 N4 1_555 1_555
N1 N2 1_555 1_555
N2 H1 1_555 1_555
N3 C2 1_555 1_555
N4 C4 1_555 1_555
C1 N2 1_555 1_555
C2 C1 1_555 1_555
C3 C2 1_555 1_555
H2 C3 1_555 1_555
C4 C3 1_555 1_555
C5 C4 1_555 1_555
H3 C5 1_555 1_555
C6 C1 1_555 1_555
H4 C6 1_555 1_555
C7 N1 1_555 1_555
H5 C7 1_555 1_555
C8 C7 1_555 1_555
C9 C8 1_555 1_555
H6 C9 1_555 1_555
C10 C9 1_555 1_555
H7 C10 1_555 1_555
C11 C10 1_555 1_555
H8 C11 1_555 1_555
C12 C11 1_555 1_555
C13 C8 1_555 1_555
H9 C13 1_555 1_555
F1 C23 1_555 1_555
F2 C23 1_555 1_555
F3 C23 1_555 1_555
O5 C14 1_555 1_555
C14 C12 1_555 1_555
C15 O5 1_555 1_555
H10 C15 1_555 1_555
H11 C15 1_555 1_555
C16 C15 1_555 1_555
C17 C14 1_555 1_555
H12 C17 1_555 1_555
H13 C17 1_555 1_555
C18 C16 1_555 1_555
H14 C18 1_555 1_555
H15 C18 1_555 1_555
C19 C18 1_555 1_555
H16 C19 1_555 1_555
H17 C19 1_555 1_555
C20 C19 1_555 1_555
H18 C20 1_555 1_555
H19 C20 1_555 1_555
C21 C16 1_555 1_555
H20 C21 1_555 1_555
H21 C21 1_555 1_555
C22 C14 1_555 1_555
H22 C22 1_555 1_555
H23 C22 1_555 1_555
C23 C22 1_555 1_555
F7 C49 1_555 1_555
F8 C49 1_555 1_555
F9 C49 1_555 1_555
O7 C47 1_555 1_555
O8 N7 1_555 1_555
O9 N7 1_555 1_555
O10 N8 1_555 1_555
O11 N8 1_555 1_555
N5 N6 1_555 1_555
N6 H38 1_555 1_555
N7 C39 1_555 1_555
N8 C37 1_555 1_555
C34 N6 1_555 1_555
C35 C34 1_555 1_555
H39 C35 1_555 1_555
C36 C35 1_555 1_555
H40 C36 1_555 1_555
C37 C36 1_555 1_555
C38 C37 1_555 1_555
H41 C38 1_555 1_555
C39 C34 1_555 1_555
C40 N5 1_555 1_555
H42 C40 1_555 1_555
C41 C40 1_555 1_555
C42 C41 1_555 1_555
H43 C42 1_555 1_555
C43 C42 1_555 1_555
C44 C43 1_555 1_555
H44 C44 1_555 1_555
C45 C44 1_555 1_555
H45 C45 1_555 1_555
C46 C41 1_555 1_555
H46 C46 1_555 1_555
C47 C43 1_555 1_555
C48 C47 1_555 1_555
H47 C48 1_555 1_555
H48 C48 1_555 1_555
C49 C48 1_555 1_555
C50 C47 1_555 1_555
H49 C50 1_555 1_555
H50 C50 1_555 1_555
C51 C50 1_555 1_555
C52 O7 1_555 1_555
H51 C52 1_555 1_555
H52 C52 1_555 1_555
C53 C51 1_555 1_555
H53 C53 1_555 1_555
H54 C53 1_555 1_555
C54 C53 1_555 1_555
H55 C54 1_555 1_555
H56 C54 1_555 1_555
C55 C54 1_555 1_555
H57 C55 1_555 1_555
H58 C55 1_555 1_555
C56 C51 1_555 1_555
H59 C56 1_555 1_555
H60 C56 1_555 1_555
F10 C79 1_555 1_555
F11 C79 1_555 1_555
F12 C79 1_555 1_555
O12 C70 1_555 1_555
O13 N11 1_555 1_555
O14 N11 1_555 1_555
O15 N12 1_555 1_555
O16 N12 1_555 1_555
N9 N10 1_555 1_555
N10 H61 1_555 1_555
N11 C58 1_555 1_555
N12 C60 1_555 1_555
C57 N10 1_555 1_555
C58 C57 1_555 1_555
C59 C58 1_555 1_555
H62 C59 1_555 1_555
C60 C59 1_555 1_555
C61 C60 1_555 1_555
H63 C61 1_555 1_555
C62 C57 1_555 1_555
H64 C62 1_555 1_555
C63 N9 1_555 1_555
H65 C63 1_555 1_555
C64 C63 1_555 1_555
C65 C64 1_555 1_555
H66 C65 1_555 1_555
C66 C65 1_555 1_555
H67 C66 1_555 1_555
C67 C66 1_555 1_555
H68 C67 1_555 1_555
C68 C67 1_555 1_555
C69 C64 1_555 1_555
H69 C69 1_555 1_555
C70 C68 1_555 1_555
C71 C70 1_555 1_555
H70 C71 1_555 1_555
H71 C71 1_555 1_555
C72 C71 1_555 1_555
C73 O12 1_555 1_555
H72 C73 1_555 1_555
H73 C73 1_555 1_555
C74 C72 1_555 1_555
H74 C74 1_555 1_555
H75 C74 1_555 1_555
C75 C74 1_555 1_555
H76 C75 1_555 1_555
H77 C75 1_555 1_555
C76 C75 1_555 1_555
H78 C76 1_555 1_555
H79 C76 1_555 1_555
C77 C72 1_555 1_555
H80 C77 1_555 1_555
H81 C77 1_555 1_555
C78 C70 1_555 1_555
H82 C78 1_555 1_555
H83 C78 1_555 1_555
C79 C78 1_555 1_555
F13 C102 1_555 1_555
F14 C102 1_555 1_555
F15 C102 1_555 1_555
O17 C93 1_555 1_555
O18 N15 1_555 1_555
O19 N15 1_555 1_555
O20 N16 1_555 1_555
O21 N16 1_555 1_555
N13 N14 1_555 1_555
N14 H84 1_555 1_555
N15 C81 1_555 1_555
N16 C83 1_555 1_555
C80 N14 1_555 1_555
C81 C80 1_555 1_555
C82 C81 1_555 1_555
H85 C82 1_555 1_555
C83 C82 1_555 1_555
C84 C83 1_555 1_555
H86 C84 1_555 1_555
C85 C80 1_555 1_555
H87 C85 1_555 1_555
C86 N13 1_555 1_555
H88 C86 1_555 1_555
C87 C86 1_555 1_555
C88 C87 1_555 1_555
H89 C88 1_555 1_555
C89 C88 1_555 1_555
H90 C89 1_555 1_555
C90 C89 1_555 1_555
H91 C90 1_555 1_555
C91 C90 1_555 1_555
C92 C87 1_555 1_555
H92 C92 1_555 1_555
C93 C91 1_555 1_555
C94 C93 1_555 1_555
H93 C94 1_555 1_555
H94 C94 1_555 1_555
C95 C94 1_555 1_555
C96 O17 1_555 1_555
H95 C96 1_555 1_555
H96 C96 1_555 1_555
C97 C95 1_555 1_555
H97 C97 1_555 1_555
H98 C97 1_555 1_555
C98 C97 1_555 1_555
H99 C98 1_555 1_555
H100 C98 1_555 1_555
C99 C98 1_555 1_555
H101 C99 1_555 1_555
H102 C99 1_555 1_555
C100 C95 1_555 1_555
H103 C100 1_555 1_555
H104 C100 1_555 1_555
C101 C93 1_555 1_555
H105 C101 1_555 1_555
H106 C101 1_555 1_555
C102 C101 1_555 1_555
C5 C6 1_555 1_555
C12 C13 1_555 1_555
C16 C17 1_555 1_555
C20 C21 1_555 1_555
C38 C39 1_555 1_555
C45 C46 1_555 1_555
C51 C52 1_555 1_555
C55 C56 1_555 1_555
C61 C62 1_555 1_555
C68 C69 1_555 1_555
C72 C73 1_555 1_555
C76 C77 1_555 1_555
C84 C85 1_555 1_555
C91 C92 1_555 1_555
C95 C96 1_555 1_555
C99 C100 1_555 1_555

#END
