
#######################################################################
#
#                 Cambridge Crystallographic Data Centre
#                                CCDC 
#
#######################################################################
#
# If this CIF has been generated from an entry in the Cambridge 
# Structural Database, then it will include bibliographic, chemical, 
# crystal, experimental, refinement or atomic coordinate data resulting 
# from the CCDC's data processing and validation procedures.
#
#######################################################################

data_HARJIV01
_chemical_name_common            '1-methyl-3-butylimidazolium picrate'
_chemical_formula_moiety         'C6 H2 N3 O7 1-,C5 H9 N2 1+'
_chemical_name_systematic        
'1,3-dimethyl-1H-imidazol-3-ium 2,4,6-trinitrophenolate'
_symmetry_cell_setting           triclinic
_symmetry_space_group_name_H-M   'P -1'
_symmetry_Int_Tables_number      2
_space_group_name_Hall           '-P 1'
loop_
_symmetry_equiv_pos_site_id
_symmetry_equiv_pos_as_xyz
1 x,y,z
2 -x,-y,-z
_cell_length_a                   7.3233(7)
_cell_length_b                   9.6646(9)
_cell_length_c                   10.3323(12)
_cell_angle_alpha                78.588(9)
_cell_angle_beta                 80.835(9)
_cell_angle_gamma                85.796(8)
_cell_volume                     707.018
_exptl_crystal_colour            yellow
_exptl_crystal_description       Rectangular
_chemical_melting_point          '420.5 K'
_cell_formula_units_Z            2
loop_
_atom_site_label
_atom_site_type_symbol
_atom_site_fract_x
_atom_site_fract_y
_atom_site_fract_z
O1 O 0.3628(2) 0.63742(16) 0.46334(18)
C1 C 0.2622(3) 0.5452(2) 0.5326(2)
C2 C 0.2281(3) 0.4128(2) 0.4954(2)
C3 C 0.1182(3) 0.3111(2) 0.5759(2)
H1 H 0.1004 0.2288 0.5464
C4 C 0.0345(3) 0.3311(2) 0.7000(2)
C5 C 0.0581(3) 0.4524(3) 0.7456(3)
H2 H 0.0027 0.4640 0.8305
C6 C 0.1638(3) 0.5551(2) 0.6649(2)
N1 N 0.3104(3) 0.3828(2) 0.3662(2)
O2 O 0.3860(3) 0.4756(2) 0.28127(19)
O3 O 0.2991(3) 0.2650(2) 0.3447(2)
N2 N -0.0827(3) 0.2244(3) 0.7834(2)
O4 O -0.0997(3) 0.1165(2) 0.7420(2)
O5 O -0.1610(3) 0.2472(2) 0.8917(2)
N3 N 0.1769(4) 0.6834(3) 0.7165(3)
O6 O 0.1921(5) 0.7944(3) 0.6385(3)
O7 O 0.1645(5) 0.6756(3) 0.8347(3)
C7 C 0.4444(3) 0.2159(2) 0.8072(3)
H3 H 0.5141 0.2868 0.7514
N4 N 0.4117(3) 0.09469(19) 0.7767(2)
C8 C 0.3050(4) 0.0186(3) 0.8844(3)
H4 H 0.2617 -0.0708 0.8901
C9 C 0.2747(4) 0.0961(3) 0.9791(3)
H5 H 0.2066 0.0709 1.0635
N5 N 0.3626(3) 0.2204(2) 0.9292(2)
C10 C 0.4811(5) 0.0501(3) 0.6501(3)
H6 H 0.5299 0.1295 0.5858
H7 H 0.3818 0.0136 0.6183
H8 H 0.5772 -0.0221 0.6632
C11 C 0.3705(5) 0.3364(3) 1.0001(3)
H9 H 0.4666 0.3151 1.0552
H10 H 0.2538 0.3479 1.0551
H11 H 0.3964 0.4221 0.9366
loop_
_geom_bond_atom_site_label_1
_geom_bond_atom_site_label_2
_geom_bond_site_symmetry_1
_geom_bond_site_symmetry_2
O1 C1 1_555 1_555
C1 C2 1_555 1_555
C2 C3 1_555 1_555
C3 H1 1_555 1_555
C4 C3 1_555 1_555
C5 C4 1_555 1_555
H2 C5 1_555 1_555
C6 C1 1_555 1_555
N1 C2 1_555 1_555
O2 N1 1_555 1_555
O3 N1 1_555 1_555
N2 C4 1_555 1_555
O4 N2 1_555 1_555
O5 N2 1_555 1_555
N3 C6 1_555 1_555
O6 N3 1_555 1_555
O7 N3 1_555 1_555
C7 H3 1_555 1_555
N4 C7 1_555 1_555
C8 N4 1_555 1_555
H4 C8 1_555 1_555
C9 C8 1_555 1_555
H5 C9 1_555 1_555
N5 C7 1_555 1_555
C10 N4 1_555 1_555
H6 C10 1_555 1_555
H7 C10 1_555 1_555
H8 C10 1_555 1_555
C11 N5 1_555 1_555
H9 C11 1_555 1_555
H10 C11 1_555 1_555
H11 C11 1_555 1_555
C5 C6 1_555 1_555
C9 N5 1_555 1_555

#END
