
#######################################################################
#
#                 Cambridge Crystallographic Data Centre
#                                CCDC 
#
#######################################################################
#
# If this CIF has been generated from an entry in the Cambridge 
# Structural Database, then it will include bibliographic, chemical, 
# crystal, experimental, refinement or atomic coordinate data resulting 
# from the CCDC's data processing and validation procedures.
#
#######################################################################

data_HARLUH
_chemical_formula_moiety         'C56 H62 N2 O4,2(C3 H6 O1)'
_chemical_name_systematic        
"2,9-(2,2':6',2'':6'',2'''-Ter-(iso-butoxy)-p-tolyl)anthracene acetone solvate"
_symmetry_cell_setting           monoclinic
_symmetry_space_group_name_H-M   'C 2/c'
_symmetry_Int_Tables_number      15
_space_group_name_Hall           '-C 2yn'
loop_
_symmetry_equiv_pos_site_id
_symmetry_equiv_pos_as_xyz
1 x,y,z
2 1/2+x,1/2+y,z
3 -x,y,1/2-z
4 1/2-x,1/2+y,1/2-z
5 -x,-y,-z
6 1/2-x,1/2-y,-z
7 x,-y,1/2+z
8 1/2+x,1/2-y,1/2+z
_cell_length_a                   24.507(3)
_cell_length_b                   25.582(4)
_cell_length_c                   18.356(3)
_cell_angle_alpha                90
_cell_angle_beta                 116.683(4)
_cell_angle_gamma                90
_cell_volume                     10282.5
_exptl_crystal_colour            yellow
_cell_formula_units_Z            8
loop_
_atom_site_label
_atom_site_type_symbol
_atom_site_fract_x
_atom_site_fract_y
_atom_site_fract_z
C1 C 0.4491(4) 0.1967(4) 0.6256(5)
C2 C 0.2143(5) -0.0211(4) 0.3062(7)
C3 C 0.1328(6) 0.0360(5) 0.3050(10)
C4 C 0.0684(4) 0.1517(4) 0.3554(6)
C5 C 0.3808(5) 0.3023(5) 0.4186(8)
C6 C 0.3179(6) 0.3817(4) 0.3612(8)
C7 C 0.0322(4) 0.2810(4) -0.0177(6)
C8 C 0.3833(5) 0.1615(5) 0.3159(6)
C9 C 0.3988(6) 0.1951(7) 0.2006(9)
C10 C 0.2903(5) 0.1554(4) -0.0928(6)
N1 N 0.3558(3) 0.0371(2) 0.3566(4)
C11 C 0.3642(3) -0.0079(3) 0.3249(5)
C12 C 0.3382(3) -0.0123(3) 0.2369(5)
N2 N 0.3104(3) 0.0298(3) 0.1915(4)
C13 C 0.2873(4) 0.0258(3) 0.1100(5)
C14 C 0.2902(4) -0.0207(3) 0.0715(6)
H1 H 0.2702 -0.0231 0.0058
C15 C 0.3185(4) -0.0633(4) 0.1182(5)
H2 H 0.3203 -0.0996 0.0893
C16 C 0.3444(4) -0.0597(3) 0.2035(5)
C17 C 0.3760(4) -0.1028(3) 0.2554(5)
H3 H 0.3795 -0.1394 0.2284
C18 C 0.4014 -0.0986(4) 0.3365(5)
H4 H 0.4257 -0.1313 0.3745
C19 C 0.3959(4) -0.0508(3) 0.3737(5)
C20 C 0.4223(4) -0.0443(4) 0.4590(5)
H5 H 0.4498 -0.0751 0.4987
C21 C 0.4129(4) 0.0013(3) 0.4906(6)
H6 H 0.4312 0.0060 0.5559
C22 C 0.3791(4) 0.0412(3) 0.4378(5)
C23 C 0.3654(4) 0.0907(3) 0.4678(5)
C24 C 0.4110(4) 0.1196(3) 0.5302(5)
H7 H 0.4568 0.1040 0.5602
C25 C 0.3995(4) 0.1671(3) 0.5544(5)
H8 H 0.4307 0.2319 0.6383
H9 H 0.4803 0.2069 0.6009
H10 H 0.4732 0.1748 0.6813
C26 C 0.3415(3) 0.1887(3) 0.5130(5)
H11 H 0.3326 0.2274 0.5286
C27 C 0.2945(3) 0.1605(3) 0.4524(5)
C28 C 0.3059(4) 0.1109(3) 0.4339(5)
O1 O 0.2588(2) 0.0759(2) 0.3917(3)
C29 C 0.2255(4) 0.0767(3) 0.3027(5)
H12 H 0.2000 0.1127 0.2822
H13 H 0.2570 0.0731 0.2766
C30 C 0.1824(4) 0.0296(4) 0.2791(6)
H14 H 0.1604 0.0286 0.2133
H15 H 0.2465 -0.0331 0.2843
H16 H 0.1769 -0.0486 0.2857
H17 H 0.2367 -0.0200 0.3720
H18 H 0.1087 0.0717 0.2779
H19 H 0.1468 0.0366 0.3698
H20 H 0.1031 0.0030 0.2779
C31 C 0.2319(3) 0.1827(3) 0.4004(5)
C32 C 0.1813(4) 0.1625(3) 0.4068(5)
H21 H 0.1881 0.1396 0.4596
C33 C 0.1229(4) 0.1718(3) 0.3465(5)
H22 H 0.0776 0.1330 0.4124
H23 H 0.0481 0.1239 0.3063
H24 H 0.0375 0.1840 0.3451
C34 C 0.1161(4) 0.1954(3) 0.2752(5)
H25 H 0.0708 0.1986 0.2253
C35 C 0.1657(3) 0.2151(3) 0.2657(5)
C36 C 0.2226(3) 0.2135(3) 0.3339(5)
O2 O 0.2720(2) 0.2399(2) 0.3342(3)
C37 C 0.2673(4) 0.2950(4) 0.3438(6)
H26 H 0.2280 0.3104 0.2919
H27 H 0.2624 0.3018 0.3986
C38 C 0.3237(5) 0.3234(4) 0.3520(7)
H28 H 0.3272 0.3152 0.2965
H29 H 0.3889 0.2610 0.4156
H30 H 0.3840 0.3115 0.4778
H31 H 0.4145 0.3244 0.4090
H32 H 0.2764 0.3877 0.3056
H33 H 0.3548 0.4029 0.3579
H34 H 0.3115 0.3957 0.413
C39 C 0.1572(3) 0.2250(3) 0.1807(5)
C40 C 0.1044(4) 0.2508(3) 0.1251(5)
H35 H 0.0763 0.2715 0.1469
C41 C 0.0871(4) 0.2499(3) 0.0415(5)
H36 H 0.0088 0.3009 0.0120
H37 H 0.0022 0.2521 -0.0592
H38 H 0.0452 0.3090 -0.0511
C42 C 0.1202(4) 0.2193(3) 0.0137(5)
H39 H 0.1048 0.2159 -0.0512
C43 C 0.1725(3) 0.1927(3) 0.0671(5)
C44 C 0.1930(3) 0.1998(3) 0.1508(5)
O3 O 0.2488(2) 0.1778(2) 0.2038(3)
C45 C 0.2987(4) 0.2048(3) 0.1975(5)
H40 H 0.2849 0.2153 0.1347
H41 H 0.3102 0.2396 0.2346
C46 C 0.3546(4) 0.1696(4) 0.2268(6)
H42 H 0.3429 0.1308 0.2016
H43 H 0.4162 0.1303 0.3309
H44 H 0.3502 0.1519 0.3375
H45 H 0.4065 0.1973 0.3444
H46 H 0.4384 0.1700 0.2234
H47 H 0.4087 0.2297 0.2381
H48 H 0.3871 0.2062 0.1385
C47 C 0.2060(4) 0.1558(3) 0.0390(5)
C48 C 0.2295(4) 0.1714(3) -0.0143(5)
H49 H 0.2182 0.2095 -0.0426
C49 C 0.2671(4) 0.1386(3) -0.0322(5)
H50 H 0.2754 0.1952 -0.1097
H51 H 0.2755 0.1317 -0.1471
H52 H 0.3395 0.1544 -0.0596
C50 C 0.2853(4) 0.0913(3) 0.0092(5)
H53 H 0.3179 0.0674 -0.0002
C51 C 0.2621(3) 0.0742(3) 0.0621(5)
C52 C 0.2192(4) 0.1050(3) 0.0708(5)
O4 O 0.1885(2) 0.0848(2) 0.1123(3)
C53 C 0.1433(9) 0.0447(7) 0.0613(11)
H54 H 0.1280 0.0218 0.1012
H55 H 0.1610 0.0186 0.0334
C54 C 0.0916(7) 0.0658(6) 0.0021(10)
H56 H 0.1076 0.0924 -0.0310
C55 C 0.0587(9) 0.0934(8) 0.0503(12)
C56 C 0.0453(12) 0.0268(11) -0.0579(13)
H57 H 0.0340 0.0469 -0.1145
H58 H 0.0305 -0.0134 -0.0704
O5 O 0.5000 0.0155(9) 0.7500
C57 C 0.5000 -0.0403(14) 0.7500
C58 C 0.5327(9) -0.0705(8) 0.8217(13)
H59 H 0.5368 -0.1101 0.8296
H60 H 0.5212 -0.0526 0.8697
H61 H 0.5683 -0.0501 0.8201
C58B C 0.4673(9) -0.0705(8) 0.6783(13)
H59B H 0.4632 -0.1101 0.6704
H60B H 0.4788 -0.0526 0.6303
H61B H 0.4317 -0.0501 0.6799
H62? H 0.0941 0.0280 -0.0204
C59? C 0.1258(14) 0.0903(12) 0.0747(18)
C60? C 0.1109(20) -0.0081(19) 0.0180(28)
C61? C 0.0196(21) 0.0627(19) -0.0580(28)
C62? C 1.0000 0.1403(18) 0.7500
C63? C 1.0666(13) 0.1340(12) 0.7775(18)
C64? C 0.9975(14) 0.1724(12) 0.8035(21)
C65? C 0.5106(16) -0.0558(14) 0.6819(21)
loop_
_geom_bond_atom_site_label_1
_geom_bond_atom_site_label_2
_geom_bond_site_symmetry_1
_geom_bond_site_symmetry_2
C1 C25 1_555 1_555
C2 C30 1_555 1_555
C3 C30 1_555 1_555
C4 C33 1_555 1_555
C5 C38 1_555 1_555
C6 C38 1_555 1_555
C7 C41 1_555 1_555
C8 C46 1_555 1_555
C9 C46 1_555 1_555
C10 C49 1_555 1_555
N1 C11 1_555 1_555
C11 C12 1_555 1_555
C12 N2 1_555 1_555
N2 C13 1_555 1_555
C13 C14 1_555 1_555
C14 H1 1_555 1_555
C15 C14 1_555 1_555
H2 C15 1_555 1_555
C16 C12 1_555 1_555
C17 C16 1_555 1_555
H3 C17 1_555 1_555
C18 C17 1_555 1_555
H4 C18 1_555 1_555
C19 C11 1_555 1_555
C20 C19 1_555 1_555
H5 C20 1_555 1_555
C21 C20 1_555 1_555
H6 C21 1_555 1_555
C22 N1 1_555 1_555
C23 C22 1_555 1_555
C24 C23 1_555 1_555
H7 C24 1_555 1_555
C25 C24 1_555 1_555
H8 C1 1_555 1_555
H9 C1 1_555 1_555
H10 C1 1_555 1_555
C26 C25 1_555 1_555
H11 C26 1_555 1_555
C27 C26 1_555 1_555
C28 C23 1_555 1_555
O1 C28 1_555 1_555
C29 O1 1_555 1_555
H12 C29 1_555 1_555
H13 C29 1_555 1_555
C30 C29 1_555 1_555
H14 C30 1_555 1_555
H15 C2 1_555 1_555
H16 C2 1_555 1_555
H17 C2 1_555 1_555
H18 C3 1_555 1_555
H19 C3 1_555 1_555
H20 C3 1_555 1_555
C31 C27 1_555 1_555
C32 C31 1_555 1_555
H21 C32 1_555 1_555
C33 C32 1_555 1_555
H22 C4 1_555 1_555
H23 C4 1_555 1_555
H24 C4 1_555 1_555
C34 C33 1_555 1_555
H25 C34 1_555 1_555
C35 C34 1_555 1_555
C36 C31 1_555 1_555
O2 C36 1_555 1_555
C37 O2 1_555 1_555
H26 C37 1_555 1_555
H27 C37 1_555 1_555
C38 C37 1_555 1_555
H28 C38 1_555 1_555
H29 C5 1_555 1_555
H30 C5 1_555 1_555
H31 C5 1_555 1_555
H32 C6 1_555 1_555
H33 C6 1_555 1_555
H34 C6 1_555 1_555
C39 C35 1_555 1_555
C40 C39 1_555 1_555
H35 C40 1_555 1_555
C41 C40 1_555 1_555
H36 C7 1_555 1_555
H37 C7 1_555 1_555
H38 C7 1_555 1_555
C42 C41 1_555 1_555
H39 C42 1_555 1_555
C43 C42 1_555 1_555
C44 C39 1_555 1_555
O3 C44 1_555 1_555
C45 O3 1_555 1_555
H40 C45 1_555 1_555
H41 C45 1_555 1_555
C46 C45 1_555 1_555
H42 C46 1_555 1_555
H43 C8 1_555 1_555
H44 C8 1_555 1_555
H45 C8 1_555 1_555
H46 C9 1_555 1_555
H47 C9 1_555 1_555
H48 C9 1_555 1_555
C47 C43 1_555 1_555
C48 C47 1_555 1_555
H49 C48 1_555 1_555
C49 C48 1_555 1_555
H50 C10 1_555 1_555
H51 C10 1_555 1_555
H52 C10 1_555 1_555
C50 C49 1_555 1_555
H53 C50 1_555 1_555
C51 C13 1_555 1_555
C52 C47 1_555 1_555
O4 C52 1_555 1_555
C53 O4 1_555 1_555
H54 C53 1_555 1_555
H55 C53 1_555 1_555
C54 C53 1_555 1_555
H56 C54 1_555 1_555
C55 C54 1_555 1_555
C56 C54 1_555 1_555
H57 C56 1_555 1_555
H58 C56 1_555 1_555
O5 C57 1_555 1_555
C57 C58 1_555 1_555
C58 H59 1_555 1_555
H60 C58 1_555 1_555
H61 C58 1_555 1_555
C58B C57 1_555 1_555
H59B C58B 1_555 1_555
H60B C58B 1_555 1_555
H61B C58B 1_555 1_555
C15 C16 1_555 1_555
C18 C19 1_555 1_555
C21 C22 1_555 1_555
C27 C28 1_555 1_555
C35 C36 1_555 1_555
C43 C44 1_555 1_555
C50 C51 1_555 1_555
C51 C52 1_555 1_555

#END
