
#######################################################################
#
#                 Cambridge Crystallographic Data Centre
#                                CCDC 
#
#######################################################################
#
# If this CIF has been generated from an entry in the Cambridge 
# Structural Database, then it will include bibliographic, chemical, 
# crystal, experimental, refinement or atomic coordinate data resulting 
# from the CCDC's data processing and validation procedures.
#
#######################################################################

data_HARMEV
_chemical_formula_moiety         'C15 H15 N1 O2'
_chemical_name_systematic        'phenyl (3,5-dimethylphenyl)carbamate'
_symmetry_cell_setting           triclinic
_symmetry_space_group_name_H-M   'P -1'
_symmetry_Int_Tables_number      2
_space_group_name_Hall           '-P 1'
loop_
_symmetry_equiv_pos_site_id
_symmetry_equiv_pos_as_xyz
1 x,y,z
2 -x,-y,-z
_cell_length_a                   9.4257(4)
_cell_length_b                   12.2054(5)
_cell_length_c                   13.2067(6)
_cell_angle_alpha                62.979(3)
_cell_angle_beta                 82.329(3)
_cell_angle_gamma                87.145(3)
_cell_volume                     1341.29
_exptl_crystal_colour            yellow
_exptl_crystal_description       block
_cell_formula_units_Z            4
loop_
_atom_site_label
_atom_site_type_symbol
_atom_site_fract_x
_atom_site_fract_y
_atom_site_fract_z
O1 O 1.58017(15) 0.50462(14) 0.15809(14)
O2 O 1.41427(14) 0.39474(15) 0.30750(13)
N1 N 1.64082(17) 0.32555(16) 0.29043(15)
C1 C 1.7338(2) 0.1239(2) 0.3932(2)
C2 C 1.7388(3) 0.0131(2) 0.4911(3)
C3 C 1.6482(3) -0.0046(2) 0.5884(2)
C4 C 1.5555(3) 0.0854(2) 0.5912(2)
C5 C 1.5507(2) 0.1955(2) 0.4921(2)
C6 C 1.6388(2) 0.21386(19) 0.39347(19)
C7 C 1.8376(4) -0.0869(3) 0.4895(3)
C8 C 1.4618(4) 0.0653(3) 0.6999(2)
C9 C 1.5337(2) 0.40501(19) 0.25803(18)
C10 C 1.4810(2) 0.5974(2) 0.10787(19)
C11 C 1.5007(3) 0.7082(2) 0.1060(3)
C12 C 1.4096(4) 0.8039(3) 0.0507(3)
C13 C 1.3023(4) 0.7864(3) -0.0004(3)
C14 C 1.2842(3) 0.6744(3) 0.0022(2)
C15 C 1.3748(2) 0.5789(3) 0.0561(2)
H1 H 1.71910 0.34390 0.24420
H2 H 1.79470 0.13780 0.32690
H3 H 1.64960 -0.07930 0.65390
H4 H 1.48810 0.25680 0.49240
H5 H 1.89210 -0.05870 0.41510
H6 H 1.78230 -0.15830 0.50600
H7 H 1.90150 -0.10750 0.54620
H8 H 1.40440 0.13660 0.68630
H9 H 1.52060 0.05130 0.75850
H10 H 1.40060 -0.00500 0.72410
H11 H 1.57400 0.71960 0.14110
H12 H 1.42170 0.88010 0.04850
H13 H 1.24120 0.85060 -0.03710
H14 H 1.21060 0.66280 -0.03260
H15 H 1.36370 0.50310 0.05710
O3 O 1.16793(15) 0.29093(14) 0.18417(14)
O4 O 0.94345(14) 0.36607(14) 0.18663(13)
N2 N 1.11656(17) 0.40705(15) 0.27069(15)
C16 C 1.1256(2) 0.58070(18) 0.30825(17)
C17 C 1.0624(2) 0.66070(19) 0.34863(18)
C18 C 0.9176(2) 0.6468(2) 0.38825(19)
C19 C 0.8359(2) 0.5547(2) 0.39031(18)
C20 C 0.9016(2) 0.47436(19) 0.35201(17)
C21 C 1.0452(2) 0.48834(17) 0.30963(16)
C22 C 1.1512(3) 0.7594(2) 0.3502(3)
C23 C 0.6792(3) 0.5403(3) 0.4352(3)
C24 C 1.0631(2) 0.35729(17) 0.21212(17)
C25 C 1.1406(2) 0.24132(19) 0.11142(18)
C26 C 1.1482(3) 0.1170(2) 0.1526(2)
C27 C 1.1370(4) 0.0660(3) 0.0796(3)
C28 C 1.1152(3) 0.1379(3) -0.0306(3)
C29 C 1.1068(3) 0.2615(3) -0.0702(2)
C30 C 1.1207(2) 0.3150(2) 0.0001(2)
H16 H 1.20280 0.38790 0.28630
H17 H 1.22240 0.58930 0.28020
H18 H 0.87400 0.70090 0.41420
H19 H 0.84890 0.41050 0.35480
H20 H 1.24840 0.75510 0.31950
H21 H 1.14850 0.74710 0.42760
H22 H 1.11320 0.83870 0.30460
H23 H 0.65130 0.60320 0.45820
H24 H 0.66170 0.46090 0.49980
H25 H 0.62440 0.54770 0.37610
H26 H 1.16080 0.06710 0.22880
H27 H 1.14440 -0.01860 0.10650
H28 H 1.10600 0.10280 -0.07880
H29 H 1.09160 0.31090 -0.14580
H30 H 1.11650 0.40000 -0.02780
loop_
_geom_bond_atom_site_label_1
_geom_bond_atom_site_label_2
_geom_bond_site_symmetry_1
_geom_bond_site_symmetry_2
O1 C9 1_555 1_555
O2 C9 1_555 1_555
N1 C6 1_555 1_555
C1 C2 1_555 1_555
C2 C3 1_555 1_555
C3 C4 1_555 1_555
C4 C5 1_555 1_555
C5 C6 1_555 1_555
C6 C1 1_555 1_555
C7 C2 1_555 1_555
C8 C4 1_555 1_555
C9 N1 1_555 1_555
C10 O1 1_555 1_555
C11 C10 1_555 1_555
C12 C11 1_555 1_555
C13 C12 1_555 1_555
C14 C13 1_555 1_555
C15 C10 1_555 1_555
H1 N1 1_555 1_555
H2 C1 1_555 1_555
H3 C3 1_555 1_555
H4 C5 1_555 1_555
H5 C7 1_555 1_555
H6 C7 1_555 1_555
H7 C7 1_555 1_555
H8 C8 1_555 1_555
H9 C8 1_555 1_555
H10 C8 1_555 1_555
H11 C11 1_555 1_555
H12 C12 1_555 1_555
H13 C13 1_555 1_555
H14 C14 1_555 1_555
H15 C15 1_555 1_555
O3 C24 1_555 1_555
O4 C24 1_555 1_555
N2 C21 1_555 1_555
C16 C17 1_555 1_555
C17 C18 1_555 1_555
C18 C19 1_555 1_555
C19 C20 1_555 1_555
C20 C21 1_555 1_555
C21 C16 1_555 1_555
C22 C17 1_555 1_555
C23 C19 1_555 1_555
C24 N2 1_555 1_555
C25 O3 1_555 1_555
C26 C25 1_555 1_555
C27 C26 1_555 1_555
C28 C27 1_555 1_555
C29 C28 1_555 1_555
C30 C25 1_555 1_555
H16 N2 1_555 1_555
H17 C16 1_555 1_555
H18 C18 1_555 1_555
H19 C20 1_555 1_555
H20 C22 1_555 1_555
H21 C22 1_555 1_555
H22 C22 1_555 1_555
H23 C23 1_555 1_555
H24 C23 1_555 1_555
H25 C23 1_555 1_555
H26 C26 1_555 1_555
H27 C27 1_555 1_555
H28 C28 1_555 1_555
H29 C29 1_555 1_555
H30 C30 1_555 1_555
C14 C15 1_555 1_555
C29 C30 1_555 1_555

#END
