
#######################################################################
#
#                 Cambridge Crystallographic Data Centre
#                                CCDC 
#
#######################################################################
#
# If this CIF has been generated from an entry in the Cambridge 
# Structural Database, then it will include bibliographic, chemical, 
# crystal, experimental, refinement or atomic coordinate data resulting 
# from the CCDC's data processing and validation procedures.
#
#######################################################################

data_HARNEW
_chemical_formula_moiety         'C32 H23 Br2 N1 O1'
_chemical_name_systematic        
2',7'-dibromo-4-methyl-3-phenyl-4H-spiro[3a,8b-(epoxyethano)cyclopenta[b]indole-1,9'-fluorene]
_symmetry_cell_setting           monoclinic
_symmetry_space_group_name_H-M   'P 21/c'
_symmetry_Int_Tables_number      14
_space_group_name_Hall           '-P 2ybc'
loop_
_symmetry_equiv_pos_site_id
_symmetry_equiv_pos_as_xyz
1 x,y,z
2 -x,1/2+y,1/2-z
3 -x,-y,-z
4 x,1/2-y,1/2+z
_cell_length_a                   7.7055(6)
_cell_length_b                   25.8797(14)
_cell_length_c                   13.0746(11)
_cell_angle_alpha                90
_cell_angle_beta                 107.697(7)
_cell_angle_gamma                90
_cell_volume                     2483.9
_exptl_crystal_colour            yellow
_exptl_crystal_description       block
_cell_formula_units_Z            4
loop_
_atom_site_label
_atom_site_type_symbol
_atom_site_fract_x
_atom_site_fract_y
_atom_site_fract_z
Br1 Br 1.05823(6) 0.128339(15) 1.18632(3)
Br2 Br 0.12299(6) 0.189277(15) 0.43755(3)
O1 O 0.2229(3) 0.00241(8) 0.8814(2)
N1 N 0.0924(4) 0.04659(10) 0.7145(2)
C1 C 0.0729(5) 0.16972(13) 0.8355(3)
H1 H 0.1467 0.1883 0.8957
C2 C -0.0861(5) 0.19103(13) 0.7703(3)
H2 H -0.1214 0.2246 0.7854
C3 C -0.1944(5) 0.16417(13) 0.6834(3)
H3 H -0.3027 0.1797 0.6388
C4 C -0.1478(5) 0.11483(13) 0.6600(3)
H4 H -0.2231 0.0961 0.6005
C5 C 0.0116(5) 0.09385(12) 0.7260(3)
C6 C 0.1235(5) 0.12128(12) 0.8125(3)
C7 C 0.2955(5) 0.09154(11) 0.8626(3)
C8 C 0.2522(5) 0.03826(11) 0.8046(3)
C9 C 0.4184(5) 0.02449(12) 0.7727(3)
C10 C 0.5341(5) 0.06396(11) 0.7920(3)
H5 H 0.6503 0.0620 0.7811
C11 C 0.4667(5) 0.11191(11) 0.8324(3)
C12 C 0.6065(5) 0.14058(12) 0.9217(3)
C13 C 0.7397(5) 0.12069(13) 1.0078(3)
H6 H 0.7488 0.0846 1.0213
C14 C 0.8608(5) 0.15501(14) 1.0745(3)
C15 C 0.8465(6) 0.20786(14) 1.0590(3)
H7 H 0.9265 0.2305 1.1087
C16 C 0.7162(5) 0.22720(13) 0.9715(3)
H8 H 0.7063 0.2634 0.9597
C17 C 0.5985(5) 0.19384(11) 0.9000(3)
C18 C 0.4755(5) 0.20207(12) 0.7930(3)
C19 C 0.4110(5) 0.15434(11) 0.7473(3)
C20 C 0.3065(5) 0.15014(12) 0.6433(3)
H9 H 0.2646 0.1174 0.6128
C21 C 0.2628(5) 0.19482(12) 0.5831(3)
C22 C 0.3213(6) 0.24280(13) 0.6266(3)
H10 H 0.2876 0.2730 0.5839
C23 C 0.4279(5) 0.24667(13) 0.7312(3)
H11 H 0.4690 0.2795 0.7615
C24 C -0.0071(6) 0.00492(15) 0.6513(4)
H12 H -0.0734 -0.0139 0.6928
H13 H 0.0779 -0.0186 0.6322
H14 H -0.0937 0.0187 0.5858
C25 C 0.1998(5) 0.03195(13) 0.9699(3)
H15 H 0.2334 0.0112 1.0367
H16 H 0.0723 0.0438 0.9545
C26 C 0.3270(5) 0.07714(12) 0.9798(3)
H17 H 0.4552 0.0670 1.0151
H18 H 0.2942 0.1059 1.0202
C27 C 0.4399(5) -0.02504(12) 0.7211(3)
C28 C 0.3641(5) -0.07077(12) 0.7431(3)
H19 H 0.2981 -0.0708 0.7938
C29 C 0.3833(6) -0.11592(13) 0.6927(3)
H20 H 0.3288 -0.1467 0.7078
C30 C 0.4807(6) -0.11688(13) 0.6206(3)
H21 H 0.4954 -0.1483 0.5866
C31 C 0.5562(6) -0.07222(14) 0.5981(4)
H22 H 0.6237 -0.0726 0.5482
C32 C 0.5354(5) -0.02653(13) 0.6475(3)
H23 H 0.5876 0.0043 0.6306
loop_
_geom_bond_atom_site_label_1
_geom_bond_atom_site_label_2
_geom_bond_site_symmetry_1
_geom_bond_site_symmetry_2
Br1 C14 1_555 1_555
Br2 C21 1_555 1_555
O1 C8 1_555 1_555
N1 C5 1_555 1_555
C1 H1 1_555 1_555
C2 C1 1_555 1_555
H2 C2 1_555 1_555
C3 C2 1_555 1_555
H3 C3 1_555 1_555
C4 C3 1_555 1_555
H4 C4 1_555 1_555
C5 C4 1_555 1_555
C6 C1 1_555 1_555
C7 C6 1_555 1_555
C8 N1 1_555 1_555
C9 C8 1_555 1_555
C10 C9 1_555 1_555
H5 C10 1_555 1_555
C11 C7 1_555 1_555
C12 C11 1_555 1_555
C13 C12 1_555 1_555
H6 C13 1_555 1_555
C14 C13 1_555 1_555
C15 C14 1_555 1_555
H7 C15 1_555 1_555
C16 C15 1_555 1_555
H8 C16 1_555 1_555
C17 C12 1_555 1_555
C18 C17 1_555 1_555
C19 C11 1_555 1_555
C20 C19 1_555 1_555
H9 C20 1_555 1_555
C21 C20 1_555 1_555
C22 C21 1_555 1_555
H10 C22 1_555 1_555
C23 C18 1_555 1_555
H11 C23 1_555 1_555
C24 N1 1_555 1_555
H12 C24 1_555 1_555
H13 C24 1_555 1_555
H14 C24 1_555 1_555
C25 O1 1_555 1_555
H15 C25 1_555 1_555
H16 C25 1_555 1_555
C26 C7 1_555 1_555
H17 C26 1_555 1_555
H18 C26 1_555 1_555
C27 C9 1_555 1_555
C28 C27 1_555 1_555
H19 C28 1_555 1_555
C29 C28 1_555 1_555
H20 C29 1_555 1_555
C30 C29 1_555 1_555
H21 C30 1_555 1_555
C31 C30 1_555 1_555
H22 C31 1_555 1_555
C32 C27 1_555 1_555
H23 C32 1_555 1_555
C5 C6 1_555 1_555
C7 C8 1_555 1_555
C10 C11 1_555 1_555
C16 C17 1_555 1_555
C18 C19 1_555 1_555
C22 C23 1_555 1_555
C25 C26 1_555 1_555
C31 C32 1_555 1_555

#END
