
#######################################################################
#
#                 Cambridge Crystallographic Data Centre
#                                CCDC 
#
#######################################################################
#
# If this CIF has been generated from an entry in the Cambridge 
# Structural Database, then it will include bibliographic, chemical, 
# crystal, experimental, refinement or atomic coordinate data resulting 
# from the CCDC's data processing and validation procedures.
#
#######################################################################

data_HARPOI
_chemical_formula_moiety         'C21 H21 N3 O2'
_chemical_name_systematic        
13-hydroxy-12-oxo-10,16-diazaheptacyclo[9.8.2.1^1,13^.0^2,16^.0^3,11^.0^3,14^.0^4,9^]docosa-4,6,8-triene-14-carbonitrile
_symmetry_cell_setting           monoclinic
_symmetry_space_group_name_H-M   'P 21'
_symmetry_Int_Tables_number      4
_space_group_name_Hall           'P 2yb'
loop_
_symmetry_equiv_pos_site_id
_symmetry_equiv_pos_as_xyz
1 x,y,z
2 -x,1/2+y,-z
_cell_length_a                   7.4612(3)
_cell_length_b                   9.1238(3)
_cell_length_c                   12.5759(4)
_cell_angle_alpha                90
_cell_angle_beta                 90.071(3)
_cell_angle_gamma                90
_cell_volume                     856.097
_cell_formula_units_Z            2
loop_
_atom_site_label
_atom_site_type_symbol
_atom_site_fract_x
_atom_site_fract_y
_atom_site_fract_z
O1 O 0.2762(4) 0.4207(4) 1.03780(19)
O2 O -0.0702(3) 0.4045(2) 0.94793(15)
H1 H -0.0658 0.4439 1.0065
N1 N 0.5288(4) 0.3144(3) 0.8740(2)
H2 H 0.5872 0.2963 0.9315
N2 N 0.0983(3) 0.4691(3) 0.62477(19)
N3 N 0.1066(4) 0.0807(3) 0.8655(2)
C1 C 0.5391(4) 0.2325(4) 0.7805(3)
C2 C 0.6513(5) 0.1152(4) 0.7584(4)
H3 H 0.7372 0.0847 0.8073
C3 C 0.6321(6) 0.0453(5) 0.6622(4)
H4 H 0.7064 -0.0336 0.6462
C4 C 0.5056(6) 0.0891(4) 0.5886(3)
H5 H 0.4959 0.0398 0.5241
C5 C 0.3936(5) 0.2055(4) 0.6102(3)
H6 H 0.3082 0.2355 0.5609
C6 C 0.4108(4) 0.2769(3) 0.7068(2)
C7 C 0.3004(4) 0.3960(3) 0.7556(2)
C8 C 0.1068(4) 0.3460(3) 0.7910(2)
C9 C -0.0112(4) 0.3744(3) 0.6925(2)
H7 H -0.0397 0.2833 0.6564
H8 H -0.1219 0.4229 0.7122
C10 C 0.0070(5) 0.5810(4) 0.5607(3)
H9 H -0.1012 0.5386 0.5309
H10 H 0.0842 0.6082 0.5019
C11 C -0.0434(5) 0.7197(4) 0.6222(3)
H11 H -0.0789 0.7955 0.5724
H12 H -0.1452 0.6989 0.6677
C12 C 0.1121(5) 0.7757(4) 0.6902(3)
H13 H 0.0697 0.8552 0.7348
H14 H 0.2043 0.8148 0.6439
C13 C 0.1944(4) 0.6566(3) 0.7609(3)
C14 C 0.3670(5) 0.7106(4) 0.8161(3)
H15 H 0.4301 0.7760 0.7682
H16 H 0.3344 0.7664 0.8788
C15 C 0.4943(5) 0.5858(4) 0.8493(3)
H17 H 0.5899 0.5783 0.7973
H18 H 0.5484 0.6104 0.9172
C16 C 0.4019(4) 0.4372(4) 0.8589(2)
C17 C 0.2565(5) 0.4373(4) 0.9428(2)
C18 C 0.0770(4) 0.4498(3) 0.8867(2)
C19 C 0.0545(5) 0.6066(3) 0.8445(3)
H19 H 0.0597 0.6736 0.9044
H20 H -0.0639 0.6152 0.8132
C20 C 0.2454(4) 0.5267(3) 0.6882(2)
H21 H 0.336(5) 0.560(4) 0.638(2)
C21 C 0.1037(4) 0.1951(3) 0.8301(2)
loop_
_geom_bond_atom_site_label_1
_geom_bond_atom_site_label_2
_geom_bond_site_symmetry_1
_geom_bond_site_symmetry_2
O1 C17 1_555 1_555
O2 H1 1_555 1_555
N1 H2 1_555 1_555
N2 C9 1_555 1_555
N3 C21 1_555 1_555
C1 N1 1_555 1_555
C2 C1 1_555 1_555
H3 C2 1_555 1_555
C3 C2 1_555 1_555
H4 C3 1_555 1_555
C4 C3 1_555 1_555
H5 C4 1_555 1_555
C5 C4 1_555 1_555
H6 C5 1_555 1_555
C6 C1 1_555 1_555
C7 C6 1_555 1_555
C8 C7 1_555 1_555
C9 C8 1_555 1_555
H7 C9 1_555 1_555
H8 C9 1_555 1_555
C10 N2 1_555 1_555
H9 C10 1_555 1_555
H10 C10 1_555 1_555
C11 C10 1_555 1_555
H11 C11 1_555 1_555
H12 C11 1_555 1_555
C12 C11 1_555 1_555
H13 C12 1_555 1_555
H14 C12 1_555 1_555
C13 C12 1_555 1_555
C14 C13 1_555 1_555
H15 C14 1_555 1_555
H16 C14 1_555 1_555
C15 C14 1_555 1_555
H17 C15 1_555 1_555
H18 C15 1_555 1_555
C16 N1 1_555 1_555
C17 C16 1_555 1_555
C18 O2 1_555 1_555
C19 C13 1_555 1_555
H19 C19 1_555 1_555
H20 C19 1_555 1_555
C20 N2 1_555 1_555
H21 C20 1_555 1_555
C21 C8 1_555 1_555
C5 C6 1_555 1_555
C7 C16 1_555 1_555
C7 C20 1_555 1_555
C8 C18 1_555 1_555
C13 C20 1_555 1_555
C15 C16 1_555 1_555
C17 C18 1_555 1_555
C18 C19 1_555 1_555

#END
