
#######################################################################
#
#                 Cambridge Crystallographic Data Centre
#                                CCDC 
#
#######################################################################
#
# If this CIF has been generated from an entry in the Cambridge 
# Structural Database, then it will include bibliographic, chemical, 
# crystal, experimental, refinement or atomic coordinate data resulting 
# from the CCDC's data processing and validation procedures.
#
#######################################################################

data_HARQID
_chemical_formula_moiety         'C23 H20 O3'
_chemical_name_systematic        
'ethyl (4-phenyl-3,4-dihydro-2H-benzo[h]chromen-2-ylidene)acetate'
_symmetry_cell_setting           monoclinic
_symmetry_space_group_name_H-M   'P 21'
_symmetry_Int_Tables_number      4
_space_group_name_Hall           'P 2yb'
loop_
_symmetry_equiv_pos_site_id
_symmetry_equiv_pos_as_xyz
1 x,y,z
2 -x,1/2+y,-z
_cell_length_a                   8.3968(11)
_cell_length_b                   8.5530(10)
_cell_length_c                   13.1940(16)
_cell_angle_alpha                90
_cell_angle_beta                 103.135(13)
_cell_angle_gamma                90
_cell_volume                     922.774
_exptl_crystal_colour            colorless
_exptl_crystal_description       block
_cell_formula_units_Z            2
loop_
_atom_site_label
_atom_site_type_symbol
_atom_site_fract_x
_atom_site_fract_y
_atom_site_fract_z
O1 O 0.5848(3) -0.1355(3) 0.3393(2)
O2 O 0.5939(3) -0.2078(3) 0.1783(2)
O3 O 0.3580(3) 0.2714(3) 0.17537(15)
C1 C 0.7150(7) -0.4416(7) 0.1397(4)
H1 H 0.6167 -0.4557 0.0868
H2 H 0.7563 -0.5416 0.1664
H3 H 0.7955 -0.3895 0.1104
C2 C 0.6798(6) -0.3477(5) 0.2233(4)
H4 H 0.7807 -0.3194 0.2719
H5 H 0.6125 -0.4065 0.2607
C3 C 0.5520(4) -0.1101(5) 0.2465(3)
C4 C 0.4676(4) 0.0246(4) 0.1933(2)
H6 H 0.4304 0.0188 0.1214
C5 C 0.4396(3) 0.1557(4) 0.2402(2)
C6 C 0.4925(4) 0.1966(5) 0.3530(2)
H7 H 0.5895 0.2618 0.3638
H8 H 0.5207 0.1017 0.3934
C7 C 0.3585(4) 0.2832(4) 0.3914(2)
H9 H 0.4077 0.3262 0.4603
C8 C 0.3023(4) 0.4182(4) 0.3197(2)
C9 C 0.3053(4) 0.4052(4) 0.2169(2)
C10 C 0.2480(4) 0.5254(4) 0.1428(2)
C11 C 0.2480(4) 0.5113(4) 0.0359(3)
H10 H 0.2895 0.4216 0.0116
C12 C 0.1870(5) 0.6296(5) -0.0315(3)
H11 H 0.1885 0.6206 -0.1015
C13 C 0.1223(5) 0.7638(6) 0.0041(4)
H12 H 0.0785 0.8424 -0.0427
C14 C 0.1230(5) 0.7803(5) 0.1061(3)
H13 H 0.0809 0.8713 0.1285
C15 C 0.1862(4) 0.6626(4) 0.1796(3)
C16 C 0.1880(5) 0.6768(5) 0.2855(3)
H14 H 0.1508 0.7688 0.3099
C17 C 0.2427(4) 0.5593(4) 0.3531(3)
H15 H 0.2411 0.5716 0.4229
C18 C 0.2222(4) 0.1727(4) 0.4040(2)
C19 C 0.0724(4) 0.1666(5) 0.3326(3)
H16 H 0.0530 0.2322 0.2749
C20 C -0.0477(4) 0.0640(5) 0.3467(3)
H17 H -0.1470 0.0607 0.2980
C21 C -0.0224(4) -0.0332(5) 0.4315(3)
H18 H -0.1036 -0.1022 0.4405
C22 C 0.1254(5) -0.0272(5) 0.5032(3)
H19 H 0.1435 -0.0919 0.5614
C23 C 0.2460(4) 0.0740(5) 0.4892(3)
H20 H 0.3452 0.0760 0.5379
loop_
_geom_bond_atom_site_label_1
_geom_bond_atom_site_label_2
_geom_bond_site_symmetry_1
_geom_bond_site_symmetry_2
O1 C3 1_555 1_555
O2 C2 1_555 1_555
O3 C5 1_555 1_555
C1 H1 1_555 1_555
H2 C1 1_555 1_555
H3 C1 1_555 1_555
C2 C1 1_555 1_555
H4 C2 1_555 1_555
H5 C2 1_555 1_555
C3 O2 1_555 1_555
C4 C3 1_555 1_555
H6 C4 1_555 1_555
C5 C4 1_555 1_555
C6 C5 1_555 1_555
H7 C6 1_555 1_555
H8 C6 1_555 1_555
C7 C6 1_555 1_555
H9 C7 1_555 1_555
C8 C7 1_555 1_555
C9 O3 1_555 1_555
C10 C9 1_555 1_555
C11 C10 1_555 1_555
H10 C11 1_555 1_555
C12 C11 1_555 1_555
H11 C12 1_555 1_555
C13 C12 1_555 1_555
H12 C13 1_555 1_555
C14 C13 1_555 1_555
H13 C14 1_555 1_555
C15 C10 1_555 1_555
C16 C15 1_555 1_555
H14 C16 1_555 1_555
C17 C8 1_555 1_555
H15 C17 1_555 1_555
C18 C7 1_555 1_555
C19 C18 1_555 1_555
H16 C19 1_555 1_555
C20 C19 1_555 1_555
H17 C20 1_555 1_555
C21 C20 1_555 1_555
H18 C21 1_555 1_555
C22 C21 1_555 1_555
H19 C22 1_555 1_555
C23 C18 1_555 1_555
H20 C23 1_555 1_555
C8 C9 1_555 1_555
C14 C15 1_555 1_555
C16 C17 1_555 1_555
C22 C23 1_555 1_555

#END
