
#######################################################################
#
#                 Cambridge Crystallographic Data Centre
#                                CCDC 
#
#######################################################################
#
# If this CIF has been generated from an entry in the Cambridge 
# Structural Database, then it will include bibliographic, chemical, 
# crystal, experimental, refinement or atomic coordinate data resulting 
# from the CCDC's data processing and validation procedures.
#
#######################################################################

data_HARQEZ
_chemical_formula_moiety         'C26 H26 O5 S1'
_chemical_name_systematic        
'ethyl 3-(2-(((4-methylphenyl)sulfonyl)(phenyl)methyl)phenoxy)but-2-enoate'
_symmetry_cell_setting           monoclinic
_symmetry_space_group_name_H-M   'P 21'
_symmetry_Int_Tables_number      4
_space_group_name_Hall           'P 2yb'
loop_
_symmetry_equiv_pos_site_id
_symmetry_equiv_pos_as_xyz
1 x,y,z
2 -x,1/2+y,-z
_cell_length_a                   9.3534(6)
_cell_length_b                   9.6270(7)
_cell_length_c                   14.1384(9)
_cell_angle_alpha                90
_cell_angle_beta                 108.209(7)
_cell_angle_gamma                90
_cell_volume                     1209.34
_exptl_crystal_colour            colorless
_exptl_crystal_description       block
_cell_formula_units_Z            2
loop_
_atom_site_label
_atom_site_type_symbol
_atom_site_fract_x
_atom_site_fract_y
_atom_site_fract_z
S1 S 0.08066(10) 0.47597(13) 0.25723(6)
C1 C 0.1222(4) 0.4686(5) 0.1448(2)
O1 O 0.4410(3) 0.7909(3) 0.3771(2)
C2 C 0.2202(4) 0.5868(4) 0.3405(2)
H1 H 0.2053 0.6792 0.3100
C3 C 0.3825(4) 0.5488(4) 0.3543(2)
C4 C 0.1804(3) 0.6001(4) 0.4362(2)
C5 C 0.2017(5) 0.5249(5) 0.6018(3)
H2 H 0.2436 0.4655 0.6552
C6 C 0.4368(4) 0.4130(4) 0.3604(3)
H3 H 0.3702 0.3390 0.3529
C7 C 0.4006(4) 0.8751(5) 0.2954(3)
C8 C 0.0792(4) 0.7007(5) 0.4440(3)
H4 H 0.0375 0.7609 0.3911
C9 C 0.2427(4) 0.5120(4) 0.5152(3)
H5 H 0.3116 0.4445 0.5109
C10 C 0.4877(4) 0.6542(4) 0.3692(3)
C11 C 0.1813(6) 0.3492(5) 0.1180(3)
H6 H 0.2064 0.2746 0.1619
C12 C 0.0393(4) 0.7125(5) 0.5305(3)
H7 H -0.0289 0.7804 0.5352
C13 C 0.1004(4) 0.6242(5) 0.6090(3)
H8 H 0.0733 0.6317 0.6667
C14 C 0.2032(6) 0.3402(7) 0.0262(3)
H9 H 0.2442 0.2596 0.0091
C15 C 0.4090(5) 0.8333(5) 0.2075(3)
H10 H 0.4435 0.7438 0.2027
O2 O 0.3896(5) 0.8535(5) 0.0419(3)
C16 C 0.1659(6) 0.4472(7) -0.0400(3)
C17 C 0.6383(4) 0.6284(5) 0.3848(3)
H11 H 0.7061 0.7016 0.3933
O3 O 0.3184(9) 1.0355(7) 0.1116(4)
C18 C 0.0875(6) 0.5802(6) 0.0801(3)
H12 H 0.0497 0.6619 0.0981
C19 C 0.5887(5) 0.3870(5) 0.3776(3)
H13 H 0.6232 0.2958 0.3824
C20 C 0.1096(7) 0.5688(7) -0.0113(4)
H14 H 0.0865 0.6438 -0.0549
C21 C 0.6874(4) 0.4936(6) 0.3875(3)
H15 H 0.7883 0.4753 0.3961
C22 C 0.1870(10) 0.4305(10) -0.1413(4)
H16 H 0.2736 0.3734 -0.1353
H17 H 0.2016 0.5201 -0.1667
H18 H 0.0994 0.3874 -0.1861
C23 C 0.3526(10) 0.9298(10) -0.0519(5)
H19 H 0.2493 0.9623 -0.0710
H20 H 0.4185 1.0094 -0.0454
C24 C 0.3671(7) 0.9198(7) 0.1180(5)
C25 C 0.3722(13) 0.8376(16) -0.1229(6)
H21 H 0.4751 0.8073 -0.1034
H22 H 0.3476 0.8833 -0.1863
H23 H 0.3075 0.7587 -0.1278
O4 O -0.0593(3) 0.5470(5) 0.2391(2)
O5 O 0.0946(4) 0.3383(4) 0.2979(2)
C26 C 0.3501(7) 1.0115(6) 0.3226(5)
H24 H 0.3732 1.0832 0.2825
H25 H 0.4010 1.0303 0.3917
H26 H 0.2435 1.0090 0.3114
loop_
_geom_bond_atom_site_label_1
_geom_bond_atom_site_label_2
_geom_bond_site_symmetry_1
_geom_bond_site_symmetry_2
S1 C1 1_555 1_555
C1 C11 1_555 1_555
O1 C7 1_555 1_555
C2 S1 1_555 1_555
H1 C2 1_555 1_555
C3 C2 1_555 1_555
C4 C2 1_555 1_555
C5 H2 1_555 1_555
C6 C3 1_555 1_555
H3 C6 1_555 1_555
C7 C15 1_555 1_555
C8 C4 1_555 1_555
H4 C8 1_555 1_555
C9 C4 1_555 1_555
H5 C9 1_555 1_555
C10 O1 1_555 1_555
C11 H6 1_555 1_555
C12 C8 1_555 1_555
H7 C12 1_555 1_555
C13 C5 1_555 1_555
H8 C13 1_555 1_555
C14 C11 1_555 1_555
H9 C14 1_555 1_555
C15 H10 1_555 1_555
O2 C23 1_555 1_555
C16 C14 1_555 1_555
C17 C10 1_555 1_555
H11 C17 1_555 1_555
O3 C24 1_555 1_555
C18 C1 1_555 1_555
H12 C18 1_555 1_555
C19 C6 1_555 1_555
H13 C19 1_555 1_555
C20 C16 1_555 1_555
H14 C20 1_555 1_555
C21 C17 1_555 1_555
H15 C21 1_555 1_555
C22 C16 1_555 1_555
H16 C22 1_555 1_555
H17 C22 1_555 1_555
H18 C22 1_555 1_555
C23 H19 1_555 1_555
H20 C23 1_555 1_555
C24 C15 1_555 1_555
C25 C23 1_555 1_555
H21 C25 1_555 1_555
H22 C25 1_555 1_555
H23 C25 1_555 1_555
O4 S1 1_555 1_555
O5 S1 1_555 1_555
C26 C7 1_555 1_555
H24 C26 1_555 1_555
H25 C26 1_555 1_555
H26 C26 1_555 1_555
C3 C10 1_555 1_555
C5 C9 1_555 1_555
C12 C13 1_555 1_555
O2 C24 1_555 1_555
C18 C20 1_555 1_555
C19 C21 1_555 1_555

#END
