
#######################################################################
#
#                 Cambridge Crystallographic Data Centre
#                                CCDC 
#
#######################################################################
#
# If this CIF has been generated from an entry in the Cambridge 
# Structural Database, then it will include bibliographic, chemical, 
# crystal, experimental, refinement or atomic coordinate data resulting 
# from the CCDC's data processing and validation procedures.
#
#######################################################################

data_HARRAW
_chemical_formula_moiety         'C21 H22 Br1 N1 O1'
_chemical_name_systematic        
(S)-2-[(S)-2-(4-bromophenyl)-1,2,3,4-tetrahydroisoquinolin-1-yl]cyclohexan-1-one
_symmetry_cell_setting           orthorhombic
_symmetry_space_group_name_H-M   'P 21 21 21'
_symmetry_Int_Tables_number      19
_space_group_name_Hall           'P 2ac 2ab'
loop_
_symmetry_equiv_pos_site_id
_symmetry_equiv_pos_as_xyz
1 x,y,z
2 1/2-x,-y,1/2+z
3 -x,1/2+y,1/2-z
4 1/2+x,1/2-y,-z
_cell_length_a                   5.8147(15)
_cell_length_b                   12.380(3)
_cell_length_c                   25.309(7)
_cell_angle_alpha                90
_cell_angle_beta                 90
_cell_angle_gamma                90
_cell_volume                     1821.89
_exptl_crystal_colour            colorless
_exptl_crystal_description       Plate
_cell_formula_units_Z            4
loop_
_atom_site_label
_atom_site_type_symbol
_atom_site_fract_x
_atom_site_fract_y
_atom_site_fract_z
Br1 Br -0.18127(9) 0.17424(4) 0.59009(2)
O1 O 0.2361(7) 0.7581(3) 0.73271(14)
N1 N 0.4518(7) 0.5663(3) 0.60509(14)
C1 C 0.3986(7) 0.6582(3) 0.63967(16)
H1 H 0.2372 0.6512 0.6503
C2 C 0.5449(8) 0.6605(3) 0.69093(16)
H2 H 0.6909 0.6958 0.6822
C3 C 0.4327(10) 0.7265(4) 0.73490(19)
C4 C 0.5856(11) 0.7416(4) 0.78275(19)
H3 H 0.5039 0.7819 0.8097
H4 H 0.7217 0.7823 0.7729
C5 C 0.6561(12) 0.6303(4) 0.80443(18)
H5 H 0.7655 0.6400 0.8330
H6 H 0.5215 0.5944 0.8187
C6 C 0.7629(9) 0.5596(4) 0.76200(19)
H7 H 0.7932 0.4883 0.7764
H8 H 0.9083 0.5906 0.7509
C7 C 0.6031(9) 0.5498(4) 0.71452(19)
H9 H 0.4622 0.5141 0.7253
H10 H 0.6760 0.5055 0.6877
C8 C 0.4207(9) 0.7635(4) 0.60919(18)
C9 C 0.6135(9) 0.7750(4) 0.57692(18)
C10 C 0.7713(8) 0.6807(4) 0.57321(17)
H11 H 0.8629 0.6758 0.6052
H12 H 0.8750 0.6904 0.5436
C11 C 0.6353(9) 0.5771(4) 0.56590(17)
H13 H 0.5687 0.5762 0.5308
H14 H 0.7385 0.5158 0.5688
C12 C 0.2600(9) 0.8457(4) 0.6127(2)
H15 H 0.1321 0.8376 0.6344
C13 C 0.2892(12) 0.9406(4) 0.5838(2)
H16 H 0.1811 0.9957 0.5860
C14 C 0.4814(13) 0.9519(5) 0.5517(2)
H17 H 0.5024 1.0152 0.5325
C15 C 0.6397(12) 0.8708(5) 0.5482(2)
H18 H 0.7671 0.8793 0.5264
C16 C 0.3085(8) 0.4771(3) 0.60258(15)
C17 C 0.1411(8) 0.4555(3) 0.64059(17)
H19 H 0.1246 0.5026 0.6690
C18 C -0.0016(8) 0.3661(4) 0.63734(18)
H20 H -0.1105 0.3532 0.6635
C19 C 0.0188(8) 0.2965(3) 0.59529(18)
C20 C 0.1848(9) 0.3135(4) 0.55758(16)
H21 H 0.2008 0.2651 0.5297
C21 C 0.3278(10) 0.4021(4) 0.56101(17)
H22 H 0.4396 0.4126 0.5352
loop_
_geom_bond_atom_site_label_1
_geom_bond_atom_site_label_2
_geom_bond_site_symmetry_1
_geom_bond_site_symmetry_2
Br1 C19 1_555 1_555
O1 C3 1_555 1_555
N1 C1 1_555 1_555
C1 H1 1_555 1_555
C2 C1 1_555 1_555
H2 C2 1_555 1_555
C3 C2 1_555 1_555
C4 C3 1_555 1_555
H3 C4 1_555 1_555
H4 C4 1_555 1_555
C5 C4 1_555 1_555
H5 C5 1_555 1_555
H6 C5 1_555 1_555
C6 C5 1_555 1_555
H7 C6 1_555 1_555
H8 C6 1_555 1_555
C7 C2 1_555 1_555
H9 C7 1_555 1_555
H10 C7 1_555 1_555
C8 C1 1_555 1_555
C9 C8 1_555 1_555
C10 C9 1_555 1_555
H11 C10 1_555 1_555
H12 C10 1_555 1_555
C11 N1 1_555 1_555
H13 C11 1_555 1_555
H14 C11 1_555 1_555
C12 C8 1_555 1_555
H15 C12 1_555 1_555
C13 C12 1_555 1_555
H16 C13 1_555 1_555
C14 C13 1_555 1_555
H17 C14 1_555 1_555
C15 C9 1_555 1_555
H18 C15 1_555 1_555
C16 N1 1_555 1_555
C17 C16 1_555 1_555
H19 C17 1_555 1_555
C18 C17 1_555 1_555
H20 C18 1_555 1_555
C19 C18 1_555 1_555
C20 C19 1_555 1_555
H21 C20 1_555 1_555
C21 C16 1_555 1_555
H22 C21 1_555 1_555
C6 C7 1_555 1_555
C10 C11 1_555 1_555
C14 C15 1_555 1_555
C20 C21 1_555 1_555

#END
