
#######################################################################
#
#                 Cambridge Crystallographic Data Centre
#                                CCDC 
#
#######################################################################
#
# If this CIF has been generated from an entry in the Cambridge 
# Structural Database, then it will include bibliographic, chemical, 
# crystal, experimental, refinement or atomic coordinate data resulting 
# from the CCDC's data processing and validation procedures.
#
#######################################################################

data_HARREA
_chemical_formula_moiety         'C21 H15 I1 N1 O1 P1 S1'
_chemical_name_systematic        
'2-iodo-4-methyl-5-phenyl-4,5-dihydronaphtho[2,1-c]thieno[3,2-e][1,2]azaphosphinine 5-oxide'
_symmetry_cell_setting           orthorhombic
_symmetry_space_group_name_H-M   'P 21 21 21'
_symmetry_Int_Tables_number      19
_space_group_name_Hall           'P 2ac 2ab'
loop_
_symmetry_equiv_pos_site_id
_symmetry_equiv_pos_as_xyz
1 x,y,z
2 1/2-x,-y,1/2+z
3 1/2+x,1/2-y,-z
4 -x,1/2+y,1/2-z
_cell_length_a                   7.6506(3)
_cell_length_b                   13.9985(6)
_cell_length_c                   17.8588(7)
_cell_angle_alpha                90
_cell_angle_beta                 90
_cell_angle_gamma                90
_cell_volume                     1912.62
_exptl_crystal_colour            'dark yellow'
_exptl_crystal_description       block
_cell_formula_units_Z            4
loop_
_atom_site_label
_atom_site_type_symbol
_atom_site_fract_x
_atom_site_fract_y
_atom_site_fract_z
I1 I 0.84903(6) 0.47484(4) 0.15257(3)
S1 S 0.9149(2) 0.50885(13) -0.02484(10)
P1 P 0.8501(2) 0.71261(12) -0.19393(9)
O1 O 0.6760(5) 0.6940(3) -0.2257(2)
N1 N 0.9463(6) 0.6227(4) -0.1468(3)
C1 C 0.9022(7) 0.8765(4) -0.0027(4)
C2 C 0.9567(7) 0.8722(5) 0.0734(4)
H1 H 0.9879 0.8136 0.0939
C3 C 0.9641(7) 0.9525(5) 0.1171(4)
H2 H 0.9983 0.9478 0.1670
C4 C 0.9203(8) 1.0418(5) 0.0868(5)
H3 H 0.9206 1.0959 0.1170
C5 C 0.8778(8) 1.0489(5) 0.0137(4)
H4 H 0.8520 1.1087 -0.0061
C6 C 0.8714(8) 0.9680(5) -0.0336(4)
C7 C 0.8345(8) 0.9758(5) -0.1106(4)
H5 H 0.8081 1.0353 -0.1308
C8 C 0.8370(8) 0.8977(5) -0.1559(4)
H6 H 0.8225 0.9054 -0.2072
C9 C 0.8608(8) 0.8061(4) -0.1265(3)
C10 C 0.8855(7) 0.7921(4) -0.0498(4)
C11 C 0.8952(7) 0.6933(5) -0.0207(3)
C12 C 0.9207(8) 0.6182(5) -0.0686(4)
C13 C 0.8697(8) 0.5632(4) 0.0593(4)
C14 C 0.8611(8) 0.6576(4) 0.0531(3)
H7 H 0.8351 0.6973 0.0933
C15 C 0.9877(9) 0.5348(5) -0.1861(4)
H8 H 0.8978 0.4884 -0.1768
H9 H 1.0977 0.5106 -0.1686
H10 H 0.9948 0.5472 -0.2389
C16 C 1.0034(9) 0.7379(5) -0.2676(4)
C17 C 1.1833(9) 0.7364(5) -0.2566(4)
H11 H 1.2275 0.7215 -0.2095
C18 C 1.2981(10) 0.7565(6) -0.3147(5)
H12 H 1.4182 0.7563 -0.3066
C19 C 1.2316(11) 0.7767(6) -0.3840(5)
H13 H 1.3079 0.7904 -0.4231
C20 C 1.0532(11) 0.7773(5) -0.3972(4)
H14 H 1.0096 0.7905 -0.4447
C21 C 0.9402(9) 0.7577(4) -0.3379(4)
H15 H 0.8201 0.7580 -0.3461
loop_
_geom_bond_atom_site_label_1
_geom_bond_atom_site_label_2
_geom_bond_site_symmetry_1
_geom_bond_site_symmetry_2
I1 C13 1_555 1_555
S1 C12 1_555 1_555
P1 O1 1_555 1_555
N1 P1 1_555 1_555
C1 C2 1_555 1_555
C2 H1 1_555 1_555
C3 C2 1_555 1_555
H2 C3 1_555 1_555
C4 C3 1_555 1_555
H3 C4 1_555 1_555
C5 C4 1_555 1_555
H4 C5 1_555 1_555
C6 C1 1_555 1_555
C7 C6 1_555 1_555
H5 C7 1_555 1_555
C8 C7 1_555 1_555
H6 C8 1_555 1_555
C9 P1 1_555 1_555
C10 C1 1_555 1_555
C11 C10 1_555 1_555
C12 N1 1_555 1_555
C13 S1 1_555 1_555
C14 C11 1_555 1_555
H7 C14 1_555 1_555
C15 N1 1_555 1_555
H8 C15 1_555 1_555
H9 C15 1_555 1_555
H10 C15 1_555 1_555
C16 P1 1_555 1_555
C17 C16 1_555 1_555
H11 C17 1_555 1_555
C18 C17 1_555 1_555
H12 C18 1_555 1_555
C19 C18 1_555 1_555
H13 C19 1_555 1_555
C20 C19 1_555 1_555
H14 C20 1_555 1_555
C21 C16 1_555 1_555
H15 C21 1_555 1_555
C5 C6 1_555 1_555
C8 C9 1_555 1_555
C9 C10 1_555 1_555
C11 C12 1_555 1_555
C13 C14 1_555 1_555
C20 C21 1_555 1_555

#END
