
#######################################################################
#
#                 Cambridge Crystallographic Data Centre
#                                CCDC 
#
#######################################################################
#
# If this CIF has been generated from an entry in the Cambridge 
# Structural Database, then it will include bibliographic, chemical, 
# crystal, experimental, refinement or atomic coordinate data resulting 
# from the CCDC's data processing and validation procedures.
#
#######################################################################

data_HARXEG
_chemical_formula_moiety         'C17 H18 N6 O1,H2 O1'
_chemical_name_systematic        
'bis(5,6-dihydro-4H-pyrrolo[1,2-c][1,2,3]triazol-3-yl)(phenyl)methanol monohydrate'
_symmetry_cell_setting           monoclinic
_symmetry_space_group_name_H-M   'P 21/c'
_symmetry_Int_Tables_number      14
_space_group_name_Hall           '-P 2ybc'
loop_
_symmetry_equiv_pos_site_id
_symmetry_equiv_pos_as_xyz
1 x,y,z
2 -x,1/2+y,1/2-z
3 -x,-y,-z
4 x,1/2-y,1/2+z
_cell_length_a                   6.70441(12)
_cell_length_b                   9.05538(16)
_cell_length_c                   27.0453(5)
_cell_angle_alpha                90
_cell_angle_beta                 94.0319(7)
_cell_angle_gamma                90
_cell_volume                     1637.88
_exptl_crystal_colour            colorless
_exptl_crystal_description       block
_cell_formula_units_Z            4
_exptl_crystal_recrystallization_method methanol/dichloromethane
loop_
_atom_site_label
_atom_site_type_symbol
_atom_site_fract_x
_atom_site_fract_y
_atom_site_fract_z
O1 O 0.97369(11) 0.16701(9) 0.36635(3)
N1 N 0.73450(14) -0.02445(11) 0.44021(4)
N2 N 0.74092(15) -0.04187(11) 0.48905(4)
N3 N 0.75787(14) 0.09390(11) 0.50839(3)
N4 N 0.54160(14) 0.39758(11) 0.39285(4)
N5 N 0.53002(15) 0.54202(11) 0.38431(4)
N6 N 0.69492(15) 0.57585(10) 0.36202(4)
C1 C 0.77024(16) 0.18107(12) 0.37783(4)
C2 C 0.74540(15) 0.12297(12) 0.42955(4)
C3 C 0.76066(16) 0.19966(12) 0.47368(4)
C4 C 0.78130(18) 0.34789(13) 0.49786(4)
C5 C 0.85653(19) 0.30476(14) 0.55160(4)
C6 C 0.77473(17) 0.14827(14) 0.55977(4)
C7 C 0.71368(16) 0.34333(12) 0.37566(4)
C8 C 0.81374(17) 0.45896(12) 0.35555(4)
C9 C 0.99286(17) 0.50343(13) 0.32935(4)
C10 C 0.9529(3) 0.66965(14) 0.31788(5)
C11 C 0.7617(2) 0.71643(13) 0.34235(5)
C12 C 0.64235(16) 0.09870(12) 0.33771(4)
C13 C 0.71918(17) 0.06181(13) 0.29270(4)
C14 C 0.59949(19) -0.01114(15) 0.25622(4)
C15 C 0.40338(19) -0.04774(14) 0.26443(4)
C16 C 0.32418(17) -0.00646(14) 0.30848(5)
C17 C 0.44325(17) 0.06657(12) 0.34493(4)
H1 H 1.0481 0.2070 0.3888
H2 H 0.6515 0.4002 0.4971
H3 H 0.8799 0.4103 0.4820
H4 H 1.0045 0.3051 0.5554
H5 H 0.8054 0.3749 0.5758
H6 H 0.8692 0.0881 0.5811
H7 H 0.6432 0.1509 0.5743
H8 H 1.0026 0.4459 0.2985
H9 H 1.1173 0.4900 0.3508
H10 H 1.0678 0.7299 0.3311
H11 H 0.9354 0.6852 0.2816
H12 H 0.7916 0.7893 0.3691
H13 H 0.6609 0.7583 0.3177
H14 H 0.8533 0.0865 0.2869
H15 H 0.6523 -0.0359 0.2256
H16 H 0.3237 -0.1008 0.2400
H17 H 0.1886 -0.0281 0.3137
H18 H 0.3884 0.0947 0.3750
O2 O 1.20927(13) 0.28998(10) 0.44169(3)
H19 H 1.2443 0.2244 0.4647
H20 H 1.3212 0.3204 0.4292
loop_
_geom_bond_atom_site_label_1
_geom_bond_atom_site_label_2
_geom_bond_site_symmetry_1
_geom_bond_site_symmetry_2
O1 C1 1_555 1_555
N1 N2 1_555 1_555
N2 N3 1_555 1_555
N3 C3 1_555 1_555
N4 N5 1_555 1_555
N5 N6 1_555 1_555
N6 C8 1_555 1_555
C1 C2 1_555 1_555
C2 N1 1_555 1_555
C3 C2 1_555 1_555
C4 C3 1_555 1_555
C5 C4 1_555 1_555
C6 N3 1_555 1_555
C7 N4 1_555 1_555
C8 C7 1_555 1_555
C9 C8 1_555 1_555
C10 C9 1_555 1_555
C11 N6 1_555 1_555
C12 C1 1_555 1_555
C13 C12 1_555 1_555
C14 C13 1_555 1_555
C15 C14 1_555 1_555
C16 C15 1_555 1_555
C17 C12 1_555 1_555
H1 O1 1_555 1_555
H2 C4 1_555 1_555
H3 C4 1_555 1_555
H4 C5 1_555 1_555
H5 C5 1_555 1_555
H6 C6 1_555 1_555
H7 C6 1_555 1_555
H8 C9 1_555 1_555
H9 C9 1_555 1_555
H10 C10 1_555 1_555
H11 C10 1_555 1_555
H12 C11 1_555 1_555
H13 C11 1_555 1_555
H14 C13 1_555 1_555
H15 C14 1_555 1_555
H16 C15 1_555 1_555
H17 C16 1_555 1_555
H18 C17 1_555 1_555
O2 H19 1_555 1_555
H20 O2 1_555 1_555
C1 C7 1_555 1_555
C5 C6 1_555 1_555
C10 C11 1_555 1_555
C16 C17 1_555 1_555

#END
