
#######################################################################
#
#                 Cambridge Crystallographic Data Centre
#                                CCDC 
#
#######################################################################
#
# If this CIF has been generated from an entry in the Cambridge 
# Structural Database, then it will include bibliographic, chemical, 
# crystal, experimental, refinement or atomic coordinate data resulting 
# from the CCDC's data processing and validation procedures.
#
#######################################################################

data_HASHOB
_chemical_formula_moiety         'C19 H15 Cl1 F2 O2'
_chemical_name_systematic        
1-[5-chloro-2-(1-fluoro-2-oxo-2-phenylethyl)phenyl]-2-fluoro-3-methylbut-3-en-1-one
_symmetry_cell_setting           triclinic
_symmetry_space_group_name_H-M   'P -1'
_symmetry_Int_Tables_number      2
_space_group_name_Hall           '-P 1'
loop_
_symmetry_equiv_pos_site_id
_symmetry_equiv_pos_as_xyz
1 x,y,z
2 -x,-y,-z
_cell_length_a                   10.6148(8)
_cell_length_b                   10.7588(9)
_cell_length_c                   15.7912(13)
_cell_angle_alpha                99.780(2)
_cell_angle_beta                 97.338(2)
_cell_angle_gamma                105.440(3)
_cell_volume                     1684.42
_exptl_crystal_colour            white
_exptl_crystal_description       block
_cell_formula_units_Z            4
loop_
_atom_site_label
_atom_site_type_symbol
_atom_site_fract_x
_atom_site_fract_y
_atom_site_fract_z
Cl1 Cl 0.97214(9) 0.32797(9) 0.07304(6)
F1 F 0.7782(2) 0.85302(19) 0.23159(11)
F2 F 0.52892(19) 0.51192(18) -0.16508(12)
O1 O 0.6487(2) 0.7402(2) 0.07747(14)
O2 O 0.7678(2) 0.7685(2) -0.09327(16)
C1 C 1.0783(4) 0.8380(4) 0.2121(2)
H1 H 1.1604 0.8898 0.2055
H2 H 1.0740 0.7770 0.2477
C2 C 0.9680(4) 0.8511(3) 0.1709(2)
C3 C 0.8375(3) 0.7686(3) 0.18527(19)
H3 H 0.8526 0.7041 0.2193
C4 C 0.7397(3) 0.6976(3) 0.10042(19)
C5 C 0.7582(3) 0.5789(3) 0.04600(18)
C6 C 0.8462(3) 0.5170(3) 0.08051(19)
H4 H 0.8952 0.5514 0.1368
C7 C 0.8608(3) 0.4042(3) 0.0311(2)
C8 C 0.7904(3) 0.3529(3) -0.0519(2)
H5 H 0.8010 0.2773 -0.0850
C9 C 0.7037(3) 0.4144(3) -0.08621(19)
H6 H 0.6558 0.3788 -0.1427
C10 C 0.6853(3) 0.5272(3) -0.03945(18)
C11 C 0.5885(3) 0.5886(3) -0.08100(18)
H7 H 0.5195 0.5902 -0.0455
C12 C 0.6501(3) 0.7284(3) -0.09451(19)
C13 C 0.5591(3) 0.8094(3) -0.11051(18)
C14 C 0.4244(3) 0.7520(3) -0.1415(2)
H8 H 0.3881 0.6608 -0.1521
C15 C 0.3440(3) 0.8310(4) -0.1564(2)
H9 H 0.2538 0.7925 -0.1787
C16 C 0.3958(4) 0.9654(4) -0.1388(2)
H10 H 0.3411 1.0180 -0.1488
C17 C 0.5278(4) 1.0215(3) -0.1067(2)
H11 H 0.5626 1.1129 -0.0937
C18 C 0.6101(3) 0.9454(3) -0.0934(2)
H12 H 0.7005 0.9851 -0.0728
C19 C 0.9632(4) 0.9454(4) 0.1124(3)
H13 H 1.0507 1.0045 0.1175
H14 H 0.9041 0.9951 0.1290
H15 H 0.9317 0.8973 0.0530
Cl2 Cl 1.21384(12) 0.51059(12) 0.29363(6)
F3 F 1.1943(2) 0.51125(19) 0.71609(11)
F4 F 0.8566(2) -0.00164(19) 0.42274(14)
O3 O 1.0142(2) 0.3174(2) 0.61919(14)
O4 O 0.7492(2) 0.2438(2) 0.48015(17)
C20 C 1.4348(4) 0.5651(4) 0.6026(3)
H16 H 1.5175 0.5529 0.5985
H17 H 1.4191 0.6435 0.5943
C21 C 1.3394(3) 0.4707(3) 0.6203(2)
C22 C 1.2073(3) 0.4947(3) 0.62841(18)
H18 H 1.2038 0.5746 0.6076
C23 C 1.0883(3) 0.3791(3) 0.57869(19)
C24 C 1.0698(3) 0.3433(3) 0.48157(19)
C25 C 1.1384(3) 0.4315(3) 0.43740(19)
H19 H 1.1928 0.5139 0.4682
C26 C 1.1267(3) 0.3983(4) 0.3475(2)
C27 C 1.0477(4) 0.2765(4) 0.3019(2)
H20 H 1.0419 0.2530 0.2417
C28 C 0.9772(4) 0.1894(4) 0.3455(2)
H21 H 0.9223 0.1077 0.3138
C29 C 0.9856(3) 0.2199(3) 0.4354(2)
C30 C 0.9069(3) 0.1218(3) 0.4802(2)
H22 H 0.9642 0.1146 0.5318
C31 C 0.7840(3) 0.1563(3) 0.5072(2)
C32 C 0.7095(3) 0.0792(3) 0.5630(2)
C33 C 0.6062(4) 0.1170(4) 0.5941(2)
H23 H 0.5858 0.1906 0.5798
C34 C 0.5335(4) 0.0475(5) 0.6457(3)
H24 H 0.4651 0.0747 0.6667
C35 C 0.5612(5) -0.0611(4) 0.6664(3)
H25 H 0.5102 -0.1092 0.7002
C36 C 0.6642(5) -0.1001(4) 0.6375(3)
H26 H 0.6844 -0.1732 0.6529
C37 C 0.7379(4) -0.0301(3) 0.5854(2)
H27 H 0.8071 -0.0570 0.5654
C38 C 1.3566(4) 0.3447(4) 0.6342(3)
H28 H 1.4430 0.3408 0.6246
H29 H 1.2897 0.2736 0.5942
H30 H 1.3482 0.3372 0.6931
loop_
_geom_bond_atom_site_label_1
_geom_bond_atom_site_label_2
_geom_bond_site_symmetry_1
_geom_bond_site_symmetry_2
Cl1 C7 1_555 1_555
F1 C3 1_555 1_555
F2 C11 1_555 1_555
O1 C4 1_555 1_555
O2 C12 1_555 1_555
C1 H1 1_555 1_555
H2 C1 1_555 1_555
C2 C1 1_555 1_555
C3 C2 1_555 1_555
H3 C3 1_555 1_555
C4 C3 1_555 1_555
C5 C4 1_555 1_555
C6 C5 1_555 1_555
H4 C6 1_555 1_555
C7 C6 1_555 1_555
C8 C7 1_555 1_555
H5 C8 1_555 1_555
C9 C8 1_555 1_555
H6 C9 1_555 1_555
C10 C5 1_555 1_555
C11 C10 1_555 1_555
H7 C11 1_555 1_555
C12 C11 1_555 1_555
C13 C12 1_555 1_555
C14 C13 1_555 1_555
H8 C14 1_555 1_555
C15 C14 1_555 1_555
H9 C15 1_555 1_555
C16 C15 1_555 1_555
H10 C16 1_555 1_555
C17 C16 1_555 1_555
H11 C17 1_555 1_555
C18 C13 1_555 1_555
H12 C18 1_555 1_555
C19 C2 1_555 1_555
H13 C19 1_555 1_555
H14 C19 1_555 1_555
H15 C19 1_555 1_555
Cl2 C26 1_555 1_555
F3 C22 1_555 1_555
F4 C30 1_555 1_555
O3 C23 1_555 1_555
O4 C31 1_555 1_555
C20 H16 1_555 1_555
H17 C20 1_555 1_555
C21 C20 1_555 1_555
C22 C21 1_555 1_555
H18 C22 1_555 1_555
C23 C22 1_555 1_555
C24 C23 1_555 1_555
C25 C24 1_555 1_555
H19 C25 1_555 1_555
C26 C25 1_555 1_555
C27 C26 1_555 1_555
H20 C27 1_555 1_555
C28 C27 1_555 1_555
H21 C28 1_555 1_555
C29 C24 1_555 1_555
C30 C29 1_555 1_555
H22 C30 1_555 1_555
C31 C30 1_555 1_555
C32 C31 1_555 1_555
C33 C32 1_555 1_555
H23 C33 1_555 1_555
C34 C33 1_555 1_555
H24 C34 1_555 1_555
C35 C34 1_555 1_555
H25 C35 1_555 1_555
C36 C35 1_555 1_555
H26 C36 1_555 1_555
C37 C32 1_555 1_555
H27 C37 1_555 1_555
C38 C21 1_555 1_555
H28 C38 1_555 1_555
H29 C38 1_555 1_555
H30 C38 1_555 1_555
C9 C10 1_555 1_555
C17 C18 1_555 1_555
C28 C29 1_555 1_555
C36 C37 1_555 1_555

#END
