
#######################################################################
#
#                 Cambridge Crystallographic Data Centre
#                                CCDC 
#
#######################################################################
#
# If this CIF has been generated from an entry in the Cambridge 
# Structural Database, then it will include bibliographic, chemical, 
# crystal, experimental, refinement or atomic coordinate data resulting 
# from the CCDC's data processing and validation procedures.
#
#######################################################################

data_HASSEC
_chemical_formula_moiety         'C19 H21 B1 N1 P1'
_chemical_name_systematic        
2-[bis(2-methylphenyl)phosphanyl]-1-methyl-1,2-dihydro-1,2-azaborinine
_symmetry_cell_setting           monoclinic
_symmetry_space_group_name_H-M   'P 21/n'
_symmetry_Int_Tables_number      14
_space_group_name_Hall           '-P 2yn'
loop_
_symmetry_equiv_pos_site_id
_symmetry_equiv_pos_as_xyz
1 x,y,z
2 1/2-x,1/2+y,1/2-z
3 -x,-y,-z
4 1/2+x,1/2-y,1/2+z
_cell_length_a                   7.6132(9)
_cell_length_b                   7.9016(9)
_cell_length_c                   28.864(3)
_cell_angle_alpha                90
_cell_angle_beta                 90.407(2)
_cell_angle_gamma                90
_cell_volume                     1736.31
_exptl_crystal_colour            colorless
_exptl_crystal_description       block
_cell_formula_units_Z            4
_chemical_properties_physical    
', Air-sensitive,Moisture-sensitive,Oxygen-sensitive'
loop_
_atom_site_label
_atom_site_type_symbol
_atom_site_fract_x
_atom_site_fract_y
_atom_site_fract_z
P1 P 0.82286(6) -0.05280(5) 0.146009(14)
N1 N 1.05485(19) -0.32057(18) 0.11506(5)
B1 B 0.9526(2) -0.1790(2) 0.10044(6)
C1 C 1.1385(2) -0.4216(2) 0.08349(6)
C2 C 1.1296(2) -0.3914(2) 0.03726(6)
C3 C 1.0325(2) -0.2534(2) 0.02003(6)
C4 C 0.9443(2) -0.1479(2) 0.04945(6)
C5 C 1.0788(4) -0.3662(3) 0.16445(7)
C6 C 0.7117(2) 0.1078(2) 0.10960(5)
C7 C 0.5641(2) 0.0586(2) 0.08244(6)
C8 C 0.4797(3) 0.1816(3) 0.05597(7)
C9 C 0.5342(3) 0.3480(3) 0.05595(7)
C10 C 0.6755(3) 0.3962(3) 0.08260(8)
C11 C 0.7635(3) 0.2777(2) 0.10909(6)
C12 C 0.4994(3) -0.1198(3) 0.08170(9)
C13 C 0.9931(2) 0.0730(2) 0.17599(6)
C14 C 0.9534(2) 0.1540(2) 0.21821(6)
C15 C 1.0842(3) 0.2465(2) 0.24070(6)
C16 C 1.2512(3) 0.2609(3) 0.22323(7)
C17 C 1.2914(3) 0.1819(3) 0.18190(7)
C18 C 1.1640(2) 0.0896(2) 0.15871(6)
C19 C 0.7719(3) 0.1471(4) 0.23831(9)
H1 H 1.202(3) -0.511(3) 0.0959(7)
H2 H 1.188(2) -0.468(2) 0.0172(7)
H3 H 1.032(3) -0.235(2) -0.0137(8)
H4 H 0.874(3) -0.057(2) 0.0369(7)
H5 H 1.196(5) -0.316(4) 0.1757(12)
H6 H 0.987(4) -0.317(4) 0.1835(11)
H7 H 1.099(3) -0.477(4) 0.1687(9)
H8 H 0.381(3) 0.143(3) 0.0399(7)
H9 H 0.477(3) 0.429(3) 0.0381(8)
H10 H 0.715(3) 0.510(3) 0.0826(8)
H11 H 0.863(3) 0.310(3) 0.1262(8)
H12 H 0.579(3) -0.195(3) 0.0652(9)
H13 H 0.386(3) -0.127(3) 0.0685(8)
H14 H 0.488(3) -0.165(3) 0.1122(10)
H15 H 1.051(3) 0.307(3) 0.2702(7)
H16 H 1.338(3) 0.325(3) 0.2389(7)
H17 H 1.403(3) 0.193(3) 0.1704(8)
H18 H 1.195(3) 0.033(3) 0.1305(7)
H19 H 0.689(5) 0.216(5) 0.2179(12)
H20 H 0.727(4) 0.038(4) 0.2394(9)
H21 H 0.768(3) 0.198(4) 0.2673(10)
loop_
_geom_bond_atom_site_label_1
_geom_bond_atom_site_label_2
_geom_bond_site_symmetry_1
_geom_bond_site_symmetry_2
P1 B1 1_555 1_555
N1 B1 1_555 1_555
B1 C4 1_555 1_555
C1 N1 1_555 1_555
C2 C1 1_555 1_555
C3 C2 1_555 1_555
C4 C3 1_555 1_555
C5 N1 1_555 1_555
C6 P1 1_555 1_555
C7 C6 1_555 1_555
C8 C7 1_555 1_555
C9 C8 1_555 1_555
C10 C9 1_555 1_555
C11 C6 1_555 1_555
C12 C7 1_555 1_555
C13 P1 1_555 1_555
C14 C13 1_555 1_555
C15 C14 1_555 1_555
C16 C15 1_555 1_555
C17 C16 1_555 1_555
C18 C13 1_555 1_555
C19 C14 1_555 1_555
H1 C1 1_555 1_555
H2 C2 1_555 1_555
H3 C3 1_555 1_555
H4 C4 1_555 1_555
H5 C5 1_555 1_555
H6 C5 1_555 1_555
H7 C5 1_555 1_555
H8 C8 1_555 1_555
H9 C9 1_555 1_555
H10 C10 1_555 1_555
H11 C11 1_555 1_555
H12 C12 1_555 1_555
H13 C12 1_555 1_555
H14 C12 1_555 1_555
H15 C15 1_555 1_555
H16 C16 1_555 1_555
H17 C17 1_555 1_555
H18 C18 1_555 1_555
H19 C19 1_555 1_555
H20 C19 1_555 1_555
H21 C19 1_555 1_555
C10 C11 1_555 1_555
C17 C18 1_555 1_555

#END
