
#######################################################################
#
#                 Cambridge Crystallographic Data Centre
#                                CCDC 
#
#######################################################################
#
# If this CIF has been generated from an entry in the Cambridge 
# Structural Database, then it will include bibliographic, chemical, 
# crystal, experimental, refinement or atomic coordinate data resulting 
# from the CCDC's data processing and validation procedures.
#
#######################################################################

data_HASWEG
_chemical_formula_moiety         'C17 H10 N2 O3'
_chemical_name_systematic        
2-(1-oxopyridin-4-yl)-1H-benzo[de]isoquinoline-1,3(2H)-dione
_symmetry_cell_setting           monoclinic
_symmetry_space_group_name_H-M   'P 21/n'
_symmetry_Int_Tables_number      14
_space_group_name_Hall           '-P 2yn'
loop_
_symmetry_equiv_pos_site_id
_symmetry_equiv_pos_as_xyz
1 x,y,z
2 1/2-x,1/2+y,1/2-z
3 -x,-y,-z
4 1/2+x,1/2-y,1/2+z
_cell_length_a                   7.6840(4)
_cell_length_b                   18.1773(8)
_cell_length_c                   9.3434(5)
_cell_angle_alpha                90
_cell_angle_beta                 96.010(5)
_cell_angle_gamma                90
_cell_volume                     1297.86
_exptl_crystal_colour            'light yellow'
_exptl_crystal_description       block
_cell_formula_units_Z            4
loop_
_atom_site_label
_atom_site_type_symbol
_atom_site_fract_x
_atom_site_fract_y
_atom_site_fract_z
N1 N 0.84803(18) 0.10745(7) 0.17674(14)
O1 O 0.93818(16) 0.19778(6) 0.33344(13)
C1 C 0.8375(2) 0.08804(9) 0.43395(17)
C2 C 0.7599(2) 0.01909(9) 0.40349(17)
C3 C 0.8782(2) 0.13607(9) 0.31605(17)
N2 N 0.9637(2) 0.24590(7) -0.15865(15)
C4 C 0.8763(2) 0.11085(10) 0.57360(18)
H1 H 0.9282 0.1565 0.5928
C5 C 0.7708(2) 0.03903(9) 0.14000(18)
C6 C 0.8882(2) 0.15461(9) 0.06058(17)
C7 C 0.7230(2) -0.00618(9) 0.26059(18)
O2 O 0.9975(2) 0.29102(8) -0.26050(15)
C8 C 0.7176(2) -0.02609(9) 0.51832(19)
O3 O 0.7498(2) 0.02027(8) 0.01497(14)
C9 C 0.7590(2) -0.00052(11) 0.66041(19)
H2 H 0.7316 -0.0295 0.7370
C10 C 1.0581(2) 0.16395(10) 0.02996(19)
H3 H 1.1484 0.1388 0.0830
C11 C 0.6375(3) -0.09438(10) 0.4859(2)
H4 H 0.6071 -0.1241 0.5604
C12 C 1.0940(2) 0.21024(10) -0.0784(2)
H5 H 1.2093 0.2173 -0.0971
C13 C 0.8381(3) 0.06558(11) 0.6872(2)
H6 H 0.8670 0.0808 0.7817
C14 C 0.7573(2) 0.19199(9) -0.01928(19)
H7 H 0.6420 0.1873 0.0013
C15 C 0.6459(3) -0.07347(10) 0.2334(2)
H8 H 0.6215 -0.0897 0.1390
C16 C 0.7971(2) 0.23623(9) -0.12949(19)
H9 H 0.7073 0.2602 -0.1856
C17 C 0.6036(3) -0.11782(10) 0.3477(2)
H10 H 0.5521 -0.1636 0.3287
loop_
_geom_bond_atom_site_label_1
_geom_bond_atom_site_label_2
_geom_bond_site_symmetry_1
_geom_bond_site_symmetry_2
N1 C3 1_555 1_555
O1 C3 1_555 1_555
C1 C2 1_555 1_555
C2 C7 1_555 1_555
C3 C1 1_555 1_555
N2 O2 1_555 1_555
C4 C1 1_555 1_555
H1 C4 1_555 1_555
C5 N1 1_555 1_555
C6 N1 1_555 1_555
C7 C5 1_555 1_555
C8 C2 1_555 1_555
O3 C5 1_555 1_555
C9 C8 1_555 1_555
H2 C9 1_555 1_555
C10 C6 1_555 1_555
H3 C10 1_555 1_555
C11 C8 1_555 1_555
H4 C11 1_555 1_555
C12 N2 1_555 1_555
H5 C12 1_555 1_555
C13 C4 1_555 1_555
H6 C13 1_555 1_555
C14 C6 1_555 1_555
H7 C14 1_555 1_555
C15 C7 1_555 1_555
H8 C15 1_555 1_555
C16 N2 1_555 1_555
H9 C16 1_555 1_555
C17 C11 1_555 1_555
H10 C17 1_555 1_555
C9 C13 1_555 1_555
C10 C12 1_555 1_555
C14 C16 1_555 1_555
C15 C17 1_555 1_555

#END
