
#######################################################################
#
#                 Cambridge Crystallographic Data Centre
#                                CCDC 
#
#######################################################################
#
# If this CIF has been generated from an entry in the Cambridge 
# Structural Database, then it will include bibliographic, chemical, 
# crystal, experimental, refinement or atomic coordinate data resulting 
# from the CCDC's data processing and validation procedures.
#
#######################################################################

data_HASWIK
_chemical_formula_moiety         'C17 H10 N2 O3'
_chemical_name_systematic        
2-(1-oxopyridin-3-yl)-1H-benzo[de]isoquinoline-1,3(2H)-dione
_symmetry_cell_setting           triclinic
_symmetry_space_group_name_H-M   'P -1'
_symmetry_Int_Tables_number      2
_space_group_name_Hall           '-P 1'
loop_
_symmetry_equiv_pos_site_id
_symmetry_equiv_pos_as_xyz
1 x,y,z
2 -x,-y,-z
_cell_length_a                   7.7269(7)
_cell_length_b                   9.1920(8)
_cell_length_c                   9.5229(6)
_cell_angle_alpha                82.966(6)
_cell_angle_beta                 78.049(6)
_cell_angle_gamma                88.710(7)
_cell_volume                     656.727
_exptl_crystal_colour            'light yellow'
_exptl_crystal_description       block
_cell_formula_units_Z            2
loop_
_atom_site_label
_atom_site_type_symbol
_atom_site_fract_x
_atom_site_fract_y
_atom_site_fract_z
N1 N 0.21014(17) 0.66020(13) 0.67147(12)
C1 C 0.2678(2) 0.52028(16) 0.63955(15)
O1 O 0.28451(17) 0.48964(12) 0.51732(11)
O2 O 0.12769(18) 0.83138(12) 0.82434(11)
C2 C 0.1801(2) 0.70817(17) 0.80891(15)
C3 C 0.3052(2) 0.41731(16) 0.76042(15)
C4 C 0.27767(19) 0.46018(16) 0.90034(15)
C5 C 0.1769(2) 0.76331(16) 0.55299(14)
C6 C 0.2158(2) 0.60158(16) 0.92780(15)
C7 C 0.3137(2) 0.35950(17) 1.01606(16)
N2 N 0.27055(17) 0.97629(14) 0.39409(13)
O3 O 0.38061(17) 1.08549(13) 0.34931(14)
C8 C 0.2273(2) 0.5418(2) 1.17868(17)
H1 H 0.2100 0.5696 1.2712
C9 C 0.1330(2) 0.96321(19) 0.32952(16)
H2 H 0.1186 1.0313 0.2521
C10 C 0.2942(2) 0.87657(16) 0.50500(15)
H3 H 0.3901 0.8850 0.5486
C11 C 0.2878(2) 0.4053(2) 1.15482(17)
H4 H 0.3125 0.3409 1.2314
C12 C 0.3752(2) 0.21882(19) 0.9863(2)
H5 H 0.3995 0.1516 1.0610
C13 C 0.1907(2) 0.64086(19) 1.06468(16)
H6 H 0.1490 0.7340 1.0821
C14 C 0.3997(3) 0.17936(19) 0.8505(2)
H7 H 0.4388 0.0855 0.8334
C15 C 0.3661(2) 0.27986(18) 0.73622(18)
H8 H 0.3854 0.2529 0.6433
C16 C 0.0346(2) 0.74855(18) 0.49101(16)
H9 H -0.0461 0.6722 0.5246
C17 C 0.0151(2) 0.85115(19) 0.37676(17)
H10 H -0.0796 0.8436 0.3316
loop_
_geom_bond_atom_site_label_1
_geom_bond_atom_site_label_2
_geom_bond_site_symmetry_1
_geom_bond_site_symmetry_2
N1 C1 1_555 1_555
C1 O1 1_555 1_555
O2 C2 1_555 1_555
C2 N1 1_555 1_555
C3 C1 1_555 1_555
C4 C3 1_555 1_555
C5 N1 1_555 1_555
C6 C2 1_555 1_555
C7 C4 1_555 1_555
N2 O3 1_555 1_555
C8 H1 1_555 1_555
C9 N2 1_555 1_555
H2 C9 1_555 1_555
C10 C5 1_555 1_555
H3 C10 1_555 1_555
C11 C7 1_555 1_555
H4 C11 1_555 1_555
C12 C7 1_555 1_555
H5 C12 1_555 1_555
C13 C6 1_555 1_555
H6 C13 1_555 1_555
C14 C12 1_555 1_555
H7 C14 1_555 1_555
C15 C3 1_555 1_555
H8 C15 1_555 1_555
C16 C5 1_555 1_555
H9 C16 1_555 1_555
C17 C9 1_555 1_555
H10 C17 1_555 1_555
C4 C6 1_555 1_555
N2 C10 1_555 1_555
C8 C11 1_555 1_555
C8 C13 1_555 1_555
C14 C15 1_555 1_555
C16 C17 1_555 1_555

#END
