
#######################################################################
#
#                 Cambridge Crystallographic Data Centre
#                                CCDC 
#
#######################################################################
#
# If this CIF has been generated from an entry in the Cambridge 
# Structural Database, then it will include bibliographic, chemical, 
# crystal, experimental, refinement or atomic coordinate data resulting 
# from the CCDC's data processing and validation procedures.
#
#######################################################################

data_HASXOQ
_chemical_formula_moiety         'C35 H36 N6 2+,2(C2 F3 O2 1-),C1 H1 Cl3'
_chemical_name_systematic        
'1^3^,1^4^,3^3^,3^4^-tetraethyl-1,3,5(2,5)-tripyrrola-2,4,6(2,6)-tripyridinacyclohexaphane-2^1^,4^1^-diium bis(trifluoroacetate) chloroform solvate'
_symmetry_cell_setting           triclinic
_symmetry_space_group_name_H-M   'P -1'
_symmetry_Int_Tables_number      2
_space_group_name_Hall           '-P 1'
loop_
_symmetry_equiv_pos_site_id
_symmetry_equiv_pos_as_xyz
1 x,y,z
2 -x,-y,-z
_cell_length_a                   15.2140(6)
_cell_length_b                   15.8260(7)
_cell_length_c                   17.8150(8)
_cell_angle_alpha                92.1320(10)
_cell_angle_beta                 112.4620(10)
_cell_angle_gamma                94.7250(10)
_cell_volume                     3939.54
_exptl_crystal_colour            red
_exptl_crystal_description       block
_cell_formula_units_Z            4
loop_
_atom_site_label
_atom_site_type_symbol
_atom_site_fract_x
_atom_site_fract_y
_atom_site_fract_z
C1 C 0.93455(17) 0.45657(14) 0.16154(15)
C2 C 0.84440(17) 0.48444(15) 0.14318(15)
C3 C 0.77622(17) 0.41326(15) 0.10709(15)
C4 C 0.82763(16) 0.34487(15) 0.10398(14)
C5 C 0.79770(16) 0.25493(15) 0.08201(14)
C6 C 0.71266(17) 0.22107(16) 0.02154(15)
H1 H 0.6672 0.2572 -0.0091
C7 C 0.69446(17) 0.13333(16) 0.00604(15)
H2 H 0.6360 0.1095 -0.0356
C8 C 0.75978(17) 0.08052(16) 0.05007(15)
H3 H 0.7470 0.0208 0.0377
C9 C 0.84441(17) 0.11426(15) 0.11258(15)
C10 C 0.91557(17) 0.06428(15) 0.16479(15)
C11 C 0.90717(18) -0.01989(15) 0.18515(15)
C12 C 0.99591(18) -0.03387(15) 0.24521(15)
C13 C 1.05697(18) 0.04092(15) 0.25869(15)
C14 C 1.15625(18) 0.06696(16) 0.31412(16)
C15 C 1.22176(19) 0.01094(18) 0.35543(17)
H4 H 1.2051 -0.0488 0.3465
C16 C 1.3114(2) 0.04466(19) 0.40962(18)
H5 H 1.3561 0.0078 0.4400
C17 C 1.33631(19) 0.13086(19) 0.41986(17)
H6 H 1.3977 0.1545 0.4570
C18 C 1.26888(18) 0.18254(17) 0.37417(16)
C19 C 1.28718(17) 0.27415(17) 0.37728(16)
C20 C 1.36778(18) 0.33254(19) 0.41575(18)
H7 H 1.4293 0.3196 0.4507
C21 C 1.34185(19) 0.41278(19) 0.39369(18)
H8 H 1.3825 0.4646 0.4105
C22 C 1.24527(17) 0.40357(16) 0.34244(16)
C23 C 1.18516(17) 0.46650(16) 0.30204(15)
C24 C 1.21798(19) 0.55208(17) 0.30797(17)
H9 H 1.2829 0.5714 0.3401
C25 C 1.15557(19) 0.60860(16) 0.26682(17)
H10 H 1.1774 0.6674 0.2725
C26 C 1.06153(18) 0.58117(15) 0.21729(16)
H11 H 1.0195 0.6205 0.1881
C27 C 1.02967(17) 0.49576(15) 0.21094(15)
C28 C 0.82493(19) 0.57230(16) 0.16279(17)
H12 H 0.8769 0.5964 0.2142
H13 H 0.7645 0.5684 0.1718
C29 C 0.8172(2) 0.63293(17) 0.09568(18)
H14 H 0.8768 0.6372 0.0863
H15 H 0.8061 0.6893 0.1126
H16 H 0.7639 0.6110 0.0452
C30 C 0.67009(18) 0.41015(17) 0.08535(17)
H17 H 0.6587 0.4471 0.1261
H18 H 0.6451 0.3513 0.0887
C31 C 0.6144(2) 0.4381(2) 0.00092(19)
H19 H 0.6385 0.4964 -0.0032
H20 H 0.5464 0.4360 -0.0083
H21 H 0.6222 0.4000 -0.0402
C32 C 0.81959(19) -0.08286(16) 0.15630(16)
H22 H 0.8387 -0.1400 0.1721
H23 H 0.7892 -0.0854 0.0961
C33 C 0.7472(2) -0.06021(19) 0.1915(2)
H24 H 0.7747 -0.0633 0.2507
H25 H 0.6893 -0.1003 0.1676
H26 H 0.7308 -0.0024 0.1788
C34 C 1.0161(2) -0.11479(16) 0.28685(17)
H27 H 0.9573 -0.1401 0.2922
H28 H 1.0657 -0.1015 0.3424
C35 C 1.0500(2) -0.17962(18) 0.2414(2)
H29 H 1.0015 -0.1926 0.1861
H30 H 1.0600 -0.2318 0.2702
H31 H 1.1102 -0.1562 0.2385
N1 N 0.92250(13) 0.37209(12) 0.13650(12)
H64 H 0.9689 0.3404 0.1408
N2 N 0.85900(14) 0.20021(13) 0.12639(13)
N3 N 1.00672(14) 0.09926(13) 0.21066(13)
H65 H 1.0295 0.1519 0.2093
N4 N 1.18051(15) 0.15104(14) 0.32297(13)
N5 N 1.21421(14) 0.31885(14) 0.33362(13)
H66 H 1.1555 0.2965 0.3040
N6 N 1.09219(15) 0.44244(14) 0.25518(13)
H71 H 0.902(2) 0.2208(19) 0.1677(19)
H72 H 1.069(3) 0.397(2) 0.254(2)
C36 C 0.97290(17) 0.29455(15) 0.33452(15)
C37 C 0.8704(2) 0.2551(2) 0.31959(18)
O1 O 0.99699(12) 0.28267(11) 0.27549(10)
O2 O 1.01774(14) 0.33383(13) 0.40064(12)
F1 F 0.85621(16) 0.17306(13) 0.29196(12)
F2 F 0.85068(16) 0.25886(16) 0.38573(12)
F3 F 0.80519(12) 0.29419(16) 0.26334(13)
C38 C 1.07662(16) 0.25348(15) 0.08371(15)
C39 C 1.10857(19) 0.16720(18) 0.06482(18)
O3 O 1.05855(12) 0.25762(11) 0.14632(11)
O4 O 1.06802(14) 0.30558(12) 0.03262(12)
F4 F 1.16045(12) 0.13055(10) 0.13164(11)
F5 F 1.03209(14) 0.11109(12) 0.02526(14)
F6 F 1.16052(16) 0.17357(14) 0.01990(13)
C40 C 0.39570(17) 0.51242(15) 0.21017(15)
C41 C 0.43820(17) 0.43774(15) 0.21145(15)
C42 C 0.53251(17) 0.45214(15) 0.27078(15)
C43 C 0.54429(17) 0.53579(15) 0.30400(15)
C44 C 0.62769(18) 0.58550(15) 0.36216(15)
C45 C 0.70279(19) 0.55117(16) 0.42220(16)
H32 H 0.6998 0.4916 0.4275
C46 C 0.78088(19) 0.60366(17) 0.47360(16)
H33 H 0.8330 0.5797 0.5126
C47 C 0.78458(18) 0.69125(16) 0.46925(16)
H34 H 0.8382 0.7272 0.5058
C48 C 0.70955(17) 0.72551(15) 0.41123(15)
C49 C 0.70227(17) 0.81583(15) 0.40220(15)
C50 C 0.77052(17) 0.88476(15) 0.41401(15)
C51 C 0.72013(18) 0.95607(15) 0.38811(15)
C52 C 0.62280(18) 0.92857(15) 0.36056(15)
C53 C 0.53788(18) 0.96858(15) 0.31814(15)
C54 C 0.52628(19) 1.05366(16) 0.32660(17)
H35 H 0.5777 1.0923 0.3624
C55 C 0.4383(2) 1.08203(16) 0.28191(18)
H36 H 0.4309 1.1409 0.2853
C56 C 0.36168(19) 1.02629(16) 0.23287(17)
H37 H 0.3013 1.0462 0.2047
C57 C 0.37334(18) 0.94049(15) 0.22473(15)
C58 C 0.29708(17) 0.87749(15) 0.17756(15)
C59 C 0.20219(18) 0.88627(17) 0.12881(16)
H38 H 0.1739 0.9382 0.1186
C60 C 0.15622(18) 0.80525(16) 0.09772(16)
H39 H 0.0911 0.7919 0.0624
C61 C 0.22305(17) 0.74753(16) 0.12788(15)
C62 C 0.21838(17) 0.65541(16) 0.11768(15)
C63 C 0.13676(17) 0.60434(16) 0.06611(15)
H40 H 0.0805 0.6286 0.0340
C64 C 0.14043(17) 0.51735(16) 0.06319(15)
H41 H 0.0861 0.4808 0.0286
C65 C 0.22342(18) 0.48340(16) 0.11072(15)
H42 H 0.2262 0.4236 0.1101
C66 C 0.30283(17) 0.53911(15) 0.15950(15)
C67 C 0.39444(18) 0.35593(16) 0.16049(16)
H43 H 0.4459 0.3250 0.1550
H44 H 0.3519 0.3690 0.1053
C68 C 0.3369(2) 0.29832(17) 0.19633(19)
H45 H 0.3775 0.2880 0.2523
H46 H 0.3147 0.2441 0.1633
H47 H 0.2816 0.3261 0.1964
C69 C 0.60678(18) 0.39069(16) 0.28896(16)
H48 H 0.6709 0.4231 0.3104
H49 H 0.5989 0.3587 0.2376
C70 C 0.6019(2) 0.32723(17) 0.35051(19)
H50 H 0.6090 0.3583 0.4015
H51 H 0.6534 0.2905 0.3611
H52 H 0.5400 0.2924 0.3283
C71 C 0.87652(18) 0.88212(17) 0.44115(17)
H53 H 0.9006 0.9232 0.4111
H54 H 0.8884 0.8247 0.4257
C72 C 0.9342(2) 0.90232(19) 0.53244(18)
H55 H 0.9285 0.9612 0.5476
H56 H 1.0016 0.8951 0.5450
H57 H 0.9094 0.8637 0.5632
C73 C 0.76338(19) 1.04485(16) 0.38742(17)
H58 H 0.7178 1.0737 0.3427
H59 H 0.8223 1.0420 0.3766
C74 C 0.7876(3) 1.09693(18) 0.46768(19)
H60 H 0.7289 1.1028 0.4771
H61 H 0.8177 1.1534 0.4653
H62 H 0.8318 1.0681 0.5123
N7 N 0.46078(14) 0.57090(12) 0.26568(13)
H67 H 0.4507 0.6234 0.2755
N8 N 0.63557(15) 0.67125(13) 0.35853(13)
N9 N 0.61387(14) 0.84321(12) 0.37074(13)
H68 H 0.5595 0.8112 0.3588
N10 N 0.46168(15) 0.91630(13) 0.26503(13)
N11 N 0.30759(14) 0.79245(12) 0.17592(12)
H69 H 0.3611 0.7701 0.2021
N12 N 0.29944(14) 0.62365(13) 0.16309(12)
H73 H 0.594(3) 0.696(2) 0.318(2)
H74 H 0.476(2) 0.870(2) 0.2555(17)
C75 C 0.53303(16) 0.76746(15) 0.15668(16)
C76 C 0.6063(2) 0.70841(17) 0.14931(18)
O5 O 0.51447(12) 0.75821(11) 0.21903(11)
O6 O 0.50393(13) 0.81689(12) 0.10369(12)
F7 F 0.58725(13) 0.62880(10) 0.16430(12)
F8 F 0.69417(12) 0.73474(12) 0.20533(13)
F9 F 0.61155(16) 0.70593(14) 0.07732(13)
C77 C 0.41770(16) 0.72045(15) 0.39923(15)
C78 C 0.38266(19) 0.79830(18) 0.42961(18)
O7 O 0.44899(13) 0.73535(11) 0.34514(11)
O8 O 0.40933(14) 0.65450(12) 0.43117(12)
F10 F 0.43295(15) 0.87201(11) 0.42718(13)
F11 F 0.29195(14) 0.80591(15) 0.38446(15)
F12 F 0.39301(19) 0.79777(14) 0.50694(13)
C79 C 0.5007(2) 0.87915(18) -0.07658(18)
H63 H 0.4885 0.8707 -0.0259
Cl4 Cl 0.48222(5) 0.98511(4) -0.10376(5)
Cl5 Cl 0.61830(5) 0.85990(5) -0.05893(5)
Cl6 Cl 0.41811(6) 0.80929(5) -0.15699(5)
Cl1 Cl 0.9966(2) 0.7068(3) 0.3932(3)
Cl2 Cl 0.99809(15) 0.52287(11) 0.40131(11)
Cl3 Cl 1.17139(16) 0.63566(15) 0.47379(14)
C80 C 1.0446(10) 0.6242(8) 0.4487(6)
H70 H 1.0339 0.6286 0.5006
C81? C 1.021(2) 0.6114(18) 0.4487(18)
Cl7? Cl 1.1379(4) 0.5973(3) 0.4661(3)
Cl8? Cl 0.9431(4) 0.5244(3) 0.3855(3)
Cl9? Cl 0.9760(7) 0.6954(7) 0.3810(7)
H75? H 1.0115 0.6203 0.5008
loop_
_geom_bond_atom_site_label_1
_geom_bond_atom_site_label_2
_geom_bond_site_symmetry_1
_geom_bond_site_symmetry_2
C1 C2 1_555 1_555
C2 C3 1_555 1_555
C3 C4 1_555 1_555
C4 C5 1_555 1_555
C5 C6 1_555 1_555
C6 H1 1_555 1_555
C7 C6 1_555 1_555
H2 C7 1_555 1_555
C8 C7 1_555 1_555
H3 C8 1_555 1_555
C9 C8 1_555 1_555
C10 C9 1_555 1_555
C11 C10 1_555 1_555
C12 C11 1_555 1_555
C13 C12 1_555 1_555
C14 C13 1_555 1_555
C15 C14 1_555 1_555
H4 C15 1_555 1_555
C16 C15 1_555 1_555
H5 C16 1_555 1_555
C17 C16 1_555 1_555
H6 C17 1_555 1_555
C18 C17 1_555 1_555
C19 C18 1_555 1_555
C20 C19 1_555 1_555
H7 C20 1_555 1_555
C21 C20 1_555 1_555
H8 C21 1_555 1_555
C22 C21 1_555 1_555
C23 C22 1_555 1_555
C24 C23 1_555 1_555
H9 C24 1_555 1_555
C25 C24 1_555 1_555
H10 C25 1_555 1_555
C26 C25 1_555 1_555
H11 C26 1_555 1_555
C27 C1 1_555 1_555
C28 C2 1_555 1_555
H12 C28 1_555 1_555
H13 C28 1_555 1_555
C29 C28 1_555 1_555
H14 C29 1_555 1_555
H15 C29 1_555 1_555
H16 C29 1_555 1_555
C30 C3 1_555 1_555
H17 C30 1_555 1_555
H18 C30 1_555 1_555
C31 C30 1_555 1_555
H19 C31 1_555 1_555
H20 C31 1_555 1_555
H21 C31 1_555 1_555
C32 C11 1_555 1_555
H22 C32 1_555 1_555
H23 C32 1_555 1_555
C33 C32 1_555 1_555
H24 C33 1_555 1_555
H25 C33 1_555 1_555
H26 C33 1_555 1_555
C34 C12 1_555 1_555
H27 C34 1_555 1_555
H28 C34 1_555 1_555
C35 C34 1_555 1_555
H29 C35 1_555 1_555
H30 C35 1_555 1_555
H31 C35 1_555 1_555
C36 C37 1_555 1_555
C37 F1 1_555 1_555
C38 C39 1_555 1_555
C39 F4 1_555 1_555
C40 C41 1_555 1_555
C41 C42 1_555 1_555
C42 C43 1_555 1_555
C43 C44 1_555 1_555
C44 C45 1_555 1_555
C45 H32 1_555 1_555
C46 C45 1_555 1_555
H33 C46 1_555 1_555
C47 C46 1_555 1_555
H34 C47 1_555 1_555
C48 C47 1_555 1_555
C49 C48 1_555 1_555
C50 C49 1_555 1_555
C51 C50 1_555 1_555
C52 C51 1_555 1_555
C53 C52 1_555 1_555
C54 C53 1_555 1_555
H35 C54 1_555 1_555
C55 C54 1_555 1_555
H36 C55 1_555 1_555
C56 C55 1_555 1_555
H37 C56 1_555 1_555
C57 C56 1_555 1_555
C58 C57 1_555 1_555
C59 C58 1_555 1_555
H38 C59 1_555 1_555
C60 C59 1_555 1_555
H39 C60 1_555 1_555
C61 C60 1_555 1_555
C62 C61 1_555 1_555
C63 C62 1_555 1_555
H40 C63 1_555 1_555
C64 C63 1_555 1_555
H41 C64 1_555 1_555
C65 C64 1_555 1_555
H42 C65 1_555 1_555
C66 C40 1_555 1_555
C67 C41 1_555 1_555
H43 C67 1_555 1_555
H44 C67 1_555 1_555
C68 C67 1_555 1_555
H45 C68 1_555 1_555
H46 C68 1_555 1_555
H47 C68 1_555 1_555
C69 C42 1_555 1_555
H48 C69 1_555 1_555
H49 C69 1_555 1_555
C70 C69 1_555 1_555
H50 C70 1_555 1_555
H51 C70 1_555 1_555
H52 C70 1_555 1_555
C71 C50 1_555 1_555
H53 C71 1_555 1_555
H54 C71 1_555 1_555
C72 C71 1_555 1_555
H55 C72 1_555 1_555
H56 C72 1_555 1_555
H57 C72 1_555 1_555
C73 C51 1_555 1_555
H58 C73 1_555 1_555
H59 C73 1_555 1_555
C74 C73 1_555 1_555
H60 C74 1_555 1_555
H61 C74 1_555 1_555
H62 C74 1_555 1_555
C75 C76 1_555 1_555
C76 F7 1_555 1_555
C77 C78 1_555 1_555
C78 F10 1_555 1_555
C79 H63 1_555 1_555
N1 C1 1_555 1_555
H64 N1 1_555 1_555
N2 C5 1_555 1_555
N3 C10 1_555 1_555
H65 N3 1_555 1_555
N4 C14 1_555 1_555
N5 C19 1_555 1_555
H66 N5 1_555 1_555
N6 C23 1_555 1_555
N7 C40 1_555 1_555
H67 N7 1_555 1_555
N8 C44 1_555 1_555
N9 C49 1_555 1_555
H68 N9 1_555 1_555
N10 C53 1_555 1_555
N11 C58 1_555 1_555
H69 N11 1_555 1_555
N12 C62 1_555 1_555
O1 C36 1_555 1_555
O2 C36 1_555 1_555
O3 C38 1_555 1_555
O4 C38 1_555 1_555
O5 C75 1_555 1_555
O6 C75 1_555 1_555
O7 C77 1_555 1_555
O8 C77 1_555 1_555
F2 C37 1_555 1_555
F3 C37 1_555 1_555
F5 C39 1_555 1_555
F6 C39 1_555 1_555
F8 C76 1_555 1_555
F9 C76 1_555 1_555
F11 C78 1_555 1_555
F12 C78 1_555 1_555
Cl1 C80 1_555 1_555
Cl2 C80 1_555 1_555
Cl3 C80 1_555 1_555
C80 H70 1_555 1_555
Cl4 C79 1_555 1_555
Cl5 C79 1_555 1_555
Cl6 C79 1_555 1_555
H71 N2 1_555 1_555
H72 N6 1_555 1_555
H73 N8 1_555 1_555
H74 N10 1_555 1_555
C4 N1 1_555 1_555
C9 N2 1_555 1_555
C13 N3 1_555 1_555
C18 N4 1_555 1_555
C22 N5 1_555 1_555
C26 C27 1_555 1_555
C27 N6 1_555 1_555
C43 N7 1_555 1_555
C48 N8 1_555 1_555
C52 N9 1_555 1_555
C57 N10 1_555 1_555
C61 N11 1_555 1_555
C65 C66 1_555 1_555
C66 N12 1_555 1_555

#END
