
#######################################################################
#
#                 Cambridge Crystallographic Data Centre
#                                CCDC 
#
#######################################################################
#
# If this CIF has been generated from an entry in the Cambridge 
# Structural Database, then it will include bibliographic, chemical, 
# crystal, experimental, refinement or atomic coordinate data resulting 
# from the CCDC's data processing and validation procedures.
#
#######################################################################

data_HASYEH
_chemical_formula_moiety         
'C42 H52 N6 2+,1.66(C1 H1 Cl3),2(Cl1 1-),0.34(C1 H4 O1)'
_chemical_name_systematic        
'1^3^,1^4^,2^3^,2^4^,4^3^,4^4^,5^3^,5^4^-octaethyl-1,2,4,5(2,5)-tetrapyrrola-3,6(2,6)-dipyridinacyclohexaphane-3^1^,6^1^-diium dichloride chloroform methanol solvate'
_symmetry_cell_setting           triclinic
_symmetry_space_group_name_H-M   'P -1'
_symmetry_Int_Tables_number      2
_space_group_name_Hall           '-P 1'
loop_
_symmetry_equiv_pos_site_id
_symmetry_equiv_pos_as_xyz
1 x,y,z
2 -x,-y,-z
_cell_length_a                   9.1910(5)
_cell_length_b                   9.9970(6)
_cell_length_c                   13.4350(8)
_cell_angle_alpha                78.043(2)
_cell_angle_beta                 76.403(2)
_cell_angle_gamma                69.467(2)
_cell_volume                     1113.02
_exptl_crystal_colour            red
_exptl_crystal_description       block
_cell_formula_units_Z            1
loop_
_atom_site_label
_atom_site_type_symbol
_atom_site_fract_x
_atom_site_fract_y
_atom_site_fract_z
Cl1 Cl -0.13286(7) 0.60582(6) 0.60366(4)
C22 C -0.2351(5) 0.4974(4) 0.8621(3)
H27 H -0.1739 0.5259 0.7939
Cl2 Cl -0.41041(11) 0.64093(11) 0.88999(8)
Cl3 Cl -0.28484(10) 0.34574(9) 0.85429(7)
Cl4 Cl -0.11834(10) 0.45315(9) 0.95579(7)
C1 C 0.0278(3) 0.8295(3) 0.34682(18)
C2 C 0.0708(3) 0.9497(3) 0.34807(19)
C3 C 0.1848(3) 0.9055(3) 0.41351(19)
C4 C 0.2078(3) 0.7596(3) 0.45001(19)
C5 C 0.2908(3) 0.6641(3) 0.52876(19)
C6 C 0.4201(3) 0.6771(3) 0.5582(2)
H1 H 0.4622 0.7523 0.5242
C7 C 0.4869(3) 0.5794(3) 0.6374(2)
H2 H 0.5709 0.5919 0.6605
C8 C 0.4333(3) 0.4641(3) 0.6834(2)
H3 H 0.4831 0.3959 0.7357
C9 C 0.3069(3) 0.4483(3) 0.65304(18)
C10 C 0.2438(3) 0.3316(3) 0.69243(19)
C11 C 0.2426(3) 0.2409(3) 0.78722(19)
C12 C 0.1454(3) 0.1578(3) 0.78837(19)
C13 C 0.0902(3) 0.1982(3) 0.69509(19)
C14 C -0.0028(3) 1.1010(3) 0.3003(2)
H4 H -0.0313 1.1657 0.3534
H5 H -0.1019 1.1067 0.2800
C15 C 0.1002(4) 1.1576(3) 0.2053(2)
H6 H 0.1894 1.1696 0.2266
H7 H 0.0371 1.2508 0.1734
H8 H 0.1400 1.0886 0.1553
C16 C 0.2525(3) 1.0029(3) 0.4464(2)
H9 H 0.2668 0.9687 0.5192
H10 H 0.1749 1.1012 0.4439
C17 C 0.4110(3) 1.0120(3) 0.3808(2)
H11 H 0.4893 0.9156 0.3831
H12 H 0.4472 1.0758 0.4084
H13 H 0.3974 1.0505 0.3091
C18 C 0.3182(3) 0.2386(3) 0.8753(2)
H14 H 0.2535 0.2099 0.9409
H15 H 0.3178 0.3374 0.8764
C19 C 0.4883(3) 0.1361(3) 0.8703(2)
H16 H 0.4896 0.0372 0.8719
H17 H 0.5299 0.1412 0.9298
H18 H 0.5539 0.1644 0.8062
C20 C 0.1001(3) 0.0529(3) 0.8770(2)
H19 H 0.0051 0.0360 0.8666
H20 H 0.0716 0.0965 0.9415
C21 C 0.2297(4) -0.0923(3) 0.8903(2)
H21 H 0.2667 -0.1318 0.8246
H22 H 0.1876 -0.1593 0.9433
H23 H 0.3180 -0.0788 0.9116
N1 N 0.1120(2) 0.7161(2) 0.40803(16)
H24 H 0.1060 0.6281 0.4190
N2 N 0.2370(2) 0.5528(2) 0.57973(15)
H25 H 0.1512 0.5479 0.5644
N3 N 0.1522(2) 0.3020(2) 0.63794(16)
H26 H 0.1357 0.3438 0.5753
C1A C -0.0278(3) 0.1705(3) 0.65318(18)
C2A C -0.0708(3) 0.0503(3) 0.65193(19)
C3A C -0.1848(3) 0.0945(3) 0.58649(19)
C4A C -0.2078(3) 0.2404(3) 0.54999(19)
C5A C -0.2908(3) 0.3359(3) 0.47124(19)
C6A C -0.4201(3) 0.3229(3) 0.4418(2)
H1A H -0.4622 0.2477 0.4758
C7A C -0.4869(3) 0.4206(3) 0.3626(2)
H2A H -0.5709 0.4081 0.3395
C8A C -0.4333(3) 0.5359(3) 0.3166(2)
H3A H -0.4831 0.6041 0.2643
C9A C -0.3069(3) 0.5517(3) 0.34696(18)
C10A C -0.2438(3) 0.6684(3) 0.30757(19)
C11A C -0.2426(3) 0.7591(3) 0.21278(19)
C12A C -0.1454(3) 0.8422(3) 0.21163(19)
C13A C -0.0902(3) 0.8018(3) 0.30491(19)
C14A C 0.0028(3) -0.1010(3) 0.6997(2)
H4A H 0.0313 -0.1657 0.6466
H5A H 0.1019 -0.1067 0.7200
C15A C -0.1002(4) -0.1576(3) 0.7947(2)
H6A H -0.1894 -0.1696 0.7734
H7A H -0.0371 -0.2508 0.8266
H8A H -0.1400 -0.0886 0.8447
C16A C -0.2525(3) -0.0029(3) 0.5536(2)
H9A H -0.2668 0.0313 0.4808
H10A H -0.1749 -0.1012 0.5561
C17A C -0.4110(3) -0.0120(3) 0.6192(2)
H11A H -0.4893 0.0844 0.6169
H12A H -0.4472 -0.0758 0.5916
H13A H -0.3974 -0.0505 0.6909
C18A C -0.3182(3) 0.7614(3) 0.1247(2)
H14A H -0.2535 0.7901 0.0591
H15A H -0.3178 0.6626 0.1236
C19A C -0.4883(3) 0.8639(3) 0.1297(2)
H16A H -0.4896 0.9628 0.1281
H17A H -0.5299 0.8588 0.0702
H18A H -0.5539 0.8356 0.1938
C20A C -0.1001(3) 0.9471(3) 0.1230(2)
H19A H -0.0051 0.9640 0.1334
H20A H -0.0716 0.9035 0.0585
C21A C -0.2297(4) 1.0923(3) 0.1097(2)
H21A H -0.2667 1.1318 0.1754
H22A H -0.1876 1.1593 0.0567
H23A H -0.3180 1.0788 0.0884
N1A N -0.1120(2) 0.2839(2) 0.59197(16)
H24A H -0.1060 0.3719 0.5810
N2A N -0.2370(2) 0.4472(2) 0.42027(15)
H25A H -0.1512 0.4521 0.4356
N3A N -0.1522(2) 0.6980(2) 0.36206(16)
H26A H -0.1357 0.6562 0.4247
O1? O -0.4190(15) 0.5624(15) 0.8842(10)
C23? C -0.247(3) 0.452(3) 0.864(2)
loop_
_geom_bond_atom_site_label_1
_geom_bond_atom_site_label_2
_geom_bond_site_symmetry_1
_geom_bond_site_symmetry_2
C1 C2 1_555 1_555
C2 C3 1_555 1_555
C3 C4 1_555 1_555
C4 C5 1_555 1_555
C5 C6 1_555 1_555
C6 H1 1_555 1_555
C7 C6 1_555 1_555
H2 C7 1_555 1_555
C8 C7 1_555 1_555
H3 C8 1_555 1_555
C9 C8 1_555 1_555
C10 C9 1_555 1_555
C11 C10 1_555 1_555
C12 C11 1_555 1_555
C13 C12 1_555 1_555
C14 C2 1_555 1_555
H4 C14 1_555 1_555
H5 C14 1_555 1_555
C15 C14 1_555 1_555
H6 C15 1_555 1_555
H7 C15 1_555 1_555
H8 C15 1_555 1_555
C16 C3 1_555 1_555
H9 C16 1_555 1_555
H10 C16 1_555 1_555
C17 C16 1_555 1_555
H11 C17 1_555 1_555
H12 C17 1_555 1_555
H13 C17 1_555 1_555
C18 C11 1_555 1_555
H14 C18 1_555 1_555
H15 C18 1_555 1_555
C19 C18 1_555 1_555
H16 C19 1_555 1_555
H17 C19 1_555 1_555
H18 C19 1_555 1_555
C20 C12 1_555 1_555
H19 C20 1_555 1_555
H20 C20 1_555 1_555
C21 C20 1_555 1_555
H21 C21 1_555 1_555
H22 C21 1_555 1_555
H23 C21 1_555 1_555
N1 C1 1_555 1_555
H24 N1 1_555 1_555
N2 C5 1_555 1_555
H25 N2 1_555 1_555
N3 C10 1_555 1_555
H26 N3 1_555 1_555
C22 H27 1_555 1_555
Cl2 C22 1_555 1_555
Cl3 C22 1_555 1_555
Cl4 C22 1_555 1_555
C1A C13 1_555 1_555
C2A C1A 1_555 1_555
C3A C2A 1_555 1_555
C4A C3A 1_555 1_555
C5A C4A 1_555 1_555
C6A C5A 1_555 1_555
H1A C6A 1_555 1_555
C7A C6A 1_555 1_555
H2A C7A 1_555 1_555
C8A C7A 1_555 1_555
H3A C8A 1_555 1_555
C9A C8A 1_555 1_555
C10A C9A 1_555 1_555
C11A C10A 1_555 1_555
C12A C11A 1_555 1_555
C13A C1 1_555 1_555
C14A C2A 1_555 1_555
H4A C14A 1_555 1_555
H5A C14A 1_555 1_555
C15A C14A 1_555 1_555
H6A C15A 1_555 1_555
H7A C15A 1_555 1_555
H8A C15A 1_555 1_555
C16A C3A 1_555 1_555
H9A C16A 1_555 1_555
H10A C16A 1_555 1_555
C17A C16A 1_555 1_555
H11A C17A 1_555 1_555
H12A C17A 1_555 1_555
H13A C17A 1_555 1_555
C18A C11A 1_555 1_555
H14A C18A 1_555 1_555
H15A C18A 1_555 1_555
C19A C18A 1_555 1_555
H16A C19A 1_555 1_555
H17A C19A 1_555 1_555
H18A C19A 1_555 1_555
C20A C12A 1_555 1_555
H19A C20A 1_555 1_555
H20A C20A 1_555 1_555
C21A C20A 1_555 1_555
H21A C21A 1_555 1_555
H22A C21A 1_555 1_555
H23A C21A 1_555 1_555
N1A C1A 1_555 1_555
H24A N1A 1_555 1_555
N2A C5A 1_555 1_555
H25A N2A 1_555 1_555
N3A C10A 1_555 1_555
H26A N3A 1_555 1_555
C4 N1 1_555 1_555
C9 N2 1_555 1_555
C13 N3 1_555 1_555
C4A N1A 1_555 1_555
C9A N2A 1_555 1_555
C12A C13A 1_555 1_555
C13A N3A 1_555 1_555

#END
