
#######################################################################
#
#                 Cambridge Crystallographic Data Centre
#                                CCDC 
#
#######################################################################
#
# If this CIF has been generated from an entry in the Cambridge 
# Structural Database, then it will include bibliographic, chemical, 
# crystal, experimental, refinement or atomic coordinate data resulting 
# from the CCDC's data processing and validation procedures.
#
#######################################################################

data_HASZEI
_chemical_formula_moiety         'C36 H38 N6 O2 S2,2(C1 H1 Cl3)'
_chemical_name_systematic        
"2,2'-((2,5-bis(2-ethylhexyl)-3,6-dioxo-2,3,5,6-tetrahydropyrrolo[3,4-c]pyrrole-1,4-diylidene)dithiene-5,2-diylidene)dimalononitrile chloroform solvate"
_symmetry_cell_setting           triclinic
_symmetry_space_group_name_H-M   'P -1'
_symmetry_Int_Tables_number      2
_space_group_name_Hall           '-P 1'
loop_
_symmetry_equiv_pos_site_id
_symmetry_equiv_pos_as_xyz
1 x,y,z
2 -x,-y,-z
_cell_length_a                   8.3652(17)
_cell_length_b                   10.028(2)
_cell_length_c                   14.090(3)
_cell_angle_alpha                98.36(3)
_cell_angle_beta                 104.82(3)
_cell_angle_gamma                109.95(3)
_cell_volume                     1038.27
_exptl_crystal_colour            black
_exptl_crystal_description       plate
_cell_formula_units_Z            1
loop_
_atom_site_label
_atom_site_type_symbol
_atom_site_fract_x
_atom_site_fract_y
_atom_site_fract_z
Cl1 Cl 0.65714(17) 0.22142(13) 0.10119(8)
Cl2 Cl 0.65942(16) 0.30233(13) 0.30626(9)
Cl3 Cl 0.78749(15) 0.52627(11) 0.20410(9)
C19 C 0.7700(5) 0.3512(4) 0.2189(3)
H20 H 0.8943 0.3538 0.2452
S1 S 0.78647(11) 0.84877(9) 0.35523(6)
O1 O 0.8531(3) 0.4952(3) 0.59930(18)
N1 N 1.0054(5) 1.1670(4) 0.2584(3)
N2 N 1.4738(4) 1.1037(3) 0.4318(2)
N3 N 0.4316(3) 0.6194(3) 0.3908(2)
C1 C 1.0588(5) 1.0980(4) 0.3051(3)
C2 C 1.1285(4) 1.0159(4) 0.3661(3)
C3 C 1.3200(4) 1.0631(3) 0.4027(3)
C4 C 1.0191(4) 0.9026(3) 0.3943(2)
C5 C 1.0744(4) 0.8169(4) 0.4580(2)
H1 H 1.1963 0.8296 0.4860
C6 C 0.9362(4) 0.7163(4) 0.4745(3)
H2 H 0.9520 0.6511 0.5151
C7 C 0.7620(4) 0.7162(3) 0.4250(2)
C8 C 0.6040(4) 0.6270(3) 0.4353(2)
C9 C 0.5861(4) 0.5296(3) 0.5015(2)
C10 C 0.6942(4) 0.4740(3) 0.5740(2)
C11 C 0.3712(4) 0.6966(4) 0.3178(2)
H3 H 0.4577 0.8003 0.3397
H4 H 0.2533 0.6955 0.3197
C12 C 0.3518(5) 0.6327(4) 0.2072(3)
H5 H 0.4757 0.6558 0.2033
C13 C 0.2645(6) 0.7140(5) 0.1400(3)
H6 H 0.2365 0.6653 0.0680
H7 H 0.1491 0.7040 0.1509
C14 C 0.3773(7) 0.8743(5) 0.1588(3)
H8 H 0.3117 0.9171 0.1131
H9 H 0.4906 0.8859 0.1463
H10 H 0.4029 0.9246 0.2294
C15 C 0.2509(6) 0.4690(5) 0.1715(3)
H11 H 0.1247 0.4452 0.1691
H12 H 0.3043 0.4242 0.2223
C16 C 0.2500(6) 0.3989(5) 0.0684(3)
H13 H 0.1818 0.4329 0.0158
H14 H 0.3753 0.4321 0.0674
C17 C 0.1679(8) 0.2335(5) 0.0418(4)
H15 H 0.2362 0.1994 0.0941
H16 H 0.0425 0.2001 0.0427
C18 C 0.1672(8) 0.1650(6) -0.0604(4)
H17 H 0.0903 0.1908 -0.1133
H18 H 0.1206 0.0581 -0.0717
H19 H 0.2902 0.2014 -0.0631
S1A S 0.21353(11) 0.15123(9) 0.64477(6)
O1A O 0.1469(3) 0.5048(3) 0.40070(18)
N1A N -0.0054(5) -0.1670(4) 0.7416(3)
N2A N -0.4738(4) -0.1037(3) 0.5682(2)
N3A N 0.5684(3) 0.3806(3) 0.6092(2)
C1A C -0.0588(5) -0.0980(4) 0.6949(3)
C2A C -0.1285(4) -0.0159(4) 0.6339(3)
C3A C -0.3200(4) -0.0631(3) 0.5973(3)
C4A C -0.0191(4) 0.0974(3) 0.6057(2)
C5A C -0.0744(4) 0.1831(4) 0.5420(2)
H1A H -0.1963 0.1704 0.5140
C6A C 0.0638(4) 0.2837(4) 0.5255(3)
H2A H 0.0480 0.3489 0.4849
C7A C 0.2380(4) 0.2838(3) 0.5750(2)
C8A C 0.3960(4) 0.3730(3) 0.5647(2)
C9A C 0.4139(4) 0.4704(3) 0.4985(2)
C10A C 0.3058(4) 0.5260(3) 0.4260(2)
C11A C 0.6288(4) 0.3034(4) 0.6822(2)
H3A H 0.5423 0.1997 0.6603
H4A H 0.7467 0.3045 0.6803
C12A C 0.6482(5) 0.3673(4) 0.7928(3)
H5A H 0.5243 0.3442 0.7967
C13A C 0.7355(6) 0.2860(5) 0.8600(3)
H6A H 0.7635 0.3347 0.9320
H7A H 0.8509 0.2960 0.8491
C14A C 0.6227(7) 0.1257(5) 0.8412(3)
H8A H 0.6883 0.0829 0.8869
H9A H 0.5094 0.1141 0.8537
H10A H 0.5971 0.0754 0.7706
C15A C 0.7491(6) 0.5310(5) 0.8285(3)
H11A H 0.8753 0.5548 0.8309
H12A H 0.6957 0.5758 0.7777
C16A C 0.7500(6) 0.6011(5) 0.9316(3)
H13A H 0.8182 0.5671 0.9842
H14A H 0.6247 0.5679 0.9326
C17A C 0.8321(8) 0.7665(5) 0.9582(4)
H15A H 0.7638 0.8006 0.9059
H16A H 0.9575 0.7999 0.9573
C18A C 0.8328(8) 0.8350(6) 1.0604(4)
H17A H 0.9097 0.8092 1.1133
H18A H 0.8794 0.9419 1.0717
H19A H 0.7098 0.7986 1.0631
loop_
_geom_bond_atom_site_label_1
_geom_bond_atom_site_label_2
_geom_bond_site_symmetry_1
_geom_bond_site_symmetry_2
Cl1 C19 1_555 1_555
Cl2 C19 1_555 1_555
Cl3 C19 1_555 1_555
S1 C4 1_555 1_555
O1 C10 1_555 1_555
N1 C1 1_555 1_555
N2 C3 1_555 1_555
N3 C8 1_555 1_555
C1 C2 1_555 1_555
C2 C3 1_555 1_555
C4 C2 1_555 1_555
C5 C4 1_555 1_555
H1 C5 1_555 1_555
C6 C5 1_555 1_555
H2 C6 1_555 1_555
C7 S1 1_555 1_555
C8 C7 1_555 1_555
C9 C8 1_555 1_555
C10 C9 1_555 1_555
C11 N3 1_555 1_555
H3 C11 1_555 1_555
H4 C11 1_555 1_555
C12 C11 1_555 1_555
H5 C12 1_555 1_555
C13 C12 1_555 1_555
H6 C13 1_555 1_555
H7 C13 1_555 1_555
C14 C13 1_555 1_555
H8 C14 1_555 1_555
H9 C14 1_555 1_555
H10 C14 1_555 1_555
C15 C12 1_555 1_555
H11 C15 1_555 1_555
H12 C15 1_555 1_555
C16 C15 1_555 1_555
H13 C16 1_555 1_555
H14 C16 1_555 1_555
C17 C16 1_555 1_555
H15 C17 1_555 1_555
H16 C17 1_555 1_555
C18 C17 1_555 1_555
H17 C18 1_555 1_555
H18 C18 1_555 1_555
H19 C18 1_555 1_555
C19 H20 1_555 1_555
S1A C4A 1_555 1_555
O1A C10A 1_555 1_555
N1A C1A 1_555 1_555
N2A C3A 1_555 1_555
N3A C10 1_555 1_555
C1A C2A 1_555 1_555
C2A C3A 1_555 1_555
C4A C2A 1_555 1_555
C5A C4A 1_555 1_555
H1A C5A 1_555 1_555
C6A C5A 1_555 1_555
H2A C6A 1_555 1_555
C7A S1A 1_555 1_555
C8A N3A 1_555 1_555
C9A C9 1_555 1_555
C10A N3 1_555 1_555
C11A N3A 1_555 1_555
H3A C11A 1_555 1_555
H4A C11A 1_555 1_555
C12A C11A 1_555 1_555
H5A C12A 1_555 1_555
C13A C12A 1_555 1_555
H6A C13A 1_555 1_555
H7A C13A 1_555 1_555
C14A C13A 1_555 1_555
H8A C14A 1_555 1_555
H9A C14A 1_555 1_555
H10A C14A 1_555 1_555
C15A C12A 1_555 1_555
H11A C15A 1_555 1_555
H12A C15A 1_555 1_555
C16A C15A 1_555 1_555
H13A C16A 1_555 1_555
H14A C16A 1_555 1_555
C17A C16A 1_555 1_555
H15A C17A 1_555 1_555
H16A C17A 1_555 1_555
C18A C17A 1_555 1_555
H17A C18A 1_555 1_555
H18A C18A 1_555 1_555
H19A C18A 1_555 1_555
C6 C7 1_555 1_555
C6A C7A 1_555 1_555
C7A C8A 1_555 1_555
C8A C9A 1_555 1_555
C9A C10A 1_555 1_555

#END
