
#######################################################################
#
#                 Cambridge Crystallographic Data Centre
#                                CCDC 
#
#######################################################################
#
# If this CIF has been generated from an entry in the Cambridge 
# Structural Database, then it will include bibliographic, chemical, 
# crystal, experimental, refinement or atomic coordinate data resulting 
# from the CCDC's data processing and validation procedures.
#
#######################################################################

data_HATWOR
_chemical_compound_source        'Vaccinium bracteatum'
_chemical_formula_moiety         'C35 H38 O18'
_chemical_name_systematic        
'7-[({3-[4-(acetyloxy)phenyl]acryloyl}oxy)methyl]-7-hydroxy-1-({3,4,5-tris(acetyloxy)-6-[(acetyloxy)methyl]oxan-2-yl}oxy)-1,4a,7,7a-tetrahydrocyclopenta[c]pyran-4-carboxylic acid'
_symmetry_cell_setting           orthorhombic
_symmetry_space_group_name_H-M   'P 21 21 21'
_symmetry_Int_Tables_number      19
_space_group_name_Hall           'P 2ac 2ab'
loop_
_symmetry_equiv_pos_site_id
_symmetry_equiv_pos_as_xyz
1 x,y,z
2 1/2-x,-y,1/2+z
3 -x,1/2+y,1/2-z
4 1/2+x,1/2-y,-z
_cell_length_a                   7.4368(3)
_cell_length_b                   11.8322(4)
_cell_length_c                   40.8365(14)
_cell_angle_alpha                90
_cell_angle_beta                 90
_cell_angle_gamma                90
_cell_volume                     3593.35
_exptl_crystal_colour            colorless
_exptl_crystal_description       block
_chemical_melting_point          '423 K'
_cell_formula_units_Z            4
_exptl_crystal_recrystallization_method acetonitrile/water
loop_
_atom_site_label
_atom_site_type_symbol
_atom_site_fract_x
_atom_site_fract_y
_atom_site_fract_z
O1 O -0.1882(2) 0.90320(13) 0.39437(3)
C1 C -0.2834(3) 0.68364(18) 0.41526(5)
H1 H -0.2153 0.7390 0.4290
C2 C -0.1893(3) 0.80539(18) 0.37354(5)
H2 H -0.0703 0.7664 0.3751
O2 O 0.0441(2) 0.94024(15) 0.34086(4)
H3 H 0.125(4) 0.975(3) 0.3300(4)
C3 C -0.4558(3) 0.64939(18) 0.43243(5)
H4 H -0.5281 0.5974 0.4183
O3 O 0.1837(2) 0.82631(14) 0.28539(4)
C4 C -0.4057(3) 0.59199(19) 0.46447(5)
H5 H -0.3489 0.6486 0.4794
C5 C -0.3132(3) 0.98308(19) 0.38791(5)
H6 H -0.3337 1.0379 0.4045
C6 C -0.4100(3) 0.99278(19) 0.36084(5)
C7 C -0.2745(3) 0.49512(18) 0.45851(5)
H7 H -0.3342 0.4328 0.4460
O4 O -0.6537(2) 1.09053(15) 0.33647(5)
C8 C -0.3870(3) 0.91362(19) 0.33222(5)
H8 H -0.5011 0.8715 0.3279
C9 C -0.1126(3) 0.54047(19) 0.43957(5)
H9 H -0.0568 0.6028 0.4526
O5 O -0.5361(3) 1.15746(18) 0.38310(5)
H10 H -0.623(5) 1.205(3) 0.3815(5)
C10 C -0.3254(3) 0.9746(2) 0.30165(6)
H11 H -0.4005 1.0232 0.2892
C11 C 0.0311(3) 0.4564(2) 0.43109(6)
H12 H 0.1242 0.4927 0.4173
H13 H 0.0891 0.4281 0.4513
O6 O -0.1771(2) 0.58657(13) 0.40937(3)
O7 O -0.7766(3) 0.70073(18) 0.40525(7)
C12 C -0.6329(3) 0.6047(2) 0.50564(5)
C13 C -0.2299(3) 0.83007(18) 0.33806(5)
H14 H -0.2642 0.7568 0.3276
C14 C -0.0667(3) 0.87705(19) 0.31887(5)
C15 C -0.7681(3) 0.8892(2) 0.42694(8)
H15 H -0.6963 0.9399 0.4132
H16 H -0.7534 0.9104 0.4500
H17 H -0.8951 0.8954 0.4208
O8 O -0.5541(2) 0.75057(13) 0.43928(4)
O9 O -0.3261(2) 0.73170(13) 0.38506(3)
C16 C -0.7064(3) 0.7704(2) 0.42213(7)
C17 C -0.1559(3) 0.95299(19) 0.29422(6)
H18 H -0.0970 0.9822 0.2754
O10 O -0.5647(2) 0.54642(13) 0.47980(4)
C18 C -0.7924(4) 0.5453(3) 0.51945(6)
H19 H -0.8980 0.5610 0.5058
H20 H -0.8145 0.5721 0.5418
H21 H -0.7698 0.4637 0.5198
C19 C 0.0401(3) 0.7794(2) 0.30474(6)
H22 H 0.0898 0.7322 0.3226
H23 H -0.0383 0.7314 0.2909
O11 O -0.5715(3) 0.69232(16) 0.51543(4)
C20 C -0.2352(4) 0.3445(2) 0.49728(7)
C21 C -0.5446(3) 1.0836(2) 0.35846(6)
O12 O -0.2176(2) 0.45591(13) 0.49024(4)
C22 C -0.1904(5) 0.3215(3) 0.53218(7)
H24 H -0.1743 0.2400 0.5353
H25 H -0.2884 0.3484 0.5462
H26 H -0.0789 0.3609 0.5380
O13 O -0.2791(5) 0.27592(18) 0.47760(6)
C23 C 0.0611(3) 0.29809(19) 0.39639(6)
O14 O -0.0506(2) 0.36388(14) 0.41354(4)
C24 C -0.0309(4) 0.1989(2) 0.38207(8)
H27 H -0.1586 0.2164 0.3789
H28 H -0.0191 0.1343 0.3969
H29 H 0.0239 0.1804 0.3609
O15 O 0.2189(2) 0.31821(15) 0.39439(5)
O16 O 0.2909(3) 0.65084(16) 0.27999(6)
O17 O 1.1936(3) 0.87751(15) 0.17274(5)
O18 O 1.2601(3) 1.0356(2) 0.20044(6)
C25 C 0.3023(3) 0.7498(2) 0.27391(6)
C26 C 0.4419(3) 0.8026(2) 0.25389(6)
H30 H 0.4294 0.8789 0.2470
C27 C 0.5876(3) 0.7429(2) 0.24528(6)
H31 H 0.5902 0.6661 0.2520
C28 C 0.7428(3) 0.7829(2) 0.22672(6)
C29 C 0.7542(3) 0.8918(2) 0.21382(6)
H32 H 0.6576 0.9431 0.2171
C30 C 0.9034(4) 0.9263(2) 0.19643(6)
H33 H 0.9088 1.0001 0.1874
C31 C 1.0447(4) 0.8519(2) 0.19238(6)
C32 C 1.0387(4) 0.7442(2) 0.20515(7)
H34 H 1.1373 0.6942 0.2023
C33 C 0.8879(3) 0.7098(2) 0.22218(6)
H35 H 0.8830 0.6355 0.2309
C34 C 1.2919(4) 0.9724(2) 0.17845(7)
C35 C 1.4398(4) 0.9814(3) 0.15371(8)
H36 H 1.3878 0.9871 0.1317
H37 H 1.5163 0.9140 0.1550
H38 H 1.5122 1.0488 0.1582
loop_
_geom_bond_atom_site_label_1
_geom_bond_atom_site_label_2
_geom_bond_site_symmetry_1
_geom_bond_site_symmetry_2
O1 C2 1_555 1_555
C1 H1 1_555 1_555
C2 H2 1_555 1_555
O2 H3 1_555 1_555
C3 C1 1_555 1_555
H4 C3 1_555 1_555
O3 C19 1_555 1_555
C4 C3 1_555 1_555
H5 C4 1_555 1_555
C5 O1 1_555 1_555
H6 C5 1_555 1_555
C6 C5 1_555 1_555
C7 C4 1_555 1_555
H7 C7 1_555 1_555
O4 C21 1_555 1_555
C8 C6 1_555 1_555
H8 C8 1_555 1_555
C9 C7 1_555 1_555
H9 C9 1_555 1_555
O5 H10 1_555 1_555
C10 C8 1_555 1_555
H11 C10 1_555 1_555
C11 C9 1_555 1_555
H12 C11 1_555 1_555
H13 C11 1_555 1_555
O6 C1 1_555 1_555
O7 C16 1_555 1_555
C12 O10 1_555 1_555
C13 C2 1_555 1_555
H14 C13 1_555 1_555
C14 O2 1_555 1_555
C15 H15 1_555 1_555
H16 C15 1_555 1_555
H17 C15 1_555 1_555
O8 C3 1_555 1_555
O9 C1 1_555 1_555
C16 C15 1_555 1_555
C17 C10 1_555 1_555
H18 C17 1_555 1_555
O10 C4 1_555 1_555
C18 C12 1_555 1_555
H19 C18 1_555 1_555
H20 C18 1_555 1_555
H21 C18 1_555 1_555
C19 C14 1_555 1_555
H22 C19 1_555 1_555
H23 C19 1_555 1_555
O11 C12 1_555 1_555
C20 O12 1_555 1_555
C21 C6 1_555 1_555
O12 C7 1_555 1_555
C22 C20 1_555 1_555
H24 C22 1_555 1_555
H25 C22 1_555 1_555
H26 C22 1_555 1_555
O13 C20 1_555 1_555
C23 O14 1_555 1_555
O14 C11 1_555 1_555
C24 C23 1_555 1_555
H27 C24 1_555 1_555
H28 C24 1_555 1_555
H29 C24 1_555 1_555
O15 C23 1_555 1_555
O16 C25 1_555 1_555
O17 C31 1_555 1_555
O18 C34 1_555 1_555
C25 O3 1_555 1_555
C26 C25 1_555 1_555
H30 C26 1_555 1_555
C27 C26 1_555 1_555
H31 C27 1_555 1_555
C28 C27 1_555 1_555
C29 C28 1_555 1_555
H32 C29 1_555 1_555
C30 C29 1_555 1_555
H33 C30 1_555 1_555
C31 C30 1_555 1_555
C32 C31 1_555 1_555
H34 C32 1_555 1_555
C33 C28 1_555 1_555
H35 C33 1_555 1_555
C34 O17 1_555 1_555
C35 C34 1_555 1_555
H36 C35 1_555 1_555
H37 C35 1_555 1_555
H38 C35 1_555 1_555
C2 O9 1_555 1_555
C8 C13 1_555 1_555
C9 O6 1_555 1_555
O5 C21 1_555 1_555
C13 C14 1_555 1_555
C14 C17 1_555 1_555
O8 C16 1_555 1_555
C32 C33 1_555 1_555

#END
