
#######################################################################
#
#                 Cambridge Crystallographic Data Centre
#                                CCDC 
#
#######################################################################
#
# If this CIF has been generated from an entry in the Cambridge 
# Structural Database, then it will include bibliographic, chemical, 
# crystal, experimental, refinement or atomic coordinate data resulting 
# from the CCDC's data processing and validation procedures.
#
#######################################################################

data_HATZIL
_chemical_formula_moiety         'C9 H10 O5'
_chemical_name_systematic        
2-Hydroxy-6,7:9,10-cis,cis-diepoxy-1-oxaspiro(4.5)decan-8-one
_symmetry_cell_setting           monoclinic
_symmetry_space_group_name_H-M   'P 21/n'
_symmetry_Int_Tables_number      14
_space_group_name_Hall           '-P 2yn'
loop_
_symmetry_equiv_pos_site_id
_symmetry_equiv_pos_as_xyz
1 x,y,z
2 1/2-x,1/2+y,1/2-z
3 -x,-y,-z
4 1/2+x,1/2-y,1/2+z
_cell_length_a                   14.664(6)
_cell_length_b                   6.319(1)
_cell_length_c                   19.440(7)
_cell_angle_alpha                90
_cell_angle_beta                 107.86(2)
_cell_angle_gamma                90
_cell_volume                     1714.54
_exptl_crystal_colour            colorless
_cell_formula_units_Z            8
loop_
_atom_site_label
_atom_site_type_symbol
_atom_site_fract_x
_atom_site_fract_y
_atom_site_fract_z
O1 O 0.9411(2) -0.1286(5) 0.0839(2)
O2 O 1.1718(2) 0.0764(5) 0.1009(2)
O3 O 0.9339(2) 0.2599(5) 0.0195(1)
O4 O 0.8296(2) 0.2229(5) 0.1386(2)
O5 O 0.7939(2) 0.5436(6) 0.1825(2)
C1 C 0.9601(3) -0.0146(8) 0.1508(2)
C2 C 1.0385(3) -0.0767(7) 0.1229(2)
C3 C 1.0869(3) 0.0873(7) 0.0932(2)
C4 C 1.0323(3) 0.2861(8) 0.0627(2)
C5 C 0.9535(3) 0.3419(7) 0.0911(2)
C6 C 0.9313(3) 0.2167(7) 0.1484(2)
C7 C 0.9785(3) 0.3213(8) 0.2226(2)
C8 C 0.9040(4) 0.306(1) 0.2591(3)
C9 C 0.8118(3) 0.3277(9) 0.1972(3)
H1 H 0.9508 -0.0903 0.1915
H2 H 1.0822 -0.1861 0.1464
H3 H 0.7210 0.5562 0.1504
H4 H 1.0726 0.3719 0.0472
H5 H 0.9383 0.4601 0.0957
H6 H 1.0290 0.2665 0.2401
H7 H 0.9992 0.4732 0.2068
H8 H 0.8943 0.4091 0.2881
H9 H 0.8986 0.1673 0.2906
H10 H 0.7492 0.2829 0.2062
O6 O 0.6250(2) 0.3333(5) -0.0988(2)
O7 O 0.7773(2) 0.5187(6) -0.1948(2)
O8 O 0.5532(2) 0.6886(5) -0.1832(2)
O9 O 0.5521(2) 0.6973(5) -0.0313(1)
O10 O 0.6062(2) 0.5664(5) 0.0865(2)
C10 C 0.6794(3) 0.4804(8) -0.0478(2)
C11 C 0.7162(3) 0.4002(8) -0.1040(3)
C12 C 0.7179(3) 0.5387(8) -0.1647(2)
C13 C 0.6518(3) 0.7253(8) -0.1804(2)
C14 C 0.6149(3) 0.8038(7) -0.1237(2)
C15 C 0.6399(3) 0.7030(7) -0.0504(2)
C16 C 0.7090(3) 0.8429(8) 0.0086(2)
C17 C 0.6522(3) 0.9112(8) 0.0568(2)
C18 C 0.5729(3) 0.7470(7) 0.0435(2)
H11 H 0.7031 0.4109 -0.0048
H12 H 0.7585 0.3224 -0.0992
H13 H 0.5465 0.5062 0.0746
H14 H 0.6565 0.8123 -0.2110
H15 H 0.6057 0.9457 -0.1222
H16 H 0.7628 0.7690 0.0319
H17 H 0.7279 0.9427 -0.0186
H18 H 0.6801 0.9027 0.1084
H19 H 0.6171 1.0724 0.0606
H20 H 0.5110 0.7900 0.0540
loop_
_geom_bond_atom_site_label_1
_geom_bond_atom_site_label_2
_geom_bond_site_symmetry_1
_geom_bond_site_symmetry_2
O1 C1 1_555 1_555
O2 C3 1_555 1_555
O3 C4 1_555 1_555
O4 C6 1_555 1_555
O5 C9 1_555 1_555
C1 C2 1_555 1_555
C2 O1 1_555 1_555
C3 C2 1_555 1_555
C4 C3 1_555 1_555
C5 O3 1_555 1_555
C6 C1 1_555 1_555
C7 C6 1_555 1_555
C8 C7 1_555 1_555
C9 O4 1_555 1_555
O6 C10 1_555 1_555
O7 C12 1_555 1_555
O8 C13 1_555 1_555
O9 C15 1_555 1_555
O10 C18 1_555 1_555
C10 C11 1_555 1_555
C11 O6 1_555 1_555
C12 C11 1_555 1_555
C13 C12 1_555 1_555
C14 O8 1_555 1_555
C15 C10 1_555 1_555
C16 C15 1_555 1_555
C17 C16 1_555 1_555
C18 O9 1_555 1_555
H1 C1 1_555 1_555
H2 C2 1_555 1_555
H3 O5 1_555 1_555
H4 C4 1_555 1_555
H5 C5 1_555 1_555
H6 C7 1_555 1_555
H7 C7 1_555 1_555
H8 C8 1_555 1_555
H9 C8 1_555 1_555
H10 C9 1_555 1_555
H11 C10 1_555 1_555
H12 C11 1_555 1_555
H13 O10 1_555 1_555
H14 C13 1_555 1_555
H15 C14 1_555 1_555
H16 C16 1_555 1_555
H17 C16 1_555 1_555
H18 C17 1_555 1_555
H19 C17 1_555 1_555
H20 C18 1_555 1_555
C4 C5 1_555 1_555
C5 C6 1_555 1_555
C8 C9 1_555 1_555
C13 C14 1_555 1_555
C14 C15 1_555 1_555
C17 C18 1_555 1_555

#END
