
#######################################################################
#
#                 Cambridge Crystallographic Data Centre
#                                CCDC 
#
#######################################################################
#
# If this CIF has been generated from an entry in the Cambridge 
# Structural Database, then it will include bibliographic, chemical, 
# crystal, experimental, refinement or atomic coordinate data resulting 
# from the CCDC's data processing and validation procedures.
#
#######################################################################

data_HAVCAL
_chemical_compound_source        'Nemania sp. BCC 30850'
_chemical_name_common            'nemanolone H'
_chemical_formula_moiety         'C22 H22 O8,H2 O1'
_chemical_name_systematic        
'6,7,18,21-tetrahydroxy-16-methoxy-11,21-dimethyl-10,20-dioxapentacyclo[10.7.2.0^2,11^.0^3,8^.0^13,19^]henicosa-3,5,7,13,15,18-hexaen-17-one hydrate'
_chemical_properties_biological  'cytotoxic activities'
_symmetry_cell_setting           orthorhombic
_symmetry_space_group_name_H-M   'P 21 21 21'
_symmetry_Int_Tables_number      19
_space_group_name_Hall           'P 2ac 2ab'
loop_
_symmetry_equiv_pos_site_id
_symmetry_equiv_pos_as_xyz
1 x,y,z
2 1/2-x,-y,1/2+z
3 1/2+x,1/2-y,-z
4 -x,1/2+y,1/2-z
_cell_length_a                   12.5240(15)
_cell_length_b                   12.5540(14)
_cell_length_c                   13.9200(8)
_cell_angle_alpha                90
_cell_angle_beta                 90
_cell_angle_gamma                90
_cell_volume                     2188.59
_exptl_crystal_colour            yellow
_exptl_crystal_description       Prism
_chemical_melting_point          '183.4 187.0 deg.C'
_cell_formula_units_Z            4
_exptl_crystal_recrystallization_method 'slow evaporation'
loop_
_atom_site_label
_atom_site_type_symbol
_atom_site_fract_x
_atom_site_fract_y
_atom_site_fract_z
O1 O -0.4448(4) -0.2558(4) -0.4535(4)
O2 O -0.2924(4) -0.1614(5) -0.6271(3)
O3 O -0.4709(5) 0.0494(5) -0.7829(4)
O4 O -0.4194(5) -0.1314(5) -0.2077(4)
H1 H -0.4188 -0.1247 -0.1491
O5 O -0.2991(5) -0.1859(5) -0.0741(4)
O6 O -0.1243(5) -0.2839(5) -0.0740(4)
C1 C -0.2342(5) -0.2519(6) -0.3794(5)
C2 C -0.5756(6) 0.0934(6) -0.6448(5)
O7 O -0.6390(5) 0.1520(5) -0.7033(4)
H2 H -0.6876 0.1785 -0.6719
C3 C -0.3200(5) -0.2022(6) -0.3323(5)
C4 C -0.3322(6) -0.1836(6) -0.2356(5)
C5 C -0.1441(6) -0.2941(6) -0.3412(5)
H3 H -0.0956 -0.3214 -0.3854
C6 C -0.4195(5) -0.0173(6) -0.6317(5)
C7 C -0.2564(6) -0.2588(6) -0.4858(5)
H4 H -0.1983 -0.2972 -0.5178
C8 C -0.5217(6) 0.0227(7) -0.4917(5)
H5 H -0.5330 0.0166 -0.4259
O8 O -0.3886(5) -0.3398(6) -0.5918(4)
C9 C -0.1646(6) -0.2686(6) -0.1633(5)
C10 C -0.4893(6) 0.0430(6) -0.6872(5)
C11 C -0.3251(6) -0.0704(7) -0.6785(5)
H6 H -0.3439 -0.0908 -0.7436
H7 H -0.2663 -0.0203 -0.6820
C12 C -0.2649(6) -0.1446(6) -0.5270(5)
C13 C -0.4057(6) -0.1662(7) -0.4026(5)
H8 H -0.4643 -0.1321 -0.3675
C14 C -0.3616(6) -0.3215(7) -0.4967(5)
C15 C -0.3540(5) -0.0853(6) -0.4714(5)
H9 H -0.3188 -0.0314 -0.4314
C16 C -0.1133(5) -0.3025(6) -0.2436(5)
H10 H -0.0482 -0.3362 -0.2329
C17 C -0.4351(5) -0.0274(6) -0.5332(5)
C18 C -0.5926(6) 0.0826(7) -0.5472(6)
H11 H -0.6511 0.1153 -0.5185
C19 C -0.2651(6) -0.2122(6) -0.1545(5)
C20 C -0.1599(6) -0.0860(7) -0.5211(6)
H12 H -0.1066 -0.1245 -0.5565
H13 H -0.1384 -0.0802 -0.4551
H14 H -0.1679 -0.0161 -0.5480
C21 C -0.3606(8) -0.4264(7) -0.4457(7)
H15 H -0.3444 -0.4153 -0.3790
H16 H -0.3074 -0.4717 -0.4738
H17 H -0.4295 -0.4594 -0.4515
C22 C -0.0257(8) -0.3377(9) -0.0621(6)
H18 H 0.0280 -0.3036 -0.1004
H19 H -0.0333 -0.4105 -0.0820
H20 H -0.0050 -0.3354 0.0043
H21 H -0.477(10) 0.117(2) -0.781(8)
H22 H -0.358(11) -0.277(12) -0.618(9)
O9 O -0.2715(8) 0.2150(10) -0.3846(5)
H23 H -0.3298 0.1935 -0.3601
H24 H -0.2634 0.1870 -0.4397
loop_
_geom_bond_atom_site_label_1
_geom_bond_atom_site_label_2
_geom_bond_site_symmetry_1
_geom_bond_site_symmetry_2
O1 C13 1_555 1_555
O2 C11 1_555 1_555
O3 C10 1_555 1_555
O4 H1 1_555 1_555
O5 C19 1_555 1_555
O6 C9 1_555 1_555
C1 C3 1_555 1_555
C2 O7 1_555 1_555
O7 H2 1_555 1_555
C3 C4 1_555 1_555
C4 O4 1_555 1_555
C5 C1 1_555 1_555
H3 C5 1_555 1_555
C6 C10 1_555 1_555
C7 C1 1_555 1_555
H4 C7 1_555 1_555
C8 H5 1_555 1_555
O8 C14 1_555 1_555
C9 C16 1_555 1_555
C10 C2 1_555 1_555
C11 C6 1_555 1_555
H6 C11 1_555 1_555
H7 C11 1_555 1_555
C12 O2 1_555 1_555
C13 C3 1_555 1_555
H8 C13 1_555 1_555
C14 O1 1_555 1_555
C15 C12 1_555 1_555
H9 C15 1_555 1_555
C16 C5 1_555 1_555
H10 C16 1_555 1_555
C17 C6 1_555 1_555
C18 C2 1_555 1_555
H11 C18 1_555 1_555
C19 C4 1_555 1_555
C20 C12 1_555 1_555
H12 C20 1_555 1_555
H13 C20 1_555 1_555
H14 C20 1_555 1_555
C21 C14 1_555 1_555
H15 C21 1_555 1_555
H16 C21 1_555 1_555
H17 C21 1_555 1_555
C22 O6 1_555 1_555
H18 C22 1_555 1_555
H19 C22 1_555 1_555
H20 C22 1_555 1_555
H21 O3 1_555 1_555
H22 O8 1_555 1_555
O9 H23 1_555 1_555
H24 O9 1_555 1_555
C7 C12 1_555 1_555
C7 C14 1_555 1_555
C8 C17 1_555 1_555
C8 C18 1_555 1_555
C9 C19 1_555 1_555
C13 C15 1_555 1_555
C15 C17 1_555 1_555

#END
