
#######################################################################
#
#                 Cambridge Crystallographic Data Centre
#                                CCDC 
#
#######################################################################
#
# If this CIF has been generated from an entry in the Cambridge 
# Structural Database, then it will include bibliographic, chemical, 
# crystal, experimental, refinement or atomic coordinate data resulting 
# from the CCDC's data processing and validation procedures.
#
#######################################################################

data_HAVCOX
_chemical_formula_moiety         'C20 H19 N1 O5'
_chemical_name_systematic        
N-Hydroxy-9-(3',4'-methylenedioxyphenyl)-1,8-dioxo-1,2,3,4,5,6,7,8,9,10-decahydroacridine
_symmetry_cell_setting           orthorhombic
_symmetry_space_group_name_H-M   'P n a 21'
_symmetry_Int_Tables_number      33
_space_group_name_Hall           'P 2c -2n'
loop_
_symmetry_equiv_pos_site_id
_symmetry_equiv_pos_as_xyz
1 x,y,z
2 -x,-y,1/2+z
3 1/2+x,1/2-y,z
4 1/2-x,1/2+y,1/2+z
_cell_length_a                   14.6914(16)
_cell_length_b                   8.8103(10)
_cell_length_c                   12.6648(14)
_cell_angle_alpha                90
_cell_angle_beta                 90
_cell_angle_gamma                90
_cell_volume                     1639.28
_exptl_crystal_colour            yellow
_exptl_crystal_description       block
_chemical_melting_point          284-286deg.C
_cell_formula_units_Z            4
_exptl_crystal_recrystallization_method '95% ethanol'
loop_
_atom_site_label
_atom_site_type_symbol
_atom_site_fract_x
_atom_site_fract_y
_atom_site_fract_z
N1 N 0.67914(14) -0.0703(3) 0.7131(2)
O1 O 0.76214(13) -0.0730(2) 0.76696(19)
O2 O 0.38475(13) -0.2627(2) 0.67711(19)
O3 O 0.47436(18) 0.2216(3) 0.5159(2)
O4 O 0.33228(15) 0.3215(3) 1.00513(18)
O5 O 0.23844(14) 0.2042(3) 0.8842(2)
C1 C 0.61686(18) -0.1830(3) 0.7320(2)
C2 C 0.6520(2) -0.3287(3) 0.7756(3)
H1 H 0.6931 -0.3737 0.7245
H2 H 0.6868 -0.3073 0.8389
C3 C 0.5810(2) -0.4385(4) 0.8012(4)
H3 H 0.5608 -0.4198 0.8729
H4 H 0.6076 -0.5393 0.7995
C4 C 0.4998(2) -0.4374(4) 0.7305(4)
H5 H 0.5150 -0.4899 0.6655
H6 H 0.4511 -0.4937 0.7644
C5 C 0.46579(19) -0.2830(3) 0.7038(3)
C6 C 0.52881(17) -0.1596(3) 0.7041(2)
C7 C 0.49706(18) -0.0026(3) 0.6713(2)
H7 H 0.4488 -0.0153 0.6186
C8 C 0.57410(18) 0.0799(3) 0.6196(2)
C9 C 0.5532(2) 0.1911(4) 0.5381(3)
C10 C 0.6324(2) 0.2649(4) 0.4812(3)
H8 H 0.6488 0.2038 0.4204
H9 H 0.6140 0.3643 0.4559
C11 C 0.7140(3) 0.2817(4) 0.5522(3)
H10 H 0.7001 0.3539 0.6077
H11 H 0.7646 0.3218 0.5116
C12 C 0.7418(2) 0.1329(4) 0.6013(3)
H12 H 0.7710 0.0700 0.5484
H13 H 0.7855 0.1517 0.6572
C13 C 0.66179(19) 0.0509(3) 0.6455(2)
C14 C 0.45692(18) 0.0861(3) 0.7646(2)
C15 C 0.36205(18) 0.0950(3) 0.7747(3)
H14 H 0.3234 0.0470 0.7270
C16 C 0.32867(18) 0.1775(4) 0.8577(3)
C17 C 0.3848(2) 0.2474(4) 0.9287(3)
C18 C 0.4766(2) 0.2378(4) 0.9220(3)
H15 H 0.5145 0.2839 0.9714
C19 C 0.51118(19) 0.1559(4) 0.8379(3)
H16 H 0.5740 0.1479 0.8308
C20 C 0.2420(2) 0.3147(4) 0.9650(3)
H17 H 0.2000 0.2881 1.0211
H18 H 0.2244 0.4129 0.9370
H19 H 0.810(2) -0.139(4) 0.722(3)
loop_
_geom_bond_atom_site_label_1
_geom_bond_atom_site_label_2
_geom_bond_site_symmetry_1
_geom_bond_site_symmetry_2
N1 O1 1_555 1_555
O1 H19 1_555 1_555
O2 C5 1_555 1_555
O3 C9 1_555 1_555
O4 C17 1_555 1_555
O5 C16 1_555 1_555
C1 N1 1_555 1_555
C2 C1 1_555 1_555
H1 C2 1_555 1_555
H2 C2 1_555 1_555
C3 C2 1_555 1_555
H3 C3 1_555 1_555
H4 C3 1_555 1_555
C4 C3 1_555 1_555
H5 C4 1_555 1_555
H6 C4 1_555 1_555
C5 C4 1_555 1_555
C6 C1 1_555 1_555
C7 C6 1_555 1_555
H7 C7 1_555 1_555
C8 C7 1_555 1_555
C9 C8 1_555 1_555
C10 C9 1_555 1_555
H8 C10 1_555 1_555
H9 C10 1_555 1_555
C11 C10 1_555 1_555
H10 C11 1_555 1_555
H11 C11 1_555 1_555
C12 C11 1_555 1_555
H12 C12 1_555 1_555
H13 C12 1_555 1_555
C13 N1 1_555 1_555
C14 C7 1_555 1_555
C15 C14 1_555 1_555
H14 C15 1_555 1_555
C16 C15 1_555 1_555
C17 C16 1_555 1_555
C18 C17 1_555 1_555
H15 C18 1_555 1_555
C19 C14 1_555 1_555
H16 C19 1_555 1_555
C20 O4 1_555 1_555
H17 C20 1_555 1_555
H18 C20 1_555 1_555
O5 C20 1_555 1_555
C5 C6 1_555 1_555
C8 C13 1_555 1_555
C12 C13 1_555 1_555
C18 C19 1_555 1_555

#END
