
#######################################################################
#
#                 Cambridge Crystallographic Data Centre
#                                CCDC 
#
#######################################################################
#
# If this CIF has been generated from an entry in the Cambridge 
# Structural Database, then it will include bibliographic, chemical, 
# crystal, experimental, refinement or atomic coordinate data resulting 
# from the CCDC's data processing and validation procedures.
#
#######################################################################

data_HAVDUG
_chemical_formula_moiety         'C7 H5 O4 1-,C3 H5 N2 1+'
_chemical_name_systematic        '1H-imidazol-3-ium 3,5-dihydroxybenzoate'
_symmetry_cell_setting           orthorhombic
_symmetry_space_group_name_H-M   'P n a 21'
_symmetry_Int_Tables_number      33
_space_group_name_Hall           'P 2c -2n'
loop_
_symmetry_equiv_pos_site_id
_symmetry_equiv_pos_as_xyz
1 x,y,z
2 -x,-y,1/2+z
3 1/2+x,1/2-y,z
4 1/2-x,1/2+y,1/2+z
_cell_length_a                   8.8629(5)
_cell_length_b                   11.3747(8)
_cell_length_c                   10.1149(6)
_cell_angle_alpha                90
_cell_angle_beta                 90
_cell_angle_gamma                90
_cell_volume                     1019.71
_exptl_crystal_colour            colorless
_exptl_crystal_description       block
_cell_formula_units_Z            4
loop_
_atom_site_label
_atom_site_type_symbol
_atom_site_fract_x
_atom_site_fract_y
_atom_site_fract_z
N1 N 0.4738(3) 0.1617(3) 0.1551(3)
H1 H 0.5240 0.1893 0.0893
N2 N 0.3867(3) 0.0424(3) 0.2971(4)
H2 H 0.3693 -0.0215 0.3400
C1 C 0.4749(4) 0.0531(3) 0.1957(4)
H3 H 0.5305 -0.0075 0.1578
C2 C 0.3270(6) 0.1482(4) 0.3237(5)
H4 H 0.2607 0.1661 0.3920
C3 C 0.3807(6) 0.2230(3) 0.2337(5)
H5 H 0.3580 0.3026 0.2267
O1 O 0.2869(3) 0.71980(17) 0.2434(2)
O2 O 0.4050(2) 0.81870(18) 0.4012(3)
O3 O 0.6965(2) 0.4754(2) 0.5994(2)
H6 H 0.6991 0.4133 0.6405
O4 O 0.1809(2) 0.35938(19) 0.5342(3)
H7 H 0.2081 0.3038 0.5799
C4 C 0.3592(4) 0.7253(3) 0.3491(3)
C5 C 0.3899(3) 0.6134(2) 0.4221(3)
C6 C 0.5305(3) 0.5930(3) 0.4763(3)
H8 H 0.6082 0.6468 0.4637
C7 C 0.5552(3) 0.4920(3) 0.5494(3)
C8 C 0.4394(4) 0.4128(3) 0.5705(3)
H9 H 0.4558 0.3458 0.6211
C9 C 0.2987(3) 0.4339(3) 0.5156(3)
C10 C 0.2740(3) 0.5331(3) 0.4393(3)
H10 H 0.1805 0.5457 0.3999
loop_
_geom_bond_atom_site_label_1
_geom_bond_atom_site_label_2
_geom_bond_site_symmetry_1
_geom_bond_site_symmetry_2
N1 H1 1_555 1_555
N2 H2 1_555 1_555
C1 N1 1_555 1_555
H3 C1 1_555 1_555
C2 N2 1_555 1_555
H4 C2 1_555 1_555
C3 N1 1_555 1_555
H5 C3 1_555 1_555
O1 C4 1_555 1_555
O2 C4 1_555 1_555
O3 H6 1_555 1_555
O4 H7 1_555 1_555
C4 C5 1_555 1_555
C5 C6 1_555 1_555
C6 H8 1_555 1_555
C7 O3 1_555 1_555
C8 C7 1_555 1_555
H9 C8 1_555 1_555
C9 O4 1_555 1_555
C10 C5 1_555 1_555
H10 C10 1_555 1_555
N2 C1 1_555 1_555
C2 C3 1_555 1_555
C6 C7 1_555 1_555
C8 C9 1_555 1_555
C9 C10 1_555 1_555

#END
