
#######################################################################
#
#                 Cambridge Crystallographic Data Centre
#                                CCDC 
#
#######################################################################
#
# If this CIF has been generated from an entry in the Cambridge 
# Structural Database, then it will include bibliographic, chemical, 
# crystal, experimental, refinement or atomic coordinate data resulting 
# from the CCDC's data processing and validation procedures.
#
#######################################################################

data_HAVDOY
_chemical_formula_moiety         
'C48 H48 N32 O16,2(C12 H12 N2 2+),4(Cl1 1-),13.5(H2 O1)'
_chemical_name_systematic        
'Cucurbit(8)uril bis(trans-1,2-bis(4-pyridyl)ethylene) clathrate tetrachloride hydrate'
_symmetry_cell_setting           triclinic
_symmetry_space_group_name_H-M   'P -1'
_symmetry_Int_Tables_number      2
_space_group_name_Hall           '-P 1'
loop_
_symmetry_equiv_pos_site_id
_symmetry_equiv_pos_as_xyz
1 x,y,z
2 -x,-y,-z
_cell_length_a                   12.938(2)
_cell_length_b                   14.613(2)
_cell_length_c                   25.703(4)
_cell_angle_alpha                88.608(2)
_cell_angle_beta                 89.882(2)
_cell_angle_gamma                76.149(2)
_cell_volume                     4716.75
_exptl_crystal_colour            colorless
_exptl_crystal_description       Plate
_cell_formula_units_Z            2
loop_
_atom_site_label
_atom_site_type_symbol
_atom_site_fract_x
_atom_site_fract_y
_atom_site_fract_z
Cl1 Cl 0.68924(16) 0.85590(18) 0.15629(8)
Cl2 Cl 0.1946(2) 0.8503(3) 0.34868(10)
Cl3 Cl 0.6745(2) 0.4440(3) 0.27847(12)
Cl4 Cl 0.0606(3) 0.5143(3) 0.39398(15)
O1 O 0.5500(4) -0.3158(4) 0.3604(2)
O2 O 0.4978(4) -0.1067(4) 0.2731(2)
O3 O 0.3310(4) 0.1349(4) 0.2979(2)
O4 O 0.1678(5) 0.2521(4) 0.4140(2)
O5 O 0.4605(5) -0.3886(4) 0.5014(2)
O6 O 0.6986(5) 0.2497(4) 0.4003(2)
O7 O 0.8839(4) -0.0124(4) 0.3754(2)
O8 O 0.9373(4) -0.2086(4) 0.4453(2)
N1 N 0.7007(5) -0.3766(5) 0.4102(3)
N2 N 0.7172(5) -0.3000(5) 0.3364(3)
N3 N 0.6793(5) -0.1534(5) 0.2860(3)
N4 N 0.6087(5) -0.0042(5) 0.2646(3)
N5 N 0.5004(5) 0.1522(5) 0.2784(3)
N6 N 0.3917(5) 0.2647(5) 0.3213(3)
N7 N 0.2874(5) 0.3398(5) 0.3928(3)
N8 N 0.2082(5) 0.3593(5) 0.4699(3)
N9 N 0.6422(5) -0.4108(5) 0.4964(3)
N10 N 0.4332(5) 0.4041(5) 0.4257(3)
N11 N 0.5386(5) 0.3157(5) 0.3589(3)
N12 N 0.6465(5) 0.1890(5) 0.3255(2)
N13 N 0.7557(5) 0.0327(5) 0.3104(3)
N14 N 0.8413(5) -0.1171(5) 0.3188(2)
N15 N 0.8790(5) -0.2607(5) 0.3704(2)
N16 N 0.8541(5) -0.3312(5) 0.4445(3)
C1 C 0.6550(7) -0.4381(6) 0.4440(3)
H5 H 0.5846 -0.4404 0.4299
H6 H 0.7012 -0.5027 0.4431
C2 C 0.6467(7) -0.3288(6) 0.3679(3)
C3 C 0.6870(6) -0.2535(6) 0.2866(3)
H7 H 0.7399 -0.2828 0.2603
H8 H 0.6173 -0.2643 0.2762
C4 C 0.5863(6) -0.0896(7) 0.2741(3)
C5 C 0.5299(6) 0.0745(6) 0.2438(3)
H9 H 0.4654 0.0528 0.2350
H10 H 0.5573 0.0970 0.2112
C6 C 0.4014(6) 0.1794(6) 0.2986(3)
C7 C 0.2914(6) 0.3215(6) 0.3383(3)
H11 H 0.2763 0.3824 0.3187
H12 H 0.2346 0.2892 0.3298
C8 C 0.2159(6) 0.3127(6) 0.4243(3)
C9 C 0.7323(6) -0.4320(6) 0.5319(3)
H13 H 0.7789 -0.4964 0.5268
C10 C 0.3195(6) 0.4220(6) 0.4136(3)
H14 H 0.2943 0.4800 0.3912
C11 C 0.4867(6) 0.3008(6) 0.3122(3)
H15 H 0.4711 0.3582 0.2889
C12 C 0.5623(6) 0.2184(6) 0.2869(3)
H16 H 0.5908 0.2385 0.2534
C13 C 0.7202(6) -0.0099(6) 0.2652(3)
H17 H 0.7449 0.0144 0.2318
C14 C 0.7708(6) -0.1140(6) 0.2747(3)
H18 H 0.8105 -0.1431 0.2434
C15 C 0.8256(6) -0.3336(6) 0.3543(3)
H19 H 0.8695 -0.3770 0.3288
C16 C 0.8129(7) -0.3865(6) 0.4069(3)
H20 H 0.8534 -0.4540 0.4072
C17 C 0.1170(6) 0.3665(7) 0.5039(3)
H21 H 0.0686 0.3308 0.4889
H22 H 0.0778 0.4334 0.5054
C18 C 0.8938(6) -0.2616(6) 0.4216(3)
C19 C 0.9187(6) -0.1992(6) 0.3344(3)
H23 H 0.9790 -0.1801 0.3510
H24 H 0.9462 -0.2350 0.3031
C20 C 0.8326(6) -0.0312(6) 0.3394(3)
C21 C 0.7496(6) 0.1333(6) 0.3119(3)
H25 H 0.8023 0.1440 0.3375
H26 H 0.7694 0.1550 0.2774
C22 C 0.6331(6) 0.2515(6) 0.3644(3)
C23 C 0.5121(6) 0.4009(6) 0.3871(3)
H27 H 0.5774 0.4101 0.4039
H28 H 0.4870 0.4542 0.3620
C24 C 0.5472(7) -0.4007(6) 0.5224(4)
O1A O 0.4500(4) 0.3158(4) 0.6396(2)
O2A O 0.5022(4) 0.1067(4) 0.7269(2)
O3A O 0.6690(4) -0.1349(4) 0.7021(2)
O4A O 0.8322(5) -0.2521(4) 0.5860(2)
O5A O 0.5395(5) 0.3886(4) 0.4986(2)
O6A O 0.3014(5) -0.2497(4) 0.5997(2)
O7A O 0.1161(4) 0.0124(4) 0.6246(2)
O8A O 0.0627(4) 0.2086(4) 0.5547(2)
N1A N 0.2993(5) 0.3766(5) 0.5898(3)
N2A N 0.2828(5) 0.3000(5) 0.6636(3)
N3A N 0.3207(5) 0.1534(5) 0.7140(3)
N4A N 0.3913(5) 0.0042(5) 0.7354(3)
N5A N 0.4996(5) -0.1522(5) 0.7216(3)
N6A N 0.6083(5) -0.2647(5) 0.6787(3)
N7A N 0.7126(5) -0.3398(5) 0.6072(3)
N8A N 0.7918(5) -0.3593(5) 0.5301(3)
N9A N 0.3578(5) 0.4108(5) 0.5036(3)
N10A N 0.5668(5) -0.4041(5) 0.5743(3)
N11A N 0.4614(5) -0.3157(5) 0.6411(3)
N12A N 0.3535(5) -0.1890(5) 0.6745(2)
N13A N 0.2443(5) -0.0327(5) 0.6896(3)
N14A N 0.1587(5) 0.1171(5) 0.6812(2)
N15A N 0.1210(5) 0.2607(5) 0.6296(2)
N16A N 0.1459(5) 0.3312(5) 0.5555(3)
C1A C 0.3450(7) 0.4381(6) 0.5560(3)
H5A H 0.4154 0.4404 0.5701
H6A H 0.2988 0.5027 0.5569
C2A C 0.3533(7) 0.3288(6) 0.6321(3)
C3A C 0.3130(6) 0.2535(6) 0.7134(3)
H7A H 0.2601 0.2828 0.7397
H8A H 0.3827 0.2643 0.7238
C4A C 0.4137(6) 0.0896(7) 0.7259(3)
C5A C 0.4701(6) -0.0745(6) 0.7562(3)
H9A H 0.5346 -0.0528 0.7650
H10A H 0.4427 -0.0970 0.7888
C6A C 0.5986(6) -0.1794(6) 0.7014(3)
C7A C 0.7086(6) -0.3215(6) 0.6617(3)
H11A H 0.7237 -0.3824 0.6813
H12A H 0.7654 -0.2892 0.6702
C8A C 0.7841(6) -0.3127(6) 0.5757(3)
C9A C 0.2677(6) 0.4320(6) 0.4681(3)
H13A H 0.2211 0.4964 0.4732
C10A C 0.6805(6) -0.4220(6) 0.5864(3)
H14A H 0.7057 -0.4800 0.6088
C11A C 0.5133(6) -0.3008(6) 0.6878(3)
H15A H 0.5289 -0.3582 0.7111
C12A C 0.4377(6) -0.2184(6) 0.7131(3)
H16A H 0.4092 -0.2385 0.7466
C13A C 0.2798(6) 0.0099(6) 0.7348(3)
H17A H 0.2551 -0.0144 0.7682
C14A C 0.2292(6) 0.1140(6) 0.7253(3)
H18A H 0.1895 0.1431 0.7566
C15A C 0.1744(6) 0.3336(6) 0.6457(3)
H19A H 0.1305 0.3770 0.6712
C16A C 0.1871(7) 0.3865(6) 0.5931(3)
H20A H 0.1466 0.4540 0.5928
C17A C 0.8830(6) -0.3665(7) 0.4961(3)
H21A H 0.9314 -0.3308 0.5111
H22A H 0.9222 -0.4334 0.4946
C18A C 0.1062(6) 0.2616(6) 0.5784(3)
C19A C 0.0813(6) 0.1992(6) 0.6656(3)
H23A H 0.0210 0.1801 0.6490
H24A H 0.0538 0.2350 0.6969
C20A C 0.1674(6) 0.0312(6) 0.6606(3)
C21A C 0.2504(6) -0.1333(6) 0.6881(3)
H25A H 0.1977 -0.1440 0.6625
H26A H 0.2306 -0.1550 0.7226
C22A C 0.3669(6) -0.2515(6) 0.6356(3)
C23A C 0.4879(6) -0.4009(6) 0.6129(3)
H27A H 0.4226 -0.4101 0.5961
H28A H 0.5130 -0.4542 0.6380
C24A C 0.4528(7) 0.4007(6) 0.4776(4)
O9 O 0.0618(4) -0.3205(4) 0.1534(2)
O10 O -0.0015(4) -0.1038(4) 0.2298(2)
O11 O -0.1743(4) 0.1383(4) 0.1924(2)
O12 O -0.3496(5) 0.2603(5) 0.0752(2)
O13 O 0.0235(5) 0.3942(4) -0.0206(3)
O14 O 0.1915(5) 0.2532(5) 0.0849(2)
O15 O 0.3816(4) -0.0063(4) 0.1228(2)
O16 O 0.4398(4) -0.2045(4) 0.0620(2)
N17 N -0.3047(6) 0.3639(5) 0.0154(3)
N18 N 0.3636(5) -0.3317(5) 0.0696(3)
N19 N 0.3858(5) -0.2559(5) 0.1404(2)
N20 N 0.3395(5) -0.1088(5) 0.1842(2)
N21 N 0.2497(5) 0.0413(5) 0.1845(3)
N22 N 0.1397(5) 0.1942(5) 0.1625(3)
N23 N 0.0317(5) 0.3188(5) 0.1239(3)
N24 N -0.0763(5) 0.3997(5) 0.0531(3)
N25 N -0.1594(5) 0.4203(5) -0.0228(3)
N26 N -0.2237(5) 0.3443(5) 0.0912(3)
N27 N -0.1154(5) 0.2680(5) 0.1635(3)
N28 N -0.0067(5) 0.1553(5) 0.2099(3)
N29 N 0.1047(5) 0.0026(5) 0.2324(3)
N30 N 0.1800(5) -0.1467(5) 0.2187(2)
N31 N 0.2236(5) -0.2942(5) 0.1753(3)
N32 N 0.2138(5) -0.3813(5) 0.1072(3)
C25 C 0.1564(7) -0.3319(6) 0.1455(3)
C26 C 0.1923(6) -0.2483(5) 0.2225(3)
H29 H 0.2462 -0.2748 0.2496
H30 H 0.1239 -0.2613 0.2337
C27 C 0.0837(6) -0.0860(6) 0.2274(3)
C28 C 0.0230(6) 0.0825(6) 0.2486(3)
H31 H -0.0409 0.0603 0.2587
H32 H 0.0484 0.1091 0.2798
C29 C -0.1056(6) 0.1830(6) 0.1886(3)
C30 C -0.2176(6) 0.3240(6) 0.1473(3)
H33 H -0.2329 0.3842 0.1659
H34 H -0.2728 0.2902 0.1570
C31 C -0.2975(7) 0.3184(7) 0.0613(3)
C32 C -0.2463(6) 0.4357(6) 0.0145(3)
H35 H -0.2942 0.5002 0.0104
C33 C -0.1898(6) 0.4215(6) 0.0670(4)
H36 H -0.2100 0.4795 0.0882
C34 C -0.0239(6) 0.3050(6) 0.1710(3)
H37 H -0.0417 0.3637 0.1917
C35 C 0.0554(6) 0.2245(6) 0.2008(3)
H38 H 0.0821 0.2459 0.2337
C36 C 0.2166(6) 0.0007(6) 0.2318(3)
H39 H 0.2398 0.0279 0.2638
C37 C 0.2688(6) -0.1056(6) 0.2273(3)
H40 H 0.3083 -0.1318 0.2599
C38 C 0.3346(6) -0.3285(6) 0.1598(3)
H41 H 0.3779 -0.3688 0.1878
C39 C 0.3264(7) -0.3846(6) 0.1115(3)
H42 H 0.3705 -0.4507 0.1148
C40 C -0.3940(6) 0.3694(7) -0.0193(3)
H43 H -0.4330 0.4363 -0.0237
H44 H -0.4432 0.3347 -0.0031
C41 C 0.3987(6) -0.2574(6) 0.0886(3)
C42 C 0.4215(6) -0.1921(6) 0.1725(3)
H45 H 0.4812 -0.1725 0.1550
H46 H 0.4490 -0.2251 0.2055
C43 C 0.3299(6) -0.0239(6) 0.1605(3)
C44 C 0.2443(6) 0.1406(6) 0.1788(3)
H47 H 0.2974 0.1503 0.1527
H48 H 0.2628 0.1645 0.2124
C45 C 0.1290(7) 0.2551(6) 0.1207(4)
C46 C 0.0047(7) 0.4008(6) 0.0910(4)
H49 H 0.0696 0.4081 0.0725
H50 H -0.0197 0.4566 0.1129
C47 C -0.0632(7) 0.4050(6) 0.0012(4)
C72 C 0.1724(7) -0.4481(7) 0.0778(3)
H71 H 0.2217 -0.5112 0.0813
H72 H 0.1027 -0.4524 0.0923
O9A O -0.0618(4) 0.3205(4) -0.1534(2)
O10A O 0.0015(4) 0.1038(4) -0.2298(2)
O11A O 0.1743(4) -0.1383(4) -0.1924(2)
O12A O 0.3496(5) -0.2603(5) -0.0752(2)
O13A O -0.0235(5) -0.3942(4) 0.0206(3)
O14A O -0.1915(5) -0.2532(5) -0.0849(2)
O15A O -0.3816(4) 0.0063(4) -0.1228(2)
O16A O -0.4398(4) 0.2045(4) -0.0620(2)
N17A N 0.3047(6) -0.3639(5) -0.0154(3)
N18A N -0.3636(5) 0.3317(5) -0.0696(3)
N19A N -0.3858(5) 0.2559(5) -0.1404(2)
N20A N -0.3395(5) 0.1088(5) -0.1842(2)
N21A N -0.2497(5) -0.0413(5) -0.1845(3)
N22A N -0.1397(5) -0.1942(5) -0.1625(3)
N23A N -0.0317(5) -0.3188(5) -0.1239(3)
N24A N 0.0763(5) -0.3997(5) -0.0531(3)
N25A N 0.1594(5) -0.4203(5) 0.0228(3)
N26A N 0.2237(5) -0.3443(5) -0.0912(3)
N27A N 0.1154(5) -0.2680(5) -0.1635(3)
N28A N 0.0067(5) -0.1553(5) -0.2099(3)
N29A N -0.1047(5) -0.0026(5) -0.2324(3)
N30A N -0.1800(5) 0.1467(5) -0.2187(2)
N31A N -0.2236(5) 0.2942(5) -0.1753(3)
N32A N -0.2138(5) 0.3813(5) -0.1072(3)
C25A C -0.1564(7) 0.3319(6) -0.1455(3)
C26A C -0.1923(6) 0.2483(5) -0.2225(3)
H29A H -0.2462 0.2748 -0.2496
H30A H -0.1239 0.2613 -0.2337
C27A C -0.0837(6) 0.0860(6) -0.2274(3)
C28A C -0.0230(6) -0.0825(6) -0.2486(3)
H31A H 0.0409 -0.0603 -0.2587
H32A H -0.0484 -0.1091 -0.2798
C29A C 0.1056(6) -0.1830(6) -0.1886(3)
C30A C 0.2176(6) -0.3240(6) -0.1473(3)
H33A H 0.2329 -0.3842 -0.1659
H34A H 0.2728 -0.2902 -0.1570
C31A C 0.2975(7) -0.3184(7) -0.0613(3)
C32A C 0.2463(6) -0.4357(6) -0.0145(3)
H35A H 0.2942 -0.5002 -0.0104
C33A C 0.1898(6) -0.4215(6) -0.0670(4)
H36A H 0.2100 -0.4795 -0.0882
C34A C 0.0239(6) -0.3050(6) -0.1710(3)
H37A H 0.0417 -0.3637 -0.1917
C35A C -0.0554(6) -0.2245(6) -0.2008(3)
H38A H -0.0821 -0.2459 -0.2337
C36A C -0.2166(6) -0.0007(6) -0.2318(3)
H39A H -0.2398 -0.0279 -0.2638
C37A C -0.2688(6) 0.1056(6) -0.2273(3)
H40A H -0.3083 0.1318 -0.2599
C38A C -0.3346(6) 0.3285(6) -0.1598(3)
H41A H -0.3779 0.3688 -0.1878
C39A C -0.3264(7) 0.3846(6) -0.1115(3)
H42A H -0.3705 0.4507 -0.1148
C40A C 0.3940(6) -0.3694(7) 0.0193(3)
H43A H 0.4330 -0.4363 0.0237
H44A H 0.4432 -0.3347 0.0031
C41A C -0.3987(6) 0.2574(6) -0.0886(3)
C42A C -0.4215(6) 0.1921(6) -0.1725(3)
H45A H -0.4812 0.1725 -0.1550
H46A H -0.4490 0.2251 -0.2055
C43A C -0.3299(6) 0.0239(6) -0.1605(3)
C44A C -0.2443(6) -0.1406(6) -0.1788(3)
H47A H -0.2974 -0.1503 -0.1527
H48A H -0.2628 -0.1645 -0.2124
C45A C -0.1290(7) -0.2551(6) -0.1207(4)
C46A C -0.0047(7) -0.4008(6) -0.0910(4)
H49A H -0.0696 -0.4081 -0.0725
H50A H 0.0197 -0.4566 -0.1129
C47A C 0.0632(7) -0.4050(6) -0.0012(4)
C72A C -0.1724(7) 0.4481(7) -0.0778(3)
H71A H -0.2217 0.5112 -0.0813
H72A H -0.1027 0.4524 -0.0923
N33 N 0.4503(5) 1.0551(5) -0.0557(3)
H1 H 0.5025 1.0699 -0.0734
N34 N -0.1102(5) 0.8756(5) 0.1064(3)
H2 H -0.1683 0.8661 0.1211
C48 C 0.4290(6) 0.9729(7) -0.0639(3)
H51 H 0.4702 0.9304 -0.0876
C49 C 0.3437(7) 0.9492(7) -0.0367(4)
H52 H 0.3253 0.8912 -0.0429
C50 C 0.2875(6) 1.0107(7) -0.0013(3)
C51 C 0.3135(6) 1.0959(7) 0.0054(3)
H53 H 0.2739 1.1400 0.0289
C52 C 0.3972(6) 1.1173(7) -0.0220(3)
H54 H 0.4166 1.1752 -0.0169
C53 C 0.1991(7) 0.9944(8) 0.0305(4)
H55 H 0.1666 1.0420 0.0539
C54 C 0.1623(8) 0.9194(8) 0.0287(4)
H56 H 0.1972 0.8699 0.0069
C55 C 0.0673(7) 0.9064(7) 0.0592(4)
C56 C 0.0163(7) 0.9666(8) 0.0953(4)
H57 H 0.0429 1.0190 0.1048
C57 C -0.0771(7) 0.9507(7) 0.1187(3)
H58 H -0.1154 0.9938 0.1431
C58 C -0.0591(7) 0.8132(7) 0.0725(4)
H59 H -0.0849 0.7592 0.0652
C59 C 0.0305(7) 0.8268(7) 0.0480(4)
H60 H 0.0670 0.7826 0.0237
N35 N 0.6068(5) 0.1201(6) 0.6018(3)
H3 H 0.6637 0.1313 0.6166
N36 N 0.0500(5) -0.0626(5) 0.4459(3)
H4 H -0.0015 -0.0787 0.4287
C60 C 0.5616(8) 0.1763(8) 0.5652(4)
H61 H 0.5911 0.2276 0.5552
C61 C 0.4712(8) 0.1654(8) 0.5395(5)
H62 H 0.4392 0.2073 0.5121
C62 C 0.4315(7) 0.0932(10) 0.5551(4)
C63 C 0.4820(9) 0.0298(9) 0.5958(5)
H63 H 0.4547 -0.0221 0.6070
C64 C 0.5735(7) 0.0474(7) 0.6184(4)
H64 H 0.6105 0.0072 0.6454
C65 C 0.3342(9) 0.0756(9) 0.5259(5)
H65 H 0.2986 0.1245 0.5026
C66 C 0.2980(7) 0.0058(8) 0.5293(4)
H66 H 0.3297 -0.0410 0.5545
C67 C 0.2102(6) -0.0129(7) 0.4984(4)
C68 C 0.1845(6) -0.0985(7) 0.5086(3)
H67 H 0.2231 -0.1409 0.5343
C69 C 0.1038(6) -0.1218(6) 0.4818(3)
H68 H 0.0862 -0.1804 0.4889
C70 C 0.0715(7) 0.0209(7) 0.4349(3)
H69 H 0.0303 0.0628 0.4097
C71 C 0.1545(7) 0.0458(7) 0.4606(4)
H70 H 0.1726 0.1036 0.4520
O17 O 0.4026(4) 0.2956(4) 0.18591(18)
O18 O 0.3067(7) 0.5365(6) 0.2852(3)
O19 O 0.5175(7) 0.4462(6) 0.1858(3)
O20 O 0.5756(5) 0.5211(6) 0.0967(3)
O21 O 0.6923(8) 0.6634(6) 0.1086(4)
O22 O 0.4690(7) 0.6205(6) 0.2743(3)
O23 O 0.7974(7) 0.5452(6) 0.1919(4)
O24 O 0.9436(7) 0.6314(6) 0.2317(3)
O25 O 0.8964(7) 0.3053(7) 0.2965(4)
O26 O 0.9649(8) 0.2353(7) 0.3911(4)
O27 O 0.8213(10) 0.3398(9) 0.4575(5)
O28 O 0.7383(14) 0.3437(12) 0.5471(7)
O29 O 0.8157(13) 0.3457(11) 0.6405(6)
O30 O 0.5595(10) 0.7535(9) 0.9187(5)
O31 O 0.2806(9) 0.3406(8) 1.0002(4)
O32 O 0.1870(4) 0.4247(3) 0.20316(18)
O33 O 0.0366(12) 0.4215(10) 0.2968(6)
loop_
_geom_bond_atom_site_label_1
_geom_bond_atom_site_label_2
_geom_bond_site_symmetry_1
_geom_bond_site_symmetry_2
O1 C2 1_555 1_555
O2 C4 1_555 1_555
O3 C6 1_555 1_555
O4 C8 1_555 1_555
O5 C24 1_555 1_555
O6 C22 1_555 1_555
O7 C20 1_555 1_555
O8 C18 1_555 1_555
O9 C25 1_555 1_555
O10 C27 1_555 1_555
O11 C29 1_555 1_555
O12 C31 1_555 1_555
O13 C47 1_555 1_555
O14 C45 1_555 1_555
O15 C43 1_555 1_555
O16 C41 1_555 1_555
N1 C1 1_555 1_555
N2 C2 1_555 1_555
N3 C3 1_555 1_555
N4 C4 1_555 1_555
N5 C5 1_555 1_555
N6 C6 1_555 1_555
N7 C7 1_555 1_555
N8 C8 1_555 1_555
N9 C1 1_555 1_555
N10 C10 1_555 1_555
N11 C11 1_555 1_555
N12 C12 1_555 1_555
N13 C13 1_555 1_555
N14 C14 1_555 1_555
N15 C15 1_555 1_555
N16 C16 1_555 1_555
N17 C31 1_555 1_555
N18 C39 1_555 1_555
N19 C38 1_555 1_555
N20 C37 1_555 1_555
N21 C36 1_555 1_555
N22 C35 1_555 1_555
N23 C34 1_555 1_555
N24 C33 1_555 1_555
N25 C32 1_555 1_555
N26 C30 1_555 1_555
N27 C29 1_555 1_555
N28 C28 1_555 1_555
N29 C27 1_555 1_555
N30 C26 1_555 1_555
N31 C25 1_555 1_555
N32 C25 1_555 1_555
N33 H1 1_555 1_555
N34 H2 1_555 1_555
N35 H3 1_555 1_555
N36 H4 1_555 1_555
C1 H5 1_555 1_555
H6 C1 1_555 1_555
C2 N1 1_555 1_555
C3 N2 1_555 1_555
H7 C3 1_555 1_555
H8 C3 1_555 1_555
C4 N3 1_555 1_555
C5 N4 1_555 1_555
H9 C5 1_555 1_555
H10 C5 1_555 1_555
C6 N5 1_555 1_555
C7 N6 1_555 1_555
H11 C7 1_555 1_555
H12 C7 1_555 1_555
C8 N7 1_555 1_555
C9 N9 1_555 1_555
H13 C9 1_555 1_555
C10 N7 1_555 1_555
H14 C10 1_555 1_555
C11 N6 1_555 1_555
H15 C11 1_555 1_555
C12 N5 1_555 1_555
H16 C12 1_555 1_555
C13 N4 1_555 1_555
H17 C13 1_555 1_555
C14 N3 1_555 1_555
H18 C14 1_555 1_555
C15 N2 1_555 1_555
H19 C15 1_555 1_555
C16 N1 1_555 1_555
H20 C16 1_555 1_555
C17 N8 1_555 1_555
H21 C17 1_555 1_555
H22 C17 1_555 1_555
C18 N15 1_555 1_555
C19 N14 1_555 1_555
H23 C19 1_555 1_555
H24 C19 1_555 1_555
C20 N13 1_555 1_555
C21 N12 1_555 1_555
H25 C21 1_555 1_555
H26 C21 1_555 1_555
C22 N11 1_555 1_555
C23 N10 1_555 1_555
H27 C23 1_555 1_555
H28 C23 1_555 1_555
C24 N9 1_555 1_555
C26 N31 1_555 1_555
H29 C26 1_555 1_555
H30 C26 1_555 1_555
C27 N30 1_555 1_555
C28 N29 1_555 1_555
H31 C28 1_555 1_555
H32 C28 1_555 1_555
C29 N28 1_555 1_555
C30 N27 1_555 1_555
H33 C30 1_555 1_555
H34 C30 1_555 1_555
C31 N26 1_555 1_555
C32 N17 1_555 1_555
H35 C32 1_555 1_555
C33 N26 1_555 1_555
H36 C33 1_555 1_555
C34 N27 1_555 1_555
H37 C34 1_555 1_555
C35 N28 1_555 1_555
H38 C35 1_555 1_555
C36 N29 1_555 1_555
H39 C36 1_555 1_555
C37 N30 1_555 1_555
H40 C37 1_555 1_555
C38 N31 1_555 1_555
H41 C38 1_555 1_555
C39 N32 1_555 1_555
H42 C39 1_555 1_555
C40 N17 1_555 1_555
H43 C40 1_555 1_555
H44 C40 1_555 1_555
C41 N18 1_555 1_555
C42 N19 1_555 1_555
H45 C42 1_555 1_555
H46 C42 1_555 1_555
C43 N20 1_555 1_555
C44 N21 1_555 1_555
H47 C44 1_555 1_555
H48 C44 1_555 1_555
C45 N22 1_555 1_555
C46 N23 1_555 1_555
H49 C46 1_555 1_555
H50 C46 1_555 1_555
C47 N24 1_555 1_555
C48 N33 1_555 1_555
H51 C48 1_555 1_555
C49 C48 1_555 1_555
H52 C49 1_555 1_555
C50 C49 1_555 1_555
C51 C50 1_555 1_555
H53 C51 1_555 1_555
C52 N33 1_555 1_555
H54 C52 1_555 1_555
C53 C50 1_555 1_555
H55 C53 1_555 1_555
C54 C53 1_555 1_555
H56 C54 1_555 1_555
C55 C54 1_555 1_555
C56 C55 1_555 1_555
H57 C56 1_555 1_555
C57 N34 1_555 1_555
H58 C57 1_555 1_555
C58 N34 1_555 1_555
H59 C58 1_555 1_555
C59 C55 1_555 1_555
H60 C59 1_555 1_555
C60 N35 1_555 1_555
H61 C60 1_555 1_555
C61 C60 1_555 1_555
H62 C61 1_555 1_555
C62 C61 1_555 1_555
C63 C62 1_555 1_555
H63 C63 1_555 1_555
C64 N35 1_555 1_555
H64 C64 1_555 1_555
C65 C62 1_555 1_555
H65 C65 1_555 1_555
C66 C65 1_555 1_555
H66 C66 1_555 1_555
C67 C66 1_555 1_555
C68 C67 1_555 1_555
H67 C68 1_555 1_555
C69 N36 1_555 1_555
H68 C69 1_555 1_555
C70 N36 1_555 1_555
H69 C70 1_555 1_555
C71 C67 1_555 1_555
H70 C71 1_555 1_555
C72 N32 1_555 1_555
H71 C72 1_555 1_555
H72 C72 1_555 1_555
O1A C2A 1_555 1_555
O2A C4A 1_555 1_555
O3A C6A 1_555 1_555
O4A C8A 1_555 1_555
O5A C24A 1_555 1_555
O6A C22A 1_555 1_555
O7A C20A 1_555 1_555
O8A C18A 1_555 1_555
O9A C25A 1_555 1_555
O10A C27A 1_555 1_555
O11A C29A 1_555 1_555
O12A C31A 1_555 1_555
O13A C47A 1_555 1_555
O14A C45A 1_555 1_555
O15A C43A 1_555 1_555
O16A C41A 1_555 1_555
N1A C1A 1_555 1_555
N2A C2A 1_555 1_555
N3A C3A 1_555 1_555
N4A C4A 1_555 1_555
N5A C5A 1_555 1_555
N6A C6A 1_555 1_555
N7A C7A 1_555 1_555
N8A C9 1_555 1_555
N9A C1A 1_555 1_555
N10A C24 1_555 1_555
N11A C11A 1_555 1_555
N12A C12A 1_555 1_555
N13A C13A 1_555 1_555
N14A C14A 1_555 1_555
N15A C15A 1_555 1_555
N16A C17 1_555 1_555
N17A C31A 1_555 1_555
N18A C40 1_555 1_555
N19A C38A 1_555 1_555
N20A C37A 1_555 1_555
N21A C36A 1_555 1_555
N22A C35A 1_555 1_555
N23A C34A 1_555 1_555
N24A C33A 1_555 1_555
N25A C72 1_555 1_555
N26A C30A 1_555 1_555
N27A C29A 1_555 1_555
N28A C28A 1_555 1_555
N29A C27A 1_555 1_555
N30A C26A 1_555 1_555
N31A C25A 1_555 1_555
N32A C25A 1_555 1_555
C1A H5A 1_555 1_555
H6A C1A 1_555 1_555
C2A N1A 1_555 1_555
C3A N2A 1_555 1_555
H7A C3A 1_555 1_555
H8A C3A 1_555 1_555
C4A N3A 1_555 1_555
C5A N4A 1_555 1_555
H9A C5A 1_555 1_555
H10A C5A 1_555 1_555
C6A N5A 1_555 1_555
C7A N6A 1_555 1_555
H11A C7A 1_555 1_555
H12A C7A 1_555 1_555
C8A N7A 1_555 1_555
C9A N8 1_555 1_555
H13A C9A 1_555 1_555
C10A C9 1_555 1_555
H14A C10A 1_555 1_555
C11A N6A 1_555 1_555
H15A C11A 1_555 1_555
C12A N5A 1_555 1_555
H16A C12A 1_555 1_555
C13A N4A 1_555 1_555
H17A C13A 1_555 1_555
C14A N3A 1_555 1_555
H18A C14A 1_555 1_555
C15A N2A 1_555 1_555
H19A C15A 1_555 1_555
C16A N1A 1_555 1_555
H20A C16A 1_555 1_555
C17A N16 1_555 1_555
H21A C17A 1_555 1_555
H22A C17A 1_555 1_555
C18A N15A 1_555 1_555
C19A N14A 1_555 1_555
H23A C19A 1_555 1_555
H24A C19A 1_555 1_555
C20A N13A 1_555 1_555
C21A N12A 1_555 1_555
H25A C21A 1_555 1_555
H26A C21A 1_555 1_555
C22A N11A 1_555 1_555
C23A N10A 1_555 1_555
H27A C23A 1_555 1_555
H28A C23A 1_555 1_555
C24A N10 1_555 1_555
C26A N31A 1_555 1_555
H29A C26A 1_555 1_555
H30A C26A 1_555 1_555
C27A N30A 1_555 1_555
C28A N29A 1_555 1_555
H31A C28A 1_555 1_555
H32A C28A 1_555 1_555
C29A N28A 1_555 1_555
C30A N27A 1_555 1_555
H33A C30A 1_555 1_555
H34A C30A 1_555 1_555
C31A N26A 1_555 1_555
C32A N17A 1_555 1_555
H35A C32A 1_555 1_555
C33A N26A 1_555 1_555
H36A C33A 1_555 1_555
C34A N27A 1_555 1_555
H37A C34A 1_555 1_555
C35A N28A 1_555 1_555
H38A C35A 1_555 1_555
C36A N29A 1_555 1_555
H39A C36A 1_555 1_555
C37A N30A 1_555 1_555
H40A C37A 1_555 1_555
C38A N31A 1_555 1_555
H41A C38A 1_555 1_555
C39A N18A 1_555 1_555
H42A C39A 1_555 1_555
C40A N18 1_555 1_555
H43A C40A 1_555 1_555
H44A C40A 1_555 1_555
C41A N18A 1_555 1_555
C42A N19A 1_555 1_555
H45A C42A 1_555 1_555
H46A C42A 1_555 1_555
C43A N20A 1_555 1_555
C44A N21A 1_555 1_555
H47A C44A 1_555 1_555
H48A C44A 1_555 1_555
C45A N22A 1_555 1_555
C46A N23A 1_555 1_555
H49A C46A 1_555 1_555
H50A C46A 1_555 1_555
C47A N24A 1_555 1_555
C72A N25 1_555 1_555
H71A C72A 1_555 1_555
H72A C72A 1_555 1_555
N11 C23 1_555 1_555
N12 C22 1_555 1_555
N13 C21 1_555 1_555
N14 C20 1_555 1_555
N15 C19 1_555 1_555
N16 C18 1_555 1_555
N19 C41 1_555 1_555
N20 C42 1_555 1_555
N21 C43 1_555 1_555
N22 C44 1_555 1_555
N23 C45 1_555 1_555
N24 C46 1_555 1_555
N25 C47 1_555 1_555
C10 C9A 1_555 1_555
C11 C12 1_555 1_555
C13 C14 1_555 1_555
C15 C16 1_555 1_555
C32 C33 1_555 1_555
C34 C35 1_555 1_555
C36 C37 1_555 1_555
C38 C39 1_555 1_555
C51 C52 1_555 1_555
C56 C57 1_555 1_555
C58 C59 1_555 1_555
C63 C64 1_555 1_555
C68 C69 1_555 1_555
C70 C71 1_555 1_555
N7A C10A 1_555 1_555
N8A C8A 1_555 1_555
N8A C17A 1_555 1_555
N9A C9A 1_555 1_555
N9A C24A 1_555 1_555
N10A C10A 1_555 1_555
N11A C23A 1_555 1_555
N12A C22A 1_555 1_555
N13A C21A 1_555 1_555
N14A C20A 1_555 1_555
N15A C19A 1_555 1_555
N16A C16A 1_555 1_555
N16A C18A 1_555 1_555
N17A C40A 1_555 1_555
N19A C41A 1_555 1_555
N20A C42A 1_555 1_555
N21A C43A 1_555 1_555
N22A C44A 1_555 1_555
N23A C45A 1_555 1_555
N24A C46A 1_555 1_555
N25A C32A 1_555 1_555
N25A C47A 1_555 1_555
N32A C39A 1_555 1_555
N32A C72A 1_555 1_555
C11A C12A 1_555 1_555
C13A C14A 1_555 1_555
C15A C16A 1_555 1_555
C32A C33A 1_555 1_555
C34A C35A 1_555 1_555
C36A C37A 1_555 1_555
C38A C39A 1_555 1_555

#END
