
#######################################################################
#
#                 Cambridge Crystallographic Data Centre
#                                CCDC 
#
#######################################################################
#
# If this CIF has been generated from an entry in the Cambridge 
# Structural Database, then it will include bibliographic, chemical, 
# crystal, experimental, refinement or atomic coordinate data resulting 
# from the CCDC's data processing and validation procedures.
#
#######################################################################

data_HAVFAO
_chemical_formula_moiety         'C32 H21 N1 O2'
_chemical_name_systematic        
2-(4-(diphenylamino)phenyl)-9,10-anthraquinone
_symmetry_cell_setting           monoclinic
_symmetry_space_group_name_H-M   'C 2/c'
_symmetry_Int_Tables_number      15
_space_group_name_Hall           '-C 2yn'
loop_
_symmetry_equiv_pos_site_id
_symmetry_equiv_pos_as_xyz
1 x,y,z
2 -x,y,1/2-z
3 1/2+x,1/2+y,z
4 1/2-x,1/2+y,1/2-z
5 -x,-y,-z
6 x,-y,1/2+z
7 1/2-x,1/2-y,-z
8 1/2+x,1/2-y,1/2+z
_cell_length_a                   32.759(4)
_cell_length_b                   8.6454(10)
_cell_length_c                   19.997(3)
_cell_angle_alpha                90
_cell_angle_beta                 127.339(2)
_cell_angle_gamma                90
_cell_volume                     4502.78
_exptl_crystal_colour            colorless
_exptl_crystal_description       Prism
_cell_formula_units_Z            8
loop_
_atom_site_label
_atom_site_type_symbol
_atom_site_fract_x
_atom_site_fract_y
_atom_site_fract_z
O1 O 1.17953(3) 0.55382(9) 1.23437(5)
O2 O 1.01213(3) 0.27953(10) 1.17248(5)
N1 N 0.85870(3) 0.06382(10) 0.65558(5)
C1 C 1.07105(4) 0.35482(12) 0.99615(6)
H1 H 1.0761 0.3542 0.9542
C2 C 1.10833(4) 0.41878(12) 1.07433(6)
H2 H 1.1382 0.4635 1.0849
C3 C 1.10222(3) 0.41786(11) 1.13762(6)
C4 C 1.14223(3) 0.48733(11) 1.22091(6)
C5 C 1.13562(3) 0.47201(11) 1.28798(6)
C6 C 1.17319(4) 0.53265(11) 1.36769(6)
H3 H 1.2015 0.5877 1.3776
C7 C 1.16929(4) 0.51262(12) 1.43251(6)
H4 H 1.1951 0.5529 1.4869
C8 C 1.12751(4) 0.43344(12) 1.41772(6)
H5 H 1.1255 0.4171 1.4626
C9 C 1.08875(4) 0.37812(12) 1.33779(6)
H6 H 1.0596 0.3280 1.3275
C10 C 1.09283(3) 0.39667(11) 1.27273(6)
C11 C 1.05084(4) 0.33802(11) 1.18745(6)
C12 C 1.05796(3) 0.35075(11) 1.12096(6)
C13 C 1.02004(3) 0.29155(11) 1.04150(6)
H7 H 0.9895 0.2507 1.0303
C14 C 1.02589(3) 0.29094(11) 0.97802(6)
C15 C 0.98533(3) 0.22433(11) 0.89465(6)
C16 C 0.95294(4) 0.10792(11) 0.88675(6)
H8 H 0.9588 0.0670 0.9360
C17 C 0.91261(4) 0.05114(11) 0.80883(6)
H9 H 0.8917 -0.0294 0.8054
C18 C 0.90241(3) 0.11130(11) 0.73518(6)
C19 C 0.93590(3) 0.22256(11) 0.74244(6)
H10 H 0.9307 0.2611 0.6933
C20 C 0.97676(3) 0.27713(11) 0.82093(6)
H11 H 0.9993 0.3518 0.8246
C21 C 0.81607(3) 0.00117(11) 0.64899(6)
C22 C 0.79574(4) 0.08124(12) 0.68347(6)
H12 H 0.8085 0.1809 0.7074
C23 C 0.75680(4) 0.01495(12) 0.68277(6)
H13 H 0.7435 0.0688 0.7072
C24 C 0.73721(4) -0.12961(12) 0.64661(6)
H14 H 0.7110 -0.1753 0.6470
C25 C 0.75625(4) -0.20657(11) 0.60991(6)
H15 H 0.7422 -0.3039 0.5837
C26 C 0.79571(4) -0.14224(11) 0.61124(6)
H16 H 0.8087 -0.1961 0.5864
C27 C 0.86025(4) 0.04896(11) 0.58634(6)
C28 C 0.81701(4) 0.08940(12) 0.50585(6)
H17 H 0.7877 0.1315 0.4985
C29 C 0.81660(4) 0.06834(14) 0.43661(6)
H18 H 0.7869 0.0949 0.3820
C30 C 0.85945(5) 0.00853(14) 0.44708(7)
H19 H 0.8591 -0.0073 0.3997
C31 C 0.90287(4) -0.02809(14) 0.52728(7)
H20 H 0.9325 -0.0669 0.5346
C32 C 0.90356(4) -0.00863(12) 0.59693(6)
H21 H 0.9334 -0.0345 0.6515
loop_
_geom_bond_atom_site_label_1
_geom_bond_atom_site_label_2
_geom_bond_site_symmetry_1
_geom_bond_site_symmetry_2
O1 C4 1_555 1_555
O2 C11 1_555 1_555
N1 C18 1_555 1_555
C1 H1 1_555 1_555
C2 C1 1_555 1_555
H2 C2 1_555 1_555
C3 C2 1_555 1_555
C4 C3 1_555 1_555
C5 C4 1_555 1_555
C6 C5 1_555 1_555
H3 C6 1_555 1_555
C7 C6 1_555 1_555
H4 C7 1_555 1_555
C8 C7 1_555 1_555
H5 C8 1_555 1_555
C9 C8 1_555 1_555
H6 C9 1_555 1_555
C10 C5 1_555 1_555
C11 C10 1_555 1_555
C12 C3 1_555 1_555
C13 C12 1_555 1_555
H7 C13 1_555 1_555
C14 C1 1_555 1_555
C15 C14 1_555 1_555
C16 C15 1_555 1_555
H8 C16 1_555 1_555
C17 C16 1_555 1_555
H9 C17 1_555 1_555
C18 C17 1_555 1_555
C19 C18 1_555 1_555
H10 C19 1_555 1_555
C20 C15 1_555 1_555
H11 C20 1_555 1_555
C21 N1 1_555 1_555
C22 C21 1_555 1_555
H12 C22 1_555 1_555
C23 C22 1_555 1_555
H13 C23 1_555 1_555
C24 C23 1_555 1_555
H14 C24 1_555 1_555
C25 C24 1_555 1_555
H15 C25 1_555 1_555
C26 C21 1_555 1_555
H16 C26 1_555 1_555
C27 N1 1_555 1_555
C28 C27 1_555 1_555
H17 C28 1_555 1_555
C29 C28 1_555 1_555
H18 C29 1_555 1_555
C30 C29 1_555 1_555
H19 C30 1_555 1_555
C31 C30 1_555 1_555
H20 C31 1_555 1_555
C32 C27 1_555 1_555
H21 C32 1_555 1_555
C9 C10 1_555 1_555
C11 C12 1_555 1_555
C13 C14 1_555 1_555
C19 C20 1_555 1_555
C25 C26 1_555 1_555
C31 C32 1_555 1_555

#END
