
#######################################################################
#
#                 Cambridge Crystallographic Data Centre
#                                CCDC 
#
#######################################################################
#
# If this CIF has been generated from an entry in the Cambridge 
# Structural Database, then it will include bibliographic, chemical, 
# crystal, experimental, refinement or atomic coordinate data resulting 
# from the CCDC's data processing and validation procedures.
#
#######################################################################

data_HAVKUN
_chemical_name_common            
'1-{2-hydroxy-3-[(naphthalen-1-yl)oxy]propyl}-4-(2-methoxyphenyl)piperazine-1,4-diium dichloride'
_chemical_formula_moiety         'C24 H30 N2 O3 2+,2(Cl1 1-)'
_chemical_name_systematic        
'R-(+)- Naftopidil dihydrochloride R-(+)-1-[4-(2-methoxyphenyl)piperazin-1-yl]-3-(naphthalen-1-yloxy)propan-2-ol dichloride'
_symmetry_cell_setting           monoclinic
_symmetry_space_group_name_H-M   'P 21'
_symmetry_Int_Tables_number      4
_space_group_name_Hall           'P 2yb'
loop_
_symmetry_equiv_pos_site_id
_symmetry_equiv_pos_as_xyz
1 x,y,z
2 -x,1/2+y,-z
_cell_length_a                   11.778(2)
_cell_length_b                   5.7595(12)
_cell_length_c                   17.464(4)
_cell_angle_alpha                90
_cell_angle_beta                 95.03(3)
_cell_angle_gamma                90
_cell_volume                     1180.11
_exptl_crystal_colour            colorless
_exptl_crystal_description       'Square columnar crystal'
_cell_formula_units_Z            2
_exptl_crystal_recrystallization_method 'Anhydrous ethanol/Ethyl ether'
loop_
_atom_site_label
_atom_site_type_symbol
_atom_site_fract_x
_atom_site_fract_y
_atom_site_fract_z
Cl1 Cl 0.98305(9) 0.5290(3) 0.88634(7)
Cl2 Cl 1.44279(9) 1.2446(2) 0.87467(7)
C1 C 1.1473(3) 1.0460(10) 0.9267(2)
H1 H 1.0946 0.9389 0.9478
H2 H 1.1318 1.2003 0.9455
N1 N 1.2674(3) 0.9782(7) 0.95375(18)
H3 H 1.3149 1.0763 0.9310
C2 C 1.2727(3) 0.7294(10) 0.8388(2)
H4 H 1.2848 0.5715 0.8220
H5 H 1.3287 0.8281 0.8175
N2 N 1.1538(3) 0.8080(7) 0.80940(18)
H6 H 1.1052 0.7086 0.8305
C3 C 1.1291(4) 1.0434(10) 0.8410(2)
H7 H 1.1784 1.1576 0.8201
H8 H 1.0508 1.0856 0.8252
C4 C 1.2883(3) 0.7401(9) 0.9251(2)
H9 H 1.2361 0.6325 0.9463
H10 H 1.3654 0.6929 0.9424
C5 C 1.2946(3) 0.9981(9) 1.0388(2)
H11 H 1.3642 0.9129 1.0533
H12 H 1.2338 0.9265 1.0645
C6 C 1.3094(3) 1.2468(9) 1.0663(2)
H13 H 1.3589 1.3235 1.0317
C7 C 1.1311(4) 0.7813(10) 0.7256(2)
O1 O 1.3130(2) 1.1027(6) 1.19354(16)
O2 O 1.2060(3) 1.3740(7) 1.06187(18)
H14 H 1.1630 1.3169 1.0912
C8 C 1.3087(4) 0.8890(11) 1.3076(2)
C9 C 1.3707(4) 1.2576(11) 1.1461(2)
H15 H 1.4496 1.2109 1.1447
H16 H 1.3689 1.4145 1.1661
C10 C 1.3577(4) 1.0732(10) 1.2673(2)
O3 O 1.2650(3) 1.0709(8) 0.7069(2)
C11 C 1.3475(4) 0.8449(12) 1.3847(3)
C12 C 1.4439(4) 1.2028(11) 1.3026(2)
H17 H 1.4776 1.3199 1.2758
C13 C 1.1870(4) 0.9157(11) 0.6751(3)
C14 C 1.4812(5) 1.1584(13) 1.3791(3)
H18 H 1.5393 1.2495 1.4029
C15 C 1.4362(5) 0.9885(13) 1.4200(3)
H19 H 1.4629 0.9646 1.4711
C16 C 1.0275(5) 0.5863(13) 0.6209(3)
H20 H 0.9737 0.4768 0.6026
C17 C 1.0521(4) 0.6172(11) 0.6987(3)
H21 H 1.0153 0.5272 0.7333
C18 C 1.1621(5) 0.8846(14) 0.5971(3)
H22 H 1.1983 0.9751 0.5625
C19 C 1.1796(5) 0.5661(13) 1.3109(3)
H23 H 1.1240 0.4705 1.2865
C20 C 1.0830(6) 0.7186(15) 0.5704(3)
H24 H 1.0675 0.6967 0.5177
C21 C 1.2173(5) 0.5246(14) 1.3873(3)
H25 H 1.1860 0.4037 1.4138
C22 C 1.2225(4) 0.7444(12) 1.2711(3)
H26 H 1.1955 0.7713 1.2202
C23 C 1.2997(5) 0.6603(13) 1.4232(3)
H27 H 1.3249 0.6305 1.4742
C24 C 1.3240(6) 1.2211(14) 0.6597(3)
H28 H 1.3748 1.3184 0.6915
H29 H 1.2702 1.3161 0.6295
H30 H 1.3670 1.1305 0.6263
loop_
_geom_bond_atom_site_label_1
_geom_bond_atom_site_label_2
_geom_bond_site_symmetry_1
_geom_bond_site_symmetry_2
C1 H1 1_555 1_555
H2 C1 1_555 1_555
N1 C1 1_555 1_555
H3 N1 1_555 1_555
C2 H4 1_555 1_555
H5 C2 1_555 1_555
N2 C2 1_555 1_555
H6 N2 1_555 1_555
C3 C1 1_555 1_555
H7 C3 1_555 1_555
H8 C3 1_555 1_555
C4 N1 1_555 1_555
H9 C4 1_555 1_555
H10 C4 1_555 1_555
C5 N1 1_555 1_555
H11 C5 1_555 1_555
H12 C5 1_555 1_555
C6 C5 1_555 1_555
H13 C6 1_555 1_555
C7 N2 1_555 1_555
O1 C9 1_555 1_555
O2 C6 1_555 1_555
H14 O2 1_555 1_555
C8 C10 1_555 1_555
C9 C6 1_555 1_555
H15 C9 1_555 1_555
H16 C9 1_555 1_555
C10 O1 1_555 1_555
O3 C13 1_555 1_555
C11 C8 1_555 1_555
C12 C10 1_555 1_555
H17 C12 1_555 1_555
C13 C7 1_555 1_555
C14 C12 1_555 1_555
H18 C14 1_555 1_555
C15 C11 1_555 1_555
H19 C15 1_555 1_555
C16 H20 1_555 1_555
C17 C7 1_555 1_555
H21 C17 1_555 1_555
C18 C13 1_555 1_555
H22 C18 1_555 1_555
C19 H23 1_555 1_555
C20 C16 1_555 1_555
H24 C20 1_555 1_555
C21 C19 1_555 1_555
H25 C21 1_555 1_555
C22 C8 1_555 1_555
H26 C22 1_555 1_555
C23 C11 1_555 1_555
H27 C23 1_555 1_555
C24 O3 1_555 1_555
H28 C24 1_555 1_555
H29 C24 1_555 1_555
H30 C24 1_555 1_555
C2 C4 1_555 1_555
N2 C3 1_555 1_555
C14 C15 1_555 1_555
C16 C17 1_555 1_555
C18 C20 1_555 1_555
C19 C22 1_555 1_555
C21 C23 1_555 1_555

#END
