
#######################################################################
#
#                 Cambridge Crystallographic Data Centre
#                                CCDC 
#
#######################################################################
#
# If this CIF has been generated from an entry in the Cambridge 
# Structural Database, then it will include bibliographic, chemical, 
# crystal, experimental, refinement or atomic coordinate data resulting 
# from the CCDC's data processing and validation procedures.
#
#######################################################################

data_HAVNUN
_chemical_formula_moiety         'C19 H24 O5 S1'
_chemical_name_systematic        
1,3-Dioxolane-2-spiro-11'-(2'-oxo-9'-phenylsulfonyl-bicyclo(6.3.0)undecane)
_symmetry_cell_setting           monoclinic
_symmetry_space_group_name_H-M   'P 21/c'
_symmetry_Int_Tables_number      14
_space_group_name_Hall           '-P 2ybc'
loop_
_symmetry_equiv_pos_site_id
_symmetry_equiv_pos_as_xyz
1 x,y,z
2 -x,1/2+y,1/2-z
3 -x,-y,-z
4 x,1/2-y,1/2+z
_cell_length_a                   5.536(1)
_cell_length_b                   14.850(1)
_cell_length_c                   21.394(1)
_cell_angle_alpha                90
_cell_angle_beta                 93.68(1)
_cell_angle_gamma                90
_cell_volume                     1755.17
_cell_formula_units_Z            4
loop_
_atom_site_label
_atom_site_type_symbol
_atom_site_fract_x
_atom_site_fract_y
_atom_site_fract_z
C1 C 0.0897(4) 0.0841(2) 0.3355(1)
C2 C 0.2031(5) 0.0638(2) 0.4002(1)
C3 C 0.4225(6) 0.0033(2) 0.4082(1)
C4 C 0.3591(6) -0.0936(2) 0.4256(1)
C5 C 0.2314(6) -0.1490(2) 0.3736(1)
C6 C -0.0235(5) -0.1162(2) 0.3529(1)
C7 C -0.0480(5) -0.0688(2) 0.2897(1)
C8 C 0.1140(4) 0.0134(2) 0.2840(1)
C9 C 0.0553(4) 0.0681(2) 0.2231(1)
C10 C 0.0984(6) 0.1676(2) 0.2388(1)
C11 C 0.1966(4) 0.1698(2) 0.3076(1)
O1 O 0.4529(3) 0.1662(1) 0.3135(1)
C12 C 0.5288(7) 0.2580(2) 0.3168(2)
O2 O 0.1280(3) 0.2492(1) 0.3377(1)
C13 C 0.3390(5) 0.3012(2) 0.3534(2)
S1 S 0.2278(1) 0.0287(1) 0.1611(1)
O3 O 0.4772(4) 0.0538(2) 0.1737(1)
O4 O 0.1737(5) -0.0648(1) 0.1511(1)
C14 C 0.1141(5) 0.0900(2) 0.0950(1)
C15 C 0.2414(6) 0.1629(2) 0.0741(1)
C16 C 0.1493(8) 0.2097(2) 0.0219(2)
C17 C -0.0622(8) 0.1838(3) -0.0089(1)
C18 C -0.1886(7) 0.1116(3) 0.0123(1)
C19 C -0.1036(6) 0.0642(2) 0.0646(1)
O5 O 0.1150(5) 0.0961(2) 0.4455(1)
C20? C 0.5396(31) 0.2323(12) 0.3599(9)
loop_
_geom_bond_atom_site_label_1
_geom_bond_atom_site_label_2
_geom_bond_site_symmetry_1
_geom_bond_site_symmetry_2
C1 C2 1_555 1_555
C2 C3 1_555 1_555
C3 C4 1_555 1_555
C4 C5 1_555 1_555
C5 C6 1_555 1_555
C6 C7 1_555 1_555
C7 C8 1_555 1_555
C8 C1 1_555 1_555
C9 C8 1_555 1_555
C10 C9 1_555 1_555
C11 C1 1_555 1_555
O1 C11 1_555 1_555
C12 O1 1_555 1_555
O2 C11 1_555 1_555
C13 C12 1_555 1_555
S1 C9 1_555 1_555
O3 S1 1_555 1_555
O4 S1 1_555 1_555
C14 S1 1_555 1_555
C15 C14 1_555 1_555
C16 C15 1_555 1_555
C17 C16 1_555 1_555
C18 C17 1_555 1_555
C19 C14 1_555 1_555
O5 C2 1_555 1_555
C10 C11 1_555 1_555
O2 C13 1_555 1_555
C18 C19 1_555 1_555

#END
