
#######################################################################
#
#                 Cambridge Crystallographic Data Centre
#                                CCDC 
#
#######################################################################
#
# If this CIF has been generated from an entry in the Cambridge 
# Structural Database, then it will include bibliographic, chemical, 
# crystal, experimental, refinement or atomic coordinate data resulting 
# from the CCDC's data processing and validation procedures.
#
#######################################################################

data_HAVVIJ
_chemical_formula_moiety         'C22 H31 N3 O7'
_chemical_name_systematic        
"N'-Formylglycyl-L-(\b-t-butyloxy)aspartyl-L-C'-methylphenylalanine methyl ester"
_symmetry_cell_setting           orthorhombic
_symmetry_space_group_name_H-M   'P 21 21 21'
_symmetry_Int_Tables_number      19
_space_group_name_Hall           'P 2ac 2ab'
loop_
_symmetry_equiv_pos_site_id
_symmetry_equiv_pos_as_xyz
1 x,y,z
2 1/2+x,1/2-y,-z
3 -x,1/2+y,1/2-z
4 1/2-x,-y,1/2+z
_cell_length_a                   24.220(2)
_cell_length_b                   10.914(2)
_cell_length_c                   9.416(2)
_cell_angle_alpha                90
_cell_angle_beta                 90
_cell_angle_gamma                90
_cell_volume                     2489
_chemical_melting_point          431-433K
_cell_formula_units_Z            4
loop_
_atom_site_label
_atom_site_type_symbol
_atom_site_fract_x
_atom_site_fract_y
_atom_site_fract_z
O1 O -0.40108(42) -0.3740(12) 0.0033(12)
O2 O -0.26282(38) -0.50190(97) 0.3402(11)
O3 O -0.23815(48) -0.8080(12) 0.4356(14)
O4 O -0.28908(39) -0.8324(12) 0.2421(12)
O5 O -0.12813(34) -0.6391(10) -0.00721(91)
O6 O -0.04525(40) -0.8504(11) 0.0954(11)
O7 O -0.00399(31) -0.74883(88) -0.07418(94)
N1 N -0.34644(40) -0.3898(11) 0.1999(11)
N2 N -0.22239(33) -0.5654(10) 0.1363(11)
N3 N -0.08241(39) -0.6241(10) 0.2001(11)
C1 C -0.39452(67) -0.3648(17) 0.1380(19)
C2 C -0.29920(62) -0.4205(15) 0.1209(15)
C3 C -0.26117(57) -0.4996(15) 0.2089(16)
C4 C -0.18065(43) -0.6422(13) 0.2037(13)
C5 C -0.19740(50) -0.7764(12) 0.2026(16)
C6 C -0.24279(61) -0.8049(13) 0.3053(16)
C7 C -0.34064(83) -0.8705(21) 0.3212(23)
C8 C -0.35758(77) -0.7651(27) 0.4108(30)
C9 C -0.38347(85) -0.8800(26) 0.2085(28)
C10 C -0.33003(54) -0.9832(16) 0.4164(19)
C11 C -0.12621(56) -0.6351(13) 0.1189(14)
C12 C -0.02683(43) -0.6351(10) 0.1385(14)
C13 C -0.01169(51) -0.5241(11) 0.0424(15)
C14 C -0.02798(44) -0.7567(11) 0.0553(14)
C15 C 0.00383(71) -0.8666(15) -0.1548(16)
C16 C 0.01368(52) -0.6489(12) 0.2597(13)
C17 C 0.07387(47) -0.6730(15) 0.2161(14)
C18 C 0.09113(53) -0.7945(13) 0.1915(14)
C19 C 0.14754(56) -0.8089(14) 0.1533(17)
C20 C 0.18267(59) -0.7161(23) 0.1412(22)
C21 C 0.16585(65) -0.6009(16) 0.1634(23)
C22 C 0.11260(67) -0.5796(14) 0.2075(21)
H1 H -0.34452 -0.39538 0.31574
H2 H -0.22160 -0.56021 0.01958
H3 H -0.08780 -0.60522 0.31027
H4 H -0.42762 -0.33661 0.20602
H5 H -0.31032 -0.47383 0.02604
H6 H -0.27784 -0.33979 0.08901
H7 H -0.17168 -0.60603 0.31166
H8 H -0.16208 -0.83805 0.22143
H9 H -0.21304 -0.80153 0.09450
H10 H -0.32651 -0.74776 0.50610
H11 H -0.39731 -0.76921 0.47010
H12 H -0.35759 -0.67101 0.36197
H13 H -0.42448 -0.89772 0.25387
H14 H -0.37175 -0.94752 0.13833
H15 H -0.38765 -0.79021 0.15103
H16 H -0.36556 -1.00496 0.47470
H17 H -0.29613 -0.95753 0.48743
H18 H -0.31741 -1.05085 0.34465
H19 H -0.04085 -0.51924 -0.04583
H20 H 0.02976 -0.54199 -0.00848
H21 H -0.00960 -0.44091 0.09691
H22 H 0.02210 -0.85687 -0.25023
H23 H -0.03659 -0.91290 -0.16042
H24 H 0.02951 -0.93043 -0.08456
H25 H 0.01273 -0.56707 0.32134
H26 H 0.00018 -0.72624 0.31989
H27 H 0.06320 -0.86721 0.20161
H28 H 0.16026 -0.90840 0.13469
H29 H 0.22663 -0.73693 0.11358
H30 H 0.19594 -0.52427 0.15940
H31 H 0.09888 -0.48308 0.22633
loop_
_geom_bond_atom_site_label_1
_geom_bond_atom_site_label_2
_geom_bond_site_symmetry_1
_geom_bond_site_symmetry_2
O1 C1 1_555 1_555
O2 C3 1_555 1_555
O3 C6 1_555 1_555
O4 C6 1_555 1_555
O5 C11 1_555 1_555
O6 C14 1_555 1_555
O7 C14 1_555 1_555
N1 C1 1_555 1_555
N2 C3 1_555 1_555
N3 C11 1_555 1_555
C1 H4 1_555 1_555
C2 N1 1_555 1_555
C3 C2 1_555 1_555
C4 N2 1_555 1_555
C5 C4 1_555 1_555
C6 C5 1_555 1_555
C7 O4 1_555 1_555
C8 C7 1_555 1_555
C9 C7 1_555 1_555
C10 C7 1_555 1_555
C11 C4 1_555 1_555
C12 N3 1_555 1_555
C13 C12 1_555 1_555
C14 C12 1_555 1_555
C15 O7 1_555 1_555
C16 C12 1_555 1_555
C17 C16 1_555 1_555
C18 C17 1_555 1_555
C19 C18 1_555 1_555
C20 C19 1_555 1_555
C21 C20 1_555 1_555
C22 C17 1_555 1_555
H1 N1 1_555 1_555
H2 N2 1_555 1_555
H3 N3 1_555 1_555
H5 C2 1_555 1_555
H6 C2 1_555 1_555
H7 C4 1_555 1_555
H8 C5 1_555 1_555
H9 C5 1_555 1_555
H10 C8 1_555 1_555
H11 C8 1_555 1_555
H12 C8 1_555 1_555
H13 C9 1_555 1_555
H14 C9 1_555 1_555
H15 C9 1_555 1_555
H16 C10 1_555 1_555
H17 C10 1_555 1_555
H18 C10 1_555 1_555
H19 C13 1_555 1_555
H20 C13 1_555 1_555
H21 C13 1_555 1_555
H22 C15 1_555 1_555
H23 C15 1_555 1_555
H24 C15 1_555 1_555
H25 C16 1_555 1_555
H26 C16 1_555 1_555
H27 C18 1_555 1_555
H28 C19 1_555 1_555
H29 C20 1_555 1_555
H30 C21 1_555 1_555
H31 C22 1_555 1_555
C21 C22 1_555 1_555

#END
