
#######################################################################
#
#                 Cambridge Crystallographic Data Centre
#                                CCDC 
#
#######################################################################
#
# If this CIF has been generated from an entry in the Cambridge 
# Structural Database, then it will include bibliographic, chemical, 
# crystal, experimental, refinement or atomic coordinate data resulting 
# from the CCDC's data processing and validation procedures.
#
#######################################################################

data_HAVVIK
_chemical_formula_moiety         'C32 H52 O8 Si1'
_chemical_name_systematic        
3-(12-(Benzyloxy)-3-(t-butyl-dimethylsiloxy)-8-methoxy-11a-methyltetradecahydro-pyrano(3,2-b)pyrano(2',3':5,6)pyrano(2,3-e)pyran-2-yl)-1-propanol
_symmetry_cell_setting           orthorhombic
_symmetry_space_group_name_H-M   'P 21 21 21'
_symmetry_Int_Tables_number      19
_space_group_name_Hall           'P 2ac 2ab'
loop_
_symmetry_equiv_pos_site_id
_symmetry_equiv_pos_as_xyz
1 x,y,z
2 1/2-x,-y,1/2+z
3 1/2+x,1/2-y,-z
4 -x,1/2+y,1/2-z
_cell_length_a                   9.287(4)
_cell_length_b                   24.984(11)
_cell_length_c                   43.067(19)
_cell_angle_alpha                90
_cell_angle_beta                 90
_cell_angle_gamma                90
_cell_volume                     9992.68
_exptl_crystal_colour            colorless
_exptl_crystal_description       block
_cell_formula_units_Z            12
_exptl_crystal_recrystallization_method dichloromethane/hexane
loop_
_atom_site_label
_atom_site_type_symbol
_atom_site_fract_x
_atom_site_fract_y
_atom_site_fract_z
O1 O 0.4198(6) 0.69564(17) -0.05049(11)
C1 C 0.3532(11) 0.6510(3) -0.06611(18)
H1 H 0.4195 0.6383 -0.0822
C2 C 0.3270(10) 0.6059(3) -0.04378(17)
H2 H 0.4185 0.5890 -0.0390
H3 H 0.2671 0.5793 -0.0539
C3 C 0.3391(7) 0.6696(2) 0.00007(15)
H4 H 0.4379 0.6582 0.0046
C4 C 0.2548(9) 0.6223(2) -0.01332(15)
H5 H 0.2555 0.5926 0.0012
H6 H 0.1556 0.6326 -0.0171
O2 O 0.2717(5) 0.68711(15) 0.02816(10)
C5 C 0.3416(7) 0.7338(2) 0.04182(13)
C6 C 0.2462(7) 0.74954(19) 0.06952(13)
H7 H 0.1457 0.7514 0.0627
C7 C 0.2933(7) 0.8045(2) 0.08103(14)
H8 H 0.3889 0.8018 0.0905
O3 O 0.1913(5) 0.82232(16) 0.10364(10)
C8 C 0.2374(8) 0.8699(2) 0.11910(15)
H9 H 0.3320 0.8635 0.1285
C9 C 0.2513(8) 0.9136(2) 0.09470(14)
H10 H 0.1552 0.9210 0.0864
C10 C 0.3487(8) 0.8989(2) 0.06795(15)
H11 H 0.4474 0.8956 0.0751
H12 H 0.3452 0.9265 0.0521
C11 C 0.2967(8) 0.8457(2) 0.05466(14)
H13 H 0.1993 0.8502 0.0463
O4 O 0.3903(5) 0.82780(15) 0.03046(10)
C12 C 0.3338(7) 0.7788(2) 0.01767(14)
H14 H 0.2322 0.7847 0.0126
C13 C 0.4110(8) 0.7646(2) -0.01181(14)
H15 H 0.5126 0.7589 -0.0077
H16 H 0.4014 0.7932 -0.0269
C14 C 0.3422(8) 0.7131(2) -0.02429(14)
H17 H 0.2431 0.7210 -0.0306
O5 O 0.2301(7) 0.6670(2) -0.08011(12)
C15 C 0.2478(11) 0.7036(4) -0.10526(19)
H18 H 0.1551 0.7126 -0.1136
H19 H 0.3056 0.6873 -0.1211
H20 H 0.2945 0.7354 -0.0979
C16 C 0.4925(8) 0.7199(2) 0.05322(15)
H21 H 0.5518 0.7103 0.0358
H22 H 0.4873 0.6904 0.0675
H23 H 0.5334 0.7504 0.0635
O6 O 0.2579(5) 0.71196(15) 0.09468(9)
C17 C 0.1242(10) 0.6904(4) 0.1047(2)
H24 H 0.0726 0.6753 0.0872
H25 H 0.0653 0.7184 0.1138
C18 C 0.1540(8) 0.6476(3) 0.12844(18)
C19 C 0.2476(10) 0.6061(3) 0.12272(19)
H26 H 0.2953 0.6041 0.1038
C20 C 0.2707(11) 0.5676(3) 0.1450(2)
H27 H 0.3317 0.5390 0.1407
C21 C 0.2058(12) 0.5709(4) 0.1730(3)
H28 H 0.2259 0.5458 0.1883
C22 C 0.1129(14) 0.6103(5) 0.1783(2)
H29 H 0.0635 0.6110 0.1971
C23 C 0.0878(11) 0.6502(3) 0.1568(2)
H30 H 0.0266 0.6785 0.1615
C24 C 0.1296(9) 0.8818(2) 0.14454(16)
H31 H 0.0402 0.8938 0.1352
H32 H 0.1662 0.9106 0.1574
C25 C 0.0992(11) 0.8321(3) 0.1652(2)
H33 H 0.0815 0.8013 0.1520
H34 H 0.1835 0.8244 0.1778
C26 C -0.0275(13) 0.8404(4) 0.1860(3)
H35 H 0.0021 0.8598 0.2045
H36 H -0.1000 0.8615 0.1754
O7 O -0.0852(10) 0.7907(3) 0.19452(18)
H37 H -0.1542 0.7953 0.2061
O8 O 0.3043(5) 0.96189(15) 0.10942(10)
Si1 Si 0.2287(3) 1.02187(7) 0.10523(5)
C27 C 0.2216(14) 1.0409(3) 0.0631(2)
H38 H 0.1604 1.0164 0.0522
H39 H 0.3168 1.0396 0.0545
H40 H 0.1839 1.0766 0.0611
C28 C 0.0421(10) 1.0218(3) 0.1208(3)
H41 H 0.0438 1.0113 0.1423
H42 H -0.0157 0.9970 0.1092
H43 H 0.0018 1.0571 0.1191
C29 C 0.3469(11) 1.0678(3) 0.1278(2)
C30 C 0.3559(14) 1.0481(4) 0.1609(2)
H44 H 0.4164 1.0717 0.1727
H45 H 0.3958 1.0127 0.1612
H46 H 0.2612 1.0475 0.1698
C31 C 0.2818(12) 1.1249(3) 0.1275(3)
H47 H 0.3439 1.1488 0.1388
H48 H 0.1886 1.1243 0.1372
H49 H 0.2725 1.1370 0.1065
C32 C 0.5009(11) 1.0677(3) 0.1148(2)
H50 H 0.5592 1.0923 0.1264
H51 H 0.4989 1.0783 0.0933
H52 H 0.5408 1.0323 0.1165
Si2 Si 0.2750(3) -0.02302(9) -0.04007(6)
O9 O 0.1445(7) 0.2887(2) -0.21412(13)
C33 C 0.2106(11) 0.3301(3) -0.2317(2)
H53 H 0.1429 0.3418 -0.2477
C34 C 0.2449(11) 0.3786(3) -0.2104(2)
H54 H 0.3064 0.4032 -0.2217
H55 H 0.1557 0.3972 -0.2057
C35 C 0.3184(11) 0.3637(3) -0.1800(2)
H56 H 0.3202 0.3943 -0.1661
H57 H 0.4169 0.3526 -0.1839
C36 C 0.2336(10) 0.3178(3) -0.16521(16)
H58 H 0.1356 0.3300 -0.1607
O10 O 0.3030(6) 0.30267(18) -0.13657(11)
C37 C 0.2342(8) 0.2591(2) -0.12069(16)
C38 C 0.3265(10) 0.2449(3) -0.09319(16)
H59 H 0.4268 0.2412 -0.0999
C39 C 0.2744(9) 0.1916(2) -0.07961(17)
H60 H 0.1786 0.1967 -0.0705
O11 O 0.3730(6) 0.17478(19) -0.05553(11)
C40 C 0.3140(9) 0.1309(3) -0.03854(17)
H61 H 0.2191 0.1412 -0.0306
C41 C 0.2960(10) 0.0823(3) -0.06070(15)
H62 H 0.3909 0.0700 -0.0677
C42 C 0.2668(9) 0.1480(2) -0.10393(16)
H63 H 0.3636 0.1403 -0.1118
C43 C 0.2025(10) 0.0975(2) -0.08919(15)
H64 H 0.2021 0.0684 -0.1041
H65 H 0.1041 0.1042 -0.0827
O12 O 0.1745(6) 0.16387(17) -0.12931(11)
C44 C 0.2356(8) 0.2099(3) -0.14387(15)
H66 H 0.3359 0.2019 -0.1492
C45 C 0.2267(10) 0.2721(3) -0.18759(17)
H67 H 0.3245 0.2628 -0.1942
C46 C 0.1548(9) 0.2222(3) -0.17345(17)
H68 H 0.0542 0.2293 -0.1690
H69 H 0.1607 0.1923 -0.1877
O13 O 0.3360(7) 0.3136(2) -0.24597(14)
C47 C 0.3101(14) 0.2725(4) -0.2684(2)
H70 H 0.3998 0.2615 -0.2774
H71 H 0.2476 0.2859 -0.2843
H72 H 0.2654 0.2424 -0.2584
C48 C 0.0806(9) 0.2742(3) -0.1110(2)
H73 H 0.0837 0.3044 -0.0973
H74 H 0.0364 0.2444 -0.1007
H75 H 0.0256 0.2833 -0.1292
O14 O 0.3174(7) 0.28508(19) -0.06927(12)
C49 C 0.4386(10) 0.3183(3) -0.0668(2)
H76 H 0.4666 0.3315 -0.0871
H77 H 0.5189 0.2987 -0.0580
C50 C 0.3974(9) 0.3639(3) -0.04610(19)
C51 C 0.3071(12) 0.4040(4) -0.0565(2)
H78 H 0.2735 0.4027 -0.0768
C52 C 0.2655(13) 0.4456(4) -0.0378(3)
H79 H 0.1977 0.4702 -0.0449
C53 C 0.3238(14) 0.4510(4) -0.0088(3)
H80 H 0.3039 0.4810 0.0033
C54 C 0.4119(15) 0.4114(4) 0.0022(3)
H81 H 0.4455 0.4134 0.0225
C55 C 0.4528(11) 0.3682(4) -0.0163(2)
H82 H 0.5163 0.3426 -0.0087
C56 C 0.4121(11) 0.1197(3) -0.01157(18)
H83 H 0.5049 0.1089 -0.0197
H84 H 0.3732 0.0894 -0.0002
C57 C 0.4367(14) 0.1656(4) 0.0115(2)
H85 H 0.3456 0.1839 0.0146
H86 H 0.4642 0.1501 0.0313
C58 C 0.5413(16) 0.2046(5) 0.0035(3)
H87 H 0.6269 0.1859 -0.0036
H88 H 0.5047 0.2249 -0.0140
O15 O 0.5815(12) 0.2400(3) 0.02592(17)
H89 H 0.6102 0.2236 0.0412
O16 O 0.2244(6) 0.03988(17) -0.04425(11)
C59 C 0.4565(14) -0.0262(4) -0.0216(3)
H90 H 0.4556 -0.0063 -0.0026
H91 H 0.5268 -0.0111 -0.0355
H92 H 0.4807 -0.0629 -0.0174
C60 C 0.1410(14) -0.0526(4) -0.0127(2)
H93 H 0.0468 -0.0511 -0.0218
H94 H 0.1413 -0.0326 0.0064
H95 H 0.1659 -0.0891 -0.0085
C61 C 0.2674(12) -0.0614(3) -0.0762(2)
C62 C 0.3007(13) -0.1208(3) -0.0699(2)
H96 H 0.2963 -0.1405 -0.0890
H97 H 0.2312 -0.1349 -0.0556
H98 H 0.3954 -0.1240 -0.0611
C63 C 0.1276(13) -0.0568(4) -0.0926(3)
H99 H 0.1311 -0.0772 -0.1115
H100 H 0.1089 -0.0200 -0.0974
H101 H 0.0521 -0.0705 -0.0796
C64 C 0.3899(13) -0.0394(4) -0.0991(2)
H102 H 0.3860 -0.0587 -0.1184
H103 H 0.4827 -0.0444 -0.0897
H104 H 0.3744 -0.0020 -0.1030
O17 O 0.8499(7) 0.8234(2) 0.38324(13)
C65 C 0.7811(11) 0.8656(3) 0.3993(2)
H105 H 0.8477 0.8792 0.4151
C66 C 0.7451(11) 0.9107(3) 0.37750(19)
H106 H 0.8336 0.9296 0.3726
H107 H 0.6828 0.9356 0.3884
C67 C 0.7622(9) 0.8493(3) 0.33288(16)
H108 H 0.8593 0.8621 0.3280
C68 C 0.6726(10) 0.8955(3) 0.34713(19)
H109 H 0.6704 0.9259 0.3331
H110 H 0.5745 0.8838 0.3509
O18 O 0.6929(6) 0.83146(16) 0.30507(11)
C69 C 0.7678(9) 0.7859(3) 0.29098(14)
C70 C 0.7328(9) 0.7158(3) 0.25049(15)
H111 H 0.8286 0.7210 0.2414
C71 C 0.6782(8) 0.7701(2) 0.26257(15)
H112 H 0.5770 0.7667 0.2687
O19 O 0.6400(6) 0.69702(17) 0.22705(10)
C72 C 0.7013(9) 0.6505(2) 0.21101(16)
H113 H 0.7969 0.6599 0.2031
C73 C 0.7168(9) 0.6057(2) 0.23545(17)
H114 H 0.6211 0.5955 0.2430
C74 C 0.7447(8) 0.6741(2) 0.27642(15)
H115 H 0.6481 0.6664 0.2844
C75 C 0.8078(9) 0.6229(3) 0.26222(17)
H116 H 0.9055 0.6295 0.2552
H117 H 0.8105 0.5948 0.2777
O20 O 0.8330(6) 0.69305(18) 0.30132(10)
C76 C 0.7676(8) 0.7396(2) 0.31433(15)
H118 H 0.6671 0.7309 0.3191
C77 C 0.8411(9) 0.7545(3) 0.34413(15)
H119 H 0.9425 0.7612 0.3404
H120 H 0.8329 0.7255 0.3590
C78 C 0.7705(10) 0.8043(3) 0.35699(16)
H121 H 0.6727 0.7952 0.3637
O21 O 0.6586(8) 0.8491(3) 0.41384(15)
C79 C 0.6876(16) 0.8080(5) 0.4377(3)
H122 H 0.5986 0.7972 0.4472
H123 H 0.7505 0.8225 0.4533
H124 H 0.7325 0.7775 0.4282
C80 C 0.9159(8) 0.8022(3) 0.28089(17)
H125 H 0.9718 0.8120 0.2988
H126 H 0.9093 0.8322 0.2670
H127 H 0.9615 0.7728 0.2704
O22 O 0.6897(6) 0.80813(17) 0.23776(11)
C81 C 0.5692(10) 0.8420(3) 0.2338(2)
H128 H 0.5429 0.8586 0.2533
H129 H 0.4874 0.8218 0.2261
C82 C 0.6140(9) 0.8840(3) 0.2104(2)
C83 C 0.6935(11) 0.9275(3) 0.2190(3)
H130 H 0.7198 0.9323 0.2396
C84 C 0.7348(13) 0.9646(3) 0.1966(3)
H131 H 0.7873 0.9947 0.2024
C85 C 0.6973(15) 0.9566(5) 0.1657(4)
H132 H 0.7273 0.9809 0.1507
C86 C 0.6189(15) 0.9143(5) 0.1573(3)
H133 H 0.5944 0.9093 0.1366
C87 C 0.5733(11) 0.8772(3) 0.1797(2)
H134 H 0.5160 0.8483 0.1740
C88 C 0.6061(12) 0.6371(3) 0.18448(18)
H135 H 0.5120 0.6280 0.1927
H136 H 0.6441 0.6052 0.1745
C89 C 0.5860(11) 0.6804(3) 0.15941(19)
H137 H 0.6774 0.6982 0.1559
H138 H 0.5574 0.6635 0.1401
C90 C 0.4774(13) 0.7205(4) 0.1681(2)
H139 H 0.3900 0.7023 0.1744
H140 H 0.5124 0.7409 0.1857
O23 O 0.4444(8) 0.7565(2) 0.14341(15)
H141 H 0.3910 0.7416 0.1309
O24 O 0.7833(6) 0.55998(18) 0.22057(11)
Si4 Si 0.7213(5) 0.49885(14) 0.22774(12)
C97 C 0.711(2) 0.4758(6) 0.2674(3)
H157 H 0.6461 0.4982 0.2789
H158 H 0.8052 0.4776 0.2767
H159 H 0.6774 0.4396 0.2678
C98 C 0.5308(12) 0.4969(8) 0.2214(5)
H160 H 0.5101 0.5078 0.2005
H161 H 0.4840 0.5208 0.2357
H162 H 0.4963 0.4611 0.2247
C99 C 0.8409(13) 0.4577(4) 0.2042(3)
C100 C 0.864(2) 0.4787(7) 0.1711(3)
H163 H 0.9290 0.4554 0.1602
H164 H 0.9044 0.5141 0.1720
H165 H 0.7735 0.4799 0.1604
C101 C 0.783(2) 0.4001(5) 0.2012(4)
H166 H 0.8474 0.3793 0.1886
H167 H 0.6894 0.4008 0.1917
H168 H 0.7757 0.3842 0.2214
C102 C 0.9876(12) 0.4573(5) 0.2208(3)
H169 H 1.0547 0.4363 0.2090
H170 H 0.9767 0.4420 0.2411
H171 H 1.0227 0.4933 0.2226
Si3? Si 0.7170(7) 0.49910(19) 0.21392(17)
C91? C 0.708(4) 0.4864(11) 0.1731(3)
H142? H 0.6419 0.5110 0.1636
H143? H 0.6752 0.4504 0.1696
H144? H 0.8017 0.4908 0.1641
C92? C 0.5296(14) 0.4943(11) 0.2050(6)
H145? H 0.5016 0.5244 0.1925
H146? H 0.4749 0.4942 0.2239
H147? H 0.5118 0.4619 0.1937
C93? C 0.8391(16) 0.4538(6) 0.2374(4)
C94? C 0.823(4) 0.4702(11) 0.2716(4)
H148? H 0.8838 0.4482 0.2843
H149? H 0.7242 0.4655 0.2779
H150? H 0.8493 0.5071 0.2740
C95? C 0.780(2) 0.3965(6) 0.2331(4)
H151? H 0.8395 0.3718 0.2443
H152? H 0.7814 0.3874 0.2114
H153? H 0.6833 0.3947 0.2407
C96? C 0.9876(12) 0.4573(5) 0.2208(3)
H154? H 1.0559 0.4351 0.2314
H155? H 1.0205 0.4937 0.2209
H156? H 0.9778 0.4452 0.1997
loop_
_geom_bond_atom_site_label_1
_geom_bond_atom_site_label_2
_geom_bond_site_symmetry_1
_geom_bond_site_symmetry_2
O1 C1 1_555 1_555
C1 H1 1_555 1_555
C2 C1 1_555 1_555
H2 C2 1_555 1_555
H3 C2 1_555 1_555
C3 H4 1_555 1_555
C4 C2 1_555 1_555
H5 C4 1_555 1_555
H6 C4 1_555 1_555
O2 C3 1_555 1_555
C5 O2 1_555 1_555
C6 C5 1_555 1_555
H7 C6 1_555 1_555
C7 C6 1_555 1_555
H8 C7 1_555 1_555
O3 C7 1_555 1_555
C8 O3 1_555 1_555
H9 C8 1_555 1_555
C9 C8 1_555 1_555
H10 C9 1_555 1_555
C10 C9 1_555 1_555
H11 C10 1_555 1_555
H12 C10 1_555 1_555
C11 C7 1_555 1_555
H13 C11 1_555 1_555
O4 C11 1_555 1_555
C12 C5 1_555 1_555
H14 C12 1_555 1_555
C13 C12 1_555 1_555
H15 C13 1_555 1_555
H16 C13 1_555 1_555
C14 O1 1_555 1_555
H17 C14 1_555 1_555
O5 C1 1_555 1_555
C15 O5 1_555 1_555
H18 C15 1_555 1_555
H19 C15 1_555 1_555
H20 C15 1_555 1_555
C16 C5 1_555 1_555
H21 C16 1_555 1_555
H22 C16 1_555 1_555
H23 C16 1_555 1_555
O6 C6 1_555 1_555
C17 O6 1_555 1_555
H24 C17 1_555 1_555
H25 C17 1_555 1_555
C18 C17 1_555 1_555
C19 C18 1_555 1_555
H26 C19 1_555 1_555
C20 C19 1_555 1_555
H27 C20 1_555 1_555
C21 C20 1_555 1_555
H28 C21 1_555 1_555
C22 C21 1_555 1_555
H29 C22 1_555 1_555
C23 C18 1_555 1_555
H30 C23 1_555 1_555
C24 C8 1_555 1_555
H31 C24 1_555 1_555
H32 C24 1_555 1_555
C25 C24 1_555 1_555
H33 C25 1_555 1_555
H34 C25 1_555 1_555
C26 C25 1_555 1_555
H35 C26 1_555 1_555
H36 C26 1_555 1_555
O7 C26 1_555 1_555
H37 O7 1_555 1_555
O8 C9 1_555 1_555
Si1 O8 1_555 1_555
C27 Si1 1_555 1_555
H38 C27 1_555 1_555
H39 C27 1_555 1_555
H40 C27 1_555 1_555
C28 Si1 1_555 1_555
H41 C28 1_555 1_555
H42 C28 1_555 1_555
H43 C28 1_555 1_555
C29 Si1 1_555 1_555
C30 C29 1_555 1_555
H44 C30 1_555 1_555
H45 C30 1_555 1_555
H46 C30 1_555 1_555
C31 C29 1_555 1_555
H47 C31 1_555 1_555
H48 C31 1_555 1_555
H49 C31 1_555 1_555
C32 C29 1_555 1_555
H50 C32 1_555 1_555
H51 C32 1_555 1_555
H52 C32 1_555 1_555
Si2 O16 1_555 1_555
O9 C33 1_555 1_555
C33 H53 1_555 1_555
C34 C33 1_555 1_555
H54 C34 1_555 1_555
H55 C34 1_555 1_555
C35 C34 1_555 1_555
H56 C35 1_555 1_555
H57 C35 1_555 1_555
C36 C35 1_555 1_555
H58 C36 1_555 1_555
O10 C36 1_555 1_555
C37 O10 1_555 1_555
C38 C37 1_555 1_555
H59 C38 1_555 1_555
C39 C38 1_555 1_555
H60 C39 1_555 1_555
O11 C39 1_555 1_555
C40 O11 1_555 1_555
H61 C40 1_555 1_555
C41 C40 1_555 1_555
H62 C41 1_555 1_555
C42 C39 1_555 1_555
H63 C42 1_555 1_555
C43 C41 1_555 1_555
H64 C43 1_555 1_555
H65 C43 1_555 1_555
O12 C42 1_555 1_555
C44 C37 1_555 1_555
H66 C44 1_555 1_555
C45 O9 1_555 1_555
H67 C45 1_555 1_555
C46 C44 1_555 1_555
H68 C46 1_555 1_555
H69 C46 1_555 1_555
O13 C33 1_555 1_555
C47 O13 1_555 1_555
H70 C47 1_555 1_555
H71 C47 1_555 1_555
H72 C47 1_555 1_555
C48 C37 1_555 1_555
H73 C48 1_555 1_555
H74 C48 1_555 1_555
H75 C48 1_555 1_555
O14 C38 1_555 1_555
C49 O14 1_555 1_555
H76 C49 1_555 1_555
H77 C49 1_555 1_555
C50 C49 1_555 1_555
C51 C50 1_555 1_555
H78 C51 1_555 1_555
C52 C51 1_555 1_555
H79 C52 1_555 1_555
C53 C52 1_555 1_555
H80 C53 1_555 1_555
C54 C53 1_555 1_555
H81 C54 1_555 1_555
C55 C50 1_555 1_555
H82 C55 1_555 1_555
C56 C40 1_555 1_555
H83 C56 1_555 1_555
H84 C56 1_555 1_555
C57 C56 1_555 1_555
H85 C57 1_555 1_555
H86 C57 1_555 1_555
C58 C57 1_555 1_555
H87 C58 1_555 1_555
H88 C58 1_555 1_555
O15 C58 1_555 1_555
H89 O15 1_555 1_555
O16 C41 1_555 1_555
C59 Si2 1_555 1_555
H90 C59 1_555 1_555
H91 C59 1_555 1_555
H92 C59 1_555 1_555
C60 Si2 1_555 1_555
H93 C60 1_555 1_555
H94 C60 1_555 1_555
H95 C60 1_555 1_555
C61 Si2 1_555 1_555
C62 C61 1_555 1_555
H96 C62 1_555 1_555
H97 C62 1_555 1_555
H98 C62 1_555 1_555
C63 C61 1_555 1_555
H99 C63 1_555 1_555
H100 C63 1_555 1_555
H101 C63 1_555 1_555
C64 C61 1_555 1_555
H102 C64 1_555 1_555
H103 C64 1_555 1_555
H104 C64 1_555 1_555
O17 C65 1_555 1_555
C65 H105 1_555 1_555
C66 C65 1_555 1_555
H106 C66 1_555 1_555
H107 C66 1_555 1_555
C67 H108 1_555 1_555
C68 C66 1_555 1_555
H109 C68 1_555 1_555
H110 C68 1_555 1_555
O18 C67 1_555 1_555
C69 O18 1_555 1_555
C70 H111 1_555 1_555
C71 C69 1_555 1_555
H112 C71 1_555 1_555
O19 C70 1_555 1_555
C72 O19 1_555 1_555
H113 C72 1_555 1_555
C73 C72 1_555 1_555
H114 C73 1_555 1_555
C74 C70 1_555 1_555
H115 C74 1_555 1_555
C75 C73 1_555 1_555
H116 C75 1_555 1_555
H117 C75 1_555 1_555
O20 C74 1_555 1_555
C76 C69 1_555 1_555
H118 C76 1_555 1_555
C77 C76 1_555 1_555
H119 C77 1_555 1_555
H120 C77 1_555 1_555
C78 O17 1_555 1_555
H121 C78 1_555 1_555
O21 C65 1_555 1_555
C79 O21 1_555 1_555
H122 C79 1_555 1_555
H123 C79 1_555 1_555
H124 C79 1_555 1_555
C80 C69 1_555 1_555
H125 C80 1_555 1_555
H126 C80 1_555 1_555
H127 C80 1_555 1_555
O22 C71 1_555 1_555
C81 O22 1_555 1_555
H128 C81 1_555 1_555
H129 C81 1_555 1_555
C82 C81 1_555 1_555
C83 C82 1_555 1_555
H130 C83 1_555 1_555
C84 C83 1_555 1_555
H131 C84 1_555 1_555
C85 C84 1_555 1_555
H132 C85 1_555 1_555
C86 C85 1_555 1_555
H133 C86 1_555 1_555
C87 C82 1_555 1_555
H134 C87 1_555 1_555
C88 C72 1_555 1_555
H135 C88 1_555 1_555
H136 C88 1_555 1_555
C89 C88 1_555 1_555
H137 C89 1_555 1_555
H138 C89 1_555 1_555
C90 C89 1_555 1_555
H139 C90 1_555 1_555
H140 C90 1_555 1_555
O23 C90 1_555 1_555
H141 O23 1_555 1_555
O24 C73 1_555 1_555
Si4 O24 1_555 1_555
C97 Si4 1_555 1_555
H157 C97 1_555 1_555
H158 C97 1_555 1_555
H159 C97 1_555 1_555
C98 Si4 1_555 1_555
H160 C98 1_555 1_555
H161 C98 1_555 1_555
H162 C98 1_555 1_555
C99 Si4 1_555 1_555
C100 C99 1_555 1_555
H163 C100 1_555 1_555
H164 C100 1_555 1_555
H165 C100 1_555 1_555
C101 C99 1_555 1_555
H166 C101 1_555 1_555
H167 C101 1_555 1_555
H168 C101 1_555 1_555
C102 C99 1_555 1_555
H169 C102 1_555 1_555
H170 C102 1_555 1_555
H171 C102 1_555 1_555
C3 C4 1_555 1_555
C3 C14 1_555 1_555
C10 C11 1_555 1_555
O4 C12 1_555 1_555
C13 C14 1_555 1_555
C22 C23 1_555 1_555
C36 C45 1_555 1_555
C42 C43 1_555 1_555
O12 C44 1_555 1_555
C45 C46 1_555 1_555
C54 C55 1_555 1_555
C67 C68 1_555 1_555
C67 C78 1_555 1_555
C70 C71 1_555 1_555
C74 C75 1_555 1_555
O20 C76 1_555 1_555
C77 C78 1_555 1_555
C86 C87 1_555 1_555

#END
