
#######################################################################
#
#                 Cambridge Crystallographic Data Centre
#                                CCDC 
#
#######################################################################
#
# If this CIF has been generated from an entry in the Cambridge 
# Structural Database, then it will include bibliographic, chemical, 
# crystal, experimental, refinement or atomic coordinate data resulting 
# from the CCDC's data processing and validation procedures.
#
#######################################################################

data_HAWFIX
_chemical_formula_moiety         
'C31 H26 N8 O4 S4,0.05(C1 H2 Cl2),0.45(C5 H12),0.19(H2 O1)'
_chemical_name_systematic        
'diethyl 22,22-dimethyl-2,7,12,17-tetrathia-4,5,14,15,30,31,34,35-octaazahexacyclo[21.2.2.2^3,6^.2^8,11^.2^13,16^.2^18,21^]pentatriaconta-1(25),3,5,8,10,13,15,18,20,23,26,28,30,32,34-pentadecaene-9,32-dicarboxylate dichloromethane pentane solvate hydrate'
_symmetry_cell_setting           monoclinic
_symmetry_space_group_name_H-M   'P 21/c'
_symmetry_Int_Tables_number      14
_space_group_name_Hall           '-P 2ybc'
loop_
_symmetry_equiv_pos_site_id
_symmetry_equiv_pos_as_xyz
1 x,y,z
2 -x,1/2+y,1/2-z
3 -x,-y,-z
4 x,1/2-y,1/2+z
_cell_length_a                   18.784(3)
_cell_length_b                   14.332(2)
_cell_length_c                   27.273(5)
_cell_angle_alpha                90
_cell_angle_beta                 103.147(3)
_cell_angle_gamma                90
_cell_volume                     7149.78
_exptl_crystal_colour            red
_exptl_crystal_description       needle
_cell_formula_units_Z            8
loop_
_atom_site_label
_atom_site_type_symbol
_atom_site_fract_x
_atom_site_fract_y
_atom_site_fract_z
S5 S 0.69915(7) 0.66423(9) 0.85910(5)
S6 S 0.39710(7) 0.88085(9) 0.82546(5)
S7 S 0.26081(7) 0.90256(10) 0.60306(5)
S8 S 0.76241(8) 0.62996(15) 0.65288(6)
O5 O 0.5415(3) 1.0008(3) 0.89752(16)
O6 O 0.5673(3) 1.0147(3) 0.82264(19)
O7 O 0.5866(2) 0.5301(2) 0.80017(15)
O8 O 0.4844(2) 0.5332(3) 0.8293(2)
N9 N 0.3900(2) 0.8236(3) 0.73013(15)
N10 N 0.3598(2) 0.8286(3) 0.68091(15)
N11 N 0.2638(2) 0.9218(3) 0.69827(16)
N12 N 0.2934(2) 0.9175(3) 0.74687(16)
N13 N 0.7944(2) 0.6209(3) 0.75040(18)
N14 N 0.7813(2) 0.6291(3) 0.79581(17)
N15 N 0.6660(3) 0.6977(4) 0.76022(18)
N16 N 0.6800(3) 0.6897(4) 0.71443(18)
C32 C 0.6123(3) 0.7212(3) 0.84597(17)
C33 C 0.6123(3) 0.8163(3) 0.85533(19)
H27 H 0.6564 0.8476 0.8667
C34 C 0.5467(3) 0.8652(3) 0.84780(18)
C35 C 0.4806(3) 0.8181(3) 0.83188(17)
C36 C 0.4807(3) 0.7229(3) 0.82348(17)
H28 H 0.4364 0.6915 0.8135
C37 C 0.5461(3) 0.6734(3) 0.82975(18)
C38 C 0.5508(3) 0.9684(4) 0.8596(2)
C39 C 0.5756(4) 1.1161(4) 0.8278(3)
H29 H 0.6039 1.1306 0.8613
H30 H 0.6025 1.1387 0.8038
C40 C 0.5056(4) 1.1647(4) 0.8195(3)
H31 H 0.4783 1.1533 0.7858
H32 H 0.5140 1.2304 0.8243
H33 H 0.4785 1.1422 0.8430
C41 C 0.5432(3) 0.5712(4) 0.8180(2)
C42 C 0.4724(4) 0.4345(4) 0.8146(4)
H34 H 0.4815 0.4249 0.7814
H35 H 0.5058 0.3952 0.8383
C43 C 0.3980(4) 0.4104(6) 0.8146(5)
H36 H 0.3654 0.4464 0.7894
H37 H 0.3886 0.4235 0.8470
H38 H 0.3903 0.3452 0.8072
C44 C 0.3584(3) 0.8732(3) 0.76087(18)
C45 C 0.3008(3) 0.8827(3) 0.66673(18)
C46 C 0.3294(3) 0.8598(4) 0.57348(18)
C47 C 0.3353(4) 0.7689(5) 0.5631(3)
H39 H 0.3028 0.7264 0.5717
C48 C 0.3888(4) 0.7377(5) 0.5397(3)
H40 H 0.3932 0.6738 0.5352
C49 C 0.4356(3) 0.7961(4) 0.52296(18)
C50 C 0.4264(5) 0.8867(5) 0.5324(4)
H41 H 0.4566 0.9301 0.5219
C51 C 0.3746(4) 0.9189(5) 0.5569(4)
H42 H 0.3708 0.9827 0.5621
C52 C 0.4933(3) 0.7599(5) 0.4962(2)
C53 C 0.5170(4) 0.8347(7) 0.4631(2)
H43 H 0.4756 0.8541 0.4376
H44 H 0.5538 0.8095 0.4475
H45 H 0.5366 0.8873 0.4835
C54 C 0.4618(4) 0.6792(6) 0.4614(2)
H46 H 0.4467 0.6302 0.4809
H47 H 0.4983 0.6559 0.4451
H48 H 0.4203 0.7008 0.4365
C55 C 0.5590(3) 0.7267(6) 0.5367(2)
C56 C 0.6032(8) 0.7820(9) 0.5651(5)
H49 H 0.5934 0.8456 0.5616
C57 C 0.6652(7) 0.7547(10) 0.6010(5)
H50 H 0.6952 0.8005 0.6190
C58 C 0.6822(3) 0.6698(6) 0.6100(2)
C59 C 0.6329(5) 0.5974(10) 0.5823(5)
H51 H 0.6426 0.5345 0.5891
C60 C 0.5732(6) 0.6238(11) 0.5466(5)
H52 H 0.5417 0.5794 0.5287
C61 C 0.7414(3) 0.6482(4) 0.7112(2)
C62 C 0.7154(3) 0.6627(3) 0.7981(2)
C68 C 0.8210(8) -0.1648(8) 0.5105(5)
H59 H 0.8234 -0.1568 0.4759
H60 H 0.8593 -0.1295 0.5317
H61 H 0.7744 -0.1433 0.5149
C69 C 0.8309(7) -0.2761(9) 0.5255(5)
H62 H 0.8774 -0.2980 0.5201
H63 H 0.8316 -0.2835 0.5610
C70 C 0.7690(5) -0.3357(7) 0.4943(3)
H64 H 0.7666 -0.3263 0.4588
H65 H 0.7227 -0.3164 0.5011
C71 C 0.7820(6) -0.4413(7) 0.5075(4)
H66 H 0.7736 -0.4545 0.5406
H67 H 0.8317 -0.4591 0.5070
C72 C 0.7243(4) -0.4962(5) 0.4647(4)
H68 H 0.7340 -0.4831 0.4323
H69 H 0.6756 -0.4764 0.4651
H70 H 0.7288 -0.5621 0.4711
O9 O 0.7042(7) 0.4667(8) 0.5496(4)
S1 S 0.82365(7) 0.17558(9) 0.82811(5)
S2 S 1.12433(8) 0.39133(10) 0.84984(5)
S3 S 1.19244(8) 0.41068(10) 0.64495(6)
S4 S 0.69047(8) 0.12239(13) 0.60719(6)
O1 O 0.9698(3) 0.5140(3) 0.88771(17)
O2 O 0.9713(2) 0.5242(2) 0.80578(14)
O3 O 0.92060(19) 0.0387(2) 0.79045(15)
O4 O 1.0389(2) 0.0428(3) 0.82933(17)
N1 N 1.1072(2) 0.3273(3) 0.75511(17)
N2 N 1.1226(2) 0.3305(3) 0.71004(17)
N3 N 1.2216(2) 0.4337(3) 0.74201(19)
N4 N 1.2063(2) 0.4302(3) 0.78729(19)
N5 N 0.6874(2) 0.1296(3) 0.70232(17)
N6 N 0.7164(2) 0.1416(3) 0.75100(16)
N7 N 0.8246(2) 0.2001(4) 0.73157(17)
N8 N 0.7951(3) 0.1875(4) 0.68245(17)
C1 C 0.9093(3) 0.2309(3) 0.82835(18)
C2 C 0.9119(3) 0.3258(3) 0.83627(18)
H1 H 0.8694 0.3572 0.8383
C3 C 0.9761(3) 0.3758(3) 0.84123(18)
C4 C 1.0404(3) 0.3286(3) 0.83982(18)
C5 C 1.0382(3) 0.2312(4) 0.83303(19)
H2 H 1.0813 0.1992 0.8332
C6 C 0.9737(3) 0.1824(3) 0.82613(18)
C7 C 0.9737(3) 0.4793(4) 0.8485(2)
C8 C 0.9638(3) 0.6268(4) 0.8069(2)
H3 H 0.9433 0.6497 0.7732
H4 H 0.9308 0.6436 0.8281
C9 C 1.0359(3) 0.6702(4) 0.8267(3)
H5 H 1.0686 0.6531 0.8058
H6 H 1.0553 0.6490 0.8604
H7 H 1.0306 0.7369 0.8266
C10 C 0.9731(3) 0.0807(4) 0.8134(2)
C11 C 1.0458(3) -0.0566(4) 0.8165(3)
H8 H 1.0267 -0.0960 0.8394
H9 H 1.0181 -0.0687 0.7825
C12 C 1.1226(4) -0.0768(5) 0.8204(4)
H10 H 1.1411 -0.0374 0.7977
H11 H 1.1281 -0.1410 0.8118
H12 H 1.1495 -0.0655 0.8542
C13 C 1.1458(3) 0.3823(3) 0.7907(2)
C14 C 1.1753(3) 0.3895(3) 0.7042(2)
C15 C 1.1136(3) 0.3611(4) 0.60438(19)
C16 C 1.0636(3) 0.4196(4) 0.5746(2)
H13 H 1.0698 0.4840 0.5773
C17 C 1.0038(3) 0.3823(4) 0.5405(2)
H14 H 0.9709 0.4223 0.5201
C18 C 0.9923(3) 0.2862(4) 0.53617(19)
C19 C 1.0428(3) 0.2293(4) 0.5678(2)
H15 H 1.0355 0.1651 0.5667
C20 C 1.1035(3) 0.2654(4) 0.6006(2)
H16 H 1.1375 0.2256 0.6202
C21 C 0.9277(3) 0.2419(4) 0.4990(2)
C22 C 0.9559(3) 0.1607(5) 0.4717(2)
H17 H 0.9920 0.1834 0.4548
H18 H 0.9159 0.1340 0.4475
H19 H 0.9773 0.1139 0.4958
C23 C 0.8901(3) 0.3119(5) 0.4582(2)
H20 H 0.8704 0.3628 0.4738
H21 H 0.8514 0.2811 0.4348
H22 H 0.9253 0.3354 0.4407
C24 C 0.8697(3) 0.2090(4) 0.52707(18)
C25 C 0.8498(3) 0.1169(4) 0.5296(2)
H23 H 0.8724 0.0712 0.5142
C26 C 0.7963(3) 0.0914(4) 0.5550(2)
H24 H 0.7842 0.0288 0.5570
C27 C 0.7611(3) 0.1578(4) 0.57704(19)
C28 C 0.7801(3) 0.2503(4) 0.5746(2)
H25 H 0.7564 0.2960 0.5892
C29 C 0.8347(3) 0.2753(4) 0.5503(2)
H26 H 0.8482 0.3376 0.5496
C30 C 0.7299(3) 0.1476(4) 0.6705(2)
C31 C 0.7860(2) 0.1706(3) 0.76358(18)
C63? C 0.6229(14) 0.6384(19) 0.6028(8)
H53? H 0.6149 0.5891 0.6230
C64? C 0.5616(11) 0.671(2) 0.5647(9)
H54? H 0.5177 0.6408 0.5637
C65? C 0.6912(18) 0.7715(17) 0.5866(9)
H55? H 0.7330 0.8078 0.5970
C66? C 0.6307(15) 0.8004(17) 0.5494(10)
H56? H 0.6303 0.8570 0.5326
Cl1? Cl 0.8609(9) -0.3304(15) 0.5521(6)
Cl2? Cl 0.8025(19) -0.1343(18) 0.4967(12)
C67? C 0.821(5) -0.255(2) 0.5027(15)
H57? H 0.7731 -0.2828 0.4895
H58? H 0.8484 -0.2667 0.4775
loop_
_geom_bond_atom_site_label_1
_geom_bond_atom_site_label_2
_geom_bond_site_symmetry_1
_geom_bond_site_symmetry_2
S1 C1 1_555 1_555
S2 C4 1_555 1_555
S3 C14 1_555 1_555
S4 C27 1_555 1_555
O1 C7 1_555 1_555
O2 C7 1_555 1_555
O3 C10 1_555 1_555
O4 C10 1_555 1_555
N1 N2 1_555 1_555
N2 C14 1_555 1_555
N3 N4 1_555 1_555
N4 C13 1_555 1_555
N5 N6 1_555 1_555
N6 C31 1_555 1_555
N7 N8 1_555 1_555
N8 C30 1_555 1_555
C1 C2 1_555 1_555
C2 H1 1_555 1_555
C3 C2 1_555 1_555
C4 C3 1_555 1_555
C5 C4 1_555 1_555
H2 C5 1_555 1_555
C6 C1 1_555 1_555
C7 C3 1_555 1_555
C8 O2 1_555 1_555
H3 C8 1_555 1_555
H4 C8 1_555 1_555
C9 C8 1_555 1_555
H5 C9 1_555 1_555
H6 C9 1_555 1_555
H7 C9 1_555 1_555
C10 C6 1_555 1_555
C11 O4 1_555 1_555
H8 C11 1_555 1_555
H9 C11 1_555 1_555
C12 C11 1_555 1_555
H10 C12 1_555 1_555
H11 C12 1_555 1_555
H12 C12 1_555 1_555
C13 S2 1_555 1_555
C14 N3 1_555 1_555
C15 S3 1_555 1_555
C16 C15 1_555 1_555
H13 C16 1_555 1_555
C17 C16 1_555 1_555
H14 C17 1_555 1_555
C18 C17 1_555 1_555
C19 C18 1_555 1_555
H15 C19 1_555 1_555
C20 C15 1_555 1_555
H16 C20 1_555 1_555
C21 C18 1_555 1_555
C22 C21 1_555 1_555
H17 C22 1_555 1_555
H18 C22 1_555 1_555
H19 C22 1_555 1_555
C23 C21 1_555 1_555
H20 C23 1_555 1_555
H21 C23 1_555 1_555
H22 C23 1_555 1_555
C24 C21 1_555 1_555
C25 C24 1_555 1_555
H23 C25 1_555 1_555
C26 C25 1_555 1_555
H24 C26 1_555 1_555
C27 C26 1_555 1_555
C28 C27 1_555 1_555
H25 C28 1_555 1_555
C29 C24 1_555 1_555
H26 C29 1_555 1_555
C30 S4 1_555 1_555
C31 S1 1_555 1_555
S5 C32 1_555 1_555
S6 C35 1_555 1_555
S7 C45 1_555 1_555
S8 C58 1_555 1_555
O5 C38 1_555 1_555
O6 C38 1_555 1_555
O7 C41 1_555 1_555
O8 C41 1_555 1_555
N9 N10 1_555 1_555
N10 C45 1_555 1_555
N11 N12 1_555 1_555
N12 C44 1_555 1_555
N13 N14 1_555 1_555
N14 C62 1_555 1_555
N15 N16 1_555 1_555
N16 C61 1_555 1_555
C32 C33 1_555 1_555
C33 H27 1_555 1_555
C34 C33 1_555 1_555
C35 C34 1_555 1_555
C36 C35 1_555 1_555
H28 C36 1_555 1_555
C37 C32 1_555 1_555
C38 C34 1_555 1_555
C39 O6 1_555 1_555
H29 C39 1_555 1_555
H30 C39 1_555 1_555
C40 C39 1_555 1_555
H31 C40 1_555 1_555
H32 C40 1_555 1_555
H33 C40 1_555 1_555
C41 C37 1_555 1_555
C42 O8 1_555 1_555
H34 C42 1_555 1_555
H35 C42 1_555 1_555
C43 C42 1_555 1_555
H36 C43 1_555 1_555
H37 C43 1_555 1_555
H38 C43 1_555 1_555
C44 S6 1_555 1_555
C45 N11 1_555 1_555
C46 S7 1_555 1_555
C47 C46 1_555 1_555
H39 C47 1_555 1_555
C48 C47 1_555 1_555
H40 C48 1_555 1_555
C49 C48 1_555 1_555
C50 C49 1_555 1_555
H41 C50 1_555 1_555
C51 C46 1_555 1_555
H42 C51 1_555 1_555
C52 C49 1_555 1_555
C53 C52 1_555 1_555
H43 C53 1_555 1_555
H44 C53 1_555 1_555
H45 C53 1_555 1_555
C54 C52 1_555 1_555
H46 C54 1_555 1_555
H47 C54 1_555 1_555
H48 C54 1_555 1_555
C55 C52 1_555 1_555
C56 C55 1_555 1_555
H49 C56 1_555 1_555
C57 C56 1_555 1_555
H50 C57 1_555 1_555
C58 C57 1_555 1_555
C59 C58 1_555 1_555
H51 C59 1_555 1_555
C60 C55 1_555 1_555
H52 C60 1_555 1_555
C61 S8 1_555 1_555
C62 S5 1_555 1_555
C68 H59 1_555 1_555
H60 C68 1_555 1_555
H61 C68 1_555 1_555
C69 C68 1_555 1_555
H62 C69 1_555 1_555
H63 C69 1_555 1_555
C70 C69 1_555 1_555
H64 C70 1_555 1_555
H65 C70 1_555 1_555
C71 C70 1_555 1_555
H66 C71 1_555 1_555
H67 C71 1_555 1_555
C72 C71 1_555 1_555
H68 C72 1_555 1_555
H69 C72 1_555 1_555
H70 C72 1_555 1_555
N1 C13 1_555 1_555
N5 C30 1_555 1_555
N7 C31 1_555 1_555
C5 C6 1_555 1_555
C19 C20 1_555 1_555
C28 C29 1_555 1_555
N9 C44 1_555 1_555
N13 C61 1_555 1_555
N15 C62 1_555 1_555
C36 C37 1_555 1_555
C50 C51 1_555 1_555
C59 C60 1_555 1_555

#END
