
#######################################################################
#
#                 Cambridge Crystallographic Data Centre
#                                CCDC 
#
#######################################################################
#
# If this CIF has been generated from an entry in the Cambridge 
# Structural Database, then it will include bibliographic, chemical, 
# crystal, experimental, refinement or atomic coordinate data resulting 
# from the CCDC's data processing and validation procedures.
#
#######################################################################

data_HAWTUV
_chemical_formula_moiety         'C23 H18 F1 N3 O1'
_chemical_name_systematic        
5-Methyl-2-phenyl-4-(\a-(p-fluorophenylamino)benzylidenene)pyrazol-3(2H)-one
_symmetry_cell_setting           monoclinic
_symmetry_space_group_name_H-M   'P 21/c'
_symmetry_Int_Tables_number      14
_space_group_name_Hall           '-P 2ybc'
loop_
_symmetry_equiv_pos_site_id
_symmetry_equiv_pos_as_xyz
1 x,y,z
2 -x,1/2+y,1/2-z
3 -x,-y,-z
4 x,1/2-y,1/2+z
_cell_length_a                   9.879(16)
_cell_length_b                   9.193(16)
_cell_length_c                   20.77(3)
_cell_angle_alpha                90
_cell_angle_beta                 98.18(4)
_cell_angle_gamma                90
_cell_volume                     1867.09
_exptl_crystal_colour            yellow
_exptl_crystal_description       block
_cell_formula_units_Z            4
_exptl_crystal_recrystallization_method ethanol/heptane
loop_
_atom_site_label
_atom_site_type_symbol
_atom_site_fract_x
_atom_site_fract_y
_atom_site_fract_z
O1 O -0.00362(13) 0.76366(16) 0.08574(6)
N1 N 0.19490(14) 0.65152(15) 0.06281(7)
N2 N 0.24336(15) 0.59651(16) 0.00875(7)
C1 C 0.03874(17) 0.70328(19) -0.02135(8)
C2 C -0.30922(17) 0.85842(19) -0.05001(8)
C3 C -0.09667(16) 0.77194(17) -0.12716(8)
N3 N -0.17893(15) 0.80259(18) -0.02478(7)
H1 H -0.1623 0.7964 0.0169
C4 C 0.06745(18) 0.71213(19) 0.04727(8)
C5 C -0.32437(18) 0.97490(19) -0.09093(8)
H2 H -0.2477 1.0190 -0.1037
C6 C 0.15149(18) 0.62782(19) -0.04032(9)
C7 C -0.45194(18) 1.0271(2) -0.11327(9)
H3 H -0.4629 1.1055 -0.1418
F1 F -0.68769(11) 1.01762(17) -0.11457(6)
C8 C -0.56140(18) 0.9635(2) -0.09336(9)
C9 C -0.07943(17) 0.75867(19) -0.05625(8)
C10 C -0.4225(2) 0.7963(2) -0.03081(9)
H4 H -0.4129 0.7170 -0.0028
C11 C 0.28298(18) 0.65022(19) 0.12201(9)
C12 C -0.18964(19) 0.6891(2) -0.16615(9)
H5 H -0.2473 0.6269 -0.1475
C13 C 0.3318(2) 0.7070(3) 0.23326(10)
H6 H 0.3043 0.7459 0.2706
C14 C 0.2420(2) 0.7075(2) 0.17629(9)
H7 H 0.1548 0.7464 0.1750
C15 C -0.01659(19) 0.8668(2) -0.15500(9)
H8 H 0.0458 0.9255 -0.1292
C16 C 0.4124(2) 0.5915(2) 0.12519(11)
H9 H 0.4403 0.5508 0.0882
C17 C -0.5503(2) 0.8501(2) -0.05258(10)
H10 H -0.6276 0.8087 -0.0393
C18 C -0.1985(2) 0.6970(3) -0.23187(10)
H11 H -0.2603 0.6384 -0.2580
C19 C -0.1180(2) 0.7894(3) -0.25906(10)
H12 H -0.1237 0.7946 -0.3041
C20 C 0.1734(2) 0.5759(3) -0.10513(10)
H13 H 0.2610 0.5292 -0.1021
H14 H 0.1705 0.6569 -0.1345
H15 H 0.1030 0.5076 -0.1210
C21 C -0.0285(2) 0.8750(3) -0.22098(10)
H16 H 0.0256 0.9403 -0.2401
C22 C 0.4607(3) 0.6505(3) 0.23626(13)
H17 H 0.5204 0.6521 0.2751
C23 C 0.4999(2) 0.5929(3) 0.18251(13)
H18 H 0.5871 0.5537 0.1842
loop_
_geom_bond_atom_site_label_1
_geom_bond_atom_site_label_2
_geom_bond_site_symmetry_1
_geom_bond_site_symmetry_2
O1 C4 1_555 1_555
N1 N2 1_555 1_555
N2 C6 1_555 1_555
C1 C4 1_555 1_555
C2 N3 1_555 1_555
C3 C9 1_555 1_555
N3 H1 1_555 1_555
C4 N1 1_555 1_555
C5 C2 1_555 1_555
H2 C5 1_555 1_555
C6 C1 1_555 1_555
C7 C5 1_555 1_555
H3 C7 1_555 1_555
F1 C8 1_555 1_555
C8 C7 1_555 1_555
C9 C1 1_555 1_555
C10 C2 1_555 1_555
H4 C10 1_555 1_555
C11 N1 1_555 1_555
C12 C3 1_555 1_555
H5 C12 1_555 1_555
C13 H6 1_555 1_555
C14 C11 1_555 1_555
H7 C14 1_555 1_555
C15 C3 1_555 1_555
H8 C15 1_555 1_555
C16 C11 1_555 1_555
H9 C16 1_555 1_555
C17 C8 1_555 1_555
H10 C17 1_555 1_555
C18 C12 1_555 1_555
H11 C18 1_555 1_555
C19 C18 1_555 1_555
H12 C19 1_555 1_555
C20 C6 1_555 1_555
H13 C20 1_555 1_555
H14 C20 1_555 1_555
H15 C20 1_555 1_555
C21 C15 1_555 1_555
H16 C21 1_555 1_555
C22 C13 1_555 1_555
H17 C22 1_555 1_555
C23 C16 1_555 1_555
H18 C23 1_555 1_555
N3 C9 1_555 1_555
C10 C17 1_555 1_555
C13 C14 1_555 1_555
C19 C21 1_555 1_555
C22 C23 1_555 1_555

#END
