
#######################################################################
#
#                 Cambridge Crystallographic Data Centre
#                                CCDC 
#
#######################################################################
#
# If this CIF has been generated from an entry in the Cambridge 
# Structural Database, then it will include bibliographic, chemical, 
# crystal, experimental, refinement or atomic coordinate data resulting 
# from the CCDC's data processing and validation procedures.
#
#######################################################################

data_HAWWOS
_chemical_formula_moiety         'C20 H25 N1 O3'
_chemical_name_systematic        
'Ethyl 1-benzyl-5-cyclohexyl-3-hydroxypyrrole-2-carboxylate'
_symmetry_cell_setting           monoclinic
_symmetry_space_group_name_H-M   'P 21/n'
_symmetry_Int_Tables_number      14
_space_group_name_Hall           '-P 2yn'
loop_
_symmetry_equiv_pos_site_id
_symmetry_equiv_pos_as_xyz
1 x,y,z
2 1/2-x,1/2+y,1/2-z
3 -x,-y,-z
4 1/2+x,1/2-y,1/2+z
_cell_length_a                   8.7829(18)
_cell_length_b                   6.1391(12)
_cell_length_c                   32.373(7)
_cell_angle_alpha                90
_cell_angle_beta                 93.08(3)
_cell_angle_gamma                90
_cell_volume                     1743
_exptl_crystal_colour            colorless
_exptl_crystal_description       needle
_chemical_melting_point          119-120deg.C
_cell_formula_units_Z            4
_exptl_crystal_recrystallization_method dichloromethane/hexane
loop_
_atom_site_label
_atom_site_type_symbol
_atom_site_fract_x
_atom_site_fract_y
_atom_site_fract_z
C1 C 0.45555(14) -0.2288(2) 0.15359(4)
C2 C 0.52682(14) -0.4136(2) 0.13925(4)
H1 H 0.5821(17) -0.524(2) 0.1569(5)
C3 C 0.50514(14) -0.4145(2) 0.09612(4)
C4 C 0.42172(14) -0.2310(2) 0.08405(4)
N1 N 0.39292(11) -0.11611(17) 0.12028(3)
O1 O 0.55737(11) -0.57409(17) 0.07160(3)
H2 H 0.528(2) -0.540(4) 0.0448(7)
C5 C 0.30674(14) 0.0872(2) 0.12217(4)
H3 H 0.3328(15) 0.155(2) 0.1483(4)
H4 H 0.3368(15) 0.185(2) 0.1002(4)
C6 C 0.13519(14) 0.0582(2) 0.11885(4)
C7 C 0.06442(15) -0.1325(2) 0.13060(4)
H5 H 0.1245(18) -0.247(3) 0.1397(5)
C8 C -0.09463(17) -0.1463(3) 0.12890(5)
H6 H -0.142(2) -0.284(3) 0.1365(6)
C9 C -0.18252(17) 0.0288(3) 0.11522(4)
H7 H -0.292(2) 0.018(3) 0.1139(5)
C10 C -0.11231(17) 0.2177(3) 0.10317(5)
H8 H -0.167(2) 0.338(3) 0.0930(5)
C11 C 0.04542(16) 0.2330(2) 0.10493(4)
H9 H 0.0954(19) 0.363(3) 0.0960(5)
C12 C 0.44254(15) -0.1559(2) 0.19758(4)
H10 H 0.3412(18) -0.091(3) 0.2002(5)
C13 C 0.45605(19) -0.3509(2) 0.22731(4)
H11 H 0.557(2) -0.419(3) 0.2242(5)
H12 H 0.379(2) -0.456(3) 0.2188(5)
C14 C 0.4394(2) -0.2819(3) 0.27217(5)
H13 H 0.334(2) -0.226(3) 0.2758(5)
H14 H 0.451(2) -0.411(3) 0.2905(6)
C15 C 0.55407(19) -0.1066(3) 0.28531(4)
H15 H 0.660(2) -0.165(3) 0.2855(6)
H16 H 0.5340(18) -0.061(3) 0.3138(5)
C16 C 0.54277(18) 0.0877(2) 0.25597(4)
H17 H 0.4343(19) 0.158(3) 0.2582(5)
H18 H 0.620(2) 0.202(3) 0.2640(5)
C17 C 0.56118(16) 0.0175(2) 0.21110(4)
H19 H 0.5519(19) 0.147(3) 0.1924(6)
H20 H 0.6639(18) -0.051(2) 0.2082(5)
C18 C 0.37508(15) -0.1829(2) 0.04165(4)
O2 O 0.29210(10) -0.00237(17) 0.03521(3)
C19 C 0.24036(18) 0.0406(3) -0.00767(4)
H21 H 0.171(2) -0.082(3) -0.0170(5)
H22 H 0.330(2) 0.045(3) -0.0238(6)
C20 C 0.1560(2) 0.2520(3) -0.00829(6)
H23 H 0.071(3) 0.250(4) 0.0096(8)
H24 H 0.115(2) 0.282(3) -0.0367(6)
H25 H 0.223(3) 0.364(4) -0.0003(8)
O3 O 0.41072(12) -0.30309(19) 0.01350(3)
loop_
_geom_bond_atom_site_label_1
_geom_bond_atom_site_label_2
_geom_bond_site_symmetry_1
_geom_bond_site_symmetry_2
C1 C2 1_555 1_555
C2 H1 1_555 1_555
C3 C2 1_555 1_555
C4 C3 1_555 1_555
N1 C1 1_555 1_555
O1 C3 1_555 1_555
H2 O1 1_555 1_555
C5 N1 1_555 1_555
H3 C5 1_555 1_555
H4 C5 1_555 1_555
C6 C5 1_555 1_555
C7 C6 1_555 1_555
H5 C7 1_555 1_555
C8 C7 1_555 1_555
H6 C8 1_555 1_555
C9 C8 1_555 1_555
H7 C9 1_555 1_555
C10 C9 1_555 1_555
H8 C10 1_555 1_555
C11 C6 1_555 1_555
H9 C11 1_555 1_555
C12 C1 1_555 1_555
H10 C12 1_555 1_555
C13 C12 1_555 1_555
H11 C13 1_555 1_555
H12 C13 1_555 1_555
C14 C13 1_555 1_555
H13 C14 1_555 1_555
H14 C14 1_555 1_555
C15 C14 1_555 1_555
H15 C15 1_555 1_555
H16 C15 1_555 1_555
C16 C15 1_555 1_555
H17 C16 1_555 1_555
H18 C16 1_555 1_555
C17 C12 1_555 1_555
H19 C17 1_555 1_555
H20 C17 1_555 1_555
C18 C4 1_555 1_555
O2 C18 1_555 1_555
C19 O2 1_555 1_555
H21 C19 1_555 1_555
H22 C19 1_555 1_555
C20 C19 1_555 1_555
H23 C20 1_555 1_555
H24 C20 1_555 1_555
H25 C20 1_555 1_555
O3 C18 1_555 1_555
C4 N1 1_555 1_555
C10 C11 1_555 1_555
C16 C17 1_555 1_555

#END
