
#######################################################################
#
#                 Cambridge Crystallographic Data Centre
#                                CCDC 
#
#######################################################################
#
# If this CIF has been generated from an entry in the Cambridge 
# Structural Database, then it will include bibliographic, chemical, 
# crystal, experimental, refinement or atomic coordinate data resulting 
# from the CCDC's data processing and validation procedures.
#
#######################################################################

data_HAWWUY
_chemical_formula_moiety         'C25 H25 N1 O2'
_chemical_name_systematic        
'Ethyl 1-benzhydryl-2-methyl-3-phenylaziridine-2-carboxylate'
_symmetry_cell_setting           monoclinic
_symmetry_space_group_name_H-M   'P 21/c'
_symmetry_Int_Tables_number      14
_space_group_name_Hall           '-P 2ybc'
loop_
_symmetry_equiv_pos_site_id
_symmetry_equiv_pos_as_xyz
1 x,y,z
2 -x,1/2+y,1/2-z
3 -x,-y,-z
4 x,1/2-y,1/2+z
_cell_length_a                   10.419(2)
_cell_length_b                   22.506(5)
_cell_length_c                   8.7510(18)
_cell_angle_alpha                90
_cell_angle_beta                 98.27(3)
_cell_angle_gamma                90
_cell_volume                     2030.68
_chemical_melting_point          112deg.C
_cell_formula_units_Z            4
loop_
_atom_site_label
_atom_site_type_symbol
_atom_site_fract_x
_atom_site_fract_y
_atom_site_fract_z
C1 C 0.40141(13) 0.34255(6) 0.04577(16)
C2 C 0.51907(14) 0.31769(7) 0.02087(18)
H1 H 0.5339 0.3101 -0.0796
C3 C 0.61425(15) 0.30410(7) 0.1428(2)
H2 H 0.6927 0.2879 0.1241
C4 C 0.59257(16) 0.31461(8) 0.2921(2)
H3 H 0.6559 0.3051 0.3745
C5 C 0.47678(16) 0.33932(8) 0.31891(19)
H4 H 0.4625 0.3465 0.4197
C6 C 0.38111(15) 0.35361(7) 0.19642(17)
H5 H 0.3036 0.3706 0.2156
C7 C 0.29979(13) 0.35525(6) -0.09298(16)
H6 H 0.2968(14) 0.3204(6) -0.1664(17)
C8 C 0.32729(12) 0.41027(6) -0.18340(16)
C9 C 0.35356(15) 0.46449(6) -0.11034(18)
H7 H 0.3596 0.4670 -0.0035
C10 C 0.37095(15) 0.51532(6) -0.19590(19)
H8 H 0.3871 0.5516 -0.1462
C11 C 0.36428(15) 0.51186(7) -0.3542(2)
H9 H 0.3762 0.5458 -0.4111
C12 C 0.33997(17) 0.45806(8) -0.42781(19)
H10 H 0.3358 0.4556 -0.5345
C13 C 0.32162(15) 0.40751(7) -0.34235(17)
H11 H 0.3053 0.3713 -0.3926
N1 N 0.17094(10) 0.36309(5) -0.04463(13)
C14 C 0.06090(13) 0.34298(6) -0.15489(16)
H12 H 0.0835(16) 0.3223(7) -0.2504(19)
C15 C 0.10219(13) 0.30900(6) -0.00733(16)
C16 C 0.16005(15) 0.24746(6) -0.01435(19)
H13 H 0.2147 0.2464 -0.0937
H14 H 0.0916 0.2189 -0.0371
H15 H 0.2104 0.2381 0.0834
C17 C -0.05992(13) 0.37986(6) -0.18079(16)
C18 C -0.17552(14) 0.35290(7) -0.24422(18)
H16 H -0.1765 0.3128 -0.2703
C19 C -0.28927(15) 0.38575(8) -0.26859(19)
H17 H -0.3666 0.3676 -0.3102
C20 C -0.28798(15) 0.44531(8) -0.23122(18)
H18 H -0.3645 0.4671 -0.2468
C21 C -0.17323(17) 0.47250(7) -0.1708(2)
H19 H -0.1722 0.5128 -0.1475
C22 C -0.05881(15) 0.43971(7) -0.14459(18)
H20 H 0.0183 0.4580 -0.1028
C23 C 0.01454(13) 0.31531(7) 0.11414(17)
O1 O 0.02463(10) 0.36699(5) 0.18810(12)
C24 C -0.07176(16) 0.37741(8) 0.2920(2)
H21 H -0.0844 0.3414 0.3490
H22 H -0.1542 0.3885 0.2327
C25 C -0.02486(19) 0.42545(10) 0.3997(2)
H23 H -0.0870 0.4326 0.4687
H24 H -0.0135 0.4610 0.3426
H25 H 0.0566 0.4141 0.4582
O2 O -0.05954(11) 0.27624(5) 0.13720(15)
loop_
_geom_bond_atom_site_label_1
_geom_bond_atom_site_label_2
_geom_bond_site_symmetry_1
_geom_bond_site_symmetry_2
C1 C2 1_555 1_555
C2 H1 1_555 1_555
C3 C2 1_555 1_555
H2 C3 1_555 1_555
C4 C3 1_555 1_555
H3 C4 1_555 1_555
C5 C4 1_555 1_555
H4 C5 1_555 1_555
C6 C1 1_555 1_555
H5 C6 1_555 1_555
C7 C1 1_555 1_555
H6 C7 1_555 1_555
C8 C7 1_555 1_555
C9 C8 1_555 1_555
H7 C9 1_555 1_555
C10 C9 1_555 1_555
H8 C10 1_555 1_555
C11 C10 1_555 1_555
H9 C11 1_555 1_555
C12 C11 1_555 1_555
H10 C12 1_555 1_555
C13 C8 1_555 1_555
H11 C13 1_555 1_555
N1 C7 1_555 1_555
C14 N1 1_555 1_555
H12 C14 1_555 1_555
C15 N1 1_555 1_555
C16 C15 1_555 1_555
H13 C16 1_555 1_555
H14 C16 1_555 1_555
H15 C16 1_555 1_555
C17 C14 1_555 1_555
C18 C17 1_555 1_555
H16 C18 1_555 1_555
C19 C18 1_555 1_555
H17 C19 1_555 1_555
C20 C19 1_555 1_555
H18 C20 1_555 1_555
C21 C20 1_555 1_555
H19 C21 1_555 1_555
C22 C17 1_555 1_555
H20 C22 1_555 1_555
C23 C15 1_555 1_555
O1 C23 1_555 1_555
C24 O1 1_555 1_555
H21 C24 1_555 1_555
H22 C24 1_555 1_555
C25 C24 1_555 1_555
H23 C25 1_555 1_555
H24 C25 1_555 1_555
H25 C25 1_555 1_555
O2 C23 1_555 1_555
C5 C6 1_555 1_555
C12 C13 1_555 1_555
C14 C15 1_555 1_555
C21 C22 1_555 1_555

#END
