
#######################################################################
#
#                 Cambridge Crystallographic Data Centre
#                                CCDC 
#
#######################################################################
#
# If this CIF has been generated from an entry in the Cambridge 
# Structural Database, then it will include bibliographic, chemical, 
# crystal, experimental, refinement or atomic coordinate data resulting 
# from the CCDC's data processing and validation procedures.
#
#######################################################################

data_HAWYUZ
_chemical_formula_moiety         'C36 H28 N4 O4,1.5(H2 O1)'
_chemical_name_systematic        
'(Cyanocalix(4)arene methyl ether) sesquihydrate'
_symmetry_cell_setting           monoclinic
_symmetry_space_group_name_H-M   'P 21/n'
_symmetry_Int_Tables_number      14
_space_group_name_Hall           '-P 2yn'
loop_
_symmetry_equiv_pos_site_id
_symmetry_equiv_pos_as_xyz
1 x,y,z
2 1/2-x,1/2+y,1/2-z
3 -x,-y,-z
4 1/2+x,1/2-y,1/2+z
_cell_length_a                   13.591(3)
_cell_length_b                   24.778(5)
_cell_length_c                   11.057(3)
_cell_angle_alpha                90
_cell_angle_beta                 93.58(2)
_cell_angle_gamma                90
_cell_volume                     3716.26
_exptl_crystal_colour            colorless
_cell_formula_units_Z            4
loop_
_atom_site_label
_atom_site_type_symbol
_atom_site_fract_x
_atom_site_fract_y
_atom_site_fract_z
O1 O 0.4368(8) 0.2616(5) 0.361(1)
O2 O 0.4427(9) 0.1259(5) 0.055(1)
O3 O 0.2394(9) 0.1288(6) 0.171(1)
O4 O 0.109(1) 0.2456(5) 0.201(1)
N1 N 0.293(1) 0.3127(8) -0.213(1)
N2 N 0.566(2) 0.0873(9) 0.649(2)
N3 N 0.051(2) -0.0913(8) 0.421(3)
N4 N 0.277(2) 0.174(1) 0.754(2)
C1 C 0.397(2) 0.2693(9) 0.240(2)
C2 C 0.311(1) 0.2975(7) 0.216(2)
C3 C 0.282(1) 0.3074(8) 0.095(2)
C4 C 0.345(2) 0.2847(8) 0.006(2)
C5 C 0.426(1) 0.2553(8) 0.029(2)
C6 C 0.455(2) 0.2439(8) 0.149(2)
C7 C 0.548(1) 0.2108(7) 0.176(2)
C8 C 0.310(1) 0.3009(8) -0.119(2)
C9 C 0.466(1) 0.117(1) 0.184(2)
C10 C 0.518(1) 0.1591(9) 0.238(2)
C11 C 0.542(1) 0.1524(8) 0.370(2)
C12 C 0.511(2) 0.1046(9) 0.420(2)
C13 C 0.451(1) 0.0644(8) 0.367(2)
C14 C 0.428(1) 0.0710(7) 0.237(2)
C15 C 0.358(1) 0.0327(7) 0.167(1)
C16 C 0.543(2) 0.0958(8) 0.553(2)
C17 C 0.204(2) 0.0791(9) 0.223(2)
C18 C 0.260(1) 0.0331(9) 0.223(2)
C19 C 0.221(2) -0.0123(9) 0.272(2)
C20 C 0.125(2) -0.0094(9) 0.320(2)
C21 C 0.071(1) 0.040(1) 0.328(2)
C22 C 0.111(1) 0.0863(9) 0.273(2)
C23 C 0.053(1) 0.1387(8) 0.283(2)
C24 C 0.081(2) -0.058(1) 0.371(2)
C25 C 0.145(2) 0.2299(9) 0.314(2)
C26 C 0.118(1) 0.1805(9) 0.356(2)
C27 C 0.151(1) 0.1656(8) 0.474(2)
C28 C 0.215(1) 0.2000(9) 0.543(2)
C29 C 0.249(1) 0.2501(8) 0.497(2)
C30 C 0.211(1) 0.2651(7) 0.378(2)
C31 C 0.249(1) 0.3133(8) 0.321(2)
C32 C 0.250(2) 0.185(1) 0.657(2)
C33 C 0.506(2) 0.308(1) 0.406(2)
C34 C 0.516(2) 0.099(1) -0.024(2)
C35 C 0.218(2) 0.1375(9) 0.045(2)
C36 C 0.011(1) 0.2706(8) 0.196(2)
O5 O 0.167(3) 0.510(2) 0.701(5)
O6 O 0.242(4) 0.462(3) 0.778(8)
O7 O 0.476(8) 0.465(2) 0.486(5)
loop_
_geom_bond_atom_site_label_1
_geom_bond_atom_site_label_2
_geom_bond_site_symmetry_1
_geom_bond_site_symmetry_2
O1 C1 1_555 1_555
O2 C9 1_555 1_555
O3 C17 1_555 1_555
O4 C25 1_555 1_555
N1 C8 1_555 1_555
N2 C16 1_555 1_555
N3 C24 1_555 1_555
N4 C32 1_555 1_555
C1 C2 1_555 1_555
C2 C3 1_555 1_555
C3 C4 1_555 1_555
C4 C5 1_555 1_555
C5 C6 1_555 1_555
C6 C1 1_555 1_555
C7 C6 1_555 1_555
C8 C4 1_555 1_555
C9 C10 1_555 1_555
C10 C7 1_555 1_555
C11 C10 1_555 1_555
C12 C11 1_555 1_555
C13 C12 1_555 1_555
C14 C9 1_555 1_555
C15 C14 1_555 1_555
C16 C12 1_555 1_555
C17 C18 1_555 1_555
C18 C15 1_555 1_555
C19 C18 1_555 1_555
C20 C19 1_555 1_555
C21 C20 1_555 1_555
C22 C17 1_555 1_555
C23 C22 1_555 1_555
C24 C20 1_555 1_555
C25 C26 1_555 1_555
C26 C23 1_555 1_555
C27 C26 1_555 1_555
C28 C27 1_555 1_555
C29 C28 1_555 1_555
C30 C25 1_555 1_555
C31 C2 1_555 1_555
C32 C28 1_555 1_555
C33 O1 1_555 1_555
C34 O2 1_555 1_555
C35 O3 1_555 1_555
C36 O4 1_555 1_555
C13 C14 1_555 1_555
C21 C22 1_555 1_555
C29 C30 1_555 1_555
C30 C31 1_555 1_555

#END
