
#######################################################################
#
#                 Cambridge Crystallographic Data Centre
#                                CCDC 
#
#######################################################################
#
# If this CIF has been generated from an entry in the Cambridge 
# Structural Database, then it will include bibliographic, chemical, 
# crystal, experimental, refinement or atomic coordinate data resulting 
# from the CCDC's data processing and validation procedures.
#
#######################################################################

data_HAXDIW
_chemical_formula_moiety         'C16 H18 N2 O3'
_chemical_name_systematic        
1-(5-ethyl-1-(4-methoxybenzoyl)-1H-pyrazol-4-yl)propan-1-one
_symmetry_cell_setting           monoclinic
_symmetry_space_group_name_H-M   'P c'
_symmetry_Int_Tables_number      7
_space_group_name_Hall           'P -2yc'
loop_
_symmetry_equiv_pos_site_id
_symmetry_equiv_pos_as_xyz
1 x,y,z
2 x,-y,1/2+z
_cell_length_a                   4.1366(9)
_cell_length_b                   21.594(5)
_cell_length_c                   33.945(8)
_cell_angle_alpha                90
_cell_angle_beta                 90.012(3)
_cell_angle_gamma                90
_cell_volume                     3032.16
_exptl_crystal_colour            colorless
_chemical_melting_point          '121-122 deg.C'
_cell_formula_units_Z            8
_exptl_crystal_recrystallization_method toluene
loop_
_atom_site_label
_atom_site_type_symbol
_atom_site_fract_x
_atom_site_fract_y
_atom_site_fract_z
O1 O 0.4827(12) 0.1822(2) 0.29328(15)
O2 O 0.3960(13) 0.4530(2) 0.22558(16)
O3 O 0.5506(15) 0.5173(3) 0.06597(16)
N1 N 0.3777(12) 0.4058(2) 0.16603(16)
N2 N 0.2135(12) 0.3576(2) 0.14700(16)
C1 C 0.381(3) 0.1795(5) 0.3344(3)
C2 C 0.4348(16) 0.2357(3) 0.2730(2)
C3 C 0.2822(15) 0.2871(3) 0.2886(2)
C4 C 0.2645(14) 0.3404(3) 0.26627(19)
C5 C 0.3951(14) 0.3441(3) 0.2277(2)
C6 C 0.5340(18) 0.2908(3) 0.2127(2)
C7 C 0.5635(17) 0.2374(3) 0.2352(2)
C8 C 0.3920(15) 0.4034(4) 0.20927(19)
C9 C 0.2197(17) 0.3755(3) 0.1093(2)
C10 C 0.3813(15) 0.4329(3) 0.1043(2)
C11 C 0.4734(14) 0.4512(3) 0.1411(2)
C12 C 0.6791(16) 0.5052(3) 0.1541(2)
C13 C 0.484(2) 0.5631(4) 0.1633(4)
C14 C 0.4248(18) 0.4675(4) 0.0660(2)
C15 C 0.322(2) 0.4347(4) 0.0291(2)
C16 C 0.354(3) 0.4714(5) -0.0089(3)
H1 H 0.459(14) 0.210(3) 0.3458(19)
H2 H 0.433(13) 0.136(3) 0.3431(18)
H3 H 0.134(17) 0.185(3) 0.3323(17)
H4 H 0.182(13) 0.290(2) 0.3127(17)
H5 H 0.180(13) 0.384(3) 0.2766(19)
H6 H 0.652(13) 0.296(3) 0.1887(18)
H7 H 0.694(11) 0.201(3) 0.2266(14)
H8 H 0.102(15) 0.346(4) 0.089(2)
H9 H 0.857(13) 0.494(2) 0.1760(17)
H10 H 0.831(12) 0.515(2) 0.1335(16)
H11 H 0.423(16) 0.573(3) 0.143(2)
H12 H 0.630(19) 0.595(4) 0.174(2)
H13 H 0.339(18) 0.560(4) 0.187(2)
H14 H 0.104(17) 0.413(3) 0.0323(19)
H15 H 0.423(11) 0.393(3) 0.0286(15)
H16 H 0.218(15) 0.508(3) -0.0046(18)
H17 H 0.273(13) 0.443(3) -0.035(2)
H18 H 0.555(15) 0.499(3) -0.0101(17)
O4 O 0.3811(12) 0.6826(2) 0.29322(15)
O5 O 0.4686(13) 0.9534(2) 0.22584(16)
O6 O 0.3122(15) 1.0169(3) 0.06599(15)
N3 N 0.4861(12) 0.9056(2) 0.16606(16)
N4 N 0.6494(12) 0.8575(3) 0.14679(17)
C17 C 0.481(3) 0.6792(5) 0.3345(3)
C18 C 0.4284(16) 0.7366(3) 0.2730(2)
C19 C 0.5831(15) 0.7874(3) 0.2887(2)
C20 C 0.5984(14) 0.8407(3) 0.26632(19)
C21 C 0.4702(14) 0.8440(3) 0.2275(2)
C22 C 0.3256(17) 0.7902(3) 0.2126(2)
C23 C 0.2994(17) 0.7367(3) 0.2351(2)
C24 C 0.4689(15) 0.9033(3) 0.20901(19)
C25 C 0.6459(19) 0.8756(3) 0.1094(2)
C26 C 0.4798(15) 0.9336(3) 0.1041(2)
C27 C 0.3883(14) 0.9511(3) 0.14158(19)
C28 C 0.1837(16) 1.0051(3) 0.1536(3)
C29 C 0.380(2) 1.0639(4) 0.1628(4)
C30 C 0.4386(17) 0.9674(4) 0.0661(2)
C31 C 0.537(2) 0.9339(4) 0.0291(2)
C32 C 0.507(3) 0.9711(5) -0.0085(3)
H19 H 0.718(15) 0.689(3) 0.3340(16)
H20 H 0.400(12) 0.639(3) 0.3434(17)
H21 H 0.403(16) 0.713(4) 0.345(2)
H22 H 0.640(16) 0.789(3) 0.314(2)
H23 H 0.706(11) 0.884(3) 0.2781(17)
H24 H 0.254(13) 0.792(3) 0.1833(19)
H25 H 0.163(12) 0.694(3) 0.2254(16)
H26 H 0.798(17) 0.855(4) 0.093(2)
H27 H 0.039(14) 1.000(3) 0.1732(18)
H28 H 0.041(12) 1.016(2) 0.1314(17)
H29 H 0.510(18) 1.062(4) 0.181(2)
H30 H 0.20(2) 1.091(4) 0.175(3)
H31 H 0.493(18) 1.079(4) 0.142(2)
H32 H 0.455(13) 0.886(3) 0.0279(18)
H33 H 0.749(16) 0.917(3) 0.0331(18)
H34 H 0.301(17) 0.995(4) -0.012(2)
H35 H 0.602(14) 0.945(3) -0.033(2)
H36 H 0.640(11) 1.009(3) -0.0058(14)
O7 O 0.8838(11) -0.0579(2) 0.81733(14)
O8 O 0.9541(12) 0.2136(2) 0.88657(14)
O9 O 0.7325(14) 0.2713(3) 1.04750(16)
N5 N 0.9547(13) 0.1631(3) 0.94556(17)
N6 N 1.1156(13) 0.1164(2) 0.96533(18)
C33 C 1.004(3) -0.0604(5) 0.7789(3)
C34 C 0.9227(15) -0.0030(3) 0.8375(2)
C35 C 1.0818(16) 0.0489(3) 0.8227(2)
C36 C 1.0878(17) 0.1013(3) 0.8457(2)
C37 C 0.9576(14) 0.1026(3) 0.88257(19)
C38 C 0.8087(17) 0.0504(3) 0.8984(2)
C39 C 0.7931(19) -0.0028(3) 0.8755(2)
C40 C 0.9615(15) 0.1647(3) 0.9039(2)
C41 C 1.0929(16) 0.1315(3) 1.0024(2)
C42 C 0.9226(14) 0.1884(3) 1.0080(2)
C43 C 0.8443(14) 0.2081(3) 0.9708(2)
C44 C 0.6468(15) 0.2633(3) 0.9575(2)
C45 C 0.842(2) 0.3216(4) 0.9510(3)
C46 C 0.8548(17) 0.2171(4) 1.0455(2)
C47 C 0.889(3) 0.1802(4) 1.0824(2)
C48 C 0.807(3) 0.2125(5) 1.1207(3)
H37 H 0.916(13) -0.035(3) 0.7629(19)
H38 H 0.937(17) -0.097(4) 0.765(3)
H39 H 1.24(2) -0.053(5) 0.777(3)
H40 H 1.202(16) 0.047(4) 0.796(2)
H41 H 1.193(14) 0.132(3) 0.837(2)
H42 H 0.702(12) 0.054(3) 0.9291(18)
H43 H 0.695(19) -0.040(5) 0.887(2)
H44 H 1.182(14) 0.110(3) 1.024(2)
H45 H 0.459(16) 0.268(3) 0.9770(19)
H46 H 0.565(15) 0.251(3) 0.932(2)
H47 H 1.024(18) 0.338(4) 0.973(2)
H48 H 0.670(15) 0.357(3) 0.9424(18)
H49 H 0.998(16) 0.317(3) 0.927(2)
H50 H 1.084(13) 0.164(3) 1.0803(15)
H51 H 0.734(16) 0.142(4) 1.0784(19)
H52 H 0.950(13) 0.240(3) 1.1218(15)
H53 H 0.882(14) 0.187(3) 1.142(2)
H54 H 0.58(3) 0.227(5) 1.122(3)
O10 O 0.9766(12) 0.4419(2) 0.81739(15)
O11 O 0.9121(12) 0.7131(3) 0.88657(14)
O12 O 1.1294(14) 0.7711(3) 1.04760(16)
N7 N 0.9066(12) 0.6630(3) 0.94574(17)
N8 N 0.7494(13) 0.6162(2) 0.96508(17)
C49 C 0.855(3) 0.4404(4) 0.7784(3)
C50 C 0.9420(15) 0.4963(3) 0.8372(2)
C51 C 0.7837(16) 0.5491(3) 0.8234(2)
C52 C 0.7715(16) 0.6013(3) 0.8456(2)
C53 C 0.9040(15) 0.6033(3) 0.88277(19)
C54 C 1.0504(18) 0.5503(3) 0.8981(2)
C55 C 1.0707(18) 0.4984(4) 0.8757(2)
C56 C 0.9072(15) 0.6639(4) 0.9041(2)
C57 C 0.7686(15) 0.6318(3) 1.0024(2)
C58 C 0.9386(15) 0.6869(3) 1.00822(19)
C59 C 1.0206(14) 0.7085(3) 0.9709(2)
C60 C 1.2161(16) 0.7633(3) 0.9578(2)
C61 C 1.023(2) 0.8225(3) 0.9510(3)
C62 C 1.0127(17) 0.7174(3) 1.0451(2)
C63 C 0.972(3) 0.6792(4) 1.0827(2)
C64 C 1.057(3) 0.7133(5) 1.1203(3)
H55 H 0.56(2) 0.443(4) 0.777(2)
H56 H 0.888(18) 0.400(4) 0.764(3)
H57 H 0.959(15) 0.469(4) 0.760(2)
H58 H 0.676(12) 0.550(3) 0.7979(18)
H59 H 0.672(13) 0.639(3) 0.8385(18)
H60 H 1.141(15) 0.556(3) 0.922(2)
H61 H 1.148(15) 0.464(4) 0.885(2)
H62 H 0.678(14) 0.606(3) 1.0233(19)
H63 H 1.314(14) 0.749(3) 0.928(2)
H64 H 1.381(19) 0.768(4) 0.977(3)
H65 H 0.846(16) 0.812(3) 0.930(2)
H66 H 1.177(14) 0.857(3) 0.9434(17)
H67 H 0.881(17) 0.835(3) 0.979(2)
H68 H 0.748(15) 0.666(3) 1.0826(17)
H69 H 1.090(19) 0.647(4) 1.077(2)
H70 H 1.28(3) 0.738(6) 1.115(3)
H71 H 1.004(13) 0.690(3) 1.1421(19)
H72 H 0.926(15) 0.744(3) 1.1241(18)
loop_
_geom_bond_atom_site_label_1
_geom_bond_atom_site_label_2
_geom_bond_site_symmetry_1
_geom_bond_site_symmetry_2
O1 C1 1_555 1_555
O2 C8 1_555 1_555
O3 C14 1_555 1_555
N1 N2 1_555 1_555
N2 C9 1_555 1_555
C1 H1 1_555 1_555
C2 O1 1_555 1_555
C3 C2 1_555 1_555
C4 C3 1_555 1_555
C5 C4 1_555 1_555
C6 C5 1_555 1_555
C7 C2 1_555 1_555
C8 N1 1_555 1_555
C9 C10 1_555 1_555
C10 C11 1_555 1_555
C11 N1 1_555 1_555
C12 C11 1_555 1_555
C13 C12 1_555 1_555
C14 C10 1_555 1_555
C15 C14 1_555 1_555
C16 C15 1_555 1_555
H2 C1 1_555 1_555
H3 C1 1_555 1_555
H4 C3 1_555 1_555
H5 C4 1_555 1_555
H6 C6 1_555 1_555
H7 C7 1_555 1_555
H8 C9 1_555 1_555
H9 C12 1_555 1_555
H10 C12 1_555 1_555
H11 C13 1_555 1_555
H12 C13 1_555 1_555
H13 C13 1_555 1_555
H14 C15 1_555 1_555
H15 C15 1_555 1_555
H16 C16 1_555 1_555
H17 C16 1_555 1_555
H18 C16 1_555 1_555
O4 C17 1_555 1_555
O5 C24 1_555 1_555
O6 C30 1_555 1_555
N3 N4 1_555 1_555
N4 C25 1_555 1_555
C17 H19 1_555 1_555
C18 O4 1_555 1_555
C19 C18 1_555 1_555
C20 C19 1_555 1_555
C21 C20 1_555 1_555
C22 C21 1_555 1_555
C23 C18 1_555 1_555
C24 N3 1_555 1_555
C25 C26 1_555 1_555
C26 C27 1_555 1_555
C27 N3 1_555 1_555
C28 C27 1_555 1_555
C29 C28 1_555 1_555
C30 C26 1_555 1_555
C31 C30 1_555 1_555
C32 C31 1_555 1_555
H20 C17 1_555 1_555
H21 C17 1_555 1_555
H22 C19 1_555 1_555
H23 C20 1_555 1_555
H24 C22 1_555 1_555
H25 C23 1_555 1_555
H26 C25 1_555 1_555
H27 C28 1_555 1_555
H28 C28 1_555 1_555
H29 C29 1_555 1_555
H30 C29 1_555 1_555
H31 C29 1_555 1_555
H32 C31 1_555 1_555
H33 C31 1_555 1_555
H34 C32 1_555 1_555
H35 C32 1_555 1_555
H36 C32 1_555 1_555
O7 C33 1_555 1_555
O8 C40 1_555 1_555
O9 C46 1_555 1_555
N5 N6 1_555 1_555
N6 C41 1_555 1_555
C33 H37 1_555 1_555
C34 O7 1_555 1_555
C35 C34 1_555 1_555
C36 C35 1_555 1_555
C37 C36 1_555 1_555
C38 C37 1_555 1_555
C39 C34 1_555 1_555
C40 N5 1_555 1_555
C41 C42 1_555 1_555
C42 C43 1_555 1_555
C43 N5 1_555 1_555
C44 C43 1_555 1_555
C45 C44 1_555 1_555
C46 C42 1_555 1_555
C47 C46 1_555 1_555
C48 C47 1_555 1_555
H38 C33 1_555 1_555
H39 C33 1_555 1_555
H40 C35 1_555 1_555
H41 C36 1_555 1_555
H42 C38 1_555 1_555
H43 C39 1_555 1_555
H44 C41 1_555 1_555
H45 C44 1_555 1_555
H46 C44 1_555 1_555
H47 C45 1_555 1_555
H48 C45 1_555 1_555
H49 C45 1_555 1_555
H50 C47 1_555 1_555
H51 C47 1_555 1_555
H52 C48 1_555 1_555
H53 C48 1_555 1_555
H54 C48 1_555 1_555
O10 C49 1_555 1_555
O11 C56 1_555 1_555
O12 C62 1_555 1_555
N7 N8 1_555 1_555
N8 C57 1_555 1_555
C49 H55 1_555 1_555
C50 O10 1_555 1_555
C51 C50 1_555 1_555
C52 C51 1_555 1_555
C53 C52 1_555 1_555
C54 C53 1_555 1_555
C55 C50 1_555 1_555
C56 N7 1_555 1_555
C57 C58 1_555 1_555
C58 C59 1_555 1_555
C59 N7 1_555 1_555
C60 C59 1_555 1_555
C61 C60 1_555 1_555
C62 C58 1_555 1_555
C63 C62 1_555 1_555
C64 C63 1_555 1_555
H56 C49 1_555 1_555
H57 C49 1_555 1_555
H58 C51 1_555 1_555
H59 C52 1_555 1_555
H60 C54 1_555 1_555
H61 C55 1_555 1_555
H62 C57 1_555 1_555
H63 C60 1_555 1_555
H64 C60 1_555 1_555
H65 C61 1_555 1_555
H66 C61 1_555 1_555
H67 C61 1_555 1_555
H68 C63 1_555 1_555
H69 C63 1_555 1_555
H70 C64 1_555 1_555
H71 C64 1_555 1_555
H72 C64 1_555 1_555
C5 C8 1_555 1_555
C6 C7 1_555 1_555
C21 C24 1_555 1_555
C22 C23 1_555 1_555
C37 C40 1_555 1_555
C38 C39 1_555 1_555
C53 C56 1_555 1_555
C54 C55 1_555 1_555

#END
