
#######################################################################
#
#                 Cambridge Crystallographic Data Centre
#                                CCDC 
#
#######################################################################
#
# If this CIF has been generated from an entry in the Cambridge 
# Structural Database, then it will include bibliographic, chemical, 
# crystal, experimental, refinement or atomic coordinate data resulting 
# from the CCDC's data processing and validation procedures.
#
#######################################################################

data_HAXJAR
_chemical_formula_moiety         'C8 H18 N3 O6 S2 1-,Na1 1+,2(H2 O1)'
_chemical_name_systematic        
"Sodium hydrogen-1,4,7-triazacyclononane-N,N'-bis(methanesulfonate) dihydrate"
_symmetry_cell_setting           orthorhombic
_symmetry_space_group_name_H-M   'P n a 21'
_symmetry_Int_Tables_number      33
_space_group_name_Hall           'P 2c -2n'
loop_
_symmetry_equiv_pos_site_id
_symmetry_equiv_pos_as_xyz
1 x,y,z
2 1/2-x,1/2+y,1/2+z
3 1/2+x,1/2-y,z
4 -x,-y,1/2+z
_cell_length_a                   17.964(8)
_cell_length_b                   10.157(1)
_cell_length_c                   8.263(4)
_cell_angle_alpha                90
_cell_angle_beta                 90
_cell_angle_gamma                90
_cell_volume                     1507.67
_cell_formula_units_Z            4
loop_
_atom_site_label
_atom_site_type_symbol
_atom_site_fract_x
_atom_site_fract_y
_atom_site_fract_z
S1 S 0.15664(9) 0.0815(2) 0.0854(3)
S2 S -0.01174(9) 0.7574(2) -0.0019(3)
O1 O 0.1385(3) 0.0724(5) -0.0879(6)
O2 O 0.0239(3) 0.8109(5) -0.1437(7)
O3 O 0.1053(3) 0.0072(6) 0.1835(8)
O4 O 0.2330(3) 0.0467(5) 0.1179(7)
O5 O -0.0428(3) 0.8599(6) 0.0990(9)
O6 O -0.0647(3) 0.6548(6) -0.0388(9)
N1 N 0.2573(3) 0.5773(6) 0.1551(8)
N2 N 0.1164(3) 0.6099(5) 0.0308(8)
N3 N 0.1839(3) 0.3496(5) 0.0539(7)
C1 C 0.1486(4) 0.3932(7) -0.096(1)
C2 C 0.0893(4) 0.4991(8) -0.067(1)
C3 C 0.2377(4) 0.7082(7) 0.088(1)
C4 C 0.0617(4) 0.6812(7) 0.1185(9)
C5 C 0.2656(4) 0.3473(7) 0.0586(9)
C6 C 0.2964(4) 0.4861(7) 0.0425(9)
C7 C 0.1757(4) 0.6896(7) -0.0374(9)
C8 C 0.1446(4) 0.2527(7) 0.1442(9)
Na1 Na 0.0057(2) 0.0412(3) -0.1549(4)
O7 O -0.0434(3) 0.2111(5) 0.0170(8)
O8 O 0.6387(3) 0.9245(6) 0.4380(8)
loop_
_geom_bond_atom_site_label_1
_geom_bond_atom_site_label_2
_geom_bond_site_symmetry_1
_geom_bond_site_symmetry_2
S1 O1 1_555 1_555
S2 O2 1_555 1_555
O3 S1 1_555 1_555
O4 S1 1_555 1_555
O5 S2 1_555 1_555
O6 S2 1_555 1_555
N1 C3 1_555 1_555
N2 C2 1_555 1_555
N3 C1 1_555 1_555
C1 C2 1_555 1_555
C3 C7 1_555 1_555
C4 S2 1_555 1_555
C5 N3 1_555 1_555
C6 N1 1_555 1_555
C7 N2 1_555 1_555
C8 S1 1_555 1_555
N2 C4 1_555 1_555
N3 C8 1_555 1_555
C5 C6 1_555 1_555

#END
