
#######################################################################
#
#                 Cambridge Crystallographic Data Centre
#                                CCDC 
#
#######################################################################
#
# If this CIF has been generated from an entry in the Cambridge 
# Structural Database, then it will include bibliographic, chemical, 
# crystal, experimental, refinement or atomic coordinate data resulting 
# from the CCDC's data processing and validation procedures.
#
#######################################################################

data_HAXMAX
_chemical_formula_moiety         'C32 H22'
_chemical_name_systematic        1,6-bis(2-phenylvinyl)pyrene
_symmetry_cell_setting           triclinic
_symmetry_space_group_name_H-M   'P -1'
_symmetry_Int_Tables_number      2
_space_group_name_Hall           '-P 1'
loop_
_symmetry_equiv_pos_site_id
_symmetry_equiv_pos_as_xyz
1 x,y,z
2 -x,-y,-z
_cell_length_a                   9.602(4)
_cell_length_b                   10.452(4)
_cell_length_c                   11.076(5)
_cell_angle_alpha                93.925(5)
_cell_angle_beta                 109.054(5)
_cell_angle_gamma                97.992(6)
_cell_volume                     1032.76
_exptl_crystal_colour            yellow
_exptl_crystal_description       Plate
_cell_formula_units_Z            2
loop_
_atom_site_label
_atom_site_type_symbol
_atom_site_fract_x
_atom_site_fract_y
_atom_site_fract_z
C1 C 0.34863(15) 0.80919(14) 0.61576(12)
C2 C 0.38704(16) 0.93783(14) 0.59465(13)
H1 H 0.3577 0.9601 0.5113
C3 C 0.46815(17) 1.03202(15) 0.69665(15)
H2 H 0.4930 1.1171 0.6812
C4 C 0.51274(17) 1.00085(16) 0.82152(14)
H3 H 0.5666 1.0648 0.8898
C5 C 0.47675(16) 0.87413(16) 0.84416(13)
H4 H 0.5071 0.8526 0.9278
C6 C 0.39562(15) 0.77924(14) 0.74246(13)
H5 H 0.3720 0.6943 0.7587
C7 C 0.26275(16) 0.70445(14) 0.51208(13)
H6 H 0.2537 0.6207 0.5353
C8 C 0.19634(15) 0.71641(14) 0.38819(13)
H7 H 0.2061 0.7990 0.3623
C9 C 0.10822(15) 0.60658(13) 0.28950(12)
C10 C 0.09362(14) 0.60909(12) 0.15812(12)
C11 C 0.00778(14) 0.50017(12) 0.06616(12)
C12 C -0.06209(15) 0.39074(13) 0.10674(12)
C13 C -0.04494(16) 0.39130(14) 0.23710(13)
H8 H -0.0899 0.3198 0.2646
C14 C 0.03778(16) 0.49647(14) 0.32505(13)
H9 H 0.0472 0.4943 0.4111
C15 C 0.16425(15) 0.71644(13) 0.11279(13)
H10 H 0.2220 0.7876 0.1712
C16 C -0.14860(16) 0.28369(13) 0.01304(13)
H11 H -0.1954 0.2122 0.0392
C1A C -0.34863(15) 0.19081(14) -0.61576(12)
C2A C -0.38704(16) 0.06217(14) -0.59465(13)
H1A H -0.3577 0.0399 -0.5113
C3A C -0.46815(17) -0.03202(15) -0.69665(15)
H2A H -0.4930 -0.1171 -0.6812
C4A C -0.51274(17) -0.00085(16) -0.82152(14)
H3A H -0.5666 -0.0648 -0.8898
C5A C -0.47675(16) 0.12587(16) -0.84416(13)
H4A H -0.5071 0.1474 -0.9278
C6A C -0.39562(15) 0.22076(14) -0.74246(13)
H5A H -0.3720 0.3057 -0.7587
C7A C -0.26275(16) 0.29555(14) -0.51208(13)
H6A H -0.2537 0.3793 -0.5353
C8A C -0.19634(15) 0.28359(14) -0.38819(13)
H7A H -0.2061 0.2010 -0.3623
C9A C -0.10822(15) 0.39342(13) -0.28950(12)
C10A C -0.09362(14) 0.39091(12) -0.15812(12)
C11A C -0.00778(14) 0.49983(12) -0.06616(12)
C12A C 0.06209(15) 0.60926(13) -0.10674(12)
C13A C 0.04494(16) 0.60870(14) -0.23710(13)
H8A H 0.0899 0.6802 -0.2646
C14A C -0.03778(16) 0.50353(14) -0.32505(13)
H9A H -0.0472 0.5057 -0.4111
C15A C -0.16425(15) 0.28356(13) -0.11279(13)
H10A H -0.2220 0.2124 -0.1712
C16A C 0.14860(16) 0.71631(13) -0.01304(13)
H11A H 0.1954 0.7878 -0.0392
C17 C 0.82434(16) 0.83368(13) 0.60690(13)
C18 C 0.96532(16) 0.88472(14) 0.60275(13)
H12 H 0.9903 0.8613 0.5309
C19 C 1.06783(17) 0.96945(15) 0.70408(14)
H13 H 1.1608 1.0026 0.6997
C20 C 1.03305(18) 1.00518(14) 0.81185(14)
H14 H 1.1027 1.0614 0.8803
C21 C 0.89353(18) 0.95664(14) 0.81719(13)
H15 H 0.8692 0.9809 0.8892
C22 C 0.79051(16) 0.87229(13) 0.71603(13)
H16 H 0.6971 0.8407 0.7206
C23 C 0.71030(16) 0.74413(14) 0.50265(13)
H17 H 0.6184 0.7201 0.5131
C24 C 0.72457(16) 0.69373(13) 0.39477(12)
H18 H 0.8172 0.7148 0.3848
C25 C 0.60625(15) 0.60732(13) 0.28949(12)
C26 C 0.61252(14) 0.59517(12) 0.16311(12)
C27 C 0.49781(14) 0.50731(12) 0.06394(12)
C28 C 0.37859(15) 0.43425(12) 0.09248(12)
C29 C 0.37390(15) 0.45124(13) 0.21754(13)
H19 H 0.2951 0.4053 0.2366
C30 C 0.48480(15) 0.53523(13) 0.31258(13)
H20 H 0.4791 0.5445 0.3948
C31 C 0.72800(15) 0.66926(13) 0.12823(13)
H21 H 0.8022 0.7285 0.1906
C32 C 0.26815(15) 0.34469(13) -0.00731(13)
H22 H 0.1916 0.2947 0.0115
C17A C 0.17566(16) 0.16632(13) -0.60690(13)
C18A C 0.03468(16) 0.11528(14) -0.60275(13)
H12A H 0.0097 0.1387 -0.5309
C19A C -0.06783(17) 0.03055(15) -0.70408(14)
H13A H -0.1608 -0.0026 -0.6997
C20A C -0.03305(18) -0.00518(14) -0.81185(14)
H14A H -0.1027 -0.0614 -0.8803
C21A C 0.10647(18) 0.04336(14) -0.81719(13)
H15A H 0.1308 0.0191 -0.8892
C22A C 0.20949(16) 0.12771(13) -0.71603(13)
H16A H 0.3029 0.1593 -0.7206
C23A C 0.28970(16) 0.25587(14) -0.50265(13)
H17A H 0.3816 0.2799 -0.5131
C24A C 0.27543(16) 0.30627(13) -0.39477(12)
H18A H 0.1828 0.2852 -0.3848
C25A C 0.39375(15) 0.39268(13) -0.28949(12)
C26A C 0.38748(14) 0.40483(12) -0.16311(12)
C27A C 0.50219(14) 0.49269(12) -0.06394(12)
C28A C 0.62141(15) 0.56575(12) -0.09248(12)
C29A C 0.62610(15) 0.54876(13) -0.21754(13)
H19A H 0.7049 0.5947 -0.2366
C30A C 0.51520(15) 0.46477(13) -0.31258(13)
H20A H 0.5209 0.4555 -0.3948
C31A C 0.27200(15) 0.33074(13) -0.12823(13)
H21A H 0.1978 0.2715 -0.1906
C32A C 0.73185(15) 0.65531(13) 0.00731(13)
H22A H 0.8084 0.7053 -0.0115
loop_
_geom_bond_atom_site_label_1
_geom_bond_atom_site_label_2
_geom_bond_site_symmetry_1
_geom_bond_site_symmetry_2
C1 C2 1_555 1_555
C2 H1 1_555 1_555
C3 C2 1_555 1_555
H2 C3 1_555 1_555
C4 C3 1_555 1_555
H3 C4 1_555 1_555
C5 C4 1_555 1_555
H4 C5 1_555 1_555
C6 C1 1_555 1_555
H5 C6 1_555 1_555
C7 C1 1_555 1_555
H6 C7 1_555 1_555
C8 C7 1_555 1_555
H7 C8 1_555 1_555
C9 C8 1_555 1_555
C10 C9 1_555 1_555
C11 C10 1_555 1_555
C12 C11 1_555 1_555
C13 C12 1_555 1_555
H8 C13 1_555 1_555
C14 C9 1_555 1_555
H9 C14 1_555 1_555
C15 C10 1_555 1_555
H10 C15 1_555 1_555
C16 C12 1_555 1_555
H11 C16 1_555 1_555
C17 C18 1_555 1_555
C18 H12 1_555 1_555
C19 C18 1_555 1_555
H13 C19 1_555 1_555
C20 C19 1_555 1_555
H14 C20 1_555 1_555
C21 C20 1_555 1_555
H15 C21 1_555 1_555
C22 C17 1_555 1_555
H16 C22 1_555 1_555
C23 C17 1_555 1_555
H17 C23 1_555 1_555
C24 C23 1_555 1_555
H18 C24 1_555 1_555
C25 C24 1_555 1_555
C26 C25 1_555 1_555
C27 C26 1_555 1_555
C28 C27 1_555 1_555
C29 C28 1_555 1_555
H19 C29 1_555 1_555
C30 C25 1_555 1_555
H20 C30 1_555 1_555
C31 C26 1_555 1_555
H21 C31 1_555 1_555
C32 C28 1_555 1_555
H22 C32 1_555 1_555
C1A C2A 1_555 1_555
C2A H1A 1_555 1_555
C3A C2A 1_555 1_555
H2A C3A 1_555 1_555
C4A C3A 1_555 1_555
H3A C4A 1_555 1_555
C5A C4A 1_555 1_555
H4A C5A 1_555 1_555
C6A C1A 1_555 1_555
H5A C6A 1_555 1_555
C7A C1A 1_555 1_555
H6A C7A 1_555 1_555
C8A C7A 1_555 1_555
H7A C8A 1_555 1_555
C9A C8A 1_555 1_555
C10A C9A 1_555 1_555
C11A C11 1_555 1_555
C12A C11A 1_555 1_555
C13A C12A 1_555 1_555
H8A C13A 1_555 1_555
C14A C9A 1_555 1_555
H9A C14A 1_555 1_555
C15A C16 1_555 1_555
H10A C15A 1_555 1_555
C16A C15 1_555 1_555
H11A C16A 1_555 1_555
C17A C18A 1_555 1_555
C18A H12A 1_555 1_555
C19A C18A 1_555 1_555
H13A C19A 1_555 1_555
C20A C19A 1_555 1_555
H14A C20A 1_555 1_555
C21A C20A 1_555 1_555
H15A C21A 1_555 1_555
C22A C17A 1_555 1_555
H16A C22A 1_555 1_555
C23A C17A 1_555 1_555
H17A C23A 1_555 1_555
C24A C23A 1_555 1_555
H18A C24A 1_555 1_555
C25A C24A 1_555 1_555
C26A C25A 1_555 1_555
C27A C27 1_555 1_555
C28A C27A 1_555 1_555
C29A C28A 1_555 1_555
H19A C29A 1_555 1_555
C30A C25A 1_555 1_555
H20A C30A 1_555 1_555
C31A C32 1_555 1_555
H21A C31A 1_555 1_555
C32A C31 1_555 1_555
H22A C32A 1_555 1_555
C5 C6 1_555 1_555
C13 C14 1_555 1_555
C21 C22 1_555 1_555
C29 C30 1_555 1_555
C5A C6A 1_555 1_555
C10A C11A 1_555 1_555
C10A C15A 1_555 1_555
C12A C16A 1_555 1_555
C13A C14A 1_555 1_555
C21A C22A 1_555 1_555
C26A C27A 1_555 1_555
C26A C31A 1_555 1_555
C28A C32A 1_555 1_555
C29A C30A 1_555 1_555

#END
