
#######################################################################
#
#                 Cambridge Crystallographic Data Centre
#                                CCDC 
#
#######################################################################
#
# If this CIF has been generated from an entry in the Cambridge 
# Structural Database, then it will include bibliographic, chemical, 
# crystal, experimental, refinement or atomic coordinate data resulting 
# from the CCDC's data processing and validation procedures.
#
#######################################################################

data_HAYBIT
_chemical_formula_moiety         'C8 H6 N4'
_chemical_name_systematic        2-Cyano-5-methylpyrazolo(1,5-a)pyrimidine
_symmetry_cell_setting           monoclinic
_symmetry_space_group_name_H-M   'P 21/c'
_symmetry_Int_Tables_number      14
_space_group_name_Hall           '-P 2ybc'
loop_
_symmetry_equiv_pos_site_id
_symmetry_equiv_pos_as_xyz
1 x,y,z
2 -x,1/2+y,1/2-z
3 -x,-y,-z
4 x,1/2-y,1/2+z
_cell_length_a                   3.8380(12)
_cell_length_b                   11.994(4)
_cell_length_c                   16.245(5)
_cell_angle_alpha                90
_cell_angle_beta                 90.743(5)
_cell_angle_gamma                90
_cell_volume                     747.743
_exptl_crystal_colour            yellow
_exptl_crystal_description       prism
_cell_formula_units_Z            4
_exptl_crystal_recrystallization_method ethanol
loop_
_atom_site_label
_atom_site_type_symbol
_atom_site_fract_x
_atom_site_fract_y
_atom_site_fract_z
N1 N -0.3461(5) 0.15913(15) -0.07977(10)
N2 N 0.0491(4) 0.11465(12) 0.19665(9)
N3 N 0.1469(3) 0.22283(11) 0.18289(8)
N4 N 0.1307(3) 0.36412(11) 0.07948(8)
C1 C -0.2376(5) 0.16485(14) -0.01478(11)
C2 C -0.1020(4) 0.16922(13) 0.06711(10)
C3 C -0.0996(4) 0.08432(15) 0.12629(10)
H1 H -0.1930 0.0138 0.1170
C4 C 0.3142(4) 0.29026(15) 0.23742(10)
H2 H 0.3729 0.2656 0.2901
C5 C 0.3921(4) 0.39438(15) 0.21247(10)
H3 H 0.5106 0.4427 0.2478
C6 C 0.2934(4) 0.43029(14) 0.13240(10)
C7 C 0.3683(5) 0.54684(15) 0.10608(11)
H4 H 0.2590 0.5607 0.0536
H5 H 0.6155 0.5569 0.1017
H6 H 0.2786 0.5980 0.1460
C8 C 0.0600(4) 0.25972(13) 0.10495(9)
loop_
_geom_bond_atom_site_label_1
_geom_bond_atom_site_label_2
_geom_bond_site_symmetry_1
_geom_bond_site_symmetry_2
N1 C1 1_555 1_555
N2 N3 1_555 1_555
N3 C4 1_555 1_555
N4 C6 1_555 1_555
C1 C2 1_555 1_555
C2 C3 1_555 1_555
C3 N2 1_555 1_555
H1 C3 1_555 1_555
C4 H2 1_555 1_555
C5 C4 1_555 1_555
H3 C5 1_555 1_555
C6 C5 1_555 1_555
C7 C6 1_555 1_555
H4 C7 1_555 1_555
H5 C7 1_555 1_555
H6 C7 1_555 1_555
C8 N3 1_555 1_555
N4 C8 1_555 1_555
C2 C8 1_555 1_555

#END
