
#######################################################################
#
#                 Cambridge Crystallographic Data Centre
#                                CCDC 
#
#######################################################################
#
# If this CIF has been generated from an entry in the Cambridge 
# Structural Database, then it will include bibliographic, chemical, 
# crystal, experimental, refinement or atomic coordinate data resulting 
# from the CCDC's data processing and validation procedures.
#
#######################################################################

data_HAYCOZ
_chemical_formula_moiety         '2(C13 H5 N3 O7),C34 H20'
_chemical_name_systematic        
'bis(2,4,7-Trinitrofluoren-9-one) tetrakis(phenylethynyl)ethene'
_symmetry_cell_setting           triclinic
_symmetry_space_group_name_H-M   'P -1'
_symmetry_Int_Tables_number      2
_space_group_name_Hall           '-P 1'
loop_
_symmetry_equiv_pos_site_id
_symmetry_equiv_pos_as_xyz
1 x,y,z
2 -x,-y,-z
_cell_length_a                   8.177(6)
_cell_length_b                   15.146(5)
_cell_length_c                   21.397(9)
_cell_angle_alpha                107.95(4)
_cell_angle_beta                 91.84(5)
_cell_angle_gamma                103.84(5)
_cell_volume                     2431.7
_exptl_crystal_colour            'dark red'
_cell_formula_units_Z            2
loop_
_atom_site_label
_atom_site_type_symbol
_atom_site_fract_x
_atom_site_fract_y
_atom_site_fract_z
C1 C -0.0564(4) -0.0105(2) -0.0274(1)
C2 C -0.0848(4) 0.0629(2) -0.0518(1)
C3 C -0.1121(4) 0.1228(2) -0.0739(1)
C4 C -0.1468(4) 0.1902(2) -0.1033(1)
C5 C -0.0618(4) 0.2878(2) -0.0780(2)
C6 C -0.0929(4) 0.3515(2) -0.1083(2)
C7 C -0.2079(5) 0.3180(3) -0.1652(2)
C8 C -0.2937(4) 0.2220(3) -0.1904(2)
C9 C -0.2660(4) 0.1584(2) -0.1595(2)
C10 C -0.1468(4) -0.1072(2) -0.0626(2)
C11 C -0.2188(4) -0.1898(2) -0.0925(2)
C12 C -0.2970(4) -0.2889(2) -0.1267(1)
C13 C -0.4039(4) -0.3182(2) -0.1858(2)
C14 C -0.4742(4) -0.4145(3) -0.2183(2)
C15 C -0.4423(5) -0.4830(3) -0.1926(2)
C16 C -0.3384(4) -0.4549(2) -0.1340(2)
C17 C -0.2658(4) -0.3587(2) -0.1009(2)
H1 H 0.0188 0.3107 -0.0391
H2 H -0.0354 0.4187 -0.0902
H3 H -0.2274 0.3620 -0.1870
H4 H -0.3730 0.1994 -0.2295
H5 H -0.3286 0.0920 -0.1765
H6 H -0.4282 -0.2711 -0.2036
H7 H -0.5462 -0.4345 -0.2592
H8 H -0.4925 -0.5500 -0.2156
H9 H -0.3166 -0.5025 -0.1162
H10 H -0.1937 -0.3395 -0.0601
C1A C 0.0564(4) 0.0105(2) 0.0274(1)
C2A C 0.0848(4) -0.0629(2) 0.0518(1)
C10A C 0.1468(4) 0.1072(2) 0.0626(2)
C3A C 0.1121(4) -0.1228(2) 0.0739(1)
C11A C 0.2188(4) 0.1898(2) 0.0925(2)
C4A C 0.1468(4) -0.1902(2) 0.1033(1)
C12A C 0.2970(4) 0.2889(2) 0.1267(1)
C5A C 0.0618(4) -0.2878(2) 0.0780(2)
C9A C 0.2660(4) -0.1584(2) 0.1595(2)
C13A C 0.4039(4) 0.3182(2) 0.1858(2)
C17A C 0.2658(4) 0.3587(2) 0.1009(2)
C6A C 0.0929(4) -0.3515(2) 0.1083(2)
H1A H -0.0188 -0.3107 0.0391
C8A C 0.2937(4) -0.2220(3) 0.1904(2)
H5A H 0.3286 -0.0920 0.1765
C14A C 0.4742(4) 0.4145(3) 0.2183(2)
H6A H 0.4282 0.2711 0.2036
C16A C 0.3384(4) 0.4549(2) 0.1340(2)
H10A H 0.1937 0.3395 0.0601
C7A C 0.2079(5) -0.3180(3) 0.1652(2)
H2A H 0.0354 -0.4187 0.0902
H4A H 0.3730 -0.1994 0.2295
C15A C 0.4423(5) 0.4830(3) 0.1926(2)
H7A H 0.5462 0.4345 0.2592
H9A H 0.3166 0.5025 0.1162
H3A H 0.2274 -0.3620 0.1870
H8A H 0.4925 0.5500 0.2156
C18 C -0.4496(4) 0.5115(2) -0.4707(2)
C19 C -0.4015(4) 0.6071(2) -0.4258(2)
C20 C -0.3548(4) 0.6877(2) -0.3874(2)
C21 C -0.2880(4) 0.7824(2) -0.3412(1)
C22 C -0.3250(4) 0.8622(2) -0.3517(2)
C23 C -0.2516(4) 0.9534(2) -0.3066(2)
C24 C -0.1431(4) 0.9637(3) -0.2522(2)
C25 C -0.1084(4) 0.8852(3) -0.2414(2)
C26 C -0.1794(4) 0.7942(2) -0.2854(2)
C27 C -0.3895(4) 0.4407(2) -0.4531(2)
C28 C -0.3383(4) 0.3821(2) -0.4367(2)
C29 C -0.2751(4) 0.3158(2) -0.4144(2)
C30 C -0.1728(4) 0.3496(3) -0.3535(2)
C31 C -0.1098(4) 0.2860(3) -0.3313(2)
C32 C -0.1489(4) 0.1902(3) -0.3688(2)
C33 C -0.2487(4) 0.1562(3) -0.4286(2)
C34 C -0.3128(4) 0.2195(2) -0.4518(2)
H11 H -0.4003 0.8546 -0.3895
H12 H -0.2762 1.0090 -0.3132
H13 H -0.0916 1.0268 -0.2217
H14 H -0.0343 0.8935 -0.2031
H15 H -0.1546 0.7392 -0.2778
H16 H -0.1467 0.4165 -0.3274
H17 H -0.0391 0.3086 -0.2899
H18 H -0.1058 0.1463 -0.3529
H19 H -0.2742 0.0892 -0.4543
H20 H -0.3826 0.1961 -0.4935
C18A C -0.5504(4) 0.4885(2) -0.5293(2)
C19A C -0.5985(4) 0.3929(2) -0.5742(2)
C27A C -0.6105(4) 0.5593(2) -0.5469(2)
C20A C -0.6452(4) 0.3123(2) -0.6126(2)
C28A C -0.6617(4) 0.6179(2) -0.5633(2)
C21A C -0.7120(4) 0.2176(2) -0.6588(1)
C29A C -0.7249(4) 0.6842(2) -0.5856(2)
C22A C -0.6750(4) 0.1378(2) -0.6483(2)
C26A C -0.8206(4) 0.2058(2) -0.7146(2)
C30A C -0.8272(4) 0.6504(3) -0.6465(2)
C34A C -0.6872(4) 0.7805(2) -0.5482(2)
C23A C -0.7484(4) 0.0466(2) -0.6934(2)
H11A H -0.5997 0.1454 -0.6105
C25A C -0.8916(4) 0.1148(3) -0.7586(2)
H15A H -0.8454 0.2608 -0.7222
C31A C -0.8902(4) 0.7140(3) -0.6687(2)
H16A H -0.8533 0.5835 -0.6726
C33A C -0.7513(4) 0.8438(3) -0.5714(2)
H20A H -0.6174 0.8039 -0.5065
C24A C -0.8569(4) 0.0363(3) -0.7478(2)
H12A H -0.7238 -0.0090 -0.6868
H14A H -0.9657 0.1065 -0.7969
C32A C -0.8511(4) 0.8098(3) -0.6312(2)
H17A H -0.9609 0.6914 -0.7101
H19A H -0.7258 0.9108 -0.5457
H13A H -0.9084 -0.0268 -0.7783
H18A H -0.8942 0.8537 -0.6471
C35 C -0.9385(4) -0.1451(2) -0.4114(1)
C36 C -0.8301(4) -0.1042(2) -0.3535(2)
C37 C -0.7653(4) -0.1669(2) -0.3308(1)
N1 N -0.6542(3) -0.1263(2) -0.2676(1)
O1 O -0.6197(3) -0.0388(2) -0.2400(1)
O2 O -0.6028(3) -0.1818(2) -0.2459(1)
C38 C -0.8043(4) -0.2642(2) -0.3642(2)
C39 C -0.9126(4) -0.3042(2) -0.4233(2)
C40 C -0.9816(4) -0.2444(2) -0.4477(1)
C41 C -1.1012(4) -0.2604(2) -0.5080(1)
C42 C -1.1802(4) -0.3363(2) -0.5652(2)
N2 N -1.1652(3) -0.4356(2) -0.5796(1)
O3 O -1.0910(3) -0.4546(2) -0.5377(1)
O4 O -1.2294(3) -0.4945(2) -0.6331(1)
C43 C -1.2778(4) -0.3223(2) -0.6142(2)
C44 C -1.2987(4) -0.2319(2) -0.6061(1)
N3 N -1.3962(3) -0.2167(2) -0.6593(1)
O5 O -1.4619(3) -0.2870(2) -0.7079(1)
O6 O -1.4051(3) -0.1348(2) -0.6524(1)
C45 C -1.2266(4) -0.1545(2) -0.5507(1)
C46 C -1.1302(4) -0.1705(2) -0.5036(1)
C47 C -1.0300(4) -0.0943(2) -0.4436(1)
O7 O -1.0250(3) -0.0097(2) -0.4263(1)
H21 H -0.8012 -0.0363 -0.3302
H22 H -0.7566 -0.3050 -0.3466
H23 H -0.9389 -0.3721 -0.4468
H24 H -1.3301 -0.3751 -0.6532
H25 H -1.2430 -0.0919 -0.5453
C48 C -0.6775(4) -0.3492(2) -0.0483(2)
C49 C -0.7832(4) -0.3916(2) -0.1062(2)
C50 C -0.8168(4) -0.3291(3) -0.1387(2)
N4 N -0.9250(4) -0.3710(2) -0.2012(1)
O8 O -0.9848(3) -0.4580(2) -0.2224(1)
O9 O -0.9522(3) -0.3177(2) -0.2313(1)
C51 C -0.7453(4) -0.2308(2) -0.1134(2)
C52 C -0.6386(4) -0.1900(2) -0.0555(2)
C53 C -0.6015(4) -0.2492(2) -0.0217(2)
C54 C -0.4897(4) -0.2310(2) 0.0394(2)
C55 C -0.3790(4) -0.1497(2) 0.0877(2)
N5 N -0.3670(3) -0.0519(2) 0.0877(1)
O10 O -0.4922(3) -0.0346(2) 0.0657(1)
O11 O -0.2321(3) 0.0090(2) 0.1119(1)
C56 C -0.2862(4) -0.1587(3) 0.1386(2)
C57 C -0.2990(4) -0.2479(2) 0.1445(2)
N6 N -0.2029(3) -0.2581(2) 0.1996(1)
O12 O -0.1224(3) -0.1820(2) 0.2432(1)
O13 O -0.2042(3) -0.3375(2) 0.2007(1)
C58 C -0.4049(4) -0.3309(2) 0.0989(2)
C59 C -0.4969(4) -0.3203(2) 0.0484(2)
C60 C -0.6230(4) -0.3980(2) -0.0048(2)
O14 O -0.6738(3) -0.4820(2) -0.0089(1)
H26 H -0.8316 -0.4598 -0.1235
H27 H -0.7711 -0.1903 -0.1370
H28 H -0.5902 -0.1217 -0.0385
H29 H -0.2119 -0.1026 0.1703
H30 H -0.4129 -0.3932 0.1029
loop_
_geom_bond_atom_site_label_1
_geom_bond_atom_site_label_2
_geom_bond_site_symmetry_1
_geom_bond_site_symmetry_2
C1 C2 1_555 1_555
C2 C3 1_555 1_555
C3 C4 1_555 1_555
C4 C5 1_555 1_555
C5 C6 1_555 1_555
C6 C7 1_555 1_555
C7 C8 1_555 1_555
C8 C9 1_555 1_555
C9 C4 1_555 1_555
C10 C1 1_555 1_555
C11 C10 1_555 1_555
C12 C11 1_555 1_555
C13 C12 1_555 1_555
C14 C13 1_555 1_555
C15 C14 1_555 1_555
C16 C15 1_555 1_555
C17 C12 1_555 1_555
H1 C5 1_555 1_555
H2 C6 1_555 1_555
H3 C7 1_555 1_555
H4 C8 1_555 1_555
H5 C9 1_555 1_555
H6 C13 1_555 1_555
H7 C14 1_555 1_555
H8 C15 1_555 1_555
H9 C16 1_555 1_555
H10 C17 1_555 1_555
C18 C19 1_555 1_555
C19 C20 1_555 1_555
C20 C21 1_555 1_555
C21 C22 1_555 1_555
C22 C23 1_555 1_555
C23 C24 1_555 1_555
C24 C25 1_555 1_555
C25 C26 1_555 1_555
C26 C21 1_555 1_555
C27 C18 1_555 1_555
C28 C27 1_555 1_555
C29 C28 1_555 1_555
C30 C29 1_555 1_555
C31 C30 1_555 1_555
C32 C31 1_555 1_555
C33 C32 1_555 1_555
C34 C29 1_555 1_555
H11 C22 1_555 1_555
H12 C23 1_555 1_555
H13 C24 1_555 1_555
H14 C25 1_555 1_555
H15 C26 1_555 1_555
H16 C30 1_555 1_555
H17 C31 1_555 1_555
H18 C32 1_555 1_555
H19 C33 1_555 1_555
H20 C34 1_555 1_555
C35 C36 1_555 1_555
C36 C37 1_555 1_555
C37 N1 1_555 1_555
N1 O1 1_555 1_555
O2 N1 1_555 1_555
C38 C37 1_555 1_555
C39 C38 1_555 1_555
C40 C35 1_555 1_555
C41 C40 1_555 1_555
C42 C41 1_555 1_555
N2 C42 1_555 1_555
O3 N2 1_555 1_555
O4 N2 1_555 1_555
C43 C42 1_555 1_555
C44 C43 1_555 1_555
N3 C44 1_555 1_555
O5 N3 1_555 1_555
O6 N3 1_555 1_555
C45 C44 1_555 1_555
C46 C41 1_555 1_555
C47 C35 1_555 1_555
O7 C47 1_555 1_555
H21 C36 1_555 1_555
H22 C38 1_555 1_555
H23 C39 1_555 1_555
H24 C43 1_555 1_555
H25 C45 1_555 1_555
C48 C49 1_555 1_555
C49 C50 1_555 1_555
C50 N4 1_555 1_555
N4 O8 1_555 1_555
O9 N4 1_555 1_555
C51 C50 1_555 1_555
C52 C51 1_555 1_555
C53 C48 1_555 1_555
C54 C53 1_555 1_555
C55 C54 1_555 1_555
N5 C55 1_555 1_555
O10 N5 1_555 1_555
O11 N5 1_555 1_555
C56 C55 1_555 1_555
C57 C56 1_555 1_555
N6 C57 1_555 1_555
O12 N6 1_555 1_555
O13 N6 1_555 1_555
C58 C57 1_555 1_555
C59 C54 1_555 1_555
C60 C48 1_555 1_555
O14 C60 1_555 1_555
H26 C49 1_555 1_555
H27 C51 1_555 1_555
H28 C52 1_555 1_555
H29 C56 1_555 1_555
H30 C58 1_555 1_555
C1A C1 1_555 1_555
C2A C1A 1_555 1_555
C10A C1A 1_555 1_555
C3A C2A 1_555 1_555
C11A C10A 1_555 1_555
C4A C3A 1_555 1_555
C12A C11A 1_555 1_555
C5A C4A 1_555 1_555
C9A C4A 1_555 1_555
C13A C12A 1_555 1_555
C17A C12A 1_555 1_555
C6A C5A 1_555 1_555
H1A C5A 1_555 1_555
C8A C9A 1_555 1_555
H5A C9A 1_555 1_555
C14A C13A 1_555 1_555
H6A C13A 1_555 1_555
C16A C17A 1_555 1_555
H10A C17A 1_555 1_555
C7A C6A 1_555 1_555
H2A C6A 1_555 1_555
H4A C8A 1_555 1_555
C15A C14A 1_555 1_555
H7A C14A 1_555 1_555
H9A C16A 1_555 1_555
H3A C7A 1_555 1_555
H8A C15A 1_555 1_555
C18A C18 1_555 1_555
C19A C18A 1_555 1_555
C27A C18A 1_555 1_555
C20A C19A 1_555 1_555
C28A C27A 1_555 1_555
C21A C20A 1_555 1_555
C29A C28A 1_555 1_555
C22A C21A 1_555 1_555
C26A C21A 1_555 1_555
C30A C29A 1_555 1_555
C34A C29A 1_555 1_555
C23A C22A 1_555 1_555
H11A C22A 1_555 1_555
C25A C26A 1_555 1_555
H15A C26A 1_555 1_555
C31A C30A 1_555 1_555
H16A C30A 1_555 1_555
C33A C34A 1_555 1_555
H20A C34A 1_555 1_555
C24A C23A 1_555 1_555
H12A C23A 1_555 1_555
H14A C25A 1_555 1_555
C32A C31A 1_555 1_555
H17A C31A 1_555 1_555
H19A C33A 1_555 1_555
H13A C24A 1_555 1_555
H18A C32A 1_555 1_555
C16 C17 1_555 1_555
C33 C34 1_555 1_555
C39 C40 1_555 1_555
C45 C46 1_555 1_555
C46 C47 1_555 1_555
C52 C53 1_555 1_555
C58 C59 1_555 1_555
C59 C60 1_555 1_555
C8A C7A 1_555 1_555
C16A C15A 1_555 1_555
C25A C24A 1_555 1_555
C33A C32A 1_555 1_555

#END
