
#######################################################################
#
#                 Cambridge Crystallographic Data Centre
#                                CCDC 
#
#######################################################################
#
# If this CIF has been generated from an entry in the Cambridge 
# Structural Database, then it will include bibliographic, chemical, 
# crystal, experimental, refinement or atomic coordinate data resulting 
# from the CCDC's data processing and validation procedures.
#
#######################################################################

data_HAYCUF
_chemical_formula_moiety         '2(C16 H5 N5 O6),C34 H20,2(C1 H2 Cl2)'
_chemical_name_systematic        
'bis((2,4,7-Trinitrofluoren-9-ylidene)malonitrile) tetrakis(phenylethynyl)ethene dichloromethane solvate'
_symmetry_cell_setting           triclinic
_symmetry_space_group_name_H-M   'P -1'
_symmetry_Int_Tables_number      2
_space_group_name_Hall           '-P 1'
loop_
_symmetry_equiv_pos_site_id
_symmetry_equiv_pos_as_xyz
1 x,y,z
2 -x,-y,-z
_cell_length_a                   8.640(3)
_cell_length_b                   13.363(2)
_cell_length_c                   14.101(8)
_cell_angle_alpha                82.47(3)
_cell_angle_beta                 72.20(4)
_cell_angle_gamma                74.15(2)
_cell_volume                     1489.17
_exptl_crystal_colour            green
_cell_formula_units_Z            1
loop_
_atom_site_label
_atom_site_type_symbol
_atom_site_fract_x
_atom_site_fract_y
_atom_site_fract_z
C1 C 0.5190(4) 0.0475(3) 0.9943(2)
C2 C 0.5694(4) 0.0839(2) 1.0675(2)
C3 C 0.6119(4) 0.1202(3) 1.1265(2)
C4 C 0.6610(4) 0.1654(3) 1.1956(2)
C5 C 0.6736(4) 0.1116(3) 1.2864(2)
C6 C 0.7207(4) 0.1567(3) 1.3532(2)
C7 C 0.7547(4) 0.2531(3) 1.3308(3)
C8 C 0.7412(4) 0.3073(3) 1.2411(3)
C9 C 0.6947(4) 0.2637(3) 1.1735(2)
C10 C 0.5080(4) 0.1144(3) 0.9081(2)
C11 C 0.5011(4) 0.1733(3) 0.8370(2)
C12 C 0.4973(4) 0.2398(3) 0.7493(2)
C13 C 0.5437(4) 0.3335(3) 0.7378(3)
C14 C 0.5445(5) 0.3955(3) 0.6497(3)
C15 C 0.5015(4) 0.3625(3) 0.5749(3)
C16 C 0.4554(5) 0.2702(3) 0.5861(3)
C17 C 0.4527(4) 0.2084(3) 0.6723(3)
H1 H 0.6505 0.0441 1.3018
H2 H 0.7294 0.1204 1.4155
H3 H 0.7880 0.2833 1.3773
H4 H 0.7633 0.3751 1.2263
H5 H 0.6861 0.3003 1.1113
H6 H 0.5747 0.3551 0.7902
H7 H 0.5744 0.4609 0.6414
H8 H 0.5032 0.4047 0.5142
H9 H 0.4256 0.2484 0.5333
H10 H 0.4210 0.1436 0.6803
C1A C 0.4810(4) -0.0475(3) 1.0057(2)
C2A C 0.4306(4) -0.0839(2) 0.9325(2)
C10A C 0.4920(4) -0.1144(3) 1.0919(2)
C3A C 0.3881(4) -0.1202(3) 0.8735(2)
C11A C 0.4989(4) -0.1733(3) 1.1630(2)
C4A C 0.3390(4) -0.1654(3) 0.8044(2)
C12A C 0.5027(4) -0.2398(3) 1.2507(2)
C5A C 0.3264(4) -0.1116(3) 0.7136(2)
C9A C 0.3053(4) -0.2637(3) 0.8265(2)
C13A C 0.4563(4) -0.3335(3) 1.2622(3)
C17A C 0.5473(4) -0.2084(3) 1.3277(3)
C6A C 0.2793(4) -0.1567(3) 0.6468(2)
H1A H 0.3495 -0.0441 0.6982
C8A C 0.2588(4) -0.3073(3) 0.7589(3)
H5A H 0.3139 -0.3003 0.8887
C14A C 0.4555(5) -0.3955(3) 1.3503(3)
H6A H 0.4253 -0.3551 1.2098
C16A C 0.5446(5) -0.2702(3) 1.4139(3)
H10A H 0.5790 -0.1436 1.3197
C7A C 0.2453(4) -0.2531(3) 0.6692(3)
H2A H 0.2706 -0.1204 0.5845
H4A H 0.2367 -0.3751 0.7737
C15A C 0.4985(4) -0.3625(3) 1.4251(3)
H7A H 0.4256 -0.4609 1.3586
H9A H 0.5744 -0.2484 1.4667
H3A H 0.2120 -0.2833 0.6227
H8A H 0.4968 -0.4047 1.4858
C18 C 0.1641(4) 0.0785(3) 0.2746(2)
C19 C 0.1499(4) -0.0058(3) 0.3417(2)
C20 C 0.0935(4) -0.0836(3) 0.3166(2)
N1 N 0.0764(3) -0.1735(2) 0.3875(2)
O1 O 0.1052(3) -0.1730(2) 0.4674(2)
O2 O 0.0293(3) -0.2431(2) 0.3642(2)
C21 C 0.0526(4) -0.0797(3) 0.2283(2)
C22 C 0.0654(4) 0.0056(3) 0.1621(2)
C23 C 0.1224(4) 0.0855(3) 0.1842(2)
C24 C 0.1468(3) 0.1855(3) 0.1311(2)
C25 C 0.1249(4) 0.2369(3) 0.0416(2)
N2 N 0.0655(3) 0.1929(2) -0.0271(2)
O3 O 0.1107(3) 0.0999(2) -0.0367(2)
O4 O -0.0256(4) 0.2547(2) -0.0718(2)
C26 C 0.1610(4) 0.3322(3) 0.0103(2)
C27 C 0.2224(4) 0.3774(3) 0.0687(2)
N3 N 0.2654(4) 0.4774(2) 0.0342(2)
O5 O 0.2315(4) 0.5203(2) -0.0416(2)
O6 O 0.3326(3) 0.5119(2) 0.0831(2)
C28 C 0.2445(4) 0.3318(3) 0.1596(2)
C29 C 0.2042(4) 0.2378(3) 0.1902(2)
C30 C 0.2151(4) 0.1728(3) 0.2820(2)
C31 C 0.2623(4) 0.1968(2) 0.3583(2)
C32 C 0.3003(4) 0.2931(3) 0.3629(2)
N4 N 0.3281(4) 0.3707(2) 0.3702(2)
C33 C 0.2805(4) 0.1262(3) 0.4430(2)
N5 N 0.2983(4) 0.0739(3) 0.5118(2)
H11 H 0.1772 -0.0102 0.4034
H12 H 0.0158 -0.1359 0.2134
H13 H 0.0359 0.0097 0.1011
H14 H 0.1426 0.3668 -0.0509
H15 H 0.2858 0.3651 0.1997
Cl1 Cl 0.1061(1) 0.5629(1) 0.5645(1)
Cl2 Cl 0.0794(1) 0.4465(1) 0.7555(1)
C34 C 0.0476(5) 0.4539(3) 0.6369(3)
H16 H 0.1148 0.3919 0.6033
H17 H -0.0687 0.4594 0.6445
loop_
_geom_bond_atom_site_label_1
_geom_bond_atom_site_label_2
_geom_bond_site_symmetry_1
_geom_bond_site_symmetry_2
C1 C2 1_555 1_555
C2 C3 1_555 1_555
C3 C4 1_555 1_555
C4 C5 1_555 1_555
C5 C6 1_555 1_555
C6 C7 1_555 1_555
C7 C8 1_555 1_555
C8 C9 1_555 1_555
C9 C4 1_555 1_555
C10 C1 1_555 1_555
C11 C10 1_555 1_555
C12 C11 1_555 1_555
C13 C12 1_555 1_555
C14 C13 1_555 1_555
C15 C14 1_555 1_555
C16 C15 1_555 1_555
C17 C12 1_555 1_555
H1 C5 1_555 1_555
H2 C6 1_555 1_555
H3 C7 1_555 1_555
H4 C8 1_555 1_555
H5 C9 1_555 1_555
H6 C13 1_555 1_555
H7 C14 1_555 1_555
H8 C15 1_555 1_555
H9 C16 1_555 1_555
H10 C17 1_555 1_555
C18 C19 1_555 1_555
C19 C20 1_555 1_555
C20 N1 1_555 1_555
N1 O1 1_555 1_555
O2 N1 1_555 1_555
C21 C20 1_555 1_555
C22 C21 1_555 1_555
C23 C18 1_555 1_555
C24 C23 1_555 1_555
C25 C24 1_555 1_555
N2 C25 1_555 1_555
O3 N2 1_555 1_555
O4 N2 1_555 1_555
C26 C25 1_555 1_555
C27 C26 1_555 1_555
N3 C27 1_555 1_555
O5 N3 1_555 1_555
O6 N3 1_555 1_555
C28 C27 1_555 1_555
C29 C24 1_555 1_555
C30 C18 1_555 1_555
C31 C30 1_555 1_555
C32 C31 1_555 1_555
N4 C32 1_555 1_555
C33 C31 1_555 1_555
N5 C33 1_555 1_555
H11 C19 1_555 1_555
H12 C21 1_555 1_555
H13 C22 1_555 1_555
H14 C26 1_555 1_555
H15 C28 1_555 1_555
Cl1 C34 1_555 1_555
Cl2 C34 1_555 1_555
C34 H16 1_555 1_555
H17 C34 1_555 1_555
C1A C1 1_555 1_555
C2A C1A 1_555 1_555
C10A C1A 1_555 1_555
C3A C2A 1_555 1_555
C11A C10A 1_555 1_555
C4A C3A 1_555 1_555
C12A C11A 1_555 1_555
C5A C4A 1_555 1_555
C9A C4A 1_555 1_555
C13A C12A 1_555 1_555
C17A C12A 1_555 1_555
C6A C5A 1_555 1_555
H1A C5A 1_555 1_555
C8A C9A 1_555 1_555
H5A C9A 1_555 1_555
C14A C13A 1_555 1_555
H6A C13A 1_555 1_555
C16A C17A 1_555 1_555
H10A C17A 1_555 1_555
C7A C6A 1_555 1_555
H2A C6A 1_555 1_555
H4A C8A 1_555 1_555
C15A C14A 1_555 1_555
H7A C14A 1_555 1_555
H9A C16A 1_555 1_555
H3A C7A 1_555 1_555
H8A C15A 1_555 1_555
C16 C17 1_555 1_555
C22 C23 1_555 1_555
C28 C29 1_555 1_555
C29 C30 1_555 1_555
C8A C7A 1_555 1_555
C16A C15A 1_555 1_555

#END
