
#######################################################################
#
#                 Cambridge Crystallographic Data Centre
#                                CCDC 
#
#######################################################################
#
# If this CIF has been generated from an entry in the Cambridge 
# Structural Database, then it will include bibliographic, chemical, 
# crystal, experimental, refinement or atomic coordinate data resulting 
# from the CCDC's data processing and validation procedures.
#
#######################################################################

data_HAYDES01
_chemical_formula_moiety         'C64 H52 N16 Na4 O20'
_chemical_name_systematic        
tetrakis[\m~3~-4-nitro-N-(5-phenyl-1,3,4-oxadiazol-2-yl)benzamidato]-tetrakis(methanol)-tetra-sodium(i)
_symmetry_cell_setting           tetragonal
_symmetry_space_group_name_H-M   'I 41/a'
_symmetry_Int_Tables_number      88
_space_group_name_Hall           '-I 4ad'
loop_
_symmetry_equiv_pos_site_id
_symmetry_equiv_pos_as_xyz
1 x,y,z
2 3/4-y,1/4+x,1/4+z
3 -x,1/2-y,z
4 1/4+y,1/4-x,1/4+z
5 1/2+x,1/2+y,1/2+z
6 1/4-y,3/4+x,3/4+z
7 1/2-x,-y,1/2+z
8 3/4+y,3/4-x,3/4+z
9 -x,-y,-z
10 1/4+y,3/4-x,3/4-z
11 x,1/2+y,-z
12 3/4-y,3/4+x,3/4-z
13 1/2-x,1/2-y,1/2-z
14 3/4+y,1/4-x,1/4-z
15 1/2+x,y,1/2-z
16 1/4-y,1/4+x,1/4-z
_cell_length_a                   15.6635(2)
_cell_length_b                   15.6635(2)
_cell_length_c                   27.1833(6)
_cell_angle_alpha                90
_cell_angle_beta                 90
_cell_angle_gamma                90
_cell_volume                     6669.29
_exptl_crystal_colour            colorless
_exptl_crystal_description       block
_cell_formula_units_Z            4
loop_
_atom_site_label
_atom_site_type_symbol
_atom_site_fract_x
_atom_site_fract_y
_atom_site_fract_z
Na1 Na 0.83748(4) 0.26324(4) 0.11911(2)
O1 O 0.85910(8) 0.13991(7) 0.16902(4)
O2 O 0.90153(7) 0.31903(7) 0.27519(4)
O3 O 0.65522(12) -0.23034(10) 0.22897(7)
O4 O 0.63373(12) -0.18639(10) 0.30241(6)
O5 O 0.69874(9) 0.29271(10) 0.14628(5)
H1 H 0.6938(13) 0.2932(16) 0.1773(3)
N1 N 0.90347(9) 0.30288(9) 0.19472(5)
N2 N 0.93939(9) 0.38225(9) 0.20680(5)
N3 N 0.84467(9) 0.19219(8) 0.24835(5)
C1 C 1.00589(13) 0.52826(12) 0.26187(9)
H2 H 1.0161 0.5274 0.2282
C2 C 1.03166(15) 0.59702(14) 0.28927(12)
H3 H 1.0593 0.6426 0.2742
C3 C 1.01644(15) 0.59842(15) 0.33943(12)
H4 H 1.0341 0.6448 0.3582
C4 C 0.97544(15) 0.53153(15) 0.36130(9)
H5 H 0.9649 0.5329 0.3950
C5 C 0.94954(13) 0.46210(12) 0.33403(7)
H6 H 0.9219 0.4167 0.3492
C6 C 0.96483(10) 0.46020(10) 0.28401(7)
C7 C 0.93688(10) 0.38873(10) 0.25373(6)
C8 C 0.88199(10) 0.26667(10) 0.23605(6)
C9 C 0.83531(10) 0.13374(10) 0.21273(6)
C10 C 0.79134(10) 0.05235(10) 0.22781(6)
C11 C 0.76375(13) 0.03611(11) 0.27529(7)
H7 H 0.7734 0.0763 0.2998
C12 C 0.72214(13) -0.03911(12) 0.28662(7)
H8 H 0.7033 -0.0496 0.3185
C13 C 0.70909(11) -0.09794(10) 0.25015(7)
C14 C 0.73597(13) -0.08450(12) 0.20282(7)
H9 H 0.7268 -0.1254 0.1786
C15 C 0.77700(12) -0.00895(12) 0.19195(7)
H10 H 0.7954 0.0011 0.1599
N4 N 0.66286(11) -0.17717(10) 0.26138(7)
C16 C 0.61860(15) 0.30244(17) 0.12369(9)
H11 H 0.6260 0.3257 0.0913
H12 H 0.5840 0.3404 0.1429
H13 H 0.5911 0.2478 0.1214
Na1M Na 1.01324(4) 0.41252(4) 0.13089(2)
Na1O Na 0.98676(4) 0.08748(4) 0.13089(2)
Na1B Na 1.16252(4) 0.23676(4) 0.11911(2)
O1M O 0.88991(7) 0.39090(8) 0.08098(4)
O1O O 1.11009(7) 0.10910(8) 0.08098(4)
O1B O 1.14090(8) 0.36009(7) 0.16902(4)
O2M O 1.06903(7) 0.34847(7) -0.02519(4)
O2O O 0.93097(7) 0.15153(7) -0.02519(4)
O2B O 1.09847(7) 0.18097(7) 0.27519(4)
O3M O 0.51966(10) 0.59478(12) 0.02103(7)
O3O O 1.48034(10) -0.09478(12) 0.02103(7)
O3B O 1.34478(12) 0.73034(10) 0.22897(7)
O4M O 0.56361(10) 0.61627(12) -0.05241(6)
O4O O 1.43639(10) -0.11627(12) -0.05241(6)
O4B O 1.36627(12) 0.68639(10) 0.30241(6)
O5M O 1.04271(10) 0.55126(9) 0.10372(5)
O5O O 0.95729(10) -0.05126(9) 0.10372(5)
O5B O 1.30126(9) 0.20729(10) 0.14628(5)
H1M H 1.0432(16) 0.5562(13) 0.0727(3)
H1O H 0.9568(16) -0.0562(13) 0.0727(3)
H1B H 1.3062(13) 0.2068(16) 0.1773(3)
N1M N 1.05288(9) 0.34653(9) 0.05528(5)
N1O N 0.94712(9) 0.15347(9) 0.05528(5)
N1B N 1.09653(9) 0.19712(9) 0.19472(5)
N2M N 1.13225(9) 0.31061(9) 0.04320(5)
N2O N 0.86775(9) 0.18939(9) 0.04320(5)
N2B N 1.06061(9) 0.11775(9) 0.20680(5)
N3M N 0.94219(8) 0.40533(9) 0.00165(5)
N3O N 1.05781(8) 0.09467(9) 0.00165(5)
N3B N 1.15533(9) 0.30781(8) 0.24835(5)
C1M C 1.27826(12) 0.24411(13) -0.01187(9)
C1O C 0.72174(12) 0.25589(13) -0.01187(9)
C1B C 0.99411(13) -0.02826(12) 0.26187(9)
H2M H 1.2774 0.2339 0.0218
H2O H 0.7226 0.2661 0.0218
H2B H 0.9839 -0.0274 0.2282
C2M C 1.34702(14) 0.21834(15) -0.03927(12)
C2O C 0.65298(14) 0.28166(15) -0.03927(12)
C2B C 0.96834(15) -0.09702(14) 0.28927(12)
H3M H 1.3926 0.1907 -0.0242
H3O H 0.6074 0.3093 -0.0242
H3B H 0.9407 -0.1426 0.2742
C3M C 1.34842(15) 0.23356(15) -0.08943(12)
C3O C 0.65158(15) 0.26644(15) -0.08943(12)
C3B C 0.98356(15) -0.09842(15) 0.33943(12)
H4M H 1.3948 0.2159 -0.1082
H4O H 0.6052 0.2841 -0.1082
H4B H 0.9659 -0.1448 0.3582
C4M C 1.28153(15) 0.27456(15) -0.11130(9)
C4O C 0.71847(15) 0.22544(15) -0.11130(9)
C4B C 1.02456(15) -0.03153(15) 0.36130(9)
H5M H 1.2829 0.2851 -0.1450
H5O H 0.7171 0.2149 -0.1450
H5B H 1.0351 -0.0329 0.3950
C5M C 1.21210(12) 0.30046(13) -0.08403(7)
C5O C 0.78790(12) 0.19954(13) -0.08403(7)
C5B C 1.05046(13) 0.03790(12) 0.33403(7)
H6M H 1.1667 0.3281 -0.0992
H6O H 0.8333 0.1719 -0.0992
H6B H 1.0781 0.0833 0.3492
C6M C 1.21020(10) 0.28517(10) -0.03401(7)
C6O C 0.78980(10) 0.21483(10) -0.03401(7)
C6B C 1.03517(10) 0.03980(10) 0.28401(7)
C7M C 1.13873(10) 0.31312(10) -0.00373(6)
C7O C 0.86127(10) 0.18688(10) -0.00373(6)
C7B C 1.06312(10) 0.11127(10) 0.25373(6)
C8M C 1.01667(10) 0.36801(10) 0.01395(6)
C8O C 0.98333(10) 0.13199(10) 0.01395(6)
C8B C 1.11801(10) 0.23333(10) 0.23605(6)
C9M C 0.88374(10) 0.41469(10) 0.03727(6)
C9O C 1.11626(10) 0.08531(10) 0.03727(6)
C9B C 1.16469(10) 0.36626(10) 0.21273(6)
C10M C 0.80235(10) 0.45866(10) 0.02219(6)
C10O C 1.19765(10) 0.04134(10) 0.02219(6)
C10B C 1.20866(10) 0.44765(10) 0.22781(6)
C11M C 0.78611(11) 0.48625(13) -0.02529(7)
C11O C 1.21389(11) 0.01375(13) -0.02529(7)
C11B C 1.23625(13) 0.46389(11) 0.27529(7)
H7M H 0.8263 0.4766 -0.0498
H7O H 1.1737 0.0234 -0.0498
H7B H 1.2266 0.4237 0.2998
C12M C 0.71089(12) 0.52786(13) -0.03662(7)
C12O C 1.28911(12) -0.02786(13) -0.03662(7)
C12B C 1.27786(13) 0.53911(12) 0.28662(7)
H8M H 0.7004 0.5467 -0.0685
H8O H 1.2996 -0.0467 -0.0685
H8B H 1.2967 0.5496 0.3185
C13M C 0.65206(10) 0.54091(11) -0.00015(7)
C13O C 1.34794(10) -0.04091(11) -0.00015(7)
C13B C 1.29091(11) 0.59794(10) 0.25015(7)
C14M C 0.66550(12) 0.51403(13) 0.04718(7)
C14O C 1.33450(12) -0.01403(13) 0.04718(7)
C14B C 1.26403(13) 0.58450(12) 0.20282(7)
H9M H 0.6246 0.5232 0.0714
H9O H 1.3754 -0.0232 0.0714
H9B H 1.2732 0.6254 0.1786
C15M C 0.74105(12) 0.47300(12) 0.05805(7)
C15O C 1.25895(12) 0.02700(12) 0.05805(7)
C15B C 1.22300(12) 0.50895(12) 0.19195(7)
H10M H 0.7511 0.4546 0.0901
H10O H 1.2489 0.0454 0.0901
H10B H 1.2046 0.4989 0.1599
N4M N 0.57283(10) 0.58714(11) -0.01138(7)
N4O N 1.42717(10) -0.08714(11) -0.01138(7)
N4B N 1.33714(11) 0.67717(10) 0.26138(7)
C16M C 1.05244(17) 0.63140(15) 0.12631(9)
C16O C 0.94756(17) -0.13140(15) 0.12631(9)
C16B C 1.38140(15) 0.19756(17) 0.12369(9)
H11M H 1.0757 0.6240 0.1587
H11O H 0.9243 -0.1240 0.1587
H11B H 1.3740 0.1743 0.0913
H12M H 1.0904 0.6660 0.1071
H12O H 0.9096 -0.1660 0.1071
H12B H 1.4160 0.1596 0.1429
H13M H 0.9978 0.6589 0.1286
H13O H 1.0022 -0.1589 0.1286
H13B H 1.4089 0.2522 0.1214
loop_
_geom_bond_atom_site_label_1
_geom_bond_atom_site_label_2
_geom_bond_site_symmetry_1
_geom_bond_site_symmetry_2
Na1 O1 1_555 1_555
O1 C9 1_555 1_555
O2 C7 1_555 1_555
O3 N4 1_555 1_555
O4 N4 1_555 1_555
O5 Na1 1_555 1_555
H1 O5 1_555 1_555
N1 Na1 1_555 1_555
N2 N1 1_555 1_555
N3 C8 1_555 1_555
C1 H2 1_555 1_555
C2 C1 1_555 1_555
H3 C2 1_555 1_555
C3 C2 1_555 1_555
H4 C3 1_555 1_555
C4 C3 1_555 1_555
H5 C4 1_555 1_555
C5 C4 1_555 1_555
H6 C5 1_555 1_555
C6 C1 1_555 1_555
C7 N2 1_555 1_555
C8 O2 1_555 1_555
C9 N3 1_555 1_555
C10 C9 1_555 1_555
C11 C10 1_555 1_555
H7 C11 1_555 1_555
C12 C11 1_555 1_555
H8 C12 1_555 1_555
C13 C12 1_555 1_555
C14 C13 1_555 1_555
H9 C14 1_555 1_555
C15 C10 1_555 1_555
H10 C15 1_555 1_555
N4 C13 1_555 1_555
C16 O5 1_555 1_555
H11 C16 1_555 1_555
H12 C16 1_555 1_555
H13 C16 1_555 1_555
Na1M N1 1_555 1_555
Na1O O1 1_555 1_555
Na1B O1O 1_555 1_555
O1M Na1 1_555 1_555
O1O Na1O 1_555 1_555
O1B Na1M 1_555 1_555
O2M C7M 1_555 1_555
O2O C7O 1_555 1_555
O2B C7B 1_555 1_555
O3M N4M 1_555 1_555
O3O N4O 1_555 1_555
O3B N4B 1_555 1_555
O4M N4M 1_555 1_555
O4O N4O 1_555 1_555
O4B N4B 1_555 1_555
O5M Na1M 1_555 1_555
O5O Na1O 1_555 1_555
O5B Na1B 1_555 1_555
H1M O5M 1_555 1_555
H1O O5O 1_555 1_555
H1B O5B 1_555 1_555
N1M Na1M 1_555 1_555
N1O Na1 1_555 1_555
N1B Na1O 1_555 1_555
N2M Na1B 1_555 1_555
N2O Na1 1_555 1_555
N2B Na1O 1_555 1_555
N3M C8M 1_555 1_555
N3O C8O 1_555 1_555
N3B C8B 1_555 1_555
C1M H2M 1_555 1_555
C1O H2O 1_555 1_555
C1B H2B 1_555 1_555
C2M C1M 1_555 1_555
C2O C1O 1_555 1_555
C2B C1B 1_555 1_555
H3M C2M 1_555 1_555
H3O C2O 1_555 1_555
H3B C2B 1_555 1_555
C3M C2M 1_555 1_555
C3O C2O 1_555 1_555
C3B C2B 1_555 1_555
H4M C3M 1_555 1_555
H4O C3O 1_555 1_555
H4B C3B 1_555 1_555
C4M C3M 1_555 1_555
C4O C3O 1_555 1_555
C4B C3B 1_555 1_555
H5M C4M 1_555 1_555
H5O C4O 1_555 1_555
H5B C4B 1_555 1_555
C5M C4M 1_555 1_555
C5O C4O 1_555 1_555
C5B C4B 1_555 1_555
H6M C5M 1_555 1_555
H6O C5O 1_555 1_555
H6B C5B 1_555 1_555
C6M C1M 1_555 1_555
C6O C1O 1_555 1_555
C6B C1B 1_555 1_555
C7M N2M 1_555 1_555
C7O N2O 1_555 1_555
C7B N2B 1_555 1_555
C8M O2M 1_555 1_555
C8O O2O 1_555 1_555
C8B O2B 1_555 1_555
C9M O1M 1_555 1_555
C9O O1O 1_555 1_555
C9B O1B 1_555 1_555
C10M C9M 1_555 1_555
C10O C9O 1_555 1_555
C10B C9B 1_555 1_555
C11M C10M 1_555 1_555
C11O C10O 1_555 1_555
C11B C10B 1_555 1_555
H7M C11M 1_555 1_555
H7O C11O 1_555 1_555
H7B C11B 1_555 1_555
C12M C11M 1_555 1_555
C12O C11O 1_555 1_555
C12B C11B 1_555 1_555
H8M C12M 1_555 1_555
H8O C12O 1_555 1_555
H8B C12B 1_555 1_555
C13M C12M 1_555 1_555
C13O C12O 1_555 1_555
C13B C12B 1_555 1_555
C14M C13M 1_555 1_555
C14O C13O 1_555 1_555
C14B C13B 1_555 1_555
H9M C14M 1_555 1_555
H9O C14O 1_555 1_555
H9B C14B 1_555 1_555
C15M C10M 1_555 1_555
C15O C10O 1_555 1_555
C15B C10B 1_555 1_555
H10M C15M 1_555 1_555
H10O C15O 1_555 1_555
H10B C15B 1_555 1_555
N4M C13M 1_555 1_555
N4O C13O 1_555 1_555
N4B C13B 1_555 1_555
C16M O5M 1_555 1_555
C16O O5O 1_555 1_555
C16B O5B 1_555 1_555
H11M C16M 1_555 1_555
H11O C16O 1_555 1_555
H11B C16B 1_555 1_555
H12M C16M 1_555 1_555
H12O C16O 1_555 1_555
H12B C16B 1_555 1_555
H13M C16M 1_555 1_555
H13O C16O 1_555 1_555
H13B C16B 1_555 1_555
N1 C8 1_555 1_555
N2 Na1M 1_555 1_555
C5 C6 1_555 1_555
C6 C7 1_555 1_555
C14 C15 1_555 1_555
Na1M O1M 1_555 1_555
Na1O N1O 1_555 1_555
Na1B O1B 1_555 1_555
Na1B N1M 1_555 1_555
Na1B N1B 1_555 1_555
N1M N2M 1_555 1_555
N1M C8M 1_555 1_555
N1O N2O 1_555 1_555
N1O C8O 1_555 1_555
N1B N2B 1_555 1_555
N1B C8B 1_555 1_555
N3M C9M 1_555 1_555
N3O C9O 1_555 1_555
N3B C9B 1_555 1_555
C5M C6M 1_555 1_555
C5O C6O 1_555 1_555
C5B C6B 1_555 1_555
C6M C7M 1_555 1_555
C6O C7O 1_555 1_555
C6B C7B 1_555 1_555
C14M C15M 1_555 1_555
C14O C15O 1_555 1_555
C14B C15B 1_555 1_555

#END
