
#######################################################################
#
#                 Cambridge Crystallographic Data Centre
#                                CCDC 
#
#######################################################################
#
# If this CIF has been generated from an entry in the Cambridge 
# Structural Database, then it will include bibliographic, chemical, 
# crystal, experimental, refinement or atomic coordinate data resulting 
# from the CCDC's data processing and validation procedures.
#
#######################################################################

data_HAYQII
_chemical_formula_moiety         'C24 H20 P1 1+,Br1 1-,C1 H2 Cl2'
_chemical_name_systematic        
'Tetraphenylphosphonium bromide dichloromethane solvate'
_symmetry_cell_setting           monoclinic
_symmetry_space_group_name_H-M   'P 21/n'
_symmetry_Int_Tables_number      14
_space_group_name_Hall           '-P 2yn'
loop_
_symmetry_equiv_pos_site_id
_symmetry_equiv_pos_as_xyz
1 x,y,z
2 1/2-x,1/2+y,1/2-z
3 -x,-y,-z
4 1/2+x,1/2-y,1/2+z
_cell_length_a                   10.2403(4)
_cell_length_b                   16.8601(7)
_cell_length_c                   13.4077(5)
_cell_angle_alpha                90
_cell_angle_beta                 95.781(1)
_cell_angle_gamma                90
_cell_volume                     2303.1
_exptl_crystal_colour            colorless
_exptl_crystal_description       block
_cell_formula_units_Z            4
loop_
_atom_site_label
_atom_site_type_symbol
_atom_site_fract_x
_atom_site_fract_y
_atom_site_fract_z
P1 P 0.26329(4) 0.67939(2) 0.38246(3)
C2 C 0.12735(15) 0.62922(9) 0.31438(12)
C3 C 0.07058(16) 0.66293(11) 0.22473(12)
C4 C -0.02242(18) 0.61976(12) 0.16460(14)
C5 C -0.05989(17) 0.54475(11) 0.19313(14)
C6 C -0.00557(17) 0.51269(11) 0.28265(15)
C7 C 0.08877(16) 0.55422(10) 0.34357(13)
C8 C 0.40682(15) 0.66283(9) 0.31806(11)
C9 C 0.39408(17) 0.63224(10) 0.22038(13)
C10 C 0.50512(19) 0.62331(11) 0.17007(14)
C11 C 0.62748(18) 0.64488(10) 0.21586(14)
C12 C 0.64024(17) 0.67509(10) 0.31272(14)
C13 C 0.53084(16) 0.68402(10) 0.36439(12)
C14 C 0.29377(15) 0.64009(9) 0.50726(12)
C15 C 0.35316(16) 0.56590(10) 0.52167(13)
C16 C 0.37125(17) 0.53358(11) 0.61743(13)
C17 C 0.33123(17) 0.57490(11) 0.69807(13)
C18 C 0.27270(19) 0.64868(11) 0.68444(13)
C19 C 0.25384(17) 0.68190(10) 0.58896(12)
C20 C 0.22935(15) 0.78360(9) 0.38983(11)
C21 C 0.33245(17) 0.83868(10) 0.39711(12)
C22 C 0.30563(18) 0.91789(10) 0.41445(13)
C23 C 0.17782(19) 0.94274(10) 0.42316(13)
C24 C 0.07510(18) 0.88852(11) 0.41358(12)
C25 C 0.10032(16) 0.80862(10) 0.39749(12)
H3 H 0.0971(19) 0.7146(13) 0.2013(15)
H4 H -0.057(2) 0.6390(12) 0.1095(18)
H5 H -0.121(2) 0.5158(13) 0.1526(16)
H6 H -0.031(2) 0.4609(13) 0.3037(15)
H7 H 0.1216(19) 0.5319(11) 0.4007(15)
H8 H 0.308(2) 0.6186(12) 0.1864(16)
H9 H 0.4983(19) 0.6028(12) 0.1091(16)
H10 H 0.698(2) 0.6388(11) 0.1828(17)
H11 H 0.724(2) 0.6914(13) 0.3448(16)
H12 H 0.5422(18) 0.7041(11) 0.4297(15)
H13 H 0.3806(18) 0.5367(11) 0.4657(14)
H14 H 0.4059(19) 0.4835(12) 0.6255(15)
H15 H 0.344(2) 0.5537(12) 0.7642(16)
H16 H 0.249(2) 0.6764(13) 0.7384(16)
H17 H 0.2144(19) 0.7303(12) 0.5806(15)
H18 H 0.4199(18) 0.8226(10) 0.3941(13)
H19 H 0.3746(19) 0.9516(12) 0.4213(14)
H20 H 0.1623(18) 0.9974(12) 0.4355(14)
H21 H -0.015(2) 0.9051(12) 0.4189(14)
H22 H 0.0306(17) 0.7719(11) 0.3930(13)
Br1 Br 0.286833(16) 0.137970(10) 0.540604(12)
Cl1 Cl 0.81975(5) 0.13185(3) 0.87199(4)
Cl2 Cl 0.59098(5) 0.13186(3) 0.98709(4)
C1 C 0.6754(2) 0.18330(12) 0.89751(15)
H1 H 0.702(2) 0.2344(14) 0.9245(17)
H2 H 0.618(2) 0.1860(15) 0.8351(19)
loop_
_geom_bond_atom_site_label_1
_geom_bond_atom_site_label_2
_geom_bond_site_symmetry_1
_geom_bond_site_symmetry_2
P1 C2 1_555 1_555
Cl1 C1 1_555 1_555
Cl2 C1 1_555 1_555
C1 H1 1_555 1_555
C2 C3 1_555 1_555
C3 C4 1_555 1_555
C4 C5 1_555 1_555
C5 C6 1_555 1_555
C6 C7 1_555 1_555
C7 C2 1_555 1_555
C8 P1 1_555 1_555
C9 C8 1_555 1_555
C10 C9 1_555 1_555
C11 C10 1_555 1_555
C12 C11 1_555 1_555
C13 C8 1_555 1_555
C14 P1 1_555 1_555
C15 C14 1_555 1_555
C16 C15 1_555 1_555
C17 C16 1_555 1_555
C18 C17 1_555 1_555
C19 C14 1_555 1_555
C20 P1 1_555 1_555
C21 C20 1_555 1_555
C22 C21 1_555 1_555
C23 C22 1_555 1_555
C24 C23 1_555 1_555
C25 C20 1_555 1_555
H2 C1 1_555 1_555
H3 C3 1_555 1_555
H4 C4 1_555 1_555
H5 C5 1_555 1_555
H6 C6 1_555 1_555
H7 C7 1_555 1_555
H8 C9 1_555 1_555
H9 C10 1_555 1_555
H10 C11 1_555 1_555
H11 C12 1_555 1_555
H12 C13 1_555 1_555
H13 C15 1_555 1_555
H14 C16 1_555 1_555
H15 C17 1_555 1_555
H16 C18 1_555 1_555
H17 C19 1_555 1_555
H18 C21 1_555 1_555
H19 C22 1_555 1_555
H20 C23 1_555 1_555
H21 C24 1_555 1_555
H22 C25 1_555 1_555
C12 C13 1_555 1_555
C18 C19 1_555 1_555
C24 C25 1_555 1_555

#END
