
#######################################################################
#
#                 Cambridge Crystallographic Data Centre
#                                CCDC 
#
#######################################################################
#
# If this CIF has been generated from an entry in the Cambridge 
# Structural Database, then it will include bibliographic, chemical, 
# crystal, experimental, refinement or atomic coordinate data resulting 
# from the CCDC's data processing and validation procedures.
#
#######################################################################

data_HAYROP
_chemical_formula_moiety         'C27 H18 F6 S2'
_chemical_name_systematic        
3,3,4,4,5,5-Hexafluoro-1,2-bis(3-methyl-5-phenyl-2-thienyl)cyclopent-1-ene
_symmetry_cell_setting           monoclinic
_symmetry_space_group_name_H-M   'P 21/c'
_symmetry_Int_Tables_number      14
_space_group_name_Hall           '-P 2ybc'
loop_
_symmetry_equiv_pos_site_id
_symmetry_equiv_pos_as_xyz
1 x,y,z
2 -x,1/2+y,1/2-z
3 -x,-y,-z
4 x,1/2-y,1/2+z
_cell_length_a                   18.252(2)
_cell_length_b                   17.012(2)
_cell_length_c                   16.073(2)
_cell_angle_alpha                90
_cell_angle_beta                 103.686(3)
_cell_angle_gamma                90
_cell_volume                     4849.01
_exptl_crystal_colour            yellow
_exptl_crystal_description       rod
_chemical_melting_point          '369-370 K'
_cell_formula_units_Z            8
_chemical_properties_physical    light-sensitive
_exptl_crystal_recrystallization_method hexane
_exptl_crystal_preparation       photochromic
loop_
_atom_site_label
_atom_site_type_symbol
_atom_site_fract_x
_atom_site_fract_y
_atom_site_fract_z
S1 S 0.64262(6) 0.51859(6) 0.93620(7)
S2 S 0.40770(6) 0.59994(6) 0.59000(7)
F1 F 0.5675(4) 0.7234(4) 0.9100(4)
F2 F 0.6736(3) 0.6831(5) 0.8914(5)
F3 F 0.5755(4) 0.8235(2) 0.7967(4)
F4 F 0.6562(3) 0.7572(3) 0.7502(3)
F5 F 0.5453(4) 0.7254(5) 0.6263(4)
F6 F 0.4635(4) 0.7506(6) 0.7032(5)
C1 C 0.7136(3) 0.3977(3) 1.0772(3)
H1 H 0.7380 0.4430 1.0658
C2 C 0.7511(3) 0.3460(3) 1.1393(3)
H2 H 0.8002 0.3570 1.1692
C3 C 0.7170(4) 0.2800(3) 1.1567(3)
H3 H 0.7423 0.2455 1.1987
C4 C 0.6453(4) 0.2640(3) 1.1127(4)
H4 H 0.6217 0.2183 1.1247
C5 C 0.6071(3) 0.3148(3) 1.0502(3)
H5 H 0.5583 0.3027 1.0201
C6 C 0.6406(3) 0.3831(2) 1.0320(3)
C7 C 0.5989(2) 0.4381(2) 0.9672(3)
C8 C 0.5244(2) 0.4370(2) 0.9250(3)
H6 H 0.4912 0.3981 0.9340
C9 C 0.5019(2) 0.4992(2) 0.8671(2)
C10 C 0.4216(2) 0.5086(3) 0.8155(3)
H7 H 0.4107 0.5634 0.8051
H8 H 0.3877 0.4868 0.8468
H9 H 0.4155 0.4816 0.7619
C11 C 0.5605(2) 0.5489(2) 0.8652(2)
C12 C 0.5610(2) 0.6187(2) 0.8126(3)
C13 C 0.6009(3) 0.6918(3) 0.8503(3)
C14 C 0.5882(4) 0.7502(3) 0.7780(4)
C15 C 0.5310(3) 0.7143(3) 0.7048(3)
C16 C 0.5266(2) 0.6300(2) 0.7287(3)
C17 C 0.4890(2) 0.5736(2) 0.6642(3)
C18 C 0.5096(2) 0.4974(2) 0.6516(2)
C19 C 0.5781(2) 0.4549(2) 0.7013(3)
H10 H 0.6180 0.4920 0.7215
H11 H 0.5939 0.4170 0.6650
H12 H 0.5661 0.4286 0.7492
C20 C 0.4585(2) 0.4625(2) 0.5816(3)
H13 H 0.4644 0.4113 0.5639
C21 C 0.3998(2) 0.5092(2) 0.5418(2)
C22 C 0.3380(2) 0.4915(3) 0.4671(3)
C23 C 0.2888(2) 0.5489(3) 0.4262(3)
H14 H 0.2932 0.5999 0.4478
C24 C 0.2336(3) 0.5321(3) 0.3545(3)
H15 H 0.2018 0.5718 0.3273
C25 C 0.2251(3) 0.4572(4) 0.3224(3)
H16 H 0.1876 0.4462 0.2735
C26 C 0.2717(3) 0.3985(3) 0.3624(3)
H17 H 0.2656 0.3474 0.3414
C27 C 0.3280(3) 0.4158(3) 0.4343(3)
H18 H 0.3597 0.3759 0.4611
S3 S 1.08683(6) 0.67901(6) 0.38462(7)
S4 S 0.85656(6) 0.75526(6) 0.04171(7)
F7 F 0.9331(4) 0.5216(4) 0.3013(4)
F8 F 1.0499(3) 0.5222(5) 0.2956(4)
F9 F 0.9129(4) 0.4489(2) 0.1593(4)
F10 F 1.0163(2) 0.4921(2) 0.1355(2)
F11 F 0.9215(4) 0.5788(5) 0.0291(4)
F12 F 0.8390(3) 0.5745(6) 0.1036(5)
C28 C 1.1257(3) 0.8637(3) 0.5492(3)
H19 H 1.0815 0.8924 0.5308
C29 C 1.1822(3) 0.8923(3) 0.6138(3)
H20 H 1.1754 0.9402 0.6389
C30 C 1.2483(3) 0.8522(4) 0.6426(3)
H21 H 1.2860 0.8723 0.6868
C31 C 1.2582(3) 0.7814(3) 0.6048(3)
H22 H 1.3029 0.7536 0.6232
C32 C 1.2017(3) 0.7522(3) 0.5399(3)
H23 H 1.2089 0.7045 0.5148
C33 C 1.1340(3) 0.7921(2) 0.5110(2)
C34 C 1.0738(2) 0.7621(2) 0.4406(2)
C35 C 1.0035(2) 0.7919(2) 0.4083(3)
H24 H 0.9852 0.8354 0.4319
C36 C 0.9606(2) 0.7515(2) 0.3363(2)
C37 C 0.8828(2) 0.7769(3) 0.2905(3)
H25 H 0.8861 0.8150 0.2475
H26 H 0.8577 0.7997 0.3308
H27 H 0.8547 0.7321 0.2639
C38 C 0.9991(2) 0.6883(2) 0.3148(2)
C39 C 0.9752(2) 0.6355(2) 0.2424(2)
C40 C 0.9805(2) 0.5484(2) 0.2543(3)
C41 C 0.9516(3) 0.5140(3) 0.1662(3)
C42 C 0.9142(2) 0.5810(2) 0.1106(3)
C43 C 0.9439(2) 0.6537(2) 0.1595(2)
C44 C 0.9374(2) 0.7300(2) 0.1182(2)
C45 C 0.9903(2) 0.7897(2) 0.1288(2)
C46 C 1.0678(2) 0.7876(2) 0.1861(3)
H28 H 1.0665 0.8086 0.2412
H29 H 1.1012 0.8187 0.1615
H30 H 1.0856 0.7343 0.1925
C47 C 0.9632(2) 0.8543(2) 0.0755(2)
H31 H 0.9916 0.8996 0.0749
C48 C 0.8923(2) 0.8457(2) 0.0249(2)
C49 C 0.8486(2) 0.9025(2) -0.0358(3)
C50 C 0.7900(3) 0.8797(3) -0.1024(3)
H32 H 0.7767 0.8269 -0.1083
C51 C 0.7510(3) 0.9331(3) -0.1604(4)
H33 H 0.7124 0.9162 -0.2056
C52 C 0.7691(3) 1.0110(3) -0.1512(4)
H34 H 0.7425 1.0475 -0.1899
C53 C 0.8262(3) 1.0351(3) -0.0853(3)
H35 H 0.8385 1.0882 -0.0795
C54 C 0.8658(3) 0.9823(2) -0.0274(3)
H36 H 0.9043 0.9998 0.0176
F13? F 0.6020(11) 0.7034(12) 0.9334(7)
F14? F 0.6752(6) 0.6770(13) 0.8495(11)
F15? F 0.5319(8) 0.7901(10) 0.8156(9)
F16? F 0.6186(12) 0.8191(9) 0.7834(16)
F17? F 0.5749(10) 0.7248(16) 0.6488(12)
F18? F 0.4658(10) 0.7518(16) 0.6698(11)
F19? F 0.9649(8) 0.5259(11) 0.3282(7)
F20? F 1.0529(7) 0.5265(13) 0.2576(10)
F21? F 0.8784(7) 0.4957(11) 0.1896(9)
F22? F 0.9477(12) 0.4378(7) 0.1543(17)
F23? F 0.9514(9) 0.5675(13) 0.0473(9)
F24? F 0.8403(6) 0.5824(16) 0.0695(11)
loop_
_geom_bond_atom_site_label_1
_geom_bond_atom_site_label_2
_geom_bond_site_symmetry_1
_geom_bond_site_symmetry_2
S1 C7 1_555 1_555
S2 C17 1_555 1_555
F1 C13 1_555 1_555
F2 C13 1_555 1_555
F3 C14 1_555 1_555
F4 C14 1_555 1_555
F5 C15 1_555 1_555
F6 C15 1_555 1_555
C1 H1 1_555 1_555
C2 C1 1_555 1_555
H2 C2 1_555 1_555
C3 C2 1_555 1_555
H3 C3 1_555 1_555
C4 C3 1_555 1_555
H4 C4 1_555 1_555
C5 C4 1_555 1_555
H5 C5 1_555 1_555
C6 C1 1_555 1_555
C7 C6 1_555 1_555
C8 C7 1_555 1_555
H6 C8 1_555 1_555
C9 C8 1_555 1_555
C10 C9 1_555 1_555
H7 C10 1_555 1_555
H8 C10 1_555 1_555
H9 C10 1_555 1_555
C11 S1 1_555 1_555
C12 C11 1_555 1_555
C13 C12 1_555 1_555
C14 C13 1_555 1_555
C15 C14 1_555 1_555
C16 C12 1_555 1_555
C17 C16 1_555 1_555
C18 C17 1_555 1_555
C19 C18 1_555 1_555
H10 C19 1_555 1_555
H11 C19 1_555 1_555
H12 C19 1_555 1_555
C20 C18 1_555 1_555
H13 C20 1_555 1_555
C21 S2 1_555 1_555
C22 C21 1_555 1_555
C23 C22 1_555 1_555
H14 C23 1_555 1_555
C24 C23 1_555 1_555
H15 C24 1_555 1_555
C25 C24 1_555 1_555
H16 C25 1_555 1_555
C26 C25 1_555 1_555
H17 C26 1_555 1_555
C27 C22 1_555 1_555
H18 C27 1_555 1_555
S3 C34 1_555 1_555
S4 C44 1_555 1_555
F7 C40 1_555 1_555
F8 C40 1_555 1_555
F9 C41 1_555 1_555
F10 C41 1_555 1_555
F11 C42 1_555 1_555
F12 C42 1_555 1_555
C28 H19 1_555 1_555
C29 C28 1_555 1_555
H20 C29 1_555 1_555
C30 C29 1_555 1_555
H21 C30 1_555 1_555
C31 C30 1_555 1_555
H22 C31 1_555 1_555
C32 C31 1_555 1_555
H23 C32 1_555 1_555
C33 C28 1_555 1_555
C34 C33 1_555 1_555
C35 C34 1_555 1_555
H24 C35 1_555 1_555
C36 C35 1_555 1_555
C37 C36 1_555 1_555
H25 C37 1_555 1_555
H26 C37 1_555 1_555
H27 C37 1_555 1_555
C38 S3 1_555 1_555
C39 C38 1_555 1_555
C40 C39 1_555 1_555
C41 C40 1_555 1_555
C42 C41 1_555 1_555
C43 C39 1_555 1_555
C44 C43 1_555 1_555
C45 C44 1_555 1_555
C46 C45 1_555 1_555
H28 C46 1_555 1_555
H29 C46 1_555 1_555
H30 C46 1_555 1_555
C47 C45 1_555 1_555
H31 C47 1_555 1_555
C48 S4 1_555 1_555
C49 C48 1_555 1_555
C50 C49 1_555 1_555
H32 C50 1_555 1_555
C51 C50 1_555 1_555
H33 C51 1_555 1_555
C52 C51 1_555 1_555
H34 C52 1_555 1_555
C53 C52 1_555 1_555
H35 C53 1_555 1_555
C54 C49 1_555 1_555
H36 C54 1_555 1_555
C5 C6 1_555 1_555
C9 C11 1_555 1_555
C15 C16 1_555 1_555
C20 C21 1_555 1_555
C26 C27 1_555 1_555
C32 C33 1_555 1_555
C36 C38 1_555 1_555
C42 C43 1_555 1_555
C47 C48 1_555 1_555
C53 C54 1_555 1_555

#END
