
#######################################################################
#
#                 Cambridge Crystallographic Data Centre
#                                CCDC 
#
#######################################################################
#
# If this CIF has been generated from an entry in the Cambridge 
# Structural Database, then it will include bibliographic, chemical, 
# crystal, experimental, refinement or atomic coordinate data resulting 
# from the CCDC's data processing and validation procedures.
#
#######################################################################

data_HAYRAB
_chemical_formula_moiety         'C18 H13 F3 N4 O2 S1'
_chemical_name_systematic        
1-(2-Methylbenzoyl)-3-(5-(4-(trifluoromethyl)phenyl)-1,3,4-thiadiazol-2-yl)urea
_symmetry_cell_setting           monoclinic
_symmetry_space_group_name_H-M   'P 21/c'
_symmetry_Int_Tables_number      14
_space_group_name_Hall           '-P 2ybc'
loop_
_symmetry_equiv_pos_site_id
_symmetry_equiv_pos_as_xyz
1 x,y,z
2 -x,1/2+y,1/2-z
3 -x,-y,-z
4 x,1/2-y,1/2+z
_cell_length_a                   16.844(2)
_cell_length_b                   7.3080(11)
_cell_length_c                   15.202(2)
_cell_angle_alpha                90
_cell_angle_beta                 104.964(2)
_cell_angle_gamma                90
_cell_volume                     1807.85
_exptl_crystal_colour            colorless
_exptl_crystal_description       plate
_chemical_melting_point          'above 573 K'
_cell_formula_units_Z            4
_exptl_crystal_recrystallization_method methanol/DMF
loop_
_atom_site_label
_atom_site_type_symbol
_atom_site_fract_x
_atom_site_fract_y
_atom_site_fract_z
C1 C 0.4589(2) 0.2881(6) 0.1156(3)
C2 C 0.38310(18) 0.3053(4) 0.1485(2)
C3 C 0.38800(18) 0.2951(5) 0.2398(2)
H1 H 0.4387 0.2769 0.2812
C4 C 0.31873(17) 0.3116(5) 0.2705(2)
H2 H 0.3227 0.3048 0.3326
C5 C 0.24247(15) 0.3385(4) 0.20959(17)
C6 C 0.23805(15) 0.3469(4) 0.11733(17)
H3 H 0.1874 0.3635 0.0756
C7 C 0.30793(17) 0.3309(4) 0.0872(2)
H4 H 0.3045 0.3374 0.0252
C8 C 0.16733(15) 0.3621(4) 0.24046(16)
C9 C 0.05870(14) 0.3674(3) 0.31192(16)
C10 C 0.00736(15) 0.2321(3) 0.43005(16)
C11 C -0.12786(16) 0.3334(4) 0.44924(18)
C12 C -0.18797(16) 0.2909(3) 0.50315(18)
C13 C -0.27285(16) 0.3010(4) 0.46206(19)
C14 C -0.32483(19) 0.2700(5) 0.5177(2)
H5 H -0.3813 0.2760 0.4924
C15 C -0.2965(2) 0.2308(5) 0.6088(2)
H6 H -0.3334 0.2127 0.6441
C16 C -0.2135(2) 0.2182(4) 0.6476(2)
H7 H -0.1938 0.1903 0.7091
C17 C -0.15977(18) 0.2478(3) 0.59421(19)
H8 H -0.1035 0.2384 0.6201
C18 C -0.30836(19) 0.3310(5) 0.3618(2)
H9 H -0.3671 0.3200 0.3476
H10 H -0.2867 0.2411 0.3282
H11 H -0.2939 0.4512 0.3456
F4 F 0.4928(6) 0.4476(9) 0.1081(9)
F5 F 0.4468(5) 0.213(2) 0.0359(8)
F6 F 0.5176(5) 0.1934(19) 0.1723(8)
N1 N 0.10694(13) 0.4637(3) 0.19789(15)
N2 N 0.04319(13) 0.4681(3) 0.23938(15)
N3 N 0.00330(12) 0.3592(3) 0.36480(14)
H12 H -0.0356 0.4388 0.3557
N4 N -0.05690(12) 0.2310(3) 0.47171(14)
H13 H -0.0518 0.1575 0.5170
O1 O 0.06396(10) 0.1240(2) 0.45253(11)
O2 O -0.13903(12) 0.4514(3) 0.39034(15)
S1 S 0.15145(4) 0.25525(9) 0.33624(4)
F1? F 0.5184(6) 0.391(2) 0.1623(12)
F2? F 0.4474(6) 0.329(2) 0.0284(7)
F3? F 0.4867(9) 0.1195(12) 0.1187(12)
loop_
_geom_bond_atom_site_label_1
_geom_bond_atom_site_label_2
_geom_bond_site_symmetry_1
_geom_bond_site_symmetry_2
C1 C2 1_555 1_555
C2 C3 1_555 1_555
C3 H1 1_555 1_555
C4 C3 1_555 1_555
H2 C4 1_555 1_555
C5 C4 1_555 1_555
C6 C5 1_555 1_555
H3 C6 1_555 1_555
C7 C2 1_555 1_555
H4 C7 1_555 1_555
C8 C5 1_555 1_555
C9 N2 1_555 1_555
C10 N3 1_555 1_555
C11 C12 1_555 1_555
C12 C13 1_555 1_555
C13 C14 1_555 1_555
C14 H5 1_555 1_555
C15 C14 1_555 1_555
H6 C15 1_555 1_555
C16 C15 1_555 1_555
H7 C16 1_555 1_555
C17 C12 1_555 1_555
H8 C17 1_555 1_555
C18 C13 1_555 1_555
H9 C18 1_555 1_555
H10 C18 1_555 1_555
H11 C18 1_555 1_555
F4 C1 1_555 1_555
F5 C1 1_555 1_555
F6 C1 1_555 1_555
N1 C8 1_555 1_555
N2 N1 1_555 1_555
N3 C9 1_555 1_555
H12 N3 1_555 1_555
N4 C10 1_555 1_555
H13 N4 1_555 1_555
O1 C10 1_555 1_555
O2 C11 1_555 1_555
S1 C8 1_555 1_555
C6 C7 1_555 1_555
C9 S1 1_555 1_555
C11 N4 1_555 1_555
C16 C17 1_555 1_555

#END
