
#######################################################################
#
#                 Cambridge Crystallographic Data Centre
#                                CCDC 
#
#######################################################################
#
# If this CIF has been generated from an entry in the Cambridge 
# Structural Database, then it will include bibliographic, chemical, 
# crystal, experimental, refinement or atomic coordinate data resulting 
# from the CCDC's data processing and validation procedures.
#
#######################################################################

data_HAYWAG
_chemical_formula_moiety         'C27 H17 F7 S2'
_chemical_name_systematic        
1-(2-Methyl-5-(2-fluorophenyl)-3-thienyl)-2-(2-methyl-5-phenyl-3-thienyl)-3,3,4,4,5,5-hexafluorocyclopent-1-ene
_symmetry_cell_setting           triclinic
_symmetry_space_group_name_H-M   'P -1'
_symmetry_Int_Tables_number      2
_space_group_name_Hall           '-P 1'
loop_
_symmetry_equiv_pos_site_id
_symmetry_equiv_pos_as_xyz
1 x,y,z
2 -x,-y,-z
_cell_length_a                   11.8563(15)
_cell_length_b                   13.7789(18)
_cell_length_c                   15.281(2)
_cell_angle_alpha                81.368(9)
_cell_angle_beta                 82.348(9)
_cell_angle_gamma                82.442(9)
_cell_volume                     2430.25
_exptl_crystal_colour            blue
_exptl_crystal_description       prism
_chemical_melting_point          '384.9-385.8 K'
_cell_formula_units_Z            4
_chemical_properties_physical    light-sensitive
_exptl_crystal_recrystallization_method chloroform
_exptl_crystal_preparation       photochromic
loop_
_atom_site_label
_atom_site_type_symbol
_atom_site_fract_x
_atom_site_fract_y
_atom_site_fract_z
S1 S 0.42549(11) 0.89928(9) 0.93578(8)
S2 S 0.18056(10) 0.86125(9) 0.63947(9)
F1 F 0.3467(3) 1.1998(2) 0.5333(2)
F2 F 0.1789(3) 1.2420(2) 0.6015(3)
F3 F 0.2598(3) 1.3203(2) 0.7176(2)
F4 F 0.3897(3) 1.3468(2) 0.6054(2)
F5 F 0.4360(3) 1.2418(2) 0.7904(2)
F6 F 0.5297(2) 1.1996(2) 0.6690(2)
F8 F -0.0335(5) 0.7798(4) 0.6942(5)
C1 C 0.3746(3) 1.1097(3) 0.7320(3)
C2 C 0.2983(3) 1.1086(3) 0.6739(3)
C3 C 0.2861(4) 1.2055(4) 0.6153(3)
C4 C 0.3414(4) 1.2758(3) 0.6606(3)
C5 C 0.4243(4) 1.2062(3) 0.7158(3)
C6 C 0.3457(4) 0.9776(3) 0.8636(3)
C7 C 0.4139(4) 1.0333(3) 0.8023(3)
C8 C 0.5315(4) 1.0116(3) 0.8158(3)
H1 H 0.5890 1.0439 0.7803
C9 C 0.5527(4) 0.9399(3) 0.8848(3)
C10 C 0.6635(4) 0.8979(3) 0.9160(3)
C11 C 0.6708(5) 0.8336(4) 0.9951(3)
H2 H 0.6013 0.8150 1.0295
C12 C 0.7752(6) 0.7974(4) 1.0240(4)
H3 H 0.7780 0.7555 1.0776
C13 C 0.8743(6) 0.8221(5) 0.9752(4)
H4 H 0.9445 0.7959 0.9944
C14 C 0.8699(5) 0.8853(5) 0.8979(4)
H5 H 0.9376 0.9029 0.8648
C15 C 0.7651(4) 0.9243(4) 0.8675(4)
H6 H 0.7634 0.9679 0.8148
C16 C 0.2176(4) 0.9796(4) 0.8766(3)
H7 H 0.1833 1.0431 0.8520
H8 H 0.1917 0.9675 0.9391
H9 H 0.1959 0.9294 0.8469
C17 C 0.2828(4) 0.9343(3) 0.6514(3)
C18 C 0.2346(4) 1.0283(3) 0.6613(3)
C19 C 0.1147(4) 1.0405(3) 0.6565(3)
H10 H 0.0695 1.1005 0.6605
C20 C 0.0719(4) 0.9575(3) 0.6457(3)
C21 C -0.0468(4) 0.9465(4) 0.6344(3)
C22 C -0.0931(5) 0.8590(4) 0.6533(4)
C23 C -0.2044(5) 0.8475(5) 0.6441(5)
H12 H -0.2322 0.7864 0.6589
C24 C -0.2721(5) 0.9297(6) 0.6124(4)
H13 H -0.3471 0.9243 0.6037
C25 C -0.2328(5) 1.0173(5) 0.5936(4)
H14 H -0.2818 1.0723 0.5739
C26 C -0.1195(4) 1.0290(4) 0.6026(3)
H15 H -0.0929 1.0906 0.5877
C27 C 0.4064(4) 0.8916(4) 0.6472(4)
H16 H 0.4543 0.9440 0.6308
H17 H 0.4222 0.8467 0.6037
H18 H 0.4217 0.8569 0.7045
S3 S 0.54161(11) 0.64446(10) 0.86747(10)
S4 S 0.90344(13) 0.60368(10) 0.56489(8)
F9 F 0.9559(4) 0.2618(2) 0.7110(3)
F10 F 0.9963(3) 0.3030(2) 0.8299(3)
F11 F 0.7906(4) 0.1785(3) 0.7798(3)
F12 F 0.8715(3) 0.1588(3) 0.8944(3)
F13 F 0.6310(3) 0.2594(2) 0.8726(3)
F14 F 0.7348(4) 0.2979(3) 0.9619(2)
F15 F 0.3248(6) 0.7366(5) 0.8174(5)
C28 C 0.7377(4) 0.3957(3) 0.8217(3)
C29 C 0.8368(4) 0.3952(3) 0.7675(3)
C30 C 0.9075(4) 0.2977(3) 0.7847(3)
C31 C 0.8270(5) 0.2305(3) 0.8366(3)
C32 C 0.7274(4) 0.2970(4) 0.8758(3)
C33 C 0.6677(4) 0.5695(3) 0.8502(3)
C34 C 0.6476(3) 0.4777(3) 0.8375(3)
C35 C 0.5278(4) 0.4692(3) 0.8429(3)
H19 H 0.4996 0.4111 0.8365
C36 C 0.4595(4) 0.5526(3) 0.8579(3)
C37 C 0.3336(4) 0.5679(4) 0.8678(3)
C38 C 0.2715(4) 0.6573(4) 0.8483(4)
C39 C 0.1554(5) 0.6743(5) 0.8560(4)
H21 H 0.1181 0.7373 0.8417
C40 C 0.0962(5) 0.5960(7) 0.8851(4)
H22 H 0.0166 0.6049 0.8909
C41 C 0.1522(5) 0.5035(6) 0.9062(4)
H23 H 0.1096 0.4508 0.9264
C42 C 0.2715(4) 0.4867(5) 0.8982(4)
H24 H 0.3088 0.4237 0.9125
C43 C 0.7794(4) 0.6084(4) 0.8534(4)
H25 H 0.8325 0.5561 0.8782
H26 H 0.7670 0.6607 0.8899
H27 H 0.8101 0.6334 0.7942
C44 C 0.8186(4) 0.5281(3) 0.6370(3)
C45 C 0.8814(4) 0.4706(3) 0.6989(3)
C46 C 0.9973(4) 0.4893(3) 0.6861(3)
H28 H 1.0512 0.4559 0.7222
C47 C 1.0239(4) 0.5602(3) 0.6166(3)
C48 C 1.1353(5) 0.5970(3) 0.5861(3)
C49 C 1.1583(6) 0.6562(4) 0.5059(4)
H29 H 1.0959 0.6762 0.4707
C50 C 1.2602(7) 0.6891(5) 0.4756(4)
H30 H 1.2701 0.7285 0.4208
C51 C 1.3488(7) 0.6640(5) 0.5262(5)
H31 H 1.4198 0.6860 0.5063
C52 C 1.3318(5) 0.6064(4) 0.6059(5)
H32 H 1.3920 0.5894 0.6406
C53 C 1.2262(4) 0.5723(4) 0.6372(4)
H33 H 1.2166 0.5330 0.6921
C54 C 0.6947(4) 0.5319(4) 0.6237(3)
H34 H 0.6677 0.4696 0.6476
H35 H 0.6869 0.5455 0.5611
H36 H 0.6504 0.5832 0.6537
F7? F 0.5801(12) 0.7938(15) 1.0407(13)
F16? F 1.0706(7) 0.6909(7) 0.4595(7)
H11? H -0.0446 0.8017 0.6755
H20? H 0.3132 0.7131 0.8278
loop_
_geom_bond_atom_site_label_1
_geom_bond_atom_site_label_2
_geom_bond_site_symmetry_1
_geom_bond_site_symmetry_2
S1 C6 1_555 1_555
S2 C17 1_555 1_555
S3 C33 1_555 1_555
S4 C44 1_555 1_555
F1 C3 1_555 1_555
F2 C3 1_555 1_555
F3 C4 1_555 1_555
F4 C4 1_555 1_555
F5 C5 1_555 1_555
F6 C5 1_555 1_555
F8 C22 1_555 1_555
F9 C30 1_555 1_555
F10 C30 1_555 1_555
F11 C31 1_555 1_555
F12 C31 1_555 1_555
F13 C32 1_555 1_555
F14 C32 1_555 1_555
F15 C38 1_555 1_555
C1 C2 1_555 1_555
C2 C3 1_555 1_555
C3 C4 1_555 1_555
C4 C5 1_555 1_555
C5 C1 1_555 1_555
C6 C7 1_555 1_555
C7 C1 1_555 1_555
C8 C7 1_555 1_555
H1 C8 1_555 1_555
C9 S1 1_555 1_555
C10 C9 1_555 1_555
C11 C10 1_555 1_555
H2 C11 1_555 1_555
C12 C11 1_555 1_555
H3 C12 1_555 1_555
C13 C12 1_555 1_555
H4 C13 1_555 1_555
C14 C13 1_555 1_555
H5 C14 1_555 1_555
C15 C10 1_555 1_555
H6 C15 1_555 1_555
C16 C6 1_555 1_555
H7 C16 1_555 1_555
H8 C16 1_555 1_555
H9 C16 1_555 1_555
C17 C18 1_555 1_555
C18 C2 1_555 1_555
C19 C18 1_555 1_555
H10 C19 1_555 1_555
C20 S2 1_555 1_555
C21 C20 1_555 1_555
C22 C21 1_555 1_555
C23 C22 1_555 1_555
H12 C23 1_555 1_555
C24 C23 1_555 1_555
H13 C24 1_555 1_555
C25 C24 1_555 1_555
H14 C25 1_555 1_555
C26 C21 1_555 1_555
H15 C26 1_555 1_555
C27 C17 1_555 1_555
H16 C27 1_555 1_555
H17 C27 1_555 1_555
H18 C27 1_555 1_555
C28 C29 1_555 1_555
C29 C30 1_555 1_555
C30 C31 1_555 1_555
C31 C32 1_555 1_555
C32 C28 1_555 1_555
C33 C34 1_555 1_555
C34 C28 1_555 1_555
C35 C34 1_555 1_555
H19 C35 1_555 1_555
C36 S3 1_555 1_555
C37 C36 1_555 1_555
C38 C37 1_555 1_555
C39 C38 1_555 1_555
H21 C39 1_555 1_555
C40 C39 1_555 1_555
H22 C40 1_555 1_555
C41 C40 1_555 1_555
H23 C41 1_555 1_555
C42 C37 1_555 1_555
H24 C42 1_555 1_555
C43 C33 1_555 1_555
H25 C43 1_555 1_555
H26 C43 1_555 1_555
H27 C43 1_555 1_555
C44 C45 1_555 1_555
C45 C29 1_555 1_555
C46 C45 1_555 1_555
H28 C46 1_555 1_555
C47 S4 1_555 1_555
C48 C47 1_555 1_555
C49 C48 1_555 1_555
H29 C49 1_555 1_555
C50 C49 1_555 1_555
H30 C50 1_555 1_555
C51 C50 1_555 1_555
H31 C51 1_555 1_555
C52 C51 1_555 1_555
H32 C52 1_555 1_555
C53 C48 1_555 1_555
H33 C53 1_555 1_555
C54 C44 1_555 1_555
H34 C54 1_555 1_555
H35 C54 1_555 1_555
H36 C54 1_555 1_555
C8 C9 1_555 1_555
C14 C15 1_555 1_555
C19 C20 1_555 1_555
C25 C26 1_555 1_555
C35 C36 1_555 1_555
C41 C42 1_555 1_555
C46 C47 1_555 1_555
C52 C53 1_555 1_555

#END
