
#######################################################################
#
#                 Cambridge Crystallographic Data Centre
#                                CCDC 
#
#######################################################################
#
# If this CIF has been generated from an entry in the Cambridge 
# Structural Database, then it will include bibliographic, chemical, 
# crystal, experimental, refinement or atomic coordinate data resulting 
# from the CCDC's data processing and validation procedures.
#
#######################################################################

data_HAYWAI
_chemical_formula_moiety         'C18 H12 N2 O1'
_chemical_name_systematic        
2-(2-phenylhydrazinylidene)acenaphthylen-1(2H)-one
_symmetry_cell_setting           monoclinic
_symmetry_space_group_name_H-M   'P 21/c'
_symmetry_Int_Tables_number      14
_space_group_name_Hall           '-P 2ybc'
loop_
_symmetry_equiv_pos_site_id
_symmetry_equiv_pos_as_xyz
1 x,y,z
2 -x,1/2+y,1/2-z
3 -x,-y,-z
4 x,1/2-y,1/2+z
_cell_length_a                   13.3040(11)
_cell_length_b                   5.1796(4)
_cell_length_c                   19.6396(18)
_cell_angle_alpha                90
_cell_angle_beta                 95.1430(10)
_cell_angle_gamma                90
_cell_volume                     1347.9
_exptl_crystal_colour            colorless
_exptl_crystal_description       block
_cell_formula_units_Z            4
loop_
_atom_site_label
_atom_site_type_symbol
_atom_site_fract_x
_atom_site_fract_y
_atom_site_fract_z
O1 O 0.04782(15) 0.5173(5) 0.21991(10)
N1 N 0.20574(17) 0.2739(5) 0.30038(12)
H1 H 0.1424 0.2716 0.2871
C1 C 0.2181(2) 0.9388(6) 0.14751(14)
N2 N 0.26762(18) 0.4416(5) 0.27247(12)
C2 C 0.1194(2) 0.6419(6) 0.20091(15)
C3 C 0.2456(2) 0.1019(6) 0.35165(14)
C4 C 0.2879(2) 0.7970(6) 0.19210(14)
C5 C 0.3463(2) 0.1130(6) 0.37631(15)
H2 H 0.3891 0.2337 0.3590
C6 C 0.1181(2) 0.8561(6) 0.15021(14)
C7 C 0.1824(2) -0.0788(6) 0.37729(15)
H3 H 0.1147 -0.0872 0.3608
C8 C 0.0677(2) 1.1781(7) 0.06632(15)
H4 H 0.0171 1.2588 0.0383
C9 C 0.3208(3) -0.2389(7) 0.45350(15)
H5 H 0.3457 -0.3522 0.4877
C10 C 0.3883(2) 0.8584(7) 0.19453(15)
H6 H 0.4355 0.7681 0.2231
C11 C 0.0415(2) 0.9760(7) 0.10998(15)
H7 H -0.0254 0.9257 0.1115
C12 C 0.4192(2) 1.0632(7) 0.15244(17)
H8 H 0.4873 1.1060 0.1542
C13 C 0.2463(2) 1.1369(7) 0.10502(15)
C14 C 0.3507(3) 1.2001(7) 0.10908(16)
H9 H 0.3730 1.3336 0.0826
C15 C 0.1653(3) 1.2577(6) 0.06415(15)
H10 H 0.1793 1.3934 0.0355
C16 C 0.2280(2) 0.6048(6) 0.22689(15)
C17 C 0.2212(2) -0.2482(7) 0.42811(15)
H11 H 0.1788 -0.3703 0.4452
C18 C 0.3830(2) -0.0584(8) 0.42729(16)
H12 H 0.4506 -0.0508 0.4439
loop_
_geom_bond_atom_site_label_1
_geom_bond_atom_site_label_2
_geom_bond_site_symmetry_1
_geom_bond_site_symmetry_2
O1 C2 1_555 1_555
N1 H1 1_555 1_555
C1 C4 1_555 1_555
N2 N1 1_555 1_555
C2 C6 1_555 1_555
C3 N1 1_555 1_555
C4 C10 1_555 1_555
C5 C3 1_555 1_555
H2 C5 1_555 1_555
C6 C1 1_555 1_555
C7 C3 1_555 1_555
H3 C7 1_555 1_555
C8 H4 1_555 1_555
C9 H5 1_555 1_555
C10 H6 1_555 1_555
C11 C6 1_555 1_555
H7 C11 1_555 1_555
C12 C10 1_555 1_555
H8 C12 1_555 1_555
C13 C1 1_555 1_555
C14 C12 1_555 1_555
H9 C14 1_555 1_555
C15 C8 1_555 1_555
H10 C15 1_555 1_555
C16 N2 1_555 1_555
C17 C7 1_555 1_555
H11 C17 1_555 1_555
C18 C5 1_555 1_555
H12 C18 1_555 1_555
C2 C16 1_555 1_555
C4 C16 1_555 1_555
C8 C11 1_555 1_555
C9 C17 1_555 1_555
C9 C18 1_555 1_555
C13 C14 1_555 1_555
C13 C15 1_555 1_555

#END
