
#######################################################################
#
#                 Cambridge Crystallographic Data Centre
#                                CCDC 
#
#######################################################################
#
# If this CIF has been generated from an entry in the Cambridge 
# Structural Database, then it will include bibliographic, chemical, 
# crystal, experimental, refinement or atomic coordinate data resulting 
# from the CCDC's data processing and validation procedures.
#
#######################################################################

data_HAZBUH
_chemical_formula_moiety         'C102 H79 N5 O2,2(C1 H1 Cl3)'
_chemical_name_systematic        
'5,8,9,12-tetrakis(4-(diphenylamino)phenyl)-2-(2-ethylhexyl)-1H-benzo[5,10]anthra[2,1,9-def]isoquinoline-1,3(2H)-dione chloroform solvate'
_symmetry_cell_setting           triclinic
_symmetry_space_group_name_H-M   'P -1'
_symmetry_Int_Tables_number      2
_space_group_name_Hall           '-P 1'
loop_
_symmetry_equiv_pos_site_id
_symmetry_equiv_pos_as_xyz
1 x,y,z
2 -x,-y,-z
_cell_length_a                   14.077(5)
_cell_length_b                   15.476(5)
_cell_length_c                   21.623(7)
_cell_angle_alpha                103.364(8)
_cell_angle_beta                 103.835(7)
_cell_angle_gamma                106.279(7)
_cell_volume                     4159.92
_exptl_crystal_colour            red
_exptl_crystal_description       plate
_cell_formula_units_Z            2
loop_
_atom_site_label
_atom_site_type_symbol
_atom_site_fract_x
_atom_site_fract_y
_atom_site_fract_z
O1 O 0.80894(13) -0.15633(11) 0.61632(8)
O2 O 1.09503(13) 0.11374(11) 0.71919(8)
N1 N 0.95068(16) -0.02009(14) 0.66875(10)
N2 N 0.33310(15) -0.31150(14) 0.24175(10)
N3 N 0.76215(17) 0.16256(14) 0.00984(10)
N4 N 0.66601(16) 0.41027(14) 0.13393(10)
N5 N 1.37071(15) 0.55140(13) 0.59337(10)
C1 C 0.86466(18) -0.08235(16) 0.61332(11)
C2 C 0.84394(17) -0.05331(15) 0.55222(11)
C3 C 0.90827(17) 0.03459(15) 0.55178(11)
C4 C 0.99507(17) 0.09370(15) 0.60896(11)
C5 C 1.01953(18) 0.06529(16) 0.66955(11)
C6 C 0.75765(17) -0.10917(15) 0.49669(11)
H1 H 0.7126 -0.1669 0.4980
C7 C 0.73423(17) -0.08340(15) 0.43821(11)
C8 C 0.80092(17) 0.00102(15) 0.43478(11)
C9 C 0.88500(16) 0.06448(15) 0.49434(11)
C10 C 0.94483(17) 0.15813(15) 0.49741(11)
C11 C 1.03483(17) 0.21299(15) 0.55363(11)
C12 C 1.05770(17) 0.17862(16) 0.60808(11)
H2 H 1.1188 0.2157 0.6456
C13 C 0.79050(17) 0.02796(15) 0.37321(11)
C14 C 0.73727(17) -0.03735(15) 0.30967(11)
H3 H 0.7064 -0.1025 0.3049
C15 C 0.72815(17) -0.00926(16) 0.25256(11)
H4 H 0.6963 -0.0566 0.2096
C16 C 0.76381(17) 0.08539(15) 0.25598(11)
C17 C 0.81159(16) 0.15693(15) 0.32139(11)
C18 C 0.83647(16) 0.12566(15) 0.37896(11)
C19 C 0.83370(16) 0.25649(15) 0.33282(11)
C20 C 0.88992(17) 0.31912(15) 0.39693(11)
H5 H 0.9026 0.3850 0.4049
C21 C 0.92865(17) 0.28873(16) 0.45033(11)
H6 H 0.9718 0.3344 0.4927
C22 C 0.90514(16) 0.19318(15) 0.44238(10)
C23 C 0.97399(19) -0.04487(17) 0.73116(11)
H7 H 1.0470 -0.0433 0.7437
H8 H 0.9275 -0.1108 0.7222
C24 C 0.9602(4) 0.0224(4) 0.7926(2)
H9 H 0.9864 0.0889 0.7914
C25 C 1.0341(5) 0.0163(4) 0.8543(2)
H10 H 1.0066 -0.0487 0.8566
H11 H 1.1028 0.0251 0.8474
C26 C 1.0520(5) 0.0853(4) 0.9212(3)
H12 H 0.9852 0.0718 0.9310
H13 H 1.0722 0.1503 0.9179
C27 C 1.1348(6) 0.0834(6) 0.9795(3)
H14 H 1.1146 0.0186 0.9832
H15 H 1.2019 0.0970 0.9700
C28 C 1.1509(7) 0.1531(5) 1.0455(3)
H16 H 1.2052 0.1481 1.0810
H17 H 1.0853 0.1392 1.0559
H18 H 1.1728 0.2177 1.0428
C29 C 0.8484(4) -0.0006(4) 0.7915(3)
H19 H 0.8483 0.0342 0.8361
H20 H 0.8180 -0.0694 0.7849
C30 C 0.7777(4) 0.0231(5) 0.7378(3)
H21 H 0.7068 0.0049 0.7408
H22 H 0.7758 -0.0120 0.6933
H23 H 0.8051 0.0914 0.7449
C31 C 0.63175(17) -0.14431(15) 0.38502(11)
C32 C 0.60717(17) -0.24074(15) 0.35336(11)
H24 H 0.6576 -0.2694 0.3646
C33 C 0.50953(17) -0.29567(15) 0.30547(11)
H25 H 0.4946 -0.3610 0.2837
C34 C 0.43324(17) -0.25539(16) 0.28919(11)
C35 C 0.45806(18) -0.15868(16) 0.32090(11)
H26 H 0.4078 -0.1298 0.3100
C36 C 0.55512(18) -0.10486(16) 0.36797(11)
H27 H 0.5703 -0.0393 0.3894
C37 C 0.32253(18) -0.39188(17) 0.18881(11)
C38 C 0.25459(19) -0.48189(18) 0.18061(13)
H28 H 0.2159 -0.4900 0.2106
C39 C 0.2437(2) -0.55950(19) 0.12852(13)
H29 H 0.1966 -0.6207 0.1225
C40 C 0.3007(2) -0.5480(2) 0.08562(13)
H30 H 0.2937 -0.6014 0.0503
C41 C 0.3679(2) -0.4595(2) 0.09376(13)
H31 H 0.4069 -0.4520 0.0639
C42 C 0.3793(2) -0.38069(19) 0.14546(13)
H32 H 0.4258 -0.3196 0.1508
C43 C 0.24082(18) -0.29848(17) 0.25042(12)
C44 C 0.1542(2) -0.3207(2) 0.19401(13)
H33 H 0.1585 -0.3417 0.1502
C45 C 0.0620(2) -0.3120(2) 0.20173(15)
H34 H 0.0031 -0.3288 0.1630
C46 C 0.0546(2) -0.2793(2) 0.26460(15)
H35 H -0.0089 -0.2736 0.2694
C47 C 0.1409(2) -0.2549(2) 0.32077(14)
H36 H 0.1371 -0.2309 0.3643
C48 C 0.23307(19) -0.26516(18) 0.31379(13)
H37 H 0.2914 -0.2493 0.3527
C49 C 1.11480(17) 0.30455(15) 0.56039(11)
C50 C 1.16617(17) 0.31068(15) 0.51299(11)
H38 H 1.1438 0.2585 0.4730
C51 C 1.24948(17) 0.39200(16) 0.52336(11)
H39 H 1.2841 0.3948 0.4908
C52 C 1.28270(17) 0.46965(15) 0.58145(11)
C53 C 1.22952(17) 0.46560(16) 0.62788(11)
H40 H 1.2493 0.5191 0.6666
C54 C 1.14758(17) 0.38327(16) 0.61766(11)
H41 H 1.1131 0.3805 0.6503
C55 C 1.38118(18) 0.58426(15) 0.53803(11)
C56 C 1.29466(19) 0.59380(17) 0.49671(12)
H42 H 1.2308 0.5807 0.5065
C57 C 1.3019(2) 0.62236(18) 0.44128(13)
H43 H 1.2427 0.6279 0.4127
C58 C 1.3954(2) 0.64288(18) 0.42731(13)
H44 H 1.4003 0.6628 0.3894
C59 C 1.4815(2) 0.63424(17) 0.46879(13)
H45 H 1.5456 0.6484 0.4593
C60 C 1.47493(18) 0.60486(16) 0.52433(12)
H46 H 1.5342 0.5990 0.5526
C61 C 1.44944(17) 0.59355(16) 0.65735(11)
C62 C 1.51203(18) 0.68980(16) 0.67902(12)
H47 H 1.5024 0.7273 0.6506
C63 C 1.58811(19) 0.73039(18) 0.74189(13)
H48 H 1.6312 0.7955 0.7559
C64 C 1.60217(19) 0.67723(19) 0.78466(12)
H49 H 1.6536 0.7058 0.8280
C65 C 1.54034(19) 0.58217(18) 0.76335(12)
H50 H 1.5489 0.5454 0.7925
C66 C 1.46581(18) 0.54000(17) 0.69971(12)
H51 H 1.4257 0.4741 0.6850
C67 C 0.76156(18) 0.10553(15) 0.19209(11)
C68 C 0.67273(18) 0.06182(16) 0.13473(11)
H52 H 0.6113 0.0192 0.1371
C69 C 0.67195(18) 0.07902(16) 0.07465(11)
H53 H 0.6098 0.0498 0.0369
C70 C 0.76186(19) 0.13899(16) 0.06913(11)
C71 C 0.85277(19) 0.17887(16) 0.12538(11)
H54 H 0.9160 0.2170 0.1220
C72 C 0.85163(18) 0.16348(16) 0.18567(11)
H55 H 0.9136 0.1931 0.2235
C73 C 0.6920(2) 0.10191(19) -0.05482(12)
C74 C 0.6636(2) 0.00411(19) -0.07289(13)
H56 H 0.6899 -0.0246 -0.0416
C75 C 0.5960(2) -0.0519(2) -0.13727(14)
H57 H 0.5750 -0.1191 -0.1495
C76 C 0.5592(3) -0.0109(3) -0.18340(14)
H58 H 0.5145 -0.0496 -0.2275
C77 C 0.5872(2) 0.0853(3) -0.16557(15)
H59 H 0.5613 0.1134 -0.1974
C78 C 0.6529(2) 0.1426(2) -0.10166(13)
H60 H 0.6713 0.2096 -0.0897
C79 C 0.8418(2) 0.24620(19) 0.01409(12)
C80 C 0.9071(2) 0.2402(3) -0.02375(15)
H61 H 0.8967 0.1807 -0.0542
C81 C 0.9876(3) 0.3205(3) -0.01756(18)
H62 H 1.0318 0.3161 -0.0442
C82 C 1.0040(2) 0.4066(3) 0.0268(2)
H63 H 1.0606 0.4613 0.0317
C83 C 0.9386(2) 0.4134(2) 0.06407(19)
H64 H 0.9496 0.4731 0.0947
C84 C 0.8563(2) 0.33352(18) 0.05724(14)
H65 H 0.8099 0.3388 0.0822
C85 C 0.79052(17) 0.29684(15) 0.28107(11)
C86 C 0.68340(18) 0.26274(16) 0.24616(11)
H66 H 0.6380 0.2118 0.2546
C87 C 0.64186(18) 0.30165(16) 0.19956(11)
H67 H 0.5684 0.2784 0.1774
C88 C 0.70703(18) 0.37469(15) 0.18484(11)
C89 C 0.81384(18) 0.41168(16) 0.22088(11)
H68 H 0.8590 0.4629 0.2126
C90 C 0.85453(18) 0.37387(15) 0.26891(11)
H69 H 0.9271 0.4008 0.2939
C91 C 0.58349(18) 0.35105(17) 0.07401(11)
C92 C 0.5683(2) 0.25528(18) 0.04660(13)
H70 H 0.6133 0.2283 0.0689
C93 C 0.4886(2) 0.1994(2) -0.01268(14)
H71 H 0.4782 0.1340 -0.0302
C94 C 0.4238(2) 0.2376(2) -0.04676(15)
H72 H 0.3694 0.1991 -0.0877
C95 C 0.4390(2) 0.3324(2) -0.02060(15)
H73 H 0.3951 0.3593 -0.0440
C96 C 0.5177(2) 0.38910(19) 0.03966(13)
H74 H 0.5266 0.4541 0.0575
C97 C 0.70841(18) 0.50951(17) 0.14345(11)
C98 C 0.75110(18) 0.54036(18) 0.09716(12)
H75 H 0.7534 0.4957 0.0596
C99 C 0.79025(19) 0.63678(19) 0.10634(13)
H76 H 0.8191 0.6579 0.0747
C100 C 0.78791(19) 0.70246(18) 0.16070(13)
H77 H 0.8151 0.7684 0.1666
C101 C 0.7457(2) 0.67156(18) 0.20645(12)
H78 H 0.7441 0.7165 0.2440
C102 C 0.70554(19) 0.57513(17) 0.19803(12)
H79 H 0.6762 0.5543 0.2296
C103 C 0.81108(18) 0.68879(18) 0.68964(12)
H80 H 0.7858 0.7387 0.6772
Cl1 Cl 0.70508(5) 0.58166(5) 0.65785(4)
Cl2 Cl 0.90917(5) 0.68022(5) 0.65404(3)
Cl6 Cl 0.86245(7) 0.72418(15) 0.77869(5)
C104 C 0.5639(4) 0.1555(5) 0.4483(3)
H81 H 0.5681 0.2216 0.4700
Cl3 Cl 0.43290(15) 0.08188(14) 0.41991(17)
Cl4 Cl 0.6373(2) 0.12068(13) 0.51072(7)
Cl5 Cl 0.6250(2) 0.1593(3) 0.39067(19)
C105? C 0.5313(9) 0.1536(12) 0.4383(8)
C106? C 0.9034(5) -0.0297(4) 0.7718(3)
C107? C 0.9530(5) -0.0232(4) 0.8438(2)
C108? C 1.0485(5) 0.0636(5) 0.8869(3)
C109? C 1.0896(7) 0.0654(5) 0.9587(3)
C110? C 1.1771(7) 0.1541(5) 1.0068(4)
C111? C 0.8781(5) 0.0577(5) 0.7678(4)
C112? C 0.7867(6) 0.0664(6) 0.7883(5)
Cl7? Cl 0.4055(4) 0.0841(3) 0.3803(3)
Cl8? Cl 0.5654(5) 0.1067(2) 0.50145(17)
Cl9? Cl 0.5980(6) 0.1412(6) 0.3766(4)
Cl10? Cl 0.8694(10) 0.6793(15) 0.7724(6)
H82? H 0.5374 0.2211 0.4571
H83? H 0.8365 -0.0858 0.7519
H84? H 0.8990 -0.0266 0.8662
H85? H 0.9725 -0.0800 0.8431
H86? H 1.1046 0.0661 0.8664
H87? H 1.0306 0.1212 0.8871
H88? H 1.0305 0.0546 0.9767
H89? H 1.1140 0.0112 0.9580
H90? H 1.1972 0.1466 1.0513
H91? H 1.1537 0.2084 1.0097
H92? H 1.2375 0.1649 0.9907
H93? H 0.9404 0.1143 0.7966
H94? H 0.8652 0.0587 0.7210
H95? H 0.7762 0.1246 0.7832
H96? H 0.7997 0.0688 0.8354
H97? H 0.7240 0.0113 0.7599
loop_
_geom_bond_atom_site_label_1
_geom_bond_atom_site_label_2
_geom_bond_site_symmetry_1
_geom_bond_site_symmetry_2
O1 C1 1_555 1_555
O2 C5 1_555 1_555
N1 C1 1_555 1_555
N2 C34 1_555 1_555
N3 C70 1_555 1_555
N4 C88 1_555 1_555
N5 C52 1_555 1_555
C1 C2 1_555 1_555
C2 C3 1_555 1_555
C3 C4 1_555 1_555
C4 C5 1_555 1_555
C5 N1 1_555 1_555
C6 C2 1_555 1_555
H1 C6 1_555 1_555
C7 C6 1_555 1_555
C8 C7 1_555 1_555
C9 C3 1_555 1_555
C10 C9 1_555 1_555
C11 C10 1_555 1_555
C12 C4 1_555 1_555
H2 C12 1_555 1_555
C13 C8 1_555 1_555
C14 C13 1_555 1_555
H3 C14 1_555 1_555
C15 C14 1_555 1_555
H4 C15 1_555 1_555
C16 C15 1_555 1_555
C17 C16 1_555 1_555
C18 C13 1_555 1_555
C19 C17 1_555 1_555
C20 C19 1_555 1_555
H5 C20 1_555 1_555
C21 C20 1_555 1_555
H6 C21 1_555 1_555
C22 C10 1_555 1_555
C23 N1 1_555 1_555
H7 C23 1_555 1_555
H8 C23 1_555 1_555
C24 C23 1_555 1_555
H9 C24 1_555 1_555
C25 C24 1_555 1_555
H10 C25 1_555 1_555
H11 C25 1_555 1_555
C26 C25 1_555 1_555
H12 C26 1_555 1_555
H13 C26 1_555 1_555
C27 C26 1_555 1_555
H14 C27 1_555 1_555
H15 C27 1_555 1_555
C28 C27 1_555 1_555
H16 C28 1_555 1_555
H17 C28 1_555 1_555
H18 C28 1_555 1_555
C29 C24 1_555 1_555
H19 C29 1_555 1_555
H20 C29 1_555 1_555
C30 C29 1_555 1_555
H21 C30 1_555 1_555
H22 C30 1_555 1_555
H23 C30 1_555 1_555
C31 C7 1_555 1_555
C32 C31 1_555 1_555
H24 C32 1_555 1_555
C33 C32 1_555 1_555
H25 C33 1_555 1_555
C34 C33 1_555 1_555
C35 C34 1_555 1_555
H26 C35 1_555 1_555
C36 C31 1_555 1_555
H27 C36 1_555 1_555
C37 N2 1_555 1_555
C38 C37 1_555 1_555
H28 C38 1_555 1_555
C39 C38 1_555 1_555
H29 C39 1_555 1_555
C40 C39 1_555 1_555
H30 C40 1_555 1_555
C41 C40 1_555 1_555
H31 C41 1_555 1_555
C42 C37 1_555 1_555
H32 C42 1_555 1_555
C43 N2 1_555 1_555
C44 C43 1_555 1_555
H33 C44 1_555 1_555
C45 C44 1_555 1_555
H34 C45 1_555 1_555
C46 C45 1_555 1_555
H35 C46 1_555 1_555
C47 C46 1_555 1_555
H36 C47 1_555 1_555
C48 C43 1_555 1_555
H37 C48 1_555 1_555
C49 C11 1_555 1_555
C50 C49 1_555 1_555
H38 C50 1_555 1_555
C51 C50 1_555 1_555
H39 C51 1_555 1_555
C52 C51 1_555 1_555
C53 C52 1_555 1_555
H40 C53 1_555 1_555
C54 C49 1_555 1_555
H41 C54 1_555 1_555
C55 N5 1_555 1_555
C56 C55 1_555 1_555
H42 C56 1_555 1_555
C57 C56 1_555 1_555
H43 C57 1_555 1_555
C58 C57 1_555 1_555
H44 C58 1_555 1_555
C59 C58 1_555 1_555
H45 C59 1_555 1_555
C60 C55 1_555 1_555
H46 C60 1_555 1_555
C61 N5 1_555 1_555
C62 C61 1_555 1_555
H47 C62 1_555 1_555
C63 C62 1_555 1_555
H48 C63 1_555 1_555
C64 C63 1_555 1_555
H49 C64 1_555 1_555
C65 C64 1_555 1_555
H50 C65 1_555 1_555
C66 C61 1_555 1_555
H51 C66 1_555 1_555
C67 C16 1_555 1_555
C68 C67 1_555 1_555
H52 C68 1_555 1_555
C69 C68 1_555 1_555
H53 C69 1_555 1_555
C70 C69 1_555 1_555
C71 C70 1_555 1_555
H54 C71 1_555 1_555
C72 C67 1_555 1_555
H55 C72 1_555 1_555
C73 N3 1_555 1_555
C74 C73 1_555 1_555
H56 C74 1_555 1_555
C75 C74 1_555 1_555
H57 C75 1_555 1_555
C76 C75 1_555 1_555
H58 C76 1_555 1_555
C77 C76 1_555 1_555
H59 C77 1_555 1_555
C78 C73 1_555 1_555
H60 C78 1_555 1_555
C79 N3 1_555 1_555
C80 C79 1_555 1_555
H61 C80 1_555 1_555
C81 C80 1_555 1_555
H62 C81 1_555 1_555
C82 C81 1_555 1_555
H63 C82 1_555 1_555
C83 C82 1_555 1_555
H64 C83 1_555 1_555
C84 C79 1_555 1_555
H65 C84 1_555 1_555
C85 C19 1_555 1_555
C86 C85 1_555 1_555
H66 C86 1_555 1_555
C87 C86 1_555 1_555
H67 C87 1_555 1_555
C88 C87 1_555 1_555
C89 C88 1_555 1_555
H68 C89 1_555 1_555
C90 C85 1_555 1_555
H69 C90 1_555 1_555
C91 N4 1_555 1_555
C92 C91 1_555 1_555
H70 C92 1_555 1_555
C93 C92 1_555 1_555
H71 C93 1_555 1_555
C94 C93 1_555 1_555
H72 C94 1_555 1_555
C95 C94 1_555 1_555
H73 C95 1_555 1_555
C96 C91 1_555 1_555
H74 C96 1_555 1_555
C97 N4 1_555 1_555
C98 C97 1_555 1_555
H75 C98 1_555 1_555
C99 C98 1_555 1_555
H76 C99 1_555 1_555
C100 C99 1_555 1_555
H77 C100 1_555 1_555
C101 C100 1_555 1_555
H78 C101 1_555 1_555
C102 C97 1_555 1_555
H79 C102 1_555 1_555
C103 H80 1_555 1_555
Cl1 C103 1_555 1_555
Cl2 C103 1_555 1_555
C104 H81 1_555 1_555
Cl3 C104 1_555 1_555
Cl4 C104 1_555 1_555
Cl5 C104 1_555 1_555
Cl6 C103 1_555 1_555
C8 C9 1_555 1_555
C11 C12 1_555 1_555
C17 C18 1_555 1_555
C18 C22 1_555 1_555
C21 C22 1_555 1_555
C35 C36 1_555 1_555
C41 C42 1_555 1_555
C47 C48 1_555 1_555
C53 C54 1_555 1_555
C59 C60 1_555 1_555
C65 C66 1_555 1_555
C71 C72 1_555 1_555
C77 C78 1_555 1_555
C83 C84 1_555 1_555
C89 C90 1_555 1_555
C95 C96 1_555 1_555
C101 C102 1_555 1_555

#END
