
#######################################################################
#
#                 Cambridge Crystallographic Data Centre
#                                CCDC 
#
#######################################################################
#
# If this CIF has been generated from an entry in the Cambridge 
# Structural Database, then it will include bibliographic, chemical, 
# crystal, experimental, refinement or atomic coordinate data resulting 
# from the CCDC's data processing and validation procedures.
#
#######################################################################

data_HAZFIA
_chemical_formula_moiety         'C21 H18 N6 O3'
_chemical_name_systematic        
N-((1-(4-nitrophenyl)-1H-1,2,3-triazol-4-yl)methyl)-2-((pyridin-2-yl)methoxy)aniline
_symmetry_cell_setting           monoclinic
_symmetry_space_group_name_H-M   'P 21/c'
_symmetry_Int_Tables_number      14
_space_group_name_Hall           '-P 2ybc'
loop_
_symmetry_equiv_pos_site_id
_symmetry_equiv_pos_as_xyz
1 x,y,z
2 -x,1/2+y,1/2-z
3 -x,-y,-z
4 x,1/2-y,1/2+z
_cell_length_a                   10.5160(4)
_cell_length_b                   24.6454(10)
_cell_length_c                   7.7012(3)
_cell_angle_alpha                90
_cell_angle_beta                 107.501(2)
_cell_angle_gamma                90
_cell_volume                     1903.54
_exptl_crystal_colour            yellow
_exptl_crystal_description       plate
_cell_formula_units_Z            4
loop_
_atom_site_label
_atom_site_type_symbol
_atom_site_fract_x
_atom_site_fract_y
_atom_site_fract_z
C1 C 0.31597(16) 0.59272(6) 0.2823(2)
H1 H 0.3975 0.6027 0.2617
C2 C 0.25369(16) 0.63045(6) 0.3598(2)
H2 H 0.2897 0.6658 0.3888
C3 C 0.13808(18) 0.61556(7) 0.3940(3)
H3 H 0.0931 0.6404 0.4496
C4 C 0.08750(17) 0.56391(7) 0.3467(3)
H4 H 0.0077 0.5527 0.37
C5 C 0.15494(14) 0.52910(5) 0.2653(2)
C6 C 0.09944(16) 0.47438(6) 0.1958(2)
H5 H 0.0008 0.4754 0.1602
H6 H 0.1262 0.4648 0.0869
C7 C 0.09158(13) 0.38366(5) 0.2968(2)
C8 C 0.00263(16) 0.36829(6) 0.1325(2)
H7 H -0.0199 0.393 0.0331
C9 C -0.05446(16) 0.31643(6) 0.1120(2)
H8 H -0.1168 0.306 -0.0003
C10 C -0.01952(15) 0.28064(6) 0.2561(2)
H9 H -0.0591 0.2456 0.2433
C11 C 0.07298(14) 0.29528(5) 0.4199(2)
H10 H 0.0977 0.2698 0.5167
C12 C 0.13036(13) 0.34705(5) 0.44446(19)
C13 C 0.26719(16) 0.33021(6) 0.7631(2)
H11 H 0.1901 0.3128 0.7894
H12 H 0.3127 0.3532 0.8688
C14 C 0.36195(15) 0.28670(5) 0.74313(19)
C15 C 0.35264(14) 0.23154(5) 0.7485(2)
H13 H 0.2812 0.2108 0.7657
C16 C 0.51158(14) 0.15835(5) 0.71905(19)
C17 C 0.44501(15) 0.11600(6) 0.7710(3)
H14 H 0.3683 0.1229 0.8083
C18 C 0.49062(16) 0.06332(6) 0.7684(3)
H15 H 0.4449 0.0337 0.8013
C19 C 0.60366(16) 0.05492(6) 0.7172(2)
C20 C 0.67057(18) 0.09670(7) 0.6643(2)
H16 H 0.7481 0.0896 0.6291
C21 C 0.62337(17) 0.14907(7) 0.6632(2)
H17 H 0.667 0.1784 0.6246
N1 N 0.26893(14) 0.54277(5) 0.2339(2)
N2 N 0.21854(14) 0.36442(5) 0.60468(18)
N3 N 0.48064(14) 0.29919(5) 0.7154(2)
N4 N 0.54447(14) 0.25474(5) 0.7037(2)
N5 N 0.46706(11) 0.21265(4) 0.72388(16)
N6 N 0.65776(15) -0.00020(6) 0.7234(2)
O1 O 0.14864(10) 0.43440(4) 0.33476(14)
O2 O 0.76577(17) -0.00646(6) 0.6984(2)
O3 O 0.59526(15) -0.03741(6) 0.7596(3)
H18 H 0.2526(19) 0.3965(8) 0.609(3)
loop_
_geom_bond_atom_site_label_1
_geom_bond_atom_site_label_2
_geom_bond_site_symmetry_1
_geom_bond_site_symmetry_2
C1 H1 1_555 1_555
C2 C1 1_555 1_555
H2 C2 1_555 1_555
C3 C2 1_555 1_555
H3 C3 1_555 1_555
C4 C3 1_555 1_555
H4 C4 1_555 1_555
C5 C4 1_555 1_555
C6 C5 1_555 1_555
H5 C6 1_555 1_555
H6 C6 1_555 1_555
C7 C8 1_555 1_555
C8 H7 1_555 1_555
C9 C8 1_555 1_555
H8 C9 1_555 1_555
C10 C9 1_555 1_555
H9 C10 1_555 1_555
C11 C10 1_555 1_555
H10 C11 1_555 1_555
C12 C7 1_555 1_555
C13 H11 1_555 1_555
H12 C13 1_555 1_555
C14 C13 1_555 1_555
C15 C14 1_555 1_555
H13 C15 1_555 1_555
C16 C17 1_555 1_555
C17 H14 1_555 1_555
C18 C17 1_555 1_555
H15 C18 1_555 1_555
C19 C18 1_555 1_555
C20 C19 1_555 1_555
H16 C20 1_555 1_555
C21 C16 1_555 1_555
H17 C21 1_555 1_555
N1 C1 1_555 1_555
N2 C12 1_555 1_555
N3 C14 1_555 1_555
N4 N3 1_555 1_555
N5 C15 1_555 1_555
N6 C19 1_555 1_555
O1 C6 1_555 1_555
O2 N6 1_555 1_555
O3 N6 1_555 1_555
H18 N2 1_555 1_555
C5 N1 1_555 1_555
C7 O1 1_555 1_555
C11 C12 1_555 1_555
C13 N2 1_555 1_555
C16 N5 1_555 1_555
C20 C21 1_555 1_555
N4 N5 1_555 1_555

#END
