
#######################################################################
#
#                 Cambridge Crystallographic Data Centre
#                                CCDC 
#
#######################################################################
#
# If this CIF has been generated from an entry in the Cambridge 
# Structural Database, then it will include bibliographic, chemical, 
# crystal, experimental, refinement or atomic coordinate data resulting 
# from the CCDC's data processing and validation procedures.
#
#######################################################################

data_HAZHOG
_chemical_formula_moiety         'C8 H6 F3 N1 S1'
_chemical_name_systematic        '4-(Trifluoromethyl)phenyl thioacid amide'
_symmetry_cell_setting           orthorhombic
_symmetry_space_group_name_H-M   'P b c a'
_symmetry_Int_Tables_number      61
_space_group_name_Hall           '-P 2ac 2ab'
loop_
_symmetry_equiv_pos_site_id
_symmetry_equiv_pos_as_xyz
1 x,y,z
2 1/2-x,-y,1/2+z
3 1/2+x,1/2-y,-z
4 -x,1/2+y,1/2-z
5 -x,-y,-z
6 1/2+x,y,1/2-z
7 1/2-x,1/2+y,z
8 x,1/2-y,1/2+z
_cell_length_a                   8.7820(18)
_cell_length_b                   20.111(4)
_cell_length_c                   41.155(8)
_cell_angle_alpha                90
_cell_angle_beta                 90
_cell_angle_gamma                90
_cell_volume                     7268.58
_cell_formula_units_Z            32
loop_
_atom_site_label
_atom_site_type_symbol
_atom_site_fract_x
_atom_site_fract_y
_atom_site_fract_z
S1 S 0.8898(3) 0.17180(9) 0.27539(5)
F1 F 1.0642(9) 0.2997(4) 0.10519(14)
F2 F 1.0344(11) 0.2004(4) 0.10460(15)
F3 F 0.8446(7) 0.2632(5) 0.10181(13)
N1 N 0.9676(8) 0.2969(3) 0.27162(16)
H1 H 0.9902 0.3324 0.2610
H2 H 0.9656 0.2975 0.2925
C1 C 0.9366(7) 0.2422(3) 0.25604(19)
C2 C 0.9430(8) 0.2459(3) 0.22010(18)
C3 C 0.8378(9) 0.2136(4) 0.2008(2)
H3 H 0.7598 0.1894 0.2105
C4 C 0.8466(10) 0.2167(4) 0.1671(2)
H4 H 0.7750 0.1946 0.1544
C5 C 0.9616(9) 0.2525(4) 0.15241(19)
C6 C 1.0686(9) 0.2847(4) 0.1717(2)
H5 H 1.1476 0.3082 0.1619
C7 C 1.0589(8) 0.2822(4) 0.20558(18)
H6 H 1.1296 0.3047 0.2183
C8 C 0.9729(11) 0.2524(5) 0.1169(2)
S2 S 0.2364(3) -0.08023(9) 0.27420(5)
F4 F 0.3081(8) -0.0275(4) 0.10148(13)
F5 F 0.2466(10) 0.0707(3) 0.10530(13)
F6 F 0.0774(6) -0.0042(4) 0.10175(13)
N2 N 0.1500(9) 0.0437(3) 0.27148(15)
H7 H 0.1253 0.0795 0.2613
H8 H 0.1469 0.0425 0.2924
C9 C 0.1924(8) -0.0092(3) 0.25507(19)
C10 C 0.1947(8) -0.0031(3) 0.21920(17)
C11 C 0.0904(9) 0.0374(4) 0.20253(19)
H9 H 0.0172 0.0611 0.2140
C12 C 0.0963(10) 0.0421(4) 0.1690(2)
H10 H 0.0274 0.0693 0.1582
C13 C 0.2034(9) 0.0067(4) 0.15146(17)
C14 C 0.3052(9) -0.0333(4) 0.1677(2)
H11 H 0.3779 -0.0570 0.1561
C15 C 0.3000(9) -0.0386(4) 0.20147(19)
H12 H 0.3683 -0.0664 0.2121
C16 C 0.2048(11) 0.0127(5) 0.1157(2)
S3 S 0.4840(3) 0.32596(10) 0.14772(5)
F7 F 0.5806(10) 0.2009(4) -0.02472(15)
F8 F 0.6078(11) 0.2998(4) -0.02437(16)
F9 F 0.3911(8) 0.2597(6) -0.02823(15)
N3 N 0.4024(8) 0.2019(3) 0.14056(15)
H13 H 0.3833 0.1672 0.1290
H14 H 0.3913 0.2005 0.1613
C17 C 0.4486(8) 0.2569(4) 0.12647(18)
C18 C 0.4654(8) 0.2558(3) 0.09023(18)
C19 C 0.4902(9) 0.1969(4) 0.0736(2)
H15 H 0.4952 0.1572 0.0851
C20 C 0.5075(10) 0.1963(4) 0.0403(2)
H16 H 0.5233 0.1561 0.0297
C21 C 0.5017(8) 0.2539(4) 0.02264(19)
C22 C 0.4768(10) 0.3127(4) 0.0389(2)
H17 H 0.4712 0.3523 0.0274
C23 C 0.4599(10) 0.3135(4) 0.07224(19)
H18 H 0.4445 0.3538 0.0828
C24 C 0.5154(13) 0.2540(6) -0.0131(2)
S4 S 0.6413(3) 0.06452(10) 0.14589(5)
F10 F 0.740(2) 0.0471(5) -0.02661(18)
F11 F 0.6462(10) -0.0391(5) -0.02799(16)
F12 F 0.8659(12) -0.0299(9) -0.02456(19)
N4 N 0.7410(9) -0.0574(3) 0.14199(16)
H19 H 0.7703 -0.0919 0.1314
H20 H 0.7354 -0.0587 0.1628
C25 C 0.7048(9) -0.0025(3) 0.12634(19)
C26 C 0.7175(8) -0.0041(3) 0.09005(19)
C27 C 0.7585(9) 0.0527(4) 0.0730(2)
H21 H 0.7776 0.0920 0.0843
C28 C 0.7714(9) 0.0517(4) 0.0393(2)
H22 H 0.8012 0.0895 0.0280
C29 C 0.7391(9) -0.0066(4) 0.02300(18)
C30 C 0.7002(11) -0.0632(4) 0.0393(2)
H23 H 0.6825 -0.1025 0.0280
C31 C 0.6875(10) -0.0616(4) 0.0729(2)
H24 H 0.6583 -0.0998 0.0840
C32 C 0.7503(14) -0.0067(7) -0.0125(3)
loop_
_geom_bond_atom_site_label_1
_geom_bond_atom_site_label_2
_geom_bond_site_symmetry_1
_geom_bond_site_symmetry_2
S1 C1 1_555 1_555
F1 C8 1_555 1_555
F2 C8 1_555 1_555
F3 C8 1_555 1_555
N1 H1 1_555 1_555
H2 N1 1_555 1_555
C1 N1 1_555 1_555
C2 C1 1_555 1_555
C3 C2 1_555 1_555
H3 C3 1_555 1_555
C4 C3 1_555 1_555
H4 C4 1_555 1_555
C5 C4 1_555 1_555
C6 C5 1_555 1_555
H5 C6 1_555 1_555
C7 C2 1_555 1_555
H6 C7 1_555 1_555
C8 C5 1_555 1_555
S2 C9 1_555 1_555
F4 C16 1_555 1_555
F5 C16 1_555 1_555
F6 C16 1_555 1_555
N2 H7 1_555 1_555
H8 N2 1_555 1_555
C9 N2 1_555 1_555
C10 C9 1_555 1_555
C11 C10 1_555 1_555
H9 C11 1_555 1_555
C12 C11 1_555 1_555
H10 C12 1_555 1_555
C13 C12 1_555 1_555
C14 C13 1_555 1_555
H11 C14 1_555 1_555
C15 C10 1_555 1_555
H12 C15 1_555 1_555
C16 C13 1_555 1_555
S3 C17 1_555 1_555
F7 C24 1_555 1_555
F8 C24 1_555 1_555
F9 C24 1_555 1_555
N3 H13 1_555 1_555
H14 N3 1_555 1_555
C17 N3 1_555 1_555
C18 C17 1_555 1_555
C19 C18 1_555 1_555
H15 C19 1_555 1_555
C20 C19 1_555 1_555
H16 C20 1_555 1_555
C21 C20 1_555 1_555
C22 C21 1_555 1_555
H17 C22 1_555 1_555
C23 C18 1_555 1_555
H18 C23 1_555 1_555
C24 C21 1_555 1_555
S4 C25 1_555 1_555
F10 C32 1_555 1_555
F11 C32 1_555 1_555
F12 C32 1_555 1_555
N4 H19 1_555 1_555
H20 N4 1_555 1_555
C25 N4 1_555 1_555
C26 C25 1_555 1_555
C27 C26 1_555 1_555
H21 C27 1_555 1_555
C28 C27 1_555 1_555
H22 C28 1_555 1_555
C29 C28 1_555 1_555
C30 C29 1_555 1_555
H23 C30 1_555 1_555
C31 C26 1_555 1_555
H24 C31 1_555 1_555
C32 C29 1_555 1_555
C6 C7 1_555 1_555
C14 C15 1_555 1_555
C22 C23 1_555 1_555
C30 C31 1_555 1_555

#END
