
#######################################################################
#
#                 Cambridge Crystallographic Data Centre
#                                CCDC 
#
#######################################################################
#
# If this CIF has been generated from an entry in the Cambridge 
# Structural Database, then it will include bibliographic, chemical, 
# crystal, experimental, refinement or atomic coordinate data resulting 
# from the CCDC's data processing and validation procedures.
#
#######################################################################

data_HAZLIE
_chemical_formula_moiety         'C28 H23 O2 P1'
_chemical_name_systematic        
\a-Acetyl-\a-benzoylmethylenetriphenylphosphorane
_symmetry_cell_setting           monoclinic
_symmetry_space_group_name_H-M   'P 21'
_symmetry_Int_Tables_number      4
_space_group_name_Hall           'P 2yb'
loop_
_symmetry_equiv_pos_site_id
_symmetry_equiv_pos_as_xyz
1 x,y,z
2 -x,1/2+y,-z
_cell_length_a                   8.6186(5)
_cell_length_b                   27.4939(16)
_cell_length_c                   9.8621(6)
_cell_angle_alpha                90
_cell_angle_beta                 114.142(2)
_cell_angle_gamma                90
_cell_volume                     2132.51
_exptl_crystal_colour            colorless
_exptl_crystal_description       Block
_cell_formula_units_Z            4
loop_
_atom_site_label
_atom_site_type_symbol
_atom_site_fract_x
_atom_site_fract_y
_atom_site_fract_z
P1 P 0.66354(13) 0.61926(3) 0.42667(11)
O1 O 0.3982(4) 0.56678(10) 0.4132(3)
O2 O 0.5424(4) 0.67318(10) 0.1314(3)
C1 C 0.2636(5) 0.69250(13) 0.1027(4)
C2 C 0.1807(5) 0.71210(14) 0.1845(5)
H1 H 0.2273 0.7076 0.2892
C3 C 0.0304(6) 0.73817(15) 0.1158(5)
H2 H -0.0259 0.7513 0.1726
C4 C -0.0358(6) 0.74465(15) -0.0367(5)
H3 H -0.1389 0.7622 -0.0844
C5 C 0.0455(6) 0.72595(14) -0.1209(5)
H4 H -0.0018 0.7304 -0.2255
C6 C 0.1971(6) 0.70061(14) -0.0503(4)
H5 H 0.2558 0.6887 -0.1067
C7 C 0.4293(5) 0.66582(13) 0.1766(4)
C8 C 0.4565(5) 0.63439(13) 0.3027(4)
C9 C 0.3389(5) 0.60046(14) 0.3179(5)
C10 C 0.1498(5) 0.59989(15) 0.2258(5)
H6 H 0.0982 0.5731 0.2585
H7 H 0.1277 0.5953 0.1209
H8 H 0.1005 0.6308 0.2380
C11 C 0.7382(5) 0.56464(14) 0.3700(5)
C12 C 0.6584(5) 0.55437(13) 0.2186(4)
H9 H 0.5655 0.5738 0.1564
C13 C 0.7130(5) 0.51605(13) 0.1577(5)
H10 H 0.6586 0.5098 0.0540
C14 C 0.8461(5) 0.48700(15) 0.2470(5)
H11 H 0.8838 0.4608 0.2052
C15 C 0.9250(5) 0.49639(15) 0.3993(5)
H12 H 1.0145 0.4759 0.4619
C16 C 0.8735(5) 0.53524(14) 0.4593(5)
H13 H 0.9306 0.5421 0.5624
C17 C 0.6769(5) 0.61839(15) 0.6148(4)
C18 C 0.7444(5) 0.58007(15) 0.7152(5)
H14 H 0.7799 0.5510 0.6841
C19 C 0.7596(6) 0.58456(17) 0.8594(5)
H15 H 0.8077 0.5586 0.9273
C20 C 0.7066(5) 0.62579(16) 0.9069(5)
H16 H 0.7192 0.6284 1.0069
C21 C 0.6346(6) 0.66359(16) 0.8075(5)
H17 H 0.5949 0.6919 0.8386
C22 C 0.6208(5) 0.65981(15) 0.6627(5)
H18 H 0.5724 0.6859 0.5953
C23 C 0.8160(5) 0.66665(13) 0.4417(4)
C24 C 0.9868(5) 0.65515(15) 0.4916(5)
H19 H 1.0207 0.6220 0.5044
C25 C 1.1092(5) 0.69118(16) 0.5233(5)
H20 H 1.2256 0.6825 0.5567
C26 C 1.0630(6) 0.73959(16) 0.5065(5)
H21 H 1.1473 0.7642 0.5287
C27 C 0.8921(6) 0.75221(15) 0.4569(5)
H22 H 0.8593 0.7855 0.4446
C28 C 0.7693(5) 0.71581(15) 0.4254(5)
H23 H 0.6529 0.7245 0.3925
P2 P 0.82517(12) 0.92534(3) 0.09709(11)
O3 O 1.1198(4) 0.96556(10) 0.0930(3)
O4 O 0.9322(3) 0.88151(10) 0.4002(3)
C29 C 1.2113(5) 0.85761(13) 0.4458(4)
C30 C 1.2804(5) 0.85880(15) 0.6011(5)
H24 H 1.2272 0.8773 0.6515
C31 C 1.4271(5) 0.83274(16) 0.6808(5)
H25 H 1.4742 0.8339 0.7863
C32 C 1.5062(6) 0.80527(15) 0.6113(5)
H26 H 1.6066 0.7876 0.6677
C33 C 1.4368(5) 0.80390(15) 0.4577(5)
H27 H 1.4891 0.7847 0.4079
C34 C 1.2906(5) 0.83057(14) 0.3752(5)
H28 H 1.2455 0.8300 0.2698
C35 C 1.0500(5) 0.88431(14) 0.3575(4)
C36 C 1.0328(5) 0.90947(13) 0.2246(4)
C37 C 1.1601(5) 0.93908(14) 0.2053(5)
C38 C 1.3391(5) 0.94146(15) 0.3208(5)
H29 H 1.4064 0.9629 0.2863
H30 H 1.3887 0.9088 0.3383
H31 H 1.3392 0.9543 0.4135
C39 C 0.7685(5) 0.98489(13) 0.1380(4)
C40 C 0.7004(5) 0.98900(14) 0.2442(4)
H32 H 0.6747 0.9606 0.2858
C41 C 0.6704(5) 1.03455(15) 0.2885(5)
H33 H 0.6241 1.0373 0.3605
C42 C 0.7079(5) 1.07607(15) 0.2281(5)
H34 H 0.6821 1.1072 0.2552
C43 C 0.7828(5) 1.07225(14) 0.1283(5)
H35 H 0.8140 1.1008 0.0913
C44 C 0.8126(5) 1.02674(13) 0.0820(4)
H36 H 0.8627 1.0242 0.0126
C45 C 0.8053(5) 0.92205(14) -0.0917(4)
C46 C 0.8860(5) 0.88342(14) -0.1276(5)
H37 H 0.9534 0.8612 -0.0529
C47 C 0.8672(5) 0.87747(15) -0.2747(5)
H38 H 0.9221 0.8512 -0.3000
C48 C 0.7675(5) 0.91020(16) -0.3839(5)
H39 H 0.7544 0.9063 -0.4837
C49 C 0.6883(5) 0.94818(15) -0.3467(5)
H40 H 0.6221 0.9707 -0.4209
C50 C 0.7047(5) 0.95380(14) -0.2014(4)
H41 H 0.6467 0.9795 -0.1773
C51 C 0.6635(5) 0.88257(14) 0.0935(4)
C52 C 0.7005(5) 0.83335(14) 0.1187(4)
H42 H 0.8146 0.8224 0.1513
C53 C 0.5719(5) 0.80027(14) 0.0966(4)
H43 H 0.5974 0.7666 0.1133
C54 C 0.4074(5) 0.81603(16) 0.0505(5)
H44 H 0.3197 0.7931 0.0369
C55 C 0.3673(5) 0.86481(15) 0.0235(5)
H45 H 0.2530 0.8755 -0.0084
C56 C 0.4970(5) 0.89802(14) 0.0439(5)
H46 H 0.4707 0.9315 0.0234
loop_
_geom_bond_atom_site_label_1
_geom_bond_atom_site_label_2
_geom_bond_site_symmetry_1
_geom_bond_site_symmetry_2
P1 C8 1_555 1_555
O1 C9 1_555 1_555
O2 C7 1_555 1_555
C1 C2 1_555 1_555
C2 H1 1_555 1_555
C3 C2 1_555 1_555
H2 C3 1_555 1_555
C4 C3 1_555 1_555
H3 C4 1_555 1_555
C5 C4 1_555 1_555
H4 C5 1_555 1_555
C6 C1 1_555 1_555
H5 C6 1_555 1_555
C7 C1 1_555 1_555
C8 C7 1_555 1_555
C9 C8 1_555 1_555
C10 C9 1_555 1_555
H6 C10 1_555 1_555
H7 C10 1_555 1_555
H8 C10 1_555 1_555
C11 P1 1_555 1_555
C12 C11 1_555 1_555
H9 C12 1_555 1_555
C13 C12 1_555 1_555
H10 C13 1_555 1_555
C14 C13 1_555 1_555
H11 C14 1_555 1_555
C15 C14 1_555 1_555
H12 C15 1_555 1_555
C16 C11 1_555 1_555
H13 C16 1_555 1_555
C17 P1 1_555 1_555
C18 C17 1_555 1_555
H14 C18 1_555 1_555
C19 C18 1_555 1_555
H15 C19 1_555 1_555
C20 C19 1_555 1_555
H16 C20 1_555 1_555
C21 C20 1_555 1_555
H17 C21 1_555 1_555
C22 C17 1_555 1_555
H18 C22 1_555 1_555
C23 P1 1_555 1_555
C24 C23 1_555 1_555
H19 C24 1_555 1_555
C25 C24 1_555 1_555
H20 C25 1_555 1_555
C26 C25 1_555 1_555
H21 C26 1_555 1_555
C27 C26 1_555 1_555
H22 C27 1_555 1_555
C28 C23 1_555 1_555
H23 C28 1_555 1_555
P2 C36 1_555 1_555
O3 C37 1_555 1_555
O4 C35 1_555 1_555
C29 C30 1_555 1_555
C30 H24 1_555 1_555
C31 C30 1_555 1_555
H25 C31 1_555 1_555
C32 C31 1_555 1_555
H26 C32 1_555 1_555
C33 C32 1_555 1_555
H27 C33 1_555 1_555
C34 C29 1_555 1_555
H28 C34 1_555 1_555
C35 C29 1_555 1_555
C36 C35 1_555 1_555
C37 C36 1_555 1_555
C38 C37 1_555 1_555
H29 C38 1_555 1_555
H30 C38 1_555 1_555
H31 C38 1_555 1_555
C39 P2 1_555 1_555
C40 C39 1_555 1_555
H32 C40 1_555 1_555
C41 C40 1_555 1_555
H33 C41 1_555 1_555
C42 C41 1_555 1_555
H34 C42 1_555 1_555
C43 C42 1_555 1_555
H35 C43 1_555 1_555
C44 C39 1_555 1_555
H36 C44 1_555 1_555
C45 P2 1_555 1_555
C46 C45 1_555 1_555
H37 C46 1_555 1_555
C47 C46 1_555 1_555
H38 C47 1_555 1_555
C48 C47 1_555 1_555
H39 C48 1_555 1_555
C49 C48 1_555 1_555
H40 C49 1_555 1_555
C50 C45 1_555 1_555
H41 C50 1_555 1_555
C51 P2 1_555 1_555
C52 C51 1_555 1_555
H42 C52 1_555 1_555
C53 C52 1_555 1_555
H43 C53 1_555 1_555
C54 C53 1_555 1_555
H44 C54 1_555 1_555
C55 C54 1_555 1_555
H45 C55 1_555 1_555
C56 C51 1_555 1_555
H46 C56 1_555 1_555
C5 C6 1_555 1_555
C15 C16 1_555 1_555
C21 C22 1_555 1_555
C27 C28 1_555 1_555
C33 C34 1_555 1_555
C43 C44 1_555 1_555
C49 C50 1_555 1_555
C55 C56 1_555 1_555

#END
