
#######################################################################
#
#                 Cambridge Crystallographic Data Centre
#                                CCDC 
#
#######################################################################
#
# If this CIF has been generated from an entry in the Cambridge 
# Structural Database, then it will include bibliographic, chemical, 
# crystal, experimental, refinement or atomic coordinate data resulting 
# from the CCDC's data processing and validation procedures.
#
#######################################################################

data_HAZSUZ
_chemical_formula_moiety         'C18 H17 N3 O1'
_chemical_name_systematic        
'1-(1,2,3,6-tetrahydrobiphenyl-4-yl)-1H-1,2,3-benzotriazole 3-oxide'
_symmetry_cell_setting           triclinic
_symmetry_space_group_name_H-M   'P -1'
_symmetry_Int_Tables_number      2
_space_group_name_Hall           '-P 1'
loop_
_symmetry_equiv_pos_site_id
_symmetry_equiv_pos_as_xyz
1 x,y,z
2 -x,-y,-z
_cell_length_a                   7.5023(10)
_cell_length_b                   9.1755(10)
_cell_length_c                   11.8659(13)
_cell_angle_alpha                91.967(9)
_cell_angle_beta                 97.836(10)
_cell_angle_gamma                109.336(11)
_cell_volume                     760.782
_cell_formula_units_Z            2
loop_
_atom_site_label
_atom_site_type_symbol
_atom_site_fract_x
_atom_site_fract_y
_atom_site_fract_z
N1 N 0.4426(6) 0.3439(5) 0.7660(4)
N2 N 0.1837(5) 0.2964(4) 0.8371(3)
O1 O 0.6203(5) 0.3718(4) 0.7588(3)
N3 N 0.3755(5) 0.3209(5) 0.8632(3)
C1 C 0.0691(6) 0.2615(5) 0.9264(4)
C2 C 0.2992(7) 0.3319(5) 0.6750(4)
C3 C 0.1338(7) 0.3037(5) 0.7222(4)
C4 C -0.1094(7) 0.1597(6) 0.9013(4)
H1 H -0.1531 0.1099 0.8282
C5 C -0.2864(8) 0.1799(7) 1.1887(4)
C6 C -0.0394(7) 0.2942(6) 0.6532(4)
H2 H -0.1520 0.2784 0.6831
C7 C -0.2387(7) 0.1253(7) 0.9892(4)
H3 H -0.3513 0.1515 0.9622
H4 H -0.2804 0.0148 0.9975
C8 C 0.1583(7) 0.3426(7) 1.0395(4)
H5 H 0.2080 0.4531 1.0320
H6 H 0.2654 0.3100 1.0679
C9 C 0.3064(8) 0.3478(6) 0.5596(5)
H7 H 0.4193 0.3660 0.5296
C10 C -0.3966(8) 0.2696(7) 1.2043(4)
H8 H -0.3851 0.3539 1.1610
C11 C -0.5400(8) 0.1182(8) 1.3459(5)
H9 H -0.6262 0.0971 1.3976
C12 C -0.3029(9) 0.0609(7) 1.2589(5)
H10 H -0.2246 0.0013 1.2548
C13 C -0.5218(8) 0.2414(7) 1.2801(5)
H11 H -0.5946 0.3048 1.2874
C14 C 0.0238(9) 0.3129(9) 1.1242(5)
H12 H 0.0879 0.2848 1.1923
H13 H 0.0095 0.4113 1.1445
C15 C -0.0308(8) 0.3099(7) 0.5394(5)
H14 H -0.1419 0.3035 0.4907
C16 C -0.4307(9) 0.0275(7) 1.3346(5)
H15 H -0.4428 -0.0567 1.3781
C17 C 0.1386(10) 0.3352(7) 0.4930(5)
H16 H 0.1359 0.3435 0.4150
C18 C -0.1517(9) 0.2085(8) 1.1020(5)
H17 H -0.1055 0.1248 1.1268
loop_
_geom_bond_atom_site_label_1
_geom_bond_atom_site_label_2
_geom_bond_site_symmetry_1
_geom_bond_site_symmetry_2
N1 O1 1_555 1_555
N2 N3 1_555 1_555
N3 N1 1_555 1_555
C1 N2 1_555 1_555
C2 N1 1_555 1_555
C3 N2 1_555 1_555
C4 C1 1_555 1_555
H1 C4 1_555 1_555
C5 C10 1_555 1_555
C6 C3 1_555 1_555
H2 C6 1_555 1_555
C7 C4 1_555 1_555
H3 C7 1_555 1_555
H4 C7 1_555 1_555
C8 C1 1_555 1_555
H5 C8 1_555 1_555
H6 C8 1_555 1_555
C9 C2 1_555 1_555
H7 C9 1_555 1_555
C10 H8 1_555 1_555
C11 H9 1_555 1_555
C12 C5 1_555 1_555
H10 C12 1_555 1_555
C13 C10 1_555 1_555
H11 C13 1_555 1_555
C14 C8 1_555 1_555
H12 C14 1_555 1_555
H13 C14 1_555 1_555
C15 C6 1_555 1_555
H14 C15 1_555 1_555
C16 C11 1_555 1_555
H15 C16 1_555 1_555
C17 C9 1_555 1_555
H16 C17 1_555 1_555
C18 C5 1_555 1_555
H17 C18 1_555 1_555
C2 C3 1_555 1_555
C7 C18 1_555 1_555
C11 C13 1_555 1_555
C12 C16 1_555 1_555
C14 C18 1_555 1_555
C15 C17 1_555 1_555

#END
