
#######################################################################
#
#                 Cambridge Crystallographic Data Centre
#                                CCDC 
#
#######################################################################
#
# If this CIF has been generated from an entry in the Cambridge 
# Structural Database, then it will include bibliographic, chemical, 
# crystal, experimental, refinement or atomic coordinate data resulting 
# from the CCDC's data processing and validation procedures.
#
#######################################################################

data_HAZWAI
_chemical_formula_moiety         'C8 H20 N1 1+,4(Br2),Br1 1-'
_chemical_name_systematic        
'tetraethylammonium bromide tetrakis(dibromine)'
_symmetry_cell_setting           monoclinic
_symmetry_space_group_name_H-M   'C 2/c'
_symmetry_Int_Tables_number      15
_space_group_name_Hall           '-C 2yn'
loop_
_symmetry_equiv_pos_site_id
_symmetry_equiv_pos_as_xyz
1 x,y,z
2 -x,y,1/2-z
3 1/2+x,1/2+y,z
4 1/2-x,1/2+y,1/2-z
5 -x,-y,-z
6 x,-y,1/2+z
7 1/2-x,1/2-y,-z
8 1/2+x,1/2-y,1/2+z
_cell_length_a                   26.4286(12)
_cell_length_b                   21.1509(11)
_cell_length_c                   16.9631(7)
_cell_angle_alpha                90
_cell_angle_beta                 114.333(2)
_cell_angle_gamma                90
_cell_volume                     8639.84
_exptl_crystal_colour            red
_exptl_crystal_description       block
_cell_formula_units_Z            16
loop_
_atom_site_label
_atom_site_type_symbol
_atom_site_fract_x
_atom_site_fract_y
_atom_site_fract_z
Br1 Br 0.5000 0.50882(6) 0.7500
Br2 Br 0.5000 0.01534(6) 0.7500
Br3 Br 0.24556(2) 0.73745(5) 0.24090(4)
Br4 Br 0.41886(3) 0.38583(4) 0.24055(4)
Br5 Br 0.35086(3) 0.31789(4) 0.24769(4)
Br6 Br 0.55559(3) 0.02433(4) 0.43659(4)
Br7 Br 0.59118(3) 0.05246(5) 0.58175(4)
Br8 Br 0.44330(3) 0.46915(4) 0.56997(4)
Br9 Br 0.39274(4) 0.44134(6) 0.42554(5)
Br10 Br 0.33350(3) 0.63628(4) 0.26687(4)
Br11 Br 0.40417(3) 0.56989(4) 0.26557(4)
Br12 Br 0.40484(3) 0.89066(4) 0.22503(4)
Br13 Br 0.33324(3) 0.82502(4) 0.22502(4)
N1 N 0.49513(18) 0.7537(3) 0.4951(3)
C1 C 0.4974(3) 0.7787(4) 0.6438(4)
H1 H 0.4986 0.7341 0.6602
H2 H 0.4778 0.8032 0.6715
H3 H 0.5354 0.7948 0.6627
C2 C 0.4767(3) 0.7350(4) 0.3365(4)
H4 H 0.4467 0.7355 0.2783
H5 H 0.4900 0.6915 0.3520
H6 H 0.5073 0.7617 0.3377
C3 C 0.5474(3) 0.8549(5) 0.4912(5)
H7 H 0.5239 0.8611 0.4296
H8 H 0.5849 0.8708 0.5043
H9 H 0.5317 0.8780 0.5259
C4 C 0.4674(3) 0.7849(4) 0.5464(4)
H10 H 0.4297 0.7667 0.5282
H11 H 0.4629 0.8304 0.5316
C5 C 0.5503(2) 0.7848(4) 0.5128(4)
H12 H 0.5678 0.7624 0.4792
H13 H 0.5749 0.7793 0.5749
C6 C 0.4552(2) 0.7601(4) 0.4009(4)
H14 H 0.4458 0.8053 0.3883
H15 H 0.4205 0.7374 0.3919
C7 C 0.5078(3) 0.6848(4) 0.5195(4)
H16 H 0.5245 0.6664 0.4821
H17 H 0.5362 0.6829 0.5798
C8 C 0.4598(3) 0.6440(5) 0.5128(4)
H18 H 0.4303 0.6471 0.4542
H19 H 0.4456 0.6582 0.5548
H20 H 0.4721 0.5999 0.5249
Br14 Br 0.68930(3) 0.72156(4) 0.55945(4)
Br15 Br 0.64004(4) 0.69040(5) 0.41649(5)
Br16 Br 0.91334(3) 0.42618(4) 0.76130(4)
Br17 Br 0.84377(3) 0.35970(4) 0.76713(4)
Br18 Br 0.30061(3) 0.77544(4) 0.42452(4)
Br19 Br 0.33711(3) 0.80084(5) 0.57096(4)
N2 N 0.74808(18) 0.4910(3) 0.4894(3)
C9 C 0.7892(2) 0.4842(4) 0.5830(4)
H21 H 0.8236 0.5072 0.5908
H22 H 0.7989 0.4389 0.5946
C10 C 0.7691(3) 0.5083(4) 0.6498(4)
H23 H 0.7574 0.5525 0.6372
H24 H 0.7993 0.5054 0.7077
H25 H 0.7376 0.4826 0.6475
C11 C 0.6964(3) 0.3913(4) 0.4979(4)
H26 H 0.7086 0.3669 0.4599
H27 H 0.6597 0.3765 0.4911
H28 H 0.7230 0.3857 0.5582
C12 C 0.7849(3) 0.5986(4) 0.4742(4)
H29 H 0.8010 0.5816 0.4358
H30 H 0.8129 0.5974 0.5341
H31 H 0.7732 0.6424 0.4579
C13 C 0.6932(3) 0.4599(4) 0.4744(4)
H32 H 0.6763 0.4831 0.5082
H33 H 0.6679 0.4644 0.4125
C14 C 0.7750(3) 0.4597(4) 0.4361(4)
H34 H 0.7806 0.4144 0.4518
H35 H 0.8120 0.4789 0.4516
C15 C 0.7421(3) 0.4649(4) 0.3383(4)
H36 H 0.7625 0.4438 0.3089
H37 H 0.7369 0.5096 0.3216
H38 H 0.7058 0.4447 0.3216
C16 C 0.7364(3) 0.5600(4) 0.4663(4)
H39 H 0.7081 0.5629 0.4060
H40 H 0.7200 0.5786 0.5041
loop_
_geom_bond_atom_site_label_1
_geom_bond_atom_site_label_2
_geom_bond_site_symmetry_1
_geom_bond_site_symmetry_2
Br4 Br5 1_555 1_555
Br6 Br7 1_555 1_555
Br8 Br9 1_555 1_555
Br10 Br11 1_555 1_555
Br12 Br13 1_555 1_555
N1 C4 1_555 1_555
C1 H1 1_555 1_555
H2 C1 1_555 1_555
H3 C1 1_555 1_555
C2 H4 1_555 1_555
H5 C2 1_555 1_555
H6 C2 1_555 1_555
C3 H7 1_555 1_555
H8 C3 1_555 1_555
H9 C3 1_555 1_555
C4 C1 1_555 1_555
H10 C4 1_555 1_555
H11 C4 1_555 1_555
C5 N1 1_555 1_555
H12 C5 1_555 1_555
H13 C5 1_555 1_555
C6 N1 1_555 1_555
H14 C6 1_555 1_555
H15 C6 1_555 1_555
C7 N1 1_555 1_555
H16 C7 1_555 1_555
H17 C7 1_555 1_555
C8 C7 1_555 1_555
H18 C8 1_555 1_555
H19 C8 1_555 1_555
H20 C8 1_555 1_555
Br14 Br15 1_555 1_555
Br16 Br17 1_555 1_555
Br18 Br19 1_555 1_555
N2 C9 1_555 1_555
C9 H21 1_555 1_555
H22 C9 1_555 1_555
C10 C9 1_555 1_555
H23 C10 1_555 1_555
H24 C10 1_555 1_555
H25 C10 1_555 1_555
C11 H26 1_555 1_555
H27 C11 1_555 1_555
H28 C11 1_555 1_555
C12 H29 1_555 1_555
H30 C12 1_555 1_555
H31 C12 1_555 1_555
C13 N2 1_555 1_555
H32 C13 1_555 1_555
H33 C13 1_555 1_555
C14 N2 1_555 1_555
H34 C14 1_555 1_555
H35 C14 1_555 1_555
C15 C14 1_555 1_555
H36 C15 1_555 1_555
H37 C15 1_555 1_555
H38 C15 1_555 1_555
C16 N2 1_555 1_555
H39 C16 1_555 1_555
H40 C16 1_555 1_555
C2 C6 1_555 1_555
C3 C5 1_555 1_555
C11 C13 1_555 1_555
C12 C16 1_555 1_555

#END
