
#######################################################################
#
#                 Cambridge Crystallographic Data Centre
#                                CCDC 
#
#######################################################################
#
# If this CIF has been generated from an entry in the Cambridge 
# Structural Database, then it will include bibliographic, chemical, 
# crystal, experimental, refinement or atomic coordinate data resulting 
# from the CCDC's data processing and validation procedures.
#
#######################################################################

data_HAZXUE
_chemical_formula_moiety         'C26 H31 O1 P1'
_chemical_name_systematic        
dicyclohexyl(3-phenyl-1-benzofuran-2-yl)phosphane
_symmetry_cell_setting           monoclinic
_symmetry_space_group_name_H-M   'P 21/n'
_symmetry_Int_Tables_number      14
_space_group_name_Hall           '-P 2yn'
loop_
_symmetry_equiv_pos_site_id
_symmetry_equiv_pos_as_xyz
1 x,y,z
2 1/2-x,1/2+y,1/2-z
3 -x,-y,-z
4 1/2+x,1/2-y,1/2+z
_cell_length_a                   12.193(2)
_cell_length_b                   12.336(2)
_cell_length_c                   14.229(2)
_cell_angle_alpha                90
_cell_angle_beta                 99.021(5)
_cell_angle_gamma                90
_cell_volume                     2113.75
_exptl_crystal_colour            colorless
_exptl_crystal_description       Prism
_cell_formula_units_Z            4
loop_
_atom_site_label
_atom_site_type_symbol
_atom_site_fract_x
_atom_site_fract_y
_atom_site_fract_z
P1 P 0.48412(2) 0.90123(2) 0.100607(18)
O1 O 0.45065(6) 0.71033(6) 0.19792(5)
C1 C 0.51168(8) 0.76031(8) 0.13433(7)
C2 C 0.58354(8) 0.68859(8) 0.10389(7)
C3 C 0.66314(8) 0.70848(8) 0.03742(7)
C4 C 0.73885(9) 0.79422(9) 0.05138(8)
H1 H 0.7390 0.8416 0.1041
C5 C 0.81382(9) 0.81058(9) -0.01137(9)
H2 H 0.8649 0.8691 -0.0014
C6 C 0.81463(10) 0.74193(10) -0.08863(9)
H3 H 0.8660 0.7534 -0.1314
C7 C 0.73998(10) 0.65667(10) -0.10292(8)
H4 H 0.7401 0.6096 -0.1558
C8 C 0.66493(9) 0.63955(9) -0.04039(8)
H5 H 0.6144 0.5805 -0.0505
C9 C 0.56801(9) 0.58601(8) 0.15004(7)
C10 C 0.61781(9) 0.48353(9) 0.15212(8)
H6 H 0.6733 0.4681 0.1141
C11 C 0.58385(10) 0.40544(9) 0.21124(8)
H7 H 0.6169 0.3355 0.2138
C12 C 0.50194(10) 0.42717(9) 0.26732(8)
H8 H 0.4804 0.3716 0.3069
C13 C 0.45134(10) 0.52803(9) 0.26644(8)
H9 H 0.3957 0.5434 0.3044
C14 C 0.48678(9) 0.60508(8) 0.20681(7)
C15 C 0.46039(8) 0.95676(8) 0.21707(7)
H10 H 0.4108 0.9060 0.2456
C16 C 0.57200(9) 0.96472(9) 0.28409(7)
H11 H 0.6060 0.8918 0.2930
H12 H 0.6232 1.0120 0.2551
C17 C 0.55572(10) 1.01088(10) 0.38066(8)
H13 H 0.5094 0.9606 0.4119
H14 H 0.6287 1.0176 0.4219
C18 C 0.49978(10) 1.12179(9) 0.36919(8)
H15 H 0.4862 1.1480 0.4321
H16 H 0.5499 1.1740 0.3445
C19 C 0.38990(10) 1.11687(9) 0.30129(8)
H17 H 0.3588 1.1909 0.2916
H18 H 0.3364 1.0722 0.3301
C20 C 0.40444(9) 1.06852(8) 0.20490(7)
H19 H 0.4503 1.1180 0.1723
H20 H 0.3309 1.0615 0.1645
C21 C 0.34126(8) 0.89300(8) 0.03122(7)
H21 H 0.3203 0.9687 0.0106
C22 C 0.34515(9) 0.82802(9) -0.06025(7)
H22 H 0.4027 0.8590 -0.0943
H23 H 0.3660 0.7521 -0.0435
C23 C 0.23264(10) 0.82987(10) -0.12579(8)
H24 H 0.2152 0.9050 -0.1478
H25 H 0.2366 0.7843 -0.1824
C24 C 0.14092(9) 0.78782(9) -0.07389(8)
H26 H 0.1550 0.7107 -0.0567
H27 H 0.0686 0.7925 -0.1164
C25 C 0.13616(9) 0.85385(9) 0.01601(8)
H28 H 0.0778 0.8240 0.0497
H29 H 0.1165 0.9298 -0.0016
C26 C 0.24812(9) 0.85121(9) 0.08224(7)
H30 H 0.2439 0.8967 0.1389
H31 H 0.2649 0.7760 0.1041
loop_
_geom_bond_atom_site_label_1
_geom_bond_atom_site_label_2
_geom_bond_site_symmetry_1
_geom_bond_site_symmetry_2
P1 C1 1_555 1_555
O1 C1 1_555 1_555
C1 C2 1_555 1_555
C2 C3 1_555 1_555
C3 C4 1_555 1_555
C4 H1 1_555 1_555
C5 C4 1_555 1_555
H2 C5 1_555 1_555
C6 C5 1_555 1_555
H3 C6 1_555 1_555
C7 C6 1_555 1_555
H4 C7 1_555 1_555
C8 C3 1_555 1_555
H5 C8 1_555 1_555
C9 C2 1_555 1_555
C10 C9 1_555 1_555
H6 C10 1_555 1_555
C11 C10 1_555 1_555
H7 C11 1_555 1_555
C12 C11 1_555 1_555
H8 C12 1_555 1_555
C13 C12 1_555 1_555
H9 C13 1_555 1_555
C14 O1 1_555 1_555
C15 P1 1_555 1_555
H10 C15 1_555 1_555
C16 C15 1_555 1_555
H11 C16 1_555 1_555
H12 C16 1_555 1_555
C17 C16 1_555 1_555
H13 C17 1_555 1_555
H14 C17 1_555 1_555
C18 C17 1_555 1_555
H15 C18 1_555 1_555
H16 C18 1_555 1_555
C19 C18 1_555 1_555
H17 C19 1_555 1_555
H18 C19 1_555 1_555
C20 C15 1_555 1_555
H19 C20 1_555 1_555
H20 C20 1_555 1_555
C21 P1 1_555 1_555
H21 C21 1_555 1_555
C22 C21 1_555 1_555
H22 C22 1_555 1_555
H23 C22 1_555 1_555
C23 C22 1_555 1_555
H24 C23 1_555 1_555
H25 C23 1_555 1_555
C24 C23 1_555 1_555
H26 C24 1_555 1_555
H27 C24 1_555 1_555
C25 C24 1_555 1_555
H28 C25 1_555 1_555
H29 C25 1_555 1_555
C26 C21 1_555 1_555
H30 C26 1_555 1_555
H31 C26 1_555 1_555
C7 C8 1_555 1_555
C9 C14 1_555 1_555
C13 C14 1_555 1_555
C19 C20 1_555 1_555
C25 C26 1_555 1_555

#END
