
#######################################################################
#
#                 Cambridge Crystallographic Data Centre
#                                CCDC 
#
#######################################################################
#
# If this CIF has been generated from an entry in the Cambridge 
# Structural Database, then it will include bibliographic, chemical, 
# crystal, experimental, refinement or atomic coordinate data resulting 
# from the CCDC's data processing and validation procedures.
#
#######################################################################

data_HAZXIS
_chemical_formula_moiety         'C26 H19 O2 P1'
_chemical_name_systematic        
'diphenyl(3-phenyl-1-benzofuran-2-yl)phosphane oxide'
_symmetry_cell_setting           monoclinic
_symmetry_space_group_name_H-M   'P 21/n'
_symmetry_Int_Tables_number      14
_space_group_name_Hall           '-P 2yn'
loop_
_symmetry_equiv_pos_site_id
_symmetry_equiv_pos_as_xyz
1 x,y,z
2 1/2-x,1/2+y,1/2-z
3 -x,-y,-z
4 1/2+x,1/2-y,1/2+z
_cell_length_a                   9.728(3)
_cell_length_b                   15.946(4)
_cell_length_c                   13.081(3)
_cell_angle_alpha                90
_cell_angle_beta                 105.066(7)
_cell_angle_gamma                90
_cell_volume                     1959.41
_exptl_crystal_colour            colorless
_exptl_crystal_description       Prism
_cell_formula_units_Z            4
loop_
_atom_site_label
_atom_site_type_symbol
_atom_site_fract_x
_atom_site_fract_y
_atom_site_fract_z
P1 P 0.89141(3) 0.10208(2) 0.25949(2)
O1 O 0.69807(9) -0.00125(5) 0.13398(7)
O2 O 1.04457(10) 0.10222(6) 0.31539(8)
C1 C 0.68478(13) -0.07501(8) 0.07806(9)
C2 C 0.55747(13) -0.11190(8) 0.02434(10)
H1 H 0.4678 -0.0880 0.0238
C3 C 0.56909(14) -0.18587(8) -0.02862(10)
H2 H 0.4850 -0.2139 -0.0662
C4 C 0.70209(14) -0.22019(8) -0.02796(10)
H3 H 0.7060 -0.2703 -0.0664
C5 C 0.82765(14) -0.18276(8) 0.02737(10)
H4 H 0.9173 -0.2066 0.0280
C6 C 0.81847(13) -0.10852(7) 0.08252(9)
C7 C 0.92123(13) -0.05101(8) 0.14594(9)
C8 C 0.84384(13) 0.01173(8) 0.17438(9)
C9 C 1.07711(13) -0.06188(8) 0.17160(9)
C10 C 1.16506(15) 0.00270(10) 0.15474(11)
H5 H 1.1250 0.0548 0.1267
C11 C 1.31141(17) -0.00910(13) 0.17893(12)
H6 H 1.3710 0.0350 0.1670
C12 C 1.37089(16) -0.08425(13) 0.22016(12)
H7 H 1.4712 -0.0915 0.2373
C13 C 1.28495(16) -0.14903(11) 0.23661(11)
H8 H 1.3261 -0.2008 0.2649
C14 C 1.13785(15) -0.13833(9) 0.21166(10)
H9 H 1.0786 -0.1832 0.2219
C15 C 0.83014(13) 0.19110(8) 0.17547(10)
C16 C 0.81841(14) 0.18866(8) 0.06683(10)
H10 H 0.8391 0.1383 0.0349
C17 C 0.77643(15) 0.25993(9) 0.00551(10)
H11 H 0.7684 0.2581 -0.0684
C18 C 0.74625(15) 0.33363(8) 0.05129(11)
H12 H 0.7173 0.3821 0.0089
C19 C 0.75833(15) 0.33656(8) 0.15915(11)
H13 H 0.7380 0.3871 0.1907
C20 C 0.80005(14) 0.26568(8) 0.22122(10)
H14 H 0.8081 0.2680 0.2951
C21 C 0.77686(15) 0.09524(8) 0.34742(10)
C22 C 0.63176(15) 0.11262(9) 0.31604(11)
H15 H 0.5890 0.1299 0.2454
C23 C 0.54927(18) 0.10473(10) 0.38784(12)
H16 H 0.4505 0.1175 0.3667
C24 C 0.6113(2) 0.07834(10) 0.49005(12)
H17 H 0.5548 0.0732 0.5390
C25 C 0.7546(2) 0.05932(9) 0.52164(11)
H18 H 0.7960 0.0399 0.5915
C26 C 0.83848(18) 0.06872(9) 0.45075(11)
H19 H 0.9376 0.0571 0.4728
loop_
_geom_bond_atom_site_label_1
_geom_bond_atom_site_label_2
_geom_bond_site_symmetry_1
_geom_bond_site_symmetry_2
P1 O2 1_555 1_555
O1 C1 1_555 1_555
C1 C2 1_555 1_555
C2 H1 1_555 1_555
C3 C2 1_555 1_555
H2 C3 1_555 1_555
C4 C3 1_555 1_555
H3 C4 1_555 1_555
C5 C4 1_555 1_555
H4 C5 1_555 1_555
C6 C1 1_555 1_555
C7 C6 1_555 1_555
C8 P1 1_555 1_555
C9 C7 1_555 1_555
C10 C9 1_555 1_555
H5 C10 1_555 1_555
C11 C10 1_555 1_555
H6 C11 1_555 1_555
C12 C11 1_555 1_555
H7 C12 1_555 1_555
C13 C12 1_555 1_555
H8 C13 1_555 1_555
C14 C9 1_555 1_555
H9 C14 1_555 1_555
C15 P1 1_555 1_555
C16 C15 1_555 1_555
H10 C16 1_555 1_555
C17 C16 1_555 1_555
H11 C17 1_555 1_555
C18 C17 1_555 1_555
H12 C18 1_555 1_555
C19 C18 1_555 1_555
H13 C19 1_555 1_555
C20 C15 1_555 1_555
H14 C20 1_555 1_555
C21 P1 1_555 1_555
C22 C21 1_555 1_555
H15 C22 1_555 1_555
C23 C22 1_555 1_555
H16 C23 1_555 1_555
C24 C23 1_555 1_555
H17 C24 1_555 1_555
C25 C24 1_555 1_555
H18 C25 1_555 1_555
C26 C21 1_555 1_555
H19 C26 1_555 1_555
O1 C8 1_555 1_555
C5 C6 1_555 1_555
C7 C8 1_555 1_555
C13 C14 1_555 1_555
C19 C20 1_555 1_555
C25 C26 1_555 1_555

#END
