
#######################################################################
#
#                 Cambridge Crystallographic Data Centre
#                                CCDC 
#
#######################################################################
#
# If this CIF has been generated from an entry in the Cambridge 
# Structural Database, then it will include bibliographic, chemical, 
# crystal, experimental, refinement or atomic coordinate data resulting 
# from the CCDC's data processing and validation procedures.
#
#######################################################################

data_HCLBNZ14
_chemical_formula_moiety         'C6 Cl6'
_chemical_name_systematic        hexachlorobenzene
_symmetry_cell_setting           monoclinic
_symmetry_space_group_name_H-M   'P 21/n'
_symmetry_Int_Tables_number      14
_space_group_name_Hall           '-P 2yn'
loop_
_symmetry_equiv_pos_site_id
_symmetry_equiv_pos_as_xyz
1 x,y,z
2 1/2-x,1/2+y,1/2-z
3 -x,-y,-z
4 1/2+x,1/2-y,1/2+z
_cell_length_a                   8.042(4)
_cell_length_b                   3.846(2)
_cell_length_c                   14.809(7)
_cell_angle_alpha                90
_cell_angle_beta                 91.974(8)
_cell_angle_gamma                90
_cell_volume                     457.764
_exptl_crystal_colour            colorless
_exptl_crystal_description       needle
_cell_formula_units_Z            2
loop_
_atom_site_label
_atom_site_type_symbol
_atom_site_fract_x
_atom_site_fract_y
_atom_site_fract_z
Cl1 Cl 0.76657(16) 0.2049(4) 0.63669(10)
Cl2 Cl 0.42400(17) 0.4457(5) 0.70362(9)
Cl3 Cl 0.15928(14) 0.7532(5) 0.56762(10)
C1 C 0.6199(5) 0.3665(13) 0.5611(3)
C2 C 0.3470(5) 0.6151(13) 0.5308(3)
C3 C 0.4663(5) 0.4791(13) 0.5911(3)
Cl1B Cl 0.23343(16) 0.7951(4) 0.36331(10)
Cl2B Cl 0.57600(17) 0.5543(5) 0.29638(9)
Cl3B Cl 0.84072(14) 0.2468(5) 0.43238(10)
C1B C 0.3801(5) 0.6335(13) 0.4389(3)
C2B C 0.6530(5) 0.3849(13) 0.4692(3)
C3B C 0.5337(5) 0.5209(13) 0.4089(3)
loop_
_geom_bond_atom_site_label_1
_geom_bond_atom_site_label_2
_geom_bond_site_symmetry_1
_geom_bond_site_symmetry_2
Cl1 C1 1_555 1_555
Cl2 C3 1_555 1_555
Cl3 C2 1_555 1_555
C1 C3 1_555 1_555
C2 C3 1_555 1_555
Cl1B C1B 1_555 1_555
Cl2B C3B 1_555 1_555
Cl3B C2B 1_555 1_555
C1B C2 1_555 1_555
C2B C1 1_555 1_555
C3B C1B 1_555 1_555
C2B C3B 1_555 1_555

#END
