
#######################################################################
#
#                 Cambridge Crystallographic Data Centre
#                                CCDC 
#
#######################################################################
#
# If this CIF has been generated from an entry in the Cambridge 
# Structural Database, then it will include bibliographic, chemical, 
# crystal, experimental, refinement or atomic coordinate data resulting 
# from the CCDC's data processing and validation procedures.
#
#######################################################################

data_HCYSAC
_chemical_formula_moiety         'C4 H9 N1 O5 S1'
_chemical_name_systematic        'DL-Homocysteic acid'
_symmetry_cell_setting           orthorhombic
_symmetry_space_group_name_H-M   'F 2 d d'
_symmetry_Int_Tables_number      43
_space_group_name_Hall           'F -2d 2'
loop_
_symmetry_equiv_pos_site_id
_symmetry_equiv_pos_as_xyz
1 x,y,z
2 x,1/2+y,1/2+z
3 1/2+x,y,1/2+z
4 1/2+x,1/2+y,z
5 1/4+x,1/4-y,1/4+z
6 1/4+x,3/4-y,3/4+z
7 3/4+x,1/4-y,3/4+z
8 3/4+x,3/4-y,1/4+z
9 1/4+x,1/4+y,1/4-z
10 1/4+x,3/4+y,3/4-z
11 3/4+x,1/4+y,3/4-z
12 3/4+x,3/4+y,1/4-z
13 1/2+x,1/2-y,-z
14 1/2+x,-y,1/2-z
15 x,1/2-y,1/2-z
16 x,-y,-z
_cell_length_a                   6.06(3)
_cell_length_b                   20.19(7)
_cell_length_c                   23.25(5)
_cell_angle_alpha                90
_cell_angle_beta                 90
_cell_angle_gamma                90
_cell_volume                     2844.67
_chemical_melting_point          274-6deg.C
_cell_formula_units_Z            16
loop_
_atom_site_label
_atom_site_type_symbol
_atom_site_fract_x
_atom_site_fract_y
_atom_site_fract_z
S1 S 0.25000 0.25850 0.12865
C1 C 0.19760 0.32920 0.17140
C2 C -0.03920 0.33070 0.19320
C3 C -0.07140 0.38000 0.24260
C4 C -0.30080 0.37610 0.26400
N1 N -0.02550 0.44820 0.22370
O1 O 0.46400 0.27040 0.10180
O2 O 0.07410 0.25360 0.08750
O3 O 0.25830 0.20160 0.16750
O4 O -0.44690 0.41260 0.24950
O5 O -0.33120 0.32590 0.29910
H1 H 0.27400 0.33100 0.20700
H2 H 0.21500 0.36400 0.15500
H3 H -0.08100 0.29200 0.20700
H4 H -0.18800 0.33800 0.16300
H5 H 0.06500 0.37400 0.26500
H6 H 0.10500 0.45600 0.21300
H7 H -0.16000 0.46600 0.20000
H8 H -0.01300 0.47800 0.24600
H9 H -0.47300 0.32800 0.32100
loop_
_geom_bond_atom_site_label_1
_geom_bond_atom_site_label_2
_geom_bond_site_symmetry_1
_geom_bond_site_symmetry_2
S1 C1 1_555 1_555
C1 C2 1_555 1_555
C2 C3 1_555 1_555
C3 C4 1_555 1_555
C4 O4 1_555 1_555
N1 C3 1_555 1_555
O1 S1 1_555 1_555
O2 S1 1_555 1_555
O3 S1 1_555 1_555
O5 C4 1_555 1_555
H1 C1 1_555 1_555
H2 C1 1_555 1_555
H3 C2 1_555 1_555
H4 C2 1_555 1_555
H5 C3 1_555 1_555
H6 N1 1_555 1_555
H7 N1 1_555 1_555
H8 N1 1_555 1_555
H9 O5 1_555 1_555

#END
