
#######################################################################
#
#                 Cambridge Crystallographic Data Centre
#                                CCDC 
#
#######################################################################
#
# If this CIF has been generated from an entry in the Cambridge 
# Structural Database, then it will include bibliographic, chemical, 
# crystal, experimental, refinement or atomic coordinate data resulting 
# from the CCDC's data processing and validation procedures.
#
#######################################################################

data_HEBLOP
_chemical_formula_moiety         'C13 H21 N2 O1 1+,Cl1 1-'
_chemical_name_systematic        
"2'-Methylphenylamide diethylaminoacetic acid hydrochloride"
_symmetry_cell_setting           monoclinic
_symmetry_space_group_name_H-M   'P 21/n'
_symmetry_Int_Tables_number      14
_space_group_name_Hall           '-P 2yn'
loop_
_symmetry_equiv_pos_site_id
_symmetry_equiv_pos_as_xyz
1 x,y,z
2 1/2-x,1/2+y,1/2-z
3 -x,-y,-z
4 1/2+x,1/2-y,1/2+z
_cell_length_a                   10.188(2)
_cell_length_b                   11.252(2)
_cell_length_c                   12.724(2)
_cell_angle_alpha                90
_cell_angle_beta                 92.08(2)
_cell_angle_gamma                90
_cell_volume                     1457.66
_exptl_crystal_colour            colorless
_cell_formula_units_Z            4
loop_
_atom_site_label
_atom_site_type_symbol
_atom_site_fract_x
_atom_site_fract_y
_atom_site_fract_z
Cl1 Cl 0.1046(1) 0.6516(1) 0.5731(1)
O1 O 0.2081(3) 0.5645(2) 0.8405(2)
N1 N 0.1866(3) 0.4070(2) 0.6670(2)
N2 N 0.2875(3) 0.4120(2) 0.9396(2)
C1 C 0.2279(5) 0.3511(4) 0.5658(3)
C2 C 0.3416(6) 0.4110(4) 0.5178(3)
C3 C 0.0523(4) 0.3702(3) 0.6993(3)
C4 C 0.0433(5) 0.2389(4) 0.7260(4)
C5 C 0.2896(4) 0.3946(3) 0.7517(3)
C6 C 0.2554(4) 0.4657(3) 0.8491(3)
C7 C 0.2772(4) 0.4636(3) 1.0413(3)
C8 C 0.3543(4) 0.5609(3) 1.0681(3)
C9 C 0.3500(5) 0.6080(4) 1.1691(3)
C10 C 0.2718(5) 0.5541(4) 1.2406(3)
C11 C 0.1950(5) 0.4584(4) 1.2137(4)
C12 C 0.1930(4) 0.4121(3) 1.1123(3)
C13 C 0.1015(5) 0.3138(4) 1.0793(4)
H1 H 0.183(2) 0.481(2) 0.656(2)
H2 H 0.149(4) 0.357(3) 0.522(3)
H3 H 0.246(2) 0.268(2) 0.582(2)
H4 H 0.422(4) 0.408(3) 0.562(2)
H5 H 0.363(5) 0.373(4) 0.456(4)
H6 H 0.335(3) 0.494(3) 0.511(3)
H7 H 0.026(3) 0.421(3) 0.767(2)
H8 H 0.001(3) 0.379(2) 0.649(2)
H9 H 0.092(5) 0.224(5) 0.803(4)
H10 H 0.061(3) 0.200(3) 0.660(3)
H12 H 0.297(3) 0.318(2) 0.770(2)
H13 H 0.383(4) 0.431(3) 0.721(2)
H14 H 0.309(3) 0.346(3) 0.938(2)
H15 H 0.406(3) 0.590(3) 1.016(2)
H16 H 0.405(3) 0.676(3) 1.181(2)
H17 H 0.264(3) 0.593(3) 1.304(2)
H18 H 0.137(4) 0.417(3) 1.262(3)
H19 H 0.044(4) 0.294(4) 1.128(3)
H20 H 0.150(3) 0.248(3) 1.067(2)
H21 H 0.041(4) 0.340(3) 1.011(3)
H11? H 0.044(4) 0.234(4) 0.748(3)
loop_
_geom_bond_atom_site_label_1
_geom_bond_atom_site_label_2
_geom_bond_site_symmetry_1
_geom_bond_site_symmetry_2
O1 C6 1_555 1_555
N1 C1 1_555 1_555
N2 C6 1_555 1_555
C1 C2 1_555 1_555
C2 H4 1_555 1_555
C3 N1 1_555 1_555
C4 C3 1_555 1_555
C5 N1 1_555 1_555
C6 C5 1_555 1_555
C7 N2 1_555 1_555
C8 C7 1_555 1_555
C9 C8 1_555 1_555
C10 C9 1_555 1_555
C11 C10 1_555 1_555
C12 C7 1_555 1_555
C13 C12 1_555 1_555
H1 N1 1_555 1_555
H2 C1 1_555 1_555
H3 C1 1_555 1_555
H5 C2 1_555 1_555
H6 C2 1_555 1_555
H7 C3 1_555 1_555
H8 C3 1_555 1_555
H9 C4 1_555 1_555
H10 C4 1_555 1_555
H12 C5 1_555 1_555
H13 C5 1_555 1_555
H14 N2 1_555 1_555
H15 C8 1_555 1_555
H16 C9 1_555 1_555
H17 C10 1_555 1_555
H18 C11 1_555 1_555
H19 C13 1_555 1_555
H20 C13 1_555 1_555
H21 C13 1_555 1_555
C11 C12 1_555 1_555

#END
