
#######################################################################
#
#                 Cambridge Crystallographic Data Centre
#                                CCDC 
#
#######################################################################
#
# If this CIF has been generated from an entry in the Cambridge 
# Structural Database, then it will include bibliographic, chemical, 
# crystal, experimental, refinement or atomic coordinate data resulting 
# from the CCDC's data processing and validation procedures.
#
#######################################################################

data_HEBMUY
_chemical_formula_moiety         'C9 H7 N3 O2'
_chemical_name_systematic        '4-(1H-1,2,4-Triazol-1-yl)benzoic acid'
_symmetry_cell_setting           monoclinic
_symmetry_space_group_name_H-M   'P n'
_symmetry_Int_Tables_number      7
_space_group_name_Hall           'P -2yac'
loop_
_symmetry_equiv_pos_site_id
_symmetry_equiv_pos_as_xyz
1 x,y,z
2 1/2+x,-y,1/2+z
_cell_length_a                   3.96260(10)
_cell_length_b                   6.2888(2)
_cell_length_c                   16.5205(5)
_cell_angle_alpha                90
_cell_angle_beta                 94.462(2)
_cell_angle_gamma                90
_cell_volume                     410.443
_exptl_crystal_colour            colorless
_exptl_crystal_description       prism
_cell_formula_units_Z            2
loop_
_atom_site_label
_atom_site_type_symbol
_atom_site_fract_x
_atom_site_fract_y
_atom_site_fract_z
C1 C 1.8374(7) 1.0801(4) 0.63157(15)
H1 H 1.9269 1.2100 0.6495
C2 C 1.7231(6) 0.7572(3) 0.62815(12)
H2 H 1.7089 0.6132 0.6401
C3 C 1.3827(5) 0.7526(3) 0.49518(12)
C4 C 1.2607(5) 0.5471(3) 0.50371(12)
H3 H 1.2995 0.4753 0.5528
C5 C 1.0822(5) 0.4510(3) 0.43906(12)
H4 H 1.0016 0.3132 0.4445
C6 C 1.0209(5) 0.5578(3) 0.36559(13)
C7 C 1.1401(5) 0.7638(3) 0.35875(12)
H5 H 1.0967 0.8367 0.3101
C8 C 1.3218(5) 0.8625(4) 0.42268(12)
H6 H 1.4022 1.0003 0.4173
C9 C 0.8307(6) 0.4564(3) 0.29471(13)
N1 N 1.5776(4) 0.8487(2) 0.56143(10)
N2 N 1.6531(6) 1.0602(3) 0.56320(13)
N3 N 1.8896(5) 0.8982(3) 0.67489(11)
O1 O 0.7395(4) 0.2579(3) 0.30837(10)
H7 H 0.6368 0.2096 0.2674
O2 O 0.7681(5) 0.5457(3) 0.23051(10)
loop_
_geom_bond_atom_site_label_1
_geom_bond_atom_site_label_2
_geom_bond_site_symmetry_1
_geom_bond_site_symmetry_2
C1 H1 1_555 1_555
C2 H2 1_555 1_555
C3 C4 1_555 1_555
C4 H3 1_555 1_555
C5 C4 1_555 1_555
H4 C5 1_555 1_555
C6 C5 1_555 1_555
C7 C6 1_555 1_555
H5 C7 1_555 1_555
C8 C3 1_555 1_555
H6 C8 1_555 1_555
C9 C6 1_555 1_555
N1 C2 1_555 1_555
N2 C1 1_555 1_555
N3 C1 1_555 1_555
O1 C9 1_555 1_555
H7 O1 1_555 1_555
O2 C9 1_555 1_555
C2 N3 1_555 1_555
C3 N1 1_555 1_555
C7 C8 1_555 1_555
N1 N2 1_555 1_555

#END
