
#######################################################################
#
#                 Cambridge Crystallographic Data Centre
#                                CCDC 
#
#######################################################################
#
# If this CIF has been generated from an entry in the Cambridge 
# Structural Database, then it will include bibliographic, chemical, 
# crystal, experimental, refinement or atomic coordinate data resulting 
# from the CCDC's data processing and validation procedures.
#
#######################################################################

data_HEBMOT
_chemical_formula_moiety         'C48 H30 N4'
_chemical_name_systematic        
2,2'-{(1,2,3,4-tetraphenylbuta-1,3-diene-1,4-diyl)bis[(4,1-phenylene)methylylidene]}dipropanedinitrile
_symmetry_cell_setting           orthorhombic
_symmetry_space_group_name_H-M   'P n n a'
_symmetry_Int_Tables_number      52
_space_group_name_Hall           '-P 2a 2bc'
loop_
_symmetry_equiv_pos_site_id
_symmetry_equiv_pos_as_xyz
1 x,y,z
2 1/2-x,-y,z
3 1/2-x,1/2+y,1/2-z
4 x,1/2-y,1/2-z
5 -x,-y,-z
6 1/2+x,y,-z
7 1/2+x,1/2-y,1/2+z
8 -x,1/2+y,1/2+z
_cell_length_a                   14.768(16)
_cell_length_b                   15.377(17)
_cell_length_c                   16.689(18)
_cell_angle_alpha                90
_cell_angle_beta                 90
_cell_angle_gamma                90
_cell_volume                     3789.86
_exptl_crystal_colour            orange
_exptl_crystal_description       Block
_chemical_melting_point          '533 K'
_cell_formula_units_Z            4
_chemical_properties_physical    ', Light-sensitive'
_exptl_crystal_recrystallization_method 'Vapour deposition'
_exptl_crystal_preparation       ', Luminescent'
loop_
_atom_site_label
_atom_site_type_symbol
_atom_site_fract_x
_atom_site_fract_y
_atom_site_fract_z
C1 C 0.44943(16) 0.74445(18) 0.66329(15)
C2 C 0.39877(18) 0.6783(2) 0.63195(19)
H1 H 0.4176 0.6211 0.6388
C3 C 0.3208(2) 0.6952(3) 0.5907(2)
H2 H 0.2868 0.6494 0.5701
C4 C 0.2923(2) 0.7789(3) 0.5794(2)
H3 H 0.2396 0.7901 0.5507
C5 C 0.3414(2) 0.8454(2) 0.6102(2)
H4 H 0.3225 0.9025 0.6025
C6 C 0.41901(18) 0.8284(2) 0.65266(19)
H5 H 0.4516 0.8743 0.6746
C7 C 0.53238(15) 0.72746(16) 0.71080(14)
C8 C 0.59865(16) 0.67328(16) 0.68656(14)
C9 C 0.60107(15) 0.63563(18) 0.60582(16)
C10 C 0.58876(18) 0.6851(2) 0.53902(17)
H6 H 0.5781 0.7445 0.5442
C11 C 0.5919(2) 0.6486(3) 0.4644(2)
H7 H 0.5834 0.6831 0.4192
C12 C 0.6076(2) 0.5617(3) 0.4562(2)
H8 H 0.6091 0.5368 0.4055
C13 C 0.6209(2) 0.5118(3) 0.5217(2)
H9 H 0.6320 0.4525 0.5161
C14 C 0.61800(18) 0.5486(2) 0.59616(19)
H10 H 0.6277 0.5140 0.6411
C15 C 0.67777(16) 0.65095(15) 0.73712(15)
C16 C 0.76409(16) 0.65269(17) 0.70416(15)
H11 H 0.7708 0.6653 0.6500
C17 C 0.83917(18) 0.63635(17) 0.74917(16)
H12 H 0.8961 0.6383 0.7255
C18 C 0.83143(17) 0.61694(17) 0.82933(16)
C19 C 0.74544(18) 0.61287(17) 0.86168(16)
H13 H 0.7386 0.5989 0.9156
C20 C 0.67059(17) 0.62884(17) 0.81666(16)
H14 H 0.6136 0.6247 0.8401
C21 C 0.90707(19) 0.60152(19) 0.88230(17)
H15 H 0.8906 0.5935 0.9356
C22 C 0.9934(2) 0.5967(2) 0.86977(17)
C23 C 1.0564(2) 0.5798(2) 0.9329(2)
C24 C 1.0297(4) 0.5693(6) 0.7948(3)
N1 N 1.0611(4) 0.5555(6) 0.7359(3)
N2 N 1.10619(19) 0.5677(2) 0.98256(19)
C1C C 0.44943(16) 0.75555(18) 0.83671(15)
C2C C 0.39877(18) 0.8217(2) 0.86805(19)
H1C H 0.4176 0.8789 0.8612
C3C C 0.3208(2) 0.8048(3) 0.9093(2)
H2C H 0.2868 0.8506 0.9299
C4C C 0.2923(2) 0.7211(3) 0.9206(2)
H3C H 0.2396 0.7099 0.9493
C5C C 0.3414(2) 0.6546(2) 0.8898(2)
H4C H 0.3225 0.5975 0.8975
C6C C 0.41901(18) 0.6716(2) 0.84734(19)
H5C H 0.4516 0.6257 0.8254
C7C C 0.53238(15) 0.77254(16) 0.78920(14)
C8C C 0.59865(16) 0.82672(16) 0.81344(14)
C9C C 0.60107(15) 0.86437(18) 0.89418(16)
C10C C 0.58876(18) 0.8149(2) 0.96098(17)
H6C H 0.5781 0.7555 0.9558
C11C C 0.5919(2) 0.8514(3) 1.0356(2)
H7C H 0.5834 0.8169 1.0808
C12C C 0.6076(2) 0.9383(3) 1.0438(2)
H8C H 0.6091 0.9632 1.0945
C13C C 0.6209(2) 0.9882(3) 0.9783(2)
H9C H 0.6320 1.0475 0.9839
C14C C 0.61800(18) 0.9514(2) 0.90384(19)
H10C H 0.6277 0.9860 0.8589
C15C C 0.67777(16) 0.84905(15) 0.76288(15)
C16C C 0.76409(16) 0.84731(17) 0.79584(15)
H11C H 0.7708 0.8347 0.8500
C17C C 0.83917(18) 0.86365(17) 0.75083(16)
H12C H 0.8961 0.8617 0.7745
C18C C 0.83143(17) 0.88306(17) 0.67067(16)
C19C C 0.74544(18) 0.88713(17) 0.63832(16)
H13C H 0.7386 0.9011 0.5844
C20C C 0.67059(17) 0.87116(17) 0.68334(16)
H14C H 0.6136 0.8753 0.6599
C21C C 0.90707(19) 0.89848(19) 0.61770(17)
H15C H 0.8906 0.9065 0.5644
C22C C 0.9934(2) 0.9033(2) 0.63023(17)
C23C C 1.0564(2) 0.9202(2) 0.5671(2)
C24C C 1.0297(4) 0.9307(6) 0.7052(3)
N1C N 1.0611(4) 0.9445(6) 0.7641(3)
N2C N 1.10619(19) 0.9323(2) 0.51744(19)
C25? C 1.0331(6) 0.6503(8) 0.8041(5)
N3? N 1.0635(6) 0.6893(7) 0.7515(5)
loop_
_geom_bond_atom_site_label_1
_geom_bond_atom_site_label_2
_geom_bond_site_symmetry_1
_geom_bond_site_symmetry_2
C1 C2 1_555 1_555
C2 H1 1_555 1_555
C3 C2 1_555 1_555
H2 C3 1_555 1_555
C4 C3 1_555 1_555
H3 C4 1_555 1_555
C5 C4 1_555 1_555
H4 C5 1_555 1_555
C6 C1 1_555 1_555
H5 C6 1_555 1_555
C7 C1 1_555 1_555
C8 C7 1_555 1_555
C9 C8 1_555 1_555
C10 C9 1_555 1_555
H6 C10 1_555 1_555
C11 C10 1_555 1_555
H7 C11 1_555 1_555
C12 C11 1_555 1_555
H8 C12 1_555 1_555
C13 C12 1_555 1_555
H9 C13 1_555 1_555
C14 C9 1_555 1_555
H10 C14 1_555 1_555
C15 C8 1_555 1_555
C16 C15 1_555 1_555
H11 C16 1_555 1_555
C17 C16 1_555 1_555
H12 C17 1_555 1_555
C18 C17 1_555 1_555
C19 C18 1_555 1_555
H13 C19 1_555 1_555
C20 C15 1_555 1_555
H14 C20 1_555 1_555
C21 C18 1_555 1_555
H15 C21 1_555 1_555
C22 C21 1_555 1_555
C23 C22 1_555 1_555
C24 C22 1_555 1_555
N1 C24 1_555 1_555
N2 C23 1_555 1_555
C1C C2C 1_555 1_555
C2C H1C 1_555 1_555
C3C C2C 1_555 1_555
H2C C3C 1_555 1_555
C4C C3C 1_555 1_555
H3C C4C 1_555 1_555
C5C C4C 1_555 1_555
H4C C5C 1_555 1_555
C6C C1C 1_555 1_555
H5C C6C 1_555 1_555
C7C C7 1_555 1_555
C8C C7C 1_555 1_555
C9C C8C 1_555 1_555
C10C C9C 1_555 1_555
H6C C10C 1_555 1_555
C11C C10C 1_555 1_555
H7C C11C 1_555 1_555
C12C C11C 1_555 1_555
H8C C12C 1_555 1_555
C13C C12C 1_555 1_555
H9C C13C 1_555 1_555
C14C C9C 1_555 1_555
H10C C14C 1_555 1_555
C15C C8C 1_555 1_555
C16C C15C 1_555 1_555
H11C C16C 1_555 1_555
C17C C16C 1_555 1_555
H12C C17C 1_555 1_555
C18C C17C 1_555 1_555
C19C C18C 1_555 1_555
H13C C19C 1_555 1_555
C20C C15C 1_555 1_555
H14C C20C 1_555 1_555
C21C C18C 1_555 1_555
H15C C21C 1_555 1_555
C22C C21C 1_555 1_555
C23C C22C 1_555 1_555
C24C C22C 1_555 1_555
N1C C24C 1_555 1_555
N2C C23C 1_555 1_555
C5 C6 1_555 1_555
C13 C14 1_555 1_555
C19 C20 1_555 1_555
C1C C7C 1_555 1_555
C5C C6C 1_555 1_555
C13C C14C 1_555 1_555
C19C C20C 1_555 1_555

#END
