
#######################################################################
#
#                 Cambridge Crystallographic Data Centre
#                                CCDC 
#
#######################################################################
#
# If this CIF has been generated from an entry in the Cambridge 
# Structural Database, then it will include bibliographic, chemical, 
# crystal, experimental, refinement or atomic coordinate data resulting 
# from the CCDC's data processing and validation procedures.
#
#######################################################################

data_HEBRIQ
_chemical_formula_moiety         'C43 H29 N3'
_chemical_name_systematic        
2-(2-dicyanoethenyl)-7-(N,N-di-p-tolylamino)-9,9'-spiro(bifluorene)
_symmetry_cell_setting           triclinic
_symmetry_space_group_name_H-M   'P -1'
_symmetry_Int_Tables_number      2
_space_group_name_Hall           '-P 1'
loop_
_symmetry_equiv_pos_site_id
_symmetry_equiv_pos_as_xyz
1 x,y,z
2 -x,-y,-z
_cell_length_a                   9.0271(2)
_cell_length_b                   10.4903(2)
_cell_length_c                   17.0098(4)
_cell_angle_alpha                88.989(1)
_cell_angle_beta                 84.800(1)
_cell_angle_gamma                82.445(1)
_cell_volume                     1590.2
_exptl_crystal_colour            orange
_exptl_crystal_description       prism
_cell_formula_units_Z            2
_exptl_crystal_preparation       solvatochromic
loop_
_atom_site_label
_atom_site_type_symbol
_atom_site_fract_x
_atom_site_fract_y
_atom_site_fract_z
N1 N 0.2991(3) 0.1325(2) 0.74930(14)
N2 N -0.1323(4) 1.0793(3) 0.7913(2)
N3 N -0.3327(4) 1.2945(3) 0.6050(2)
C1 C 0.0061(3) 0.5748(3) 0.75655(16)
C2 C -0.0099(3) 0.6646(3) 0.68505(16)
C3 C -0.0822(3) 0.7881(3) 0.68215(18)
H1 H -0.1219 0.8306 0.7284
C4 C -0.0956(3) 0.8498(3) 0.60846(19)
C5 C -0.0367(4) 0.7816(3) 0.54034(19)
H2 H -0.0512 0.8198 0.4914
C6 C 0.0418(3) 0.6601(3) 0.54269(18)
H3 H 0.0838 0.6187 0.4965
C7 C 0.0572(3) 0.6004(3) 0.61585(17)
C8 C 0.1303(3) 0.4743(3) 0.63802(17)
C9 C 0.2197(3) 0.3776(3) 0.59400(18)
H4 H 0.2413 0.3880 0.5399
C10 C 0.2760(3) 0.2660(3) 0.63157(19)
H5 H 0.3371 0.2023 0.6022
C11 C 0.2433(3) 0.2464(3) 0.71273(18)
C12 C 0.1561(3) 0.3444(3) 0.75704(17)
H6 H 0.1346 0.3343 0.8111
C13 C 0.1024(3) 0.4566(3) 0.71935(17)
C14 C -0.1460(3) 0.5417(3) 0.79343(18)
C15 C -0.2577(3) 0.4969(3) 0.7551(2)
H7 H -0.2450 0.4814 0.7011
C16 C -0.3886(4) 0.4757(4) 0.7994(3)
H8 H -0.4658 0.4468 0.7749
C17 C -0.4051(4) 0.4971(4) 0.8794(3)
H9 H -0.4938 0.4820 0.9082
C18 C -0.2928(4) 0.5407(3) 0.9182(2)
H10 H -0.3044 0.5532 0.9726
C19 C -0.1623(3) 0.5653(3) 0.87381(18)
C20 C -0.0295(3) 0.6186(3) 0.89594(18)
C21 C 0.0062(4) 0.6605(3) 0.9674(2)
H11 H -0.0580 0.6543 1.0129
C22 C 0.1383(5) 0.7116(4) 0.9703(3)
H12 H 0.1632 0.7406 1.0181
C23 C 0.2345(4) 0.7206(3) 0.9032(3)
H13 H 0.3235 0.7550 0.9066
C24 C 0.2004(3) 0.6790(3) 0.8307(2)
H14 H 0.2651 0.6855 0.7855
C25 C 0.0680(3) 0.6278(3) 0.82770(17)
C26 C -0.1686(3) 0.9791(3) 0.5988(2)
H15 H -0.1986 0.9980 0.5485
C27 C -0.2008(3) 1.0772(3) 0.6501(2)
C28 C -0.1618(4) 1.0748(3) 0.7285(2)
C29 C -0.2753(4) 1.1974(4) 0.6253(2)
C30 C 0.3097(3) 0.1311(3) 0.83291(18)
C31 C 0.4129(3) 0.1955(3) 0.86526(19)
H16 H 0.4754 0.2418 0.8328
C32 C 0.4238(4) 0.1914(3) 0.9453(2)
H17 H 0.4937 0.2358 0.9661
C33 C 0.3343(4) 0.1238(3) 0.99537(19)
C34 C 0.2315(4) 0.0593(3) 0.9621(2)
H18 H 0.1700 0.0122 0.9946
C35 C 0.2177(4) 0.0631(3) 0.8814(2)
H19 H 0.1468 0.0201 0.8603
C36 C 0.3495(5) 0.1166(4) 1.0832(2)
H20 H 0.2780 0.0650 1.1081
H21 H 0.3310 0.2016 1.1049
H22 H 0.4491 0.0785 1.0924
C37 C 0.3452(3) 0.0149(3) 0.70865(17)
C38 C 0.2654(3) -0.0263(3) 0.65016(18)
H23 H 0.1792 0.0243 0.6362
C39 C 0.3125(4) -0.1410(3) 0.61270(19)
H24 H 0.2592 -0.1647 0.5722
C40 C 0.4369(3) -0.2231(3) 0.63307(18)
C41 C 0.5125(3) -0.1825(3) 0.69303(19)
H25 H 0.5948 -0.2357 0.7095
C42 C 0.4695(3) -0.0651(3) 0.72922(19)
H26 H 0.5252 -0.0395 0.7681
C43 C 0.4842(4) -0.3503(3) 0.5930(2)
H27 H 0.4184 -0.3607 0.5530
H28 H 0.4793 -0.4184 0.6312
H29 H 0.5852 -0.3532 0.5693
loop_
_geom_bond_atom_site_label_1
_geom_bond_atom_site_label_2
_geom_bond_site_symmetry_1
_geom_bond_site_symmetry_2
N1 C11 1_555 1_555
N2 C28 1_555 1_555
N3 C29 1_555 1_555
C1 C2 1_555 1_555
C2 C3 1_555 1_555
C3 H1 1_555 1_555
C4 C3 1_555 1_555
C5 C4 1_555 1_555
H2 C5 1_555 1_555
C6 C5 1_555 1_555
H3 C6 1_555 1_555
C7 C2 1_555 1_555
C8 C7 1_555 1_555
C9 C8 1_555 1_555
H4 C9 1_555 1_555
C10 C9 1_555 1_555
H5 C10 1_555 1_555
C11 C10 1_555 1_555
C12 C11 1_555 1_555
H6 C12 1_555 1_555
C13 C1 1_555 1_555
C14 C1 1_555 1_555
C15 C14 1_555 1_555
H7 C15 1_555 1_555
C16 C15 1_555 1_555
H8 C16 1_555 1_555
C17 C16 1_555 1_555
H9 C17 1_555 1_555
C18 C17 1_555 1_555
H10 C18 1_555 1_555
C19 C14 1_555 1_555
C20 C19 1_555 1_555
C21 C20 1_555 1_555
H11 C21 1_555 1_555
C22 C21 1_555 1_555
H12 C22 1_555 1_555
C23 C22 1_555 1_555
H13 C23 1_555 1_555
C24 C23 1_555 1_555
H14 C24 1_555 1_555
C25 C1 1_555 1_555
C26 C4 1_555 1_555
H15 C26 1_555 1_555
C27 C26 1_555 1_555
C28 C27 1_555 1_555
C29 C27 1_555 1_555
C30 N1 1_555 1_555
C31 C30 1_555 1_555
H16 C31 1_555 1_555
C32 C31 1_555 1_555
H17 C32 1_555 1_555
C33 C32 1_555 1_555
C34 C33 1_555 1_555
H18 C34 1_555 1_555
C35 C30 1_555 1_555
H19 C35 1_555 1_555
C36 C33 1_555 1_555
H20 C36 1_555 1_555
H21 C36 1_555 1_555
H22 C36 1_555 1_555
C37 N1 1_555 1_555
C38 C37 1_555 1_555
H23 C38 1_555 1_555
C39 C38 1_555 1_555
H24 C39 1_555 1_555
C40 C39 1_555 1_555
C41 C40 1_555 1_555
H25 C41 1_555 1_555
C42 C37 1_555 1_555
H26 C42 1_555 1_555
C43 C40 1_555 1_555
H27 C43 1_555 1_555
H28 C43 1_555 1_555
H29 C43 1_555 1_555
C6 C7 1_555 1_555
C8 C13 1_555 1_555
C12 C13 1_555 1_555
C18 C19 1_555 1_555
C20 C25 1_555 1_555
C24 C25 1_555 1_555
C34 C35 1_555 1_555
C41 C42 1_555 1_555

#END
