
#######################################################################
#
#                 Cambridge Crystallographic Data Centre
#                                CCDC 
#
#######################################################################
#
# If this CIF has been generated from an entry in the Cambridge 
# Structural Database, then it will include bibliographic, chemical, 
# crystal, experimental, refinement or atomic coordinate data resulting 
# from the CCDC's data processing and validation procedures.
#
#######################################################################

data_HEBWIX
_chemical_formula_moiety         'C18 H24 O4 P2 S2 Se2'
_chemical_name_systematic        
"2,2'-(2,2'-bithiene-5,5'-diyl)bis(5,5-dimethyl-1,3,2-dioxaphosphinane) 2,2'-diselenide"
_symmetry_cell_setting           monoclinic
_symmetry_space_group_name_H-M   'C 2/c'
_symmetry_Int_Tables_number      15
_space_group_name_Hall           '-C 2yn'
loop_
_symmetry_equiv_pos_site_id
_symmetry_equiv_pos_as_xyz
1 x,y,z
2 -x,y,1/2-z
3 1/2+x,1/2+y,z
4 1/2-x,1/2+y,1/2-z
5 -x,-y,-z
6 x,-y,1/2+z
7 1/2-x,1/2-y,-z
8 1/2+x,1/2-y,1/2+z
_cell_length_a                   22.137(4)
_cell_length_b                   9.5144(19)
_cell_length_c                   13.302(3)
_cell_angle_alpha                90
_cell_angle_beta                 122.13(3)
_cell_angle_gamma                90
_cell_volume                     2372.58
_cell_formula_units_Z            4
loop_
_atom_site_label
_atom_site_type_symbol
_atom_site_fract_x
_atom_site_fract_y
_atom_site_fract_z
C1 C 0.0895(2) 0.6255(4) 0.1320(4)
C2 C 0.0811(2) 0.4848(5) 0.1340(4)
H1 H 0.0996 0.4200 0.1051
C3 C 0.0415(2) 0.4466(5) 0.1840(4)
H2 H 0.0308 0.3539 0.1910
C4 C 0.0202(2) 0.5588(4) 0.2216(4)
C5 C 0.2137(2) 0.9391(5) 0.1541(4)
H3 H 0.2410 0.9107 0.1198
H4 H 0.2451 0.9913 0.2262
C6 C 0.1529(3) 1.0329(5) 0.0675(4)
C7 C 0.1033(3) 0.9488(5) -0.0436(4)
H5 H 0.0635 1.0074 -0.0991
H6 H 0.1288 0.9205 -0.0813
C8 C 0.1133(3) 1.0894(5) 0.1252(6)
H7 H 0.0955 1.0120 0.1484
H8 H 0.0742 1.1472 0.0692
H9 H 0.1455 1.1441 0.1939
C9 C 0.1835(3) 1.1545(6) 0.0317(5)
H10 H 0.2213 1.1993 0.1018
H11 H 0.1465 1.2216 -0.0146
H12 H 0.2018 1.1184 -0.0143
O1 O 0.18766(14) 0.8142(3) 0.1833(2)
O2 O 0.07626(14) 0.8237(3) -0.0160(3)
P1 P 0.13486(6) 0.71646(12) 0.07560(10)
S1 S 0.04881(7) 0.71263(12) 0.19354(12)
Se1 Se 0.18106(3) 0.58983(6) 0.00917(5)
C1A C -0.0895(2) 0.6255(4) 0.3680(4)
C2A C -0.0811(2) 0.4848(5) 0.3660(4)
H1A H -0.0996 0.4200 0.3949
C3A C -0.0415(2) 0.4466(5) 0.3160(4)
H2A H -0.0308 0.3539 0.3090
C4A C -0.0202(2) 0.5588(4) 0.2784(4)
C5A C -0.2137(2) 0.9391(5) 0.3459(4)
H3A H -0.2410 0.9107 0.3802
H4A H -0.2451 0.9913 0.2738
C6A C -0.1529(3) 1.0329(5) 0.4325(4)
C7A C -0.1033(3) 0.9488(5) 0.5436(4)
H5A H -0.0635 1.0074 0.5991
H6A H -0.1288 0.9205 0.5813
C8A C -0.1133(3) 1.0894(5) 0.3748(6)
H7A H -0.0955 1.0120 0.3516
H8A H -0.0742 1.1472 0.4308
H9A H -0.1455 1.1441 0.3061
C9A C -0.1835(3) 1.1545(6) 0.4683(5)
H10A H -0.2213 1.1993 0.3982
H11A H -0.1465 1.2216 0.5146
H12A H -0.2018 1.1184 0.5143
O1A O -0.18766(14) 0.8142(3) 0.3167(2)
O2A O -0.07626(14) 0.8237(3) 0.5160(3)
P1A P -0.13486(6) 0.71646(12) 0.42440(10)
S1A S -0.04881(7) 0.71263(12) 0.30646(12)
Se1A Se -0.18106(3) 0.58983(6) 0.49083(5)
loop_
_geom_bond_atom_site_label_1
_geom_bond_atom_site_label_2
_geom_bond_site_symmetry_1
_geom_bond_site_symmetry_2
C1 C2 1_555 1_555
C2 H1 1_555 1_555
C3 C2 1_555 1_555
H2 C3 1_555 1_555
C4 C3 1_555 1_555
C5 H3 1_555 1_555
H4 C5 1_555 1_555
C6 C5 1_555 1_555
C7 C6 1_555 1_555
H5 C7 1_555 1_555
H6 C7 1_555 1_555
C8 C6 1_555 1_555
H7 C8 1_555 1_555
H8 C8 1_555 1_555
H9 C8 1_555 1_555
C9 C6 1_555 1_555
H10 C9 1_555 1_555
H11 C9 1_555 1_555
H12 C9 1_555 1_555
O1 C5 1_555 1_555
O2 C7 1_555 1_555
P1 C1 1_555 1_555
S1 C1 1_555 1_555
Se1 P1 1_555 1_555
C1A C2A 1_555 1_555
C2A H1A 1_555 1_555
C3A C2A 1_555 1_555
H2A C3A 1_555 1_555
C4A C4 1_555 1_555
C5A H3A 1_555 1_555
H4A C5A 1_555 1_555
C6A C5A 1_555 1_555
C7A C6A 1_555 1_555
H5A C7A 1_555 1_555
H6A C7A 1_555 1_555
C8A C6A 1_555 1_555
H7A C8A 1_555 1_555
H8A C8A 1_555 1_555
H9A C8A 1_555 1_555
C9A C6A 1_555 1_555
H10A C9A 1_555 1_555
H11A C9A 1_555 1_555
H12A C9A 1_555 1_555
O1A C5A 1_555 1_555
O2A C7A 1_555 1_555
P1A C1A 1_555 1_555
S1A C1A 1_555 1_555
Se1A P1A 1_555 1_555
C4 S1 1_555 1_555
O1 P1 1_555 1_555
O2 P1 1_555 1_555
C3A C4A 1_555 1_555
C4A S1A 1_555 1_555
O1A P1A 1_555 1_555
O2A P1A 1_555 1_555

#END
