
#######################################################################
#
#                 Cambridge Crystallographic Data Centre
#                                CCDC 
#
#######################################################################
#
# If this CIF has been generated from an entry in the Cambridge 
# Structural Database, then it will include bibliographic, chemical, 
# crystal, experimental, refinement or atomic coordinate data resulting 
# from the CCDC's data processing and validation procedures.
#
#######################################################################

data_HEBXOD
_chemical_formula_moiety         'C22 H16 Cl1 N1 O3 S1'
_chemical_name_systematic        
3-(1,3-Benzodioxol-5-ylmethyl)-3-((4-chlorophenyl)sulfanyl)-1,3-dihydro-2H-indol-2-one
_symmetry_cell_setting           monoclinic
_symmetry_space_group_name_H-M   'P 21'
_symmetry_Int_Tables_number      4
_space_group_name_Hall           'P 2yb'
loop_
_symmetry_equiv_pos_site_id
_symmetry_equiv_pos_as_xyz
1 x,y,z
2 -x,1/2+y,-z
_cell_length_a                   8.4145(6)
_cell_length_b                   12.0507(9)
_cell_length_c                   19.2426(13)
_cell_angle_alpha                90
_cell_angle_beta                 102.401(4)
_cell_angle_gamma                90
_cell_volume                     1905.69
_exptl_crystal_colour            colorless
_exptl_crystal_description       column
_cell_formula_units_Z            4
loop_
_atom_site_label
_atom_site_type_symbol
_atom_site_fract_x
_atom_site_fract_y
_atom_site_fract_z
S1 S -0.50795(7) 0.9047(6) 0.19298(3)
Cl1 Cl -0.27957(11) 0.6183(6) -0.03985(4)
C1 C -0.4304(3) 0.8223(7) 0.13112(15)
C2 C -0.0532(3) 0.9126(7) 0.25940(13)
C3 C -0.2623(3) 1.0447(6) 0.37849(16)
C4 C -0.3342(4) 0.6969(7) 0.02717(15)
C5 C -0.1875(3) 0.9820(6) 0.24231(15)
C6 C -0.0324(4) 1.0358(7) 0.47441(15)
C7 C 0.1103(4) 1.0450(7) 0.2177(2)
C8 C -0.1515(4) 0.9798(6) 0.42670(15)
C9 C -0.0226(4) 1.1152(7) 0.1989(2)
C10 C -0.3987(4) 0.6453(7) 0.07917(16)
C11 C -0.0235(4) 1.1502(7) 0.47603(15)
C12 C -0.1287(4) 1.2147(7) 0.42913(19)
C13 C -0.4452(4) 0.7088(7) 0.13080(15)
C14 C -0.3162(5) 0.8094(7) 0.0266(2)
C15 C -0.1738(4) 1.0836(6) 0.2118(2)
C16 C -0.3636(5) 0.8742(7) 0.07923(19)
C17 C 0.1618(5) 1.0831(7) 0.56766(18)
O1 O 0.1051(3) 1.1831(6) 0.52999(11)
O2 O 0.0906(3) 0.9919(6) 0.52609(12)
N1 N -0.0980(3) 0.8129(6) 0.28864(13)
C18 C -0.3942(3) 0.9894(7) 0.32356(16)
C19 C 0.0976(3) 0.9424(6) 0.24800(17)
C20 C -0.3290(3) 0.9257(7) 0.26515(14)
C21 C -0.2568(3) 0.8130(6) 0.29293(13)
O3 O -0.3272(2) 0.7376(6) 0.31575(10)
C22 C -0.2493(4) 1.1599(7) 0.38005(18)
H1 H -0.12507 1.29510 0.42838
H2 H 0.19781 0.89778 0.26634
H3 H 0.22738 1.06443 0.20675
H4 H -0.00324 1.19295 0.17744
H5 H -0.15486 0.89644 0.42939
H6 H -0.26955 1.12741 0.18940
H7 H -0.37908 0.96298 0.07339
H8 H -0.32986 1.20301 0.34455
H9 H -0.49755 0.67041 0.16953
H10 H 0.12256 1.09065 0.61357
H11 H -0.46806 1.04595 0.30121
H12 H -0.40152 0.55603 0.07381
H13 H 0.28708 1.08651 0.56555
H14 H -0.45765 0.92615 0.34574
H15 H -0.26062 0.84504 0.00000
H16 H -0.04395 0.74906 0.29766
S2 S 0.05984(8) 0.4120(6) 0.30084(4)
Cl2 Cl 0.61209(10) 0.2550(6) 0.55534(4)
C23 C 0.2241(3) 0.3696(7) 0.37039(15)
C24 C 0.4263(3) 0.4086(7) 0.47581(15)
C25 C 0.4648(4) 0.2991(7) 0.48196(16)
C26 C 0.2646(4) 0.2578(7) 0.37621(16)
C27 C 0.3036(4) 0.4448(6) 0.42031(15)
C28 C 0.3872(4) 0.2219(7) 0.43337(19)
C29 C 0.2388(3) 0.5986(6) 0.28159(13)
C30 C 0.1630(3) 0.4938(7) 0.24292(14)
C31 C 0.4456(3) 0.4993(6) 0.25197(13)
C32 C 0.3079(3) 0.4352(6) 0.22577(14)
C33 C 0.5997(3) 0.4668(6) 0.24638(16)
C34 C 0.4756(4) 0.3035(6) 0.1840(2)
C35 C 0.3223(3) 0.3372(6) 0.19153(17)
C36 C 0.6128(3) 0.3673(7) 0.21101(19)
O4 O 0.1665(2) 0.6728(6) 0.30528(10)
C37 C 0.0212(3) 0.5235(6) 0.17845(14)
N2 N 0.4012(2) 0.5955(6) 0.28439(11)
C38 C 0.0768(4) 0.5908(7) 0.12157(16)
O5 O 0.1982(6) 0.7594(7) -0.0476(2)
C39 C 0.1423(6) 0.7472(8) 0.0628(3)
O6 O 0.1712(5) 0.8563(7) 0.0519(2)
C40 C 0.0992(6) 0.6966(8) 0.1202(3)
C41 C 0.2285(8) 0.8581(9) -0.0113(4)
C42 C 0.1649(6) 0.6871(8) 0.0054(3)
C43 C 0.0997(6) 0.5226(8) 0.0589(3)
C44 C 0.1392(6) 0.5738(8) 0.0001(3)
H17 H 0.72215 0.34492 0.20623
H18 H 0.40389 0.14268 0.43486
H19 H -0.02648 0.45925 0.16350
H20 H 0.71484 0.52857 0.26518
H21 H 0.19920 0.20611 0.33768
H22 H 0.47765 0.24241 0.15607
H23 H 0.47464 0.65252 0.30474
H24 H 0.22434 0.29066 0.17580
H25 H 0.29088 0.53319 0.41812
H26 H -0.06483 0.54446 0.19558
H27 H 0.48489 0.46167 0.50967
H28 H 0.08085 0.74019 0.15941
H29 H 0.08967 0.44305 0.06024
H30 H 0.14626 0.53364 -0.04201
H31 H 0.34234 0.87232 -0.00034
H32 H 0.17522 0.91659 -0.04128
C45? C 0.1480(9) 0.5710(9) 0.0732(4)
C46? C 0.1909(10) 0.6465(10) 0.0268(5)
C47? C 0.1633(9) 0.7577(9) 0.0352(4)
C48? C 0.0953(9) 0.8002(9) 0.0890(4)
C49? C 0.0506(9) 0.7219(9) 0.1350(4)
C50? C 0.2629(11) 0.7397(10) -0.0574(4)
H33? H 0.17337 0.49508 0.06672
H34? H 0.08071 0.87873 0.09423
H35? H 0.00701 0.74644 0.17488
H36? H 0.37458 0.75608 -0.05960
H37? H 0.19942 0.74312 -0.10500
O7? O 0.2568(7) 0.6343(8) -0.0309(3)
O8? O 0.2143(10) 0.8202(10) -0.0209(5)
loop_
_geom_bond_atom_site_label_1
_geom_bond_atom_site_label_2
_geom_bond_site_symmetry_1
_geom_bond_site_symmetry_2
S1 C1 1_555 1_555
Cl1 C4 1_555 1_555
C1 C13 1_555 1_555
C2 C5 1_555 1_555
C3 C8 1_555 1_555
C4 C10 1_555 1_555
C5 C15 1_555 1_555
C6 C8 1_555 1_555
C7 C9 1_555 1_555
C8 H5 1_555 1_555
C9 C15 1_555 1_555
C10 C13 1_555 1_555
C11 C6 1_555 1_555
C12 C11 1_555 1_555
C13 H9 1_555 1_555
C14 C4 1_555 1_555
C15 H6 1_555 1_555
C16 C1 1_555 1_555
C17 O1 1_555 1_555
O1 C11 1_555 1_555
O2 C6 1_555 1_555
N1 C2 1_555 1_555
C18 C3 1_555 1_555
C19 C2 1_555 1_555
C20 S1 1_555 1_555
C21 N1 1_555 1_555
O3 C21 1_555 1_555
C22 C3 1_555 1_555
H1 C12 1_555 1_555
H2 C19 1_555 1_555
H3 C7 1_555 1_555
H4 C9 1_555 1_555
H7 C16 1_555 1_555
H8 C22 1_555 1_555
H10 C17 1_555 1_555
H11 C18 1_555 1_555
H12 C10 1_555 1_555
H13 C17 1_555 1_555
H14 C18 1_555 1_555
H15 C14 1_555 1_555
H16 N1 1_555 1_555
S2 C23 1_555 1_555
Cl2 C25 1_555 1_555
C23 C26 1_555 1_555
C24 C25 1_555 1_555
C25 C28 1_555 1_555
C26 C28 1_555 1_555
C27 C23 1_555 1_555
C28 H18 1_555 1_555
C29 C30 1_555 1_555
C30 S2 1_555 1_555
C31 C32 1_555 1_555
C32 C30 1_555 1_555
C33 C31 1_555 1_555
C34 C35 1_555 1_555
C35 C32 1_555 1_555
C36 C33 1_555 1_555
O4 C29 1_555 1_555
C37 C30 1_555 1_555
N2 C29 1_555 1_555
C38 C37 1_555 1_555
O5 C41 1_555 1_555
C39 O6 1_555 1_555
O6 C41 1_555 1_555
C40 C38 1_555 1_555
C41 H31 1_555 1_555
C42 O5 1_555 1_555
C43 C38 1_555 1_555
C44 C42 1_555 1_555
H17 C36 1_555 1_555
H19 C37 1_555 1_555
H20 C33 1_555 1_555
H21 C26 1_555 1_555
H22 C34 1_555 1_555
H23 N2 1_555 1_555
H24 C35 1_555 1_555
H25 C27 1_555 1_555
H26 C37 1_555 1_555
H27 C24 1_555 1_555
H28 C40 1_555 1_555
H29 C43 1_555 1_555
H30 C44 1_555 1_555
H32 C41 1_555 1_555
C5 C20 1_555 1_555
C7 C19 1_555 1_555
C12 C22 1_555 1_555
C14 C16 1_555 1_555
C17 O2 1_555 1_555
C18 C20 1_555 1_555
C20 C21 1_555 1_555
C24 C27 1_555 1_555
C31 N2 1_555 1_555
C34 C36 1_555 1_555
C39 C40 1_555 1_555
C39 C42 1_555 1_555
C43 C44 1_555 1_555

#END
