
#######################################################################
#
#                 Cambridge Crystallographic Data Centre
#                                CCDC 
#
#######################################################################
#
# If this CIF has been generated from an entry in the Cambridge 
# Structural Database, then it will include bibliographic, chemical, 
# crystal, experimental, refinement or atomic coordinate data resulting 
# from the CCDC's data processing and validation procedures.
#
#######################################################################

data_HEBYUL
_chemical_formula_moiety         'C19 H25 F3 N2 O4'
_chemical_name_systematic        
't-butyl 3-[(t-butoxycarbonyl)amino]-2-(trifluoromethyl)-2,3-dihydro-1H-indole-1-carboxylate'
_symmetry_cell_setting           monoclinic
_symmetry_space_group_name_H-M   'P 21/c'
_symmetry_Int_Tables_number      14
_space_group_name_Hall           '-P 2ybc'
loop_
_symmetry_equiv_pos_site_id
_symmetry_equiv_pos_as_xyz
1 x,y,z
2 -x,1/2+y,1/2-z
3 -x,-y,-z
4 x,1/2-y,1/2+z
_cell_length_a                   14.9198(3)
_cell_length_b                   13.8571(3)
_cell_length_c                   9.9498(2)
_cell_angle_alpha                90
_cell_angle_beta                 95.4351(15)
_cell_angle_gamma                90
_cell_volume                     2047.82
_exptl_crystal_colour            colorless
_exptl_crystal_description       Needle
_cell_formula_units_Z            4
_exptl_crystal_recrystallization_method 'used as received'
loop_
_atom_site_label
_atom_site_type_symbol
_atom_site_fract_x
_atom_site_fract_y
_atom_site_fract_z
F1 F 0.91036(12) 0.53259(13) 0.85451(16)
F2 F 0.78656(15) 0.54605(15) 0.94591(16)
F3 F 0.80674(14) 0.42646(12) 0.81596(18)
O1 O 0.82402(11) 0.46318(13) 0.40374(16)
O2 O 0.70930(12) 0.44087(14) 0.53592(18)
O3 O 0.59635(12) 0.81857(14) 0.73891(18)
O4 O 0.67745(13) 0.73499(15) 0.90631(17)
N1 N 0.82127(13) 0.54933(15) 0.59254(19)
N2 N 0.72503(14) 0.75143(16) 0.69852(19)
C1 C 0.78007(17) 0.57972(18) 0.7137(2)
H1 H 0.7134 0.5697 0.7011
C2 C 0.80216(15) 0.68896(18) 0.7307(2)
H2 H 0.8286 0.7017 0.8252
C3 C 0.87285(15) 0.70371(17) 0.6347(2)
C4 C 0.92481(16) 0.78459(18) 0.6177(2)
H3 H 0.9170 0.8414 0.6688
C5 C 0.98855(17) 0.78151(19) 0.5251(2)
H4 H 1.0247 0.8366 0.5124
C6 C 0.99972(16) 0.69849(19) 0.4511(2)
H5 H 1.0445 0.6970 0.3893
C7 C 0.94647(15) 0.61688(19) 0.4655(2)
H6 H 0.9538 0.5602 0.4139
C8 C 0.88293(16) 0.62151(17) 0.5573(2)
C9 C 0.8212(2) 0.5208(2) 0.8329(3)
C10 C 0.77817(16) 0.47971(19) 0.5099(2)
C11 C 0.78622(17) 0.40111(19) 0.2902(2)
C12 C 0.7674(2) 0.3001(2) 0.3389(3)
H7 H 0.8203 0.2758 0.3944
H8 H 0.7539 0.2575 0.2610
H9 H 0.7157 0.3017 0.3929
C13 C 0.70365(18) 0.4505(2) 0.2210(3)
H10 H 0.6545 0.4479 0.2797
H11 H 0.6851 0.4176 0.1357
H12 H 0.7179 0.5180 0.2028
C14 C 0.86314(19) 0.3994(2) 0.2014(3)
H13 H 0.8769 0.4655 0.1747
H14 H 0.8459 0.3608 0.1205
H15 H 0.9164 0.3709 0.2513
C15 C 0.66602(16) 0.76602(19) 0.7919(2)
C16 C 0.51559(18) 0.8303(2) 0.8137(3)
C17 C 0.4738(2) 0.7325(3) 0.8312(4)
H16 H 0.4618 0.7014 0.7428
H17 H 0.4172 0.7401 0.8725
H18 H 0.5152 0.6924 0.8895
C18 C 0.5383(2) 0.8806(3) 0.9484(3)
H19 H 0.5731 0.8368 1.0106
H20 H 0.4825 0.8988 0.9865
H21 H 0.5739 0.9386 0.9348
C19 C 0.4556(2) 0.8934(3) 0.7184(4)
H22 H 0.4856 0.9552 0.7060
H23 H 0.3984 0.9047 0.7567
H24 H 0.4441 0.8609 0.6310
H25 H 0.705(2) 0.762(2) 0.614(3)
loop_
_geom_bond_atom_site_label_1
_geom_bond_atom_site_label_2
_geom_bond_site_symmetry_1
_geom_bond_site_symmetry_2
F1 C9 1_555 1_555
F2 C9 1_555 1_555
F3 C9 1_555 1_555
O1 C10 1_555 1_555
O2 C10 1_555 1_555
O3 C15 1_555 1_555
O4 C15 1_555 1_555
N1 C1 1_555 1_555
N2 C2 1_555 1_555
C1 H1 1_555 1_555
C2 C1 1_555 1_555
H2 C2 1_555 1_555
C3 C2 1_555 1_555
C4 C3 1_555 1_555
H3 C4 1_555 1_555
C5 C4 1_555 1_555
H4 C5 1_555 1_555
C6 C5 1_555 1_555
H5 C6 1_555 1_555
C7 C6 1_555 1_555
H6 C7 1_555 1_555
C8 N1 1_555 1_555
C9 C1 1_555 1_555
C10 N1 1_555 1_555
C11 O1 1_555 1_555
C12 C11 1_555 1_555
H7 C12 1_555 1_555
H8 C12 1_555 1_555
H9 C12 1_555 1_555
C13 C11 1_555 1_555
H10 C13 1_555 1_555
H11 C13 1_555 1_555
H12 C13 1_555 1_555
C14 C11 1_555 1_555
H13 C14 1_555 1_555
H14 C14 1_555 1_555
H15 C14 1_555 1_555
C15 N2 1_555 1_555
C16 O3 1_555 1_555
C17 C16 1_555 1_555
H16 C17 1_555 1_555
H17 C17 1_555 1_555
H18 C17 1_555 1_555
C18 C16 1_555 1_555
H19 C18 1_555 1_555
H20 C18 1_555 1_555
H21 C18 1_555 1_555
C19 C16 1_555 1_555
H22 C19 1_555 1_555
H23 C19 1_555 1_555
H24 C19 1_555 1_555
H25 N2 1_555 1_555
C3 C8 1_555 1_555
C7 C8 1_555 1_555

#END
