
#######################################################################
#
#                 Cambridge Crystallographic Data Centre
#                                CCDC 
#
#######################################################################
#
# If this CIF has been generated from an entry in the Cambridge 
# Structural Database, then it will include bibliographic, chemical, 
# crystal, experimental, refinement or atomic coordinate data resulting 
# from the CCDC's data processing and validation procedures.
#
#######################################################################

data_HECCAT
_chemical_formula_moiety         'C12 H14 N4 O5 S1,H2 O1'
_chemical_name_systematic        
'3-\b-D-Ribofuranosyl-6,7-dihydro-9H-thiazolo(3,2-a)purin-9-one monohydrate'
_symmetry_cell_setting           monoclinic
_symmetry_space_group_name_H-M   'P 21'
_symmetry_Int_Tables_number      4
_space_group_name_Hall           'P 2yb'
loop_
_symmetry_equiv_pos_site_id
_symmetry_equiv_pos_as_xyz
1 x,y,z
2 -x,1/2+y,-z
_cell_length_a                   4.9635(4)
_cell_length_b                   21.935(2)
_cell_length_c                   6.7924(5)
_cell_angle_alpha                90
_cell_angle_beta                 101.096(6)
_cell_angle_gamma                90
_cell_volume                     725.694
_exptl_crystal_colour            colorless
_cell_formula_units_Z            2
loop_
_atom_site_label
_atom_site_type_symbol
_atom_site_fract_x
_atom_site_fract_y
_atom_site_fract_z
S1 S 0.85196(15) 0.65872(3) 0.23980(10)
N1 N 1.1254(5) 0.59994(10) 0.0108(4)
C1 C 1.0496(5) 0.65745(14) 0.0539(4)
N2 N 1.1093(5) 0.70757(11) -0.0337(4)
C2 C 1.2524(5) 0.69581(13) -0.1813(4)
C3 C 1.3471(5) 0.63969(13) -0.2328(4)
C4 C 1.2819(6) 0.58606(14) -0.1334(4)
O1 O 1.3423(5) 0.53263(10) -0.1608(3)
N3 N 1.4933(5) 0.64608(12) -0.3854(4)
C5 C 1.4826(6) 0.70456(15) -0.4239(4)
N4 N 1.3378(4) 0.73700(11) -0.3056(3)
C6 C 1.0104(8) 0.55108(15) 0.1183(5)
C7 C 0.9275(8) 0.5788(2) 0.2989(5)
C8 C 1.2927(5) 0.80261(13) -0.3169(4)
C9 C 0.9935(5) 0.82235(13) -0.3328(4)
O2 O 0.8287(4) 0.81575(10) -0.5246(3)
C10 C 1.0289(5) 0.88725(13) -0.2526(4)
O3 O 1.0669(5) 0.92870(10) -0.4063(3)
C11 C 1.2956(6) 0.88370(13) -0.0947(4)
O4 O 1.4349(4) 0.82882(9) -0.1376(3)
C12 C 1.2592(7) 0.8800(2) 0.1203(5)
O5 O 1.0797(5) 0.83291(13) 0.1536(3)
H1 H 1.5651(61) 0.7235(15) -0.5264(50)
H2 H 1.1425(90) 0.5244(23) 0.1475(65)
H3 H 0.8485(80) 0.5350(19) 0.0244(62)
H4 H 0.7752(79) 0.5614(19) 0.3385(58)
H5 H 1.0801(86) 0.5789(23) 0.4214(69)
H6 H 1.3514(51) 0.8162(14) -0.4288(43)
H7 H 0.9142(54) 0.7988(13) -0.2439(40)
H8 H 0.9151(74) 0.8284(18) -0.6029(55)
H9 H 0.8790(56) 0.9027(12) -0.1876(42)
H10 H 0.9160(91) 0.9430(21) -0.4565(63)
H11 H 1.4024(53) 0.9167(15) -0.1110(40)
H12 H 1.1898(86) 0.9166(22) 0.1701(67)
H13 H 1.4321(78) 0.8780(19) 0.2109(57)
H14 H 1.109(11) 0.7976(27) 0.1134(84)
O6 O 0.5568(5) 0.97957(12) 0.5118(4)
H15 H 0.5414(70) 0.9988(18) 0.4099(61)
H16 H 0.402(12) 0.9630(25) 0.5192(77)
loop_
_geom_bond_atom_site_label_1
_geom_bond_atom_site_label_2
_geom_bond_site_symmetry_1
_geom_bond_site_symmetry_2
S1 C1 1_555 1_555
N1 C1 1_555 1_555
C1 N2 1_555 1_555
N2 C2 1_555 1_555
C2 C3 1_555 1_555
C3 C4 1_555 1_555
C4 N1 1_555 1_555
O1 C4 1_555 1_555
N3 C3 1_555 1_555
C5 N3 1_555 1_555
N4 C2 1_555 1_555
C6 N1 1_555 1_555
C7 S1 1_555 1_555
C8 N4 1_555 1_555
C9 C8 1_555 1_555
O2 C9 1_555 1_555
C10 C9 1_555 1_555
O3 C10 1_555 1_555
C11 C10 1_555 1_555
O4 C8 1_555 1_555
C12 C11 1_555 1_555
O5 C12 1_555 1_555
O6 H15 1_555 1_555
H1 C5 1_555 1_555
H2 C6 1_555 1_555
H3 C6 1_555 1_555
H4 C7 1_555 1_555
H5 C7 1_555 1_555
H6 C8 1_555 1_555
H7 C9 1_555 1_555
H8 O2 1_555 1_555
H9 C10 1_555 1_555
H10 O3 1_555 1_555
H11 C11 1_555 1_555
H12 C12 1_555 1_555
H13 C12 1_555 1_555
H14 O5 1_555 1_555
H16 O6 1_555 1_555
C5 N4 1_555 1_555
C6 C7 1_555 1_555
C11 O4 1_555 1_555

#END
