
#######################################################################
#
#                 Cambridge Crystallographic Data Centre
#                                CCDC 
#
#######################################################################
#
# If this CIF has been generated from an entry in the Cambridge 
# Structural Database, then it will include bibliographic, chemical, 
# crystal, experimental, refinement or atomic coordinate data resulting 
# from the CCDC's data processing and validation procedures.
#
#######################################################################

data_HECFED
_chemical_formula_moiety         'C17 H21 F3 N2 O4 S1,C1 H1 Cl3'
_chemical_name_systematic        
'4-nitro-N-[3,7,7-trimethyl-4-(trifluoromethyl)bicyclo[4.1.0]heptan-3-yl]benzene-1-sulfonamide chloroform solvate'
_symmetry_cell_setting           orthorhombic
_symmetry_space_group_name_H-M   'P 21 21 21'
_symmetry_Int_Tables_number      19
_space_group_name_Hall           'P 2ac 2ab'
loop_
_symmetry_equiv_pos_site_id
_symmetry_equiv_pos_as_xyz
1 x,y,z
2 1/2-x,-y,1/2+z
3 -x,1/2+y,1/2-z
4 1/2+x,1/2-y,-z
_cell_length_a                   6.1287(3)
_cell_length_b                   17.2349(8)
_cell_length_c                   21.6302(11)
_cell_angle_alpha                90
_cell_angle_beta                 90
_cell_angle_gamma                90
_cell_volume                     2284.74
_exptl_crystal_colour            colorless
_exptl_crystal_description       block
_cell_formula_units_Z            4
_exptl_crystal_recrystallization_method 'used as received'
loop_
_atom_site_label
_atom_site_type_symbol
_atom_site_fract_x
_atom_site_fract_y
_atom_site_fract_z
S1 S 0.99090(13) 0.35707(4) 0.53917(4)
F1 F 1.1368(4) 0.22160(13) 0.74368(11)
F2 F 0.8226(5) 0.18001(17) 0.7201(2)
F3 F 1.0617(5) 0.19751(15) 0.64926(14)
O1 O 1.1410(4) 0.39765(14) 0.57827(12)
O2 O 0.2868(6) 0.5760(2) 0.38472(18)
O3 O 0.5400(6) 0.66047(15) 0.39984(14)
O4 O 1.0737(5) 0.30667(16) 0.49195(13)
N1 N 0.4638(6) 0.59538(19) 0.40495(14)
N2 N 0.8292(5) 0.30539(16) 0.58042(14)
C1 C 0.7339(6) 0.32521(18) 0.64174(16)
C2 C 0.6683(6) 0.41155(18) 0.64350(16)
H1 H 0.7991 0.4438 0.6357
H2 H 0.5621 0.4219 0.6100
C3 C 0.5682(6) 0.43494(19) 0.70493(17)
H3 H 0.4067 0.4433 0.7043
C4 C 0.6918(7) 0.4835(2) 0.75149(18)
C5 C 0.6558(9) 0.3985(2) 0.76290(18)
H4 H 0.5409 0.3876 0.7946
C6 C 0.8258(11) 0.3368(3) 0.7589(2)
H5 H 0.7690 0.2903 0.7804
H6 H 0.9548 0.3549 0.7824
C7 C 0.9059(6) 0.3108(2) 0.69340(16)
H7 H 1.0388 0.3419 0.6830
C8 C 0.5311(6) 0.2750(2) 0.64828(19)
H8 H 0.4194 0.2928 0.6191
H9 H 0.4750 0.2791 0.6906
H10 H 0.5684 0.2209 0.6394
C9 C 0.9182(8) 0.5124(3) 0.7366(3)
H11 H 1.0011 0.4712 0.7161
H12 H 0.9925 0.5273 0.7750
H13 H 0.9082 0.5576 0.7092
C10 C 0.5600(8) 0.5389(3) 0.7906(2)
H14 H 0.5474 0.5888 0.7693
H15 H 0.6330 0.5464 0.8305
H16 H 0.4141 0.5173 0.7975
C11 C 0.9755(7) 0.2278(2) 0.70162(19)
C12 C 0.8325(6) 0.42834(18) 0.49961(16)
C13 C 0.6410(7) 0.4060(2) 0.47066(18)
H17 H 0.5945 0.3535 0.4721
C14 C 0.5182(7) 0.4609(2) 0.43964(18)
H18 H 0.3855 0.4470 0.4198
C15 C 0.5934(6) 0.5363(2) 0.43820(16)
C16 C 0.7848(7) 0.5595(2) 0.46619(19)
H19 H 0.8329 0.6118 0.4637
C17 C 0.9055(7) 0.5041(2) 0.49808(19)
H20 H 1.0368 0.5182 0.5186
H21 H 0.775(7) 0.274(2) 0.5607(18)
Cl1 Cl 0.7491(2) 0.80870(7) 0.47368(5)
Cl2 Cl 0.8679(4) 0.91600(8) 0.37847(9)
Cl3 Cl 1.0601(2) 0.76256(9) 0.38140(7)
C18 C 0.8276(8) 0.8182(2) 0.3958(2)
H22 H 0.7064 0.7982 0.3693
loop_
_geom_bond_atom_site_label_1
_geom_bond_atom_site_label_2
_geom_bond_site_symmetry_1
_geom_bond_site_symmetry_2
S1 O1 1_555 1_555
F1 C11 1_555 1_555
F2 C11 1_555 1_555
F3 C11 1_555 1_555
O2 N1 1_555 1_555
O3 N1 1_555 1_555
O4 S1 1_555 1_555
N1 C15 1_555 1_555
N2 S1 1_555 1_555
C1 N2 1_555 1_555
C2 C1 1_555 1_555
H1 C2 1_555 1_555
H2 C2 1_555 1_555
C3 C2 1_555 1_555
H3 C3 1_555 1_555
C4 C3 1_555 1_555
C5 C3 1_555 1_555
H4 C5 1_555 1_555
C6 C5 1_555 1_555
H5 C6 1_555 1_555
H6 C6 1_555 1_555
C7 C1 1_555 1_555
H7 C7 1_555 1_555
C8 C1 1_555 1_555
H8 C8 1_555 1_555
H9 C8 1_555 1_555
H10 C8 1_555 1_555
C9 C4 1_555 1_555
H11 C9 1_555 1_555
H12 C9 1_555 1_555
H13 C9 1_555 1_555
C10 C4 1_555 1_555
H14 C10 1_555 1_555
H15 C10 1_555 1_555
H16 C10 1_555 1_555
C11 C7 1_555 1_555
C12 S1 1_555 1_555
C13 C12 1_555 1_555
H17 C13 1_555 1_555
C14 C13 1_555 1_555
H18 C14 1_555 1_555
C15 C14 1_555 1_555
C16 C15 1_555 1_555
H19 C16 1_555 1_555
C17 C12 1_555 1_555
H20 C17 1_555 1_555
H21 N2 1_555 1_555
Cl1 C18 1_555 1_555
Cl2 C18 1_555 1_555
Cl3 C18 1_555 1_555
C18 H22 1_555 1_555
C4 C5 1_555 1_555
C6 C7 1_555 1_555
C16 C17 1_555 1_555

#END
