
#######################################################################
#
#                 Cambridge Crystallographic Data Centre
#                                CCDC 
#
#######################################################################
#
# If this CIF has been generated from an entry in the Cambridge 
# Structural Database, then it will include bibliographic, chemical, 
# crystal, experimental, refinement or atomic coordinate data resulting 
# from the CCDC's data processing and validation procedures.
#
#######################################################################

data_HECJUW
_chemical_formula_moiety         'C18 H16 N2'
_chemical_name_systematic        1,1':4',1''-Terphenyl-4,4''-diamine
_symmetry_cell_setting           monoclinic
_symmetry_space_group_name_H-M   'C 2/c'
_symmetry_Int_Tables_number      15
_space_group_name_Hall           '-C 2yn'
loop_
_symmetry_equiv_pos_site_id
_symmetry_equiv_pos_as_xyz
1 x,y,z
2 -x,y,1/2-z
3 1/2+x,1/2+y,z
4 1/2-x,1/2+y,1/2-z
5 -x,-y,-z
6 x,-y,1/2+z
7 1/2-x,1/2-y,-z
8 1/2+x,1/2-y,1/2+z
_cell_length_a                   28.807(15)
_cell_length_b                   7.023(4)
_cell_length_c                   6.931(4)
_cell_angle_alpha                90
_cell_angle_beta                 101.689(8)
_cell_angle_gamma                90
_cell_volume                     1373.14
_exptl_crystal_colour            colorless
_exptl_crystal_description       plate
_cell_formula_units_Z            4
loop_
_atom_site_label
_atom_site_type_symbol
_atom_site_fract_x
_atom_site_fract_y
_atom_site_fract_z
C1 C 0.07252(6) 0.1240(3) 0.2217(3)
H1 H 0.0511 0.0351 0.2510
C2 C 0.11938(6) 0.1177(2) 0.3204(2)
H2 H 0.1288 0.0246 0.4157
C3 C 0.15264(6) 0.2473(2) 0.2803(2)
C4 C 0.20255(6) 0.2467(2) 0.3912(2)
C5 C 0.09047(7) 0.3877(3) 0.0338(3)
H3 H 0.0813 0.4779 -0.0648
C6 C 0.23950(6) 0.3165(3) 0.3090(2)
H4 H 0.2330 0.3617 0.1802
C7 C 0.21437(6) 0.1800(3) 0.5853(2)
H5 H 0.1906 0.1322 0.6446
C8 C 0.13705(7) 0.3807(3) 0.1331(3)
H6 H 0.1586 0.4675 0.1007
C9 C 0.05726(7) 0.2621(3) 0.0791(2)
N1 N 0.00956(6) 0.2767(3) -0.0175(2)
H7 H 0.0010 0.3637 -0.1049
H8 H -0.0111 0.1987 0.0106
C1F C 0.42748(6) 0.3760(3) 0.7783(3)
H1F H 0.4489 0.4649 0.7490
C2F C 0.38062(6) 0.3823(2) 0.6796(2)
H2F H 0.3712 0.4754 0.5843
C3F C 0.34736(6) 0.2527(2) 0.7197(2)
C4F C 0.29745(6) 0.2533(2) 0.6088(2)
C5F C 0.40953(7) 0.1123(3) 0.9662(3)
H3F H 0.4187 0.0221 1.0648
C6F C 0.26050(6) 0.1835(3) 0.6910(2)
H4F H 0.2670 0.1383 0.8198
C7F C 0.28563(6) 0.3200(3) 0.4147(2)
H5F H 0.3094 0.3678 0.3554
C8F C 0.36295(7) 0.1193(3) 0.8669(3)
H6F H 0.3414 0.0325 0.8993
C9F C 0.44274(7) 0.2379(3) 0.9209(2)
N1F N 0.49044(6) 0.2233(3) 1.0175(2)
H7F H 0.4990 0.1363 1.1049
H8F H 0.5111 0.3013 0.9894
loop_
_geom_bond_atom_site_label_1
_geom_bond_atom_site_label_2
_geom_bond_site_symmetry_1
_geom_bond_site_symmetry_2
C1 H1 1_555 1_555
C2 C1 1_555 1_555
H2 C2 1_555 1_555
C3 C2 1_555 1_555
C4 C3 1_555 1_555
C5 H3 1_555 1_555
C6 C4 1_555 1_555
H4 C6 1_555 1_555
C7 C4 1_555 1_555
H5 C7 1_555 1_555
C8 C3 1_555 1_555
H6 C8 1_555 1_555
C9 C1 1_555 1_555
N1 C9 1_555 1_555
H7 N1 1_555 1_555
H8 N1 1_555 1_555
C1F H1F 1_555 1_555
C2F C1F 1_555 1_555
H2F C2F 1_555 1_555
C3F C2F 1_555 1_555
C4F C3F 1_555 1_555
C5F H3F 1_555 1_555
C6F C7 1_555 1_555
H4F C6F 1_555 1_555
C7F C6 1_555 1_555
H5F C7F 1_555 1_555
C8F C3F 1_555 1_555
H6F C8F 1_555 1_555
C9F C1F 1_555 1_555
N1F C9F 1_555 1_555
H7F N1F 1_555 1_555
H8F N1F 1_555 1_555
C5 C8 1_555 1_555
C5 C9 1_555 1_555
C4F C6F 1_555 1_555
C4F C7F 1_555 1_555
C5F C8F 1_555 1_555
C5F C9F 1_555 1_555

#END
