
#######################################################################
#
#                 Cambridge Crystallographic Data Centre
#                                CCDC 
#
#######################################################################
#
# If this CIF has been generated from an entry in the Cambridge 
# Structural Database, then it will include bibliographic, chemical, 
# crystal, experimental, refinement or atomic coordinate data resulting 
# from the CCDC's data processing and validation procedures.
#
#######################################################################

data_HECWIY
_chemical_formula_moiety         'C16 H22 O4'
_chemical_name_systematic        'butane-1,4-diyl dihexa-2,4-dienoate'
_symmetry_cell_setting           monoclinic
_symmetry_space_group_name_H-M   'P 21/c'
_symmetry_Int_Tables_number      14
_space_group_name_Hall           '-P 2ybc'
loop_
_symmetry_equiv_pos_site_id
_symmetry_equiv_pos_as_xyz
1 x,y,z
2 -x,1/2+y,1/2-z
3 -x,-y,-z
4 x,1/2-y,1/2+z
_cell_length_a                   8.7284(3)
_cell_length_b                   10.1310(3)
_cell_length_c                   9.4962(3)
_cell_angle_alpha                90
_cell_angle_beta                 113.8716(19)
_cell_angle_gamma                90
_cell_volume                     767.89
_exptl_crystal_colour            colorless
_exptl_crystal_description       plate
_cell_formula_units_Z            2
loop_
_atom_site_label
_atom_site_type_symbol
_atom_site_fract_x
_atom_site_fract_y
_atom_site_fract_z
O1 O 0.73465(9) 0.94970(8) 0.12609(9)
O2 O 0.70923(10) 0.74390(8) 0.20334(10)
C1 C 0.66978(13) 0.85907(11) 0.19039(12)
C2 C 0.54820(13) 0.92003(11) 0.24186(12)
H1 H 0.5254 1.0117 0.2253
C3 C 0.46928(13) 0.85011(11) 0.31108(12)
H2 H 0.4941 0.7586 0.3262
C4 C 0.34895(13) 0.90286(12) 0.36492(12)
H3 H 0.3256 0.9948 0.3539
C5 C 0.26916(14) 0.82811(12) 0.42944(13)
H4 H 0.2936 0.7363 0.4398
C6 C 0.93792(13) 1.02053(11) 0.03427(13)
H5 H 0.9976 1.0709 0.1304
H6 H 0.8511 1.0787 -0.0392
C7 C 0.14401(15) 0.87877(13) 0.48650(14)
H7 H 0.0363 0.8346 0.4312
H8 H 0.1302 0.9742 0.4687
H9 H 0.1834 0.8608 0.5970
C8 C 0.85540(14) 0.90112(12) 0.06858(13)
H10 H 0.7982 0.8482 -0.0260
H11 H 0.9401 0.8448 0.1469
O1B O 1.26535(9) 1.05030(8) -0.12609(9)
O2B O 1.29077(10) 1.25610(8) -0.20334(10)
C1B C 1.33022(13) 1.14093(11) -0.19039(12)
C2B C 1.45180(13) 1.07997(11) -0.24186(12)
H1B H 1.4746 0.9883 -0.2253
C3B C 1.53072(13) 1.14989(11) -0.31108(12)
H2B H 1.5059 1.2414 -0.3262
C4B C 1.65105(13) 1.09714(12) -0.36492(12)
H3B H 1.6744 1.0052 -0.3539
C5B C 1.73084(14) 1.17189(12) -0.42944(13)
H4B H 1.7064 1.2637 -0.4398
C6B C 1.06208(13) 0.97947(11) -0.03427(13)
H5B H 1.0024 0.9291 -0.1304
H6B H 1.1489 0.9213 0.0392
C7B C 1.85599(15) 1.12123(13) -0.48650(14)
H7B H 1.9637 1.1654 -0.4312
H8B H 1.8698 1.0258 -0.4687
H9B H 1.8166 1.1392 -0.5970
C8B C 1.14460(14) 1.09888(12) -0.06858(13)
H10B H 1.2018 1.1518 0.0260
H11B H 1.0599 1.1552 -0.1469
loop_
_geom_bond_atom_site_label_1
_geom_bond_atom_site_label_2
_geom_bond_site_symmetry_1
_geom_bond_site_symmetry_2
O1 C1 1_555 1_555
O2 C1 1_555 1_555
C1 C2 1_555 1_555
C2 H1 1_555 1_555
C3 C2 1_555 1_555
H2 C3 1_555 1_555
C4 C3 1_555 1_555
H3 C4 1_555 1_555
C5 C4 1_555 1_555
H4 C5 1_555 1_555
C6 H5 1_555 1_555
H6 C6 1_555 1_555
C7 C5 1_555 1_555
H7 C7 1_555 1_555
H8 C7 1_555 1_555
H9 C7 1_555 1_555
C8 O1 1_555 1_555
H10 C8 1_555 1_555
H11 C8 1_555 1_555
O1B C1B 1_555 1_555
O2B C1B 1_555 1_555
C1B C2B 1_555 1_555
C2B H1B 1_555 1_555
C3B C2B 1_555 1_555
H2B C3B 1_555 1_555
C4B C3B 1_555 1_555
H3B C4B 1_555 1_555
C5B C4B 1_555 1_555
H4B C5B 1_555 1_555
C6B C6 1_555 1_555
H5B C6B 1_555 1_555
H6B C6B 1_555 1_555
C7B C5B 1_555 1_555
H7B C7B 1_555 1_555
H8B C7B 1_555 1_555
H9B C7B 1_555 1_555
C8B O1B 1_555 1_555
H10B C8B 1_555 1_555
H11B C8B 1_555 1_555
C6 C8 1_555 1_555
C6B C8B 1_555 1_555

#END
