
#######################################################################
#
#                 Cambridge Crystallographic Data Centre
#                                CCDC 
#
#######################################################################
#
# If this CIF has been generated from an entry in the Cambridge 
# Structural Database, then it will include bibliographic, chemical, 
# crystal, experimental, refinement or atomic coordinate data resulting 
# from the CCDC's data processing and validation procedures.
#
#######################################################################

data_HEDDIG
_chemical_formula_moiety         'C37 H48 O4'
_chemical_name_systematic        1,1'-methylenebis(2,6-dibutoxynaphthalene)
_symmetry_cell_setting           triclinic
_symmetry_space_group_name_H-M   'P -1'
_symmetry_Int_Tables_number      2
_space_group_name_Hall           '-P 1'
loop_
_symmetry_equiv_pos_site_id
_symmetry_equiv_pos_as_xyz
1 x,y,z
2 -x,-y,-z
_cell_length_a                   9.2936(4)
_cell_length_b                   10.1589(4)
_cell_length_c                   17.9869(7)
_cell_angle_alpha                85.7290(10)
_cell_angle_beta                 79.759(2)
_cell_angle_gamma                70.500(2)
_cell_volume                     1575.07
_exptl_crystal_colour            colorless
_exptl_crystal_description       block
_cell_formula_units_Z            2
loop_
_atom_site_label
_atom_site_type_symbol
_atom_site_fract_x
_atom_site_fract_y
_atom_site_fract_z
C1 C 0.54385(14) 0.54255(12) 0.27476(6)
C2 C 0.64304(14) 0.41417(12) 0.29077(6)
H1 H 0.7317 0.3704 0.2549
C3 C 0.61397(13) 0.34585(11) 0.36110(6)
C4 C 0.71641(13) 0.21511(12) 0.37978(6)
H2 H 0.8070 0.1718 0.3448
C5 C 0.68791(13) 0.14919(11) 0.44737(6)
H3 H 0.7595 0.0620 0.4593
C6 C 0.55257(13) 0.21066(11) 0.49921(6)
C7 C 0.44606(13) 0.33756(11) 0.48312(6)
C8 C 0.47865(13) 0.40891(11) 0.41450(6)
C9 C 0.38120(13) 0.54340(11) 0.39510(6)
H4 H 0.2912 0.5892 0.4297
C10 C 0.41319(14) 0.60828(12) 0.32840(7)
H5 H 0.3467 0.6990 0.3178
C11 C 0.67286(16) 0.55373(15) 0.14792(7)
H6 H 0.6589 0.4659 0.1355
H7 H 0.7777 0.5314 0.1609
C12 C 0.65307(16) 0.65482(15) 0.08168(7)
H8 H 0.7380 0.6157 0.0394
H9 H 0.6623 0.7433 0.0963
C13 C 0.50042(19) 0.68624(17) 0.05437(8)
H10 H 0.4152 0.7229 0.0968
H11 H 0.4924 0.5985 0.0379
C14 C 0.4814(2) 0.79156(19) -0.01061(9)
H12 H 0.4847 0.8801 0.0060
H13 H 0.3819 0.8068 -0.0269
H14 H 0.5655 0.7559 -0.0529
C15 C 0.60833(13) 0.00675(11) 0.58004(7)
H15 H 0.7167 -0.0002 0.5813
H16 H 0.6081 -0.0516 0.5384
C16 C 0.53918(14) -0.04439(12) 0.65431(7)
H17 H 0.5796 -0.1477 0.6557
H18 H 0.4257 -0.0161 0.6566
C17 C 0.57202(16) 0.00948(14) 0.72387(7)
H19 H 0.5242 0.1123 0.7252
H20 H 0.6852 -0.0127 0.7202
C18 C 0.51040(19) -0.05344(16) 0.79679(8)
H21 H 0.3982 -0.0309 0.8010
H22 H 0.5334 -0.0149 0.8399
H23 H 0.5598 -0.1551 0.7965
C19 C 0.29999(13) 0.39699(11) 0.54024(6)
H24 H 0.2467 0.4943 0.5248
H25 H 0.3303 0.4003 0.5899
C20 C 0.18582(12) 0.31656(11) 0.54974(6)
C21 C 0.11717(12) 0.30645(11) 0.48855(6)
C22 C 0.00990(13) 0.23447(12) 0.49458(7)
H26 H -0.0337 0.2274 0.4517
C23 C -0.03168(13) 0.17471(12) 0.56189(7)
H27 H -0.1037 0.1258 0.5652
C24 C 0.03030(12) 0.18438(11) 0.62631(6)
C25 C -0.01630(13) 0.12357(12) 0.69615(7)
H28 H -0.0894 0.0758 0.6992
C26 C 0.04325(14) 0.13333(12) 0.75900(7)
C27 C 0.15014(14) 0.20666(12) 0.75432(7)
H29 H 0.1895 0.2155 0.7983
C28 C 0.19728(13) 0.26466(12) 0.68781(6)
H30 H 0.2703 0.3121 0.6862
C29 C 0.14010(12) 0.25631(11) 0.62023(6)
C30 C 0.09733(14) 0.35650(12) 0.35748(6)
H31 H -0.0166 0.4003 0.3666
H32 H 0.1220 0.2565 0.3468
C31 C 0.16779(14) 0.42753(12) 0.29137(7)
H33 H 0.2820 0.3879 0.2852
H34 H 0.1377 0.5284 0.3015
C32 C 0.11470(17) 0.40887(15) 0.21875(7)
H35 H 0.1488 0.3081 0.2077
H36 H 0.0002 0.4443 0.2260
C33 C 0.1777(2) 0.48447(18) 0.15189(8)
H37 H 0.1391 0.5851 0.1612
H38 H 0.1437 0.4663 0.1063
H39 H 0.2910 0.4510 0.1449
C34 C -0.09466(16) -0.00274(14) 0.83508(7)
H40 H -0.0614 -0.0713 0.7939
H41 H -0.2005 0.0603 0.8312
C35 C -0.09311(16) -0.07745(14) 0.91079(7)
H42 H -0.1221 -0.0077 0.9511
H43 H -0.1719 -0.1250 0.9181
C36 C 0.06201(19) -0.18361(16) 0.91849(8)
H44 H 0.1389 -0.1346 0.9152
H45 H 0.0948 -0.2484 0.8756
C37 C 0.0627(2) -0.26834(17) 0.99190(9)
H46 H 0.0245 -0.2049 1.0348
H47 H 0.1684 -0.3292 0.9951
H48 H -0.0044 -0.3255 0.9931
O1 O 0.55859(10) 0.61958(9) 0.20963(5)
O2 O 0.51799(9) 0.14954(8) 0.56767(4)
O3 O 0.15981(9) 0.37051(9) 0.42266(4)
O4 O 0.00924(10) 0.07608(9) 0.82862(5)
loop_
_geom_bond_atom_site_label_1
_geom_bond_atom_site_label_2
_geom_bond_site_symmetry_1
_geom_bond_site_symmetry_2
C1 C2 1_555 1_555
C2 H1 1_555 1_555
C3 C2 1_555 1_555
C4 C3 1_555 1_555
H2 C4 1_555 1_555
C5 C4 1_555 1_555
H3 C5 1_555 1_555
C6 C5 1_555 1_555
C7 C6 1_555 1_555
C8 C3 1_555 1_555
C9 C8 1_555 1_555
H4 C9 1_555 1_555
C10 C1 1_555 1_555
H5 C10 1_555 1_555
C11 H6 1_555 1_555
H7 C11 1_555 1_555
C12 C11 1_555 1_555
H8 C12 1_555 1_555
H9 C12 1_555 1_555
C13 C12 1_555 1_555
H10 C13 1_555 1_555
H11 C13 1_555 1_555
C14 C13 1_555 1_555
H12 C14 1_555 1_555
H13 C14 1_555 1_555
H14 C14 1_555 1_555
C15 H15 1_555 1_555
H16 C15 1_555 1_555
C16 C15 1_555 1_555
H17 C16 1_555 1_555
H18 C16 1_555 1_555
C17 C16 1_555 1_555
H19 C17 1_555 1_555
H20 C17 1_555 1_555
C18 C17 1_555 1_555
H21 C18 1_555 1_555
H22 C18 1_555 1_555
H23 C18 1_555 1_555
C19 C7 1_555 1_555
H24 C19 1_555 1_555
H25 C19 1_555 1_555
C20 C19 1_555 1_555
C21 C20 1_555 1_555
C22 C21 1_555 1_555
H26 C22 1_555 1_555
C23 C22 1_555 1_555
H27 C23 1_555 1_555
C24 C23 1_555 1_555
C25 C24 1_555 1_555
H28 C25 1_555 1_555
C26 C25 1_555 1_555
C27 C26 1_555 1_555
H29 C27 1_555 1_555
C28 C27 1_555 1_555
H30 C28 1_555 1_555
C29 C20 1_555 1_555
C30 H31 1_555 1_555
H32 C30 1_555 1_555
C31 C30 1_555 1_555
H33 C31 1_555 1_555
H34 C31 1_555 1_555
C32 C31 1_555 1_555
H35 C32 1_555 1_555
H36 C32 1_555 1_555
C33 C32 1_555 1_555
H37 C33 1_555 1_555
H38 C33 1_555 1_555
H39 C33 1_555 1_555
C34 H40 1_555 1_555
H41 C34 1_555 1_555
C35 C34 1_555 1_555
H42 C35 1_555 1_555
H43 C35 1_555 1_555
C36 C35 1_555 1_555
H44 C36 1_555 1_555
H45 C36 1_555 1_555
C37 C36 1_555 1_555
H46 C37 1_555 1_555
H47 C37 1_555 1_555
H48 C37 1_555 1_555
O1 C1 1_555 1_555
O2 C6 1_555 1_555
O3 C21 1_555 1_555
O4 C26 1_555 1_555
C7 C8 1_555 1_555
C9 C10 1_555 1_555
C11 O1 1_555 1_555
C15 O2 1_555 1_555
C24 C29 1_555 1_555
C28 C29 1_555 1_555
C30 O3 1_555 1_555
C34 O4 1_555 1_555

#END
