
#######################################################################
#
#                 Cambridge Crystallographic Data Centre
#                                CCDC 
#
#######################################################################
#
# If this CIF has been generated from an entry in the Cambridge 
# Structural Database, then it will include bibliographic, chemical, 
# crystal, experimental, refinement or atomic coordinate data resulting 
# from the CCDC's data processing and validation procedures.
#
#######################################################################

data_HEDDAY
_chemical_formula_moiety         'C13 H12 F2 O4'
_chemical_name_systematic        
'ethyl 2,2-difluoro-3-(3-oxo-1,3-dihydro-2-benzofuran-1-yl)propanoate'
_symmetry_cell_setting           monoclinic
_symmetry_space_group_name_H-M   'P 21/c'
_symmetry_Int_Tables_number      14
_space_group_name_Hall           '-P 2ybc'
loop_
_symmetry_equiv_pos_site_id
_symmetry_equiv_pos_as_xyz
1 x,y,z
2 -x,1/2+y,1/2-z
3 -x,-y,-z
4 x,1/2-y,1/2+z
_cell_length_a                   13.9502(16)
_cell_length_b                   7.9101(9)
_cell_length_c                   11.5513(15)
_cell_angle_alpha                90
_cell_angle_beta                 104.996(4)
_cell_angle_gamma                90
_cell_volume                     1231.25
_cell_formula_units_Z            4
loop_
_atom_site_label
_atom_site_type_symbol
_atom_site_fract_x
_atom_site_fract_y
_atom_site_fract_z
C1 C 0.83793(10) 0.45710(18) 0.41512(14)
C2 C 0.82944(11) 0.6233(2) 0.37604(16)
H1 H 0.7995 0.6502 0.2965
C3 C 0.86719(12) 0.7477(2) 0.45964(18)
H2 H 0.8622 0.8604 0.4358
C4 C 0.91245(12) 0.7079(2) 0.57862(18)
H3 H 0.9368 0.7942 0.6329
C5 C 0.92171(11) 0.5423(2) 0.61709(15)
H4 H 0.9519 0.5147 0.6964
C6 C 0.88411(10) 0.41862(19) 0.53249(13)
C7 C 0.88482(11) 0.2340(2) 0.54602(13)
C8 C 0.80538(11) 0.29594(18) 0.34786(13)
H5 H 0.8379 0.2834 0.2826
C9 C 0.69281(11) 0.28254(19) 0.29926(13)
H6 H 0.6636 0.2643 0.3659
H7 H 0.6677 0.3892 0.2621
C10 C 0.65954(12) 0.1428(2) 0.20922(14)
C11 C 0.54629(12) 0.1225(2) 0.17197(14)
C12 C 0.39721(11) 0.2369(2) 0.05153(16)
H8 H 0.3734 0.2634 0.1213
H9 H 0.3686 0.1300 0.0187
C13 C 0.36896(14) 0.3732(3) -0.0398(2)
H10 H 0.3983 0.4780 -0.0064
H11 H 0.2980 0.3846 -0.0634
H12 H 0.3923 0.3449 -0.1086
F1 F 0.69924(7) -0.00839(12) 0.25322(10)
F2 F 0.69302(7) 0.17191(14) 0.10975(9)
O1 O 0.83929(8) 0.16498(12) 0.43745(9)
O2 O 0.91706(9) 0.14620(15) 0.63240(10)
O3 O 0.50356(10) 0.0293(2) 0.22286(14)
O4 O 0.50599(8) 0.22684(15) 0.08468(10)
loop_
_geom_bond_atom_site_label_1
_geom_bond_atom_site_label_2
_geom_bond_site_symmetry_1
_geom_bond_site_symmetry_2
C1 C2 1_555 1_555
C2 H1 1_555 1_555
C3 C2 1_555 1_555
H2 C3 1_555 1_555
C4 C3 1_555 1_555
H3 C4 1_555 1_555
C5 C4 1_555 1_555
H4 C5 1_555 1_555
C6 C1 1_555 1_555
C7 C6 1_555 1_555
C8 C1 1_555 1_555
H5 C8 1_555 1_555
C9 C8 1_555 1_555
H6 C9 1_555 1_555
H7 C9 1_555 1_555
C10 C9 1_555 1_555
C11 C10 1_555 1_555
C12 H8 1_555 1_555
H9 C12 1_555 1_555
C13 C12 1_555 1_555
H10 C13 1_555 1_555
H11 C13 1_555 1_555
H12 C13 1_555 1_555
F1 C10 1_555 1_555
F2 C10 1_555 1_555
O1 C7 1_555 1_555
O2 C7 1_555 1_555
O3 C11 1_555 1_555
O4 C11 1_555 1_555
C5 C6 1_555 1_555
C8 O1 1_555 1_555
C12 O4 1_555 1_555

#END
