
#######################################################################
#
#                 Cambridge Crystallographic Data Centre
#                                CCDC 
#
#######################################################################
#
# If this CIF has been generated from an entry in the Cambridge 
# Structural Database, then it will include bibliographic, chemical, 
# crystal, experimental, refinement or atomic coordinate data resulting 
# from the CCDC's data processing and validation procedures.
#
#######################################################################

data_HEDFOO
_chemical_formula_moiety         'C15 H11 N1 O2'
_chemical_name_systematic        2-nitro-3-phenyl-1H-indene
_symmetry_cell_setting           orthorhombic
_symmetry_space_group_name_H-M   'P c a 21'
_symmetry_Int_Tables_number      29
_space_group_name_Hall           'P 2c -2ac'
loop_
_symmetry_equiv_pos_site_id
_symmetry_equiv_pos_as_xyz
1 x,y,z
2 -x,-y,1/2+z
3 1/2+x,-y,z
4 1/2-x,y,1/2+z
_cell_length_a                   12.2869(11)
_cell_length_b                   6.2004(5)
_cell_length_c                   15.4191(11)
_cell_angle_alpha                90
_cell_angle_beta                 90
_cell_angle_gamma                90
_cell_volume                     1174.68
_exptl_crystal_colour            colorless
_exptl_crystal_description       block
_cell_formula_units_Z            4
loop_
_atom_site_label
_atom_site_type_symbol
_atom_site_fract_x
_atom_site_fract_y
_atom_site_fract_z
N1 N 0.44685(18) 1.3158(3) 0.09882(16)
O1 O 0.49825(16) 1.3646(3) 0.03389(15)
O2 O 0.37091(16) 1.4242(3) 0.12639(17)
C1 C 0.5544(2) 0.8204(3) 0.19508(16)
C2 C 0.4664(2) 0.8586(4) 0.25050(17)
C3 C 0.7180(2) 1.1615(4) 0.05431(17)
H1 H 0.7135 1.2787 0.0918
C4 C 0.4750(2) 1.1261(4) 0.14630(16)
C5 C 0.7323(3) 0.8177(4) -0.05681(19)
H2 H 0.7369 0.7017 -0.0949
C6 C 0.55861(19) 0.9912(3) 0.12905(17)
C7 C 0.6235(2) 0.6476(4) 0.20836(18)
H3 H 0.6827 0.6240 0.1719
C8 C 0.7989(2) 1.1543(4) -0.00717(19)
H4 H 0.8486 1.2670 -0.0111
C9 C 0.6430(2) 0.9950(3) 0.06089(15)
C10 C 0.6519(2) 0.8216(4) 0.00411(17)
H5 H 0.6027 0.7079 0.0077
C11 C 0.4468(3) 0.7220(4) 0.31949(18)
H6 H 0.3890 0.7472 0.3570
C12 C 0.5149(3) 0.5472(4) 0.33177(18)
H7 H 0.5016 0.4525 0.3773
C13 C 0.6026(3) 0.5109(4) 0.27712(19)
H8 H 0.6478 0.3932 0.2869
C14 C 0.4085(2) 1.0587(4) 0.22210(17)
H9 H 0.3340 1.0283 0.2054
H10 H 0.4089 1.1677 0.2672
C15 C 0.8068(2) 0.9825(5) -0.0628(2)
H11 H 0.8619 0.9775 -0.1041
loop_
_geom_bond_atom_site_label_1
_geom_bond_atom_site_label_2
_geom_bond_site_symmetry_1
_geom_bond_site_symmetry_2
N1 O1 1_555 1_555
O2 N1 1_555 1_555
C1 C2 1_555 1_555
C2 C11 1_555 1_555
C3 H1 1_555 1_555
C4 N1 1_555 1_555
C5 H2 1_555 1_555
C6 C1 1_555 1_555
C7 C1 1_555 1_555
H3 C7 1_555 1_555
C8 C3 1_555 1_555
H4 C8 1_555 1_555
C9 C3 1_555 1_555
C10 C5 1_555 1_555
H5 C10 1_555 1_555
C11 H6 1_555 1_555
C12 C11 1_555 1_555
H7 C12 1_555 1_555
C13 C7 1_555 1_555
H8 C13 1_555 1_555
C14 C2 1_555 1_555
H9 C14 1_555 1_555
H10 C14 1_555 1_555
C15 C5 1_555 1_555
H11 C15 1_555 1_555
C4 C6 1_555 1_555
C4 C14 1_555 1_555
C6 C9 1_555 1_555
C8 C15 1_555 1_555
C9 C10 1_555 1_555
C12 C13 1_555 1_555

#END
