
#######################################################################
#
#                 Cambridge Crystallographic Data Centre
#                                CCDC 
#
#######################################################################
#
# If this CIF has been generated from an entry in the Cambridge 
# Structural Database, then it will include bibliographic, chemical, 
# crystal, experimental, refinement or atomic coordinate data resulting 
# from the CCDC's data processing and validation procedures.
#
#######################################################################

data_HEDJIM
_chemical_formula_moiety         'C21 H23 N3 O4'
_chemical_name_systematic        
't-butyl [2-methyl-1,3-dioxo-9-phenyl-2,3,3a,4,7,7a-hexahydro-1H-4,7-(epiminomethano)isoindol-8-ylidene]carbamate'
_symmetry_cell_setting           triclinic
_symmetry_space_group_name_H-M   'P -1'
_symmetry_Int_Tables_number      2
_space_group_name_Hall           '-P 1'
loop_
_symmetry_equiv_pos_site_id
_symmetry_equiv_pos_as_xyz
1 x,y,z
2 -x,-y,-z
_cell_length_a                   9.8054(19)
_cell_length_b                   10.1259(19)
_cell_length_c                   10.558(2)
_cell_angle_alpha                89.345(3)
_cell_angle_beta                 88.968(4)
_cell_angle_gamma                70.630(3)
_cell_volume                     988.774
_exptl_crystal_colour            colorless
_exptl_crystal_description       block
_cell_formula_units_Z            2
loop_
_atom_site_label
_atom_site_type_symbol
_atom_site_fract_x
_atom_site_fract_y
_atom_site_fract_z
O1 O 0.2639(2) 0.2287(2) 0.2218(2)
O2 O 0.2524(3) 0.0587(3) 0.0918(2)
O3 O -0.2498(5) 0.4161(8) -0.4163(4)
O4 O 0.2223(5) 0.1657(7) -0.3692(4)
N1 N 0.0651(3) 0.2705(3) 0.1106(2)
N2 N -0.1333(3) 0.3527(3) -0.0190(2)
N3 N -0.0074(5) 0.2988(6) -0.4238(4)
C1 C 0.4292(5) 0.2460(4) 0.3708(4)
H1 H 0.4162 0.3355 0.3322
H2 H 0.5249 0.2090 0.4042
H3 H 0.3595 0.2566 0.4383
C2 C 0.4085(3) 0.1468(4) 0.2730(3)
C3 C 0.4043(4) 0.0130(4) 0.3345(4)
H4 H 0.3275 0.0343 0.3967
H5 H 0.4948 -0.0334 0.3748
H6 H 0.3878 -0.0471 0.2712
C4 C 0.5216(4) 0.1226(6) 0.1691(4)
H7 H 0.5032 0.0642 0.1052
H8 H 0.6156 0.0774 0.2038
H9 H 0.5179 0.2108 0.1322
C5 C 0.1995(4) 0.1743(4) 0.1349(3)
C6 C 0.0074(3) 0.2740(3) 0.0010(3)
C7 C -0.2313(3) 0.4332(3) 0.0744(3)
C8 C -0.2416(4) 0.3814(4) 0.1929(4)
H10 H -0.1840 0.2910 0.2143
C9 C -0.3384(4) 0.4640(5) 0.2815(4)
H11 H -0.3451 0.4280 0.3620
C10 C -0.4232(4) 0.5966(5) 0.2522(4)
H12 H -0.4873 0.6513 0.3122
C11 C -0.4131(4) 0.6491(4) 0.1322(4)
H13 H -0.4710 0.7395 0.1110
C12 C -0.3173(3) 0.5678(4) 0.0440(3)
H14 H -0.3105 0.6038 -0.0364
C13 C 0.0800(3) 0.2076(4) -0.1211(3)
H15 H 0.1796 0.1483 -0.1045
C14 C -0.020(2) 0.108(2) -0.1509(16)
H16 H 0.0135 0.0108 -0.1578
C15 C -0.1554(16) 0.1890(16) -0.1630(10)
H17 H -0.2300 0.1539 -0.1777
C16 C -0.1813(4) 0.3528(4) -0.1504(4)
H18 H -0.2848 0.4057 -0.1558
C17 C 0.080(3) 0.320(3) -0.212(3)
H19 H 0.1416 0.3760 -0.1917
C18 C 0.1068(7) 0.2488(7) -0.3409(6)
C19 C 0.0039(8) 0.2621(11) -0.5582(6)
H20 H 0.1026 0.2396 -0.5865
H21 H -0.0561 0.3401 -0.6064
H22 H -0.0272 0.1827 -0.5699
C20 C -0.1346(7) 0.3768(8) -0.3644(6)
C21 C -0.102(3) 0.412(3) -0.234(3)
H23 H -0.1257 0.5129 -0.2222
H24? H 0.1836 0.1566 -0.1128
H25? H -0.2809 0.4152 -0.1614
O5? O -0.2734(5) 0.2806(7) -0.4188(5)
O6? O 0.1826(6) -0.0093(7) -0.3482(5)
N4? N -0.0430(6) 0.1249(6) -0.4090(5)
C22? C 0.044(3) 0.333(3) -0.224(3)
H26? H 0.1187 0.3442 -0.2744
C23? C -0.064(3) 0.405(3) -0.236(3)
H27? H -0.0892 0.4846 -0.2866
C24? C 0.004(2) 0.1309(17) -0.1874(18)
H28? H 0.0019 0.0524 -0.1332
C25? C 0.0625(8) 0.0705(8) -0.3222(7)
C26? C -0.0249(10) 0.0981(11) -0.5448(7)
H29? H -0.0017 0.1730 -0.5862
H30? H -0.1131 0.0922 -0.5783
H31? H 0.0520 0.0115 -0.5594
C27? C -0.1692(7) 0.2133(7) -0.3564(6)
C28? C -0.1532(16) 0.2189(16) -0.2170(10)
H32? H -0.2155 0.1714 -0.1774
loop_
_geom_bond_atom_site_label_1
_geom_bond_atom_site_label_2
_geom_bond_site_symmetry_1
_geom_bond_site_symmetry_2
O1 C2 1_555 1_555
O2 C5 1_555 1_555
O3 C20 1_555 1_555
O4 C18 1_555 1_555
N1 C5 1_555 1_555
N2 C6 1_555 1_555
N3 C18 1_555 1_555
C1 H1 1_555 1_555
H2 C1 1_555 1_555
H3 C1 1_555 1_555
C2 C1 1_555 1_555
C3 C2 1_555 1_555
H4 C3 1_555 1_555
H5 C3 1_555 1_555
H6 C3 1_555 1_555
C4 C2 1_555 1_555
H7 C4 1_555 1_555
H8 C4 1_555 1_555
H9 C4 1_555 1_555
C5 O1 1_555 1_555
C6 N1 1_555 1_555
C7 N2 1_555 1_555
C8 C7 1_555 1_555
H10 C8 1_555 1_555
C9 C8 1_555 1_555
H11 C9 1_555 1_555
C10 C9 1_555 1_555
H12 C10 1_555 1_555
C11 C10 1_555 1_555
H13 C11 1_555 1_555
C12 C7 1_555 1_555
H14 C12 1_555 1_555
C13 C6 1_555 1_555
H15 C13 1_555 1_555
C14 C13 1_555 1_555
H16 C14 1_555 1_555
C15 C14 1_555 1_555
H17 C15 1_555 1_555
C16 N2 1_555 1_555
H18 C16 1_555 1_555
C17 C13 1_555 1_555
H19 C17 1_555 1_555
C18 C17 1_555 1_555
C19 N3 1_555 1_555
H20 C19 1_555 1_555
H21 C19 1_555 1_555
H22 C19 1_555 1_555
C20 N3 1_555 1_555
C21 C16 1_555 1_555
H23 C21 1_555 1_555
C11 C12 1_555 1_555
C15 C16 1_555 1_555
C17 C21 1_555 1_555
C20 C21 1_555 1_555

#END
