
#######################################################################
#
#                 Cambridge Crystallographic Data Centre
#                                CCDC 
#
#######################################################################
#
# If this CIF has been generated from an entry in the Cambridge 
# Structural Database, then it will include bibliographic, chemical, 
# crystal, experimental, refinement or atomic coordinate data resulting 
# from the CCDC's data processing and validation procedures.
#
#######################################################################

data_HEDKUZ
_chemical_formula_moiety         'C25 H34 O6'
_chemical_name_systematic        
'(7,7-dimethyl-1-oxo-3,3a,4,5,7,8,9,10-octahydronaphtho[1,8a-c]furan-4-yl)methyl 4,7,7-trimethyl-3-oxo-2-oxabicyclo[2.2.1]heptane-1-carboxylate'
_symmetry_cell_setting           monoclinic
_symmetry_space_group_name_H-M   'P 21'
_symmetry_Int_Tables_number      4
_space_group_name_Hall           'P 2yb'
loop_
_symmetry_equiv_pos_site_id
_symmetry_equiv_pos_as_xyz
1 x,y,z
2 -x,1/2+y,-z
_cell_length_a                   6.7453(5)
_cell_length_b                   11.8927(10)
_cell_length_c                   14.4914(13)
_cell_angle_alpha                90
_cell_angle_beta                 101.280(9)
_cell_angle_gamma                90
_cell_volume                     1140.04
_cell_formula_units_Z            2
loop_
_atom_site_label
_atom_site_type_symbol
_atom_site_fract_x
_atom_site_fract_y
_atom_site_fract_z
O1 O 0.3487(5) 0.2315(3) 0.3303(2)
O2 O 0.6369(5) 0.2952(4) 0.4180(3)
O3 O -0.1242(6) 0.0888(4) 0.2752(3)
O4 O -0.0254(5) 0.2623(3) 0.2495(2)
O5 O 0.2499(5) 0.5334(4) 0.1318(3)
O6 O 0.1750(6) 0.6584(4) 0.0178(3)
C1 C 0.5000(8) 0.2289(5) 0.4078(4)
C2 C 0.4587(7) 0.1336(6) 0.4673(3)
C3 C 0.4918(9) 0.0279(6) 0.4105(5)
H1 H 0.4824 -0.0400 0.4464
H2 H 0.6225 0.0300 0.3920
C4 C 0.3169(9) 0.0348(6) 0.3233(5)
H3 H 0.3681 0.0404 0.2654
H4 H 0.2280 -0.0298 0.3198
C5 C 0.2103(7) 0.1418(5) 0.3427(4)
C6 C 0.2263(7) 0.1429(6) 0.4509(4)
C7 C 0.5759(8) 0.1378(8) 0.5679(4)
H5 H 0.5461 0.2068 0.5968
H6 H 0.7181 0.1340 0.5681
H7 H 0.5375 0.0753 0.6025
C8 C 0.1203(9) 0.0448(7) 0.4884(5)
H8 H 0.1365 0.0511 0.5555
H9 H 0.1785 -0.0247 0.4729
H10 H -0.0210 0.0461 0.4604
C9 C 0.1492(9) 0.2527(7) 0.4856(4)
H11 H 0.1621 0.2497 0.5527
H12 H 0.0097 0.2630 0.4567
H13 H 0.2274 0.3144 0.4693
C10 C 0.0020(8) 0.1605(5) 0.2845(4)
C11 C -0.2232(7) 0.2845(5) 0.1913(4)
H14 H -0.3290 0.2631 0.2246
H15 H -0.2402 0.2414 0.1335
C12 C -0.2359(7) 0.4096(4) 0.1693(3)
H16 H -0.3651 0.4216 0.1260
C13 C -0.2411(9) 0.4808(5) 0.2546(4)
H17 H -0.3637 0.4650 0.2777
H18 H -0.1266 0.4622 0.3039
C14 C -0.2339(8) 0.6037(5) 0.2307(4)
H19 H -0.2722 0.6538 0.2733
C15 C -0.1794(7) 0.6485(5) 0.1559(4)
C16 C -0.2161(9) 0.7736(5) 0.1310(4)
C17 C -0.3460(9) 0.7808(6) 0.0304(4)
H20 H -0.4838 0.7599 0.0330
H21 H -0.3479 0.8583 0.0094
C18 C -0.2744(9) 0.7074(5) -0.0417(4)
H22 H -0.3711 0.7121 -0.1007
H23 H -0.1461 0.7359 -0.0524
C19 C -0.2489(9) 0.5843(5) -0.0116(4)
H24 H -0.3794 0.5531 -0.0068
H25 H -0.1967 0.5418 -0.0588
C20 C -0.1029(7) 0.5736(5) 0.0838(3)
C21 C 0.1158(8) 0.5970(6) 0.0724(4)
C22 C 0.1415(8) 0.4533(5) 0.1782(4)
H26 H 0.1402 0.4771 0.2421
H27 H 0.2036 0.3796 0.1800
C23 C -0.0733(7) 0.4507(5) 0.1194(4)
H28 H -0.0731 0.4019 0.0649
C24 C -0.0168(10) 0.8383(6) 0.1369(5)
H29 H 0.0621 0.8323 0.1995
H30 H -0.0455 0.9160 0.1221
H31 H 0.0575 0.8069 0.0929
C25 C -0.3365(11) 0.8324(6) 0.1955(6)
H32 H -0.2614 0.8306 0.2590
H33 H -0.4634 0.7946 0.1924
H34 H -0.3606 0.9091 0.1758
loop_
_geom_bond_atom_site_label_1
_geom_bond_atom_site_label_2
_geom_bond_site_symmetry_1
_geom_bond_site_symmetry_2
O1 C1 1_555 1_555
O2 C1 1_555 1_555
O3 C10 1_555 1_555
O4 C10 1_555 1_555
O5 C21 1_555 1_555
O6 C21 1_555 1_555
C1 C2 1_555 1_555
C2 C3 1_555 1_555
C3 H1 1_555 1_555
H2 C3 1_555 1_555
C4 C3 1_555 1_555
H3 C4 1_555 1_555
H4 C4 1_555 1_555
C5 O1 1_555 1_555
C6 C2 1_555 1_555
C7 C2 1_555 1_555
H5 C7 1_555 1_555
H6 C7 1_555 1_555
H7 C7 1_555 1_555
C8 C6 1_555 1_555
H8 C8 1_555 1_555
H9 C8 1_555 1_555
H10 C8 1_555 1_555
C9 C6 1_555 1_555
H11 C9 1_555 1_555
H12 C9 1_555 1_555
H13 C9 1_555 1_555
C10 C5 1_555 1_555
C11 O4 1_555 1_555
H14 C11 1_555 1_555
H15 C11 1_555 1_555
C12 C11 1_555 1_555
H16 C12 1_555 1_555
C13 C12 1_555 1_555
H17 C13 1_555 1_555
H18 C13 1_555 1_555
C14 C13 1_555 1_555
H19 C14 1_555 1_555
C15 C14 1_555 1_555
C16 C15 1_555 1_555
C17 C16 1_555 1_555
H20 C17 1_555 1_555
H21 C17 1_555 1_555
C18 C17 1_555 1_555
H22 C18 1_555 1_555
H23 C18 1_555 1_555
C19 C18 1_555 1_555
H24 C19 1_555 1_555
H25 C19 1_555 1_555
C20 C15 1_555 1_555
C21 C20 1_555 1_555
C22 O5 1_555 1_555
H26 C22 1_555 1_555
H27 C22 1_555 1_555
C23 C12 1_555 1_555
H28 C23 1_555 1_555
C24 C16 1_555 1_555
H29 C24 1_555 1_555
H30 C24 1_555 1_555
H31 C24 1_555 1_555
C25 C16 1_555 1_555
H32 C25 1_555 1_555
H33 C25 1_555 1_555
H34 C25 1_555 1_555
C4 C5 1_555 1_555
C5 C6 1_555 1_555
C19 C20 1_555 1_555
C20 C23 1_555 1_555
C22 C23 1_555 1_555

#END
