
#######################################################################
#
#                 Cambridge Crystallographic Data Centre
#                                CCDC 
#
#######################################################################
#
# If this CIF has been generated from an entry in the Cambridge 
# Structural Database, then it will include bibliographic, chemical, 
# crystal, experimental, refinement or atomic coordinate data resulting 
# from the CCDC's data processing and validation procedures.
#
#######################################################################

data_HEDLAG
_chemical_formula_moiety         'C25 H34 O6'
_chemical_name_systematic        
'(7,7-dimethyl-1-oxo-3,3a,4,5,7,8,9,10-octahydronaphtho[1,8a-c]furan-4-yl)methyl 4,7,7-trimethyl-3-oxo-2-oxabicyclo[2.2.1]heptane-1-carboxylate'
_symmetry_cell_setting           monoclinic
_symmetry_space_group_name_H-M   'P 21'
_symmetry_Int_Tables_number      4
_space_group_name_Hall           'P 2yb'
loop_
_symmetry_equiv_pos_site_id
_symmetry_equiv_pos_as_xyz
1 x,y,z
2 -x,1/2+y,-z
_cell_length_a                   6.2690(3)
_cell_length_b                   27.3913(11)
_cell_length_c                   7.1608(4)
_cell_angle_alpha                90
_cell_angle_beta                 113.190(6)
_cell_angle_gamma                90
_cell_volume                     1130.28
_cell_formula_units_Z            2
loop_
_atom_site_label
_atom_site_type_symbol
_atom_site_fract_x
_atom_site_fract_y
_atom_site_fract_z
O1 O 0.0593(5) -0.03989(15) 0.5488(6)
O2 O 0.1949(5) 0.01532(12) 0.4012(5)
O3 O 0.8125(5) 0.11978(10) 0.9273(4)
O4 O 1.1966(5) 0.11345(13) 1.0047(4)
O5 O 1.3078(4) 0.16573(10) 1.3415(4)
O6 O 1.5055(5) 0.22126(14) 1.5742(4)
C1 C 0.2234(7) -0.02302(16) 0.5267(6)
C2 C 0.4780(6) -0.03941(14) 0.6123(5)
C3 C 0.4954(7) -0.07738(15) 0.4571(5)
H1 H 0.4098 -0.0648 0.3177
H2 H 0.6602 -0.0811 0.4776
C4 C 0.3989(8) -0.12678(15) 0.4765(6)
H3 H 0.4130 -0.1494 0.3742
H4 H 0.2324 -0.1237 0.4512
C5 C 0.5312(7) -0.14679(14) 0.6875(6)
H5 H 0.6962 -0.1507 0.7087
H6 H 0.4698 -0.1796 0.6969
C6 C 0.5174(7) -0.11464(14) 0.8577(6)
C7 C 0.5720(6) -0.06079(13) 0.8275(5)
C8 C 0.7115(7) -0.03440(16) 0.9791(5)
H7 H 0.7709 -0.0494 1.1092
C9 C 0.7870(8) 0.01727(16) 0.9678(6)
H8 H 0.9500 0.0170 0.9802
H9 H 0.7815 0.0359 1.0843
C10 C 0.6386(7) 0.04292(14) 0.7731(6)
H10 H 0.4861 0.0513 0.7789
C11 C 0.5948(6) 0.00857(13) 0.5928(5)
H11 H 0.7432 0.0017 0.5765
C12 C 0.4152(8) 0.02962(16) 0.3968(6)
H12 H 0.4283 0.0656 0.3940
H13 H 0.4341 0.0158 0.2765
C13 C 0.2766(8) -0.11977(17) 0.8676(7)
H14 H 0.1570 -0.1071 0.7420
H15 H 0.2743 -0.1012 0.9838
H16 H 0.2458 -0.1543 0.8834
C14 C 0.6967(9) -0.13503(17) 1.0584(7)
H17 H 0.6589 -0.1691 1.0744
H18 H 0.6934 -0.1156 1.1722
H19 H 0.8519 -0.1334 1.0563
C15 C 0.7544(8) 0.08996(15) 0.7476(6)
H20 H 0.8969 0.0821 0.7256
H21 H 0.6479 0.1081 0.6275
C16 C 1.0375(7) 0.12746(13) 1.0408(5)
C17 C 1.0598(6) 0.15671(13) 1.2268(5)
C18 C 0.9720(7) 0.13334(15) 1.3783(6)
H22 H 1.0701 0.1054 1.4500
H23 H 0.8089 0.1224 1.3103
C19 C 0.9948(7) 0.17645(16) 1.5246(6)
H24 H 1.1093 0.1689 1.6631
H25 H 0.8435 0.1839 1.5315
C20 C 1.0791(7) 0.22001(15) 1.4300(5)
C21 C 1.3224(6) 0.20549(16) 1.4627(5)
C22 C 0.9578(6) 0.20903(13) 1.1974(5)
C23 C 0.6915(6) 0.21234(16) 1.1137(6)
H26 H 0.6268 0.2051 0.9679
H27 H 0.6457 0.2454 1.1356
H28 H 0.6323 0.1887 1.1843
C24 C 1.0412(7) 0.24101(14) 1.0654(6)
H29 H 0.9584 0.2320 0.9224
H30 H 1.2082 0.2362 1.1047
H31 H 1.0108 0.2754 1.0842
C25 C 1.0572(7) 0.26991(17) 1.5105(6)
H32 H 1.1147 0.2947 1.4433
H33 H 1.1486 0.2710 1.6573
H34 H 0.8938 0.2764 1.4831
loop_
_geom_bond_atom_site_label_1
_geom_bond_atom_site_label_2
_geom_bond_site_symmetry_1
_geom_bond_site_symmetry_2
O1 C1 1_555 1_555
O2 C1 1_555 1_555
O3 C15 1_555 1_555
O4 C16 1_555 1_555
O5 C17 1_555 1_555
O6 C21 1_555 1_555
C1 C2 1_555 1_555
C2 C3 1_555 1_555
C3 H1 1_555 1_555
H2 C3 1_555 1_555
C4 C3 1_555 1_555
H3 C4 1_555 1_555
H4 C4 1_555 1_555
C5 C4 1_555 1_555
H5 C5 1_555 1_555
H6 C5 1_555 1_555
C6 C5 1_555 1_555
C7 C2 1_555 1_555
C8 C7 1_555 1_555
H7 C8 1_555 1_555
C9 C8 1_555 1_555
H8 C9 1_555 1_555
H9 C9 1_555 1_555
C10 C9 1_555 1_555
H10 C10 1_555 1_555
C11 C2 1_555 1_555
H11 C11 1_555 1_555
C12 O2 1_555 1_555
H12 C12 1_555 1_555
H13 C12 1_555 1_555
C13 C6 1_555 1_555
H14 C13 1_555 1_555
H15 C13 1_555 1_555
H16 C13 1_555 1_555
C14 C6 1_555 1_555
H17 C14 1_555 1_555
H18 C14 1_555 1_555
H19 C14 1_555 1_555
C15 C10 1_555 1_555
H20 C15 1_555 1_555
H21 C15 1_555 1_555
C16 O3 1_555 1_555
C17 C16 1_555 1_555
C18 C17 1_555 1_555
H22 C18 1_555 1_555
H23 C18 1_555 1_555
C19 C18 1_555 1_555
H24 C19 1_555 1_555
H25 C19 1_555 1_555
C20 C19 1_555 1_555
C21 O5 1_555 1_555
C22 C17 1_555 1_555
C23 C22 1_555 1_555
H26 C23 1_555 1_555
H27 C23 1_555 1_555
H28 C23 1_555 1_555
C24 C22 1_555 1_555
H29 C24 1_555 1_555
H30 C24 1_555 1_555
H31 C24 1_555 1_555
C25 C20 1_555 1_555
H32 C25 1_555 1_555
H33 C25 1_555 1_555
H34 C25 1_555 1_555
C6 C7 1_555 1_555
C10 C11 1_555 1_555
C11 C12 1_555 1_555
C20 C21 1_555 1_555
C20 C22 1_555 1_555

#END
