
#######################################################################
#
#                 Cambridge Crystallographic Data Centre
#                                CCDC 
#
#######################################################################
#
# If this CIF has been generated from an entry in the Cambridge 
# Structural Database, then it will include bibliographic, chemical, 
# crystal, experimental, refinement or atomic coordinate data resulting 
# from the CCDC's data processing and validation procedures.
#
#######################################################################

data_HEDLUA
_chemical_formula_moiety         'C23 H31 O1 P1'
_chemical_name_systematic        
'benzyl(2-isopropyl-5-methylcyclohexyl)phenylphosphine oxide'
_symmetry_cell_setting           orthorhombic
_symmetry_space_group_name_H-M   'P 21 21 21'
_symmetry_Int_Tables_number      19
_space_group_name_Hall           'P 2ac 2ab'
loop_
_symmetry_equiv_pos_site_id
_symmetry_equiv_pos_as_xyz
1 x,y,z
2 1/2-x,-y,1/2+z
3 1/2+x,1/2-y,-z
4 -x,1/2+y,1/2-z
_cell_length_a                   5.7510(2)
_cell_length_b                   8.5852(4)
_cell_length_c                   41.6195(17)
_cell_angle_alpha                90
_cell_angle_beta                 90
_cell_angle_gamma                90
_cell_volume                     2054.9
_exptl_crystal_colour            colorless
_exptl_crystal_description       block
_cell_formula_units_Z            4
loop_
_atom_site_label
_atom_site_type_symbol
_atom_site_fract_x
_atom_site_fract_y
_atom_site_fract_z
P1 P 0.34499(9) 0.58998(7) 0.376461(12)
O1 O 0.0992(3) 0.5614(2) 0.36707(4)
C1 C 0.4331(4) 0.4726(3) 0.41067(5)
C2 C 0.2788(5) 0.3627(3) 0.42260(6)
H1 H 0.1362 0.3480 0.4125
C3 C 0.3350(6) 0.2747(3) 0.44941(6)
H2 H 0.2312 0.2006 0.4571
C4 C 0.5451(6) 0.2974(4) 0.46452(6)
H3 H 0.5817 0.2399 0.4828
C5 C 0.7016(5) 0.4048(4) 0.45279(6)
H4 H 0.8437 0.4193 0.4630
C6 C 0.6462(4) 0.4917(3) 0.42552(5)
H5 H 0.7529 0.5626 0.4173
C7 C 0.3893(4) 0.7891(3) 0.39058(5)
H6 H 0.5480 0.7995 0.3982
H7 H 0.3694 0.8599 0.3726
C8 C 0.2259(4) 0.8364(3) 0.41715(6)
C9 C 0.0256(4) 0.9185(3) 0.41030(6)
H8 H -0.0087 0.9429 0.3890
C10 C -0.1251(5) 0.9651(3) 0.43431(7)
H9 H -0.2588 1.0208 0.4292
C11 C -0.0770(5) 0.9291(3) 0.46585(7)
H10 H -0.1783 0.9594 0.4821
C12 C 0.1212(6) 0.8483(3) 0.47310(7)
H11 H 0.1546 0.8243 0.4944
C13 C 0.2717(5) 0.8020(3) 0.44919(6)
H12 H 0.4056 0.7472 0.4545
C14 C 0.5584(4) 0.5578(3) 0.34451(5)
H13 H 0.7057 0.5292 0.3548
C15 C 0.6014(4) 0.7069(3) 0.32479(5)
H14 H 0.4558 0.7406 0.3153
H15 H 0.6546 0.7888 0.3391
C16 C 0.7807(5) 0.6834(3) 0.29821(6)
H16 H 0.9279 0.6529 0.3083
C17 C 0.7032(6) 0.5518(3) 0.27658(6)
H17 H 0.8194 0.5347 0.2601
H18 H 0.5587 0.5804 0.2661
C18 C 0.6676(6) 0.4021(3) 0.29554(6)
H19 H 0.8145 0.3707 0.3050
H20 H 0.6182 0.3202 0.2810
C19 C 0.4861(4) 0.4206(3) 0.32222(5)
H21 H 0.3406 0.4515 0.3118
C20 C 0.4368(5) 0.2673(3) 0.33992(6)
H22 H 0.3268 0.2913 0.3572
C21 C 0.3174(6) 0.1479(3) 0.31783(7)
H23 H 0.4264 0.1116 0.3021
H24 H 0.1877 0.1962 0.3072
H25 H 0.2634 0.0614 0.3304
C22 C 0.6515(6) 0.1956(3) 0.35574(7)
H26 H 0.6045 0.1130 0.3699
H27 H 0.7320 0.2741 0.3679
H28 H 0.7529 0.1549 0.3395
C23 C 0.8221(7) 0.8334(4) 0.27948(7)
H29 H 0.9378 0.8155 0.2633
H30 H 0.8751 0.9132 0.2939
H31 H 0.6796 0.8659 0.2695
loop_
_geom_bond_atom_site_label_1
_geom_bond_atom_site_label_2
_geom_bond_site_symmetry_1
_geom_bond_site_symmetry_2
P1 O1 1_555 1_555
C1 P1 1_555 1_555
C2 C1 1_555 1_555
H1 C2 1_555 1_555
C3 C2 1_555 1_555
H2 C3 1_555 1_555
C4 C3 1_555 1_555
H3 C4 1_555 1_555
C5 C4 1_555 1_555
H4 C5 1_555 1_555
C6 C1 1_555 1_555
H5 C6 1_555 1_555
C7 P1 1_555 1_555
H6 C7 1_555 1_555
H7 C7 1_555 1_555
C8 C7 1_555 1_555
C9 C8 1_555 1_555
H8 C9 1_555 1_555
C10 C9 1_555 1_555
H9 C10 1_555 1_555
C11 C10 1_555 1_555
H10 C11 1_555 1_555
C12 C11 1_555 1_555
H11 C12 1_555 1_555
C13 C8 1_555 1_555
H12 C13 1_555 1_555
C14 P1 1_555 1_555
H13 C14 1_555 1_555
C15 C14 1_555 1_555
H14 C15 1_555 1_555
H15 C15 1_555 1_555
C16 C15 1_555 1_555
H16 C16 1_555 1_555
C17 C16 1_555 1_555
H17 C17 1_555 1_555
H18 C17 1_555 1_555
C18 C17 1_555 1_555
H19 C18 1_555 1_555
H20 C18 1_555 1_555
C19 C14 1_555 1_555
H21 C19 1_555 1_555
C20 C19 1_555 1_555
H22 C20 1_555 1_555
C21 C20 1_555 1_555
H23 C21 1_555 1_555
H24 C21 1_555 1_555
H25 C21 1_555 1_555
C22 C20 1_555 1_555
H26 C22 1_555 1_555
H27 C22 1_555 1_555
H28 C22 1_555 1_555
C23 C16 1_555 1_555
H29 C23 1_555 1_555
H30 C23 1_555 1_555
H31 C23 1_555 1_555
C5 C6 1_555 1_555
C12 C13 1_555 1_555
C18 C19 1_555 1_555

#END
