
#######################################################################
#
#                 Cambridge Crystallographic Data Centre
#                                CCDC 
#
#######################################################################
#
# If this CIF has been generated from an entry in the Cambridge 
# Structural Database, then it will include bibliographic, chemical, 
# crystal, experimental, refinement or atomic coordinate data resulting 
# from the CCDC's data processing and validation procedures.
#
#######################################################################

data_HEDLEK
_chemical_formula_moiety         'C25 H36 O6'
_chemical_name_systematic        
'(7,7-dimethyl-1-oxodecahydronaphtho[1,8a-c]furan-4-yl)methyl 4,7,7-trimethyl-3-oxo-2-oxabicyclo[2.2.1]heptane-1-carboxylate'
_symmetry_cell_setting           monoclinic
_symmetry_space_group_name_H-M   'P 21'
_symmetry_Int_Tables_number      4
_space_group_name_Hall           'P 2yb'
loop_
_symmetry_equiv_pos_site_id
_symmetry_equiv_pos_as_xyz
1 x,y,z
2 -x,1/2+y,-z
_cell_length_a                   6.1751(6)
_cell_length_b                   13.4968(11)
_cell_length_c                   13.5761(7)
_cell_angle_alpha                90
_cell_angle_beta                 90.834(7)
_cell_angle_gamma                90
_cell_volume                     1131.37
_cell_formula_units_Z            2
loop_
_atom_site_label
_atom_site_type_symbol
_atom_site_fract_x
_atom_site_fract_y
_atom_site_fract_z
O1 O 0.3632(7) 1.2896(4) 0.0628(3)
O2 O 0.6500(7) 1.3010(4) 0.1640(3)
O3 O 0.8717(6) 0.9662(3) 0.2836(2)
O4 O 1.2044(7) 0.9161(4) 0.3291(3)
O5 O 1.0398(6) 0.7709(3) 0.4436(2)
O6 O 1.0403(8) 0.6740(4) 0.5773(3)
C1 C 0.5477(11) 1.2692(5) 0.0795(4)
C2 C 0.7105(10) 1.2109(4) 0.0187(4)
C3 C 0.8197(10) 1.2924(5) -0.0447(4)
H1 H 0.7062 1.3361 -0.0732
H2 H 0.9147 1.3334 -0.0018
C4 C 0.9524(10) 1.2494(5) -0.1273(4)
H3 H 1.0705 1.2079 -0.0997
H4 H 1.0180 1.3036 -0.1660
C5 C 0.8062(11) 1.1874(5) -0.1932(4)
H5 H 0.8904 1.1636 -0.2501
H6 H 0.6873 1.2296 -0.2192
C6 C 0.7088(11) 1.0984(5) -0.1408(4)
C7 C 0.5881(11) 1.1332(5) -0.0455(4)
H7 H 0.4553 1.1681 -0.0702
C8 C 0.5052(11) 1.0502(5) 0.0187(4)
H8 H 0.4483 0.9970 -0.0246
H9 H 0.3823 1.0758 0.0573
C9 C 0.6705(11) 1.0050(5) 0.0900(4)
H10 H 0.5974 0.9552 0.1315
H11 H 0.7831 0.9703 0.0519
C10 C 0.7784(10) 1.0821(5) 0.1562(4)
H12 H 0.6670 1.1063 0.2032
C11 C 0.8670(10) 1.1738(4) 0.1005(4)
H13 H 1.0147 1.1609 0.0742
C12 C 0.8685(11) 1.2607(5) 0.1710(4)
H14 H 0.9024 1.2386 0.2390
H15 H 0.9767 1.3108 0.1512
C13 C 0.5435(12) 1.0516(6) -0.2104(4)
H16 H 0.4783 0.9939 -0.1787
H17 H 0.6152 1.0307 -0.2709
H18 H 0.4302 1.1000 -0.2267
C14 C 0.8897(11) 1.0223(5) -0.1209(5)
H19 H 0.8299 0.9650 -0.0863
H20 H 1.0038 1.0528 -0.0802
H21 H 0.9505 1.0007 -0.1836
C15 C 0.9634(10) 1.0373(5) 0.2170(4)
H22 H 1.0683 1.0045 0.1733
H23 H 1.0402 1.0899 0.2546
C16 C 1.0127(10) 0.9130(5) 0.3361(4)
C17 C 0.8908(9) 0.8465(5) 0.4060(4)
C18 C 0.6961(9) 0.7899(5) 0.3634(4)
H24 H 0.7421 0.7365 0.3183
H25 H 0.5947 0.8348 0.3280
C19 C 0.5938(10) 0.7474(5) 0.4581(4)
H26 H 0.4421 0.7699 0.4648
H27 H 0.5970 0.6741 0.4579
C20 C 0.7396(9) 0.7898(6) 0.5417(4)
C21 C 0.9510(11) 0.7365(5) 0.5290(4)
C22 C 0.8032(10) 0.8935(5) 0.5022(4)
C23 C 0.6167(10) 0.9651(5) 0.4880(4)
H28 H 0.5730 0.9910 0.5522
H29 H 0.4940 0.9307 0.4568
H30 H 0.6621 1.0201 0.4459
C24 C 0.9826(11) 0.9435(5) 0.5628(4)
H31 H 0.9212 0.9719 0.6227
H32 H 1.0485 0.9963 0.5238
H33 H 1.0932 0.8944 0.5809
C25 C 0.6469(11) 0.7815(7) 0.6445(4)
H34 H 0.7488 0.8106 0.6924
H35 H 0.6235 0.7116 0.6606
H36 H 0.5087 0.8171 0.6468
loop_
_geom_bond_atom_site_label_1
_geom_bond_atom_site_label_2
_geom_bond_site_symmetry_1
_geom_bond_site_symmetry_2
O1 C1 1_555 1_555
O2 C1 1_555 1_555
O3 C15 1_555 1_555
O4 C16 1_555 1_555
O5 C17 1_555 1_555
O6 C21 1_555 1_555
C1 C2 1_555 1_555
C2 C3 1_555 1_555
C3 H1 1_555 1_555
H2 C3 1_555 1_555
C4 C3 1_555 1_555
H3 C4 1_555 1_555
H4 C4 1_555 1_555
C5 C4 1_555 1_555
H5 C5 1_555 1_555
H6 C5 1_555 1_555
C6 C5 1_555 1_555
C7 C2 1_555 1_555
H7 C7 1_555 1_555
C8 C7 1_555 1_555
H8 C8 1_555 1_555
H9 C8 1_555 1_555
C9 C8 1_555 1_555
H10 C9 1_555 1_555
H11 C9 1_555 1_555
C10 C9 1_555 1_555
H12 C10 1_555 1_555
C11 C2 1_555 1_555
H13 C11 1_555 1_555
C12 O2 1_555 1_555
H14 C12 1_555 1_555
H15 C12 1_555 1_555
C13 C6 1_555 1_555
H16 C13 1_555 1_555
H17 C13 1_555 1_555
H18 C13 1_555 1_555
C14 C6 1_555 1_555
H19 C14 1_555 1_555
H20 C14 1_555 1_555
H21 C14 1_555 1_555
C15 C10 1_555 1_555
H22 C15 1_555 1_555
H23 C15 1_555 1_555
C16 O3 1_555 1_555
C17 C16 1_555 1_555
C18 C17 1_555 1_555
H24 C18 1_555 1_555
H25 C18 1_555 1_555
C19 C18 1_555 1_555
H26 C19 1_555 1_555
H27 C19 1_555 1_555
C20 C19 1_555 1_555
C21 O5 1_555 1_555
C22 C17 1_555 1_555
C23 C22 1_555 1_555
H28 C23 1_555 1_555
H29 C23 1_555 1_555
H30 C23 1_555 1_555
C24 C22 1_555 1_555
H31 C24 1_555 1_555
H32 C24 1_555 1_555
H33 C24 1_555 1_555
C25 C20 1_555 1_555
H34 C25 1_555 1_555
H35 C25 1_555 1_555
H36 C25 1_555 1_555
C6 C7 1_555 1_555
C10 C11 1_555 1_555
C11 C12 1_555 1_555
C20 C21 1_555 1_555
C20 C22 1_555 1_555

#END
