
#######################################################################
#
#                 Cambridge Crystallographic Data Centre
#                                CCDC 
#
#######################################################################
#
# If this CIF has been generated from an entry in the Cambridge 
# Structural Database, then it will include bibliographic, chemical, 
# crystal, experimental, refinement or atomic coordinate data resulting 
# from the CCDC's data processing and validation procedures.
#
#######################################################################

data_HEDMOV
_chemical_formula_moiety         'C30 H33 F3 O4 S1'
_chemical_name_systematic        
3-[(3-{[4-(trifluoromethyl)phenyl]sulfonyl}cyclopentyl)oxy]estra-1(10),2,4-trien-17-one
_symmetry_cell_setting           orthorhombic
_symmetry_space_group_name_H-M   'P 21 21 21'
_symmetry_Int_Tables_number      19
_space_group_name_Hall           'P 2ac 2ab'
loop_
_symmetry_equiv_pos_site_id
_symmetry_equiv_pos_as_xyz
1 x,y,z
2 1/2-x,-y,1/2+z
3 -x,1/2+y,1/2-z
4 1/2+x,1/2-y,-z
_cell_length_a                   6.6458(2)
_cell_length_b                   8.1522(3)
_cell_length_c                   48.2280(15)
_cell_angle_alpha                90
_cell_angle_beta                 90
_cell_angle_gamma                90
_cell_volume                     2612.89
_exptl_crystal_colour            colorless
_exptl_crystal_description       Block
_cell_formula_units_Z            4
loop_
_atom_site_label
_atom_site_type_symbol
_atom_site_fract_x
_atom_site_fract_y
_atom_site_fract_z
S1 S 0.3018(3) 0.6525(2) 0.43059(4)
F1 F -0.4988(7) 1.0818(7) 0.47253(17)
F2 F -0.2961(10) 1.2776(5) 0.46730(9)
F3 F -0.2934(14) 1.1506(9) 0.50505(10)
O1 O 0.2405(3) 0.2980(3) 0.36957(4)
O2 O 1.5169(3) -0.4065(3) 0.29324(4)
O3 O 0.3654(6) 0.7065(5) 0.40353(6)
O4 O 0.4507(8) 0.6176(6) 0.45143(8)
C1 C 0.1343(5) 0.4764(4) 0.42867(7)
H1 H 0.0629 0.4585 0.4467
C2 C 0.2518(5) 0.3229(4) 0.41991(6)
H2 H 0.3921 0.3514 0.4150
H3 H 0.2537 0.2409 0.4351
C3 C 0.1390(5) 0.2557(5) 0.39458(6)
H4 H 0.1206 0.1343 0.3960
C4 C -0.0617(5) 0.3429(6) 0.39459(8)
H5 H -0.1194 0.3460 0.3757
H6 H -0.1579 0.2869 0.4071
C5 C 0.4111(4) 0.2107(4) 0.36232(5)
C6 C 0.4678(5) 0.0636(4) 0.37412(6)
H7 H 0.3922 0.0177 0.3889
C7 C 0.6376(4) -0.0164(4) 0.36398(5)
H8 H 0.6755 -0.1182 0.3720
C8 C 0.7538(4) 0.0469(3) 0.34257(5)
C9 C 0.6936(4) 0.1977(3) 0.33088(5)
C10 C 0.5217(4) 0.2767(4) 0.34081(5)
H9 H 0.4803 0.3773 0.3327
C11 C 0.9497(4) -0.0358(3) 0.33361(5)
H10 H 1.0540 -0.0007 0.3473
C12 C 1.0221(4) 0.0273(3) 0.30507(5)
H11 H 0.9252 -0.0114 0.2906
C13 C 1.0240(4) 0.2135(3) 0.30483(5)
H12 H 1.0845 0.2533 0.2873
H13 H 1.1067 0.2547 0.3204
C14 C 0.8094(4) 0.2782(3) 0.30748(5)
H14 H 0.8139 0.3981 0.3107
H15 H 0.7372 0.2590 0.2898
C15 C 0.9447(4) -0.2242(3) 0.33475(6)
H16 H 0.8380 -0.2645 0.3221
H17 H 0.9094 -0.2591 0.3538
C16 C 1.1469(4) -0.3036(3) 0.32648(5)
H18 H 1.2502 -0.2777 0.3406
H19 H 1.1315 -0.4243 0.3256
C17 C 1.2143(4) -0.2392(3) 0.29827(5)
C18 C 1.2259(4) -0.0507(3) 0.29934(5)
H20 H 1.3135 -0.0228 0.3155
C19 C 1.3442(4) -0.0026(4) 0.27335(6)
H21 H 1.4031 0.1084 0.2752
H22 H 1.2582 -0.0063 0.2566
C20 C 1.5080(4) -0.1348(4) 0.27240(6)
H23 H 1.5360 -0.1673 0.2530
H24 H 1.6341 -0.0936 0.2808
C21 C 1.4269(4) -0.2802(4) 0.28882(6)
C22 C 1.0789(4) -0.3067(4) 0.27490(5)
H25 H 0.9378 -0.2822 0.2791
H26 H 1.0969 -0.4257 0.2735
H27 H 1.1159 -0.2550 0.2573
C23 C 0.1203(6) 0.8029(4) 0.44425(6)
C24 C -0.0217(8) 0.8734(5) 0.42738(7)
H28 H -0.0219 0.8511 0.4080
C25 C -0.1649(7) 0.9773(4) 0.43873(7)
H29 H -0.2659 1.0243 0.4273
C26 C -0.1599(5) 1.0123(4) 0.46693(6)
C27 C -0.0111(5) 0.9449(4) 0.48351(6)
H30 H -0.0046 0.9722 0.5026
C28 C 0.1280(5) 0.8379(4) 0.47225(6)
H31 H 0.2279 0.7890 0.4837
C29 C -0.3139(6) 1.1222(5) 0.47902(8)
C30 C -0.0200(7) 0.5040(6) 0.40421(8)
H32 H -0.1439 0.5583 0.4110
H33 H 0.0403 0.5718 0.3893
S2? S 0.2368(9) 0.6626(9) 0.42771(15)
F4? F -0.4517(12) 1.0178(9) 0.49476(15)
F5? F -0.4313(16) 1.1890(18) 0.46255(16)
F6? F -0.262(3) 1.2119(17) 0.4997(4)
O5? O 0.2356(19) 0.6940(14) 0.39864(19)
O6? O 0.429(3) 0.656(2) 0.4431(3)
H34? H 0.1296 0.4588 0.4492
H35? H -0.1711 0.2609 0.3931
H36? H -0.0697 0.4161 0.3783
C31? C -0.092(2) 0.4453(18) 0.4213(2)
H37? H -0.1624 0.3823 0.4360
H38? H -0.1655 0.5488 0.4177
loop_
_geom_bond_atom_site_label_1
_geom_bond_atom_site_label_2
_geom_bond_site_symmetry_1
_geom_bond_site_symmetry_2
S1 O3 1_555 1_555
F1 C29 1_555 1_555
F2 C29 1_555 1_555
F3 C29 1_555 1_555
O1 C3 1_555 1_555
O2 C21 1_555 1_555
O4 S1 1_555 1_555
C1 S1 1_555 1_555
H1 C1 1_555 1_555
C2 C1 1_555 1_555
H2 C2 1_555 1_555
H3 C2 1_555 1_555
C3 C2 1_555 1_555
H4 C3 1_555 1_555
C4 C3 1_555 1_555
H5 C4 1_555 1_555
H6 C4 1_555 1_555
C5 O1 1_555 1_555
C6 C5 1_555 1_555
H7 C6 1_555 1_555
C7 C6 1_555 1_555
H8 C7 1_555 1_555
C8 C7 1_555 1_555
C9 C8 1_555 1_555
C10 C5 1_555 1_555
H9 C10 1_555 1_555
C11 C8 1_555 1_555
H10 C11 1_555 1_555
C12 C11 1_555 1_555
H11 C12 1_555 1_555
C13 C12 1_555 1_555
H12 C13 1_555 1_555
H13 C13 1_555 1_555
C14 C9 1_555 1_555
H14 C14 1_555 1_555
H15 C14 1_555 1_555
C15 C11 1_555 1_555
H16 C15 1_555 1_555
H17 C15 1_555 1_555
C16 C15 1_555 1_555
H18 C16 1_555 1_555
H19 C16 1_555 1_555
C17 C16 1_555 1_555
C18 C12 1_555 1_555
H20 C18 1_555 1_555
C19 C18 1_555 1_555
H21 C19 1_555 1_555
H22 C19 1_555 1_555
C20 C19 1_555 1_555
H23 C20 1_555 1_555
H24 C20 1_555 1_555
C21 C17 1_555 1_555
C22 C17 1_555 1_555
H25 C22 1_555 1_555
H26 C22 1_555 1_555
H27 C22 1_555 1_555
C23 S1 1_555 1_555
C24 C23 1_555 1_555
H28 C24 1_555 1_555
C25 C24 1_555 1_555
H29 C25 1_555 1_555
C26 C25 1_555 1_555
C27 C26 1_555 1_555
H30 C27 1_555 1_555
C28 C23 1_555 1_555
H31 C28 1_555 1_555
C29 C26 1_555 1_555
C30 C1 1_555 1_555
H32 C30 1_555 1_555
H33 C30 1_555 1_555
C4 C30 1_555 1_555
C9 C10 1_555 1_555
C13 C14 1_555 1_555
C17 C18 1_555 1_555
C20 C21 1_555 1_555
C27 C28 1_555 1_555

#END
