
#######################################################################
#
#                 Cambridge Crystallographic Data Centre
#                                CCDC 
#
#######################################################################
#
# If this CIF has been generated from an entry in the Cambridge 
# Structural Database, then it will include bibliographic, chemical, 
# crystal, experimental, refinement or atomic coordinate data resulting 
# from the CCDC's data processing and validation procedures.
#
#######################################################################

data_HEDMUB
_chemical_formula_moiety         'C18 H18 F2 O3 S2'
_chemical_name_systematic        
1,3-difluoro-5-({3-[(4-methoxyphenyl)sulfanyl]cyclopentyl}sulfonyl)benzene
_symmetry_cell_setting           monoclinic
_symmetry_space_group_name_H-M   'P 21'
_symmetry_Int_Tables_number      4
_space_group_name_Hall           'P 2yb'
loop_
_symmetry_equiv_pos_site_id
_symmetry_equiv_pos_as_xyz
1 x,y,z
2 -x,1/2+y,-z
_cell_length_a                   7.8306(11)
_cell_length_b                   5.4318(7)
_cell_length_c                   20.139(3)
_cell_angle_alpha                90
_cell_angle_beta                 98.442(6)
_cell_angle_gamma                90
_cell_volume                     847.316
_exptl_crystal_colour            colorless
_exptl_crystal_description       needle
_cell_formula_units_Z            2
loop_
_atom_site_label
_atom_site_type_symbol
_atom_site_fract_x
_atom_site_fract_y
_atom_site_fract_z
S1 S 0.03012(6) 0.41946(10) 0.21524(3)
S2 S 0.58183(7) 0.07590(9) 0.29492(3)
F1 F -0.3857(2) 1.0175(3) 0.08178(9)
F2 F -0.1709(3) 0.3756(4) -0.03549(9)
O1 O 0.8132(2) 0.2251(3) 0.58512(8)
O2 O -0.0658(2) 0.4805(4) 0.26833(9)
O3 O 0.0664(2) 0.1656(3) 0.20257(10)
C1 C -0.2805(3) 0.7003(5) 0.02187(13)
H1 H -0.3466 0.7577 -0.0185
C2 C -0.2832(3) 0.8176(5) 0.08182(13)
C3 C -0.1888(3) 0.7436(4) 0.14151(12)
H2 H -0.1926 0.8309 0.1821
C4 C -0.0879(3) 0.5348(4) 0.13933(12)
C5 C 0.2283(3) 0.5863(4) 0.22890(11)
H3 H 0.2059 0.7625 0.2391
C6 C 0.3432(3) 0.4656(4) 0.28940(11)
H4 H 0.3758 0.5875 0.3256
H5 H 0.2815 0.3276 0.3076
C7 C 0.5038(3) 0.3717(4) 0.26162(11)
H6 H 0.5984 0.4962 0.2708
C8 C 0.6464(3) 0.1420(4) 0.38123(12)
C9 C 0.7534(3) 0.3385(4) 0.40301(12)
H7 H 0.7880 0.4497 0.3711
C10 C 0.8105(3) 0.3742(4) 0.47089(12)
H8 H 0.8821 0.5109 0.4853
C11 C 0.7628(3) 0.2096(5) 0.51760(12)
C12 C 0.9257(3) 0.4221(5) 0.60891(12)
H9 H 1.0329 0.4087 0.5895
H10 H 0.9521 0.4139 0.6580
H11 H 0.8695 0.5795 0.5957
C13 C 0.4496(3) 0.3484(4) 0.18579(11)
H12 H 0.5507 0.3574 0.1616
H13 H 0.3872 0.1921 0.1742
C14 C 0.3309(3) 0.5699(5) 0.16967(11)
H14 H 0.2526 0.5446 0.1269
H15 H 0.3989 0.7218 0.1661
C15 C -0.1771(3) 0.4946(5) 0.02298(13)
C16 C -0.0799(3) 0.4076(5) 0.08048(13)
H16 H -0.0098 0.2652 0.0798
C17 C 0.5963(3) -0.0189(4) 0.42850(12)
H17 H 0.5206 -0.1515 0.4142
C18 C 0.6557(3) 0.0123(4) 0.49622(13)
H18 H 0.6232 -0.1012 0.5280
loop_
_geom_bond_atom_site_label_1
_geom_bond_atom_site_label_2
_geom_bond_site_symmetry_1
_geom_bond_site_symmetry_2
S1 O2 1_555 1_555
S2 C7 1_555 1_555
F1 C2 1_555 1_555
F2 C15 1_555 1_555
O1 C11 1_555 1_555
O3 S1 1_555 1_555
C1 H1 1_555 1_555
C2 C1 1_555 1_555
C3 C2 1_555 1_555
H2 C3 1_555 1_555
C4 S1 1_555 1_555
C5 S1 1_555 1_555
H3 C5 1_555 1_555
C6 C5 1_555 1_555
H4 C6 1_555 1_555
H5 C6 1_555 1_555
C7 C6 1_555 1_555
H6 C7 1_555 1_555
C8 S2 1_555 1_555
C9 C8 1_555 1_555
H7 C9 1_555 1_555
C10 C9 1_555 1_555
H8 C10 1_555 1_555
C11 C10 1_555 1_555
C12 O1 1_555 1_555
H9 C12 1_555 1_555
H10 C12 1_555 1_555
H11 C12 1_555 1_555
C13 C7 1_555 1_555
H12 C13 1_555 1_555
H13 C13 1_555 1_555
C14 C5 1_555 1_555
H14 C14 1_555 1_555
H15 C14 1_555 1_555
C15 C1 1_555 1_555
C16 C4 1_555 1_555
H16 C16 1_555 1_555
C17 C8 1_555 1_555
H17 C17 1_555 1_555
C18 C11 1_555 1_555
H18 C18 1_555 1_555
C3 C4 1_555 1_555
C13 C14 1_555 1_555
C15 C16 1_555 1_555
C17 C18 1_555 1_555

#END
