
#######################################################################
#
#                 Cambridge Crystallographic Data Centre
#                                CCDC 
#
#######################################################################
#
# If this CIF has been generated from an entry in the Cambridge 
# Structural Database, then it will include bibliographic, chemical, 
# crystal, experimental, refinement or atomic coordinate data resulting 
# from the CCDC's data processing and validation procedures.
#
#######################################################################

data_HEDMOT
_chemical_formula_moiety         'C12 H13 N1 O3'
_chemical_name_systematic        (E)-6-Phenyl-5-nitrohex-5-en-2-one
_chemical_properties_biological  
'inhibitor of human cervical cancer (HeLa) cell proliferation'
_symmetry_cell_setting           triclinic
_symmetry_space_group_name_H-M   'P -1'
_symmetry_Int_Tables_number      2
_space_group_name_Hall           '-P 1'
loop_
_symmetry_equiv_pos_site_id
_symmetry_equiv_pos_as_xyz
1 x,y,z
2 -x,-y,-z
_cell_length_a                   7.2530(10)
_cell_length_b                   7.9810(7)
_cell_length_c                   10.7050(9)
_cell_angle_alpha                106.198(7)
_cell_angle_beta                 104.883(9)
_cell_angle_gamma                97.193(9)
_cell_volume                     562.023
_exptl_crystal_colour            yellow
_exptl_crystal_description       block
_chemical_melting_point          '76-77 deg.C'
_cell_formula_units_Z            2
loop_
_atom_site_label
_atom_site_type_symbol
_atom_site_fract_x
_atom_site_fract_y
_atom_site_fract_z
O1 O 0.0711(3) 0.5555(3) 0.69263(19)
O2 O 0.2757(3) 0.6116(3) 0.89119(19)
O3 O 0.8410(3) 0.9954(2) 1.10224(17)
N1 N 0.2341(3) 0.6173(3) 0.7740(2)
C1 C 1.0206(3) 0.7704(3) 1.1117(2)
H1 H 1.0957 0.8536 1.1997
H2 H 1.1026 0.7499 1.0538
H3 H 0.9698 0.6598 1.1220
C2 C 0.8570(3) 0.8445(3) 1.0496(2)
C3 C 0.7101(3) 0.7230(3) 0.9179(2)
H4 H 0.6417 0.6238 0.9355
H5 H 0.7785 0.6747 0.8538
C4 C 0.5615(3) 0.8175(3) 0.8532(2)
H6 H 0.5104 0.8824 0.9232
H7 H 0.6295 0.9049 0.8242
C5 C 0.3933(3) 0.7027(3) 0.7344(2)
C6 C 0.3606(3) 0.6707(3) 0.6010(2)
H8 H 0.2378 0.6032 0.5457
C7 C 0.4903(3) 0.7266(3) 0.5292(2)
C8 C 0.6936(3) 0.7691(3) 0.5810(2)
H9 H 0.7542 0.7643 0.6674
C9 C 0.8053(3) 0.8178(3) 0.5056(3)
H10 H 0.9407 0.8455 0.5414
C10 C 0.7183(4) 0.8259(3) 0.3778(3)
H11 H 0.7943 0.8617 0.3281
C11 C 0.5192(4) 0.7812(3) 0.3241(2)
H12 H 0.4599 0.7847 0.2371
C12 C 0.4069(3) 0.7312(3) 0.3986(2)
H13 H 0.2718 0.6998 0.3605
loop_
_geom_bond_atom_site_label_1
_geom_bond_atom_site_label_2
_geom_bond_site_symmetry_1
_geom_bond_site_symmetry_2
O1 N1 1_555 1_555
O2 N1 1_555 1_555
O3 C2 1_555 1_555
N1 C5 1_555 1_555
C1 H1 1_555 1_555
H2 C1 1_555 1_555
H3 C1 1_555 1_555
C2 C1 1_555 1_555
C3 C2 1_555 1_555
H4 C3 1_555 1_555
H5 C3 1_555 1_555
C4 C3 1_555 1_555
H6 C4 1_555 1_555
H7 C4 1_555 1_555
C5 C4 1_555 1_555
C6 C5 1_555 1_555
H8 C6 1_555 1_555
C7 C6 1_555 1_555
C8 C7 1_555 1_555
H9 C8 1_555 1_555
C9 C8 1_555 1_555
H10 C9 1_555 1_555
C10 C9 1_555 1_555
H11 C10 1_555 1_555
C11 C10 1_555 1_555
H12 C11 1_555 1_555
C12 C7 1_555 1_555
H13 C12 1_555 1_555
C11 C12 1_555 1_555

#END
