
#######################################################################
#
#                 Cambridge Crystallographic Data Centre
#                                CCDC 
#
#######################################################################
#
# If this CIF has been generated from an entry in the Cambridge 
# Structural Database, then it will include bibliographic, chemical, 
# crystal, experimental, refinement or atomic coordinate data resulting 
# from the CCDC's data processing and validation procedures.
#
#######################################################################

data_HEDPUE
_chemical_formula_moiety         'C20 H21 F2 N1 O2 S1'
_chemical_name_systematic        
2-{3-[(3,5-difluorophenyl)sulfonyl]cyclopentyl}-1,2,3,4-tetrahydroisoquinoline
_symmetry_cell_setting           monoclinic
_symmetry_space_group_name_H-M   'C 2'
_symmetry_Int_Tables_number      5
_space_group_name_Hall           'C 2y'
loop_
_symmetry_equiv_pos_site_id
_symmetry_equiv_pos_as_xyz
1 x,y,z
2 -x,y,-z
3 1/2+x,1/2+y,z
4 1/2-x,1/2+y,-z
_cell_length_a                   63.0115(19)
_cell_length_b                   6.0061(2)
_cell_length_c                   9.4791(3)
_cell_angle_alpha                90
_cell_angle_beta                 98.1860(10)
_cell_angle_gamma                90
_cell_volume                     3550.85
_exptl_crystal_colour            colorless
_exptl_crystal_description       Block
_cell_formula_units_Z            8
loop_
_atom_site_label
_atom_site_type_symbol
_atom_site_fract_x
_atom_site_fract_y
_atom_site_fract_z
S1 S 0.33630(2) 0.47933(13) 0.26500(7)
F1 F 0.27701(4) 1.0506(4) 0.2745(3)
F2 F 0.27589(3) 0.4182(5) 0.5624(2)
O1 O 0.33910(4) 0.5965(4) 0.1363(2)
O2 O 0.33468(4) 0.2418(4) 0.2587(2)
N1 N 0.41160(4) 0.5858(5) 0.2901(3)
C1 C 0.35758(5) 0.5552(6) 0.4029(3)
H1 H 0.3538 0.5135 0.4983
C2 C 0.37852(5) 0.4428(6) 0.3793(3)
H2 H 0.3758 0.2909 0.3404
H3 H 0.3884 0.4325 0.4700
C3 C 0.38803(5) 0.5907(6) 0.2724(3)
H4 H 0.3822 0.5429 0.1734
C4 C 0.37966(5) 0.8272(5) 0.2990(3)
H5 H 0.3916 0.9224 0.3441
H6 H 0.3734 0.8965 0.2077
C5 C 0.36241(5) 0.8034(6) 0.3983(3)
H7 H 0.3678 0.8597 0.4949
H8 H 0.3493 0.8877 0.3603
C6 C 0.41881(5) 0.7189(6) 0.1771(3)
H9 H 0.4148 0.8762 0.1899
H10 H 0.4112 0.6680 0.0842
C7 C 0.44255(5) 0.7068(6) 0.1731(4)
C8 C 0.45490(5) 0.5389(6) 0.2437(4)
C9 C 0.44446(5) 0.3664(6) 0.3278(4)
H11 H 0.4477 0.4009 0.4307
H12 H 0.4505 0.2178 0.3119
C10 C 0.42022(5) 0.3606(6) 0.2843(4)
H13 H 0.4168 0.3008 0.1863
H14 H 0.4136 0.2620 0.3495
C11 C 0.45204(6) 0.8612(7) 0.0926(4)
H15 H 0.4434 0.9731 0.0418
C12 C 0.47366(7) 0.8547(7) 0.0851(5)
H16 H 0.4800 0.9620 0.0301
C13 C 0.48623(7) 0.6902(8) 0.1583(6)
H17 H 0.5012 0.6859 0.1550
C14 C 0.47684(6) 0.5329(7) 0.2361(5)
H18 H 0.4854 0.4193 0.2850
C15 C 0.31287(5) 0.5837(6) 0.3256(3)
C16 C 0.30451(5) 0.7860(6) 0.2753(3)
H19 H 0.3112 0.8722 0.2099
C17 C 0.28600(6) 0.8574(6) 0.3246(4)
C18 C 0.27617(6) 0.7381(7) 0.4214(4)
H20 H 0.2635 0.7910 0.4544
C19 C 0.28542(5) 0.5395(7) 0.4679(4)
C20 C 0.30368(5) 0.4556(7) 0.4233(3)
H21 H 0.3097 0.3173 0.4573
S2 S 0.33156(2) 0.80637(14) 0.72902(7)
F3 F 0.26036(4) 1.1417(4) 0.8140(2)
F4 F 0.27981(3) 0.4507(4) 1.0241(2)
O3 O 0.32948(4) 0.9678(5) 0.6159(2)
O4 O 0.33621(4) 0.5795(4) 0.6972(2)
N2 N 0.40444(4) 1.1332(5) 0.8072(3)
C21 C 0.35164(5) 0.8938(6) 0.8709(3)
H22 H 0.3512 0.7960 0.9558
C22 C 0.37396(5) 0.8769(6) 0.8211(3)
H23 H 0.3843 0.8007 0.8939
H24 H 0.3730 0.7926 0.7307
C23 C 0.38108(5) 1.1161(6) 0.8000(3)
H25 H 0.3740 1.1725 0.7056
C24 C 0.37175(5) 1.2376(6) 0.9205(3)
H26 H 0.3804 1.2082 1.0141
H27 H 0.3711 1.4003 0.9036
C25 C 0.34927(5) 1.1388(6) 0.9136(4)
H28 H 0.3390 1.2176 0.8418
H29 H 0.3442 1.1494 1.0075
C26 C 0.41126(5) 1.0099(6) 0.6874(3)
H30 H 0.4027 1.0609 0.5977
H31 H 0.4082 0.8497 0.6988
C27 C 0.43473(5) 1.0385(6) 0.6758(3)
C28 C 0.44675(6) 1.2107(6) 0.7458(3)
C29 C 0.43620(5) 1.3727(6) 0.8347(4)
H32 H 0.4410 1.5254 0.8163
H33 H 0.4407 1.3393 0.9368
C30 C 0.41191(5) 1.3624(6) 0.8025(3)
H34 H 0.4056 1.4529 0.8731
H35 H 0.4071 1.4257 0.7067
C31 C 0.44430(5) 0.8900(6) 0.5897(3)
H36 H 0.4360 0.7746 0.5406
C32 C 0.46582(6) 0.9098(7) 0.5754(4)
H37 H 0.4722 0.8088 0.5169
C33 C 0.47789(6) 1.0785(7) 0.6473(4)
H38 H 0.4927 1.0924 0.6390
C34 C 0.46843(6) 1.2265(7) 0.7309(4)
H39 H 0.4769 1.3416 0.7795
C35 C 0.30726(5) 0.8057(6) 0.8050(3)
C36 C 0.29330(5) 0.9842(7) 0.7792(3)
H40 H 0.2965 1.1088 0.7241
C37 C 0.27450(5) 0.9711(7) 0.8380(4)
C38 C 0.26935(5) 0.7973(7) 0.9195(4)
H41 H 0.2563 0.7947 0.9589
C39 C 0.28407(6) 0.6249(7) 0.9421(4)
C40 C 0.30300(5) 0.6232(6) 0.8851(3)
H42 H 0.3127 0.5017 0.9003
loop_
_geom_bond_atom_site_label_1
_geom_bond_atom_site_label_2
_geom_bond_site_symmetry_1
_geom_bond_site_symmetry_2
S1 O1 1_555 1_555
F1 C17 1_555 1_555
F2 C19 1_555 1_555
O2 S1 1_555 1_555
N1 C3 1_555 1_555
C1 S1 1_555 1_555
H1 C1 1_555 1_555
C2 C1 1_555 1_555
H2 C2 1_555 1_555
H3 C2 1_555 1_555
C3 C2 1_555 1_555
H4 C3 1_555 1_555
C4 C3 1_555 1_555
H5 C4 1_555 1_555
H6 C4 1_555 1_555
C5 C1 1_555 1_555
H7 C5 1_555 1_555
H8 C5 1_555 1_555
C6 N1 1_555 1_555
H9 C6 1_555 1_555
H10 C6 1_555 1_555
C7 C6 1_555 1_555
C8 C7 1_555 1_555
C9 C8 1_555 1_555
H11 C9 1_555 1_555
H12 C9 1_555 1_555
C10 N1 1_555 1_555
H13 C10 1_555 1_555
H14 C10 1_555 1_555
C11 C7 1_555 1_555
H15 C11 1_555 1_555
C12 C11 1_555 1_555
H16 C12 1_555 1_555
C13 C12 1_555 1_555
H17 C13 1_555 1_555
C14 C8 1_555 1_555
H18 C14 1_555 1_555
C15 S1 1_555 1_555
C16 C15 1_555 1_555
H19 C16 1_555 1_555
C17 C16 1_555 1_555
C18 C17 1_555 1_555
H20 C18 1_555 1_555
C19 C18 1_555 1_555
C20 C15 1_555 1_555
H21 C20 1_555 1_555
S2 O3 1_555 1_555
F3 C37 1_555 1_555
F4 C39 1_555 1_555
O4 S2 1_555 1_555
N2 C23 1_555 1_555
C21 S2 1_555 1_555
H22 C21 1_555 1_555
C22 C21 1_555 1_555
H23 C22 1_555 1_555
H24 C22 1_555 1_555
C23 C22 1_555 1_555
H25 C23 1_555 1_555
C24 C23 1_555 1_555
H26 C24 1_555 1_555
H27 C24 1_555 1_555
C25 C21 1_555 1_555
H28 C25 1_555 1_555
H29 C25 1_555 1_555
C26 N2 1_555 1_555
H30 C26 1_555 1_555
H31 C26 1_555 1_555
C27 C26 1_555 1_555
C28 C27 1_555 1_555
C29 C28 1_555 1_555
H32 C29 1_555 1_555
H33 C29 1_555 1_555
C30 N2 1_555 1_555
H34 C30 1_555 1_555
H35 C30 1_555 1_555
C31 C27 1_555 1_555
H36 C31 1_555 1_555
C32 C31 1_555 1_555
H37 C32 1_555 1_555
C33 C32 1_555 1_555
H38 C33 1_555 1_555
C34 C28 1_555 1_555
H39 C34 1_555 1_555
C35 S2 1_555 1_555
C36 C35 1_555 1_555
H40 C36 1_555 1_555
C37 C36 1_555 1_555
C38 C37 1_555 1_555
H41 C38 1_555 1_555
C39 C38 1_555 1_555
C40 C35 1_555 1_555
H42 C40 1_555 1_555
C4 C5 1_555 1_555
C9 C10 1_555 1_555
C13 C14 1_555 1_555
C19 C20 1_555 1_555
C24 C25 1_555 1_555
C29 C30 1_555 1_555
C33 C34 1_555 1_555
C39 C40 1_555 1_555

#END
