
#######################################################################
#
#                 Cambridge Crystallographic Data Centre
#                                CCDC 
#
#######################################################################
#
# If this CIF has been generated from an entry in the Cambridge 
# Structural Database, then it will include bibliographic, chemical, 
# crystal, experimental, refinement or atomic coordinate data resulting 
# from the CCDC's data processing and validation procedures.
#
#######################################################################

data_HEDPEO
_chemical_formula_moiety         'C22 H26 F2 N2 O2 S1'
_chemical_name_systematic        
1-benzyl-4-{3-[(3,5-difluorophenyl)sulfonyl]cyclopentyl}piperazine
_symmetry_cell_setting           monoclinic
_symmetry_space_group_name_H-M   'P 21'
_symmetry_Int_Tables_number      4
_space_group_name_Hall           'P 2yb'
loop_
_symmetry_equiv_pos_site_id
_symmetry_equiv_pos_as_xyz
1 x,y,z
2 -x,1/2+y,-z
_cell_length_a                   9.5529(3)
_cell_length_b                   5.9734(2)
_cell_length_c                   35.8785(11)
_cell_angle_alpha                90
_cell_angle_beta                 90.348(2)
_cell_angle_gamma                90
_cell_volume                     2047.31
_exptl_crystal_colour            colorless
_exptl_crystal_description       Needle
_cell_formula_units_Z            4
loop_
_atom_site_label
_atom_site_type_symbol
_atom_site_fract_x
_atom_site_fract_y
_atom_site_fract_z
S1 S 0.12239(12) 0.40501(19) 0.14104(3)
F1 F 0.2158(3) -0.1379(6) 0.03542(8)
F2 F 0.4743(3) 0.5281(7) 0.03856(7)
O1 O 0.0052(3) 0.2550(6) 0.14585(9)
O2 O 0.0943(3) 0.6423(6) 0.13820(9)
N1 N 0.1224(4) 0.2054(6) 0.27362(9)
N2 N 0.0444(4) 0.1957(6) 0.35113(9)
C1 C 0.2436(5) 0.3636(8) 0.17845(12)
H1 H 0.3244 0.4686 0.1757
C2 C 0.1660(5) 0.4147(9) 0.21526(12)
H2 H 0.1874 0.5680 0.2241
H3 H 0.0635 0.3999 0.2119
C3 C 0.2212(5) 0.2402(8) 0.24268(11)
H4 H 0.3145 0.2876 0.2527
C4 C 0.2377(5) 0.0325(8) 0.21806(11)
H5 H 0.1462 -0.0413 0.2137
H6 H 0.3027 -0.0766 0.2297
C5 C 0.2977(5) 0.1238(9) 0.18140(12)
H7 H 0.4013 0.1213 0.1820
H8 H 0.2648 0.0333 0.1599
C6 C 0.1750(5) 0.0335(7) 0.29936(11)
H9 H 0.2647 0.0836 0.3105
H10 H 0.1926 -0.1070 0.2855
C7 C 0.0700(5) -0.0089(7) 0.32974(11)
H11 H -0.0189 -0.0620 0.3185
H12 H 0.1057 -0.1273 0.3466
C8 C 0.0958(5) 0.4103(8) 0.29466(11)
H13 H 0.0585 0.5269 0.2777
H14 H 0.1846 0.4661 0.3056
C9 C -0.0081(4) 0.3663(7) 0.32537(11)
H15 H -0.0257 0.5068 0.3392
H16 H -0.0979 0.3157 0.3143
C10 C -0.0542(5) 0.1494(8) 0.38108(11)
H17 H -0.0299 0.0030 0.3923
H18 H -0.1492 0.1355 0.3701
C11 C -0.0587(5) 0.3244(8) 0.41195(11)
C12 C -0.1616(5) 0.2974(8) 0.43896(12)
H19 H -0.2277 0.1794 0.4366
C13 C -0.1686(5) 0.4402(9) 0.46921(12)
H20 H -0.2388 0.4190 0.4875
C14 C -0.0734(5) 0.6146(9) 0.47292(12)
H21 H -0.0782 0.7138 0.4936
C15 C 0.0290(5) 0.6417(9) 0.44600(12)
H22 H 0.0953 0.7595 0.4485
C16 C 0.0358(5) 0.4993(8) 0.41566(11)
H23 H 0.1056 0.5216 0.3973
C17 C 0.2122(5) 0.3177(9) 0.10043(12)
C18 C 0.1784(5) 0.1138(9) 0.08446(12)
H24 H 0.1105 0.0172 0.0951
C19 C 0.2485(5) 0.0581(9) 0.05229(12)
C20 C 0.3493(5) 0.1922(11) 0.03650(13)
H25 H 0.3973 0.1482 0.0146
C21 C 0.3776(5) 0.3926(11) 0.05391(12)
C22 C 0.3102(5) 0.4626(9) 0.08563(12)
H26 H 0.3299 0.6034 0.0968
S2 S 0.37377(12) 0.0948(2) 0.85688(3)
F3 F 0.0298(3) 0.0167(7) 0.96242(8)
F4 F 0.3014(3) 0.6713(6) 0.95935(8)
O3 O 0.3983(3) -0.1427(6) 0.86180(9)
O4 O 0.4927(3) 0.2349(6) 0.84894(9)
N3 N 0.3303(4) 0.1774(6) 0.72023(9)
N4 N 0.4693(4) 0.1506(6) 0.64938(9)
C23 C 0.2433(5) 0.1241(9) 0.82158(12)
H27 H 0.1575 0.0398 0.8290
C24 C 0.3005(5) 0.0277(9) 0.78471(12)
H28 H 0.3884 -0.0563 0.7892
H29 H 0.2312 -0.0736 0.7729
C25 C 0.3272(5) 0.2319(7) 0.76009(11)
H30 H 0.4187 0.3009 0.7674
C26 C 0.2091(5) 0.3895(9) 0.77104(11)
H31 H 0.1192 0.3420 0.7597
H32 H 0.2297 0.5450 0.7632
C27 C 0.2046(5) 0.3704(9) 0.81359(12)
H33 H 0.1100 0.4054 0.8230
H34 H 0.2730 0.4734 0.8254
C28 C 0.3547(4) 0.3751(7) 0.69743(10)
H35 H 0.4443 0.4454 0.7049
H36 H 0.2788 0.4850 0.7016
C29 C 0.3597(4) 0.3150(7) 0.65641(11)
H37 H 0.2681 0.2533 0.6485
H38 H 0.3779 0.4516 0.6416
C30 C 0.4413(5) 0.0130(8) 0.71271(11)
H39 H 0.4247 -0.1237 0.7276
H40 H 0.5330 0.0761 0.7203
C31 C 0.4445(5) -0.0473(7) 0.67175(11)
H41 H 0.5196 -0.1581 0.6673
H42 H 0.3542 -0.1160 0.6644
C32 C 0.4752(5) 0.0955(8) 0.60959(11)
H43 H 0.3809 0.0503 0.6008
H44 H 0.5392 -0.0330 0.6060
C33 C 0.5255(5) 0.2910(8) 0.58672(11)
C34 C 0.4564(5) 0.3592(8) 0.55449(11)
H45 H 0.3755 0.2803 0.5463
C35 C 0.5042(5) 0.5413(9) 0.53414(12)
H46 H 0.4561 0.5857 0.5121
C36 C 0.6209(5) 0.6580(9) 0.54580(12)
H47 H 0.6535 0.7829 0.5319
C37 C 0.6903(5) 0.5909(9) 0.57795(13)
H48 H 0.7713 0.6695 0.5861
C38 C 0.6424(5) 0.4121(9) 0.59797(12)
H49 H 0.6904 0.3695 0.6201
C39 C 0.2914(5) 0.1982(9) 0.89769(12)
C40 C 0.1910(5) 0.0645(10) 0.91413(12)
H50 H 0.1665 -0.0771 0.9039
C41 C 0.1282(5) 0.1442(10) 0.94572(12)
C42 C 0.1609(5) 0.3475(10) 0.96123(13)
H51 H 0.1150 0.4001 0.9830
C43 C 0.2630(5) 0.4722(10) 0.94406(12)
C44 C 0.3301(5) 0.4041(10) 0.91175(12)
H52 H 0.3989 0.4943 0.9000
loop_
_geom_bond_atom_site_label_1
_geom_bond_atom_site_label_2
_geom_bond_site_symmetry_1
_geom_bond_site_symmetry_2
S1 O1 1_555 1_555
F1 C19 1_555 1_555
F2 C21 1_555 1_555
O2 S1 1_555 1_555
N1 C3 1_555 1_555
N2 C7 1_555 1_555
C1 S1 1_555 1_555
H1 C1 1_555 1_555
C2 C1 1_555 1_555
H2 C2 1_555 1_555
H3 C2 1_555 1_555
C3 C2 1_555 1_555
H4 C3 1_555 1_555
C4 C3 1_555 1_555
H5 C4 1_555 1_555
H6 C4 1_555 1_555
C5 C1 1_555 1_555
H7 C5 1_555 1_555
H8 C5 1_555 1_555
C6 N1 1_555 1_555
H9 C6 1_555 1_555
H10 C6 1_555 1_555
C7 C6 1_555 1_555
H11 C7 1_555 1_555
H12 C7 1_555 1_555
C8 N1 1_555 1_555
H13 C8 1_555 1_555
H14 C8 1_555 1_555
C9 N2 1_555 1_555
H15 C9 1_555 1_555
H16 C9 1_555 1_555
C10 N2 1_555 1_555
H17 C10 1_555 1_555
H18 C10 1_555 1_555
C11 C10 1_555 1_555
C12 C11 1_555 1_555
H19 C12 1_555 1_555
C13 C12 1_555 1_555
H20 C13 1_555 1_555
C14 C13 1_555 1_555
H21 C14 1_555 1_555
C15 C14 1_555 1_555
H22 C15 1_555 1_555
C16 C11 1_555 1_555
H23 C16 1_555 1_555
C17 S1 1_555 1_555
C18 C17 1_555 1_555
H24 C18 1_555 1_555
C19 C18 1_555 1_555
C20 C19 1_555 1_555
H25 C20 1_555 1_555
C21 C20 1_555 1_555
C22 C17 1_555 1_555
H26 C22 1_555 1_555
S2 O3 1_555 1_555
F3 C41 1_555 1_555
F4 C43 1_555 1_555
O4 S2 1_555 1_555
N3 C25 1_555 1_555
N4 C29 1_555 1_555
C23 S2 1_555 1_555
H27 C23 1_555 1_555
C24 C23 1_555 1_555
H28 C24 1_555 1_555
H29 C24 1_555 1_555
C25 C24 1_555 1_555
H30 C25 1_555 1_555
C26 C25 1_555 1_555
H31 C26 1_555 1_555
H32 C26 1_555 1_555
C27 C23 1_555 1_555
H33 C27 1_555 1_555
H34 C27 1_555 1_555
C28 N3 1_555 1_555
H35 C28 1_555 1_555
H36 C28 1_555 1_555
C29 C28 1_555 1_555
H37 C29 1_555 1_555
H38 C29 1_555 1_555
C30 N3 1_555 1_555
H39 C30 1_555 1_555
H40 C30 1_555 1_555
C31 N4 1_555 1_555
H41 C31 1_555 1_555
H42 C31 1_555 1_555
C32 N4 1_555 1_555
H43 C32 1_555 1_555
H44 C32 1_555 1_555
C33 C32 1_555 1_555
C34 C33 1_555 1_555
H45 C34 1_555 1_555
C35 C34 1_555 1_555
H46 C35 1_555 1_555
C36 C35 1_555 1_555
H47 C36 1_555 1_555
C37 C36 1_555 1_555
H48 C37 1_555 1_555
C38 C33 1_555 1_555
H49 C38 1_555 1_555
C39 S2 1_555 1_555
C40 C39 1_555 1_555
H50 C40 1_555 1_555
C41 C40 1_555 1_555
C42 C41 1_555 1_555
H51 C42 1_555 1_555
C43 C42 1_555 1_555
C44 C39 1_555 1_555
H52 C44 1_555 1_555
C4 C5 1_555 1_555
C8 C9 1_555 1_555
C15 C16 1_555 1_555
C21 C22 1_555 1_555
C26 C27 1_555 1_555
C30 C31 1_555 1_555
C37 C38 1_555 1_555
C43 C44 1_555 1_555

#END
