
#######################################################################
#
#                 Cambridge Crystallographic Data Centre
#                                CCDC 
#
#######################################################################
#
# If this CIF has been generated from an entry in the Cambridge 
# Structural Database, then it will include bibliographic, chemical, 
# crystal, experimental, refinement or atomic coordinate data resulting 
# from the CCDC's data processing and validation procedures.
#
#######################################################################

data_HEDPOY
_chemical_formula_moiety         'C22 H26 F2 N2 O2 S1'
_chemical_name_systematic        
1-benzyl-4-{3-[(3,5-difluorophenyl)sulfonyl]cyclopentyl}piperazine
_symmetry_cell_setting           monoclinic
_symmetry_space_group_name_H-M   'P 21'
_symmetry_Int_Tables_number      4
_space_group_name_Hall           'P 2yb'
loop_
_symmetry_equiv_pos_site_id
_symmetry_equiv_pos_as_xyz
1 x,y,z
2 -x,1/2+y,-z
_cell_length_a                   9.5438(2)
_cell_length_b                   5.9781(1)
_cell_length_c                   35.8879(7)
_cell_angle_alpha                90
_cell_angle_beta                 90.349(1)
_cell_angle_gamma                90
_cell_volume                     2047.5
_exptl_crystal_colour            colorless
_exptl_crystal_description       Needle
_cell_formula_units_Z            4
loop_
_atom_site_label
_atom_site_type_symbol
_atom_site_fract_x
_atom_site_fract_y
_atom_site_fract_z
S1 S 0.12226(6) 0.09488(10) 0.141140(16)
F1 F 0.47437(16) -0.0310(3) 0.03865(4)
F2 F 0.21630(19) 0.6356(3) 0.03532(4)
O1 O 0.09456(18) -0.1419(3) 0.13859(5)
O2 O 0.00506(18) 0.2449(3) 0.14573(5)
N1 N 0.1223(2) 0.2980(3) 0.27354(5)
N2 N 0.0440(2) 0.3066(3) 0.35101(5)
C1 C 0.2435(3) 0.1372(4) 0.17839(6)
H1 H 0.3245(3) 0.0326(4) 0.17555(6)
C2 C 0.2977(3) 0.3778(4) 0.18148(7)
H2 H 0.4014(3) 0.3803(4) 0.18221(7)
H3 H 0.2651(3) 0.4684(4) 0.16001(7)
C3 C 0.2374(2) 0.4686(4) 0.21790(6)
H4 H 0.3024(2) 0.5774(4) 0.22954(6)
H5 H 0.1461(2) 0.5426(4) 0.21343(6)
C4 C 0.2198(2) 0.2621(4) 0.24269(6)
H6 H 0.3132(2) 0.2156(4) 0.25281(6)
C5 C 0.1663(3) 0.0853(5) 0.21524(7)
H7 H 0.0636(3) 0.0974(5) 0.21183(7)
H8 H 0.1891(3) -0.0672(5) 0.22416(7)
C6 C 0.0954(2) 0.0923(4) 0.29462(6)
H9 H 0.0582(2) -0.0244(4) 0.27765(6)
H10 H 0.1840(2) 0.0366(4) 0.30567(6)
C7 C -0.0100(2) 0.1376(4) 0.32540(6)
H11 H -0.0288(2) -0.0024(4) 0.33921(6)
H12 H -0.0993(2) 0.1900(4) 0.31429(6)
C8 C 0.1749(2) 0.4682(4) 0.29923(6)
H13 H 0.2646(2) 0.4175(4) 0.31037(6)
H14 H 0.1926(2) 0.6087(4) 0.28545(6)
C9 C 0.0700(2) 0.5111(4) 0.32975(6)
H15 H -0.0190(2) 0.5650(4) 0.31865(6)
H16 H 0.1062(2) 0.6289(4) 0.34664(6)
C10 C -0.0549(3) 0.3520(4) 0.38112(6)
H17 H -0.0310(3) 0.4986(4) 0.39232(6)
H18 H -0.1500(3) 0.3649(4) 0.37019(6)
C11 C -0.0587(2) 0.1794(4) 0.41179(6)
C12 C -0.1622(3) 0.2060(5) 0.43908(7)
H19 H -0.2285(3) 0.3237(5) 0.43678(7)
C13 C -0.1684(3) 0.0633(5) 0.46919(7)
H20 H -0.2385(3) 0.0843(5) 0.48755(7)
C14 C -0.0734(3) -0.1106(5) 0.47291(7)
H21 H -0.0780(3) -0.2090(5) 0.49365(7)
C15 C 0.0285(3) -0.1390(5) 0.44592(7)
H22 H 0.0941(3) -0.2579(5) 0.44821(7)
C16 C 0.0356(3) 0.0048(4) 0.41559(6)
H23 H 0.1058(3) -0.0168(4) 0.39729(6)
C17 C 0.2117(2) 0.1805(4) 0.10041(6)
C18 C 0.3105(2) 0.0370(5) 0.08572(6)
H24 H 0.3312(2) -0.1026(5) 0.09712(6)
C19 C 0.3777(3) 0.1056(5) 0.05377(7)
C20 C 0.3494(3) 0.3058(5) 0.03650(7)
H25 H 0.3976(3) 0.3499(5) 0.01462(7)
C21 C 0.2480(3) 0.4405(5) 0.05223(7)
C22 C 0.1782(3) 0.3842(5) 0.08452(7)
H26 H 0.1105(3) 0.4808(5) 0.09525(7)
S2 S 0.62630(6) 0.90680(10) 0.143093(15)
F3 F 0.69803(19) 0.3285(3) 0.04100(4)
F4 F 0.97105(17) 0.9804(3) 0.03752(4)
O3 O 0.50786(17) 0.7664(3) 0.15138(5)
O4 O 0.60089(18) 1.1427(3) 0.13800(5)
N3 N 0.66945(19) 0.8278(3) 0.27975(5)
N4 N 0.5304(2) 0.8526(3) 0.35073(5)
C23 C 0.7564(2) 0.8769(4) 0.17841(6)
H27 H 0.8425(2) 0.9609(4) 0.17101(6)
C24 C 0.7953(3) 0.6306(4) 0.18648(6)
H28 H 0.7269(3) 0.5273(4) 0.17478(6)
H29 H 0.8901(3) 0.5954(4) 0.17709(6)
C25 C 0.7906(3) 0.6132(4) 0.22914(6)
H30 H 0.7702(3) 0.4581(4) 0.23710(6)
H31 H 0.8806(3) 0.6613(4) 0.24044(6)
C26 C 0.6725(2) 0.7705(4) 0.23995(6)
H32 H 0.5808(2) 0.7019(4) 0.23265(6)
C27 C 0.7001(3) 0.9732(4) 0.21527(6)
H33 H 0.7700(3) 1.0736(4) 0.22700(6)
H34 H 0.6126(3) 1.0584(4) 0.21086(6)
C28 C 0.5584(2) 0.9901(4) 0.28733(6)
H35 H 0.5745(2) 1.1271(4) 0.27245(6)
H36 H 0.4668(2) 0.9264(4) 0.27977(6)
C29 C 0.5551(3) 1.0499(4) 0.32837(6)
H37 H 0.4800(3) 1.1606(4) 0.33284(6)
H38 H 0.6455(3) 1.1185(4) 0.33575(6)
C30 C 0.6445(2) 0.6293(4) 0.30260(6)
H39 H 0.5543(2) 0.5600(4) 0.29519(6)
H40 H 0.7199(2) 0.5187(4) 0.29828(6)
C31 C 0.6406(2) 0.6893(4) 0.34351(6)
H41 H 0.7323(2) 0.7521(4) 0.35121(6)
H42 H 0.6234(2) 0.5528(4) 0.35841(6)
C32 C 0.5254(3) 0.9073(4) 0.39057(6)
H43 H 0.6200(3) 0.9520(4) 0.39922(6)
H44 H 0.4616(3) 1.0358(4) 0.39437(6)
C33 C 0.4751(3) 0.7108(4) 0.41345(6)
C34 C 0.5439(3) 0.6444(4) 0.44569(6)
H45 H 0.6246(3) 0.7237(4) 0.45395(6)
C35 C 0.4957(3) 0.4621(5) 0.46605(7)
H46 H 0.5436(3) 0.4180(5) 0.48814(7)
C36 C 0.3788(3) 0.3449(5) 0.45441(7)
H47 H 0.3460(3) 0.2205(5) 0.46833(7)
C37 C 0.3099(3) 0.4112(5) 0.42207(8)
H48 H 0.2291(3) 0.3320(5) 0.41387(8)
C38 C 0.3576(3) 0.5902(5) 0.40186(7)
H49 H 0.3099(3) 0.6326(5) 0.37965(7)
C39 C 0.7083(2) 0.8026(4) 0.10237(6)
C40 C 0.6693(3) 0.5962(5) 0.08842(6)
H50 H 0.6002(3) 0.5067(5) 0.10020(6)
C41 C 0.7366(3) 0.5267(5) 0.05622(7)
C42 C 0.8389(3) 0.6494(5) 0.03882(7)
H51 H 0.8844(3) 0.5958(5) 0.01711(7)
C43 C 0.8727(3) 0.8540(5) 0.05430(7)
C44 C 0.8092(2) 0.9356(5) 0.08584(6)
H52 H 0.8337(2) 1.0774(5) 0.09589(6)
loop_
_geom_bond_atom_site_label_1
_geom_bond_atom_site_label_2
_geom_bond_site_symmetry_1
_geom_bond_site_symmetry_2
S1 O1 1_555 1_555
F1 C19 1_555 1_555
F2 C21 1_555 1_555
O2 S1 1_555 1_555
N1 C4 1_555 1_555
N2 C7 1_555 1_555
C1 S1 1_555 1_555
H1 C1 1_555 1_555
C2 C1 1_555 1_555
H2 C2 1_555 1_555
H3 C2 1_555 1_555
C3 C2 1_555 1_555
H4 C3 1_555 1_555
H5 C3 1_555 1_555
C4 C3 1_555 1_555
H6 C4 1_555 1_555
C5 C1 1_555 1_555
H7 C5 1_555 1_555
H8 C5 1_555 1_555
C6 N1 1_555 1_555
H9 C6 1_555 1_555
H10 C6 1_555 1_555
C7 C6 1_555 1_555
H11 C7 1_555 1_555
H12 C7 1_555 1_555
C8 N1 1_555 1_555
H13 C8 1_555 1_555
H14 C8 1_555 1_555
C9 N2 1_555 1_555
H15 C9 1_555 1_555
H16 C9 1_555 1_555
C10 N2 1_555 1_555
H17 C10 1_555 1_555
H18 C10 1_555 1_555
C11 C10 1_555 1_555
C12 C11 1_555 1_555
H19 C12 1_555 1_555
C13 C12 1_555 1_555
H20 C13 1_555 1_555
C14 C13 1_555 1_555
H21 C14 1_555 1_555
C15 C14 1_555 1_555
H22 C15 1_555 1_555
C16 C11 1_555 1_555
H23 C16 1_555 1_555
C17 S1 1_555 1_555
C18 C17 1_555 1_555
H24 C18 1_555 1_555
C19 C18 1_555 1_555
C20 C19 1_555 1_555
H25 C20 1_555 1_555
C21 C20 1_555 1_555
C22 C17 1_555 1_555
H26 C22 1_555 1_555
S2 O3 1_555 1_555
F3 C41 1_555 1_555
F4 C43 1_555 1_555
O4 S2 1_555 1_555
N3 C26 1_555 1_555
N4 C29 1_555 1_555
C23 S2 1_555 1_555
H27 C23 1_555 1_555
C24 C23 1_555 1_555
H28 C24 1_555 1_555
H29 C24 1_555 1_555
C25 C24 1_555 1_555
H30 C25 1_555 1_555
H31 C25 1_555 1_555
C26 C25 1_555 1_555
H32 C26 1_555 1_555
C27 C23 1_555 1_555
H33 C27 1_555 1_555
H34 C27 1_555 1_555
C28 N3 1_555 1_555
H35 C28 1_555 1_555
H36 C28 1_555 1_555
C29 C28 1_555 1_555
H37 C29 1_555 1_555
H38 C29 1_555 1_555
C30 N3 1_555 1_555
H39 C30 1_555 1_555
H40 C30 1_555 1_555
C31 N4 1_555 1_555
H41 C31 1_555 1_555
H42 C31 1_555 1_555
C32 N4 1_555 1_555
H43 C32 1_555 1_555
H44 C32 1_555 1_555
C33 C32 1_555 1_555
C34 C33 1_555 1_555
H45 C34 1_555 1_555
C35 C34 1_555 1_555
H46 C35 1_555 1_555
C36 C35 1_555 1_555
H47 C36 1_555 1_555
C37 C36 1_555 1_555
H48 C37 1_555 1_555
C38 C33 1_555 1_555
H49 C38 1_555 1_555
C39 S2 1_555 1_555
C40 C39 1_555 1_555
H50 C40 1_555 1_555
C41 C40 1_555 1_555
C42 C41 1_555 1_555
H51 C42 1_555 1_555
C43 C42 1_555 1_555
C44 C39 1_555 1_555
H52 C44 1_555 1_555
C4 C5 1_555 1_555
C8 C9 1_555 1_555
C15 C16 1_555 1_555
C21 C22 1_555 1_555
C26 C27 1_555 1_555
C30 C31 1_555 1_555
C37 C38 1_555 1_555
C43 C44 1_555 1_555

#END
