
#######################################################################
#
#                 Cambridge Crystallographic Data Centre
#                                CCDC 
#
#######################################################################
#
# If this CIF has been generated from an entry in the Cambridge 
# Structural Database, then it will include bibliographic, chemical, 
# crystal, experimental, refinement or atomic coordinate data resulting 
# from the CCDC's data processing and validation procedures.
#
#######################################################################

data_HEDQIT
_chemical_formula_moiety         'C11 H10 F2 O2 S1'
_chemical_name_systematic        
(1S,4S)-1-((3,5-difluorophenyl)sulfonyl)bicyclo[2.1.0]pentane
_symmetry_cell_setting           orthorhombic
_symmetry_space_group_name_H-M   'P 21 21 21'
_symmetry_Int_Tables_number      19
_space_group_name_Hall           'P 2ac 2ab'
loop_
_symmetry_equiv_pos_site_id
_symmetry_equiv_pos_as_xyz
1 x,y,z
2 1/2-x,-y,1/2+z
3 -x,1/2+y,1/2-z
4 1/2+x,1/2-y,-z
_cell_length_a                   6.7986(6)
_cell_length_b                   11.0791(9)
_cell_length_c                   13.9050(11)
_cell_angle_alpha                90
_cell_angle_beta                 90
_cell_angle_gamma                90
_cell_volume                     1047.36
_exptl_crystal_colour            colorless
_exptl_crystal_description       Block
_cell_formula_units_Z            4
loop_
_atom_site_label
_atom_site_type_symbol
_atom_site_fract_x
_atom_site_fract_y
_atom_site_fract_z
S1 S 0.49139(10) 0.74082(6) 0.22301(5)
F1 F 0.4238(3) 0.53716(17) 0.54798(13)
F2 F 0.4697(3) 0.95878(17) 0.54439(12)
O1 O 0.3946(3) 0.63169(19) 0.19220(16)
O2 O 0.4209(4) 0.85552(19) 0.18838(15)
C1 C 0.7393(4) 0.7284(3) 0.19506(19)
C2 C 0.8792(5) 0.8325(3) 0.1719(2)
H1 H 0.9811 0.8462 0.2216
H2 H 0.8116 0.9087 0.1550
C3 C 0.9537(5) 0.7595(3) 0.0832(2)
H3 H 0.9249 0.7989 0.0209
H4 H 1.0942 0.7366 0.0874
C4 C 0.8138(5) 0.6569(3) 0.1073(2)
H5 H 0.7257 0.6169 0.0594
C5 C 0.8488(5) 0.6105(3) 0.2063(2)
H6 H 0.9849 0.6140 0.2315
H7 H 0.7725 0.5390 0.2272
C6 C 0.4768(4) 0.7444(3) 0.35070(19)
C7 C 0.4605(5) 0.6348(3) 0.3991(2)
H8 H 0.4595 0.5599 0.3659
C8 C 0.4458(5) 0.6412(3) 0.4983(2)
C9 C 0.4492(4) 0.7482(3) 0.5490(2)
H9 H 0.4397 0.7498 0.6172
C10 C 0.4668(5) 0.8523(3) 0.4961(2)
C11 C 0.4816(6) 0.8548(3) 0.3975(2)
H10 H 0.4944 0.9285 0.3632
loop_
_geom_bond_atom_site_label_1
_geom_bond_atom_site_label_2
_geom_bond_site_symmetry_1
_geom_bond_site_symmetry_2
S1 O1 1_555 1_555
F1 C8 1_555 1_555
F2 C10 1_555 1_555
O2 S1 1_555 1_555
C1 S1 1_555 1_555
C2 C1 1_555 1_555
H1 C2 1_555 1_555
H2 C2 1_555 1_555
C3 C2 1_555 1_555
H3 C3 1_555 1_555
H4 C3 1_555 1_555
C4 C1 1_555 1_555
H5 C4 1_555 1_555
C5 C1 1_555 1_555
H6 C5 1_555 1_555
H7 C5 1_555 1_555
C6 S1 1_555 1_555
C7 C6 1_555 1_555
H8 C7 1_555 1_555
C8 C7 1_555 1_555
C9 C8 1_555 1_555
H9 C9 1_555 1_555
C10 C9 1_555 1_555
C11 C6 1_555 1_555
H10 C11 1_555 1_555
C3 C4 1_555 1_555
C4 C5 1_555 1_555
C10 C11 1_555 1_555

#END
