
#######################################################################
#
#                 Cambridge Crystallographic Data Centre
#                                CCDC 
#
#######################################################################
#
# If this CIF has been generated from an entry in the Cambridge 
# Structural Database, then it will include bibliographic, chemical, 
# crystal, experimental, refinement or atomic coordinate data resulting 
# from the CCDC's data processing and validation procedures.
#
#######################################################################

data_HEDQAL
_chemical_formula_moiety         'C11 H10 F2 O2 S1'
_chemical_name_systematic        
(1R,4R)-1-((3,5-difluorophenyl)sulfonyl)bicyclo[2.1.0]pentane
_symmetry_cell_setting           orthorhombic
_symmetry_space_group_name_H-M   'P 21 21 21'
_symmetry_Int_Tables_number      19
_space_group_name_Hall           'P 2ac 2ab'
loop_
_symmetry_equiv_pos_site_id
_symmetry_equiv_pos_as_xyz
1 x,y,z
2 1/2-x,-y,1/2+z
3 -x,1/2+y,1/2-z
4 1/2+x,1/2-y,-z
_cell_length_a                   6.7965(3)
_cell_length_b                   11.0812(5)
_cell_length_c                   13.9075(5)
_cell_angle_alpha                90
_cell_angle_beta                 90
_cell_angle_gamma                90
_cell_volume                     1047.42
_exptl_crystal_colour            colorless
_exptl_crystal_description       Block
_cell_formula_units_Z            4
loop_
_atom_site_label
_atom_site_type_symbol
_atom_site_fract_x
_atom_site_fract_y
_atom_site_fract_z
S1 S 0.50856(9) 0.25888(6) 0.77702(4)
F1 F 0.5306(3) 0.04106(15) 0.45531(11)
F2 F 0.5763(3) 0.46282(15) 0.45195(12)
O1 O 0.5793(3) 0.14426(17) 0.81176(14)
O2 O 0.6052(3) 0.36843(17) 0.80798(14)
C1 C 0.2600(4) 0.2714(2) 0.80483(18)
C2 C 0.1204(5) 0.1669(3) 0.8281(2)
H1 H 0.1884 0.0909 0.8453
H2 H 0.0186 0.1528 0.7784
C3 C 0.0456(4) 0.2407(3) 0.9169(2)
H3 H -0.0948 0.2638 0.9125
H4 H 0.0740 0.2015 0.9794
C4 C 0.1865(4) 0.3433(2) 0.8926(2)
H5 H 0.2751 0.3831 0.9405
C5 C 0.1515(4) 0.3896(2) 0.7935(2)
H6 H 0.2284 0.4608 0.7725
H7 H 0.0152 0.3865 0.7685
C6 C 0.5233(4) 0.2557(2) 0.64957(17)
C7 C 0.5185(5) 0.1446(2) 0.60263(19)
H8 H 0.5058 0.0709 0.6370
C8 C 0.5334(5) 0.1473(3) 0.50342(19)
C9 C 0.5509(4) 0.2519(3) 0.45120(18)
H9 H 0.5602 0.2506 0.3831
C10 C 0.5545(5) 0.3589(3) 0.5016(2)
C11 C 0.5399(4) 0.3651(3) 0.6007(2)
H10 H 0.5411 0.4401 0.6338
loop_
_geom_bond_atom_site_label_1
_geom_bond_atom_site_label_2
_geom_bond_site_symmetry_1
_geom_bond_site_symmetry_2
S1 O1 1_555 1_555
F1 C8 1_555 1_555
F2 C10 1_555 1_555
O2 S1 1_555 1_555
C1 S1 1_555 1_555
C2 C1 1_555 1_555
H1 C2 1_555 1_555
H2 C2 1_555 1_555
C3 C2 1_555 1_555
H3 C3 1_555 1_555
H4 C3 1_555 1_555
C4 C1 1_555 1_555
H5 C4 1_555 1_555
C5 C1 1_555 1_555
H6 C5 1_555 1_555
H7 C5 1_555 1_555
C6 S1 1_555 1_555
C7 C6 1_555 1_555
H8 C7 1_555 1_555
C8 C7 1_555 1_555
C9 C8 1_555 1_555
H9 C9 1_555 1_555
C10 C9 1_555 1_555
C11 C6 1_555 1_555
H10 C11 1_555 1_555
C3 C4 1_555 1_555
C4 C5 1_555 1_555
C10 C11 1_555 1_555

#END
