
#######################################################################
#
#                 Cambridge Crystallographic Data Centre
#                                CCDC 
#
#######################################################################
#
# If this CIF has been generated from an entry in the Cambridge 
# Structural Database, then it will include bibliographic, chemical, 
# crystal, experimental, refinement or atomic coordinate data resulting 
# from the CCDC's data processing and validation procedures.
#
#######################################################################

data_HEDQOZ
_chemical_formula_moiety         'C12 H11 F3 O2 S1'
_chemical_name_systematic        
1-{[4-(trifluoromethyl)phenyl]sulfonyl}bicyclo[2.1.0]pentane
_symmetry_cell_setting           triclinic
_symmetry_space_group_name_H-M   'P 1'
_symmetry_Int_Tables_number      1
_space_group_name_Hall           'P 1'
loop_
_symmetry_equiv_pos_site_id
_symmetry_equiv_pos_as_xyz
1 x,y,z
_cell_length_a                   7.9193(11)
_cell_length_b                   8.1426(12)
_cell_length_c                   10.5945(18)
_cell_angle_alpha                104.903(4)
_cell_angle_beta                 109.324(3)
_cell_angle_gamma                99.177(3)
_cell_volume                     600.172
_exptl_crystal_colour            colorless
_exptl_crystal_description       block
_cell_formula_units_Z            2
loop_
_atom_site_label
_atom_site_type_symbol
_atom_site_fract_x
_atom_site_fract_y
_atom_site_fract_z
S1 S 1.14098(11) 0.47314(10) 0.80496(9)
O1 O 1.1556(4) 0.6153(4) 0.9259(3)
O2 O 1.2529(5) 0.5057(5) 0.7270(4)
F1 F 0.2324(4) 0.1312(4) 0.4472(4)
C1 C 0.9050(6) 0.3981(6) 0.6856(5)
F2 F 0.2682(5) 0.3528(4) 0.3783(4)
F3 F 0.3133(5) 0.1128(5) 0.2735(4)
C2 C 0.7682(7) 0.3808(6) 0.7389(5)
H1 H 0.7995 0.4088 0.8380
C3 C 0.5835(7) 0.3214(6) 0.6441(6)
H2 H 0.4872 0.3075 0.6783
C4 C 0.8625(7) 0.3581(6) 0.5399(5)
H3 H 0.9583 0.3698 0.5049
C5 C 0.5398(7) 0.2827(6) 0.5005(6)
C6 C 1.1857(7) 0.1222(6) 0.7659(6)
H4 H 1.3089 0.1130 0.7660
H5 H 1.0905 0.0837 0.6682
C7 C 1.1291(8) 0.2288(7) 0.9644(5)
H6 H 1.0329 0.2581 1.0015
C8 C 0.6773(7) 0.3013(6) 0.4481(5)
H7 H 0.6448 0.2750 0.3490
C9 C 1.1882(8) 0.2988(7) 0.8622(5)
C10 C 0.3402(7) 0.2207(6) 0.4001(6)
C11 C 1.1261(7) 0.0393(7) 0.8669(6)
H8 H 1.2186 -0.0144 0.9178
H9 H 1.0012 -0.0451 0.8197
C12 C 1.3298(9) 0.3378(9) 1.0159(7)
H10 H 1.4284 0.2753 1.0290
H11 H 1.3667 0.4592 1.0835
S2 S -0.17282(11) 0.61252(10) 0.19361(9)
F4 F 0.6416(4) 0.9513(4) 0.7385(3)
F5 F 0.7312(4) 0.9370(4) 0.5671(3)
F6 F 0.6882(5) 0.7123(4) 0.6335(4)
O3 O -0.1921(4) 0.4690(4) 0.0737(3)
O4 O -0.2908(5) 0.5869(5) 0.2697(4)
C15 C -0.1998(6) 0.7957(6) 0.1414(5)
C16 C 0.4210(6) 0.7865(6) 0.5072(5)
C17 C 0.6191(7) 0.8454(6) 0.6106(6)
C18 C 0.0972(6) 0.7196(6) 0.4597(5)
H19 H -0.0015 0.7110 0.4920
C19 C 0.2798(7) 0.7739(6) 0.5565(5)
H20 H 0.3075 0.8021 0.6552
C20 C -0.2381(7) 0.9583(6) 0.2235(6)
H21 H -0.1300 1.0636 0.2704
H22 H -0.2944 0.9375 0.2906
C21 C 0.3833(6) 0.7398(6) 0.3626(5)
H23 H 0.4821 0.7452 0.3306
C22 C 0.2013(7) 0.6857(6) 0.2663(5)
H24 H 0.1730 0.6542 0.1674
C23 C -0.1340(7) 0.8332(7) 0.0308(5)
H25 H -0.0659 0.9559 0.0504
H26 H -0.0904 0.7413 -0.0213
C24 C -0.3364(7) 0.7963(7) -0.0004(5)
H27 H -0.4322 0.6895 -0.0757
C25 C 0.0588(6) 0.6783(6) 0.3178(5)
C26 C -0.3805(6) 0.9564(6) 0.0806(5)
H28 H -0.5102 0.9329 0.0741
H29 H -0.3473 1.0631 0.0560
H12? H 1.1013 0.0137 0.7592
H13? H 1.2091 0.1196 0.6793
H14? H 1.1065 0.3202 1.0342
H15? H 1.0199 0.1246 0.9157
C13? C 1.3300(17) 0.2243(18) 0.9004(14)
H16? H 1.4586 0.2790 0.9111
C14? C 1.2870(19) 0.187(2) 1.0213(15)
H17? H 1.2707 0.0629 1.0178
H18? H 1.3711 0.2698 1.1167
loop_
_geom_bond_atom_site_label_1
_geom_bond_atom_site_label_2
_geom_bond_site_symmetry_1
_geom_bond_site_symmetry_2
S1 O1 1_555 1_555
O2 S1 1_555 1_555
F1 C10 1_555 1_555
C1 S1 1_555 1_555
F2 C10 1_555 1_555
F3 C10 1_555 1_555
C2 C1 1_555 1_555
H1 C2 1_555 1_555
C3 C2 1_555 1_555
H2 C3 1_555 1_555
C4 C1 1_555 1_555
H3 C4 1_555 1_555
C5 C3 1_555 1_555
C6 H4 1_555 1_555
H5 C6 1_555 1_555
C7 H6 1_555 1_555
C8 C4 1_555 1_555
H7 C8 1_555 1_555
C9 S1 1_555 1_555
C10 C5 1_555 1_555
C11 C6 1_555 1_555
H8 C11 1_555 1_555
H9 C11 1_555 1_555
C12 C7 1_555 1_555
H10 C12 1_555 1_555
H11 C12 1_555 1_555
S2 O3 1_555 1_555
F4 C17 1_555 1_555
F5 C17 1_555 1_555
F6 C17 1_555 1_555
O4 S2 1_555 1_555
C15 S2 1_555 1_555
C16 C17 1_555 1_555
C18 H19 1_555 1_555
C19 C16 1_555 1_555
H20 C19 1_555 1_555
C20 C15 1_555 1_555
H21 C20 1_555 1_555
H22 C20 1_555 1_555
C21 C16 1_555 1_555
H23 C21 1_555 1_555
C22 C21 1_555 1_555
H24 C22 1_555 1_555
C23 C15 1_555 1_555
H25 C23 1_555 1_555
H26 C23 1_555 1_555
C24 C15 1_555 1_555
H27 C24 1_555 1_555
C25 S2 1_555 1_555
C26 C20 1_555 1_555
H28 C26 1_555 1_555
H29 C26 1_555 1_555
C5 C8 1_555 1_555
C6 C9 1_555 1_555
C7 C9 1_555 1_555
C7 C11 1_555 1_555
C9 C12 1_555 1_555
C18 C19 1_555 1_555
C18 C25 1_555 1_555
C22 C25 1_555 1_555
C23 C24 1_555 1_555
C24 C26 1_555 1_555

#END
