
#######################################################################
#
#                 Cambridge Crystallographic Data Centre
#                                CCDC 
#
#######################################################################
#
# If this CIF has been generated from an entry in the Cambridge 
# Structural Database, then it will include bibliographic, chemical, 
# crystal, experimental, refinement or atomic coordinate data resulting 
# from the CCDC's data processing and validation procedures.
#
#######################################################################

data_HEDTOC
_chemical_formula_moiety         'C15 H23 N1 O1'
_chemical_name_systematic        N,4-di-t-butylbenzamide
_symmetry_cell_setting           orthorhombic
_symmetry_space_group_name_H-M   'P b c a'
_symmetry_Int_Tables_number      61
_space_group_name_Hall           '-P 2ac 2ab'
loop_
_symmetry_equiv_pos_site_id
_symmetry_equiv_pos_as_xyz
1 x,y,z
2 1/2-x,-y,1/2+z
3 -x,1/2+y,1/2-z
4 1/2+x,1/2-y,-z
5 -x,-y,-z
6 1/2+x,y,1/2-z
7 x,1/2-y,1/2+z
8 1/2-x,1/2+y,z
_cell_length_a                   10.1764(10)
_cell_length_b                   11.5501(11)
_cell_length_c                   23.828(3)
_cell_angle_alpha                90
_cell_angle_beta                 90
_cell_angle_gamma                90
_cell_volume                     2800.71
_exptl_crystal_colour            colorless
_exptl_crystal_description       parallelepiped
_cell_formula_units_Z            8
loop_
_atom_site_label
_atom_site_type_symbol
_atom_site_fract_x
_atom_site_fract_y
_atom_site_fract_z
O1 O 0.08611(10) 0.30610(9) 0.26472(4)
N1 N 0.30138(12) 0.25607(11) 0.26481(5)
H1 H 0.3803(18) 0.2674(17) 0.2501(8)
C1 C 0.11050(14) 0.44263(14) 0.17030(7)
H2 H 0.0327 0.4431 0.1908
C2 C 0.11889(15) 0.50756(14) 0.12154(7)
H3 H 0.0465 0.5506 0.1101
C3 C 0.23292(14) 0.50993(12) 0.08930(6)
C4 C 0.33770(14) 0.44201(13) 0.10830(6)
H4 H 0.4149 0.4403 0.0874
C5 C 0.33060(14) 0.37736(13) 0.15696(6)
H5 H 0.4027 0.3338 0.1684
C6 C 0.21567(13) 0.37693(12) 0.18924(6)
C7 C 0.24629(14) 0.58161(13) 0.03550(6)
C8 C 0.12034(15) 0.64882(15) 0.02176(7)
H6 H 0.1329 0.6924 -0.0121
H7 H 0.0490 0.5954 0.0168
H8 H 0.1003 0.7007 0.0520
C9 C 0.35806(16) 0.66953(15) 0.04251(8)
H9 H 0.3665 0.7145 0.0088
H10 H 0.3388 0.7199 0.0735
H11 H 0.4389 0.6292 0.0496
C10 C 0.27681(17) 0.50128(15) -0.01401(7)
H12 H 0.2852 0.5463 -0.0477
H13 H 0.3576 0.4609 -0.0070
H14 H 0.2068 0.4463 -0.0184
C11 C 0.19648(13) 0.31026(12) 0.24280(6)
C12 C 0.29629(14) 0.18232(13) 0.31566(6)
C13 C 0.43095(16) 0.12583(16) 0.32172(8)
H15 H 0.4316 0.0771 0.3544
H16 H 0.4493 0.0800 0.2890
H17 H 0.4968 0.1848 0.3256
C14 C 0.19357(15) 0.08774(14) 0.30854(7)
H18 H 0.1911 0.0406 0.3417
H19 H 0.1089 0.1224 0.3027
H20 H 0.2158 0.0406 0.2767
C15 C 0.26650(18) 0.25615(15) 0.36726(7)
H21 H 0.2634 0.2076 0.3999
H22 H 0.3341 0.3133 0.3718
H23 H 0.1832 0.2939 0.3625
loop_
_geom_bond_atom_site_label_1
_geom_bond_atom_site_label_2
_geom_bond_site_symmetry_1
_geom_bond_site_symmetry_2
O1 C11 1_555 1_555
N1 H1 1_555 1_555
C1 H2 1_555 1_555
C2 C1 1_555 1_555
H3 C2 1_555 1_555
C3 C2 1_555 1_555
C4 C3 1_555 1_555
H4 C4 1_555 1_555
C5 C4 1_555 1_555
H5 C5 1_555 1_555
C6 C1 1_555 1_555
C7 C3 1_555 1_555
C8 C7 1_555 1_555
H6 C8 1_555 1_555
H7 C8 1_555 1_555
H8 C8 1_555 1_555
C9 C7 1_555 1_555
H9 C9 1_555 1_555
H10 C9 1_555 1_555
H11 C9 1_555 1_555
C10 C7 1_555 1_555
H12 C10 1_555 1_555
H13 C10 1_555 1_555
H14 C10 1_555 1_555
C11 N1 1_555 1_555
C12 N1 1_555 1_555
C13 C12 1_555 1_555
H15 C13 1_555 1_555
H16 C13 1_555 1_555
H17 C13 1_555 1_555
C14 C12 1_555 1_555
H18 C14 1_555 1_555
H19 C14 1_555 1_555
H20 C14 1_555 1_555
C15 C12 1_555 1_555
H21 C15 1_555 1_555
H22 C15 1_555 1_555
H23 C15 1_555 1_555
C5 C6 1_555 1_555
C6 C11 1_555 1_555

#END
