
#######################################################################
#
#                 Cambridge Crystallographic Data Centre
#                                CCDC 
#
#######################################################################
#
# If this CIF has been generated from an entry in the Cambridge 
# Structural Database, then it will include bibliographic, chemical, 
# crystal, experimental, refinement or atomic coordinate data resulting 
# from the CCDC's data processing and validation procedures.
#
#######################################################################

data_HEFCUS
_chemical_formula_moiety         'C16 H12 Br1 N1 O1'
_chemical_name_systematic        
1-(4-Bromophenyl)-3-methylene-4-phenylazetidin-2-one
_symmetry_cell_setting           monoclinic
_symmetry_space_group_name_H-M   'C 2'
_symmetry_Int_Tables_number      5
_space_group_name_Hall           'C 2y'
loop_
_symmetry_equiv_pos_site_id
_symmetry_equiv_pos_as_xyz
1 x,y,z
2 -x,y,-z
3 1/2+x,1/2+y,z
4 1/2-x,1/2+y,-z
_cell_length_a                   21.879(2)
_cell_length_b                   6.0508(6)
_cell_length_c                   10.7858(11)
_cell_angle_alpha                90
_cell_angle_beta                 92.810(2)
_cell_angle_gamma                90
_cell_volume                     1426.17
_exptl_crystal_colour            colorless
_exptl_crystal_description       prismatic
_cell_formula_units_Z            4
loop_
_atom_site_label
_atom_site_type_symbol
_atom_site_fract_x
_atom_site_fract_y
_atom_site_fract_z
Br1 Br 0.87433(3) 0.53580(17) 0.47383(5)
N1 N 0.69101(16) 0.3524(5) 0.8616(3)
O1 O 0.71044(15) 0.0059(6) 0.9542(3)
C1 C 0.6862(2) 0.1859(8) 0.9457(4)
C2 C 0.6407(2) 0.3144(8) 1.0141(4)
C3 C 0.6094(3) 0.2767(13) 1.1118(5)
H1 H 0.6137 0.1430 1.1538
H2 H 0.5827 0.3836 1.1394
C4 C 0.6484(2) 0.5022(8) 0.9231(4)
H3 H 0.6698 0.6286 0.9621
C5 C 0.59315(14) 0.5724(6) 0.8460(3)
C6 C 0.5671(2) 0.7779(6) 0.8666(6)
H4 H 0.5837 0.8694 0.9288
C7 C 0.5163(3) 0.8465(8) 0.7942(7)
H5 H 0.4989 0.9840 0.8080
C8 C 0.4915(2) 0.7096(12) 0.7012(6)
H6 H 0.4576 0.7556 0.6528
C9 C 0.5176(2) 0.5041(12) 0.6806(4)
H7 H 0.5010 0.4126 0.6184
C10 C 0.5684(2) 0.4355(7) 0.7530(4)
H8 H 0.5858 0.2980 0.7392
C11 C 0.7332(2) 0.3957(8) 0.7709(4)
C12 C 0.7326(2) 0.5987(8) 0.7127(5)
H9 H 0.7043 0.7061 0.7323
C13 C 0.7754(2) 0.6397(9) 0.6239(5)
H10 H 0.7759 0.7756 0.5837
C14 C 0.8168(2) 0.4792(9) 0.5962(4)
C15 C 0.8165(2) 0.2779(9) 0.6533(5)
H11 H 0.8446 0.1703 0.6326
C16 C 0.7748(2) 0.2337(8) 0.7411(5)
H12 H 0.7745 0.0968 0.7802
loop_
_geom_bond_atom_site_label_1
_geom_bond_atom_site_label_2
_geom_bond_site_symmetry_1
_geom_bond_site_symmetry_2
Br1 C14 1_555 1_555
N1 C1 1_555 1_555
O1 C1 1_555 1_555
C1 C2 1_555 1_555
C2 C3 1_555 1_555
C3 H1 1_555 1_555
H2 C3 1_555 1_555
C4 N1 1_555 1_555
H3 C4 1_555 1_555
C5 C4 1_555 1_555
C6 C5 1_555 1_555
H4 C6 1_555 1_555
C7 C6 1_555 1_555
H5 C7 1_555 1_555
C8 C7 1_555 1_555
H6 C8 1_555 1_555
C9 C8 1_555 1_555
H7 C9 1_555 1_555
C10 C5 1_555 1_555
H8 C10 1_555 1_555
C11 N1 1_555 1_555
C12 C11 1_555 1_555
H9 C12 1_555 1_555
C13 C12 1_555 1_555
H10 C13 1_555 1_555
C14 C13 1_555 1_555
C15 C14 1_555 1_555
H11 C15 1_555 1_555
C16 C11 1_555 1_555
H12 C16 1_555 1_555
C2 C4 1_555 1_555
C9 C10 1_555 1_555
C15 C16 1_555 1_555

#END
