
#######################################################################
#
#                 Cambridge Crystallographic Data Centre
#                                CCDC 
#
#######################################################################
#
# If this CIF has been generated from an entry in the Cambridge 
# Structural Database, then it will include bibliographic, chemical, 
# crystal, experimental, refinement or atomic coordinate data resulting 
# from the CCDC's data processing and validation procedures.
#
#######################################################################

data_HEFDUS
_chemical_name_common            bis(1-Phenyl-ortho-carboran-2-yl)sulfide
_chemical_formula_moiety         'C16 H30 B20 S1'
_chemical_name_systematic        bis(2-Phenyl-1,2-dicarbadodecaboranyl)sulfide
_symmetry_cell_setting           monoclinic
_symmetry_space_group_name_H-M   'P 21/n'
_symmetry_Int_Tables_number      14
_space_group_name_Hall           '-P 2yn'
loop_
_symmetry_equiv_pos_site_id
_symmetry_equiv_pos_as_xyz
1 x,y,z
2 1/2-x,1/2+y,1/2-z
3 -x,-y,-z
4 1/2+x,1/2-y,1/2+z
_cell_length_a                   10.806(2)
_cell_length_b                   17.727(4)
_cell_length_c                   13.916(3)
_cell_angle_alpha                90
_cell_angle_beta                 97.81(3)
_cell_angle_gamma                90
_cell_volume                     2640.99
_exptl_crystal_colour            colorless
_exptl_crystal_description       'non-orthogonal prism'
_chemical_melting_point          '510 K'
_cell_formula_units_Z            4
_exptl_crystal_recrystallization_method benzene/hexane
loop_
_atom_site_label
_atom_site_type_symbol
_atom_site_fract_x
_atom_site_fract_y
_atom_site_fract_z
S1 S 0.14266(6) 0.33120(4) 0.26716(4)
C1 C 0.2423(2) 0.41231(15) 0.27375(17)
C2 C 0.4001(2) 0.39637(14) 0.31621(17)
B1 B 0.3479(3) 0.39730(18) 0.1923(2)
H1 H 0.340(3) 0.3422(18) 0.155(2)
B2 B 0.2287(3) 0.46826(19) 0.1716(2)
H2 H 0.143(3) 0.4552(19) 0.119(2)
B3 B 0.2050(3) 0.50439(18) 0.2863(2)
H3 H 0.111(3) 0.5094(19) 0.295(2)
B4 B 0.3106(3) 0.45659(17) 0.3774(2)
H4 H 0.284(3) 0.4397(18) 0.444(2)
B5 B 0.4909(3) 0.44137(19) 0.2420(2)
H5 H 0.572(3) 0.4102(19) 0.237(2)
B6 B 0.3850(3) 0.4885(2) 0.1519(2)
H6 H 0.407(3) 0.498(2) 0.078(2)
B7 B 0.2971(3) 0.55501(19) 0.2112(2)
H7 H 0.265(3) 0.606(2) 0.181(2)
B8 B 0.3470(3) 0.54812(18) 0.3387(2)
H8 H 0.338(3) 0.5916(19) 0.385(2)
B9 B 0.4675(3) 0.47849(17) 0.3571(2)
H9 H 0.541(3) 0.4760(19) 0.414(2)
B10 B 0.4585(3) 0.53936(19) 0.2549(2)
H10 H 0.524(3) 0.5837(19) 0.257(2)
C3 C 0.4369(2) 0.32188(15) 0.36446(19)
C4 C 0.4690(3) 0.32061(18) 0.4653(2)
H11 H 0.465(3) 0.371(2) 0.507(2)
C5 C 0.5080(3) 0.2536(2) 0.5117(2)
H12 H 0.531(3) 0.250(2) 0.583(3)
C6 C 0.5134(3) 0.1876(2) 0.4591(3)
H13 H 0.545(4) 0.146(2) 0.490(3)
C7 C 0.4817(3) 0.18865(18) 0.3596(3)
H14 H 0.486(4) 0.142(2) 0.321(3)
C8 C 0.4437(3) 0.25554(17) 0.3120(2)
H15 H 0.424(3) 0.249(2) 0.245(3)
C9 C 0.0581(2) 0.32378(14) 0.36858(17)
C10 C -0.0951(2) 0.35847(15) 0.35259(18)
B11 B -0.0669(3) 0.26376(17) 0.3339(2)
H16 H -0.083(3) 0.2394(19) 0.262(2)
B12 B 0.0620(3) 0.23602(17) 0.4219(2)
H17 H 0.132(3) 0.1935(19) 0.397(2)
B13 B 0.1153(3) 0.31791(17) 0.4895(2)
H18 H 0.217(3) 0.3321(18) 0.511(2)
B14 B 0.0179(3) 0.39496(17) 0.4415(2)
H19 H 0.051(3) 0.4487(18) 0.434(2)
B15 B -0.1922(3) 0.29427(18) 0.3964(2)
H20 H -0.280(3) 0.2905(19) 0.356(2)
B16 B -0.0954(3) 0.21691(17) 0.4412(2)
H21 H -0.132(3) 0.1602(19) 0.440(2)
B17 B 0.0170(3) 0.25084(19) 0.5383(2)
H22 H 0.052(3) 0.2176(19) 0.592(2)
B18 B -0.0087(3) 0.35002(18) 0.5508(2)
H23 H 0.014(3) 0.3776(19) 0.622(2)
B19 B -0.1386(3) 0.37636(18) 0.4638(2)
H24 H -0.203(3) 0.4178(18) 0.465(2)
B20 B -0.1385(3) 0.28727(18) 0.5226(2)
H25 H -0.204(3) 0.2740(19) 0.573(2)
C11 C -0.1374(2) 0.40912(15) 0.26722(19)
C12 C -0.1539(3) 0.48593(16) 0.2835(2)
H26 H -0.140(3) 0.5046(19) 0.346(3)
C13 C -0.1960(3) 0.53329(18) 0.2065(2)
H27 H -0.201(3) 0.589(2) 0.216(3)
C14 C -0.2218(3) 0.50493(19) 0.1133(2)
H28 H -0.241(4) 0.539(2) 0.062(3)
C15 C -0.2067(3) 0.4287(2) 0.0967(2)
H29 H -0.229(4) 0.409(2) 0.033(3)
C16 C -0.1651(3) 0.38040(19) 0.1734(2)
H30 H -0.161(3) 0.327(2) 0.159(3)
loop_
_geom_bond_atom_site_label_1
_geom_bond_atom_site_label_2
_geom_bond_site_symmetry_1
_geom_bond_site_symmetry_2
S1 C1 1_555 1_555
C1 C2 1_555 1_555
C2 B1 1_555 1_555
B1 C1 1_555 1_555
H1 B1 1_555 1_555
B2 C1 1_555 1_555
H2 B2 1_555 1_555
B3 C1 1_555 1_555
H3 B3 1_555 1_555
B4 C1 1_555 1_555
H4 B4 1_555 1_555
B5 C2 1_555 1_555
H5 B5 1_555 1_555
B6 B1 1_555 1_555
H6 B6 1_555 1_555
B7 B2 1_555 1_555
H7 B7 1_555 1_555
B8 B3 1_555 1_555
H8 B8 1_555 1_555
B9 C2 1_555 1_555
H9 B9 1_555 1_555
B10 B5 1_555 1_555
H10 B10 1_555 1_555
C3 C2 1_555 1_555
C4 C3 1_555 1_555
H11 C4 1_555 1_555
C5 C4 1_555 1_555
H12 C5 1_555 1_555
C6 C5 1_555 1_555
H13 C6 1_555 1_555
C7 C6 1_555 1_555
H14 C7 1_555 1_555
C8 C3 1_555 1_555
H15 C8 1_555 1_555
C9 S1 1_555 1_555
C10 C9 1_555 1_555
B11 C9 1_555 1_555
H16 B11 1_555 1_555
B12 C9 1_555 1_555
H17 B12 1_555 1_555
B13 C9 1_555 1_555
H18 B13 1_555 1_555
B14 C9 1_555 1_555
H19 B14 1_555 1_555
B15 C10 1_555 1_555
H20 B15 1_555 1_555
B16 B11 1_555 1_555
H21 B16 1_555 1_555
B17 B12 1_555 1_555
H22 B17 1_555 1_555
B18 B13 1_555 1_555
H23 B18 1_555 1_555
B19 C10 1_555 1_555
H24 B19 1_555 1_555
B20 B15 1_555 1_555
H25 B20 1_555 1_555
C11 C10 1_555 1_555
C12 C11 1_555 1_555
H26 C12 1_555 1_555
C13 C12 1_555 1_555
H27 C13 1_555 1_555
C14 C13 1_555 1_555
H28 C14 1_555 1_555
C15 C14 1_555 1_555
H29 C15 1_555 1_555
C16 C11 1_555 1_555
H30 C16 1_555 1_555
C2 B4 1_555 1_555
B1 B2 1_555 1_555
B1 B5 1_555 1_555
B2 B3 1_555 1_555
B2 B6 1_555 1_555
B3 B4 1_555 1_555
B3 B7 1_555 1_555
B4 B8 1_555 1_555
B4 B9 1_555 1_555
B5 B6 1_555 1_555
B5 B9 1_555 1_555
B6 B7 1_555 1_555
B6 B10 1_555 1_555
B7 B8 1_555 1_555
B7 B10 1_555 1_555
B8 B9 1_555 1_555
B8 B10 1_555 1_555
B9 B10 1_555 1_555
C7 C8 1_555 1_555
C10 B11 1_555 1_555
C10 B14 1_555 1_555
B11 B12 1_555 1_555
B11 B15 1_555 1_555
B12 B13 1_555 1_555
B12 B16 1_555 1_555
B13 B14 1_555 1_555
B13 B17 1_555 1_555
B14 B18 1_555 1_555
B14 B19 1_555 1_555
B15 B16 1_555 1_555
B15 B19 1_555 1_555
B16 B17 1_555 1_555
B16 B20 1_555 1_555
B17 B18 1_555 1_555
B17 B20 1_555 1_555
B18 B19 1_555 1_555
B18 B20 1_555 1_555
B19 B20 1_555 1_555
C15 C16 1_555 1_555

#END
