
#######################################################################
#
#                 Cambridge Crystallographic Data Centre
#                                CCDC 
#
#######################################################################
#
# If this CIF has been generated from an entry in the Cambridge 
# Structural Database, then it will include bibliographic, chemical, 
# crystal, experimental, refinement or atomic coordinate data resulting 
# from the CCDC's data processing and validation procedures.
#
#######################################################################

data_HEFGOR
_chemical_formula_moiety         'C25 H23 Cl1 O3'
_chemical_name_systematic        
2-[4-(4-chlorophenyl)-7-methyl-9-oxobicyclo[3.3.1]nonan-2-yl]-1H-indene-1,3(2H)-dione
_symmetry_cell_setting           orthorhombic
_symmetry_space_group_name_H-M   'P 21 21 21'
_symmetry_Int_Tables_number      19
_space_group_name_Hall           'P 2ac 2ab'
loop_
_symmetry_equiv_pos_site_id
_symmetry_equiv_pos_as_xyz
1 x,y,z
2 1/2-x,-y,1/2+z
3 -x,1/2+y,1/2-z
4 1/2+x,1/2-y,-z
_cell_length_a                   6.4750(3)
_cell_length_b                   16.7281(10)
_cell_length_c                   19.4497(11)
_cell_angle_alpha                90
_cell_angle_beta                 90
_cell_angle_gamma                90
_cell_volume                     2106.68
_exptl_crystal_colour            colorless
_exptl_crystal_description       prism
_cell_formula_units_Z            4
loop_
_atom_site_label
_atom_site_type_symbol
_atom_site_fract_x
_atom_site_fract_y
_atom_site_fract_z
C1 C 0.7940(4) 0.18343(12) 0.55481(9)
C2 C 0.9450(3) 0.22851(13) 0.58498(10)
H1 H 1.0815 0.2283 0.5670
C3 C 0.8969(3) 0.27467(13) 0.64214(9)
H2 H 1.0017 0.3058 0.6634
C4 C 0.6980(3) 0.27590(10) 0.66867(8)
C5 C 0.5483(3) 0.23153(12) 0.63549(9)
H3 H 0.4104 0.2327 0.6521
C6 C 0.5950(4) 0.18518(12) 0.57832(10)
H4 H 0.4903 0.1552 0.5559
C7 C 0.6500(3) 0.32569(10) 0.73195(8)
H5 H 0.7847 0.3390 0.7544
C8 C 0.5440(3) 0.40674(11) 0.71199(9)
H6 H 0.5161 0.4075 0.6614
C9 C 0.6800(3) 0.47946(11) 0.73151(10)
H7 H 0.8156 0.4744 0.7084
H8 H 0.6133 0.5289 0.7145
C10 C 0.7139(3) 0.48663(12) 0.80908(10)
H9 H 0.7950 0.4390 0.8244
C11 C 0.8404(4) 0.56133(13) 0.82606(14)
H10 H 0.9723 0.5593 0.8014
H11 H 0.8663 0.5634 0.8757
H12 H 0.7636 0.6091 0.8120
C12 C 0.5068(3) 0.48536(12) 0.84698(10)
H13 H 0.4305 0.5352 0.8365
H14 H 0.5328 0.4841 0.8971
C13 C 0.3723(3) 0.41318(11) 0.82724(9)
H15 H 0.2343 0.4180 0.8499
C14 C 0.3454(3) 0.41618(10) 0.75029(9)
C15 C 0.5197(3) 0.28036(11) 0.78492(8)
H16 H 0.3879 0.2637 0.7635
H17 H 0.5943 0.2315 0.7994
C16 C 0.4741(3) 0.33189(11) 0.84820(8)
H18 H 0.6096 0.3447 0.8703
C17 C 0.3434(3) 0.28718(11) 0.90181(8)
H19 H 0.3074 0.3261 0.9389
C18 C 0.4560(4) 0.21726(13) 0.93537(9)
C19 C 0.3181(4) 0.14671(12) 0.93346(9)
C20 C 0.3492(4) 0.07063(13) 0.96034(10)
H20 H 0.4726 0.0577 0.9843
C21 C 0.1958(5) 0.01469(15) 0.95118(12)
H21 H 0.2134 -0.0375 0.9695
C22 C 0.0154(5) 0.03304(15) 0.91556(12)
H22 H -0.0873 -0.0069 0.9094
C23 C -0.0158(4) 0.10856(15) 0.88912(11)
H23 H -0.1390 0.1214 0.8650
C24 C 0.1373(3) 0.16517(12) 0.89872(9)
C25 C 0.1431(4) 0.25046(13) 0.87617(10)
O1 O 0.1811(2) 0.42867(9) 0.72225(7)
O2 O 0.6294(2) 0.21941(9) 0.95865(6)
O3 O 0.0115(3) 0.28377(11) 0.84272(9)
Cl1 Cl 0.85541(12) 0.12282(4) 0.48448(3)
loop_
_geom_bond_atom_site_label_1
_geom_bond_atom_site_label_2
_geom_bond_site_symmetry_1
_geom_bond_site_symmetry_2
C1 C2 1_555 1_555
C2 H1 1_555 1_555
C3 C2 1_555 1_555
H2 C3 1_555 1_555
C4 C3 1_555 1_555
C5 C4 1_555 1_555
H3 C5 1_555 1_555
C6 C1 1_555 1_555
H4 C6 1_555 1_555
C7 C4 1_555 1_555
H5 C7 1_555 1_555
C8 C7 1_555 1_555
H6 C8 1_555 1_555
C9 C8 1_555 1_555
H7 C9 1_555 1_555
H8 C9 1_555 1_555
C10 C9 1_555 1_555
H9 C10 1_555 1_555
C11 C10 1_555 1_555
H10 C11 1_555 1_555
H11 C11 1_555 1_555
H12 C11 1_555 1_555
C12 C10 1_555 1_555
H13 C12 1_555 1_555
H14 C12 1_555 1_555
C13 C12 1_555 1_555
H15 C13 1_555 1_555
C14 C8 1_555 1_555
C15 C7 1_555 1_555
H16 C15 1_555 1_555
H17 C15 1_555 1_555
C16 C13 1_555 1_555
H18 C16 1_555 1_555
C17 C16 1_555 1_555
H19 C17 1_555 1_555
C18 C17 1_555 1_555
C19 C18 1_555 1_555
C20 C19 1_555 1_555
H20 C20 1_555 1_555
C21 C20 1_555 1_555
H21 C21 1_555 1_555
C22 C21 1_555 1_555
H22 C22 1_555 1_555
C23 C22 1_555 1_555
H23 C23 1_555 1_555
C24 C19 1_555 1_555
C25 C17 1_555 1_555
O1 C14 1_555 1_555
O2 C18 1_555 1_555
O3 C25 1_555 1_555
Cl1 C1 1_555 1_555
C5 C6 1_555 1_555
C13 C14 1_555 1_555
C15 C16 1_555 1_555
C23 C24 1_555 1_555
C24 C25 1_555 1_555

#END
