
#######################################################################
#
#                 Cambridge Crystallographic Data Centre
#                                CCDC 
#
#######################################################################
#
# If this CIF has been generated from an entry in the Cambridge 
# Structural Database, then it will include bibliographic, chemical, 
# crystal, experimental, refinement or atomic coordinate data resulting 
# from the CCDC's data processing and validation procedures.
#
#######################################################################

data_HEFGEH
_chemical_formula_moiety         'C21 H20 Cl1 F3 N2 O2 S1'
_chemical_name_systematic        
't-butyl (1-(3-chlorophenyl)-2-cyano-2-phenyl-2-((trifluoromethyl)sulfanyl)ethyl)carbamate'
_symmetry_cell_setting           orthorhombic
_symmetry_space_group_name_H-M   'P 21 21 21'
_symmetry_Int_Tables_number      19
_space_group_name_Hall           'P 2ac 2ab'
loop_
_symmetry_equiv_pos_site_id
_symmetry_equiv_pos_as_xyz
1 x,y,z
2 1/2-x,-y,1/2+z
3 -x,1/2+y,1/2-z
4 1/2+x,1/2-y,-z
_cell_length_a                   11.522(2)
_cell_length_b                   16.455(3)
_cell_length_c                   24.276(5)
_cell_angle_alpha                90
_cell_angle_beta                 90
_cell_angle_gamma                90
_cell_volume                     4602.6
_exptl_crystal_colour            colorless
_exptl_crystal_description       column
_cell_formula_units_Z            8
loop_
_atom_site_label
_atom_site_type_symbol
_atom_site_fract_x
_atom_site_fract_y
_atom_site_fract_z
S1 S 0.44500(11) 0.52573(9) 0.02806(5)
Cl1 Cl 0.3429(3) 0.89887(16) 0.06110(18)
F1 F 0.3993(4) 0.4312(3) -0.05038(13)
F2 F 0.4004(6) 0.3705(3) 0.0251(2)
F3 F 0.2598(4) 0.4430(4) 0.0048(2)
O1 O 0.5650(3) 0.5969(3) 0.22621(12)
O2 O 0.3978(3) 0.6303(3) 0.26973(12)
N1 N 0.4009(3) 0.6221(2) 0.17950(13)
H1 H 0.3298 0.6377 0.1815
N2 N 0.1676(4) 0.5969(3) 0.08126(17)
C1 C 0.3770(3) 0.5393(3) 0.09611(16)
C2 C 0.4527(4) 0.6054(3) 0.12606(15)
H2 H 0.5282 0.5801 0.1334
C3 C 0.4768(4) 0.6809(3) 0.09276(18)
C4 C 0.4053(6) 0.7460(4) 0.0910(2)
H3 H 0.3365 0.7454 0.1110
C5 C 0.4339(7) 0.8142(4) 0.0592(3)
C6 C 0.5342(8) 0.8155(5) 0.0302(3)
H4 H 0.5520 0.8609 0.0090
C7 C 0.6073(8) 0.7539(5) 0.0313(3)
H5 H 0.6761 0.7558 0.0112
C8 C 0.5794(5) 0.6857(4) 0.0631(2)
H6 H 0.6312 0.6424 0.0644
C9 C 0.3740(4) 0.4610(3) 0.13098(16)
C10 C 0.4753(5) 0.4233(3) 0.1449(2)
H7 H 0.5456 0.4444 0.1327
C11 C 0.4741(5) 0.3547(4) 0.1768(2)
H8 H 0.5438 0.3303 0.1868
C12 C 0.3730(7) 0.3220(3) 0.1940(3)
H9 H 0.3727 0.2743 0.2146
C13 C 0.2729(6) 0.3591(4) 0.1812(3)
H10 H 0.2033 0.3377 0.1940
C14 C 0.2716(4) 0.4285(3) 0.1492(2)
H11 H 0.2015 0.4531 0.1402
C15 C 0.2588(5) 0.5720(3) 0.08648(17)
C16 C 0.3687(7) 0.4394(5) 0.0015(3)
C17 C 0.4635(4) 0.6133(3) 0.22573(17)
C18 C 0.4218(4) 0.5920(4) 0.32259(18)
C19 C 0.3192(5) 0.6164(8) 0.3565(3)
H12 H 0.3208 0.6741 0.3625
H13 H 0.3217 0.5888 0.3913
H14 H 0.2491 0.6020 0.3374
C20 C 0.4245(10) 0.5020(4) 0.3127(3)
H15 H 0.3524 0.4852 0.2964
H16 H 0.4354 0.4742 0.3471
H17 H 0.4873 0.4891 0.2882
C21 C 0.5315(5) 0.6217(4) 0.3475(2)
H18 H 0.5267 0.6794 0.3531
H19 H 0.5951 0.6098 0.3232
H20 H 0.5438 0.5952 0.3822
S2 S 0.14735(10) 0.14994(7) 0.22301(4)
Cl2 Cl -0.06496(18) 0.35882(10) 0.40577(6)
F4 F -0.0173(3) 0.0892(4) 0.16203(13)
F5 F 0.1428(4) 0.0491(3) 0.14033(15)
F6 F 0.1029(4) 0.1681(2) 0.12233(12)
O3 O 0.2583(3) -0.0213(2) 0.38953(15)
O4 O 0.0877(3) -0.05084(19) 0.43027(12)
N3 N 0.0979(3) 0.0528(2) 0.37362(12)
H21 H 0.0282 0.0628 0.3843
N4 N -0.1327(3) 0.1112(2) 0.28683(15)
C22 C 0.0873(3) 0.0792(2) 0.27410(16)
C23 C 0.1488(3) 0.1024(2) 0.33026(15)
H22 H 0.2305 0.0865 0.3270
C24 C 0.1465(4) 0.1917(3) 0.34352(16)
C25 C 0.0525(4) 0.2297(3) 0.36798(17)
H23 H -0.0127 0.1995 0.3776
C26 C 0.0552(5) 0.3123(3) 0.37822(19)
C27 C 0.1531(7) 0.3578(3) 0.3660(2)
H24 H 0.1555 0.4131 0.3736
C28 C 0.2440(6) 0.3205(4) 0.3430(3)
H25 H 0.3095 0.3508 0.3341
C29 C 0.2433(5) 0.2375(3) 0.3319(2)
H26 H 0.3085 0.2129 0.3167
C30 C 0.1100(4) -0.0100(2) 0.26112(17)
C31 C 0.2220(4) -0.0350(3) 0.2499(2)
H27 H 0.2819 0.0028 0.2491
C32 C 0.2452(5) -0.1157(3) 0.2399(2)
H28 H 0.3205 -0.1319 0.2315
C33 C 0.1602(6) -0.1711(3) 0.2420(2)
H29 H 0.1768 -0.2257 0.2359
C34 C 0.0482(6) -0.1471(4) 0.2531(2)
H30 H -0.0106 -0.1857 0.2546
C35 C 0.0224(4) -0.0666(3) 0.26207(18)
H31 H -0.0538 -0.0507 0.2687
C36 C -0.0394(4) 0.0962(3) 0.27994(16)
C37 C 0.0857(5) 0.1137(4) 0.1598(2)
C38 C 0.1566(4) -0.0081(3) 0.39725(18)
C39 C 0.1270(5) -0.1262(3) 0.4575(2)
C40 C 0.2208(6) -0.1093(4) 0.4972(3)
H32 H 0.2890 -0.0921 0.4777
H33 H 0.2378 -0.1577 0.5177
H34 H 0.1966 -0.0671 0.5219
C41 C 0.0162(6) -0.1534(4) 0.4852(3)
H35 H -0.0051 -0.1148 0.5131
H36 H 0.0278 -0.2057 0.5018
H37 H -0.0447 -0.1569 0.4583
C42 C 0.1598(8) -0.1853(4) 0.4149(3)
H38 H 0.2315 -0.1688 0.3981
H39 H 0.1001 -0.1878 0.3874
H40 H 0.1694 -0.2379 0.4314
loop_
_geom_bond_atom_site_label_1
_geom_bond_atom_site_label_2
_geom_bond_site_symmetry_1
_geom_bond_site_symmetry_2
S1 C1 1_555 1_555
Cl1 C5 1_555 1_555
F1 C16 1_555 1_555
F2 C16 1_555 1_555
F3 C16 1_555 1_555
O1 C17 1_555 1_555
O2 C17 1_555 1_555
N1 H1 1_555 1_555
N2 C15 1_555 1_555
C1 C2 1_555 1_555
C2 N1 1_555 1_555
H2 C2 1_555 1_555
C3 C2 1_555 1_555
C4 C3 1_555 1_555
H3 C4 1_555 1_555
C5 C4 1_555 1_555
C6 C5 1_555 1_555
H4 C6 1_555 1_555
C7 C6 1_555 1_555
H5 C7 1_555 1_555
C8 C3 1_555 1_555
H6 C8 1_555 1_555
C9 C1 1_555 1_555
C10 C9 1_555 1_555
H7 C10 1_555 1_555
C11 C10 1_555 1_555
H8 C11 1_555 1_555
C12 C11 1_555 1_555
H9 C12 1_555 1_555
C13 C12 1_555 1_555
H10 C13 1_555 1_555
C14 C9 1_555 1_555
H11 C14 1_555 1_555
C15 C1 1_555 1_555
C16 S1 1_555 1_555
C17 N1 1_555 1_555
C18 O2 1_555 1_555
C19 C18 1_555 1_555
H12 C19 1_555 1_555
H13 C19 1_555 1_555
H14 C19 1_555 1_555
C20 C18 1_555 1_555
H15 C20 1_555 1_555
H16 C20 1_555 1_555
H17 C20 1_555 1_555
C21 C18 1_555 1_555
H18 C21 1_555 1_555
H19 C21 1_555 1_555
H20 C21 1_555 1_555
S2 C22 1_555 1_555
Cl2 C26 1_555 1_555
F4 C37 1_555 1_555
F5 C37 1_555 1_555
F6 C37 1_555 1_555
O3 C38 1_555 1_555
O4 C38 1_555 1_555
N3 H21 1_555 1_555
N4 C36 1_555 1_555
C22 C23 1_555 1_555
C23 N3 1_555 1_555
H22 C23 1_555 1_555
C24 C23 1_555 1_555
C25 C24 1_555 1_555
H23 C25 1_555 1_555
C26 C25 1_555 1_555
C27 C26 1_555 1_555
H24 C27 1_555 1_555
C28 C27 1_555 1_555
H25 C28 1_555 1_555
C29 C24 1_555 1_555
H26 C29 1_555 1_555
C30 C22 1_555 1_555
C31 C30 1_555 1_555
H27 C31 1_555 1_555
C32 C31 1_555 1_555
H28 C32 1_555 1_555
C33 C32 1_555 1_555
H29 C33 1_555 1_555
C34 C33 1_555 1_555
H30 C34 1_555 1_555
C35 C30 1_555 1_555
H31 C35 1_555 1_555
C36 C22 1_555 1_555
C37 S2 1_555 1_555
C38 N3 1_555 1_555
C39 O4 1_555 1_555
C40 C39 1_555 1_555
H32 C40 1_555 1_555
H33 C40 1_555 1_555
H34 C40 1_555 1_555
C41 C39 1_555 1_555
H35 C41 1_555 1_555
H36 C41 1_555 1_555
H37 C41 1_555 1_555
C42 C39 1_555 1_555
H38 C42 1_555 1_555
H39 C42 1_555 1_555
H40 C42 1_555 1_555
C7 C8 1_555 1_555
C13 C14 1_555 1_555
C28 C29 1_555 1_555
C34 C35 1_555 1_555

#END
