
#######################################################################
#
#                 Cambridge Crystallographic Data Centre
#                                CCDC 
#
#######################################################################
#
# If this CIF has been generated from an entry in the Cambridge 
# Structural Database, then it will include bibliographic, chemical, 
# crystal, experimental, refinement or atomic coordinate data resulting 
# from the CCDC's data processing and validation procedures.
#
#######################################################################

data_HEFHUY
_chemical_formula_moiety         'C5 H5 Br1 O3 S1'
_chemical_name_systematic        
3-bromo-5-hydroxy-4-(methylsulfanyl)furan-2(5H)-one
_symmetry_cell_setting           orthorhombic
_symmetry_space_group_name_H-M   'P 21 21 21'
_symmetry_Int_Tables_number      19
_space_group_name_Hall           'P 2ac 2ab'
loop_
_symmetry_equiv_pos_site_id
_symmetry_equiv_pos_as_xyz
1 x,y,z
2 1/2-x,-y,1/2+z
3 -x,1/2+y,1/2-z
4 1/2+x,1/2-y,-z
_cell_length_a                   4.1612(4)
_cell_length_b                   9.0014(13)
_cell_length_c                   19.5462(17)
_cell_angle_alpha                90
_cell_angle_beta                 90
_cell_angle_gamma                90
_cell_volume                     732.135
_exptl_crystal_colour            colorless
_exptl_crystal_description       block
_cell_formula_units_Z            4
loop_
_atom_site_label
_atom_site_type_symbol
_atom_site_fract_x
_atom_site_fract_y
_atom_site_fract_z
Br1 Br 0.9077(7) 0.4210(4) 0.51926(15)
S1 S 0.9533(19) 0.7823(9) 0.5844(3)
O1 O 0.510(5) 0.274(3) 0.6466(10)
O2 O 0.518(5) 0.482(3) 0.7067(10)
O3 O 0.846(5) 0.669(3) 0.7442(9)
H1 H 0.7962 0.7477 0.7626
C1 C 0.592(7) 0.403(4) 0.6496(13)
C2 C 0.787(6) 0.639(4) 0.6273(13)
C3 C 0.758(7) 0.514(4) 0.6017(15)
C4 C 0.831(8) 0.943(3) 0.6363(13)
H2 H 0.8613 1.0323 0.6105
H3 H 0.9589 0.9466 0.6771
H4 H 0.6082 0.9331 0.6484
C5 C 0.620(7) 0.633(4) 0.6961(13)
H5 H 0.4368 0.7015 0.6977
loop_
_geom_bond_atom_site_label_1
_geom_bond_atom_site_label_2
_geom_bond_site_symmetry_1
_geom_bond_site_symmetry_2
Br1 C3 1_555 1_555
S1 C2 1_555 1_555
O1 C1 1_555 1_555
O2 C1 1_555 1_555
O3 H1 1_555 1_555
C1 C3 1_555 1_555
C2 C3 1_555 1_555
C4 S1 1_555 1_555
H2 C4 1_555 1_555
H3 C4 1_555 1_555
H4 C4 1_555 1_555
C5 O2 1_555 1_555
H5 C5 1_555 1_555
O3 C5 1_555 1_555
C2 C5 1_555 1_555

#END
