
#######################################################################
#
#                 Cambridge Crystallographic Data Centre
#                                CCDC 
#
#######################################################################
#
# If this CIF has been generated from an entry in the Cambridge 
# Structural Database, then it will include bibliographic, chemical, 
# crystal, experimental, refinement or atomic coordinate data resulting 
# from the CCDC's data processing and validation procedures.
#
#######################################################################

data_HEFJEK
_chemical_formula_moiety         'C19 H21 O5 P1'
_chemical_name_systematic        
'(E)-Ethyl 3-(1-ethoxy-1-oxido-3,4-dihydro-1H-naphtho[1,2-c][1,2]oxaphosphinin-3-yl)acrylate'
_symmetry_cell_setting           monoclinic
_symmetry_space_group_name_H-M   'P 21/c'
_symmetry_Int_Tables_number      14
_space_group_name_Hall           '-P 2ybc'
loop_
_symmetry_equiv_pos_site_id
_symmetry_equiv_pos_as_xyz
1 x,y,z
2 -x,1/2+y,1/2-z
3 -x,-y,-z
4 x,1/2-y,1/2+z
_cell_length_a                   8.7968(4)
_cell_length_b                   9.9107(5)
_cell_length_c                   21.0398(10)
_cell_angle_alpha                90
_cell_angle_beta                 91.937(2)
_cell_angle_gamma                90
_cell_volume                     1833.25
_exptl_crystal_colour            colorless
_exptl_crystal_description       block
_cell_formula_units_Z            4
loop_
_atom_site_label
_atom_site_type_symbol
_atom_site_fract_x
_atom_site_fract_y
_atom_site_fract_z
C1 C 0.3096(6) 0.1780(5) 0.4448(2)
C2 C 0.2164(5) 0.2546(5) 0.4862(2)
C3 C 0.2737(6) 0.3602(6) 0.5250(3)
H1 H 0.3757 0.3842 0.5233
C4 C 0.1816(7) 0.4273(7) 0.5647(3)
H2 H 0.2223 0.4954 0.5905
C5 C 0.0284(7) 0.3964(7) 0.5678(3)
H3 H -0.0327 0.4425 0.5958
C6 C -0.0322(7) 0.2978(7) 0.5293(3)
H4 H -0.1353 0.2777 0.5308
C7 C 0.0599(6) 0.2262(6) 0.4875(3)
C8 C -0.0022(7) 0.1229(6) 0.4481(3)
H5 H -0.1061 0.1052 0.4482
C9 C 0.0876(7) 0.0498(6) 0.4104(3)
H6 H 0.0444 -0.0178 0.385
C10 C 0.2467(6) 0.0738(6) 0.4088(3)
C11 C 0.3393(7) -0.0161(6) 0.3679(3)
H7 H 0.33 0.015 0.3242
H8 H 0.2983 -0.1069 0.3693
C12 C 0.5050(7) -0.0200(6) 0.3881(3)
H9 H 0.5128 -0.0504 0.4324
C13 C 0.5958(8) -0.1119(7) 0.3496(3)
H10 H 0.5557 -0.1977 0.3427
C14 C 0.7226(8) -0.0878(7) 0.3245(3)
H11 H 0.7661 -0.0027 0.3294
C15 C 0.8032(9) -0.1922(8) 0.2874(3)
C16 C 1.0230(13) -0.2430(11) 0.2321(6)
H12 H 1.057 -0.3176 0.2587
H13 H 0.9592 -0.2792 0.1976
C17 C 1.1412(15) -0.1827(11) 0.2085(5)
H14 H 1.1094 -0.1002 0.1882
H15 H 1.1866 -0.2408 0.178
H16 H 1.2142 -0.163 0.2422
C18 C 0.4430(9) 0.3911(8) 0.3478(4)
C19 C 0.424(2) 0.5387(17) 0.3397(8)
O1 O 0.5967(4) 0.2109(4) 0.49877(19)
O2 O 0.5226(4) 0.3582(4) 0.40731(18)
O3 O 0.5634(4) 0.1170(4) 0.38535(18)
O4 O 0.7533(6) -0.3017(6) 0.2741(3)
O5 O 0.9346(6) -0.1495(6) 0.2694(3)
P1 P 0.50756(15) 0.21610(15) 0.43944(7)
C20? C 0.3522(19) 0.5153(17) 0.3595(8)
loop_
_geom_bond_atom_site_label_1
_geom_bond_atom_site_label_2
_geom_bond_site_symmetry_1
_geom_bond_site_symmetry_2
C1 C2 1_555 1_555
C2 C3 1_555 1_555
C3 H1 1_555 1_555
C4 C3 1_555 1_555
H2 C4 1_555 1_555
C5 C4 1_555 1_555
H3 C5 1_555 1_555
C6 C5 1_555 1_555
H4 C6 1_555 1_555
C7 C2 1_555 1_555
C8 C7 1_555 1_555
H5 C8 1_555 1_555
C9 C8 1_555 1_555
H6 C9 1_555 1_555
C10 C1 1_555 1_555
C11 C10 1_555 1_555
H7 C11 1_555 1_555
H8 C11 1_555 1_555
C12 C11 1_555 1_555
H9 C12 1_555 1_555
C13 C12 1_555 1_555
H10 C13 1_555 1_555
C14 C13 1_555 1_555
H11 C14 1_555 1_555
C15 C14 1_555 1_555
C16 H12 1_555 1_555
H13 C16 1_555 1_555
C17 C16 1_555 1_555
H14 C17 1_555 1_555
H15 C17 1_555 1_555
H16 C17 1_555 1_555
C18 C19 1_555 1_555
O1 P1 1_555 1_555
O2 C18 1_555 1_555
O3 C12 1_555 1_555
O4 C15 1_555 1_555
O5 C15 1_555 1_555
P1 C1 1_555 1_555
C6 C7 1_555 1_555
C9 C10 1_555 1_555
C16 O5 1_555 1_555
O2 P1 1_555 1_555
O3 P1 1_555 1_555

#END
