
#######################################################################
#
#                 Cambridge Crystallographic Data Centre
#                                CCDC 
#
#######################################################################
#
# If this CIF has been generated from an entry in the Cambridge 
# Structural Database, then it will include bibliographic, chemical, 
# crystal, experimental, refinement or atomic coordinate data resulting 
# from the CCDC's data processing and validation procedures.
#
#######################################################################

data_HEFKUB
_chemical_formula_moiety         'C23 H18 O2 S1'
_chemical_name_systematic        
2-[(4-methylphenyl)sulfonyl]-1-phenylnaphthalene
_symmetry_cell_setting           monoclinic
_symmetry_space_group_name_H-M   'P 21/c'
_symmetry_Int_Tables_number      14
_space_group_name_Hall           '-P 2ybc'
loop_
_symmetry_equiv_pos_site_id
_symmetry_equiv_pos_as_xyz
1 x,y,z
2 -x,1/2+y,1/2-z
3 -x,-y,-z
4 x,1/2-y,1/2+z
_cell_length_a                   16.7429(6)
_cell_length_b                   12.7025(4)
_cell_length_c                   8.7417(4)
_cell_angle_alpha                90
_cell_angle_beta                 96.192(4)
_cell_angle_gamma                90
_cell_volume                     1848.31
_exptl_crystal_colour            'light yellow'
_exptl_crystal_description       block
_cell_formula_units_Z            4
loop_
_atom_site_label
_atom_site_type_symbol
_atom_site_fract_x
_atom_site_fract_y
_atom_site_fract_z
S1 S 0.30001(4) 0.95925(5) 0.09523(8)
O1 O 0.32659(12) 0.89391(14) 0.2258(2)
O2 O 0.29687(10) 1.07044(12) 0.1199(2)
C1 C 0.16122(14) 0.95342(15) -0.1083(3)
C2 C 0.20180(14) 0.91583(16) 0.0261(3)
C3 C 0.16474(19) 0.84598(18) 0.1232(3)
H1 H 0.1934 0.8201 0.2124
C4 C 0.0871(2) 0.8170(2) 0.0855(4)
H2 H 0.0635 0.7697 0.1483
C5 C 0.04173(17) 0.85649(18) -0.0455(4)
C6 C -0.0406(2) 0.8309(2) -0.0821(5)
H3 H -0.0649 0.7837 -0.0204
C7 C -0.0841(2) 0.8740(3) -0.2047(5)
H4 H -0.1381 0.8570 -0.2261
C8 C -0.04877(17) 0.9435(2) -0.2993(4)
H5 H -0.0796 0.9738 -0.3827
C9 C 0.03099(15) 0.9680(2) -0.2711(3)
H6 H 0.0541 1.0133 -0.3375
C10 C 0.07844(14) 0.92604(16) -0.1437(3)
C11 C 0.20034(13) 1.01750(16) -0.2216(3)
C12 C 0.22547(15) 0.96846(19) -0.3493(3)
H7 H 0.2173 0.8965 -0.3627
C13 C 0.26238(16) 1.0243(2) -0.4569(3)
H8 H 0.2795 0.9902 -0.5416
C14 C 0.27386(16) 1.1314(2) -0.4382(4)
H9 H 0.2985 1.1698 -0.5106
C15 C 0.24886(16) 1.1808(2) -0.3125(4)
H10 H 0.2570 1.2529 -0.2996
C16 C 0.21191(14) 1.12508(17) -0.2053(3)
H11 H 0.1946 1.1598 -0.1212
C17 C 0.36341(14) 0.93485(16) -0.0478(3)
C18 C 0.37661(15) 0.83187(17) -0.0920(3)
H12 H 0.3496 0.7765 -0.0506
C19 C 0.42981(16) 0.8126(2) -0.1971(3)
H13 H 0.4379 0.7437 -0.2279
C20 C 0.47182(15) 0.8931(2) -0.2585(3)
C21 C 0.45786(16) 0.9950(2) -0.2123(3)
H14 H 0.4857 1.0502 -0.2521
C22 C 0.40375(15) 1.01650(18) -0.1091(3)
H15 H 0.3944 1.0856 -0.0809
C23 C 0.53249(19) 0.8695(3) -0.3698(4)
H16 H 0.5057 0.8383 -0.4614
H17 H 0.5722 0.8216 -0.3229
H18 H 0.5581 0.9337 -0.3959
loop_
_geom_bond_atom_site_label_1
_geom_bond_atom_site_label_2
_geom_bond_site_symmetry_1
_geom_bond_site_symmetry_2
S1 O1 1_555 1_555
O2 S1 1_555 1_555
C1 C2 1_555 1_555
C2 S1 1_555 1_555
C3 C2 1_555 1_555
H1 C3 1_555 1_555
C4 C3 1_555 1_555
H2 C4 1_555 1_555
C5 C4 1_555 1_555
C6 C5 1_555 1_555
H3 C6 1_555 1_555
C7 C6 1_555 1_555
H4 C7 1_555 1_555
C8 C7 1_555 1_555
H5 C8 1_555 1_555
C9 C8 1_555 1_555
H6 C9 1_555 1_555
C10 C1 1_555 1_555
C11 C1 1_555 1_555
C12 C11 1_555 1_555
H7 C12 1_555 1_555
C13 C12 1_555 1_555
H8 C13 1_555 1_555
C14 C13 1_555 1_555
H9 C14 1_555 1_555
C15 C14 1_555 1_555
H10 C15 1_555 1_555
C16 C11 1_555 1_555
H11 C16 1_555 1_555
C17 S1 1_555 1_555
C18 C17 1_555 1_555
H12 C18 1_555 1_555
C19 C18 1_555 1_555
H13 C19 1_555 1_555
C20 C19 1_555 1_555
C21 C20 1_555 1_555
H14 C21 1_555 1_555
C22 C17 1_555 1_555
H15 C22 1_555 1_555
C23 C20 1_555 1_555
H16 C23 1_555 1_555
H17 C23 1_555 1_555
H18 C23 1_555 1_555
C5 C10 1_555 1_555
C9 C10 1_555 1_555
C15 C16 1_555 1_555
C21 C22 1_555 1_555

#END
