
#######################################################################
#
#                 Cambridge Crystallographic Data Centre
#                                CCDC 
#
#######################################################################
#
# If this CIF has been generated from an entry in the Cambridge 
# Structural Database, then it will include bibliographic, chemical, 
# crystal, experimental, refinement or atomic coordinate data resulting 
# from the CCDC's data processing and validation procedures.
#
#######################################################################

data_HEFKIP
_chemical_formula_moiety         'C24 H30 N2 O5 S1'
_chemical_name_systematic        
'propan-2-yl 2-[(dimethylsulfamoyl)amino]-4-(4-methoxyphenyl)-6-phenylhexa-2,5-dienoate'
_symmetry_cell_setting           triclinic
_symmetry_space_group_name_H-M   'P -1'
_symmetry_Int_Tables_number      2
_space_group_name_Hall           '-P 1'
loop_
_symmetry_equiv_pos_site_id
_symmetry_equiv_pos_as_xyz
1 x,y,z
2 -x,-y,-z
_cell_length_a                   9.7590(5)
_cell_length_b                   10.8797(6)
_cell_length_c                   13.4128(8)
_cell_angle_alpha                67.193(4)
_cell_angle_beta                 84.641(4)
_cell_angle_gamma                65.680(3)
_cell_volume                     1192.54
_exptl_crystal_colour            white
_exptl_crystal_description       plate
_cell_formula_units_Z            2
loop_
_atom_site_label
_atom_site_type_symbol
_atom_site_fract_x
_atom_site_fract_y
_atom_site_fract_z
S1 S 0.58913(12) 0.77447(11) 0.48160(10)
O1 O 0.6852(3) 0.6223(3) 0.5274(3)
O2 O 0.6517(3) 0.8820(3) 0.4449(3)
O3 O 0.1804(4) 0.6906(3) 0.6579(3)
O4 O 0.1947(4) 0.8803(4) 0.5173(3)
N1 N 0.4839(4) 0.8124(4) 0.5784(3)
H1 H 0.4740 0.8889 0.5912
N2 N 0.4924(5) 0.8010(4) 0.3786(3)
C1 C 0.4083(5) 0.7225(5) 0.6419(4)
C2 C 0.2502(5) 0.7737(5) 0.5982(4)
O5 O 0.6273(7) 0.7968(6) 1.1043(4)
C3 C 0.4697(5) 0.6117(5) 0.7347(4)
H2 H 0.4109 0.5600 0.7737
C4 C 0.6261(6) 0.5608(5) 0.7837(4)
H3 H 0.6829 0.6050 0.7252
C5 C 0.6195(6) 0.6178(6) 0.8766(4)
C6 C 0.0278(5) 0.7277(6) 0.6155(5)
H4 H -0.0183 0.8330 0.5656
C7 C 0.8218(7) 0.3359(6) 0.7731(5)
H5 H 0.8542 0.3997 0.7152
C8 C 0.7066(6) 0.3970(6) 0.8198(5)
H6 H 0.6716 0.3369 0.8787
C9 C 0.9099(7) 0.1754(6) 0.8003(5)
C10 C 0.4522(7) 0.6851(6) 0.3785(5)
H7 H 0.3638 0.6861 0.4198
H8 H 0.5371 0.5901 0.4120
H9 H 0.4290 0.7016 0.3037
C11 C 0.8710(8) 0.0742(6) 0.8773(6)
H10 H 0.7866 0.1015 0.9179
C12 C 0.9608(8) -0.0755(7) 0.8958(6)
H11 H 0.9345 -0.1483 0.9495
C13 C 0.7359(8) 0.6000(7) 1.0389(5)
H12 H 0.8148 0.5461 1.0954
C14 C -0.0640(6) 0.7023(7) 0.7093(6)
H13 H -0.0226 0.5980 0.7556
H14 H -0.1683 0.7339 0.6834
H15 H -0.0618 0.7582 0.7510
C15 C 1.0771(10) -0.1162(8) 0.8420(7)
H16 H 1.1357 -0.2171 0.8576
C16 C 0.3878(7) 0.9506(7) 0.3143(5)
H17 H 0.3837 0.9638 0.2379
H18 H 0.4228 1.0196 0.3213
H19 H 0.2870 0.9685 0.3405
C17 C 0.7271(7) 0.5434(7) 0.9592(5)
H20 H 0.8005 0.4496 0.9656
C18 C 0.6308(9) 0.7291(7) 1.0307(5)
C19 C 0.0442(7) 0.6338(9) 0.5539(6)
H21 H 0.1072 0.6539 0.4937
H22 H -0.0556 0.6556 0.5254
H23 H 0.0916 0.5306 0.6025
C20 C 0.5184(9) 0.8089(8) 0.9519(6)
H24 H 0.4437 0.9007 0.9484
C21 C 1.0254(9) 0.1361(7) 0.7420(6)
H25 H 1.0491 0.2084 0.6855
C22 C 0.5143(8) 0.7512(8) 0.8723(6)
H26 H 0.4363 0.8073 0.8152
C23 C 0.7426(10) 0.7238(10) 1.1827(7)
H27 H 0.7387 0.6313 1.2315
H28 H 0.7338 0.7835 1.2240
H29 H 0.8388 0.7040 1.1491
C24 C 1.1139(10) -0.0150(9) 0.7646(7)
H30 H 1.1987 -0.0437 0.7247
loop_
_geom_bond_atom_site_label_1
_geom_bond_atom_site_label_2
_geom_bond_site_symmetry_1
_geom_bond_site_symmetry_2
S1 O1 1_555 1_555
O2 S1 1_555 1_555
O3 C2 1_555 1_555
O4 C2 1_555 1_555
N1 S1 1_555 1_555
H1 N1 1_555 1_555
N2 S1 1_555 1_555
C1 N1 1_555 1_555
C2 C1 1_555 1_555
O5 C18 1_555 1_555
C3 C1 1_555 1_555
H2 C3 1_555 1_555
C4 C3 1_555 1_555
H3 C4 1_555 1_555
C5 C4 1_555 1_555
C6 O3 1_555 1_555
H4 C6 1_555 1_555
C7 H5 1_555 1_555
C8 C4 1_555 1_555
H6 C8 1_555 1_555
C9 C7 1_555 1_555
C10 N2 1_555 1_555
H7 C10 1_555 1_555
H8 C10 1_555 1_555
H9 C10 1_555 1_555
C11 C9 1_555 1_555
H10 C11 1_555 1_555
C12 C11 1_555 1_555
H11 C12 1_555 1_555
C13 H12 1_555 1_555
C14 C6 1_555 1_555
H13 C14 1_555 1_555
H14 C14 1_555 1_555
H15 C14 1_555 1_555
C15 C12 1_555 1_555
H16 C15 1_555 1_555
C16 N2 1_555 1_555
H17 C16 1_555 1_555
H18 C16 1_555 1_555
H19 C16 1_555 1_555
C17 C5 1_555 1_555
H20 C17 1_555 1_555
C18 C13 1_555 1_555
C19 C6 1_555 1_555
H21 C19 1_555 1_555
H22 C19 1_555 1_555
H23 C19 1_555 1_555
C20 C18 1_555 1_555
H24 C20 1_555 1_555
C21 C9 1_555 1_555
H25 C21 1_555 1_555
C22 C5 1_555 1_555
H26 C22 1_555 1_555
C23 O5 1_555 1_555
H27 C23 1_555 1_555
H28 C23 1_555 1_555
H29 C23 1_555 1_555
C24 C15 1_555 1_555
H30 C24 1_555 1_555
C7 C8 1_555 1_555
C13 C17 1_555 1_555
C20 C22 1_555 1_555
C21 C24 1_555 1_555

#END
