
#######################################################################
#
#                 Cambridge Crystallographic Data Centre
#                                CCDC 
#
#######################################################################
#
# If this CIF has been generated from an entry in the Cambridge 
# Structural Database, then it will include bibliographic, chemical, 
# crystal, experimental, refinement or atomic coordinate data resulting 
# from the CCDC's data processing and validation procedures.
#
#######################################################################

data_HEFMAG
_chemical_formula_moiety         'C19 H35 Cl2 N2 O7 P1'
_chemical_name_systematic        
'1,2:5,6-Di-O-isopropylidene-\a-D-glucofuranosyl N,N-bis(2-chloroethyl)phosphordiamidate'
_symmetry_cell_setting           orthorhombic
_symmetry_space_group_name_H-M   'P 21 21 21'
_symmetry_Int_Tables_number      19
_space_group_name_Hall           'P 2ac 2ab'
loop_
_symmetry_equiv_pos_site_id
_symmetry_equiv_pos_as_xyz
1 x,y,z
2 1/2+x,1/2-y,-z
3 -x,1/2+y,1/2-z
4 1/2-x,-y,1/2+z
_cell_length_a                   9.996(3)
_cell_length_b                   22.149(5)
_cell_length_c                   11.958(3)
_cell_angle_alpha                90
_cell_angle_beta                 90
_cell_angle_gamma                90
_cell_volume                     2647.52
_exptl_crystal_colour            colorless
_chemical_melting_point          110-110.5deg.C
_cell_formula_units_Z            4
loop_
_atom_site_label
_atom_site_type_symbol
_atom_site_fract_x
_atom_site_fract_y
_atom_site_fract_z
P1 P 0.9005(2) 0.2794(1) 0.4802(2)
Cl1 Cl 1.0977(4) 0.4817(1) 0.4147(5)
Cl2 Cl 0.8270(5) 0.3536(3) 0.1228(3)
O1 O 1.0440(5) 0.2706(3) 0.4990(6)
O2 O 0.8228(5) 0.3030(3) 0.5894(5)
O3 O 0.8851(6) 0.1948(3) 0.8089(6)
O4 O 0.7087(6) 0.2220(3) 0.9090(6)
O5 O 0.7983(8) 0.4866(3) 0.8336(7)
O6 O 0.9190(7) 0.4175(3) 0.7388(7)
O7 O 0.6698(8) 0.3055(3) 0.8008(6)
N1 N 0.8187(6) 0.2186(3) 0.4445(6)
N2 N 0.8713(7) 0.3326(3) 0.3850(6)
C1 C 0.8606(8) 0.2846(4) 0.6987(7)
C2 C 0.7996(8) 0.2225(4) 0.7296(8)
C3 C 0.6762(9) 0.2408(5) 0.8001(9)
C4 C 0.8023(9) 0.3287(4) 0.7834(8)
C5 C 0.8127(9) 0.1781(5) 0.9070(9)
C6 C 0.907(1) 0.1885(6) 1.007(1)
C7 C 0.756(1) 0.1178(5) 0.896(1)
C8 C 0.7861(9) 0.3954(5) 0.746(1)
C9 C 0.722(1) 0.4325(4) 0.836(1)
C10 C 0.930(1) 0.4759(5) 0.793(1)
C11 C 0.979(2) 0.5217(6) 0.725(2)
C12 C 1.010(2) 0.4679(9) 0.894(2)
C13 C 0.8733(8) 0.1698(4) 0.370(9)
C14 C 0.754(1) 0.1411(6) 0.308(1)
C15 C 0.943(1) 0.1231(5) 0.440(1)
C16 C 0.980(1) 0.3755(6) 0.372(1)
C17 C 0.955(1) 0.4231(6) 0.451(1)
C18 C 0.7384(8) 0.3428(5) 0.3393(8)
C19 C 0.727(3) 0.3173(8) 0.224(1)
loop_
_geom_bond_atom_site_label_1
_geom_bond_atom_site_label_2
_geom_bond_site_symmetry_1
_geom_bond_site_symmetry_2
P1 O1 1_555 1_555
Cl1 C17 1_555 1_555
Cl2 C19 1_555 1_555
O2 P1 1_555 1_555
O3 C2 1_555 1_555
O4 C3 1_555 1_555
O5 C9 1_555 1_555
O6 C8 1_555 1_555
O7 C3 1_555 1_555
N1 P1 1_555 1_555
N2 P1 1_555 1_555
C1 O2 1_555 1_555
C2 C1 1_555 1_555
C3 C2 1_555 1_555
C4 O7 1_555 1_555
C5 O3 1_555 1_555
C6 C5 1_555 1_555
C7 C5 1_555 1_555
C8 C4 1_555 1_555
C9 C8 1_555 1_555
C10 O5 1_555 1_555
C11 C10 1_555 1_555
C12 C10 1_555 1_555
C13 N1 1_555 1_555
C14 C13 1_555 1_555
C15 C13 1_555 1_555
C16 N2 1_555 1_555
C17 C16 1_555 1_555
C18 N2 1_555 1_555
C19 C18 1_555 1_555
O4 C5 1_555 1_555
O6 C10 1_555 1_555
C1 C4 1_555 1_555

#END
