
#######################################################################
#
#                 Cambridge Crystallographic Data Centre
#                                CCDC 
#
#######################################################################
#
# If this CIF has been generated from an entry in the Cambridge 
# Structural Database, then it will include bibliographic, chemical, 
# crystal, experimental, refinement or atomic coordinate data resulting 
# from the CCDC's data processing and validation procedures.
#
#######################################################################

data_HEFNEO
_chemical_formula_moiety         'C24 H21 Br1 O7'
_chemical_name_systematic        
'trimethyl 1-(4-bromophenyl)-8-oxo-1,2,3a,8-tetrahydrocyclopenta[a]indene-3,3,8a-tricarboxylate'
_symmetry_cell_setting           orthorhombic
_symmetry_space_group_name_H-M   'P b c n'
_symmetry_Int_Tables_number      60
_space_group_name_Hall           '-P 2n 2ab'
loop_
_symmetry_equiv_pos_site_id
_symmetry_equiv_pos_as_xyz
1 x,y,z
2 1/2-x,1/2-y,1/2+z
3 -x,y,1/2-z
4 1/2+x,1/2-y,-z
5 -x,-y,-z
6 1/2+x,1/2+y,1/2-z
7 x,-y,1/2+z
8 1/2-x,1/2+y,z
_cell_length_a                   20.3199(18)
_cell_length_b                   16.5043(15)
_cell_length_c                   13.0159(12)
_cell_angle_alpha                90
_cell_angle_beta                 90
_cell_angle_gamma                90
_cell_volume                     4365.09
_exptl_crystal_colour            colorless
_exptl_crystal_description       prismatic
_cell_formula_units_Z            8
loop_
_atom_site_label
_atom_site_type_symbol
_atom_site_fract_x
_atom_site_fract_y
_atom_site_fract_z
Br1 Br 0.48520(2) 0.08192(3) 0.60677(4)
O1 O 0.70651(11) 0.22734(15) 0.36754(18)
O2 O 0.94292(12) 0.08991(14) 0.6419(2)
O3 O 0.99909(10) 0.19335(13) 0.57555(18)
O4 O 0.88171(15) 0.35759(15) 0.62467(19)
O5 O 0.92201(10) 0.28035(13) 0.74936(16)
O6 O 0.74227(13) 0.38787(14) 0.5254(2)
O7 O 0.81126(12) 0.37150(13) 0.39271(17)
C1 C 0.80851(15) 0.15483(18) 0.3616(2)
C2 C 0.79922(18) 0.10065(19) 0.2814(3)
H1 H 0.7587 0.0962 0.2488
C3 C 0.85193(19) 0.0535(2) 0.2514(3)
H2 H 0.8472 0.0164 0.1982
C4 C 0.91146(19) 0.0616(2) 0.3004(3)
H3 H 0.9463 0.0286 0.2806
C5 C 0.92139(17) 0.1176(2) 0.3788(3)
H4 H 0.9625 0.1236 0.4092
C6 C 0.86841(15) 0.16441(18) 0.4104(2)
C7 C 0.86669(13) 0.23342(17) 0.4871(2)
H5 H 0.8930 0.2792 0.4623
C8 C 0.79231(14) 0.25718(18) 0.4923(2)
C9 C 0.76076(15) 0.21284(19) 0.4012(2)
C10 C 0.88514(14) 0.21274(18) 0.5996(2)
C11 C 0.82247(14) 0.17240(19) 0.6398(2)
H6 H 0.8223 0.1709 0.7143
H7 H 0.8185 0.1175 0.6138
C12 C 0.76662(14) 0.22580(18) 0.5994(2)
H8 H 0.7646 0.2732 0.6446
C13 C 0.69864(15) 0.18773(19) 0.6013(2)
C14 C 0.64449(16) 0.2352(2) 0.6230(3)
H9 H 0.6506 0.2901 0.6359
C15 C 0.58159(17) 0.2039(2) 0.6261(3)
H10 H 0.5460 0.2372 0.6413
C16 C 0.57214(16) 0.1231(2) 0.6065(2)
C17 C 0.62499(17) 0.0737(2) 0.5860(3)
H11 H 0.6188 0.0186 0.5743
C18 C 0.68720(17) 0.1065(2) 0.5831(3)
H12 H 0.7227 0.0729 0.5685
C19 C 0.94475(15) 0.1578(2) 0.6094(2)
C20 C 1.05885(16) 0.1458(2) 0.5810(3)
H13 H 1.0648 0.1263 0.6498
H14 H 1.0957 0.1789 0.5619
H15 H 1.0556 0.1006 0.5348
C21 C 0.89652(14) 0.2926(2) 0.6572(3)
C22 C 0.92689(17) 0.3508(2) 0.8158(3)
H16 H 0.9462 0.3949 0.7784
H17 H 0.9540 0.3380 0.8740
H18 H 0.8838 0.3660 0.8389
C23 C 0.77876(16) 0.34633(19) 0.4761(3)
C24 C 0.7994(2) 0.4531(2) 0.3589(3)
H19 H 0.7529 0.4613 0.3503
H20 H 0.8213 0.4621 0.2946
H21 H 0.8159 0.4904 0.4093
loop_
_geom_bond_atom_site_label_1
_geom_bond_atom_site_label_2
_geom_bond_site_symmetry_1
_geom_bond_site_symmetry_2
Br1 C16 1_555 1_555
O1 C9 1_555 1_555
O2 C19 1_555 1_555
O3 C19 1_555 1_555
O4 C21 1_555 1_555
O5 C21 1_555 1_555
O6 C23 1_555 1_555
O7 C23 1_555 1_555
C1 C2 1_555 1_555
C2 H1 1_555 1_555
C3 C2 1_555 1_555
H2 C3 1_555 1_555
C4 C3 1_555 1_555
H3 C4 1_555 1_555
C5 C4 1_555 1_555
H4 C5 1_555 1_555
C6 C1 1_555 1_555
C7 C6 1_555 1_555
H5 C7 1_555 1_555
C8 C7 1_555 1_555
C9 C1 1_555 1_555
C10 C7 1_555 1_555
C11 C10 1_555 1_555
H6 C11 1_555 1_555
H7 C11 1_555 1_555
C12 C8 1_555 1_555
H8 C12 1_555 1_555
C13 C12 1_555 1_555
C14 C13 1_555 1_555
H9 C14 1_555 1_555
C15 C14 1_555 1_555
H10 C15 1_555 1_555
C16 C15 1_555 1_555
C17 C16 1_555 1_555
H11 C17 1_555 1_555
C18 C13 1_555 1_555
H12 C18 1_555 1_555
C19 C10 1_555 1_555
C20 O3 1_555 1_555
H13 C20 1_555 1_555
H14 C20 1_555 1_555
H15 C20 1_555 1_555
C21 C10 1_555 1_555
C22 O5 1_555 1_555
H16 C22 1_555 1_555
H17 C22 1_555 1_555
H18 C22 1_555 1_555
C23 C8 1_555 1_555
C24 O7 1_555 1_555
H19 C24 1_555 1_555
H20 C24 1_555 1_555
H21 C24 1_555 1_555
C5 C6 1_555 1_555
C8 C9 1_555 1_555
C11 C12 1_555 1_555
C17 C18 1_555 1_555

#END
