
#######################################################################
#
#                 Cambridge Crystallographic Data Centre
#                                CCDC 
#
#######################################################################
#
# If this CIF has been generated from an entry in the Cambridge 
# Structural Database, then it will include bibliographic, chemical, 
# crystal, experimental, refinement or atomic coordinate data resulting 
# from the CCDC's data processing and validation procedures.
#
#######################################################################

data_HEFPOY
_chemical_formula_moiety         'C32 H42 S2 Si4'
_chemical_name_systematic        
4,4,7,7-Tetramethyl-5,6-diphenyl-2,9-bis(trimethylsilyl)dithieno[3,2-e:2',3'-g]-4,7-disilacyclooctatriene
_symmetry_cell_setting           triclinic
_symmetry_space_group_name_H-M   'P -1'
_symmetry_Int_Tables_number      2
_space_group_name_Hall           '-P 1'
loop_
_symmetry_equiv_pos_site_id
_symmetry_equiv_pos_as_xyz
1 x,y,z
2 -x,-y,-z
_cell_length_a                   11.395(1)
_cell_length_b                   11.788(1)
_cell_length_c                   14.173(1)
_cell_angle_alpha                87.39(1)
_cell_angle_beta                 72.44(1)
_cell_angle_gamma                87.36(1)
_cell_volume                     1812.14
_exptl_crystal_colour            'pale red'
_exptl_crystal_description       block
_chemical_melting_point          250-252deg.C
_cell_formula_units_Z            2
loop_
_atom_site_label
_atom_site_type_symbol
_atom_site_fract_x
_atom_site_fract_y
_atom_site_fract_z
Si1 Si 0.47866(7) 0.37904(8) 0.16399(6)
Si2 Si 0.22558(6) 0.38900(6) 0.39946(5)
Si3 Si 0.15175(10) 0.21871(10) -0.04652(7)
Si4 Si 0.16976(10) 0.87967(7) 0.32397(7)
S1 S 0.12276(7) 0.41432(7) 0.10301(6)
S2 S 0.19047(8) 0.67027(6) 0.19250(6)
C1 C 0.2314(2) 0.4402(2) 0.16163(19)
C2 C 0.3289(2) 0.3630(2) 0.13738(19)
C3 C 0.3091(3) 0.2818(2) 0.0719(2)
H1 H 0.3649 0.2218 0.0488
C4 C 0.2039(3) 0.2971(3) 0.0451(2)
C5 C 0.2130(2) 0.5320(2) 0.2302(2)
C6 C 0.2197(2) 0.5246(2) 0.32592(19)
C7 C 0.2079(2) 0.6359(2) 0.3653(2)
H2 H 0.2113 0.6476 0.4289
C8 C 0.1914(3) 0.7239(2) 0.3036(2)
C9 C 0.5930(3) 0.2854(5) 0.0755(3)
H3 H 0.6722 0.2900 0.0856
H4 H 0.5984 0.3099 0.0088
H5 H 0.5671 0.2083 0.0866
C10 C 0.5262(4) 0.5291(4) 0.1399(3)
H6 H 0.6030 0.5367 0.1536
H7 H 0.4643 0.5778 0.1818
H8 H 0.5360 0.5502 0.0718
C11 C 0.1251(3) 0.2809(3) 0.3740(3)
H9 H 0.1298 0.2125 0.4123
H10 H 0.1525 0.2646 0.3048
H11 H 0.0415 0.3100 0.3917
C12 C 0.1637(3) 0.4253(3) 0.5331(2)
H12 H 0.1649 0.3582 0.5738
H13 H 0.0807 0.4550 0.5464
H14 H 0.2139 0.4813 0.5474
C13 C 0.1647(4) 0.3110(4) -0.1584(3)
H15 H 0.1380 0.2709 -0.2053
H16 H 0.2489 0.3314 -0.1875
H17 H 0.1139 0.3786 -0.1402
C14 C 0.2545(6) 0.0906(4) -0.0790(4)
H18 H 0.2466 0.0432 -0.0207
H19 H 0.3383 0.1132 -0.1059
H20 H 0.2319 0.0492 -0.1273
C15 C -0.0132(5) 0.1837(6) 0.0087(4)
H21 H -0.0222 0.1355 0.0667
H22 H -0.0405 0.1451 -0.0387
H23 H -0.0619 0.2525 0.0265
C16 C 0.0170(5) 0.9261(4) 0.3116(5)
H24 H 0.0041 1.0063 0.3220
H25 H -0.0464 0.8858 0.3601
H26 H 0.0142 0.9104 0.2465
C17 C 0.2933(6) 0.9554(4) 0.2292(4)
H27 H 0.2827 1.0356 0.2395
H28 H 0.2890 0.9402 0.1644
H29 H 0.3722 0.9295 0.2348
C18 C 0.1779(4) 0.9052(3) 0.4499(3)
H30 H 0.1671 0.9851 0.4619
H31 H 0.2568 0.8787 0.4551
H32 H 0.1141 0.8650 0.4980
C19 C 0.4815(2) 0.3315(2) 0.29254(19)
C20 C 0.3880(2) 0.3289(2) 0.37784(18)
C21 C 0.6093(2) 0.2916(2) 0.29203(18)
C22 C 0.6945(2) 0.3700(3) 0.2946(2)
H33 H 0.6714 0.4467 0.2994
C23 C 0.8144(3) 0.3360(3) 0.2903(3)
H34 H 0.8705 0.3898 0.2928
C24 C 0.8498(3) 0.2238(3) 0.2824(2)
H35 H 0.9301 0.2012 0.2792
C25 C 0.7671(3) 0.1447(3) 0.2792(3)
H36 H 0.7913 0.0683 0.2737
C26 C 0.6472(3) 0.1783(2) 0.2840(2)
H37 H 0.5915 0.1239 0.2819
C27 C 0.4103(2) 0.2749(2) 0.46941(19)
C28 C 0.4631(4) 0.3300(4) 0.5279(3)
H38 H 0.4865 0.4047 0.5121
C29 C 0.4823(5) 0.2741(7) 0.6120(4)
H39 H 0.5194 0.3114 0.6513
C30 C 0.4465(6) 0.1656(9) 0.6357(5)
H40 H 0.4576 0.1291 0.6921
C31 C 0.3951(6) 0.1110(6) 0.5780(5)
H41 H 0.3718 0.0363 0.5941
C32 C 0.3767(4) 0.1646(3) 0.4952(3)
H42 H 0.3409 0.1255 0.4559
loop_
_geom_bond_atom_site_label_1
_geom_bond_atom_site_label_2
_geom_bond_site_symmetry_1
_geom_bond_site_symmetry_2
Si1 C2 1_555 1_555
Si2 C6 1_555 1_555
Si3 C4 1_555 1_555
Si4 C8 1_555 1_555
S1 C1 1_555 1_555
S2 C5 1_555 1_555
C1 C2 1_555 1_555
C2 C3 1_555 1_555
C3 H1 1_555 1_555
C4 S1 1_555 1_555
C5 C1 1_555 1_555
C6 C5 1_555 1_555
C7 C6 1_555 1_555
H2 C7 1_555 1_555
C8 S2 1_555 1_555
C9 Si1 1_555 1_555
H3 C9 1_555 1_555
H4 C9 1_555 1_555
H5 C9 1_555 1_555
C10 Si1 1_555 1_555
H6 C10 1_555 1_555
H7 C10 1_555 1_555
H8 C10 1_555 1_555
C11 Si2 1_555 1_555
H9 C11 1_555 1_555
H10 C11 1_555 1_555
H11 C11 1_555 1_555
C12 Si2 1_555 1_555
H12 C12 1_555 1_555
H13 C12 1_555 1_555
H14 C12 1_555 1_555
C13 Si3 1_555 1_555
H15 C13 1_555 1_555
H16 C13 1_555 1_555
H17 C13 1_555 1_555
C14 Si3 1_555 1_555
H18 C14 1_555 1_555
H19 C14 1_555 1_555
H20 C14 1_555 1_555
C15 Si3 1_555 1_555
H21 C15 1_555 1_555
H22 C15 1_555 1_555
H23 C15 1_555 1_555
C16 Si4 1_555 1_555
H24 C16 1_555 1_555
H25 C16 1_555 1_555
H26 C16 1_555 1_555
C17 Si4 1_555 1_555
H27 C17 1_555 1_555
H28 C17 1_555 1_555
H29 C17 1_555 1_555
C18 Si4 1_555 1_555
H30 C18 1_555 1_555
H31 C18 1_555 1_555
H32 C18 1_555 1_555
C19 Si1 1_555 1_555
C20 Si2 1_555 1_555
C21 C19 1_555 1_555
C22 C21 1_555 1_555
H33 C22 1_555 1_555
C23 C22 1_555 1_555
H34 C23 1_555 1_555
C24 C23 1_555 1_555
H35 C24 1_555 1_555
C25 C24 1_555 1_555
H36 C25 1_555 1_555
C26 C21 1_555 1_555
H37 C26 1_555 1_555
C27 C20 1_555 1_555
C28 C27 1_555 1_555
H38 C28 1_555 1_555
C29 C28 1_555 1_555
H39 C29 1_555 1_555
C30 C29 1_555 1_555
H40 C30 1_555 1_555
C31 C30 1_555 1_555
H41 C31 1_555 1_555
C32 C27 1_555 1_555
H42 C32 1_555 1_555
C3 C4 1_555 1_555
C7 C8 1_555 1_555
C19 C20 1_555 1_555
C25 C26 1_555 1_555
C31 C32 1_555 1_555

#END
