
#######################################################################
#
#                 Cambridge Crystallographic Data Centre
#                                CCDC 
#
#######################################################################
#
# If this CIF has been generated from an entry in the Cambridge 
# Structural Database, then it will include bibliographic, chemical, 
# crystal, experimental, refinement or atomic coordinate data resulting 
# from the CCDC's data processing and validation procedures.
#
#######################################################################

data_HEFSIW01
_chemical_formula_moiety         'C17 H14 F4 N2'
_chemical_name_systematic        
N-(4-((2,6-difluorophenyl)imino)pent-2-en-2-yl)-2,6-difluoroaniline
_symmetry_cell_setting           monoclinic
_symmetry_space_group_name_H-M   'P 21/n'
_symmetry_Int_Tables_number      14
_space_group_name_Hall           '-P 2yn'
loop_
_symmetry_equiv_pos_site_id
_symmetry_equiv_pos_as_xyz
1 x,y,z
2 1/2-x,1/2+y,1/2-z
3 -x,-y,-z
4 1/2+x,1/2-y,1/2+z
_cell_length_a                   7.2480(7)
_cell_length_b                   9.0945(8)
_cell_length_c                   23.468(2)
_cell_angle_alpha                90
_cell_angle_beta                 94.569(2)
_cell_angle_gamma                90
_cell_volume                     1542.02
_exptl_crystal_colour            colorless
_cell_formula_units_Z            4
loop_
_atom_site_label
_atom_site_type_symbol
_atom_site_fract_x
_atom_site_fract_y
_atom_site_fract_z
F1 F 0.45549(16) 0.85370(13) 0.18373(6)
F2 F 0.82343(16) 0.48130(13) 0.11715(6)
F3 F 0.7323(2) 1.15261(17) 0.07484(7)
F4 F 1.34477(19) 1.0019(2) 0.07353(7)
N1 N 0.8036(2) 0.76302(15) 0.15951(6)
N2 N 1.0085(2) 0.97980(17) 0.12206(6)
C1 C 0.8010(3) 0.7297(3) 0.26340(8)
H1 H 0.6877 0.7761 0.2722
H2 H 0.8924 0.7419 0.2950
H3 H 0.7795 0.6268 0.2566
C2 C 0.8687(2) 0.79914(17) 0.21102(7)
C3 C 1.0077(2) 0.90925(19) 0.21906(7)
C4 C 1.0671(2) 0.99959(17) 0.17738(7)
C5 C 1.1949(3) 1.1249(2) 0.19253(8)
H4 H 1.3012 1.1182 0.1707
H5 H 1.2338 1.1211 0.2326
H6 H 1.1319 1.2161 0.1840
C6 C 0.6462(2) 0.67382(18) 0.14965(7)
C7 C 0.4692(3) 0.72194(19) 0.15793(7)
C8 C 0.3114(3) 0.6446(2) 0.14210(9)
C9 C 0.3279(3) 0.5105(2) 0.11651(9)
C10 C 0.4995(3) 0.4544(2) 0.10788(9)
C11 C 0.6533(3) 0.5366(2) 0.12467(8)
C12 C 1.0393(3) 1.07859(19) 0.07740(7)
C13 C 0.8988(3) 1.1653(2) 0.05353(9)
C14 C 0.9202(5) 1.2605(3) 0.00912(10)
H7 H 0.8219 1.3180 -0.0059
C15 C 1.0890(5) 1.2686(3) -0.01238(10)
H8 H 1.1063 1.3336 -0.0421
C16 C 1.2334(4) 1.1830(3) 0.00888(10)
H9 H 1.3479 1.1881 -0.0063
C17 C 1.2052(3) 1.0894(2) 0.05316(9)
H10 H 0.922(3) 0.914(2) 0.1169(9)
H11 H 1.055(2) 0.9264(19) 0.2559(8)
H12 H 0.194(3) 0.684(2) 0.1481(9)
H13 H 0.223(3) 0.457(2) 0.1055(9)
H14 H 0.517(3) 0.364(3) 0.0910(9)
loop_
_geom_bond_atom_site_label_1
_geom_bond_atom_site_label_2
_geom_bond_site_symmetry_1
_geom_bond_site_symmetry_2
F1 C7 1_555 1_555
F2 C11 1_555 1_555
F3 C13 1_555 1_555
F4 C17 1_555 1_555
N1 C2 1_555 1_555
N2 C4 1_555 1_555
C1 H1 1_555 1_555
H2 C1 1_555 1_555
H3 C1 1_555 1_555
C2 C1 1_555 1_555
C3 C2 1_555 1_555
C4 C3 1_555 1_555
C5 C4 1_555 1_555
H4 C5 1_555 1_555
H5 C5 1_555 1_555
H6 C5 1_555 1_555
C6 N1 1_555 1_555
C7 C6 1_555 1_555
C8 C7 1_555 1_555
C9 C8 1_555 1_555
C10 C9 1_555 1_555
C11 C6 1_555 1_555
C12 N2 1_555 1_555
C13 C12 1_555 1_555
C14 C13 1_555 1_555
H7 C14 1_555 1_555
C15 C14 1_555 1_555
H8 C15 1_555 1_555
C16 C15 1_555 1_555
H9 C16 1_555 1_555
C17 C12 1_555 1_555
H10 N2 1_555 1_555
H11 C3 1_555 1_555
H12 C8 1_555 1_555
H13 C9 1_555 1_555
H14 C10 1_555 1_555
C10 C11 1_555 1_555
C16 C17 1_555 1_555

#END
