
#######################################################################
#
#                 Cambridge Crystallographic Data Centre
#                                CCDC 
#
#######################################################################
#
# If this CIF has been generated from an entry in the Cambridge 
# Structural Database, then it will include bibliographic, chemical, 
# crystal, experimental, refinement or atomic coordinate data resulting 
# from the CCDC's data processing and validation procedures.
#
#######################################################################

data_HEFXOG
_chemical_formula_moiety         'C23 H24 F1 N1 O3'
_chemical_name_systematic        
'4-Cyano-3-fluorophenyl (2E)-3-(4-heptyloxyphenyl)acrylate'
_symmetry_cell_setting           triclinic
_symmetry_space_group_name_H-M   'P -1'
_symmetry_Int_Tables_number      2
_space_group_name_Hall           '-P 1'
loop_
_symmetry_equiv_pos_site_id
_symmetry_equiv_pos_as_xyz
1 x,y,z
2 -x,-y,-z
_cell_length_a                   7.5213(14)
_cell_length_b                   10.507(2)
_cell_length_c                   14.295(3)
_cell_angle_alpha                74.252(3)
_cell_angle_beta                 82.692(3)
_cell_angle_gamma                70.764(3)
_cell_volume                     1025.69
_exptl_crystal_colour            colorless
_exptl_crystal_description       rod
_chemical_melting_point          '342 K'
_cell_formula_units_Z            2
_exptl_crystal_recrystallization_method THF/ethanol
loop_
_atom_site_label
_atom_site_type_symbol
_atom_site_fract_x
_atom_site_fract_y
_atom_site_fract_z
F1 F 0.3982(2) 1.19604(12) 0.56655(9)
O1 O 0.2459(2) 0.91338(12) 0.85741(8)
O2 O 0.3770(2) 0.68141(12) 0.88045(9)
O3 O 0.19229(19) 0.64546(11) 1.48664(8)
N1 N 0.2416(3) 1.1312(2) 0.37168(13)
C1 C 0.2515(3) 1.0863(2) 0.45340(14)
C2 C 0.2598(3) 1.03129(18) 0.55709(12)
C3 C 0.3283(3) 1.09185(17) 0.61256(13)
C4 C 0.3300(3) 1.04916(17) 0.71164(12)
H1 H 0.3773 1.0917 0.7475
C5 C 0.2600(3) 0.94168(17) 0.75648(12)
C6 C 0.1938(3) 0.87515(19) 0.70449(13)
H2 H 0.1487 0.8014 0.7362
C7 C 0.1956(3) 0.9199(2) 0.60445(13)
H3 H 0.1533 0.8749 0.5684
C8 C 0.3053(2) 0.77946(17) 0.91410(12)
C9 C 0.2678(3) 0.78227(18) 1.01575(12)
H4 H 0.2127 0.8677 1.0312
C10 C 0.3088(2) 0.66810(17) 1.08752(11)
H5 H 0.3615 0.5841 1.0699
C11 C 0.2798(2) 0.66100(16) 1.19116(11)
C12 C 0.2194(2) 0.77993(17) 1.22794(12)
H6 H 0.1965 0.8671 1.1848
C13 C 0.1934(3) 0.77102(17) 1.32545(12)
H7 H 0.1546 0.8516 1.3478
C14 C 0.2245(2) 0.64230(16) 1.39150(11)
C15 C 0.2852(2) 0.52285(17) 1.35719(12)
H8 H 0.3076 0.4359 1.4006
C16 C 0.3124(2) 0.53355(17) 1.25827(12)
H9 H 0.3538 0.4528 1.2361
C17 C 0.2252(2) 0.51492(17) 1.55778(11)
H10 H 0.3554 0.4584 1.5520
H11 H 0.1449 0.4650 1.5470
C18 C 0.1834(3) 0.54146(17) 1.65720(11)
H12 H 0.0536 0.5990 1.6622
H13 H 0.2642 0.5914 1.6675
C19 C 0.2152(2) 0.40591(16) 1.73492(11)
H14 H 0.1345 0.3566 1.7234
H15 H 0.3447 0.3487 1.7285
C20 C 0.1768(3) 0.42306(17) 1.83810(11)
H16 H 0.2533 0.4756 1.8491
H17 H 0.0455 0.4762 1.8459
C21 C 0.2182(2) 0.28577(17) 1.91388(11)
H18 H 0.1391 0.2346 1.9036
H19 H 0.3483 0.2317 1.9045
C22 C 0.1863(3) 0.2997(2) 2.01787(12)
H20 H 0.2647 0.3513 2.0282
H21 H 0.0558 0.3528 2.0277
C23 C 0.2300(4) 0.1615(2) 2.09236(15)
H22 H 0.2066 0.1771 2.1566
H23 H 0.3600 0.1093 2.0844
H24 H 0.1513 0.1104 2.0834
loop_
_geom_bond_atom_site_label_1
_geom_bond_atom_site_label_2
_geom_bond_site_symmetry_1
_geom_bond_site_symmetry_2
F1 C3 1_555 1_555
O1 C5 1_555 1_555
O2 C8 1_555 1_555
O3 C14 1_555 1_555
N1 C1 1_555 1_555
C1 C2 1_555 1_555
C2 C3 1_555 1_555
C3 C4 1_555 1_555
C4 H1 1_555 1_555
C5 C4 1_555 1_555
C6 C5 1_555 1_555
H2 C6 1_555 1_555
C7 C2 1_555 1_555
H3 C7 1_555 1_555
C8 O1 1_555 1_555
C9 C8 1_555 1_555
H4 C9 1_555 1_555
C10 C9 1_555 1_555
H5 C10 1_555 1_555
C11 C10 1_555 1_555
C12 C11 1_555 1_555
H6 C12 1_555 1_555
C13 C12 1_555 1_555
H7 C13 1_555 1_555
C14 C13 1_555 1_555
C15 C14 1_555 1_555
H8 C15 1_555 1_555
C16 C11 1_555 1_555
H9 C16 1_555 1_555
C17 O3 1_555 1_555
H10 C17 1_555 1_555
H11 C17 1_555 1_555
C18 C17 1_555 1_555
H12 C18 1_555 1_555
H13 C18 1_555 1_555
C19 C18 1_555 1_555
H14 C19 1_555 1_555
H15 C19 1_555 1_555
C20 C19 1_555 1_555
H16 C20 1_555 1_555
H17 C20 1_555 1_555
C21 C20 1_555 1_555
H18 C21 1_555 1_555
H19 C21 1_555 1_555
C22 C21 1_555 1_555
H20 C22 1_555 1_555
H21 C22 1_555 1_555
C23 C22 1_555 1_555
H22 C23 1_555 1_555
H23 C23 1_555 1_555
H24 C23 1_555 1_555
C6 C7 1_555 1_555
C15 C16 1_555 1_555

#END
