
#######################################################################
#
#                 Cambridge Crystallographic Data Centre
#                                CCDC 
#
#######################################################################
#
# If this CIF has been generated from an entry in the Cambridge 
# Structural Database, then it will include bibliographic, chemical, 
# crystal, experimental, refinement or atomic coordinate data resulting 
# from the CCDC's data processing and validation procedures.
#
#######################################################################

data_HEFZOJ
_chemical_formula_moiety         'C19 H24 O3'
_chemical_name_systematic        
3-Methoxy-7,8,9,10-tetrahydrospiro[benzo[c]chromene-6,1'-cyclohexan]-4-ol
_symmetry_cell_setting           orthorhombic
_symmetry_space_group_name_H-M   'P 21 21 21'
_symmetry_Int_Tables_number      19
_space_group_name_Hall           'P 2ac 2ab'
loop_
_symmetry_equiv_pos_site_id
_symmetry_equiv_pos_as_xyz
1 x,y,z
2 1/2-x,-y,1/2+z
3 -x,1/2+y,1/2-z
4 1/2+x,1/2-y,-z
_cell_length_a                   6.1622(6)
_cell_length_b                   8.8128(9)
_cell_length_c                   29.313(3)
_cell_angle_alpha                90
_cell_angle_beta                 90
_cell_angle_gamma                90
_cell_volume                     1591.88
_exptl_crystal_colour            colorless
_exptl_crystal_description       needle
_cell_formula_units_Z            4
loop_
_atom_site_label
_atom_site_type_symbol
_atom_site_fract_x
_atom_site_fract_y
_atom_site_fract_z
C1 C 1.6734(4) 1.0920(3) 0.99305(8)
H1 H 1.6301 1.1965 0.9919
H2 H 1.7685 1.0703 0.9679
H3 H 1.7479 1.0727 1.0212
C2 C 1.3676(3) 1.00475(19) 0.95076(5)
C3 C 1.4101(3) 1.1007(2) 0.91448(6)
H4 H 1.5277 1.1667 0.9158
C4 C 1.2779(3) 1.0987(2) 0.87610(6)
H5 H 1.3089 1.1637 0.8520
C5 C 1.1012(3) 1.00231(19) 0.87291(5)
C6 C 1.0632(3) 0.90304(17) 0.90963(5)
C7 C 1.1930(3) 0.90412(18) 0.94825(5)
C8 C 0.9474(3) 0.99675(19) 0.83457(5)
C9 C 0.8077(3) 0.8817(2) 0.83143(5)
C10 C 0.8197(3) 0.7512(2) 0.86534(5)
C11 C 0.6042(3) 0.6727(2) 0.87553(6)
H6 H 0.5402 0.6380 0.8471
H7 H 0.5053 0.7452 0.8892
C12 C 0.6318(3) 0.5373(3) 0.90775(7)
H8 H 0.6774 0.5735 0.9375
H9 H 0.4932 0.4864 0.9114
C13 C 0.7978(4) 0.4250(3) 0.88985(9)
H10 H 0.7442 0.3796 0.8619
H11 H 0.8181 0.3446 0.9120
C14 C 1.0138(3) 0.5017(2) 0.88063(8)
H12 H 1.1133 0.4289 0.8673
H13 H 1.0756 0.5366 0.9092
C15 C 0.9869(3) 0.63571(19) 0.84846(6)
H14 H 0.9427 0.5986 0.8187
H15 H 1.1259 0.6860 0.8449
C16 C 0.9566(4) 1.1237(2) 0.79983(6)
H16 H 1.0811 1.1086 0.7801
H17 H 0.9757 1.2196 0.8156
C17 C 0.7516(5) 1.1312(3) 0.77080(7)
H18 H 0.6326 1.1705 0.7889
H19 H 0.7746 1.1995 0.7453
C18 C 0.6947(5) 0.9761(3) 0.75332(7)
H20 H 0.8148 0.9363 0.7356
H21 H 0.5691 0.9831 0.7335
C19 C 0.6448(3) 0.8677(3) 0.79290(6)
H22 H 0.5007 0.8892 0.8046
H23 H 0.6452 0.7642 0.7816
O1 O 1.4866(2) 0.99774(15) 0.99024(4)
O2 O 1.1590(2) 0.80765(16) 0.98394(4)
H24 H 1.049(5) 0.756(3) 0.9781(9)
O3 O 0.88917(19) 0.80749(13) 0.90997(3)
loop_
_geom_bond_atom_site_label_1
_geom_bond_atom_site_label_2
_geom_bond_site_symmetry_1
_geom_bond_site_symmetry_2
C1 H1 1_555 1_555
H2 C1 1_555 1_555
H3 C1 1_555 1_555
C2 C3 1_555 1_555
C3 H4 1_555 1_555
C4 C3 1_555 1_555
H5 C4 1_555 1_555
C5 C4 1_555 1_555
C6 C5 1_555 1_555
C7 C2 1_555 1_555
C8 C5 1_555 1_555
C9 C8 1_555 1_555
C10 C9 1_555 1_555
C11 C10 1_555 1_555
H6 C11 1_555 1_555
H7 C11 1_555 1_555
C12 C11 1_555 1_555
H8 C12 1_555 1_555
H9 C12 1_555 1_555
C13 C12 1_555 1_555
H10 C13 1_555 1_555
H11 C13 1_555 1_555
C14 C13 1_555 1_555
H12 C14 1_555 1_555
H13 C14 1_555 1_555
C15 C10 1_555 1_555
H14 C15 1_555 1_555
H15 C15 1_555 1_555
C16 C8 1_555 1_555
H16 C16 1_555 1_555
H17 C16 1_555 1_555
C17 C16 1_555 1_555
H18 C17 1_555 1_555
H19 C17 1_555 1_555
C18 C17 1_555 1_555
H20 C18 1_555 1_555
H21 C18 1_555 1_555
C19 C9 1_555 1_555
H22 C19 1_555 1_555
H23 C19 1_555 1_555
O1 C1 1_555 1_555
O2 C7 1_555 1_555
H24 O2 1_555 1_555
O3 C6 1_555 1_555
C2 O1 1_555 1_555
C6 C7 1_555 1_555
C10 O3 1_555 1_555
C14 C15 1_555 1_555
C18 C19 1_555 1_555

#END
