
#######################################################################
#
#                 Cambridge Crystallographic Data Centre
#                                CCDC 
#
#######################################################################
#
# If this CIF has been generated from an entry in the Cambridge 
# Structural Database, then it will include bibliographic, chemical, 
# crystal, experimental, refinement or atomic coordinate data resulting 
# from the CCDC's data processing and validation procedures.
#
#######################################################################

data_HEFZAT
_chemical_formula_moiety         '3(C9 H8 N1 1+),Cl1 1-,2(I3 1-)'
_chemical_name_systematic        'Triquinolinium chloride tri-iodide'
_symmetry_cell_setting           triclinic
_symmetry_space_group_name_H-M   'P -1'
_symmetry_Int_Tables_number      2
_space_group_name_Hall           '-P 1'
loop_
_symmetry_equiv_pos_site_id
_symmetry_equiv_pos_as_xyz
1 x,y,z
2 -x,-y,-z
_cell_length_a                   12.349(2)
_cell_length_b                   12.878(2)
_cell_length_c                   11.679(2)
_cell_angle_alpha                100.82(1)
_cell_angle_beta                 109.02(1)
_cell_angle_gamma                89.58(1)
_cell_volume                     1721.8
_cell_formula_units_Z            2
loop_
_atom_site_label
_atom_site_type_symbol
_atom_site_fract_x
_atom_site_fract_y
_atom_site_fract_z
I1 I 0.21044(6) 0.59342(5) 0.19797(5)
I2 I 0.04568(4) 0.70947(3) 0.29749(4)
I3 I -0.09945(5) 0.82732(5) 0.41755(5)
I4 I 0.24756(4) 0.10252(4) -0.08814(5)
I5 I 0.36235(4) -0.00592(3) 0.10742(4)
I6 I 0.47026(5) -0.11995(4) 0.31034(5)
Cl1 Cl 0.4360(1) 0.3449(1) 0.4956(1)
N1 N 0.4280(5) 0.4140(5) 0.7660(5)
C1 C 0.3604(7) 0.3513(5) 0.7947(8)
C2 C 0.3028(7) 0.3927(7) 0.8718(7)
C3 C 0.3141(7) 0.4961(6) 0.9201(7)
C4 C 0.4019(6) 0.6748(6) 0.9387(6)
C5 C 0.4712(7) 0.7354(6) 0.9067(8)
C6 C 0.5293(6) 0.6899(6) 0.8272(7)
C7 C 0.5176(6) 0.5851(6) 0.7804(6)
C8 C 0.4446(5) 0.5202(5) 0.8111(5)
C9 C 0.3857(6) 0.5649(5) 0.8923(5)
H1 H 0.4668 0.3833 0.7110
H4 H 0.3525 0.2775 0.7614
H5 H 0.2538 0.3477 0.8916
H6 H 0.2731 0.5237 0.9742
H7 H 0.3633 0.7067 0.9935
H8 H 0.4804 0.8096 0.9382
H9 H 0.5790 0.7335 0.8059
H10 H 0.5583 0.5552 0.7269
N2 N 0.2460(5) 0.1749(4) 0.3411(5)
C10 C 0.2581(6) 0.0833(6) 0.3805(6)
C11 C 0.1768(7) 0.0026(6) 0.3261(7)
C12 C 0.0817(6) 0.0147(5) 0.2298(6)
C13 C -0.0263(6) 0.1272(6) 0.0860(6)
C14 C -0.0335(7) 0.2193(7) 0.0484(7)
C15 C 0.0529(8) 0.3009(7) 0.1073(8)
C16 C 0.1454(7) 0.2878(6) 0.2049(7)
C17 C 0.1539(5) 0.1910(5) 0.2452(6)
C18 C 0.0690(5) 0.1101(5) 0.1864(6)
H2 H 0.3036 0.2305 0.3814
H11 H 0.3242 0.0745 0.4472
H12 H 0.1859 -0.0622 0.3549
H13 H 0.0243 -0.0414 0.1923
H14 H -0.0852 0.0729 0.0452
H15 H -0.0979 0.2300 -0.0190
H16 H 0.0466 0.3657 0.0785
H17 H 0.2032 0.3432 0.2452
N3 N 0.6545(5) 0.2704(5) 0.4421(5)
C19 C 0.6456(6) 0.1672(7) 0.4119(7)
C20 C 0.7143(7) 0.1106(6) 0.3551(8)
C21 C 0.79506 0.1659(6) 0.3308(7)
C22 C 0.8867(6) 0.3375(7) 0.3349(7)
C23 C 0.8933(8) 0.4428(8) 0.3667(8)
C24 C 0.8201(9) 0.4951(7) 0.4258(9)
C25 C 0.7417(7) 0.4393(6) 0.4542(7)
C26 C 0.7342(5) 0.3301(5) 0.4187(5)
C27 C 0.8057(5) 0.2766(5) 0.3591(6)
H3 H 0.6044 0.3055 0.4815
H18 H 0.5891 0.1300 0.4301
H19 H 0.7061 0.0355 0.3334
H20 H 0.8454 0.1284 0.2936
H21 H 0.9372 0.3033 0.2955
H22 H 0.9481 0.4829 0.3491
H23 H 0.8250 0.5703 0.4464
H24 H 0.6940 0.4743 0.4969
loop_
_geom_bond_atom_site_label_1
_geom_bond_atom_site_label_2
_geom_bond_site_symmetry_1
_geom_bond_site_symmetry_2
I1 I2 1_555 1_555
I2 I3 1_555 1_555
I4 I5 1_555 1_555
I5 I6 1_555 1_555
N1 C1 1_555 1_555
N2 C10 1_555 1_555
N3 C19 1_555 1_555
C1 C2 1_555 1_555
C2 C3 1_555 1_555
C3 C9 1_555 1_555
C4 C5 1_555 1_555
C5 C6 1_555 1_555
C6 C7 1_555 1_555
C7 C8 1_555 1_555
C8 N1 1_555 1_555
C9 C4 1_555 1_555
C10 C11 1_555 1_555
C11 C12 1_555 1_555
C12 C18 1_555 1_555
C13 C14 1_555 1_555
C14 C15 1_555 1_555
C15 C16 1_555 1_555
C16 C17 1_555 1_555
C17 N2 1_555 1_555
C18 C13 1_555 1_555
C19 C20 1_555 1_555
C20 C21 1_555 1_555
C21 C27 1_555 1_555
C22 C23 1_555 1_555
C23 C24 1_555 1_555
C24 C25 1_555 1_555
C25 C26 1_555 1_555
C26 N3 1_555 1_555
C27 C22 1_555 1_555
H1 N1 1_555 1_555
H2 N2 1_555 1_555
H3 N3 1_555 1_555
H4 C1 1_555 1_555
H5 C2 1_555 1_555
H6 C3 1_555 1_555
H7 C4 1_555 1_555
H8 C5 1_555 1_555
H9 C6 1_555 1_555
H10 C7 1_555 1_555
H11 C10 1_555 1_555
H12 C11 1_555 1_555
H13 C12 1_555 1_555
H14 C13 1_555 1_555
H15 C14 1_555 1_555
H16 C15 1_555 1_555
H17 C16 1_555 1_555
H18 C19 1_555 1_555
H19 C20 1_555 1_555
H20 C21 1_555 1_555
H21 C22 1_555 1_555
H22 C23 1_555 1_555
H23 C24 1_555 1_555
H24 C25 1_555 1_555
C8 C9 1_555 1_555
C17 C18 1_555 1_555
C26 C27 1_555 1_555

#END
