
#######################################################################
#
#                 Cambridge Crystallographic Data Centre
#                                CCDC 
#
#######################################################################
#
# If this CIF has been generated from an entry in the Cambridge 
# Structural Database, then it will include bibliographic, chemical, 
# crystal, experimental, refinement or atomic coordinate data resulting 
# from the CCDC's data processing and validation procedures.
#
#######################################################################

data_HEGBIG
_chemical_formula_moiety         'C15 H20 O3'
_chemical_name_systematic        
3-(4-Ethylcyclohex-1-en-1-yl)-6-methoxybenzene-1,2-diol
_symmetry_cell_setting           orthorhombic
_symmetry_space_group_name_H-M   'P b c a'
_symmetry_Int_Tables_number      61
_space_group_name_Hall           '-P 2ac 2ab'
loop_
_symmetry_equiv_pos_site_id
_symmetry_equiv_pos_as_xyz
1 x,y,z
2 1/2-x,-y,1/2+z
3 -x,1/2+y,1/2-z
4 1/2+x,1/2-y,-z
5 -x,-y,-z
6 1/2+x,y,1/2-z
7 x,1/2-y,1/2+z
8 1/2-x,1/2+y,z
_cell_length_a                   22.398(3)
_cell_length_b                   15.1572(17)
_cell_length_c                   23.824(3)
_cell_angle_alpha                90
_cell_angle_beta                 90
_cell_angle_gamma                90
_cell_volume                     8088.03
_exptl_crystal_description       block
_cell_formula_units_Z            24
loop_
_atom_site_label
_atom_site_type_symbol
_atom_site_fract_x
_atom_site_fract_y
_atom_site_fract_z
C1 C 0.12402(18) 0.76688(19) 0.22019(12)
H1 H 0.1524 0.7707 0.1890
H2 H 0.1197 0.8251 0.2376
H3 H 0.0852 0.7471 0.2061
C2 C 0.14735(10) 0.61822(15) 0.24616(10)
C3 C 0.16426(10) 0.56228(15) 0.28930(9)
C4 C 0.16977(10) 0.47247(15) 0.28018(10)
C5 C 0.15854(9) 0.43490(15) 0.22744(9)
C6 C 0.14035(11) 0.49288(17) 0.18575(10)
H4 H 0.1315 0.4698 0.1496
C7 C 0.13447(11) 0.58278(16) 0.19428(10)
H5 H 0.1216 0.6199 0.1645
C8 C 0.16685(10) 0.33936(15) 0.21578(10)
C9 C 0.19688(13) 0.31344(19) 0.16945(13)
H6 H 0.2123 0.3576 0.1451
C10 C 0.20723(15) 0.2184(2) 0.15442(14)
H7 H 0.2504 0.2053 0.1577
H8 H 0.1956 0.2090 0.1148
C11 C 0.1730(3) 0.1545(4) 0.1909(3)
H9 H 0.1314 0.1584 0.1759
C12 C 0.1660(3) 0.1811(3) 0.2518(2)
H10 H 0.1388 0.1395 0.2711
H11 H 0.2052 0.1794 0.2709
C13 C 0.1938(4) 0.0630(4) 0.1717(3)
H12 H 0.1741 0.0487 0.1356
H13 H 0.2374 0.0650 0.1648
C14 C 0.1807(2) -0.0100(3) 0.2133(3)
H14 H 0.2038 -0.0002 0.2477
H15 H 0.1917 -0.0670 0.1969
H16 H 0.1380 -0.0100 0.2224
C15 C 0.14067(13) 0.27286(17) 0.25399(12)
H17 H 0.0974 0.2691 0.2459
H18 H 0.1449 0.2949 0.2929
O1 O 0.14559(8) 0.70543(11) 0.26080(7)
O2 O 0.17721(8) 0.59301(11) 0.34202(7)
H55 H 0.1618 0.6430 0.3464
O3 O 0.18821(10) 0.42027(11) 0.32401(7)
H56 H 0.1868 0.4493 0.3540
C16 C 0.44614(13) 0.62119(17) 0.35478(14)
H19 H 0.4721 0.6144 0.3876
H20 H 0.4252 0.6778 0.3570
H21 H 0.4704 0.6195 0.3205
C17 C 0.42511(11) 0.46660(15) 0.35374(10)
C18 C 0.38207(9) 0.40321(15) 0.36630(9)
C19 C 0.39760(9) 0.31511(14) 0.36861(9)
C20 C 0.45593(10) 0.28701(15) 0.35712(9)
C21 C 0.49744(11) 0.35150(17) 0.34406(11)
H22 H 0.5373 0.3342 0.3360
C22 C 0.48290(11) 0.44044(17) 0.34237(12)
H23 H 0.5125 0.4831 0.3334
C23 C 0.47161(10) 0.19195(16) 0.35948(10)
C24 C 0.48536(11) 0.14678(17) 0.31370(12)
H24 H 0.4862 0.1782 0.2792
C25 C 0.49974(13) 0.05044(18) 0.31179(15)
H25 H 0.5427 0.0432 0.3033
H26 H 0.4768 0.0228 0.2809
C26 C 0.48571(15) 0.0030(2) 0.3659(2)
H27 H 0.4412 -0.0021 0.3678
C27 C 0.50389(17) 0.0584(2) 0.41388(18)
H28 H 0.5475 0.0682 0.4119
H29 H 0.4954 0.0261 0.4491
C28 C 0.47264(13) 0.14804(19) 0.41623(12)
H30 H 0.4312 0.1399 0.4297
H31 H 0.4937 0.1866 0.4433
C29 C 0.5096(3) -0.0909(4) 0.3538(3)
H32 H 0.4964 -0.1101 0.3161
H33 H 0.5538 -0.0904 0.3543
C30 C 0.4868(3) -0.1537(4) 0.3972(3)
H34 H 0.4946 -0.1298 0.4347
H35 H 0.5071 -0.2106 0.3931
H36 H 0.4437 -0.1620 0.3922
O4 O 0.40383(7) 0.55145(10) 0.35361(8)
O5 O 0.32388(7) 0.42444(10) 0.37744(7)
H57 H 0.3212 0.4788 0.3838
O6 O 0.35531(6) 0.25306(9) 0.38299(6)
H58 H 0.3217 0.2773 0.3851
C31 C 0.14983(13) 0.46718(16) 0.47442(12)
H37 H 0.1062 0.4629 0.4742
H38 H 0.1620 0.5245 0.4591
H39 H 0.1645 0.4615 0.5130
C32 C 0.16377(10) 0.31319(15) 0.45754(10)
C33 C 0.19316(9) 0.24779(14) 0.42683(9)
C34 C 0.18709(9) 0.15964(14) 0.44132(10)
C35 C 0.15074(10) 0.13356(15) 0.48587(10)
C36 C 0.12095(12) 0.19963(16) 0.51455(11)
H40 H 0.0952 0.1835 0.5446
C37 C 0.12697(12) 0.28808(17) 0.50147(11)
H41 H 0.1060 0.3314 0.5225
C38 C 0.14471(10) 0.03873(16) 0.50259(10)
C39 C 0.19714(13) -0.01027(17) 0.51619(12)
H42 H 0.2207 0.0251 0.5432
H43 H 0.2213 -0.0156 0.4816
C40 C 0.18996(11) -0.10052(16) 0.54030(11)
H44 H 0.1875 -0.0958 0.5817
H45 H 0.2258 -0.1358 0.5311
C41 C 0.13534(12) -0.14863(16) 0.51909(10)
H46 H 0.1403 -0.1569 0.4777
C42 C 0.08111(13) -0.09138(18) 0.52803(15)
H47 H 0.0464 -0.1198 0.5098
H48 H 0.0727 -0.0881 0.5688
C43 C 0.08729(12) 0.00105(17) 0.50543(11)
H49 H 0.0532 0.0332 0.4934
C44 C 0.12716(14) -0.23989(17) 0.54515(11)
H50 H 0.1236 -0.2330 0.5863
H51 H 0.0891 -0.2650 0.5313
C45 C 0.17680(16) -0.30534(19) 0.53307(14)
H52 H 0.1801 -0.3143 0.4924
H53 H 0.1677 -0.3617 0.5513
H54 H 0.2146 -0.2823 0.5477
O7 O 0.17436(8) 0.39827(10) 0.44075(7)
O8 O 0.23070(7) 0.26843(10) 0.38297(6)
H59 H 0.2458 0.2219 0.3700
O9 O 0.21751(7) 0.09668(10) 0.41128(7)
H60 H 0.2009 0.0895 0.3800
C46? C 0.1944(4) 0.1509(7) 0.1987(5)
C47? C 0.1355(3) 0.1845(4) 0.2219(3)
C48? C 0.1881(6) 0.0507(7) 0.1954(4)
C49? C 0.1870(4) 0.0106(6) 0.1374(3)
C50? C 0.5161(5) -0.0844(5) 0.3844(4)
C51? C 0.4860(4) -0.1526(5) 0.3481(4)
H61? H 0.2244 0.1618 0.2290
H62? H 0.1188 0.1394 0.2475
H63? H 0.1071 0.1920 0.1904
H64? H 0.2216 0.0239 0.2165
H65? H 0.1507 0.0338 0.2148
H66? H 0.1476 0.0194 0.1206
H67? H 0.1955 -0.0527 0.1400
H68? H 0.2174 0.0390 0.1140
H69? H 0.5597 -0.0827 0.3773
H70? H 0.5091 -0.0963 0.4247
H71? H 0.4426 -0.1481 0.3527
H72? H 0.4993 -0.2116 0.3594
H73? H 0.4965 -0.1424 0.3087
loop_
_geom_bond_atom_site_label_1
_geom_bond_atom_site_label_2
_geom_bond_site_symmetry_1
_geom_bond_site_symmetry_2
C1 H1 1_555 1_555
H2 C1 1_555 1_555
H3 C1 1_555 1_555
C2 C3 1_555 1_555
C3 C4 1_555 1_555
C4 C5 1_555 1_555
C5 C6 1_555 1_555
C6 H4 1_555 1_555
C7 C2 1_555 1_555
H5 C7 1_555 1_555
C8 C5 1_555 1_555
C9 C8 1_555 1_555
H6 C9 1_555 1_555
C10 C9 1_555 1_555
H7 C10 1_555 1_555
H8 C10 1_555 1_555
C11 C10 1_555 1_555
H9 C11 1_555 1_555
C12 C11 1_555 1_555
H10 C12 1_555 1_555
H11 C12 1_555 1_555
C13 C11 1_555 1_555
H12 C13 1_555 1_555
H13 C13 1_555 1_555
C14 C13 1_555 1_555
H14 C14 1_555 1_555
H15 C14 1_555 1_555
H16 C14 1_555 1_555
C15 C8 1_555 1_555
H17 C15 1_555 1_555
H18 C15 1_555 1_555
C16 H19 1_555 1_555
H20 C16 1_555 1_555
H21 C16 1_555 1_555
C17 C18 1_555 1_555
C18 C19 1_555 1_555
C19 C20 1_555 1_555
C20 C21 1_555 1_555
C21 H22 1_555 1_555
C22 C17 1_555 1_555
H23 C22 1_555 1_555
C23 C20 1_555 1_555
C24 C23 1_555 1_555
H24 C24 1_555 1_555
C25 C24 1_555 1_555
H25 C25 1_555 1_555
H26 C25 1_555 1_555
C26 C25 1_555 1_555
H27 C26 1_555 1_555
C27 C26 1_555 1_555
H28 C27 1_555 1_555
H29 C27 1_555 1_555
C28 C23 1_555 1_555
H30 C28 1_555 1_555
H31 C28 1_555 1_555
C29 C26 1_555 1_555
H32 C29 1_555 1_555
H33 C29 1_555 1_555
C30 C29 1_555 1_555
H34 C30 1_555 1_555
H35 C30 1_555 1_555
H36 C30 1_555 1_555
C31 H37 1_555 1_555
H38 C31 1_555 1_555
H39 C31 1_555 1_555
C32 C33 1_555 1_555
C33 C34 1_555 1_555
C34 C35 1_555 1_555
C35 C36 1_555 1_555
C36 H40 1_555 1_555
C37 C32 1_555 1_555
H41 C37 1_555 1_555
C38 C35 1_555 1_555
C39 C38 1_555 1_555
H42 C39 1_555 1_555
H43 C39 1_555 1_555
C40 C39 1_555 1_555
H44 C40 1_555 1_555
H45 C40 1_555 1_555
C41 C40 1_555 1_555
H46 C41 1_555 1_555
C42 C41 1_555 1_555
H47 C42 1_555 1_555
H48 C42 1_555 1_555
C43 C38 1_555 1_555
H49 C43 1_555 1_555
C44 C41 1_555 1_555
H50 C44 1_555 1_555
H51 C44 1_555 1_555
C45 C44 1_555 1_555
H52 C45 1_555 1_555
H53 C45 1_555 1_555
H54 C45 1_555 1_555
O1 C1 1_555 1_555
O2 C3 1_555 1_555
H55 O2 1_555 1_555
O3 C4 1_555 1_555
H56 O3 1_555 1_555
O4 C16 1_555 1_555
O5 C18 1_555 1_555
H57 O5 1_555 1_555
O6 C19 1_555 1_555
H58 O6 1_555 1_555
O7 C31 1_555 1_555
O8 C33 1_555 1_555
H59 O8 1_555 1_555
O9 C34 1_555 1_555
H60 O9 1_555 1_555
C2 O1 1_555 1_555
C6 C7 1_555 1_555
C12 C15 1_555 1_555
C17 O4 1_555 1_555
C21 C22 1_555 1_555
C27 C28 1_555 1_555
C32 O7 1_555 1_555
C36 C37 1_555 1_555
C42 C43 1_555 1_555

#END
