
#######################################################################
#
#                 Cambridge Crystallographic Data Centre
#                                CCDC 
#
#######################################################################
#
# If this CIF has been generated from an entry in the Cambridge 
# Structural Database, then it will include bibliographic, chemical, 
# crystal, experimental, refinement or atomic coordinate data resulting 
# from the CCDC's data processing and validation procedures.
#
#######################################################################

data_HEGBEC
_chemical_formula_moiety         'C17 H24 O3'
_chemical_name_systematic        
1,1,3-Triethyl-6-methoxy-2-methyl-1H-indene-4,5-diol
_symmetry_cell_setting           monoclinic
_symmetry_space_group_name_H-M   'P 21/n'
_symmetry_Int_Tables_number      14
_space_group_name_Hall           '-P 2yn'
loop_
_symmetry_equiv_pos_site_id
_symmetry_equiv_pos_as_xyz
1 x,y,z
2 1/2-x,1/2+y,1/2-z
3 -x,-y,-z
4 1/2+x,1/2-y,1/2+z
_cell_length_a                   8.362(2)
_cell_length_b                   16.147(4)
_cell_length_c                   11.767(3)
_cell_angle_alpha                90
_cell_angle_beta                 96.513(4)
_cell_angle_gamma                90
_cell_volume                     1578.54
_cell_formula_units_Z            4
loop_
_atom_site_label
_atom_site_type_symbol
_atom_site_fract_x
_atom_site_fract_y
_atom_site_fract_z
C1 C 0.4163(3) 0.71696(17) 0.7557(2)
C2 C 0.5245(3) 0.71330(17) 0.6605(2)
C3 C 0.6562(3) 0.66663(16) 0.6903(2)
C4 C 0.6502(3) 0.63571(14) 0.8072(2)
C5 C 0.5112(3) 0.66545(14) 0.8485(2)
C6 C 0.4808(5) 0.7573(3) 0.5493(3)
H1 H 0.5715 0.7887 0.5303
H2 H 0.3920 0.7939 0.5561
H3 H 0.4509 0.7174 0.4901
C7 C 0.7843(4) 0.64459(19) 0.6164(2)
H4 H 0.8881 0.6450 0.6624
H5 H 0.7867 0.6862 0.5571
C8 C 0.7574(5) 0.5611(2) 0.5614(3)
H6 H 0.7542 0.5197 0.6197
H7 H 0.8437 0.5490 0.5167
H8 H 0.6571 0.5612 0.5128
C9 C 0.2497(3) 0.6767(2) 0.7191(3)
H9 H 0.1889 0.6763 0.7846
H10 H 0.1917 0.7112 0.6608
C10 C 0.2552(5) 0.5917(3) 0.6746(4)
H11 H 0.3041 0.5921 0.6046
H12 H 0.1478 0.5702 0.6603
H13 H 0.3173 0.5574 0.7298
C11 C 0.3910(4) 0.80603(19) 0.7945(3)
H14 H 0.3329 0.8361 0.7314
H15 H 0.3233 0.8048 0.8562
C12 C 0.5348(6) 0.8511(2) 0.8327(4)
H16 H 0.5868 0.8260 0.9011
H17 H 0.5078 0.9074 0.8484
H18 H 0.6061 0.8500 0.7743
C13 C 0.4739(3) 0.64869(15) 0.9571(2)
H19 H 0.3814 0.6700 0.9831
C14 C 0.5793(3) 0.59873(15) 1.0266(2)
C15 C 0.7164(3) 0.56760(14) 0.9857(2)
C16 C 0.7548(3) 0.58569(15) 0.8776(2)
C17 C 0.4324(4) 0.6083(2) 1.1884(3)
H20 H 0.4423 0.6674 1.1936
H21 H 0.4331 0.5854 1.2638
H22 H 0.3332 0.5942 1.1433
O1 O 0.8910(2) 0.55486(14) 0.83901(16)
H23 H 0.9393 0.5257 0.8887
O2 O 0.8215(2) 0.51702(13) 1.05430(16)
H24 H 0.7807 0.5042 1.1120
O3 O 0.5630(2) 0.57564(12) 1.13631(15)
loop_
_geom_bond_atom_site_label_1
_geom_bond_atom_site_label_2
_geom_bond_site_symmetry_1
_geom_bond_site_symmetry_2
C1 C2 1_555 1_555
C2 C3 1_555 1_555
C3 C4 1_555 1_555
C4 C5 1_555 1_555
C5 C1 1_555 1_555
C6 C2 1_555 1_555
H1 C6 1_555 1_555
H2 C6 1_555 1_555
H3 C6 1_555 1_555
C7 C3 1_555 1_555
H4 C7 1_555 1_555
H5 C7 1_555 1_555
C8 C7 1_555 1_555
H6 C8 1_555 1_555
H7 C8 1_555 1_555
H8 C8 1_555 1_555
C9 C1 1_555 1_555
H9 C9 1_555 1_555
H10 C9 1_555 1_555
C10 C9 1_555 1_555
H11 C10 1_555 1_555
H12 C10 1_555 1_555
H13 C10 1_555 1_555
C11 C1 1_555 1_555
H14 C11 1_555 1_555
H15 C11 1_555 1_555
C12 C11 1_555 1_555
H16 C12 1_555 1_555
H17 C12 1_555 1_555
H18 C12 1_555 1_555
C13 C5 1_555 1_555
H19 C13 1_555 1_555
C14 C13 1_555 1_555
C15 C14 1_555 1_555
C16 C4 1_555 1_555
C17 H20 1_555 1_555
H21 C17 1_555 1_555
H22 C17 1_555 1_555
O1 C16 1_555 1_555
H23 O1 1_555 1_555
O2 C15 1_555 1_555
H24 O2 1_555 1_555
O3 C14 1_555 1_555
C15 C16 1_555 1_555
C17 O3 1_555 1_555

#END
