
#######################################################################
#
#                 Cambridge Crystallographic Data Centre
#                                CCDC 
#
#######################################################################
#
# If this CIF has been generated from an entry in the Cambridge 
# Structural Database, then it will include bibliographic, chemical, 
# crystal, experimental, refinement or atomic coordinate data resulting 
# from the CCDC's data processing and validation procedures.
#
#######################################################################

data_HEGDUU
_chemical_formula_moiety         'C15 H21 N4 O5 P1'
_chemical_name_systematic        
'Ethyl 3-(diaminophosphoryl)-4-(4-methoxyphenyl)-6-methyl-2-oxo-1,2,3,4-tetrahydropyrimidine-5-carboxylate'
_symmetry_cell_setting           monoclinic
_symmetry_space_group_name_H-M   'P 21/c'
_symmetry_Int_Tables_number      14
_space_group_name_Hall           '-P 2ybc'
loop_
_symmetry_equiv_pos_site_id
_symmetry_equiv_pos_as_xyz
1 x,y,z
2 -x,1/2+y,1/2-z
3 -x,-y,-z
4 x,1/2-y,1/2+z
_cell_length_a                   11.4366(3)
_cell_length_b                   7.5188(2)
_cell_length_c                   20.7616(6)
_cell_angle_alpha                90
_cell_angle_beta                 96.950(3)
_cell_angle_gamma                90
_cell_volume                     1772.16
_exptl_crystal_colour            colorless
_exptl_crystal_description       tiny-block
_cell_formula_units_Z            4
loop_
_atom_site_label
_atom_site_type_symbol
_atom_site_fract_x
_atom_site_fract_y
_atom_site_fract_z
P1 P 0.19222(5) 0.31709(7) 1.00295(3)
O1 O 0.03949(13) 0.23628(19) 0.67100(7)
O2 O 0.59686(13) -0.0388(2) 0.86713(8)
O3 O 0.54329(13) 0.24561(19) 0.87755(8)
O4 O 0.14712(13) -0.06007(18) 1.01590(7)
O5 O 0.24193(13) 0.47890(17) 0.97705(7)
N1 N 0.29147(15) -0.1619(2) 0.95944(9)
N2 N 0.26038(14) 0.1425(2) 0.96979(8)
N3 N 0.2180(2) 0.2863(2) 1.08018(9)
N4 N 0.05062(17) 0.3094(3) 0.98548(11)
C1 C -0.0675(2) 0.1371(3) 0.65805(12)
H1 H -0.0511 0.0105 0.6659
H2 H -0.1006 0.1544 0.6127
H3 H -0.1241 0.1783 0.6867
C2 C 0.10275(19) 0.2173(3) 0.73127(10)
C3 C 0.20964(19) 0.3076(3) 0.74107(10)
H4 H 0.2347 0.3777 0.7072
C4 C 0.27927(19) 0.2951(3) 0.80001(10)
H5 H 0.3521 0.3571 0.8062
C5 C 0.24493(18) 0.1933(2) 0.85068(10)
C6 C 0.13667(19) 0.1077(3) 0.84006(10)
H6 H 0.1105 0.0396 0.8741
C7 C 0.06571(19) 0.1188(3) 0.78113(10)
H7 H -0.0080 0.0591 0.7751
C8 C 0.32659(18) 0.1757(3) 0.91376(10)
C9 C 0.41653(17) 0.0294(3) 0.90971(10)
C10 C 0.52639(19) 0.0694(3) 0.88276(10)
C11 C 0.6521(2) 0.3029(3) 0.85355(13)
H8 H 0.7157 0.2170 0.8676
H9 H 0.6758 0.4203 0.8723
C12 C 0.6366(3) 0.3155(5) 0.78145(16)
H10 H 0.6134 0.1991 0.7628
H11 H 0.7109 0.3526 0.7665
H12 H 0.5752 0.4030 0.7675
C13 C 0.39205(18) -0.1366(3) 0.92951(10)
C14 C 0.4618(2) -0.3032(3) 0.92393(12)
H13 H 0.4944 -0.3035 0.8824
H14 H 0.4105 -0.4068 0.9262
H15 H 0.5263 -0.3083 0.9596
C15 C 0.22732(18) -0.0283(3) 0.98345(10)
H16 H 0.159(2) 0.282(3) 1.1022(11)
H17 H 0.281(2) 0.224(3) 1.0935(12)
H18 H 0.013(2) 0.218(4) 0.9905(12)
H19 H 0.025(2) 0.377(4) 0.9597(15)
H20 H 0.3640(16) 0.285(2) 0.9209(8)
H21 H 0.270(2) -0.269(3) 0.9667(12)
loop_
_geom_bond_atom_site_label_1
_geom_bond_atom_site_label_2
_geom_bond_site_symmetry_1
_geom_bond_site_symmetry_2
P1 O5 1_555 1_555
O1 C1 1_555 1_555
O2 C10 1_555 1_555
O3 C10 1_555 1_555
O4 C15 1_555 1_555
N1 C13 1_555 1_555
N2 P1 1_555 1_555
N3 P1 1_555 1_555
N4 P1 1_555 1_555
C1 H1 1_555 1_555
H2 C1 1_555 1_555
H3 C1 1_555 1_555
C2 O1 1_555 1_555
C3 C2 1_555 1_555
H4 C3 1_555 1_555
C4 C3 1_555 1_555
H5 C4 1_555 1_555
C5 C4 1_555 1_555
C6 C5 1_555 1_555
H6 C6 1_555 1_555
C7 C2 1_555 1_555
H7 C7 1_555 1_555
C8 N2 1_555 1_555
C9 C8 1_555 1_555
C10 C9 1_555 1_555
C11 O3 1_555 1_555
H8 C11 1_555 1_555
H9 C11 1_555 1_555
C12 C11 1_555 1_555
H10 C12 1_555 1_555
H11 C12 1_555 1_555
H12 C12 1_555 1_555
C13 C9 1_555 1_555
C14 C13 1_555 1_555
H13 C14 1_555 1_555
H14 C14 1_555 1_555
H15 C14 1_555 1_555
C15 N1 1_555 1_555
H16 N3 1_555 1_555
H17 N3 1_555 1_555
H18 N4 1_555 1_555
H19 N4 1_555 1_555
H20 C8 1_555 1_555
H21 N1 1_555 1_555
N2 C15 1_555 1_555
C5 C8 1_555 1_555
C6 C7 1_555 1_555

#END
