
#######################################################################
#
#                 Cambridge Crystallographic Data Centre
#                                CCDC 
#
#######################################################################
#
# If this CIF has been generated from an entry in the Cambridge 
# Structural Database, then it will include bibliographic, chemical, 
# crystal, experimental, refinement or atomic coordinate data resulting 
# from the CCDC's data processing and validation procedures.
#
#######################################################################

data_HEGFUV
_chemical_name_common            
"N$8!-(2'-O-Methylribofuranosyl)-8-aza-7-deazaadenine monohydrate"
_chemical_formula_moiety         'C11 H15 N5 O4,H2 O1'
_chemical_name_systematic        
'4-Amino-2-(2-O-methyl-\b-D-ribofuranosyl)-2H-pyrazolo(3,4-d)pyrimidine monohydrate'
_symmetry_cell_setting           monoclinic
_symmetry_space_group_name_H-M   'C 2'
_symmetry_Int_Tables_number      5
_space_group_name_Hall           'C 2y'
loop_
_symmetry_equiv_pos_site_id
_symmetry_equiv_pos_as_xyz
1 x,y,z
2 -x,y,-z
3 1/2+x,1/2+y,z
4 1/2-x,1/2+y,-z
_cell_length_a                   17.263(2)
_cell_length_b                   7.5673(7)
_cell_length_c                   10.4757(8)
_cell_angle_alpha                90
_cell_angle_beta                 93.128(8)
_cell_angle_gamma                90
_cell_volume                     1366.45
_exptl_crystal_colour            colorless
_exptl_crystal_description       block
_chemical_melting_point          422-424K
_cell_formula_units_Z            4
_exptl_crystal_recrystallization_method methanol/water
loop_
_atom_site_label
_atom_site_type_symbol
_atom_site_fract_x
_atom_site_fract_y
_atom_site_fract_z
N1 N 0.39800(7) 0.6512(2) 0.44054(12)
C1 C 0.33762(9) 0.6695(2) 0.35419(13)
H1 H 0.3503 0.6630 0.2692
N2 N 0.26362(8) 0.6953(2) 0.37155(11)
C2 C 0.24802(9) 0.6997(2) 0.49826(13)
C3 C 0.30550(7) 0.6797(2) 0.59851(12)
C4 C 0.38344(8) 0.6554(2) 0.56538(13)
N3 N 0.44266(8) 0.6404(3) 0.65129(14)
H2 H 0.4891 0.6283 0.6266
H3 H 0.4346 0.6427 0.7315
C5 C 0.26568(8) 0.6964(2) 0.70996(12)
H4 H 0.2863 0.6906 0.7938
N4 N 0.19129(6) 0.7226(2) 0.67070(11)
N5 N 0.17754(7) 0.7260(2) 0.54209(11)
C6 C 0.12367(8) 0.7428(2) 0.74915(12)
H5 H 0.0893 0.8349 0.7125
C7 C 0.07852(8) 0.5693(2) 0.75991(14)
H6 H 0.0842 0.4917 0.6861
O1 O 0.00028(6) 0.6043(2) 0.78236(12)
C8 C -0.04690(10) 0.6348(4) 0.66917(19)
H7 H -0.0260 0.7314 0.6226
H8 H -0.0987 0.6633 0.6914
H9 H -0.0480 0.5304 0.6171
C9 C 0.11598(9) 0.4924(2) 0.88289(15)
H10 H 0.1663 0.4410 0.8648
O2 O 0.07012(10) 0.3626(2) 0.93787(19)
H11 H 0.0978(18) 0.352(7) 1.002(2)
C10 C 0.12912(8) 0.6576(2) 0.96354(13)
H12 H 0.0804 0.6913 1.0006
O3 O 0.15030(7) 0.79132(17) 0.87390(10)
C11 C 0.19197(10) 0.6434(3) 1.06849(16)
H13 H 0.1810 0.5452 1.1242
H14 H 0.2414 0.6215 1.0318
O4 O 0.19587(8) 0.8025(2) 1.14011(12)
H15 H 0.2174 0.7836 1.2105
O5 O 0.07920(16) 0.0607(3) 1.07967(19)
H16 H 0.068(3) 0.070(9) 0.9897(13)
H17 H 0.116(2) -0.028(5) 1.110(4)
loop_
_geom_bond_atom_site_label_1
_geom_bond_atom_site_label_2
_geom_bond_site_symmetry_1
_geom_bond_site_symmetry_2
N1 C1 1_555 1_555
C1 H1 1_555 1_555
N2 C1 1_555 1_555
C2 N2 1_555 1_555
C3 C2 1_555 1_555
C4 N1 1_555 1_555
N3 C4 1_555 1_555
H2 N3 1_555 1_555
H3 N3 1_555 1_555
C5 C3 1_555 1_555
H4 C5 1_555 1_555
N4 C5 1_555 1_555
N5 C2 1_555 1_555
C6 N4 1_555 1_555
H5 C6 1_555 1_555
C7 C6 1_555 1_555
H6 C7 1_555 1_555
O1 C7 1_555 1_555
C8 O1 1_555 1_555
H7 C8 1_555 1_555
H8 C8 1_555 1_555
H9 C8 1_555 1_555
C9 C7 1_555 1_555
H10 C9 1_555 1_555
O2 C9 1_555 1_555
H11 O2 1_555 1_555
C10 C9 1_555 1_555
H12 C10 1_555 1_555
O3 C6 1_555 1_555
C11 C10 1_555 1_555
H13 C11 1_555 1_555
H14 C11 1_555 1_555
O4 C11 1_555 1_555
H15 O4 1_555 1_555
O5 H16 1_555 1_555
H17 O5 1_555 1_555
C3 C4 1_555 1_555
N4 N5 1_555 1_555
C10 O3 1_555 1_555

#END
