
#######################################################################
#
#                 Cambridge Crystallographic Data Centre
#                                CCDC 
#
#######################################################################
#
# If this CIF has been generated from an entry in the Cambridge 
# Structural Database, then it will include bibliographic, chemical, 
# crystal, experimental, refinement or atomic coordinate data resulting 
# from the CCDC's data processing and validation procedures.
#
#######################################################################

data_HEGGAC
_chemical_compound_source        'leaves of Stellera chamaejasme'
_chemical_name_common            Daphnoretin
_chemical_formula_moiety         'C19 H12 O7'
_chemical_name_systematic        
7-Hydroxy-6-methoxy-3-((2-oxo-2H-1-benzopyran-7-yl)oxy)-2H-1-benzopyran-2-one
_chemical_properties_biological  
'antimicrobial, antibacterial, antifungal, antimitotic and antiHIV activities'
_symmetry_cell_setting           triclinic
_symmetry_space_group_name_H-M   'P -1'
_symmetry_Int_Tables_number      2
_space_group_name_Hall           '-P 1'
loop_
_symmetry_equiv_pos_site_id
_symmetry_equiv_pos_as_xyz
1 x,y,z
2 -x,-y,-z
_cell_length_a                   7.659(3)
_cell_length_b                   13.872(5)
_cell_length_c                   16.479(5)
_cell_angle_alpha                113.175(5)
_cell_angle_beta                 99.171(6)
_cell_angle_gamma                96.799(5)
_cell_volume                     1557.01
_exptl_crystal_colour            colorless
_exptl_crystal_description       block
_cell_formula_units_Z            4
_exptl_crystal_recrystallization_method 'chloroform/methanol (1:1)'
loop_
_atom_site_label
_atom_site_type_symbol
_atom_site_fract_x
_atom_site_fract_y
_atom_site_fract_z
C1 C 0.4428(2) 0.27260(14) 0.00204(13)
C2 C 0.4862(2) 0.28008(14) 0.08964(12)
H1 H 0.4467 0.3303 0.1360
C3 C 0.5883(2) 0.21244(15) 0.10721(12)
H2 H 0.6198 0.2185 0.1662
C4 C 0.6458(2) 0.13477(14) 0.03831(12)
C5 C 0.7443(2) 0.05791(15) 0.04906(13)
H3 H 0.7830 0.0612 0.1067
C6 C 0.7825(2) -0.01894(15) -0.02211(14)
H4 H 0.8441 -0.0692 -0.0134
C7 C 0.7295(3) -0.02455(16) -0.11155(15)
C8 C 0.5936(2) 0.12851(14) -0.04881(12)
C9 C 0.4956(2) 0.19686(14) -0.06798(12)
H5 H 0.4659 0.1921 -0.1266
C10 C 0.2349(3) 0.39021(15) 0.03182(12)
C11 C 0.2546(3) 0.49625(15) 0.07293(12)
H6 H 0.3566 0.5399 0.0729
C12 C 0.1196(2) 0.54341(14) 0.11712(11)
C13 C 0.1265(3) 0.65387(14) 0.16137(12)
H7 H 0.2248 0.7017 0.1633
C14 C -0.0092(3) 0.69260(14) 0.20180(12)
C15 C -0.1591(3) 0.62015(15) 0.19821(12)
C16 C -0.1681(3) 0.51251(15) 0.15469(12)
H8 H -0.2671 0.4647 0.1521
C17 C -0.0310(2) 0.47467(14) 0.11472(11)
C18 C 0.0779(3) 0.31726(16) 0.02885(12)
C19 C 0.1020(3) 0.87447(15) 0.23345(14)
H9 H 0.0863 0.9452 0.2695
H10 H 0.0729 0.8607 0.1705
H11 H 0.2251 0.8690 0.2502
O1 O 0.35292(18) 0.34319(10) -0.01971(8)
O3 O 0.63689(18) 0.05040(10) -0.12140(8)
O4 O 0.7580(2) -0.08925(12) -0.18021(10)
O5 O 0.04948(18) 0.22080(10) -0.00833(9)
O6 O -0.04808(17) 0.36499(9) 0.07215(8)
O7 O -0.29514(19) 0.65470(12) 0.23758(10)
O8 O -0.01414(18) 0.79814(10) 0.24851(9)
H24 H -0.288(3) 0.7247(17) 0.2602(14)
C20 C 0.5733(2) 0.73632(15) 0.52152(13)
C21 C 0.4670(3) 0.70613(15) 0.43583(13)
H12 H 0.4705 0.6422 0.3884
C22 C 0.3567(3) 0.77144(16) 0.42168(13)
H13 H 0.2833 0.7505 0.3645
C23 C 0.3520(2) 0.86928(15) 0.49170(12)
C24 C 0.2409(2) 0.94177(16) 0.48333(14)
H14 H 0.1605 0.9236 0.4285
C25 C 0.2502(3) 1.03592(16) 0.55316(14)
H15 H 0.1773 1.0822 0.5457
C26 C 0.3707(3) 1.06612(16) 0.63905(14)
C27 C 0.4660(2) 0.89720(14) 0.57563(12)
C28 C 0.5745(2) 0.83201(14) 0.59251(12)
H16 H 0.6464 0.8517 0.6498
C29 C 0.7610(2) 0.60870(14) 0.47727(12)
C30 C 0.7399(2) 0.50301(14) 0.44958(12)
H17 H 0.6547 0.4673 0.4678
C31 C 0.8476(2) 0.44413(14) 0.39195(11)
C32 C 0.8397(2) 0.33368(14) 0.36197(12)
H18 H 0.7579 0.2938 0.3786
C33 C 0.9511(3) 0.28363(14) 0.30831(12)
C34 C 1.0766(3) 0.34384(15) 0.28321(12)
C35 C 1.0861(3) 0.45151(15) 0.31245(12)
H19 H 1.1686 0.4916 0.2964
C36 C 0.9727(2) 0.50083(14) 0.36602(11)
C37 C 0.8914(3) 0.66903(15) 0.45085(13)
C38 C 0.8331(3) 0.11117(15) 0.29726(13)
H20 H 0.8481 0.0384 0.2697
H21 H 0.7111 0.1152 0.2760
H22 H 0.8585 0.1356 0.3619
O2 O 0.67541(18) 0.66934(10) 0.54187(8)
O9 O 0.47407(16) 0.99413(9) 0.64707(8)
O10 O 0.39180(19) 1.14857(11) 0.70653(10)
O11 O 0.92093(18) 0.76494(10) 0.47495(9)
O12 O 0.98931(17) 0.61015(9) 0.39376(8)
O13 O 1.1873(2) 0.29731(13) 0.23072(10)
O14 O 0.95408(18) 0.17695(10) 0.27386(9)
H23 H 1.173(3) 0.2285(17) 0.2160(14)
loop_
_geom_bond_atom_site_label_1
_geom_bond_atom_site_label_2
_geom_bond_site_symmetry_1
_geom_bond_site_symmetry_2
C1 C2 1_555 1_555
C2 H1 1_555 1_555
C3 C2 1_555 1_555
H2 C3 1_555 1_555
C4 C3 1_555 1_555
C5 C4 1_555 1_555
H3 C5 1_555 1_555
C6 C5 1_555 1_555
H4 C6 1_555 1_555
C7 C6 1_555 1_555
C8 C4 1_555 1_555
C9 C1 1_555 1_555
H5 C9 1_555 1_555
C10 C11 1_555 1_555
C11 H6 1_555 1_555
C12 C11 1_555 1_555
C13 C12 1_555 1_555
H7 C13 1_555 1_555
C14 C13 1_555 1_555
C15 C14 1_555 1_555
C16 C15 1_555 1_555
H8 C16 1_555 1_555
C17 C12 1_555 1_555
C18 C10 1_555 1_555
C19 H9 1_555 1_555
H10 C19 1_555 1_555
H11 C19 1_555 1_555
C20 C21 1_555 1_555
C21 H12 1_555 1_555
C22 C21 1_555 1_555
H13 C22 1_555 1_555
C23 C22 1_555 1_555
C24 C23 1_555 1_555
H14 C24 1_555 1_555
C25 C24 1_555 1_555
H15 C25 1_555 1_555
C26 C25 1_555 1_555
C27 C23 1_555 1_555
C28 C20 1_555 1_555
H16 C28 1_555 1_555
C29 C30 1_555 1_555
C30 H17 1_555 1_555
C31 C30 1_555 1_555
C32 C31 1_555 1_555
H18 C32 1_555 1_555
C33 C32 1_555 1_555
C34 C33 1_555 1_555
C35 C34 1_555 1_555
H19 C35 1_555 1_555
C36 C31 1_555 1_555
C37 C29 1_555 1_555
C38 H20 1_555 1_555
H21 C38 1_555 1_555
H22 C38 1_555 1_555
O1 C1 1_555 1_555
O2 C20 1_555 1_555
O3 C7 1_555 1_555
O4 C7 1_555 1_555
O5 C18 1_555 1_555
O6 C17 1_555 1_555
O7 C15 1_555 1_555
O8 C14 1_555 1_555
O9 C26 1_555 1_555
O10 C26 1_555 1_555
O11 C37 1_555 1_555
O12 C36 1_555 1_555
O13 C34 1_555 1_555
O14 C33 1_555 1_555
H23 O13 1_555 1_555
H24 O7 1_555 1_555
C8 C9 1_555 1_555
C8 O3 1_555 1_555
C10 O1 1_555 1_555
C16 C17 1_555 1_555
C18 O6 1_555 1_555
C19 O8 1_555 1_555
C27 C28 1_555 1_555
C27 O9 1_555 1_555
C29 O2 1_555 1_555
C35 C36 1_555 1_555
C37 O12 1_555 1_555
C38 O14 1_555 1_555

#END
