
#######################################################################
#
#                 Cambridge Crystallographic Data Centre
#                                CCDC 
#
#######################################################################
#
# If this CIF has been generated from an entry in the Cambridge 
# Structural Database, then it will include bibliographic, chemical, 
# crystal, experimental, refinement or atomic coordinate data resulting 
# from the CCDC's data processing and validation procedures.
#
#######################################################################

data_HEGKEK
_chemical_name_common            'Methyl beta-L-lactoside'
_chemical_formula_moiety         'C13 H24 O11'
_chemical_name_systematic        
'Methyl 4-O-\b-L-galactopyranosyl-\b-D-glucopyranoside'
_symmetry_cell_setting           orthorhombic
_symmetry_space_group_name_H-M   'P 21 21 21'
_symmetry_Int_Tables_number      19
_space_group_name_Hall           'P 2ac 2ab'
loop_
_symmetry_equiv_pos_site_id
_symmetry_equiv_pos_as_xyz
1 x,y,z
2 1/2+x,1/2-y,-z
3 -x,1/2+y,1/2-z
4 1/2-x,-y,1/2+z
_cell_length_a                   4.7087(4)
_cell_length_b                   14.1428(12)
_cell_length_c                   23.2401(19)
_cell_angle_alpha                90
_cell_angle_beta                 90
_cell_angle_gamma                90
_cell_volume                     1547.66
_exptl_crystal_colour            colorless
_exptl_crystal_description       needle
_cell_formula_units_Z            4
_exptl_crystal_recrystallization_method methanol
loop_
_atom_site_label
_atom_site_type_symbol
_atom_site_fract_x
_atom_site_fract_y
_atom_site_fract_z
C1 C 0.9108(3) 0.66870(10) 0.14464(6)
H1 H 0.7218 0.6674 0.1250
C2 C 0.9964(3) 0.77062(10) 0.15776(6)
H2 H 1.1952 0.7717 0.1729
C3 C 0.7967(3) 0.81224(10) 0.20249(6)
H3 H 0.6025 0.8168 0.1853
C4 C 0.7811(3) 0.74872(11) 0.25573(6)
H4 H 0.6351 0.7740 0.2829
C5 C 0.6967(3) 0.64917(10) 0.23670(6)
H5 H 0.5060 0.6518 0.2178
C6 C 0.6845(4) 0.58009(10) 0.28652(7)
H6 H 0.8718 0.5771 0.3058
H7 H 0.5421 0.6015 0.3150
O1 O 1.1178(2) 0.62829(8) 0.10915(4)
O2 O 0.9830(3) 0.82412(8) 0.10555(5)
H8 H 1.136(6) 0.8529(17) 0.1016(10)
O3 O 0.8901(3) 0.90494(8) 0.21699(5)
H9 H 0.765(6) 0.9350(17) 0.2228(10)
O4 O 1.0496(2) 0.74434(8) 0.28404(5)
H10 H 1.082(6) 0.7944(17) 0.3007(11)
O5 O 0.9017(2) 0.61307(7) 0.19595(4)
O6 O 0.6083(3) 0.48807(8) 0.26504(5)
H11 H 0.737(6) 0.4553(18) 0.2734(11)
C7 C 1.1010(3) 0.43818(11) -0.02791(6)
H12 H 1.3093 0.4468 -0.0343
C8 C 0.9456(3) 0.53228(11) -0.03710(6)
H13 H 0.7383 0.5204 -0.0311
C9 C 1.0400(3) 0.60340(10) 0.00812(6)
H14 H 1.2433 0.6204 0.0012
C10 C 1.0104(3) 0.56104(10) 0.06809(6)
H15 H 0.8049 0.5493 0.0762
C11 C 1.1712(3) 0.46766(10) 0.07193(6)
H16 H 1.3755 0.4789 0.0624
C12 C 1.1519(4) 0.42083(12) 0.13065(6)
H17 H 1.2348 0.3566 0.1282
H18 H 1.2667 0.4576 0.1584
C13 C 1.1687(4) 0.28773(12) -0.06836(8)
H19 H 1.3671 0.3057 -0.0749
H20 H 1.1036 0.2474 -0.1000
H21 H 1.1533 0.2531 -0.0320
O7 O 0.9953(3) 0.37154(8) -0.06577(5)
O8 O 0.9802(3) 0.56846(8) -0.09390(5)
H22 H 1.134(7) 0.592(2) -0.0977(11)
O9 O 0.8692(3) 0.68598(8) 0.00254(5)
H23 H 0.939(6) 0.7267(18) 0.0205(10)
O10 O 1.0503(3) 0.40568(8) 0.02969(5)
O11 O 0.8663(3) 0.41363(8) 0.15189(5)
H24 H 0.851(6) 0.4572(19) 0.1705(10)
loop_
_geom_bond_atom_site_label_1
_geom_bond_atom_site_label_2
_geom_bond_site_symmetry_1
_geom_bond_site_symmetry_2
C1 H1 1_555 1_555
C2 C1 1_555 1_555
H2 C2 1_555 1_555
C3 C2 1_555 1_555
H3 C3 1_555 1_555
C4 C3 1_555 1_555
H4 C4 1_555 1_555
C5 C4 1_555 1_555
H5 C5 1_555 1_555
C6 C5 1_555 1_555
H6 C6 1_555 1_555
H7 C6 1_555 1_555
O1 C1 1_555 1_555
O2 C2 1_555 1_555
H8 O2 1_555 1_555
O3 C3 1_555 1_555
H9 O3 1_555 1_555
O4 C4 1_555 1_555
H10 O4 1_555 1_555
O5 C1 1_555 1_555
O6 C6 1_555 1_555
H11 O6 1_555 1_555
C7 H12 1_555 1_555
C8 C7 1_555 1_555
H13 C8 1_555 1_555
C9 C8 1_555 1_555
H14 C9 1_555 1_555
C10 O1 1_555 1_555
H15 C10 1_555 1_555
C11 C10 1_555 1_555
H16 C11 1_555 1_555
C12 C11 1_555 1_555
H17 C12 1_555 1_555
H18 C12 1_555 1_555
C13 H19 1_555 1_555
H20 C13 1_555 1_555
H21 C13 1_555 1_555
O7 C7 1_555 1_555
O8 C8 1_555 1_555
H22 O8 1_555 1_555
O9 C9 1_555 1_555
H23 O9 1_555 1_555
O10 C7 1_555 1_555
O11 C12 1_555 1_555
H24 O11 1_555 1_555
C5 O5 1_555 1_555
C9 C10 1_555 1_555
C11 O10 1_555 1_555
C13 O7 1_555 1_555

#END
