
#######################################################################
#
#                 Cambridge Crystallographic Data Centre
#                                CCDC 
#
#######################################################################
#
# If this CIF has been generated from an entry in the Cambridge 
# Structural Database, then it will include bibliographic, chemical, 
# crystal, experimental, refinement or atomic coordinate data resulting 
# from the CCDC's data processing and validation procedures.
#
#######################################################################

data_HEGLEM
_chemical_formula_moiety         'C2 H2 N6 O5'
_chemical_name_systematic        '(5-Nitro-2H-tetrazol-2-yl)methyl nitrate'
_symmetry_cell_setting           orthorhombic
_symmetry_space_group_name_H-M   'P n a 21'
_symmetry_Int_Tables_number      33
_space_group_name_Hall           'P 2c -2n'
loop_
_symmetry_equiv_pos_site_id
_symmetry_equiv_pos_as_xyz
1 x,y,z
2 -x,-y,1/2+z
3 1/2+x,1/2-y,z
4 1/2-x,1/2+y,1/2+z
_cell_length_a                   21.209(8)
_cell_length_b                   5.2805(19)
_cell_length_c                   6.246(2)
_cell_angle_alpha                90
_cell_angle_beta                 90
_cell_angle_gamma                90
_cell_volume                     699.515
_exptl_crystal_colour            colorless
_exptl_crystal_description       platelet
_cell_formula_units_Z            4
loop_
_atom_site_label
_atom_site_type_symbol
_atom_site_fract_x
_atom_site_fract_y
_atom_site_fract_z
O1 O 0.32318(5) 0.5990(2) 0.4716(2)
O2 O 0.30342(8) 0.8722(3) 0.1995(3)
O3 O 0.27161(8) 0.4790(4) 0.1885(3)
O4 O 0.58048(5) 0.4232(2) 0.55545(18)
O5 O 0.61769(5) 0.7304(2) 0.3606(2)
N1 N 0.50300(6) 0.9536(2) 0.3421(2)
N2 N 0.44297(6) 1.0005(2) 0.3715(2)
N3 N 0.42103(5) 0.8094(2) 0.48947(19)
N4 N 0.46366(5) 0.6362(2) 0.54006(19)
N5 N 0.29664(7) 0.6603(4) 0.2643(3)
N6 N 0.57516(5) 0.6213(2) 0.4549(2)
C1 C 0.51321(7) 0.7347(3) 0.4444(2)
C2 C 0.35597(7) 0.8022(3) 0.5654(3)
H1 H 0.3556 0.7835 0.7231
H2 H 0.3347 0.9633 0.5289
loop_
_geom_bond_atom_site_label_1
_geom_bond_atom_site_label_2
_geom_bond_site_symmetry_1
_geom_bond_site_symmetry_2
O1 N5 1_555 1_555
O2 N5 1_555 1_555
O3 N5 1_555 1_555
O4 N6 1_555 1_555
O5 N6 1_555 1_555
N1 N2 1_555 1_555
N2 N3 1_555 1_555
N3 N4 1_555 1_555
N4 C1 1_555 1_555
N6 C1 1_555 1_555
C1 N1 1_555 1_555
C2 O1 1_555 1_555
H1 C2 1_555 1_555
H2 C2 1_555 1_555
N3 C2 1_555 1_555

#END
