
#######################################################################
#
#                 Cambridge Crystallographic Data Centre
#                                CCDC 
#
#######################################################################
#
# If this CIF has been generated from an entry in the Cambridge 
# Structural Database, then it will include bibliographic, chemical, 
# crystal, experimental, refinement or atomic coordinate data resulting 
# from the CCDC's data processing and validation procedures.
#
#######################################################################

data_HEGNIT
_chemical_formula_moiety         'C23 H21 N1 O2'
_chemical_name_systematic        
'2-{[3-(2-hydroxyethyl)-1H-indol-2-yl](phenyl)methyl}phenol unknown solvate'
_symmetry_cell_setting           hexagonal
_symmetry_space_group_name_H-M   'P 61'
_symmetry_Int_Tables_number      169
_space_group_name_Hall           'P 61'
loop_
_symmetry_equiv_pos_site_id
_symmetry_equiv_pos_as_xyz
1 x,y,z
2 x-y,x,1/6+z
3 -y,x-y,1/3+z
4 -x,-y,1/2+z
5 -x+y,-x,2/3+z
6 y,-x+y,5/6+z
_cell_length_a                   18.5578(9)
_cell_length_b                   18.5578(9)
_cell_length_c                   9.8682(6)
_cell_angle_alpha                90
_cell_angle_beta                 90
_cell_angle_gamma                120
_cell_volume                     2943.21
_exptl_crystal_colour            colorless
_exptl_crystal_description       prism
_cell_formula_units_Z            6
loop_
_atom_site_label
_atom_site_type_symbol
_atom_site_fract_x
_atom_site_fract_y
_atom_site_fract_z
O1 O -0.1681(2) -0.9271(3) -0.7501(5)
H1 H -0.214431 -0.932081 -0.757354
O2 O -0.31941(19) -1.0767(2) -0.7654(3)
H2 H -0.302914 -1.066242 -0.843907
N1 N -0.37580(15) -0.99267(14) -0.4580(3)
H3 H -0.427698 -1.029491 -0.463728
C1 C -0.36309(19) -0.95083(18) -0.7033(3)
H4 H -0.317060 -0.934711 -0.767082
C2 C -0.32762(18) -0.94385(18) -0.5639(3)
C3 C -0.24815(19) -0.89223(19) -0.5162(3)
C4 C -0.2486(2) -0.91036(18) -0.3760(3)
C5 C -0.1883(3) -0.8794(2) -0.2731(5)
H5 H -0.134306 -0.837198 -0.291112
C6 C -0.2106(3) -0.9127(3) -0.1452(5)
H6 H -0.170941 -0.891586 -0.076586
C7 C -0.2885(3) -0.9752(3) -0.1153(5)
H7 H -0.300492 -0.996775 -0.027906
C8 C -0.3501(2) -1.0072(2) -0.2127(4)
H8 H -0.403690 -1.049438 -0.192206
C9 C -0.32905(19) -0.97402(18) -0.3423(3)
C10 C -0.1738(2) -0.8312(2) -0.5969(5)
H9 H -0.192422 -0.811530 -0.672872
H10 H -0.138652 -0.783570 -0.540294
C11 C -0.1233(3) -0.8688(3) -0.6493(5)
H11 H -0.071036 -0.825333 -0.686129
H12 H -0.111052 -0.895544 -0.575652
C12 C -0.4264(2) -1.04083(18) -0.7340(3)
C13 C -0.4008(2) -1.0986(2) -0.7605(4)
C14 C -0.4597(3) -1.1816(2) -0.7798(4)
H13 H -0.442457 -1.219995 -0.796498
C15 C -0.5432(3) -1.2079(2) -0.7746(5)
H14 H -0.581986 -1.263634 -0.789337
C16 C -0.5693(2) -1.1529(2) -0.7480(4)
H15 H -0.625898 -1.170938 -0.743976
C17 C -0.5119(2) -1.0703(2) -0.7269(4)
H16 H -0.530396 -1.033236 -0.707503
C18 C -0.39611(18) -0.89114(18) -0.7270(3)
C19 C -0.4140(2) -0.8533(2) -0.6209(4)
H17 H -0.406698 -0.864650 -0.531749
C20 C -0.4425(3) -0.7989(2) -0.6477(4)
H18 H -0.454351 -0.773884 -0.576111
C21 C -0.4537(2) -0.7812(2) -0.7776(5)
H19 H -0.472844 -0.744283 -0.794010
C22 C -0.4367(2) -0.8179(2) -0.8834(4)
H20 H -0.444907 -0.806438 -0.972043
C23 C -0.4072(2) -0.87246(19) -0.8586(3)
H21 H -0.394864 -0.896562 -0.930977
loop_
_geom_bond_atom_site_label_1
_geom_bond_atom_site_label_2
_geom_bond_site_symmetry_1
_geom_bond_site_symmetry_2
O1 H1 1_555 1_555
O2 H2 1_555 1_555
N1 H3 1_555 1_555
C1 H4 1_555 1_555
C2 N1 1_555 1_555
C3 C2 1_555 1_555
C4 C3 1_555 1_555
C5 C4 1_555 1_555
H5 C5 1_555 1_555
C6 C5 1_555 1_555
H6 C6 1_555 1_555
C7 C6 1_555 1_555
H7 C7 1_555 1_555
C8 C7 1_555 1_555
H8 C8 1_555 1_555
C9 N1 1_555 1_555
C10 C3 1_555 1_555
H9 C10 1_555 1_555
H10 C10 1_555 1_555
C11 O1 1_555 1_555
H11 C11 1_555 1_555
H12 C11 1_555 1_555
C12 C1 1_555 1_555
C13 O2 1_555 1_555
C14 C13 1_555 1_555
H13 C14 1_555 1_555
C15 C14 1_555 1_555
H14 C15 1_555 1_555
C16 C15 1_555 1_555
H15 C16 1_555 1_555
C17 C12 1_555 1_555
H16 C17 1_555 1_555
C18 C1 1_555 1_555
C19 C18 1_555 1_555
H17 C19 1_555 1_555
C20 C19 1_555 1_555
H18 C20 1_555 1_555
C21 C20 1_555 1_555
H19 C21 1_555 1_555
C22 C21 1_555 1_555
H20 C22 1_555 1_555
C23 C18 1_555 1_555
H21 C23 1_555 1_555
C1 C2 1_555 1_555
C4 C9 1_555 1_555
C8 C9 1_555 1_555
C10 C11 1_555 1_555
C12 C13 1_555 1_555
C16 C17 1_555 1_555
C22 C23 1_555 1_555

#END
