
#######################################################################
#
#                 Cambridge Crystallographic Data Centre
#                                CCDC 
#
#######################################################################
#
# If this CIF has been generated from an entry in the Cambridge 
# Structural Database, then it will include bibliographic, chemical, 
# crystal, experimental, refinement or atomic coordinate data resulting 
# from the CCDC's data processing and validation procedures.
#
#######################################################################

data_HEGQIT
_chemical_formula_moiety         '2(C1 H6 N3 1+),C12 H8 N2 O6 S2 2-,C6 H5 N1 O2'
_chemical_name_systematic        
"bis(Guanidinium) azobenzene-4,4'-disulfonate nitrobenzene clathrate"
_symmetry_cell_setting           triclinic
_symmetry_space_group_name_H-M   'P -1'
_symmetry_Int_Tables_number      2
_space_group_name_Hall           '-P 1'
loop_
_symmetry_equiv_pos_site_id
_symmetry_equiv_pos_as_xyz
1 x,y,z
2 -x,-y,-z
_cell_length_a                   7.1781(3)
_cell_length_b                   7.3188(4)
_cell_length_c                   16.7531(7)
_cell_angle_alpha                89.185(2)
_cell_angle_beta                 89.696(2)
_cell_angle_gamma                62.094(1)
_cell_volume                     777.702
_exptl_crystal_colour            salmon
_exptl_crystal_description       plate
_cell_formula_units_Z            1
_exptl_crystal_recrystallization_method methanol
loop_
_atom_site_label
_atom_site_type_symbol
_atom_site_fract_x
_atom_site_fract_y
_atom_site_fract_z
S1 S 0.19623(13) 0.39438(13) 0.36701(5)
O1 O 0.0893(4) 0.2779(4) 0.3950(2)
O2 O 0.0961(4) 0.6041(4) 0.39736(15)
O3 O 0.4224(4) 0.2876(4) 0.38150(15)
C2 C 0.1010(11) 0.4770(12) 0.1013(3)
C3 C 0.2583(13) 0.4807(10) 0.1327(3)
H7 H 0.3531(13) 0.5057(10) 0.1001(3)
C4 C 0.2946(10) 0.4487(10) 0.2139(3)
H8 H 0.4164(10) 0.4486(10) 0.2359(3)
C5 C 0.1625(7) 0.4178(7) 0.2627(2)
C6 C -0.0011(12) 0.3984(22) 0.2281(4)
H9 H -0.0871(12) 0.3579(22) 0.2592(4)
C7 C -0.0375(13) 0.4391(25) 0.1468(5)
H10 H -0.1579(13) 0.4409(25) 0.1227(5)
N4 N 0.0775(10) 0.5033(12) 0.0141(3)
N4A N -0.0775(10) 0.4967(12) -0.0141(3)
C2A C -0.1010(11) 0.5230(12) -0.1013(3)
C3A C -0.2583(13) 0.5193(10) -0.1327(3)
H7A H -0.3531(13) 0.4943(10) -0.1001(3)
C4A C -0.2946(10) 0.5513(10) -0.2139(3)
H8A H -0.4164(10) 0.5514(10) -0.2359(3)
C5A C -0.1625(7) 0.5822(7) -0.2627(2)
S1A S -0.19623(13) 0.60562(13) -0.36701(5)
O1A O -0.0893(4) 0.7221(4) -0.3950(2)
O2A O -0.0961(4) 0.3959(4) -0.39736(15)
O3A O -0.4224(4) 0.7124(4) -0.38150(15)
C6A C 0.0011(12) 0.6016(22) -0.2281(4)
H9A H 0.0871(12) 0.6421(22) -0.2592(4)
C7A C 0.0375(13) 0.5609(25) -0.1468(5)
H10A H 0.1579(13) 0.5591(25) -0.1227(5)
C1 C -0.4643(5) 0.7347(5) 0.4209(2)
N1 N -0.3638(4) 0.5311(4) 0.4208(2)
H1 H -0.4353(4) 0.4610(4) 0.4201(2)
H2 H -0.2251(4) 0.4653(4) 0.4213(2)
N2 N -0.3561(5) 0.8410(5) 0.4227(2)
H3 H -0.2174(5) 0.7752(5) 0.4237(2)
H4 H -0.4233(5) 0.9770(5) 0.4228(2)
N3 N -0.6741(4) 0.8339(5) 0.4201(2)
H5 H -0.7453(4) 0.7634(5) 0.4195(2)
H6 H -0.7416(4) 0.9699(5) 0.4202(2)
loop_
_geom_bond_atom_site_label_1
_geom_bond_atom_site_label_2
_geom_bond_site_symmetry_1
_geom_bond_site_symmetry_2
C1 N1 1_555 1_555
N1 H1 1_555 1_555
H2 N1 1_555 1_555
N2 C1 1_555 1_555
H3 N2 1_555 1_555
H4 N2 1_555 1_555
N3 C1 1_555 1_555
H5 N3 1_555 1_555
H6 N3 1_555 1_555
S1 O1 1_555 1_555
O2 S1 1_555 1_555
O3 S1 1_555 1_555
C2 C3 1_555 1_555
C3 H7 1_555 1_555
C4 C3 1_555 1_555
H8 C4 1_555 1_555
C5 S1 1_555 1_555
C6 C5 1_555 1_555
H9 C6 1_555 1_555
C7 C2 1_555 1_555
H10 C7 1_555 1_555
N4 C2 1_555 1_555
N4A N4 1_555 1_555
C2A N4A 1_555 1_555
C3A C2A 1_555 1_555
H7A C3A 1_555 1_555
C4A C3A 1_555 1_555
H8A C4A 1_555 1_555
C5A C4A 1_555 1_555
S1A C5A 1_555 1_555
O1A S1A 1_555 1_555
O2A S1A 1_555 1_555
O3A S1A 1_555 1_555
C6A C5A 1_555 1_555
H9A C6A 1_555 1_555
C7A C2A 1_555 1_555
H10A C7A 1_555 1_555
C4 C5 1_555 1_555
C6 C7 1_555 1_555
C6A C7A 1_555 1_555

#END
