
#######################################################################
#
#                 Cambridge Crystallographic Data Centre
#                                CCDC 
#
#######################################################################
#
# If this CIF has been generated from an entry in the Cambridge 
# Structural Database, then it will include bibliographic, chemical, 
# crystal, experimental, refinement or atomic coordinate data resulting 
# from the CCDC's data processing and validation procedures.
#
#######################################################################

data_HEGQEP
_chemical_formula_moiety         '2(C1 H6 N3 1+),C12 H8 N2 O6 S2 2-,C10 H10'
_chemical_name_systematic        
"bis(Guanidinium) azobenzene-4,4'-disulfonate 1,4-divinylbenzene clathrate"
_symmetry_cell_setting           triclinic
_symmetry_space_group_name_H-M   'P -1'
_symmetry_Int_Tables_number      2
_space_group_name_Hall           '-P 1'
loop_
_symmetry_equiv_pos_site_id
_symmetry_equiv_pos_as_xyz
1 x,y,z
2 -x,-y,-z
_cell_length_a                   6.16030(1)
_cell_length_b                   7.2903(2)
_cell_length_c                   15.9207(1)
_cell_angle_alpha                95.679(1)
_cell_angle_beta                 95.058(1)
_cell_angle_gamma                96.741(1)
_cell_volume                     702.967
_exptl_crystal_colour            salmon
_exptl_crystal_description       rod
_cell_formula_units_Z            1
_exptl_crystal_recrystallization_method methanol
loop_
_atom_site_label
_atom_site_type_symbol
_atom_site_fract_x
_atom_site_fract_y
_atom_site_fract_z
S1 S 0.20281(8) 0.24421(7) 0.63007(3)
O1 O 0.4396(2) 0.2736(2) 0.62350(9)
O2 O 0.0804(2) 0.3595(2) 0.57871(9)
O3 O 0.1154(2) 0.0473(2) 0.61450(10)
C1 C 0.1670(3) 0.3151(3) 0.73730(13)
C2 C -0.0253(4) 0.3873(3) 0.75636(14)
H1 H -0.1336(4) 0.4018(3) 0.71205(14)
C3 C -0.0571(4) 0.4376(3) 0.83961(15)
H2 H -0.1881(4) 0.4860(3) 0.85291(15)
C4 C 0.1033(4) 0.4171(3) 0.90444(14)
C5 C 0.2943(4) 0.3449(3) 0.88530(15)
H3 H 0.4029(4) 0.3309(3) 0.92962(15)
C6 C 0.3267(4) 0.2931(3) 0.80130(15)
H4 H 0.4568(4) 0.2432(3) 0.78792(15)
N1 N 0.0867(3) 0.4667(3) 0.99274(12)
N1A N -0.0867(3) 0.5333(3) 1.00726(12)
C4A C -0.1033(4) 0.5829(3) 1.09556(14)
C3A C 0.0571(4) 0.5624(3) 1.16039(15)
C2A C 0.0253(4) 0.6127(3) 1.24364(14)
C1A C -0.1670(3) 0.6849(3) 1.26270(13)
S1A S -0.20281(8) 0.75579(7) 1.36993(3)
O1A O -0.4396(2) 0.7264(2) 1.37650(9)
O2A O -0.0804(2) 0.6405(2) 1.42129(9)
O3A O -0.1154(2) 0.9527(2) 1.38550(10)
C6A C -0.3267(4) 0.7069(3) 1.19870(15)
C5A C -0.2943(4) 0.6551(3) 1.11470(15)
H3A H -0.4029(4) 0.6691(3) 1.07038(15)
H4A H -0.4568(4) 0.7568(3) 1.21208(15)
H1A H 0.1336(4) 0.5982(3) 1.28795(14)
H2A H 0.1881(4) 0.5140(3) 1.14709(15)
C7 C 0.5603(3) 0.7639(3) 0.58738(13)
N2 N 0.6787(3) 0.6224(3) 0.58217(12)
H5 H 0.6172(3) 0.5092(3) 0.58702(12)
H6 H 0.8185(3) 0.6420(3) 0.57388(12)
N3 N 0.3501(3) 0.7329(3) 0.59987(14)
H7 H 0.2713(3) 0.8260(3) 0.60403(14)
H8 H 0.2891(3) 0.6192(3) 0.60400(14)
N4 N 0.6519(3) 0.9350(3) 0.58117(12)
H9 H 0.5731(3) 1.0280(3) 0.58534(12)
H10 H 0.7916(3) 0.9557(3) 0.57287(12)
C8 C 0.2908(5) 0.9486(4) 1.0196(2)
H11 H 0.1451(5) 0.9114(4) 1.0320(2)
C9 C 0.3548(5) 0.8847(4) 0.9423(2)
H12 H 0.2524(5) 0.8047(4) 0.9030(2)
C10 C 0.4315(5) 1.0648(4) 1.0795(2)
C11 C 0.3699(6) 1.1375(5) 1.1641(2)
H13 H 0.4770(6) 1.2234(5) 1.1988(2)
C12 C 0.1836(7) 1.0948(5) 1.1949(2)
H14 H 0.0712(7) 1.0096(5) 1.1626(2)
H15 H 0.1603(7) 1.1489(5) 1.2496(2)
C10A C 0.5685(5) 0.9352(4) 0.9205(2)
C8A C 0.7092(5) 1.0514(4) 0.9804(2)
H11A H 0.8549(5) 1.0886(4) 0.9680(2)
C9A C 0.6452(5) 1.1153(4) 1.0577(2)
H12A H 0.7476(5) 1.1953(4) 1.0970(2)
C11A C 0.6301(6) 0.8625(5) 0.8359(2)
H13A H 0.5230(6) 0.7766(5) 0.8012(2)
C12A C 0.8164(7) 0.9052(5) 0.8051(2)
H14A H 0.9288(7) 0.9904(5) 0.8374(2)
H15A H 0.8397(7) 0.8511(5) 0.7504(2)
loop_
_geom_bond_atom_site_label_1
_geom_bond_atom_site_label_2
_geom_bond_site_symmetry_1
_geom_bond_site_symmetry_2
S1 O1 1_555 1_555
O2 S1 1_555 1_555
O3 S1 1_555 1_555
C1 S1 1_555 1_555
C2 C1 1_555 1_555
H1 C2 1_555 1_555
C3 C2 1_555 1_555
H2 C3 1_555 1_555
C4 C3 1_555 1_555
C5 C4 1_555 1_555
H3 C5 1_555 1_555
C6 C1 1_555 1_555
H4 C6 1_555 1_555
N1 C4 1_555 1_555
C7 N2 1_555 1_555
N2 H5 1_555 1_555
H6 N2 1_555 1_555
N3 C7 1_555 1_555
H7 N3 1_555 1_555
H8 N3 1_555 1_555
N4 C7 1_555 1_555
H9 N4 1_555 1_555
H10 N4 1_555 1_555
C8 H11 1_555 1_555
C9 C8 1_555 1_555
H12 C9 1_555 1_555
C10 C8 1_555 1_555
C11 C10 1_555 1_555
H13 C11 1_555 1_555
C12 C11 1_555 1_555
H14 C12 1_555 1_555
H15 C12 1_555 1_555
N1A N1 1_555 1_555
C4A N1A 1_555 1_555
C3A C4A 1_555 1_555
C2A C3A 1_555 1_555
C1A C2A 1_555 1_555
S1A C1A 1_555 1_555
O1A S1A 1_555 1_555
O2A S1A 1_555 1_555
O3A S1A 1_555 1_555
C6A C1A 1_555 1_555
C5A C4A 1_555 1_555
H3A C5A 1_555 1_555
H4A C6A 1_555 1_555
H1A C2A 1_555 1_555
H2A C3A 1_555 1_555
C10A C9 1_555 1_555
C8A C10A 1_555 1_555
H11A C8A 1_555 1_555
C9A C10 1_555 1_555
H12A C9A 1_555 1_555
C11A C10A 1_555 1_555
H13A C11A 1_555 1_555
C12A C11A 1_555 1_555
H14A C12A 1_555 1_555
H15A C12A 1_555 1_555
C5 C6 1_555 1_555
C6A C5A 1_555 1_555
C8A C9A 1_555 1_555

#END
