
#######################################################################
#
#                 Cambridge Crystallographic Data Centre
#                                CCDC 
#
#######################################################################
#
# If this CIF has been generated from an entry in the Cambridge 
# Structural Database, then it will include bibliographic, chemical, 
# crystal, experimental, refinement or atomic coordinate data resulting 
# from the CCDC's data processing and validation procedures.
#
#######################################################################

data_HEHDOP
_chemical_name_common            '4-Ethylanilinium tetrafluoroborate 18-crown-6'
_chemical_formula_moiety         'C12 H24 O6,C8 H12 N1 1+,B1 F4 1-'
_chemical_name_systematic        
'4-Ethylanilinium tetrafluoroborate 1,4,7,10,13,16-hexaoxacyclooctadecane'
_symmetry_cell_setting           monoclinic
_symmetry_space_group_name_H-M   'P 21/c'
_symmetry_Int_Tables_number      14
_space_group_name_Hall           '-P 2ybc'
loop_
_symmetry_equiv_pos_site_id
_symmetry_equiv_pos_as_xyz
1 x,y,z
2 -x,1/2+y,1/2-z
3 -x,-y,-z
4 x,1/2-y,1/2+z
_cell_length_a                   11.5400(10)
_cell_length_b                   12.760(2)
_cell_length_c                   16.6100(10)
_cell_angle_alpha                90
_cell_angle_beta                 91.1000(10)
_cell_angle_gamma                90
_cell_volume                     2445.38
_cell_formula_units_Z            4
loop_
_atom_site_label
_atom_site_type_symbol
_atom_site_fract_x
_atom_site_fract_y
_atom_site_fract_z
B1 B 0.2467(8) 0.2892(8) 0.4010(5)
F1 F 0.3474(5) 0.2285(4) 0.3875(3)
F2 F 0.2488(5) 0.3780(4) 0.3489(3)
F3 F 0.1446(5) 0.2288(4) 0.3836(3)
F4 F 0.2445(5) 0.3250(4) 0.4817(3)
C1 C 0.2905(17) 0.5369(10) -0.0602(7)
H1 H 0.2952 0.6119 -0.0576
H2 H 0.2515 0.5166 -0.1093
H3 H 0.3673 0.5078 -0.0588
C2 C 0.2274(9) 0.4986(7) 0.0071(5)
H4 H 0.2559 0.4291 0.0201
H5 H 0.1467 0.4915 -0.0095
C3 C 0.2328(7) 0.5656(6) 0.0847(5)
C4 C 0.1289(7) 0.6018(7) 0.1187(5)
H6 H 0.0576 0.5843 0.0954
C5 C 0.1345(6) 0.6650(6) 0.1889(5)
H7 H 0.0666 0.6886 0.2122
C6 C 0.2440(7) 0.6924(5) 0.2239(4)
C7 C 0.3473(8) 0.6583(7) 0.1903(5)
H8 H 0.4185 0.6769 0.2131
C8 C 0.3410(7) 0.5934(7) 0.1192(5)
H9 H 0.4089 0.5698 0.0960
N1 N 0.2518(6) 0.7605(5) 0.2962(4)
H34 H 0.2525 0.7209 0.3403
H35 H 0.1910 0.8034 0.2969
H36 H 0.3167 0.7981 0.2948
C9 C 0.5378(7) 0.1685(6) 0.0319(4)
H10 H 0.5519 0.2246 -0.0060
H11 H 0.4672 0.1327 0.0153
C10 C 0.6388(7) 0.0921(6) 0.0326(5)
H12 H 0.6289 0.0398 0.0743
H13 H 0.6431 0.0565 -0.0189
C11 C 0.8489(7) 0.0919(6) 0.0334(5)
H14 H 0.8418 0.0560 -0.0179
H15 H 0.8600 0.0397 0.0754
C12 C 0.9522(8) 0.1667(7) 0.0328(5)
H16 H 1.0217 0.1288 0.0185
H17 H 0.9387 0.2213 -0.0069
C13 C 1.0510(7) 0.2958(6) 0.1120(5)
H18 H 1.0270 0.3490 0.0734
H19 H 1.1253 0.2684 0.0957
C14 C 1.0637(7) 0.3450(7) 0.1952(5)
H20 H 1.0813 0.2915 0.2351
H21 H 1.1261 0.3959 0.1959
C15 C 0.9612(9) 0.4529(7) 0.2895(5)
H22 H 1.0306 0.4959 0.2920
H23 H 0.9639 0.4041 0.3343
C16 C 0.8541(8) 0.5217(6) 0.2944(5)
H24 H 0.8591 0.5647 0.3425
H25 H 0.8499 0.5678 0.2481
C17 C 0.6434(8) 0.5199(6) 0.2964(5)
H26 H 0.6412 0.5657 0.2498
H27 H 0.6414 0.5630 0.3444
C18 C 0.5391(7) 0.4463(7) 0.2938(5)
H28 H 0.5454 0.3955 0.3371
H29 H 0.4682 0.4859 0.3004
C19 C 0.4267(7) 0.3387(7) 0.1990(5)
H30 H 0.3629 0.3881 0.2011
H31 H 0.4143 0.2843 0.2387
C20 C 0.4341(6) 0.2911(6) 0.1151(5)
H32 H 0.3604 0.2594 0.1002
H33 H 0.4505 0.3457 0.0764
O1 O 0.5252(5) 0.2120(4) 0.1136(3)
O2 O 0.7448(5) 0.1523(4) 0.0482(3)
O3 O 0.9673(5) 0.2130(4) 0.1121(3)
O4 O 0.9556(5) 0.3956(4) 0.2132(3)
O5 O 0.7506(5) 0.4569(4) 0.2966(3)
O6 O 0.5367(4) 0.3922(4) 0.2153(3)
loop_
_geom_bond_atom_site_label_1
_geom_bond_atom_site_label_2
_geom_bond_site_symmetry_1
_geom_bond_site_symmetry_2
B1 F1 1_555 1_555
C1 H1 1_555 1_555
H2 C1 1_555 1_555
H3 C1 1_555 1_555
C2 C1 1_555 1_555
H4 C2 1_555 1_555
H5 C2 1_555 1_555
C3 C2 1_555 1_555
C4 C3 1_555 1_555
H6 C4 1_555 1_555
C5 C4 1_555 1_555
H7 C5 1_555 1_555
C6 C5 1_555 1_555
C7 C6 1_555 1_555
H8 C7 1_555 1_555
C8 C3 1_555 1_555
H9 C8 1_555 1_555
C9 H10 1_555 1_555
H11 C9 1_555 1_555
C10 C9 1_555 1_555
H12 C10 1_555 1_555
H13 C10 1_555 1_555
C11 H14 1_555 1_555
H15 C11 1_555 1_555
C12 C11 1_555 1_555
H16 C12 1_555 1_555
H17 C12 1_555 1_555
C13 H18 1_555 1_555
H19 C13 1_555 1_555
C14 C13 1_555 1_555
H20 C14 1_555 1_555
H21 C14 1_555 1_555
C15 H22 1_555 1_555
H23 C15 1_555 1_555
C16 C15 1_555 1_555
H24 C16 1_555 1_555
H25 C16 1_555 1_555
C17 H26 1_555 1_555
H27 C17 1_555 1_555
C18 C17 1_555 1_555
H28 C18 1_555 1_555
H29 C18 1_555 1_555
C19 H30 1_555 1_555
H31 C19 1_555 1_555
C20 C19 1_555 1_555
H32 C20 1_555 1_555
H33 C20 1_555 1_555
F2 B1 1_555 1_555
F3 B1 1_555 1_555
F4 B1 1_555 1_555
N1 C6 1_555 1_555
H34 N1 1_555 1_555
H35 N1 1_555 1_555
H36 N1 1_555 1_555
O1 C9 1_555 1_555
O2 C10 1_555 1_555
O3 C12 1_555 1_555
O4 C14 1_555 1_555
O5 C16 1_555 1_555
O6 C18 1_555 1_555
C7 C8 1_555 1_555
C11 O2 1_555 1_555
C13 O3 1_555 1_555
C15 O4 1_555 1_555
C17 O5 1_555 1_555
C19 O6 1_555 1_555
C20 O1 1_555 1_555

#END
