
#######################################################################
#
#                 Cambridge Crystallographic Data Centre
#                                CCDC 
#
#######################################################################
#
# If this CIF has been generated from an entry in the Cambridge 
# Structural Database, then it will include bibliographic, chemical, 
# crystal, experimental, refinement or atomic coordinate data resulting 
# from the CCDC's data processing and validation procedures.
#
#######################################################################

data_HEHDOQ
_chemical_name_common            
'1,4,10,13(1,3)-tetrakis(benzimidazolium)-7,17-aza-octadecaphane tetrakis(trifluoromethanesulfonate) acetonitrile solvate'
_chemical_formula_moiety         'C40 H46 N10 4+,4(C1 F3 O3 S1 1-),C2 H3 N1'
_chemical_name_systematic        
'1,4,14,24,27,37-hexaaza-11,17,34,40-tetraazonianonacyclo[38.6.1.1^4,11^.1^17,24^.1^27,34^.0^5,10^.0^18,23^.0^28,33^.0^41,46^]pentaconta-5,7,9,11(50),17(49),18,20,22,28,30,32,34(48),40(47),41,43,45-hexadecaene tetrakis(trifluoromethanesulfonate) acetonitrile solvate'
_symmetry_cell_setting           triclinic
_symmetry_space_group_name_H-M   'P -1'
_symmetry_Int_Tables_number      2
_space_group_name_Hall           '-P 1'
loop_
_symmetry_equiv_pos_site_id
_symmetry_equiv_pos_as_xyz
1 x,y,z
2 -x,-y,-z
_cell_length_a                   11.8590(12)
_cell_length_b                   16.0940(17)
_cell_length_c                   16.1830(18)
_cell_angle_alpha                64.7080(10)
_cell_angle_beta                 81.862(3)
_cell_angle_gamma                89.224(3)
_cell_volume                     2760.67
_exptl_crystal_description       block
_cell_formula_units_Z            2
loop_
_atom_site_label
_atom_site_type_symbol
_atom_site_fract_x
_atom_site_fract_y
_atom_site_fract_z
F1 F 0.5326(16) 0.390(2) 0.5327(14)
F2 F 0.696(2) 0.4530(7) 0.4553(10)
F3 F 0.654(2) 0.4351(10) 0.5955(16)
O1 O 0.6406(3) 0.2397(3) 0.6656(2)
O2 O 0.6835(3) 0.2499(3) 0.5137(2)
O3 O 0.8166(4) 0.3173(3) 0.5693(3)
S1 S 0.69799(13) 0.28978(10) 0.57431(9)
C1 C 0.643(3) 0.3983(19) 0.5374(19)
F7 F 0.6519(2) 0.2140(2) 0.8771(2)
F8 F 0.7805(3) 0.1524(2) 0.8208(2)
F9 F 0.7916(3) 0.2962(2) 0.7829(2)
O4 O 0.8116(3) 0.2690(2) 0.9705(2)
O5 O 0.7980(3) 0.1062(2) 1.0148(2)
O6 O 0.9572(2) 0.1991(2) 0.9060(2)
S2 S 0.84008(9) 0.19584(9) 0.94578(8)
C3 C 0.7620(4) 0.2146(3) 0.8527(3)
F10 F 0.6738(3) 0.4555(3) 0.7947(3)
F11 F 0.6250(3) 0.4165(2) 0.9361(2)
F12 F 0.5366(2) 0.5187(2) 0.8387(3)
O7 O 0.6852(3) 0.6003(3) 0.9192(2)
O8 O 0.7298(2) 0.64666(19) 0.7570(2)
O9 O 0.8401(2) 0.53282(19) 0.8610(2)
S3 S 0.73385(8) 0.57611(7) 0.84758(8)
C4 C 0.6366(4) 0.4872(3) 0.8546(4)
F13 F 0.8183(3) 1.0583(2) 0.6955(2)
F14 F 0.8719(3) 1.08645(19) 0.5559(2)
F15 F 0.9582(2) 0.9908(2) 0.6608(2)
O10 O 0.6576(2) 0.9698(2) 0.6345(2)
O11 O 0.8152(3) 0.8980(2) 0.5866(2)
O12 O 0.7659(3) 0.86253(19) 0.74638(19)
S4 S 0.76359(8) 0.92744(7) 0.65336(7)
C5 C 0.8576(4) 1.0204(3) 0.6407(3)
N1 N 0.4054(3) 0.1039(2) 0.7367(2)
N2 N 0.3985(3) 0.1151(2) 0.5994(2)
N3 N 0.5192(2) 0.1969(2) 0.3497(2)
N4 N 0.5434(2) 0.2055(2) 0.2104(2)
N5 N 0.5307(4) 0.0713(3) 0.1350(3)
H1 H 0.5951 0.0807 0.0947
C6 C 0.4628(3) 0.0959(3) 0.6658(3)
H2 H 0.5380 0.0791 0.6621
C7 C 0.2958(3) 0.1294(3) 0.7180(3)
C8 C 0.2024(4) 0.1446(3) 0.7704(3)
H3 H 0.2045 0.1386 0.8299
C9 C 0.1062(4) 0.1691(3) 0.7290(3)
H4 H 0.0415 0.1808 0.7613
C10 C 0.1020(3) 0.1769(3) 0.6413(3)
H5 H 0.0346 0.1935 0.6166
C11 C 0.1942(3) 0.1611(3) 0.5892(3)
H6 H 0.1912 0.1660 0.5302
C12 C 0.2917(3) 0.1373(2) 0.6301(3)
C13 C 0.4339(3) 0.1101(3) 0.5115(2)
H7 H 0.3717 0.0827 0.4970
H8 H 0.4980 0.0710 0.5170
C14 C 0.4679(3) 0.2051(3) 0.4332(2)
H9 H 0.4010 0.2413 0.4209
H10 H 0.5220 0.2365 0.4513
C15 C 0.4763(3) 0.2250(2) 0.2713(3)
H11 H 0.4082 0.2544 0.2608
C16 C 0.6374(3) 0.1630(2) 0.2502(2)
C17 C 0.7332(3) 0.1307(3) 0.2159(3)
H12 H 0.7443 0.1351 0.1561
C18 C 0.8106(3) 0.0920(3) 0.2753(3)
H13 H 0.8751 0.0679 0.2557
C19 C 0.7961(3) 0.0875(3) 0.3641(3)
H14 H 0.8514 0.0610 0.4017
C20 C 0.7031(3) 0.1210(3) 0.3977(3)
H15 H 0.6942 0.1190 0.4565
C21 C 0.6229(3) 0.1579(2) 0.3391(2)
C22 C 0.5503(4) -0.0890(3) 0.1771(3)
H16 H 0.6145 -0.0785 0.1287
H17 H 0.5083 -0.1446 0.1871
C23 C 0.4761(4) -0.0117(3) 0.1453(3)
H18 H 0.4554 -0.0034 0.0865
H19 H 0.4067 -0.0255 0.1894
C24 C 0.4742(4) 0.1518(3) 0.1040(3)
H20 H 0.3965 0.1386 0.1363
H21 H 0.4705 0.1714 0.0389
C25 C 0.5230(4) 0.2293(3) 0.1150(3)
H22 H 0.4716 0.2792 0.0970
H23 H 0.5946 0.2510 0.0735
N1A N 0.5946(3) -0.1039(2) 0.2633(2)
N2A N 0.6015(3) -0.1151(2) 0.4006(2)
N3A N 0.4808(2) -0.1969(2) 0.6503(2)
N4A N 0.4566(2) -0.2055(2) 0.7896(2)
N5A N 0.4693(4) -0.0713(3) 0.8650(3)
H1A H 0.4049 -0.0807 0.9053
C6A C 0.5372(3) -0.0959(3) 0.3342(3)
H2A H 0.4620 -0.0791 0.3379
C7A C 0.7042(3) -0.1294(3) 0.2820(3)
C8A C 0.7976(4) -0.1446(3) 0.2296(3)
H3A H 0.7955 -0.1386 0.1701
C9A C 0.8938(4) -0.1691(3) 0.2710(3)
H4A H 0.9585 -0.1808 0.2387
C10A C 0.8980(3) -0.1769(3) 0.3587(3)
H5A H 0.9654 -0.1935 0.3834
C11A C 0.8058(3) -0.1611(3) 0.4108(3)
H6A H 0.8088 -0.1660 0.4698
C12A C 0.7083(3) -0.1373(2) 0.3699(3)
C13A C 0.5661(3) -0.1101(3) 0.4885(2)
H7A H 0.6283 -0.0827 0.5030
H8A H 0.5020 -0.0710 0.4830
C14A C 0.5321(3) -0.2051(3) 0.5668(2)
H9A H 0.5990 -0.2413 0.5791
H10A H 0.4780 -0.2365 0.5487
C15A C 0.5237(3) -0.2250(2) 0.7287(3)
H11A H 0.5918 -0.2544 0.7392
C16A C 0.3626(3) -0.1630(2) 0.7498(2)
C17A C 0.2668(3) -0.1307(3) 0.7841(3)
H12A H 0.2557 -0.1351 0.8439
C18A C 0.1894(3) -0.0920(3) 0.7247(3)
H13A H 0.1249 -0.0679 0.7443
C19A C 0.2039(3) -0.0875(3) 0.6359(3)
H14A H 0.1486 -0.0610 0.5983
C20A C 0.2969(3) -0.1210(3) 0.6023(3)
H15A H 0.3058 -0.1190 0.5435
C21A C 0.3771(3) -0.1579(2) 0.6609(2)
C22A C 0.4497(4) 0.0890(3) 0.8229(3)
H16A H 0.3855 0.0785 0.8713
H17A H 0.4917 0.1446 0.8129
C23A C 0.5239(4) 0.0117(3) 0.8547(3)
H18A H 0.5446 0.0034 0.9135
H19A H 0.5933 0.0255 0.8106
C24A C 0.5258(4) -0.1518(3) 0.8960(3)
H20A H 0.6035 -0.1386 0.8637
H21A H 0.5295 -0.1714 0.9611
C25A C 0.4770(4) -0.2293(3) 0.8850(3)
H22A H 0.5284 -0.2792 0.9030
H23A H 0.4054 -0.2510 0.9265
N6 N 0.9072(3) 0.6020(2) 1.2412(2)
N7 N 0.8970(3) 0.6115(2) 1.1040(2)
N8 N 1.0129(2) 0.6972(2) 0.8530(2)
N9 N 1.0356(2) 0.7077(2) 0.7132(2)
N10 N 1.0294(3) 0.5752(2) 0.6287(2)
H24 H 1.0848 0.5896 0.5799
C26 C 0.9621(4) 0.5936(3) 1.1696(3)
H25 H 1.0373 0.5770 1.1651
C27 C 0.7976(3) 0.6266(3) 1.2228(3)
C28 C 0.7028(4) 0.6416(3) 1.2757(3)
H26 H 0.7059 0.6368 1.3347
C29 C 0.6052(4) 0.6636(3) 1.2364(3)
H27 H 0.5406 0.6749 1.2692
C30 C 0.6001(4) 0.6696(3) 1.1494(3)
H28 H 0.5318 0.6846 1.1257
C31 C 0.6914(3) 0.6545(3) 1.0963(3)
H29 H 0.6872 0.6585 1.0379
C32 C 0.7909(3) 0.6329(3) 1.1359(3)
C33 C 0.9313(3) 0.6080(3) 1.0153(3)
H30 H 0.8693 0.5798 1.0014
H31 H 0.9965 0.5702 1.0194
C34 C 0.9621(3) 0.7040(3) 0.9378(2)
H32 H 0.8941 0.7390 0.9269
H33 H 1.0157 0.7360 0.9557
C35 C 0.9691(3) 0.7257(2) 0.7752(3)
H34 H 0.9005 0.7546 0.7656
C36 C 1.1305(3) 0.6653(2) 0.7517(2)
C37 C 1.2260(3) 0.6339(3) 0.7163(3)
H35 H 1.2357 0.6384 0.6564
C38 C 1.3054(3) 0.5958(3) 0.7739(3)
H36 H 1.3704 0.5735 0.7526
C39 C 1.2919(3) 0.5896(3) 0.8632(3)
H37 H 1.3481 0.5634 0.8999
C40 C 1.1979(3) 0.6211(2) 0.8985(3)
H38 H 1.1891 0.6175 0.9580
C41 C 1.1162(3) 0.6589(2) 0.8408(2)
C42 C 1.0144(4) 0.7310(3) 0.6184(3)
H39 H 1.0864 0.7489 0.5770
H40 H 0.9666 0.7834 0.5990
C43 C 0.9576(4) 0.6528(3) 0.6101(3)
H41 H 0.8871 0.6331 0.6533
H42 H 0.9387 0.6739 0.5482
C44 C 0.9706(4) 0.4906(3) 0.6448(3)
H43 H 0.9439 0.4972 0.5884
H44 H 0.9046 0.4780 0.6920
C45 C 1.0470(4) 0.4117(3) 0.6749(3)
H45 H 1.0046 0.3559 0.6858
H46 H 1.1099 0.4225 0.6255
N6A N 1.0928(3) 0.3980(2) 0.7588(2)
N7A N 1.1030(3) 0.3885(2) 0.8960(2)
N8A N 0.9871(2) 0.3028(2) 1.1470(2)
N9A N 0.9644(2) 0.2923(2) 1.2868(2)
N10A N 0.9706(3) 0.4248(2) 1.3713(2)
H24A H 0.9152 0.4104 1.4201
C26A C 1.0379(4) 0.4064(3) 0.8304(3)
H25A H 0.9627 0.4230 0.8349
C27A C 1.2024(3) 0.3734(3) 0.7772(3)
C28A C 1.2972(4) 0.3584(3) 0.7243(3)
H26A H 1.2941 0.3632 0.6653
C29A C 1.3948(4) 0.3364(3) 0.7636(3)
H27A H 1.4594 0.3251 0.7308
C30A C 1.3999(4) 0.3304(3) 0.8506(3)
H28A H 1.4682 0.3154 0.8743
C31A C 1.3086(3) 0.3455(3) 0.9037(3)
H29A H 1.3128 0.3415 0.9621
C32A C 1.2091(3) 0.3671(3) 0.8641(3)
C33A C 1.0687(3) 0.3920(3) 0.9847(3)
H30A H 1.1307 0.4202 0.9986
H31A H 1.0035 0.4298 0.9806
C34A C 1.0379(3) 0.2960(3) 1.0622(2)
H32A H 1.1059 0.2610 1.0731
H33A H 0.9843 0.2640 1.0443
C35A C 1.0309(3) 0.2743(2) 1.2248(3)
H34A H 1.0995 0.2454 1.2344
C36A C 0.8695(3) 0.3347(2) 1.2483(2)
C37A C 0.7740(3) 0.3661(3) 1.2837(3)
H35A H 0.7643 0.3616 1.3436
C38A C 0.6946(3) 0.4042(3) 1.2261(3)
H36A H 0.6296 0.4265 1.2474
C39A C 0.7081(3) 0.4104(3) 1.1368(3)
H37A H 0.6519 0.4366 1.1001
C40A C 0.8021(3) 0.3789(2) 1.1015(3)
H38A H 0.8109 0.3825 1.0420
C41A C 0.8838(3) 0.3411(2) 1.1592(2)
C42A C 0.9856(4) 0.2690(3) 1.3816(3)
H39A H 0.9136 0.2511 1.4230
H40A H 1.0334 0.2166 1.4010
C43A C 1.0424(4) 0.3472(3) 1.3899(3)
H41A H 1.1129 0.3669 1.3467
H42A H 1.0613 0.3261 1.4518
C44A C 1.0294(4) 0.5094(3) 1.3552(3)
H43A H 1.0561 0.5028 1.4116
H44A H 1.0954 0.5220 1.3080
C45A C 0.9530(4) 0.5883(3) 1.3251(3)
H45A H 0.9954 0.6441 1.3142
H46A H 0.8901 0.5775 1.3745
N11 N 0.7493(6) 0.8853(4) 1.0001(4)
C46 C 0.9385(5) 0.9702(4) 0.9055(4)
H47 H 0.9560 0.9612 0.8503
H48 H 0.9979 0.9468 0.9429
H49 H 0.9328 1.0347 0.8893
C47 C 0.8318(6) 0.9221(4) 0.9565(4)
F4? F 0.485(3) 0.345(2) 0.5410(19)
F5? F 0.615(4) 0.4286(17) 0.4342(11)
F6? F 0.587(4) 0.4390(14) 0.5623(17)
C2? C 0.597(6) 0.375(7) 0.527(5)
loop_
_geom_bond_atom_site_label_1
_geom_bond_atom_site_label_2
_geom_bond_site_symmetry_1
_geom_bond_site_symmetry_2
F1 C1 1_555 1_555
F2 C1 1_555 1_555
F3 C1 1_555 1_555
O1 S1 1_555 1_555
O2 S1 1_555 1_555
O3 S1 1_555 1_555
S1 C1 1_555 1_555
F7 C3 1_555 1_555
F8 C3 1_555 1_555
F9 C3 1_555 1_555
O4 S2 1_555 1_555
O5 S2 1_555 1_555
O6 S2 1_555 1_555
S2 C3 1_555 1_555
F10 C4 1_555 1_555
F11 C4 1_555 1_555
F12 C4 1_555 1_555
O7 S3 1_555 1_555
O8 S3 1_555 1_555
O9 S3 1_555 1_555
S3 C4 1_555 1_555
F13 C5 1_555 1_555
F14 C5 1_555 1_555
F15 C5 1_555 1_555
O10 S4 1_555 1_555
O11 S4 1_555 1_555
O12 S4 1_555 1_555
S4 C5 1_555 1_555
N1 C6 1_555 1_555
N2 C6 1_555 1_555
N3 C14 1_555 1_555
N4 C15 1_555 1_555
N5 H1 1_555 1_555
C6 H2 1_555 1_555
C7 N1 1_555 1_555
C8 C7 1_555 1_555
H3 C8 1_555 1_555
C9 C8 1_555 1_555
H4 C9 1_555 1_555
C10 C9 1_555 1_555
H5 C10 1_555 1_555
C11 C10 1_555 1_555
H6 C11 1_555 1_555
C12 N2 1_555 1_555
C13 N2 1_555 1_555
H7 C13 1_555 1_555
H8 C13 1_555 1_555
C14 C13 1_555 1_555
H9 C14 1_555 1_555
H10 C14 1_555 1_555
C15 N3 1_555 1_555
H11 C15 1_555 1_555
C16 N4 1_555 1_555
C17 C16 1_555 1_555
H12 C17 1_555 1_555
C18 C17 1_555 1_555
H13 C18 1_555 1_555
C19 C18 1_555 1_555
H14 C19 1_555 1_555
C20 C19 1_555 1_555
H15 C20 1_555 1_555
C21 N3 1_555 1_555
C22 H16 1_555 1_555
H17 C22 1_555 1_555
C23 N5 1_555 1_555
H18 C23 1_555 1_555
H19 C23 1_555 1_555
C24 N5 1_555 1_555
H20 C24 1_555 1_555
H21 C24 1_555 1_555
C25 N4 1_555 1_555
H22 C25 1_555 1_555
H23 C25 1_555 1_555
N6 C26 1_555 1_555
N7 C26 1_555 1_555
N8 C34 1_555 1_555
N9 C35 1_555 1_555
N10 H24 1_555 1_555
C26 H25 1_555 1_555
C27 N6 1_555 1_555
C28 C27 1_555 1_555
H26 C28 1_555 1_555
C29 C28 1_555 1_555
H27 C29 1_555 1_555
C30 C29 1_555 1_555
H28 C30 1_555 1_555
C31 C30 1_555 1_555
H29 C31 1_555 1_555
C32 N7 1_555 1_555
C33 N7 1_555 1_555
H30 C33 1_555 1_555
H31 C33 1_555 1_555
C34 C33 1_555 1_555
H32 C34 1_555 1_555
H33 C34 1_555 1_555
C35 N8 1_555 1_555
H34 C35 1_555 1_555
C36 N9 1_555 1_555
C37 C36 1_555 1_555
H35 C37 1_555 1_555
C38 C37 1_555 1_555
H36 C38 1_555 1_555
C39 C38 1_555 1_555
H37 C39 1_555 1_555
C40 C39 1_555 1_555
H38 C40 1_555 1_555
C41 N8 1_555 1_555
C42 N9 1_555 1_555
H39 C42 1_555 1_555
H40 C42 1_555 1_555
C43 N10 1_555 1_555
H41 C43 1_555 1_555
H42 C43 1_555 1_555
C44 N10 1_555 1_555
H43 C44 1_555 1_555
H44 C44 1_555 1_555
C45 C44 1_555 1_555
H45 C45 1_555 1_555
H46 C45 1_555 1_555
N11 C47 1_555 1_555
C46 H47 1_555 1_555
H48 C46 1_555 1_555
H49 C46 1_555 1_555
C47 C46 1_555 1_555
N1A C22 1_555 1_555
N2A C6A 1_555 1_555
N3A C14A 1_555 1_555
N4A C15A 1_555 1_555
N5A H1A 1_555 1_555
C6A N1A 1_555 1_555
H2A C6A 1_555 1_555
C7A N1A 1_555 1_555
C8A C7A 1_555 1_555
H3A C8A 1_555 1_555
C9A C8A 1_555 1_555
H4A C9A 1_555 1_555
C10A C9A 1_555 1_555
H5A C10A 1_555 1_555
C11A C10A 1_555 1_555
H6A C11A 1_555 1_555
C12A N2A 1_555 1_555
C13A N2A 1_555 1_555
H7A C13A 1_555 1_555
H8A C13A 1_555 1_555
C14A C13A 1_555 1_555
H9A C14A 1_555 1_555
H10A C14A 1_555 1_555
C15A N3A 1_555 1_555
H11A C15A 1_555 1_555
C16A N4A 1_555 1_555
C17A C16A 1_555 1_555
H12A C17A 1_555 1_555
C18A C17A 1_555 1_555
H13A C18A 1_555 1_555
C19A C18A 1_555 1_555
H14A C19A 1_555 1_555
C20A C19A 1_555 1_555
H15A C20A 1_555 1_555
C21A N3A 1_555 1_555
C22A N1 1_555 1_555
H16A C22A 1_555 1_555
H17A C22A 1_555 1_555
C23A N5A 1_555 1_555
H18A C23A 1_555 1_555
H19A C23A 1_555 1_555
C24A N5A 1_555 1_555
H20A C24A 1_555 1_555
H21A C24A 1_555 1_555
C25A N4A 1_555 1_555
H22A C25A 1_555 1_555
H23A C25A 1_555 1_555
N6A C45 1_555 1_555
N7A C26A 1_555 1_555
N8A C34A 1_555 1_555
N9A C35A 1_555 1_555
N10A H24A 1_555 1_555
C26A N6A 1_555 1_555
H25A C26A 1_555 1_555
C27A N6A 1_555 1_555
C28A C27A 1_555 1_555
H26A C28A 1_555 1_555
C29A C28A 1_555 1_555
H27A C29A 1_555 1_555
C30A C29A 1_555 1_555
H28A C30A 1_555 1_555
C31A C30A 1_555 1_555
H29A C31A 1_555 1_555
C32A N7A 1_555 1_555
C33A N7A 1_555 1_555
H30A C33A 1_555 1_555
H31A C33A 1_555 1_555
C34A C33A 1_555 1_555
H32A C34A 1_555 1_555
H33A C34A 1_555 1_555
C35A N8A 1_555 1_555
H34A C35A 1_555 1_555
C36A N9A 1_555 1_555
C37A C36A 1_555 1_555
H35A C37A 1_555 1_555
C38A C37A 1_555 1_555
H36A C38A 1_555 1_555
C39A C38A 1_555 1_555
H37A C39A 1_555 1_555
C40A C39A 1_555 1_555
H38A C40A 1_555 1_555
C41A N8A 1_555 1_555
C42A N9A 1_555 1_555
H39A C42A 1_555 1_555
H40A C42A 1_555 1_555
C43A N10A 1_555 1_555
H41A C43A 1_555 1_555
H42A C43A 1_555 1_555
C44A N10A 1_555 1_555
H43A C44A 1_555 1_555
H44A C44A 1_555 1_555
C45A N6 1_555 1_555
H45A C45A 1_555 1_555
H46A C45A 1_555 1_555
C7 C12 1_555 1_555
C11 C12 1_555 1_555
C16 C21 1_555 1_555
C20 C21 1_555 1_555
C22 C23 1_555 1_555
C24 C25 1_555 1_555
C27 C32 1_555 1_555
C31 C32 1_555 1_555
C36 C41 1_555 1_555
C40 C41 1_555 1_555
C42 C43 1_555 1_555
C7A C12A 1_555 1_555
C11A C12A 1_555 1_555
C16A C21A 1_555 1_555
C20A C21A 1_555 1_555
C22A C23A 1_555 1_555
C24A C25A 1_555 1_555
C27A C32A 1_555 1_555
C31A C32A 1_555 1_555
C36A C41A 1_555 1_555
C40A C41A 1_555 1_555
C42A C43A 1_555 1_555
C44A C45A 1_555 1_555

#END
