
#######################################################################
#
#                 Cambridge Crystallographic Data Centre
#                                CCDC 
#
#######################################################################
#
# If this CIF has been generated from an entry in the Cambridge 
# Structural Database, then it will include bibliographic, chemical, 
# crystal, experimental, refinement or atomic coordinate data resulting 
# from the CCDC's data processing and validation procedures.
#
#######################################################################

data_HEHMUE
_chemical_formula_moiety         'C9 H8 Cl1 N3 O1'
_chemical_name_systematic        
1-(4-chlorophenyl)-4-(hydroxylmethyl)-1,2,3-triazole
_symmetry_cell_setting           monoclinic
_symmetry_space_group_name_H-M   'P 21/c'
_symmetry_Int_Tables_number      14
_space_group_name_Hall           '-P 2ybc'
loop_
_symmetry_equiv_pos_site_id
_symmetry_equiv_pos_as_xyz
1 x,y,z
2 -x,1/2+y,1/2-z
3 -x,-y,-z
4 x,1/2-y,1/2+z
_cell_length_a                   10.5764(2)
_cell_length_b                   7.7224(2)
_cell_length_c                   11.3346(3)
_cell_angle_alpha                90
_cell_angle_beta                 93.612(2)
_cell_angle_gamma                90
_cell_volume                     923.917
_exptl_crystal_colour            yellow
_exptl_crystal_description       block
_cell_formula_units_Z            4
loop_
_atom_site_label
_atom_site_type_symbol
_atom_site_fract_x
_atom_site_fract_y
_atom_site_fract_z
Cl1 Cl 0.37589(3) 0.47421(5) 0.72844(3)
O1 O 1.03868(10) 0.14101(13) 0.17022(9)
H1 H 1.0585 0.2365 0.1457
N1 N 0.78906(11) 0.01292(15) 0.44092(11)
N2 N 0.78864(11) 0.18596(15) 0.45998(10)
C1 C 0.68923(13) 0.26077(18) 0.52355(12)
C2 C 0.56546(13) 0.20715(19) 0.49594(12)
H2 H 0.5478 0.1276 0.4355
N3 N 0.88938(11) -0.01973(16) 0.38169(11)
C3 C 0.62059(14) 0.45118(19) 0.67331(13)
H3 H 0.6377 0.5342 0.7316
C4 C 0.95265(13) 0.13064(19) 0.36290(12)
C5 C 0.71789(13) 0.38243(19) 0.61073(12)
H4 H 0.8012 0.4178 0.6273
C6 C 0.46859(13) 0.27351(19) 0.55938(13)
H5 H 0.3854 0.2377 0.5430
C7 C 1.06951(13) 0.1314(2) 0.29455(13)
H6 H 1.1219 0.2297 0.3189
H7 H 1.1178 0.0268 0.3122
C8 C 0.88893(13) 0.26305(19) 0.41301(12)
H8 H 0.9098 0.3800 0.4145
C9 C 0.49754(13) 0.39387(19) 0.64740(12)
loop_
_geom_bond_atom_site_label_1
_geom_bond_atom_site_label_2
_geom_bond_site_symmetry_1
_geom_bond_site_symmetry_2
Cl1 C9 1_555 1_555
O1 H1 1_555 1_555
N1 N2 1_555 1_555
N2 C1 1_555 1_555
C1 C2 1_555 1_555
C2 H2 1_555 1_555
N3 N1 1_555 1_555
C3 H3 1_555 1_555
C4 N3 1_555 1_555
C5 C1 1_555 1_555
H4 C5 1_555 1_555
C6 C2 1_555 1_555
H5 C6 1_555 1_555
C7 O1 1_555 1_555
H6 C7 1_555 1_555
H7 C7 1_555 1_555
C8 N2 1_555 1_555
H8 C8 1_555 1_555
C9 C3 1_555 1_555
C3 C5 1_555 1_555
C4 C7 1_555 1_555
C4 C8 1_555 1_555
C6 C9 1_555 1_555

#END
