
#######################################################################
#
#                 Cambridge Crystallographic Data Centre
#                                CCDC 
#
#######################################################################
#
# If this CIF has been generated from an entry in the Cambridge 
# Structural Database, then it will include bibliographic, chemical, 
# crystal, experimental, refinement or atomic coordinate data resulting 
# from the CCDC's data processing and validation procedures.
#
#######################################################################

data_HEHNEP
_chemical_formula_moiety         'C10 H8 N4 O1'
_chemical_name_systematic        
1-(4-cyanophenyl)-4-(hydroxylmethyl)-1,2,3-triazole
_symmetry_cell_setting           monoclinic
_symmetry_space_group_name_H-M   'P 21/n'
_symmetry_Int_Tables_number      14
_space_group_name_Hall           '-P 2yn'
loop_
_symmetry_equiv_pos_site_id
_symmetry_equiv_pos_as_xyz
1 x,y,z
2 1/2-x,1/2+y,1/2-z
3 -x,-y,-z
4 1/2+x,1/2-y,1/2+z
_cell_length_a                   8.1302(3)
_cell_length_b                   11.3713(5)
_cell_length_c                   10.3097(4)
_cell_angle_alpha                90
_cell_angle_beta                 96.676(3)
_cell_angle_gamma                90
_cell_volume                     946.679
_exptl_crystal_colour            colorless
_exptl_crystal_description       plate
_cell_formula_units_Z            4
loop_
_atom_site_label
_atom_site_type_symbol
_atom_site_fract_x
_atom_site_fract_y
_atom_site_fract_z
O1 O 0.50481(13) 0.19178(9) 0.48004(10)
H1 H 0.545(2) 0.1365(17) 0.5419(18)
N1 N 0.36984(15) -0.07494(10) 0.20154(11)
N2 N 0.08673(16) -0.14922(11) -0.50964(12)
N3 N 0.30003(13) 0.00958(9) 0.11970(10)
N4 N 0.38813(14) -0.02922(10) 0.31906(11)
C1 C 0.29768(16) -0.14286(12) -0.19594(13)
H2 H 0.3494 -0.2082 -0.2319
C2 C 0.34177(16) -0.11112(12) -0.06717(13)
H3 H 0.4253 -0.1535 -0.0144
C3 C 0.17691(17) -0.07858(12) -0.27290(13)
C4 C 0.12691(17) -0.11640(12) -0.40539(13)
C5 C 0.33908(18) 0.15959(13) 0.43312(13)
H4 H 0.2730 0.2317 0.4124
H5 H 0.2896 0.1168 0.5027
C6 C 0.26253(16) -0.01653(11) -0.01573(13)
C7 C 0.10308(17) 0.01921(12) -0.22182(13)
H6 H 0.0237 0.0641 -0.2757
C8 C 0.14558(17) 0.05075(12) -0.09254(13)
H7 H 0.0959 0.1171 -0.0568
C9 C 0.27417(16) 0.10910(12) 0.18697(13)
H8 H 0.2269 0.1808 0.1532
C10 C 0.33081(16) 0.08381(12) 0.31385(13)
loop_
_geom_bond_atom_site_label_1
_geom_bond_atom_site_label_2
_geom_bond_site_symmetry_1
_geom_bond_site_symmetry_2
O1 H1 1_555 1_555
N1 N3 1_555 1_555
N2 C4 1_555 1_555
N3 C6 1_555 1_555
N4 N1 1_555 1_555
C1 H2 1_555 1_555
C2 C1 1_555 1_555
H3 C2 1_555 1_555
C3 C1 1_555 1_555
C4 C3 1_555 1_555
C5 O1 1_555 1_555
H4 C5 1_555 1_555
H5 C5 1_555 1_555
C6 C2 1_555 1_555
C7 C3 1_555 1_555
H6 C7 1_555 1_555
C8 C6 1_555 1_555
H7 C8 1_555 1_555
C9 N3 1_555 1_555
H8 C9 1_555 1_555
C10 N4 1_555 1_555
C5 C10 1_555 1_555
C7 C8 1_555 1_555
C9 C10 1_555 1_555

#END
