
#######################################################################
#
#                 Cambridge Crystallographic Data Centre
#                                CCDC 
#
#######################################################################
#
# If this CIF has been generated from an entry in the Cambridge 
# Structural Database, then it will include bibliographic, chemical, 
# crystal, experimental, refinement or atomic coordinate data resulting 
# from the CCDC's data processing and validation procedures.
#
#######################################################################

data_HEHNUF
_chemical_formula_moiety         'C9 H7 Br1 F1 N3'
_chemical_name_systematic        
1-(4-bromophenyl)-4-(fluoromethyl)-1,2,3-triazole
_symmetry_cell_setting           triclinic
_symmetry_space_group_name_H-M   'P -1'
_symmetry_Int_Tables_number      2
_space_group_name_Hall           '-P 1'
loop_
_symmetry_equiv_pos_site_id
_symmetry_equiv_pos_as_xyz
1 x,y,z
2 -x,-y,-z
_cell_length_a                   3.9773(3)
_cell_length_b                   9.4212(10)
_cell_length_c                   25.114(3)
_cell_angle_alpha                95.931(4)
_cell_angle_beta                 91.273(7)
_cell_angle_gamma                95.414(7)
_cell_volume                     931.347
_exptl_crystal_colour            colorless
_exptl_crystal_description       plate
_cell_formula_units_Z            4
loop_
_atom_site_label
_atom_site_type_symbol
_atom_site_fract_x
_atom_site_fract_y
_atom_site_fract_z
Br1 Br -0.4013(3) 1.26932(14) 0.52600(5)
F1 F 0.2270(17) 1.1887(8) 0.1336(3)
N1 N 0.175(2) 1.1699(9) 0.3052(4)
C1 C 0.033(3) 1.1940(11) 0.3560(4)
C3 C -0.054(3) 1.3305(11) 0.3742(4)
H2 H -0.0296 1.4070 0.3523
N5 N 0.293(2) 1.0428(9) 0.2874(4)
N6 N 0.414(2) 1.0552(10) 0.2401(4)
C7 C 0.216(3) 1.2601(12) 0.2673(4)
H5 H 0.1552 1.3555 0.2694
C8 C -0.181(3) 1.3511(11) 0.4266(4)
H6 H -0.2302 1.4439 0.4408
C12 C -0.016(3) 1.0795(12) 0.3872(5)
H10 H 0.0392 0.9867 0.3740
C13 C -0.146(3) 1.1037(12) 0.4375(5)
H11 H -0.1782 1.0271 0.4592
C14 C 0.477(3) 1.2327(14) 0.1726(5)
H12 H 0.5250 1.3383 0.1756
H13 H 0.6879 1.1897 0.1626
C15 C 0.365(3) 1.1874(11) 0.2245(5)
C16 C -0.232(3) 1.2394(13) 0.4565(5)
Br2 Br 0.3844(3) 0.77478(13) -0.02694(5)
F2 F -0.1961(16) 0.7258(7) 0.3682(3)
N2 N -0.043(2) 0.5444(9) 0.2151(4)
N3 N -0.098(2) 0.6700(9) 0.1939(4)
N4 N -0.159(2) 0.5492(9) 0.2620(4)
C2 C -0.250(3) 0.7536(11) 0.2317(5)
H1 H -0.3136 0.8471 0.2286
C4 C 0.023(3) 0.8311(11) 0.1269(4)
H3 H -0.0355 0.9087 0.1510
C5 C 0.013(3) 0.6957(11) 0.1422(4)
C6 C 0.124(3) 0.8536(12) 0.0746(5)
H4 H 0.1171 0.9455 0.0625
C9 C -0.292(3) 0.6782(11) 0.2744(4)
C10 C -0.444(3) 0.7129(12) 0.3270(5)
H7 H -0.5496 0.8040 0.3271
H8 H -0.6226 0.6362 0.3331
C11 C 0.217(3) 0.6070(12) 0.0564(5)
H9 H 0.2846 0.5306 0.0326
C17 C 0.103(3) 0.5815(11) 0.1069(5)
H14 H 0.0859 0.4871 0.1174
C18 C 0.231(3) 0.7430(11) 0.0412(4)
loop_
_geom_bond_atom_site_label_1
_geom_bond_atom_site_label_2
_geom_bond_site_symmetry_1
_geom_bond_site_symmetry_2
Br1 C16 1_555 1_555
Br2 C18 1_555 1_555
F1 C14 1_555 1_555
F2 C10 1_555 1_555
N1 C1 1_555 1_555
N2 N3 1_555 1_555
N3 C2 1_555 1_555
C1 C3 1_555 1_555
N4 N2 1_555 1_555
C2 H1 1_555 1_555
C3 H2 1_555 1_555
N5 N1 1_555 1_555
N6 N5 1_555 1_555
C4 H3 1_555 1_555
C5 N3 1_555 1_555
C6 C4 1_555 1_555
H4 C6 1_555 1_555
C7 N1 1_555 1_555
H5 C7 1_555 1_555
C8 C3 1_555 1_555
H6 C8 1_555 1_555
C9 N4 1_555 1_555
C10 C9 1_555 1_555
H7 C10 1_555 1_555
H8 C10 1_555 1_555
C11 H9 1_555 1_555
C12 C1 1_555 1_555
H10 C12 1_555 1_555
C13 C12 1_555 1_555
H11 C13 1_555 1_555
C14 H12 1_555 1_555
H13 C14 1_555 1_555
C15 N6 1_555 1_555
C16 C8 1_555 1_555
C17 C5 1_555 1_555
H14 C17 1_555 1_555
C18 C6 1_555 1_555
C2 C9 1_555 1_555
C4 C5 1_555 1_555
C7 C15 1_555 1_555
C11 C17 1_555 1_555
C11 C18 1_555 1_555
C13 C16 1_555 1_555
C14 C15 1_555 1_555

#END
