
#######################################################################
#
#                 Cambridge Crystallographic Data Centre
#                                CCDC 
#
#######################################################################
#
# If this CIF has been generated from an entry in the Cambridge 
# Structural Database, then it will include bibliographic, chemical, 
# crystal, experimental, refinement or atomic coordinate data resulting 
# from the CCDC's data processing and validation procedures.
#
#######################################################################

data_HEHNOA
_chemical_formula_moiety         'C14 H12 N4 O1'
_chemical_name_systematic        
2-{[(2-methyl-2H-benzotriazol-4-yl)imino]methyl}phenol
_symmetry_cell_setting           monoclinic
_symmetry_space_group_name_H-M   'P 21/c'
_symmetry_Int_Tables_number      14
_space_group_name_Hall           '-P 2ybc'
loop_
_symmetry_equiv_pos_site_id
_symmetry_equiv_pos_as_xyz
1 x,y,z
2 -x,1/2+y,1/2-z
3 -x,-y,-z
4 x,1/2-y,1/2+z
_cell_length_a                   12.2980(15)
_cell_length_b                   3.9260(10)
_cell_length_c                   27.479(6)
_cell_angle_alpha                90
_cell_angle_beta                 109.289(18)
_cell_angle_gamma                90
_cell_volume                     1252.26
_exptl_crystal_colour            orange
_exptl_crystal_description       block
_cell_formula_units_Z            4
loop_
_atom_site_label
_atom_site_type_symbol
_atom_site_fract_x
_atom_site_fract_y
_atom_site_fract_z
N1 N -0.0953(7) 0.038(5) 0.8541(5)
N2 N -0.0644(8) 0.196(6) 0.8177(5)
N3 N 0.0477(8) 0.245(7) 0.8271(5)
C1 C 0.2151(6) 0.085(6) 0.9052(5)
C2 C 0.2352(9) -0.058(6) 0.9536(5)
H1 H 0.310985 -0.077953 0.975354
C3 C 0.1471(9) -0.174(5) 0.9713(5)
H2 H 0.167194 -0.268183 1.004209
C4 C 0.0333(8) -0.156(5) 0.9425(4)
H3 H -0.024279 -0.236047 0.954591
C5 C 0.0080(6) -0.006(9) 0.8927(7)
C6 C 0.0959(3) 0.1173(11) 0.87580(15)
C7 C -0.1517(11) 0.351(7) 0.7728(5)
H4 H -0.114700 0.504554 0.755964
H5 H -0.206348 0.475065 0.784106
H6 H -0.190810 0.176160 0.749149
O1 O 0.3616(5) 0.2961(19) 0.8016(2)
H7 H 0.311(7) 0.20(2) 0.817(4)
N4 N 0.2933(7) 0.211(3) 0.8805(4)
C8 C 0.3883(7) 0.331(2) 0.9100(3)
H8 H 0.401513 0.351964 0.945170
C9 C 0.4585(6) 0.409(3) 0.8359(3)
C10 C 0.5436(8) 0.514(3) 0.81624(19)
H9 H 0.531834 0.495188 0.781130
C11 C 0.6464(7) 0.647(3) 0.8491(3)
H10 H 0.703426 0.717367 0.835934
C12 C 0.6641(5) 0.675(2) 0.9016(3)
H11 H 0.732877 0.764136 0.923526
C13 C 0.5789(7) 0.570(2) 0.92120(18)
H12 H 0.590734 0.588727 0.956315
C14 C 0.4761(6) 0.437(2) 0.8884(3)
N5? N -0.0972(7) 0.097(5) 0.8471(6)
N6? N -0.0521(8) 0.244(6) 0.8144(6)
N7? N 0.0622(9) 0.273(8) 0.8290(6)
C15? C 0.2078(6) 0.085(6) 0.9143(5)
C16? C 0.2117(9) -0.076(6) 0.9600(5)
H13? H 0.282937 -0.106071 0.985458
C17? C 0.1130(10) -0.195(5) 0.9693(5)
H14? H 0.121131 -0.301563 1.000520
C18? C 0.0053(9) -0.162(6) 0.9341(5)
H15? H -0.059921 -0.241226 0.940433
C19? C -0.0012(7) 0.004(10) 0.8870(7)
C20? C -0.1273(12) 0.324(7) 0.7618(5)
H16? H -0.206340 0.293459 0.759390
H17? H -0.109400 0.175608 0.737745
H18? H -0.115234 0.556468 0.753844
O2? O 0.5191(5) 0.462(2) 0.9590(2)
H19? H 0.443(8) 0.29(3) 0.955(4)
N8? N 0.3179(7) 0.197(2) 0.9131(3)
C21? C 0.3336(9) 0.252(3) 0.8697(4)
H20? H 0.274670 0.202511 0.839156
C22? C 0.5278(7) 0.485(2) 0.9123(2)
C23? C 0.6309(7) 0.617(3) 0.9101(2)
H21? H 0.688651 0.681003 0.940244
C24? C 0.6476(7) 0.655(3) 0.8628(3)
H22? H 0.716589 0.743346 0.861251
C25? C 0.5613(9) 0.560(4) 0.8177(2)
H23? H 0.572479 0.584927 0.786002
C26? C 0.4582(7) 0.428(3) 0.8199(2)
H24? H 0.400430 0.364165 0.789744
C27? C 0.4415(5) 0.390(2) 0.8672(3)
loop_
_geom_bond_atom_site_label_1
_geom_bond_atom_site_label_2
_geom_bond_site_symmetry_1
_geom_bond_site_symmetry_2
N1 N2 1_555 1_555
N2 N3 1_555 1_555
N3 C6 1_555 1_555
C1 C2 1_555 1_555
C2 H1 1_555 1_555
C3 C2 1_555 1_555
H2 C3 1_555 1_555
C4 C3 1_555 1_555
H3 C4 1_555 1_555
C5 N1 1_555 1_555
C6 C1 1_555 1_555
C7 N2 1_555 1_555
H4 C7 1_555 1_555
H5 C7 1_555 1_555
H6 C7 1_555 1_555
O1 H7 1_555 1_555
N4 C1 1_555 1_555
C8 N4 1_555 1_555
H8 C8 1_555 1_555
C9 O1 1_555 1_555
C10 C9 1_555 1_555
H9 C10 1_555 1_555
C11 C10 1_555 1_555
H10 C11 1_555 1_555
C12 C11 1_555 1_555
H11 C12 1_555 1_555
C13 C12 1_555 1_555
H12 C13 1_555 1_555
C14 C8 1_555 1_555
C4 C5 1_555 1_555
C5 C6 1_555 1_555
C9 C14 1_555 1_555
C13 C14 1_555 1_555

#END
