
#######################################################################
#
#                 Cambridge Crystallographic Data Centre
#                                CCDC 
#
#######################################################################
#
# If this CIF has been generated from an entry in the Cambridge 
# Structural Database, then it will include bibliographic, chemical, 
# crystal, experimental, refinement or atomic coordinate data resulting 
# from the CCDC's data processing and validation procedures.
#
#######################################################################

data_HEHQUG
_chemical_formula_moiety         'C4 N5 S3'
_chemical_name_systematic        
'1,2,5-Thiadiazolo(3,4-b)-1,2,3-dithiazolo(3,4-b)pyrazinyl radical'
_symmetry_cell_setting           monoclinic
_symmetry_space_group_name_H-M   'P 21/n'
_symmetry_Int_Tables_number      14
_space_group_name_Hall           '-P 2yn'
loop_
_symmetry_equiv_pos_site_id
_symmetry_equiv_pos_as_xyz
1 x,y,z
2 1/2+x,1/2-y,1/2+z
3 -x,-y,-z
4 1/2-x,1/2+y,1/2-z
_cell_length_a                   6.6749(16)
_cell_length_b                   11.7178(14)
_cell_length_c                   8.6148(14)
_cell_angle_alpha                90
_cell_angle_beta                 103.297(16)
_cell_angle_gamma                90
_cell_volume                     655.744
_exptl_crystal_colour            black
_exptl_crystal_description       needles
_chemical_melting_point          'above 270 deg.C'
_cell_formula_units_Z            4
loop_
_atom_site_label
_atom_site_type_symbol
_atom_site_fract_x
_atom_site_fract_y
_atom_site_fract_z
S1 S 0.67752(15) 0.22234(8) 0.16892(10)
S2 S 0.70755(14) 0.31574(8) 0.37396(10)
S3 S 0.75159(14) 0.58467(8) -0.34348(10)
N1 N 0.7383(4) 0.44091(24) 0.3062(3)
N2 N 0.7683(4) 0.54689(23) 0.0842(3)
N3 N 0.7837(4) 0.63089(25) -0.1619(3)
N4 N 0.7066(5) 0.44834(25) -0.3216(3)
N5 N 0.6876(4) 0.33412(23) -0.0966(3)
C1 C 0.7014(5) 0.3415(3) 0.0577(4)
C2 C 0.7378(5) 0.4471(3) 0.1506(4)
C3 C 0.7576(5) 0.5396(3) -0.0735(4)
C4 C 0.7151(5) 0.4349(3) -0.1650(4)
loop_
_geom_bond_atom_site_label_1
_geom_bond_atom_site_label_2
_geom_bond_site_symmetry_1
_geom_bond_site_symmetry_2
S1 S2 1_555 1_555
S2 N1 1_555 1_555
S3 N3 1_555 1_555
N1 C2 1_555 1_555
N2 C2 1_555 1_555
N3 C3 1_555 1_555
N4 S3 1_555 1_555
N5 C1 1_555 1_555
C1 S1 1_555 1_555
C2 C1 1_555 1_555
C3 N2 1_555 1_555
C4 N4 1_555 1_555
N5 C4 1_555 1_555
C3 C4 1_555 1_555

#END
