
#######################################################################
#
#                 Cambridge Crystallographic Data Centre
#                                CCDC 
#
#######################################################################
#
# If this CIF has been generated from an entry in the Cambridge 
# Structural Database, then it will include bibliographic, chemical, 
# crystal, experimental, refinement or atomic coordinate data resulting 
# from the CCDC's data processing and validation procedures.
#
#######################################################################

data_HEHQUJ
_chemical_formula_moiety         'C94 H82 N4 O2 S4'
_chemical_name_systematic        
2,2'-{[6,6,12,12-tetrakis(4-hexylphenyl)-6,12-dihydrothieno[3,2-b]thieno[2'',3'':4',5']thieno[2',3':5,6]-s-indaceno[2,1-d]thiene-2,8-diyl]bis[methylylidene(3-oxo-1H-indene-2,1(3H)-diylidene)]}dipropanedinitrile
_symmetry_cell_setting           triclinic
_symmetry_space_group_name_H-M   'P -1'
_symmetry_Int_Tables_number      2
_space_group_name_Hall           '-P 1'
loop_
_symmetry_equiv_pos_site_id
_symmetry_equiv_pos_as_xyz
1 x,y,z
2 -x,-y,-z
_cell_length_a                   14.880(3)
_cell_length_b                   15.470(3)
_cell_length_c                   18.080(4)
_cell_angle_alpha                99.27(3)
_cell_angle_beta                 101.50(3)
_cell_angle_gamma                108.37(3)
_cell_volume                     3756.65
_exptl_crystal_colour            black
_exptl_crystal_description       needle
_cell_formula_units_Z            2
loop_
_atom_site_label
_atom_site_type_symbol
_atom_site_fract_x
_atom_site_fract_y
_atom_site_fract_z
C1 C 0.5740(5) -0.3927(5) 0.8657(4)
H1 H 0.6417 -0.3520 0.8801
H2 H 0.5671 -0.4528 0.8359
H3 H 0.5526 -0.4003 0.9118
C2 C 0.5124(5) -0.3507(5) 0.8178(4)
H4 H 0.4442 -0.3923 0.8037
H5 H 0.5322 -0.3464 0.7702
C3 C 0.5205(5) -0.2541(5) 0.8592(4)
H6 H 0.5114 -0.2563 0.9106
H7 H 0.4675 -0.2385 0.8308
C4 C 0.6169(5) -0.1766(4) 0.8676(4)
H8 H 0.6238 -0.1709 0.8162
H9 H 0.6703 -0.1939 0.8927
C5 C 0.6261(6) -0.0807(5) 0.9147(4)
H10 H 0.5681 -0.0674 0.8935
H11 H 0.6276 -0.0845 0.9679
C6 C 0.7162(5) 0.0001(4) 0.9152(4)
H12 H 0.7287 0.0522 0.9585
H13 H 0.7727 -0.0193 0.9229
C7 C 0.7047(4) 0.0326(4) 0.8411(4)
C8 C 0.7320(4) -0.0033(4) 0.7778(4)
H14 H 0.7599 -0.0490 0.7808
C9 C 0.7191(4) 0.0269(4) 0.7103(4)
H15 H 0.7391 0.0018 0.6690
C10 C 0.6764(4) 0.0946(4) 0.7025(3)
C11 C 0.6451(4) 0.1278(4) 0.7649(4)
H16 H 0.6136 0.1707 0.7608
C12 C 0.6596(5) 0.0986(4) 0.8325(4)
H17 H 0.6389 0.1232 0.8736
C13 C 0.6655(4) 0.1285(4) 0.6280(3)
C14 C 0.7635(4) 0.1580(4) 0.6054(4)
C15 C 0.7680(5) 0.1527(4) 0.5297(4)
H18 H 0.7098 0.1303 0.4902
C16 C 0.8571(5) 0.1798(4) 0.5103(4)
H19 H 0.8578 0.1739 0.4584
C17 C 0.9447(5) 0.2155(4) 0.5685(4)
C18 C 0.9411(5) 0.2249(4) 0.6445(4)
H20 H 0.9995 0.2499 0.6840
C19 C 0.8521(4) 0.1977(4) 0.6641(4)
H21 H 0.8515 0.2058 0.7160
C20 C 1.0417(5) 0.2378(4) 0.5482(4)
H22 H 1.0895 0.2935 0.5857
H23 H 1.0338 0.2517 0.4973
C21 C 1.0810(5) 0.1572(4) 0.5473(4)
H24 H 1.0869 0.1421 0.5976
H25 H 1.0340 0.1022 0.5087
C22 C 1.1797(5) 0.1803(4) 0.5293(4)
H26 H 1.2270 0.2342 0.5690
H27 H 1.1741 0.1979 0.4799
C23 C 1.2187(5) 0.1002(5) 0.5252(4)
H28 H 1.1712 0.0466 0.4855
H29 H 1.2788 0.1191 0.5087
C24 C 1.2401(5) 0.0695(5) 0.6004(4)
H30 H 1.1788 0.0442 0.6141
H31 H 1.2655 0.0193 0.5916
C25 C 1.3122(6) 0.1462(5) 0.6682(4)
H32 H 1.3690 0.1788 0.6526
H33 H 1.3315 0.1193 0.7102
H34 H 1.2819 0.1895 0.6851
C26 C 0.6293(4) 0.2100(4) 0.6318(4)
C27 C 0.5452(4) 0.1873(4) 0.5727(3)
C28 C 0.5109(4) 0.0907(4) 0.5302(3)
C29 C 0.4304(4) 0.0384(4) 0.4687(3)
H35 H 0.3859 0.0647 0.4478
C30 C 0.4172(4) -0.0541(4) 0.4388(3)
C31 C 0.6632(4) 0.3053(4) 0.6730(3)
C32 C 0.5999(4) 0.3490(4) 0.6437(4)
C33 C 0.6347(4) 0.4447(4) 0.6808(3)
H36 H 0.6046 0.4859 0.6662
C34 C 0.7193(4) 0.4716(4) 0.7417(4)
C35 C 0.7645(5) 0.5664(4) 0.7837(4)
H37 H 0.7383 0.6063 0.7614
C36 C 0.8375(5) 0.6109(4) 0.8490(4)
C37 C 0.8854(5) 0.5692(5) 0.9052(4)
C38 C 0.9433(4) 0.6439(4) 0.9753(4)
C39 C 0.9374(4) 0.7297(4) 0.9631(4)
C40 C 0.8781(4) 0.7135(4) 0.8824(4)
C41 C 0.8692(5) 0.7813(4) 0.8448(4)
C42 C 0.8201(5) 0.7593(4) 0.7633(5)
C43 C 0.9140(5) 0.8791(5) 0.8786(4)
C44 C 0.9874(5) 0.8104(5) 1.0212(4)
H38 H 0.9829 0.8673 1.0141
C45 C 1.0435(5) 0.8065(5) 1.0893(4)
H39 H 1.0768 0.8609 1.1288
C46 C 1.0513(5) 0.7217(5) 1.1001(4)
H40 H 1.0919 0.7205 1.1460
C47 C 0.9990(5) 0.6387(5) 1.0430(4)
H41 H 1.0020 0.5816 1.0508
N1 N 0.7824(4) 0.7466(4) 0.6983(4)
N2 N 0.9490(5) 0.9592(5) 0.9026(4)
O1 O 0.8781(3) 0.4863(3) 0.8936(3)
S1 S 0.50266(11) 0.27790(10) 0.56661(9)
S2 S 0.75837(12) 0.37731(11) 0.75035(9)
C1A C 0.4260(5) 0.3927(5) 0.1343(4)
H1A H 0.3583 0.3520 0.1199
H2A H 0.4329 0.4528 0.1641
H3A H 0.4474 0.4003 0.0882
C2A C 0.4876(5) 0.3507(5) 0.1822(4)
H4A H 0.5558 0.3923 0.1963
H5A H 0.4678 0.3464 0.2298
C3A C 0.4795(5) 0.2541(5) 0.1408(4)
H6A H 0.4886 0.2563 0.0894
H7A H 0.5325 0.2385 0.1692
C4A C 0.3831(5) 0.1766(4) 0.1324(4)
H8A H 0.3762 0.1709 0.1838
H9A H 0.3297 0.1939 0.1073
C5A C 0.3739(6) 0.0807(5) 0.0853(4)
H10A H 0.4319 0.0674 0.1065
H11A H 0.3724 0.0845 0.0321
C6A C 0.2838(5) -0.0001(4) 0.0848(4)
H12A H 0.2713 -0.0522 0.0415
H13A H 0.2273 0.0193 0.0771
C7A C 0.2953(4) -0.0326(4) 0.1589(4)
C8A C 0.2680(4) 0.0033(4) 0.2222(4)
H14A H 0.2401 0.0490 0.2192
C9A C 0.2809(4) -0.0269(4) 0.2897(4)
H15A H 0.2609 -0.0018 0.3310
C10A C 0.3236(4) -0.0946(4) 0.2975(3)
C11A C 0.3549(4) -0.1278(4) 0.2351(4)
H16A H 0.3864 -0.1707 0.2392
C12A C 0.3404(5) -0.0986(4) 0.1675(4)
H17A H 0.3611 -0.1232 0.1264
C13A C 0.3345(4) -0.1285(4) 0.3720(3)
C14A C 0.2365(4) -0.1580(4) 0.3946(4)
C15A C 0.2320(5) -0.1527(4) 0.4703(4)
H18A H 0.2902 -0.1303 0.5098
C16A C 0.1429(5) -0.1798(4) 0.4897(4)
H19A H 0.1422 -0.1739 0.5416
C17A C 0.0553(5) -0.2155(4) 0.4315(4)
C18A C 0.0589(5) -0.2249(4) 0.3555(4)
H20A H 0.0005 -0.2499 0.3160
C19A C 0.1479(4) -0.1977(4) 0.3359(4)
H21A H 0.1485 -0.2058 0.2840
C20A C -0.0417(5) -0.2378(4) 0.4518(4)
H22A H -0.0895 -0.2935 0.4143
H23A H -0.0338 -0.2517 0.5027
C21A C -0.0810(5) -0.1572(4) 0.4527(4)
H24A H -0.0869 -0.1421 0.4024
H25A H -0.0340 -0.1022 0.4913
C22A C -0.1797(5) -0.1803(4) 0.4707(4)
H26A H -0.2270 -0.2342 0.4310
H27A H -0.1741 -0.1979 0.5201
C23A C -0.2187(5) -0.1002(5) 0.4748(4)
H28A H -0.1712 -0.0466 0.5145
H29A H -0.2788 -0.1191 0.4913
C24A C -0.2401(5) -0.0695(5) 0.3996(4)
H30A H -0.1788 -0.0442 0.3859
H31A H -0.2655 -0.0193 0.4084
C25A C -0.3122(6) -0.1462(5) 0.3318(4)
H32A H -0.3690 -0.1788 0.3474
H33A H -0.3315 -0.1193 0.2898
H34A H -0.2819 -0.1895 0.3149
C26A C 0.3707(4) -0.2100(4) 0.3682(4)
C27A C 0.4548(4) -0.1873(4) 0.4273(3)
C28A C 0.4891(4) -0.0907(4) 0.4698(3)
C29A C 0.5696(4) -0.0384(4) 0.5313(3)
H35A H 0.6141 -0.0647 0.5522
C30A C 0.5828(4) 0.0541(4) 0.5612(3)
C31A C 0.3368(4) -0.3053(4) 0.3270(3)
C32A C 0.4001(4) -0.3490(4) 0.3563(4)
C33A C 0.3653(4) -0.4447(4) 0.3192(3)
H36A H 0.3954 -0.4859 0.3338
C34A C 0.2807(4) -0.4716(4) 0.2583(4)
C35A C 0.2355(5) -0.5664(4) 0.2163(4)
H37A H 0.2617 -0.6063 0.2386
C36A C 0.1625(5) -0.6109(4) 0.1510(4)
C37A C 0.1146(5) -0.5692(5) 0.0948(4)
C38A C 0.0567(4) -0.6439(4) 0.0247(4)
C39A C 0.0626(4) -0.7297(4) 0.0369(4)
C40A C 0.1219(4) -0.7135(4) 0.1176(4)
C41A C 0.1308(5) -0.7813(4) 0.1552(4)
C42A C 0.1799(5) -0.7593(4) 0.2367(5)
C43A C 0.0860(5) -0.8791(5) 0.1214(4)
C44A C 0.0126(5) -0.8104(5) -0.0212(4)
H38A H 0.0171 -0.8673 -0.0141
C45A C -0.0435(5) -0.8065(5) -0.0893(4)
H39A H -0.0768 -0.8609 -0.1288
C46A C -0.0513(5) -0.7217(5) -0.1001(4)
H40A H -0.0919 -0.7205 -0.1460
C47A C 0.0010(5) -0.6387(5) -0.0430(4)
H41A H -0.0020 -0.5816 -0.0508
N1A N 0.2176(4) -0.7466(4) 0.3017(4)
N2A N 0.0510(5) -0.9592(5) 0.0974(4)
O1A O 0.1219(3) -0.4863(3) 0.1064(3)
S1A S 0.49734(11) -0.27790(10) 0.43339(9)
S2A S 0.24163(12) -0.37731(11) 0.24965(9)
C48 C 0.4201(6) 0.6691(5) 1.1275(4)
H42 H 0.3680 0.6936 1.1219
H43 H 0.4819 0.7196 1.1514
H44 H 0.4098 0.6250 1.1596
C49 C 0.4212(6) 0.6205(5) 1.0484(4)
H45 H 0.4317 0.6659 1.0168
H46 H 0.4766 0.5995 1.0547
C50 C 0.3296(6) 0.5379(5) 1.0054(4)
H47 H 0.2744 0.5591 0.9974
H48 H 0.3177 0.4932 1.0376
C51 C 0.3335(5) 0.4879(5) 0.9268(4)
H49 H 0.3472 0.5333 0.8953
H50 H 0.3880 0.4657 0.9352
C52 C 0.2424(5) 0.4067(5) 0.8819(4)
H51 H 0.1903 0.4303 0.8655
H52 H 0.2223 0.3664 0.9161
C53 C 0.2536(5) 0.3486(5) 0.8107(4)
H53 H 0.3038 0.3231 0.8278
H54 H 0.1923 0.2960 0.7873
C54 C 0.2802(5) 0.3983(4) 0.7490(4)
C55 C 0.3590(5) 0.3970(4) 0.7199(4)
H55 H 0.3997 0.3675 0.7414
C56 C 0.3794(5) 0.4387(4) 0.6593(4)
H56 H 0.4319 0.4348 0.6401
C57 C 0.3223(4) 0.4857(4) 0.6275(3)
C58 C 0.2447(4) 0.4894(4) 0.6574(4)
H57 H 0.2059 0.5214 0.6374
C59 C 0.2234(5) 0.4463(4) 0.7166(4)
H58 H 0.1702 0.4494 0.7351
C60 C 0.3456(4) 0.5361(4) 0.5632(3)
C61 C 0.2523(4) 0.5197(4) 0.5005(3)
C62 C 0.1824(5) 0.4299(4) 0.4718(4)
H59 H 0.1932 0.3808 0.4911
C63 C 0.0975(5) 0.4122(4) 0.4154(4)
H60 H 0.0523 0.3511 0.3967
C64 C 0.0780(4) 0.4834(5) 0.3860(4)
C65 C 0.1485(5) 0.5729(4) 0.4135(4)
H61 H 0.1382 0.6218 0.3935
C66 C 0.2341(4) 0.5905(4) 0.4702(4)
H62 H 0.2800 0.6512 0.4882
C67 C -0.0177(5) 0.4624(5) 0.3263(4)
H63 H -0.0714 0.4277 0.3453
H64 H -0.0254 0.5212 0.3210
C68 C -0.0254(5) 0.4070(5) 0.2475(4)
H65 H -0.0030 0.3556 0.2542
H66 H 0.0186 0.4472 0.2238
C69 C -0.1279(5) 0.3671(5) 0.1922(4)
H67 H -0.1720 0.3289 0.2171
H68 H -0.1492 0.4189 0.1846
C70 C -0.1390(6) 0.3101(6) 0.1155(4)
H69 H -0.1104 0.2629 0.1232
H70 H -0.1006 0.3504 0.0884
C71 C -0.2415(6) 0.2611(5) 0.0629(4)
H71 H -0.2746 0.3059 0.0608
H72 H -0.2376 0.2389 0.0107
C72 C -0.3028(6) 0.1784(5) 0.0888(5)
H73 H -0.2701 0.1341 0.0920
H74 H -0.3661 0.1486 0.0519
H75 H -0.3108 0.2004 0.1390
C73 C 0.4081(4) 0.4264(4) 0.4764(4)
H76 H 0.3478 0.3771 0.4606
C74 C 0.4208(4) 0.5090(4) 0.5263(3)
C75 C 0.5132(4) 0.5819(4) 0.5498(3)
C76 C 0.5014(4) 0.6613(4) 0.5970(3)
C77 C 0.4055(4) 0.6384(4) 0.6012(3)
C78 C 0.3908(4) 0.7180(4) 0.6410(3)
C79 C 0.4770(5) 0.7981(4) 0.6657(3)
C80 C 0.4641(4) 0.8774(4) 0.7046(3)
H77 H 0.5138 0.9359 0.7250
C81 C 0.3674(4) 0.8576(4) 0.7088(4)
C82 C 0.3399(5) 0.9286(4) 0.7486(4)
H78 H 0.3935 0.9830 0.7749
C83 C 0.2532(5) 0.9347(4) 0.7568(4)
C84 C 0.2376(5) 1.0147(4) 0.8011(4)
C85 C 0.1353(5) 1.0039(4) 0.7703(4)
C86 C 0.0863(5) 0.9179(4) 0.7186(4)
C87 C 0.1550(5) 0.8672(5) 0.7115(4)
C88 C -0.0113(5) 0.8891(5) 0.6778(4)
H79 H -0.0435 0.8300 0.6441
C89 C -0.0596(5) 0.9520(5) 0.6892(4)
H80 H -0.1251 0.9353 0.6622
C90 C -0.0112(5) 1.0386(5) 0.7400(4)
H81 H -0.0446 1.0797 0.7466
C91 C 0.0848(5) 1.0659(5) 0.7811(4)
H82 H 0.1162 1.1245 0.8156
C92 C 0.3037(5) 1.0817(4) 0.8633(4)
C93 C 0.4027(6) 1.0865(5) 0.8931(4)
C94 C 0.2788(5) 1.1519(5) 0.9086(4)
N3 N 0.4827(5) 1.0949(5) 0.9182(4)
N4 N 0.2628(5) 1.2088(4) 0.9467(3)
O2 O 0.1334(3) 0.7871(3) 0.6743(3)
S3 S 0.57593(11) 0.77626(11) 0.64097(10)
S4 S 0.29277(12) 0.74051(11) 0.66385(10)
C48A C 0.5799(6) 0.3309(5) -0.1275(4)
H42A H 0.6320 0.3064 -0.1219
H43A H 0.5181 0.2804 -0.1514
H44A H 0.5902 0.3750 -0.1596
C49A C 0.5788(6) 0.3795(5) -0.0484(4)
H45A H 0.5683 0.3341 -0.0168
H46A H 0.5234 0.4005 -0.0547
C50A C 0.6704(6) 0.4621(5) -0.0054(4)
H47A H 0.7256 0.4409 0.0026
H48A H 0.6823 0.5068 -0.0376
C51A C 0.6665(5) 0.5121(5) 0.0732(4)
H49A H 0.6528 0.4667 0.1047
H50A H 0.6120 0.5343 0.0648
C52A C 0.7576(5) 0.5933(5) 0.1181(4)
H51A H 0.8097 0.5697 0.1345
H52A H 0.7777 0.6336 0.0839
C53A C 0.7464(5) 0.6514(5) 0.1893(4)
H53A H 0.6962 0.6769 0.1722
H54A H 0.8077 0.7040 0.2127
C54A C 0.7198(5) 0.6017(4) 0.2510(4)
C55A C 0.6410(5) 0.6030(4) 0.2801(4)
H55A H 0.6003 0.6325 0.2586
C56A C 0.6206(5) 0.5613(4) 0.3407(4)
H56A H 0.5681 0.5652 0.3599
C57A C 0.6777(4) 0.5143(4) 0.3725(3)
C58A C 0.7553(4) 0.5106(4) 0.3426(4)
H57A H 0.7941 0.4786 0.3626
C59A C 0.7766(5) 0.5537(4) 0.2834(4)
H58A H 0.8298 0.5506 0.2649
C60A C 0.6544(4) 0.4639(4) 0.4368(3)
C61A C 0.7477(4) 0.4803(4) 0.4995(3)
C62A C 0.8176(5) 0.5701(4) 0.5282(4)
H59A H 0.8068 0.6192 0.5089
C63A C 0.9025(5) 0.5878(4) 0.5846(4)
H60A H 0.9477 0.6489 0.6033
C64A C 0.9220(4) 0.5166(5) 0.6140(4)
C65A C 0.8515(5) 0.4271(4) 0.5865(4)
H61A H 0.8618 0.3782 0.6065
C66A C 0.7659(4) 0.4095(4) 0.5298(4)
H62A H 0.7200 0.3488 0.5118
C67A C 1.0177(5) 0.5376(5) 0.6737(4)
H63A H 1.0714 0.5723 0.6547
H64A H 1.0254 0.4788 0.6790
C68A C 1.0254(5) 0.5930(5) 0.7525(4)
H65A H 1.0030 0.6444 0.7458
H66A H 0.9814 0.5528 0.7762
C69A C 1.1279(5) 0.6329(5) 0.8078(4)
H67A H 1.1720 0.6711 0.7829
H68A H 1.1492 0.5811 0.8154
C70A C 1.1390(6) 0.6899(6) 0.8845(4)
H69A H 1.1104 0.7371 0.8768
H70A H 1.1006 0.6496 0.9116
C71A C 1.2415(6) 0.7389(5) 0.9371(4)
H71A H 1.2746 0.6941 0.9392
H72A H 1.2376 0.7611 0.9893
C72A C 1.3028(6) 0.8216(5) 0.9112(5)
H73A H 1.2701 0.8659 0.9080
H74A H 1.3661 0.8514 0.9481
H75A H 1.3108 0.7996 0.8610
C73A C 0.5919(4) 0.5736(4) 0.5236(4)
H76A H 0.6522 0.6229 0.5394
C74A C 0.5792(4) 0.4910(4) 0.4737(3)
C75A C 0.4868(4) 0.4181(4) 0.4502(3)
C76A C 0.4986(4) 0.3387(4) 0.4030(3)
C77A C 0.5945(4) 0.3616(4) 0.3988(3)
C78A C 0.6092(4) 0.2820(4) 0.3590(3)
C79A C 0.5230(5) 0.2019(4) 0.3343(3)
C80A C 0.5359(4) 0.1226(4) 0.2954(3)
H77A H 0.4862 0.0641 0.2750
C81A C 0.6326(4) 0.1424(4) 0.2912(4)
C82A C 0.6601(5) 0.0714(4) 0.2514(4)
H78A H 0.6065 0.0170 0.2251
C83A C 0.7468(5) 0.0653(4) 0.2432(4)
C84A C 0.7624(5) -0.0147(4) 0.1989(4)
C85A C 0.8647(5) -0.0039(4) 0.2297(4)
C86A C 0.9137(5) 0.0821(4) 0.2814(4)
C87A C 0.8450(5) 0.1328(5) 0.2885(4)
C88A C 1.0113(5) 0.1109(5) 0.3222(4)
H79A H 1.0435 0.1700 0.3559
C89A C 1.0596(5) 0.0480(5) 0.3108(4)
H80A H 1.1251 0.0647 0.3378
C90A C 1.0112(5) -0.0386(5) 0.2600(4)
H81A H 1.0446 -0.0797 0.2534
C91A C 0.9152(5) -0.0659(5) 0.2189(4)
H82A H 0.8838 -0.1245 0.1844
C92A C 0.6963(5) -0.0817(4) 0.1367(4)
C93A C 0.5973(6) -0.0865(5) 0.1069(4)
C94A C 0.7212(5) -0.1519(5) 0.0914(4)
N3A N 0.5173(5) -0.0949(5) 0.0818(4)
N4A N 0.7372(5) -0.2088(4) 0.0533(3)
O2A O 0.8666(3) 0.2129(3) 0.3257(3)
S3A S 0.42407(11) 0.22374(11) 0.35903(10)
S4A S 0.70723(12) 0.25949(11) 0.33615(10)
loop_
_geom_bond_atom_site_label_1
_geom_bond_atom_site_label_2
_geom_bond_site_symmetry_1
_geom_bond_site_symmetry_2
C1 H1 1_555 1_555
H2 C1 1_555 1_555
H3 C1 1_555 1_555
C2 C1 1_555 1_555
H4 C2 1_555 1_555
H5 C2 1_555 1_555
C3 C2 1_555 1_555
H6 C3 1_555 1_555
H7 C3 1_555 1_555
C4 C3 1_555 1_555
H8 C4 1_555 1_555
H9 C4 1_555 1_555
C5 C4 1_555 1_555
H10 C5 1_555 1_555
H11 C5 1_555 1_555
C6 C5 1_555 1_555
H12 C6 1_555 1_555
H13 C6 1_555 1_555
C7 C6 1_555 1_555
C8 C7 1_555 1_555
H14 C8 1_555 1_555
C9 C8 1_555 1_555
H15 C9 1_555 1_555
C10 C9 1_555 1_555
C11 C10 1_555 1_555
H16 C11 1_555 1_555
C12 C7 1_555 1_555
H17 C12 1_555 1_555
C13 C10 1_555 1_555
C14 C13 1_555 1_555
C15 C14 1_555 1_555
H18 C15 1_555 1_555
C16 C15 1_555 1_555
H19 C16 1_555 1_555
C17 C16 1_555 1_555
C18 C17 1_555 1_555
H20 C18 1_555 1_555
C19 C14 1_555 1_555
H21 C19 1_555 1_555
C20 C17 1_555 1_555
H22 C20 1_555 1_555
H23 C20 1_555 1_555
C21 C20 1_555 1_555
H24 C21 1_555 1_555
H25 C21 1_555 1_555
C22 C21 1_555 1_555
H26 C22 1_555 1_555
H27 C22 1_555 1_555
C23 C22 1_555 1_555
H28 C23 1_555 1_555
H29 C23 1_555 1_555
C24 C23 1_555 1_555
H30 C24 1_555 1_555
H31 C24 1_555 1_555
C25 C24 1_555 1_555
H32 C25 1_555 1_555
H33 C25 1_555 1_555
H34 C25 1_555 1_555
C26 C13 1_555 1_555
C27 C26 1_555 1_555
C28 C27 1_555 1_555
C29 C28 1_555 1_555
H35 C29 1_555 1_555
C30 C29 1_555 1_555
C31 C26 1_555 1_555
C32 C31 1_555 1_555
C33 C32 1_555 1_555
H36 C33 1_555 1_555
C34 C33 1_555 1_555
C35 C34 1_555 1_555
H37 C35 1_555 1_555
C36 C35 1_555 1_555
C37 C36 1_555 1_555
C38 C37 1_555 1_555
C39 C38 1_555 1_555
C40 C36 1_555 1_555
C41 C40 1_555 1_555
C42 C41 1_555 1_555
C43 C41 1_555 1_555
C44 C39 1_555 1_555
H38 C44 1_555 1_555
C45 C44 1_555 1_555
H39 C45 1_555 1_555
C46 C45 1_555 1_555
H40 C46 1_555 1_555
C47 C38 1_555 1_555
H41 C47 1_555 1_555
N1 C42 1_555 1_555
N2 C43 1_555 1_555
O1 C37 1_555 1_555
S1 C27 1_555 1_555
S2 C31 1_555 1_555
C48 H42 1_555 1_555
H43 C48 1_555 1_555
H44 C48 1_555 1_555
C49 C48 1_555 1_555
H45 C49 1_555 1_555
H46 C49 1_555 1_555
C50 C49 1_555 1_555
H47 C50 1_555 1_555
H48 C50 1_555 1_555
C51 C50 1_555 1_555
H49 C51 1_555 1_555
H50 C51 1_555 1_555
C52 C51 1_555 1_555
H51 C52 1_555 1_555
H52 C52 1_555 1_555
C53 C52 1_555 1_555
H53 C53 1_555 1_555
H54 C53 1_555 1_555
C54 C53 1_555 1_555
C55 C54 1_555 1_555
H55 C55 1_555 1_555
C56 C55 1_555 1_555
H56 C56 1_555 1_555
C57 C56 1_555 1_555
C58 C57 1_555 1_555
H57 C58 1_555 1_555
C59 C54 1_555 1_555
H58 C59 1_555 1_555
C60 C57 1_555 1_555
C61 C60 1_555 1_555
C62 C61 1_555 1_555
H59 C62 1_555 1_555
C63 C62 1_555 1_555
H60 C63 1_555 1_555
C64 C63 1_555 1_555
C65 C64 1_555 1_555
H61 C65 1_555 1_555
C66 C61 1_555 1_555
H62 C66 1_555 1_555
C67 C64 1_555 1_555
H63 C67 1_555 1_555
H64 C67 1_555 1_555
C68 C67 1_555 1_555
H65 C68 1_555 1_555
H66 C68 1_555 1_555
C69 C68 1_555 1_555
H67 C69 1_555 1_555
H68 C69 1_555 1_555
C70 C69 1_555 1_555
H69 C70 1_555 1_555
H70 C70 1_555 1_555
C71 C70 1_555 1_555
H71 C71 1_555 1_555
H72 C71 1_555 1_555
C72 C71 1_555 1_555
H73 C72 1_555 1_555
H74 C72 1_555 1_555
H75 C72 1_555 1_555
C73 H76 1_555 1_555
C74 C60 1_555 1_555
C75 C74 1_555 1_555
C76 C75 1_555 1_555
C77 C60 1_555 1_555
C78 C77 1_555 1_555
C79 C78 1_555 1_555
C80 C79 1_555 1_555
H77 C80 1_555 1_555
C81 C80 1_555 1_555
C82 C81 1_555 1_555
H78 C82 1_555 1_555
C83 C82 1_555 1_555
C84 C83 1_555 1_555
C85 C84 1_555 1_555
C86 C85 1_555 1_555
C87 C83 1_555 1_555
C88 C86 1_555 1_555
H79 C88 1_555 1_555
C89 C88 1_555 1_555
H80 C89 1_555 1_555
C90 C89 1_555 1_555
H81 C90 1_555 1_555
C91 C85 1_555 1_555
H82 C91 1_555 1_555
C92 C84 1_555 1_555
C93 C92 1_555 1_555
C94 C92 1_555 1_555
N3 C93 1_555 1_555
N4 C94 1_555 1_555
O2 C87 1_555 1_555
S3 C76 1_555 1_555
S4 C78 1_555 1_555
C1A H1A 1_555 1_555
H2A C1A 1_555 1_555
H3A C1A 1_555 1_555
C2A C1A 1_555 1_555
H4A C2A 1_555 1_555
H5A C2A 1_555 1_555
C3A C2A 1_555 1_555
H6A C3A 1_555 1_555
H7A C3A 1_555 1_555
C4A C3A 1_555 1_555
H8A C4A 1_555 1_555
H9A C4A 1_555 1_555
C5A C4A 1_555 1_555
H10A C5A 1_555 1_555
H11A C5A 1_555 1_555
C6A C5A 1_555 1_555
H12A C6A 1_555 1_555
H13A C6A 1_555 1_555
C7A C6A 1_555 1_555
C8A C7A 1_555 1_555
H14A C8A 1_555 1_555
C9A C8A 1_555 1_555
H15A C9A 1_555 1_555
C10A C9A 1_555 1_555
C11A C10A 1_555 1_555
H16A C11A 1_555 1_555
C12A C7A 1_555 1_555
H17A C12A 1_555 1_555
C13A C30 1_555 1_555
C14A C13A 1_555 1_555
C15A C14A 1_555 1_555
H18A C15A 1_555 1_555
C16A C15A 1_555 1_555
H19A C16A 1_555 1_555
C17A C16A 1_555 1_555
C18A C17A 1_555 1_555
H20A C18A 1_555 1_555
C19A C14A 1_555 1_555
H21A C19A 1_555 1_555
C20A C17A 1_555 1_555
H22A C20A 1_555 1_555
H23A C20A 1_555 1_555
C21A C20A 1_555 1_555
H24A C21A 1_555 1_555
H25A C21A 1_555 1_555
C22A C21A 1_555 1_555
H26A C22A 1_555 1_555
H27A C22A 1_555 1_555
C23A C22A 1_555 1_555
H28A C23A 1_555 1_555
H29A C23A 1_555 1_555
C24A C23A 1_555 1_555
H30A C24A 1_555 1_555
H31A C24A 1_555 1_555
C25A C24A 1_555 1_555
H32A C25A 1_555 1_555
H33A C25A 1_555 1_555
H34A C25A 1_555 1_555
C26A C13A 1_555 1_555
C27A C26A 1_555 1_555
C28A C30 1_555 1_555
C29A C28A 1_555 1_555
H35A C29A 1_555 1_555
C30A C13 1_555 1_555
C31A C26A 1_555 1_555
C32A C31A 1_555 1_555
C33A C32A 1_555 1_555
H36A C33A 1_555 1_555
C34A C33A 1_555 1_555
C35A C34A 1_555 1_555
H37A C35A 1_555 1_555
C36A C35A 1_555 1_555
C37A C36A 1_555 1_555
C38A C37A 1_555 1_555
C39A C38A 1_555 1_555
C40A C36A 1_555 1_555
C41A C40A 1_555 1_555
C42A C41A 1_555 1_555
C43A C41A 1_555 1_555
C44A C39A 1_555 1_555
H38A C44A 1_555 1_555
C45A C44A 1_555 1_555
H39A C45A 1_555 1_555
C46A C45A 1_555 1_555
H40A C46A 1_555 1_555
C47A C38A 1_555 1_555
H41A C47A 1_555 1_555
N1A C42A 1_555 1_555
N2A C43A 1_555 1_555
O1A C37A 1_555 1_555
S1A C27A 1_555 1_555
S2A C31A 1_555 1_555
C48A H42A 1_555 1_555
H43A C48A 1_555 1_555
H44A C48A 1_555 1_555
C49A C48A 1_555 1_555
H45A C49A 1_555 1_555
H46A C49A 1_555 1_555
C50A C49A 1_555 1_555
H47A C50A 1_555 1_555
H48A C50A 1_555 1_555
C51A C50A 1_555 1_555
H49A C51A 1_555 1_555
H50A C51A 1_555 1_555
C52A C51A 1_555 1_555
H51A C52A 1_555 1_555
H52A C52A 1_555 1_555
C53A C52A 1_555 1_555
H53A C53A 1_555 1_555
H54A C53A 1_555 1_555
C54A C53A 1_555 1_555
C55A C54A 1_555 1_555
H55A C55A 1_555 1_555
C56A C55A 1_555 1_555
H56A C56A 1_555 1_555
C57A C56A 1_555 1_555
C58A C57A 1_555 1_555
H57A C58A 1_555 1_555
C59A C54A 1_555 1_555
H58A C59A 1_555 1_555
C60A C57A 1_555 1_555
C61A C60A 1_555 1_555
C62A C61A 1_555 1_555
H59A C62A 1_555 1_555
C63A C62A 1_555 1_555
H60A C63A 1_555 1_555
C64A C63A 1_555 1_555
C65A C64A 1_555 1_555
H61A C65A 1_555 1_555
C66A C61A 1_555 1_555
H62A C66A 1_555 1_555
C67A C64A 1_555 1_555
H63A C67A 1_555 1_555
H64A C67A 1_555 1_555
C68A C67A 1_555 1_555
H65A C68A 1_555 1_555
H66A C68A 1_555 1_555
C69A C68A 1_555 1_555
H67A C69A 1_555 1_555
H68A C69A 1_555 1_555
C70A C69A 1_555 1_555
H69A C70A 1_555 1_555
H70A C70A 1_555 1_555
C71A C70A 1_555 1_555
H71A C71A 1_555 1_555
H72A C71A 1_555 1_555
C72A C71A 1_555 1_555
H73A C72A 1_555 1_555
H74A C72A 1_555 1_555
H75A C72A 1_555 1_555
C73A C75 1_555 1_555
H76A C73A 1_555 1_555
C74A C60A 1_555 1_555
C75A C73 1_555 1_555
C76A C75A 1_555 1_555
C77A C60A 1_555 1_555
C78A C77A 1_555 1_555
C79A C78A 1_555 1_555
C80A C79A 1_555 1_555
H77A C80A 1_555 1_555
C81A C80A 1_555 1_555
C82A C81A 1_555 1_555
H78A C82A 1_555 1_555
C83A C82A 1_555 1_555
C84A C83A 1_555 1_555
C85A C84A 1_555 1_555
C86A C85A 1_555 1_555
C87A C83A 1_555 1_555
C88A C86A 1_555 1_555
H79A C88A 1_555 1_555
C89A C88A 1_555 1_555
H80A C89A 1_555 1_555
C90A C89A 1_555 1_555
H81A C90A 1_555 1_555
C91A C85A 1_555 1_555
H82A C91A 1_555 1_555
C92A C84A 1_555 1_555
C93A C92A 1_555 1_555
C94A C92A 1_555 1_555
N3A C93A 1_555 1_555
N4A C94A 1_555 1_555
O2A C87A 1_555 1_555
S3A C76A 1_555 1_555
S4A C78A 1_555 1_555
C11 C12 1_555 1_555
C18 C19 1_555 1_555
C28 C30A 1_555 1_555
C32 S1 1_555 1_555
C34 S2 1_555 1_555
C39 C40 1_555 1_555
C46 C47 1_555 1_555
C58 C59 1_555 1_555
C65 C66 1_555 1_555
C73 C74 1_555 1_555
C76 C77 1_555 1_555
C79 S3 1_555 1_555
C81 S4 1_555 1_555
C86 C87 1_555 1_555
C90 C91 1_555 1_555
C10A C13A 1_555 1_555
C11A C12A 1_555 1_555
C18A C19A 1_555 1_555
C27A C28A 1_555 1_555
C29A C30A 1_555 1_555
C32A S1A 1_555 1_555
C34A S2A 1_555 1_555
C39A C40A 1_555 1_555
C46A C47A 1_555 1_555
C58A C59A 1_555 1_555
C65A C66A 1_555 1_555
C73A C74A 1_555 1_555
C74A C75A 1_555 1_555
C76A C77A 1_555 1_555
C79A S3A 1_555 1_555
C81A S4A 1_555 1_555
C86A C87A 1_555 1_555
C90A C91A 1_555 1_555

#END
