
#######################################################################
#
#                 Cambridge Crystallographic Data Centre
#                                CCDC 
#
#######################################################################
#
# If this CIF has been generated from an entry in the Cambridge 
# Structural Database, then it will include bibliographic, chemical, 
# crystal, experimental, refinement or atomic coordinate data resulting 
# from the CCDC's data processing and validation procedures.
#
#######################################################################

data_HEHXAW
_chemical_formula_moiety         'C42 H44 N2 O4 Se3'
_chemical_name_systematic        
1,2,4,5-tetrabutoxy-9,10-dimethyl-3,6,13-triselena-7,12-diaza-as-indaceno[2,1,8,7-defgh]benzo[l]cyclopenta[pqr]tetraphene
_symmetry_cell_setting           monoclinic
_symmetry_space_group_name_H-M   'P 1 1 21/b'
_symmetry_Int_Tables_number      14
_space_group_name_Hall           '-P 2bc'
loop_
_symmetry_equiv_pos_site_id
_symmetry_equiv_pos_as_xyz
1 x,y,z
2 -x,1/2-y,1/2+z
3 -x,-y,-z
4 x,1/2+y,1/2-z
_cell_length_a                   10.9450(10)
_cell_length_b                   22.663(4)
_cell_length_c                   30.367(2)
_cell_angle_alpha                90
_cell_angle_beta                 90
_cell_angle_gamma                77.83
_cell_volume                     7363.15
_exptl_crystal_colour            black
_exptl_crystal_description       needle
_chemical_melting_point          '546.4-546.9 K'
_cell_formula_units_Z            8
_chemical_properties_physical    Photo-sensitive
_exptl_crystal_recrystallization_method 'dichloromethane/ethyl acetate'
_exptl_crystal_preparation       semiconducting
loop_
_atom_site_label
_atom_site_type_symbol
_atom_site_fract_x
_atom_site_fract_y
_atom_site_fract_z
C1 C 0.0734(2) 0.33123(13) 0.77878(9)
C2 C 0.0871(2) 0.34386(13) 0.73300(9)
C3 C 0.0265(2) 0.31537(12) 0.70200(9)
C4 C -0.0482(2) 0.27436(12) 0.71457(9)
C5 C -0.0614(2) 0.26177(12) 0.75969(9)
C6 C 0.0014(2) 0.29058(13) 0.79130(9)
C7 C 0.1656(2) 0.38230(12) 0.72151(9)
C8 C 0.1844(2) 0.39037(12) 0.67573(9)
C9 C 0.1239(2) 0.35974(12) 0.64402(9)
C10 C 0.0431(2) 0.32289(12) 0.65692(9)
C11 C -0.1007(2) 0.24636(13) 0.68159(9)
C12 C -0.1766(2) 0.20466(12) 0.69438(9)
C13 C -0.1926(2) 0.19189(12) 0.74188(9)
C14 C -0.1283(2) 0.22111(13) 0.77431(9)
C15 C -0.0107(3) 0.27491(13) 0.83555(9)
C16 C 0.0506(3) 0.30304(13) 0.86712(9)
C17 C 0.1246(3) 0.34574(13) 0.85437(9)
C18 C 0.1382(2) 0.35930(13) 0.80922(9)
C19 C -0.3051(2) 0.13989(13) 0.67683(10)
C20 C -0.3669(3) 0.11033(14) 0.64470(11)
H1 H -0.355993 0.117990 0.614351
C21 C -0.4413(3) 0.07126(14) 0.65654(12)
C22 C -0.4587(3) 0.05984(14) 0.70272(12)
C23 C -0.3998(3) 0.08759(14) 0.73423(11)
H2 H -0.411522 0.079633 0.764480
C24 C -0.3214(2) 0.12811(13) 0.72233(10)
C25 C -0.5025(3) 0.03954(15) 0.62169(13)
H3 H -0.483385 0.053589 0.592465
H4 H -0.593163 0.048626 0.626173
H5 H -0.470458 -0.004127 0.623847
C26 C -0.5419(3) 0.01705(15) 0.71598(14)
H6 H -0.540889 0.012642 0.748092
H7 H -0.510997 -0.022466 0.702335
H8 H -0.627626 0.033335 0.706080
C27 C 0.3019(3) 0.46846(14) 0.68515(10)
H9 H 0.355594 0.448335 0.709346
H10 H 0.229037 0.496403 0.698151
C28 C 0.0771(3) 0.41296(13) 0.57647(9)
H11 H 0.093912 0.451842 0.586980
H12 H -0.012417 0.413180 0.581255
C29 C 0.1405(3) 0.25761(15) 0.93429(10)
H13 H 0.218617 0.269234 0.924723
H14 H 0.147214 0.214253 0.927730
C30 C 0.2338(3) 0.42059(15) 0.88070(10)
H15 H 0.177833 0.450649 0.862150
H16 H 0.314681 0.407752 0.865266
C31 C 0.3750(3) 0.50277(15) 0.65564(11)
H17 H 0.420471 0.526667 0.674443
H18 H 0.438121 0.473236 0.639175
C32 C 0.1092(3) 0.40441(15) 0.52804(10)
H19 H 0.199777 0.402522 0.524239
H20 H 0.063721 0.440078 0.511620
C33 C 0.1199(4) 0.26925(16) 0.98362(11)
H21 H 0.193408 0.246559 0.999833
H22 H 0.046170 0.253578 0.993061
C34 C 0.2534(3) 0.44790(16) 0.92547(11)
H23 H 0.278717 0.486942 0.921178
H24 H 0.173959 0.455609 0.942193
C35 C 0.2971(3) 0.54431(17) 0.62340(11)
H25 H 0.238629 0.522571 0.608844
H26 H 0.352425 0.555256 0.600387
C36 C 0.0772(3) 0.34759(16) 0.50794(10)
H27 H 0.130692 0.311547 0.521607
H28 H -0.010857 0.346839 0.514775
C37 C 0.2202(4) 0.60342(18) 0.64444(14)
H29 H 0.163194 0.593147 0.666681
H30 H 0.171726 0.628417 0.621505
H31 H 0.277285 0.625810 0.658345
C38 C 0.0958(4) 0.3444(2) 0.45799(12)
H32 H 0.045723 0.380763 0.444369
H33 H 0.069277 0.308689 0.446470
H34 H 0.184312 0.341679 0.451125
C39 C 0.0994(7) 0.3365(3) 0.9962(2)
H35 H 0.027619 0.359274 0.979149
H36 H 0.174221 0.351755 0.987426
C40 C 0.0744(8) 0.3499(4) 1.0457(2)
H37 H -0.003518 0.338272 1.054245
H38 H 0.067198 0.393154 1.051094
H39 H 0.143771 0.326847 1.063033
C41 C 0.3505(7) 0.4067(3) 0.9507(2)
H40 H 0.431983 0.403738 0.935742
H41 H 0.331135 0.365914 0.950663
C42 C 0.3621(8) 0.4270(4) 0.9991(2)
H42 H 0.382972 0.467003 0.999360
H43 H 0.428068 0.398005 1.014000
H44 H 0.282441 0.428946 1.014321
N1 N -0.2341(2) 0.17812(11) 0.66321(8)
N2 N -0.2650(2) 0.15419(11) 0.75462(8)
O1 O 0.26107(19) 0.42427(9) 0.65784(6)
O2 O 0.15392(18) 0.36350(9) 0.59998(6)
O3 O 0.0342(2) 0.29361(9) 0.91144(6)
O4 O 0.17841(19) 0.36950(9) 0.88872(6)
Se1 Se 0.23195(2) 0.40862(2) 0.77594(2)
Se2 Se -0.05237(2) 0.27393(2) 0.62526(2)
Se3 Se -0.11533(3) 0.21572(2) 0.83766(2)
C47 C 0.7221(2) 0.39916(13) 0.77317(9)
C48 C 0.7813(2) 0.42758(13) 0.80465(9)
C49 C 0.8566(2) 0.46906(12) 0.79225(9)
C50 C 0.8696(2) 0.48206(12) 0.74706(9)
C51 C 0.8074(3) 0.45342(13) 0.71522(9)
C52 C 0.7354(2) 0.41251(13) 0.72751(9)
C53 C 0.6429(2) 0.36103(12) 0.78416(9)
C54 C 0.6239(2) 0.35190(13) 0.82970(9)
C55 C 0.6851(3) 0.38192(13) 0.86212(9)
C56 C 0.7647(3) 0.41990(13) 0.84961(9)
C57 C 0.9077(2) 0.49744(13) 0.82518(9)
C58 C 0.9832(2) 0.53975(12) 0.81261(9)
C59 C 0.9977(2) 0.55281(12) 0.76519(9)
C60 C 0.9346(2) 0.52383(12) 0.73259(9)
C61 C 0.8167(2) 0.47083(13) 0.67151(9)
C62 C 0.7519(2) 0.44428(13) 0.63973(9)
C63 C 0.6815(2) 0.40067(13) 0.65202(9)
C64 C 0.6701(2) 0.38520(12) 0.69698(9)
C65 C 1.1128(3) 0.60391(13) 0.82989(9)
C66 C 1.1773(3) 0.63276(13) 0.86191(10)
H55 H 1.168536 0.624520 0.892280
C67 C 1.2508(3) 0.67163(13) 0.84976(10)
C68 C 1.2668(3) 0.68420(13) 0.80390(11)
C69 C 1.2054(3) 0.65752(13) 0.77250(10)
H56 H 1.215195 0.666341 0.742282
C70 C 1.1272(2) 0.61684(12) 0.78438(10)
C71 C 1.3150(3) 0.70236(14) 0.88483(11)
H57 H 1.296958 0.687812 0.914009
H58 H 1.405448 0.692912 0.879789
H59 H 1.283842 0.746146 0.883246
C72 C 1.3497(3) 0.72654(14) 0.79055(11)
H60 H 1.349748 0.730259 0.758401
H61 H 1.318198 0.766332 0.803703
H62 H 1.435103 0.710542 0.800889
C73 C 0.5076(3) 0.27424(14) 0.81884(10)
H63 H 0.457132 0.294732 0.794025
H64 H 0.581429 0.246049 0.806704
C74 C 0.7246(6) 0.3396(5) 0.93180(19)
H65 H 0.728571 0.298297 0.920494
H66 H 0.809655 0.347611 0.928658
C75 C 0.6472(3) 0.48916(14) 0.57479(10)
H67 H 0.591683 0.460320 0.570692
H68 H 0.603048 0.523173 0.593108
C76 C 0.5802(3) 0.32292(15) 0.62445(10)
H69 H 0.639558 0.293646 0.642468
H70 H 0.499010 0.332806 0.640053
C77 C 0.4296(3) 0.23996(15) 0.84686(10)
H71 H 0.393008 0.213243 0.827364
H72 H 0.359700 0.269440 0.860179
C78 C 0.7011(4) 0.33763(17) 0.97797(11)
H73 H 0.768630 0.307281 0.991752
H74 H 0.621499 0.324350 0.982585
C79 C 0.6815(3) 0.51217(16) 0.53049(10)
H75 H 0.603558 0.530028 0.514565
H76 H 0.727570 0.544751 0.535586
C80 C 0.5640(3) 0.29619(16) 0.57907(11)
H77 H 0.543097 0.256077 0.582955
H78 H 0.644250 0.290295 0.562958
C81 C 0.5019(3) 0.20195(16) 0.88343(11)
H79 H 0.549370 0.227084 0.900240
H80 H 0.441727 0.189332 0.903889
C82 C 0.7608(3) 0.46426(16) 0.50127(10)
H81 H 0.844429 0.451341 0.514856
H82 H 0.772270 0.482597 0.472382
C83 C 0.4634(3) 0.33531(18) 0.55174(12)
H83 H 0.381453 0.338087 0.566301
H84 H 0.479883 0.376547 0.549882
C84 C 0.5926(4) 0.14578(19) 0.86659(16)
H85 H 0.648757 0.157633 0.844737
H86 H 0.641733 0.125344 0.891261
H87 H 0.545368 0.118333 0.852960
C85 C 0.7062(3) 0.40910(16) 0.49376(12)
H88 H 0.621666 0.421508 0.481639
H89 H 0.758881 0.381934 0.472983
H90 H 0.702548 0.388128 0.521801
C86 C 0.4582(4) 0.3097(2) 0.50490(13)
H91 H 0.442551 0.268781 0.506667
H92 H 0.390614 0.335548 0.488303
H93 H 0.537969 0.308624 0.489956
C87 C 0.6944(11) 0.3910(4) 0.9981(2)
H94 H 0.641769 0.424129 0.981079
H95 H 0.659650 0.390535 1.028155
C88 C 0.8441(8) 0.3987(5) 0.9997(3)
H96 H 0.877633 0.396958 0.969648
H97 H 0.848035 0.437647 1.012983
H98 H 0.893774 0.366003 1.017255
N3 N 1.0412(2) 0.56571(11) 0.84371(8)
N4 N 1.0694(2) 0.59134(10) 0.75238(8)
O5 O 0.54631(19) 0.31794(9) 0.84708(7)
O6 O 0.6553(2) 0.37515(12) 0.90542(7)
O7 O 0.76254(18) 0.45953(9) 0.59600(6)
O8 O 0.62785(18) 0.37692(9) 0.61736(6)
Se4 Se 0.57653(2) 0.33544(2) 0.72953(2)
Se5 Se 0.85920(3) 0.46966(2) 0.88131(2)
Se6 Se 0.91862(2) 0.53099(2) 0.66950(2)
C1B C 0.9266(2) 0.66877(13) 1.22122(9)
C2B C 0.9129(2) 0.65614(13) 1.26700(9)
C3B C 0.9735(2) 0.68463(12) 1.29800(9)
C4B C 1.0482(2) 0.72564(12) 1.28543(9)
C5B C 1.0614(2) 0.73823(12) 1.24031(9)
C6B C 0.9986(2) 0.70942(13) 1.20870(9)
C7B C 0.8344(2) 0.61770(12) 1.27849(9)
C8B C 0.8156(2) 0.60963(12) 1.32427(9)
C9B C 0.8761(2) 0.64026(12) 1.35598(9)
C10B C 0.9569(2) 0.67711(12) 1.34308(9)
C11B C 1.1007(2) 0.75364(13) 1.31841(9)
C12B C 1.1766(2) 0.79534(12) 1.30562(9)
C13B C 1.1926(2) 0.80811(12) 1.25812(9)
C14B C 1.1283(2) 0.77889(13) 1.22569(9)
C15B C 1.0107(3) 0.72509(13) 1.16445(9)
C16B C 0.9494(3) 0.69696(13) 1.13288(9)
C17B C 0.8754(3) 0.65426(13) 1.14563(9)
C18B C 0.8618(2) 0.64070(13) 1.19078(9)
C19B C 1.3051(2) 0.86011(13) 1.32317(10)
C20B C 1.3669(3) 0.88967(14) 1.35530(11)
H1B H 1.355993 0.882010 1.385649
C21B C 1.4413(3) 0.92874(14) 1.34346(12)
C22B C 1.4587(3) 0.94016(14) 1.29728(12)
C23B C 1.3998(3) 0.91241(14) 1.26577(11)
H2B H 1.411522 0.920367 1.235520
C24B C 1.3214(2) 0.87189(13) 1.27767(10)
C25B C 1.5025(3) 0.96046(15) 1.37831(13)
H3B H 1.483385 0.946411 1.407535
H4B H 1.593163 0.951374 1.373827
H5B H 1.470458 1.004127 1.376153
C26B C 1.5419(3) 0.98295(15) 1.28402(14)
H6B H 1.540889 0.987358 1.251908
H7B H 1.510997 1.022466 1.297665
H8B H 1.627626 0.966665 1.293920
C27B C 0.6981(3) 0.53154(14) 1.31485(10)
H9B H 0.644406 0.551665 1.290654
H10B H 0.770963 0.503597 1.301849
C28B C 0.9229(3) 0.58704(13) 1.42353(9)
H11B H 0.906088 0.548158 1.413020
H12B H 1.012417 0.586820 1.418745
C29B C 0.8595(3) 0.74239(15) 1.06571(10)
H13B H 0.781383 0.730766 1.075277
H14B H 0.852786 0.785747 1.072270
C30B C 0.7662(3) 0.57941(15) 1.11930(10)
H15B H 0.822167 0.549351 1.137850
H16B H 0.685319 0.592248 1.134734
C31B C 0.6250(3) 0.49723(15) 1.34436(11)
H17B H 0.579529 0.473333 1.325557
H18B H 0.561879 0.526764 1.360825
C32B C 0.8908(3) 0.59559(15) 1.47196(10)
H19B H 0.800223 0.597478 1.475761
H20B H 0.936279 0.559922 1.488380
C33B C 0.8801(4) 0.73075(16) 1.01638(11)
H21B H 0.806592 0.753441 1.000167
H22B H 0.953830 0.746422 1.006939
C34B C 0.7466(3) 0.55210(16) 1.07453(11)
H23B H 0.721283 0.513058 1.078822
H24B H 0.826041 0.544391 1.057807
C35B C 0.7029(3) 0.45569(17) 1.37660(11)
H25B H 0.761371 0.477429 1.391156
H26B H 0.647575 0.444744 1.399613
C36B C 0.9228(3) 0.65241(16) 1.49206(10)
H27B H 0.869308 0.688453 1.478393
H28B H 1.010857 0.653161 1.485225
C37B C 0.7798(4) 0.39658(18) 1.35556(14)
H29B H 0.836806 0.406853 1.333319
H30B H 0.828274 0.371583 1.378495
H31B H 0.722715 0.374190 1.341655
C38B C 0.9042(4) 0.6556(2) 1.54201(12)
H32B H 0.954277 0.619237 1.555631
H33B H 0.930723 0.691311 1.553530
H34B H 0.815688 0.658321 1.548875
C39B C 0.9006(7) 0.6635(3) 1.0038(2)
H35B H 0.972381 0.640726 1.020851
H36B H 0.825779 0.648245 1.012574
C40B C 0.9256(8) 0.6501(4) 0.9543(2)
H37B H 1.003518 0.661728 0.945755
H38B H 0.932802 0.606846 0.948906
H39B H 0.856229 0.673153 0.936967
C41B C 0.6495(7) 0.5933(3) 1.0493(2)
H40B H 0.568017 0.596262 1.064258
H41B H 0.668865 0.634086 1.049337
C42B C 0.6379(8) 0.5730(4) 1.0009(2)
H42B H 0.617028 0.532997 1.000640
H43B H 0.571932 0.601995 0.986000
H44B H 0.717559 0.571054 0.985679
N1B N 1.2341(2) 0.82188(11) 1.33679(8)
N2B N 1.2650(2) 0.84581(11) 1.24538(8)
O1B O 0.73893(19) 0.57573(9) 1.34216(6)
O2B O 0.84608(18) 0.63650(9) 1.40002(6)
O3B O 0.9658(2) 0.70639(9) 1.08856(6)
O4B O 0.82159(19) 0.63050(9) 1.11128(6)
Se1B Se 0.76805(2) 0.59138(2) 1.22406(2)
Se2B Se 1.05237(2) 0.72607(2) 1.37474(2)
Se3B Se 1.11533(3) 0.78428(2) 1.16234(2)
C47B C 0.2779(2) 0.60084(13) 1.22683(9)
C48B C 0.2187(2) 0.57242(13) 1.19535(9)
C49B C 0.1434(2) 0.53094(12) 1.20775(9)
C50B C 0.1304(2) 0.51794(12) 1.25294(9)
C51B C 0.1926(3) 0.54658(13) 1.28478(9)
C52B C 0.2646(2) 0.58749(13) 1.27249(9)
C53B C 0.3571(2) 0.63897(12) 1.21584(9)
C54B C 0.3761(2) 0.64810(13) 1.17030(9)
C55B C 0.3149(3) 0.61808(13) 1.13788(9)
C56B C 0.2353(3) 0.58010(13) 1.15039(9)
C57B C 0.0923(2) 0.50256(13) 1.17482(9)
C58B C 0.0168(2) 0.46025(12) 1.18739(9)
C59B C 0.0023(2) 0.44719(12) 1.23481(9)
C60B C 0.0654(2) 0.47617(12) 1.26741(9)
C61B C 0.1833(2) 0.52917(13) 1.32849(9)
C62B C 0.2481(2) 0.55572(13) 1.36027(9)
C63B C 0.3185(2) 0.59933(13) 1.34798(9)
C64B C 0.3299(2) 0.61480(12) 1.30302(9)
C65B C -0.1128(3) 0.39609(13) 1.17011(9)
C66B C -0.1773(3) 0.36724(13) 1.13809(10)
H55B H -0.168536 0.375480 1.107720
C67B C -0.2508(3) 0.32837(13) 1.15024(10)
C68B C -0.2668(3) 0.31580(13) 1.19610(11)
C69B C -0.2054(3) 0.34248(13) 1.22750(10)
H56B H -0.215195 0.333659 1.257718
C70B C -0.1272(2) 0.38316(12) 1.21562(10)
C71B C -0.3150(3) 0.29764(14) 1.11517(11)
H57B H -0.296958 0.312188 1.085991
H58B H -0.405448 0.307088 1.120211
H59B H -0.283842 0.253854 1.116754
C72B C -0.3497(3) 0.27346(14) 1.20945(11)
H60B H -0.349748 0.269741 1.241599
H61B H -0.318198 0.233668 1.196297
H62B H -0.435103 0.289458 1.199111
C73B C 0.4924(3) 0.72576(14) 1.18116(10)
H63B H 0.542868 0.705268 1.205975
H64B H 0.418571 0.753951 1.193296
C74B C 0.2754(6) 0.6604(5) 1.06820(19)
H65B H 0.271429 0.701703 1.079506
H66B H 0.190345 0.652389 1.071342
C75B C 0.3528(3) 0.51084(14) 1.42521(10)
H67B H 0.408317 0.539680 1.429308
H68B H 0.396952 0.476827 1.406892
C76B C 0.4198(3) 0.67708(15) 1.37555(10)
H69B H 0.360442 0.706354 1.357532
H70B H 0.500990 0.667194 1.359947
C77B C 0.5704(3) 0.76004(15) 1.15314(10)
H71B H 0.606992 0.786757 1.172636
H72B H 0.640300 0.730560 1.139821
C78B C 0.2989(4) 0.66237(17) 1.02203(11)
H73B H 0.231370 0.692719 1.008248
H74B H 0.378501 0.675650 1.017415
C79B C 0.3185(3) 0.48783(16) 1.46951(10)
H75B H 0.396442 0.469972 1.485435
H76B H 0.272430 0.455249 1.464414
C80B C 0.4360(3) 0.70381(16) 1.42093(11)
H77B H 0.456903 0.743923 1.417045
H78B H 0.355750 0.709705 1.437042
C81B C 0.4981(3) 0.79805(16) 1.11657(11)
H79B H 0.450630 0.772916 1.099760
H80B H 0.558273 0.810668 1.096111
C82B C 0.2392(3) 0.53574(16) 1.49873(10)
H81B H 0.155571 0.548659 1.485144
H82B H 0.227730 0.517403 1.527618
C83B C 0.5366(3) 0.66469(18) 1.44826(12)
H83B H 0.618547 0.661913 1.433699
H84B H 0.520117 0.623453 1.450118
C84B C 0.4074(4) 0.85422(19) 1.13341(16)
H85B H 0.351243 0.842367 1.155263
H86B H 0.358267 0.874656 1.108739
H87B H 0.454632 0.881667 1.147040
C85B C 0.2938(3) 0.59090(16) 1.50624(12)
H88B H 0.378334 0.578492 1.518361
H89B H 0.241119 0.618066 1.527017
H90B H 0.297452 0.611872 1.478199
C86B C 0.5418(4) 0.6903(2) 1.49510(13)
H91B H 0.557449 0.731219 1.493333
H92B H 0.609386 0.664452 1.511697
H93B H 0.462031 0.691376 1.510044
C87B C 0.3056(11) 0.6090(4) 1.0019(2)
H94B H 0.358231 0.575871 1.018921
H95B H 0.340350 0.609465 0.971845
C88B C 0.1559(8) 0.6013(5) 1.0003(3)
H96B H 0.122367 0.603042 1.030352
H97B H 0.151965 0.562353 0.987017
H98B H 0.106226 0.633997 0.982745
N3B N -0.0412(2) 0.43429(11) 1.15629(8)
N4B N -0.0694(2) 0.40866(10) 1.24762(8)
O5B O 0.45369(19) 0.68206(9) 1.15292(7)
O6B O 0.3447(2) 0.62485(12) 1.09458(7)
O7B O 0.23746(18) 0.54047(9) 1.40400(6)
O8B O 0.37215(18) 0.62308(9) 1.38264(6)
Se4B Se 0.42347(2) 0.66456(2) 1.27047(2)
Se5B Se 0.14080(3) 0.53034(2) 1.11869(2)
Se6B Se 0.08138(2) 0.46901(2) 1.33050(2)
C43? C 0.1751(8) 0.3258(3) 0.9978(2)
H45? H 0.264649 0.318593 0.989660
H46? H 0.130764 0.362004 0.981695
C44? C 0.1613(8) 0.3373(3) 1.0478(2)
H47? H 0.075314 0.337187 1.056800
H48? H 0.180490 0.376614 1.054767
H49? H 0.219162 0.305515 1.063670
C45? C 0.1342(6) 0.4813(3) 0.94640(18)
H50? H 0.074508 0.454016 0.947778
H51? H 0.096868 0.515846 0.927341
C46? C 0.1504(7) 0.5049(3) 0.9927(2)
H52? H 0.195529 0.471802 1.011060
H53? H 0.068111 0.521031 1.005607
H54? H 0.198045 0.536895 0.991111
C89? C 0.5485(14) 0.3601(5) 0.9986(5)
H99? H 0.539805 0.339971 1.027057
H100? H 0.486763 0.350284 0.977539
C90? C 0.5328(13) 0.4196(9) 1.0039(4)
H101? H 0.535375 0.438842 0.975145
H102? H 0.451755 0.435278 1.017900
H103? H 0.599716 0.428396 1.022631
loop_
_geom_bond_atom_site_label_1
_geom_bond_atom_site_label_2
_geom_bond_site_symmetry_1
_geom_bond_site_symmetry_2
C1 C2 1_555 1_555
C2 C3 1_555 1_555
C3 C4 1_555 1_555
C4 C5 1_555 1_555
C5 C6 1_555 1_555
C6 C1 1_555 1_555
C7 C2 1_555 1_555
C8 C7 1_555 1_555
C9 C8 1_555 1_555
C10 C3 1_555 1_555
C11 C4 1_555 1_555
C12 C11 1_555 1_555
C13 C12 1_555 1_555
C14 C5 1_555 1_555
C15 C6 1_555 1_555
C16 C15 1_555 1_555
C17 C16 1_555 1_555
C18 C1 1_555 1_555
C19 C20 1_555 1_555
C20 H1 1_555 1_555
C21 C20 1_555 1_555
C22 C21 1_555 1_555
C23 C22 1_555 1_555
H2 C23 1_555 1_555
C24 C19 1_555 1_555
C25 C21 1_555 1_555
H3 C25 1_555 1_555
H4 C25 1_555 1_555
H5 C25 1_555 1_555
C26 C22 1_555 1_555
H6 C26 1_555 1_555
H7 C26 1_555 1_555
H8 C26 1_555 1_555
C27 H9 1_555 1_555
H10 C27 1_555 1_555
C28 H11 1_555 1_555
H12 C28 1_555 1_555
C29 H13 1_555 1_555
H14 C29 1_555 1_555
C30 H15 1_555 1_555
H16 C30 1_555 1_555
C31 C27 1_555 1_555
H17 C31 1_555 1_555
H18 C31 1_555 1_555
C32 C28 1_555 1_555
H19 C32 1_555 1_555
H20 C32 1_555 1_555
C33 C29 1_555 1_555
H21 C33 1_555 1_555
H22 C33 1_555 1_555
C34 C30 1_555 1_555
H23 C34 1_555 1_555
H24 C34 1_555 1_555
C35 C31 1_555 1_555
H25 C35 1_555 1_555
H26 C35 1_555 1_555
C36 C32 1_555 1_555
H27 C36 1_555 1_555
H28 C36 1_555 1_555
C37 C35 1_555 1_555
H29 C37 1_555 1_555
H30 C37 1_555 1_555
H31 C37 1_555 1_555
C38 C36 1_555 1_555
H32 C38 1_555 1_555
H33 C38 1_555 1_555
H34 C38 1_555 1_555
C39 C33 1_555 1_555
H35 C39 1_555 1_555
H36 C39 1_555 1_555
C40 C39 1_555 1_555
H37 C40 1_555 1_555
H38 C40 1_555 1_555
H39 C40 1_555 1_555
C41 C34 1_555 1_555
H40 C41 1_555 1_555
H41 C41 1_555 1_555
C42 C41 1_555 1_555
H42 C42 1_555 1_555
H43 C42 1_555 1_555
H44 C42 1_555 1_555
N1 C12 1_555 1_555
N2 C13 1_555 1_555
O1 C8 1_555 1_555
O2 C9 1_555 1_555
O3 C16 1_555 1_555
O4 C17 1_555 1_555
Se1 C7 1_555 1_555
Se2 C10 1_555 1_555
Se3 C14 1_555 1_555
C47 C48 1_555 1_555
C48 C49 1_555 1_555
C49 C50 1_555 1_555
C50 C51 1_555 1_555
C51 C52 1_555 1_555
C52 C47 1_555 1_555
C53 C47 1_555 1_555
C54 C53 1_555 1_555
C55 C54 1_555 1_555
C56 C48 1_555 1_555
C57 C49 1_555 1_555
C58 C57 1_555 1_555
C59 C58 1_555 1_555
C60 C50 1_555 1_555
C61 C51 1_555 1_555
C62 C61 1_555 1_555
C63 C62 1_555 1_555
C64 C52 1_555 1_555
C65 C66 1_555 1_555
C66 H55 1_555 1_555
C67 C66 1_555 1_555
C68 C67 1_555 1_555
C69 C68 1_555 1_555
H56 C69 1_555 1_555
C70 C65 1_555 1_555
C71 C67 1_555 1_555
H57 C71 1_555 1_555
H58 C71 1_555 1_555
H59 C71 1_555 1_555
C72 C68 1_555 1_555
H60 C72 1_555 1_555
H61 C72 1_555 1_555
H62 C72 1_555 1_555
C73 H63 1_555 1_555
H64 C73 1_555 1_555
C74 H65 1_555 1_555
H66 C74 1_555 1_555
C75 H67 1_555 1_555
H68 C75 1_555 1_555
C76 H69 1_555 1_555
H70 C76 1_555 1_555
C77 C73 1_555 1_555
H71 C77 1_555 1_555
H72 C77 1_555 1_555
C78 C74 1_555 1_555
H73 C78 1_555 1_555
H74 C78 1_555 1_555
C79 C75 1_555 1_555
H75 C79 1_555 1_555
H76 C79 1_555 1_555
C80 C76 1_555 1_555
H77 C80 1_555 1_555
H78 C80 1_555 1_555
C81 C77 1_555 1_555
H79 C81 1_555 1_555
H80 C81 1_555 1_555
C82 C79 1_555 1_555
H81 C82 1_555 1_555
H82 C82 1_555 1_555
C83 C80 1_555 1_555
H83 C83 1_555 1_555
H84 C83 1_555 1_555
C84 C81 1_555 1_555
H85 C84 1_555 1_555
H86 C84 1_555 1_555
H87 C84 1_555 1_555
C85 C82 1_555 1_555
H88 C85 1_555 1_555
H89 C85 1_555 1_555
H90 C85 1_555 1_555
C86 C83 1_555 1_555
H91 C86 1_555 1_555
H92 C86 1_555 1_555
H93 C86 1_555 1_555
C87 C78 1_555 1_555
H94 C87 1_555 1_555
H95 C87 1_555 1_555
C88 C87 1_555 1_555
H96 C88 1_555 1_555
H97 C88 1_555 1_555
H98 C88 1_555 1_555
N3 C58 1_555 1_555
N4 C59 1_555 1_555
O5 C54 1_555 1_555
O6 C55 1_555 1_555
O7 C62 1_555 1_555
O8 C63 1_555 1_555
Se4 C53 1_555 1_555
Se5 C56 1_555 1_555
Se6 C60 1_555 1_555
C1B C2B 1_555 1_555
C2B C3B 1_555 1_555
C3B C4B 1_555 1_555
C4B C5B 1_555 1_555
C5B C6B 1_555 1_555
C6B C1B 1_555 1_555
C7B C2B 1_555 1_555
C8B C7B 1_555 1_555
C9B C8B 1_555 1_555
C10B C3B 1_555 1_555
C11B C4B 1_555 1_555
C12B C11B 1_555 1_555
C13B C12B 1_555 1_555
C14B C5B 1_555 1_555
C15B C6B 1_555 1_555
C16B C15B 1_555 1_555
C17B C16B 1_555 1_555
C18B C1B 1_555 1_555
C19B C20B 1_555 1_555
C20B H1B 1_555 1_555
C21B C20B 1_555 1_555
C22B C21B 1_555 1_555
C23B C22B 1_555 1_555
H2B C23B 1_555 1_555
C24B C19B 1_555 1_555
C25B C21B 1_555 1_555
H3B C25B 1_555 1_555
H4B C25B 1_555 1_555
H5B C25B 1_555 1_555
C26B C22B 1_555 1_555
H6B C26B 1_555 1_555
H7B C26B 1_555 1_555
H8B C26B 1_555 1_555
C27B H9B 1_555 1_555
H10B C27B 1_555 1_555
C28B H11B 1_555 1_555
H12B C28B 1_555 1_555
C29B H13B 1_555 1_555
H14B C29B 1_555 1_555
C30B H15B 1_555 1_555
H16B C30B 1_555 1_555
C31B C27B 1_555 1_555
H17B C31B 1_555 1_555
H18B C31B 1_555 1_555
C32B C28B 1_555 1_555
H19B C32B 1_555 1_555
H20B C32B 1_555 1_555
C33B C29B 1_555 1_555
H21B C33B 1_555 1_555
H22B C33B 1_555 1_555
C34B C30B 1_555 1_555
H23B C34B 1_555 1_555
H24B C34B 1_555 1_555
C35B C31B 1_555 1_555
H25B C35B 1_555 1_555
H26B C35B 1_555 1_555
C36B C32B 1_555 1_555
H27B C36B 1_555 1_555
H28B C36B 1_555 1_555
C37B C35B 1_555 1_555
H29B C37B 1_555 1_555
H30B C37B 1_555 1_555
H31B C37B 1_555 1_555
C38B C36B 1_555 1_555
H32B C38B 1_555 1_555
H33B C38B 1_555 1_555
H34B C38B 1_555 1_555
C39B C33B 1_555 1_555
H35B C39B 1_555 1_555
H36B C39B 1_555 1_555
C40B C39B 1_555 1_555
H37B C40B 1_555 1_555
H38B C40B 1_555 1_555
H39B C40B 1_555 1_555
C41B C34B 1_555 1_555
H40B C41B 1_555 1_555
H41B C41B 1_555 1_555
C42B C41B 1_555 1_555
H42B C42B 1_555 1_555
H43B C42B 1_555 1_555
H44B C42B 1_555 1_555
N1B C12B 1_555 1_555
N2B C13B 1_555 1_555
O1B C8B 1_555 1_555
O2B C9B 1_555 1_555
O3B C16B 1_555 1_555
O4B C17B 1_555 1_555
Se1B C7B 1_555 1_555
Se2B C10B 1_555 1_555
Se3B C14B 1_555 1_555
C47B C48B 1_555 1_555
C48B C49B 1_555 1_555
C49B C50B 1_555 1_555
C50B C51B 1_555 1_555
C51B C52B 1_555 1_555
C52B C47B 1_555 1_555
C53B C47B 1_555 1_555
C54B C53B 1_555 1_555
C55B C54B 1_555 1_555
C56B C48B 1_555 1_555
C57B C49B 1_555 1_555
C58B C57B 1_555 1_555
C59B C58B 1_555 1_555
C60B C50B 1_555 1_555
C61B C51B 1_555 1_555
C62B C61B 1_555 1_555
C63B C62B 1_555 1_555
C64B C52B 1_555 1_555
C65B C66B 1_555 1_555
C66B H55B 1_555 1_555
C67B C66B 1_555 1_555
C68B C67B 1_555 1_555
C69B C68B 1_555 1_555
H56B C69B 1_555 1_555
C70B C65B 1_555 1_555
C71B C67B 1_555 1_555
H57B C71B 1_555 1_555
H58B C71B 1_555 1_555
H59B C71B 1_555 1_555
C72B C68B 1_555 1_555
H60B C72B 1_555 1_555
H61B C72B 1_555 1_555
H62B C72B 1_555 1_555
C73B H63B 1_555 1_555
H64B C73B 1_555 1_555
C74B H65B 1_555 1_555
H66B C74B 1_555 1_555
C75B H67B 1_555 1_555
H68B C75B 1_555 1_555
C76B H69B 1_555 1_555
H70B C76B 1_555 1_555
C77B C73B 1_555 1_555
H71B C77B 1_555 1_555
H72B C77B 1_555 1_555
C78B C74B 1_555 1_555
H73B C78B 1_555 1_555
H74B C78B 1_555 1_555
C79B C75B 1_555 1_555
H75B C79B 1_555 1_555
H76B C79B 1_555 1_555
C80B C76B 1_555 1_555
H77B C80B 1_555 1_555
H78B C80B 1_555 1_555
C81B C77B 1_555 1_555
H79B C81B 1_555 1_555
H80B C81B 1_555 1_555
C82B C79B 1_555 1_555
H81B C82B 1_555 1_555
H82B C82B 1_555 1_555
C83B C80B 1_555 1_555
H83B C83B 1_555 1_555
H84B C83B 1_555 1_555
C84B C81B 1_555 1_555
H85B C84B 1_555 1_555
H86B C84B 1_555 1_555
H87B C84B 1_555 1_555
C85B C82B 1_555 1_555
H88B C85B 1_555 1_555
H89B C85B 1_555 1_555
H90B C85B 1_555 1_555
C86B C83B 1_555 1_555
H91B C86B 1_555 1_555
H92B C86B 1_555 1_555
H93B C86B 1_555 1_555
C87B C78B 1_555 1_555
H94B C87B 1_555 1_555
H95B C87B 1_555 1_555
C88B C87B 1_555 1_555
H96B C88B 1_555 1_555
H97B C88B 1_555 1_555
H98B C88B 1_555 1_555
N3B C58B 1_555 1_555
N4B C59B 1_555 1_555
O5B C54B 1_555 1_555
O6B C55B 1_555 1_555
O7B C62B 1_555 1_555
O8B C63B 1_555 1_555
Se4B C53B 1_555 1_555
Se5B C56B 1_555 1_555
Se6B C60B 1_555 1_555
C9 C10 1_555 1_555
C11 Se2 1_555 1_555
C13 C14 1_555 1_555
C15 Se3 1_555 1_555
C17 C18 1_555 1_555
C18 Se1 1_555 1_555
C19 N1 1_555 1_555
C23 C24 1_555 1_555
C24 N2 1_555 1_555
C27 O1 1_555 1_555
C28 O2 1_555 1_555
C29 O3 1_555 1_555
C30 O4 1_555 1_555
C55 C56 1_555 1_555
C57 Se5 1_555 1_555
C59 C60 1_555 1_555
C61 Se6 1_555 1_555
C63 C64 1_555 1_555
C64 Se4 1_555 1_555
C65 N3 1_555 1_555
C69 C70 1_555 1_555
C70 N4 1_555 1_555
C73 O5 1_555 1_555
C74 O6 1_555 1_555
C75 O7 1_555 1_555
C76 O8 1_555 1_555
C9B C10B 1_555 1_555
C11B Se2B 1_555 1_555
C13B C14B 1_555 1_555
C15B Se3B 1_555 1_555
C17B C18B 1_555 1_555
C18B Se1B 1_555 1_555
C19B N1B 1_555 1_555
C23B C24B 1_555 1_555
C24B N2B 1_555 1_555
C27B O1B 1_555 1_555
C28B O2B 1_555 1_555
C29B O3B 1_555 1_555
C30B O4B 1_555 1_555
C55B C56B 1_555 1_555
C57B Se5B 1_555 1_555
C59B C60B 1_555 1_555
C61B Se6B 1_555 1_555
C63B C64B 1_555 1_555
C64B Se4B 1_555 1_555
C65B N3B 1_555 1_555
C69B C70B 1_555 1_555
C70B N4B 1_555 1_555
C73B O5B 1_555 1_555
C74B O6B 1_555 1_555
C75B O7B 1_555 1_555
C76B O8B 1_555 1_555

#END
