
#######################################################################
#
#                 Cambridge Crystallographic Data Centre
#                                CCDC 
#
#######################################################################
#
# If this CIF has been generated from an entry in the Cambridge 
# Structural Database, then it will include bibliographic, chemical, 
# crystal, experimental, refinement or atomic coordinate data resulting 
# from the CCDC's data processing and validation procedures.
#
#######################################################################

data_HEHYUR
_chemical_formula_moiety         'C72 H84 N12,1.29(C8 H10 O1)'
_chemical_name_systematic        
'(R)-5,12,20,27,35,42,50,57,62,69,74,81-dodecaazatridecacyclo[29.29.10.10^16,46^.1^3,59^.1^14,18^.1^29,33^.1^44,48^.0^6,11^.0^21,26^.0^36,41^.0^51,56^.0^63,68^.0^75,80^]tetraoctaconta-1,3(71),4,12,14(84),15,17,19,27,29(83),30,32,34,42,44(72),45,47,49,57,59,61,69,73,81-tetracosaene 1-phenylethanol solvate'
_symmetry_cell_setting           rhombohedral
_symmetry_space_group_name_H-M   'R 3'
_symmetry_Int_Tables_number      146
_space_group_name_Hall           'R 3'
loop_
_symmetry_equiv_pos_site_id
_symmetry_equiv_pos_as_xyz
1 x,y,z
2 -y,x-y,z
3 -x+y,-x,z
4 2/3+x,1/3+y,1/3+z
5 2/3-y,1/3+x-y,1/3+z
6 2/3-x+y,1/3-x,1/3+z
7 1/3+x,2/3+y,2/3+z
8 1/3-y,2/3+x-y,2/3+z
9 1/3-x+y,2/3-x,2/3+z
_cell_length_a                   17.681(4)
_cell_length_b                   17.681(4)
_cell_length_c                   43.550(10)
_cell_angle_alpha                90
_cell_angle_beta                 90
_cell_angle_gamma                120
_cell_volume                     11790.5
_exptl_crystal_colour            colorless
_exptl_crystal_description       prism
_cell_formula_units_Z            6
loop_
_atom_site_label
_atom_site_type_symbol
_atom_site_fract_x
_atom_site_fract_y
_atom_site_fract_z
N1 N 0.6828(3) 0.8360(3) 0.49384(17)
N2 N 0.5753(3) 0.7718(3) 0.43745(18)
N3 N 0.5714(4) 0.9450(3) 0.61909(18)
N4 N 0.4298(4) 0.9844(4) 0.61050(18)
C1 C 0.5573(6) 0.6404(5) 0.61665(18)
H1 H 0.5386 0.6471 0.6364
C2 C 0.5876(6) 0.7123(6) 0.5950(2)
C3 C 0.6125(5) 0.7116(4) 0.56475(19)
H2 H 0.6120 0.6606 0.5576
C4 C 0.6378(4) 0.7795(4) 0.5446(2)
C5 C 0.6336(4) 0.8543(4) 0.55496(19)
H3 H 0.6504 0.9020 0.5413
C6 C 0.6060(5) 0.8595(4) 0.5843(2)
C7 C 0.5823(6) 0.7875(5) 0.60471(19)
H4 H 0.5628 0.7893 0.6249
C8 C 0.6631(4) 0.7772(3) 0.51370(18)
H5 H 0.6653 0.7268 0.5075
C9 C 0.6037(5) 0.9379(4) 0.59295(19)
H6 H 0.6265 0.9858 0.5791
C10 C 0.3638(4) 0.7577(4) 0.4336(2)
H7 H 0.3836 0.8185 0.4325
C11 C 0.4225(4) 0.7277(4) 0.4344(2)
C12 C 0.5170(4) 0.7932(4) 0.4356(2)
H8 H 0.5344 0.8535 0.4349
C13 C 0.5816(4) 1.0299(4) 0.62502(18)
H9 H 0.6003 1.0644 0.6055
C14 C 0.6500(6) 1.0784(5) 0.6489(2)
H10 H 0.7063 1.0860 0.6414
H11 H 0.6342 1.0422 0.6677
C15 C 0.6629(5) 1.1670(5) 0.6573(2)
H12 H 0.7053 1.1923 0.6744
H13 H 0.6867 1.2068 0.6394
C16 C 0.5774(6) 1.1583(5) 0.6667(2)
H14 H 0.5858 1.2175 0.6699
H15 H 0.5597 1.1272 0.6866
C17 C 0.5029(7) 1.1096(6) 0.6435(2)
H16 H 0.5144 1.1456 0.6248
H17 H 0.4472 1.0992 0.6526
C18 C 0.4954(5) 1.0204(4) 0.63479(19)
H18 H 0.4732 0.9807 0.6530
C19 C 0.7154(4) 0.8279(3) 0.46440(19)
H19 H 0.7080 0.7681 0.4626
C20 C 0.8118(4) 0.8950(4) 0.4632(2)
H20 H 0.8421 0.8838 0.4802
H21 H 0.8194 0.9539 0.4663
C21 C 0.8536(4) 0.8931(5) 0.4328(3)
H22 H 0.9162 0.9386 0.4328
H23 H 0.8493 0.8355 0.4300
C22 C 0.8065(4) 0.9097(5) 0.4072(2)
H24 H 0.8324 0.9080 0.3873
H25 H 0.8136 0.9686 0.4097
C23 C 0.7080(4) 0.8404(5) 0.4074(2)
H26 H 0.6784 0.8521 0.3903
H27 H 0.7009 0.7817 0.4042
C24 C 0.6654(3) 0.8419(3) 0.43793(19)
H28 H 0.6679 0.8993 0.4405
N1A N 0.1640(3) 0.8468(4) 0.49384(17)
N2A N 0.2282(3) 0.8035(4) 0.43745(18)
N3A N 0.0550(3) 0.6264(5) 0.61909(18)
N4A N 0.0156(4) 0.4454(6) 0.61050(18)
C1A C 0.3596(5) 0.9169(8) 0.61665(18)
H1A H 0.3529 0.8915 0.6364
C2A C 0.2877(6) 0.8753(8) 0.5950(2)
C3A C 0.2884(4) 0.9009(6) 0.56475(19)
H2A H 0.3394 0.9514 0.5576
C4A C 0.2205(4) 0.8583(6) 0.5446(2)
C5A C 0.1457(4) 0.7793(6) 0.55496(19)
H3A H 0.0980 0.7484 0.5413
C6A C 0.1405(4) 0.7465(6) 0.5843(2)
C7A C 0.2125(5) 0.7948(8) 0.60471(19)
H4A H 0.2107 0.7735 0.6249
C8A C 0.2228(3) 0.8859(5) 0.51370(18)
H5A H 0.2732 0.9385 0.5075
C9A C 0.0621(4) 0.6658(6) 0.59295(19)
H6A H 0.0142 0.6407 0.5791
C10A C 0.2423(4) 0.6061(6) 0.4336(2)
H7A H 0.1815 0.5651 0.4325
C11A C 0.2723(4) 0.6948(6) 0.4344(2)
C12A C 0.2068(4) 0.7238(6) 0.4356(2)
H8A H 0.1465 0.6809 0.4349
C13A C -0.0299(4) 0.5517(6) 0.62502(18)
H9A H -0.0644 0.5359 0.6055
C14A C -0.0784(5) 0.5716(8) 0.6489(2)
H10A H -0.0860 0.6203 0.6414
H11A H -0.0422 0.5920 0.6677
C15A C -0.1670(5) 0.4959(7) 0.6573(2)
H12A H -0.1923 0.5130 0.6744
H13A H -0.2068 0.4799 0.6394
C16A C -0.1583(5) 0.4191(8) 0.6667(2)
H14A H -0.2175 0.3683 0.6699
H15A H -0.1272 0.4325 0.6866
C17A C -0.1096(6) 0.3933(9) 0.6435(2)
H16A H -0.1456 0.3688 0.6248
H17A H -0.0992 0.3480 0.6526
C18A C -0.0204(4) 0.4750(6) 0.63479(19)
H18A H 0.0193 0.4925 0.6530
C19A C 0.1721(3) 0.8875(5) 0.46440(19)
H19A H 0.2319 0.9399 0.4626
C20A C 0.1050(4) 0.9168(6) 0.4632(2)
H20A H 0.1162 0.9583 0.4802
H21A H 0.0461 0.8655 0.4663
C21A C 0.1069(5) 0.9605(6) 0.4328(3)
H22A H 0.0614 0.9776 0.4328
H23A H 0.1645 1.0138 0.4300
C22A C 0.0903(5) 0.8968(6) 0.4072(2)
H24A H 0.0920 0.9244 0.3873
H25A H 0.0314 0.8450 0.4097
C23A C 0.1596(5) 0.8676(6) 0.4074(2)
H26A H 0.1479 0.8263 0.3903
H27A H 0.2183 0.9192 0.4042
C24A C 0.1581(3) 0.8235(4) 0.43793(19)
H28A H 0.1007 0.7686 0.4405
N1B N 0.1532(4) 0.3172(3) 0.49384(17)
N2B N 0.1965(4) 0.4247(3) 0.43745(18)
N3B N 0.3736(5) 0.4286(4) 0.61909(18)
N4B N 0.5546(6) 0.5702(4) 0.61050(18)
C1B C 0.0831(8) 0.4427(6) 0.61665(18)
H1B H 0.1085 0.4614 0.6364
C2B C 0.1247(8) 0.4124(6) 0.5950(2)
C3B C 0.0991(6) 0.3875(5) 0.56475(19)
H2B H 0.0486 0.3880 0.5576
C4B C 0.1417(6) 0.3622(4) 0.5446(2)
C5B C 0.2207(6) 0.3664(4) 0.55496(19)
H3B H 0.2516 0.3496 0.5413
C6B C 0.2535(6) 0.3940(5) 0.5843(2)
C7B C 0.2052(8) 0.4177(6) 0.60471(19)
H4B H 0.2265 0.4372 0.6249
C8B C 0.1141(5) 0.3369(4) 0.51370(18)
H5B H 0.0615 0.3347 0.5075
C9B C 0.3342(6) 0.3963(5) 0.59295(19)
H6B H 0.3593 0.3735 0.5791
C10B C 0.3939(6) 0.6362(4) 0.4336(2)
H7B H 0.4349 0.6164 0.4325
C11B C 0.3052(6) 0.5775(4) 0.4344(2)
C12B C 0.2762(6) 0.4830(4) 0.4356(2)
H8B H 0.3191 0.4656 0.4349
C13B C 0.4483(6) 0.4184(4) 0.62502(18)
H9B H 0.4641 0.3997 0.6055
C14B C 0.4284(8) 0.3500(6) 0.6489(2)
H10B H 0.3797 0.2937 0.6414
H11B H 0.4080 0.3658 0.6677
C15B C 0.5041(7) 0.3371(5) 0.6573(2)
H12B H 0.4870 0.2947 0.6744
H13B H 0.5201 0.3133 0.6394
C16B C 0.5809(8) 0.4226(6) 0.6667(2)
H14B H 0.6317 0.4142 0.6699
H15B H 0.5675 0.4403 0.6866
C17B C 0.6067(9) 0.4971(7) 0.6435(2)
H16B H 0.6312 0.4856 0.6248
H17B H 0.6520 0.5528 0.6526
C18B C 0.5250(6) 0.5046(5) 0.63479(19)
H18B H 0.5075 0.5268 0.6530
C19B C 0.1125(5) 0.2846(4) 0.46440(19)
H19B H 0.0601 0.2920 0.4626
C20B C 0.0832(6) 0.1882(4) 0.4632(2)
H20B H 0.0417 0.1579 0.4802
H21B H 0.1345 0.1806 0.4663
C21B C 0.0395(6) 0.1464(4) 0.4328(3)
H22B H 0.0224 0.0838 0.4328
H23B H -0.0138 0.1507 0.4300
C22B C 0.1032(6) 0.1935(4) 0.4072(2)
H24B H 0.0756 0.1676 0.3873
H25B H 0.1550 0.1864 0.4097
C23B C 0.1324(6) 0.2920(4) 0.4074(2)
H26B H 0.1737 0.3216 0.3903
H27B H 0.0808 0.2991 0.4042
C24B C 0.1765(4) 0.3346(3) 0.43793(19)
H28B H 0.2314 0.3321 0.4405
N5 N 0.4464(3) 0.4107(3) 0.37692(18)
N6 N 0.6129(3) 0.5769(4) 0.38427(17)
N7 N 0.8708(4) 0.6931(5) 0.4993(2)
N8 N 0.7846(5) 0.5765(5) 0.5511(2)
C25 C 0.8899(4) 0.6034(4) 0.4107(2)
C26 C 0.8221(4) 0.5837(5) 0.3901(2)
H29 H 0.8233 0.5626 0.3701
C27 C 0.7523(4) 0.5950(4) 0.39879(19)
C28 C 0.7527(4) 0.6267(5) 0.4274(2)
H30 H 0.7046 0.6327 0.4337
C29 C 0.8240(5) 0.6510(5) 0.4482(2)
C30 C 0.8905(4) 0.6350(5) 0.4387(2)
H31 H 0.9370 0.6468 0.4524
C31 C 0.6783(3) 0.5708(4) 0.37669(19)
H32 H 0.6810 0.5507 0.3567
C32 C 0.8192(4) 0.6800(5) 0.4783(2)
H33 H 0.7723 0.6902 0.4824
C33 C 0.7550(6) 0.3569(6) 0.5551(2)
H34 H 0.8148 0.3728 0.5559
C34 C 0.7305(6) 0.4201(5) 0.5544(2)
C35 C 0.7993(5) 0.5146(5) 0.5542(2)
H35 H 0.8583 0.5286 0.5567
C36 C 0.8588(4) 0.7235(4) 0.5297(2)
H36 H 0.8014 0.7216 0.5298
C37 C 0.9282(6) 0.8131(5) 0.5359(3)
H37 H 0.9254 0.8516 0.5199
H38 H 0.9851 0.8156 0.5335
C38 C 0.9270(6) 0.8502(7) 0.5666(3)
H39 H 0.8755 0.8580 0.5683
H40 H 0.9803 0.9079 0.5693
C39 C 0.9232(7) 0.7868(9) 0.5915(3)
H41 H 0.9803 0.7892 0.5926
H42 H 0.9121 0.8052 0.6117
C40 C 0.8524(7) 0.6941(9) 0.5850(3)
H43 H 0.8565 0.6547 0.6003
H44 H 0.7947 0.6898 0.5875
C41 C 0.8584(4) 0.6650(5) 0.5540(2)
H45 H 0.9136 0.6627 0.5525
C42 C 0.4145(4) 0.3742(4) 0.4018(2)
H46 H 0.4005 0.4056 0.4162
C43 C 0.4570(4) 0.4990(4) 0.37169(19)
H47 H 0.4461 0.5222 0.3911
C44 C 0.3893(7) 0.4879(7) 0.3466(2)
H48 H 0.3964 0.4584 0.3285
H49 H 0.3295 0.4508 0.3547
C45 C 0.4022(5) 0.5783(6) 0.3370(2)
H50 H 0.3608 0.5703 0.3203
H51 H 0.3892 0.6051 0.3547
C46 C 0.4927(5) 0.6375(6) 0.3264(2)
H52 H 0.5041 0.6130 0.3077
H53 H 0.4995 0.6950 0.3210
C47 C 0.5564(5) 0.6488(5) 0.3504(2)
H54 H 0.5465 0.6759 0.3688
H55 H 0.6162 0.6888 0.3429
C48 C 0.5486(4) 0.5612(4) 0.35956(17)
H56 H 0.5608 0.5346 0.3413
N5A N 0.5893(3) 0.0357(4) 0.37692(18)
N6A N 0.4231(4) 0.0360(5) 0.38427(17)
N7A N 0.3069(5) 0.1777(6) 0.4993(2)
N8A N 0.4235(5) 0.2081(7) 0.5511(2)
C25A C 0.3966(4) 0.2865(6) 0.4107(2)
C26A C 0.4163(5) 0.2384(6) 0.3901(2)
H29A H 0.4374 0.2607 0.3701
C27A C 0.4050(4) 0.1573(6) 0.39879(19)
C28A C 0.3733(5) 0.1260(6) 0.4274(2)
H30A H 0.3673 0.0719 0.4337
C29A C 0.3490(5) 0.1730(7) 0.4482(2)
C30A C 0.3650(5) 0.2555(6) 0.4387(2)
H31A H 0.3532 0.2902 0.4524
C31A C 0.4292(4) 0.1075(5) 0.37669(19)
H32A H 0.4493 0.1303 0.3567
C32A C 0.3200(5) 0.1392(6) 0.4783(2)
H33A H 0.3098 0.0821 0.4824
C33A C 0.6431(6) 0.3981(8) 0.5551(2)
H34A H 0.6272 0.4420 0.5559
C34A C 0.5799(5) 0.3104(8) 0.5544(2)
C35A C 0.4854(5) 0.2847(7) 0.5542(2)
H35A H 0.4714 0.3297 0.5567
C36A C 0.2765(4) 0.1353(6) 0.5297(2)
H36A H 0.2784 0.0798 0.5298
C37A C 0.1869(5) 0.1151(8) 0.5359(3)
H37A H 0.1484 0.0738 0.5199
H38A H 0.1844 0.1695 0.5335
C38A C 0.1498(7) 0.0768(9) 0.5666(3)
H39A H 0.1420 0.0175 0.5683
H40A H 0.0921 0.0724 0.5693
C39A C 0.2132(9) 0.1364(11) 0.5915(3)
H41A H 0.2108 0.1911 0.5926
H42A H 0.1948 0.1069 0.6117
C40A C 0.3059(9) 0.1583(11) 0.5850(3)
H43A H 0.3453 0.2018 0.6003
H44A H 0.3102 0.1049 0.5875
C41A C 0.3350(5) 0.1934(6) 0.5540(2)
H45A H 0.3373 0.2509 0.5525
C42A C 0.6258(4) 0.0403(6) 0.4018(2)
H46A H 0.5944 -0.0051 0.4162
C43A C 0.5010(4) -0.0420(6) 0.37169(19)
H47A H 0.4778 -0.0761 0.3911
C44A C 0.5121(7) -0.0986(10) 0.3466(2)
H48A H 0.5416 -0.0620 0.3285
H49A H 0.5492 -0.1213 0.3547
C45A C 0.4217(6) -0.1761(8) 0.3370(2)
H50A H 0.4297 -0.2095 0.3203
H51A H 0.3949 -0.2159 0.3547
C46A C 0.3625(6) -0.1448(8) 0.3264(2)
H52A H 0.3870 -0.1089 0.3077
H53A H 0.3050 -0.1955 0.3210
C47A C 0.3512(5) -0.0924(7) 0.3504(2)
H54A H 0.3241 -0.1294 0.3688
H55A H 0.3112 -0.0726 0.3429
C48A C 0.4388(4) -0.0126(6) 0.35956(17)
H56A H 0.4654 0.0262 0.3413
N5B N 0.9643(4) 0.5536(3) 0.37692(18)
N6B N 0.9640(5) 0.3871(3) 0.38427(17)
N7B N 0.8223(6) 0.1292(4) 0.4993(2)
N8B N 0.7919(7) 0.2154(5) 0.5511(2)
C25B C 0.7135(6) 0.1101(4) 0.4107(2)
C26B C 0.7616(6) 0.1779(4) 0.3901(2)
H29B H 0.7393 0.1767 0.3701
C27B C 0.8427(6) 0.2477(4) 0.39879(19)
C28B C 0.8740(6) 0.2473(4) 0.4274(2)
H30B H 0.9281 0.2954 0.4337
C29B C 0.8270(7) 0.1760(5) 0.4482(2)
C30B C 0.7445(6) 0.1095(4) 0.4387(2)
H31B H 0.7098 0.0630 0.4524
C31B C 0.8925(5) 0.3217(3) 0.37669(19)
H32B H 0.8697 0.3190 0.3567
C32B C 0.8608(6) 0.1808(4) 0.4783(2)
H33B H 0.9179 0.2277 0.4824
C33B C 0.6019(8) 0.2450(6) 0.5551(2)
H34B H 0.5580 0.1852 0.5559
C34B C 0.6896(8) 0.2695(6) 0.5544(2)
C35B C 0.7153(7) 0.2007(5) 0.5542(2)
H35B H 0.6703 0.1417 0.5567
C36B C 0.8647(6) 0.1412(4) 0.5297(2)
H36B H 0.9202 0.1986 0.5298
C37B C 0.8849(8) 0.0718(6) 0.5359(3)
H37B H 0.9262 0.0746 0.5199
H38B H 0.8305 0.0149 0.5335
C38B C 0.9232(9) 0.0730(6) 0.5666(3)
H39B H 0.9825 0.1245 0.5683
H40B H 0.9276 0.0197 0.5693
C39B C 0.8636(11) 0.0768(7) 0.5915(3)
H41B H 0.8089 0.0197 0.5926
H42B H 0.8931 0.0879 0.6117
C40B C 0.8417(11) 0.1476(7) 0.5850(3)
H43B H 0.7982 0.1435 0.6003
H44B H 0.8951 0.2053 0.5875
C41B C 0.8066(6) 0.1416(4) 0.5540(2)
H45B H 0.7491 0.0864 0.5525
C42B C 0.9597(6) 0.5855(4) 0.4018(2)
H46B H 1.0051 0.5995 0.4162
C43B C 1.0420(6) 0.5430(4) 0.37169(19)
H47B H 1.0761 0.5539 0.3911
C44B C 1.0986(10) 0.6107(7) 0.3466(2)
H48B H 1.0620 0.6036 0.3285
H49B H 1.1213 0.6705 0.3547
C45B C 1.1761(8) 0.5978(5) 0.3370(2)
H50B H 1.2095 0.6392 0.3203
H51B H 1.2159 0.6108 0.3547
C46B C 1.1448(8) 0.5073(5) 0.3264(2)
H52B H 1.1089 0.4959 0.3077
H53B H 1.1955 0.5005 0.3210
C47B C 1.0924(7) 0.4436(5) 0.3504(2)
H54B H 1.1294 0.4535 0.3688
H55B H 1.0726 0.3838 0.3429
C48B C 1.0126(6) 0.4514(4) 0.35956(17)
H56B H 0.9738 0.4392 0.3413
O1 O 0.6991(5) 0.5070(5) 0.4854(3)
H57 H 0.7241 0.5320 0.4690
C49 C 0.5429(4) 0.4573(5) 0.4881(3)
C50 C 0.4590(5) 0.3867(4) 0.4917(3)
H58 H 0.4489 0.3288 0.4898
C51 C 0.3900(4) 0.4007(4) 0.4982(3)
H59 H 0.3327 0.3524 0.5007
C52 C 0.4048(4) 0.4853(5) 0.5011(2)
H60 H 0.3577 0.4949 0.5056
C53 C 0.4887(5) 0.5560(4) 0.4975(3)
H61 H 0.4988 0.6138 0.4994
C54 C 0.5577(4) 0.5420(4) 0.4909(3)
H62 H 0.6150 0.5903 0.4884
C55 C 0.6137(6) 0.4366(7) 0.4787(3)
H63 H 0.6044 0.3834 0.4900
C56 C 0.6055(8) 0.4185(8) 0.4460(4)
H64 H 0.5925 0.4596 0.4354
H65 H 0.5582 0.3586 0.4423
H66 H 0.6605 0.4251 0.4381
O2? O 0.4047(12) 0.5387(11) 0.5565(3)
H67? H 0.3964 0.5696 0.5692
C57? C 0.4605(7) 0.5361(9) 0.5080(2)
C58? C 0.4748(10) 0.4667(10) 0.5132(3)
H68? H 0.4521 0.4318 0.5311
C59? C 0.5224(11) 0.4482(9) 0.4921(4)
H69? H 0.5322 0.4008 0.4956
C60? C 0.5557(10) 0.4992(9) 0.4659(3)
H70? H 0.5882 0.4866 0.4515
C61? C 0.5413(11) 0.5686(10) 0.4607(3)
H71? H 0.5641 0.6034 0.4428
C62? C 0.4937(10) 0.5870(8) 0.4818(3)
H72? H 0.4839 0.6345 0.4783
C63? C 0.4118(10) 0.5734(11) 0.5263(2)
H73? H 0.4438 0.6387 0.5262
C64? C 0.3242(12) 0.5342(15) 0.5090(6)
H74? H 0.2967 0.4704 0.5087
H75? H 0.3345 0.5563 0.4879
H76? H 0.2856 0.5509 0.5195
loop_
_geom_bond_atom_site_label_1
_geom_bond_atom_site_label_2
_geom_bond_site_symmetry_1
_geom_bond_site_symmetry_2
N1 C8 1_555 1_555
N2 C12 1_555 1_555
N3 C9 1_555 1_555
N4 C18 1_555 1_555
C1 H1 1_555 1_555
C2 C1 1_555 1_555
C3 C2 1_555 1_555
H2 C3 1_555 1_555
C4 C3 1_555 1_555
C5 C4 1_555 1_555
H3 C5 1_555 1_555
C6 C5 1_555 1_555
C7 C2 1_555 1_555
H4 C7 1_555 1_555
C8 C4 1_555 1_555
H5 C8 1_555 1_555
C9 C6 1_555 1_555
H6 C9 1_555 1_555
C10 H7 1_555 1_555
C11 C10 1_555 1_555
C12 C11 1_555 1_555
H8 C12 1_555 1_555
C13 N3 1_555 1_555
H9 C13 1_555 1_555
C14 C13 1_555 1_555
H10 C14 1_555 1_555
H11 C14 1_555 1_555
C15 C14 1_555 1_555
H12 C15 1_555 1_555
H13 C15 1_555 1_555
C16 C15 1_555 1_555
H14 C16 1_555 1_555
H15 C16 1_555 1_555
C17 C16 1_555 1_555
H16 C17 1_555 1_555
H17 C17 1_555 1_555
C18 C13 1_555 1_555
H18 C18 1_555 1_555
C19 N1 1_555 1_555
H19 C19 1_555 1_555
C20 C19 1_555 1_555
H20 C20 1_555 1_555
H21 C20 1_555 1_555
C21 C20 1_555 1_555
H22 C21 1_555 1_555
H23 C21 1_555 1_555
C22 C21 1_555 1_555
H24 C22 1_555 1_555
H25 C22 1_555 1_555
C23 C22 1_555 1_555
H26 C23 1_555 1_555
H27 C23 1_555 1_555
C24 N2 1_555 1_555
H28 C24 1_555 1_555
N5 C42 1_555 1_555
N6 C31 1_555 1_555
N7 C32 1_555 1_555
N8 C35 1_555 1_555
C25 C26 1_555 1_555
C26 H29 1_555 1_555
C27 C26 1_555 1_555
C28 C27 1_555 1_555
H30 C28 1_555 1_555
C29 C28 1_555 1_555
C30 C25 1_555 1_555
H31 C30 1_555 1_555
C31 C27 1_555 1_555
H32 C31 1_555 1_555
C32 C29 1_555 1_555
H33 C32 1_555 1_555
C33 H34 1_555 1_555
C34 C33 1_555 1_555
C35 C34 1_555 1_555
H35 C35 1_555 1_555
C36 N7 1_555 1_555
H36 C36 1_555 1_555
C37 C36 1_555 1_555
H37 C37 1_555 1_555
H38 C37 1_555 1_555
C38 C37 1_555 1_555
H39 C38 1_555 1_555
H40 C38 1_555 1_555
C39 C38 1_555 1_555
H41 C39 1_555 1_555
H42 C39 1_555 1_555
C40 C39 1_555 1_555
H43 C40 1_555 1_555
H44 C40 1_555 1_555
C41 N8 1_555 1_555
H45 C41 1_555 1_555
C42 H46 1_555 1_555
C43 N5 1_555 1_555
H47 C43 1_555 1_555
C44 C43 1_555 1_555
H48 C44 1_555 1_555
H49 C44 1_555 1_555
C45 C44 1_555 1_555
H50 C45 1_555 1_555
H51 C45 1_555 1_555
C46 C45 1_555 1_555
H52 C46 1_555 1_555
H53 C46 1_555 1_555
C47 C46 1_555 1_555
H54 C47 1_555 1_555
H55 C47 1_555 1_555
C48 N6 1_555 1_555
H56 C48 1_555 1_555
O1 H57 1_555 1_555
C49 C50 1_555 1_555
C50 H58 1_555 1_555
C51 C50 1_555 1_555
H59 C51 1_555 1_555
C52 C51 1_555 1_555
H60 C52 1_555 1_555
C53 C52 1_555 1_555
H61 C53 1_555 1_555
C54 C49 1_555 1_555
H62 C54 1_555 1_555
C55 O1 1_555 1_555
H63 C55 1_555 1_555
C56 C55 1_555 1_555
H64 C56 1_555 1_555
H65 C56 1_555 1_555
H66 C56 1_555 1_555
N1A C8A 1_555 1_555
N2A C12A 1_555 1_555
N3A C9A 1_555 1_555
N4A C18A 1_555 1_555
C1A N4 1_555 1_555
H1A C1A 1_555 1_555
C2A C1A 1_555 1_555
C3A C2A 1_555 1_555
H2A C3A 1_555 1_555
C4A C3A 1_555 1_555
C5A C4A 1_555 1_555
H3A C5A 1_555 1_555
C6A C5A 1_555 1_555
C7A C2A 1_555 1_555
H4A C7A 1_555 1_555
C8A C4A 1_555 1_555
H5A C8A 1_555 1_555
C9A C6A 1_555 1_555
H6A C9A 1_555 1_555
C10A H7A 1_555 1_555
C11A C10 1_555 1_555
C12A C11A 1_555 1_555
H8A C12A 1_555 1_555
C13A N3A 1_555 1_555
H9A C13A 1_555 1_555
C14A C13A 1_555 1_555
H10A C14A 1_555 1_555
H11A C14A 1_555 1_555
C15A C14A 1_555 1_555
H12A C15A 1_555 1_555
H13A C15A 1_555 1_555
C16A C15A 1_555 1_555
H14A C16A 1_555 1_555
H15A C16A 1_555 1_555
C17A C16A 1_555 1_555
H16A C17A 1_555 1_555
H17A C17A 1_555 1_555
C18A C13A 1_555 1_555
H18A C18A 1_555 1_555
C19A N1A 1_555 1_555
H19A C19A 1_555 1_555
C20A C19A 1_555 1_555
H20A C20A 1_555 1_555
H21A C20A 1_555 1_555
C21A C20A 1_555 1_555
H22A C21A 1_555 1_555
H23A C21A 1_555 1_555
C22A C21A 1_555 1_555
H24A C22A 1_555 1_555
H25A C22A 1_555 1_555
C23A C22A 1_555 1_555
H26A C23A 1_555 1_555
H27A C23A 1_555 1_555
C24A N2A 1_555 1_555
H28A C24A 1_555 1_555
N1B C8B 1_555 1_555
N2B C12B 1_555 1_555
N3B C9B 1_555 1_555
N4B C1 1_555 1_555
C1B N4A 1_555 1_555
H1B C1B 1_555 1_555
C2B C1B 1_555 1_555
C3B C2B 1_555 1_555
H2B C3B 1_555 1_555
C4B C3B 1_555 1_555
C5B C4B 1_555 1_555
H3B C5B 1_555 1_555
C6B C5B 1_555 1_555
C7B C2B 1_555 1_555
H4B C7B 1_555 1_555
C8B C4B 1_555 1_555
H5B C8B 1_555 1_555
C9B C6B 1_555 1_555
H6B C9B 1_555 1_555
C10B C11 1_555 1_555
H7B C10B 1_555 1_555
C11B C10A 1_555 1_555
C12B C11B 1_555 1_555
H8B C12B 1_555 1_555
C13B N3B 1_555 1_555
H9B C13B 1_555 1_555
C14B C13B 1_555 1_555
H10B C14B 1_555 1_555
H11B C14B 1_555 1_555
C15B C14B 1_555 1_555
H12B C15B 1_555 1_555
H13B C15B 1_555 1_555
C16B C15B 1_555 1_555
H14B C16B 1_555 1_555
H15B C16B 1_555 1_555
C17B C16B 1_555 1_555
H16B C17B 1_555 1_555
H17B C17B 1_555 1_555
C18B N4B 1_555 1_555
H18B C18B 1_555 1_555
C19B N1B 1_555 1_555
H19B C19B 1_555 1_555
C20B C19B 1_555 1_555
H20B C20B 1_555 1_555
H21B C20B 1_555 1_555
C21B C20B 1_555 1_555
H22B C21B 1_555 1_555
H23B C21B 1_555 1_555
C22B C21B 1_555 1_555
H24B C22B 1_555 1_555
H25B C22B 1_555 1_555
C23B C22B 1_555 1_555
H26B C23B 1_555 1_555
H27B C23B 1_555 1_555
C24B N2B 1_555 1_555
H28B C24B 1_555 1_555
N5A C42A 1_555 1_555
N6A C31A 1_555 1_555
N7A C32A 1_555 1_555
N8A C35A 1_555 1_555
C25A C42 1_555 1_555
C26A C25A 1_555 1_555
H29A C26A 1_555 1_555
C27A C26A 1_555 1_555
C28A C27A 1_555 1_555
H30A C28A 1_555 1_555
C29A C28A 1_555 1_555
C30A C25A 1_555 1_555
H31A C30A 1_555 1_555
C31A C27A 1_555 1_555
H32A C31A 1_555 1_555
C32A C29A 1_555 1_555
H33A C32A 1_555 1_555
C33A C34 1_555 1_555
H34A C33A 1_555 1_555
C34A C33A 1_555 1_555
C35A C34A 1_555 1_555
H35A C35A 1_555 1_555
C36A N7A 1_555 1_555
H36A C36A 1_555 1_555
C37A C36A 1_555 1_555
H37A C37A 1_555 1_555
H38A C37A 1_555 1_555
C38A C37A 1_555 1_555
H39A C38A 1_555 1_555
H40A C38A 1_555 1_555
C39A C38A 1_555 1_555
H41A C39A 1_555 1_555
H42A C39A 1_555 1_555
C40A C39A 1_555 1_555
H43A C40A 1_555 1_555
H44A C40A 1_555 1_555
C41A N8A 1_555 1_555
H45A C41A 1_555 1_555
C42A H46A 1_555 1_555
C43A N5A 1_555 1_555
H47A C43A 1_555 1_555
C44A C43A 1_555 1_555
H48A C44A 1_555 1_555
H49A C44A 1_555 1_555
C45A C44A 1_555 1_555
H50A C45A 1_555 1_555
H51A C45A 1_555 1_555
C46A C45A 1_555 1_555
H52A C46A 1_555 1_555
H53A C46A 1_555 1_555
C47A C46A 1_555 1_555
H54A C47A 1_555 1_555
H55A C47A 1_555 1_555
C48A N6A 1_555 1_555
H56A C48A 1_555 1_555
N5B C42B 1_555 1_555
N6B C31B 1_555 1_555
N7B C32B 1_555 1_555
N8B C35B 1_555 1_555
C25B C42A 1_555 1_555
C26B C25B 1_555 1_555
H29B C26B 1_555 1_555
C27B C26B 1_555 1_555
C28B C27B 1_555 1_555
H30B C28B 1_555 1_555
C29B C28B 1_555 1_555
C30B C25B 1_555 1_555
H31B C30B 1_555 1_555
C31B C27B 1_555 1_555
H32B C31B 1_555 1_555
C32B C29B 1_555 1_555
H33B C32B 1_555 1_555
C33B C34A 1_555 1_555
H34B C33B 1_555 1_555
C34B C33 1_555 1_555
C35B C34B 1_555 1_555
H35B C35B 1_555 1_555
C36B N7B 1_555 1_555
H36B C36B 1_555 1_555
C37B C36B 1_555 1_555
H37B C37B 1_555 1_555
H38B C37B 1_555 1_555
C38B C37B 1_555 1_555
H39B C38B 1_555 1_555
H40B C38B 1_555 1_555
C39B C38B 1_555 1_555
H41B C39B 1_555 1_555
H42B C39B 1_555 1_555
C40B C39B 1_555 1_555
H43B C40B 1_555 1_555
H44B C40B 1_555 1_555
C41B N8B 1_555 1_555
H45B C41B 1_555 1_555
C42B C25 1_555 1_555
H46B C42B 1_555 1_555
C43B N5B 1_555 1_555
H47B C43B 1_555 1_555
C44B C43B 1_555 1_555
H48B C44B 1_555 1_555
H49B C44B 1_555 1_555
C45B C44B 1_555 1_555
H50B C45B 1_555 1_555
H51B C45B 1_555 1_555
C46B C45B 1_555 1_555
H52B C46B 1_555 1_555
H53B C46B 1_555 1_555
C47B C46B 1_555 1_555
H54B C47B 1_555 1_555
H55B C47B 1_555 1_555
C48B N6B 1_555 1_555
H56B C48B 1_555 1_555
C6 C7 1_555 1_555
C17 C18 1_555 1_555
C19 C24 1_555 1_555
C23 C24 1_555 1_555
C29 C30 1_555 1_555
C36 C41 1_555 1_555
C40 C41 1_555 1_555
C43 C48 1_555 1_555
C47 C48 1_555 1_555
C49 C55 1_555 1_555
C53 C54 1_555 1_555
C6A C7A 1_555 1_555
C10A C11A 1_555 1_555
C17A C18A 1_555 1_555
C19A C24A 1_555 1_555
C23A C24A 1_555 1_555
C6B C7B 1_555 1_555
C10B C11B 1_555 1_555
C13B C18B 1_555 1_555
C17B C18B 1_555 1_555
C19B C24B 1_555 1_555
C23B C24B 1_555 1_555
C29A C30A 1_555 1_555
C36A C41A 1_555 1_555
C40A C41A 1_555 1_555
C43A C48A 1_555 1_555
C47A C48A 1_555 1_555
C29B C30B 1_555 1_555
C33B C34B 1_555 1_555
C36B C41B 1_555 1_555
C40B C41B 1_555 1_555
C43B C48B 1_555 1_555
C47B C48B 1_555 1_555

#END
