
#######################################################################
#
#                 Cambridge Crystallographic Data Centre
#                                CCDC 
#
#######################################################################
#
# If this CIF has been generated from an entry in the Cambridge 
# Structural Database, then it will include bibliographic, chemical, 
# crystal, experimental, refinement or atomic coordinate data resulting 
# from the CCDC's data processing and validation procedures.
#
#######################################################################

data_HEJBEF
_chemical_formula_moiety         'C22 H32 O1,C1 H4 O1'
_chemical_name_systematic        
'4,4,6a,7,11b-Pentamethyl-2,3,4,4a,5,6,6a,11,11a,11b-decahydro-1H-benzo[a]fluoren-9-ol methanol solvate'
_symmetry_cell_setting           monoclinic
_symmetry_space_group_name_H-M   'C 2'
_symmetry_Int_Tables_number      5
_space_group_name_Hall           'C 2y'
loop_
_symmetry_equiv_pos_site_id
_symmetry_equiv_pos_as_xyz
1 x,y,z
2 -x,y,-z
3 1/2+x,1/2+y,z
4 1/2-x,1/2+y,-z
_cell_length_a                   13.7051(16)
_cell_length_b                   6.1960(8)
_cell_length_c                   24.458(4)
_cell_angle_alpha                90
_cell_angle_beta                 105.166(5)
_cell_angle_gamma                90
_cell_volume                     2004.56
_exptl_crystal_colour            colorless
_exptl_crystal_description       plate
_cell_formula_units_Z            4
loop_
_atom_site_label
_atom_site_type_symbol
_atom_site_fract_x
_atom_site_fract_y
_atom_site_fract_z
C1 C 0.05833(11) 1.0395(3) 0.86475(6)
H1 H -0.0104 1.1019 0.8523
H2 H 0.0514 0.8806 0.8657
C2 C 0.10913(13) 1.1200(3) 0.92430(7)
H3 H 0.1094 1.2798 0.9245
H4 H 0.0700 1.0704 0.9507
C3 C 0.21691(13) 1.0378(3) 0.94435(7)
H5 H 0.2152 0.8788 0.9481
H6 H 0.2479 1.0980 0.9824
C4 C 0.28469(12) 1.0949(3) 0.90504(6)
C5 C 0.22866(11) 1.0183(2) 0.84465(6)
H7 H 0.2216 0.8589 0.8488
C6 C 0.28873(11) 1.0403(3) 0.80008(6)
H8 H 0.2919 1.1946 0.7902
H9 H 0.3588 0.9897 0.8166
C7 C 0.24239(10) 0.9119(2) 0.74610(6)
H10 H 0.2452 0.7559 0.7551
H11 H 0.2823 0.9368 0.7183
C8 C 0.13251(10) 0.9785(2) 0.72003(6)
C9 C 0.07580(10) 0.9649(2) 0.76735(6)
H12 H 0.0866 0.8123 0.7809
C10 C 0.11767(11) 1.0993(2) 0.82136(6)
C11 C -0.03634(11) 0.9720(3) 0.73526(6)
H13 H -0.0793 0.9029 0.7571
H14 H -0.0598 1.1217 0.7256
C12 C 0.31144(14) 1.3356(3) 0.90953(8)
H15 H 0.3561 1.3661 0.9471
H16 H 0.2494 1.4211 0.9039
H17 H 0.3459 1.3736 0.8804
C13 C 0.38332(13) 0.9674(3) 0.92612(8)
H18 H 0.4327 1.0175 0.9063
H19 H 0.3700 0.8134 0.9185
H20 H 0.4103 0.9899 0.9670
C14 C 0.10586(12) 1.3436(2) 0.80981(7)
H21 H 0.1631 1.3964 0.7966
H22 H 0.1041 1.4190 0.8448
H23 H 0.0428 1.3710 0.7807
C15 C -0.03480(10) 0.8430(2) 0.68311(6)
C16 C -0.11524(11) 0.7460(3) 0.64530(6)
H24 H -0.1813 0.7530 0.6508
C17 C -0.09793(11) 0.6385(2) 0.59937(6)
C18 C -0.00106(11) 0.6227(3) 0.59206(6)
H25 H 0.0096 0.5437 0.5608
C19 C 0.08101(10) 0.7215(2) 0.63001(6)
C20 C 0.06303(10) 0.8336(2) 0.67596(6)
C21 C 0.18395(11) 0.7040(3) 0.61912(7)
H26 H 0.2101 0.8489 0.6154
H27 H 0.1787 0.6228 0.5841
H28 H 0.2300 0.6290 0.6508
C22 C 0.12877(12) 1.2013(2) 0.69099(6)
H29 H 0.1463 1.1846 0.6548
H30 H 0.1772 1.2990 0.7156
H31 H 0.0605 1.2615 0.6841
O1 O -0.18066(8) 0.5547(2) 0.56043(5)
H36 H -0.1635(15) 0.469(4) 0.5367(9)
C23 C -0.10178(14) 1.0864(3) 0.52798(8)
H32 H -0.0326 1.1193 0.5499
H33 H -0.1016 0.9548 0.5058
H34 H -0.1447 1.0649 0.5539
O2 O -0.14020(9) 1.26164(19) 0.49069(5)
H35 H -0.1943(16) 1.218(4) 0.4694(9)
loop_
_geom_bond_atom_site_label_1
_geom_bond_atom_site_label_2
_geom_bond_site_symmetry_1
_geom_bond_site_symmetry_2
C1 H1 1_555 1_555
H2 C1 1_555 1_555
C2 C1 1_555 1_555
H3 C2 1_555 1_555
H4 C2 1_555 1_555
C3 C2 1_555 1_555
H5 C3 1_555 1_555
H6 C3 1_555 1_555
C4 C3 1_555 1_555
C5 C4 1_555 1_555
H7 C5 1_555 1_555
C6 C5 1_555 1_555
H8 C6 1_555 1_555
H9 C6 1_555 1_555
C7 C6 1_555 1_555
H10 C7 1_555 1_555
H11 C7 1_555 1_555
C8 C7 1_555 1_555
C9 C8 1_555 1_555
H12 C9 1_555 1_555
C10 C1 1_555 1_555
C11 C9 1_555 1_555
H13 C11 1_555 1_555
H14 C11 1_555 1_555
C12 C4 1_555 1_555
H15 C12 1_555 1_555
H16 C12 1_555 1_555
H17 C12 1_555 1_555
C13 C4 1_555 1_555
H18 C13 1_555 1_555
H19 C13 1_555 1_555
H20 C13 1_555 1_555
C14 C10 1_555 1_555
H21 C14 1_555 1_555
H22 C14 1_555 1_555
H23 C14 1_555 1_555
C15 C11 1_555 1_555
C16 C15 1_555 1_555
H24 C16 1_555 1_555
C17 C16 1_555 1_555
C18 C17 1_555 1_555
H25 C18 1_555 1_555
C19 C18 1_555 1_555
C20 C8 1_555 1_555
C21 C19 1_555 1_555
H26 C21 1_555 1_555
H27 C21 1_555 1_555
H28 C21 1_555 1_555
C22 C8 1_555 1_555
H29 C22 1_555 1_555
H30 C22 1_555 1_555
H31 C22 1_555 1_555
C23 H32 1_555 1_555
H33 C23 1_555 1_555
H34 C23 1_555 1_555
O1 C17 1_555 1_555
O2 C23 1_555 1_555
H35 O2 1_555 1_555
H36 O1 1_555 1_555
C5 C10 1_555 1_555
C9 C10 1_555 1_555
C15 C20 1_555 1_555
C19 C20 1_555 1_555

#END
