
#######################################################################
#
#                 Cambridge Crystallographic Data Centre
#                                CCDC 
#
#######################################################################
#
# If this CIF has been generated from an entry in the Cambridge 
# Structural Database, then it will include bibliographic, chemical, 
# crystal, experimental, refinement or atomic coordinate data resulting 
# from the CCDC's data processing and validation procedures.
#
#######################################################################

data_HEJBAB
_chemical_formula_moiety         'C23 H34 O3'
_chemical_name_systematic        
7,9-Dimethoxy-4,4,6a,11b-tetramethyl-2,3,4,4a,5,6,6a,11,11a,11b-decahydro-1H-benzo[a]fluoren-3-ol
_symmetry_cell_setting           orthorhombic
_symmetry_space_group_name_H-M   'P 21 21 21'
_symmetry_Int_Tables_number      19
_space_group_name_Hall           'P 2ac 2ab'
loop_
_symmetry_equiv_pos_site_id
_symmetry_equiv_pos_as_xyz
1 x,y,z
2 1/2+x,1/2-y,-z
3 -x,1/2+y,1/2-z
4 1/2-x,-y,1/2+z
_cell_length_a                   7.0806(4)
_cell_length_b                   10.9082(7)
_cell_length_c                   25.4045(16)
_cell_angle_alpha                90
_cell_angle_beta                 90
_cell_angle_gamma                90
_cell_volume                     1962.16
_exptl_crystal_colour            colorless
_exptl_crystal_description       irregular
_cell_formula_units_Z            4
loop_
_atom_site_label
_atom_site_type_symbol
_atom_site_fract_x
_atom_site_fract_y
_atom_site_fract_z
C1 C 0.67735(19) 0.35639(13) -0.03859(5)
H1 H 0.8026 0.3516 -0.0214
H2 H 0.6066 0.2810 -0.0295
C2 C 0.7045(2) 0.36204(14) -0.09840(5)
H3 H 0.7874 0.4322 -0.1072
H4 H 0.7677 0.2861 -0.1105
C3 C 0.5178(2) 0.37608(14) -0.12695(5)
H5 H 0.4390 0.3025 -0.1188
C4 C 0.40532(19) 0.49076(13) -0.11032(5)
C5 C 0.38279(18) 0.48200(13) -0.04927(5)
H6 H 0.3153 0.4026 -0.0435
C6 C 0.25136(18) 0.57867(14) -0.02503(5)
H7 H 0.1353 0.5847 -0.0466
H8 H 0.3150 0.6595 -0.0259
C7 C 0.19618(18) 0.54856(13) 0.03222(5)
H9 H 0.1157 0.6149 0.0465
H10 H 0.1226 0.4714 0.0331
C8 C 0.37347(18) 0.53477(13) 0.06655(5)
C9 C 0.50367(17) 0.43915(12) 0.03933(5)
H11 H 0.4208 0.3657 0.0349
C10 C 0.57014(18) 0.46835(12) -0.01711(5)
C11 C 0.64355(18) 0.40065(14) 0.08251(5)
H12 H 0.6972 0.3183 0.0758
H13 H 0.7473 0.4608 0.0866
C12 C 0.2092(2) 0.48276(15) -0.13618(5)
H14 H 0.1407 0.5596 -0.1303
H15 H 0.1382 0.4147 -0.1206
H16 H 0.2237 0.4689 -0.1741
C13 C 0.4995(2) 0.60893(14) -0.12997(5)
H17 H 0.6350 0.6061 -0.1222
H18 H 0.4428 0.6796 -0.1122
H19 H 0.4807 0.6166 -0.1680
C14 C 0.70236(19) 0.58007(14) -0.01914(5)
H20 H 0.7786 0.5830 0.0130
H21 H 0.6270 0.6551 -0.0220
H22 H 0.7858 0.5732 -0.0498
C15 C 0.35432(19) 0.47119(13) 0.11976(5)
C16 C 0.51220(18) 0.40061(13) 0.12983(5)
C17 C 0.5356(2) 0.33626(13) 0.17713(5)
H23 H 0.6459 0.2892 0.1838
C18 C 0.3907(2) 0.34431(13) 0.21382(5)
C19 C 0.23143(19) 0.41676(14) 0.20497(5)
H24 H 0.1351 0.4215 0.2309
C20 C 0.21360(19) 0.48213(13) 0.15818(5)
C21 C 0.4595(2) 0.66160(13) 0.07754(5)
H25 H 0.3788 0.7063 0.1023
H26 H 0.4688 0.7077 0.0445
H27 H 0.5857 0.6516 0.0928
C22 C 0.5405(3) 0.19995(17) 0.27062(6)
H28 H 0.5466 0.1390 0.2423
H29 H 0.5201 0.1584 0.3043
H30 H 0.6595 0.2458 0.2719
C23 C -0.0706(2) 0.57838(15) 0.18731(5)
H31 H -0.1379 0.5016 0.1942
H32 H -0.1607 0.6411 0.1758
H33 H -0.0073 0.6057 0.2195
O1 O 0.38879(15) 0.28216(10) 0.26085(4)
O2 O 0.06715(13) 0.55898(9) 0.14688(3)
O3 O 0.54506(17) 0.38019(11) -0.18291(4)
H34 H 0.613(3) 0.324(2) -0.1912(9)
loop_
_geom_bond_atom_site_label_1
_geom_bond_atom_site_label_2
_geom_bond_site_symmetry_1
_geom_bond_site_symmetry_2
C1 H1 1_555 1_555
H2 C1 1_555 1_555
C2 C1 1_555 1_555
H3 C2 1_555 1_555
H4 C2 1_555 1_555
C3 C2 1_555 1_555
H5 C3 1_555 1_555
C4 C3 1_555 1_555
C5 C4 1_555 1_555
H6 C5 1_555 1_555
C6 C5 1_555 1_555
H7 C6 1_555 1_555
H8 C6 1_555 1_555
C7 C6 1_555 1_555
H9 C7 1_555 1_555
H10 C7 1_555 1_555
C8 C7 1_555 1_555
C9 C8 1_555 1_555
H11 C9 1_555 1_555
C10 C1 1_555 1_555
C11 C9 1_555 1_555
H12 C11 1_555 1_555
H13 C11 1_555 1_555
C12 C4 1_555 1_555
H14 C12 1_555 1_555
H15 C12 1_555 1_555
H16 C12 1_555 1_555
C13 C4 1_555 1_555
H17 C13 1_555 1_555
H18 C13 1_555 1_555
H19 C13 1_555 1_555
C14 C10 1_555 1_555
H20 C14 1_555 1_555
H21 C14 1_555 1_555
H22 C14 1_555 1_555
C15 C8 1_555 1_555
C16 C11 1_555 1_555
C17 C16 1_555 1_555
H23 C17 1_555 1_555
C18 C17 1_555 1_555
C19 C18 1_555 1_555
H24 C19 1_555 1_555
C20 C15 1_555 1_555
C21 C8 1_555 1_555
H25 C21 1_555 1_555
H26 C21 1_555 1_555
H27 C21 1_555 1_555
C22 H28 1_555 1_555
H29 C22 1_555 1_555
H30 C22 1_555 1_555
C23 H31 1_555 1_555
H32 C23 1_555 1_555
H33 C23 1_555 1_555
O1 C18 1_555 1_555
O2 C20 1_555 1_555
O3 C3 1_555 1_555
H34 O3 1_555 1_555
C5 C10 1_555 1_555
C9 C10 1_555 1_555
C15 C16 1_555 1_555
C19 C20 1_555 1_555
C22 O1 1_555 1_555
C23 O2 1_555 1_555

#END
