
#######################################################################
#
#                 Cambridge Crystallographic Data Centre
#                                CCDC 
#
#######################################################################
#
# If this CIF has been generated from an entry in the Cambridge 
# Structural Database, then it will include bibliographic, chemical, 
# crystal, experimental, refinement or atomic coordinate data resulting 
# from the CCDC's data processing and validation procedures.
#
#######################################################################

data_HEJBAC
_chemical_formula_moiety         'C18 H18 N2 O1,0.37(H2 O1)'
_chemical_name_systematic        
'N-(3-cyano-1,2-diphenylpropyl)acetamide hydrate'
_symmetry_cell_setting           monoclinic
_symmetry_space_group_name_H-M   'P 21/c'
_symmetry_Int_Tables_number      14
_space_group_name_Hall           '-P 2ybc'
loop_
_symmetry_equiv_pos_site_id
_symmetry_equiv_pos_as_xyz
1 x,y,z
2 -x,1/2+y,1/2-z
3 -x,-y,-z
4 x,1/2-y,1/2+z
_cell_length_a                   16.4116(5)
_cell_length_b                   5.5613(2)
_cell_length_c                   17.4699(5)
_cell_angle_alpha                90
_cell_angle_beta                 105.341(3)
_cell_angle_gamma                90
_cell_volume                     1537.66
_exptl_crystal_colour            colorless
_exptl_crystal_description       prism
_cell_formula_units_Z            4
loop_
_atom_site_label
_atom_site_type_symbol
_atom_site_fract_x
_atom_site_fract_y
_atom_site_fract_z
O1 O 0.14838(17) 0.4700(8) 0.0525(2)
N1 N 0.17751(12) 0.8685(7) 0.07060(12)
H1 H 0.1685 1.0139 0.0502
N2 N 0.07266(16) 1.2830(7) 0.29815(18)
C1 C 0.4749(4) 0.7564(13) 0.1767(5)
H2 H 0.5188 0.6464 0.1998
C2 C 0.4928(6) 0.9751(15) 0.1401(4)
H3 H 0.5489 1.0079 0.1378
C3 C 0.4295(6) 1.137(2) 0.1084(6)
H4 H 0.4421 1.2788 0.0837
C4 C 0.3462(4) 1.0943(12) 0.1123(3)
H5 H 0.3034 1.2103 0.0923
C5 C 0.3273(5) 0.8860(16) 0.1448(5)
C6 C 0.3883(6) 0.7079(19) 0.1777(6)
H6 H 0.3731 0.5632 0.1993
C7 C 0.2347(4) 0.8394(9) 0.1488(3)
H7 H 0.2310 0.6686 0.1654
C8 C 0.2101(2) 1.0018(8) 0.21044(19)
H8 H 0.2227 1.1716 0.1986
C9 C 0.2613(3) 0.9457(9) 0.2935(3)
C10 C 0.3244(2) 1.0963(10) 0.3343(2)
H9 H 0.3363 1.2393 0.3096
C11 C 0.3711(2) 1.0430(8) 0.4114(2)
H10 H 0.4151 1.1485 0.4379
C12 C 0.3546(3) 0.8395(11) 0.4498(2)
H11 H 0.3849 0.8059 0.5030
C13 C 0.2916(9) 0.684(3) 0.4073(9)
H12 H 0.2796 0.5399 0.4313
C14 C 0.2472(4) 0.7399(13) 0.3309(5)
H13 H 0.2050 0.6312 0.3031
C15 C 0.1141(3) 0.9843(9) 0.20209(19)
H14 H 0.0826 1.0251 0.1471
H15 H 0.0994 0.8174 0.2130
C16 C 0.0899(2) 1.1467(11) 0.2569(2)
C17 C 0.1378(2) 0.6823(11) 0.0283(2)
C18 C 0.07676(13) 0.7446(7) -0.05047(12)
H16 H 0.0841 0.9136 -0.0631
H17 H 0.0187 0.7187 -0.0472
H18 H 0.0879 0.6419 -0.0921
O2 O 0.0891(3) 1.1304(5) -0.04317(18)
O3? O 0.1540(3) 0.3485(6) 0.0626(3)
N3? N 0.1684(3) 0.7527(7) 0.0556(2)
H19? H 0.1516 0.8838 0.0277
N4? N 0.0638(3) 1.3132(12) 0.2595(3)
C19? C 0.4599(9) 0.782(3) 0.1692(10)
H20? H 0.5042 0.6749 0.1937
C20? C 0.4774(12) 0.971(4) 0.1353(10)
H21? H 0.5340 1.0082 0.1354
C21? C 0.4111(10) 1.122(4) 0.0983(11)
H22? H 0.4221 1.2691 0.0754
C22? C 0.3312(8) 1.058(2) 0.0948(5)
H23? H 0.2859 1.1541 0.0653
C23? C 0.3129(9) 0.844(2) 0.1351(8)
C24? C 0.3853(13) 0.734(4) 0.1711(12)
H24? H 0.3797 0.5995 0.2027
C25? C 0.2278(7) 0.7738(12) 0.1355(6)
H25? H 0.2311 0.6137 0.1622
C26? C 0.1960(5) 0.9597(12) 0.1869(3)
H26? H 0.2111 1.1240 0.1718
C27? C 0.2419(5) 0.9173(17) 0.2731(4)
C28? C 0.2992(4) 1.0862(19) 0.3131(5)
H27? H 0.3079 1.2275 0.2857
C29? C 0.3449(4) 1.0574(14) 0.3924(5)
H28? H 0.3836 1.1763 0.4191
C30? C 0.3310(5) 0.845(2) 0.4307(4)
H29? H 0.3627 0.8195 0.4841
C31? C 0.2754(15) 0.678(6) 0.3958(14)
H30? H 0.2671 0.5381 0.4241
C32? C 0.2302(6) 0.7101(17) 0.3180(6)
H31? H 0.1901 0.5918 0.2934
C33? C 0.0992(4) 0.9518(13) 0.1765(3)
H32? H 0.0687 0.9712 0.1198
H33? H 0.0829 0.7956 0.1953
C34? C 0.0768(4) 1.1552(13) 0.2249(3)
C35? C 0.1400(4) 0.5430(14) 0.0256(3)
C36? C 0.0811(2) 0.5401(7) -0.05850(18)
H34? H 0.0899 0.6862 -0.0867
H35? H 0.0223 0.5336 -0.0557
H36? H 0.0934 0.3986 -0.0870
loop_
_geom_bond_atom_site_label_1
_geom_bond_atom_site_label_2
_geom_bond_site_symmetry_1
_geom_bond_site_symmetry_2
O1 C17 1_555 1_555
N1 H1 1_555 1_555
N2 C16 1_555 1_555
C1 H2 1_555 1_555
C2 C1 1_555 1_555
H3 C2 1_555 1_555
C3 C2 1_555 1_555
H4 C3 1_555 1_555
C4 C3 1_555 1_555
H5 C4 1_555 1_555
C5 C4 1_555 1_555
C6 C1 1_555 1_555
H6 C6 1_555 1_555
C7 N1 1_555 1_555
H7 C7 1_555 1_555
C8 C7 1_555 1_555
H8 C8 1_555 1_555
C9 C8 1_555 1_555
C10 C9 1_555 1_555
H9 C10 1_555 1_555
C11 C10 1_555 1_555
H10 C11 1_555 1_555
C12 C11 1_555 1_555
H11 C12 1_555 1_555
C13 C12 1_555 1_555
H12 C13 1_555 1_555
C14 C9 1_555 1_555
H13 C14 1_555 1_555
C15 C8 1_555 1_555
H14 C15 1_555 1_555
H15 C15 1_555 1_555
C16 C15 1_555 1_555
C17 N1 1_555 1_555
C18 C17 1_555 1_555
H16 C18 1_555 1_555
H17 C18 1_555 1_555
H18 C18 1_555 1_555
C5 C6 1_555 1_555
C5 C7 1_555 1_555
C13 C14 1_555 1_555

#END
