
#######################################################################
#
#                 Cambridge Crystallographic Data Centre
#                                CCDC 
#
#######################################################################
#
# If this CIF has been generated from an entry in the Cambridge 
# Structural Database, then it will include bibliographic, chemical, 
# crystal, experimental, refinement or atomic coordinate data resulting 
# from the CCDC's data processing and validation procedures.
#
#######################################################################

data_HEJKIT
_chemical_formula_moiety         'C51 H42 O3'
_chemical_name_systematic        
(4''-methylene-3-(4-methylphenyl)-3'',4''-dihydro-1''H,4'H-dispiro[isochromene-1,3'-naphthalene-1',2''-naphthalene]-1'',4'-diyl)bis((4-methylphenyl)methanone)
_symmetry_cell_setting           monoclinic
_symmetry_space_group_name_H-M   'P 21/c'
_symmetry_Int_Tables_number      14
_space_group_name_Hall           '-P 2ybc'
loop_
_symmetry_equiv_pos_site_id
_symmetry_equiv_pos_as_xyz
1 x,y,z
2 -x,1/2+y,1/2-z
3 -x,-y,-z
4 x,1/2-y,1/2+z
_cell_length_a                   18.9158(17)
_cell_length_b                   11.3002(11)
_cell_length_c                   17.9026(16)
_cell_angle_alpha                90
_cell_angle_beta                 91.4260(10)
_cell_angle_gamma                90
_cell_volume                     3825.54
_exptl_crystal_colour            white
_exptl_crystal_description       block
_cell_formula_units_Z            4
loop_
_atom_site_label
_atom_site_type_symbol
_atom_site_fract_x
_atom_site_fract_y
_atom_site_fract_z
O1 O 0.22676(9) 0.29142(14) 0.18704(9)
O2 O 0.19697(10) 0.75519(16) 0.25176(12)
O3 O 0.44315(10) 0.40087(16) 0.14783(11)
C1 C 0.30385(13) 0.3006(2) 0.19369(14)
C2 C 0.33484(14) 0.1907(2) 0.23115(14)
C3 C 0.39781(15) 0.1925(2) 0.27195(14)
H1 H 0.4234 0.2625 0.2757
C4 C 0.42349(16) 0.0916(3) 0.30741(15)
H2 H 0.4662 0.0939 0.3342
C5 C 0.38558(18) -0.0114(2) 0.30277(15)
H3 H 0.4023 -0.0790 0.3270
C6 C 0.32291(16) -0.0150(2) 0.26240(15)
H4 H 0.2973 -0.0852 0.2596
C7 C 0.29715(15) 0.0856(2) 0.22546(14)
C8 C 0.23105(15) 0.0833(2) 0.18307(14)
H5 H 0.2113 0.0112 0.1685
C9 C 0.19861(14) 0.1832(3) 0.16492(14)
C10 C 0.13017(14) 0.1973(3) 0.12459(15)
C11 C 0.11653(15) 0.2960(2) 0.08128(15)
H6 H 0.1501 0.3559 0.0791
C12 C 0.05329(17) 0.3068(3) 0.04097(16)
H7 H 0.0450 0.3743 0.0123
C13 C 0.00276(17) 0.2199(3) 0.04251(19)
C14 C 0.01685(17) 0.1214(3) 0.08522(18)
H8 H -0.0164 0.0609 0.0867
C15 C 0.07946(16) 0.1102(2) 0.12605(15)
H9 H 0.0874 0.0428 0.1549
C16 C -0.06681(16) 0.2343(3) -0.00132(18)
H10 H -0.0716 0.1719 -0.0375
H11 H -0.0672 0.3094 -0.0265
H12 H -0.1054 0.2309 0.0324
C17 C 0.32887(14) 0.3223(2) 0.11402(14)
H13 H 0.3133 0.2556 0.0828
C18 C 0.29556(14) 0.4351(2) 0.08203(17)
C19 C 0.28883(14) 0.4433(3) 0.00494(17)
H14 H 0.3021 0.3796 -0.0245
C20 C 0.26281(16) 0.5445(3) -0.02868(18)
H15 H 0.2590 0.5494 -0.0805
C21 C 0.24260(16) 0.6378(3) 0.0147(2)
H16 H 0.2248 0.7062 -0.0077
C22 C 0.24867(14) 0.6307(2) 0.09153(18)
H17 H 0.2348 0.6948 0.1202
C23 C 0.27524(14) 0.5290(3) 0.12749(16)
C24 C 0.28411(14) 0.5269(2) 0.21268(15)
C25 C 0.31726(12) 0.40929(18) 0.24092(13)
H18 H 0.3680 0.4205 0.2459
H19 H 0.2999 0.3938 0.2905
C26 C 0.33526(13) 0.62749(19) 0.23672(14)
H20 H 0.3796 0.6176 0.2113
H21 H 0.3151 0.7028 0.2213
C27 C 0.34965(17) 0.6298(2) 0.31918(18)
C28 C 0.29322(19) 0.5900(2) 0.3685(2)
C29 C 0.3032(2) 0.5840(3) 0.4459(2)
H22 H 0.3446 0.6145 0.4674
C30 C 0.2539(3) 0.5347(3) 0.4912(2)
H23 H 0.2624 0.5322 0.5426
C31 C 0.1919(2) 0.4885(3) 0.4615(3)
H24 H 0.1588 0.4535 0.4922
C32 C 0.17986(18) 0.4955(3) 0.3851(2)
H25 H 0.1376 0.4667 0.3646
C33 C 0.22928(19) 0.5445(2) 0.33859(18)
C34 C 0.21324(14) 0.5445(2) 0.25487(16)
H26 H 0.1824 0.4769 0.2433
C35 C 0.17083(16) 0.6583(3) 0.23985(16)
C36 C 0.09524(16) 0.6502(3) 0.21594(15)
C37 C 0.06422(17) 0.5498(3) 0.18757(16)
H27 H 0.0910 0.4813 0.1831
C38 C -0.00709(19) 0.5485(3) 0.16527(16)
H28 H -0.0268 0.4797 0.1454
C39 C -0.04861(19) 0.6475(4) 0.17227(18)
C40 C -0.0174(2) 0.7472(3) 0.20176(19)
H29 H -0.0446 0.8150 0.2078
C41 C 0.05350(18) 0.7496(3) 0.22269(16)
H30 H 0.0733 0.8191 0.2416
C42 C -0.12710(15) 0.6460(3) 0.14838(16)
H31 H -0.1542 0.6869 0.1849
H32 H -0.1432 0.5656 0.1444
H33 H -0.1331 0.6845 0.1008
C43 C 0.41301(17) 0.6624(2) 0.34425(16)
H34 H 0.4236 0.6608 0.3952
H35 H 0.4470 0.6870 0.3109
C44 C 0.40884(15) 0.3374(2) 0.10547(16)
C45 C 0.44355(15) 0.2822(2) 0.04127(15)
C46 C 0.41898(15) 0.1797(2) 0.00676(16)
H36 H 0.3770 0.1450 0.0216
C47 C 0.45736(18) 0.1295(3) -0.04983(17)
H37 H 0.4405 0.0603 -0.0719
C48 C 0.51893(18) 0.1769(3) -0.07478(17)
C49 C 0.54283(15) 0.2804(3) -0.04085(16)
H38 H 0.5841 0.3159 -0.0569
C50 C 0.50596(16) 0.3311(2) 0.01649(16)
H39 H 0.5234 0.3997 0.0390
C51 C 0.55946(16) 0.1195(2) -0.13598(15)
H40 H 0.5392 0.0435 -0.1474
H41 H 0.6079 0.1097 -0.1200
H42 H 0.5572 0.1686 -0.1797
loop_
_geom_bond_atom_site_label_1
_geom_bond_atom_site_label_2
_geom_bond_site_symmetry_1
_geom_bond_site_symmetry_2
O1 C1 1_555 1_555
O2 C35 1_555 1_555
O3 C44 1_555 1_555
C1 C2 1_555 1_555
C2 C3 1_555 1_555
C3 H1 1_555 1_555
C4 C3 1_555 1_555
H2 C4 1_555 1_555
C5 C4 1_555 1_555
H3 C5 1_555 1_555
C6 C5 1_555 1_555
H4 C6 1_555 1_555
C7 C2 1_555 1_555
C8 C7 1_555 1_555
H5 C8 1_555 1_555
C9 O1 1_555 1_555
C10 C9 1_555 1_555
C11 C10 1_555 1_555
H6 C11 1_555 1_555
C12 C11 1_555 1_555
H7 C12 1_555 1_555
C13 C12 1_555 1_555
C14 C13 1_555 1_555
H8 C14 1_555 1_555
C15 C10 1_555 1_555
H9 C15 1_555 1_555
C16 C13 1_555 1_555
H10 C16 1_555 1_555
H11 C16 1_555 1_555
H12 C16 1_555 1_555
C17 C1 1_555 1_555
H13 C17 1_555 1_555
C18 C17 1_555 1_555
C19 C18 1_555 1_555
H14 C19 1_555 1_555
C20 C19 1_555 1_555
H15 C20 1_555 1_555
C21 C20 1_555 1_555
H16 C21 1_555 1_555
C22 C21 1_555 1_555
H17 C22 1_555 1_555
C23 C18 1_555 1_555
C24 C23 1_555 1_555
C25 C1 1_555 1_555
H18 C25 1_555 1_555
H19 C25 1_555 1_555
C26 C24 1_555 1_555
H20 C26 1_555 1_555
H21 C26 1_555 1_555
C27 C26 1_555 1_555
C28 C27 1_555 1_555
C29 C28 1_555 1_555
H22 C29 1_555 1_555
C30 C29 1_555 1_555
H23 C30 1_555 1_555
C31 C30 1_555 1_555
H24 C31 1_555 1_555
C32 C31 1_555 1_555
H25 C32 1_555 1_555
C33 C28 1_555 1_555
C34 C24 1_555 1_555
H26 C34 1_555 1_555
C35 C34 1_555 1_555
C36 C35 1_555 1_555
C37 C36 1_555 1_555
H27 C37 1_555 1_555
C38 C37 1_555 1_555
H28 C38 1_555 1_555
C39 C38 1_555 1_555
C40 C39 1_555 1_555
H29 C40 1_555 1_555
C41 C36 1_555 1_555
H30 C41 1_555 1_555
C42 C39 1_555 1_555
H31 C42 1_555 1_555
H32 C42 1_555 1_555
H33 C42 1_555 1_555
C43 C27 1_555 1_555
H34 C43 1_555 1_555
H35 C43 1_555 1_555
C44 C17 1_555 1_555
C45 C44 1_555 1_555
C46 C45 1_555 1_555
H36 C46 1_555 1_555
C47 C46 1_555 1_555
H37 C47 1_555 1_555
C48 C47 1_555 1_555
C49 C48 1_555 1_555
H38 C49 1_555 1_555
C50 C45 1_555 1_555
H39 C50 1_555 1_555
C51 C48 1_555 1_555
H40 C51 1_555 1_555
H41 C51 1_555 1_555
H42 C51 1_555 1_555
C6 C7 1_555 1_555
C8 C9 1_555 1_555
C14 C15 1_555 1_555
C22 C23 1_555 1_555
C24 C25 1_555 1_555
C32 C33 1_555 1_555
C33 C34 1_555 1_555
C40 C41 1_555 1_555
C49 C50 1_555 1_555

#END
