
#######################################################################
#
#                 Cambridge Crystallographic Data Centre
#                                CCDC 
#
#######################################################################
#
# If this CIF has been generated from an entry in the Cambridge 
# Structural Database, then it will include bibliographic, chemical, 
# crystal, experimental, refinement or atomic coordinate data resulting 
# from the CCDC's data processing and validation procedures.
#
#######################################################################

data_HEJKEP
_chemical_formula_moiety         'C34 H28 O2'
_chemical_name_systematic        
(4'-methylene-3-(4-methylphenyl)-3',4'-dihydro-1'H-spiro[isochromene-1,2'-naphthalen]-1'-yl)(4-methylphenyl)methanone
_symmetry_cell_setting           orthorhombic
_symmetry_space_group_name_H-M   'P b c a'
_symmetry_Int_Tables_number      61
_space_group_name_Hall           '-P 2ac 2ab'
loop_
_symmetry_equiv_pos_site_id
_symmetry_equiv_pos_as_xyz
1 x,y,z
2 1/2-x,-y,1/2+z
3 -x,1/2+y,1/2-z
4 1/2+x,1/2-y,-z
5 -x,-y,-z
6 1/2+x,y,1/2-z
7 x,1/2-y,1/2+z
8 1/2-x,1/2+y,z
_cell_length_a                   15.9492(14)
_cell_length_b                   11.1823(11)
_cell_length_c                   29.089(3)
_cell_angle_alpha                90
_cell_angle_beta                 90
_cell_angle_gamma                90
_cell_volume                     5187.99
_exptl_crystal_colour            white
_exptl_crystal_description       block
_cell_formula_units_Z            8
loop_
_atom_site_label
_atom_site_type_symbol
_atom_site_fract_x
_atom_site_fract_y
_atom_site_fract_z
O1 O 0.06638(12) 0.09501(17) 0.40260(7)
O2 O -0.11895(12) -0.06071(18) 0.30482(7)
C1 C 0.12823(19) 0.1697(3) 0.38604(12)
C2 C 0.17262(17) 0.1384(3) 0.34929(11)
H1 H 0.2115 0.1918 0.3372
C3 C 0.16161(19) 0.0228(3) 0.32769(11)
C4 C 0.21795(19) -0.0229(3) 0.29548(11)
H2 H 0.2631 0.0235 0.2860
C5 C 0.2074(2) -0.1365(3) 0.27753(12)
H3 H 0.2443 -0.1657 0.2554
C6 C 0.1411(2) -0.2066(3) 0.29285(14)
H4 H 0.1345 -0.2839 0.2816
C7 C 0.0851(2) -0.1620(3) 0.32475(12)
H5 H 0.0411 -0.2097 0.3349
C8 C 0.0938(2) -0.0471(3) 0.34186(11)
C9 C 0.02714(19) 0.0142(3) 0.36979(11)
C10 C -0.0268(2) -0.0673(2) 0.39983(12)
H6 H -0.0576 -0.1224 0.3804
H7 H 0.0092 -0.1140 0.4198
C11 C -0.0878(2) 0.0033(3) 0.42861(14)
C12 C -0.1327(2) 0.1009(3) 0.40561(14)
C13 C -0.2033(2) 0.1550(4) 0.42568(13)
H8 H -0.2227 0.1279 0.4540
C14 C -0.2438(3) 0.2468(4) 0.40402(16)
H9 H -0.2908 0.2807 0.4177
C15 C -0.2162(3) 0.2901(4) 0.36230(16)
H10 H -0.2438 0.3531 0.3479
C16 C -0.1467(2) 0.2377(3) 0.34240(12)
H11 H -0.1273 0.2667 0.3144
C17 C -0.10502(19) 0.1432(3) 0.36309(12)
C18 C -0.03163(17) 0.0885(2) 0.33799(10)
H12 H 0.0016 0.1540 0.3250
C19 C -0.06239(19) 0.0105(3) 0.29794(12)
C20 C -0.02443(19) 0.0218(3) 0.25151(12)
C21 C 0.03855(19) 0.1024(3) 0.23984(12)
H13 H 0.0603 0.1530 0.2622
C22 C 0.06890(18) 0.1082(3) 0.19589(13)
H14 H 0.1116 0.1622 0.1893
C23 C 0.0385(2) 0.0369(3) 0.16106(13)
C24 C -0.0242(2) -0.0439(3) 0.17291(13)
H15 H -0.0462 -0.0938 0.1503
C25 C -0.05433(18) -0.0522(3) 0.21693(13)
H16 H -0.0955 -0.1083 0.2237
C26 C 0.0702(2) 0.0461(3) 0.11219(11)
H17 H 0.1235 0.0860 0.1120
H18 H 0.0309 0.0908 0.0941
H19 H 0.0764 -0.0326 0.0995
C27 C 0.1402(2) 0.2744(3) 0.41512(11)
C28 C 0.0837(2) 0.3033(3) 0.44908(12)
H20 H 0.0383 0.2531 0.4545
C29 C 0.0931(2) 0.4056(3) 0.47531(11)
H21 H 0.0542 0.4222 0.4983
C30 C 0.1591(2) 0.4836(3) 0.46815(12)
C31 C 0.2162(2) 0.4521(3) 0.43501(12)
H22 H 0.2622 0.5014 0.4300
C32 C 0.2076(2) 0.3501(3) 0.40892(11)
H23 H 0.2478 0.3320 0.3868
C33 C 0.1684(2) 0.5978(3) 0.49588(12)
H24 H 0.2190 0.6382 0.4869
H25 H 0.1710 0.5786 0.5280
H26 H 0.1211 0.6489 0.4903
C34 C -0.0964(2) -0.0223(3) 0.47302(13)
H27 H -0.1324 0.0227 0.4912
H28 H -0.0664 -0.0853 0.4859
loop_
_geom_bond_atom_site_label_1
_geom_bond_atom_site_label_2
_geom_bond_site_symmetry_1
_geom_bond_site_symmetry_2
O1 C1 1_555 1_555
O2 C19 1_555 1_555
C1 C2 1_555 1_555
C2 H1 1_555 1_555
C3 C2 1_555 1_555
C4 C3 1_555 1_555
H2 C4 1_555 1_555
C5 C4 1_555 1_555
H3 C5 1_555 1_555
C6 C5 1_555 1_555
H4 C6 1_555 1_555
C7 C6 1_555 1_555
H5 C7 1_555 1_555
C8 C3 1_555 1_555
C9 O1 1_555 1_555
C10 C9 1_555 1_555
H6 C10 1_555 1_555
H7 C10 1_555 1_555
C11 C10 1_555 1_555
C12 C11 1_555 1_555
C13 C12 1_555 1_555
H8 C13 1_555 1_555
C14 C13 1_555 1_555
H9 C14 1_555 1_555
C15 C14 1_555 1_555
H10 C15 1_555 1_555
C16 C15 1_555 1_555
H11 C16 1_555 1_555
C17 C12 1_555 1_555
C18 C9 1_555 1_555
H12 C18 1_555 1_555
C19 C18 1_555 1_555
C20 C19 1_555 1_555
C21 C20 1_555 1_555
H13 C21 1_555 1_555
C22 C21 1_555 1_555
H14 C22 1_555 1_555
C23 C22 1_555 1_555
C24 C23 1_555 1_555
H15 C24 1_555 1_555
C25 C20 1_555 1_555
H16 C25 1_555 1_555
C26 C23 1_555 1_555
H17 C26 1_555 1_555
H18 C26 1_555 1_555
H19 C26 1_555 1_555
C27 C1 1_555 1_555
C28 C27 1_555 1_555
H20 C28 1_555 1_555
C29 C28 1_555 1_555
H21 C29 1_555 1_555
C30 C29 1_555 1_555
C31 C30 1_555 1_555
H22 C31 1_555 1_555
C32 C27 1_555 1_555
H23 C32 1_555 1_555
C33 C30 1_555 1_555
H24 C33 1_555 1_555
H25 C33 1_555 1_555
H26 C33 1_555 1_555
C34 C11 1_555 1_555
H27 C34 1_555 1_555
H28 C34 1_555 1_555
C7 C8 1_555 1_555
C8 C9 1_555 1_555
C16 C17 1_555 1_555
C17 C18 1_555 1_555
C24 C25 1_555 1_555
C31 C32 1_555 1_555

#END
