
#######################################################################
#
#                 Cambridge Crystallographic Data Centre
#                                CCDC 
#
#######################################################################
#
# If this CIF has been generated from an entry in the Cambridge 
# Structural Database, then it will include bibliographic, chemical, 
# crystal, experimental, refinement or atomic coordinate data resulting 
# from the CCDC's data processing and validation procedures.
#
#######################################################################

data_HEJKUF
_chemical_formula_moiety         'C19 H22 F1 N3 O2 S1'
_chemical_name_systematic        
N-[(3-fluoro-1-methyl-2-oxo-2,3-dihydro-1H-indol-3-yl)(pyridin-4-yl)methyl]-2-methylpropane-2-sulfinamide
_symmetry_cell_setting           monoclinic
_symmetry_space_group_name_H-M   'P 21'
_symmetry_Int_Tables_number      4
_space_group_name_Hall           'P 2yb'
loop_
_symmetry_equiv_pos_site_id
_symmetry_equiv_pos_as_xyz
1 x,y,z
2 -x,1/2+y,-z
_cell_length_a                   9.6297(17)
_cell_length_b                   9.4042(17)
_cell_length_c                   11.399(2)
_cell_angle_alpha                90
_cell_angle_beta                 107.639(4)
_cell_angle_gamma                90
_cell_volume                     983.756
_exptl_crystal_colour            colorless
_exptl_crystal_description       prismatic
_cell_formula_units_Z            2
loop_
_atom_site_label
_atom_site_type_symbol
_atom_site_fract_x
_atom_site_fract_y
_atom_site_fract_z
S1 S 0.15899(11) 0.67399(14) 0.33840(9)
F1 F -0.0553(2) 0.4964(3) 0.48934(19)
N1 N 0.1566(4) 0.3733(4) 0.7606(3)
N2 N 0.2149(4) 0.6043(4) 0.4780(3)
N3 N 0.4563(7) 0.7846(7) 0.9112(4)
O1 O 0.2043(4) 0.3238(3) 0.5801(3)
O2 O 0.0705(4) 0.5741(6) 0.2490(3)
C1 C 0.0659(5) 0.4684(5) 0.7999(4)
C2 C 0.0452(6) 0.4802(7) 0.9128(4)
H1 H 0.0946 0.4215 0.9776
C3 C -0.0505(8) 0.5813(8) 0.9277(5)
H2 H -0.0665 0.5909 1.0038
C4 C -0.1232(6) 0.6685(8) 0.8328(5)
H3 H -0.1890 0.7351 0.8448
C5 C -0.0996(5) 0.6586(6) 0.7189(4)
H4 H -0.1477 0.7188 0.6548
C6 C -0.0053(4) 0.5597(5) 0.7033(3)
C7 C 0.0522(4) 0.5276(4) 0.5977(3)
C8 C 0.1457(4) 0.3933(4) 0.6418(4)
C9 C 0.2426(6) 0.2604(7) 0.8352(6)
H5 H 0.2914 0.2078 0.7871
H6 H 0.1798 0.1978 0.8622
H7 H 0.3135 0.3009 0.9054
C10 C 0.1463(4) 0.6484(4) 0.5695(3)
H8 H 0.0817 0.7286 0.5353
C11 C 0.2583(4) 0.6988(5) 0.6872(3)
C12 C 0.3894(5) 0.6310(6) 0.7347(4)
H9 H 0.4154 0.5559 0.6926
C13 C 0.4828(6) 0.6765(10) 0.8469(5)
H10 H 0.5700 0.6276 0.8790
C14 C 0.3321(7) 0.8491(7) 0.8619(5)
H11 H 0.3112 0.9264 0.9045
C15 C 0.2295(6) 0.8136(5) 0.7529(4)
H12 H 0.1433 0.8649 0.7240
C16 C 0.3367(5) 0.6811(8) 0.3078(4)
C17 C 0.3024(9) 0.7435(11) 0.1794(6)
H13 H 0.3916 0.7644 0.1618
H14 H 0.2471 0.8294 0.1748
H15 H 0.2467 0.6763 0.1204
C18 C 0.4297(8) 0.7825(11) 0.4027(8)
H16 H 0.4604 0.7366 0.4816
H17 H 0.3739 0.8657 0.4074
H18 H 0.5137 0.8095 0.3793
C19 C 0.4004(10) 0.5360(10) 0.3160(8)
H19 H 0.3286 0.4714 0.2674
H20 H 0.4304 0.5053 0.4003
H21 H 0.4831 0.5377 0.2858
H22 H 0.226(5) 0.519(3) 0.471(4)
loop_
_geom_bond_atom_site_label_1
_geom_bond_atom_site_label_2
_geom_bond_site_symmetry_1
_geom_bond_site_symmetry_2
S1 N2 1_555 1_555
F1 C7 1_555 1_555
N1 C1 1_555 1_555
N2 C10 1_555 1_555
N3 C13 1_555 1_555
O1 C8 1_555 1_555
O2 S1 1_555 1_555
C1 C2 1_555 1_555
C2 H1 1_555 1_555
C3 C2 1_555 1_555
H2 C3 1_555 1_555
C4 C3 1_555 1_555
H3 C4 1_555 1_555
C5 C4 1_555 1_555
H4 C5 1_555 1_555
C6 C1 1_555 1_555
C7 C6 1_555 1_555
C8 N1 1_555 1_555
C9 N1 1_555 1_555
H5 C9 1_555 1_555
H6 C9 1_555 1_555
H7 C9 1_555 1_555
C10 C7 1_555 1_555
H8 C10 1_555 1_555
C11 C10 1_555 1_555
C12 C11 1_555 1_555
H9 C12 1_555 1_555
C13 C12 1_555 1_555
H10 C13 1_555 1_555
C14 N3 1_555 1_555
H11 C14 1_555 1_555
C15 C11 1_555 1_555
H12 C15 1_555 1_555
C16 S1 1_555 1_555
C17 C16 1_555 1_555
H13 C17 1_555 1_555
H14 C17 1_555 1_555
H15 C17 1_555 1_555
C18 C16 1_555 1_555
H16 C18 1_555 1_555
H17 C18 1_555 1_555
H18 C18 1_555 1_555
C19 C16 1_555 1_555
H19 C19 1_555 1_555
H20 C19 1_555 1_555
H21 C19 1_555 1_555
H22 N2 1_555 1_555
C5 C6 1_555 1_555
C7 C8 1_555 1_555
C14 C15 1_555 1_555

#END
