
#######################################################################
#
#                 Cambridge Crystallographic Data Centre
#                                CCDC 
#
#######################################################################
#
# If this CIF has been generated from an entry in the Cambridge 
# Structural Database, then it will include bibliographic, chemical, 
# crystal, experimental, refinement or atomic coordinate data resulting 
# from the CCDC's data processing and validation procedures.
#
#######################################################################

data_HEJLEQ
_chemical_formula_moiety         'C23 H17 N1 O4'
_chemical_name_systematic        
2-[1-(4-nitrophenyl)ethylidene]-1,3-diphenylpropane-1,3-dione
_symmetry_cell_setting           triclinic
_symmetry_space_group_name_H-M   'P -1'
_symmetry_Int_Tables_number      2
_space_group_name_Hall           '-P 1'
loop_
_symmetry_equiv_pos_site_id
_symmetry_equiv_pos_as_xyz
1 x,y,z
2 -x,-y,-z
_cell_length_a                   8.8259(4)
_cell_length_b                   8.9629(5)
_cell_length_c                   12.3910(6)
_cell_angle_alpha                77.0410(10)
_cell_angle_beta                 88.049(2)
_cell_angle_gamma                83.286(2)
_cell_volume                     948.651
_cell_formula_units_Z            2
_exptl_crystal_recrystallization_method 'Ethyl acetate'
loop_
_atom_site_label
_atom_site_type_symbol
_atom_site_fract_x
_atom_site_fract_y
_atom_site_fract_z
N1 N 0.24908(19) 0.29535(18) 0.94978(12)
O1 O 0.47755(13) 0.73781(16) 0.44300(11)
O2 O 0.10573(15) 1.00526(14) 0.34836(11)
O3 O 0.1730(2) 0.3142(2) 1.02998(11)
O4 O 0.3516(2) 0.1917(2) 0.95403(12)
C1 C 0.37278(16) 0.77763(17) 0.50010(12)
C2 C 0.21033(16) 0.77635(17) 0.46689(12)
C3 C 0.16641(17) 0.87509(18) 0.35446(12)
C4 C 0.10724(16) 0.70060(16) 0.53208(12)
C5 C -0.05670(17) 0.71138(19) 0.49829(14)
H1 H -0.1172 0.7861 0.5310
H2 H -0.0936 0.6127 0.5232
H3 H -0.0637 0.7422 0.4191
C6 C 0.40037(16) 0.83328(16) 0.60129(12)
C7 C 0.28678(18) 0.91883(18) 0.64875(13)
H4 H 0.1901 0.9422 0.6176
C8 C 0.3174(2) 0.9696(2) 0.74265(15)
H5 H 0.2417 1.0288 0.7735
C9 C 0.4589(2) 0.9328(2) 0.79035(16)
H6 H 0.4784 0.9655 0.8541
C10 C 0.5716(2) 0.8479(2) 0.74385(17)
H7 H 0.6674 0.8229 0.7764
C11 C 0.54349(18) 0.7996(2) 0.64904(15)
H8 H 0.6211 0.7440 0.6170
C12 C 0.19706(18) 0.81022(19) 0.25479(13)
C13 C 0.1578(3) 0.9026(3) 0.15190(15)
H9 H 0.1117 1.0028 0.1463
C14 C 0.1872(4) 0.8460(3) 0.05812(17)
H10 H 0.1610 0.9084 -0.0108
C15 C 0.2545(3) 0.6988(3) 0.06511(19)
H11 H 0.2737 0.6616 0.0011
C16 C 0.2938(3) 0.6064(3) 0.16621(18)
H12 H 0.3399 0.5064 0.1709
C17 C 0.2651(2) 0.6614(2) 0.26128(15)
H13 H 0.2917 0.5982 0.3299
C18 C 0.14761(15) 0.59888(16) 0.64168(12)
C19 C 0.05793(19) 0.6101(2) 0.73472(13)
H14 H -0.0260 0.6844 0.7285
C20 C 0.0917(2) 0.5130(2) 0.83537(13)
H15 H 0.0326 0.5221 0.8976
C21 C 0.21481(18) 0.40165(18) 0.84251(12)
C22 C 0.30585(17) 0.38586(17) 0.75249(13)
H16 H 0.3885 0.3100 0.7591
C23 C 0.27115(16) 0.48554(17) 0.65238(12)
H17 H 0.3317 0.4768 0.5907
loop_
_geom_bond_atom_site_label_1
_geom_bond_atom_site_label_2
_geom_bond_site_symmetry_1
_geom_bond_site_symmetry_2
N1 O3 1_555 1_555
O1 C1 1_555 1_555
O2 C3 1_555 1_555
O4 N1 1_555 1_555
C1 C2 1_555 1_555
C2 C3 1_555 1_555
C3 C12 1_555 1_555
C4 C2 1_555 1_555
C5 C4 1_555 1_555
H1 C5 1_555 1_555
H2 C5 1_555 1_555
H3 C5 1_555 1_555
C6 C1 1_555 1_555
C7 C6 1_555 1_555
H4 C7 1_555 1_555
C8 C7 1_555 1_555
H5 C8 1_555 1_555
C9 C8 1_555 1_555
H6 C9 1_555 1_555
C10 C9 1_555 1_555
H7 C10 1_555 1_555
C11 C6 1_555 1_555
H8 C11 1_555 1_555
C12 C13 1_555 1_555
C13 H9 1_555 1_555
C14 C13 1_555 1_555
H10 C14 1_555 1_555
C15 C14 1_555 1_555
H11 C15 1_555 1_555
C16 C15 1_555 1_555
H12 C16 1_555 1_555
C17 C12 1_555 1_555
H13 C17 1_555 1_555
C18 C4 1_555 1_555
C19 C18 1_555 1_555
H14 C19 1_555 1_555
C20 C19 1_555 1_555
H15 C20 1_555 1_555
C21 N1 1_555 1_555
C22 C21 1_555 1_555
H16 C22 1_555 1_555
C23 C18 1_555 1_555
H17 C23 1_555 1_555
C10 C11 1_555 1_555
C16 C17 1_555 1_555
C20 C21 1_555 1_555
C22 C23 1_555 1_555

#END
