
#######################################################################
#
#                 Cambridge Crystallographic Data Centre
#                                CCDC 
#
#######################################################################
#
# If this CIF has been generated from an entry in the Cambridge 
# Structural Database, then it will include bibliographic, chemical, 
# crystal, experimental, refinement or atomic coordinate data resulting 
# from the CCDC's data processing and validation procedures.
#
#######################################################################

data_HEJNAN
_chemical_formula_moiety         'C17 H25 N3 O4'
_chemical_name_systematic        N,N-Diethyl-N^2^-(4-nitrobenzoyl)leucinamide
_symmetry_cell_setting           monoclinic
_symmetry_space_group_name_H-M   'C 2/c'
_symmetry_Int_Tables_number      15
_space_group_name_Hall           '-C 2yn'
loop_
_symmetry_equiv_pos_site_id
_symmetry_equiv_pos_as_xyz
1 x,y,z
2 -x,y,1/2-z
3 1/2+x,1/2+y,z
4 1/2-x,1/2+y,1/2-z
5 -x,-y,-z
6 x,-y,1/2+z
7 1/2-x,1/2-y,-z
8 1/2+x,1/2-y,1/2+z
_cell_length_a                   19.2534(7)
_cell_length_b                   19.3811(8)
_cell_length_c                   21.0097(7)
_cell_angle_alpha                90
_cell_angle_beta                 102.664(4)
_cell_angle_gamma                90
_cell_volume                     7649.09
_exptl_crystal_colour            colorless
_exptl_crystal_description       parallelepiped
_chemical_melting_point          '403 K'
_cell_formula_units_Z            16
_exptl_crystal_recrystallization_method hexane/dichloromethane
loop_
_atom_site_label
_atom_site_type_symbol
_atom_site_fract_x
_atom_site_fract_y
_atom_site_fract_z
O1 O 0.26080(12) 0.14946(11) 0.54367(9)
O2 O 0.46396(19) 0.44083(17) 0.62157(16)
O3 O 0.53839(16) 0.38601(17) 0.69534(15)
O4 O 0.18949(14) 0.11500(12) 0.67820(10)
N1 N 0.31519(15) 0.09853(14) 0.63768(11)
H1 H 0.342(2) 0.0992(19) 0.675(2)
N2 N 0.48571(17) 0.38770(19) 0.65132(14)
N3 N 0.13023(15) 0.05249(15) 0.59305(12)
C1 C 0.30828(16) 0.15002(16) 0.59378(12)
C2 C 0.35950(15) 0.20910(16) 0.60822(12)
C3 C 0.34126(16) 0.26898(17) 0.57215(12)
H2 H 0.2995 0.2698 0.5382
C4 C 0.38306(17) 0.32748(18) 0.58501(14)
H3 H 0.3701 0.3687 0.5608
C5 C 0.44414(17) 0.32464(19) 0.63394(13)
C6 C 0.46548(17) 0.26521(19) 0.66740(14)
H4 H 0.5094 0.2637 0.6985
C7 C 0.42298(17) 0.20747(18) 0.65577(13)
H5 H 0.4368 0.1665 0.6800
C8 C 0.26243(18) 0.04353(17) 0.62705(14)
H6 H 0.2576 0.0252 0.5818
C9 C 0.19092(19) 0.07288(17) 0.63373(13)
C10 C 0.0626(2) 0.0794(2) 0.60277(17)
H7 H 0.0654 0.0862 0.6500
H8 H 0.0243 0.0456 0.5863
C11 C 0.0445(2) 0.1478(2) 0.5671(2)
H9 H -0.0010 0.1650 0.5744
H10 H 0.0409 0.1409 0.5203
H11 H 0.0821 0.1815 0.5837
C12 C 0.1262(2) 0.0078(2) 0.53505(15)
H12 H 0.1705 0.0134 0.5190
H13 H 0.0861 0.0233 0.5001
C13 C 0.1164(3) -0.0674(2) 0.54852(19)
H14 H 0.1141 -0.0940 0.5085
H15 H 0.0721 -0.0735 0.5636
H16 H 0.1566 -0.0835 0.5823
C14 C 0.2854(2) -0.01545(18) 0.67563(14)
H17 H 0.2962 0.0038 0.7204
H18 H 0.2451 -0.0480 0.6724
C15 C 0.3501(2) -0.05508(19) 0.66494(16)
H19 H 0.3876 -0.0206 0.6610
C16 C 0.3347(3) -0.0978(2) 0.60338(19)
H20 H 0.3157 -0.0680 0.5659
H21 H 0.2997 -0.1335 0.6068
H22 H 0.3788 -0.1196 0.5974
C17 C 0.3798(3) -0.1007(3) 0.7236(2)
H23 H 0.3896 -0.0725 0.7633
H24 H 0.4239 -0.1225 0.7180
H25 H 0.3449 -0.1364 0.7274
O5 O 0.33056(19) 0.30118(15) 0.82058(13)
O6 O 0.20752(18) 0.48222(13) 0.53751(10)
O7 O 0.12130(14) 0.40899(14) 0.51083(10)
O8 O 0.38851(12) 0.10302(12) 0.77259(9)
N4 N 0.28634(15) 0.20173(14) 0.77298(11)
H26 H 0.245(3) 0.176(3) 0.739(3)
N5 N 0.17658(17) 0.42866(16) 0.54636(11)
N6 N 0.42587(15) 0.10446(14) 0.88202(11)
C18 C 0.29751(17) 0.26971(18) 0.77314(14)
C19 C 0.26558(17) 0.30866(16) 0.71123(13)
C20 C 0.29189(18) 0.37370(17) 0.70423(14)
H27 H 0.3298 0.3915 0.7369
C21 C 0.26345(19) 0.41347(18) 0.64975(14)
H28 H 0.2815 0.4583 0.6445
C22 C 0.20815(18) 0.38600(17) 0.60329(13)
C23 C 0.18117(16) 0.32170(17) 0.60900(13)
H29 H 0.1429 0.3044 0.5764
C24 C 0.21053(16) 0.28234(17) 0.66305(13)
H30 H 0.1931 0.2371 0.6673
C25 C 0.31165(17) 0.16092(17) 0.83169(13)
H31 H 0.3229 0.1926 0.8701
C26 C 0.37896(17) 0.12188(17) 0.82674(13)
C27 C 0.4191(2) 0.12825(19) 0.94763(13)
H32 H 0.4401 0.0932 0.9805
H33 H 0.3680 0.1329 0.9482
C28 C 0.4559(2) 0.1969(2) 0.96574(17)
H34 H 0.4497 0.2111 1.0089
H35 H 0.4351 0.2318 0.9334
H36 H 0.5068 0.1921 0.9666
C29 C 0.48518(17) 0.05953(19) 0.87947(14)
H37 H 0.5281 0.0768 0.9103
H38 H 0.4947 0.0613 0.8351
C30 C 0.4722(2) -0.0148(2) 0.89620(19)
H39 H 0.5141 -0.0426 0.8939
H40 H 0.4306 -0.0326 0.8651
H41 H 0.4636 -0.0170 0.9404
C31 C 0.25360(19) 0.11083(18) 0.84093(14)
H42 H 0.2419 0.0804 0.8022
H43 H 0.2730 0.0813 0.8791
C32 C 0.1858(2) 0.1432(2) 0.8508(2)
H44 H 0.1685 0.1756 0.8136
C33 C 0.1983(3) 0.1853(3) 0.9138(3)
H45 H 0.2354 0.2198 0.9134
H46 H 0.2134 0.1545 0.9513
H47 H 0.1540 0.2086 0.9171
C34 C 0.1282(3) 0.0887(3) 0.8495(3)
H48 H 0.1212 0.0625 0.8087
H49 H 0.0835 0.1114 0.8525
H50 H 0.1429 0.0573 0.8866
loop_
_geom_bond_atom_site_label_1
_geom_bond_atom_site_label_2
_geom_bond_site_symmetry_1
_geom_bond_site_symmetry_2
O1 C1 1_555 1_555
O2 N2 1_555 1_555
O3 N2 1_555 1_555
O4 C9 1_555 1_555
N1 H1 1_555 1_555
N2 C5 1_555 1_555
N3 C9 1_555 1_555
C1 N1 1_555 1_555
C2 C1 1_555 1_555
C3 C2 1_555 1_555
H2 C3 1_555 1_555
C4 C3 1_555 1_555
H3 C4 1_555 1_555
C5 C4 1_555 1_555
C6 C5 1_555 1_555
H4 C6 1_555 1_555
C7 C2 1_555 1_555
H5 C7 1_555 1_555
C8 N1 1_555 1_555
H6 C8 1_555 1_555
C9 C8 1_555 1_555
C10 N3 1_555 1_555
H7 C10 1_555 1_555
H8 C10 1_555 1_555
C11 C10 1_555 1_555
H9 C11 1_555 1_555
H10 C11 1_555 1_555
H11 C11 1_555 1_555
C12 N3 1_555 1_555
H12 C12 1_555 1_555
H13 C12 1_555 1_555
C13 C12 1_555 1_555
H14 C13 1_555 1_555
H15 C13 1_555 1_555
H16 C13 1_555 1_555
C14 C8 1_555 1_555
H17 C14 1_555 1_555
H18 C14 1_555 1_555
C15 C14 1_555 1_555
H19 C15 1_555 1_555
C16 C15 1_555 1_555
H20 C16 1_555 1_555
H21 C16 1_555 1_555
H22 C16 1_555 1_555
C17 C15 1_555 1_555
H23 C17 1_555 1_555
H24 C17 1_555 1_555
H25 C17 1_555 1_555
O5 C18 1_555 1_555
O6 N5 1_555 1_555
O7 N5 1_555 1_555
O8 C26 1_555 1_555
N4 H26 1_555 1_555
N5 C22 1_555 1_555
N6 C26 1_555 1_555
C18 N4 1_555 1_555
C19 C18 1_555 1_555
C20 C19 1_555 1_555
H27 C20 1_555 1_555
C21 C20 1_555 1_555
H28 C21 1_555 1_555
C22 C21 1_555 1_555
C23 C22 1_555 1_555
H29 C23 1_555 1_555
C24 C19 1_555 1_555
H30 C24 1_555 1_555
C25 N4 1_555 1_555
H31 C25 1_555 1_555
C26 C25 1_555 1_555
C27 N6 1_555 1_555
H32 C27 1_555 1_555
H33 C27 1_555 1_555
C28 C27 1_555 1_555
H34 C28 1_555 1_555
H35 C28 1_555 1_555
H36 C28 1_555 1_555
C29 N6 1_555 1_555
H37 C29 1_555 1_555
H38 C29 1_555 1_555
C30 C29 1_555 1_555
H39 C30 1_555 1_555
H40 C30 1_555 1_555
H41 C30 1_555 1_555
C31 C25 1_555 1_555
H42 C31 1_555 1_555
H43 C31 1_555 1_555
C32 C31 1_555 1_555
H44 C32 1_555 1_555
C33 C32 1_555 1_555
H45 C33 1_555 1_555
H46 C33 1_555 1_555
H47 C33 1_555 1_555
C34 C32 1_555 1_555
H48 C34 1_555 1_555
H49 C34 1_555 1_555
H50 C34 1_555 1_555
C6 C7 1_555 1_555
C23 C24 1_555 1_555

#END
