
#######################################################################
#
#                 Cambridge Crystallographic Data Centre
#                                CCDC 
#
#######################################################################
#
# If this CIF has been generated from an entry in the Cambridge 
# Structural Database, then it will include bibliographic, chemical, 
# crystal, experimental, refinement or atomic coordinate data resulting 
# from the CCDC's data processing and validation procedures.
#
#######################################################################

data_HEJNIV
_chemical_formula_moiety         'C18 H28 N2 O2'
_chemical_name_systematic        N,N-Diethyl-N^2^-(4-methylbenzoyl)leucinamide
_symmetry_cell_setting           monoclinic
_symmetry_space_group_name_H-M   'P 21/n'
_symmetry_Int_Tables_number      14
_space_group_name_Hall           '-P 2yn'
loop_
_symmetry_equiv_pos_site_id
_symmetry_equiv_pos_as_xyz
1 x,y,z
2 1/2-x,1/2+y,1/2-z
3 -x,-y,-z
4 1/2+x,1/2-y,1/2+z
_cell_length_a                   10.0166(3)
_cell_length_b                   9.8877(3)
_cell_length_c                   17.5286(5)
_cell_angle_alpha                90
_cell_angle_beta                 92.004(3)
_cell_angle_gamma                90
_cell_volume                     1734.99
_exptl_crystal_colour            colorless
_exptl_crystal_description       parallelepiped
_chemical_melting_point          '388 K'
_cell_formula_units_Z            4
_exptl_crystal_recrystallization_method hexane/dichloromethane
loop_
_atom_site_label
_atom_site_type_symbol
_atom_site_fract_x
_atom_site_fract_y
_atom_site_fract_z
O1 O 0.95884(9) 0.68446(7) 0.16389(5)
O2 O 0.81399(8) 0.99074(7) 0.02340(4)
N1 N 1.02956(10) 0.86073(9) 0.09465(5)
H1 H 1.0729(12) 0.8887(12) 0.0565(7)
N2 N 0.71362(9) 1.01829(9) 0.13684(5)
C1 C 1.21551(12) 0.67945(11) 0.02174(6)
H2 H 1.2317 0.7735 0.0160
C2 C 1.29111(12) 0.58666(11) -0.01724(7)
H3 H 1.3593 0.6181 -0.0491
C3 C 1.26916(12) 0.44823(11) -0.01065(6)
C4 C 1.17048(12) 0.40573(11) 0.03751(7)
H4 H 1.1543 0.3117 0.0432
C5 C 1.09536(11) 0.49697(11) 0.07730(6)
H5 H 1.0292 0.4650 0.1104
C6 C 1.11578(11) 0.63555(11) 0.06933(6)
C7 C 1.02851(11) 0.72846(11) 0.11305(6)
C8 C 0.95146(11) 0.95728(10) 0.13684(6)
H6 H 0.9316 0.9170 0.1875
C9 C 0.81964(11) 0.98865(10) 0.09440(6)
C10 C 0.58789(11) 1.06337(12) 0.09980(7)
H7 H 0.5980 1.0636 0.0438
H8 H 0.5698 1.1575 0.1158
C11 C 0.46912(12) 0.97580(13) 0.11843(8)
H9 H 0.3887 1.0110 0.0919
H10 H 0.4567 0.9770 0.1736
H11 H 0.4852 0.8828 0.1018
C12 C 0.71850(12) 1.01873(11) 0.22096(6)
H12 H 0.6483 1.0804 0.2389
H13 H 0.8060 1.0553 0.2391
C13 C 0.69913(13) 0.88059(11) 0.25670(7)
H14 H 0.7038 0.8889 0.3124
H15 H 0.7694 0.8192 0.2404
H16 H 0.6116 0.8445 0.2403
C14 C 1.03165(11) 1.08754(10) 0.15023(6)
H17 H 1.0695 1.1162 0.1014
H18 H 0.9703 1.1597 0.1665
C15 C 1.14506(12) 1.07328(12) 0.21011(7)
H19 H 1.2010 0.9941 0.1957
C16 C 1.09329(14) 1.04726(14) 0.28977(7)
H20 H 1.1690 1.0379 0.3263
H21 H 1.0404 0.9639 0.2892
H22 H 1.0373 1.1233 0.3049
C17 C 1.23366(13) 1.19886(12) 0.21112(8)
H23 H 1.2665 1.2147 0.1599
H24 H 1.3096 1.1852 0.2471
H25 H 1.1817 1.2773 0.2270
C18 C 1.34726(15) 0.34747(14) -0.05544(9)
H26 H 1.3019(15) 0.3295(14) -0.1053(9)
H27 H 1.4386(15) 0.3834(13) -0.0642(8)
H28 H 1.3523(15) 0.2602(16) -0.0274(8)
loop_
_geom_bond_atom_site_label_1
_geom_bond_atom_site_label_2
_geom_bond_site_symmetry_1
_geom_bond_site_symmetry_2
O1 C7 1_555 1_555
O2 C9 1_555 1_555
N1 H1 1_555 1_555
N2 C9 1_555 1_555
C1 H2 1_555 1_555
C2 C1 1_555 1_555
H3 C2 1_555 1_555
C3 C2 1_555 1_555
C4 C3 1_555 1_555
H4 C4 1_555 1_555
C5 C4 1_555 1_555
H5 C5 1_555 1_555
C6 C1 1_555 1_555
C7 N1 1_555 1_555
C8 N1 1_555 1_555
H6 C8 1_555 1_555
C9 C8 1_555 1_555
C10 N2 1_555 1_555
H7 C10 1_555 1_555
H8 C10 1_555 1_555
C11 C10 1_555 1_555
H9 C11 1_555 1_555
H10 C11 1_555 1_555
H11 C11 1_555 1_555
C12 N2 1_555 1_555
H12 C12 1_555 1_555
H13 C12 1_555 1_555
C13 C12 1_555 1_555
H14 C13 1_555 1_555
H15 C13 1_555 1_555
H16 C13 1_555 1_555
C14 C8 1_555 1_555
H17 C14 1_555 1_555
H18 C14 1_555 1_555
C15 C14 1_555 1_555
H19 C15 1_555 1_555
C16 C15 1_555 1_555
H20 C16 1_555 1_555
H21 C16 1_555 1_555
H22 C16 1_555 1_555
C17 C15 1_555 1_555
H23 C17 1_555 1_555
H24 C17 1_555 1_555
H25 C17 1_555 1_555
C18 C3 1_555 1_555
H26 C18 1_555 1_555
H27 C18 1_555 1_555
H28 C18 1_555 1_555
C5 C6 1_555 1_555
C6 C7 1_555 1_555

#END
