
#######################################################################
#
#                 Cambridge Crystallographic Data Centre
#                                CCDC 
#
#######################################################################
#
# If this CIF has been generated from an entry in the Cambridge 
# Structural Database, then it will include bibliographic, chemical, 
# crystal, experimental, refinement or atomic coordinate data resulting 
# from the CCDC's data processing and validation procedures.
#
#######################################################################

data_HEJNER
_chemical_formula_moiety         'C17 H25 F1 N2 O2'
_chemical_name_systematic        N,N-Diethyl-N^2^-(4-fluorobenzoyl)leucinamide
_symmetry_cell_setting           monoclinic
_symmetry_space_group_name_H-M   'P 21'
_symmetry_Int_Tables_number      4
_space_group_name_Hall           'P 2yb'
loop_
_symmetry_equiv_pos_site_id
_symmetry_equiv_pos_as_xyz
1 x,y,z
2 -x,1/2+y,-z
_cell_length_a                   10.2718(2)
_cell_length_b                   17.6424(4)
_cell_length_c                   10.8798(2)
_cell_angle_alpha                90
_cell_angle_beta                 116.793(3)
_cell_angle_gamma                90
_cell_volume                     1759.96
_exptl_crystal_colour            colorless
_exptl_crystal_description       parallelepiped
_chemical_melting_point          '405 K'
_cell_formula_units_Z            4
_exptl_crystal_recrystallization_method hexane/dichloromethane
loop_
_atom_site_label
_atom_site_type_symbol
_atom_site_fract_x
_atom_site_fract_y
_atom_site_fract_z
F1 F -0.1030(3) 0.37469(13) 1.3842(2)
O1 O 0.0612(2) 0.35521(12) 0.8938(2)
O2 O 0.25384(18) 0.13576(11) 0.92738(16)
N1 N 0.0291(2) 0.23041(13) 0.9147(2)
H1 H 0.007(4) 0.196(2) 0.959(4)
N2 N 0.2398(2) 0.18321(13) 0.7292(2)
C1 C -0.0758(3) 0.26798(18) 1.1138(3)
H2 H -0.1030 0.2198 1.0706
C2 C -0.1093(4) 0.2866(2) 1.2205(3)
H3 H -0.1582 0.2515 1.2515
C3 C -0.0701(4) 0.3563(2) 1.2796(3)
C4 C 0.0000(3) 0.4089(2) 1.2381(3)
H4 H 0.0244 0.4573 1.2805
C5 C 0.0346(3) 0.38970(17) 1.1324(3)
H5 H 0.0844 0.4251 1.1029
C6 C -0.0032(2) 0.31909(16) 1.0698(2)
C7 C 0.0327(2) 0.30301(16) 0.9514(2)
C8 C 0.0409(3) 0.20986(15) 0.7903(2)
H6 H 0.0257 0.2560 0.7320
C9 C 0.1891(2) 0.17490(15) 0.8234(2)
C10 C 0.3736(3) 0.14240(18) 0.7518(3)
H7 H 0.3709 0.1316 0.6614
H8 H 0.3757 0.0932 0.7964
C11 C 0.5129(3) 0.1855(2) 0.8402(4)
H9 H 0.5974 0.1551 0.8516
H10 H 0.5176 0.1957 0.9307
H11 H 0.5135 0.2336 0.7954
C12 C 0.1755(3) 0.23478(17) 0.6111(2)
H12 H 0.0680 0.2339 0.5741
H13 H 0.1996 0.2164 0.5378
C13 C 0.2282(3) 0.31552(19) 0.6467(3)
H14 H 0.1821 0.3472 0.5641
H15 H 0.3344 0.3171 0.6815
H16 H 0.2025 0.3346 0.7175
C14 C -0.0757(3) 0.15012(18) 0.7086(3)
H17 H -0.0621 0.1344 0.6277
H18 H -0.0599 0.1049 0.7674
C15 C -0.2322(4) 0.1770(3) 0.6587(4)
H19 H -0.2452 0.1924 0.7409
C16 C -0.3362(4) 0.1124(3) 0.5879(5)
H20 H -0.4368 0.1299 0.5559
H21 H -0.3168 0.0705 0.6530
H22 H -0.3223 0.0950 0.5091
C17 C -0.2665(4) 0.2459(3) 0.5627(4)
H23 H -0.1977 0.2869 0.6105
H24 H -0.3662 0.2633 0.5366
H25 H -0.2574 0.2316 0.4799
F2 F 0.5503(3) 0.44711(14) 0.2074(3)
O3 O 0.2885(2) 0.17510(12) 0.39556(18)
O4 O -0.04630(19) 0.09852(12) 0.02482(19)
N3 N 0.2473(2) 0.12997(12) 0.1870(2)
H26 H 0.241(3) 0.1333(17) 0.103(3)
N4 N -0.0545(3) 0.02586(15) 0.1923(3)
C18 C 0.3653(3) 0.31816(16) 0.3311(3)
H27 H 0.3225 0.3180 0.3924
C19 C 0.4269(4) 0.38375(18) 0.3130(3)
H28 H 0.4264 0.4288 0.3607
C20 C 0.4891(4) 0.3828(2) 0.2247(3)
C21 C 0.4931(4) 0.3188(2) 0.1545(3)
H29 H 0.5380 0.3196 0.0949
C22 C 0.4301(3) 0.25320(18) 0.1728(3)
H30 H 0.4313 0.2085 0.1248
C23 C 0.3647(2) 0.25186(15) 0.2611(2)
C24 C 0.2970(2) 0.18258(15) 0.2869(2)
C25 C 0.1844(3) 0.05980(16) 0.2040(2)
H31 H 0.2218 0.0485 0.3043
C26 C 0.0174(3) 0.06410(16) 0.1355(3)
C27 C -0.2138(4) 0.0188(2) 0.1139(4)
H32 H -0.2418 -0.0337 0.1235
H33 H -0.2416 0.0274 0.0152
C28 C -0.2979(5) 0.0716(3) 0.1560(5)
H34 H -0.4024 0.0630 0.0987
H35 H -0.2735 0.1239 0.1442
H36 H -0.2737 0.0628 0.2528
C29 C 0.0176(4) -0.01314(18) 0.3259(3)
H37 H 0.1079 -0.0376 0.3342
H38 H -0.0477 -0.0534 0.3296
C30 C 0.0554(5) 0.0404(2) 0.4460(4)
H39 H 0.1034 0.0121 0.5325
H40 H -0.0340 0.0638 0.4396
H41 H 0.1213 0.0799 0.4437
C31 C 0.2233(3) -0.00569(15) 0.1337(2)
H42 H 0.1744 -0.0522 0.1427
H43 H 0.1838 0.0059 0.0343
C32 C 0.3866(3) -0.02165(17) 0.1912(3)
H44 H 0.4363 0.0268 0.1898
C33 C 0.4514(4) -0.0497(3) 0.3386(3)
H45 H 0.4331 -0.0124 0.3957
H46 H 0.5568 -0.0567 0.3735
H47 H 0.4063 -0.0981 0.3419
C34 C 0.4116(3) -0.0782(2) 0.0983(3)
H48 H 0.3685 -0.0586 0.0039
H49 H 0.3658 -0.1266 0.1000
H50 H 0.5166 -0.0857 0.1312
loop_
_geom_bond_atom_site_label_1
_geom_bond_atom_site_label_2
_geom_bond_site_symmetry_1
_geom_bond_site_symmetry_2
F1 C3 1_555 1_555
O1 C7 1_555 1_555
O2 C9 1_555 1_555
N1 H1 1_555 1_555
N2 C9 1_555 1_555
C1 H2 1_555 1_555
C2 C1 1_555 1_555
H3 C2 1_555 1_555
C3 C2 1_555 1_555
C4 C3 1_555 1_555
H4 C4 1_555 1_555
C5 C4 1_555 1_555
H5 C5 1_555 1_555
C6 C1 1_555 1_555
C7 N1 1_555 1_555
C8 N1 1_555 1_555
H6 C8 1_555 1_555
C9 C8 1_555 1_555
C10 N2 1_555 1_555
H7 C10 1_555 1_555
H8 C10 1_555 1_555
C11 C10 1_555 1_555
H9 C11 1_555 1_555
H10 C11 1_555 1_555
H11 C11 1_555 1_555
C12 N2 1_555 1_555
H12 C12 1_555 1_555
H13 C12 1_555 1_555
C13 C12 1_555 1_555
H14 C13 1_555 1_555
H15 C13 1_555 1_555
H16 C13 1_555 1_555
C14 C8 1_555 1_555
H17 C14 1_555 1_555
H18 C14 1_555 1_555
C15 C14 1_555 1_555
H19 C15 1_555 1_555
C16 C15 1_555 1_555
H20 C16 1_555 1_555
H21 C16 1_555 1_555
H22 C16 1_555 1_555
C17 C15 1_555 1_555
H23 C17 1_555 1_555
H24 C17 1_555 1_555
H25 C17 1_555 1_555
F2 C20 1_555 1_555
O3 C24 1_555 1_555
O4 C26 1_555 1_555
N3 H26 1_555 1_555
N4 C26 1_555 1_555
C18 H27 1_555 1_555
C19 C18 1_555 1_555
H28 C19 1_555 1_555
C20 C19 1_555 1_555
C21 C20 1_555 1_555
H29 C21 1_555 1_555
C22 C21 1_555 1_555
H30 C22 1_555 1_555
C23 C18 1_555 1_555
C24 N3 1_555 1_555
C25 N3 1_555 1_555
H31 C25 1_555 1_555
C26 C25 1_555 1_555
C27 N4 1_555 1_555
H32 C27 1_555 1_555
H33 C27 1_555 1_555
C28 C27 1_555 1_555
H34 C28 1_555 1_555
H35 C28 1_555 1_555
H36 C28 1_555 1_555
C29 N4 1_555 1_555
H37 C29 1_555 1_555
H38 C29 1_555 1_555
C30 C29 1_555 1_555
H39 C30 1_555 1_555
H40 C30 1_555 1_555
H41 C30 1_555 1_555
C31 C25 1_555 1_555
H42 C31 1_555 1_555
H43 C31 1_555 1_555
C32 C31 1_555 1_555
H44 C32 1_555 1_555
C33 C32 1_555 1_555
H45 C33 1_555 1_555
H46 C33 1_555 1_555
H47 C33 1_555 1_555
C34 C32 1_555 1_555
H48 C34 1_555 1_555
H49 C34 1_555 1_555
H50 C34 1_555 1_555
C5 C6 1_555 1_555
C6 C7 1_555 1_555
C22 C23 1_555 1_555
C23 C24 1_555 1_555

#END
