
#######################################################################
#
#                 Cambridge Crystallographic Data Centre
#                                CCDC 
#
#######################################################################
#
# If this CIF has been generated from an entry in the Cambridge 
# Structural Database, then it will include bibliographic, chemical, 
# crystal, experimental, refinement or atomic coordinate data resulting 
# from the CCDC's data processing and validation procedures.
#
#######################################################################

data_HEJPUJ
_chemical_formula_moiety         'C17 H25 F1 N2 O2'
_chemical_name_systematic        N,N-Diethyl-N^2^-(2-fluorobenzoyl)leucinamide
_symmetry_cell_setting           monoclinic
_symmetry_space_group_name_H-M   'P 21/c'
_symmetry_Int_Tables_number      14
_space_group_name_Hall           '-P 2ybc'
loop_
_symmetry_equiv_pos_site_id
_symmetry_equiv_pos_as_xyz
1 x,y,z
2 -x,1/2+y,1/2-z
3 -x,-y,-z
4 x,1/2-y,1/2+z
_cell_length_a                   8.7136(3)
_cell_length_b                   16.9065(5)
_cell_length_c                   12.2036(4)
_cell_angle_alpha                90
_cell_angle_beta                 108.497(4)
_cell_angle_gamma                90
_cell_volume                     1704.92
_exptl_crystal_colour            colorless
_exptl_crystal_description       parallelepiped
_chemical_melting_point          '330 K'
_cell_formula_units_Z            4
_exptl_crystal_recrystallization_method hexane/dichloromethane
loop_
_atom_site_label
_atom_site_type_symbol
_atom_site_fract_x
_atom_site_fract_y
_atom_site_fract_z
F1 F 0.5029(2) 0.22930(9) 0.85486(15)
O1 O 0.14846(17) 0.09615(9) 0.74256(12)
O2 O 0.33279(18) -0.09081(10) 0.93946(12)
N1 N 0.3960(2) 0.05890(10) 0.85844(14)
H1 H 0.466(3) 0.0701(12) 0.9214(18)
N2 N 0.1964(3) -0.12241(12) 0.75616(16)
C1 C 0.3983(3) 0.23616(13) 0.91523(18)
C2 C 0.4094(3) 0.30164(13) 0.9844(2)
H2 H 0.4899 0.3407 0.9900
C3 C 0.3013(3) 0.30943(13) 1.04540(18)
H3 H 0.3088 0.3538 1.0947
C4 C 0.1837(3) 0.25421(13) 1.03572(18)
H4 H 0.1097 0.2603 1.0779
C5 C 0.1721(3) 0.18916(13) 0.96425(18)
H5 H 0.0891 0.1512 0.9571
C6 C 0.2812(2) 0.17884(12) 0.90261(16)
C7 C 0.2688(2) 0.10765(11) 0.82635(16)
C8 C 0.3987(2) -0.01430(11) 0.79589(16)
H6 H 0.3485 -0.0052 0.7110
C9 C 0.3040(2) -0.07868(11) 0.83610(17)
C10 C 0.1131(3) -0.18749(14) 0.7924(2)
H7 H -0.0004 -0.1895 0.7408
H8 H 0.1112 -0.1770 0.8718
C11 C 0.1913(3) -0.26623(15) 0.7902(2)
H9 H 0.1305 -0.3075 0.8149
H10 H 0.3028 -0.2651 0.8427
H11 H 0.1917 -0.2775 0.7115
C12 C 0.1980(6) -0.1219(3) 0.6229(5)
H12 H 0.3043 -0.1036 0.6196
H13 H 0.1778 -0.1758 0.5898
C13 C 0.0663(6) -0.0665(3) 0.5563(4)
H14 H 0.0641 -0.0645 0.4756
H15 H 0.0874 -0.0134 0.5901
H16 H -0.0383 -0.0854 0.5598
C14 C 0.5730(2) -0.04164(12) 0.82114(17)
H17 H 0.6213 -0.0492 0.9056
H18 H 0.5723 -0.0938 0.7840
C15 C 0.6811(3) 0.01427(13) 0.78037(17)
H19 H 0.6687 0.0687 0.8084
C16 C 0.6365(3) 0.01669(16) 0.6496(2)
H20 H 0.5231 0.0328 0.6162
H21 H 0.6513 -0.0359 0.6208
H22 H 0.7062 0.0547 0.6275
C17 C 0.8568(3) -0.0103(2) 0.8317(3)
H23 H 0.8861 -0.0118 0.9161
H24 H 0.9259 0.0279 0.8092
H25 H 0.8719 -0.0629 0.8029
C18? C 0.1016(5) -0.0927(3) 0.6454(3)
C19? C 0.1810(7) -0.1268(3) 0.5602(5)
H26? H 0.1036 -0.0342 0.6445
H27? H -0.0122 -0.1106 0.6258
H28? H 0.1217 -0.1088 0.4819
H29? H 0.1787 -0.1847 0.5630
H30? H 0.2935 -0.1086 0.5813
loop_
_geom_bond_atom_site_label_1
_geom_bond_atom_site_label_2
_geom_bond_site_symmetry_1
_geom_bond_site_symmetry_2
F1 C1 1_555 1_555
O1 C7 1_555 1_555
O2 C9 1_555 1_555
N1 H1 1_555 1_555
N2 C9 1_555 1_555
C1 C2 1_555 1_555
C2 H2 1_555 1_555
C3 C2 1_555 1_555
H3 C3 1_555 1_555
C4 C3 1_555 1_555
H4 C4 1_555 1_555
C5 C4 1_555 1_555
H5 C5 1_555 1_555
C6 C1 1_555 1_555
C7 N1 1_555 1_555
C8 N1 1_555 1_555
H6 C8 1_555 1_555
C9 C8 1_555 1_555
C10 N2 1_555 1_555
H7 C10 1_555 1_555
H8 C10 1_555 1_555
C11 C10 1_555 1_555
H9 C11 1_555 1_555
H10 C11 1_555 1_555
H11 C11 1_555 1_555
C12 N2 1_555 1_555
H12 C12 1_555 1_555
H13 C12 1_555 1_555
C13 C12 1_555 1_555
H14 C13 1_555 1_555
H15 C13 1_555 1_555
H16 C13 1_555 1_555
C14 C8 1_555 1_555
H17 C14 1_555 1_555
H18 C14 1_555 1_555
C15 C14 1_555 1_555
H19 C15 1_555 1_555
C16 C15 1_555 1_555
H20 C16 1_555 1_555
H21 C16 1_555 1_555
H22 C16 1_555 1_555
C17 C15 1_555 1_555
H23 C17 1_555 1_555
H24 C17 1_555 1_555
H25 C17 1_555 1_555
C5 C6 1_555 1_555
C6 C7 1_555 1_555

#END
