
#######################################################################
#
#                 Cambridge Crystallographic Data Centre
#                                CCDC 
#
#######################################################################
#
# If this CIF has been generated from an entry in the Cambridge 
# Structural Database, then it will include bibliographic, chemical, 
# crystal, experimental, refinement or atomic coordinate data resulting 
# from the CCDC's data processing and validation procedures.
#
#######################################################################

data_HEJXOJ
_chemical_formula_moiety         'C35 H24 N8'
_chemical_name_systematic        
2,3:6,7-bis(3',6'-bis(2''-Pyridyl)-4',5'-pyridazino)tetracyclo(6.3.0.0^4,11^.0^5,9^)undecane
_symmetry_cell_setting           monoclinic
_symmetry_space_group_name_H-M   'C 2/c'
_symmetry_Int_Tables_number      15
_space_group_name_Hall           '-C 2yn'
loop_
_symmetry_equiv_pos_site_id
_symmetry_equiv_pos_as_xyz
1 x,y,z
2 1/2+x,1/2+y,z
3 -x,y,1/2-z
4 1/2-x,1/2+y,1/2-z
5 -x,-y,-z
6 1/2-x,1/2-y,-z
7 x,-y,1/2+z
8 1/2+x,1/2-y,1/2+z
_cell_length_a                   29.288(7)
_cell_length_b                   10.398(2)
_cell_length_c                   20.011(6)
_cell_angle_alpha                90
_cell_angle_beta                 117.10(2)
_cell_angle_gamma                90
_cell_volume                     5425.03
_exptl_crystal_colour            colorless
_chemical_melting_point          336.0-337.5deg.C
_cell_formula_units_Z            8
loop_
_atom_site_label
_atom_site_type_symbol
_atom_site_fract_x
_atom_site_fract_y
_atom_site_fract_z
C1 C 0.4157(1) 0.1977(3) 0.7744(2)
C2 C 0.4702(1) 0.2388(3) 0.8244(2)
C3 C 0.4934(1) 0.1158(4) 0.8706(2)
C4 C 0.5346(1) 0.1643(4) 0.9454(2)
C5 C 0.5001(1) 0.2558(4) 0.9592(2)
C6 C 0.4750(1) 0.3404(3) 0.8876(2)
C7 C 0.4234(1) 0.3720(3) 0.8840(2)
C8 C 0.4104(1) 0.2751(3) 0.9194(2)
C9 C 0.4520(1) 0.1756(3) 0.9480(2)
C10 C 0.4478(1) 0.0749(3) 0.8855(2)
C11 C 0.4023(1) 0.1011(3) 0.8099(2)
N1 N 0.3336(1) 0.1797(3) 0.6697(1)
N2 N 0.3207(1) 0.0882(3) 0.7038(1)
C12 C 0.3796(1) 0.2387(3) 0.7032(2)
C13 C 0.3871(1) 0.3431(3) 0.6596(2)
C14 C 0.3518(2) 0.3667(4) 0.5852(2)
C15 C 0.3604(2) 0.4666(5) 0.5475(2)
C16 C 0.4039(2) 0.5406(4) 0.5836(2)
C17 C 0.4367(2) 0.5102(4) 0.6573(2)
N3 N 0.4293(1) 0.4146(3) 0.6951(1)
C18 C 0.3531(1) 0.0506(3) 0.7742(2)
C19 C 0.3312(1) -0.0455(3) 0.8059(2)
C20 C 0.2792(2) -0.0733(4) 0.7692(2)
C21 C 0.2598(2) -0.1654(5) 0.7984(3)
C22 C 0.2925(2) -0.2288(4) 0.8636(2)
C23 C 0.3426(2) -0.1938(5) 0.8953(2)
N4 N 0.3628(1) -0.1041(3) 0.8689(2)
N5 N 0.3434(1) 0.4738(3) 0.8495(2)
N6 N 0.3301(1) 0.3801(3) 0.8829(2)
C24 C 0.3895(1) 0.4726(3) 0.8502(2)
C25 C 0.3986(1) 0.5839(3) 0.8115(2)
C26 C 0.3592(2) 0.6345(4) 0.7465(2)
C27 C 0.3694(2) 0.7388(4) 0.7130(3)
C28 C 0.4175(2) 0.7902(4) 0.7451(3)
C29 C 0.4544(2) 0.7361(4) 0.8100(3)
N7 N 0.4462(1) 0.6327(3) 0.8432(2)
C30 C 0.3618(1) 0.2823(3) 0.9177(2)
C31 C 0.3413(1) 0.1888(4) 0.9533(2)
C32 C 0.2887(2) 0.1742(5) 0.9246(3)
C33 C 0.2704(2) 0.0901(6) 0.9608(3)
C34 C 0.3041(2) 0.0237(5) 1.0215(3)
C35 C 0.3550(2) 0.0432(5) 1.0451(3)
N8 N 0.3744(1) 0.1239(3) 1.0126(2)
H1 H 0.491(1) 0.272(3) 0.801(1)
H2 H 0.499(1) 0.042(3) 0.845(1)
H3 H 0.549(1) 0.093(3) 0.982(2)
H4 H 0.561(1) 0.207(3) 0.939(2)
H5 H 0.515(1) 0.316(3) 1.005(2)
H6 H 0.490(1) 0.428(3) 0.885(2)
H7 H 0.454(1) 0.128(3) 0.990(2)
H8 H 0.451(1) -0.016(3) 0.902(1)
H9 H 0.323(1) 0.313(4) 0.563(2)
H10 H 0.330(2) 0.492(5) 0.499(3)
H11 H 0.409(1) 0.620(3) 0.560(2)
H12 H 0.464(1) 0.561(4) 0.683(2)
H13 H 0.255(1) -0.021(4) 0.724(2)
H14 H 0.217(2) -0.191(4) 0.767(3)
H15 H 0.285(1) -0.316(4) 0.885(2)
H16 H 0.361(1) -0.241(3) 0.933(2)
H17 H 0.329(2) 0.579(4) 0.722(2)
H18 H 0.340(2) 0.787(5) 0.666(3)
H19 H 0.426(1) 0.868(4) 0.724(2)
H20 H 0.492(1) 0.775(3) 0.841(2)
H21 H 0.257(2) 0.235(5) 0.872(3)
H22 H 0.230(2) 0.080(5) 0.936(3)
H23 H 0.293(1) -0.036(4) 1.045(2)
H24 H 0.383(2) -0.010(4) 1.083(2)
loop_
_geom_bond_atom_site_label_1
_geom_bond_atom_site_label_2
_geom_bond_site_symmetry_1
_geom_bond_site_symmetry_2
C1 C2 1_555 1_555
C2 C3 1_555 1_555
C3 C4 1_555 1_555
C4 C5 1_555 1_555
C5 C6 1_555 1_555
C6 C2 1_555 1_555
C7 C6 1_555 1_555
C8 C7 1_555 1_555
C9 C5 1_555 1_555
C10 C3 1_555 1_555
C11 C1 1_555 1_555
N1 N2 1_555 1_555
N2 C18 1_555 1_555
C12 C1 1_555 1_555
C13 C12 1_555 1_555
C14 C13 1_555 1_555
C15 C14 1_555 1_555
C16 C15 1_555 1_555
C17 C16 1_555 1_555
N3 C13 1_555 1_555
C18 C11 1_555 1_555
C19 C18 1_555 1_555
C20 C19 1_555 1_555
C21 C20 1_555 1_555
C22 C21 1_555 1_555
C23 C22 1_555 1_555
N4 C19 1_555 1_555
N5 N6 1_555 1_555
N6 C30 1_555 1_555
C24 C7 1_555 1_555
C25 C24 1_555 1_555
C26 C25 1_555 1_555
C27 C26 1_555 1_555
C28 C27 1_555 1_555
C29 C28 1_555 1_555
N7 C25 1_555 1_555
C30 C8 1_555 1_555
C31 C30 1_555 1_555
C32 C31 1_555 1_555
C33 C32 1_555 1_555
C34 C33 1_555 1_555
C35 C34 1_555 1_555
N8 C31 1_555 1_555
H1 C2 1_555 1_555
H2 C3 1_555 1_555
H3 C4 1_555 1_555
H4 C4 1_555 1_555
H5 C5 1_555 1_555
H6 C6 1_555 1_555
H7 C9 1_555 1_555
H8 C10 1_555 1_555
H9 C14 1_555 1_555
H10 C15 1_555 1_555
H11 C16 1_555 1_555
H12 C17 1_555 1_555
H13 C20 1_555 1_555
H14 C21 1_555 1_555
H15 C22 1_555 1_555
H16 C23 1_555 1_555
H17 C26 1_555 1_555
H18 C27 1_555 1_555
H19 C28 1_555 1_555
H20 C29 1_555 1_555
H21 C32 1_555 1_555
H22 C33 1_555 1_555
H23 C34 1_555 1_555
H24 C35 1_555 1_555
C8 C9 1_555 1_555
C9 C10 1_555 1_555
C10 C11 1_555 1_555
N1 C12 1_555 1_555
C17 N3 1_555 1_555
C23 N4 1_555 1_555
N5 C24 1_555 1_555
C29 N7 1_555 1_555
C35 N8 1_555 1_555

#END
