
#######################################################################
#
#                 Cambridge Crystallographic Data Centre
#                                CCDC 
#
#######################################################################
#
# If this CIF has been generated from an entry in the Cambridge 
# Structural Database, then it will include bibliographic, chemical, 
# crystal, experimental, refinement or atomic coordinate data resulting 
# from the CCDC's data processing and validation procedures.
#
#######################################################################

data_HEJYEA
_chemical_formula_moiety         'C35 H26 N8'
_chemical_name_systematic        
3,4:10,11-bis(3',6'-bis(2''-Pyridyl)-4',5'-pyridazino)tricyclo(6.3.0.0^2,6^)undecane
_symmetry_cell_setting           monoclinic
_symmetry_space_group_name_H-M   'P 21/c'
_symmetry_Int_Tables_number      14
_space_group_name_Hall           '-P 2ybc'
loop_
_symmetry_equiv_pos_site_id
_symmetry_equiv_pos_as_xyz
1 x,y,z
2 -x,1/2+y,1/2-z
3 -x,-y,-z
4 x,1/2-y,1/2+z
_cell_length_a                   14.050(2)
_cell_length_b                   10.713(2)
_cell_length_c                   18.430(2)
_cell_angle_alpha                90
_cell_angle_beta                 97.08(1)
_cell_angle_gamma                90
_cell_volume                     2752.89
_exptl_crystal_colour            'pale yellow'
_chemical_melting_point          251.5-252.5deg.C(dec.)
_cell_formula_units_Z            4
loop_
_atom_site_label
_atom_site_type_symbol
_atom_site_fract_x
_atom_site_fract_y
_atom_site_fract_z
N1 N 0.6725(3) 0.0745(4) 0.5388(3)
N2 N 0.7064(3) 0.1522(5) 0.5919(3)
N3 N 0.9563(3) 0.4769(4) 0.6295(2)
N4 N 0.9940(3) 0.3809(4) 0.5974(2)
N5 N 0.5206(4) 0.0565(5) 0.3684(3)
N6 N 0.9683(3) 0.1872(4) 0.4366(3)
N7 N 0.7636(3) 0.6992(4) 0.6139(2)
N8 N 0.6633(4) 0.4461(5) 0.6614(3)
C1 C 0.6203(4) 0.1183(5) 0.4786(3)
C2 C 0.6111(3) 0.2471(5) 0.4652(3)
C3 C 0.5573(5) 0.3155(5) 0.4020(4)
C4 C 0.5931(4) 0.4514(5) 0.4118(3)
C5 C 0.6657(4) 0.4897(6) 0.3602(3)
C6 C 0.7628(4) 0.5022(5) 0.4060(3)
C7 C 0.8264(4) 0.3842(5) 0.4164(3)
C8 C 0.8751(3) 0.3999(5) 0.4936(3)
C9 C 0.9566(3) 0.3419(5) 0.5305(3)
C10 C 0.8752(3) 0.5326(5) 0.5987(3)
C11 C 0.8299(3) 0.4922(5) 0.5307(3)
C12 C 0.7409(4) 0.5348(5) 0.4836(3)
C13 C 0.6455(3) 0.4633(5) 0.4918(3)
C14 C 0.6544(3) 0.3287(5) 0.5175(3)
C15 C 0.6945(4) 0.2765(5) 0.5842(3)
C16 C 0.5767(4) 0.0197(5) 0.4282(3)
C17 C 0.5927(5) -0.1067(6) 0.4452(4)
C18 C 0.5493(6) -0.1936(7) 0.3948(6)
C19 C 0.4945(6) -0.1571(7) 0.3334(5)
C20 C 0.4806(6) -0.0316(8) 0.3225(5)
C21 C 1.0080(4) 0.2367(5) 0.5001(3)
C22 C 1.0937(4) 0.1922(6) 0.5386(4)
C23 C 1.1390(5) 0.0939(7) 0.5084(4)
C24 C 1.1001(5) 0.0425(6) 0.4431(4)
C25 C 1.0143(5) 0.0920(6) 0.4089(4)
C26 C 0.8452(4) 0.6416(5) 0.6403(3)
C27 C 0.9019(5) 0.6819(7) 0.7037(3)
C28 C 0.8728(6) 0.7865(7) 0.7396(4)
C29 C 0.7894(6) 0.8458(7) 0.7129(4)
C30 C 0.7368(5) 0.7998(7) 0.6504(4)
C31 C 0.7183(4) 0.3469(6) 0.6538(3)
C32 C 0.7881(6) 0.3016(8) 0.7078(4)
C33 C 0.7998(9) 0.367(1) 0.7738(5)
C34 C 0.746(1) 0.467(1) 0.7821(5)
C35 C 0.6773(7) 0.507(1) 0.7262(5)
H1 H 0.479(4) 0.301(5) 0.403(3)
H2 H 0.574(4) 0.285(6) 0.351(3)
H3 H 0.542(3) 0.500(4) 0.405(2)
H4 H 0.648(3) 0.568(4) 0.336(2)
H5 H 0.666(3) 0.432(4) 0.322(2)
H6 H 0.802(3) 0.565(4) 0.387(2)
H7 H 0.873(3) 0.376(4) 0.376(3)
H8 H 0.786(3) 0.308(4) 0.412(2)
H9 H 0.732(3) 0.613(4) 0.489(2)
H10 H 0.609(3) 0.511(4) 0.528(2)
H11 H 0.645(5) -0.130(7) 0.488(4)
H12 H 0.558(4) -0.268(6) 0.407(3)
H13 H 0.452(6) -0.230(8) 0.296(4)
H14 H 0.450(6) 0.010(8) 0.271(5)
H15 H 1.119(5) 0.233(7) 0.600(4)
H16 H 1.204(5) 0.063(6) 0.532(3)
H17 H 1.131(4) -0.020(5) 0.416(3)
H18 H 0.978(4) 0.050(5) 0.358(3)
H19 H 0.961(3) 0.635(5) 0.721(3)
H20 H 0.916(4) 0.809(6) 0.777(3)
H21 H 0.770(5) 0.925(6) 0.740(3)
H22 H 0.674(4) 0.835(6) 0.634(3)
H23 H 0.840(5) 0.240(7) 0.698(4)
H24 H 0.856(5) 0.327(7) 0.807(4)
H25 H 0.748(7) 0.50(1) 0.823(5)
H26 H 0.633(6) 0.597(9) 0.726(5)
loop_
_geom_bond_atom_site_label_1
_geom_bond_atom_site_label_2
_geom_bond_site_symmetry_1
_geom_bond_site_symmetry_2
N1 N2 1_555 1_555
N2 C15 1_555 1_555
N3 N4 1_555 1_555
N4 C9 1_555 1_555
N5 C16 1_555 1_555
N6 C21 1_555 1_555
N7 C26 1_555 1_555
N8 C31 1_555 1_555
C1 N1 1_555 1_555
C2 C1 1_555 1_555
C3 C2 1_555 1_555
C4 C3 1_555 1_555
C5 C4 1_555 1_555
C6 C5 1_555 1_555
C7 C6 1_555 1_555
C8 C7 1_555 1_555
C9 C8 1_555 1_555
C10 N3 1_555 1_555
C11 C8 1_555 1_555
C12 C6 1_555 1_555
C13 C4 1_555 1_555
C14 C2 1_555 1_555
C15 C14 1_555 1_555
C16 C1 1_555 1_555
C17 C16 1_555 1_555
C18 C17 1_555 1_555
C19 C18 1_555 1_555
C20 N5 1_555 1_555
C21 C9 1_555 1_555
C22 C21 1_555 1_555
C23 C22 1_555 1_555
C24 C23 1_555 1_555
C25 N6 1_555 1_555
C26 C10 1_555 1_555
C27 C26 1_555 1_555
C28 C27 1_555 1_555
C29 C28 1_555 1_555
C30 N7 1_555 1_555
C31 C15 1_555 1_555
C32 C31 1_555 1_555
C33 C32 1_555 1_555
C34 C33 1_555 1_555
C35 N8 1_555 1_555
H1 C3 1_555 1_555
H2 C3 1_555 1_555
H3 C4 1_555 1_555
H4 C5 1_555 1_555
H5 C5 1_555 1_555
H6 C6 1_555 1_555
H7 C7 1_555 1_555
H8 C7 1_555 1_555
H9 C12 1_555 1_555
H10 C13 1_555 1_555
H11 C17 1_555 1_555
H12 C18 1_555 1_555
H13 C19 1_555 1_555
H14 C20 1_555 1_555
H15 C22 1_555 1_555
H16 C23 1_555 1_555
H17 C24 1_555 1_555
H18 C25 1_555 1_555
H19 C27 1_555 1_555
H20 C28 1_555 1_555
H21 C29 1_555 1_555
H22 C30 1_555 1_555
H23 C32 1_555 1_555
H24 C33 1_555 1_555
H25 C34 1_555 1_555
H26 C35 1_555 1_555
C10 C11 1_555 1_555
C11 C12 1_555 1_555
C12 C13 1_555 1_555
C13 C14 1_555 1_555
C19 C20 1_555 1_555
C24 C25 1_555 1_555
C29 C30 1_555 1_555
C34 C35 1_555 1_555

#END
