
#######################################################################
#
#                 Cambridge Crystallographic Data Centre
#                                CCDC 
#
#######################################################################
#
# If this CIF has been generated from an entry in the Cambridge 
# Structural Database, then it will include bibliographic, chemical, 
# crystal, experimental, refinement or atomic coordinate data resulting 
# from the CCDC's data processing and validation procedures.
#
#######################################################################

data_HEJYIG
_chemical_formula_moiety         'C29 H26 N2 O3'
_chemical_name_systematic        
11-Nitro-13-phenyl-5,6-dipropyl-8H-isoquinolino[3,2-a]isoquinolin-8-one
_symmetry_cell_setting           triclinic
_symmetry_space_group_name_H-M   'P -1'
_symmetry_Int_Tables_number      2
_space_group_name_Hall           '-P 1'
loop_
_symmetry_equiv_pos_site_id
_symmetry_equiv_pos_as_xyz
1 x,y,z
2 -x,-y,-z
_cell_length_a                   11.577(3)
_cell_length_b                   11.786(3)
_cell_length_c                   17.628(5)
_cell_angle_alpha                76.100(12)
_cell_angle_beta                 79.836(14)
_cell_angle_gamma                76.907(13)
_cell_volume                     2255.12
_exptl_crystal_colour            colorless
_exptl_crystal_description       prism
_cell_formula_units_Z            4
loop_
_atom_site_label
_atom_site_type_symbol
_atom_site_fract_x
_atom_site_fract_y
_atom_site_fract_z
O1 O 0.3211(4) 0.2237(5) 0.0359(3)
O2 O 0.1243(5) -0.0603(5) -0.2042(3)
O3 O -0.0588(5) -0.0035(5) -0.1516(3)
N1 N 0.1275(5) 0.2683(5) 0.0932(3)
N2 N 0.0489(6) -0.0057(5) -0.1592(3)
C1 C -0.2549(6) 0.2866(6) 0.0494(4)
H1 H -0.2453 0.2374 0.1000
C2 C -0.3684(7) 0.3283(7) 0.0264(5)
H2 H -0.4355 0.3056 0.0614
C3 C -0.3858(7) 0.4012(7) -0.0453(5)
H3 H -0.4643 0.4298 -0.0596
C4 C -0.2883(7) 0.4327(6) -0.0968(5)
H4 H -0.2996 0.4840 -0.1466
C5 C -0.1729(7) 0.3895(6) -0.0759(4)
H5 H -0.1059 0.4096 -0.1122
C6 C -0.1558(6) 0.3170(6) -0.0018(4)
C7 C -0.0321(6) 0.2760(6) 0.0199(4)
C8 C 0.0079(6) 0.3168(6) 0.0758(4)
C9 C -0.0587(6) 0.4089(6) 0.1190(4)
C10 C -0.1542(6) 0.4967(6) 0.0892(5)
H6 H -0.1755 0.4978 0.0393
C11 C -0.2170(7) 0.5808(6) 0.1314(4)
H7 H -0.2832 0.6370 0.1115
C12 C -0.1843(7) 0.5838(7) 0.2029(5)
H8 H -0.2277 0.6421 0.2316
C13 C -0.0884(6) 0.5017(6) 0.2320(4)
H9 H -0.0664 0.5036 0.2810
C14 C -0.0226(6) 0.4148(6) 0.1896(4)
C15 C 0.0822(6) 0.3302(6) 0.2179(4)
C16 C 0.1567(6) 0.2635(6) 0.1699(4)
C17 C 0.2153(6) 0.2234(6) 0.0365(4)
C18 C 0.1717(6) 0.1710(6) -0.0179(4)
C19 C 0.2537(6) 0.0991(7) -0.0633(4)
H10 H 0.3370 0.0893 -0.0613
C20 C 0.2144(7) 0.0425(7) -0.1108(4)
H11 H 0.2693 -0.0066 -0.1419
C21 C 0.0919(6) 0.0597(6) -0.1118(4)
C22 C 0.0093(6) 0.1327(6) -0.0707(4)
H12 H -0.0734 0.1430 -0.0744
C23 C 0.0485(6) 0.1933(6) -0.0222(4)
C24 C 0.1016(6) 0.3128(6) 0.3036(4)
H13 H 0.0920 0.3914 0.3172
H14 H 0.1842 0.2692 0.3105
C25 C 0.0123(7) 0.2426(7) 0.3591(4)
H15 H -0.0689 0.2776 0.3443
H16 H 0.0323 0.1594 0.3517
C26 C 0.0109(8) 0.2419(8) 0.4443(5)
H17 H 0.0923 0.2143 0.4583
H18 H -0.0408 0.1883 0.4767
H19 H -0.0199 0.3227 0.4535
C27 C 0.2646(6) 0.1725(6) 0.1960(4)
H20 H 0.2872 0.1151 0.1607
H21 H 0.2422 0.1278 0.2499
C28 C 0.3742(6) 0.2256(7) 0.1964(4)
H22 H 0.3898 0.2801 0.1451
H23 H 0.3565 0.2728 0.2380
C29 C 0.4850(7) 0.1310(8) 0.2108(6)
H24 H 0.4708 0.0780 0.2623
H25 H 0.5523 0.1690 0.2102
H26 H 0.5036 0.0846 0.1694
O4 O 0.5825(4) 0.7775(5) 0.2740(3)
O5 O 0.8012(5) 1.0475(5) 0.5091(3)
O6 O 0.6864(5) 0.9730(5) 0.6110(3)
N3 N 0.4282(5) 0.7425(5) 0.3726(3)
N4 N 0.7241(5) 0.9878(5) 0.5400(4)
C30 C 0.3267(6) 0.7311(6) 0.6373(4)
H27 H 0.2639 0.7830 0.6108
C31 C 0.3088(7) 0.6924(7) 0.7185(5)
H28 H 0.2343 0.7192 0.7474
C32 C 0.3994(7) 0.6144(7) 0.7577(4)
H29 H 0.3862 0.5864 0.8131
C33 C 0.5087(7) 0.5777(7) 0.7156(5)
H30 H 0.5707 0.5242 0.7421
C34 C 0.5277(6) 0.6193(6) 0.6345(4)
H31 H 0.6039 0.5964 0.6061
C35 C 0.4362(6) 0.6942(6) 0.5946(4)
C36 C 0.4568(6) 0.7333(6) 0.5065(4)
C37 C 0.4027(6) 0.6996(6) 0.4553(4)
C38 C 0.3215(6) 0.6125(6) 0.4764(4)
C39 C 0.3219(6) 0.5269(6) 0.5482(4)
H32 H 0.3745 0.5247 0.5845
C40 C 0.2459(6) 0.4465(6) 0.5655(5)
H33 H 0.2458 0.3900 0.6141
C41 C 0.1687(6) 0.4476(7) 0.5119(5)
H34 H 0.1158 0.3929 0.5243
C42 C 0.1706(6) 0.5283(6) 0.4419(5)
H35 H 0.1189 0.5280 0.4057
C43 C 0.2463(6) 0.6118(6) 0.4215(4)
C44 C 0.2515(6) 0.6941(6) 0.3453(4)
C45 C 0.3432(6) 0.7531(6) 0.3201(4)
C46 C 0.5359(6) 0.7796(6) 0.3417(4)
C47 C 0.5851(6) 0.8306(6) 0.3947(4)
C48 C 0.6705(6) 0.9022(6) 0.3616(4)
H36 H 0.6967 0.9148 0.3066
C49 C 0.7166(6) 0.9544(6) 0.4087(4)
H37 H 0.7733 1.0044 0.3872
C50 C 0.6766(6) 0.9305(6) 0.4893(4)
C51 C 0.5931(6) 0.8617(6) 0.5242(4)
H38 H 0.5688 0.8493 0.5795
C52 C 0.5435(6) 0.8092(6) 0.4758(4)
C53 C 0.1511(7) 0.7151(7) 0.2967(5)
H39 H 0.1380 0.6374 0.2913
H40 H 0.1741 0.7607 0.2433
C54 C 0.0324(7) 0.7847(8) 0.3344(5)
H41 H -0.0302 0.7982 0.2999
H42 H 0.0058 0.7358 0.3859
C55 C 0.0466(7) 0.9060(8) 0.3469(5)
H43 H 0.1129 0.8938 0.3775
H44 H -0.0274 0.9428 0.3754
H45 H 0.0633 0.9584 0.2956
C56 C 0.3516(6) 0.8430(6) 0.2436(4)
H46 H 0.4046 0.8963 0.2468
H47 H 0.2711 0.8924 0.2369
C57 C 0.3988(7) 0.7891(7) 0.1704(4)
H48 H 0.4833 0.7484 0.1729
H49 H 0.3519 0.7290 0.1696
C58 C 0.3904(8) 0.8851(8) 0.0947(5)
H50 H 0.3078 0.9291 0.0938
H51 H 0.4148 0.8476 0.0490
H52 H 0.4432 0.9403 0.0930
loop_
_geom_bond_atom_site_label_1
_geom_bond_atom_site_label_2
_geom_bond_site_symmetry_1
_geom_bond_site_symmetry_2
O1 C17 1_555 1_555
O2 N2 1_555 1_555
O3 N2 1_555 1_555
O4 C46 1_555 1_555
O5 N4 1_555 1_555
O6 N4 1_555 1_555
N1 C8 1_555 1_555
N2 C21 1_555 1_555
N3 C37 1_555 1_555
N4 C50 1_555 1_555
C1 H1 1_555 1_555
C2 C1 1_555 1_555
H2 C2 1_555 1_555
C3 C2 1_555 1_555
H3 C3 1_555 1_555
C4 C3 1_555 1_555
H4 C4 1_555 1_555
C5 C4 1_555 1_555
H5 C5 1_555 1_555
C6 C1 1_555 1_555
C7 C6 1_555 1_555
C8 C7 1_555 1_555
C9 C8 1_555 1_555
C10 C9 1_555 1_555
H6 C10 1_555 1_555
C11 C10 1_555 1_555
H7 C11 1_555 1_555
C12 C11 1_555 1_555
H8 C12 1_555 1_555
C13 C12 1_555 1_555
H9 C13 1_555 1_555
C14 C9 1_555 1_555
C15 C14 1_555 1_555
C16 N1 1_555 1_555
C17 N1 1_555 1_555
C18 C17 1_555 1_555
C19 C18 1_555 1_555
H10 C19 1_555 1_555
C20 C19 1_555 1_555
H11 C20 1_555 1_555
C21 C20 1_555 1_555
C22 C21 1_555 1_555
H12 C22 1_555 1_555
C23 C7 1_555 1_555
C24 C15 1_555 1_555
H13 C24 1_555 1_555
H14 C24 1_555 1_555
C25 C24 1_555 1_555
H15 C25 1_555 1_555
H16 C25 1_555 1_555
C26 C25 1_555 1_555
H17 C26 1_555 1_555
H18 C26 1_555 1_555
H19 C26 1_555 1_555
C27 C16 1_555 1_555
H20 C27 1_555 1_555
H21 C27 1_555 1_555
C28 C27 1_555 1_555
H22 C28 1_555 1_555
H23 C28 1_555 1_555
C29 C28 1_555 1_555
H24 C29 1_555 1_555
H25 C29 1_555 1_555
H26 C29 1_555 1_555
C30 H27 1_555 1_555
C31 C30 1_555 1_555
H28 C31 1_555 1_555
C32 C31 1_555 1_555
H29 C32 1_555 1_555
C33 C32 1_555 1_555
H30 C33 1_555 1_555
C34 C33 1_555 1_555
H31 C34 1_555 1_555
C35 C30 1_555 1_555
C36 C35 1_555 1_555
C37 C36 1_555 1_555
C38 C37 1_555 1_555
C39 C38 1_555 1_555
H32 C39 1_555 1_555
C40 C39 1_555 1_555
H33 C40 1_555 1_555
C41 C40 1_555 1_555
H34 C41 1_555 1_555
C42 C41 1_555 1_555
H35 C42 1_555 1_555
C43 C38 1_555 1_555
C44 C43 1_555 1_555
C45 N3 1_555 1_555
C46 N3 1_555 1_555
C47 C46 1_555 1_555
C48 C47 1_555 1_555
H36 C48 1_555 1_555
C49 C48 1_555 1_555
H37 C49 1_555 1_555
C50 C49 1_555 1_555
C51 C50 1_555 1_555
H38 C51 1_555 1_555
C52 C36 1_555 1_555
C53 C44 1_555 1_555
H39 C53 1_555 1_555
H40 C53 1_555 1_555
C54 C53 1_555 1_555
H41 C54 1_555 1_555
H42 C54 1_555 1_555
C55 C54 1_555 1_555
H43 C55 1_555 1_555
H44 C55 1_555 1_555
H45 C55 1_555 1_555
C56 C45 1_555 1_555
H46 C56 1_555 1_555
H47 C56 1_555 1_555
C57 C56 1_555 1_555
H48 C57 1_555 1_555
H49 C57 1_555 1_555
C58 C57 1_555 1_555
H50 C58 1_555 1_555
H51 C58 1_555 1_555
H52 C58 1_555 1_555
C5 C6 1_555 1_555
C13 C14 1_555 1_555
C15 C16 1_555 1_555
C18 C23 1_555 1_555
C22 C23 1_555 1_555
C34 C35 1_555 1_555
C42 C43 1_555 1_555
C44 C45 1_555 1_555
C47 C52 1_555 1_555
C51 C52 1_555 1_555

#END
