
#######################################################################
#
#                 Cambridge Crystallographic Data Centre
#                                CCDC 
#
#######################################################################
#
# If this CIF has been generated from an entry in the Cambridge 
# Structural Database, then it will include bibliographic, chemical, 
# crystal, experimental, refinement or atomic coordinate data resulting 
# from the CCDC's data processing and validation procedures.
#
#######################################################################

data_HEJYIH
_chemical_formula_moiety         'C14 H14 O6'
_chemical_name_systematic        
decahydronaphtho[1,8-cd:4,5-c'd']dipyran-1,3,6,8-tetrone
_symmetry_cell_setting           monoclinic
_symmetry_space_group_name_H-M   'P 21/c'
_symmetry_Int_Tables_number      14
_space_group_name_Hall           '-P 2ybc'
loop_
_symmetry_equiv_pos_site_id
_symmetry_equiv_pos_as_xyz
1 x,y,z
2 -x,1/2+y,1/2-z
3 -x,-y,-z
4 x,1/2-y,1/2+z
_cell_length_a                   10.7247(11)
_cell_length_b                   7.7401(8)
_cell_length_c                   14.5763(16)
_cell_angle_alpha                90
_cell_angle_beta                 102.544(2)
_cell_angle_gamma                90
_cell_volume                     1181.1
_exptl_crystal_colour            colorless
_exptl_crystal_description       plate
_cell_formula_units_Z            4
loop_
_atom_site_label
_atom_site_type_symbol
_atom_site_fract_x
_atom_site_fract_y
_atom_site_fract_z
O1 O 0.9998(2) 0.0385(3) 0.37067(16)
C1 C 0.6808(3) 0.0607(4) 0.37784(19)
H1 H 0.5916 0.1064 0.3672
O2 O 0.6104(2) -0.1293(4) 0.51928(19)
C2 C 0.7448(3) 0.1437(4) 0.30311(19)
H2 H 0.6761 0.2040 0.2569
O3 O 0.9583(3) -0.2128(3) 0.3028(2)
O4 O 1.0552(2) 0.2814(4) 0.4419(2)
C3 C 0.9220(3) -0.0683(5) 0.3071(2)
C4 C 0.8443(3) 0.2795(4) 0.3445(2)
H3 H 0.8568 0.3540 0.2912
C5 C 0.8042(3) 0.0100(4) 0.2483(2)
H4 H 0.8312 0.0735 0.1962
O5 O 0.5328(3) -0.3350(4) 0.4201(3)
C6 C 0.6721(3) -0.1346(4) 0.3676(2)
H5 H 0.7611 -0.1804 0.3866
O6 O 0.6877(3) 0.0662(4) 0.62521(18)
C7 C 0.7467(3) 0.1047(4) 0.4777(2)
H6 H 0.8345 0.0543 0.4878
C8 C 0.6824(4) 0.0173(5) 0.5468(2)
C9 C 0.9717(3) 0.2078(5) 0.3894(2)
C10 C 0.5986(3) -0.2101(5) 0.4330(3)
C11 C 0.7913(4) 0.3963(5) 0.4122(3)
H7 H 0.8537 0.4893 0.4350
H8 H 0.7114 0.4511 0.3777
C12 C 0.6216(4) -0.1877(5) 0.2666(3)
H9 H 0.5354 -0.1377 0.2439
H10 H 0.6137 -0.3150 0.2630
C13 C 0.7097(4) -0.1269(5) 0.2028(2)
H11 H 0.7574 -0.2275 0.1862
H12 H 0.6569 -0.0799 0.1439
C14 C 0.7640(4) 0.2978(5) 0.4964(3)
H13 H 0.8356 0.3160 0.5511
H14 H 0.6857 0.3450 0.5124
loop_
_geom_bond_atom_site_label_1
_geom_bond_atom_site_label_2
_geom_bond_site_symmetry_1
_geom_bond_site_symmetry_2
O1 C3 1_555 1_555
C1 H1 1_555 1_555
O2 C8 1_555 1_555
C2 C1 1_555 1_555
H2 C2 1_555 1_555
O3 C3 1_555 1_555
O4 C9 1_555 1_555
C3 C5 1_555 1_555
C4 C2 1_555 1_555
H3 C4 1_555 1_555
C5 C2 1_555 1_555
H4 C5 1_555 1_555
O5 C10 1_555 1_555
C6 C1 1_555 1_555
H5 C6 1_555 1_555
O6 C8 1_555 1_555
C7 C1 1_555 1_555
H6 C7 1_555 1_555
C8 C7 1_555 1_555
C9 O1 1_555 1_555
C10 O2 1_555 1_555
C11 C4 1_555 1_555
H7 C11 1_555 1_555
H8 C11 1_555 1_555
C12 C6 1_555 1_555
H9 C12 1_555 1_555
H10 C12 1_555 1_555
C13 C5 1_555 1_555
H11 C13 1_555 1_555
H12 C13 1_555 1_555
C14 C7 1_555 1_555
H13 C14 1_555 1_555
H14 C14 1_555 1_555
C4 C9 1_555 1_555
C6 C10 1_555 1_555
C11 C14 1_555 1_555
C12 C13 1_555 1_555

#END
