
#######################################################################
#
#                 Cambridge Crystallographic Data Centre
#                                CCDC 
#
#######################################################################
#
# If this CIF has been generated from an entry in the Cambridge 
# Structural Database, then it will include bibliographic, chemical, 
# crystal, experimental, refinement or atomic coordinate data resulting 
# from the CCDC's data processing and validation procedures.
#
#######################################################################

data_HEJYOK
_chemical_formula_moiety         'C23 H20 N4 O1'
_chemical_name_systematic        
10,11-bis(3',6'-bis(2''-Pyridyl)-4',5'-pyridazino)tricyclo(6.3.0.0^2,6^)undecan-3-one
_symmetry_cell_setting           monoclinic
_symmetry_space_group_name_H-M   'P 21/n'
_symmetry_Int_Tables_number      14
_space_group_name_Hall           '-P 2yn'
loop_
_symmetry_equiv_pos_site_id
_symmetry_equiv_pos_as_xyz
1 x,y,z
2 1/2-x,1/2+y,1/2-z
3 -x,-y,-z
4 1/2+x,1/2-y,1/2+z
_cell_length_a                   9.6105(8)
_cell_length_b                   12.754(1)
_cell_length_c                   15.892(1)
_cell_angle_alpha                90
_cell_angle_beta                 106.880(6)
_cell_angle_gamma                90
_cell_volume                     1863.99
_exptl_crystal_colour            'pale yellow'
_chemical_melting_point          189-190deg.C
_cell_formula_units_Z            4
loop_
_atom_site_label
_atom_site_type_symbol
_atom_site_fract_x
_atom_site_fract_y
_atom_site_fract_z
O1 O 0.7881(3) -0.1767(3) 0.1672(2)
N1 N 1.0837(4) 0.0249(3) 0.1942(2)
N2 N 1.0450(4) 0.0911(3) 0.1253(2)
N3 N 1.0011(4) -0.0544(3) 0.3852(2)
N4 N 0.8100(4) 0.2943(3) 0.0342(2)
C1 C 0.4989(5) -0.0674(4) 0.2331(3)
C2 C 0.4317(5) -0.1722(4) 0.1957(3)
C3 C 0.5355(5) -0.2150(4) 0.1475(3)
C4 C 0.6782(5) -0.1605(4) 0.1865(3)
C5 C 0.6620(4) -0.0825(4) 0.2559(3)
C6 C 0.7267(5) 0.0286(4) 0.2562(3)
C7 C 0.8501(4) 0.0446(3) 0.2166(3)
C8 C 0.8111(4) 0.1124(3) 0.1461(3)
C9 C 0.6570(5) 0.1492(4) 0.1282(3)
C10 C 0.5995(5) 0.0962(4) 0.1982(3)
C11 C 0.4721(5) 0.0215(4) 0.1656(3)
C12 C 0.9904(4) 0.0034(3) 0.2397(3)
C13 C 0.9134(4) 0.1351(4) 0.1020(3)
C14 C 1.0509(4) -0.0676(3) 0.3157(3)
C15 C 1.0614(5) -0.1148(4) 0.4563(3)
C16 C 1.1658(5) -0.1877(4) 0.4596(3)
C17 C 1.2135(5) -0.2028(4) 0.3871(3)
C18 C 1.1554(4) -0.1403(4) 0.3138(3)
C19 C 0.8929(5) 0.2122(4) 0.0296(3)
C20 C 0.7964(6) 0.3689(5) -0.0280(4)
C21 C 0.8636(6) 0.3640(5) -0.0929(4)
C22 C 0.9426(5) 0.2795(4) -0.0973(3)
C23 C 0.9618(5) 0.2010(4) -0.0350(3)
H1 H 0.4589 -0.0497 0.2793
H2 H 0.3372 -0.1621 0.1562
H3 H 0.4260 -0.2182 0.2415
H4 H 0.4996 -0.2002 0.0863
H5 H 0.5466 -0.2886 0.1559
H6 H 0.7130 -0.1108 0.3115
H7 H 0.7662 0.0455 0.3166
H8 H 0.6009 0.1285 0.0709
H9 H 0.6537 0.2232 0.1333
H10 H 0.5658 0.1518 0.2269
H11 H 0.3832 0.0562 0.1623
H12 H 0.4688 -0.0051 0.1091
H13 H 1.0288 -0.1057 0.5068
H14 H 1.2054 -0.2277 0.5114
H15 H 1.2843 -0.2546 0.3869
H16 H 1.1874 -0.1476 0.2629
H17 H 0.7369 0.4279 -0.0265
H18 H 0.8523 0.4192 -0.1344
H19 H 0.9927 0.2741 -0.1422
H20 H 1.0188 0.1406 -0.0366
loop_
_geom_bond_atom_site_label_1
_geom_bond_atom_site_label_2
_geom_bond_site_symmetry_1
_geom_bond_site_symmetry_2
O1 C4 1_555 1_555
N1 N2 1_555 1_555
N2 C13 1_555 1_555
N3 C14 1_555 1_555
N4 C19 1_555 1_555
C1 C2 1_555 1_555
C2 C3 1_555 1_555
C3 C4 1_555 1_555
C4 C5 1_555 1_555
C5 C1 1_555 1_555
C6 C5 1_555 1_555
C7 C6 1_555 1_555
C8 C7 1_555 1_555
C9 C8 1_555 1_555
C10 C6 1_555 1_555
C11 C1 1_555 1_555
C12 N1 1_555 1_555
C13 C8 1_555 1_555
C14 C12 1_555 1_555
C15 N3 1_555 1_555
C16 C15 1_555 1_555
C17 C16 1_555 1_555
C18 C14 1_555 1_555
C19 C13 1_555 1_555
C20 N4 1_555 1_555
C21 C20 1_555 1_555
C22 C21 1_555 1_555
C23 C19 1_555 1_555
H1 C1 1_555 1_555
H2 C2 1_555 1_555
H3 C2 1_555 1_555
H4 C3 1_555 1_555
H5 C3 1_555 1_555
H6 C5 1_555 1_555
H7 C6 1_555 1_555
H8 C9 1_555 1_555
H9 C9 1_555 1_555
H10 C10 1_555 1_555
H11 C11 1_555 1_555
H12 C11 1_555 1_555
H13 C15 1_555 1_555
H14 C16 1_555 1_555
H15 C17 1_555 1_555
H16 C18 1_555 1_555
H17 C20 1_555 1_555
H18 C21 1_555 1_555
H19 C22 1_555 1_555
H20 C23 1_555 1_555
C7 C12 1_555 1_555
C9 C10 1_555 1_555
C10 C11 1_555 1_555
C17 C18 1_555 1_555
C22 C23 1_555 1_555

#END
