
#######################################################################
#
#                 Cambridge Crystallographic Data Centre
#                                CCDC 
#
#######################################################################
#
# If this CIF has been generated from an entry in the Cambridge 
# Structural Database, then it will include bibliographic, chemical, 
# crystal, experimental, refinement or atomic coordinate data resulting 
# from the CCDC's data processing and validation procedures.
#
#######################################################################

data_HEJYEC
_chemical_formula_moiety         'C30 H20 N2 O3'
_chemical_name_systematic        
5-Methyl-11-nitro-6,13-diphenyl-8H-isoquinolino[3,2-a]isoquinolin-8-one
_symmetry_cell_setting           triclinic
_symmetry_space_group_name_H-M   'P -1'
_symmetry_Int_Tables_number      2
_space_group_name_Hall           '-P 1'
loop_
_symmetry_equiv_pos_site_id
_symmetry_equiv_pos_as_xyz
1 x,y,z
2 -x,-y,-z
_cell_length_a                   9.454(11)
_cell_length_b                   10.684(12)
_cell_length_c                   12.421(14)
_cell_angle_alpha                96.084(13)
_cell_angle_beta                 108.967(16)
_cell_angle_gamma                105.061(14)
_cell_volume                     1120.54
_exptl_crystal_colour            colorless
_exptl_crystal_description       prism
_cell_formula_units_Z            2
loop_
_atom_site_label
_atom_site_type_symbol
_atom_site_fract_x
_atom_site_fract_y
_atom_site_fract_z
O1 O -0.04162(11) 0.56879(9) -0.13216(8)
O2 O 0.05659(11) 0.41196(9) -0.16213(9)
O3 O 0.73831(9) 0.75117(8) 0.31357(7)
N1 N 0.06632(12) 0.51990(10) -0.10905(9)
N2 N 0.63594(11) 0.92429(10) 0.32907(9)
C1 C 0.21539(14) 0.59457(12) -0.01163(11)
C2 C 0.32223(15) 0.52685(13) 0.03333(11)
H1 H 0.3018 0.4363 0.0014
C3 C 0.45820(15) 0.59722(13) 0.12583(12)
H2 H 0.5326 0.5540 0.1598
C4 C 0.48904(13) 0.73225(12) 0.17110(11)
C5 C 0.63253(14) 0.79916(12) 0.27377(11)
C6 C 0.72160(13) 0.96912(12) 0.45245(11)
C7 C 0.76445(13) 1.09889(12) 0.50261(11)
C8 C 0.73792(13) 1.19463(12) 0.42813(11)
C9 C 0.81017(14) 1.33265(13) 0.47213(12)
H3 H 0.8717 1.3644 0.5527
C10 C 0.79276(14) 1.42219(13) 0.39989(12)
H4 H 0.8409 1.5146 0.4309
C11 C 0.70413(14) 1.37582(12) 0.28138(11)
H5 H 0.6970 1.4367 0.2309
C12 C 0.62604(14) 1.24136(12) 0.23634(11)
H6 H 0.5642 1.2115 0.1556
C13 C 0.63765(13) 1.14876(12) 0.30926(11)
C14 C 0.55688(13) 1.00429(12) 0.26356(10)
C15 C 0.42553(13) 0.94403(11) 0.16415(10)
C16 C 0.38279(13) 0.80100(12) 0.12194(10)
C17 C 0.24054(13) 0.72666(12) 0.02977(11)
H7 H 0.1630 0.7673 -0.0033
C18 C 0.73612(14) 0.86096(12) 0.51856(10)
C19 C 0.59928(14) 0.76771(12) 0.51501(11)
H8 H 0.4994 0.7743 0.4712
C20 C 0.60749(15) 0.66517(13) 0.57488(11)
H9 H 0.5138 0.6033 0.5731
C21 C 0.75374(16) 0.65375(13) 0.63733(11)
H10 H 0.7599 0.5823 0.6763
C22 C 0.89116(16) 0.74728(14) 0.64263(11)
H11 H 0.9909 0.7403 0.6864
C23 C 0.88262(14) 0.85053(13) 0.58424(11)
H12 H 0.9766 0.9144 0.5889
C24 C 0.84243(15) 1.14878(13) 0.63351(11)
H13 H 0.8325 1.0734 0.6722
H14 H 0.7910 1.2083 0.6591
H15 H 0.9541 1.1969 0.6538
C25 C 0.32485(13) 1.01728(11) 0.09485(11)
C26 C 0.25667(13) 1.09557(11) 0.14679(11)
H16 H 0.2758 1.1040 0.2276
C27 C 0.16104(14) 1.16121(12) 0.08105(11)
H17 H 0.1169 1.2149 0.1176
C28 C 0.12990(14) 1.14856(12) -0.03762(11)
H18 H 0.0646 1.1933 -0.0821
C29 C 0.19536(14) 1.06946(12) -0.09094(11)
H19 H 0.1734 1.0595 -0.1722
C30 C 0.29236(13) 1.00546(12) -0.02560(11)
H20 H 0.3375 0.9530 -0.0625
loop_
_geom_bond_atom_site_label_1
_geom_bond_atom_site_label_2
_geom_bond_site_symmetry_1
_geom_bond_site_symmetry_2
O1 N1 1_555 1_555
O2 N1 1_555 1_555
O3 C5 1_555 1_555
N1 C1 1_555 1_555
N2 C5 1_555 1_555
C1 C2 1_555 1_555
C2 H1 1_555 1_555
C3 C2 1_555 1_555
H2 C3 1_555 1_555
C4 C3 1_555 1_555
C5 C4 1_555 1_555
C6 N2 1_555 1_555
C7 C6 1_555 1_555
C8 C7 1_555 1_555
C9 C8 1_555 1_555
H3 C9 1_555 1_555
C10 C9 1_555 1_555
H4 C10 1_555 1_555
C11 C10 1_555 1_555
H5 C11 1_555 1_555
C12 C11 1_555 1_555
H6 C12 1_555 1_555
C13 C8 1_555 1_555
C14 N2 1_555 1_555
C15 C14 1_555 1_555
C16 C4 1_555 1_555
C17 C1 1_555 1_555
H7 C17 1_555 1_555
C18 C6 1_555 1_555
C19 C18 1_555 1_555
H8 C19 1_555 1_555
C20 C19 1_555 1_555
H9 C20 1_555 1_555
C21 C20 1_555 1_555
H10 C21 1_555 1_555
C22 C21 1_555 1_555
H11 C22 1_555 1_555
C23 C18 1_555 1_555
H12 C23 1_555 1_555
C24 C7 1_555 1_555
H13 C24 1_555 1_555
H14 C24 1_555 1_555
H15 C24 1_555 1_555
C25 C15 1_555 1_555
C26 C25 1_555 1_555
H16 C26 1_555 1_555
C27 C26 1_555 1_555
H17 C27 1_555 1_555
C28 C27 1_555 1_555
H18 C28 1_555 1_555
C29 C28 1_555 1_555
H19 C29 1_555 1_555
C30 C25 1_555 1_555
H20 C30 1_555 1_555
C12 C13 1_555 1_555
C13 C14 1_555 1_555
C15 C16 1_555 1_555
C16 C17 1_555 1_555
C22 C23 1_555 1_555
C29 C30 1_555 1_555

#END
