
#######################################################################
#
#                 Cambridge Crystallographic Data Centre
#                                CCDC 
#
#######################################################################
#
# If this CIF has been generated from an entry in the Cambridge 
# Structural Database, then it will include bibliographic, chemical, 
# crystal, experimental, refinement or atomic coordinate data resulting 
# from the CCDC's data processing and validation procedures.
#
#######################################################################

data_HEKBII
_chemical_formula_moiety         'C22 H22 N2 O6,2(H2 O1)'
_chemical_name_systematic        
'(4S,11S)-(-)-4,11-Dimethyl-3,6,9,12-tetraoxa-23,26-diazatetracyclo(12.8.4.0^17,25^.0^20,24^)hexacosa-14,16,18,20,22(1),23,25-heptaene-2,13-dione dihydrate clathrate'
_symmetry_cell_setting           orthorhombic
_symmetry_space_group_name_H-M   'P 21 21 21'
_symmetry_Int_Tables_number      19
_space_group_name_Hall           'P 2ac 2ab'
loop_
_symmetry_equiv_pos_site_id
_symmetry_equiv_pos_as_xyz
1 x,y,z
2 1/2+x,1/2-y,-z
3 -x,1/2+y,1/2-z
4 1/2-x,-y,1/2+z
_cell_length_a                   11.647(4)
_cell_length_b                   12.058(3)
_cell_length_c                   16.010(5)
_cell_angle_alpha                90
_cell_angle_beta                 90
_cell_angle_gamma                90
_cell_volume                     2248.44
_chemical_melting_point          76-77deg.C
_cell_formula_units_Z            4
loop_
_atom_site_label
_atom_site_type_symbol
_atom_site_fract_x
_atom_site_fract_y
_atom_site_fract_z
C1 C -0.0613(22) 0.1205(19) 0.4763(16)
C2 C -0.0301(20) 0.0848(19) 0.5608(16)
C3 C 0.0904(21) 0.0889(19) 0.5678(17)
H1 H 0.1126 0.0696 0.6237
C4 C 0.1739(21) 0.1140(20) 0.5150(15)
H2 H 0.2541 0.1161 0.5290
C5 C 0.1255(22) 0.1452(21) 0.4369(17)
N1 N 0.0123(18) 0.1506(16) 0.4149(12)
C6 C 0.2070(25) 0.1828(24) 0.3682(20)
O1 O 0.3111(18) 0.1655(17) 0.3837(12)
O2 O 0.1668(12) 0.2182(12) 0.2996(11)
C7 C 0.2502(21) 0.2410(21) 0.2330(15)
H3 H 0.3203 0.2713 0.2549
C8 C 0.2775(20) 0.1375(21) 0.1891(14)
H4 H 0.3329 0.1520 0.1460
H5 H 0.3081 0.0841 0.2276
H6 H 0.2085 0.1088 0.1644
C9 C 0.1889(22) 0.3178(22) 0.1789(16)
H7 H 0.2412 0.3458 0.1377
H8 H 0.1621 0.3784 0.2125
O3 O 0.0998(17) 0.2674(17) 0.1376(13)
C10 C 0.0496(28) 0.3373(31) 0.0855(21)
H9 H 0.1024 0.3664 0.0451
H10 H 0.0140 0.3975 0.1151
C11 C -0.0395(26) 0.2819(26) 0.0438(16)
H11 H -0.0007 0.2171 0.0234
H12 H -0.0646 0.3245 -0.0034
O4 O -0.1470(20) 0.2439(20) 0.0866(15)
C12 C -0.1966(32) 0.3292(34) 0.1068(25)
H13 H -0.1543 0.3738 0.1457
H14 H -0.2139 0.3724 0.0580
C13 C -0.3017(27) 0.2913(26) 0.1436(22)
H15 H -0.3295 0.2328 0.1083
C14 C -0.4074(24) 0.3771(27) 0.1616(18)
H16 H -0.4282 0.4119 0.1099
H17 H -0.4711 0.3348 0.1824
H18 H -0.3869 0.4329 0.2017
O5 O -0.2886(16) 0.2475(15) 0.2313(12)
C15 C -0.3608(27) 0.1791(28) 0.2777(21)
O6 O -0.4428(19) 0.1502(20) 0.2394(14)
C16 C -0.3144(28) 0.1461(25) 0.3527(20)
C17 C -0.4036(25) 0.1137(20) 0.4092(17)
H19 H -0.4827 0.1102 0.3926
C18 C -0.3792(22) 0.0819(23) 0.4820(17)
H20 H -0.4339 0.0660 0.5252
C19 C -0.2617(28) 0.0753(27) 0.5167(22)
C20 C -0.1772(23) 0.1208(22) 0.4517(19)
N2 N -0.2075(18) 0.1497(17) 0.3759(13)
C21 C -0.2241(27) 0.0477(22) 0.5935(20)
H21 H -0.2824 0.0211 0.6309
C22 C -0.1224(22) 0.0514(21) 0.6147(16)
H22 H -0.1015 0.0334 0.6711
O7 O -0.0482(13) 0.0722(13) 0.2263(9)
O8 O 0.0886(17) -0.0974(16) 0.1511(11)
loop_
_geom_bond_atom_site_label_1
_geom_bond_atom_site_label_2
_geom_bond_site_symmetry_1
_geom_bond_site_symmetry_2
C1 C2 1_555 1_555
C2 C3 1_555 1_555
C3 H1 1_555 1_555
C4 C3 1_555 1_555
H2 C4 1_555 1_555
C5 C4 1_555 1_555
N1 C1 1_555 1_555
C6 C5 1_555 1_555
O1 C6 1_555 1_555
O2 C6 1_555 1_555
C7 O2 1_555 1_555
H3 C7 1_555 1_555
C8 C7 1_555 1_555
H4 C8 1_555 1_555
H5 C8 1_555 1_555
H6 C8 1_555 1_555
C9 C7 1_555 1_555
H7 C9 1_555 1_555
H8 C9 1_555 1_555
O3 C9 1_555 1_555
C10 O3 1_555 1_555
H9 C10 1_555 1_555
H10 C10 1_555 1_555
C11 C10 1_555 1_555
H11 C11 1_555 1_555
H12 C11 1_555 1_555
O4 C11 1_555 1_555
C12 O4 1_555 1_555
H13 C12 1_555 1_555
H14 C12 1_555 1_555
C13 C12 1_555 1_555
H15 C13 1_555 1_555
C14 C13 1_555 1_555
H16 C14 1_555 1_555
H17 C14 1_555 1_555
H18 C14 1_555 1_555
O5 C13 1_555 1_555
C15 O5 1_555 1_555
O6 C15 1_555 1_555
C16 C15 1_555 1_555
C17 C16 1_555 1_555
H19 C17 1_555 1_555
C18 C17 1_555 1_555
H20 C18 1_555 1_555
C19 C18 1_555 1_555
C20 C1 1_555 1_555
N2 C16 1_555 1_555
C21 C19 1_555 1_555
H21 C21 1_555 1_555
C22 C2 1_555 1_555
H22 C22 1_555 1_555
C5 N1 1_555 1_555
C19 C20 1_555 1_555
C20 N2 1_555 1_555
C21 C22 1_555 1_555

#END
