
#######################################################################
#
#                 Cambridge Crystallographic Data Centre
#                                CCDC 
#
#######################################################################
#
# If this CIF has been generated from an entry in the Cambridge 
# Structural Database, then it will include bibliographic, chemical, 
# crystal, experimental, refinement or atomic coordinate data resulting 
# from the CCDC's data processing and validation procedures.
#
#######################################################################

data_HEKBAA
_chemical_formula_moiety         'C15 H12 N2 O3'
_chemical_name_systematic        2-Nitrophenyl-(3-indolyl)methanol
_symmetry_cell_setting           orthorhombic
_symmetry_space_group_name_H-M   'P 21 21 21'
_symmetry_Int_Tables_number      19
_space_group_name_Hall           'P 2ac 2ab'
loop_
_symmetry_equiv_pos_site_id
_symmetry_equiv_pos_as_xyz
1 x,y,z
2 1/2+x,1/2-y,-z
3 -x,1/2+y,1/2-z
4 1/2-x,-y,1/2+z
_cell_length_a                   8.523(3)
_cell_length_b                   11.122(2)
_cell_length_c                   13.689(2)
_cell_angle_alpha                90
_cell_angle_beta                 90
_cell_angle_gamma                90
_cell_volume                     1297.62
_exptl_crystal_colour            colorless
_chemical_melting_point          196-198deg.C
_cell_formula_units_Z            4
loop_
_atom_site_label
_atom_site_type_symbol
_atom_site_fract_x
_atom_site_fract_y
_atom_site_fract_z
O1 O 0.2982(5) -0.0179(5) 0.4690(4)
O2 O 0.747(1) -0.2822(9) 0.4191(8)
O3 O 0.770(1) -0.134(1) 0.4995(6)
N1 N 0.6064(6) 0.3029(6) 0.5151(4)
N2 N 0.7298(9) -0.1746(7) 0.4316(6)
C1 C 0.5249(8) 0.2874(7) 0.5986(5)
C2 C 0.4955(9) 0.3623(7) 0.6759(6)
C3 C 0.4054(9) 0.3253(8) 0.7520(6)
C4 C 0.3443(9) 0.2074(8) 0.7519(5)
C5 C 0.3725(8) 0.1291(7) 0.6761(5)
C6 C 0.4635(8) 0.1698(7) 0.5970(5)
C7 C 0.5097(7) 0.1143(6) 0.5061(5)
C8 C 0.6003(8) 0.2004(8) 0.4633(5)
C9 C 0.4641(8) -0.0051(7) 0.4712(6)
C10 C 0.5343(8) -0.0309(7) 0.3702(5)
C11 C 0.4711(8) 0.0263(8) 0.2906(6)
C12 C 0.522(1) 0.0034(9) 0.1963(6)
C13 C 0.645(1) -0.0812(9) 0.1826(6)
C14 C 0.710(1) -0.1388(8) 0.2579(6)
C15 C 0.6523(9) -0.1149(7) 0.3521(6)
H1 H 0.277 -0.109 0.480
H2 H 0.693 0.389 0.500
loop_
_geom_bond_atom_site_label_1
_geom_bond_atom_site_label_2
_geom_bond_site_symmetry_1
_geom_bond_site_symmetry_2
O1 C9 1_555 1_555
O2 N2 1_555 1_555
O3 N2 1_555 1_555
N1 C1 1_555 1_555
N2 C15 1_555 1_555
C1 C2 1_555 1_555
C2 C3 1_555 1_555
C3 C4 1_555 1_555
C4 C5 1_555 1_555
C5 C6 1_555 1_555
C6 C1 1_555 1_555
C7 C6 1_555 1_555
C8 N1 1_555 1_555
C9 C7 1_555 1_555
C10 C9 1_555 1_555
C11 C10 1_555 1_555
C12 C11 1_555 1_555
C13 C12 1_555 1_555
C14 C13 1_555 1_555
C15 C10 1_555 1_555
H1 O1 1_555 1_555
H2 N1 1_555 1_555
C7 C8 1_555 1_555
C14 C15 1_555 1_555

#END
