
#######################################################################
#
#                 Cambridge Crystallographic Data Centre
#                                CCDC 
#
#######################################################################
#
# If this CIF has been generated from an entry in the Cambridge 
# Structural Database, then it will include bibliographic, chemical, 
# crystal, experimental, refinement or atomic coordinate data resulting 
# from the CCDC's data processing and validation procedures.
#
#######################################################################

data_HEKBIL
_chemical_formula_moiety         'C13 H12 F1 N1 O4'
_chemical_name_systematic        
3-ethenyl-7-fluoro-3-methyl-3a-nitro-2,3,3a,8b-tetrahydrofuro[3,2-b][1]benzofuran
_symmetry_cell_setting           monoclinic
_symmetry_space_group_name_H-M   'P 21'
_symmetry_Int_Tables_number      4
_space_group_name_Hall           'P 2yb'
loop_
_symmetry_equiv_pos_site_id
_symmetry_equiv_pos_as_xyz
1 x,y,z
2 -x,1/2+y,-z
_cell_length_a                   6.8537(4)
_cell_length_b                   7.3166(5)
_cell_length_c                   12.7643(8)
_cell_angle_alpha                90
_cell_angle_beta                 102.763(3)
_cell_angle_gamma                90
_cell_volume                     624.261
_exptl_crystal_colour            colorless
_exptl_crystal_description       block
_cell_formula_units_Z            2
loop_
_atom_site_label
_atom_site_type_symbol
_atom_site_fract_x
_atom_site_fract_y
_atom_site_fract_z
F1 F 0.6876(3) 0.4287(4) 0.40009(18)
O1 O 0.1416(3) 0.4762(3) 0.64899(16)
O2 O 0.5739(4) 0.3603(6) 0.8125(2)
O3 O 0.3047(6) 0.7724(5) 0.8542(3)
O4 O 0.0073(5) 0.7129(5) 0.7661(3)
N1 N 0.1857(5) 0.6796(4) 0.7931(2)
C1 C 0.2693(4) 0.4670(4) 0.5786(2)
C2 C 0.2051(5) 0.4457(5) 0.4695(2)
H1 H 0.069718 0.438404 0.437185
C3 C 0.3500(5) 0.4355(5) 0.4098(3)
H2 H 0.313805 0.422394 0.335580
C4 C 0.5487(5) 0.4450(5) 0.4614(3)
C5 C 0.6140(4) 0.4690(5) 0.5704(3)
H3 H 0.749310 0.476956 0.602750
C6 C 0.4680(4) 0.4806(4) 0.6294(2)
C7 C 0.4828(4) 0.5068(6) 0.7472(2)
H4 H 0.545486 0.623990 0.772093
C8 C 0.2589(4) 0.5026(5) 0.7538(2)
C9 C 0.2396(5) 0.3413(4) 0.8310(3)
C10 C 0.4240(7) 0.2302(6) 0.8162(4)
H5 H 0.467423 0.146756 0.875865
H6 H 0.392382 0.160210 0.750103
C11 C 0.2801(7) 0.4013(7) 0.9452(3)
H7 H 0.407871 0.444979 0.974604
C12 C 0.1535(11) 0.3985(10) 1.0082(5)
H8 H 0.023862 0.356006 0.982463
H9 H 0.192995 0.439068 1.078775
C13 C 0.0507(7) 0.2302(7) 0.7935(4)
H10 H -0.063268 0.302385 0.799631
H11 H 0.056502 0.122753 0.837248
H12 H 0.039072 0.195132 0.719944
loop_
_geom_bond_atom_site_label_1
_geom_bond_atom_site_label_2
_geom_bond_site_symmetry_1
_geom_bond_site_symmetry_2
F1 C4 1_555 1_555
O1 C1 1_555 1_555
O2 C7 1_555 1_555
O3 N1 1_555 1_555
O4 N1 1_555 1_555
N1 C8 1_555 1_555
C1 C2 1_555 1_555
C2 H1 1_555 1_555
C3 C2 1_555 1_555
H2 C3 1_555 1_555
C4 C3 1_555 1_555
C5 C4 1_555 1_555
H3 C5 1_555 1_555
C6 C1 1_555 1_555
C7 C6 1_555 1_555
H4 C7 1_555 1_555
C8 O1 1_555 1_555
C9 C8 1_555 1_555
C10 O2 1_555 1_555
H5 C10 1_555 1_555
H6 C10 1_555 1_555
C11 C9 1_555 1_555
H7 C11 1_555 1_555
C12 C11 1_555 1_555
H8 C12 1_555 1_555
H9 C12 1_555 1_555
C13 C9 1_555 1_555
H10 C13 1_555 1_555
H11 C13 1_555 1_555
H12 C13 1_555 1_555
C5 C6 1_555 1_555
C7 C8 1_555 1_555
C9 C10 1_555 1_555

#END
