
#######################################################################
#
#                 Cambridge Crystallographic Data Centre
#                                CCDC 
#
#######################################################################
#
# If this CIF has been generated from an entry in the Cambridge 
# Structural Database, then it will include bibliographic, chemical, 
# crystal, experimental, refinement or atomic coordinate data resulting 
# from the CCDC's data processing and validation procedures.
#
#######################################################################

data_HEKKEQ
_chemical_formula_moiety         'C22 H25 N1 O4'
_chemical_name_systematic        
't-butyl [(2-oxo-3-phenyloxolan-3-yl)(phenyl)methyl]carbamate'
_symmetry_cell_setting           monoclinic
_symmetry_space_group_name_H-M   'P 21/c'
_symmetry_Int_Tables_number      14
_space_group_name_Hall           '-P 2ybc'
loop_
_symmetry_equiv_pos_site_id
_symmetry_equiv_pos_as_xyz
1 x,y,z
2 -x,1/2+y,1/2-z
3 -x,-y,-z
4 x,1/2-y,1/2+z
_cell_length_a                   12.9187(5)
_cell_length_b                   14.5124(6)
_cell_length_c                   20.9443(9)
_cell_angle_alpha                90
_cell_angle_beta                 94.682(2)
_cell_angle_gamma                90
_cell_volume                     3913.56
_exptl_crystal_colour            colorless
_exptl_crystal_description       needle
_cell_formula_units_Z            8
loop_
_atom_site_label
_atom_site_type_symbol
_atom_site_fract_x
_atom_site_fract_y
_atom_site_fract_z
O1 O 0.41330(6) 0.15419(6) 0.38067(4)
O2 O 0.38678(6) 0.29075(6) 0.33321(4)
O3 O 0.73509(6) -0.00927(5) 0.30076(4)
O4 O 0.67128(6) -0.06103(5) 0.39282(4)
N1 N 0.60756(7) 0.06652(6) 0.34768(4)
H1 H 0.5654(11) 0.0644(10) 0.3767(7)
C1 C 0.44521(9) 0.21630(8) 0.34950(5)
C2 C 0.44768(9) 0.35775(8) 0.30028(6)
H2 H 0.476778 0.405384 0.330467
H3 H 0.404424 0.388244 0.265234
C3 C 0.53360(9) 0.30194(8) 0.27392(5)
H4 H 0.596519 0.339817 0.270067
H5 H 0.510924 0.275228 0.231581
C4 C 0.55302(8) 0.22640(7) 0.32506(5)
C5 C 0.62755(9) 0.26236(7) 0.38044(5)
C6 C 0.59210(9) 0.29198(8) 0.43807(6)
H6 H 0.520589 0.286036 0.444862
C7 C 0.66023(10) 0.33018(9) 0.48581(6)
H7 H 0.634594 0.351146 0.524495
C8 C 0.76450(10) 0.33780(8) 0.47739(6)
H8 H 0.811035 0.363070 0.510269
C9 C 0.80066(9) 0.30828(8) 0.42055(6)
H9 H 0.872580 0.312877 0.414555
C10 C 0.73278(9) 0.27190(8) 0.37204(5)
H10 H 0.758485 0.253385 0.332797
C11 C 0.59049(8) 0.13416(7) 0.29662(5)
H11 H 0.659112 0.146304 0.279357
C12 C 0.67679(8) -0.00248(7) 0.34337(5)
C13 C 0.73977(10) -0.14252(8) 0.40053(6)
C14 C 0.70364(12) -0.18664(9) 0.46047(6)
H12 H 0.744266 -0.242544 0.470609
H13 H 0.713391 -0.143225 0.496296
H14 H 0.629928 -0.202677 0.453251
C15 C 0.85275(10) -0.11251(9) 0.41065(7)
H15 H 0.897396 -0.167046 0.415695
H16 H 0.871188 -0.076822 0.373504
H17 H 0.862435 -0.074317 0.449263
C16 C 0.72130(10) -0.20710(8) 0.34369(6)
H18 H 0.767366 -0.260596 0.349697
H19 H 0.648842 -0.227761 0.340314
H20 H 0.735788 -0.174625 0.304371
C17 C 0.51663(8) 0.09959(7) 0.24101(5)
C18 C 0.42700(9) 0.05043(8) 0.25171(6)
H21 H 0.413031 0.035204 0.294278
C19 C 0.35782(9) 0.02342(8) 0.20088(6)
H22 H 0.296355 -0.008977 0.209003
C20 C 0.37790(9) 0.04341(8) 0.13860(6)
H23 H 0.330614 0.024751 0.103889
C21 C 0.46765(9) 0.09093(8) 0.12716(5)
H24 H 0.482202 0.104438 0.084421
C22 C 0.53657(9) 0.11896(7) 0.17808(5)
H25 H 0.597784 0.151609 0.169775
O5 O -0.08488(6) 0.60622(6) 0.37080(4)
O6 O -0.11081(6) 0.46695(6) 0.32751(4)
O7 O 0.24185(6) 0.76371(5) 0.29637(4)
O8 O 0.18140(6) 0.80717(6) 0.39144(4)
N2 N 0.10618(7) 0.69174(6) 0.33741(5)
H26 H 0.0658(11) 0.6925(10) 0.3674(7)
C23 C -0.05281(9) 0.54211(8) 0.34140(5)
C24 C -0.04977(9) 0.39775(8) 0.29658(6)
H27 H -0.093043 0.364962 0.262607
H28 H -0.020210 0.352172 0.328175
C25 C 0.03578(9) 0.45221(8) 0.26824(5)
H29 H 0.012625 0.476345 0.225221
H30 H 0.098903 0.414264 0.265303
C26 C 0.05503(8) 0.53089(7) 0.31727(5)
C27 C 0.12932(8) 0.49746(7) 0.37350(5)
C28 C 0.09319(9) 0.46571(8) 0.43047(5)
H31 H 0.021140 0.469034 0.436321
C29 C 0.16144(10) 0.42916(8) 0.47892(5)
H32 H 0.135654 0.407083 0.517272
C30 C 0.26625(10) 0.42501(8) 0.47126(5)
H33 H 0.312848 0.400099 0.504246
C31 C 0.30336(9) 0.45733(8) 0.41526(6)
H34 H 0.375767 0.455569 0.410275
C32 C 0.23560(9) 0.49227(8) 0.36635(5)
H35 H 0.261778 0.512804 0.327723
C33 C 0.09253(8) 0.62211(7) 0.28739(5)
H36 H 0.162556 0.609754 0.272123
C34 C 0.18220(8) 0.75566(7) 0.33804(5)
C35 C 0.24840(10) 0.88939(8) 0.40197(6)
C36 C 0.21462(10) 0.96236(8) 0.35287(6)
H37 H 0.258835 1.016920 0.359705
H38 H 0.221018 0.938071 0.309709
H39 H 0.142155 0.979280 0.357435
C37 C 0.22494(12) 0.91864(10) 0.46896(6)
H40 H 0.265602 0.973656 0.481566
H41 H 0.150752 0.932543 0.469318
H42 H 0.243332 0.868595 0.499193
C38 C 0.36295(10) 0.86533(9) 0.40076(6)
H43 H 0.404869 0.921231 0.407863
H44 H 0.382480 0.820493 0.434604
H45 H 0.375230 0.838777 0.359019
C39 C 0.02199(9) 0.65307(7) 0.22933(5)
C40 C 0.05039(9) 0.63341(8) 0.16806(6)
H46 H 0.114282 0.602943 0.162964
C41 C -0.01403(11) 0.65801(9) 0.11419(6)
H47 H 0.006161 0.644447 0.072608
C42 C -0.10744(11) 0.70221(9) 0.12112(7)
H48 H -0.151691 0.718483 0.084395
C43 C -0.13600(10) 0.72253(9) 0.18172(7)
H49 H -0.200007 0.752898 0.186624
C44 C -0.07138(9) 0.69868(8) 0.23551(6)
H50 H -0.091200 0.713687 0.276943
loop_
_geom_bond_atom_site_label_1
_geom_bond_atom_site_label_2
_geom_bond_site_symmetry_1
_geom_bond_site_symmetry_2
O1 C1 1_555 1_555
O2 C1 1_555 1_555
O3 C12 1_555 1_555
O4 C12 1_555 1_555
N1 H1 1_555 1_555
C1 C4 1_555 1_555
C2 O2 1_555 1_555
H2 C2 1_555 1_555
H3 C2 1_555 1_555
C3 C2 1_555 1_555
H4 C3 1_555 1_555
H5 C3 1_555 1_555
C4 C3 1_555 1_555
C5 C4 1_555 1_555
C6 C5 1_555 1_555
H6 C6 1_555 1_555
C7 C6 1_555 1_555
H7 C7 1_555 1_555
C8 C7 1_555 1_555
H8 C8 1_555 1_555
C9 C8 1_555 1_555
H9 C9 1_555 1_555
C10 C5 1_555 1_555
H10 C10 1_555 1_555
C11 N1 1_555 1_555
H11 C11 1_555 1_555
C12 N1 1_555 1_555
C13 O4 1_555 1_555
C14 C13 1_555 1_555
H12 C14 1_555 1_555
H13 C14 1_555 1_555
H14 C14 1_555 1_555
C15 C13 1_555 1_555
H15 C15 1_555 1_555
H16 C15 1_555 1_555
H17 C15 1_555 1_555
C16 C13 1_555 1_555
H18 C16 1_555 1_555
H19 C16 1_555 1_555
H20 C16 1_555 1_555
C17 C11 1_555 1_555
C18 C17 1_555 1_555
H21 C18 1_555 1_555
C19 C18 1_555 1_555
H22 C19 1_555 1_555
C20 C19 1_555 1_555
H23 C20 1_555 1_555
C21 C20 1_555 1_555
H24 C21 1_555 1_555
C22 C17 1_555 1_555
H25 C22 1_555 1_555
O5 C23 1_555 1_555
O6 C23 1_555 1_555
O7 C34 1_555 1_555
O8 C34 1_555 1_555
N2 H26 1_555 1_555
C23 C26 1_555 1_555
C24 O6 1_555 1_555
H27 C24 1_555 1_555
H28 C24 1_555 1_555
C25 C24 1_555 1_555
H29 C25 1_555 1_555
H30 C25 1_555 1_555
C26 C25 1_555 1_555
C27 C26 1_555 1_555
C28 C27 1_555 1_555
H31 C28 1_555 1_555
C29 C28 1_555 1_555
H32 C29 1_555 1_555
C30 C29 1_555 1_555
H33 C30 1_555 1_555
C31 C30 1_555 1_555
H34 C31 1_555 1_555
C32 C27 1_555 1_555
H35 C32 1_555 1_555
C33 N2 1_555 1_555
H36 C33 1_555 1_555
C34 N2 1_555 1_555
C35 O8 1_555 1_555
C36 C35 1_555 1_555
H37 C36 1_555 1_555
H38 C36 1_555 1_555
H39 C36 1_555 1_555
C37 C35 1_555 1_555
H40 C37 1_555 1_555
H41 C37 1_555 1_555
H42 C37 1_555 1_555
C38 C35 1_555 1_555
H43 C38 1_555 1_555
H44 C38 1_555 1_555
H45 C38 1_555 1_555
C39 C33 1_555 1_555
C40 C39 1_555 1_555
H46 C40 1_555 1_555
C41 C40 1_555 1_555
H47 C41 1_555 1_555
C42 C41 1_555 1_555
H48 C42 1_555 1_555
C43 C42 1_555 1_555
H49 C43 1_555 1_555
C44 C39 1_555 1_555
H50 C44 1_555 1_555
C4 C11 1_555 1_555
C9 C10 1_555 1_555
C21 C22 1_555 1_555
C26 C33 1_555 1_555
C31 C32 1_555 1_555
C43 C44 1_555 1_555

#END
