
#######################################################################
#
#                 Cambridge Crystallographic Data Centre
#                                CCDC 
#
#######################################################################
#
# If this CIF has been generated from an entry in the Cambridge 
# Structural Database, then it will include bibliographic, chemical, 
# crystal, experimental, refinement or atomic coordinate data resulting 
# from the CCDC's data processing and validation procedures.
#
#######################################################################

data_HEKNUJ
_chemical_name_common            3-phenyl-N-(1,3-thiazol-2-yl)prop-2-enamide
_chemical_formula_moiety         'C12 H10 N2 O1 S1'
_chemical_name_systematic        N-(thiazol-2-yl)cinnamamide
_symmetry_cell_setting           monoclinic
_symmetry_space_group_name_H-M   'P 21/n'
_symmetry_Int_Tables_number      14
_space_group_name_Hall           '-P 2yn'
loop_
_symmetry_equiv_pos_site_id
_symmetry_equiv_pos_as_xyz
1 x,y,z
2 1/2-x,1/2+y,1/2-z
3 -x,-y,-z
4 1/2+x,1/2-y,1/2+z
_cell_length_a                   11.8468(5)
_cell_length_b                   5.0098(2)
_cell_length_c                   18.0746(9)
_cell_angle_alpha                90
_cell_angle_beta                 91.0420(10)
_cell_angle_gamma                90
_cell_volume                     1072.55
_exptl_crystal_colour            yellow
_exptl_crystal_description       block
_cell_formula_units_Z            4
_exptl_crystal_recrystallization_method N,N-dimethylformamide
loop_
_atom_site_label
_atom_site_type_symbol
_atom_site_fract_x
_atom_site_fract_y
_atom_site_fract_z
S1 S 0.32198(3) 1.02494(8) 0.67693(2)
O1 O 0.21028(9) 0.6635(2) 0.59469(6)
N1 N 0.48135(9) 1.1589(3) 0.58966(7)
N2 N 0.36923(9) 0.8140(2) 0.54146(6)
H1 H 0.4130 0.8015 0.5042
C1 C 0.41386(13) 1.2709(3) 0.70446(9)
H2 H 0.4109 1.3610 0.7494
C2 C 0.39567(11) 0.9968(3) 0.59587(7)
C3 C 0.49018(12) 1.3152(3) 0.65258(9)
H3 H 0.5462 1.4440 0.6584
C4 C 0.27620(11) 0.6505(3) 0.54390(8)
C5 C 0.26518(12) 0.4627(3) 0.48142(8)
H4 H 0.3251 0.4405 0.4494
C6 C 0.17076(11) 0.3249(3) 0.47033(8)
H5 H 0.1122 0.3597 0.5025
C7 C 0.14835(11) 0.1244(3) 0.41310(7)
C8 C 0.23167(12) 0.0253(3) 0.36736(8)
H6 H 0.3048 0.0914 0.3716
C9 C 0.20708(14) -0.1700(3) 0.31574(9)
H7 H 0.2635 -0.2329 0.2852
C10 C 0.09920(14) -0.2725(3) 0.30911(8)
H8 H 0.0832 -0.4052 0.2745
C11 C 0.01573(13) -0.1781(3) 0.35371(9)
H9 H -0.0569 -0.2479 0.3496
C12 C 0.03916(12) 0.0210(3) 0.40494(9)
H10 H -0.0183 0.0865 0.4342
loop_
_geom_bond_atom_site_label_1
_geom_bond_atom_site_label_2
_geom_bond_site_symmetry_1
_geom_bond_site_symmetry_2
S1 C1 1_555 1_555
O1 C4 1_555 1_555
N1 C2 1_555 1_555
N2 H1 1_555 1_555
C1 H2 1_555 1_555
C2 S1 1_555 1_555
C3 N1 1_555 1_555
H3 C3 1_555 1_555
C4 N2 1_555 1_555
C5 C4 1_555 1_555
H4 C5 1_555 1_555
C6 C5 1_555 1_555
H5 C6 1_555 1_555
C7 C6 1_555 1_555
C8 C7 1_555 1_555
H6 C8 1_555 1_555
C9 C8 1_555 1_555
H7 C9 1_555 1_555
C10 C9 1_555 1_555
H8 C10 1_555 1_555
C11 C10 1_555 1_555
H9 C11 1_555 1_555
C12 C7 1_555 1_555
H10 C12 1_555 1_555
N2 C2 1_555 1_555
C1 C3 1_555 1_555
C11 C12 1_555 1_555

#END
