
#######################################################################
#
#                 Cambridge Crystallographic Data Centre
#                                CCDC 
#
#######################################################################
#
# If this CIF has been generated from an entry in the Cambridge 
# Structural Database, then it will include bibliographic, chemical, 
# crystal, experimental, refinement or atomic coordinate data resulting 
# from the CCDC's data processing and validation procedures.
#
#######################################################################

data_HELNOE
_chemical_formula_moiety         'C19 H15 N3 O4 S1,0.5(C2 H6 O1)'
_chemical_name_systematic        
"1'-methyl-3-(methylsulfanyl)-3a-nitro-3a,8b-dihydrospiro[1-benzofuro[2,3-c]pyrrole-1,3'-indol]-2'(1'H)-one ethanol solvate"
_symmetry_cell_setting           orthorhombic
_symmetry_space_group_name_H-M   'P 21 21 21'
_symmetry_Int_Tables_number      19
_space_group_name_Hall           'P 2ac 2ab'
loop_
_symmetry_equiv_pos_site_id
_symmetry_equiv_pos_as_xyz
1 x,y,z
2 1/2-x,-y,1/2+z
3 -x,1/2+y,1/2-z
4 1/2+x,1/2-y,-z
_cell_length_a                   10.87820(10)
_cell_length_b                   11.4217(2)
_cell_length_c                   31.5628(5)
_cell_angle_alpha                90
_cell_angle_beta                 90
_cell_angle_gamma                90
_cell_volume                     3921.6
_exptl_crystal_colour            colorless
_exptl_crystal_description       block
_cell_formula_units_Z            8
loop_
_atom_site_label
_atom_site_type_symbol
_atom_site_fract_x
_atom_site_fract_y
_atom_site_fract_z
S1 S 0.61528(8) 0.68513(9) 0.57179(3)
O1 O 0.5170(2) 0.7964(2) 0.48565(8)
N1 N 0.5311(3) 0.5209(2) 0.51853(8)
O2 O 0.2638(3) 0.4493(3) 0.52444(10)
N2 N 0.3487(3) 0.7642(3) 0.53142(10)
O3 O 0.3154(3) 0.7156(4) 0.56299(10)
C1 C 0.4496(3) 0.7074(3) 0.50447(9)
C2 C 0.3933(3) 0.6265(3) 0.47050(9)
H1 H 0.3034 0.6263 0.4724
C3 C 0.5294(3) 0.6265(3) 0.53058(9)
N3 N 0.3486(4) 0.3211(3) 0.47698(13)
C4 C 0.4464(3) 0.5047(3) 0.48242(9)
C5 C 0.3391(4) 0.4229(3) 0.49854(12)
C6 C 0.4355(3) 0.6880(3) 0.43079(9)
O4 O 0.3047(4) 0.8531(4) 0.51793(13)
C7 C 0.5028(3) 0.7852(3) 0.44201(11)
C8 C 0.5065(4) 0.4316(3) 0.44859(11)
C9 C 0.6067(4) 0.4525(4) 0.42401(14)
H2 H 0.6477 0.5239 0.4252
C10 C 0.4432(4) 0.3224(3) 0.44809(14)
C11 C 0.4142(4) 0.6659(4) 0.38849(11)
H3 H 0.3683 0.6015 0.3798
C12 C 0.5519(4) 0.8639(4) 0.41388(15)
H4 H 0.5969 0.9285 0.4228
C13 C 0.5309(4) 0.8419(6) 0.37206(17)
H5 H 0.5618 0.8934 0.3519
C14 C 0.4649(5) 0.7450(5) 0.35884(12)
H6 H 0.4537 0.7318 0.3300
C15 C 0.7079(4) 0.5622(4) 0.58631(14)
H7 H 0.7531 0.5355 0.5620
H8 H 0.6561 0.5003 0.5965
H9 H 0.7643 0.5848 0.6082
C16 C 0.5826(8) 0.2587(6) 0.3953(2)
H10 H 0.6075 0.2016 0.3762
C17 C 0.6464(6) 0.3626(6) 0.39672(18)
H11 H 0.7153 0.3734 0.3797
C18 C 0.4828(7) 0.2356(5) 0.4213(2)
H12 H 0.4438 0.1632 0.4207
C19 C 0.2629(7) 0.2244(4) 0.4824(3)
H13 H 0.3079 0.1537 0.4881
H14 H 0.2154 0.2147 0.4570
H15 H 0.2090 0.2408 0.5057
S2 S 0.85887(8) 1.18075(9) 0.73100(4)
O5 O 0.7437(2) 1.02687(19) 0.81109(7)
O6 O 0.6112(3) 0.8412(3) 0.66715(8)
N4 N 0.6491(2) 1.0639(2) 0.71458(9)
N5 N 0.8888(3) 0.9238(3) 0.76926(12)
N6 N 0.4156(3) 0.8854(3) 0.68872(9)
C20 C 0.5762(2) 0.9634(2) 0.72986(9)
O7 O 0.9474(3) 0.9183(4) 0.80123(13)
C21 C 0.6151(3) 0.8676(2) 0.80473(9)
C22 C 0.4524(3) 1.0025(2) 0.74625(10)
C23 C 0.6653(3) 0.9487(3) 0.83223(10)
C24 C 0.5400(3) 0.8883(3) 0.69098(10)
O8 O 0.9221(3) 0.8870(4) 0.73548(14)
C25 C 0.3620(3) 0.9552(3) 0.72030(11)
C26 C 0.7614(3) 0.9822(3) 0.77042(11)
C27 C 0.6605(2) 0.8927(2) 0.76103(9)
H16 H 0.6939 0.8223 0.7475
C28 C 0.7476(3) 1.0729(3) 0.73602(11)
C29 C 0.4217(3) 1.0763(3) 0.77913(12)
H17 H 0.4822 1.1091 0.7962
C30 C 0.2977(4) 1.1006(3) 0.78623(14)
H18 H 0.2748 1.1483 0.8088
C31 C 0.6404(4) 0.9526(3) 0.87462(12)
H19 H 0.6748 1.0090 0.8923
C32 C 0.5372(3) 0.7841(3) 0.82037(11)
H20 H 0.5034 0.7278 0.8026
C33 C 0.2094(4) 1.0545(4) 0.76000(17)
H21 H 0.1273 1.0731 0.7647
C34 C 0.2396(3) 0.9801(4) 0.72634(16)
H22 H 0.1793 0.9489 0.7088
C35 C 0.5096(4) 0.7849(4) 0.86314(12)
H23 H 0.4561 0.7291 0.8741
C36 C 0.5608(4) 0.8679(4) 0.88978(12)
H24 H 0.5414 0.8666 0.9185
C37 C 0.3488(5) 0.8203(5) 0.65643(15)
H25 H 0.3066 0.8740 0.6381
H26 H 0.2901 0.7695 0.6698
H27 H 0.4056 0.7744 0.6401
C38 C 0.8021(5) 1.2575(5) 0.68556(18)
H28 H 0.7959 1.2044 0.6621
H29 H 0.8576 1.3199 0.6785
H30 H 0.7225 1.2894 0.6918
O9 O 0.6596(8) 1.0373(8) 0.5938(3)
H31 H 0.6814 0.9829 0.6090
C39 C 0.5068(13) 1.0792(10) 0.5382(4)
H32 H 0.5205 1.0347 0.5129
H33 H 0.5551 1.1495 0.5373
H34 H 0.4213 1.0993 0.5402
C40 C 0.5423(15) 1.0098(9) 0.5749(5)
H35 H 0.4793 1.0189 0.5964
H36 H 0.5432 0.9281 0.5666
loop_
_geom_bond_atom_site_label_1
_geom_bond_atom_site_label_2
_geom_bond_site_symmetry_1
_geom_bond_site_symmetry_2
S1 C3 1_555 1_555
O1 C1 1_555 1_555
N1 C3 1_555 1_555
O2 C5 1_555 1_555
N2 O3 1_555 1_555
C1 N2 1_555 1_555
C2 C1 1_555 1_555
H1 C2 1_555 1_555
C3 C1 1_555 1_555
N3 C5 1_555 1_555
C4 N1 1_555 1_555
C5 C4 1_555 1_555
C6 C2 1_555 1_555
O4 N2 1_555 1_555
C7 O1 1_555 1_555
C8 C4 1_555 1_555
C9 C8 1_555 1_555
H2 C9 1_555 1_555
C10 N3 1_555 1_555
C11 C6 1_555 1_555
H3 C11 1_555 1_555
C12 C7 1_555 1_555
H4 C12 1_555 1_555
C13 C12 1_555 1_555
H5 C13 1_555 1_555
C14 C11 1_555 1_555
H6 C14 1_555 1_555
C15 S1 1_555 1_555
H7 C15 1_555 1_555
H8 C15 1_555 1_555
H9 C15 1_555 1_555
C16 H10 1_555 1_555
C17 C9 1_555 1_555
H11 C17 1_555 1_555
C18 C10 1_555 1_555
H12 C18 1_555 1_555
C19 N3 1_555 1_555
H13 C19 1_555 1_555
H14 C19 1_555 1_555
H15 C19 1_555 1_555
S2 C28 1_555 1_555
O5 C23 1_555 1_555
O6 C24 1_555 1_555
N4 C20 1_555 1_555
N5 O7 1_555 1_555
N6 C24 1_555 1_555
C20 C22 1_555 1_555
C21 C23 1_555 1_555
C22 C25 1_555 1_555
C23 C31 1_555 1_555
C24 C20 1_555 1_555
O8 N5 1_555 1_555
C25 N6 1_555 1_555
C26 O5 1_555 1_555
C27 C20 1_555 1_555
H16 C27 1_555 1_555
C28 N4 1_555 1_555
C29 C22 1_555 1_555
H17 C29 1_555 1_555
C30 C29 1_555 1_555
H18 C30 1_555 1_555
C31 H19 1_555 1_555
C32 C21 1_555 1_555
H20 C32 1_555 1_555
C33 C30 1_555 1_555
H21 C33 1_555 1_555
C34 C25 1_555 1_555
H22 C34 1_555 1_555
C35 C32 1_555 1_555
H23 C35 1_555 1_555
C36 C31 1_555 1_555
H24 C36 1_555 1_555
C37 N6 1_555 1_555
H25 C37 1_555 1_555
H26 C37 1_555 1_555
H27 C37 1_555 1_555
C38 S2 1_555 1_555
H28 C38 1_555 1_555
H29 C38 1_555 1_555
H30 C38 1_555 1_555
O9 H31 1_555 1_555
C39 H32 1_555 1_555
H33 C39 1_555 1_555
H34 C39 1_555 1_555
C40 O9 1_555 1_555
H35 C40 1_555 1_555
H36 C40 1_555 1_555
C2 C4 1_555 1_555
C6 C7 1_555 1_555
C8 C10 1_555 1_555
C13 C14 1_555 1_555
C16 C17 1_555 1_555
C16 C18 1_555 1_555
N5 C26 1_555 1_555
C21 C27 1_555 1_555
C26 C27 1_555 1_555
C26 C28 1_555 1_555
C33 C34 1_555 1_555
C35 C36 1_555 1_555
C39 C40 1_555 1_555

#END
