
#######################################################################
#
#                 Cambridge Crystallographic Data Centre
#                                CCDC 
#
#######################################################################
#
# If this CIF has been generated from an entry in the Cambridge 
# Structural Database, then it will include bibliographic, chemical, 
# crystal, experimental, refinement or atomic coordinate data resulting 
# from the CCDC's data processing and validation procedures.
#
#######################################################################

data_HEMCEK
_chemical_name_common            
(3,4-dimethoxyphenyl)-(2-methoxy-4-nitrosophenyl)amine
_chemical_formula_moiety         'C15 H16 N2 O4'
_chemical_name_systematic        
N-(3,4-dimethoxyphenyl)-2-methoxy-4-nitrosoaniline
_symmetry_cell_setting           monoclinic
_symmetry_space_group_name_H-M   'P 21/n'
_symmetry_Int_Tables_number      14
_space_group_name_Hall           '-P 2yn'
loop_
_symmetry_equiv_pos_site_id
_symmetry_equiv_pos_as_xyz
1 x,y,z
2 1/2-x,1/2+y,1/2-z
3 -x,-y,-z
4 1/2+x,1/2-y,1/2+z
_cell_length_a                   8.4029(4)
_cell_length_b                   8.0991(4)
_cell_length_c                   20.3727(11)
_cell_angle_alpha                90
_cell_angle_beta                 94.372(2)
_cell_angle_gamma                90
_cell_volume                     1382.45
_exptl_crystal_colour            yellow
_exptl_crystal_description       plates
_cell_formula_units_Z            4
loop_
_atom_site_label
_atom_site_type_symbol
_atom_site_fract_x
_atom_site_fract_y
_atom_site_fract_z
O1 O 0.94006(12) 0.29686(13) 0.00666(5)
N1 N 0.84114(14) 0.23880(16) 0.04301(6)
C1 C 0.72607(16) 0.34871(18) 0.06285(7)
C2 C 0.71823(16) 0.51721(17) 0.04505(7)
H1 H 0.7937 0.5631 0.0178
C3 C 0.60041(16) 0.61317(17) 0.06771(7)
C4 C 0.48623(16) 0.54588(17) 0.10915(7)
C5 C 0.49771(17) 0.37856(18) 0.12624(7)
H2 H 0.4234 0.3317 0.1538
C6 C 0.61644(17) 0.28151(19) 0.10323(7)
H3 H 0.6234 0.1681 0.1150
O2 O 0.57606(11) 0.77732(12) 0.05437(5)
C7 C 0.68771(18) 0.85532(19) 0.01426(8)
H4 H 0.6567 0.9708 0.0066
H5 H 0.6877 0.7975 -0.0280
H6 H 0.7949 0.8509 0.0368
N2 N 0.37010(14) 0.64639(16) 0.12873(6)
H7 H 0.3763(16) 0.7489(16) 0.1199(8)
C8 C 0.25420(16) 0.59492(17) 0.17272(7)
C9 C 0.30013(17) 0.57823(17) 0.23970(7)
H8 H 0.4065 0.6033 0.2558
C10 C 0.19118(16) 0.52536(17) 0.28271(7)
C11 C 0.03341(16) 0.49072(17) 0.25833(7)
C12 C -0.01119(17) 0.50898(17) 0.19239(7)
H9 H -0.1181 0.4867 0.1763
C13 C 0.10045(17) 0.56031(18) 0.14875(8)
H10 H 0.0700 0.5710 0.1031
O3 O 0.22391(11) 0.50142(12) 0.34910(5)
C14 C 0.38528(16) 0.5292(2) 0.37453(8)
H11 H 0.3957 0.5038 0.4217
H12 H 0.4136 0.6450 0.3678
H13 H 0.4569 0.4578 0.3515
O4 O -0.06567(11) 0.43828(13) 0.30480(5)
C15 C -0.21813(17) 0.3763(2) 0.28203(8)
H14 H -0.2710 0.3303 0.3192
H15 H -0.2054 0.2897 0.2492
H16 H -0.2831 0.4662 0.2620
loop_
_geom_bond_atom_site_label_1
_geom_bond_atom_site_label_2
_geom_bond_site_symmetry_1
_geom_bond_site_symmetry_2
O1 N1 1_555 1_555
N1 C1 1_555 1_555
C1 C2 1_555 1_555
C2 H1 1_555 1_555
C3 C2 1_555 1_555
C4 C3 1_555 1_555
C5 C4 1_555 1_555
H2 C5 1_555 1_555
C6 C1 1_555 1_555
H3 C6 1_555 1_555
O2 C3 1_555 1_555
C7 O2 1_555 1_555
H4 C7 1_555 1_555
H5 C7 1_555 1_555
H6 C7 1_555 1_555
N2 C4 1_555 1_555
H7 N2 1_555 1_555
C8 N2 1_555 1_555
C9 C8 1_555 1_555
H8 C9 1_555 1_555
C10 C9 1_555 1_555
C11 C10 1_555 1_555
C12 C11 1_555 1_555
H9 C12 1_555 1_555
C13 C8 1_555 1_555
H10 C13 1_555 1_555
O3 C10 1_555 1_555
C14 O3 1_555 1_555
H11 C14 1_555 1_555
H12 C14 1_555 1_555
H13 C14 1_555 1_555
O4 C11 1_555 1_555
C15 O4 1_555 1_555
H14 C15 1_555 1_555
H15 C15 1_555 1_555
H16 C15 1_555 1_555
C5 C6 1_555 1_555
C12 C13 1_555 1_555

#END
