
#######################################################################
#
#                 Cambridge Crystallographic Data Centre
#                                CCDC 
#
#######################################################################
#
# If this CIF has been generated from an entry in the Cambridge 
# Structural Database, then it will include bibliographic, chemical, 
# crystal, experimental, refinement or atomic coordinate data resulting 
# from the CCDC's data processing and validation procedures.
#
#######################################################################

data_HEMCAG
_chemical_name_common            
"5',17',23',35',38',40',43',45'-octamethyl-8'-thia-7',15',25',33',39'-pentaazadispiro[cyclohexane-1,2'-heptacyclo[32.2.2.2$3,6!.2$16,19!.2$21,24!.1$9,13!.1$27,31!]hexatetracontane-20',1''-cyclohexane]-1'(36'),3',5',9'(44'),10',12',16',18',21',23',27'(39'),28',30',34',37',40',42',45'-octadecaene-8',8',14',26',32'-pentone dichloromethane ethyl acetate solvate"
_chemical_formula_moiety         'C58 H63 N5 O5 S1,C4 H8 O2,2(C1 H2 Cl2)'
_chemical_name_systematic        
"2',3',3',3',5',5',5',6'-octamethyldispiro[cyclohexane-1,2'-13-thia-4,8,12,16-tetraaza-6(2,6)-pyridina-1,3,9,11(1,4),14(1,3)-pentabenzenacyclohexadecaphane-10',1''-cyclohexane]-5',7',15'-trione 13',13'-dioxide dichloromethane ethyl acetate solvate"
_symmetry_cell_setting           monoclinic
_symmetry_space_group_name_H-M   'P 21/n'
_symmetry_Int_Tables_number      14
_space_group_name_Hall           '-P 2yn'
loop_
_symmetry_equiv_pos_site_id
_symmetry_equiv_pos_as_xyz
1 x,y,z
2 1/2-x,1/2+y,1/2-z
3 -x,-y,-z
4 1/2+x,1/2-y,1/2+z
_cell_length_a                   14.6326(3)
_cell_length_b                   16.7085(3)
_cell_length_c                   25.5385(6)
_cell_angle_alpha                90
_cell_angle_beta                 94.685(1)
_cell_angle_gamma                90
_cell_volume                     6223.02
_exptl_crystal_colour            colorless
_exptl_crystal_description       plates
_cell_formula_units_Z            4
loop_
_atom_site_label
_atom_site_type_symbol
_atom_site_fract_x
_atom_site_fract_y
_atom_site_fract_z
S1 S 0.32747(6) 0.03167(6) 0.58513(3)
O1 O 0.32646(15) -0.02025(14) 0.62944(9)
O2 O 0.35860(15) 0.00404(15) 0.53691(9)
N1 N 0.22437(18) 0.06387(17) 0.57222(10)
H1 H 0.1941(19) 0.0786(19) 0.5984(9)
C1 C 0.1800(2) 0.0814(2) 0.52092(12)
C2 C 0.1390(2) 0.0195(2) 0.49128(12)
C3 C 0.0885(2) 0.0385(2) 0.44423(12)
H2 H 0.0598 -0.0036 0.4240
C4 C 0.0783(2) 0.1165(2) 0.42577(12)
C5 C 0.1237(2) 0.1760(2) 0.45573(13)
H3 H 0.1206 0.2295 0.4430
C6 C 0.1731(2) 0.1608(2) 0.50328(13)
C7 C 0.0206(2) 0.13921(19) 0.37472(11)
C8 C -0.0458(2) 0.2080(2) 0.38708(12)
H4 H -0.0774 0.1930 0.4185
H5 H -0.0091 0.2567 0.3960
C9 C -0.1178(2) 0.2283(2) 0.34266(13)
H6 H -0.1604 0.2688 0.3551
H7 H -0.0873 0.2520 0.3131
C10 C -0.1722(2) 0.1554(2) 0.32315(13)
H8 H -0.2149 0.1703 0.2926
H9 H -0.2089 0.1352 0.3513
C11 C -0.1076(2) 0.0902(2) 0.30723(12)
H10 H -0.0741 0.1092 0.2774
H11 H -0.1435 0.0423 0.2955
C12 C -0.0387(2) 0.0679(2) 0.35335(12)
H12 H 0.0021 0.0252 0.3419
H13 H -0.0726 0.0459 0.3821
C13 C 0.0885(2) 0.1626(2) 0.33443(12)
C14 C 0.0989(2) 0.2400(2) 0.31603(12)
H14 H 0.0636 0.2818 0.3295
C15 C 0.1597(2) 0.2585(2) 0.27830(12)
C16 C 0.2108(2) 0.1961(2) 0.25913(12)
C17 C 0.2064(2) 0.1183(2) 0.27835(12)
C18 C 0.1456(2) 0.1036(2) 0.31618(12)
H15 H 0.1428 0.0511 0.3303
N2 N 0.27363(18) 0.21414(17) 0.22038(10)
H16 H 0.3232(16) 0.2415(18) 0.2287(12)
C19 C 0.2631(2) 0.1917(2) 0.17011(12)
O3 O 0.19849(15) 0.15202(14) 0.15057(8)
C20 C 0.3385(2) 0.2203(2) 0.13769(12)
C21 C 0.3383(2) 0.2027(2) 0.08471(12)
H17 H 0.2925 0.1690 0.0680
C22 C 0.4060(2) 0.2350(2) 0.05653(12)
H18 H 0.4070 0.2241 0.0201
C23 C 0.4725(2) 0.2835(2) 0.08213(12)
H19 H 0.5195 0.3067 0.0635
C24 C 0.4687(2) 0.29746(19) 0.13544(12)
N3 N 0.40297(17) 0.26641(16) 0.16292(9)
C25 C 0.5393(2) 0.3479(2) 0.16568(12)
O4 O 0.59911(15) 0.38268(13) 0.14311(8)
N4 N 0.53024(17) 0.35126(17) 0.21766(10)
H20 H 0.4823(16) 0.3273(18) 0.2271(12)
C26 C 0.5862(2) 0.39424(19) 0.25623(11)
C27 C 0.6795(2) 0.37800(19) 0.26401(12)
C28 C 0.7298(2) 0.4173(2) 0.30499(12)
H21 H 0.7940 0.4077 0.3100
C29 C 0.6908(2) 0.4695(2) 0.33865(11)
C30 C 0.5967(2) 0.4840(2) 0.32930(12)
H22 H 0.5682 0.5203 0.3515
C31 C 0.5438(2) 0.4475(2) 0.28888(12)
C32 C 0.7414(2) 0.5052(2) 0.38847(11)
C33 C 0.8462(2) 0.4924(2) 0.39053(12)
H23 H 0.8734 0.5075 0.4259
H24 H 0.8585 0.4348 0.3855
C34 C 0.8938(3) 0.5404(2) 0.34926(13)
H25 H 0.8744 0.5196 0.3138
H26 H 0.9610 0.5334 0.3553
C35 C 0.8700(3) 0.6299(3) 0.35201(14)
H27 H 0.8970 0.6524 0.3856
H28 H 0.8968 0.6587 0.3230
C36 C 0.7673(3) 0.6422(2) 0.34781(13)
H29 H 0.7407 0.6235 0.3131
H30 H 0.7534 0.6999 0.3509
C37 C 0.7239(3) 0.5959(2) 0.39138(12)
H31 H 0.6570 0.6057 0.3885
H32 H 0.7494 0.6161 0.4260
C38 C 0.7038(2) 0.4609(2) 0.43501(12)
C39 C 0.6673(2) 0.4995(2) 0.47698(12)
H33 H 0.6684 0.5563 0.4784
C40 C 0.6291(2) 0.4572(2) 0.51703(12)
C41 C 0.6277(2) 0.3746(2) 0.51427(12)
C42 C 0.6662(2) 0.3326(2) 0.47370(12)
C43 C 0.7037(2) 0.3775(2) 0.43525(12)
H34 H 0.7306 0.3502 0.4077
N5 N 0.58582(19) 0.32913(18) 0.55407(10)
H35 H 0.612(2) 0.327(2) 0.5860(8)
C44 C 0.5074(2) 0.2879(2) 0.54317(14)
O5 O 0.46308(17) 0.29104(16) 0.50046(10)
C45 C 0.4773(2) 0.2347(2) 0.58549(13)
C46 C 0.4955(2) 0.2493(2) 0.63896(13)
H36 H 0.5304 0.2950 0.6504
C47 C 0.4631(2) 0.1977(2) 0.67555(13)
H37 H 0.4751 0.2087 0.7120
C48 C 0.4132(2) 0.1302(2) 0.65961(13)
H38 H 0.3916 0.0947 0.6849
C49 C 0.3953(2) 0.1153(2) 0.60653(13)
C50 C 0.4270(2) 0.1669(2) 0.56942(13)
H39 H 0.4144 0.1559 0.5330
C51 C 0.1464(2) -0.0668(2) 0.50806(12)
H40 H 0.1840 -0.0961 0.4844
H41 H 0.0850 -0.0906 0.5066
H42 H 0.1750 -0.0699 0.5441
C52 C 0.2148(2) 0.2298(2) 0.53464(13)
H43 H 0.2746 0.2430 0.5222
H44 H 0.2228 0.2149 0.5719
H45 H 0.1742 0.2764 0.5303
C53 C 0.1711(2) 0.3433(2) 0.26035(13)
H46 H 0.2333 0.3618 0.2713
H47 H 0.1264 0.3777 0.2761
H48 H 0.1609 0.3458 0.2220
C54 C 0.2666(2) 0.0534(2) 0.25934(13)
H49 H 0.2620 0.0057 0.2813
H50 H 0.3303 0.0719 0.2616
H51 H 0.2467 0.0402 0.2228
C55 C 0.7254(2) 0.3169(2) 0.23183(12)
H52 H 0.6877 0.2683 0.2288
H53 H 0.7859 0.3039 0.2490
H54 H 0.7323 0.3386 0.1967
C56 C 0.4426(2) 0.4652(2) 0.28066(12)
H55 H 0.4079 0.4220 0.2958
H56 H 0.4245 0.4694 0.2429
H57 H 0.4295 0.5159 0.2979
C57 C 0.6665(3) 0.2427(2) 0.47094(13)
H58 H 0.6050 0.2236 0.4589
H59 H 0.6844 0.2207 0.5059
H60 H 0.7104 0.2251 0.4463
C58 C 0.5880(2) 0.5014(2) 0.56094(13)
H61 H 0.5239 0.4851 0.5624
H62 H 0.5909 0.5591 0.5545
H63 H 0.6226 0.4886 0.5944
C59 C 0.1113(3) 0.4887(3) 0.44566(15)
H64 H 0.0669 0.5332 0.4402
H65 H 0.1611 0.5066 0.4716
Cl1 Cl 0.15738(9) 0.46814(11) 0.38670(5)
Cl2 Cl 0.05558(8) 0.40579(7) 0.47158(5)
C60 C 0.3414(4) -0.0351(4) 0.41965(19)
H66 H 0.3019 -0.0030 0.4413
H67 H 0.3829 -0.0670 0.4441
Cl3 Cl 0.27159(10) -0.10112(7) 0.38266(4)
Cl4 Cl 0.40472(10) 0.02725(10) 0.38849(6)
C61 C 0.3473(3) 0.2555(3) 0.38219(15)
H68 H 0.3109 0.3039 0.3745
H69 H 0.3776 0.2590 0.4178
H70 H 0.3070 0.2085 0.3797
C62 C 0.4215(3) 0.2474(3) 0.34164(19)
O6 O 0.41707(16) 0.27259(17) 0.29691(10)
O7 O 0.49058(19) 0.20617(19) 0.36214(11)
C63 C 0.5675(3) 0.1917(3) 0.32758(15)
H71 H 0.6230 0.1747 0.3496
H72 H 0.5821 0.2422 0.3098
C64 C 0.5427(3) 0.1284(3) 0.28685(17)
H73 H 0.5941 0.1205 0.2651
H74 H 0.5293 0.0781 0.3044
H75 H 0.4885 0.1456 0.2646
loop_
_geom_bond_atom_site_label_1
_geom_bond_atom_site_label_2
_geom_bond_site_symmetry_1
_geom_bond_site_symmetry_2
S1 O1 1_555 1_555
O2 S1 1_555 1_555
N1 S1 1_555 1_555
H1 N1 1_555 1_555
C1 N1 1_555 1_555
C2 C1 1_555 1_555
C3 C2 1_555 1_555
H2 C3 1_555 1_555
C4 C3 1_555 1_555
C5 C4 1_555 1_555
H3 C5 1_555 1_555
C6 C1 1_555 1_555
C7 C4 1_555 1_555
C8 C7 1_555 1_555
H4 C8 1_555 1_555
H5 C8 1_555 1_555
C9 C8 1_555 1_555
H6 C9 1_555 1_555
H7 C9 1_555 1_555
C10 C9 1_555 1_555
H8 C10 1_555 1_555
H9 C10 1_555 1_555
C11 C10 1_555 1_555
H10 C11 1_555 1_555
H11 C11 1_555 1_555
C12 C7 1_555 1_555
H12 C12 1_555 1_555
H13 C12 1_555 1_555
C13 C7 1_555 1_555
C14 C13 1_555 1_555
H14 C14 1_555 1_555
C15 C14 1_555 1_555
C16 C15 1_555 1_555
C17 C16 1_555 1_555
C18 C13 1_555 1_555
H15 C18 1_555 1_555
N2 C16 1_555 1_555
H16 N2 1_555 1_555
C19 N2 1_555 1_555
O3 C19 1_555 1_555
C20 C19 1_555 1_555
C21 C20 1_555 1_555
H17 C21 1_555 1_555
C22 C21 1_555 1_555
H18 C22 1_555 1_555
C23 C22 1_555 1_555
H19 C23 1_555 1_555
C24 C23 1_555 1_555
N3 C20 1_555 1_555
C25 C24 1_555 1_555
O4 C25 1_555 1_555
N4 C25 1_555 1_555
H20 N4 1_555 1_555
C26 N4 1_555 1_555
C27 C26 1_555 1_555
C28 C27 1_555 1_555
H21 C28 1_555 1_555
C29 C28 1_555 1_555
C30 C29 1_555 1_555
H22 C30 1_555 1_555
C31 C26 1_555 1_555
C32 C29 1_555 1_555
C33 C32 1_555 1_555
H23 C33 1_555 1_555
H24 C33 1_555 1_555
C34 C33 1_555 1_555
H25 C34 1_555 1_555
H26 C34 1_555 1_555
C35 C34 1_555 1_555
H27 C35 1_555 1_555
H28 C35 1_555 1_555
C36 C35 1_555 1_555
H29 C36 1_555 1_555
H30 C36 1_555 1_555
C37 C32 1_555 1_555
H31 C37 1_555 1_555
H32 C37 1_555 1_555
C38 C32 1_555 1_555
C39 C38 1_555 1_555
H33 C39 1_555 1_555
C40 C39 1_555 1_555
C41 C40 1_555 1_555
C42 C41 1_555 1_555
C43 C38 1_555 1_555
H34 C43 1_555 1_555
N5 C41 1_555 1_555
H35 N5 1_555 1_555
C44 N5 1_555 1_555
O5 C44 1_555 1_555
C45 C44 1_555 1_555
C46 C45 1_555 1_555
H36 C46 1_555 1_555
C47 C46 1_555 1_555
H37 C47 1_555 1_555
C48 C47 1_555 1_555
H38 C48 1_555 1_555
C49 S1 1_555 1_555
C50 C45 1_555 1_555
H39 C50 1_555 1_555
C51 C2 1_555 1_555
H40 C51 1_555 1_555
H41 C51 1_555 1_555
H42 C51 1_555 1_555
C52 C6 1_555 1_555
H43 C52 1_555 1_555
H44 C52 1_555 1_555
H45 C52 1_555 1_555
C53 C15 1_555 1_555
H46 C53 1_555 1_555
H47 C53 1_555 1_555
H48 C53 1_555 1_555
C54 C17 1_555 1_555
H49 C54 1_555 1_555
H50 C54 1_555 1_555
H51 C54 1_555 1_555
C55 C27 1_555 1_555
H52 C55 1_555 1_555
H53 C55 1_555 1_555
H54 C55 1_555 1_555
C56 C31 1_555 1_555
H55 C56 1_555 1_555
H56 C56 1_555 1_555
H57 C56 1_555 1_555
C57 C42 1_555 1_555
H58 C57 1_555 1_555
H59 C57 1_555 1_555
H60 C57 1_555 1_555
C58 C40 1_555 1_555
H61 C58 1_555 1_555
H62 C58 1_555 1_555
H63 C58 1_555 1_555
C59 H64 1_555 1_555
H65 C59 1_555 1_555
Cl1 C59 1_555 1_555
Cl2 C59 1_555 1_555
C60 H66 1_555 1_555
H67 C60 1_555 1_555
Cl3 C60 1_555 1_555
Cl4 C60 1_555 1_555
C61 H68 1_555 1_555
H69 C61 1_555 1_555
H70 C61 1_555 1_555
C62 C61 1_555 1_555
O6 C62 1_555 1_555
O7 C62 1_555 1_555
C63 O7 1_555 1_555
H71 C63 1_555 1_555
H72 C63 1_555 1_555
C64 C63 1_555 1_555
H73 C64 1_555 1_555
H74 C64 1_555 1_555
H75 C64 1_555 1_555
C5 C6 1_555 1_555
C11 C12 1_555 1_555
C17 C18 1_555 1_555
C24 N3 1_555 1_555
C30 C31 1_555 1_555
C36 C37 1_555 1_555
C42 C43 1_555 1_555
C48 C49 1_555 1_555
C49 C50 1_555 1_555

#END
