
#######################################################################
#
#                 Cambridge Crystallographic Data Centre
#                                CCDC 
#
#######################################################################
#
# If this CIF has been generated from an entry in the Cambridge 
# Structural Database, then it will include bibliographic, chemical, 
# crystal, experimental, refinement or atomic coordinate data resulting 
# from the CCDC's data processing and validation procedures.
#
#######################################################################

data_HEMGOY
_chemical_formula_moiety         'C69 H87 F3 Mg3 N6,2(C6 H14)'
_chemical_name_systematic        
'tris(\m-fluoro)-tris(N^2^,N^4^-bis(2,4,6-trimethylphenyl)pentane-2,4-diiminato)-tri-magnesium hexane solvate'
_symmetry_cell_setting           triclinic
_symmetry_space_group_name_H-M   'P -1'
_symmetry_Int_Tables_number      2
_space_group_name_Hall           '-P 1'
loop_
_symmetry_equiv_pos_site_id
_symmetry_equiv_pos_as_xyz
1 x,y,z
2 -x,-y,-z
_cell_length_a                   14.5708(8)
_cell_length_b                   14.6964(8)
_cell_length_c                   18.2421(7)
_cell_angle_alpha                91.379(4)
_cell_angle_beta                 93.348(4)
_cell_angle_gamma                91.651(4)
_cell_volume                     3896.75
_exptl_crystal_colour            colorless
_exptl_crystal_description       blocks
_cell_formula_units_Z            2
loop_
_atom_site_label
_atom_site_type_symbol
_atom_site_fract_x
_atom_site_fract_y
_atom_site_fract_z
Mg1 Mg 0.45302(5) 0.54604(5) 0.25340(4)
Mg2 Mg 0.25001(5) 0.64164(5) 0.31722(4)
Mg3 Mg 0.36358(5) 0.75060(5) 0.18026(4)
F1 F 0.36070(9) 0.57772(10) 0.31619(7)
F2 F 0.27178(11) 0.73071(11) 0.24720(8)
F3 F 0.42351(10) 0.63882(9) 0.18795(7)
N1 N 0.59321(13) 0.55234(13) 0.26773(10)
C1 C 0.64472(16) 0.47942(16) 0.26464(12)
C2 C 0.60985(18) 0.38965(17) 0.25492(14)
H1 H 0.6552 0.3445 0.2554
C3 C 0.51885(17) 0.35585(16) 0.24457(12)
N2 N 0.44522(13) 0.40723(13) 0.24044(10)
C4 C 0.74854(17) 0.49024(18) 0.27060(15)
H2 H 0.7688 0.5278 0.2306
H3 H 0.7757 0.4302 0.2672
H4 H 0.7682 0.5197 0.3179
C5 C 0.50671(19) 0.25274(17) 0.23812(15)
H5 H 0.4669 0.2314 0.2761
H6 H 0.5669 0.2249 0.2446
H7 H 0.4785 0.2355 0.1895
C6 C 0.64090(16) 0.63936(16) 0.27775(12)
C7 C 0.66108(17) 0.68998(17) 0.21638(13)
C8 C 0.70711(19) 0.77409(19) 0.22817(16)
H8 H 0.7199 0.8096 0.1869
C9 C 0.73486(19) 0.80778(19) 0.29789(18)
C10 C 0.71324(18) 0.75707(19) 0.35716(16)
H9 H 0.7312 0.7797 0.4052
C11 C 0.66566(17) 0.67313(18) 0.34888(13)
C12 C 0.6368(2) 0.6548(2) 0.13961(14)
H10 H 0.6596 0.5931 0.1337
H11 H 0.6651 0.6948 0.1045
H12 H 0.5698 0.6535 0.1304
C13 C 0.7900(3) 0.8971(2) 0.3083(2)
H13 H 0.8558 0.8851 0.3082
H14 H 0.7768 0.9260 0.3554
H15 H 0.7730 0.9377 0.2682
C14 C 0.6429(2) 0.6210(2) 0.41498(14)
H16 H 0.5798 0.5960 0.4083
H17 H 0.6483 0.6617 0.4585
H18 H 0.6856 0.5711 0.4215
C15 C 0.35701(16) 0.36024(15) 0.22961(12)
C16 C 0.30622(17) 0.33924(17) 0.29013(13)
C17 C 0.22157(19) 0.29243(19) 0.27744(15)
H19 H 0.1865 0.2784 0.3182
C18 C 0.18733(19) 0.26605(19) 0.20837(16)
C19 C 0.23775(19) 0.28875(18) 0.14923(15)
H20 H 0.2142 0.2716 0.1010
C20 C 0.32228(19) 0.33615(17) 0.15827(13)
C21 C 0.3427(2) 0.3631(2) 0.36693(14)
H21 H 0.2945 0.3519 0.4011
H22 H 0.3621 0.4276 0.3701
H23 H 0.3955 0.3256 0.3797
C22 C 0.0984(2) 0.2111(3) 0.1966(2)
H24 H 0.1092 0.1474 0.2083
H25 H 0.0755 0.2147 0.1452
H26 H 0.0528 0.2354 0.2286
C23 C 0.3743(2) 0.3601(2) 0.09213(14)
H27 H 0.3866 0.4260 0.0923
H28 H 0.3375 0.3414 0.0473
H29 H 0.4326 0.3285 0.0937
N3 N 0.12571(13) 0.57981(13) 0.29228(9)
C24 C 0.09704(16) 0.51762(17) 0.33933(12)
C25 C 0.12730(18) 0.51618(18) 0.41308(12)
H30 H 0.1121 0.4625 0.4383
C26 C 0.17812(17) 0.58519(18) 0.45532(12)
N4 N 0.22734(14) 0.65072(14) 0.42700(10)
C27 C 0.02638(19) 0.44488(19) 0.31250(14)
H31 H -0.0335 0.4726 0.3035
H32 H 0.0216 0.3984 0.3498
H33 H 0.0454 0.4166 0.2668
C28 C 0.1691(2) 0.5825(2) 0.53793(13)
H34 H 0.1350 0.6352 0.5540
H35 H 0.2304 0.5842 0.5630
H36 H 0.1359 0.5263 0.5499
C29 C 0.06905(16) 0.59458(16) 0.22715(11)
C30 C -0.01566(17) 0.63632(17) 0.23290(12)
C31 C -0.06917(19) 0.65214(19) 0.16887(14)
H37 H -0.1272 0.6792 0.1727
C32 C -0.04038(19) 0.62956(19) 0.09980(13)
C33 C 0.04533(18) 0.59192(18) 0.09537(12)
H38 H 0.0670 0.5784 0.0483
C34 C 0.10070(17) 0.57324(16) 0.15765(12)
C35 C -0.04808(18) 0.6666(2) 0.30641(14)
H39 H -0.0551 0.6136 0.3374
H40 H -0.1074 0.6959 0.2992
H41 H -0.0028 0.7099 0.3304
C36 C -0.1009(2) 0.6450(3) 0.03147(16)
H42 H -0.0675 0.6833 -0.0019
H43 H -0.1567 0.6755 0.0450
H44 H -0.1179 0.5864 0.0070
C37 C 0.19156(18) 0.5290(2) 0.15040(13)
H45 H 0.1933 0.4736 0.1793
H46 H 0.2414 0.5712 0.1686
H47 H 0.1991 0.5132 0.0986
C38 C 0.26854(17) 0.72042(18) 0.47576(11)
C39 C 0.35222(18) 0.70623(19) 0.51501(12)
C40 C 0.38778(18) 0.7751(2) 0.56346(13)
H48 H 0.4443 0.7659 0.5905
C41 C 0.34394(19) 0.85595(19) 0.57351(13)
C42 C 0.2642(2) 0.8700(2) 0.53116(14)
H49 H 0.2346 0.9265 0.5359
C43 C 0.22589(19) 0.8037(2) 0.48165(13)
C44 C 0.4031(2) 0.6199(2) 0.50563(17)
H50 H 0.4628 0.6253 0.5333
H51 H 0.4127 0.6090 0.4534
H52 H 0.3671 0.5688 0.5240
C45 C 0.3824(2) 0.9269(2) 0.62946(16)
H53 H 0.3451 0.9265 0.6725
H54 H 0.3808 0.9872 0.6077
H55 H 0.4460 0.9131 0.6445
C46 C 0.1406(3) 0.8219(3) 0.4342(2)
H56 H 0.0914 0.7783 0.4451
H57 H 0.1539 0.8154 0.3823
H58 H 0.1209 0.8840 0.4443
N5 N 0.42492(14) 0.87414(13) 0.20402(10)
C47 C 0.48801(18) 0.90330(16) 0.15935(12)
C48 C 0.4924(2) 0.87362(19) 0.08591(13)
H59 H 0.5468 0.8907 0.0627
C49 C 0.42591(19) 0.82154(18) 0.04241(12)
N6 N 0.35960(15) 0.77115(14) 0.06959(10)
C50 C 0.5604(2) 0.97482(19) 0.18710(14)
H60 H 0.5315 1.0338 0.1926
H61 H 0.6084 0.9797 0.1518
H62 H 0.5878 0.9570 0.2347
C51 C 0.4310(2) 0.8296(2) -0.04015(13)
H63 H 0.4264 0.7687 -0.0634
H64 H 0.4897 0.8592 -0.0508
H65 H 0.3802 0.8660 -0.0594
C52 C 0.40749(16) 0.92967(16) 0.26709(12)
C53 C 0.36371(19) 1.01283(17) 0.25744(13)
C54 C 0.3455(2) 1.06482(18) 0.31925(15)
H66 H 0.3163 1.1213 0.3127
C55 C 0.3683(2) 1.03759(19) 0.38988(14)
C56 C 0.40882(19) 0.95397(18) 0.39818(13)
H67 H 0.4232 0.9332 0.4463
C57 C 0.42915(17) 0.89925(16) 0.33775(12)
C58 C 0.3339(2) 1.0444(2) 0.18161(15)
H68 H 0.3883 1.0588 0.1545
H69 H 0.2971 1.0989 0.1860
H70 H 0.2968 0.9960 0.1552
C59 C 0.3525(3) 1.0973(2) 0.45620(17)
H71 H 0.3393 1.0590 0.4978
H72 H 0.3003 1.1363 0.4451
H73 H 0.4078 1.1354 0.4688
C60 C 0.47569(19) 0.81034(18) 0.34952(13)
H74 H 0.4999 0.8078 0.4007
H75 H 0.5264 0.8055 0.3167
H76 H 0.4311 0.7599 0.3388
C61 C 0.29119(18) 0.72880(17) 0.01914(12)
C62 C 0.30545(19) 0.64442(18) -0.01506(12)
C63 C 0.2362(2) 0.60716(19) -0.06363(13)
H77 H 0.2457 0.5502 -0.0872
C64 C 0.1546(2) 0.6496(2) -0.07876(13)
C65 C 0.1408(2) 0.7314(2) -0.04236(15)
H78 H 0.0845 0.7612 -0.0514
C66 C 0.2075(2) 0.77109(19) 0.00720(14)
C67 C 0.3939(2) 0.5958(2) -0.00056(17)
H79 H 0.4436 0.6278 -0.0243
H80 H 0.3870 0.5333 -0.0204
H81 H 0.4087 0.5947 0.0525
C68 C 0.0819(2) 0.6103(2) -0.13384(16)
H82 H 0.0208 0.6229 -0.1170
H83 H 0.0887 0.5444 -0.1388
H84 H 0.0889 0.6382 -0.1815
C69 C 0.1908(3) 0.8607(3) 0.0460(2)
H85 H 0.1944 0.8524 0.0992
H86 H 0.1297 0.8817 0.0304
H87 H 0.2376 0.9060 0.0335
C70 C 0.2178(4) 0.8283(4) 0.7838(2)
H88 H 0.1751 0.8548 0.8173
H89 H 0.2618 0.8755 0.7697
H90 H 0.2511 0.7795 0.8083
C71 C 0.1648(3) 0.7901(3) 0.7163(2)
H91 H 0.1276 0.7362 0.7295
H92 H 0.2085 0.7700 0.6800
C72 C 0.1013(3) 0.8606(3) 0.6815(2)
H93 H 0.0642 0.8867 0.7201
H94 H 0.1397 0.9107 0.6630
C73 C 0.0362(3) 0.8237(3) 0.6186(3)
H95 H 0.0733 0.7982 0.5797
H96 H -0.0018 0.7731 0.6369
C74 C -0.0273(5) 0.8935(6) 0.5847(4)
H97 H 0.0097 0.9426 0.5634
H98 H -0.0636 0.9210 0.6233
C75 C -0.0935(5) 0.8473(8) 0.5236(4)
H99 H -0.0575 0.8140 0.4886
H100 H -0.1284 0.8941 0.4978
H101 H -0.1361 0.8048 0.5459
C76 C 1.0709(11) 0.8979(11) 0.2375(7)
H102 H 1.1119 0.9396 0.2677
H103 H 1.0240 0.8717 0.2679
H104 H 1.1067 0.8489 0.2172
C77 C 1.0251(10) 0.9487(8) 0.1761(6)
H105 H 0.9918 0.9993 0.1982
H106 H 1.0741 0.9765 0.1478
C78 C 0.9598(9) 0.8985(8) 0.1233(6)
H107 H 0.9075 0.8749 0.1504
H108 H 0.9911 0.8454 0.1031
C79 C 0.9221(8) 0.9539(7) 0.0599(5)
H109 H 0.8894 1.0059 0.0806
H110 H 0.9748 0.9795 0.0346
C80 C 0.8600(7) 0.9070(7) 0.0052(6)
H111 H 0.8887 0.8493 -0.0087
H112 H 0.8570 0.9447 -0.0391
C81 C 0.7630(9) 0.8841(12) 0.0232(9)
H113 H 0.7304 0.8529 -0.0192
H114 H 0.7635 0.8443 0.0655
H115 H 0.7316 0.9403 0.0350
C82? C 1.1278(12) 0.9344(13) 0.2488(9)
H116? H 1.1583 0.8882 0.2786
H117? H 1.1706 0.9585 0.2140
H118? H 1.1090 0.9840 0.2809
C83? C 1.0424(13) 0.8911(15) 0.2062(11)
H119? H 1.0630 0.8396 0.1759
H120? H 1.0017 0.8651 0.2425
C84? C 0.9846(12) 0.9512(14) 0.1562(12)
H121? H 1.0256 0.9813 0.1221
H122? H 0.9586 0.9995 0.1867
C85? C 0.9057(11) 0.9019(13) 0.1108(10)
H123? H 0.9316 0.8733 0.0672
H124? H 0.8815 0.8522 0.1405
C86? C 0.8284(11) 0.9560(12) 0.0853(8)
H125? H 0.8518 1.0160 0.0699
H126? H 0.7881 0.9664 0.1264
C87? C 0.7707(16) 0.9078(19) 0.0192(14)
H127? H 0.7195 0.9461 0.0037
H128? H 0.8101 0.8984 -0.0219
H129? H 0.7464 0.8488 0.0345
loop_
_geom_bond_atom_site_label_1
_geom_bond_atom_site_label_2
_geom_bond_site_symmetry_1
_geom_bond_site_symmetry_2
Mg1 F1 1_555 1_555
Mg2 F1 1_555 1_555
Mg3 F2 1_555 1_555
F2 Mg2 1_555 1_555
F3 Mg1 1_555 1_555
N1 Mg1 1_555 1_555
C1 N1 1_555 1_555
C2 C1 1_555 1_555
H1 C2 1_555 1_555
C3 C2 1_555 1_555
N2 Mg1 1_555 1_555
C4 C1 1_555 1_555
H2 C4 1_555 1_555
H3 C4 1_555 1_555
H4 C4 1_555 1_555
C5 C3 1_555 1_555
H5 C5 1_555 1_555
H6 C5 1_555 1_555
H7 C5 1_555 1_555
C6 N1 1_555 1_555
C7 C6 1_555 1_555
C8 C7 1_555 1_555
H8 C8 1_555 1_555
C9 C8 1_555 1_555
C10 C9 1_555 1_555
H9 C10 1_555 1_555
C11 C6 1_555 1_555
C12 C7 1_555 1_555
H10 C12 1_555 1_555
H11 C12 1_555 1_555
H12 C12 1_555 1_555
C13 C9 1_555 1_555
H13 C13 1_555 1_555
H14 C13 1_555 1_555
H15 C13 1_555 1_555
C14 C11 1_555 1_555
H16 C14 1_555 1_555
H17 C14 1_555 1_555
H18 C14 1_555 1_555
C15 N2 1_555 1_555
C16 C15 1_555 1_555
C17 C16 1_555 1_555
H19 C17 1_555 1_555
C18 C17 1_555 1_555
C19 C18 1_555 1_555
H20 C19 1_555 1_555
C20 C15 1_555 1_555
C21 C16 1_555 1_555
H21 C21 1_555 1_555
H22 C21 1_555 1_555
H23 C21 1_555 1_555
C22 C18 1_555 1_555
H24 C22 1_555 1_555
H25 C22 1_555 1_555
H26 C22 1_555 1_555
C23 C20 1_555 1_555
H27 C23 1_555 1_555
H28 C23 1_555 1_555
H29 C23 1_555 1_555
N3 Mg2 1_555 1_555
C24 N3 1_555 1_555
C25 C24 1_555 1_555
H30 C25 1_555 1_555
C26 C25 1_555 1_555
N4 Mg2 1_555 1_555
C27 C24 1_555 1_555
H31 C27 1_555 1_555
H32 C27 1_555 1_555
H33 C27 1_555 1_555
C28 C26 1_555 1_555
H34 C28 1_555 1_555
H35 C28 1_555 1_555
H36 C28 1_555 1_555
C29 N3 1_555 1_555
C30 C29 1_555 1_555
C31 C30 1_555 1_555
H37 C31 1_555 1_555
C32 C31 1_555 1_555
C33 C32 1_555 1_555
H38 C33 1_555 1_555
C34 C29 1_555 1_555
C35 C30 1_555 1_555
H39 C35 1_555 1_555
H40 C35 1_555 1_555
H41 C35 1_555 1_555
C36 C32 1_555 1_555
H42 C36 1_555 1_555
H43 C36 1_555 1_555
H44 C36 1_555 1_555
C37 C34 1_555 1_555
H45 C37 1_555 1_555
H46 C37 1_555 1_555
H47 C37 1_555 1_555
C38 N4 1_555 1_555
C39 C38 1_555 1_555
C40 C39 1_555 1_555
H48 C40 1_555 1_555
C41 C40 1_555 1_555
C42 C41 1_555 1_555
H49 C42 1_555 1_555
C43 C38 1_555 1_555
C44 C39 1_555 1_555
H50 C44 1_555 1_555
H51 C44 1_555 1_555
H52 C44 1_555 1_555
C45 C41 1_555 1_555
H53 C45 1_555 1_555
H54 C45 1_555 1_555
H55 C45 1_555 1_555
C46 C43 1_555 1_555
H56 C46 1_555 1_555
H57 C46 1_555 1_555
H58 C46 1_555 1_555
N5 Mg3 1_555 1_555
C47 N5 1_555 1_555
C48 C47 1_555 1_555
H59 C48 1_555 1_555
C49 C48 1_555 1_555
N6 Mg3 1_555 1_555
C50 C47 1_555 1_555
H60 C50 1_555 1_555
H61 C50 1_555 1_555
H62 C50 1_555 1_555
C51 C49 1_555 1_555
H63 C51 1_555 1_555
H64 C51 1_555 1_555
H65 C51 1_555 1_555
C52 N5 1_555 1_555
C53 C52 1_555 1_555
C54 C53 1_555 1_555
H66 C54 1_555 1_555
C55 C54 1_555 1_555
C56 C55 1_555 1_555
H67 C56 1_555 1_555
C57 C52 1_555 1_555
C58 C53 1_555 1_555
H68 C58 1_555 1_555
H69 C58 1_555 1_555
H70 C58 1_555 1_555
C59 C55 1_555 1_555
H71 C59 1_555 1_555
H72 C59 1_555 1_555
H73 C59 1_555 1_555
C60 C57 1_555 1_555
H74 C60 1_555 1_555
H75 C60 1_555 1_555
H76 C60 1_555 1_555
C61 N6 1_555 1_555
C62 C61 1_555 1_555
C63 C62 1_555 1_555
H77 C63 1_555 1_555
C64 C63 1_555 1_555
C65 C64 1_555 1_555
H78 C65 1_555 1_555
C66 C61 1_555 1_555
C67 C62 1_555 1_555
H79 C67 1_555 1_555
H80 C67 1_555 1_555
H81 C67 1_555 1_555
C68 C64 1_555 1_555
H82 C68 1_555 1_555
H83 C68 1_555 1_555
H84 C68 1_555 1_555
C69 C66 1_555 1_555
H85 C69 1_555 1_555
H86 C69 1_555 1_555
H87 C69 1_555 1_555
C70 H88 1_555 1_555
H89 C70 1_555 1_555
H90 C70 1_555 1_555
C71 C70 1_555 1_555
H91 C71 1_555 1_555
H92 C71 1_555 1_555
C72 C71 1_555 1_555
H93 C72 1_555 1_555
H94 C72 1_555 1_555
C73 C72 1_555 1_555
H95 C73 1_555 1_555
H96 C73 1_555 1_555
C74 C73 1_555 1_555
H97 C74 1_555 1_555
H98 C74 1_555 1_555
C75 C74 1_555 1_555
H99 C75 1_555 1_555
H100 C75 1_555 1_555
H101 C75 1_555 1_555
C76 H102 1_555 1_555
H103 C76 1_555 1_555
H104 C76 1_555 1_555
C77 C76 1_555 1_555
H105 C77 1_555 1_555
H106 C77 1_555 1_555
C78 C77 1_555 1_555
H107 C78 1_555 1_555
H108 C78 1_555 1_555
C79 C78 1_555 1_555
H109 C79 1_555 1_555
H110 C79 1_555 1_555
C80 C79 1_555 1_555
H111 C80 1_555 1_555
H112 C80 1_555 1_555
C81 C80 1_555 1_555
H113 C81 1_555 1_555
H114 C81 1_555 1_555
H115 C81 1_555 1_555
Mg3 F3 1_555 1_555
C3 N2 1_555 1_555
C10 C11 1_555 1_555
C19 C20 1_555 1_555
C26 N4 1_555 1_555
C33 C34 1_555 1_555
C42 C43 1_555 1_555
C49 N6 1_555 1_555
C56 C57 1_555 1_555
C65 C66 1_555 1_555

#END
