
#######################################################################
#
#                 Cambridge Crystallographic Data Centre
#                                CCDC 
#
#######################################################################
#
# If this CIF has been generated from an entry in the Cambridge 
# Structural Database, then it will include bibliographic, chemical, 
# crystal, experimental, refinement or atomic coordinate data resulting 
# from the CCDC's data processing and validation procedures.
#
#######################################################################

data_HEMJAK
_chemical_formula_moiety         'C28 H21 O5 P1,C1 H1 Cl3'
_chemical_name_systematic        
"(Calix(4)arene-O,O',O'')phosphine oxide chloroform solvate"
_symmetry_cell_setting           monoclinic
_symmetry_space_group_name_H-M   'P 21/c'
_symmetry_Int_Tables_number      14
_space_group_name_Hall           '-P 2ybc'
loop_
_symmetry_equiv_pos_site_id
_symmetry_equiv_pos_as_xyz
1 x,y,z
2 -x,1/2+y,1/2-z
3 -x,-y,-z
4 x,1/2-y,1/2+z
_cell_length_a                   15.064(5)
_cell_length_b                   15.424(4)
_cell_length_c                   13.073(3)
_cell_angle_alpha                90
_cell_angle_beta                 108.52(2)
_cell_angle_gamma                90
_cell_volume                     2880.17
_exptl_crystal_colour            colorless
_chemical_melting_point          318-320deg.C(dec.)
_cell_formula_units_Z            4
loop_
_atom_site_label
_atom_site_type_symbol
_atom_site_fract_x
_atom_site_fract_y
_atom_site_fract_z
P1 P 0.6305(1) 0.1347(1) 0.7875(1)
O1 O 0.6751(3) 0.0913(2) 0.9009(3)
O2 O 0.5436(3) 0.0761(3) 0.7290(3)
O3 O 0.5905(3) 0.2228(3) 0.8099(3)
O4 O 0.7274(3) 0.2370(3) 1.0812(3)
O5 O 0.6899(3) 0.1453(3) 0.7205(3)
C1 C 0.7390(4) 0.0192(4) 0.9249(5)
C2 C 0.8253(5) 0.0333(4) 1.0024(5)
C3 C 0.8858(5) -0.0376(6) 1.0284(7)
C4 C 0.8605(6) -0.1179(6) 0.9836(8)
C5 C 0.7746(6) -0.1280(5) 0.9102(7)
C6 C 0.7099(5) -0.0620(4) 0.8795(5)
C7 C 0.6165(5) -0.0841(4) 0.7983(5)
C8 C 0.4977(4) 0.0295(4) 0.7890(4)
C9 C 0.5305(5) -0.0524(4) 0.8217(5)
C10 C 0.4809(6) -0.1013(5) 0.8746(5)
C11 C 0.4031(6) -0.0671(6) 0.8921(5)
C12 C 0.3727(5) 0.0155(5) 0.8602(5)
C13 C 0.4208(4) 0.0667(4) 0.8072(5)
C14 C 0.3951(4) 0.1589(4) 0.7736(5)
C15 C 0.5342(4) 0.2574(4) 0.8688(4)
C16 C 0.4452(4) 0.2261(4) 0.8555(5)
C17 C 0.3943(5) 0.2657(5) 0.9151(5)
C18 C 0.4298(6) 0.3354(5) 0.9818(5)
C19 C 0.5165(6) 0.3674(5) 0.9870(5)
C20 C 0.5711(5) 0.3308(4) 0.9318(5)
C21 C 0.6595(5) 0.3781(4) 0.9328(5)
C22 C 0.7710(4) 0.2551(4) 1.0065(4)
C23 C 0.7425(5) 0.3252(4) 0.9354(5)
C24 C 0.7915(5) 0.3395(5) 0.8616(5)
C25 C 0.8608(5) 0.2855(6) 0.8559(6)
C26 C 0.8833(5) 0.2146(5) 0.9202(5)
C27 C 0.8386(4) 0.1972(5) 0.9969(5)
C28 C 0.8569(4) 0.1164(4) 1.0638(5)
H1 H 0.7003 0.2921 1.1093
H2 H 0.9472 -0.0299 1.0793
H3 H 0.9029 -0.1660 1.0039
H4 H 0.7578 -0.1840 0.8778
H5 H 0.6125 -0.1462 0.7927
H6 H 0.6155 -0.0601 0.7302
H7 H 0.5011 -0.1590 0.8988
H8 H 0.3688 -0.1018 0.9277
H9 H 0.3184 0.0380 0.8744
H10 H 0.4095 0.1695 0.7082
H11 H 0.3290 0.1657 0.7601
H12 H 0.3333 0.2440 0.9097
H13 H 0.3947 0.3612 1.0236
H14 H 0.5399 0.4174 1.0312
H15 H 0.6774 0.4147 0.9954
H16 H 0.6443 0.4133 0.8690
H17 H 0.7757 0.3887 0.8143
H18 H 0.8941 0.2975 0.8059
H19 H 0.9307 0.1756 0.9130
H20 H 0.9231 0.1124 1.0996
H21 H 0.8250 0.1217 1.1165
C29? C 0.9873(3) 0.1130(3) 0.6388(3)
Cl1? Cl 1.0579(4) 0.0200(4) 0.6551(5)
Cl2? Cl 0.8997(4) 0.0950(4) 0.6986(4)
Cl3? Cl 1.0567(4) 0.2012(4) 0.7027(5)
C30? C 0.8674(4) -0.0245(4) 0.5765(5)
Cl4? Cl 0.9761(4) -0.0762(6) 0.6311(6)
Cl5? Cl 0.8228(7) 0.0023(10) 0.6814(7)
Cl6? Cl 0.7893(5) -0.0955(7) 0.4866(9)
loop_
_geom_bond_atom_site_label_1
_geom_bond_atom_site_label_2
_geom_bond_site_symmetry_1
_geom_bond_site_symmetry_2
P1 O1 1_555 1_555
O1 C1 1_555 1_555
O2 P1 1_555 1_555
O3 P1 1_555 1_555
O4 C22 1_555 1_555
O5 P1 1_555 1_555
C1 C2 1_555 1_555
C2 C3 1_555 1_555
C3 C4 1_555 1_555
C4 C5 1_555 1_555
C5 C6 1_555 1_555
C6 C1 1_555 1_555
C7 C6 1_555 1_555
C8 O2 1_555 1_555
C9 C7 1_555 1_555
C10 C9 1_555 1_555
C11 C10 1_555 1_555
C12 C11 1_555 1_555
C13 C8 1_555 1_555
C14 C13 1_555 1_555
C15 O3 1_555 1_555
C16 C14 1_555 1_555
C17 C16 1_555 1_555
C18 C17 1_555 1_555
C19 C18 1_555 1_555
C20 C15 1_555 1_555
C21 C20 1_555 1_555
C22 C23 1_555 1_555
C23 C21 1_555 1_555
C24 C23 1_555 1_555
C25 C24 1_555 1_555
C26 C25 1_555 1_555
C27 C22 1_555 1_555
C28 C2 1_555 1_555
H1 O4 1_555 1_555
H2 C3 1_555 1_555
H3 C4 1_555 1_555
H4 C5 1_555 1_555
H5 C7 1_555 1_555
H6 C7 1_555 1_555
H7 C10 1_555 1_555
H8 C11 1_555 1_555
H9 C12 1_555 1_555
H10 C14 1_555 1_555
H11 C14 1_555 1_555
H12 C17 1_555 1_555
H13 C18 1_555 1_555
H14 C19 1_555 1_555
H15 C21 1_555 1_555
H16 C21 1_555 1_555
H17 C24 1_555 1_555
H18 C25 1_555 1_555
H19 C26 1_555 1_555
H20 C28 1_555 1_555
H21 C28 1_555 1_555
C8 C9 1_555 1_555
C12 C13 1_555 1_555
C15 C16 1_555 1_555
C19 C20 1_555 1_555
C26 C27 1_555 1_555
C27 C28 1_555 1_555

#END
