
#######################################################################
#
#                 Cambridge Crystallographic Data Centre
#                                CCDC 
#
#######################################################################
#
# If this CIF has been generated from an entry in the Cambridge 
# Structural Database, then it will include bibliographic, chemical, 
# crystal, experimental, refinement or atomic coordinate data resulting 
# from the CCDC's data processing and validation procedures.
#
#######################################################################

data_HEMLUJ
_chemical_formula_moiety         'C17 H18 Cl2 N2 O7'
_chemical_name_systematic        
'dimethyl 4-{[5,5-dichloro-2-(diethylamino)-4-oxo-4,5-dihydrofuran-3-yl]oxy}pyridine-2,6-dicarboxylate'
_symmetry_cell_setting           monoclinic
_symmetry_space_group_name_H-M   'P 21/c'
_symmetry_Int_Tables_number      14
_space_group_name_Hall           '-P 2ybc'
loop_
_symmetry_equiv_pos_site_id
_symmetry_equiv_pos_as_xyz
1 x,y,z
2 -x,1/2+y,1/2-z
3 -x,-y,-z
4 x,1/2-y,1/2+z
_cell_length_a                   8.5092(3)
_cell_length_b                   14.9978(5)
_cell_length_c                   15.1520(6)
_cell_angle_alpha                90
_cell_angle_beta                 97.131(2)
_cell_angle_gamma                90
_cell_volume                     1918.73
_exptl_crystal_colour            colorless
_exptl_crystal_description       rods
_cell_formula_units_Z            4
loop_
_atom_site_label
_atom_site_type_symbol
_atom_site_fract_x
_atom_site_fract_y
_atom_site_fract_z
N1 N 0.70073(16) 0.51854(10) 0.45398(10)
C1 C 0.5824(2) 0.49651(11) 0.39069(12)
C2 C 0.5279(2) 0.57100(13) 0.32776(12)
O1 O 0.58224(15) 0.64495(8) 0.33188(9)
O2 O 0.40956(14) 0.54490(8) 0.26663(8)
C3 C 0.3499(2) 0.61309(12) 0.20315(13)
H1 H 0.2766 0.5860 0.1556
H2 H 0.4386 0.6404 0.1776
H3 H 0.2941 0.6589 0.2334
C4 C 0.5117(2) 0.41296(12) 0.38373(11)
H4 H 0.4295 0.3999 0.3372
C5 C 0.5644(2) 0.34929(11) 0.44652(11)
C6 C 0.6868(2) 0.36959(11) 0.51259(12)
H5 H 0.7257 0.3269 0.5562
C7 C 0.7502(2) 0.45515(12) 0.51245(12)
C8 C 0.8795(2) 0.48322(12) 0.58454(12)
O3 O 0.93390(15) 0.55701(9) 0.59196(9)
O4 O 0.92200(14) 0.41593(8) 0.64016(8)
C9 C 1.0415(2) 0.43737(13) 0.71394(13)
H6 H 1.0654 0.3841 0.7507
H7 H 1.0019 0.4846 0.7500
H8 H 1.1380 0.4578 0.6909
O5 O 0.48822(13) 0.26804(8) 0.43869(8)
C10 C 0.52168(19) 0.20724(11) 0.50772(11)
C11 C 0.6660(2) 0.16418(11) 0.53020(12)
O6 O 0.79495(14) 0.16963(8) 0.50128(8)
C12 C 0.6364(2) 0.10397(12) 0.60832(12)
Cl1 Cl 0.74279(5) 0.14347(3) 0.70904(3)
Cl2 Cl 0.68892(5) -0.00835(3) 0.59176(3)
O7 O 0.47285(13) 0.10834(8) 0.61557(8)
C13 C 0.4080(2) 0.17276(11) 0.55693(11)
N2 N 0.25618(16) 0.18570(9) 0.55755(9)
C14 C 0.1684(2) 0.25542(11) 0.50292(11)
H9 H 0.2392 0.3069 0.4971
H10 H 0.0786 0.2763 0.5332
C15 C 0.1060(2) 0.22107(12) 0.41101(12)
H11 H 0.0486 0.2689 0.3767
H12 H 0.1949 0.2013 0.3805
H13 H 0.0343 0.1708 0.4165
C16 C 0.1651(2) 0.13338(12) 0.61656(12)
H14 H 0.2138 0.0737 0.6267
H15 H 0.0554 0.1251 0.5874
C17 C 0.1620(2) 0.17997(13) 0.70506(12)
H16 H 0.1011 0.1441 0.7429
H17 H 0.2705 0.1873 0.7344
H18 H 0.1122 0.2387 0.6951
loop_
_geom_bond_atom_site_label_1
_geom_bond_atom_site_label_2
_geom_bond_site_symmetry_1
_geom_bond_site_symmetry_2
N1 C1 1_555 1_555
C1 C2 1_555 1_555
C2 O1 1_555 1_555
O2 C2 1_555 1_555
C3 O2 1_555 1_555
H1 C3 1_555 1_555
H2 C3 1_555 1_555
H3 C3 1_555 1_555
C4 C1 1_555 1_555
H4 C4 1_555 1_555
C5 C4 1_555 1_555
C6 C5 1_555 1_555
H5 C6 1_555 1_555
C7 N1 1_555 1_555
C8 C7 1_555 1_555
O3 C8 1_555 1_555
O4 C8 1_555 1_555
C9 O4 1_555 1_555
H6 C9 1_555 1_555
H7 C9 1_555 1_555
H8 C9 1_555 1_555
O5 C5 1_555 1_555
C10 O5 1_555 1_555
C11 C10 1_555 1_555
O6 C11 1_555 1_555
C12 C11 1_555 1_555
Cl1 C12 1_555 1_555
Cl2 C12 1_555 1_555
O7 C12 1_555 1_555
C13 C10 1_555 1_555
N2 C13 1_555 1_555
C14 N2 1_555 1_555
H9 C14 1_555 1_555
H10 C14 1_555 1_555
C15 C14 1_555 1_555
H11 C15 1_555 1_555
H12 C15 1_555 1_555
H13 C15 1_555 1_555
C16 N2 1_555 1_555
H14 C16 1_555 1_555
H15 C16 1_555 1_555
C17 C16 1_555 1_555
H16 C17 1_555 1_555
H17 C17 1_555 1_555
H18 C17 1_555 1_555
C6 C7 1_555 1_555
O7 C13 1_555 1_555

#END
