
#######################################################################
#
#                 Cambridge Crystallographic Data Centre
#                                CCDC 
#
#######################################################################
#
# If this CIF has been generated from an entry in the Cambridge 
# Structural Database, then it will include bibliographic, chemical, 
# crystal, experimental, refinement or atomic coordinate data resulting 
# from the CCDC's data processing and validation procedures.
#
#######################################################################

data_HEMROG
_chemical_formula_moiety         'C44 H53 Br1 O4,C2 H3 N1'
_chemical_name_systematic        
'1,26:21,28-Diepoxy-24-bromo-5,11,17,23-tetra-t-butyl-27-hydroxy-pentacyclo(19.3.1.1^3,7^.1^9,13^.1^15,19^)octacosa-3,5,7(26),9,11,13(27),15,17,19(28),22-decaen-25-one acetonitrile solvate'
_symmetry_cell_setting           triclinic
_symmetry_space_group_name_H-M   'P -1'
_symmetry_Int_Tables_number      2
_space_group_name_Hall           '-P 1'
loop_
_symmetry_equiv_pos_site_id
_symmetry_equiv_pos_as_xyz
1 x,y,z
2 -x,-y,-z
_cell_length_a                   9.882(2)
_cell_length_b                   23.105(4)
_cell_length_c                   9.537(2)
_cell_angle_alpha                101.26(1)
_cell_angle_beta                 97.03(3)
_cell_angle_gamma                97.15(3)
_cell_volume                     2094.79
_chemical_melting_point          165-170deg.C(dec.)
_cell_formula_units_Z            2
loop_
_atom_site_label
_atom_site_type_symbol
_atom_site_fract_x
_atom_site_fract_y
_atom_site_fract_z
Br1 Br 0.20071(5) 0.42985(2) 0.83754(6)
O1 O 0.3922(3) 0.2982(1) 0.7570(3)
O2 O 0.1790(2) 0.2093(1) 0.8497(2)
O3 O 0.1619(2) 0.1858(1) 1.1237(2)
O4 O 0.3198(2) 0.3097(1) 1.0843(2)
C1 C 0.3030(4) 0.3030(2) 0.8312(4)
C2 C 0.3230(4) 0.3468(2) 0.9760(4)
C3 C 0.1978(4) 0.3792(2) 0.9850(4)
C4 C 0.0628(3) 0.3392(2) 0.9565(4)
C5 C 0.0477(3) 0.2872(2) 0.8597(4)
C6 C 0.1605(3) 0.2625(1) 0.7884(3)
C7 C 0.1262(4) 0.2384(2) 0.6220(4)
C8 C 0.1863(3) 0.1623(1) 0.7374(3)
C9 C 0.1624(3) 0.1757(2) 0.6026(4)
C10 C 0.1689(3) 0.1334(2) 0.4812(3)
C11 C 0.1977(3) 0.0767(2) 0.4944(4)
C12 C 0.2174(3) 0.0653(1) 0.6340(4)
C13 C 0.2112(3) 0.1069(1) 0.7586(3)
C14 C 0.2213(4) 0.0904(2) 0.9061(4)
C15 C 0.2969(3) 0.1751(1) 1.1280(3)
C16 C 0.3302(3) 0.1294(1) 1.0240(3)
C17 C 0.4655(4) 0.1185(1) 1.0347(4)
C18 C 0.5688(4) 0.1510(2) 1.1451(4)
C19 C 0.5303(3) 0.1960(1) 1.2452(4)
C20 C 0.3966(3) 0.2083(1) 1.2390(3)
C21 C 0.3619(4) 0.2607(2) 1.3465(4)
C22 C 0.4200(3) 0.3382(1) 1.2005(4)
C23 C 0.4389(3) 0.3186(1) 1.3298(3)
C24 C 0.5397(4) 0.3547(2) 1.4364(4)
C25 C 0.6176(4) 0.4062(2) 1.4192(4)
C26 C 0.5995(4) 0.4216(2) 1.2842(4)
C27 C 0.5003(3) 0.3868(2) 1.1746(4)
C28 C 0.4609(4) 0.3895(2) 1.0181(4)
C29 C -0.0489(4) 0.3578(2) 1.0457(4)
C30 C -0.0036(5) 0.3485(2) 1.1989(5)
C31 C -0.0648(5) 0.4227(2) 1.0537(6)
C32 C -0.1887(5) 0.3194(2) 0.9872(6)
C33 C 0.2116(4) 0.0289(2) 0.3611(4)
C34 C 0.1079(4) 0.0320(2) 0.2309(4)
C35 C 0.1869(5) -0.0338(2) 0.3874(4)
C36 C 0.3579(4) 0.0418(2) 0.3248(5)
C37 C 0.7169(4) 0.1356(2) 1.1583(4)
C38 C 0.7657(6) 0.1253(4) 1.0139(7)
C39 C 0.7182(6) 0.0828(4) 1.223(1)
C40 C 0.8207(5) 0.1867(3) 1.2531(7)
C41 C 0.7213(5) 0.4447(2) 1.5469(5)
C42 C 0.8372(6) 0.4091(4) 1.5818(6)
C43 C 0.6533(6) 0.4580(3) 1.6811(6)
C44 C 0.787(1) 0.5012(4) 1.5123(8)
H1 H 0.1357 0.1961 1.0338
H2 H 0.2074 0.4044 1.0783
H3 H -0.0420 0.2644 0.8347
H4 H 0.1538 0.1426 0.3883
H5 H 0.2362 0.0268 0.6438
H6 H 0.4889 0.0877 0.9643
H7 H 0.5986 0.2191 1.3209
H8 H 0.5560 0.3433 1.5267
H9 H 0.6546 0.4557 1.2676
H10 H 0.0312 0.2377 0.5887
H11 H 0.1807 0.2620 0.5722
H12 H 0.1343 0.0922 0.9380
H13 H 0.2406 0.0506 0.8940
H14 H 0.2656 0.2617 1.3292
H15 H 0.3870 0.2555 1.4421
H16 H 0.5278 0.3760 0.9611
H17 H 0.4494 0.4289 1.0086
H18 H -0.0710 0.3590 1.2582
H19 H 0.0059 0.3078 1.1944
H20 H 0.0824 0.3730 1.2387
H21 H 0.0215 0.4473 1.0913
H22 H -0.0954 0.4284 0.9597
H23 H -0.1306 0.4333 1.1153
H24 H -0.2532 0.3306 1.0497
H25 H -0.2198 0.3252 0.8934
H26 H -0.1804 0.2786 0.9819
H27 H 0.1222 0.0709 0.2112
H28 H 0.1203 0.0035 0.1489
H29 H 0.0168 0.0236 0.2516
H30 H 0.0953 -0.0424 0.4066
H31 H 0.1997 -0.0615 0.3041
H32 H 0.2503 -0.0369 0.4680
H33 H 0.4233 0.0399 0.4050
H34 H 0.3687 0.0128 0.2429
H35 H 0.3723 0.0804 0.3041
H36 H 0.7051 0.0935 0.9489
H37 H 0.7668 0.1606 0.9768
H38 H 0.8561 0.1151 1.0244
H39 H 0.6925 0.0918 1.3170
H40 H 0.6548 0.0504 1.1643
H41 H 0.8084 0.0723 1.2306
H42 H 0.9104 0.1757 1.2576
H43 H 0.8196 0.2212 1.2132
H44 H 0.7969 0.1950 1.3478
H45 H 0.7994 0.3732 1.6063
H46 H 0.8825 0.3998 1.4997
H47 H 0.9017 0.4323 1.6610
H48 H 0.7199 0.4799 1.7599
H49 H 0.5817 0.4809 1.6643
H50 H 0.6155 0.4216 1.7032
H51 H 0.8526 0.5227 1.5924
H52 H 0.8315 0.4918 1.4299
H53 H 0.7178 0.5250 1.4928
N1 N 0.7507(8) 0.2180(5) 0.6297(7)
C45 C 0.6561(6) 0.1971(4) 0.6536(6)
C46 C 0.5349(6) 0.1707(3) 0.6811(8)
H54 H 0.4717 0.1986 0.6887
H55 H 0.4981 0.1374 0.6046
H56 H 0.5500 0.1576 0.7694
loop_
_geom_bond_atom_site_label_1
_geom_bond_atom_site_label_2
_geom_bond_site_symmetry_1
_geom_bond_site_symmetry_2
Br1 C3 1_555 1_555
O1 C1 1_555 1_555
O2 C6 1_555 1_555
O3 C15 1_555 1_555
O4 C2 1_555 1_555
C1 C2 1_555 1_555
C2 C3 1_555 1_555
C3 C4 1_555 1_555
C4 C5 1_555 1_555
C5 C6 1_555 1_555
C6 C1 1_555 1_555
C7 C6 1_555 1_555
C8 O2 1_555 1_555
C9 C7 1_555 1_555
C10 C9 1_555 1_555
C11 C10 1_555 1_555
C12 C11 1_555 1_555
C13 C8 1_555 1_555
C14 C13 1_555 1_555
C15 C16 1_555 1_555
C16 C14 1_555 1_555
C17 C16 1_555 1_555
C18 C17 1_555 1_555
C19 C18 1_555 1_555
C20 C15 1_555 1_555
C21 C20 1_555 1_555
C22 O4 1_555 1_555
C23 C21 1_555 1_555
C24 C23 1_555 1_555
C25 C24 1_555 1_555
C26 C25 1_555 1_555
C27 C22 1_555 1_555
C28 C2 1_555 1_555
C29 C4 1_555 1_555
C30 C29 1_555 1_555
C31 C29 1_555 1_555
C32 C29 1_555 1_555
C33 C11 1_555 1_555
C34 C33 1_555 1_555
C35 C33 1_555 1_555
C36 C33 1_555 1_555
C37 C18 1_555 1_555
C38 C37 1_555 1_555
C39 C37 1_555 1_555
C40 C37 1_555 1_555
C41 C25 1_555 1_555
C42 C41 1_555 1_555
C43 C41 1_555 1_555
C44 C41 1_555 1_555
N1 C45 1_555 1_555
C45 C46 1_555 1_555
C46 H54 1_555 1_555
H1 O3 1_555 1_555
H2 C3 1_555 1_555
H3 C5 1_555 1_555
H4 C10 1_555 1_555
H5 C12 1_555 1_555
H6 C17 1_555 1_555
H7 C19 1_555 1_555
H8 C24 1_555 1_555
H9 C26 1_555 1_555
H10 C7 1_555 1_555
H11 C7 1_555 1_555
H12 C14 1_555 1_555
H13 C14 1_555 1_555
H14 C21 1_555 1_555
H15 C21 1_555 1_555
H16 C28 1_555 1_555
H17 C28 1_555 1_555
H18 C30 1_555 1_555
H19 C30 1_555 1_555
H20 C30 1_555 1_555
H21 C31 1_555 1_555
H22 C31 1_555 1_555
H23 C31 1_555 1_555
H24 C32 1_555 1_555
H25 C32 1_555 1_555
H26 C32 1_555 1_555
H27 C34 1_555 1_555
H28 C34 1_555 1_555
H29 C34 1_555 1_555
H30 C35 1_555 1_555
H31 C35 1_555 1_555
H32 C35 1_555 1_555
H33 C36 1_555 1_555
H34 C36 1_555 1_555
H35 C36 1_555 1_555
H36 C38 1_555 1_555
H37 C38 1_555 1_555
H38 C38 1_555 1_555
H39 C39 1_555 1_555
H40 C39 1_555 1_555
H41 C39 1_555 1_555
H42 C40 1_555 1_555
H43 C40 1_555 1_555
H44 C40 1_555 1_555
H45 C42 1_555 1_555
H46 C42 1_555 1_555
H47 C42 1_555 1_555
H48 C43 1_555 1_555
H49 C43 1_555 1_555
H50 C43 1_555 1_555
H51 C44 1_555 1_555
H52 C44 1_555 1_555
H53 C44 1_555 1_555
H55 C46 1_555 1_555
H56 C46 1_555 1_555
C8 C9 1_555 1_555
C12 C13 1_555 1_555
C19 C20 1_555 1_555
C22 C23 1_555 1_555
C26 C27 1_555 1_555
C27 C28 1_555 1_555

#END
