
#######################################################################
#
#                 Cambridge Crystallographic Data Centre
#                                CCDC 
#
#######################################################################
#
# If this CIF has been generated from an entry in the Cambridge 
# Structural Database, then it will include bibliographic, chemical, 
# crystal, experimental, refinement or atomic coordinate data resulting 
# from the CCDC's data processing and validation procedures.
#
#######################################################################

data_HEMSEA
_chemical_formula_moiety         'C24 H30 N3 O1 P1'
_chemical_name_systematic        
"N,N',N''-tris(1-phenylethyl)phosphoric triamide"
_symmetry_cell_setting           trigonal
_symmetry_space_group_name_H-M   'P 32'
_symmetry_Int_Tables_number      145
_space_group_name_Hall           'P 32'
loop_
_symmetry_equiv_pos_site_id
_symmetry_equiv_pos_as_xyz
1 x,y,z
2 -y,x-y,2/3+z
3 -x+y,-x,1/3+z
_cell_length_a                   12.209(3)
_cell_length_b                   12.209(3)
_cell_length_c                   12.997(3)
_cell_angle_alpha                90
_cell_angle_beta                 90
_cell_angle_gamma                120
_cell_volume                     1677.78
_exptl_crystal_colour            colorless
_exptl_crystal_description       rod
_cell_formula_units_Z            3
loop_
_atom_site_label
_atom_site_type_symbol
_atom_site_fract_x
_atom_site_fract_y
_atom_site_fract_z
P1 P 0.73418(13) 0.47893(13) 0.39164(12)
O1 O 0.7137(4) 0.4351(4) 0.2828(3)
N1 N 0.7542(5) 0.6231(4) 0.3908(4)
H1 H 0.7353 0.6495 0.4456
N2 N 0.6224(4) 0.4038(5) 0.4757(4)
H2 H 0.6347 0.3618 0.5229
N3 N 0.8499(5) 0.4693(5) 0.4469(4)
H3 H 0.8372 0.4362 0.5073
C1 C 0.8024(5) 0.7095(5) 0.3016(4)
H4 H 0.7849 0.6571 0.2400
C2 C 0.7312(6) 0.7814(6) 0.2900(5)
H5 H 0.7579 0.8308 0.2281
H6 H 0.7486 0.8362 0.3481
H7 H 0.6420 0.7224 0.2865
C3 C 0.9455(3) 0.7965(3) 0.3076(3)
C4 C 0.9990(3) 0.8873(4) 0.3845(3)
H8 H 0.9474 0.8971 0.4318
C5 C 1.1297(3) 0.9635(3) 0.3907(3)
H9 H 1.1654 1.0243 0.4422
C6 C 1.2068(3) 0.9489(4) 0.3200(4)
H10 H 1.2942 0.9999 0.3241
C7 C 1.1533(3) 0.8581(4) 0.2431(3)
H11 H 1.2049 0.8483 0.1958
C8 C 1.0227(3) 0.7819(3) 0.2369(3)
H12 H 0.9869 0.7211 0.1854
C9 C 0.5024(5) 0.4031(5) 0.4761(5)
H13 H 0.5070 0.4612 0.4220
C10 C 0.3938(6) 0.2720(6) 0.4488(5)
H14 H 0.4031 0.2524 0.3789
H15 H 0.3149 0.2706 0.4562
H16 H 0.3950 0.2105 0.4940
C11 C 0.4780(4) 0.4506(4) 0.5777(3)
C12 C 0.5326(3) 0.4423(4) 0.6690(3)
H17 H 0.5861 0.4085 0.6690
C13 C 0.5073(4) 0.4845(4) 0.7605(3)
H18 H 0.5438 0.4789 0.8216
C14 C 0.4274(4) 0.5349(4) 0.7606(3)
H19 H 0.4105 0.5631 0.8217
C15 C 0.3728(4) 0.5432(4) 0.6692(4)
H20 H 0.3193 0.5769 0.6693
C16 C 0.3981(4) 0.5010(4) 0.5778(3)
H21 H 0.3615 0.5066 0.5166
C17 C 0.9728(5) 0.5139(6) 0.3993(5)
H22 H 0.9718 0.5528 0.3336
C18 C 1.0748(8) 0.6185(8) 0.4660(7)
H23 H 1.1561 0.6489 0.4344
H24 H 1.0748 0.5853 0.5330
H25 H 1.0576 0.6867 0.4724
C19 C 1.0010(4) 0.4086(3) 0.3752(3)
C20 C 0.9036(3) 0.2836(4) 0.3704(4)
H26 H 0.8208 0.2638 0.3833
C21 C 0.9301(5) 0.1883(3) 0.3463(4)
H27 H 0.8649 0.1047 0.3431
C22 C 1.0539(6) 0.2180(5) 0.3270(4)
H28 H 1.0716 0.1542 0.3109
C23 C 1.1513(4) 0.3430(6) 0.3318(4)
H29 H 1.2341 0.3628 0.3189
C24 C 1.1249(3) 0.4383(4) 0.3559(4)
H30 H 1.1900 0.5219 0.3590
loop_
_geom_bond_atom_site_label_1
_geom_bond_atom_site_label_2
_geom_bond_site_symmetry_1
_geom_bond_site_symmetry_2
P1 O1 1_555 1_555
N1 P1 1_555 1_555
H1 N1 1_555 1_555
N2 P1 1_555 1_555
H2 N2 1_555 1_555
N3 P1 1_555 1_555
H3 N3 1_555 1_555
C1 N1 1_555 1_555
H4 C1 1_555 1_555
C2 C1 1_555 1_555
H5 C2 1_555 1_555
H6 C2 1_555 1_555
H7 C2 1_555 1_555
C3 C1 1_555 1_555
C4 C3 1_555 1_555
H8 C4 1_555 1_555
C5 C4 1_555 1_555
H9 C5 1_555 1_555
C6 C5 1_555 1_555
H10 C6 1_555 1_555
C7 C6 1_555 1_555
H11 C7 1_555 1_555
C8 C3 1_555 1_555
H12 C8 1_555 1_555
C9 N2 1_555 1_555
H13 C9 1_555 1_555
C10 C9 1_555 1_555
H14 C10 1_555 1_555
H15 C10 1_555 1_555
H16 C10 1_555 1_555
C11 C9 1_555 1_555
C12 C11 1_555 1_555
H17 C12 1_555 1_555
C13 C12 1_555 1_555
H18 C13 1_555 1_555
C14 C13 1_555 1_555
H19 C14 1_555 1_555
C15 C14 1_555 1_555
H20 C15 1_555 1_555
C16 C11 1_555 1_555
H21 C16 1_555 1_555
C17 N3 1_555 1_555
H22 C17 1_555 1_555
C18 C17 1_555 1_555
H23 C18 1_555 1_555
H24 C18 1_555 1_555
H25 C18 1_555 1_555
C19 C17 1_555 1_555
C20 C19 1_555 1_555
H26 C20 1_555 1_555
C21 C20 1_555 1_555
H27 C21 1_555 1_555
C22 C21 1_555 1_555
H28 C22 1_555 1_555
C23 C22 1_555 1_555
H29 C23 1_555 1_555
C24 C19 1_555 1_555
H30 C24 1_555 1_555
C7 C8 1_555 1_555
C15 C16 1_555 1_555
C23 C24 1_555 1_555

#END
