
#######################################################################
#
#                 Cambridge Crystallographic Data Centre
#                                CCDC 
#
#######################################################################
#
# If this CIF has been generated from an entry in the Cambridge 
# Structural Database, then it will include bibliographic, chemical, 
# crystal, experimental, refinement or atomic coordinate data resulting 
# from the CCDC's data processing and validation procedures.
#
#######################################################################

data_HEMWUU
_chemical_formula_moiety         'C22 H16 F3 N3 Se1'
_chemical_name_systematic        
1-benzyl-5-(phenylselanyl)-4-(4-(trifluoromethyl)phenyl)-1H-1,2,3-triazole
_symmetry_cell_setting           monoclinic
_symmetry_space_group_name_H-M   'P 21/n'
_symmetry_Int_Tables_number      14
_space_group_name_Hall           '-P 2yn'
loop_
_symmetry_equiv_pos_site_id
_symmetry_equiv_pos_as_xyz
1 x,y,z
2 1/2-x,1/2+y,1/2-z
3 -x,-y,-z
4 1/2+x,1/2-y,1/2+z
_cell_length_a                   5.55096(4)
_cell_length_b                   15.31313(12)
_cell_length_c                   22.67115(17)
_cell_angle_alpha                90
_cell_angle_beta                 93.5493(7)
_cell_angle_gamma                90
_cell_volume                     1923.41
_exptl_crystal_colour            colorless
_exptl_crystal_description       needle
_cell_formula_units_Z            4
loop_
_atom_site_label
_atom_site_type_symbol
_atom_site_fract_x
_atom_site_fract_y
_atom_site_fract_z
Se1 Se 0.18930(4) 0.50813(2) 0.65697(2)
N1 N 0.5242(4) 0.62210(13) 0.60539(8)
N2 N 0.7600(4) 0.54879(13) 0.55326(8)
N3 N 0.7123(4) 0.62799(13) 0.57136(9)
F1 F 0.5722(6) 0.07466(13) 0.54684(12)
C1 C 0.6004(4) 0.49112(15) 0.57567(10)
C2 C 0.4481(4) 0.53794(15) 0.60987(10)
F2 F 0.6088(8) 0.11256(14) 0.45920(11)
C3 C 0.6174(4) 0.39789(15) 0.56086(9)
C4 C 0.3737(5) 0.48719(15) 0.73043(11)
C5 C 0.4450(4) 0.33691(16) 0.57601(10)
H1 H 0.313388 0.355054 0.596348
C6 C 0.4687(4) 0.71036(14) 0.69597(10)
C7 C 0.8334(5) 0.28245(16) 0.51387(11)
H2 H 0.962309 0.264320 0.492565
C8 C 0.6621(5) 0.22207(16) 0.53012(11)
C9 C 0.8123(4) 0.36934(16) 0.52937(10)
H3 H 0.928454 0.409211 0.518812
C10 C 0.4231(5) 0.70175(16) 0.62963(11)
H4 H 0.250406 0.702545 0.620061
H5 H 0.492279 0.751913 0.610753
C11 C 0.5891(4) 0.44066(16) 0.73311(11)
H6 H 0.654587 0.421414 0.698645
C12 C 0.2737(5) 0.51507(17) 0.78191(12)
H7 H 0.129874 0.546395 0.779877
C13 C 0.6779(4) 0.67988(16) 0.72537(11)
H8 H 0.792250 0.650456 0.704596
C14 C 0.3385(5) 0.76718(17) 0.78755(11)
H9 H 0.223893 0.796409 0.808354
C15 C 0.2979(4) 0.75392(16) 0.72714(11)
H10 H 0.156507 0.774197 0.707621
C16 C 0.5474(5) 0.73737(17) 0.81694(11)
H11 H 0.574279 0.746806 0.857330
C17 C 0.4674(5) 0.24962(16) 0.56111(11)
H12 H 0.352191 0.209484 0.571835
C18 C 0.7053(5) 0.42324(18) 0.78786(13)
H13 H 0.851093 0.393165 0.790002
C19 C 0.7177(5) 0.69306(17) 0.78574(11)
H14 H 0.858183 0.672272 0.805368
F3 F 0.9076(6) 0.10015(17) 0.5182(2)
C20 C 0.6054(6) 0.4504(2) 0.83938(12)
H15 H 0.683276 0.438032 0.875929
C21 C 0.3895(7) 0.49589(19) 0.83625(13)
H16 H 0.321951 0.513694 0.870795
C22 C 0.6844(6) 0.12858(18) 0.51316(13)
loop_
_geom_bond_atom_site_label_1
_geom_bond_atom_site_label_2
_geom_bond_site_symmetry_1
_geom_bond_site_symmetry_2
Se1 C2 1_555 1_555
N1 N3 1_555 1_555
N2 N3 1_555 1_555
F1 C22 1_555 1_555
C1 N2 1_555 1_555
C2 N1 1_555 1_555
F2 C22 1_555 1_555
C3 C1 1_555 1_555
C4 Se1 1_555 1_555
C5 C3 1_555 1_555
H1 C5 1_555 1_555
C6 C10 1_555 1_555
C7 H2 1_555 1_555
C8 C7 1_555 1_555
C9 C3 1_555 1_555
H3 C9 1_555 1_555
C10 N1 1_555 1_555
H4 C10 1_555 1_555
H5 C10 1_555 1_555
C11 C4 1_555 1_555
H6 C11 1_555 1_555
C12 C4 1_555 1_555
H7 C12 1_555 1_555
C13 C6 1_555 1_555
H8 C13 1_555 1_555
C14 H9 1_555 1_555
C15 C6 1_555 1_555
H10 C15 1_555 1_555
C16 C14 1_555 1_555
H11 C16 1_555 1_555
C17 C5 1_555 1_555
H12 C17 1_555 1_555
C18 C11 1_555 1_555
H13 C18 1_555 1_555
C19 C13 1_555 1_555
H14 C19 1_555 1_555
F3 C22 1_555 1_555
C20 C18 1_555 1_555
H15 C20 1_555 1_555
C21 C12 1_555 1_555
H16 C21 1_555 1_555
C22 C8 1_555 1_555
C1 C2 1_555 1_555
C7 C9 1_555 1_555
C8 C17 1_555 1_555
C14 C15 1_555 1_555
C16 C19 1_555 1_555
C20 C21 1_555 1_555

#END
