
#######################################################################
#
#                 Cambridge Crystallographic Data Centre
#                                CCDC 
#
#######################################################################
#
# If this CIF has been generated from an entry in the Cambridge 
# Structural Database, then it will include bibliographic, chemical, 
# crystal, experimental, refinement or atomic coordinate data resulting 
# from the CCDC's data processing and validation procedures.
#
#######################################################################

data_HEMYED
_chemical_formula_moiety         'C21 H26 N2 O8'
_chemical_name_systematic        
(5S,1'R,2'R)-2-Acetyl-5-(1',2',3'-triacetoxy)propyl-1-benzyl-pyrazolidin-3-one
_symmetry_cell_setting           orthorhombic
_symmetry_space_group_name_H-M   'P 21 21 21'
_symmetry_Int_Tables_number      19
_space_group_name_Hall           'P 2ac 2ab'
loop_
_symmetry_equiv_pos_site_id
_symmetry_equiv_pos_as_xyz
1 x,y,z
2 1/2+x,1/2-y,-z
3 -x,1/2+y,1/2-z
4 1/2-x,-y,1/2+z
_cell_length_a                   12.705(1)
_cell_length_b                   17.884(1)
_cell_length_c                   30.518(3)
_cell_angle_alpha                90
_cell_angle_beta                 90
_cell_angle_gamma                90
_cell_volume                     6934.18
_exptl_crystal_colour            colorless
_chemical_melting_point          126-128deg.C
_cell_formula_units_Z            12
loop_
_atom_site_label
_atom_site_type_symbol
_atom_site_fract_x
_atom_site_fract_y
_atom_site_fract_z
N1 N 0.7760(2) 0.7372(1) -0.00453(6)
N2 N 0.7641(2) 0.7779(1) -0.04476(6)
C1 C 0.8490(2) 0.8266(2) -0.05240(9)
C2 C 0.9243(2) 0.8176(2) -0.0156(1)
C3 C 0.8589(2) 0.7800(1) 0.01980(9)
C4 C 0.8088(2) 0.8363(1) 0.05054(8)
C5 C 0.7369(2) 0.8001(1) 0.08477(8)
C6 C 0.7978(3) 0.7582(1) 0.11949(9)
C7 C 0.8071(3) 0.6590(1) -0.01457(9)
C8 C 0.8119(2) 0.6141(1) 0.02720(9)
C9 C 0.7201(3) 0.5950(2) 0.0489(1)
C10 C 0.7241(4) 0.5557(2) 0.0882(1)
C11 C 0.8192(5) 0.5349(2) 0.1052(1)
C12 C 0.9115(4) 0.5533(2) 0.0842(2)
C13 C 0.9071(3) 0.5927(2) 0.0445(1)
C14 C 0.6673(2) 0.7742(2) -0.06642(9)
C15 C 0.6524(3) 0.8237(2) -0.1054(1)
C16 C 0.7648(2) 0.9606(1) 0.02736(8)
C17 C 0.6881(3) 1.0043(1) 0.0009(1)
C18 C 0.5781(2) 0.8681(2) 0.0936(1)
C19 C 0.5303(3) 0.9314(2) 0.1176(1)
C20 C 0.9422(3) 0.7812(2) 0.1667(1)
C21 C 1.0240(3) 0.8355(3) 0.1791(1)
O1 O 0.8564(2) 0.8695(1) -0.08324(7)
O2 O 0.7446(1) 0.8867(1) 0.02470(5)
O3 O 0.6778(1) 0.8571(1) 0.10694(5)
O4 O 0.8769(2) 0.8084(1) 0.13676(7)
O5 O 0.6010(2) 0.7308(1) -0.05331(8)
O6 O 0.8364(2) 0.9858(1) 0.04809(8)
O7 O 0.5376(2) 0.8309(2) 0.06595(9)
O8 O 0.9344(4) 0.7199(2) 0.1802(1)
N3 N 0.2648(2) 0.7663(1) 0.34283(6)
N4 N 0.2485(2) 0.7251(1) 0.38292(7)
C22 C 0.3354(3) 0.6805(2) 0.3939(1)
C23 C 0.4153(2) 0.6907(2) 0.3588(1)
C24 C 0.3540(2) 0.7263(1) 0.32114(9)
C25 C 0.3130(2) 0.6681(1) 0.28883(8)
C26 C 0.2444(2) 0.7024(1) 0.25319(8)
C27 C 0.3071(3) 0.7427(2) 0.21870(9)
C28 C 0.2897(2) 0.8449(1) 0.35414(8)
C29 C 0.3015(2) 0.8910(1) 0.31323(9)
C30 C 0.2141(3) 0.9051(2) 0.2866(1)
C31 C 0.2260(4) 0.9468(2) 0.2483(1)
C32 C 0.3233(4) 0.9745(2) 0.2372(1)
C33 C 0.4092(4) 0.9617(2) 0.2635(2)
C34 C 0.3973(3) 0.9201(2) 0.3017(1)
C35 C 0.1481(2) 0.7263(2) 0.40104(8)
C36 C 0.1273(3) 0.6757(2) 0.4395(1)
C37 C 0.2747(2) 0.5417(1) 0.30905(9)
C38 C 0.1970(3) 0.4946(2) 0.3335(1)
C39 C 0.0872(2) 0.6326(2) 0.24330(9)
C40 C 0.0402(3) 0.5682(2) 0.2188(1)
C41 C 0.4482(4) 0.7165(3) 0.1717(1)
C42 C 0.5285(4) 0.6600(4) 0.1598(2)
O9 O 0.3411(2) 0.6407(2) 0.42563(9)
O10 O 0.2498(1) 0.6147(1) 0.31295(6)
O11 O 0.1868(1) 0.6441(1) 0.23071(6)
O12 O 0.3830(2) 0.6904(1) 0.20181(7)
O13 O 0.0821(2) 0.7682(1) 0.38650(7)
O14 O 0.3485(2) 0.5192(1) 0.2891(1)
O15 O 0.0444(2) 0.6688(2) 0.27075(8)
O16 O 0.4444(5) 0.7779(2) 0.1580(1)
N5 N 0.7663(2) 0.7350(1) 0.32686(6)
N6 N 0.7523(2) 0.7806(1) 0.28832(6)
C43 C 0.8379(2) 0.8283(2) 0.28092(9)
C44 C 0.9159(2) 0.8141(2) 0.3166(1)
C45 C 0.8504(2) 0.7744(1) 0.35162(9)
C46 C 0.8024(2) 0.8303(1) 0.38396(8)
C47 C 0.7234(2) 0.7955(1) 0.41553(8)
C48 C 0.7720(3) 0.7437(2) 0.4489(1)
C49 C 0.7969(2) 0.6589(1) 0.31230(9)
C50 C 0.8092(2) 0.6072(1) 0.3512(1)
C51 C 0.7211(3) 0.5859(2) 0.3757(1)
C52 C 0.7341(4) 0.5389(2) 0.4115(1)
C53 C 0.8318(5) 0.5132(2) 0.4224(2)
C54 C 0.9181(4) 0.5335(3) 0.3980(2)
C55 C 0.9062(3) 0.5804(2) 0.3627(1)
C56 C 0.6538(2) 0.7808(2) 0.26836(9)
C57 C 0.6371(3) 0.8343(2) 0.2310(1)
C58 C 0.7720(2) 0.9582(1) 0.36213(8)
C59 C 0.6981(3) 1.0053(2) 0.3363(1)
C60 C 0.5745(2) 0.8721(2) 0.4292(1)
C61 C 0.5352(3) 0.9357(2) 0.4559(1)
C62 C 0.7057(9) 0.6581(3) 0.5020(2)
C63 C 0.6119(10) 0.6185(4) 0.5180(2)
O17 O 0.8451(2) 0.8738(1) 0.25168(8)
O18 O 0.7445(1) 0.8854(1) 0.35904(5)
O19 O 0.6732(1) 0.8542(1) 0.44001(5)
O20 O 0.6843(3) 0.7035(1) 0.46876(8)
O21 O 0.5871(2) 0.7371(1) 0.28072(7)
O22 O 0.8457(2) 0.9795(1) 0.38272(9)
O23 O 0.5276(2) 0.8433(2) 0.4004(1)
O24 O 0.7927(8) 0.6526(3) 0.5154(2)
loop_
_geom_bond_atom_site_label_1
_geom_bond_atom_site_label_2
_geom_bond_site_symmetry_1
_geom_bond_site_symmetry_2
N1 N2 1_555 1_555
N2 C1 1_555 1_555
C1 C2 1_555 1_555
C2 C3 1_555 1_555
C3 N1 1_555 1_555
C4 C3 1_555 1_555
C5 C4 1_555 1_555
C6 C5 1_555 1_555
C7 N1 1_555 1_555
C8 C7 1_555 1_555
C9 C8 1_555 1_555
C10 C9 1_555 1_555
C11 C10 1_555 1_555
C12 C11 1_555 1_555
C13 C8 1_555 1_555
C14 N2 1_555 1_555
C15 C14 1_555 1_555
C16 C17 1_555 1_555
C18 C19 1_555 1_555
C20 C21 1_555 1_555
O1 C1 1_555 1_555
O2 C4 1_555 1_555
O3 C5 1_555 1_555
O4 C6 1_555 1_555
O5 C14 1_555 1_555
O6 C16 1_555 1_555
O7 C18 1_555 1_555
O8 C20 1_555 1_555
N3 N4 1_555 1_555
N4 C22 1_555 1_555
C22 C23 1_555 1_555
C23 C24 1_555 1_555
C24 N3 1_555 1_555
C25 C24 1_555 1_555
C26 C25 1_555 1_555
C27 C26 1_555 1_555
C28 N3 1_555 1_555
C29 C28 1_555 1_555
C30 C29 1_555 1_555
C31 C30 1_555 1_555
C32 C31 1_555 1_555
C33 C32 1_555 1_555
C34 C29 1_555 1_555
C35 N4 1_555 1_555
C36 C35 1_555 1_555
C37 C38 1_555 1_555
C39 C40 1_555 1_555
C41 C42 1_555 1_555
O9 C22 1_555 1_555
O10 C25 1_555 1_555
O11 C26 1_555 1_555
O12 C27 1_555 1_555
O13 C35 1_555 1_555
O14 C37 1_555 1_555
O15 C39 1_555 1_555
O16 C41 1_555 1_555
N5 N6 1_555 1_555
N6 C43 1_555 1_555
C43 C44 1_555 1_555
C44 C45 1_555 1_555
C45 N5 1_555 1_555
C46 C45 1_555 1_555
C47 C46 1_555 1_555
C48 C47 1_555 1_555
C49 N5 1_555 1_555
C50 C49 1_555 1_555
C51 C50 1_555 1_555
C52 C51 1_555 1_555
C53 C52 1_555 1_555
C54 C53 1_555 1_555
C55 C50 1_555 1_555
C56 N6 1_555 1_555
C57 C56 1_555 1_555
C58 C59 1_555 1_555
C60 C61 1_555 1_555
C62 C63 1_555 1_555
O17 C43 1_555 1_555
O18 C46 1_555 1_555
O19 C47 1_555 1_555
O20 C48 1_555 1_555
O21 C56 1_555 1_555
O22 C58 1_555 1_555
O23 C60 1_555 1_555
O24 C62 1_555 1_555
C12 C13 1_555 1_555
C16 O2 1_555 1_555
C18 O3 1_555 1_555
C20 O4 1_555 1_555
C33 C34 1_555 1_555
C37 O10 1_555 1_555
C39 O11 1_555 1_555
C41 O12 1_555 1_555
C54 C55 1_555 1_555
C58 O18 1_555 1_555
C60 O19 1_555 1_555
C62 O20 1_555 1_555

#END
