
#######################################################################
#
#                 Cambridge Crystallographic Data Centre
#                                CCDC 
#
#######################################################################
#
# If this CIF has been generated from an entry in the Cambridge 
# Structural Database, then it will include bibliographic, chemical, 
# crystal, experimental, refinement or atomic coordinate data resulting 
# from the CCDC's data processing and validation procedures.
#
#######################################################################

data_HENBUY
_chemical_formula_moiety         'C27 H29 N1 O2 Si1'
_chemical_name_systematic        
(R)-(+)-2-Hydroxy-N-(1-naphthylen-2-ylethyl)-6-phenyl-3-(trimethylsilyl)hex-3-en-5-ynamide
_symmetry_cell_setting           monoclinic
_symmetry_space_group_name_H-M   'P 21'
_symmetry_Int_Tables_number      4
_space_group_name_Hall           'P 2yb'
loop_
_symmetry_equiv_pos_site_id
_symmetry_equiv_pos_as_xyz
1 x,y,z
2 -x,1/2+y,-z
_cell_length_a                   6.0952(3)
_cell_length_b                   16.8339(8)
_cell_length_c                   11.9653(6)
_cell_angle_alpha                90.00
_cell_angle_beta                 96.885(2)
_cell_angle_gamma                90.00
_cell_volume                     1218.86
_exptl_crystal_colour            colorless
_cell_formula_units_Z            2
_exptl_crystal_recrystallization_method acetone/hexanes
loop_
_atom_site_label
_atom_site_type_symbol
_atom_site_fract_x
_atom_site_fract_y
_atom_site_fract_z
C1 C -0.0060(2) 0.22755(13) 0.53789(13)
C2 C 0.1104(3) 0.15883(12) 0.55421(16)
C3 C 0.0420(3) 0.09638(13) 0.62261(16)
C4 C 0.1648(5) 0.02497(14) 0.6416(2)
C5 C 0.0917(6) -0.03297(17) 0.7094(2)
C6 C -0.1000(6) -0.0229(2) 0.7600(3)
C7 C -0.2218(5) 0.04408(19) 0.7429(2)
C8 C -0.1541(3) 0.10631(14) 0.67421(16)
C9 C -0.2727(3) 0.17750(15) 0.65548(17)
C10 C -0.2027(3) 0.23623(14) 0.59015(15)
C11 C 0.0684(3) 0.29723(12) 0.47226(16)
C12 C 0.1596(4) 0.36380(15) 0.5504(2)
N1 N 0.2345(3) 0.27578(10) 0.39904(13)
C13 C 0.1910(3) 0.24878(11) 0.29485(14)
O1 O 0.00321(18) 0.23635(10) 0.24791(10)
C14 C 0.3939(2) 0.23319(13) 0.23343(14)
O2 O 0.5815(2) 0.26104(9) 0.30459(10)
C15 C 0.3624(3) 0.27164(12) 0.11681(14)
Si1 Si 0.18804(8) 0.22150(3) -0.00504(4)
C16 C 0.0833(6) 0.12443(18) 0.0373(2)
C17 C 0.3643(5) 0.2039(2) -0.1191(2)
C18 C -0.0443(4) 0.2887(2) -0.0559(3)
C19 C 0.4658(3) 0.34006(13) 0.10445(17)
C20 C 0.4575(3) 0.38530(13) 0.00274(18)
C21 C 0.4587(3) 0.42349(13) -0.08173(18)
C22 C 0.4546(3) 0.46747(12) -0.18510(17)
C23 C 0.2737(4) 0.51527(12) -0.22337(19)
C24 C 0.2706(4) 0.55718(13) -0.3215(2)
C25 C 0.4448(4) 0.55280(14) -0.38438(19)
C26 C 0.6262(4) 0.50654(14) -0.34736(19)
C27 C 0.6315(3) 0.46375(13) -0.24839(18)
H1 H 0.254(4) 0.1544(13) 0.5231(17)
H2 H 0.300(4) 0.0235(15) 0.603(2)
H3 H 0.190(5) -0.079(2) 0.716(2)
H4 H -0.142(5) -0.059(2) 0.814(3)
H5 H -0.353(4) 0.0497(16) 0.779(2)
H6 H -0.414(4) 0.1858(14) 0.6898(19)
H7 H -0.277(3) 0.2853(13) 0.5788(16)
H8 H -0.062(3) 0.3162(12) 0.4206(17)
H9 H 0.194(5) 0.411(2) 0.506(3)
H10 H 0.058(4) 0.3773(14) 0.602(2)
H11 H 0.293(4) 0.3456(13) 0.603(2)
H12 H 0.404(3) 0.1726(14) 0.2268(16)
H13 H 0.216(5) 0.0867(19) 0.067(3)
H14 H -0.013(5) 0.1327(18) 0.093(3)
H15 H 0.002(4) 0.0953(16) -0.027(2)
H16 H 0.483(5) 0.1704(19) -0.086(2)
H17 H 0.284(5) 0.1774(19) -0.177(3)
H18 H 0.439(5) 0.2558(19) -0.145(2)
H19 H -0.125(6) 0.269(2) -0.121(3)
H20 H -0.152(6) 0.295(2) 0.012(3)
H21 H 0.011(6) 0.340(2) -0.071(3)
H22 H 0.559(4) 0.3637(14) 0.168(2)
H23 H 0.151(4) 0.5197(14) -0.182(2)
H24 H 0.142(4) 0.5873(16) -0.346(2)
H25 H 0.442(4) 0.5820(13) -0.451(2)
H26 H 0.739(4) 0.5036(16) -0.390(2)
H27 H 0.761(4) 0.4306(13) -0.2224(18)
H28 H 0.697(4) 0.2491(15) 0.281(2)
H29 H 0.364(4) 0.2823(12) 0.4223(16)
loop_
_geom_bond_atom_site_label_1
_geom_bond_atom_site_label_2
_geom_bond_site_symmetry_1
_geom_bond_site_symmetry_2
C1 C2 1_555 1_555
C2 C3 1_555 1_555
C3 C4 1_555 1_555
C4 C5 1_555 1_555
C5 C6 1_555 1_555
C6 C7 1_555 1_555
C7 C8 1_555 1_555
C8 C3 1_555 1_555
C9 C8 1_555 1_555
C10 C1 1_555 1_555
C11 C1 1_555 1_555
C12 C11 1_555 1_555
N1 C11 1_555 1_555
C13 N1 1_555 1_555
O1 C13 1_555 1_555
C14 C13 1_555 1_555
O2 C14 1_555 1_555
C15 C14 1_555 1_555
Si1 C15 1_555 1_555
C16 Si1 1_555 1_555
C17 Si1 1_555 1_555
C18 Si1 1_555 1_555
C19 C15 1_555 1_555
C20 C19 1_555 1_555
C21 C20 1_555 1_555
C22 C21 1_555 1_555
C23 C22 1_555 1_555
C24 C23 1_555 1_555
C25 C24 1_555 1_555
C26 C25 1_555 1_555
C27 C22 1_555 1_555
H1 C2 1_555 1_555
H2 C4 1_555 1_555
H3 C5 1_555 1_555
H4 C6 1_555 1_555
H5 C7 1_555 1_555
H6 C9 1_555 1_555
H7 C10 1_555 1_555
H8 C11 1_555 1_555
H9 C12 1_555 1_555
H10 C12 1_555 1_555
H11 C12 1_555 1_555
H12 C14 1_555 1_555
H13 C16 1_555 1_555
H14 C16 1_555 1_555
H15 C16 1_555 1_555
H16 C17 1_555 1_555
H17 C17 1_555 1_555
H18 C17 1_555 1_555
H19 C18 1_555 1_555
H20 C18 1_555 1_555
H21 C18 1_555 1_555
H22 C19 1_555 1_555
H23 C23 1_555 1_555
H24 C24 1_555 1_555
H25 C25 1_555 1_555
H26 C26 1_555 1_555
H27 C27 1_555 1_555
H28 O2 1_555 1_555
H29 N1 1_555 1_555
C9 C10 1_555 1_555
C26 C27 1_555 1_555

#END
