
#######################################################################
#
#                 Cambridge Crystallographic Data Centre
#                                CCDC 
#
#######################################################################
#
# If this CIF has been generated from an entry in the Cambridge 
# Structural Database, then it will include bibliographic, chemical, 
# crystal, experimental, refinement or atomic coordinate data resulting 
# from the CCDC's data processing and validation procedures.
#
#######################################################################

data_HENKUJ
_chemical_formula_moiety         'C19 H19 N5 O4 Se1'
_chemical_name_systematic        
"5-nitro-1H-indol-3-yl N,N-diethyl-N'-(3-nitrophenyl)carbamimidoselenoate"
_symmetry_cell_setting           orthorhombic
_symmetry_space_group_name_H-M   'P 21 21 21'
_symmetry_Int_Tables_number      19
_space_group_name_Hall           'P 2ac 2ab'
loop_
_symmetry_equiv_pos_site_id
_symmetry_equiv_pos_as_xyz
1 x,y,z
2 1/2-x,-y,1/2+z
3 -x,1/2+y,1/2-z
4 1/2+x,1/2-y,-z
_cell_length_a                   10.1145(12)
_cell_length_b                   13.2322(11)
_cell_length_c                   14.8079(17)
_cell_angle_alpha                90
_cell_angle_beta                 90
_cell_angle_gamma                90
_cell_volume                     1981.85
_exptl_crystal_colour            'dark black'
_exptl_crystal_description       block
_cell_formula_units_Z            4
loop_
_atom_site_label
_atom_site_type_symbol
_atom_site_fract_x
_atom_site_fract_y
_atom_site_fract_z
Se1 Se 0.49759(6) 0.72903(3) 0.96298(3)
O1 O 1.0769(4) 0.9568(3) 0.7863(3)
O2 O 0.9291(5) 0.9960(3) 0.8845(3)
O3 O 0.6662(5) 0.8577(4) 0.5637(3)
O4 O 0.5375(4) 0.7680(3) 0.4798(2)
N1 N 0.6717(5) 0.6030(3) 0.7434(3)
N2 N 0.9727(5) 0.9400(3) 0.8251(3)
N3 N 0.4476(4) 0.9317(3) 1.0054(3)
N4 N 0.4269(4) 0.9031(3) 0.8536(3)
N5 N 0.5658(5) 0.8081(3) 0.5517(3)
C1 C 0.5980(5) 0.6952(3) 0.8596(3)
C2 C 0.5735(6) 0.6121(4) 0.8063(4)
H1 H 0.5014 0.5689 0.8121
C3 C 0.7586(5) 0.6819(4) 0.7525(3)
C4 C 0.7137(5) 0.7411(3) 0.8272(3)
C5 C 0.7849(5) 0.8281(4) 0.8504(4)
H2 H 0.7583 0.8692 0.8980
C6 C 0.8944(5) 0.8502(4) 0.8009(4)
C7 C 0.9388(5) 0.7928(4) 0.7273(4)
H3 H 1.0137 0.8123 0.6953
C8 C 0.8704(5) 0.7075(4) 0.7031(4)
H4 H 0.8981 0.6678 0.6549
C9 C 0.4516(5) 0.8697(3) 0.9323(3)
C10 C 0.4084(5) 0.8402(4) 0.7774(4)
C11 C 0.3005(5) 0.7761(4) 0.7686(4)
H5 H 0.2407 0.7699 0.8160
C12 C 0.2808(5) 0.7213(4) 0.6900(4)
H6 H 0.2089 0.6778 0.6857
C13 C 0.3668(5) 0.7306(4) 0.6181(4)
H7 H 0.3542 0.6939 0.5652
C14 C 0.4717(5) 0.7960(3) 0.6273(3)
C15 C 0.4953(6) 0.8506(3) 0.7049(3)
H8 H 0.5679 0.8936 0.7089
C16 C 0.4021(6) 1.0357(4) 0.9930(4)
H9 H 0.4333 1.0609 0.9353
H10 H 0.4393 1.0780 1.0401
C17 C 0.2525(7) 1.0426(5) 0.9962(4)
H11 H 0.2154 0.9986 0.9513
H12 H 0.2256 1.1109 0.9844
H13 H 0.2219 1.0225 1.0549
C18 C 0.4962(7) 0.9086(3) 1.0956(3)
H14 H 0.4911 0.8363 1.1054
H15 H 0.4395 0.9411 1.1398
C19 C 0.6379(6) 0.9433(5) 1.1103(5)
H16 H 0.6966 0.9019 1.0753
H17 H 0.6599 0.9376 1.1731
H18 H 0.6465 1.0125 1.0916
H19 H 0.669(7) 0.556(5) 0.703(4)
loop_
_geom_bond_atom_site_label_1
_geom_bond_atom_site_label_2
_geom_bond_site_symmetry_1
_geom_bond_site_symmetry_2
Se1 C1 1_555 1_555
O1 N2 1_555 1_555
O2 N2 1_555 1_555
O3 N5 1_555 1_555
O4 N5 1_555 1_555
N1 C2 1_555 1_555
N2 C6 1_555 1_555
N3 C9 1_555 1_555
N4 C9 1_555 1_555
N5 C14 1_555 1_555
C1 C2 1_555 1_555
C2 H1 1_555 1_555
C3 N1 1_555 1_555
C4 C1 1_555 1_555
C5 C4 1_555 1_555
H2 C5 1_555 1_555
C6 C5 1_555 1_555
C7 C6 1_555 1_555
H3 C7 1_555 1_555
C8 C3 1_555 1_555
H4 C8 1_555 1_555
C9 Se1 1_555 1_555
C10 N4 1_555 1_555
C11 C10 1_555 1_555
H5 C11 1_555 1_555
C12 C11 1_555 1_555
H6 C12 1_555 1_555
C13 C12 1_555 1_555
H7 C13 1_555 1_555
C14 C13 1_555 1_555
C15 C10 1_555 1_555
H8 C15 1_555 1_555
C16 N3 1_555 1_555
H9 C16 1_555 1_555
H10 C16 1_555 1_555
C17 C16 1_555 1_555
H11 C17 1_555 1_555
H12 C17 1_555 1_555
H13 C17 1_555 1_555
C18 N3 1_555 1_555
H14 C18 1_555 1_555
H15 C18 1_555 1_555
C19 C18 1_555 1_555
H16 C19 1_555 1_555
H17 C19 1_555 1_555
H18 C19 1_555 1_555
H19 N1 1_555 1_555
C3 C4 1_555 1_555
C7 C8 1_555 1_555
C14 C15 1_555 1_555

#END
