
#######################################################################
#
#                 Cambridge Crystallographic Data Centre
#                                CCDC 
#
#######################################################################
#
# If this CIF has been generated from an entry in the Cambridge 
# Structural Database, then it will include bibliographic, chemical, 
# crystal, experimental, refinement or atomic coordinate data resulting 
# from the CCDC's data processing and validation procedures.
#
#######################################################################

data_HENKAP
_chemical_formula_moiety         'C28 H30 N4 O4'
_chemical_name_systematic        
5-methoxy-2'-(1-methyl-1H-indol-3-yl)-1'-nitro-1',2',4a',5',6',7',8',8a',9',9a'-decahydrospiro[indole-3,3'-pyrrolo[1,2-a]indol]-2(1H)-one
_symmetry_cell_setting           monoclinic
_symmetry_space_group_name_H-M   'P 21'
_symmetry_Int_Tables_number      4
_space_group_name_Hall           'P 2yb'
loop_
_symmetry_equiv_pos_site_id
_symmetry_equiv_pos_as_xyz
1 x,y,z
2 -x,1/2+y,-z
_cell_length_a                   9.8684(9)
_cell_length_b                   25.4867(18)
_cell_length_c                   10.5567(9)
_cell_angle_alpha                90
_cell_angle_beta                 110.979(10)
_cell_angle_gamma                90
_cell_volume                     2479.14
_exptl_crystal_colour            colorless
_exptl_crystal_description       block
_cell_formula_units_Z            4
loop_
_atom_site_label
_atom_site_type_symbol
_atom_site_fract_x
_atom_site_fract_y
_atom_site_fract_z
O1 O 0.1404(3) 0.25181(9) 0.3512(2)
C1 C 0.2849(3) 0.21545(12) 0.1229(3)
H1 H 0.300807 0.237846 0.196398
N1 N 0.3560(3) 0.21843(10) 0.0321(2)
C2 C -0.1360(3) 0.21526(12) 0.0397(3)
C3 C 0.3039(3) 0.17954(12) -0.0624(3)
C4 C 0.1557(3) 0.13619(12) 0.3035(3)
H2 H 0.236788 0.159176 0.353621
C5 C -0.2149(3) 0.18879(14) -0.0771(3)
H3 H -0.208377 0.152494 -0.082081
C6 C 0.0383(3) 0.24774(12) 0.2430(3)
C7 C -0.0265(3) 0.19572(11) 0.1717(3)
C8 C 0.0869(3) 0.15656(11) 0.1587(3)
H4 H 0.032009 0.127166 0.104407
N2 N -0.0853(2) 0.17053(10) 0.2677(2)
C9 C -0.2155(3) 0.13600(13) 0.2146(3)
H5 H -0.255473 0.137599 0.115241
N3 N 0.2099(3) 0.08135(13) 0.3120(4)
C10 C 0.1290(4) 0.10912(13) -0.1120(3)
H6 H 0.059558 0.089688 -0.091807
C11 C 0.1879(3) 0.17506(11) 0.0899(3)
C12 C 0.3417(4) 0.16685(14) -0.1737(3)
H7 H 0.412409 0.185662 -0.193503
C13 C -0.1429(4) 0.26971(13) 0.0442(3)
O2 O -0.3794(3) 0.18674(14) -0.3012(2)
C14 C 0.0346(3) 0.14078(12) 0.3675(3)
H8 H 0.072777 0.161061 0.451776
C15 C -0.3051(4) 0.21761(17) -0.1884(3)
N4 N -0.0413(3) 0.28753(10) 0.1678(3)
H9 H -0.030970 0.319880 0.192594
O3 O 0.1523(4) 0.05075(12) 0.2194(4)
C16 C 0.4588(4) 0.25875(14) 0.0281(4)
H10 H 0.483486 0.280057 0.108152
H11 H 0.415735 0.280327 -0.050741
H12 H 0.544880 0.242480 0.024054
O4 O 0.3082(3) 0.06887(14) 0.4174(3)
C17 C 0.1982(3) 0.15125(11) -0.0304(3)
C18 C -0.2322(4) 0.29772(15) -0.0649(5)
H13 H -0.237117 0.334082 -0.060598
C19 C 0.1651(4) 0.09668(14) -0.2231(3)
H14 H 0.118777 0.068861 -0.278756
C20 C -0.1589(4) 0.08055(13) 0.2609(4)
H15 H -0.116932 0.066763 0.196410
C21 C -0.3833(4) 0.06443(16) 0.3218(4)
H16 H -0.336013 0.071486 0.417975
H17 H -0.459976 0.039107 0.311037
C22 C -0.0348(4) 0.09089(13) 0.3942(3)
H18 H -0.070914 0.095887 0.467646
H19 H 0.033910 0.062074 0.417044
C23 C 0.2707(4) 0.12548(15) -0.2529(3)
H20 H 0.293233 0.116350 -0.328323
C24 C -0.3149(4) 0.27113(18) -0.1814(4)
H21 H -0.377248 0.289652 -0.255111
C25 C -0.2746(5) 0.04165(15) 0.2671(5)
H22 H -0.326132 0.028294 0.176542
H23 H -0.226718 0.012199 0.323634
C26 C -0.3285(4) 0.15462(15) 0.2719(4)
H24 H -0.281863 0.161090 0.368426
H25 H -0.370309 0.187402 0.228840
C27 C -0.4482(4) 0.11454(17) 0.2493(5)
H26 H -0.520248 0.127856 0.284039
H27 H -0.495615 0.107834 0.153039
C28 C -0.4773(6) 0.2115(3) -0.4171(5)
H28 H -0.555602 0.226523 -0.395626
H29 H -0.515148 0.186157 -0.488426
H30 H -0.427809 0.238677 -0.446395
C29 C -0.5030(3) 0.39914(11) -0.4215(3)
N5 N -0.5328(3) 0.43108(9) -0.6596(2)
C30 C -0.3024(3) 0.39433(12) -0.5244(3)
H31 H -0.265438 0.427649 -0.478765
O5 O -0.5364(3) 0.31625(9) -0.7017(3)
C31 C -0.4418(3) 0.43013(12) -0.3085(3)
H32 H -0.368030 0.453682 -0.303302
O6 O -0.4388(3) 0.45288(11) -0.0828(2)
C32 C -0.2048(3) 0.35216(12) -0.4414(3)
C33 C -0.4652(3) 0.39274(11) -0.5478(3)
C34 C -0.5473(4) 0.34158(13) -0.6080(3)
C35 C -0.0968(3) 0.35953(13) -0.3095(3)
C36 C -0.5748(3) 0.48378(11) -0.6250(3)
H33 H -0.512310 0.492791 -0.532179
N6 N -0.1649(3) 0.41813(12) -0.6750(3)
C37 C -0.7325(4) 0.48492(14) -0.6349(3)
H34 H -0.750415 0.454973 -0.586393
H35 H -0.748752 0.516409 -0.590725
N7 N -0.0903(3) 0.27547(11) -0.3700(3)
N8 N -0.6401(3) 0.33130(11) -0.5433(3)
H36 H -0.708647 0.308453 -0.569674
C38 C -0.0284(4) 0.31048(13) -0.2675(3)
C39 C -0.4329(4) 0.43790(13) -0.7365(3)
H37 H -0.482846 0.427926 -0.831600
C40 C 0.0807(4) 0.30386(17) -0.1411(4)
H38 H 0.123505 0.271230 -0.114102
C41 C -0.4933(4) 0.42532(13) -0.2018(3)
C42 C -0.3066(4) 0.39983(13) -0.6689(3)
H39 H -0.330407 0.365655 -0.713999
C43 C -0.6098(4) 0.36298(12) -0.4266(3)
C44 C -0.0496(4) 0.40285(15) -0.2237(4)
H40 H -0.091006 0.435737 -0.249795
C45 C 0.0601(5) 0.39571(19) -0.0994(4)
H41 H 0.092852 0.424326 -0.041805
C46 C -0.4000(4) 0.49677(13) -0.7270(4)
H42 H -0.318721 0.505172 -0.645064
H43 H -0.379123 0.508966 -0.805179
C47 C -0.6061(4) 0.39122(15) -0.2124(4)
H44 H -0.642312 0.389779 -0.142435
C48 C -0.1949(4) 0.30078(13) -0.4737(3)
H45 H -0.251511 0.285138 -0.555011
O7 O -0.0930(3) 0.45038(13) -0.5930(3)
C49 C -0.6660(4) 0.35935(15) -0.3241(4)
H46 H -0.741211 0.336314 -0.330269
O8 O -0.1310(4) 0.39972(13) -0.7670(3)
C50 C -0.5394(4) 0.52015(13) -0.7242(3)
H47 H -0.520657 0.555609 -0.685934
C51 C -0.6579(5) 0.52236(17) -0.8656(4)
H48 H -0.638982 0.551853 -0.914985
H49 H -0.653492 0.490615 -0.914725
C52 C 0.1231(4) 0.3463(2) -0.0579(4)
H50 H 0.194711 0.342497 0.027453
C53 C -0.8390(4) 0.48382(16) -0.7784(4)
H51 H -0.936792 0.487380 -0.778248
H52 H -0.832379 0.450367 -0.819634
C54 C -0.8088(5) 0.52782(18) -0.8612(4)
H53 H -0.879835 0.526859 -0.952788
H54 H -0.817452 0.561343 -0.821276
C55 C -0.0492(5) 0.22069(15) -0.3696(5)
H55 H -0.085723 0.201079 -0.310988
H56 H 0.054619 0.217901 -0.337486
H57 H -0.089493 0.206901 -0.460048
C56 C -0.3053(5) 0.4802(2) -0.0550(4)
H58 H -0.270624 0.492258 0.037247
H59 H -0.320324 0.509663 -0.115052
H60 H -0.234951 0.456987 -0.068421
loop_
_geom_bond_atom_site_label_1
_geom_bond_atom_site_label_2
_geom_bond_site_symmetry_1
_geom_bond_site_symmetry_2
O1 C6 1_555 1_555
C1 H1 1_555 1_555
N1 C1 1_555 1_555
C2 C5 1_555 1_555
C3 N1 1_555 1_555
C4 H2 1_555 1_555
C5 H3 1_555 1_555
C6 C7 1_555 1_555
C7 C2 1_555 1_555
C8 C4 1_555 1_555
H4 C8 1_555 1_555
N2 C7 1_555 1_555
C9 N2 1_555 1_555
H5 C9 1_555 1_555
N3 C4 1_555 1_555
C10 H6 1_555 1_555
C11 C1 1_555 1_555
C12 C3 1_555 1_555
H7 C12 1_555 1_555
C13 C2 1_555 1_555
O2 C15 1_555 1_555
C14 C4 1_555 1_555
H8 C14 1_555 1_555
C15 C5 1_555 1_555
N4 C6 1_555 1_555
H9 N4 1_555 1_555
O3 N3 1_555 1_555
C16 N1 1_555 1_555
H10 C16 1_555 1_555
H11 C16 1_555 1_555
H12 C16 1_555 1_555
O4 N3 1_555 1_555
C17 C3 1_555 1_555
C18 C13 1_555 1_555
H13 C18 1_555 1_555
C19 C10 1_555 1_555
H14 C19 1_555 1_555
C20 C9 1_555 1_555
H15 C20 1_555 1_555
C21 H16 1_555 1_555
H17 C21 1_555 1_555
C22 C14 1_555 1_555
H18 C22 1_555 1_555
H19 C22 1_555 1_555
C23 C12 1_555 1_555
H20 C23 1_555 1_555
C24 C15 1_555 1_555
H21 C24 1_555 1_555
C25 C20 1_555 1_555
H22 C25 1_555 1_555
H23 C25 1_555 1_555
C26 C9 1_555 1_555
H24 C26 1_555 1_555
H25 C26 1_555 1_555
C27 C21 1_555 1_555
H26 C27 1_555 1_555
H27 C27 1_555 1_555
C28 O2 1_555 1_555
H28 C28 1_555 1_555
H29 C28 1_555 1_555
H30 C28 1_555 1_555
C29 C31 1_555 1_555
N5 C33 1_555 1_555
C30 H31 1_555 1_555
O5 C34 1_555 1_555
C31 H32 1_555 1_555
O6 C41 1_555 1_555
C32 C30 1_555 1_555
C33 C29 1_555 1_555
C34 C33 1_555 1_555
C35 C32 1_555 1_555
C36 N5 1_555 1_555
H33 C36 1_555 1_555
N6 C42 1_555 1_555
C37 C36 1_555 1_555
H34 C37 1_555 1_555
H35 C37 1_555 1_555
N7 C38 1_555 1_555
N8 C34 1_555 1_555
H36 N8 1_555 1_555
C38 C35 1_555 1_555
C39 N5 1_555 1_555
H37 C39 1_555 1_555
C40 C38 1_555 1_555
H38 C40 1_555 1_555
C41 C31 1_555 1_555
C42 C30 1_555 1_555
H39 C42 1_555 1_555
C43 C29 1_555 1_555
C44 C35 1_555 1_555
H40 C44 1_555 1_555
C45 C44 1_555 1_555
H41 C45 1_555 1_555
C46 C39 1_555 1_555
H42 C46 1_555 1_555
H43 C46 1_555 1_555
C47 C41 1_555 1_555
H44 C47 1_555 1_555
C48 C32 1_555 1_555
H45 C48 1_555 1_555
O7 N6 1_555 1_555
C49 C43 1_555 1_555
H46 C49 1_555 1_555
O8 N6 1_555 1_555
C50 C36 1_555 1_555
H47 C50 1_555 1_555
C51 C50 1_555 1_555
H48 C51 1_555 1_555
H49 C51 1_555 1_555
C52 C40 1_555 1_555
H50 C52 1_555 1_555
C53 C37 1_555 1_555
H51 C53 1_555 1_555
H52 C53 1_555 1_555
C54 C51 1_555 1_555
H53 C54 1_555 1_555
H54 C54 1_555 1_555
C55 N7 1_555 1_555
H55 C55 1_555 1_555
H56 C55 1_555 1_555
H57 C55 1_555 1_555
C56 O6 1_555 1_555
H58 C56 1_555 1_555
H59 C56 1_555 1_555
H60 C56 1_555 1_555
C7 C8 1_555 1_555
C8 C11 1_555 1_555
N2 C14 1_555 1_555
C10 C17 1_555 1_555
C11 C17 1_555 1_555
C13 N4 1_555 1_555
C18 C24 1_555 1_555
C19 C23 1_555 1_555
C20 C22 1_555 1_555
C21 C25 1_555 1_555
C26 C27 1_555 1_555
C30 C33 1_555 1_555
N7 C48 1_555 1_555
N8 C43 1_555 1_555
C39 C42 1_555 1_555
C45 C52 1_555 1_555
C46 C50 1_555 1_555
C47 C49 1_555 1_555
C53 C54 1_555 1_555

#END
