
#######################################################################
#
#                 Cambridge Crystallographic Data Centre
#                                CCDC 
#
#######################################################################
#
# If this CIF has been generated from an entry in the Cambridge 
# Structural Database, then it will include bibliographic, chemical, 
# crystal, experimental, refinement or atomic coordinate data resulting 
# from the CCDC's data processing and validation procedures.
#
#######################################################################

data_HENKOD
_chemical_formula_moiety         'C24 H20 O5'
_chemical_name_systematic        
'methyl 9b-methoxy-3-methyl-1-oxo-4-phenyl-2a,9b-dihydrobenzo[5,6]indeno[1,7-bc]furan-9c(1H)-carboxylate'
_symmetry_cell_setting           orthorhombic
_symmetry_space_group_name_H-M   'P b c a'
_symmetry_Int_Tables_number      61
_space_group_name_Hall           '-P 2ac 2ab'
loop_
_symmetry_equiv_pos_site_id
_symmetry_equiv_pos_as_xyz
1 x,y,z
2 1/2-x,-y,1/2+z
3 -x,1/2+y,1/2-z
4 1/2+x,1/2-y,-z
5 -x,-y,-z
6 1/2+x,y,1/2-z
7 x,1/2-y,1/2+z
8 1/2-x,1/2+y,z
_cell_length_a                   9.52631(13)
_cell_length_b                   14.5795(3)
_cell_length_c                   26.9344(4)
_cell_angle_alpha                90
_cell_angle_beta                 90
_cell_angle_gamma                90
_cell_volume                     3740.89
_exptl_crystal_colour            colorless
_exptl_crystal_description       block
_cell_formula_units_Z            8
loop_
_atom_site_label
_atom_site_type_symbol
_atom_site_fract_x
_atom_site_fract_y
_atom_site_fract_z
O1 O 0.09202(10) 0.56992(7) 0.33499(4)
O2 O 0.39276(10) 0.56236(7) 0.28267(3)
O3 O 0.45930(10) 0.35751(7) 0.32326(4)
O4 O 0.22422(11) 0.69109(7) 0.35548(4)
O5 O 0.28297(11) 0.34800(8) 0.26836(4)
C1 C 0.11201(14) 0.39173(10) 0.39989(5)
C2 C 0.25492(14) 0.42546(10) 0.39146(5)
C3 C 0.47256(14) 0.50621(10) 0.41027(5)
C4 C 0.06886(14) 0.35020(10) 0.44775(5)
C5 C 0.21673(14) 0.61239(10) 0.34292(5)
C6 C 0.35588(14) 0.44556(10) 0.42399(5)
H1 H 0.3523 0.4208 0.4558
C7 C 0.58799(14) 0.51869(10) 0.44151(5)
H2 H 0.5963 0.4831 0.4700
C8 C 0.46347(14) 0.55887(10) 0.36655(5)
C9 C 0.02814(14) 0.41662(10) 0.36185(5)
C10 C 0.33410(14) 0.37974(10) 0.30540(5)
C11 C 0.34011(14) 0.54632(10) 0.33161(5)
C12 C 0.26572(14) 0.45369(10) 0.33709(5)
C13 C 0.69043(14) 0.58329(10) 0.43074(5)
H3 H 0.7665 0.5910 0.4520
C14 C 0.56618(15) 0.62387(10) 0.35618(5)
H4 H 0.5593 0.6594 0.3276
C15 C 0.11073(14) 0.47091(10) 0.32447(5)
H5 H 0.0874 0.4548 0.2901
C16 C -0.03183(15) 0.39366(10) 0.47711(5)
H6 H -0.0770 0.4459 0.4653
C17 C -0.00050(16) 0.28092(11) 0.54140(5)
H7 H -0.0232 0.2578 0.5726
C18 C 0.67914(15) 0.63629(11) 0.38820(5)
H8 H 0.7471 0.6802 0.3811
C19 C 0.13353(15) 0.27122(10) 0.46556(5)
H9 H 0.2004 0.2413 0.4463
C20 C 0.09847(16) 0.23694(11) 0.51210(6)
H10 H 0.1418 0.1840 0.5237
C21 C -0.12583(15) 0.40048(11) 0.35557(5)
H11 H -0.1583 0.3596 0.3810
H12 H -0.1431 0.3737 0.3236
H13 H -0.1750 0.4578 0.3581
C22 C 0.53388(16) 0.28690(11) 0.29648(6)
H14 H 0.5383 0.3028 0.2619
H15 H 0.4856 0.2295 0.3002
H16 H 0.6273 0.2814 0.3095
C23 C 0.29377(16) 0.58486(11) 0.24449(5)
H17 H 0.3424 0.5932 0.2136
H18 H 0.2457 0.6405 0.2531
H19 H 0.2269 0.5360 0.2412
C24 C -0.06514(16) 0.35952(11) 0.52382(6)
H20 H -0.1312 0.3896 0.5434
loop_
_geom_bond_atom_site_label_1
_geom_bond_atom_site_label_2
_geom_bond_site_symmetry_1
_geom_bond_site_symmetry_2
O1 C5 1_555 1_555
O2 C11 1_555 1_555
O3 C10 1_555 1_555
O4 C5 1_555 1_555
O5 C10 1_555 1_555
C1 C2 1_555 1_555
C2 C6 1_555 1_555
C3 C6 1_555 1_555
C4 C1 1_555 1_555
C5 C11 1_555 1_555
C6 H1 1_555 1_555
C7 C3 1_555 1_555
H2 C7 1_555 1_555
C8 C3 1_555 1_555
C9 C1 1_555 1_555
C10 C12 1_555 1_555
C11 C8 1_555 1_555
C12 C2 1_555 1_555
C13 C7 1_555 1_555
H3 C13 1_555 1_555
C14 C8 1_555 1_555
H4 C14 1_555 1_555
C15 O1 1_555 1_555
H5 C15 1_555 1_555
C16 C4 1_555 1_555
H6 C16 1_555 1_555
C17 H7 1_555 1_555
C18 C13 1_555 1_555
H8 C18 1_555 1_555
C19 C4 1_555 1_555
H9 C19 1_555 1_555
C20 C17 1_555 1_555
H10 C20 1_555 1_555
C21 C9 1_555 1_555
H11 C21 1_555 1_555
H12 C21 1_555 1_555
H13 C21 1_555 1_555
C22 O3 1_555 1_555
H14 C22 1_555 1_555
H15 C22 1_555 1_555
H16 C22 1_555 1_555
C23 O2 1_555 1_555
H17 C23 1_555 1_555
H18 C23 1_555 1_555
H19 C23 1_555 1_555
C24 C16 1_555 1_555
H20 C24 1_555 1_555
C9 C15 1_555 1_555
C11 C12 1_555 1_555
C12 C15 1_555 1_555
C14 C18 1_555 1_555
C17 C24 1_555 1_555
C19 C20 1_555 1_555

#END
