
#######################################################################
#
#                 Cambridge Crystallographic Data Centre
#                                CCDC 
#
#######################################################################
#
# If this CIF has been generated from an entry in the Cambridge 
# Structural Database, then it will include bibliographic, chemical, 
# crystal, experimental, refinement or atomic coordinate data resulting 
# from the CCDC's data processing and validation procedures.
#
#######################################################################

data_HEPGUF
_chemical_formula_moiety         'C25 H22 N4 O2'
_chemical_name_systematic        
'Benzoic acid 5-(4-dimethylaminophenylazo)-2-methylquinolin-8-yl ester'
_symmetry_cell_setting           triclinic
_symmetry_space_group_name_H-M   'P -1'
_symmetry_Int_Tables_number      2
_space_group_name_Hall           '-P 1'
loop_
_symmetry_equiv_pos_site_id
_symmetry_equiv_pos_as_xyz
1 x,y,z
2 -x,-y,-z
_cell_length_a                   8.7729(13)
_cell_length_b                   9.7258(15)
_cell_length_c                   13.207(2)
_cell_angle_alpha                107.738(2)
_cell_angle_beta                 94.234(2)
_cell_angle_gamma                98.989(2)
_cell_volume                     1051.25
_cell_formula_units_Z            2
loop_
_atom_site_label
_atom_site_type_symbol
_atom_site_fract_x
_atom_site_fract_y
_atom_site_fract_z
N1 N 0.8531(3) 0.9374(2) -0.13750(18)
N2 N 0.5287(2) 0.7249(2) 0.14892(16)
N3 N 0.4898(2) 0.8170(2) 0.22827(16)
N4 N 0.2262(2) 0.8880(2) 0.54631(16)
O1 O 0.2377(2) 0.60470(19) 0.54092(13)
O2 O 0.4411(2) 0.7286(2) 0.66589(15)
C1 C 0.9081(4) 0.8361(3) -0.2261(2)
H1 H 0.8771 0.7375 -0.2249
H2 H 1.0196 0.8600 -0.2195
H3 H 0.8642 0.8436 -0.2925
C2 C 0.8885(4) 1.0921(3) -0.1252(2)
H4 H 0.8457 1.1465 -0.0639
H5 H 0.8439 1.1082 -0.1883
H6 H 0.9993 1.1244 -0.1153
C3 C 0.7708(3) 0.8867(3) -0.0683(2)
C4 C 0.7223(3) 0.9848(3) 0.0211(2)
H7 H 0.7445 1.0852 0.0314
C5 C 0.6434(3) 0.9357(3) 0.0929(2)
H8 H 0.6148 1.0030 0.1517
C6 C 0.6055(3) 0.7859(3) 0.07858(19)
C7 C 0.6509(3) 0.6887(3) -0.00978(19)
H9 H 0.6262 0.5883 -0.0204
C8 C 0.7309(3) 0.7364(3) -0.0817(2)
H10 H 0.7591 0.6683 -0.1402
C9 C 0.4257(3) 0.7565(3) 0.30447(18)
C10 C 0.4349(3) 0.6178(3) 0.3079(2)
H11 H 0.4814 0.5559 0.2560
C11 C 0.3747(3) 0.5696(3) 0.3889(2)
H12 H 0.3813 0.4759 0.3908
C12 C 0.3065(3) 0.6592(3) 0.46493(19)
C13 C 0.2947(3) 0.8030(3) 0.46640(18)
C14 C 0.3571(2) 0.8520(2) 0.38481(18)
C15 C 0.3495(3) 0.9982(3) 0.39015(19)
H13 H 0.3888 1.0364 0.3388
C16 C 0.2841(3) 1.0821(3) 0.4710(2)
H14 H 0.2805 1.1789 0.4758
C17 C 0.2213(3) 1.0234(3) 0.54825(19)
C18 C 0.1477(3) 1.1159(3) 0.6358(2)
H15 H 0.1117 1.0600 0.6809
H16 H 0.0613 1.1462 0.6053
H17 H 0.2227 1.2010 0.6777
C19 C 0.3137(3) 0.6535(3) 0.6424(2)
C20 C 0.2241(3) 0.5961(2) 0.71630(19)
C21 C 0.2898(3) 0.6360(3) 0.8221(2)
H18 H 0.3854 0.6997 0.8452
C22 C 0.2140(4) 0.5815(3) 0.8929(2)
H19 H 0.2584 0.6081 0.9639
C23 C 0.0719(4) 0.4872(3) 0.8591(2)
H20 H 0.0213 0.4497 0.9072
C24 C 0.0054(3) 0.4488(3) 0.7553(2)
H21 H -0.0909 0.3862 0.7332
C25 C 0.0807(3) 0.5026(3) 0.6826(2)
H22 H 0.0353 0.4762 0.6119
loop_
_geom_bond_atom_site_label_1
_geom_bond_atom_site_label_2
_geom_bond_site_symmetry_1
_geom_bond_site_symmetry_2
N1 C1 1_555 1_555
N2 N3 1_555 1_555
N3 C9 1_555 1_555
N4 C13 1_555 1_555
O1 C12 1_555 1_555
O2 C19 1_555 1_555
C1 H1 1_555 1_555
H2 C1 1_555 1_555
H3 C1 1_555 1_555
C2 N1 1_555 1_555
H4 C2 1_555 1_555
H5 C2 1_555 1_555
H6 C2 1_555 1_555
C3 N1 1_555 1_555
C4 C3 1_555 1_555
H7 C4 1_555 1_555
C5 C4 1_555 1_555
H8 C5 1_555 1_555
C6 N2 1_555 1_555
C7 C6 1_555 1_555
H9 C7 1_555 1_555
C8 C3 1_555 1_555
H10 C8 1_555 1_555
C9 C10 1_555 1_555
C10 H11 1_555 1_555
C11 C10 1_555 1_555
H12 C11 1_555 1_555
C12 C11 1_555 1_555
C13 C12 1_555 1_555
C14 C9 1_555 1_555
C15 C14 1_555 1_555
H13 C15 1_555 1_555
C16 C15 1_555 1_555
H14 C16 1_555 1_555
C17 N4 1_555 1_555
C18 C17 1_555 1_555
H15 C18 1_555 1_555
H16 C18 1_555 1_555
H17 C18 1_555 1_555
C19 O1 1_555 1_555
C20 C19 1_555 1_555
C21 C20 1_555 1_555
H18 C21 1_555 1_555
C22 C21 1_555 1_555
H19 C22 1_555 1_555
C23 C22 1_555 1_555
H20 C23 1_555 1_555
C24 C23 1_555 1_555
H21 C24 1_555 1_555
C25 C20 1_555 1_555
H22 C25 1_555 1_555
C5 C6 1_555 1_555
C7 C8 1_555 1_555
C13 C14 1_555 1_555
C16 C17 1_555 1_555
C24 C25 1_555 1_555

#END
