
#######################################################################
#
#                 Cambridge Crystallographic Data Centre
#                                CCDC 
#
#######################################################################
#
# If this CIF has been generated from an entry in the Cambridge 
# Structural Database, then it will include bibliographic, chemical, 
# crystal, experimental, refinement or atomic coordinate data resulting 
# from the CCDC's data processing and validation procedures.
#
#######################################################################

data_HEPJIV
_chemical_formula_moiety         'C19 H19 N1 O2'
_chemical_name_systematic        
(6bR*,9aS*)-8-((R*)-1-Hydroxy-2,2-dimethyl-3-butenyl)-2H(6b,9a)-acenaphthyleno(1,2-d)oxazole
_symmetry_cell_setting           orthorhombic
_symmetry_space_group_name_H-M   'P 21 21 21'
_symmetry_Int_Tables_number      19
_space_group_name_Hall           'P 2ac 2ab'
loop_
_symmetry_equiv_pos_site_id
_symmetry_equiv_pos_as_xyz
1 x,y,z
2 1/2+x,1/2-y,-z
3 -x,1/2+y,1/2-z
4 1/2-x,-y,1/2+z
_cell_length_a                   10.136(1)
_cell_length_b                   26.755(3)
_cell_length_c                   5.6996(8)
_cell_angle_alpha                90
_cell_angle_beta                 90
_cell_angle_gamma                90
_cell_volume                     1545.67
_exptl_crystal_colour            white
_chemical_melting_point          131.8-132.0deg.C
_cell_formula_units_Z            4
loop_
_atom_site_label
_atom_site_type_symbol
_atom_site_fract_x
_atom_site_fract_y
_atom_site_fract_z
O1 O -0.3205(2) 0.10307(6) -0.1755(3)
O2 O -0.4681(2) 0.00788(7) -0.1724(4)
N1 N -0.1871(2) 0.05515(7) 0.0466(4)
C1 C -0.3020(2) 0.06412(8) -0.0277(4)
C2 C -0.1029(2) 0.17447(9) 0.1196(5)
C3 C -0.1924(3) 0.17761(9) -0.0675(5)
C4 C -0.0986(2) 0.09392(9) -0.0519(5)
C5 C -0.0420(2) 0.12736(9) 0.1368(5)
C6 C -0.0775(3) 0.21388(9) 0.2750(5)
C7 C -0.2356(3) 0.2617(1) 0.0499(8)
C8 C -0.5376(2) 0.06333(9) 0.1375(4)
C9 C -0.1933(2) 0.12823(9) -0.1943(5)
C10 C -0.4801(3) 0.0966(1) 0.3242(5)
C11 C -0.4216(2) 0.03283(9) 0.0299(5)
C12 C -0.2591(3) 0.2213(1) -0.1047(6)
C13 C -0.1493(3) 0.2588(1) 0.2329(7)
C14 C -0.6303(3) 0.0251(1) 0.2558(6)
C15 C 0.0785(3) 0.1593(1) 0.4662(6)
C16 C 0.0176(3) 0.2047(1) 0.4528(6)
C17 C -0.6140(3) 0.0919(1) -0.0501(6)
C18 C 0.0493(2) 0.1194(1) 0.3090(6)
C19 C -0.4772(4) 0.1454(1) 0.3283(6)
H1 H -0.313(4) 0.223(1) -0.236(8)
H2 H -0.289(4) 0.293(1) 0.029(8)
H3 H -0.129(4) 0.288(1) 0.327(8)
H4 H 0.037(4) 0.232(1) 0.574(7)
H5 H 0.146(4) 0.150(1) 0.592(8)
H6 H 0.085(3) 0.086(1) 0.334(8)
H7 H -0.029(3) 0.077(1) -0.162(7)
H8 H -0.172(3) 0.131(1) -0.374(7)
H9 H -0.388(3) 0.008(1) 0.147(7)
H10 H -0.403(4) -0.010(1) -0.242(8)
H11 H -0.707(4) 0.043(1) 0.320(8)
H12 H -0.662(4) -0.001(1) 0.130(8)
H13 H -0.583(4) 0.008(1) 0.387(8)
H14 H -0.560(4) 0.116(1) -0.138(7)
H15 H -0.690(4) 0.108(1) 0.021(7)
H16 H -0.646(4) 0.066(1) -0.170(7)
H17 H -0.438(4) 0.079(1) 0.453(7)
H18 H -0.435(4) 0.164(1) 0.480(9)
H19 H -0.513(4) 0.166(2) 0.188(9)
loop_
_geom_bond_atom_site_label_1
_geom_bond_atom_site_label_2
_geom_bond_site_symmetry_1
_geom_bond_site_symmetry_2
O1 C1 1_555 1_555
O2 C11 1_555 1_555
N1 C1 1_555 1_555
C1 C11 1_555 1_555
C2 C3 1_555 1_555
C3 C9 1_555 1_555
C4 N1 1_555 1_555
C5 C2 1_555 1_555
C6 C2 1_555 1_555
C7 C12 1_555 1_555
C8 C10 1_555 1_555
C9 O1 1_555 1_555
C10 C19 1_555 1_555
C11 C8 1_555 1_555
C12 C3 1_555 1_555
C13 C6 1_555 1_555
C14 C8 1_555 1_555
C15 C16 1_555 1_555
C16 C6 1_555 1_555
C17 C8 1_555 1_555
C18 C5 1_555 1_555
C19 H18 1_555 1_555
H1 C12 1_555 1_555
H2 C7 1_555 1_555
H3 C13 1_555 1_555
H4 C16 1_555 1_555
H5 C15 1_555 1_555
H6 C18 1_555 1_555
H7 C4 1_555 1_555
H8 C9 1_555 1_555
H9 C11 1_555 1_555
H10 O2 1_555 1_555
H11 C14 1_555 1_555
H12 C14 1_555 1_555
H13 C14 1_555 1_555
H14 C17 1_555 1_555
H15 C17 1_555 1_555
H16 C17 1_555 1_555
H17 C10 1_555 1_555
H19 C19 1_555 1_555
C4 C5 1_555 1_555
C4 C9 1_555 1_555
C7 C13 1_555 1_555
C15 C18 1_555 1_555

#END
