
#######################################################################
#
#                 Cambridge Crystallographic Data Centre
#                                CCDC 
#
#######################################################################
#
# If this CIF has been generated from an entry in the Cambridge 
# Structural Database, then it will include bibliographic, chemical, 
# crystal, experimental, refinement or atomic coordinate data resulting 
# from the CCDC's data processing and validation procedures.
#
#######################################################################

data_HEPKAR02
_chemical_name_common            
'pentadeuteroimidazolium deuterium terephthalate'
_chemical_formula_moiety         'C8 H4 D1 O4 1-,C3 D5 N2 1+'
_chemical_name_systematic        
'pentadeuteroimidazolium 4-(deuterocarboxy)benzoate'
_symmetry_cell_setting           monoclinic
_symmetry_space_group_name_H-M   'P 21/n'
_symmetry_Int_Tables_number      14
_space_group_name_Hall           '-P 2yn'
loop_
_symmetry_equiv_pos_site_id
_symmetry_equiv_pos_as_xyz
1 x,y,z
2 1/2-x,1/2+y,1/2-z
3 -x,-y,-z
4 1/2+x,1/2-y,1/2+z
_cell_length_a                   9.763(6)
_cell_length_b                   15.871(10)
_cell_length_c                   13.921(9)
_cell_angle_alpha                90
_cell_angle_beta                 90.415(9)
_cell_angle_gamma                90
_cell_volume                     2156.98
_exptl_crystal_colour            colorless
_exptl_crystal_description       block
_cell_formula_units_Z            8
loop_
_atom_site_label
_atom_site_type_symbol
_atom_site_fract_x
_atom_site_fract_y
_atom_site_fract_z
C1 C 0.3356(3) 0.6065(2) 0.6082(3)
C2 C 0.1858(3) 0.5841(2) 0.6201(2)
C3 C 0.1433(3) 0.5006(2) 0.6159(3)
H1 H 0.2082 0.4580 0.6103
C4 C 0.0069(3) 0.4801(2) 0.6199(3)
H2 H -0.0197 0.4239 0.6175
C5 C -0.0917(3) 0.5430(2) 0.6274(2)
C6 C -0.2398(3) 0.5187(2) 0.6260(3)
C7 C -0.0512(3) 0.6270(2) 0.6333(3)
H3 H -0.1165 0.6692 0.6394
C8 C 0.0862(3) 0.6473(2) 0.6300(3)
H4 H 0.1131 0.7034 0.6343
O1 O 0.4207(3) 0.5509(2) 0.6287(3)
O2 O 0.3640(3) 0.67911(18) 0.5772(2)
O3 O -0.3239(3) 0.58313(19) 0.6203(2)
O4 O -0.2773(3) 0.44616(18) 0.6283(3)
D1 D -0.409(5) 0.571(3) 0.614(3)
C9 C 0.5491(4) 0.6470(3) 0.3668(3)
D2 D 0.4786 0.6079 0.3603
C10 C 0.6867(5) 0.7426(3) 0.4242(4)
D3 D 0.7282 0.7806 0.4661
C11 C 0.7246(5) 0.7251(3) 0.3362(4)
D4 D 0.7967 0.7502 0.3035
N1 N 0.5726(4) 0.6933(2) 0.4425(3)
D5 D 0.5257 0.6932 0.4945
N2 N 0.6410(4) 0.6643(2) 0.3011(3)
D6 D 0.6469 0.6410 0.2455
C12 C -0.2724(3) 0.5074(2) 0.1252(3)
C13 C -0.1217(3) 0.5287(2) 0.1260(2)
C14 C -0.0789(3) 0.6120(2) 0.1271(3)
H5 H -0.1434 0.6551 0.1266
C15 C 0.0608(3) 0.6315(2) 0.1290(3)
H6 H 0.0890 0.6875 0.1302
C16 C 0.1572(3) 0.5673(2) 0.1290(2)
C17 C 0.3061(3) 0.5902(2) 0.1316(3)
C18 C 0.1143(3) 0.4838(2) 0.1275(3)
H7 H 0.1785 0.4404 0.1278
C19 C -0.0255(3) 0.4652(2) 0.1256(3)
H8 H -0.0540 0.4093 0.1240
O5 O -0.3572(2) 0.56697(16) 0.1390(2)
O6 O -0.3065(3) 0.43289(18) 0.1098(3)
O7 O 0.3874(3) 0.52409(17) 0.1331(3)
O8 O 0.3471(3) 0.66204(17) 0.1326(3)
D7 D 0.485(6) 0.542(3) 0.138(4)
C20 C 0.4063(5) 0.3100(3) 0.0371(4)
D8 D 0.4280 0.3242 -0.0257
C21 C 0.3099(5) 0.2512(3) 0.1594(4)
D9 D 0.2533 0.2173 0.1965
C22 C 0.4069(5) 0.3049(3) 0.1924(4)
D10 D 0.4287 0.3154 0.2564
N3 N 0.3107(4) 0.2560(2) 0.0632(3)
D11 D 0.2577 0.2285 0.0248
N4 N 0.4662(3) 0.3404(2) 0.1153(3)
D12 D 0.5317 0.3767 0.1166
loop_
_geom_bond_atom_site_label_1
_geom_bond_atom_site_label_2
_geom_bond_site_symmetry_1
_geom_bond_site_symmetry_2
C1 C2 1_555 1_555
C2 C3 1_555 1_555
C3 H1 1_555 1_555
C4 C3 1_555 1_555
H2 C4 1_555 1_555
C5 C4 1_555 1_555
C6 C5 1_555 1_555
C7 C5 1_555 1_555
H3 C7 1_555 1_555
C8 C2 1_555 1_555
H4 C8 1_555 1_555
O1 C1 1_555 1_555
O2 C1 1_555 1_555
O3 C6 1_555 1_555
O4 C6 1_555 1_555
D1 O3 1_555 1_555
C9 D2 1_555 1_555
C10 D3 1_555 1_555
C11 C10 1_555 1_555
D4 C11 1_555 1_555
N1 C9 1_555 1_555
D5 N1 1_555 1_555
N2 C9 1_555 1_555
D6 N2 1_555 1_555
C12 C13 1_555 1_555
C13 C14 1_555 1_555
C14 H5 1_555 1_555
C15 C14 1_555 1_555
H6 C15 1_555 1_555
C16 C15 1_555 1_555
C17 C16 1_555 1_555
C18 C16 1_555 1_555
H7 C18 1_555 1_555
C19 C13 1_555 1_555
H8 C19 1_555 1_555
O5 C12 1_555 1_555
O6 C12 1_555 1_555
O7 C17 1_555 1_555
O8 C17 1_555 1_555
D7 O7 1_555 1_555
C20 D8 1_555 1_555
C21 D9 1_555 1_555
C22 C21 1_555 1_555
D10 C22 1_555 1_555
N3 C20 1_555 1_555
D11 N3 1_555 1_555
N4 C20 1_555 1_555
D12 N4 1_555 1_555
C7 C8 1_555 1_555
C10 N1 1_555 1_555
C11 N2 1_555 1_555
C18 C19 1_555 1_555
C21 N3 1_555 1_555
C22 N4 1_555 1_555

#END
