
#######################################################################
#
#                 Cambridge Crystallographic Data Centre
#                                CCDC 
#
#######################################################################
#
# If this CIF has been generated from an entry in the Cambridge 
# Structural Database, then it will include bibliographic, chemical, 
# crystal, experimental, refinement or atomic coordinate data resulting 
# from the CCDC's data processing and validation procedures.
#
#######################################################################

data_HEPMIB
_chemical_formula_moiety         'C15 H15 Cl1 O3 S1'
_chemical_name_systematic        
2-(4-chlorophenyl)-1-(phenylsulfonyl)propan-2-ol
_symmetry_cell_setting           orthorhombic
_symmetry_space_group_name_H-M   'P b c a'
_symmetry_Int_Tables_number      61
_space_group_name_Hall           '-P 2ac 2ab'
loop_
_symmetry_equiv_pos_site_id
_symmetry_equiv_pos_as_xyz
1 x,y,z
2 1/2+x,1/2-y,-z
3 -x,1/2+y,1/2-z
4 1/2-x,-y,1/2+z
5 -x,-y,-z
6 1/2-x,1/2+y,z
7 x,1/2-y,1/2+z
8 1/2+x,y,1/2-z
_cell_length_a                   15.1722(16)
_cell_length_b                   11.7576(14)
_cell_length_c                   15.6862(19)
_cell_angle_alpha                90
_cell_angle_beta                 90
_cell_angle_gamma                90
_cell_volume                     2798.24
_exptl_crystal_colour            colorless
_cell_formula_units_Z            8
loop_
_atom_site_label
_atom_site_type_symbol
_atom_site_fract_x
_atom_site_fract_y
_atom_site_fract_z
Cl1 Cl 0.17896(2) 1.27115(3) 0.36027(2)
S1 S 0.06755(2) 0.81435(3) 0.08873(2)
O1 O 0.16797(7) 1.00974(9) -0.02171(7)
H1 H 0.1145(13) 1.0099(16) -0.0142(12)
O2 O 0.01505(6) 0.89409(9) 0.04053(7)
O3 O 0.05356(7) 0.69429(9) 0.07580(7)
C1 C 0.18390(9) 1.17818(12) 0.27358(9)
C2 C 0.23087(9) 1.07670(12) 0.27983(9)
H2 H 0.2580 1.0551 0.3319
C3 C 0.23703(9) 1.00801(12) 0.20817(9)
H3 H 0.2691 0.9388 0.2117
C4 C 0.19724(9) 1.03802(12) 0.13073(9)
C5 C 0.21066(9) 0.96386(12) 0.05171(9)
C6 C 0.18127(9) 0.83949(12) 0.06553(9)
H4 H 0.2166 0.8076 0.1129
H5 H 0.1965 0.7959 0.0136
C7 C 0.05430(9) 0.84403(12) 0.19848(9)
C8 C 0.01472(9) 0.94478(12) 0.22435(10)
H6 H -0.0073 0.9973 0.1836
C9 C 0.00799(10) 0.96728(13) 0.31104(11)
H7 H -0.0183 1.0361 0.3300
C10 C 0.03962(10) 0.88918(15) 0.37005(10)
H8 H 0.0350 0.9051 0.4293
C11 C 0.14891(9) 1.13869(12) 0.12732(10)
H9 H 0.1204 1.1599 0.0758
C12 C 0.14201(9) 1.20864(12) 0.19874(10)
H10 H 0.1087 1.2769 0.1960
C13 C 0.30897(9) 0.96267(13) 0.02899(10)
H11 H 0.3181 0.9165 -0.0223
H12 H 0.3426 0.9302 0.0764
H13 H 0.3290 1.0406 0.0183
C14 C 0.07795(10) 0.78812(16) 0.34322(11)
H14 H 0.0987 0.7347 0.3840
C15 C 0.08595(10) 0.76517(13) 0.25685(10)
H15 H 0.1127 0.6966 0.2379
loop_
_geom_bond_atom_site_label_1
_geom_bond_atom_site_label_2
_geom_bond_site_symmetry_1
_geom_bond_site_symmetry_2
Cl1 C1 1_555 1_555
S1 O2 1_555 1_555
O1 H1 1_555 1_555
O3 S1 1_555 1_555
C1 C2 1_555 1_555
C2 H2 1_555 1_555
C3 C2 1_555 1_555
H3 C3 1_555 1_555
C4 C3 1_555 1_555
C5 O1 1_555 1_555
C6 S1 1_555 1_555
H4 C6 1_555 1_555
H5 C6 1_555 1_555
C7 S1 1_555 1_555
C8 C7 1_555 1_555
H6 C8 1_555 1_555
C9 C8 1_555 1_555
H7 C9 1_555 1_555
C10 C9 1_555 1_555
H8 C10 1_555 1_555
C11 C4 1_555 1_555
H9 C11 1_555 1_555
C12 C1 1_555 1_555
H10 C12 1_555 1_555
C13 C5 1_555 1_555
H11 C13 1_555 1_555
H12 C13 1_555 1_555
H13 C13 1_555 1_555
C14 C10 1_555 1_555
H14 C14 1_555 1_555
C15 C7 1_555 1_555
H15 C15 1_555 1_555
C4 C5 1_555 1_555
C5 C6 1_555 1_555
C11 C12 1_555 1_555
C14 C15 1_555 1_555

#END
