
#######################################################################
#
#                 Cambridge Crystallographic Data Centre
#                                CCDC 
#
#######################################################################
#
# If this CIF has been generated from an entry in the Cambridge 
# Structural Database, then it will include bibliographic, chemical, 
# crystal, experimental, refinement or atomic coordinate data resulting 
# from the CCDC's data processing and validation procedures.
#
#######################################################################

data_HEPOPH01
_chemical_formula_moiety         'C26 H16 N8'
_chemical_name_systematic        Hemiporphyrazine
_symmetry_cell_setting           monoclinic
_symmetry_space_group_name_H-M   'P 21/c'
_symmetry_Int_Tables_number      14
_space_group_name_Hall           '-P 2ybc'
loop_
_symmetry_equiv_pos_site_id
_symmetry_equiv_pos_as_xyz
1 x,y,z
2 -x,1/2+y,1/2-z
3 -x,-y,-z
4 x,1/2-y,1/2+z
_cell_length_a                   4.1416(27)
_cell_length_b                   23.7358(57)
_cell_length_c                   10.3377(25)
_cell_angle_alpha                90
_cell_angle_beta                 94.66(6)
_cell_angle_gamma                90
_cell_volume                     1012.88
_cell_formula_units_Z            2
loop_
_atom_site_label
_atom_site_type_symbol
_atom_site_fract_x
_atom_site_fract_y
_atom_site_fract_z
N1 N 0.0032(14) -0.07161(25) 0.0837(6)
N2 N 0.3767(13) -0.05414(25) 0.2779(6)
N3 N 0.3566(12) 0.03264(23) 0.1574(6)
N4 N 0.3702(14) 0.1265(3) 0.0678(6)
C1 C 0.1813(17) -0.0841(3) 0.2021(7)
C2 C 0.4633(16) 0.0015(3) 0.2583(8)
C3 C 0.4566(16) 0.0857(3) 0.1627(8)
C4 C -0.1740(17) -0.1195(3) 0.0369(7)
C5 C 0.0814(18) -0.2307(4) 0.3419(8)
C6 C 0.1974(18) -0.1754(4) 0.3393(8)
C7 C 0.1055(16) -0.1435(3) 0.2335(8)
C8 C 0.6801(16) 0.0206(3) 0.3628(7)
C9 C 0.7779(16) 0.0758(3) 0.3613(8)
C10 C 0.6723(17) 0.1095(3) 0.2610(8)
C11 C -0.1098(17) -0.1649(3) 0.1324(8)
C12 C -0.2190(16) -0.2183(3) 0.1339(8)
C13 C -0.1255(17) -0.2524(4) 0.2391(8)
C4B C 0.1740(17) 0.1195(3) -0.0369(7)
N4B N -0.3702(14) -0.1265(3) -0.0678(6)
N1B N -0.0032(14) 0.07161(25) -0.0837(6)
C11B C 0.1098(17) 0.1649(3) -0.1324(8)
C3B C -0.4566(16) -0.0857(3) -0.1627(8)
C1B C -0.1813(17) 0.0841(3) -0.2021(7)
C7B C -0.1055(16) 0.1435(3) -0.2335(8)
C12B C 0.2190(16) 0.2183(3) -0.1339(8)
N3B N -0.3566(12) -0.03264(23) -0.1574(6)
C10B C -0.6723(17) -0.1095(3) -0.2610(8)
N2B N -0.3767(13) 0.05414(25) -0.2779(6)
C6B C -0.1974(18) 0.1754(4) -0.3393(8)
C13B C 0.1255(17) 0.2524(4) -0.2391(8)
C2B C -0.4633(16) -0.0015(3) -0.2583(8)
C9B C -0.7779(16) -0.0758(3) -0.3613(8)
C5B C -0.0814(18) 0.2307(4) -0.3419(8)
C8B C -0.6801(16) -0.0206(3) -0.3628(7)
loop_
_geom_bond_atom_site_label_1
_geom_bond_atom_site_label_2
_geom_bond_site_symmetry_1
_geom_bond_site_symmetry_2
N1 C1 1_555 1_555
N2 C1 1_555 1_555
N3 C2 1_555 1_555
N4 C3 1_555 1_555
C1 C7 1_555 1_555
C2 N2 1_555 1_555
C3 N3 1_555 1_555
C4 N1 1_555 1_555
C5 C6 1_555 1_555
C6 C7 1_555 1_555
C7 C11 1_555 1_555
C8 C2 1_555 1_555
C9 C8 1_555 1_555
C10 C3 1_555 1_555
C11 C4 1_555 1_555
C12 C11 1_555 1_555
C13 C5 1_555 1_555
C4B N4 1_555 1_555
N4B C4 1_555 1_555
N1B C4B 1_555 1_555
C11B C4B 1_555 1_555
C3B N4B 1_555 1_555
C1B N1B 1_555 1_555
C7B C11B 1_555 1_555
C12B C11B 1_555 1_555
N3B C3B 1_555 1_555
C10B C3B 1_555 1_555
N2B C1B 1_555 1_555
C6B C7B 1_555 1_555
C13B C12B 1_555 1_555
C2B N3B 1_555 1_555
C9B C10B 1_555 1_555
C5B C6B 1_555 1_555
C8B C2B 1_555 1_555
C9 C10 1_555 1_555
C12 C13 1_555 1_555
C1B C7B 1_555 1_555
N2B C2B 1_555 1_555
C13B C5B 1_555 1_555
C9B C8B 1_555 1_555

#END
