
#######################################################################
#
#                 Cambridge Crystallographic Data Centre
#                                CCDC 
#
#######################################################################
#
# If this CIF has been generated from an entry in the Cambridge 
# Structural Database, then it will include bibliographic, chemical, 
# crystal, experimental, refinement or atomic coordinate data resulting 
# from the CCDC's data processing and validation procedures.
#
#######################################################################

data_HEPPIE
_chemical_formula_moiety         'C7 H4 N2 O2 Se1'
_chemical_name_systematic        '2-nitrophenyl selenocyanate'
_symmetry_cell_setting           monoclinic
_symmetry_space_group_name_H-M   'P 21/c'
_symmetry_Int_Tables_number      14
_space_group_name_Hall           '-P 2ybc'
loop_
_symmetry_equiv_pos_site_id
_symmetry_equiv_pos_as_xyz
1 x,y,z
2 -x,1/2+y,1/2-z
3 -x,-y,-z
4 x,1/2-y,1/2+z
_cell_length_a                   7.9873(10)
_cell_length_b                   7.9532(10)
_cell_length_c                   12.6983(16)
_cell_angle_alpha                90
_cell_angle_beta                 90.639(3)
_cell_angle_gamma                90
_cell_volume                     806.604
_exptl_crystal_colour            yellow
_exptl_crystal_description       block
_cell_formula_units_Z            4
loop_
_atom_site_label
_atom_site_type_symbol
_atom_site_fract_x
_atom_site_fract_y
_atom_site_fract_z
Se1 Se 0.15866(3) 0.13266(3) 0.100118(16)
C1 C 0.2272(2) 0.3333(2) 0.02879(15)
C2 C 0.0533(3) 0.2433(3) 0.21038(17)
C3 C 0.3639(3) 0.4633(3) -0.12119(16)
H1 H 0.4222 0.4519 -0.1838
C4 C 0.1910(3) 0.4935(3) 0.06581(16)
H2 H 0.1335 0.5062 0.1286
N1 N -0.0122(3) 0.3029(3) 0.27953(17)
C5 C 0.3150(2) 0.3226(2) -0.06511(16)
C6 C 0.3252(3) 0.6198(3) -0.08292(18)
H3 H 0.3565 0.7158 -0.1196
C7 C 0.2394(3) 0.6336(2) 0.01030(18)
H4 H 0.2138 0.7398 0.0362
N2 N 0.3600(3) 0.1591(2) -0.10696(14)
O1 O 0.3158(3) 0.0347(2) -0.05903(15)
O2 O 0.4390(3) 0.1523(2) -0.18815(16)
loop_
_geom_bond_atom_site_label_1
_geom_bond_atom_site_label_2
_geom_bond_site_symmetry_1
_geom_bond_site_symmetry_2
Se1 C1 1_555 1_555
C1 C4 1_555 1_555
C2 Se1 1_555 1_555
C3 H1 1_555 1_555
C4 H2 1_555 1_555
N1 C2 1_555 1_555
C5 C1 1_555 1_555
C6 C3 1_555 1_555
H3 C6 1_555 1_555
C7 C4 1_555 1_555
H4 C7 1_555 1_555
N2 C5 1_555 1_555
O1 N2 1_555 1_555
O2 N2 1_555 1_555
C3 C5 1_555 1_555
C6 C7 1_555 1_555

#END
