
#######################################################################
#
#                 Cambridge Crystallographic Data Centre
#                                CCDC 
#
#######################################################################
#
# If this CIF has been generated from an entry in the Cambridge 
# Structural Database, then it will include bibliographic, chemical, 
# crystal, experimental, refinement or atomic coordinate data resulting 
# from the CCDC's data processing and validation procedures.
#
#######################################################################

data_HEPQIF
_chemical_formula_moiety         'C18 H21 N1 O4 S1'
_chemical_name_systematic        
5-(4-methoxyphenyl)-3-methyl-2-[(4-methylphenyl)sulfonyl]-1,2-oxazolidine
_symmetry_cell_setting           orthorhombic
_symmetry_space_group_name_H-M   'P 21 21 21'
_symmetry_Int_Tables_number      19
_space_group_name_Hall           'P 2ac 2ab'
loop_
_symmetry_equiv_pos_site_id
_symmetry_equiv_pos_as_xyz
1 x,y,z
2 1/2-x,-y,1/2+z
3 -x,1/2+y,1/2-z
4 1/2+x,1/2-y,-z
_cell_length_a                   8.13820(10)
_cell_length_b                   11.2235(2)
_cell_length_c                   19.4636(3)
_cell_angle_alpha                90
_cell_angle_beta                 90
_cell_angle_gamma                90
_cell_volume                     1777.79
_exptl_crystal_colour            colorless
_exptl_crystal_description       block
_cell_formula_units_Z            4
loop_
_atom_site_label
_atom_site_type_symbol
_atom_site_fract_x
_atom_site_fract_y
_atom_site_fract_z
C1 C 0.6904(5) 0.3036(4) 0.99149(17)
H1 H 0.7491 0.2331 0.9782
H2 H 0.5815 0.2822 1.0060
H3 H 0.7471 0.3419 1.0287
C2 C 0.6800(3) 0.3874(2) 0.93127(12)
C3 C 0.7775(4) 0.4881(3) 0.92812(13)
H4 H 0.8503 0.5033 0.9639
C4 C 0.7707(3) 0.5662(3) 0.87410(12)
H5 H 0.8374 0.6335 0.8734
C5 C 0.6626(3) 0.5433(2) 0.82046(11)
C6 C 0.5644(3) 0.4429(2) 0.82151(12)
H6 H 0.4930 0.4270 0.7853
C7 C 0.5735(3) 0.3663(2) 0.87699(13)
H7 H 0.5067 0.2990 0.8779
C8 C 0.9603(3) 0.6040(2) 0.70830(12)
H8 H 0.9723 0.6145 0.7580
C9 C 1.0118(4) 0.4790(3) 0.6884(2)
H9 H 1.0751 0.4800 0.6462
H10 H 1.0780 0.4432 0.7244
C10 C 0.8549(3) 0.4109(2) 0.67879(13)
H11 H 0.8187 0.3791 0.7232
C11 C 1.0556(4) 0.6988(4) 0.67143(17)
H12 H 1.0545 0.6829 0.6230
H13 H 1.1669 0.6992 0.6877
H14 H 1.0063 0.7751 0.6800
C12 C 0.8522(3) 0.3134(2) 0.62609(11)
C13 C 0.9244(3) 0.3267(2) 0.56231(14)
H15 H 0.9799 0.3970 0.5523
C14 C 0.9164(3) 0.2388(3) 0.51312(13)
H16 H 0.9651 0.2505 0.4704
C15 C 0.8360(3) 0.1335(2) 0.52723(11)
C16 C 0.7640(3) 0.1182(2) 0.59121(13)
H17 H 0.7100 0.0474 0.6014
C17 C 0.7720(3) 0.2069(2) 0.63953(12)
H18 H 0.7227 0.1954 0.6821
C18 C 0.9004(4) 0.0501(4) 0.41760(14)
H19 H 1.0158 0.0637 0.4243
H20 H 0.8540 0.1156 0.3925
H21 H 0.8850 -0.0223 0.3922
N1 N 0.7817(2) 0.61050(17) 0.68918(10)
O1 O 0.7043(3) 0.75807(15) 0.77460(10)
O2 O 0.4888(2) 0.63196(17) 0.72169(10)
O3 O 0.73984(19) 0.50188(15) 0.65595(8)
O4 O 0.8212(3) 0.04033(18) 0.48266(9)
S1 S 0.64812(7) 0.64441(5) 0.75161(3)
loop_
_geom_bond_atom_site_label_1
_geom_bond_atom_site_label_2
_geom_bond_site_symmetry_1
_geom_bond_site_symmetry_2
C1 H1 1_555 1_555
H2 C1 1_555 1_555
H3 C1 1_555 1_555
C2 C1 1_555 1_555
C3 C2 1_555 1_555
H4 C3 1_555 1_555
C4 C3 1_555 1_555
H5 C4 1_555 1_555
C5 C4 1_555 1_555
C6 C5 1_555 1_555
H6 C6 1_555 1_555
C7 C2 1_555 1_555
H7 C7 1_555 1_555
C8 H8 1_555 1_555
C9 C8 1_555 1_555
H9 C9 1_555 1_555
H10 C9 1_555 1_555
C10 C9 1_555 1_555
H11 C10 1_555 1_555
C11 C8 1_555 1_555
H12 C11 1_555 1_555
H13 C11 1_555 1_555
H14 C11 1_555 1_555
C12 C10 1_555 1_555
C13 C12 1_555 1_555
H15 C13 1_555 1_555
C14 C13 1_555 1_555
H16 C14 1_555 1_555
C15 C14 1_555 1_555
C16 C15 1_555 1_555
H17 C16 1_555 1_555
C17 C12 1_555 1_555
H18 C17 1_555 1_555
C18 H19 1_555 1_555
H20 C18 1_555 1_555
H21 C18 1_555 1_555
N1 C8 1_555 1_555
O1 S1 1_555 1_555
O2 S1 1_555 1_555
O3 C10 1_555 1_555
O4 C15 1_555 1_555
S1 C5 1_555 1_555
C6 C7 1_555 1_555
C16 C17 1_555 1_555
C18 O4 1_555 1_555
N1 O3 1_555 1_555
N1 S1 1_555 1_555

#END
