
#######################################################################
#
#                 Cambridge Crystallographic Data Centre
#                                CCDC 
#
#######################################################################
#
# If this CIF has been generated from an entry in the Cambridge 
# Structural Database, then it will include bibliographic, chemical, 
# crystal, experimental, refinement or atomic coordinate data resulting 
# from the CCDC's data processing and validation procedures.
#
#######################################################################

data_HEPQEB
_chemical_formula_moiety         'C17 H19 N1 O3 S1'
_chemical_name_systematic        
3-methyl-2-[(4-methylphenyl)sulfonyl]-5-phenyl-1,2-oxazolidine
_symmetry_cell_setting           triclinic
_symmetry_space_group_name_H-M   'P -1'
_symmetry_Int_Tables_number      2
_space_group_name_Hall           '-P 1'
loop_
_symmetry_equiv_pos_site_id
_symmetry_equiv_pos_as_xyz
1 x,y,z
2 -x,-y,-z
_cell_length_a                   5.861(2)
_cell_length_b                   9.841(3)
_cell_length_c                   13.802(5)
_cell_angle_alpha                90.674(5)
_cell_angle_beta                 93.458(5)
_cell_angle_gamma                92.833(5)
_cell_volume                     793.566
_exptl_crystal_colour            colorless
_exptl_crystal_description       block
_cell_formula_units_Z            2
loop_
_atom_site_label
_atom_site_type_symbol
_atom_site_fract_x
_atom_site_fract_y
_atom_site_fract_z
C1 C 1.3161(6) 0.8254(4) 1.0711(2)
H1 H 1.2644 0.8561 1.1319
H2 H 1.4101 0.8962 1.0441
H3 H 1.4035 0.7463 1.0813
C2 C 1.1140(4) 0.7904(3) 1.00248(17)
C3 C 1.0633(5) 0.8693(2) 0.92280(18)
H4 H 1.1561 0.9463 0.9119
C4 C 0.8789(4) 0.8365(2) 0.85935(17)
H5 H 0.8452 0.8919 0.8068
C5 C 0.7437(4) 0.7205(2) 0.87438(17)
C6 C 0.7904(5) 0.6405(2) 0.95410(18)
H6 H 0.6984 0.5632 0.9650
C7 C 0.9746(5) 0.6768(3) 1.01704(18)
H7 H 1.0057 0.6233 1.0708
C8 C 0.7750(5) 0.6498(2) 0.64184(17)
H8 H 0.8580 0.7234 0.6798
C9 C 0.9314(4) 0.5359(3) 0.62595(17)
H9 H 0.8825 0.4845 0.5673
H10 H 1.0876 0.5711 0.6206
C10 C 0.9134(4) 0.4484(2) 0.71387(16)
H11 H 1.0124 0.4874 0.7680
C11 C 0.6669(7) 0.7057(3) 0.5497(2)
H12 H 0.5883 0.6329 0.5123
H13 H 0.7837 0.7476 0.5125
H14 H 0.5600 0.7720 0.5656
C12 C 0.9639(4) 0.3027(2) 0.69748(16)
C13 C 1.1701(4) 0.2545(3) 0.7317(2)
H15 H 1.2740 0.3111 0.7687
C14 C 1.2230(5) 0.1229(3) 0.7112(2)
H16 H 1.3624 0.0911 0.7346
C15 C 1.0724(5) 0.0387(3) 0.6569(2)
H17 H 1.1093 -0.0500 0.6431
C16 C 0.8674(5) 0.0851(3) 0.6228(2)
H18 H 0.7645 0.0279 0.5858
C17 C 0.8129(5) 0.2164(3) 0.64321(19)
H19 H 0.6726 0.2471 0.6201
N1 N 0.5963(3) 0.58328(19) 0.70086(14)
O1 O 0.3577(3) 0.5865(2) 0.84324(15)
O2 O 0.4330(3) 0.7938(2) 0.74725(16)
O3 O 0.6749(3) 0.45561(16) 0.73519(13)
S1 S 0.51068(10) 0.67480(6) 0.79409(5)
loop_
_geom_bond_atom_site_label_1
_geom_bond_atom_site_label_2
_geom_bond_site_symmetry_1
_geom_bond_site_symmetry_2
C1 H1 1_555 1_555
H2 C1 1_555 1_555
H3 C1 1_555 1_555
C2 C1 1_555 1_555
C3 C2 1_555 1_555
H4 C3 1_555 1_555
C4 C3 1_555 1_555
H5 C4 1_555 1_555
C5 C4 1_555 1_555
C6 C5 1_555 1_555
H6 C6 1_555 1_555
C7 C2 1_555 1_555
H7 C7 1_555 1_555
C8 H8 1_555 1_555
C9 C8 1_555 1_555
H9 C9 1_555 1_555
H10 C9 1_555 1_555
C10 C9 1_555 1_555
H11 C10 1_555 1_555
C11 C8 1_555 1_555
H12 C11 1_555 1_555
H13 C11 1_555 1_555
H14 C11 1_555 1_555
C12 C10 1_555 1_555
C13 C12 1_555 1_555
H15 C13 1_555 1_555
C14 C13 1_555 1_555
H16 C14 1_555 1_555
C15 C14 1_555 1_555
H17 C15 1_555 1_555
C16 C15 1_555 1_555
H18 C16 1_555 1_555
C17 C12 1_555 1_555
H19 C17 1_555 1_555
N1 C8 1_555 1_555
O1 S1 1_555 1_555
O2 S1 1_555 1_555
O3 C10 1_555 1_555
S1 C5 1_555 1_555
C6 C7 1_555 1_555
C16 C17 1_555 1_555
N1 O3 1_555 1_555
N1 S1 1_555 1_555

#END
