
#######################################################################
#
#                 Cambridge Crystallographic Data Centre
#                                CCDC 
#
#######################################################################
#
# If this CIF has been generated from an entry in the Cambridge 
# Structural Database, then it will include bibliographic, chemical, 
# crystal, experimental, refinement or atomic coordinate data resulting 
# from the CCDC's data processing and validation procedures.
#
#######################################################################

data_HEPSAZ13
_chemical_name_common            'imidazolium hydrogen terephthalate'
_chemical_formula_moiety         'C8 H5 O4 1-,C3 H5 N2 1+'
_chemical_name_systematic        'imidazolium 4-carboxybenzoate'
_symmetry_cell_setting           monoclinic
_symmetry_space_group_name_H-M   'P 21/c'
_symmetry_Int_Tables_number      14
_space_group_name_Hall           '-P 2ybc'
loop_
_symmetry_equiv_pos_site_id
_symmetry_equiv_pos_as_xyz
1 x,y,z
2 -x,1/2+y,1/2-z
3 -x,-y,-z
4 x,1/2-y,1/2+z
_cell_length_a                   7.073(4)
_cell_length_b                   15.903(9)
_cell_length_c                   9.656(6)
_cell_angle_alpha                90
_cell_angle_beta                 94.352(11)
_cell_angle_gamma                90
_cell_volume                     1082.99
_exptl_crystal_colour            colorless
_exptl_crystal_description       block
_cell_formula_units_Z            4
loop_
_atom_site_label
_atom_site_type_symbol
_atom_site_fract_x
_atom_site_fract_y
_atom_site_fract_z
C1 C 0.2502(3) 0.00844(12) 0.21830(18)
C2 C 0.2520(3) 0.03129(11) 0.37011(17)
C3 C 0.2554(3) 0.11453(12) 0.41175(18)
H1 H 0.2598 0.1571 0.3460
C4 C 0.2524(3) 0.13475(12) 0.55090(18)
H2 H 0.2543 0.1908 0.5782
C5 C 0.2467(3) 0.07194(11) 0.64987(18)
C6 C 0.2382(3) 0.09450(12) 0.80055(18)
C7 C 0.2469(3) -0.01150(12) 0.60874(18)
H3 H 0.2461 -0.0541 0.6747
C8 C 0.2482(3) -0.03130(12) 0.46914(18)
H4 H 0.2466 -0.0874 0.4417
O1 O 0.2532(2) 0.06927(9) 0.13418(14)
O2 O 0.2449(3) -0.06642(9) 0.18466(15)
O3 O 0.2670(3) 0.03359(10) 0.88505(14)
O4 O 0.2011(3) 0.16684(10) 0.83585(15)
H5 H 0.261(4) 0.0492(18) 0.998(4)
C9 C 0.9140(4) 0.19254(17) 0.1029(3)
H6 H 1.0356 0.1804 0.0782
C10 C 0.6162(4) 0.18882(18) 0.1149(4)
H7 H 0.4900 0.1724 0.1002
C11 C 0.6823(5) 0.24770(17) 0.2015(3)
H8 H 0.6122 0.2819 0.2566
N1 N 0.7615(3) 0.15676(12) 0.0520(2)
H9 H 0.7543 0.1188 -0.0116
N2 N 0.8725(4) 0.24852(13) 0.1945(2)
H10 H 0.9519 0.2802 0.2418
loop_
_geom_bond_atom_site_label_1
_geom_bond_atom_site_label_2
_geom_bond_site_symmetry_1
_geom_bond_site_symmetry_2
C1 C2 1_555 1_555
C2 C3 1_555 1_555
C3 H1 1_555 1_555
C4 C3 1_555 1_555
H2 C4 1_555 1_555
C5 C4 1_555 1_555
C6 C5 1_555 1_555
C7 C5 1_555 1_555
H3 C7 1_555 1_555
C8 C2 1_555 1_555
H4 C8 1_555 1_555
O1 C1 1_555 1_555
O2 C1 1_555 1_555
O3 C6 1_555 1_555
O4 C6 1_555 1_555
H5 O3 1_555 1_555
C9 H6 1_555 1_555
C10 H7 1_555 1_555
C11 C10 1_555 1_555
H8 C11 1_555 1_555
N1 C9 1_555 1_555
H9 N1 1_555 1_555
N2 C9 1_555 1_555
H10 N2 1_555 1_555
C7 C8 1_555 1_555
C10 N1 1_555 1_555
C11 N2 1_555 1_555

#END
