
#######################################################################
#
#                 Cambridge Crystallographic Data Centre
#                                CCDC 
#
#######################################################################
#
# If this CIF has been generated from an entry in the Cambridge 
# Structural Database, then it will include bibliographic, chemical, 
# crystal, experimental, refinement or atomic coordinate data resulting 
# from the CCDC's data processing and validation procedures.
#
#######################################################################

data_HEPSAZ02
_chemical_name_common            
'2,4,5-trideuteroimidazolium hydrogen terephthalate'
_chemical_formula_moiety         'C8 H5 O4 1-,C3 H2 D3 N2 1+'
_chemical_name_systematic        '2,4,5-trideuteroimidazolium 4-carboxybenzoate'
_symmetry_cell_setting           monoclinic
_symmetry_space_group_name_H-M   'P 21/c'
_symmetry_Int_Tables_number      14
_space_group_name_Hall           '-P 2ybc'
loop_
_symmetry_equiv_pos_site_id
_symmetry_equiv_pos_as_xyz
1 x,y,z
2 -x,1/2+y,1/2-z
3 -x,-y,-z
4 x,1/2-y,1/2+z
_cell_length_a                   6.981(4)
_cell_length_b                   15.958(10)
_cell_length_c                   9.640(6)
_cell_angle_alpha                90
_cell_angle_beta                 95.379(13)
_cell_angle_gamma                90
_cell_volume                     1069.19
_exptl_crystal_colour            colorless
_exptl_crystal_description       block
_cell_formula_units_Z            4
loop_
_atom_site_label
_atom_site_type_symbol
_atom_site_fract_x
_atom_site_fract_y
_atom_site_fract_z
C1 C 0.2502(2) 0.00712(9) 0.22008(13)
C2 C 0.25274(19) 0.02963(8) 0.37201(13)
C3 C 0.2600(2) 0.11315(9) 0.41428(14)
H1 H 0.2670 0.1555 0.3487
C4 C 0.2567(2) 0.13315(9) 0.55388(14)
H2 H 0.2601 0.1890 0.5817
C5 C 0.2484(2) 0.07006(8) 0.65261(14)
C6 C 0.2397(2) 0.09264(9) 0.80299(14)
C7 C 0.2458(2) -0.01335(9) 0.61101(13)
H3 H 0.2431 -0.0558 0.6769
C8 C 0.2472(2) -0.03326(9) 0.47094(14)
H4 H 0.2445 -0.0891 0.4432
O1 O 0.25667(17) 0.06803(7) 0.13582(11)
O2 O 0.2412(2) -0.06794(7) 0.18604(11)
O3 O 0.2749(2) 0.03163(7) 0.88872(10)
O4 O 0.20046(18) 0.16482(7) 0.83838(11)
H5 H 0.266(3) 0.0470(16) 1.004(3)
C9 C 0.9259(3) 0.19504(11) 0.0988(2)
D1 D 1.0481 0.1849 0.0716
C10 C 0.6209(3) 0.18844(13) 0.1143(3)
D2 D 0.4927 0.1720 0.0996
C11 C 0.6925(3) 0.24697(12) 0.2038(2)
D3 D 0.6236 0.2796 0.2618
N1 N 0.7687(2) 0.15753(8) 0.04915(14)
H6 H 0.7604 0.1195 -0.0144
N2 N 0.8839(2) 0.24968(9) 0.19395(15)
H7 H 0.9646 0.2816 0.2416
loop_
_geom_bond_atom_site_label_1
_geom_bond_atom_site_label_2
_geom_bond_site_symmetry_1
_geom_bond_site_symmetry_2
C1 C2 1_555 1_555
C2 C3 1_555 1_555
C3 H1 1_555 1_555
C4 C3 1_555 1_555
H2 C4 1_555 1_555
C5 C4 1_555 1_555
C6 C5 1_555 1_555
C7 C5 1_555 1_555
H3 C7 1_555 1_555
C8 C2 1_555 1_555
H4 C8 1_555 1_555
O1 C1 1_555 1_555
O2 C1 1_555 1_555
O3 C6 1_555 1_555
O4 C6 1_555 1_555
H5 O3 1_555 1_555
C9 D1 1_555 1_555
C10 D2 1_555 1_555
C11 C10 1_555 1_555
D3 C11 1_555 1_555
N1 C9 1_555 1_555
H6 N1 1_555 1_555
N2 C9 1_555 1_555
H7 N2 1_555 1_555
C7 C8 1_555 1_555
C10 N1 1_555 1_555
C11 N2 1_555 1_555

#END
