
#######################################################################
#
#                 Cambridge Crystallographic Data Centre
#                                CCDC 
#
#######################################################################
#
# If this CIF has been generated from an entry in the Cambridge 
# Structural Database, then it will include bibliographic, chemical, 
# crystal, experimental, refinement or atomic coordinate data resulting 
# from the CCDC's data processing and validation procedures.
#
#######################################################################

data_HEPZOU
_chemical_formula_moiety         'C29 H46 N2 O4'
_chemical_name_systematic        
2,2'-[{[3-(dimethylamino)propyl]azanediyl}bis(methylene)]bis(6-t-butyl-4-methoxyphenol)
_symmetry_cell_setting           monoclinic
_symmetry_space_group_name_H-M   'P 21/c'
_symmetry_Int_Tables_number      14
_space_group_name_Hall           '-P 2ybc'
loop_
_symmetry_equiv_pos_site_id
_symmetry_equiv_pos_as_xyz
1 x,y,z
2 -x,1/2+y,1/2-z
3 -x,-y,-z
4 x,1/2-y,1/2+z
_cell_length_a                   9.2463(4)
_cell_length_b                   14.6404(6)
_cell_length_c                   21.2372(9)
_cell_angle_alpha                90
_cell_angle_beta                 91.542(2)
_cell_angle_gamma                90
_cell_volume                     2873.83
_exptl_crystal_description       prism
_cell_formula_units_Z            4
loop_
_atom_site_label
_atom_site_type_symbol
_atom_site_fract_x
_atom_site_fract_y
_atom_site_fract_z
O1 O 0.7287(3) 0.2110(2) 0.34841(16)
H1 H 0.6899 0.2509 0.3268
O2 O 0.3112(5) 0.1747(3) -0.00790(19)
O3 O 0.6541(3) 0.1450(2) 0.20761(13)
H2 H 0.6281 0.1799 0.2327
O4 O 0.3285(3) -0.0422(2) 0.42445(16)
N1 N 0.4506(3) 0.2611(2) 0.26355(16)
N2 N 0.7552(4) 0.3741(2) 0.29421(18)
C1 C 0.6194(5) 0.1278(3) 0.0963(2)
C2 C 0.8090(6) 0.0745(5) 0.0200(3)
H3 H 0.9075 0.0544 0.0171
H4 H 0.7961 0.1303 -0.0033
H5 H 0.7454 0.0286 0.0027
C3 C 0.8938(5) 0.3430(4) 0.2704(3)
H6 H 0.8768 0.3013 0.2361
H7 H 0.9478 0.3127 0.3035
H8 H 0.9477 0.3946 0.2559
C4 C 0.3338(5) 0.1867(3) 0.1077(2)
H9 H 0.2384 0.2057 0.1110
C5 C 0.1837(6) 0.2179(5) -0.0109(3)
H10 H 0.1454 0.2428 0.0253
H11 H 0.1334 0.2230 -0.0493
C6 C 0.5652(4) 0.1510(3) 0.1557(2)
C7 C 0.4214(4) 0.1786(3) 0.1619(2)
C8 C 0.3869(6) 0.1669(3) 0.0494(2)
C9 C 0.7738(5) 0.0911(3) 0.0898(2)
C10 C 0.5266(5) 0.1363(3) 0.0446(2)
H12 H 0.5598 0.1207 0.0051
C11 C 0.8853(5) 0.1592(4) 0.1167(3)
H13 H 0.8677 0.1694 0.1605
H14 H 0.8770 0.2159 0.0943
H15 H 0.9809 0.1348 0.1123
C12 C 0.7867(6) -0.0002(4) 0.1240(3)
H16 H 0.8812 -0.0254 0.1180
H17 H 0.7147 -0.0416 0.1074
H18 H 0.7724 0.0088 0.1682
C13 C 0.3664(4) 0.1923(3) 0.2274(2)
H19 H 0.2659 0.2113 0.2246
H20 H 0.3705 0.1346 0.2498
C14 C 0.4118(5) 0.3525(3) 0.2391(2)
H21 H 0.3149 0.3671 0.2524
H22 H 0.4089 0.3498 0.1934
C15 C 0.5121(5) 0.4300(3) 0.2594(2)
H23 H 0.4781 0.4860 0.2396
H24 H 0.5063 0.4378 0.3046
C16 C 0.6690(5) 0.4157(3) 0.2432(2)
H25 H 0.7067 0.4317 0.2046
C17 C 0.7820(7) 0.4385(4) 0.3459(3)
H26 H 0.8311 0.4914 0.3304
H27 H 0.8410 0.4098 0.3781
H28 H 0.6916 0.4567 0.3632
C18 C 0.4241(5) 0.2537(3) 0.3317(2)
H29 H 0.3209 0.2581 0.3383
H30 H 0.4706 0.3045 0.3535
C19 C 0.4797(4) 0.1655(3) 0.35992(19)
C20 C 0.3849(5) 0.1001(3) 0.38088(19)
H31 H 0.2860 0.1119 0.3790
C21 C 0.4338(5) 0.0176(3) 0.4046(2)
C22 C 0.5803(5) -0.0006(3) 0.40677(19)
H32 H 0.6126 -0.0567 0.4221
C23 C 0.6815(4) 0.0634(3) 0.38641(18)
C24 C 0.6281(4) 0.1476(3) 0.36453(19)
C25 C 0.3758(6) -0.1297(3) 0.4461(3)
H33 H 0.4250 -0.1605 0.4130
H34 H 0.2936 -0.1652 0.4581
H35 H 0.4405 -0.1223 0.4818
C26 C 0.8445(5) 0.0411(3) 0.3875(2)
C27 C 0.9044(5) 0.0505(4) 0.3212(2)
H36 H 0.8994 0.1132 0.3082
H37 H 0.8481 0.0136 0.2923
H38 H 1.0033 0.0305 0.3215
C28 C 0.9255(5) 0.1047(4) 0.4327(3)
H39 H 0.8869 0.0989 0.4740
H40 H 0.9146 0.1666 0.4184
H41 H 1.0263 0.0888 0.4341
C29 C 0.8746(6) -0.0569(4) 0.4097(3)
H42 H 0.8296 -0.0991 0.3806
H43 H 0.8359 -0.0655 0.4507
H44 H 0.9771 -0.0674 0.4115
loop_
_geom_bond_atom_site_label_1
_geom_bond_atom_site_label_2
_geom_bond_site_symmetry_1
_geom_bond_site_symmetry_2
O1 H1 1_555 1_555
O2 C5 1_555 1_555
O3 H2 1_555 1_555
O4 C21 1_555 1_555
N1 C13 1_555 1_555
N2 C3 1_555 1_555
C1 C6 1_555 1_555
C2 H3 1_555 1_555
H4 C2 1_555 1_555
H5 C2 1_555 1_555
C3 H6 1_555 1_555
H7 C3 1_555 1_555
H8 C3 1_555 1_555
C4 H9 1_555 1_555
C5 H10 1_555 1_555
H11 C5 1_555 1_555
C6 O3 1_555 1_555
C7 C4 1_555 1_555
C8 O2 1_555 1_555
C9 C1 1_555 1_555
C10 C1 1_555 1_555
H12 C10 1_555 1_555
C11 C9 1_555 1_555
H13 C11 1_555 1_555
H14 C11 1_555 1_555
H15 C11 1_555 1_555
C12 C9 1_555 1_555
H16 C12 1_555 1_555
H17 C12 1_555 1_555
H18 C12 1_555 1_555
C13 C7 1_555 1_555
H19 C13 1_555 1_555
H20 C13 1_555 1_555
C14 N1 1_555 1_555
H21 C14 1_555 1_555
H22 C14 1_555 1_555
C15 C14 1_555 1_555
H23 C15 1_555 1_555
H24 C15 1_555 1_555
C16 N2 1_555 1_555
H25 C16 1_555 1_555
C17 N2 1_555 1_555
H26 C17 1_555 1_555
H27 C17 1_555 1_555
H28 C17 1_555 1_555
C18 N1 1_555 1_555
H29 C18 1_555 1_555
H30 C18 1_555 1_555
C19 C18 1_555 1_555
C20 C19 1_555 1_555
H31 C20 1_555 1_555
C21 C20 1_555 1_555
C22 C21 1_555 1_555
H32 C22 1_555 1_555
C23 C22 1_555 1_555
C24 O1 1_555 1_555
C25 O4 1_555 1_555
H33 C25 1_555 1_555
H34 C25 1_555 1_555
H35 C25 1_555 1_555
C26 C23 1_555 1_555
C27 C26 1_555 1_555
H36 C27 1_555 1_555
H37 C27 1_555 1_555
H38 C27 1_555 1_555
C28 C26 1_555 1_555
H39 C28 1_555 1_555
H40 C28 1_555 1_555
H41 C28 1_555 1_555
C29 C26 1_555 1_555
H42 C29 1_555 1_555
H43 C29 1_555 1_555
H44 C29 1_555 1_555
C2 C9 1_555 1_555
C4 C8 1_555 1_555
C6 C7 1_555 1_555
C8 C10 1_555 1_555
C15 C16 1_555 1_555
C19 C24 1_555 1_555
C23 C24 1_555 1_555

#END
