
#######################################################################
#
#                 Cambridge Crystallographic Data Centre
#                                CCDC 
#
#######################################################################
#
# If this CIF has been generated from an entry in the Cambridge 
# Structural Database, then it will include bibliographic, chemical, 
# crystal, experimental, refinement or atomic coordinate data resulting 
# from the CCDC's data processing and validation procedures.
#
#######################################################################

data_HEPZAG01
_chemical_name_common            'tetraethylammonium camphorsulfonate'
_chemical_formula_moiety         'C10 H15 O4 S1 1-,C8 H20 N1 1+'
_chemical_name_systematic        
'tetraethylammonium (7,7-dimethyl-2-oxobicyclo[2.2.1]heptan-1-yl)methanesulfonate'
_symmetry_cell_setting           orthorhombic
_symmetry_space_group_name_H-M   'P 21 21 2'
_symmetry_Int_Tables_number      18
_space_group_name_Hall           'P 2 2ab'
loop_
_symmetry_equiv_pos_site_id
_symmetry_equiv_pos_as_xyz
1 x,y,z
2 -x,-y,z
3 1/2+x,1/2-y,-z
4 1/2-x,1/2+y,-z
_cell_length_a                   13.3219(8)
_cell_length_b                   13.3283(8)
_cell_length_c                   11.5783(8)
_cell_angle_alpha                90
_cell_angle_beta                 90
_cell_angle_gamma                90
_cell_volume                     2055.82
_exptl_crystal_colour            colorless
_exptl_crystal_description       platelet
_cell_formula_units_Z            4
loop_
_atom_site_label
_atom_site_type_symbol
_atom_site_fract_x
_atom_site_fract_y
_atom_site_fract_z
S1 S 0.26032(12) -0.24827(18) 0.63361(15)
O1 O 0.3685(4) -0.2441(5) 0.6421(5)
O2 O 0.226(2) -0.1964(19) 0.5369(16)
C1 C 0.2071(15) -0.1966(16) 0.7569(17)
H1 H 0.2259 -0.1263 0.7595
H2 H 0.1348 -0.1992 0.7479
O3 O 0.2354(11) -0.3586(9) 0.6366(15)
C2 C 0.2333(8) -0.2435(8) 0.8757(8)
C3 C 0.321(3) -0.302(3) 0.932(3)
H3 H 0.3120 -0.3732 0.9188
H4 H 0.3838 -0.2823 0.8946
C4 C 0.2225(15) -0.1601(14) 0.9635(19)
C5 C 0.2327(11) -0.2271(12) 1.0661(11)
H5 H 0.2254 -0.1895 1.1384
C6 C 0.138(3) -0.299(3) 1.043(2)
H6 H 0.1498 -0.3657 1.0729
H7 H 0.0776 -0.2716 1.0782
C7 C 0.330(2) -0.282(2) 1.062(3)
H8 H 0.3292 -0.3429 1.1077
H9 H 0.3866 -0.2404 1.0822
C8 C 0.1253(19) -0.101(2) 0.981(3)
H10 H 0.0726 -0.1461 1.0032
H11 H 0.1074 -0.0683 0.9098
H12 H 0.1350 -0.0516 1.0400
C9 C 0.1308(16) -0.2988(17) 0.9141(17)
O4 O 0.0643(18) -0.3348(17) 0.855(2)
C10 C 0.3186(17) -0.0930(17) 0.970(3)
H13 H 0.3417 -0.0897 1.0482
H14 H 0.3028 -0.0267 0.9430
H15 H 0.3701 -0.1214 0.9219
N1 N 0.0000 0.0000 0.4791(7)
C19 C -0.0175(9) -0.0928(7) 0.5528(9)
H31 H -0.0326 -0.1480 0.5011
H32 H 0.0454 -0.1088 0.5909
C20 C -0.0949(11) -0.0900(10) 0.6402(12)
H33 H -0.0812 -0.1400 0.6978
H34 H -0.1589 -0.1033 0.6053
H35 H -0.0960 -0.0249 0.6757
C21 C 0.0953(8) -0.0146(9) 0.4056(9)
H36 H 0.1103 0.0476 0.3659
H37 H 0.1512 -0.0294 0.4565
C22 C 0.0864(12) -0.0963(11) 0.3190(14)
H38 H 0.0545 -0.1534 0.3538
H39 H 0.1520 -0.1149 0.2924
H40 H 0.0468 -0.0734 0.2549
C19A C 0.0175(9) 0.0928(7) 0.5528(9)
H31A H 0.0326 0.1480 0.5011
H32A H -0.0454 0.1088 0.5909
C20A C 0.0949(11) 0.0900(10) 0.6402(12)
H33A H 0.0812 0.1400 0.6978
H34A H 0.1589 0.1033 0.6053
H35A H 0.0960 0.0249 0.6757
C21A C -0.0953(8) 0.0146(9) 0.4056(9)
H36A H -0.1103 -0.0476 0.3659
H37A H -0.1512 0.0294 0.4565
C22A C -0.0864(12) 0.0963(11) 0.3190(14)
H38A H -0.0545 0.1534 0.3538
H39A H -0.1520 0.1149 0.2924
H40A H -0.0468 0.0734 0.2549
N2 N 0.5000 0.0000 0.5008(6)
C23 C 0.4807(8) -0.0932(7) 0.4275(9)
H41 H 0.5422 -0.1097 0.3868
H42 H 0.4659 -0.1486 0.4791
C24 C 0.4088(9) 0.0206(7) 0.5730(9)
H43 H 0.3549 0.0383 0.5205
H44 H 0.3899 -0.0421 0.6095
C25 C 0.3987(9) -0.0859(9) 0.3418(10)
H45 H 0.3374 -0.0683 0.3803
H46 H 0.3906 -0.1493 0.3037
H47 H 0.4149 -0.0352 0.2859
C26 C 0.4115(12) 0.0963(11) 0.6622(12)
H48 H 0.4634 0.0803 0.7167
H49 H 0.3479 0.0983 0.7011
H50 H 0.4250 0.1605 0.6282
C23A C 0.5193(8) 0.0932(7) 0.4275(9)
H41A H 0.4578 0.1097 0.3868
H42A H 0.5341 0.1486 0.4791
C24A C 0.5912(9) -0.0206(7) 0.5730(9)
H43A H 0.6451 -0.0383 0.5205
H44A H 0.6101 0.0421 0.6095
C25A C 0.6013(9) 0.0859(9) 0.3418(10)
H45A H 0.6626 0.0683 0.3803
H46A H 0.6094 0.1493 0.3037
H47A H 0.5851 0.0352 0.2859
C26A C 0.5885(12) -0.0963(11) 0.6622(12)
H48A H 0.5366 -0.0803 0.7167
H49A H 0.6521 -0.0983 0.7011
H50A H 0.5750 -0.1605 0.6282
O5? O 0.2242(10) -0.1377(9) 0.6282(13)
O6? O 0.2168(10) -0.3057(13) 0.5423(11)
C11? C 0.210(2) -0.2894(14) 0.7623(16)
H16? H 0.1374 -0.2861 0.7536
H17? H 0.2267 -0.3600 0.7687
H18? H 0.2079 -0.2195 1.1453
C12? C 0.304(3) -0.143(2) 1.011(2)
H19? H 0.2785 -0.0767 1.0310
H20? H 0.3711 -0.1487 1.0441
C13? C 0.311(2) -0.1531(19) 0.8754(18)
H21? H 0.3768 -0.1718 0.8480
H22? H 0.2862 -0.0945 0.8345
O7? O 0.3652(19) -0.3924(18) 0.908(2)
C14? C 0.307(2) -0.326(2) 0.906(3)
C15? C 0.302(2) -0.313(2) 1.036(3)
H23? H 0.2778 -0.3747 1.0711
H24? H 0.3690 -0.2999 1.0663
C16? C 0.109(3) -0.135(2) 0.920(3)
H25? H 0.1016 -0.0838 0.9778
H26? H 0.0436 -0.1551 0.8932
H27? H 0.1469 -0.1088 0.8562
C17? C 0.106(3) -0.322(3) 0.997(3)
H28? H 0.1515 -0.3728 1.0249
H29? H 0.0738 -0.3456 0.9282
H30? H 0.0560 -0.3093 1.0554
C18? C 0.1638(17) -0.226(2) 0.9718(15)
loop_
_geom_bond_atom_site_label_1
_geom_bond_atom_site_label_2
_geom_bond_site_symmetry_1
_geom_bond_site_symmetry_2
S1 O1 1_555 1_555
O2 S1 1_555 1_555
C1 S1 1_555 1_555
H1 C1 1_555 1_555
H2 C1 1_555 1_555
O3 S1 1_555 1_555
C2 C1 1_555 1_555
C3 C2 1_555 1_555
H3 C3 1_555 1_555
H4 C3 1_555 1_555
C4 C2 1_555 1_555
C5 C4 1_555 1_555
H5 C5 1_555 1_555
C6 C5 1_555 1_555
H6 C6 1_555 1_555
H7 C6 1_555 1_555
C7 C3 1_555 1_555
H8 C7 1_555 1_555
H9 C7 1_555 1_555
C8 C4 1_555 1_555
H10 C8 1_555 1_555
H11 C8 1_555 1_555
H12 C8 1_555 1_555
C9 C2 1_555 1_555
O4 C9 1_555 1_555
C10 C4 1_555 1_555
H13 C10 1_555 1_555
H14 C10 1_555 1_555
H15 C10 1_555 1_555
N1 C19 1_555 1_555
C19 H31 1_555 1_555
H32 C19 1_555 1_555
C20 C19 1_555 1_555
H33 C20 1_555 1_555
H34 C20 1_555 1_555
H35 C20 1_555 1_555
C21 N1 1_555 1_555
H36 C21 1_555 1_555
H37 C21 1_555 1_555
C22 C21 1_555 1_555
H38 C22 1_555 1_555
H39 C22 1_555 1_555
H40 C22 1_555 1_555
N2 C23 1_555 1_555
C23 H41 1_555 1_555
H42 C23 1_555 1_555
C24 N2 1_555 1_555
H43 C24 1_555 1_555
H44 C24 1_555 1_555
C25 C23 1_555 1_555
H45 C25 1_555 1_555
H46 C25 1_555 1_555
H47 C25 1_555 1_555
C26 C24 1_555 1_555
H48 C26 1_555 1_555
H49 C26 1_555 1_555
H50 C26 1_555 1_555
C19A N1 1_555 1_555
H31A C19A 1_555 1_555
H32A C19A 1_555 1_555
C20A C19A 1_555 1_555
H33A C20A 1_555 1_555
H34A C20A 1_555 1_555
H35A C20A 1_555 1_555
C21A N1 1_555 1_555
H36A C21A 1_555 1_555
H37A C21A 1_555 1_555
C22A C21A 1_555 1_555
H38A C22A 1_555 1_555
H39A C22A 1_555 1_555
H40A C22A 1_555 1_555
C23A N2 1_555 1_555
H41A C23A 1_555 1_555
H42A C23A 1_555 1_555
C24A N2 1_555 1_555
H43A C24A 1_555 1_555
H44A C24A 1_555 1_555
C25A C23A 1_555 1_555
H45A C25A 1_555 1_555
H46A C25A 1_555 1_555
H47A C25A 1_555 1_555
C26A C24A 1_555 1_555
H48A C26A 1_555 1_555
H49A C26A 1_555 1_555
H50A C26A 1_555 1_555
C5 C7 1_555 1_555
C6 C9 1_555 1_555

#END
