
#######################################################################
#
#                 Cambridge Crystallographic Data Centre
#                                CCDC 
#
#######################################################################
#
# If this CIF has been generated from an entry in the Cambridge 
# Structural Database, then it will include bibliographic, chemical, 
# crystal, experimental, refinement or atomic coordinate data resulting 
# from the CCDC's data processing and validation procedures.
#
#######################################################################

data_HEQFIT01
_chemical_name_common            
(5,12,18,25,31,38,44,51-Octabutoxy-2,15,28,41,53,54,55,56-octaazatridecacyclo[40.10.1.1$3,14!.1$16,27!.1$29,40!.0$4,13!.0$6,11!.0$17,26!.0$19,24!.0$30,39!.0$32,37!.0$43,52!.0$45,50!]hexapentaconta-1(53),2,4(13),5,7,9,11,14(56),15,17(26),18,20,22,24,27(55),28,30(39),31,33,35,37,40(54),41,43(52),44,46,48,50-octacosaene)-lithium
_chemical_formula_moiety         'C80 H88 Li1 N8 O8'
_chemical_name_systematic        
'(5,9,14,18,23,27,32,36-Octa-n-butoxy-2,3-naphthalocyanine)-lithium radical'
_symmetry_cell_setting           tetragonal
_symmetry_space_group_name_H-M   'P 41 21 2'
_symmetry_Int_Tables_number      92
_space_group_name_Hall           'P 4abw 2nw'
loop_
_symmetry_equiv_pos_site_id
_symmetry_equiv_pos_as_xyz
1 x,y,z
2 1/2+x,1/2-y,3/4-z
3 -x,-y,1/2+z
4 1/2-x,1/2+y,1/4-z
5 y,x,-z
6 1/2+y,1/2-x,3/4+z
7 1/2-y,1/2+x,1/4+z
8 -y,-x,1/2-z
_cell_length_a                   15.4360(10)
_cell_length_b                   15.4360(10)
_cell_length_c                   28.831(2)
_cell_angle_alpha                90
_cell_angle_beta                 90
_cell_angle_gamma                90
_cell_volume                     6869.57
_exptl_crystal_colour            'dark green'
_exptl_crystal_description       block
_cell_formula_units_Z            4
loop_
_atom_site_label
_atom_site_type_symbol
_atom_site_fract_x
_atom_site_fract_y
_atom_site_fract_z
C1 C 1.0573(3) 0.9600(3) 0.01679(16)
C2 C 1.0756(3) 0.8751(3) 0.03769(16)
C3 C 1.1641(3) 0.8779(3) 0.05054(16)
C4 C 1.1946(3) 0.9638(3) 0.03623(15)
C5 C 1.3066(3) 1.0677(3) 0.02970(16)
C6 C 1.3983(3) 1.0921(4) 0.03083(18)
C7 C 1.4015(3) 1.1809(4) 0.02148(18)
C8 C 1.3102(3) 1.2066(4) 0.01202(18)
C9 C 1.0241(4) 0.8032(3) 0.04643(16)
C10 C 1.0646(4) 0.7275(3) 0.06588(17)
C11 C 1.0160(4) 0.6516(4) 0.07467(19)
H1 H 0.9559 0.6508 0.0675
C12 C 1.0534(5) 0.5797(4) 0.0932(2)
H2 H 1.0204 0.5283 0.0975
C13 C 1.1379(5) 0.5820(4) 0.1054(2)
H3 H 1.1623 0.532 0.1194
C14 C 1.1910(5) 0.6537(4) 0.09838(19)
H4 H 1.2506 0.6524 0.1065
C15 C 1.1520(4) 0.7301(3) 0.07838(17)
C16 C 1.2023(4) 0.8069(3) 0.07078(18)
C17 C 1.4740(4) 1.0449(4) 0.04070(18)
C18 C 1.5526(4) 1.0908(5) 0.04272(18)
C19 C 1.6308(4) 1.0477(5) 0.0524(2)
H5 H 1.6308 0.9869 0.0573
C20 C 1.7062(5) 1.0926(7) 0.0549(2)
H6 H 1.7577 1.063 0.0637
C21 C 1.7102(4) 1.1803(7) 0.0450(2)
H7 H 1.7647 1.2089 0.045
C22 C 1.6358(4) 1.2265(5) 0.0351(2)
H8 H 1.638 1.2872 0.0296
C23 C 1.5550(3) 1.1804(5) 0.03325(18)
C24 C 1.4777(4) 1.2264(4) 0.0224(2)
Li1 Li 1.1315(5) 1.1315(5) 0.00000
N1 N 1.1292(3) 1.0101(2) 0.01714(13)
N2 N 1.2770(3) 0.9892(3) 0.04158(14)
N3 N 1.2569(3) 1.1377(3) 0.01793(14)
N4 N 1.2868(3) 1.2868(3) 0.00000
N5 N 0.9791(3) 0.9791(3) 0.00000
O1 O 0.9380(2) 0.7984(2) 0.03653(11)
O2 O 1.2880(2) 0.8072(2) 0.08450(12)
O3 O 1.4775(2) 0.9603(3) 0.04961(14)
O4 O 1.4837(3) 1.3135(3) 0.01386(17)
C25 C 0.8840(4) 0.8451(4) 0.0685(2)
H9 H 0.8884 0.908 0.062
H10 H 0.9047 0.8349 0.1005
C26 C 0.7903(6) 0.8169(6) 0.0645(3)
H11 H 0.756 0.8485 0.0881
H12 H 0.7683 0.8343 0.0336
C27 C 0.7755(6) 0.7228(6) 0.0706(3)
H13 H 0.7944 0.7048 0.102
H14 H 0.8101 0.6901 0.0476
C28 C 0.6803(8) 0.7022(12) 0.0643(6)
H15 H 0.6712 0.6397 0.0676
H16 H 0.6616 0.7207 0.0334
H17 H 0.6464 0.733 0.0879
C29 C 1.2969(4) 0.8402(4) 0.13155(19)
H18 H 1.2663 0.8014 0.1535
H19 H 1.2705 0.8985 0.1337
C30 C 1.3901(4) 0.8450(3) 0.1441(2)
H20 H 1.3956 0.8741 0.1746
H21 H 1.4204 0.8813 0.1209
C31 C 1.4346(4) 0.7582(4) 0.14665(19)
H22 H 1.4337 0.7309 0.1156
H23 H 1.4021 0.7201 0.1681
C32 C 1.5295(4) 0.7653(5) 0.1634(2)
H24 H 1.5555 0.7074 0.1646
H25 H 1.5307 0.7912 0.1945
H26 H 1.5624 0.8019 0.1419
C33 C 1.4448(4) 0.9019(4) 0.0146(3)
H27 H 1.3857 0.8825 0.0231
H28 H 1.4415 0.9321 -0.0156
C34 C 1.5008(5) 0.8288(6) 0.0109(3)
H29 H 1.5114 0.8053 0.0424
H30 H 1.5572 0.8482 -0.0017
C35 C 1.4652(6) 0.7554(6) -0.0201(4)
H31 H 1.504 0.7045 -0.018
H32 H 1.4073 0.7379 -0.0088
C36 C 1.4586(8) 0.7834(7) -0.0691(5)
H33 H 1.4348 0.736 -0.0878
H34 H 1.5163 0.7987 -0.0807
H35 H 1.4204 0.8339 -0.0712
C37 C 1.4730(8) 1.3327(7) -0.0376(3)
H36 H 1.4104 1.3373 -0.0446
H37 H 1.4961 1.2831 -0.0555
C38 C 1.5182(9) 1.4161(7) -0.0544(4)
H38 H 1.503 1.4631 -0.0325
H39 H 1.5815 1.4068 -0.0519
C39 C 1.5420(8) 1.5244(9) -0.1155(4)
H40 H 1.5267 1.5406 -0.1473
H41 H 1.6047 1.5153 -0.1134
H42 H 1.5249 1.5709 -0.0942
C43 C 1.4996(5) 1.4491(7) -0.1036(3)
H50 H 1.516 1.4033 -0.126
H51 H 1.4365 1.4588 -0.1067
C1D C 0.9600(3) 1.0573(3) -0.01679(16)
C2D C 0.8751(3) 1.0756(3) -0.03769(16)
C3D C 0.8779(3) 1.1641(3) -0.05054(16)
C4D C 0.9638(3) 1.1946(3) -0.03623(15)
C5D C 1.0677(3) 1.3066(3) -0.02970(16)
C6D C 1.0921(4) 1.3983(3) -0.03083(18)
C7D C 1.1809(4) 1.4015(3) -0.02148(18)
C8D C 1.2066(4) 1.3102(3) -0.01202(18)
C9D C 0.8032(3) 1.0241(4) -0.04643(16)
C10D C 0.7275(3) 1.0646(4) -0.06588(17)
C11D C 0.6516(4) 1.0160(4) -0.07467(19)
H1D H 0.6508 0.9559 -0.0675
C12D C 0.5797(4) 1.0534(5) -0.0932(2)
H2D H 0.5283 1.0204 -0.0975
C13D C 0.5820(4) 1.1379(5) -0.1054(2)
H3D H 0.532 1.1623 -0.1194
C14D C 0.6537(4) 1.1910(5) -0.09838(19)
H4D H 0.6524 1.2506 -0.1065
C15D C 0.7301(3) 1.1520(4) -0.07838(17)
C16D C 0.8069(3) 1.2023(4) -0.07078(18)
C17D C 1.0449(4) 1.4740(4) -0.04070(18)
C18D C 1.0908(5) 1.5526(4) -0.04272(18)
C19D C 1.0477(5) 1.6308(4) -0.0524(2)
H5D H 0.9869 1.6308 -0.0573
C20D C 1.0926(7) 1.7062(5) -0.0549(2)
H6D H 1.063 1.7577 -0.0637
C21D C 1.1803(7) 1.7102(4) -0.0450(2)
H7D H 1.2089 1.7647 -0.045
C22D C 1.2265(5) 1.6358(4) -0.0351(2)
H8D H 1.2872 1.638 -0.0296
C23D C 1.1804(5) 1.5550(3) -0.03325(18)
C24D C 1.2264(4) 1.4777(4) -0.0224(2)
N1D N 1.0101(2) 1.1292(3) -0.01714(13)
N2D N 0.9892(3) 1.2770(3) -0.04158(14)
N3D N 1.1377(3) 1.2569(3) -0.01793(14)
O1D O 0.7984(2) 0.9380(2) -0.03653(11)
O2D O 0.8072(2) 1.2880(2) -0.08450(12)
O3D O 0.9603(3) 1.4775(2) -0.04961(14)
O4D O 1.3135(3) 1.4837(3) -0.01386(17)
C25D C 0.8451(4) 0.8840(4) -0.0685(2)
H9D H 0.908 0.8884 -0.062
H10D H 0.8349 0.9047 -0.1005
C26D C 0.8169(6) 0.7903(6) -0.0645(3)
H11D H 0.8485 0.756 -0.0881
H12D H 0.8343 0.7683 -0.0336
C27D C 0.7228(6) 0.7755(6) -0.0706(3)
H13D H 0.7048 0.7944 -0.102
H14D H 0.6901 0.8101 -0.0476
C28D C 0.7022(12) 0.6803(8) -0.0643(6)
H15D H 0.6397 0.6712 -0.0676
H16D H 0.7207 0.6616 -0.0334
H17D H 0.733 0.6464 -0.0879
C29D C 0.8402(4) 1.2969(4) -0.13155(19)
H18D H 0.8014 1.2663 -0.1535
H19D H 0.8985 1.2705 -0.1337
C30D C 0.8450(3) 1.3901(4) -0.1441(2)
H20D H 0.8741 1.3956 -0.1746
H21D H 0.8813 1.4204 -0.1209
C31D C 0.7582(4) 1.4346(4) -0.14665(19)
H22D H 0.7309 1.4337 -0.1156
H23D H 0.7201 1.4021 -0.1681
C32D C 0.7653(5) 1.5295(4) -0.1634(2)
H24D H 0.7074 1.5555 -0.1646
H25D H 0.7912 1.5307 -0.1945
H26D H 0.8019 1.5624 -0.1419
C33D C 0.9019(4) 1.4448(4) -0.0146(3)
H27D H 0.8825 1.3857 -0.0231
H28D H 0.9321 1.4415 0.0156
C34D C 0.8288(6) 1.5008(5) -0.0109(3)
H29D H 0.8053 1.5114 -0.0424
H30D H 0.8482 1.5572 0.0017
C35D C 0.7554(6) 1.4652(6) 0.0201(4)
H31D H 0.7045 1.504 0.018
H32D H 0.7379 1.4073 0.0088
C36D C 0.7834(7) 1.4586(8) 0.0691(5)
H33D H 0.736 1.4348 0.0878
H34D H 0.7987 1.5163 0.0807
H35D H 0.8339 1.4204 0.0712
C37D C 1.3327(7) 1.4730(8) 0.0376(3)
H36D H 1.3373 1.4104 0.0446
H37D H 1.2831 1.4961 0.0555
C38D C 1.4161(7) 1.5182(9) 0.0544(4)
H38D H 1.4631 1.503 0.0325
H39D H 1.4068 1.5815 0.0519
C39D C 1.5244(9) 1.5420(8) 0.1155(4)
H40D H 1.5406 1.5267 0.1473
H41D H 1.5153 1.6047 0.1134
H42D H 1.5709 1.5249 0.0942
C43D C 1.4491(7) 1.4996(5) 0.1036(3)
H50D H 1.4033 1.516 0.126
H51D H 1.4588 1.4365 0.1067
C40? C 1.4447(9) 1.3625(8) 0.0542(4)
H43? H 1.441 1.3235 0.0814
H44? H 1.385 1.3804 0.046
C41? C 1.4437(9) 1.4980(9) -0.0675(4)
H45? H 1.4787 1.5093 -0.0393
H46? H 1.4255 1.5545 -0.0805
C42? C 1.546(2) 1.3711(15) -0.0896(10)
H47? H 1.5793 1.3486 -0.1161
H48? H 1.505 1.3271 -0.0791
H49? H 1.5863 1.3851 -0.0643
H52? H 1.4612 1.4331 -0.1297
H53? H 1.5428 1.4906 -0.1159
loop_
_geom_bond_atom_site_label_1
_geom_bond_atom_site_label_2
_geom_bond_site_symmetry_1
_geom_bond_site_symmetry_2
C1 C2 1_555 1_555
C2 C3 1_555 1_555
C3 C4 1_555 1_555
C4 N1 1_555 1_555
C5 C6 1_555 1_555
C6 C7 1_555 1_555
C7 C8 1_555 1_555
C8 N3 1_555 1_555
C9 C2 1_555 1_555
C10 C9 1_555 1_555
C11 C10 1_555 1_555
H1 C11 1_555 1_555
C12 C11 1_555 1_555
H2 C12 1_555 1_555
C13 C12 1_555 1_555
H3 C13 1_555 1_555
C14 C13 1_555 1_555
H4 C14 1_555 1_555
C15 C10 1_555 1_555
C16 C3 1_555 1_555
C17 C6 1_555 1_555
C18 C17 1_555 1_555
C19 C18 1_555 1_555
H5 C19 1_555 1_555
C20 C19 1_555 1_555
H6 C20 1_555 1_555
C21 C20 1_555 1_555
H7 C21 1_555 1_555
C22 C21 1_555 1_555
H8 C22 1_555 1_555
C23 C18 1_555 1_555
C24 C7 1_555 1_555
Li1 N1 1_555 1_555
N1 C1 1_555 1_555
N2 C4 1_555 1_555
N3 C5 1_555 1_555
N4 C8 1_555 1_555
N5 C1 1_555 1_555
O1 C9 1_555 1_555
O2 C16 1_555 1_555
O3 C17 1_555 1_555
O4 C24 1_555 1_555
C25 O1 1_555 1_555
H9 C25 1_555 1_555
H10 C25 1_555 1_555
C26 C25 1_555 1_555
H11 C26 1_555 1_555
H12 C26 1_555 1_555
C27 C26 1_555 1_555
H13 C27 1_555 1_555
H14 C27 1_555 1_555
C28 C27 1_555 1_555
H15 C28 1_555 1_555
H16 C28 1_555 1_555
H17 C28 1_555 1_555
C29 O2 1_555 1_555
H18 C29 1_555 1_555
H19 C29 1_555 1_555
C30 C29 1_555 1_555
H20 C30 1_555 1_555
H21 C30 1_555 1_555
C31 C30 1_555 1_555
H22 C31 1_555 1_555
H23 C31 1_555 1_555
C32 C31 1_555 1_555
H24 C32 1_555 1_555
H25 C32 1_555 1_555
H26 C32 1_555 1_555
C33 O3 1_555 1_555
H27 C33 1_555 1_555
H28 C33 1_555 1_555
C34 C33 1_555 1_555
H29 C34 1_555 1_555
H30 C34 1_555 1_555
C35 C34 1_555 1_555
H31 C35 1_555 1_555
H32 C35 1_555 1_555
C36 C35 1_555 1_555
H33 C36 1_555 1_555
H34 C36 1_555 1_555
H35 C36 1_555 1_555
C37 O4 1_555 1_555
H36 C37 1_555 1_555
H37 C37 1_555 1_555
C38 C37 1_555 1_555
H38 C38 1_555 1_555
H39 C38 1_555 1_555
C39 H40 1_555 1_555
H41 C39 1_555 1_555
H42 C39 1_555 1_555
C43 C38 1_555 1_555
H50 C43 1_555 1_555
H51 C43 1_555 1_555
C1D N5 1_555 1_555
C2D C1D 1_555 1_555
C3D C2D 1_555 1_555
C4D C3D 1_555 1_555
C5D C6D 1_555 1_555
C6D C7D 1_555 1_555
C7D C8D 1_555 1_555
C8D N4 1_555 1_555
C9D C2D 1_555 1_555
C10D C9D 1_555 1_555
C11D C10D 1_555 1_555
H1D C11D 1_555 1_555
C12D C11D 1_555 1_555
H2D C12D 1_555 1_555
C13D C12D 1_555 1_555
H3D C13D 1_555 1_555
C14D C13D 1_555 1_555
H4D C14D 1_555 1_555
C15D C10D 1_555 1_555
C16D C3D 1_555 1_555
C17D C6D 1_555 1_555
C18D C17D 1_555 1_555
C19D C18D 1_555 1_555
H5D C19D 1_555 1_555
C20D C19D 1_555 1_555
H6D C20D 1_555 1_555
C21D C20D 1_555 1_555
H7D C21D 1_555 1_555
C22D C21D 1_555 1_555
H8D C22D 1_555 1_555
C23D C18D 1_555 1_555
C24D C7D 1_555 1_555
N1D Li1 1_555 1_555
N2D C4D 1_555 1_555
N3D Li1 1_555 1_555
O1D C9D 1_555 1_555
O2D C16D 1_555 1_555
O3D C17D 1_555 1_555
O4D C24D 1_555 1_555
C25D O1D 1_555 1_555
H9D C25D 1_555 1_555
H10D C25D 1_555 1_555
C26D C25D 1_555 1_555
H11D C26D 1_555 1_555
H12D C26D 1_555 1_555
C27D C26D 1_555 1_555
H13D C27D 1_555 1_555
H14D C27D 1_555 1_555
C28D C27D 1_555 1_555
H15D C28D 1_555 1_555
H16D C28D 1_555 1_555
H17D C28D 1_555 1_555
C29D O2D 1_555 1_555
H18D C29D 1_555 1_555
H19D C29D 1_555 1_555
C30D C29D 1_555 1_555
H20D C30D 1_555 1_555
H21D C30D 1_555 1_555
C31D C30D 1_555 1_555
H22D C31D 1_555 1_555
H23D C31D 1_555 1_555
C32D C31D 1_555 1_555
H24D C32D 1_555 1_555
H25D C32D 1_555 1_555
H26D C32D 1_555 1_555
C33D O3D 1_555 1_555
H27D C33D 1_555 1_555
H28D C33D 1_555 1_555
C34D C33D 1_555 1_555
H29D C34D 1_555 1_555
H30D C34D 1_555 1_555
C35D C34D 1_555 1_555
H31D C35D 1_555 1_555
H32D C35D 1_555 1_555
C36D C35D 1_555 1_555
H33D C36D 1_555 1_555
H34D C36D 1_555 1_555
H35D C36D 1_555 1_555
C37D O4D 1_555 1_555
H36D C37D 1_555 1_555
H37D C37D 1_555 1_555
C38D C37D 1_555 1_555
H38D C38D 1_555 1_555
H39D C38D 1_555 1_555
C39D H40D 1_555 1_555
H41D C39D 1_555 1_555
H42D C39D 1_555 1_555
C43D C38D 1_555 1_555
H50D C43D 1_555 1_555
H51D C43D 1_555 1_555
C5 N2 1_555 1_555
C14 C15 1_555 1_555
C15 C16 1_555 1_555
C22 C23 1_555 1_555
C23 C24 1_555 1_555
Li1 N3 1_555 1_555
C39 C43 1_555 1_555
C1D N1D 1_555 1_555
C4D N1D 1_555 1_555
C5D N2D 1_555 1_555
C5D N3D 1_555 1_555
C8D N3D 1_555 1_555
C14D C15D 1_555 1_555
C15D C16D 1_555 1_555
C22D C23D 1_555 1_555
C23D C24D 1_555 1_555
C39D C43D 1_555 1_555

#END
