
#######################################################################
#
#                 Cambridge Crystallographic Data Centre
#                                CCDC 
#
#######################################################################
#
# If this CIF has been generated from an entry in the Cambridge 
# Structural Database, then it will include bibliographic, chemical, 
# crystal, experimental, refinement or atomic coordinate data resulting 
# from the CCDC's data processing and validation procedures.
#
#######################################################################

data_HEQFOZ
_chemical_formula_moiety         'C52 H78 N2 Si2'
_chemical_name_systematic        
(E)-3,4-bis(2-tri-isopropylsilylethynyl)-1,6-bis(4-(di-isopropylamine)phenyl)hex-3-ene-1,5-diyne
_symmetry_cell_setting           triclinic
_symmetry_space_group_name_H-M   'P -1'
_symmetry_Int_Tables_number      2
_space_group_name_Hall           '-P 1'
loop_
_symmetry_equiv_pos_site_id
_symmetry_equiv_pos_as_xyz
1 x,y,z
2 -x,-y,-z
_cell_length_a                   12.0694(5)
_cell_length_b                   12.6299(7)
_cell_length_c                   17.9160(8)
_cell_angle_alpha                92.044(4)
_cell_angle_beta                 92.778(3)
_cell_angle_gamma                104.564(2)
_cell_volume                     2636.93
_exptl_crystal_colour            black
_chemical_melting_point          209.5-211.3deg.C(dec.)
_cell_formula_units_Z            2
_exptl_crystal_recrystallization_method hexane
loop_
_atom_site_label
_atom_site_type_symbol
_atom_site_fract_x
_atom_site_fract_y
_atom_site_fract_z
Si1 Si 0.35356(8) 0.20119(11) -0.10034(7)
C1 C 0.0549(2) 0.0034(2) 0.01336(13)
C2 C 0.0787(2) -0.0503(2) 0.07888(14)
C3 C 0.1057(2) -0.0926(2) 0.13321(14)
C4 C 0.1449(2) -0.1397(2) 0.19767(13)
C5 C 0.0741(2) -0.1792(2) 0.25527(14)
H1 H -0.0033 -0.1773 0.2511
C6 C 0.1147(2) -0.2207(2) 0.31799(14)
H2 H 0.0642 -0.2467 0.3554
C7 C 0.2299(2) -0.2254(2) 0.32764(14)
C8 C 0.3002(2) -0.1860(3) 0.26905(16)
H3 H 0.3776 -0.1878 0.2727
C9 C 0.2584(2) -0.1449(3) 0.20654(15)
H4 H 0.3082 -0.1196 0.1686
N1 N 0.27306(19) -0.2629(2) 0.39121(13)
C10 C 0.3738(3) -0.3096(3) 0.39154(18)
H5 H 0.3706 -0.3500 0.4381
C11 C 0.4892(3) -0.2228(4) 0.3993(2)
H6 H 0.5028 -0.1863 0.3527
H7 H 0.5503 -0.2579 0.4110
H8 H 0.4872 -0.1694 0.4392
C12 C 0.3656(4) -0.3947(4) 0.3296(2)
H9 H 0.2908 -0.4464 0.3281
H10 H 0.4248 -0.4332 0.3384
H11 H 0.3758 -0.3596 0.2823
C13 C 0.2068(3) -0.2800(3) 0.45847(15)
H12 H 0.1487 -0.2371 0.4535
C14 C 0.1416(3) -0.3989(3) 0.46484(19)
H13 H 0.0935 -0.4243 0.4195
H14 H 0.0941 -0.4048 0.5074
H15 H 0.1958 -0.4435 0.4716
C15 C 0.2817(3) -0.2351(3) 0.52940(18)
H16 H 0.3374 -0.2777 0.5378
H17 H 0.2339 -0.2400 0.5718
H18 H 0.3214 -0.1592 0.5237
C16 C 0.1504(2) 0.0653(3) -0.02382(15)
C17 C 0.2318(3) 0.1186(3) -0.05362(18)
C18 C 0.4794(5) 0.2281(9) -0.0378(4)
H19 H 0.4980 0.1564 -0.0438
C19 C 0.5861(5) 0.2999(9) -0.0695(5)
H20 H 0.5858 0.3763 -0.0625
H21 H 0.5864 0.2814 -0.1225
H22 H 0.6541 0.2876 -0.0439
C20 C 0.4705(7) 0.2317(16) 0.0394(5)
H23 H 0.5446 0.2348 0.0642
H24 H 0.4150 0.1666 0.0533
H25 H 0.4458 0.2962 0.0546
C21 C 0.3650(5) 0.1339(9) -0.1903(4)
H26 H 0.4326 0.1786 -0.2138
C22 C 0.2553(8) 0.1302(15) -0.2434(5)
H27 H 0.2607 0.0926 -0.2907
H28 H 0.2529 0.2050 -0.2519
H29 H 0.1861 0.0926 -0.2204
C23 C 0.3750(11) 0.0275(11) -0.1902(8)
H30 H 0.2997 -0.0221 -0.1877
H31 H 0.4236 0.0192 -0.1473
H32 H 0.4088 0.0106 -0.2358
C24 C 0.3212(7) 0.3410(6) -0.1157(5)
H33 H 0.2345 0.3256 -0.1406
C25 C 0.3939(11) 0.4115(10) -0.1721(8)
H34 H 0.4070 0.3649 -0.2132
H35 H 0.4668 0.4508 -0.1477
H36 H 0.3538 0.4635 -0.1912
C26 C 0.3228(17) 0.4091(15) -0.0391(12)
H37 H 0.2479 0.3878 -0.0186
H38 H 0.3413 0.4867 -0.0481
H39 H 0.3800 0.3944 -0.0039
Si1A Si -0.35356(8) -0.20119(11) 0.10034(7)
C1A C -0.0549(2) -0.0034(2) -0.01336(13)
C2A C -0.0787(2) 0.0503(2) -0.07888(14)
C3A C -0.1057(2) 0.0926(2) -0.13321(14)
C4A C -0.1449(2) 0.1397(2) -0.19767(13)
C5A C -0.0741(2) 0.1792(2) -0.25527(14)
H1A H 0.0033 0.1773 -0.2511
C6A C -0.1147(2) 0.2207(2) -0.31799(14)
H2A H -0.0642 0.2467 -0.3554
C7A C -0.2299(2) 0.2254(2) -0.32764(14)
C8A C -0.3002(2) 0.1860(3) -0.26905(16)
H3A H -0.3776 0.1878 -0.2727
C9A C -0.2584(2) 0.1449(3) -0.20654(15)
H4A H -0.3082 0.1196 -0.1686
N1A N -0.27306(19) 0.2629(2) -0.39121(13)
C10A C -0.3738(3) 0.3096(3) -0.39154(18)
H5A H -0.3706 0.3500 -0.4381
C11A C -0.4892(3) 0.2228(4) -0.3993(2)
H6A H -0.5028 0.1863 -0.3527
H7A H -0.5503 0.2579 -0.4110
H8A H -0.4872 0.1694 -0.4392
C12A C -0.3656(4) 0.3947(4) -0.3296(2)
H9A H -0.2908 0.4464 -0.3281
H10A H -0.4248 0.4332 -0.3384
H11A H -0.3758 0.3596 -0.2823
C13A C -0.2068(3) 0.2800(3) -0.45847(15)
H12A H -0.1487 0.2371 -0.4535
C14A C -0.1416(3) 0.3989(3) -0.46484(19)
H13A H -0.0935 0.4243 -0.4195
H14A H -0.0941 0.4048 -0.5074
H15A H -0.1958 0.4435 -0.4716
C15A C -0.2817(3) 0.2351(3) -0.52940(18)
H16A H -0.3374 0.2777 -0.5378
H17A H -0.2339 0.2400 -0.5718
H18A H -0.3214 0.1592 -0.5237
C16A C -0.1504(2) -0.0653(3) 0.02382(15)
C17A C -0.2318(3) -0.1186(3) 0.05362(18)
C18A C -0.4794(5) -0.2281(9) 0.0378(4)
H19A H -0.4980 -0.1564 0.0438
C19A C -0.5861(5) -0.2999(9) 0.0695(5)
H20A H -0.5858 -0.3763 0.0625
H21A H -0.5864 -0.2814 0.1225
H22A H -0.6541 -0.2876 0.0439
C20A C -0.4705(7) -0.2317(16) -0.0394(5)
H23A H -0.5446 -0.2348 -0.0642
H24A H -0.4150 -0.1666 -0.0533
H25A H -0.4458 -0.2962 -0.0546
C21A C -0.3650(5) -0.1339(9) 0.1903(4)
H26A H -0.4326 -0.1786 0.2138
C22A C -0.2553(8) -0.1302(15) 0.2434(5)
H27A H -0.2607 -0.0926 0.2907
H28A H -0.2529 -0.2050 0.2519
H29A H -0.1861 -0.0926 0.2204
C23A C -0.3750(11) -0.0275(11) 0.1902(8)
H30A H -0.2997 0.0221 0.1877
H31A H -0.4236 -0.0192 0.1473
H32A H -0.4088 -0.0106 0.2358
C24A C -0.3212(7) -0.3410(6) 0.1157(5)
H33A H -0.2345 -0.3256 0.1406
C25A C -0.3939(11) -0.4115(10) 0.1721(8)
H34A H -0.4070 -0.3649 0.2132
H35A H -0.4668 -0.4508 0.1477
H36A H -0.3538 -0.4635 0.1912
C26A C -0.3228(17) -0.4091(15) 0.0391(12)
H37A H -0.2479 -0.3878 0.0186
H38A H -0.3413 -0.4867 0.0481
H39A H -0.3800 -0.3944 0.0039
Si2 Si 0.21251(9) 0.17606(9) 0.39518(7)
C27 C 0.4453(3) 0.4721(3) 0.50705(17)
C28 C 0.3944(2) 0.5089(3) 0.57149(15)
C29 C 0.3347(2) 0.5264(2) 0.61946(15)
C30 C 0.2610(2) 0.5474(2) 0.67479(14)
C31 C 0.2894(3) 0.6403(3) 0.72165(17)
H40 H 0.3601 0.6915 0.7174
C32 C 0.2177(3) 0.6600(3) 0.77422(19)
H41 H 0.2407 0.7243 0.8052
C33 C 0.1115(3) 0.5879(3) 0.78330(16)
C34 C 0.0826(3) 0.4941(3) 0.73511(17)
H42 H 0.0122 0.4425 0.7393
C35 C 0.1543(3) 0.4755(3) 0.68213(16)
H43 H 0.1310 0.4126 0.6499
N2 N 0.0387(3) 0.6080(3) 0.83599(15)
C36 C -0.0376(9) 0.5028(9) 0.8760(4)
H44 H -0.0547 0.5306 0.9259
C37 C -0.1362(7) 0.4874(10) 0.8258(5)
H45 H -0.1439 0.4221 0.7937
H46 H -0.1271 0.5506 0.7953
H47 H -0.2043 0.4798 0.8538
C38 C 0.0254(11) 0.4214(8) 0.8972(5)
H48 H -0.0204 0.3689 0.9289
H49 H 0.0971 0.4585 0.9242
H50 H 0.0413 0.3835 0.8525
C39 C 0.0623(5) 0.6986(6) 0.8851(3)
H51 H 0.1002 0.7554 0.8476
C40 C 0.1443(7) 0.7211(12) 0.9403(4)
H52 H 0.1799 0.6603 0.9426
H53 H 0.1111 0.7304 0.9876
H54 H 0.2017 0.7875 0.9309
C41 C -0.0576(11) 0.7372(10) 0.8864(7)
H55 H -0.0803 0.7402 0.9375
H56 H -0.1172 0.6850 0.8563
H57 H -0.0464 0.8090 0.8661
C42 C 0.3849(2) 0.3825(2) 0.45866(15)
C43 C 0.3184(3) 0.3042(3) 0.4268(2)
C44 C 0.1570(5) 0.1002(4) 0.4780(3)
H58 H 0.0795 0.0624 0.4564
C45 C 0.2014(12) 0.0153(8) 0.5023(6)
H59 H 0.2767 0.0458 0.5270
H60 H 0.2081 -0.0320 0.4598
H61 H 0.1511 -0.0268 0.5372
C46 C 0.1335(5) 0.1705(5) 0.5435(3)
H62 H 0.0990 0.1236 0.5823
H63 H 0.0815 0.2131 0.5263
H64 H 0.2050 0.2195 0.5634
C47 C 0.0972(3) 0.2116(3) 0.3386(3)
H65 H 0.1384 0.2573 0.2990
C48 C 0.0126(4) 0.1119(4) 0.2974(3)
H66 H -0.0218 0.0598 0.3334
H67 H 0.0536 0.0773 0.2628
H68 H -0.0469 0.1363 0.2700
C49 C 0.0380(5) 0.2866(5) 0.3785(4)
H69 H -0.0231 0.2996 0.3457
H70 H 0.0930 0.3557 0.3924
H71 H 0.0060 0.2530 0.4231
C50 C 0.2931(3) 0.1005(3) 0.3386(3)
H72 H 0.2434 0.0252 0.3259
C51 C 0.3211(6) 0.1655(7) 0.2603(3)
H73 H 0.3696 0.2385 0.2722
H74 H 0.2498 0.1707 0.2351
H75 H 0.3601 0.1254 0.2279
C52 C 0.4086(4) 0.0874(5) 0.3729(3)
H76 H 0.4521 0.0649 0.3339
H77 H 0.3943 0.0323 0.4101
H78 H 0.4521 0.1567 0.3964
Si2A Si 0.78749(9) 0.82394(9) 0.60482(7)
C27A C 0.5547(3) 0.5279(3) 0.49295(17)
C28A C 0.6056(2) 0.4911(3) 0.42851(15)
C29A C 0.6653(2) 0.4736(2) 0.38054(15)
C30A C 0.7390(2) 0.4526(2) 0.32521(14)
C31A C 0.7106(3) 0.3597(3) 0.27835(17)
H40A H 0.6399 0.3085 0.2826
C32A C 0.7823(3) 0.3400(3) 0.22578(19)
H41A H 0.7593 0.2757 0.1948
C33A C 0.8885(3) 0.4121(3) 0.21670(16)
C34A C 0.9174(3) 0.5059(3) 0.26489(17)
H42A H 0.9878 0.5575 0.2607
C35A C 0.8457(3) 0.5245(3) 0.31787(16)
H43A H 0.8690 0.5874 0.3501
N2A N 0.9613(3) 0.3920(3) 0.16401(15)
C36A C 1.0376(9) 0.4972(9) 0.1240(4)
H44A H 1.0547 0.4694 0.0741
C37A C 1.1362(7) 0.5126(10) 0.1742(5)
H45A H 1.1439 0.5779 0.2063
H46A H 1.1271 0.4494 0.2047
H47A H 1.2043 0.5202 0.1462
C38A C 0.9746(11) 0.5786(8) 0.1028(5)
H48A H 1.0204 0.6311 0.0711
H49A H 0.9029 0.5415 0.0758
H50A H 0.9587 0.6165 0.1475
C39A C 0.9377(5) 0.3014(6) 0.1149(3)
H51A H 0.8998 0.2446 0.1524
C40A C 0.8557(7) 0.2789(12) 0.0597(4)
H52A H 0.8201 0.3397 0.0574
H53A H 0.8889 0.2696 0.0124
H54A H 0.7983 0.2125 0.0691
C41A C 1.0576(11) 0.2628(10) 0.1136(7)
H55A H 1.0803 0.2598 0.0625
H56A H 1.1172 0.3150 0.1437
H57A H 1.0464 0.1910 0.1339
C42A C 0.6151(2) 0.6175(2) 0.54134(15)
C43A C 0.6816(3) 0.6958(3) 0.5732(2)
C44A C 0.8430(5) 0.8998(4) 0.5220(3)
H58A H 0.9205 0.9376 0.5436
C45A C 0.7986(12) 0.9847(8) 0.4977(6)
H59A H 0.7233 0.9542 0.4730
H60A H 0.7919 1.0320 0.5402
H61A H 0.8489 1.0268 0.4628
C46A C 0.8665(5) 0.8295(5) 0.4565(3)
H62A H 0.9010 0.8764 0.4177
H63A H 0.9185 0.7869 0.4737
H64A H 0.7950 0.7805 0.4366
C47A C 0.9028(3) 0.7884(3) 0.6614(3)
H65A H 0.8616 0.7427 0.7010
C48A C 0.9874(4) 0.8881(4) 0.7026(3)
H66A H 1.0218 0.9402 0.6666
H67A H 0.9464 0.9227 0.7372
H68A H 1.0469 0.8637 0.7300
C49A C 0.9620(5) 0.7134(5) 0.6215(4)
H69A H 1.0231 0.7004 0.6543
H70A H 0.9070 0.6443 0.6076
H71A H 0.9940 0.7470 0.5769
C50A C 0.7069(3) 0.8995(3) 0.6614(3)
H72A H 0.7566 0.9748 0.6741
C51A C 0.6789(6) 0.8345(7) 0.7397(3)
H73A H 0.6304 0.7615 0.7278
H74A H 0.7502 0.8293 0.7649
H75A H 0.6399 0.8746 0.7721
C52A C 0.5914(4) 0.9126(5) 0.6271(3)
H76A H 0.5479 0.9351 0.6661
H77A H 0.6057 0.9677 0.5899
H78A H 0.5479 0.8433 0.6036
loop_
_geom_bond_atom_site_label_1
_geom_bond_atom_site_label_2
_geom_bond_site_symmetry_1
_geom_bond_site_symmetry_2
Si1 C17 1_555 1_555
C1 C2 1_555 1_555
C2 C3 1_555 1_555
C3 C4 1_555 1_555
C4 C5 1_555 1_555
C5 H1 1_555 1_555
C6 C5 1_555 1_555
H2 C6 1_555 1_555
C7 C6 1_555 1_555
C8 C7 1_555 1_555
H3 C8 1_555 1_555
C9 C4 1_555 1_555
H4 C9 1_555 1_555
N1 C7 1_555 1_555
C10 N1 1_555 1_555
H5 C10 1_555 1_555
C11 C10 1_555 1_555
H6 C11 1_555 1_555
H7 C11 1_555 1_555
H8 C11 1_555 1_555
C12 C10 1_555 1_555
H9 C12 1_555 1_555
H10 C12 1_555 1_555
H11 C12 1_555 1_555
C13 N1 1_555 1_555
H12 C13 1_555 1_555
C14 C13 1_555 1_555
H13 C14 1_555 1_555
H14 C14 1_555 1_555
H15 C14 1_555 1_555
C15 C13 1_555 1_555
H16 C15 1_555 1_555
H17 C15 1_555 1_555
H18 C15 1_555 1_555
C16 C1 1_555 1_555
C17 C16 1_555 1_555
C18 Si1 1_555 1_555
H19 C18 1_555 1_555
C19 C18 1_555 1_555
H20 C19 1_555 1_555
H21 C19 1_555 1_555
H22 C19 1_555 1_555
C20 C18 1_555 1_555
H23 C20 1_555 1_555
H24 C20 1_555 1_555
H25 C20 1_555 1_555
C21 Si1 1_555 1_555
H26 C21 1_555 1_555
C22 C21 1_555 1_555
H27 C22 1_555 1_555
H28 C22 1_555 1_555
H29 C22 1_555 1_555
C23 C21 1_555 1_555
H30 C23 1_555 1_555
H31 C23 1_555 1_555
H32 C23 1_555 1_555
C24 Si1 1_555 1_555
H33 C24 1_555 1_555
C25 C24 1_555 1_555
H34 C25 1_555 1_555
H35 C25 1_555 1_555
H36 C25 1_555 1_555
C26 C24 1_555 1_555
H37 C26 1_555 1_555
H38 C26 1_555 1_555
H39 C26 1_555 1_555
Si2 C43 1_555 1_555
C27 C28 1_555 1_555
C28 C29 1_555 1_555
C29 C30 1_555 1_555
C30 C31 1_555 1_555
C31 H40 1_555 1_555
C32 C31 1_555 1_555
H41 C32 1_555 1_555
C33 C32 1_555 1_555
C34 C33 1_555 1_555
H42 C34 1_555 1_555
C35 C30 1_555 1_555
H43 C35 1_555 1_555
N2 C33 1_555 1_555
C36 N2 1_555 1_555
H44 C36 1_555 1_555
C37 C36 1_555 1_555
H45 C37 1_555 1_555
H46 C37 1_555 1_555
H47 C37 1_555 1_555
C38 C36 1_555 1_555
H48 C38 1_555 1_555
H49 C38 1_555 1_555
H50 C38 1_555 1_555
C39 N2 1_555 1_555
H51 C39 1_555 1_555
C40 C39 1_555 1_555
H52 C40 1_555 1_555
H53 C40 1_555 1_555
H54 C40 1_555 1_555
C41 C39 1_555 1_555
H55 C41 1_555 1_555
H56 C41 1_555 1_555
H57 C41 1_555 1_555
C42 C27 1_555 1_555
C43 C42 1_555 1_555
C44 Si2 1_555 1_555
H58 C44 1_555 1_555
C45 C44 1_555 1_555
H59 C45 1_555 1_555
H60 C45 1_555 1_555
H61 C45 1_555 1_555
C46 C44 1_555 1_555
H62 C46 1_555 1_555
H63 C46 1_555 1_555
H64 C46 1_555 1_555
C47 Si2 1_555 1_555
H65 C47 1_555 1_555
C48 C47 1_555 1_555
H66 C48 1_555 1_555
H67 C48 1_555 1_555
H68 C48 1_555 1_555
C49 C47 1_555 1_555
H69 C49 1_555 1_555
H70 C49 1_555 1_555
H71 C49 1_555 1_555
C50 Si2 1_555 1_555
H72 C50 1_555 1_555
C51 C50 1_555 1_555
H73 C51 1_555 1_555
H74 C51 1_555 1_555
H75 C51 1_555 1_555
C52 C50 1_555 1_555
H76 C52 1_555 1_555
H77 C52 1_555 1_555
H78 C52 1_555 1_555
Si1A C17A 1_555 1_555
C1A C1 1_555 1_555
C2A C1A 1_555 1_555
C3A C2A 1_555 1_555
C4A C3A 1_555 1_555
C5A C4A 1_555 1_555
H1A C5A 1_555 1_555
C6A C5A 1_555 1_555
H2A C6A 1_555 1_555
C7A C6A 1_555 1_555
C8A C7A 1_555 1_555
H3A C8A 1_555 1_555
C9A C4A 1_555 1_555
H4A C9A 1_555 1_555
N1A C7A 1_555 1_555
C10A N1A 1_555 1_555
H5A C10A 1_555 1_555
C11A C10A 1_555 1_555
H6A C11A 1_555 1_555
H7A C11A 1_555 1_555
H8A C11A 1_555 1_555
C12A C10A 1_555 1_555
H9A C12A 1_555 1_555
H10A C12A 1_555 1_555
H11A C12A 1_555 1_555
C13A N1A 1_555 1_555
H12A C13A 1_555 1_555
C14A C13A 1_555 1_555
H13A C14A 1_555 1_555
H14A C14A 1_555 1_555
H15A C14A 1_555 1_555
C15A C13A 1_555 1_555
H16A C15A 1_555 1_555
H17A C15A 1_555 1_555
H18A C15A 1_555 1_555
C16A C1A 1_555 1_555
C17A C16A 1_555 1_555
C18A Si1A 1_555 1_555
H19A C18A 1_555 1_555
C19A C18A 1_555 1_555
H20A C19A 1_555 1_555
H21A C19A 1_555 1_555
H22A C19A 1_555 1_555
C20A C18A 1_555 1_555
H23A C20A 1_555 1_555
H24A C20A 1_555 1_555
H25A C20A 1_555 1_555
C21A Si1A 1_555 1_555
H26A C21A 1_555 1_555
C22A C21A 1_555 1_555
H27A C22A 1_555 1_555
H28A C22A 1_555 1_555
H29A C22A 1_555 1_555
C23A C21A 1_555 1_555
H30A C23A 1_555 1_555
H31A C23A 1_555 1_555
H32A C23A 1_555 1_555
C24A Si1A 1_555 1_555
H33A C24A 1_555 1_555
C25A C24A 1_555 1_555
H34A C25A 1_555 1_555
H35A C25A 1_555 1_555
H36A C25A 1_555 1_555
C26A C24A 1_555 1_555
H37A C26A 1_555 1_555
H38A C26A 1_555 1_555
H39A C26A 1_555 1_555
Si2A C43A 1_555 1_555
C27A C27 1_555 1_555
C28A C27A 1_555 1_555
C29A C28A 1_555 1_555
C30A C29A 1_555 1_555
C31A C30A 1_555 1_555
H40A C31A 1_555 1_555
C32A C31A 1_555 1_555
H41A C32A 1_555 1_555
C33A C32A 1_555 1_555
C34A C33A 1_555 1_555
H42A C34A 1_555 1_555
C35A C30A 1_555 1_555
H43A C35A 1_555 1_555
N2A C33A 1_555 1_555
C36A N2A 1_555 1_555
H44A C36A 1_555 1_555
C37A C36A 1_555 1_555
H45A C37A 1_555 1_555
H46A C37A 1_555 1_555
H47A C37A 1_555 1_555
C38A C36A 1_555 1_555
H48A C38A 1_555 1_555
H49A C38A 1_555 1_555
H50A C38A 1_555 1_555
C39A N2A 1_555 1_555
H51A C39A 1_555 1_555
C40A C39A 1_555 1_555
H52A C40A 1_555 1_555
H53A C40A 1_555 1_555
H54A C40A 1_555 1_555
C41A C39A 1_555 1_555
H55A C41A 1_555 1_555
H56A C41A 1_555 1_555
H57A C41A 1_555 1_555
C42A C27A 1_555 1_555
C43A C42A 1_555 1_555
C44A Si2A 1_555 1_555
H58A C44A 1_555 1_555
C45A C44A 1_555 1_555
H59A C45A 1_555 1_555
H60A C45A 1_555 1_555
H61A C45A 1_555 1_555
C46A C44A 1_555 1_555
H62A C46A 1_555 1_555
H63A C46A 1_555 1_555
H64A C46A 1_555 1_555
C47A Si2A 1_555 1_555
H65A C47A 1_555 1_555
C48A C47A 1_555 1_555
H66A C48A 1_555 1_555
H67A C48A 1_555 1_555
H68A C48A 1_555 1_555
C49A C47A 1_555 1_555
H69A C49A 1_555 1_555
H70A C49A 1_555 1_555
H71A C49A 1_555 1_555
C50A Si2A 1_555 1_555
H72A C50A 1_555 1_555
C51A C50A 1_555 1_555
H73A C51A 1_555 1_555
H74A C51A 1_555 1_555
H75A C51A 1_555 1_555
C52A C50A 1_555 1_555
H76A C52A 1_555 1_555
H77A C52A 1_555 1_555
H78A C52A 1_555 1_555
C8 C9 1_555 1_555
C34 C35 1_555 1_555
C8A C9A 1_555 1_555
C34A C35A 1_555 1_555

#END
