
#######################################################################
#
#                 Cambridge Crystallographic Data Centre
#                                CCDC 
#
#######################################################################
#
# If this CIF has been generated from an entry in the Cambridge 
# Structural Database, then it will include bibliographic, chemical, 
# crystal, experimental, refinement or atomic coordinate data resulting 
# from the CCDC's data processing and validation procedures.
#
#######################################################################

data_HEQKOG
_chemical_formula_moiety         'C27 H22 N2 O2'
_chemical_name_systematic        
'naphthalen-2-yl 7-methyl-1,2,6,7-tetrahydroindolo[1,7-ab][1,4]benzodiazepine-7-carboxylate'
_symmetry_cell_setting           triclinic
_symmetry_space_group_name_H-M   'P -1'
_symmetry_Int_Tables_number      2
_space_group_name_Hall           '-P 1'
loop_
_symmetry_equiv_pos_site_id
_symmetry_equiv_pos_as_xyz
1 x,y,z
2 -x,-y,-z
_cell_length_a                   7.6895(7)
_cell_length_b                   10.1136(9)
_cell_length_c                   13.5890(12)
_cell_angle_alpha                71.2319(15)
_cell_angle_beta                 83.2179(15)
_cell_angle_gamma                85.4554(16)
_cell_volume                     992.647
_exptl_crystal_colour            white
_exptl_crystal_description       block
_cell_formula_units_Z            2
loop_
_atom_site_label
_atom_site_type_symbol
_atom_site_fract_x
_atom_site_fract_y
_atom_site_fract_z
O1 O -0.03395(15) 0.67491(12) 0.13233(9)
O2 O 0.10992(16) 0.55430(12) 0.27140(9)
N1 N 0.41697(18) 0.61802(15) 0.13606(12)
H1 H 0.464(2) 0.5518(19) 0.1844(15)
N2 N 0.26196(18) 0.88611(14) -0.00036(10)
C1 C 0.3982(2) 0.74142(17) 0.16335(12)
C2 C 0.4552(2) 0.74793(19) 0.25534(14)
H2 H 0.507(3) 0.664(2) 0.3000(15)
C3 C 0.4379(3) 0.8696(2) 0.28230(15)
H3 H 0.475(2) 0.8689(19) 0.3480(15)
C4 C 0.3615(2) 0.98947(19) 0.21679(14)
H4 H 0.350(2) 1.077(2) 0.2330(14)
C5 C 0.3065(2) 0.98606(17) 0.12442(13)
C6 C 0.3223(2) 0.86305(17) 0.09756(12)
C7 C 0.2305(2) 1.10238(18) 0.03867(14)
H5 H 0.114(3) 1.1330(18) 0.0617(14)
H6 H 0.304(3) 1.187(2) 0.0141(15)
C8 C 0.2237(2) 1.03788(17) -0.04842(14)
H7 H 0.109(2) 1.0518(17) -0.0760(13)
H8 H 0.313(2) 1.0765(17) -0.1088(14)
C9 C 0.2507(2) 0.79424(16) -0.05677(12)
C10 C 0.2354(2) 0.85264(19) -0.16438(13)
H9 H 0.238(2) 0.950(2) -0.1960(14)
C11 C 0.2198(2) 0.77026(19) -0.22643(14)
H10 H 0.210(2) 0.8152(19) -0.3015(15)
C12 C 0.2179(2) 0.62731(19) -0.18312(14)
H11 H 0.208(2) 0.5686(19) -0.2246(14)
C13 C 0.2295(2) 0.56815(18) -0.07714(13)
H12 H 0.228(2) 0.4685(19) -0.0475(13)
C14 C 0.2466(2) 0.64682(16) -0.01186(12)
C15 C 0.2598(2) 0.57328(16) 0.10414(12)
C16 C 0.2770(3) 0.41332(17) 0.13332(15)
H13 H 0.384(2) 0.3846(17) 0.0920(13)
H14 H 0.173(3) 0.3739(19) 0.1188(14)
H15 H 0.290(2) 0.3739(19) 0.2077(16)
C17 C 0.0939(2) 0.60965(16) 0.16712(12)
C18 C -0.0189(2) 0.59532(19) 0.33943(13)
C19 C -0.1327(2) 0.49314(19) 0.40386(13)
H16 H -0.119(2) 0.3960(19) 0.3988(14)
C20 C -0.2516(2) 0.5265(2) 0.47620(14)
H17 H -0.330(3) 0.453(2) 0.5243(15)
C21 C -0.2599(2) 0.66057(19) 0.48726(13)
C22 C -0.3800(3) 0.6983(2) 0.56300(15)
H18 H -0.465(3) 0.6327(19) 0.6065(15)
C23 C -0.3806(3) 0.8270(2) 0.57454(16)
H19 H -0.464(3) 0.850(2) 0.6278(16)
C24 C -0.2601(3) 0.9253(2) 0.51173(17)
H20 H -0.260(3) 1.020(2) 0.5193(17)
C25 C -0.1443(3) 0.8938(2) 0.43733(16)
H21 H -0.058(3) 0.960(2) 0.3904(17)
C26 C -0.1419(2) 0.76145(19) 0.42288(14)
C27 C -0.0214(2) 0.72507(19) 0.34716(14)
H22 H 0.056(2) 0.7945(18) 0.3057(13)
loop_
_geom_bond_atom_site_label_1
_geom_bond_atom_site_label_2
_geom_bond_site_symmetry_1
_geom_bond_site_symmetry_2
O1 C17 1_555 1_555
O2 C17 1_555 1_555
N1 H1 1_555 1_555
N2 C6 1_555 1_555
C1 N1 1_555 1_555
C2 C1 1_555 1_555
H2 C2 1_555 1_555
C3 C2 1_555 1_555
H3 C3 1_555 1_555
C4 C3 1_555 1_555
H4 C4 1_555 1_555
C5 C4 1_555 1_555
C6 C1 1_555 1_555
C7 C5 1_555 1_555
H5 C7 1_555 1_555
H6 C7 1_555 1_555
C8 N2 1_555 1_555
H7 C8 1_555 1_555
H8 C8 1_555 1_555
C9 N2 1_555 1_555
C10 C9 1_555 1_555
H9 C10 1_555 1_555
C11 C10 1_555 1_555
H10 C11 1_555 1_555
C12 C11 1_555 1_555
H11 C12 1_555 1_555
C13 C12 1_555 1_555
H12 C13 1_555 1_555
C14 C9 1_555 1_555
C15 N1 1_555 1_555
C16 C15 1_555 1_555
H13 C16 1_555 1_555
H14 C16 1_555 1_555
H15 C16 1_555 1_555
C17 C15 1_555 1_555
C18 O2 1_555 1_555
C19 C18 1_555 1_555
H16 C19 1_555 1_555
C20 C19 1_555 1_555
H17 C20 1_555 1_555
C21 C20 1_555 1_555
C22 C21 1_555 1_555
H18 C22 1_555 1_555
C23 C22 1_555 1_555
H19 C23 1_555 1_555
C24 C23 1_555 1_555
H20 C24 1_555 1_555
C25 C24 1_555 1_555
H21 C25 1_555 1_555
C26 C21 1_555 1_555
C27 C18 1_555 1_555
H22 C27 1_555 1_555
C5 C6 1_555 1_555
C7 C8 1_555 1_555
C13 C14 1_555 1_555
C14 C15 1_555 1_555
C25 C26 1_555 1_555
C26 C27 1_555 1_555

#END
