
#######################################################################
#
#                 Cambridge Crystallographic Data Centre
#                                CCDC 
#
#######################################################################
#
# If this CIF has been generated from an entry in the Cambridge 
# Structural Database, then it will include bibliographic, chemical, 
# crystal, experimental, refinement or atomic coordinate data resulting 
# from the CCDC's data processing and validation procedures.
#
#######################################################################

data_HEQLAR
_chemical_formula_moiety         'C20 H30 F3 N1 O2'
_chemical_name_systematic        4-Dodecyloxy-2-trifluoromethylbenzamide
_symmetry_cell_setting           triclinic
_symmetry_space_group_name_H-M   'P -1'
_symmetry_Int_Tables_number      2
_space_group_name_Hall           '-P 1'
loop_
_symmetry_equiv_pos_site_id
_symmetry_equiv_pos_as_xyz
1 x,y,z
2 -x,-y,-z
_cell_length_a                   4.9837(13)
_cell_length_b                   8.952(2)
_cell_length_c                   23.931(6)
_cell_angle_alpha                93.495(5)
_cell_angle_beta                 90.810(5)
_cell_angle_gamma                93.460(5)
_cell_volume                     1063.56
_exptl_crystal_colour            white
_exptl_crystal_description       needle
_chemical_melting_point          '96-97 deg.C'
_cell_formula_units_Z            2
_exptl_crystal_recrystallization_method n-hexane
loop_
_atom_site_label
_atom_site_type_symbol
_atom_site_fract_x
_atom_site_fract_y
_atom_site_fract_z
O1 O 1.2593(4) 0.1530(2) 0.31775(9)
O2 O 1.6960(4) -0.3337(2) 0.47405(9)
C1 C 1.5105(5) -0.1770(3) 0.37109(14)
C2 C 1.4697(6) -0.2932(3) 0.46508(14)
C3 C 1.4195(5) -0.1735(3) 0.42606(14)
C4 C 1.2223(7) 0.0579(4) 0.41016(17)
C5 C 1.4521(6) -0.0661(4) 0.33742(17)
C6 C 1.3072(6) 0.0534(3) 0.35629(15)
C7 C 1.2768(6) -0.0538(4) 0.44465(16)
N1 N 1.2569(6) -0.3513(4) 0.48987(14)
C8 C 1.6519(8) -0.3079(4) 0.34641(18)
C9 C 1.0825(10) 0.2698(4) 0.33186(17)
C10 C 0.8676(9) 0.2491(4) 0.23524(17)
C11 C 1.0315(9) 0.3441(5) 0.27812(18)
C12 C 0.7897(10) 0.3272(5) 0.1845(2)
C13 C 0.5339(12) 0.3130(6) 0.0914(2)
C14 C 0.2733(12) 0.2926(6) -0.0006(2)
C15 C 0.6184(11) 0.2346(5) 0.14178(19)
C16 C 0.3611(11) 0.2191(5) 0.0498(2)
C17 C 0.0233(14) 0.2690(7) -0.0936(2)
C18 C 0.1111(14) 0.1981(6) -0.0424(2)
C19 C -0.2076(12) 0.2357(6) -0.1858(2)
H1 H -0.2840 0.3294 -0.1758
H2 H -0.3407 0.1690 -0.2052
H3 H -0.0570 0.2527 -0.2096
C20 C -0.1218(12) 0.1716(6) -0.1371(2)
H4 H -0.0068 0.0919 -0.1484
H5 H -0.2790 0.1252 -0.1202
H6 H 0.923(6) 0.215(3) 0.3431(12)
H7 H 0.953(5) 0.425(3) 0.2864(11)
H8 H 0.703(7) 0.205(4) 0.2562(14)
H9 H 1.106(6) -0.329(3) 0.4847(12)
H10 H 0.972(6) 0.153(4) 0.2200(13)
H11 H 1.170(5) 0.330(3) 0.3638(11)
H12 H 1.225(6) 0.380(3) 0.2632(11)
H13 H 0.742(8) 0.140(5) 0.1293(16)
H14 H 0.693(6) 0.411(3) 0.1974(12)
H15 H 1.214(5) -0.043(3) 0.4847(12)
H16 H 0.466(7) 0.184(4) 0.1600(15)
H17 H 1.503(5) -0.069(3) 0.3018(10)
H18 H 1.300(7) -0.443(4) 0.5072(15)
H19 H 0.944(6) 0.365(3) 0.1683(12)
H20 H 0.205(8) 0.161(4) 0.0643(15)
H21 H 0.167(6) 0.379(4) 0.0080(12)
H22 H 0.682(7) 0.354(4) 0.0763(15)
H23 H 0.428(6) 0.334(3) -0.0183(14)
H24 H 0.423(7) 0.384(4) 0.1058(15)
H25 H 0.181(7) 0.309(4) -0.1153(15)
H26 H -0.078(7) 0.349(4) -0.0848(16)
H27 H 0.214(10) 0.115(6) -0.0549(19)
H28 H -0.060(10) 0.129(6) -0.027(2)
H29 H 0.470(7) 0.124(4) 0.0367(14)
H30 H 1.145(4) 0.130(3) 0.4212(9)
F1 F 1.5407(5) -0.4386(2) 0.36002(12)
F2 F 1.9063(4) -0.3073(2) 0.36038(12)
F3 F 1.6449(8) -0.3135(4) 0.29034(12)
F4? F 1.863(14) -0.256(6) 0.321(3)
F5? F 1.713(16) -0.399(8) 0.396(3)
F6? F 1.521(6) -0.374(4) 0.3091(17)
loop_
_geom_bond_atom_site_label_1
_geom_bond_atom_site_label_2
_geom_bond_site_symmetry_1
_geom_bond_site_symmetry_2
O1 C6 1_555 1_555
O2 C2 1_555 1_555
C1 C3 1_555 1_555
C2 C3 1_555 1_555
C3 C7 1_555 1_555
C4 C6 1_555 1_555
C5 C1 1_555 1_555
C6 C5 1_555 1_555
C7 C4 1_555 1_555
N1 C2 1_555 1_555
C8 C1 1_555 1_555
C9 O1 1_555 1_555
C10 C11 1_555 1_555
C11 C9 1_555 1_555
C12 C10 1_555 1_555
C13 C15 1_555 1_555
C14 C16 1_555 1_555
C15 C12 1_555 1_555
C16 C13 1_555 1_555
C17 C18 1_555 1_555
C18 C14 1_555 1_555
C19 H1 1_555 1_555
H2 C19 1_555 1_555
H3 C19 1_555 1_555
C20 C17 1_555 1_555
H4 C20 1_555 1_555
H5 C20 1_555 1_555
H6 C9 1_555 1_555
H7 C11 1_555 1_555
H8 C10 1_555 1_555
H9 N1 1_555 1_555
H10 C10 1_555 1_555
H11 C9 1_555 1_555
H12 C11 1_555 1_555
H13 C15 1_555 1_555
H14 C12 1_555 1_555
H15 C7 1_555 1_555
H16 C15 1_555 1_555
H17 C5 1_555 1_555
H18 N1 1_555 1_555
H19 C12 1_555 1_555
H20 C16 1_555 1_555
H21 C14 1_555 1_555
H22 C13 1_555 1_555
H23 C14 1_555 1_555
H24 C13 1_555 1_555
H25 C17 1_555 1_555
H26 C17 1_555 1_555
H27 C18 1_555 1_555
H28 C18 1_555 1_555
H29 C16 1_555 1_555
H30 C4 1_555 1_555
F1 C8 1_555 1_555
F2 C8 1_555 1_555
F3 C8 1_555 1_555
C19 C20 1_555 1_555

#END
