
#######################################################################
#
#                 Cambridge Crystallographic Data Centre
#                                CCDC 
#
#######################################################################
#
# If this CIF has been generated from an entry in the Cambridge 
# Structural Database, then it will include bibliographic, chemical, 
# crystal, experimental, refinement or atomic coordinate data resulting 
# from the CCDC's data processing and validation procedures.
#
#######################################################################

data_HEQYOU
_chemical_formula_moiety         'C24 H21 Br1 F9 N1 O2 S1'
_chemical_name_systematic        
4-[(4-bromophenyl)methylidene]-3-methyl-1-[(4-methylphenyl)sulfonyl]-3-(2,2,3,3,4,4,5,5,5-nonafluoropentyl)pyrrolidine
_symmetry_cell_setting           monoclinic
_symmetry_space_group_name_H-M   'P 21/c'
_symmetry_Int_Tables_number      14
_space_group_name_Hall           '-P 2ybc'
loop_
_symmetry_equiv_pos_site_id
_symmetry_equiv_pos_as_xyz
1 x,y,z
2 -x,1/2+y,1/2-z
3 -x,-y,-z
4 x,1/2-y,1/2+z
_cell_length_a                   22.2998(13)
_cell_length_b                   8.4321(5)
_cell_length_c                   13.6505(7)
_cell_angle_alpha                90
_cell_angle_beta                 93.917(2)
_cell_angle_gamma                90
_cell_volume                     2560.76
_exptl_crystal_description       block
_cell_formula_units_Z            4
loop_
_atom_site_label
_atom_site_type_symbol
_atom_site_fract_x
_atom_site_fract_y
_atom_site_fract_z
Br1 Br 0.87697(2) 0.87930(3) 0.57242(2)
N1 N 0.67732(8) 0.0320(2) 0.25760(12)
C1 C 0.43725(13) -0.1871(4) 0.4908(2)
H1 H 0.4135 -0.0896 0.4928
H2 H 0.4563 -0.2089 0.5562
H3 H 0.4109 -0.2757 0.4701
F1 F 0.79507(6) 0.2314(2) 0.19850(10)
O1 O 0.66587(7) -0.24660(18) 0.20477(12)
S1 S 0.63218(2) -0.10217(6) 0.20753(4)
C2 C 0.48498(11) -0.1674(3) 0.41874(18)
F2 F 0.81687(7) -0.01384(18) 0.23585(11)
O2 O 0.60636(7) -0.03360(19) 0.11829(11)
F3 F 0.90214(7) 0.33119(18) 0.26840(13)
C3 C 0.47664(10) -0.0648(3) 0.33888(19)
H4 H 0.4402 -0.0066 0.3297
F4 F 0.92530(6) 0.1001(2) 0.32984(12)
C4 C 0.52049(10) -0.0462(3) 0.27279(17)
H5 H 0.5142 0.0240 0.2186
F5 F 0.92626(9) -0.0326(2) 0.15850(16)
C5 C 0.58298(10) -0.2348(3) 0.36590(16)
H6 H 0.6194 -0.2931 0.3751
F6 F 0.88336(7) 0.1670(3) 0.08327(11)
C6 C 0.57387(9) -0.1314(2) 0.28660(15)
F7 F 0.98008(9) 0.3479(2) 0.12867(18)
C7 C 0.70947(9) -0.0023(2) 0.35384(15)
H7 H 0.7401 -0.0858 0.3474
H8 H 0.6811 -0.0374 0.4021
F8 F 1.02086(7) 0.1675(3) 0.21881(16)
C8 C 0.65435(10) 0.1959(2) 0.26102(16)
H9 H 0.6146 0.1991 0.2891
H10 H 0.6509 0.2439 0.1947
F9 F 1.00395(8) 0.1301(3) 0.06437(16)
C9 C 0.53846(10) -0.2520(3) 0.43119(17)
H11 H 0.5446 -0.3225 0.4852
C10 C 0.70128(9) 0.2804(2) 0.32690(14)
C11 C 0.73937(9) 0.1570(2) 0.38570(15)
C12 C 0.73596(11) 0.1773(3) 0.49718(15)
H12 H 0.7571 0.2745 0.5186
H13 H 0.7548 0.0860 0.5313
H14 H 0.6938 0.1845 0.5127
C13 C 0.80719(9) 0.1663(2) 0.36746(15)
H15 H 0.8218 0.2727 0.3886
H16 H 0.8285 0.0881 0.4112
C14 C 0.82613(9) 0.1388(3) 0.26513(16)
C15 C 0.89396(10) 0.1740(3) 0.25618(17)
C16 C 0.92040(11) 0.1256(3) 0.1595(2)
C17 C 0.98285(12) 0.1935(4) 0.1426(2)
C18 C 0.70512(9) 0.4375(3) 0.32721(16)
H17 H 0.6772 0.4914 0.2833
C19 C 0.74756(9) 0.5398(2) 0.38765(16)
C20 C 0.73421(10) 0.5889(3) 0.48142(17)
H18 H 0.6984 0.5525 0.5079
C21 C 0.77231(11) 0.6898(3) 0.53662(17)
H19 H 0.7628 0.7226 0.6003
C22 C 0.82435(10) 0.7419(3) 0.49731(17)
C23 C 0.83817(10) 0.6976(3) 0.40418(19)
H20 H 0.8739 0.7350 0.3778
C24 C 0.79949(10) 0.5979(3) 0.34945(18)
H21 H 0.8086 0.5688 0.2849
loop_
_geom_bond_atom_site_label_1
_geom_bond_atom_site_label_2
_geom_bond_site_symmetry_1
_geom_bond_site_symmetry_2
Br1 C22 1_555 1_555
N1 S1 1_555 1_555
C1 H1 1_555 1_555
H2 C1 1_555 1_555
H3 C1 1_555 1_555
F1 C14 1_555 1_555
O1 S1 1_555 1_555
S1 O2 1_555 1_555
C2 C1 1_555 1_555
F2 C14 1_555 1_555
F3 C15 1_555 1_555
C3 C2 1_555 1_555
H4 C3 1_555 1_555
F4 C15 1_555 1_555
C4 C3 1_555 1_555
H5 C4 1_555 1_555
F5 C16 1_555 1_555
C5 H6 1_555 1_555
F6 C16 1_555 1_555
C6 S1 1_555 1_555
F7 C17 1_555 1_555
C7 N1 1_555 1_555
H7 C7 1_555 1_555
H8 C7 1_555 1_555
F8 C17 1_555 1_555
C8 N1 1_555 1_555
H9 C8 1_555 1_555
H10 C8 1_555 1_555
F9 C17 1_555 1_555
C9 C2 1_555 1_555
H11 C9 1_555 1_555
C10 C8 1_555 1_555
C11 C7 1_555 1_555
C12 C11 1_555 1_555
H12 C12 1_555 1_555
H13 C12 1_555 1_555
H14 C12 1_555 1_555
C13 C11 1_555 1_555
H15 C13 1_555 1_555
H16 C13 1_555 1_555
C14 C13 1_555 1_555
C15 C14 1_555 1_555
C16 C15 1_555 1_555
C17 C16 1_555 1_555
C18 C10 1_555 1_555
H17 C18 1_555 1_555
C19 C18 1_555 1_555
C20 C19 1_555 1_555
H18 C20 1_555 1_555
C21 C20 1_555 1_555
H19 C21 1_555 1_555
C22 C21 1_555 1_555
C23 C22 1_555 1_555
H20 C23 1_555 1_555
C24 C19 1_555 1_555
H21 C24 1_555 1_555
C4 C6 1_555 1_555
C5 C6 1_555 1_555
C5 C9 1_555 1_555
C10 C11 1_555 1_555
C23 C24 1_555 1_555

#END
