
#######################################################################
#
#                 Cambridge Crystallographic Data Centre
#                                CCDC 
#
#######################################################################
#
# If this CIF has been generated from an entry in the Cambridge 
# Structural Database, then it will include bibliographic, chemical, 
# crystal, experimental, refinement or atomic coordinate data resulting 
# from the CCDC's data processing and validation procedures.
#
#######################################################################

data_HERJEU
_chemical_formula_moiety         'C34 H41 N2 O1 P1 S1'
_chemical_name_systematic        
'4-((1R,2S,5R)-Menthyloxy)-3,5-diphenyl-1,2,3,5,6,7-hexahydro-3a,4a-diaza-4-phosphacyclopenta(def)phenanthrene 4-sulfide'
_symmetry_cell_setting           orthorhombic
_symmetry_space_group_name_H-M   'P 21 21 21'
_symmetry_Int_Tables_number      19
_space_group_name_Hall           'P 2ac 2ab'
loop_
_symmetry_equiv_pos_site_id
_symmetry_equiv_pos_as_xyz
1 x,y,z
2 1/2-x,-y,1/2+z
3 -x,1/2+y,1/2-z
4 1/2+x,1/2-y,-z
_cell_length_a                   6.5541(4)
_cell_length_b                   21.0909(13)
_cell_length_c                   21.9930(14)
_cell_angle_alpha                90
_cell_angle_beta                 90
_cell_angle_gamma                90
_cell_volume                     3040.13
_exptl_crystal_colour            colorless
_exptl_crystal_description       'Needle plate'
_chemical_melting_point          225-227deg.C
_cell_formula_units_Z            4
_exptl_crystal_recrystallization_method pentane/dichloromethane
loop_
_atom_site_label
_atom_site_type_symbol
_atom_site_fract_x
_atom_site_fract_y
_atom_site_fract_z
C1 C 0.3712(4) 0.30534(10) 0.01181(10)
H1 H 0.4185 0.2646 0.0266
H2 H 0.3030 0.2987 -0.0268
C2 C 0.2218(3) 0.33428(10) 0.05752(11)
H3 H 0.1113 0.3046 0.0645
H4 H 0.1635 0.3725 0.0401
C3 C 0.3220(3) 0.35087(10) 0.11903(10)
H5 H 0.2238 0.3754 0.1431
N1 N 0.5003(2) 0.39095(7) 0.10759(7)
P1 P 0.59808(8) 0.44749(2) 0.15238(2)
N2 N 0.7582(2) 0.47200(7) 0.09817(7)
C4 C 0.8912(3) 0.52789(9) 0.09809(8)
H6 H 0.9427 0.5339 0.1395
C5 C 1.0750(3) 0.51392(10) 0.05653(9)
H7 H 1.1612 0.5512 0.0547
H8 H 1.1546 0.4798 0.0742
C6 C 1.0133(3) 0.49542(11) -0.00774(10)
H9 H 0.9560 0.5320 -0.0284
H10 H 1.1329 0.4818 -0.0302
C7 C 0.8586(3) 0.44268(10) -0.00672(9)
C8 C 0.8173(4) 0.40034(11) -0.05366(10)
H11 H 0.8942 0.4025 -0.0891
C9 C 0.6668(4) 0.35564(11) -0.04908(10)
H12 H 0.6425 0.3289 -0.0819
C10 C 0.5485(4) 0.34892(9) 0.00334(10)
C11 C 0.5957(3) 0.38923(9) 0.05063(8)
C12 C 0.7449(3) 0.43527(9) 0.04530(9)
C13 C 0.3716(4) 0.29079(9) 0.15348(10)
C14 C 0.5548(4) 0.26020(10) 0.14696(10)
H13 H 0.6565 0.2782 0.1230
C15 C 0.5897(7) 0.20294(13) 0.17559(12)
H14 H 0.7148 0.1827 0.1709
C16 C 0.4430(9) 0.17618(15) 0.21035(16)
H15 H 0.4675 0.1374 0.2291
C17 C 0.2587(7) 0.20562(17) 0.21824(15)
H16 H 0.1589 0.1874 0.2427
C18 C 0.2226(5) 0.26329(13) 0.18922(12)
H17 H 0.0973 0.2834 0.1939
S1 S 0.41605(9) 0.50850(3) 0.18774(2)
O1 O 0.7289(2) 0.41102(6) 0.20185(5)
C19 C 0.7544(3) 0.43266(9) 0.26497(8)
H18 H 0.6245 0.4498 0.2796
C20 C 0.8129(3) 0.37602(10) 0.30378(9)
H19 H 0.9445 0.3604 0.2888
C21 C 0.8462(4) 0.40003(12) 0.36866(10)
H20 H 0.7176 0.4156 0.3846
H21 H 0.8895 0.3649 0.3940
C22 C 1.0043(4) 0.45259(12) 0.37261(10)
H22 H 1.0125 0.4675 0.4143
H23 H 1.1368 0.4357 0.3615
C23 C 0.9536(3) 0.50739(10) 0.33167(9)
H24 H 0.8270 0.5265 0.3467
C24 C 0.9134(4) 0.48407(9) 0.26713(8)
H25 H 0.8687 0.5195 0.2423
H26 H 1.0396 0.4681 0.2500
C25 C 0.6617(4) 0.32076(11) 0.30073(11)
H27 H 0.6472 0.3099 0.2576
C26 C 0.7468(5) 0.26159(11) 0.33226(12)
H28 H 0.8808 0.2526 0.3169
H29 H 0.6588 0.2262 0.3244
H30 H 0.7541 0.2689 0.3753
C27 C 0.4499(4) 0.33696(13) 0.32349(13)
H31 H 0.4566 0.3481 0.3658
H32 H 0.3619 0.3009 0.3184
H33 H 0.3969 0.3721 0.3007
C28 C 1.1163(4) 0.55827(11) 0.33252(11)
H34 H 1.2432 0.5407 0.3186
H35 H 1.1326 0.5739 0.3732
H36 H 1.0764 0.5925 0.3063
C29 C 0.7847(3) 0.58844(10) 0.07901(9)
C30 C 0.6068(4) 0.58925(10) 0.04592(9)
H37 H 0.5437 0.5512 0.0358
C31 C 0.5204(4) 0.64584(12) 0.02743(10)
H38 H 0.4001 0.6456 0.0050
C32 C 0.6113(5) 0.70226(12) 0.04203(12)
H39 H 0.5534 0.7403 0.0295
C33 C 0.7872(5) 0.70219(13) 0.07504(13)
H40 H 0.8490 0.7404 0.0853
C34 C 0.8744(4) 0.64564(11) 0.09339(11)
H41 H 0.9950 0.6462 0.1157
loop_
_geom_bond_atom_site_label_1
_geom_bond_atom_site_label_2
_geom_bond_site_symmetry_1
_geom_bond_site_symmetry_2
C1 H1 1_555 1_555
H2 C1 1_555 1_555
C2 C1 1_555 1_555
H3 C2 1_555 1_555
H4 C2 1_555 1_555
C3 C2 1_555 1_555
H5 C3 1_555 1_555
N1 C3 1_555 1_555
P1 N1 1_555 1_555
N2 P1 1_555 1_555
C4 N2 1_555 1_555
H6 C4 1_555 1_555
C5 C4 1_555 1_555
H7 C5 1_555 1_555
H8 C5 1_555 1_555
C6 C5 1_555 1_555
H9 C6 1_555 1_555
H10 C6 1_555 1_555
C7 C6 1_555 1_555
C8 C7 1_555 1_555
H11 C8 1_555 1_555
C9 C8 1_555 1_555
H12 C9 1_555 1_555
C10 C1 1_555 1_555
C11 N1 1_555 1_555
C12 N2 1_555 1_555
C13 C3 1_555 1_555
C14 C13 1_555 1_555
H13 C14 1_555 1_555
C15 C14 1_555 1_555
H14 C15 1_555 1_555
C16 C15 1_555 1_555
H15 C16 1_555 1_555
C17 C16 1_555 1_555
H16 C17 1_555 1_555
C18 C13 1_555 1_555
H17 C18 1_555 1_555
S1 P1 1_555 1_555
O1 P1 1_555 1_555
C19 O1 1_555 1_555
H18 C19 1_555 1_555
C20 C19 1_555 1_555
H19 C20 1_555 1_555
C21 C20 1_555 1_555
H20 C21 1_555 1_555
H21 C21 1_555 1_555
C22 C21 1_555 1_555
H22 C22 1_555 1_555
H23 C22 1_555 1_555
C23 C22 1_555 1_555
H24 C23 1_555 1_555
C24 C19 1_555 1_555
H25 C24 1_555 1_555
H26 C24 1_555 1_555
C25 C20 1_555 1_555
H27 C25 1_555 1_555
C26 C25 1_555 1_555
H28 C26 1_555 1_555
H29 C26 1_555 1_555
H30 C26 1_555 1_555
C27 C25 1_555 1_555
H31 C27 1_555 1_555
H32 C27 1_555 1_555
H33 C27 1_555 1_555
C28 C23 1_555 1_555
H34 C28 1_555 1_555
H35 C28 1_555 1_555
H36 C28 1_555 1_555
C29 C4 1_555 1_555
C30 C29 1_555 1_555
H37 C30 1_555 1_555
C31 C30 1_555 1_555
H38 C31 1_555 1_555
C32 C31 1_555 1_555
H39 C32 1_555 1_555
C33 C32 1_555 1_555
H40 C33 1_555 1_555
C34 C29 1_555 1_555
H41 C34 1_555 1_555
C7 C12 1_555 1_555
C9 C10 1_555 1_555
C10 C11 1_555 1_555
C11 C12 1_555 1_555
C17 C18 1_555 1_555
C23 C24 1_555 1_555
C33 C34 1_555 1_555

#END
