
#######################################################################
#
#                 Cambridge Crystallographic Data Centre
#                                CCDC 
#
#######################################################################
#
# If this CIF has been generated from an entry in the Cambridge 
# Structural Database, then it will include bibliographic, chemical, 
# crystal, experimental, refinement or atomic coordinate data resulting 
# from the CCDC's data processing and validation procedures.
#
#######################################################################

data_HERJOE
_chemical_formula_moiety         'C16 H13 N3 O1,H2 O1'
_chemical_name_systematic        
'(6-Methylindolo(2,3-b)quinoxalin-3-yl)methanol monohydrate'
_symmetry_cell_setting           monoclinic
_symmetry_space_group_name_H-M   'P 21/n'
_symmetry_Int_Tables_number      14
_space_group_name_Hall           '-P 2yn'
loop_
_symmetry_equiv_pos_site_id
_symmetry_equiv_pos_as_xyz
1 x,y,z
2 1/2-x,1/2+y,1/2-z
3 -x,-y,-z
4 1/2+x,1/2-y,1/2+z
_cell_length_a                   4.5594(1)
_cell_length_b                   18.2286(5)
_cell_length_c                   16.7790(5)
_cell_angle_alpha                90
_cell_angle_beta                 90.077(1)
_cell_angle_gamma                90
_cell_volume                     1394.53
_exptl_crystal_colour            yellow
_exptl_crystal_description       needle
_cell_formula_units_Z            4
_exptl_crystal_recrystallization_method methanol/dichloromethane/hexane
loop_
_atom_site_label
_atom_site_type_symbol
_atom_site_fract_x
_atom_site_fract_y
_atom_site_fract_z
O1 O 0.9832(2) 0.73145(6) 1.05735(6)
H1 H 0.807(5) 0.7268(10) 1.0868(12)
C1 C 0.4425(3) 0.76796(7) 0.80993(8)
H2 H 0.3975 0.7984 0.7656
C2 C 0.6367(3) 0.79156(8) 0.86580(8)
H3 H 0.7235 0.8387 0.8603
C3 C 0.7122(3) 0.74733(7) 0.93201(8)
C4 C 0.5872(3) 0.67935(7) 0.93970(8)
H4 H 0.6407 0.6491 0.9835
C5 C 0.3801(3) 0.65333(7) 0.88374(8)
N1 N 0.2551(2) 0.58572(6) 0.89545(6)
C6 C 0.0653(3) 0.56783(7) 0.84036(8)
N2 N -0.0946(3) 0.50418(6) 0.83730(7)
C7 C -0.2666(3) 0.50527(8) 0.76854(8)
C8 C -0.4589(3) 0.45178(8) 0.74067(9)
H5 H -0.4915 0.4077 0.7695
C9 C -0.6003(3) 0.46556(8) 0.66938(10)
H6 H -0.7333 0.4301 0.6490
C10 C -0.5540(3) 0.52996(9) 0.62641(10)
H7 H -0.6535 0.5373 0.5773
C11 C -0.3654(3) 0.58316(8) 0.65452(9)
H8 H -0.3351 0.6273 0.6255
C12 C -0.2203(3) 0.57087(7) 0.72626(8)
C13 C -0.0093(3) 0.61202(7) 0.77208(8)
N3 N 0.1082(2) 0.67686(6) 0.76055(7)
C14 C 0.3070(3) 0.69856(7) 0.81722(8)
C15 C 0.9246(3) 0.77830(8) 0.99235(9)
H9 H 1.1118 0.7895 0.9651
H10 H 0.8445 0.8251 1.0130
C16 C -0.0829(4) 0.44577(9) 0.89590(10)
H11 H 0.0868 0.4532 0.9309
H12 H -0.0647 0.3984 0.8687
H13 H -0.2630 0.4462 0.9277
O2 O -0.0051(2) 0.78324(6) 0.64270(6)
H14 H 0.012(4) 0.7454(11) 0.6804(12)
H15 H -0.169(5) 0.7746(10) 0.6132(12)
loop_
_geom_bond_atom_site_label_1
_geom_bond_atom_site_label_2
_geom_bond_site_symmetry_1
_geom_bond_site_symmetry_2
O1 H1 1_555 1_555
C1 H2 1_555 1_555
C2 C1 1_555 1_555
H3 C2 1_555 1_555
C3 C2 1_555 1_555
C4 C3 1_555 1_555
H4 C4 1_555 1_555
C5 C4 1_555 1_555
N1 C5 1_555 1_555
C6 N1 1_555 1_555
N2 C6 1_555 1_555
C7 N2 1_555 1_555
C8 C7 1_555 1_555
H5 C8 1_555 1_555
C9 C8 1_555 1_555
H6 C9 1_555 1_555
C10 C9 1_555 1_555
H7 C10 1_555 1_555
C11 C10 1_555 1_555
H8 C11 1_555 1_555
C12 C7 1_555 1_555
C13 C6 1_555 1_555
N3 C13 1_555 1_555
C14 C1 1_555 1_555
C15 O1 1_555 1_555
H9 C15 1_555 1_555
H10 C15 1_555 1_555
C16 N2 1_555 1_555
H11 C16 1_555 1_555
H12 C16 1_555 1_555
H13 C16 1_555 1_555
O2 H14 1_555 1_555
H15 O2 1_555 1_555
C3 C15 1_555 1_555
C5 C14 1_555 1_555
C11 C12 1_555 1_555
C12 C13 1_555 1_555
N3 C14 1_555 1_555

#END
