
#######################################################################
#
#                 Cambridge Crystallographic Data Centre
#                                CCDC 
#
#######################################################################
#
# If this CIF has been generated from an entry in the Cambridge 
# Structural Database, then it will include bibliographic, chemical, 
# crystal, experimental, refinement or atomic coordinate data resulting 
# from the CCDC's data processing and validation procedures.
#
#######################################################################

data_HERJAQ
_chemical_formula_moiety         'C18 H20 N2 S1'
_chemical_name_systematic        
3,6-Diazahexacyclo(14.2.1.1^3,6^.0^2,15^.0^4,13^.0^5,10^)icosa-4,10,12-triene-20-thione
_symmetry_cell_setting           triclinic
_symmetry_space_group_name_H-M   'P -1'
_symmetry_Int_Tables_number      2
_space_group_name_Hall           '-P 1'
loop_
_symmetry_equiv_pos_site_id
_symmetry_equiv_pos_as_xyz
1 x,y,z
2 -x,-y,-z
_cell_length_a                   9.0670(5)
_cell_length_b                   9.5590(6)
_cell_length_c                   10.3151(6)
_cell_angle_alpha                63.723(1)
_cell_angle_beta                 65.662(1)
_cell_angle_gamma                76.558(1)
_cell_volume                     729.029
_exptl_crystal_colour            yellow
_exptl_crystal_description       prism
_chemical_melting_point          156-158deg.C
_cell_formula_units_Z            2
_exptl_crystal_recrystallization_method methanol
loop_
_atom_site_label
_atom_site_type_symbol
_atom_site_fract_x
_atom_site_fract_y
_atom_site_fract_z
N1 N 0.14580(14) 0.30615(14) 0.31234(14)
C1 C 0.24459(17) 0.15953(16) 0.32937(17)
H1 H 0.1776 0.0729 0.4114
C2 C 0.39721(18) 0.15594(18) 0.36871(18)
H2 H 0.3937 0.0596 0.4603
C3 C 0.4217(2) 0.2880(2) 0.4044(2)
H3 H 0.4030 0.2482 0.5139
H4 H 0.5339 0.3153 0.3484
C4 C 0.31427(18) 0.43434(19) 0.36384(17)
C5 C 0.3186(2) 0.5773(2) 0.36891(19)
H5 H 0.3989 0.5891 0.3967
C6 C 0.2071(2) 0.7025(2) 0.33392(19)
H6 H 0.2154 0.7946 0.3397
C7 C 0.08397(19) 0.69464(18) 0.29061(17)
C8 C -0.0436(2) 0.81730(19) 0.2456(2)
H7 H 0.0012 0.9193 0.1885
H8 H -0.1338 0.8193 0.3378
C9 C -0.1033(3) 0.7812(2) 0.1454(2)
H9 H -0.1943 0.8540 0.1282
H10 H -0.0173 0.8000 0.0455
C10 C -0.1559(2) 0.6152(2) 0.2112(2)
H11 H -0.2552 0.6002 0.3007
H12 H -0.1761 0.5981 0.1342
N2 N -0.02664(15) 0.50487(14) 0.25546(14)
C11 C 0.08101(17) 0.55229(17) 0.28868(16)
C12 C 0.18963(17) 0.42876(16) 0.32331(16)
C13 C 0.00882(17) 0.35209(17) 0.27324(17)
C14 C 0.32126(18) 0.12927(16) 0.17987(18)
H13 H 0.2476 0.0888 0.1585
C15 C 0.4061(2) 0.2728(2) 0.04708(18)
H14 H 0.3356 0.3668 0.0436
H15 H 0.4408 0.2632 -0.0512
C16 C 0.5532(2) 0.2749(2) 0.08521(19)
H16 H 0.6543 0.2696 0.0027
H17 H 0.5474 0.3683 0.1023
C17 C 0.53765(18) 0.12837(18) 0.23337(19)
H18 H 0.6395 0.0878 0.2529
C18 C 0.4656(2) 0.01695(19) 0.2084(2)
H19 H 0.4333 -0.0787 0.2994
H20 H 0.5364 -0.0070 0.1193
S1 S -0.09587(5) 0.24307(6) 0.25594(6)
loop_
_geom_bond_atom_site_label_1
_geom_bond_atom_site_label_2
_geom_bond_site_symmetry_1
_geom_bond_site_symmetry_2
N1 C1 1_555 1_555
C1 H1 1_555 1_555
C2 C1 1_555 1_555
H2 C2 1_555 1_555
C3 C2 1_555 1_555
H3 C3 1_555 1_555
H4 C3 1_555 1_555
C4 C3 1_555 1_555
C5 C4 1_555 1_555
H5 C5 1_555 1_555
C6 C5 1_555 1_555
H6 C6 1_555 1_555
C7 C6 1_555 1_555
C8 C7 1_555 1_555
H7 C8 1_555 1_555
H8 C8 1_555 1_555
C9 C8 1_555 1_555
H9 C9 1_555 1_555
H10 C9 1_555 1_555
C10 C9 1_555 1_555
H11 C10 1_555 1_555
H12 C10 1_555 1_555
N2 C10 1_555 1_555
C11 C7 1_555 1_555
C12 N1 1_555 1_555
C13 N1 1_555 1_555
C14 C1 1_555 1_555
H13 C14 1_555 1_555
C15 C14 1_555 1_555
H14 C15 1_555 1_555
H15 C15 1_555 1_555
C16 C15 1_555 1_555
H16 C16 1_555 1_555
H17 C16 1_555 1_555
C17 C2 1_555 1_555
H18 C17 1_555 1_555
C18 C14 1_555 1_555
H19 C18 1_555 1_555
H20 C18 1_555 1_555
S1 C13 1_555 1_555
C4 C12 1_555 1_555
N2 C11 1_555 1_555
N2 C13 1_555 1_555
C11 C12 1_555 1_555
C16 C17 1_555 1_555
C17 C18 1_555 1_555

#END
