
#######################################################################
#
#                 Cambridge Crystallographic Data Centre
#                                CCDC 
#
#######################################################################
#
# If this CIF has been generated from an entry in the Cambridge 
# Structural Database, then it will include bibliographic, chemical, 
# crystal, experimental, refinement or atomic coordinate data resulting 
# from the CCDC's data processing and validation procedures.
#
#######################################################################

data_HERLOG
_chemical_formula_moiety         'C15 H17 N1 O5'
_chemical_name_systematic        
(6R,1'R)-6-Ethoxycarbonyl-4-(1'-phenylethyl)morpholine-2,3-dione
_symmetry_cell_setting           monoclinic
_symmetry_space_group_name_H-M   'P 21'
_symmetry_Int_Tables_number      4
_space_group_name_Hall           'P 2yb'
loop_
_symmetry_equiv_pos_site_id
_symmetry_equiv_pos_as_xyz
1 x,y,z
2 -x,1/2+y,-z
_cell_length_a                   7.307(11)
_cell_length_b                   10.066(12)
_cell_length_c                   10.482(13)
_cell_angle_alpha                90
_cell_angle_beta                 98.97(6)
_cell_angle_gamma                90
_cell_volume                     761.546
_cell_formula_units_Z            2
loop_
_atom_site_label
_atom_site_type_symbol
_atom_site_fract_x
_atom_site_fract_y
_atom_site_fract_z
C1 C 1.1957(2) 1.00594(15) 0.24967(14)
C2 C 0.93216(17) 1.06776(13) 0.35605(12)
C3 C 1.21226(19) 1.19825(14) 0.41024(14)
C4 C 1.2413(2) 1.09286(15) 0.14075(13)
C5 C 1.21756(19) 1.08542(15) 0.62395(13)
C6 C 0.85182(18) 1.16141(14) 0.44927(14)
C7 C 1.16227(18) 1.20831(15) 0.54381(14)
C8 C 1.4189(2) 1.13237(17) 0.13027(15)
C9 C 1.6802(3) 1.0094(2) 0.7812(2)
C10 C 1.4808(3) 0.9775(2) 0.7421(2)
C11 C 1.3568(3) 0.92613(18) 0.3211(2)
C12 C 1.0996(3) 1.1352(2) 0.04631(19)
C13 C 1.3078(4) 1.2570(2) -0.06031(19)
C14 C 1.1340(4) 1.2170(3) -0.05288(19)
C15 C 1.4512(3) 1.2152(2) 0.03019(18)
O1 O 0.83021(13) 0.98348(11) 0.29985(11)
O2 O 0.96646(14) 1.23015(11) 0.53741(10)
O3 O 0.68818(15) 1.17470(13) 0.44364(12)
O4 O 1.11371(16) 0.99923(13) 0.64577(11)
O5 O 1.39866(14) 1.08852(11) 0.66358(11)
N1 N 1.10927(14) 1.08749(11) 0.34190(11)
H1 H 1.321(3) 0.871(3) 0.395(2)
H2 H 1.176(2) 1.281(2) 0.3659(17)
H3 H 1.221(2) 1.2817(16) 0.5914(15)
H4 H 1.341(2) 1.1790(16) 0.4172(14)
H5 H 1.099(3) 0.9486(19) 0.2129(16)
H6 H 1.466(3) 0.988(2) 0.3623(18)
H7 H 1.746(3) 1.020(2) 0.700(2)
H8 H 1.745(4) 0.927(3) 0.839(3)
H9 H 1.694(3) 1.091(3) 0.823(2)
H10 H 1.516(3) 1.101(2) 0.190(2)
H11 H 0.978(3) 1.120(2) 0.056(2)
H12 H 1.401(3) 0.869(3) 0.260(2)
H13 H 1.456(3) 0.906(2) 0.688(2)
H14 H 1.591(4) 1.242(3) 0.026(2)
H15 H 1.416(4) 0.966(3) 0.815(3)
H16 H 1.016(4) 1.244(3) -0.112(3)
H17 H 1.331(4) 1.314(3) -0.132(3)
loop_
_geom_bond_atom_site_label_1
_geom_bond_atom_site_label_2
_geom_bond_site_symmetry_1
_geom_bond_site_symmetry_2
C1 C4 1_555 1_555
C2 C6 1_555 1_555
C3 C7 1_555 1_555
C4 C8 1_555 1_555
C5 C7 1_555 1_555
C6 O2 1_555 1_555
C7 O2 1_555 1_555
C8 C15 1_555 1_555
C9 C10 1_555 1_555
C10 O5 1_555 1_555
C11 C1 1_555 1_555
C12 C4 1_555 1_555
C13 C14 1_555 1_555
C14 C12 1_555 1_555
C15 C13 1_555 1_555
O1 C2 1_555 1_555
O3 C6 1_555 1_555
O4 C5 1_555 1_555
O5 C5 1_555 1_555
N1 C1 1_555 1_555
H1 C11 1_555 1_555
H2 C3 1_555 1_555
H3 C7 1_555 1_555
H4 C3 1_555 1_555
H5 C1 1_555 1_555
H6 C11 1_555 1_555
H7 C9 1_555 1_555
H8 C9 1_555 1_555
H9 C9 1_555 1_555
H10 C8 1_555 1_555
H11 C12 1_555 1_555
H12 C11 1_555 1_555
H13 C10 1_555 1_555
H14 C15 1_555 1_555
H15 C10 1_555 1_555
H16 C14 1_555 1_555
H17 C13 1_555 1_555
C2 N1 1_555 1_555
C3 N1 1_555 1_555

#END
