
#######################################################################
#
#                 Cambridge Crystallographic Data Centre
#                                CCDC 
#
#######################################################################
#
# If this CIF has been generated from an entry in the Cambridge 
# Structural Database, then it will include bibliographic, chemical, 
# crystal, experimental, refinement or atomic coordinate data resulting 
# from the CCDC's data processing and validation procedures.
#
#######################################################################

data_HERLUL
_chemical_formula_moiety         'C36 H26 F2 O2 P2'
_chemical_name_systematic        
"(RS)-(6,6'-Difluorobiphenyl-2,2'-diyl)bis(diphenylphosphine oxide)"
_symmetry_cell_setting           monoclinic
_symmetry_space_group_name_H-M   'C 2/c'
_symmetry_Int_Tables_number      15
_space_group_name_Hall           '-C 2yn'
loop_
_symmetry_equiv_pos_site_id
_symmetry_equiv_pos_as_xyz
1 x,y,z
2 1/2+x,1/2+y,z
3 -x,y,1/2-z
4 1/2-x,1/2+y,1/2-z
5 -x,-y,-z
6 1/2-x,1/2-y,-z
7 x,-y,1/2+z
8 1/2+x,1/2-y,1/2+z
_cell_length_a                   26.570(4)
_cell_length_b                   12.840(4)
_cell_length_c                   20.296(3)
_cell_angle_alpha                90
_cell_angle_beta                 120.043(9)
_cell_angle_gamma                90
_cell_volume                     5993.9
_exptl_crystal_colour            colorless
_chemical_melting_point          280-282deg.C
_cell_formula_units_Z            8
loop_
_atom_site_label
_atom_site_type_symbol
_atom_site_fract_x
_atom_site_fract_y
_atom_site_fract_z
C1 C 0.09880(14) 0.2678(3) 0.2341(2)
C2 C 0.07934(14) 0.3715(3) 0.2185(2)
C3 C 0.01975(15) 0.3926(3) 0.1777(2)
C4 C -0.0207(2) 0.3134(3) 0.1516(2)
C5 C -0.0023(2) 0.2111(3) 0.1662(2)
C6 C 0.0564(2) 0.1919(3) 0.2069(2)
C7 C 0.16152(15) 0.2348(3) 0.2786(2)
C8 C 0.19635(15) 0.2175(3) 0.2459(2)
C9 C 0.2535(2) 0.1827(3) 0.2916(2)
C10 C 0.2760(2) 0.1652(3) 0.3684(2)
C11 C 0.2427(2) 0.1822(3) 0.4020(2)
C12 C 0.1863(2) 0.2158(3) 0.3559(2)
C13 C 0.09798(14) 0.5788(3) 0.1783(2)
C14 C 0.0719(2) 0.5494(3) 0.1021(2)
C15 C 0.0496(2) 0.6245(4) 0.0454(2)
C16 C 0.0533(2) 0.7286(4) 0.0641(3)
C17 C 0.0811(2) 0.7586(3) 0.1391(3)
C18 C 0.1030(2) 0.6845(3) 0.1965(2)
C19 C 0.1259(2) 0.5298(3) 0.3336(2)
C20 C 0.0786(2) 0.5865(3) 0.3257(2)
C21 C 0.0759(2) 0.6162(4) 0.3902(3)
C22 C 0.1202(2) 0.5886(4) 0.4614(3)
C23 C 0.1678(2) 0.5351(3) 0.4697(2)
C24 C 0.1711(2) 0.5052(3) 0.4056(2)
C25 C 0.1503(2) 0.1226(3) 0.0956(2)
C26 C 0.0986(2) 0.1174(4) 0.0261(3)
C27 C 0.0829(2) 0.0259(4) -0.0161(3)
C28 C 0.1189(2) -0.0597(4) 0.0104(3)
C29 C 0.1696(2) -0.0560(3) 0.0792(3)
C30 C 0.1851(2) 0.0348(3) 0.1217(2)
C31 C 0.23410(15) 0.2923(3) 0.1445(2)
C32 C 0.2563(2) 0.2460(3) 0.1024(2)
C33 C 0.3038(2) 0.2904(3) 0.1016(2)
C34 C 0.3283(2) 0.3809(3) 0.1416(2)
C35 C 0.3063(2) 0.4264(3) 0.1836(2)
C36 C 0.2593(2) 0.3834(3) 0.1851(2)
F1 F 0.07401(10) 0.0903(2) 0.22170(15)
F2 F 0.15313(10) 0.2319(2) 0.38873(12)
O1 O 0.19051(10) 0.4531(2) 0.27475(14)
O2 O 0.12039(10) 0.3196(2) 0.11118(13)
P1 P 0.13007(4) 0.48097(7) 0.25253(5)
P2 P 0.16970(4) 0.24474(8) 0.14538(5)
H1 H 0.00721(15) 0.4639(3) 0.1679(2)
H2 H -0.0614(2) 0.3298(3) 0.1244(2)
H3 H -0.0298(2) 0.1548(3) 0.1472(2)
H4 H 0.2773(2) 0.1710(3) 0.2691(2)
H5 H 0.3152(2) 0.1409(3) 0.3993(2)
H6 H 0.2579(2) 0.1700(3) 0.4552(2)
H7 H 0.0692(2) 0.4769(3) 0.0892(2)
H8 H 0.0323(2) 0.6041(4) -0.0069(2)
H9 H 0.0372(2) 0.7795(4) 0.0242(3)
H10 H 0.0833(2) 0.8316(3) 0.1506(3)
H11 H 0.1225(2) 0.7054(3) 0.2489(2)
H12 H 0.0486(2) 0.6069(3) 0.2759(2)
H13 H 0.0429(2) 0.6534(4) 0.3854(3)
H14 H 0.1184(2) 0.6077(4) 0.5058(3)
H15 H 0.1990(2) 0.5181(3) 0.5195(2)
H16 H 0.2039(2) 0.4674(3) 0.4103(2)
H17 H 0.0737(2) 0.1774(4) 0.0088(3)
H18 H 0.0474(2) 0.0228(4) -0.0640(3)
H19 H 0.1084(2) -0.1226(4) -0.0191(3)
H20 H 0.1940(2) -0.1164(3) 0.0975(3)
H21 H 0.2202(2) 0.0376(3) 0.1701(2)
H22 H 0.2384(2) 0.1840(3) 0.0739(2)
H23 H 0.3200(2) 0.2581(3) 0.0737(2)
H24 H 0.3605(2) 0.4123(3) 0.1401(2)
H25 H 0.3239(2) 0.4886(3) 0.2122(2)
H26 H 0.2439(2) 0.4150(3) 0.2140(2)
loop_
_geom_bond_atom_site_label_1
_geom_bond_atom_site_label_2
_geom_bond_site_symmetry_1
_geom_bond_site_symmetry_2
C1 C2 1_555 1_555
C2 C3 1_555 1_555
C3 C4 1_555 1_555
C4 C5 1_555 1_555
C5 C6 1_555 1_555
C6 C1 1_555 1_555
C7 C1 1_555 1_555
C8 C7 1_555 1_555
C9 C8 1_555 1_555
C10 C9 1_555 1_555
C11 C10 1_555 1_555
C12 C7 1_555 1_555
C13 C14 1_555 1_555
C14 C15 1_555 1_555
C15 C16 1_555 1_555
C16 C17 1_555 1_555
C17 C18 1_555 1_555
C18 C13 1_555 1_555
C19 C20 1_555 1_555
C20 C21 1_555 1_555
C21 C22 1_555 1_555
C22 C23 1_555 1_555
C23 C24 1_555 1_555
C24 C19 1_555 1_555
C25 C26 1_555 1_555
C26 C27 1_555 1_555
C27 C28 1_555 1_555
C28 C29 1_555 1_555
C29 C30 1_555 1_555
C30 C25 1_555 1_555
C31 C32 1_555 1_555
C32 C33 1_555 1_555
C33 C34 1_555 1_555
C34 C35 1_555 1_555
C35 C36 1_555 1_555
C36 C31 1_555 1_555
F1 C6 1_555 1_555
F2 C12 1_555 1_555
O1 P1 1_555 1_555
O2 P2 1_555 1_555
P1 C2 1_555 1_555
P2 C8 1_555 1_555
H1 C3 1_555 1_555
H2 C4 1_555 1_555
H3 C5 1_555 1_555
H4 C9 1_555 1_555
H5 C10 1_555 1_555
H6 C11 1_555 1_555
H7 C14 1_555 1_555
H8 C15 1_555 1_555
H9 C16 1_555 1_555
H10 C17 1_555 1_555
H11 C18 1_555 1_555
H12 C20 1_555 1_555
H13 C21 1_555 1_555
H14 C22 1_555 1_555
H15 C23 1_555 1_555
H16 C24 1_555 1_555
H17 C26 1_555 1_555
H18 C27 1_555 1_555
H19 C28 1_555 1_555
H20 C29 1_555 1_555
H21 C30 1_555 1_555
H22 C32 1_555 1_555
H23 C33 1_555 1_555
H24 C34 1_555 1_555
H25 C35 1_555 1_555
H26 C36 1_555 1_555
C11 C12 1_555 1_555
C13 P1 1_555 1_555
C19 P1 1_555 1_555
C25 P2 1_555 1_555
C31 P2 1_555 1_555

#END
