
#######################################################################
#
#                 Cambridge Crystallographic Data Centre
#                                CCDC 
#
#######################################################################
#
# If this CIF has been generated from an entry in the Cambridge 
# Structural Database, then it will include bibliographic, chemical, 
# crystal, experimental, refinement or atomic coordinate data resulting 
# from the CCDC's data processing and validation procedures.
#
#######################################################################

data_HERNEX
_chemical_formula_moiety         'C75 H18 Si2,2(C7 H8)'
_chemical_name_systematic        
'61,61-bis(Trimethylsilylbutadiynyl)-1,2-dihydro-1,2-methanoC60fullerene toluene solvate'
_symmetry_cell_setting           triclinic
_symmetry_space_group_name_H-M   'P -1'
_symmetry_Int_Tables_number      2
_space_group_name_Hall           '-P 1'
loop_
_symmetry_equiv_pos_site_id
_symmetry_equiv_pos_as_xyz
1 x,y,z
2 -x,-y,-z
_cell_length_a                   12.580(1)
_cell_length_b                   13.547(2)
_cell_length_c                   17.984(2)
_cell_angle_alpha                109.08(1)
_cell_angle_beta                 90.37(1)
_cell_angle_gamma                109.16(1)
_cell_volume                     2713.73
_exptl_crystal_colour            brown
_cell_formula_units_Z            2
loop_
_atom_site_label
_atom_site_type_symbol
_atom_site_fract_x
_atom_site_fract_y
_atom_site_fract_z
C1 C 0.3108(1) -0.5035(1) 0.4764(1)
C2 C 0.1820(1) -0.5176(1) 0.4812(1)
C3 C 0.1293(2) -0.4790(2) 0.4275(1)
C4 C 0.1906(2) -0.4239(2) 0.3808(1)
C5 C 0.3105(2) -0.4111(1) 0.3760(1)
C6 C 0.3651(2) -0.4530(1) 0.4181(1)
C7 C 0.4386(2) -0.5113(2) 0.3805(1)
C8 C 0.4226(2) -0.6044(2) 0.4071(1)
C9 C 0.3395(2) -0.6057(2) 0.4617(1)
C10 C 0.2610(2) -0.7057(2) 0.4595(1)
C11 C 0.1407(2) -0.7188(2) 0.4644(1)
C12 C 0.1033(2) -0.6317(2) 0.4711(1)
C13 C 0.0007(2) -0.6516(2) 0.4237(1)
C14 C 0.0158(2) -0.5584(2) 0.3975(1)
C15 C -0.0345(2) -0.5759(2) 0.3229(1)
C16 C 0.0285(2) -0.5167(2) 0.2746(1)
C17 C 0.1388(2) -0.4430(2) 0.3028(1)
C18 C 0.2255(2) -0.4413(2) 0.2502(1)
C19 C 0.3312(2) -0.4217(2) 0.2952(1)
C20 C 0.4051(2) -0.4741(2) 0.2598(1)
C21 C 0.4601(2) -0.5201(2) 0.3031(1)
C22 C 0.4663(2) -0.6240(2) 0.2487(1)
C23 C 0.4510(2) -0.7129(2) 0.2740(1)
C24 C 0.4293(2) -0.7037(2) 0.3550(1)
C25 C 0.3492(2) -0.8083(2) 0.3538(1)
C26 C 0.2661(2) -0.8094(2) 0.4046(1)
C27 C 0.1510(2) -0.8861(2) 0.3760(1)
C28 C 0.0741(2) -0.8308(2) 0.4125(1)
C29 C -0.0276(2) -0.8506(2) 0.3689(1)
C30 C -0.0650(2) -0.7590(2) 0.3745(1)
C31 C -0.1175(2) -0.7770(2) 0.2967(1)
C32 C -0.1025(2) -0.6878(2) 0.2717(1)
C33 C -0.0806(2) -0.6975(2) 0.1906(1)
C34 C -0.0004(2) -0.5920(2) 0.1927(1)
C35 C 0.0833(2) -0.5896(2) 0.1422(1)
C36 C 0.1982(2) -0.5125(2) 0.1715(1)
C37 C 0.2753(2) -0.5682(2) 0.1347(1)
C38 C 0.3766(2) -0.5497(2) 0.1776(1)
C39 C 0.4145(2) -0.6414(2) 0.1710(1)
C40 C 0.3494(2) -0.7491(2) 0.1220(1)
C41 C 0.3332(2) -0.8427(2) 0.1482(1)
C42 C 0.3829(2) -0.8253(2) 0.2231(1)
C43 C 0.3202(2) -0.8838(2) 0.2723(1)
C44 C 0.2092(2) -0.9577(2) 0.2447(1)
C45 C 0.1238(2) -0.9592(2) 0.2975(1)
C46 C 0.0178(2) -0.9791(2) 0.2525(1)
C47 C -0.0562(2) -0.9263(2) 0.2870(1)
C48 C -0.1121(2) -0.8806(2) 0.2428(1)
C49 C -0.0915(2) -0.8901(2) 0.1649(1)
C50 C -0.0756(2) -0.7966(2) 0.1388(1)
C51 C 0.0117(2) -0.7946(2) 0.0862(1)
C52 C 0.0891(2) -0.6928(2) 0.0879(1)
C53 C 0.2077(2) -0.6799(2) 0.0834(1)
C54 C 0.2439(2) -0.7685(2) 0.0769(1)
C55 C 0.1630(2) -0.8742(2) 0.0753(1)
C56 C 0.2181(2) -0.9200(2) 0.1198(1)
C57 C 0.1579(2) -0.9761(2) 0.1670(1)
C58 C 0.0388(2) -0.9891(2) 0.1714(1)
C59 C -0.0140(2) -0.9456(2) 0.1288(1)
C60 C 0.0490(2) -0.8866(2) 0.0799(1)
Si1 Si 0.2223(1) -0.5970(1) 0.8921(1)
Si2 Si 0.3424(1) 0.1210(1) 0.6183(1)
C61 C 0.2729(1) -0.4407(2) 0.5530(1)
C62 C 0.2693(2) -0.4791(2) 0.6191(1)
C63 C 0.2581(2) -0.5130(2) 0.6736(1)
C64 C 0.2452(2) -0.5462(2) 0.7383(1)
C65 C 0.2332(2) -0.5720(2) 0.7969(1)
C66 C 0.1303(3) -0.5227(2) 0.9474(2)
C67 C 0.3695(2) -0.5398(3) 0.9424(2)
C68 C 0.1567(2) -0.7499(2) 0.8701(1)
C69 C 0.3012(2) -0.3226(2) 0.5717(1)
C70 C 0.3191(2) -0.2255(2) 0.5824(1)
C71 C 0.3319(2) -0.1166(2) 0.5949(1)
C72 C 0.3374(2) -0.0219(2) 0.6054(1)
C73 C 0.4424(2) 0.1703(2) 0.5519(2)
C74 C 0.1968(2) 0.1134(2) 0.5896(2)
C75 C 0.3913(2) 0.2083(2) 0.7249(1)
H1 H 0.1657 -0.4441 0.9584
H2 H 0.0579 -0.5493 0.9161
H3 H 0.1200 -0.5365 0.9964
H4 H 0.3996 -0.4609 0.9530
H5 H 0.3707 -0.5537 0.9914
H6 H 0.4148 -0.5751 0.9084
H7 H 0.2057 -0.7861 0.8415
H8 H 0.1465 -0.7649 0.9187
H9 H 0.0845 -0.7778 0.8384
H10 H 0.4143 0.1229 0.4978
H11 H 0.4494 0.2453 0.5581
H12 H 0.5154 0.1683 0.5656
H13 H 0.1728 0.0685 0.5346
H14 H 0.1449 0.0813 0.6214
H15 H 0.1979 0.1875 0.5980
H16 H 0.4660 0.2108 0.7394
H17 H 0.3927 0.2825 0.7335
H18 H 0.3396 0.1764 0.7568
C76 C 0.0725 0.8027 0.4015
C77 C 0.1485(2) 0.8101(2) 0.3380(2)
C78 C 0.2651(2) 0.8649(2) 0.3575(2)
C79 C 0.3354(2) 0.8718(2) 0.2986(2)
C80 C 0.2905(3) 0.8229(2) 0.2196(2)
C81 C 0.1750(3) 0.7680(2) 0.1994(2)
C82 C 0.1045(2) 0.7620(2) 0.2582(2)
H19 H 0.1173 0.8405 0.4526
H20 H 0.0180 0.8371 0.3976
H21 H 0.0336 0.7258 0.3948
H22 H 0.2972 0.8997 0.4123
H23 H 0.4158 0.9096 0.3128
H24 H 0.3391 0.8268 0.1789
H25 H 0.1429 0.7336 0.1446
H26 H 0.0242 0.7243 0.2434
C83 C 0.4047(3) 1.0029(5) 0.8327(3)
C84 C 0.3764(3) 0.9268(4) 0.8840(2)
C85 C 0.3658(2) 0.8204(4) 0.8476(2)
C86 C 0.3436(3) 0.7452(3) 0.8914(3)
C87 C 0.3297(3) 0.7835(3) 0.9685(3)
C88 C 0.3360(3) 0.8890(3) 1.0047(2)
C89 C 0.3622(2) 0.9653(3) 0.9606(2)
H27 H 0.4106 0.9605 0.7795
H28 H 0.3457 1.0331 0.8320
H29 H 0.4756 1.0627 0.8554
H30 H 0.3735 0.7948 0.7922
H31 H 0.3392 0.6695 0.8656
H32 H 0.3130 0.7322 0.9968
H33 H 0.3250 0.9142 1.0596
H34 H 0.3704 1.0423 0.9852
loop_
_geom_bond_atom_site_label_1
_geom_bond_atom_site_label_2
_geom_bond_site_symmetry_1
_geom_bond_site_symmetry_2
C1 C2 1_555 1_555
C2 C3 1_555 1_555
C3 C4 1_555 1_555
C4 C5 1_555 1_555
C5 C6 1_555 1_555
C6 C1 1_555 1_555
C7 C6 1_555 1_555
C8 C7 1_555 1_555
C9 C1 1_555 1_555
C10 C9 1_555 1_555
C11 C10 1_555 1_555
C12 C2 1_555 1_555
C13 C12 1_555 1_555
C14 C3 1_555 1_555
C15 C14 1_555 1_555
C16 C15 1_555 1_555
C17 C4 1_555 1_555
C18 C17 1_555 1_555
C19 C5 1_555 1_555
C20 C19 1_555 1_555
C21 C7 1_555 1_555
C22 C21 1_555 1_555
C23 C22 1_555 1_555
C24 C8 1_555 1_555
C25 C24 1_555 1_555
C26 C10 1_555 1_555
C27 C26 1_555 1_555
C28 C11 1_555 1_555
C29 C28 1_555 1_555
C30 C13 1_555 1_555
C31 C30 1_555 1_555
C32 C15 1_555 1_555
C33 C32 1_555 1_555
C34 C16 1_555 1_555
C35 C34 1_555 1_555
C36 C18 1_555 1_555
C37 C36 1_555 1_555
C38 C20 1_555 1_555
C39 C22 1_555 1_555
C40 C39 1_555 1_555
C41 C40 1_555 1_555
C42 C23 1_555 1_555
C43 C25 1_555 1_555
C44 C43 1_555 1_555
C45 C27 1_555 1_555
C46 C45 1_555 1_555
C47 C29 1_555 1_555
C48 C31 1_555 1_555
C49 C48 1_555 1_555
C50 C33 1_555 1_555
C51 C50 1_555 1_555
C52 C35 1_555 1_555
C53 C37 1_555 1_555
C54 C40 1_555 1_555
C55 C54 1_555 1_555
C56 C41 1_555 1_555
C57 C44 1_555 1_555
C58 C46 1_555 1_555
C59 C49 1_555 1_555
C60 C51 1_555 1_555
Si1 C65 1_555 1_555
Si2 C72 1_555 1_555
C61 C1 1_555 1_555
C62 C61 1_555 1_555
C63 C62 1_555 1_555
C64 C63 1_555 1_555
C65 C64 1_555 1_555
C66 Si1 1_555 1_555
C67 Si1 1_555 1_555
C68 Si1 1_555 1_555
C69 C61 1_555 1_555
C70 C69 1_555 1_555
C71 C70 1_555 1_555
C72 C71 1_555 1_555
C73 Si2 1_555 1_555
C74 Si2 1_555 1_555
C75 Si2 1_555 1_555
C76 C77 1_555 1_555
C77 C78 1_555 1_555
C78 C79 1_555 1_555
C79 C80 1_555 1_555
C80 C81 1_555 1_555
C81 C82 1_555 1_555
C82 C77 1_555 1_555
C83 C84 1_555 1_555
C84 C85 1_555 1_555
C85 C86 1_555 1_555
C86 C87 1_555 1_555
C87 C88 1_555 1_555
C88 C89 1_555 1_555
C89 C84 1_555 1_555
H1 C66 1_555 1_555
H2 C66 1_555 1_555
H3 C66 1_555 1_555
H4 C67 1_555 1_555
H5 C67 1_555 1_555
H6 C67 1_555 1_555
H7 C68 1_555 1_555
H8 C68 1_555 1_555
H9 C68 1_555 1_555
H10 C73 1_555 1_555
H11 C73 1_555 1_555
H12 C73 1_555 1_555
H13 C74 1_555 1_555
H14 C74 1_555 1_555
H15 C74 1_555 1_555
H16 C75 1_555 1_555
H17 C75 1_555 1_555
H18 C75 1_555 1_555
H19 C76 1_555 1_555
H20 C76 1_555 1_555
H21 C76 1_555 1_555
H22 C78 1_555 1_555
H23 C79 1_555 1_555
H24 C80 1_555 1_555
H25 C81 1_555 1_555
H26 C82 1_555 1_555
H27 C83 1_555 1_555
H28 C83 1_555 1_555
H29 C83 1_555 1_555
H30 C85 1_555 1_555
H31 C86 1_555 1_555
H32 C87 1_555 1_555
H33 C88 1_555 1_555
H34 C89 1_555 1_555
C2 C61 1_555 1_555
C8 C9 1_555 1_555
C11 C12 1_555 1_555
C13 C14 1_555 1_555
C16 C17 1_555 1_555
C18 C19 1_555 1_555
C20 C21 1_555 1_555
C23 C24 1_555 1_555
C25 C26 1_555 1_555
C27 C28 1_555 1_555
C29 C30 1_555 1_555
C31 C32 1_555 1_555
C33 C34 1_555 1_555
C35 C36 1_555 1_555
C37 C38 1_555 1_555
C38 C39 1_555 1_555
C41 C42 1_555 1_555
C42 C43 1_555 1_555
C44 C45 1_555 1_555
C46 C47 1_555 1_555
C47 C48 1_555 1_555
C49 C50 1_555 1_555
C51 C52 1_555 1_555
C52 C53 1_555 1_555
C53 C54 1_555 1_555
C55 C56 1_555 1_555
C55 C60 1_555 1_555
C56 C57 1_555 1_555
C57 C58 1_555 1_555
C58 C59 1_555 1_555
C59 C60 1_555 1_555

#END
