
#######################################################################
#
#                 Cambridge Crystallographic Data Centre
#                                CCDC 
#
#######################################################################
#
# If this CIF has been generated from an entry in the Cambridge 
# Structural Database, then it will include bibliographic, chemical, 
# crystal, experimental, refinement or atomic coordinate data resulting 
# from the CCDC's data processing and validation procedures.
#
#######################################################################

data_HERRUU
_chemical_formula_moiety         'C21 H15 F1 O1'
_chemical_name_systematic        
1-fluoro-3-methyl[1,1'-binaphthalen]-2(1H)-one
_symmetry_cell_setting           orthorhombic
_symmetry_space_group_name_H-M   'P 21 21 21'
_symmetry_Int_Tables_number      19
_space_group_name_Hall           'P 2ac 2ab'
loop_
_symmetry_equiv_pos_site_id
_symmetry_equiv_pos_as_xyz
1 x,y,z
2 1/2-x,-y,1/2+z
3 1/2+x,1/2-y,-z
4 -x,1/2+y,1/2-z
_cell_length_a                   9.00767(17)
_cell_length_b                   10.4168(2)
_cell_length_c                   15.8409(3)
_cell_angle_alpha                90
_cell_angle_beta                 90
_cell_angle_gamma                90
_cell_volume                     1486.37
_exptl_crystal_colour            colorless
_exptl_crystal_description       block
_cell_formula_units_Z            4
loop_
_atom_site_label
_atom_site_type_symbol
_atom_site_fract_x
_atom_site_fract_y
_atom_site_fract_z
F1 F 0.08876(9) 0.38048(8) 0.75339(5)
O1 O 0.25162(11) 0.25457(11) 0.62820(9)
C1 C 0.02248(15) 0.50617(13) 0.40215(8)
H1 H -0.0416 0.4629 0.3659
C2 C 0.01722(15) 0.16418(13) 0.60126(8)
C3 C -0.13003(15) 0.18532(13) 0.60250(9)
H2 H -0.1914 0.1199 0.5830
C4 C -0.35514(16) 0.31740(15) 0.62951(9)
H3 H -0.4135 0.2513 0.6082
C5 C -0.42230(16) 0.42845(14) 0.65826(9)
H4 H -0.5251 0.4364 0.6562
C6 C 0.20251(16) 0.67185(14) 0.42425(9)
H5 H 0.2622 0.7372 0.4031
C7 C 0.13152(13) 0.50923(12) 0.63150(8)
C8 C 0.02721(14) 0.47305(13) 0.48578(8)
H6 H -0.0314 0.4057 0.5051
C9 C -0.33700(16) 0.52788(15) 0.69011(9)
H7 H -0.3822 0.6021 0.7101
C10 C 0.12001(13) 0.53966(12) 0.54350(8)
C11 C -0.11512(14) 0.40484(13) 0.66330(8)
C12 C -0.20078(15) 0.30297(13) 0.63204(8)
C13 C -0.18299(16) 0.51589(14) 0.69192(8)
H8 H -0.1253 0.5830 0.7125
C14 C 0.21571(15) 0.58514(13) 0.68362(9)
H9 H 0.2204 0.5662 0.7409
C15 C 0.20616(14) 0.64395(13) 0.51165(9)
C16 C 0.11743(15) 0.26647(13) 0.62937(9)
C17 C 0.05231(14) 0.39232(13) 0.66669(8)
C18 C 0.11319(15) 0.60473(14) 0.37036(9)
H10 H 0.1124 0.6241 0.3130
C19 C 0.08574(17) 0.03912(14) 0.57397(9)
H11 H 0.1308 -0.0020 0.6218
H12 H 0.1599 0.0553 0.5318
H13 H 0.0102 -0.0157 0.5509
C20 C 0.29342(17) 0.71826(13) 0.56785(10)
H14 H 0.3499 0.7860 0.5471
C21 C 0.29528(16) 0.69144(14) 0.65185(10)
H15 H 0.3492 0.7433 0.6885
loop_
_geom_bond_atom_site_label_1
_geom_bond_atom_site_label_2
_geom_bond_site_symmetry_1
_geom_bond_site_symmetry_2
F1 C17 1_555 1_555
O1 C16 1_555 1_555
C1 H1 1_555 1_555
C2 C3 1_555 1_555
C3 H2 1_555 1_555
C4 H3 1_555 1_555
C5 C4 1_555 1_555
H4 C5 1_555 1_555
C6 H5 1_555 1_555
C7 C10 1_555 1_555
C8 C1 1_555 1_555
H6 C8 1_555 1_555
C9 C5 1_555 1_555
H7 C9 1_555 1_555
C10 C8 1_555 1_555
C11 C12 1_555 1_555
C12 C3 1_555 1_555
C13 C9 1_555 1_555
H8 C13 1_555 1_555
C14 C7 1_555 1_555
H9 C14 1_555 1_555
C15 C6 1_555 1_555
C16 C2 1_555 1_555
C17 C7 1_555 1_555
C18 C1 1_555 1_555
H10 C18 1_555 1_555
C19 C2 1_555 1_555
H11 C19 1_555 1_555
H12 C19 1_555 1_555
H13 C19 1_555 1_555
C20 C15 1_555 1_555
H14 C20 1_555 1_555
C21 C14 1_555 1_555
H15 C21 1_555 1_555
C4 C12 1_555 1_555
C6 C18 1_555 1_555
C10 C15 1_555 1_555
C11 C13 1_555 1_555
C11 C17 1_555 1_555
C16 C17 1_555 1_555
C20 C21 1_555 1_555

#END
