
#######################################################################
#
#                 Cambridge Crystallographic Data Centre
#                                CCDC 
#
#######################################################################
#
# If this CIF has been generated from an entry in the Cambridge 
# Structural Database, then it will include bibliographic, chemical, 
# crystal, experimental, refinement or atomic coordinate data resulting 
# from the CCDC's data processing and validation procedures.
#
#######################################################################

data_HERSUS
_chemical_formula_moiety         'C13 H12 F4 N2'
_chemical_name_systematic        
4-(Cyclohexylamino)-2,3,5,6-tetrafluorobenzonitrile
_symmetry_cell_setting           monoclinic
_symmetry_space_group_name_H-M   'P 21/c'
_symmetry_Int_Tables_number      14
_space_group_name_Hall           '-P 2ybc'
loop_
_symmetry_equiv_pos_site_id
_symmetry_equiv_pos_as_xyz
1 x,y,z
2 -x,1/2+y,1/2-z
3 -x,-y,-z
4 x,1/2-y,1/2+z
_cell_length_a                   6.1894(8)
_cell_length_b                   20.8863(6)
_cell_length_c                   9.6015(12)
_cell_angle_alpha                90
_cell_angle_beta                 94.626(7)
_cell_angle_gamma                90
_cell_volume                     1237.18
_exptl_crystal_colour            white
_cell_formula_units_Z            4
loop_
_atom_site_label
_atom_site_type_symbol
_atom_site_fract_x
_atom_site_fract_y
_atom_site_fract_z
F1 F 0.20835(21) 0.83118(6) 0.89938(15)
F2 F -0.02422(21) 0.91831(5) 1.01588(15)
F3 F -0.46843(24) 0.75405(6) 1.17727(17)
F4 F -0.2277(3) 0.66718(6) 1.05564(20)
N1 N 0.2305(4) 0.66692(9) 0.84757(23)
N2 N -0.3914(3) 0.88066(8) 1.16566(18)
C1 C -0.0027(3) 0.74652(9) 0.97245(21)
C2 C 0.0393(3) 0.81148(10) 0.96798(20)
C3 C -0.0809(3) 0.85653(9) 1.02908(19)
C4 C -0.2598(3) 0.83951(9) 1.10341(20)
C5 C -0.2995(3) 0.77365(10) 1.10744(22)
C6 C -0.1791(4) 0.72907(10) 1.04550(24)
C7 C 0.1261(4) 0.70171(10) 0.90423(24)
C8 C -0.3586(3) 0.94953(9) 1.18737(19)
C9 C -0.5742(3) 0.98112(10) 1.21056(22)
C10 C -0.5448(3) 1.05331(10) 1.22771(24)
C11 C -0.3771(4) 1.06938(10) 1.34533(23)
C12 C -0.1632(4) 1.03608(10) 1.32673(21)
C13 C -0.1928(3) 0.96392(10) 1.30860(22)
H1 H -0.491(4) 0.8611(11) 1.2132(23)
H2 H -0.301 0.970 1.094
H3 H -0.689 0.970 1.123
H4 H -0.631 0.961 1.305
H5 H -0.697 1.074 1.250
H6 H -0.499 1.074 1.131
H7 H -0.433 1.055 1.445
H8 H -0.349 1.120 1.347
H9 H -0.096 1.056 1.235
H10 H -0.052 1.046 1.417
H11 H -0.249 0.944 1.402
H12 H -0.041 0.942 1.289
loop_
_geom_bond_atom_site_label_1
_geom_bond_atom_site_label_2
_geom_bond_site_symmetry_1
_geom_bond_site_symmetry_2
F1 C2 1_555 1_555
F2 C3 1_555 1_555
F3 C5 1_555 1_555
F4 C6 1_555 1_555
N1 C7 1_555 1_555
N2 C4 1_555 1_555
C1 C2 1_555 1_555
C2 C3 1_555 1_555
C3 C4 1_555 1_555
C4 C5 1_555 1_555
C5 C6 1_555 1_555
C6 C1 1_555 1_555
C7 C1 1_555 1_555
C8 N2 1_555 1_555
C9 C8 1_555 1_555
C10 C9 1_555 1_555
C11 C10 1_555 1_555
C12 C11 1_555 1_555
C13 C8 1_555 1_555
H1 N2 1_555 1_555
H2 C8 1_555 1_555
H3 C9 1_555 1_555
H4 C9 1_555 1_555
H5 C10 1_555 1_555
H6 C10 1_555 1_555
H7 C11 1_555 1_555
H8 C11 1_555 1_555
H9 C12 1_555 1_555
H10 C12 1_555 1_555
H11 C13 1_555 1_555
H12 C13 1_555 1_555
C12 C13 1_555 1_555

#END
