
#######################################################################
#
#                 Cambridge Crystallographic Data Centre
#                                CCDC 
#
#######################################################################
#
# If this CIF has been generated from an entry in the Cambridge 
# Structural Database, then it will include bibliographic, chemical, 
# crystal, experimental, refinement or atomic coordinate data resulting 
# from the CCDC's data processing and validation procedures.
#
#######################################################################

data_HERTED
_chemical_formula_moiety         'C22 H21 Cl2 N1 O1 Te1'
_chemical_name_systematic        
((2-Benzylideneamino-5-methyl)phenyl)-dichloro-(4-ethoxyphenyl)-tellurium(iv)
_symmetry_cell_setting           monoclinic
_symmetry_space_group_name_H-M   'C 2/c'
_symmetry_Int_Tables_number      15
_space_group_name_Hall           '-C 2yn'
loop_
_symmetry_equiv_pos_site_id
_symmetry_equiv_pos_as_xyz
1 x,y,z
2 1/2+x,1/2+y,z
3 -x,y,1/2-z
4 1/2-x,1/2+y,1/2-z
5 -x,-y,-z
6 1/2-x,1/2-y,-z
7 x,-y,1/2+z
8 1/2+x,1/2-y,1/2+z
_cell_length_a                   24.337(2)
_cell_length_b                   7.689(1)
_cell_length_c                   24.257(2)
_cell_angle_alpha                90
_cell_angle_beta                 107.02(1)
_cell_angle_gamma                90
_cell_volume                     4340.34
_exptl_crystal_colour            'pale yellow'
_chemical_melting_point          212-213deg.C
_cell_formula_units_Z            8
loop_
_atom_site_label
_atom_site_type_symbol
_atom_site_fract_x
_atom_site_fract_y
_atom_site_fract_z
Te1 Te 0.13855(2) 0.18670(6) 0.11251(2)
Cl1 Cl 0.11482(9) -0.0966(3) 0.15410(9)
Cl2 Cl 0.16381(8) 0.4707(3) 0.07630(8)
O1 O 0.2221(3) 0.4877(8) 0.3619(2)
N1 N 0.0550(2) 0.2066(9) -0.0008(2)
C1 C 0.0215(3) 0.252(1) 0.0357(3)
C2 C -0.0365(3) 0.298(1) 0.0195(4)
C3 C -0.0633(3) 0.341(1) 0.0608(4)
C4 C -0.0331(3) 0.343(1) 0.1194(3)
C5 C 0.0245(3) 0.299(1) 0.1359(3)
C6 C 0.0509(3) 0.258(1) 0.0943(3)
C7 C 0.0328(3) 0.198(1) -0.0550(3)
C8 C 0.0675(3) 0.156(1) -0.0941(3)
C9 C 0.0397(4) 0.131(2) -0.1525(4)
C10 C 0.0724(5) 0.094(2) -0.1894(4)
C11 C 0.1288(4) 0.083(1) -0.1699(4)
C12 C 0.1570(4) 0.108(2) -0.1128(4)
C13 C 0.1264(4) 0.144(2) -0.0751(4)
C14 C 0.1674(3) 0.2886(9) 0.1976(3)
C15 C 0.2010(3) 0.184(1) 0.2410(3)
C16 C 0.2214(3) 0.248(1) 0.2970(3)
C17 C 0.2048(3) 0.414(1) 0.3083(3)
C18 C 0.1711(3) 0.518(1) 0.2647(3)
C19 C 0.1526(3) 0.457(1) 0.2092(3)
C20 C 0.2461(4) 0.376(1) 0.4107(3)
C21 C 0.2469(5) 0.483(2) 0.4632(4)
C22 C -0.0638(4) 0.387(2) 0.1634(4)
H1 H -0.0580 0.2993 -0.0209
H2 H -0.1113 0.3750 0.0410
H3 H 0.0429 0.2910 0.1816
H4 H -0.0078 0.2187 -0.0711
H5 H -0.0016 0.1376 -0.1671
H6 H 0.0566 0.1250 -0.2343
H7 H 0.1497 0.0570 -0.1970
H8 H 0.1987 0.0991 -0.0989
H9 H 0.1460 0.1614 -0.0345
H10 H 0.2070 0.0429 0.2343
H11 H 0.2500 0.1660 0.3339
H12 H 0.1523 0.6250 0.2773
H13 H 0.1386 0.5410 0.1796
H14 H 0.2910 0.3320 0.4160
H15 H 0.2207 0.2500 0.4023
H16 H 0.2656 0.5839 0.4589
H17 H 0.2670 0.4272 0.4984
H18 H 0.2089 0.5103 0.4644
H19 H -0.0429 0.3320 0.1933
H20 H -0.1022 0.3464 0.1534
H21 H -0.0633 0.5088 0.1718
loop_
_geom_bond_atom_site_label_1
_geom_bond_atom_site_label_2
_geom_bond_site_symmetry_1
_geom_bond_site_symmetry_2
Te1 Cl1 1_555 1_555
Cl2 Te1 1_555 1_555
O1 C17 1_555 1_555
N1 C1 1_555 1_555
C1 C2 1_555 1_555
C2 C3 1_555 1_555
C3 C4 1_555 1_555
C4 C5 1_555 1_555
C5 C6 1_555 1_555
C6 Te1 1_555 1_555
C7 N1 1_555 1_555
C8 C7 1_555 1_555
C9 C8 1_555 1_555
C10 C9 1_555 1_555
C11 C10 1_555 1_555
C12 C11 1_555 1_555
C13 C8 1_555 1_555
C14 Te1 1_555 1_555
C15 C14 1_555 1_555
C16 C15 1_555 1_555
C17 C16 1_555 1_555
C18 C17 1_555 1_555
C19 C14 1_555 1_555
C20 O1 1_555 1_555
C21 C20 1_555 1_555
C22 C4 1_555 1_555
H1 C2 1_555 1_555
H2 C3 1_555 1_555
H3 C5 1_555 1_555
H4 C7 1_555 1_555
H5 C9 1_555 1_555
H6 C10 1_555 1_555
H7 C11 1_555 1_555
H8 C12 1_555 1_555
H9 C13 1_555 1_555
H10 C15 1_555 1_555
H11 C16 1_555 1_555
H12 C18 1_555 1_555
H13 C19 1_555 1_555
H14 C20 1_555 1_555
H15 C20 1_555 1_555
H16 C21 1_555 1_555
H17 C21 1_555 1_555
H18 C21 1_555 1_555
H19 C22 1_555 1_555
H20 C22 1_555 1_555
H21 C22 1_555 1_555
C1 C6 1_555 1_555
C12 C13 1_555 1_555
C18 C19 1_555 1_555

#END
