
#######################################################################
#
#                 Cambridge Crystallographic Data Centre
#                                CCDC 
#
#######################################################################
#
# If this CIF has been generated from an entry in the Cambridge 
# Structural Database, then it will include bibliographic, chemical, 
# crystal, experimental, refinement or atomic coordinate data resulting 
# from the CCDC's data processing and validation procedures.
#
#######################################################################

data_HERXAG
_chemical_formula_moiety         'C24 H17 N3'
_chemical_name_systematic        2,3,6-triphenyl-5H-pyrrolo[2,3-b]pyrazine
_symmetry_cell_setting           triclinic
_symmetry_space_group_name_H-M   'P -1'
_symmetry_Int_Tables_number      2
_space_group_name_Hall           '-P 1'
loop_
_symmetry_equiv_pos_site_id
_symmetry_equiv_pos_as_xyz
1 x,y,z
2 -x,-y,-z
_cell_length_a                   11.2359(8)
_cell_length_b                   11.4378(11)
_cell_length_c                   14.9610(16)
_cell_angle_alpha                81.156(9)
_cell_angle_beta                 71.988(8)
_cell_angle_gamma                81.929(7)
_cell_volume                     1797.89
_exptl_crystal_colour            brown
_exptl_crystal_description       parallelepiped
_cell_formula_units_Z            4
loop_
_atom_site_label
_atom_site_type_symbol
_atom_site_fract_x
_atom_site_fract_y
_atom_site_fract_z
N1 N 0.51992(14) 0.81823(15) 0.52533(11)
H1 H 0.607(2) 0.803(2) 0.5162(17)
N2 N 0.44779(13) 0.76877(14) 0.69384(11)
N3 N 0.20590(13) 0.80244(15) 0.66528(11)
C1 C 0.46085(16) 0.84411(18) 0.45445(14)
C2 C 0.33273(17) 0.84272(19) 0.49394(14)
H2 H 0.2709 0.8584 0.4613
C3 C 0.31139(16) 0.81340(18) 0.59250(14)
C4 C 0.43013(16) 0.79798(17) 0.60974(14)
C5 C 0.34159(16) 0.75448(17) 0.76648(13)
C6 C 0.22121(16) 0.77227(17) 0.75242(13)
C7 C 0.53526(16) 0.87103(17) 0.35592(14)
C8 C 0.65148(17) 0.91647(17) 0.33296(14)
H3 H 0.6834 0.9295 0.3821
C9 C 0.72050(18) 0.94267(18) 0.23961(15)
H4 H 0.7995 0.9733 0.2251
C10 C 0.67564(18) 0.92470(19) 0.16721(15)
H5 H 0.7232 0.9431 0.1031
C11 C 0.56111(19) 0.8797(2) 0.18882(15)
H6 H 0.5300 0.8665 0.1393
C12 C 0.49130(18) 0.8537(2) 0.28211(15)
H7 H 0.4122 0.8236 0.2960
C13 C 0.36550(17) 0.71843(17) 0.86001(13)
C14 C 0.46188(17) 0.76825(19) 0.87660(14)
H8 H 0.5056 0.8266 0.8306
C15 C 0.49463(19) 0.7336(2) 0.95940(15)
H9 H 0.5604 0.7683 0.9700
C16 C 0.4320(2) 0.6488(2) 1.02658(16)
H10 H 0.4544 0.6251 1.0834
C17 C 0.3369(2) 0.5984(2) 1.01107(16)
H11 H 0.2938 0.5398 1.0573
C18 C 0.30385(19) 0.63275(18) 0.92817(15)
H12 H 0.2383 0.5973 0.9180
C19 C 0.10167(16) 0.76133(18) 0.83070(13)
C20 C 0.07264(17) 0.82266(19) 0.90928(14)
H13 H 0.1311 0.8717 0.9146
C21 C -0.04030(18) 0.8131(2) 0.97972(15)
H14 H -0.0592 0.8558 1.0329
C22 C -0.12578(19) 0.7417(2) 0.97286(16)
H15 H -0.2032 0.7347 1.0215
C23 C -0.0983(2) 0.6808(2) 0.89532(17)
H16 H -0.1571 0.6317 0.8906
C24 C 0.01452(18) 0.69050(19) 0.82397(15)
H17 H 0.0323 0.6487 0.7704
N4 N 0.97545(15) 0.86821(15) 0.61108(12)
H18 H 1.045(2) 0.856(2) 0.6299(15)
N5 N 1.04345(14) 0.74159(15) 0.48683(11)
N6 N 0.78343(14) 0.76086(15) 0.50248(11)
C25 C 0.85844(17) 0.91512(18) 0.66396(14)
C26 C 0.76585(17) 0.88770(18) 0.63070(14)
H19 H 0.6783 0.9112 0.6531
C27 C 0.82715(17) 0.81727(18) 0.55627(14)
C28 C 0.95701(16) 0.80636(18) 0.54622(13)
C29 C 0.99937(17) 0.68229(17) 0.43446(13)
C30 C 0.86913(17) 0.69249(17) 0.44203(14)
C31 C 0.84558(17) 0.98294(18) 0.74228(14)
C32 C 0.73625(19) 0.9829(2) 0.81820(16)
H20 H 0.6716 0.9367 0.8193
C33 C 0.7200(2) 1.0485(2) 0.89181(17)
H21 H 0.6444 1.0476 0.9428
C34 C 0.8126(2) 1.1151(2) 0.89155(18)
H22 H 0.8011 1.1615 0.9416
C35 C 0.9225(2) 1.1139(2) 0.81786(18)
H23 H 0.9876 1.1585 0.8182
C36 C 0.9396(2) 1.0489(2) 0.74342(16)
H24 H 1.0158 1.0494 0.6930
C37 C 1.09943(17) 0.60519(18) 0.37224(14)
C38 C 1.22018(18) 0.6427(2) 0.33773(15)
H25 H 1.2344 0.7177 0.3501
C39 C 1.31913(19) 0.5713(2) 0.28561(16)
H26 H 1.4009 0.5975 0.2630
C40 C 1.3005(2) 0.4631(2) 0.26617(15)
H27 H 1.3688 0.4146 0.2303
C41 C 1.1815(2) 0.4254(2) 0.29912(15)
H28 H 1.1679 0.3510 0.2851
C42 C 1.08136(19) 0.49530(18) 0.35262(14)
H29 H 1.0002 0.4678 0.3759
C43 C 0.81095(17) 0.62928(18) 0.38830(14)
C44 C 0.8492(2) 0.6384(2) 0.29016(15)
H30 H 0.9195 0.6804 0.2552
C45 C 0.7859(2) 0.5867(2) 0.24268(18)
H31 H 0.8125 0.5941 0.1755
C46 C 0.6847(2) 0.5248(2) 0.2924(2)
H32 H 0.6404 0.4906 0.2598
C47 C 0.6480(2) 0.5126(2) 0.3895(2)
H33 H 0.5795 0.4681 0.4241
C48 C 0.71017(18) 0.5649(2) 0.43756(17)
H34 H 0.6835 0.5564 0.5048
loop_
_geom_bond_atom_site_label_1
_geom_bond_atom_site_label_2
_geom_bond_site_symmetry_1
_geom_bond_site_symmetry_2
N1 H1 1_555 1_555
N2 C4 1_555 1_555
N3 C3 1_555 1_555
C1 N1 1_555 1_555
C2 C1 1_555 1_555
H2 C2 1_555 1_555
C3 C2 1_555 1_555
C4 N1 1_555 1_555
C5 N2 1_555 1_555
C6 N3 1_555 1_555
C7 C1 1_555 1_555
C8 C7 1_555 1_555
H3 C8 1_555 1_555
C9 C8 1_555 1_555
H4 C9 1_555 1_555
C10 C9 1_555 1_555
H5 C10 1_555 1_555
C11 C10 1_555 1_555
H6 C11 1_555 1_555
C12 C7 1_555 1_555
H7 C12 1_555 1_555
C13 C5 1_555 1_555
C14 C13 1_555 1_555
H8 C14 1_555 1_555
C15 C14 1_555 1_555
H9 C15 1_555 1_555
C16 C15 1_555 1_555
H10 C16 1_555 1_555
C17 C16 1_555 1_555
H11 C17 1_555 1_555
C18 C13 1_555 1_555
H12 C18 1_555 1_555
C19 C6 1_555 1_555
C20 C19 1_555 1_555
H13 C20 1_555 1_555
C21 C20 1_555 1_555
H14 C21 1_555 1_555
C22 C21 1_555 1_555
H15 C22 1_555 1_555
C23 C22 1_555 1_555
H16 C23 1_555 1_555
C24 C19 1_555 1_555
H17 C24 1_555 1_555
N4 H18 1_555 1_555
N5 C28 1_555 1_555
N6 C27 1_555 1_555
C25 N4 1_555 1_555
C26 C25 1_555 1_555
H19 C26 1_555 1_555
C27 C26 1_555 1_555
C28 N4 1_555 1_555
C29 N5 1_555 1_555
C30 N6 1_555 1_555
C31 C25 1_555 1_555
C32 C31 1_555 1_555
H20 C32 1_555 1_555
C33 C32 1_555 1_555
H21 C33 1_555 1_555
C34 C33 1_555 1_555
H22 C34 1_555 1_555
C35 C34 1_555 1_555
H23 C35 1_555 1_555
C36 C31 1_555 1_555
H24 C36 1_555 1_555
C37 C29 1_555 1_555
C38 C37 1_555 1_555
H25 C38 1_555 1_555
C39 C38 1_555 1_555
H26 C39 1_555 1_555
C40 C39 1_555 1_555
H27 C40 1_555 1_555
C41 C40 1_555 1_555
H28 C41 1_555 1_555
C42 C37 1_555 1_555
H29 C42 1_555 1_555
C43 C30 1_555 1_555
C44 C43 1_555 1_555
H30 C44 1_555 1_555
C45 C44 1_555 1_555
H31 C45 1_555 1_555
C46 C45 1_555 1_555
H32 C46 1_555 1_555
C47 C46 1_555 1_555
H33 C47 1_555 1_555
C48 C43 1_555 1_555
H34 C48 1_555 1_555
C3 C4 1_555 1_555
C5 C6 1_555 1_555
C11 C12 1_555 1_555
C17 C18 1_555 1_555
C23 C24 1_555 1_555
C27 C28 1_555 1_555
C29 C30 1_555 1_555
C35 C36 1_555 1_555
C41 C42 1_555 1_555
C47 C48 1_555 1_555

#END
