
#######################################################################
#
#                 Cambridge Crystallographic Data Centre
#                                CCDC 
#
#######################################################################
#
# If this CIF has been generated from an entry in the Cambridge 
# Structural Database, then it will include bibliographic, chemical, 
# crystal, experimental, refinement or atomic coordinate data resulting 
# from the CCDC's data processing and validation procedures.
#
#######################################################################

data_HESBIR
_chemical_formula_moiety         'C23 H20 N3 1+,I1 1-,2.5(H2 O1)'
_chemical_name_systematic        
'(E)-4-((2-(1H-Benzimidazol-2-yl)vinyl)styryl)-N-methylpyridinium iodide hydrate'
_symmetry_cell_setting           triclinic
_symmetry_space_group_name_H-M   'P -1'
_symmetry_Int_Tables_number      2
_space_group_name_Hall           '-P 1'
loop_
_symmetry_equiv_pos_site_id
_symmetry_equiv_pos_as_xyz
1 x,y,z
2 -x,-y,-z
_cell_length_a                   9.7066(18)
_cell_length_b                   13.588(3)
_cell_length_c                   18.244(3)
_cell_angle_alpha                75.821(3)
_cell_angle_beta                 79.282(3)
_cell_angle_gamma                77.691(4)
_cell_volume                     2256.49
_exptl_crystal_colour            orange-red
_exptl_crystal_description       polyhedral
_chemical_melting_point          295.8deg.C(dec.)
_cell_formula_units_Z            4
_exptl_crystal_recrystallization_method ethanol
loop_
_atom_site_label
_atom_site_type_symbol
_atom_site_fract_x
_atom_site_fract_y
_atom_site_fract_z
N1 N 1.4651(9) 0.2088(7) 0.8188(5)
N2 N 0.1892(10) 0.6104(6) 1.2399(5)
N3 N 0.1970(9) 0.7322(6) 1.1314(4)
H1 H 0.2277 0.7627 1.0860
C1 C 1.5997(10) 0.1547(8) 0.7823(6)
H3 H 1.6376 0.0958 0.8186
H4 H 1.6672 0.2008 0.7652
H5 H 1.5813 0.1327 0.7395
C2 C 1.4146(14) 0.1703(8) 0.8888(9)
H6 H 1.4643 0.1097 0.9153
C3 C 1.2907(16) 0.2168(12) 0.9240(6)
H7 H 1.2581 0.1879 0.9743
C4 C 1.2129(10) 0.3051(11) 0.8872(9)
C5 C 1.2725(12) 0.3420(8) 0.8109(7)
H8 H 1.2252 0.4016 0.7822
C6 C 1.3949(11) 0.2933(8) 0.7792(6)
H9 H 1.4311 0.3190 0.7289
C7 C 0.8652(10) 0.4522(10) 0.9682(8)
C8 C 0.7918(13) 0.4067(8) 1.0410(8)
H10 H 0.8319 0.3415 1.0659
C9 C 0.6652(11) 0.4551(8) 1.0757(6)
H11 H 0.6223 0.4218 1.1224
C10 C 0.6009(9) 0.5538(7) 1.0410(6)
C11 C 0.6677(10) 0.5977(7) 0.9709(6)
H12 H 0.6251 0.6622 0.9460
C12 C 0.7959(11) 0.5506(9) 0.9353(6)
H13 H 0.8366 0.5853 0.8885
C13 C 0.4673(8) 0.6082(6) 1.0749(5)
H14 H 0.4313 0.6715 1.0456
C14 C 0.3912(9) 0.5793(7) 1.1414(5)
H15 H 0.4251 0.5158 1.1712
C15 C 0.2590(9) 0.6375(7) 1.1724(6)
C16 C 0.0714(12) 0.6894(8) 1.2463(6)
C17 C -0.0341(12) 0.6986(9) 1.3082(6)
H16 H -0.0338 0.6490 1.3535
C18 C -0.1395(14) 0.7850(11) 1.2994(7)
H17 H -0.2135 0.7932 1.3391
C19 C -0.1367(11) 0.8575(10) 1.2343(8)
H18 H -0.2101 0.9143 1.2319
C20 C -0.0325(12) 0.8554(7) 1.1690(6)
H19 H -0.0347 0.9064 1.1245
C21 C 0.0744(11) 0.7682(9) 1.1788(6)
C41 C 1.0860(13) 0.3332(11) 0.9396(7)
H35 H 1.0701 0.2916 0.9880
C42 C 0.9940(17) 0.4171(14) 0.9187(8)
H36 H 1.0116 0.4565 0.8696
N4 N 1.0030(9) 0.0336(6) 0.3801(4)
N5 N 0.1426(9) 0.7520(7) 0.7729(5)
H2 H 0.2274 0.7593 0.7754
N6 N -0.0283(14) 0.6968(7) 0.7399(5)
C22 C 1.0934(10) -0.0401(7) 0.3376(5)
H20 H 1.1914 -0.0349 0.3349
H21 H 1.0690 -0.0252 0.2869
H22 H 1.0793 -0.1087 0.3630
C23 C 1.0587(11) 0.0936(8) 0.4095(6)
H23 H 1.1571 0.0890 0.4021
C24 C 0.9775(14) 0.1608(8) 0.4497(6)
H24 H 1.0230 0.2014 0.4682
C25 C 0.8310(19) 0.1737(10) 0.4653(8)
C26 C 0.7801(13) 0.1094(12) 0.4334(7)
H25 H 0.6818 0.1132 0.4405
C27 C 0.8600(12) 0.0406(9) 0.3923(6)
H26 H 0.8170 -0.0007 0.3730
C28 C 0.5837(17) 0.3617(9) 0.5652(6)
C29 C 0.6269(12) 0.4209(9) 0.6022(6)
H27 H 0.7239 0.4112 0.6046
C30 C 0.5400(14) 0.4940(9) 0.6364(5)
H28 H 0.5776 0.5330 0.6606
C31 C 0.3920(15) 0.5104(8) 0.6349(6)
C32 C 0.3430(13) 0.4532(10) 0.5947(7)
H29 H 0.2466 0.4651 0.5903
C33 C 0.4351(18) 0.3793(9) 0.5615(6)
H30 H 0.3999 0.3404 0.5362
C34 C 0.1097(18) 0.6854(9) 0.7339(7)
C35 C 0.0220(11) 0.8033(7) 0.8059(5)
C36 C -0.0072(11) 0.8754(7) 0.8519(5)
H31 H 0.0644 0.8994 0.8663
C37 C -0.1502(15) 0.9086(7) 0.8747(5)
H32 H -0.1769 0.9554 0.9066
C38 C -0.2549(11) 0.8728(10) 0.8505(7)
H33 H -0.3500 0.8984 0.8656
C39 C -0.2247(17) 0.8033(9) 0.8065(7)
H34 H -0.2970 0.7807 0.7916
C40 C -0.0840(13) 0.7662(9) 0.7838(6)
C45 C 0.7785(16) 0.2561(13) 0.5070(11)
H39 H 0.8400 0.2898 0.5211
C46 C 0.6400(16) 0.2800(15) 0.5236(13)
H40 H 0.5796 0.2456 0.5092
C47 C 0.3183(15) 0.5863(15) 0.6798(10)
H41 H 0.3700 0.6165 0.7036
C48 C 0.1792(15) 0.6120(12) 0.6867(9)
H42 H 0.1263 0.5839 0.6619
I1 I 0.31708(7) 0.90341(5) 0.95950(4)
I2 I 0.50871(8) 1.00654(7) 0.64280(5)
O1 O 0.7115(17) 0.8194(12) 0.4942(7)
O2 O 0.5970(14) 0.7482(9) 0.6199(10)
O3 O 0.9430(11) 0.5983(8) 0.5199(5)
O4 O 0.8265(8) 0.5912(5) 0.6731(4)
O5 O 0.4060(8) 0.7958(7) 0.7910(5)
C43? C 1.083(2) 0.3815(19) 0.8929(13)
H37? H 1.0618 0.4330 0.8504
C44? C 0.996(2) 0.379(2) 0.9573(14)
H38? H 1.0190 0.3258 0.9987
C49? C 0.6981(17) 0.2261(17) 0.5002(15)
H43? H 0.6106 0.2086 0.5001
C50? C 0.7106(17) 0.300(2) 0.5319(19)
H44? H 0.8004 0.3128 0.5332
C51? C 0.261(2) 0.578(2) 0.6565(18)
H45? H 0.1811 0.5807 0.6343
C52? C 0.2513(18) 0.635(2) 0.7063(17)
H46? H 0.3319 0.6425 0.7235
loop_
_geom_bond_atom_site_label_1
_geom_bond_atom_site_label_2
_geom_bond_site_symmetry_1
_geom_bond_site_symmetry_2
N1 C1 1_555 1_555
N2 C15 1_555 1_555
N3 H1 1_555 1_555
N4 C22 1_555 1_555
N5 H2 1_555 1_555
N6 C34 1_555 1_555
C1 H3 1_555 1_555
H4 C1 1_555 1_555
H5 C1 1_555 1_555
C2 N1 1_555 1_555
H6 C2 1_555 1_555
C3 C2 1_555 1_555
H7 C3 1_555 1_555
C4 C3 1_555 1_555
C5 C4 1_555 1_555
H8 C5 1_555 1_555
C6 N1 1_555 1_555
H9 C6 1_555 1_555
C7 C8 1_555 1_555
C8 H10 1_555 1_555
C9 C8 1_555 1_555
H11 C9 1_555 1_555
C10 C9 1_555 1_555
C11 C10 1_555 1_555
H12 C11 1_555 1_555
C12 C7 1_555 1_555
H13 C12 1_555 1_555
C13 C10 1_555 1_555
H14 C13 1_555 1_555
C14 C13 1_555 1_555
H15 C14 1_555 1_555
C15 N3 1_555 1_555
C16 N2 1_555 1_555
C17 C16 1_555 1_555
H16 C17 1_555 1_555
C18 C17 1_555 1_555
H17 C18 1_555 1_555
C19 C18 1_555 1_555
H18 C19 1_555 1_555
C20 C19 1_555 1_555
H19 C20 1_555 1_555
C21 N3 1_555 1_555
C22 H20 1_555 1_555
H21 C22 1_555 1_555
H22 C22 1_555 1_555
C23 N4 1_555 1_555
H23 C23 1_555 1_555
C24 C23 1_555 1_555
H24 C24 1_555 1_555
C25 C24 1_555 1_555
C26 C25 1_555 1_555
H25 C26 1_555 1_555
C27 N4 1_555 1_555
H26 C27 1_555 1_555
C28 C29 1_555 1_555
C29 H27 1_555 1_555
C30 C29 1_555 1_555
H28 C30 1_555 1_555
C31 C30 1_555 1_555
C32 C31 1_555 1_555
H29 C32 1_555 1_555
C33 C28 1_555 1_555
H30 C33 1_555 1_555
C34 N5 1_555 1_555
C35 N5 1_555 1_555
C36 C35 1_555 1_555
H31 C36 1_555 1_555
C37 C36 1_555 1_555
H32 C37 1_555 1_555
C38 C37 1_555 1_555
H33 C38 1_555 1_555
C39 C38 1_555 1_555
H34 C39 1_555 1_555
C40 N6 1_555 1_555
C41 C4 1_555 1_555
H35 C41 1_555 1_555
C42 C7 1_555 1_555
H36 C42 1_555 1_555
C45 C25 1_555 1_555
H39 C45 1_555 1_555
C46 C28 1_555 1_555
H40 C46 1_555 1_555
C47 C31 1_555 1_555
H41 C47 1_555 1_555
C48 C34 1_555 1_555
H42 C48 1_555 1_555
C5 C6 1_555 1_555
C11 C12 1_555 1_555
C14 C15 1_555 1_555
C16 C21 1_555 1_555
C20 C21 1_555 1_555
C26 C27 1_555 1_555
C32 C33 1_555 1_555
C35 C40 1_555 1_555
C39 C40 1_555 1_555
C41 C42 1_555 1_555
C45 C46 1_555 1_555
C47 C48 1_555 1_555

#END
