
#######################################################################
#
#                 Cambridge Crystallographic Data Centre
#                                CCDC 
#
#######################################################################
#
# If this CIF has been generated from an entry in the Cambridge 
# Structural Database, then it will include bibliographic, chemical, 
# crystal, experimental, refinement or atomic coordinate data resulting 
# from the CCDC's data processing and validation procedures.
#
#######################################################################

data_HESBEN
_chemical_formula_moiety         'C48 H64 Br2 N2 O6'
_chemical_name_systematic        
5,17-bis(N-t-Butylhydroxyamine)-11,23-dibromo-25,26,27,28-tetrapropoxycalix(4)arene
_symmetry_cell_setting           monoclinic
_symmetry_space_group_name_H-M   'P 21/c'
_symmetry_Int_Tables_number      14
_space_group_name_Hall           '-P 2ybc'
loop_
_symmetry_equiv_pos_site_id
_symmetry_equiv_pos_as_xyz
1 x,y,z
2 -x,1/2+y,1/2-z
3 -x,-y,-z
4 x,1/2-y,1/2+z
_cell_length_a                   13.935(3)
_cell_length_b                   20.589(3)
_cell_length_c                   17.349(4)
_cell_angle_alpha                90
_cell_angle_beta                 99.09(2)
_cell_angle_gamma                90
_cell_volume                     4915.05
_exptl_crystal_colour            colorless
_exptl_crystal_description       plate
_cell_formula_units_Z            4
_exptl_crystal_recrystallization_method chloroform/methanol
loop_
_atom_site_label
_atom_site_type_symbol
_atom_site_fract_x
_atom_site_fract_y
_atom_site_fract_z
Br1 Br 0.60577(7) 0.06446(4) 0.67954(5)
Br2 Br 0.62906(7) 0.69711(4) 0.83019(5)
O1 O 0.8546(3) 0.3032(2) 0.7368(2)
O2 O 0.8542(3) 0.40696(19) 0.5937(2)
O3 O 0.4552(3) 0.33184(19) 0.6848(3)
H1 H 0.4656 0.3276 0.7324
O4 O 0.8696(4) 0.4615(2) 0.7905(3)
O5 O 0.9063(3) 0.35379(19) 0.9335(2)
O6 O 0.4766(3) 0.43311(19) 0.8204(2)
H2 H 0.4693 0.4363 0.7727
N1 N 0.4747(4) 0.3989(2) 0.6643(3)
N2 N 0.5023(4) 0.3664(2) 0.8432(3)
C1 C 0.8064(5) 0.2391(3) 0.8697(3)
H3 H 0.7914 0.2070 0.9069
H4 H 0.8761 0.2460 0.8785
C2 C 0.7751(5) 0.2139(3) 0.7877(4)
C3 C 0.7964(4) 0.2491(3) 0.7236(4)
C4 C 0.7515(4) 0.2348(3) 0.6476(4)
C5 C 0.6956(5) 0.1795(3) 0.6351(4)
H5 H 0.6684 0.1678 0.5846
C6 C 0.6799(5) 0.1417(3) 0.6971(5)
C7 C 0.7168(5) 0.1591(3) 0.7733(4)
H6 H 0.7026 0.1341 0.8147
C8 C 0.7580(5) 0.2833(3) 0.5826(3)
H7 H 0.7266 0.2657 0.5331
H8 H 0.8255 0.2918 0.5788
C9 C 0.7079(5) 0.3461(3) 0.6005(3)
C10 C 0.7589(5) 0.4050(3) 0.6076(3)
C11 C 0.7194(5) 0.4607(3) 0.6357(3)
C12 C 0.6254(5) 0.4563(3) 0.6538(3)
H9 H 0.5984 0.4924 0.6744
C13 C 0.5709(5) 0.3999(3) 0.6421(3)
C14 C 0.6141(5) 0.3453(3) 0.6163(3)
H10 H 0.5787 0.3069 0.6094
C15 C 0.7770(5) 0.5233(3) 0.6523(4)
H11 H 0.8445 0.5154 0.6477
H12 H 0.7519 0.5558 0.6139
C16 C 0.7711(5) 0.5487(3) 0.7328(4)
C17 C 0.8121(5) 0.5142(3) 0.7993(4)
C18 C 0.7896(5) 0.5273(3) 0.8721(4)
C19 C 0.7327(5) 0.5814(3) 0.8804(4)
H13 H 0.7171 0.5917 0.9291
C20 C 0.6993(5) 0.6197(3) 0.8169(5)
C21 C 0.7145(5) 0.6030(3) 0.7434(4)
H14 H 0.6871 0.6277 0.7006
C22 C 0.8151(4) 0.4796(3) 0.9388(4)
H15 H 0.7975 0.4977 0.9862
H16 H 0.8845 0.4715 0.9475
C23 C 0.7600(5) 0.4162(3) 0.9183(3)
C24 C 0.8060(4) 0.3567(3) 0.9128(3)
C25 C 0.7557(5) 0.3021(3) 0.8827(3)
C26 C 0.6559(5) 0.3073(3) 0.8603(3)
H17 H 0.6212 0.2714 0.8386
C27 C 0.6059(5) 0.3650(3) 0.8694(3)
C28 C 0.6598(5) 0.4188(3) 0.8974(3)
H18 H 0.6279 0.4579 0.9023
C29 C 0.9569(6) 0.2965(5) 0.7324(9)
H19 H 0.9610 0.3016 0.6775
H20 H 0.9867 0.3351 0.7578
C30 C 1.0210(9) 0.2471(7) 0.7574(13)
H21 H 0.9983 0.2066 0.7322
H22 H 1.0260 0.2414 0.8134
C31 C 1.1190(6) 0.2650(7) 0.7366(7)
H23 H 1.1650 0.2312 0.7537
H24 H 1.1408 0.3051 0.7618
H25 H 1.1134 0.2701 0.6810
C32 C 0.8621(5) 0.4205(3) 0.5138(4)
H26 H 0.8532 0.4665 0.5032
H27 H 0.8127 0.3968 0.4792
C33 C 0.9628(6) 0.3993(4) 0.5007(5)
H28 H 1.0114 0.4229 0.5362
H29 H 0.9711 0.3534 0.5122
C34 C 0.9780(7) 0.4117(5) 0.4178(5)
H30 H 1.0417 0.3975 0.4112
H31 H 0.9716 0.4574 0.4068
H32 H 0.9301 0.3883 0.3826
C35 C 0.3921(5) 0.4184(4) 0.6023(4)
C36 C 0.3854(6) 0.3747(4) 0.5293(4)
H33 H 0.4439 0.3789 0.5070
H34 H 0.3307 0.3877 0.4917
H35 H 0.3775 0.3303 0.5439
C37 C 0.2995(5) 0.4134(4) 0.6385(5)
H36 H 0.3046 0.4413 0.6832
H37 H 0.2908 0.3693 0.6541
H38 H 0.2448 0.4264 0.6008
C38 C 0.4075(5) 0.4889(4) 0.5807(4)
H39 H 0.4101 0.5157 0.6262
H40 H 0.3547 0.5027 0.5417
H41 H 0.4675 0.4927 0.5604
C39 C 0.9685(7) 0.4776(5) 0.7746(8)
H42 H 0.9915 0.4420 0.7458
H43 H 0.9643 0.5158 0.7416
C40 C 1.0360(11) 0.4891(8) 0.8410(7)
H44 H 1.0447 0.4515 0.8750
H45 H 1.0183 0.5264 0.8700
C41 C 1.1273(9) 0.5027(7) 0.8029(8)
H46 H 1.1809 0.5136 0.8426
H47 H 1.1145 0.5383 0.7669
H48 H 1.1431 0.4647 0.7754
C42 C 0.9358(5) 0.3415(4) 1.0155(4)
H49 H 0.9145 0.2986 1.0286
H50 H 0.9064 0.3732 1.0459
C43 C 1.0444(5) 0.3459(4) 1.0340(5)
H51 H 1.0635 0.3428 1.0902
H52 H 1.0644 0.3883 1.0180
C44 C 1.0984(6) 0.2947(5) 0.9958(6)
H53 H 1.1671 0.3013 1.0101
H54 H 1.0810 0.2976 0.9402
H55 H 1.0815 0.2524 1.0130
C45 C 0.4400(5) 0.3502(4) 0.9037(5)
C46 C 0.4560(6) 0.3975(4) 0.9723(4)
H56 H 0.4383 0.4405 0.9541
H57 H 0.5233 0.3969 0.9956
H58 H 0.4166 0.3847 1.0104
C47 C 0.4655(6) 0.2811(4) 0.9314(5)
H59 H 0.5309 0.2800 0.9590
H60 H 0.4600 0.2525 0.8872
H61 H 0.4216 0.2672 0.9656
C48 C 0.3345(5) 0.3514(4) 0.8623(5)
H62 H 0.3170 0.3950 0.8461
H63 H 0.2925 0.3365 0.8975
H64 H 0.3279 0.3235 0.8175
loop_
_geom_bond_atom_site_label_1
_geom_bond_atom_site_label_2
_geom_bond_site_symmetry_1
_geom_bond_site_symmetry_2
Br1 C6 1_555 1_555
Br2 C20 1_555 1_555
O1 C3 1_555 1_555
O2 C10 1_555 1_555
O3 H1 1_555 1_555
O4 C17 1_555 1_555
O5 C24 1_555 1_555
O6 H2 1_555 1_555
N1 O3 1_555 1_555
N2 O6 1_555 1_555
C1 H3 1_555 1_555
H4 C1 1_555 1_555
C2 C1 1_555 1_555
C3 C2 1_555 1_555
C4 C3 1_555 1_555
C5 C4 1_555 1_555
H5 C5 1_555 1_555
C6 C5 1_555 1_555
C7 C2 1_555 1_555
H6 C7 1_555 1_555
C8 C4 1_555 1_555
H7 C8 1_555 1_555
H8 C8 1_555 1_555
C9 C8 1_555 1_555
C10 C9 1_555 1_555
C11 C10 1_555 1_555
C12 C11 1_555 1_555
H9 C12 1_555 1_555
C13 N1 1_555 1_555
C14 C9 1_555 1_555
H10 C14 1_555 1_555
C15 C11 1_555 1_555
H11 C15 1_555 1_555
H12 C15 1_555 1_555
C16 C15 1_555 1_555
C17 C16 1_555 1_555
C18 C17 1_555 1_555
C19 C18 1_555 1_555
H13 C19 1_555 1_555
C20 C19 1_555 1_555
C21 C16 1_555 1_555
H14 C21 1_555 1_555
C22 C18 1_555 1_555
H15 C22 1_555 1_555
H16 C22 1_555 1_555
C23 C22 1_555 1_555
C24 C23 1_555 1_555
C25 C1 1_555 1_555
C26 C25 1_555 1_555
H17 C26 1_555 1_555
C27 N2 1_555 1_555
C28 C23 1_555 1_555
H18 C28 1_555 1_555
C29 O1 1_555 1_555
H19 C29 1_555 1_555
H20 C29 1_555 1_555
C30 C29 1_555 1_555
H21 C30 1_555 1_555
H22 C30 1_555 1_555
C31 C30 1_555 1_555
H23 C31 1_555 1_555
H24 C31 1_555 1_555
H25 C31 1_555 1_555
C32 O2 1_555 1_555
H26 C32 1_555 1_555
H27 C32 1_555 1_555
C33 C32 1_555 1_555
H28 C33 1_555 1_555
H29 C33 1_555 1_555
C34 C33 1_555 1_555
H30 C34 1_555 1_555
H31 C34 1_555 1_555
H32 C34 1_555 1_555
C35 N1 1_555 1_555
C36 C35 1_555 1_555
H33 C36 1_555 1_555
H34 C36 1_555 1_555
H35 C36 1_555 1_555
C37 C35 1_555 1_555
H36 C37 1_555 1_555
H37 C37 1_555 1_555
H38 C37 1_555 1_555
C38 C35 1_555 1_555
H39 C38 1_555 1_555
H40 C38 1_555 1_555
H41 C38 1_555 1_555
C39 O4 1_555 1_555
H42 C39 1_555 1_555
H43 C39 1_555 1_555
C40 C39 1_555 1_555
H44 C40 1_555 1_555
H45 C40 1_555 1_555
C41 C40 1_555 1_555
H46 C41 1_555 1_555
H47 C41 1_555 1_555
H48 C41 1_555 1_555
C42 O5 1_555 1_555
H49 C42 1_555 1_555
H50 C42 1_555 1_555
C43 C42 1_555 1_555
H51 C43 1_555 1_555
H52 C43 1_555 1_555
C44 C43 1_555 1_555
H53 C44 1_555 1_555
H54 C44 1_555 1_555
H55 C44 1_555 1_555
C45 N2 1_555 1_555
C46 C45 1_555 1_555
H56 C46 1_555 1_555
H57 C46 1_555 1_555
H58 C46 1_555 1_555
C47 C45 1_555 1_555
H59 C47 1_555 1_555
H60 C47 1_555 1_555
H61 C47 1_555 1_555
C48 C45 1_555 1_555
H62 C48 1_555 1_555
H63 C48 1_555 1_555
H64 C48 1_555 1_555
C6 C7 1_555 1_555
C12 C13 1_555 1_555
C13 C14 1_555 1_555
C20 C21 1_555 1_555
C24 C25 1_555 1_555
C26 C27 1_555 1_555
C27 C28 1_555 1_555

#END
