
#######################################################################
#
#                 Cambridge Crystallographic Data Centre
#                                CCDC 
#
#######################################################################
#
# If this CIF has been generated from an entry in the Cambridge 
# Structural Database, then it will include bibliographic, chemical, 
# crystal, experimental, refinement or atomic coordinate data resulting 
# from the CCDC's data processing and validation procedures.
#
#######################################################################

data_HESCIU
_chemical_formula_moiety         'C17 H17 N1 O4'
_chemical_name_systematic        
10a-(prop-2-en-1-yl)-10,10a-dihydro-2H,6H-[1,3]dioxolo[4,5-h]pyrrolo[2,1-b][3]benzazepine-8,11(5H,9H)-dione
_symmetry_cell_setting           orthorhombic
_symmetry_space_group_name_H-M   'P 21 21 2'
_symmetry_Int_Tables_number      18
_space_group_name_Hall           'P 2 2ab'
loop_
_symmetry_equiv_pos_site_id
_symmetry_equiv_pos_as_xyz
1 x,y,z
2 -x,-y,z
3 1/2+x,1/2-y,-z
4 1/2-x,1/2+y,-z
_cell_length_a                   7.04805(15)
_cell_length_b                   26.0394(6)
_cell_length_c                   7.82006(17)
_cell_angle_alpha                90
_cell_angle_beta                 90
_cell_angle_gamma                90
_cell_volume                     1435.19
_exptl_crystal_colour            'light colorless'
_exptl_crystal_description       block
_cell_formula_units_Z            4
_exptl_crystal_recrystallization_method 'ethyl acetate'
loop_
_atom_site_label
_atom_site_type_symbol
_atom_site_fract_x
_atom_site_fract_y
_atom_site_fract_z
O1 O 0.2599(2) 0.37528(7) 0.3407(3)
N1 N -0.0426(3) 0.37225(7) 0.2365(3)
O2 O -0.2392(3) 0.58290(7) -0.1012(3)
C1 C -0.2575(4) 0.51311(9) 0.1083(3)
H1 H -0.2589 0.5346 0.2032
C2 C -0.1183(4) 0.40714(10) 0.3642(4)
H2 H -0.0205 0.4315 0.3963
H3 H -0.1524 0.3877 0.4654
C3 C -0.2475(4) 0.53250(10) -0.0535(4)
C4 C -0.2656(3) 0.45962(9) 0.1266(3)
C5 C -0.2549(4) 0.44947(11) -0.1835(4)
H4 H -0.2556 0.4287 -0.2803
C6 C -0.2473(4) 0.50149(12) -0.1960(3)
C7 C -0.2922(4) 0.43658(10) 0.3014(3)
H5 H -0.4001 0.4135 0.2986
H6 H -0.3208 0.4638 0.3820
C8 C 0.1409(4) 0.35679(9) 0.2453(4)
C9 C -0.2762(4) 0.37136(10) -0.0069(4)
O3 O -0.3688(3) 0.34712(8) -0.1112(3)
O4 O -0.2375(4) 0.53135(8) -0.3415(3)
C10 C -0.1624(4) 0.34064(9) 0.1256(4)
C11 C -0.2619(4) 0.42830(10) -0.0185(3)
C12 C 0.1723(4) 0.31390(11) 0.1202(4)
H7 H 0.1996 0.2820 0.1794
H8 H 0.2770 0.3218 0.0441
C13 C -0.0129(4) 0.30997(11) 0.0213(4)
H9 H -0.0512 0.2744 0.0101
H10 H 0.0014 0.3245 -0.0921
C14 C -0.2963(4) 0.30548(11) 0.2293(5)
H11 H -0.3861 0.3268 0.2912
H12 H -0.3680 0.2843 0.1505
C15 C -0.2537(6) 0.58290(12) -0.2837(4)
H13 H -0.3747 0.5972 -0.3186
H14 H -0.1533 0.6037 -0.3329
C16 C -0.1962(5) 0.27135(15) 0.3542(7)
H15 H -0.1275 0.2892 0.4365
C17 C -0.1869(13) 0.2249(3) 0.3692(12)
H16 H -0.2510 0.2038 0.2927
H17 H -0.1157 0.2105 0.4572
H18? H -0.1199 0.2464 0.3040
C18? C -0.1972(15) 0.2706(5) 0.5029(14)
H19? H -0.2698 0.2942 0.5634
H20? H -0.1253 0.2463 0.5613
loop_
_geom_bond_atom_site_label_1
_geom_bond_atom_site_label_2
_geom_bond_site_symmetry_1
_geom_bond_site_symmetry_2
O1 C8 1_555 1_555
N1 C2 1_555 1_555
O2 C3 1_555 1_555
C1 H1 1_555 1_555
C2 H2 1_555 1_555
H3 C2 1_555 1_555
C3 C1 1_555 1_555
C4 C1 1_555 1_555
C5 H4 1_555 1_555
C6 C3 1_555 1_555
C7 C2 1_555 1_555
H5 C7 1_555 1_555
H6 C7 1_555 1_555
C8 N1 1_555 1_555
C9 O3 1_555 1_555
O4 C6 1_555 1_555
C10 N1 1_555 1_555
C11 C4 1_555 1_555
C12 C8 1_555 1_555
H7 C12 1_555 1_555
H8 C12 1_555 1_555
C13 C10 1_555 1_555
H9 C13 1_555 1_555
H10 C13 1_555 1_555
C14 C10 1_555 1_555
H11 C14 1_555 1_555
H12 C14 1_555 1_555
C15 O2 1_555 1_555
H13 C15 1_555 1_555
H14 C15 1_555 1_555
C16 C14 1_555 1_555
H15 C16 1_555 1_555
C17 C16 1_555 1_555
H16 C17 1_555 1_555
H17 C17 1_555 1_555
C4 C7 1_555 1_555
C5 C6 1_555 1_555
C5 C11 1_555 1_555
C9 C10 1_555 1_555
C9 C11 1_555 1_555
O4 C15 1_555 1_555
C12 C13 1_555 1_555

#END
