
#######################################################################
#
#                 Cambridge Crystallographic Data Centre
#                                CCDC 
#
#######################################################################
#
# If this CIF has been generated from an entry in the Cambridge 
# Structural Database, then it will include bibliographic, chemical, 
# crystal, experimental, refinement or atomic coordinate data resulting 
# from the CCDC's data processing and validation procedures.
#
#######################################################################

data_HESCOA
_chemical_formula_moiety         'C17 H15 Cl1 N2'
_chemical_name_systematic        
2-(6-chloro-1H-indol-3-yl)-1,2,3,4-tetrahydroquinoline
_symmetry_cell_setting           monoclinic
_symmetry_space_group_name_H-M   'P 21/n'
_symmetry_Int_Tables_number      14
_space_group_name_Hall           '-P 2yn'
loop_
_symmetry_equiv_pos_site_id
_symmetry_equiv_pos_as_xyz
1 x,y,z
2 1/2-x,1/2+y,1/2-z
3 -x,-y,-z
4 1/2+x,1/2-y,1/2+z
_cell_length_a                   10.9170(11)
_cell_length_b                   8.6204(8)
_cell_length_c                   15.1774(17)
_cell_angle_alpha                90
_cell_angle_beta                 102.048(3)
_cell_angle_gamma                90
_cell_volume                     1396.87
_exptl_crystal_colour            yellow
_exptl_crystal_description       block
_cell_formula_units_Z            4
loop_
_atom_site_label
_atom_site_type_symbol
_atom_site_fract_x
_atom_site_fract_y
_atom_site_fract_z
C1 C 0.5472(2) 0.2199(2) 0.70966(17)
C2 C 0.6432(2) 0.2925(2) 0.85731(15)
C3 C 0.62783(18) 0.3191(2) 0.67326(15)
C4 C 0.5943(2) 0.3050(2) 0.57704(16)
C5 C 0.7291(2) 0.1828(2) 0.38174(16)
C6 C 0.6225(2) 0.2769(2) 0.35538(16)
C7 C 0.7166(2) 0.4057(3) 0.73322(16)
H1 H 0.7702 0.4727 0.7115
C8 C 0.5532(2) 0.2067(2) 0.80120(17)
H2 H 0.4986 0.1426 0.8239
C9 C 0.7242(2) 0.3913(3) 0.82400(17)
H3 H 0.7840 0.4478 0.8639
C10 C 0.6527(2) 0.3917(3) 0.50938(16)
H4 H 0.6499 0.5025 0.5233
C11 C 0.4990(2) 0.2005(3) 0.55939(18)
H5 H 0.4589 0.1685 0.5021
C12 C 0.5586(2) 0.2756(3) 0.26614(17)
H6 H 0.4865 0.3350 0.2488
C13 C 0.7984(2) 0.1886(3) 0.47753(18)
H7 H 0.8857 0.1625 0.4807
H8 H 0.7636 0.1127 0.5126
C14 C 0.7897(2) 0.3480(3) 0.51681(17)
H9 H 0.8299 0.4233 0.4846
H10 H 0.8327 0.3489 0.5796
C15 C 0.7692(2) 0.0950(3) 0.3162(2)
H11 H 0.8405 0.0338 0.3327
C16 C 0.6009(3) 0.1869(3) 0.20291(19)
H12 H 0.5579 0.1882 0.1432
C17 C 0.7062(3) 0.0965(3) 0.2277(2)
H13 H 0.7347 0.0369 0.1850
Cl1 Cl 0.65698(6) 0.27752(7) 0.97359(4)
N1 N 0.47072(17) 0.1489(2) 0.63825(14)
H14 H 0.4136 0.0822 0.6422
N2 N 0.58241(19) 0.3699(2) 0.41774(13)
H15 H 0.5121 0.4175 0.4015
loop_
_geom_bond_atom_site_label_1
_geom_bond_atom_site_label_2
_geom_bond_site_symmetry_1
_geom_bond_site_symmetry_2
C1 C3 1_555 1_555
C2 C8 1_555 1_555
C3 C4 1_555 1_555
C4 C10 1_555 1_555
C5 C6 1_555 1_555
C6 C12 1_555 1_555
C7 C3 1_555 1_555
H1 C7 1_555 1_555
C8 C1 1_555 1_555
H2 C8 1_555 1_555
C9 C2 1_555 1_555
H3 C9 1_555 1_555
C10 H4 1_555 1_555
C11 C4 1_555 1_555
H5 C11 1_555 1_555
C12 H6 1_555 1_555
C13 C5 1_555 1_555
H7 C13 1_555 1_555
H8 C13 1_555 1_555
C14 C10 1_555 1_555
H9 C14 1_555 1_555
H10 C14 1_555 1_555
C15 C5 1_555 1_555
H11 C15 1_555 1_555
C16 C12 1_555 1_555
H12 C16 1_555 1_555
C17 C15 1_555 1_555
H13 C17 1_555 1_555
Cl1 C2 1_555 1_555
N1 C1 1_555 1_555
H14 N1 1_555 1_555
N2 C6 1_555 1_555
H15 N2 1_555 1_555
C7 C9 1_555 1_555
C10 N2 1_555 1_555
C11 N1 1_555 1_555
C13 C14 1_555 1_555
C16 C17 1_555 1_555

#END
