
#######################################################################
#
#                 Cambridge Crystallographic Data Centre
#                                CCDC 
#
#######################################################################
#
# If this CIF has been generated from an entry in the Cambridge 
# Structural Database, then it will include bibliographic, chemical, 
# crystal, experimental, refinement or atomic coordinate data resulting 
# from the CCDC's data processing and validation procedures.
#
#######################################################################

data_HESDEP
_chemical_formula_moiety         'C23 H24 N4 O1'
_chemical_name_systematic        
1,3-bis(5-Methyl-3-phenylpyrazol-1-yl)propan-2-ol
_symmetry_cell_setting           orthorhombic
_symmetry_space_group_name_H-M   'P 21 21 21'
_symmetry_Int_Tables_number      19
_space_group_name_Hall           'P 2ac 2ab'
loop_
_symmetry_equiv_pos_site_id
_symmetry_equiv_pos_as_xyz
1 x,y,z
2 1/2-x,-y,1/2+z
3 -x,1/2+y,1/2-z
4 1/2+x,1/2-y,-z
_cell_length_a                   9.8322(19)
_cell_length_b                   12.109(2)
_cell_length_c                   17.141(3)
_cell_angle_alpha                90
_cell_angle_beta                 90
_cell_angle_gamma                90
_cell_volume                     2040.78
_exptl_crystal_colour            yellow
_exptl_crystal_description       block
_chemical_melting_point          '418-419 K'
_cell_formula_units_Z            4
_exptl_crystal_recrystallization_method methanol
loop_
_atom_site_label
_atom_site_type_symbol
_atom_site_fract_x
_atom_site_fract_y
_atom_site_fract_z
O1 O 0.3713(3) 0.2388(3) 0.5456(2)
H1 H 0.413(6) 0.174(5) 0.548(4)
N1 N 0.3302(4) 0.0723(3) 0.3900(2)
N2 N 0.2493(4) 0.0614(3) 0.4521(2)
N3 N 0.0807(3) 0.4164(3) 0.47870(18)
N4 N 0.1628(3) 0.4025(3) 0.54120(19)
C1 C 0.4699(4) -0.0489(3) 0.3101(2)
C2 C 0.5060(6) 0.0341(4) 0.2584(3)
H2 H 0.4719 0.1050 0.2657
C3 C 0.5914(6) 0.0136(6) 0.1964(3)
H3 H 0.6142 0.0715 0.1632
C4 C 0.6426(6) -0.0863(6) 0.1822(4)
H4 H 0.6993 -0.0985 0.1396
C5 C 0.6097(6) -0.1699(5) 0.2317(4)
H5 H 0.6446 -0.2401 0.2227
C6 C 0.5259(6) -0.1527(4) 0.2949(4)
H6 H 0.5062 -0.2113 0.3281
C7 C 0.3786(4) -0.0298(4) 0.3768(2)
C8 C 0.3290(5) -0.1046(4) 0.4304(3)
H7 H 0.3480 -0.1797 0.4334
C9 C 0.2450(5) -0.0438(5) 0.4785(3)
C10 C 0.1584(7) -0.0814(5) 0.5458(3)
H8 H 0.1809 -0.0393 0.5914
H9 H 0.1747 -0.1583 0.5556
H10 H 0.0642 -0.0706 0.5332
C11 C 0.1774(5) 0.1587(4) 0.4818(3)
H11 H 0.0836 0.1387 0.4923
H12 H 0.1771 0.2152 0.4417
C12 C 0.2372(4) 0.2047(4) 0.5530(3)
H13 H 0.2361 0.1459 0.5923
C13 C 0.1556(5) 0.3002(3) 0.5863(3)
H14 H 0.0611 0.2778 0.5901
H15 H 0.1876 0.3151 0.6388
C14 C 0.2452(5) 0.4899(4) 0.5536(3)
C15 C 0.2147(5) 0.5655(4) 0.4972(2)
H16 H 0.2538 0.6347 0.4905
C16 C 0.1118(4) 0.5170(3) 0.4512(2)
C17 C 0.0439(5) 0.5606(4) 0.3814(2)
C18 C 0.0509(7) 0.6728(5) 0.3645(3)
H17 H 0.0980 0.7201 0.3977
C19 C -0.0123(8) 0.7145(5) 0.2982(4)
H18 H -0.0065 0.7894 0.2867
C20 C -0.0837(7) 0.6446(6) 0.2492(3)
H19 H -0.1243 0.6723 0.2042
C21 C -0.0947(6) 0.5349(6) 0.2667(3)
H20 H -0.1454 0.4884 0.2348
C22 C -0.0298(5) 0.4931(5) 0.3324(3)
H21 H -0.0362 0.4181 0.3434
C23 C 0.3464(5) 0.4951(5) 0.6195(3)
H22 H 0.3958 0.4268 0.6221
H23 H 0.2993 0.5071 0.6678
H24 H 0.4087 0.5548 0.6105
loop_
_geom_bond_atom_site_label_1
_geom_bond_atom_site_label_2
_geom_bond_site_symmetry_1
_geom_bond_site_symmetry_2
O1 H1 1_555 1_555
N1 N2 1_555 1_555
N2 C9 1_555 1_555
N3 N4 1_555 1_555
N4 C13 1_555 1_555
C1 C2 1_555 1_555
C2 H2 1_555 1_555
C3 C2 1_555 1_555
H3 C3 1_555 1_555
C4 C3 1_555 1_555
H4 C4 1_555 1_555
C5 C4 1_555 1_555
H5 C5 1_555 1_555
C6 C1 1_555 1_555
H6 C6 1_555 1_555
C7 N1 1_555 1_555
C8 C7 1_555 1_555
H7 C8 1_555 1_555
C9 C8 1_555 1_555
C10 C9 1_555 1_555
H8 C10 1_555 1_555
H9 C10 1_555 1_555
H10 C10 1_555 1_555
C11 N2 1_555 1_555
H11 C11 1_555 1_555
H12 C11 1_555 1_555
C12 O1 1_555 1_555
H13 C12 1_555 1_555
C13 C12 1_555 1_555
H14 C13 1_555 1_555
H15 C13 1_555 1_555
C14 N4 1_555 1_555
C15 C14 1_555 1_555
H16 C15 1_555 1_555
C16 N3 1_555 1_555
C17 C16 1_555 1_555
C18 C17 1_555 1_555
H17 C18 1_555 1_555
C19 C18 1_555 1_555
H18 C19 1_555 1_555
C20 C19 1_555 1_555
H19 C20 1_555 1_555
C21 C20 1_555 1_555
H20 C21 1_555 1_555
C22 C17 1_555 1_555
H21 C22 1_555 1_555
C23 C14 1_555 1_555
H22 C23 1_555 1_555
H23 C23 1_555 1_555
H24 C23 1_555 1_555
C1 C7 1_555 1_555
C5 C6 1_555 1_555
C11 C12 1_555 1_555
C15 C16 1_555 1_555
C21 C22 1_555 1_555

#END
