
#######################################################################
#
#                 Cambridge Crystallographic Data Centre
#                                CCDC 
#
#######################################################################
#
# If this CIF has been generated from an entry in the Cambridge 
# Structural Database, then it will include bibliographic, chemical, 
# crystal, experimental, refinement or atomic coordinate data resulting 
# from the CCDC's data processing and validation procedures.
#
#######################################################################

data_HESKOG
_chemical_formula_moiety         'C21 H15 Cl1 F3 N3 O3 S1'
_chemical_name_systematic        
N-(4-Methylbenzamido)-N'-5-(2-trifluoromethyl-4-chlorophenyl)-2-furoylthiourea
_symmetry_cell_setting           monoclinic
_symmetry_space_group_name_H-M   'P 21/c'
_symmetry_Int_Tables_number      14
_space_group_name_Hall           '-P 2ybc'
loop_
_symmetry_equiv_pos_site_id
_symmetry_equiv_pos_as_xyz
1 x,y,z
2 -x,1/2+y,1/2-z
3 -x,-y,-z
4 x,1/2-y,1/2+z
_cell_length_a                   12.742(7)
_cell_length_b                   20.437(11)
_cell_length_c                   8.232(5)
_cell_angle_alpha                90
_cell_angle_beta                 96.155(8)
_cell_angle_gamma                90
_cell_volume                     2131.32
_exptl_crystal_colour            colorless
_exptl_crystal_description       plate
_chemical_melting_point          '477-478 K'
_cell_formula_units_Z            4
_exptl_crystal_recrystallization_method DMF/ethanol
loop_
_atom_site_label
_atom_site_type_symbol
_atom_site_fract_x
_atom_site_fract_y
_atom_site_fract_z
S1 S 0.66611(8) 0.06716(5) 1.15269(12)
Cl1 Cl 0.76481(9) -0.41296(4) 0.84789(15)
F1 F 0.58222(15) -0.19510(11) 0.8323(5)
F2 F 0.68868(17) -0.13046(10) 0.9675(3)
F3 F 0.67041(15) -0.12689(11) 0.7090(3)
N1 N 0.81034(17) 0.02853(11) 0.9687(3)
H1 H 0.7861 -0.0097 0.9872
N2 N 0.79987(19) 0.13883(11) 1.0103(3)
H2 H 0.8528 0.1430 0.9544
N3 N 0.7524(2) 0.19271(12) 1.0698(3)
H3 H 0.7047 0.1876 1.1351
O1 O 0.86367(14) -0.08596(9) 0.8444(2)
O2 O 0.93572(16) 0.08108(9) 0.8416(3)
O3 O 0.85052(17) 0.26015(10) 0.9406(3)
C1 C 0.7326(2) -0.28285(16) 0.8464(4)
H4 H 0.6651 -0.2928 0.8720
C2 C 0.8027(3) -0.33228(15) 0.8287(4)
C3 C 0.9017(3) -0.31887(15) 0.7916(4)
H5 H 0.9488 -0.3526 0.7771
C4 C 0.9310(2) -0.25499(15) 0.7758(4)
H6 H 0.9995 -0.2461 0.7531
C5 C 0.8629(2) -0.20286(14) 0.7921(4)
C6 C 0.7606(2) -0.21845(15) 0.8267(4)
C7 C 0.6761(3) -0.16816(18) 0.8334(6)
C8 C 0.9057(2) -0.13769(13) 0.7710(3)
C9 C 0.9863(2) -0.11721(15) 0.6901(4)
H7 H 1.0282 -0.1432 0.6303
C10 C 0.9952(2) -0.04937(16) 0.7131(4)
H8 H 1.0441 -0.0218 0.6719
C11 C 0.9198(2) -0.03184(14) 0.8058(4)
C12 C 0.8909(2) 0.03041(14) 0.8724(4)
C13 C 0.7624(2) 0.08032(14) 1.0408(3)
C14 C 0.7796(2) 0.25315(13) 1.0273(4)
C15 C 0.7163(2) 0.30702(14) 1.0849(3)
C16 C 0.7440(3) 0.37023(15) 1.0509(4)
H9 H 0.8030 0.3777 0.9961
C17 C 0.6858(3) 0.42256(16) 1.0966(4)
H10 H 0.7058 0.4647 1.0704
C18 C 0.5998(3) 0.41423(17) 1.1789(4)
C19 C 0.5735(3) 0.35083(19) 1.2171(5)
H11 H 0.5164 0.3438 1.2763
C20 C 0.6295(2) 0.29786(17) 1.1700(4)
H12 H 0.6090 0.2557 1.1954
C21 C 0.5355(3) 0.4709(2) 1.2297(5)
H13 H 0.5637 0.5110 1.1918
H14 H 0.5381 0.4719 1.3466
H15 H 0.4636 0.4660 1.1829
loop_
_geom_bond_atom_site_label_1
_geom_bond_atom_site_label_2
_geom_bond_site_symmetry_1
_geom_bond_site_symmetry_2
S1 C13 1_555 1_555
Cl1 C2 1_555 1_555
F1 C7 1_555 1_555
F2 C7 1_555 1_555
F3 C7 1_555 1_555
N1 H1 1_555 1_555
N2 H2 1_555 1_555
N3 N2 1_555 1_555
H3 N3 1_555 1_555
O1 C8 1_555 1_555
O2 C12 1_555 1_555
O3 C14 1_555 1_555
C1 H4 1_555 1_555
C2 C1 1_555 1_555
C3 C2 1_555 1_555
H5 C3 1_555 1_555
C4 C3 1_555 1_555
H6 C4 1_555 1_555
C5 C4 1_555 1_555
C6 C1 1_555 1_555
C7 C6 1_555 1_555
C8 C5 1_555 1_555
C9 C8 1_555 1_555
H7 C9 1_555 1_555
C10 C9 1_555 1_555
H8 C10 1_555 1_555
C11 O1 1_555 1_555
C12 N1 1_555 1_555
C13 N1 1_555 1_555
C14 N3 1_555 1_555
C15 C14 1_555 1_555
C16 C15 1_555 1_555
H9 C16 1_555 1_555
C17 C16 1_555 1_555
H10 C17 1_555 1_555
C18 C17 1_555 1_555
C19 C18 1_555 1_555
H11 C19 1_555 1_555
C20 C15 1_555 1_555
H12 C20 1_555 1_555
C21 C18 1_555 1_555
H13 C21 1_555 1_555
H14 C21 1_555 1_555
H15 C21 1_555 1_555
N2 C13 1_555 1_555
C5 C6 1_555 1_555
C10 C11 1_555 1_555
C11 C12 1_555 1_555
C19 C20 1_555 1_555

#END
