
#######################################################################
#
#                 Cambridge Crystallographic Data Centre
#                                CCDC 
#
#######################################################################
#
# If this CIF has been generated from an entry in the Cambridge 
# Structural Database, then it will include bibliographic, chemical, 
# crystal, experimental, refinement or atomic coordinate data resulting 
# from the CCDC's data processing and validation procedures.
#
#######################################################################

data_HESNOJ
_chemical_formula_moiety         'C10 H8 Cl2 N4 O1'
_chemical_name_systematic        
'1-(2,5-Dichlorophenyl)-2-(1H-1,2,4-triazol-1-yl)ethanone oxime'
_symmetry_cell_setting           monoclinic
_symmetry_space_group_name_H-M   'P 21/c'
_symmetry_Int_Tables_number      14
_space_group_name_Hall           '-P 2ybc'
loop_
_symmetry_equiv_pos_site_id
_symmetry_equiv_pos_as_xyz
1 x,y,z
2 -x,1/2+y,1/2-z
3 -x,-y,-z
4 x,1/2-y,1/2+z
_cell_length_a                   15.106(3)
_cell_length_b                   9.1538(16)
_cell_length_c                   8.7550(16)
_cell_angle_alpha                90
_cell_angle_beta                 101.673(3)
_cell_angle_gamma                90
_cell_volume                     1185.58
_exptl_crystal_colour            colorless
_exptl_crystal_description       block
_cell_formula_units_Z            4
_exptl_crystal_recrystallization_method methanol
loop_
_atom_site_label
_atom_site_type_symbol
_atom_site_fract_x
_atom_site_fract_y
_atom_site_fract_z
Cl1 Cl 0.59097(6) 0.59725(9) 0.10660(11)
Cl2 Cl 0.69603(7) 1.25266(9) 0.12027(13)
O1 O 0.89083(11) 1.0387(2) -0.16775(18)
H1 H 0.8892 1.0278 -0.2612
N1 N 0.89130(13) 1.0040(2) 0.28292(19)
C1 C 0.80796(15) 1.0105(3) 0.0113(2)
N2 N 0.80851(13) 0.9947(2) -0.1330(2)
C2 C 0.72360(15) 0.9670(3) 0.0627(2)
N3 N 0.91632(16) 0.8652(3) 0.3165(3)
C3 C 0.69811(16) 0.8216(3) 0.0603(3)
H2 H 0.7328 0.7513 0.0230
C4 C 0.66943(19) 1.0677(3) 0.1185(3)
C5 C 0.62166(18) 0.7800(3) 0.1126(3)
N4 N 0.88149(16) 0.9735(3) 0.5234(2)
C6 C 0.87106(19) 1.0654(3) 0.4071(3)
H3 H 0.8519 1.1616 0.4116
C7 C 0.56953(19) 0.8807(4) 0.1702(4)
H4 H 0.5187 0.8515 0.2069
C8 C 0.90900(19) 0.8514(3) 0.4642(3)
H5 H 0.9218 0.7653 0.5208
C9 C 0.88837(17) 1.0651(3) 0.1288(2)
H6 H 0.9434 1.0393 0.0943
H7 H 0.8856 1.1708 0.1346
C10 C 0.5939(2) 1.0251(4) 0.1727(4)
H8 H 0.5592 1.0947 0.2111
loop_
_geom_bond_atom_site_label_1
_geom_bond_atom_site_label_2
_geom_bond_site_symmetry_1
_geom_bond_site_symmetry_2
Cl1 C5 1_555 1_555
Cl2 C4 1_555 1_555
O1 H1 1_555 1_555
N1 N3 1_555 1_555
C1 N2 1_555 1_555
N2 O1 1_555 1_555
C2 C1 1_555 1_555
N3 C8 1_555 1_555
C3 C2 1_555 1_555
H2 C3 1_555 1_555
C4 C2 1_555 1_555
C5 C3 1_555 1_555
N4 C6 1_555 1_555
C6 N1 1_555 1_555
H3 C6 1_555 1_555
C7 C5 1_555 1_555
H4 C7 1_555 1_555
C8 N4 1_555 1_555
H5 C8 1_555 1_555
C9 N1 1_555 1_555
H6 C9 1_555 1_555
H7 C9 1_555 1_555
C10 C4 1_555 1_555
H8 C10 1_555 1_555
C1 C9 1_555 1_555
C7 C10 1_555 1_555

#END
