
#######################################################################
#
#                 Cambridge Crystallographic Data Centre
#                                CCDC 
#
#######################################################################
#
# If this CIF has been generated from an entry in the Cambridge 
# Structural Database, then it will include bibliographic, chemical, 
# crystal, experimental, refinement or atomic coordinate data resulting 
# from the CCDC's data processing and validation procedures.
#
#######################################################################

data_HESZUD
_chemical_formula_moiety         'C30 H23 Br1 N4 O3,0.5(C3 H6 O2)'
_chemical_name_systematic        
'3-(4-bromophenyl)-1-(4-methylphenyl)-9-phenyl-3a,6-dihydro-1H,8H-6,11a-ethenopyrrolo[2,3-c][1,2,4]triazolo[1,2-a][1,2]diazepine-2,8,10(3H,9H)-trione methyl acetate solvate'
_symmetry_cell_setting           monoclinic
_symmetry_space_group_name_H-M   'P 21'
_symmetry_Int_Tables_number      4
_space_group_name_Hall           'P 2yb'
loop_
_symmetry_equiv_pos_site_id
_symmetry_equiv_pos_as_xyz
1 x,y,z
2 -x,1/2+y,-z
_cell_length_a                   16.0219(4)
_cell_length_b                   8.2886(2)
_cell_length_c                   21.0623(5)
_cell_angle_alpha                90
_cell_angle_beta                 98.290(2)
_cell_angle_gamma                90
_cell_volume                     2767.83
_exptl_crystal_colour            colorless
_exptl_crystal_description       needle
_cell_formula_units_Z            4
loop_
_atom_site_label
_atom_site_type_symbol
_atom_site_fract_x
_atom_site_fract_y
_atom_site_fract_z
Br1 Br 0.64496(2) 0.22057(7) 0.78619(2)
O1 O 0.99406(14) 0.3792(3) 1.01604(10)
O2 O 0.94537(15) 0.4137(3) 1.17516(11)
O3 O 0.87354(16) 0.0618(3) 1.32697(11)
N1 N 1.01714(15) 0.1725(3) 1.08976(12)
N2 N 0.93930(17) 0.0270(3) 1.23654(12)
N3 N 0.95838(16) 0.1358(3) 1.18868(12)
N4 N 0.91039(17) 0.2755(3) 1.26450(12)
C1 C 0.96811(18) 0.2722(4) 1.04752(14)
C2 C 0.87510(18) 0.2302(4) 1.04780(13)
H1 H 0.8509 0.3065 1.0757
C3 C 0.88165(18) 0.0629(4) 1.08012(14)
H2 H 0.8864 -0.0168 1.0465
C4 C 0.96705(18) 0.0668(4) 1.12403(14)
C5 C 0.9985(2) -0.1047(4) 1.13365(14)
H3 H 1.0432 -0.1425 1.1141
C6 C 0.9595(2) -0.1995(4) 1.17126(15)
H4 H 0.9708 -0.3095 1.1746
C7 C 0.8964(2) -0.1214(4) 1.20810(15)
H5 H 0.8848 -0.1937 1.2426
C8 C 0.8141(2) -0.0731(4) 1.16800(16)
H6 H 0.7641 -0.1044 1.1821
C9 C 0.8088(2) 0.0120(4) 1.11340(15)
H7 H 0.7551 0.0425 1.0943
C10 C 0.93870(18) 0.2902(4) 1.20423(14)
C11 C 0.9032(2) 0.1146(4) 1.28158(15)
C12 C 1.10705(18) 0.1778(4) 1.10342(16)
C13 C 1.1477(2) 0.1429(5) 1.16500(17)
H8 H 1.1163 0.1170 1.1975
C14 C 1.2350(2) 0.1468(6) 1.1776(2)
H9 H 1.2617 0.1172 1.2180
C15 C 1.2832(2) 0.1936(6) 1.1314(3)
C16 C 1.2418(2) 0.2253(6) 1.0703(3)
H10 H 1.2734 0.2554 1.0385
C17 C 1.1544(2) 0.2136(5) 1.05469(19)
H11 H 1.1283 0.2292 1.0128
C18 C 1.3779(3) 0.2082(9) 1.1480(3)
H12 H 1.4039 0.1849 1.1108
H13 H 1.3977 0.1330 1.1815
H14 H 1.3922 0.3159 1.1624
C19 C 0.82200(18) 0.2302(4) 0.98279(14)
C20 C 0.8454(2) 0.1420(4) 0.93172(15)
H15 H 0.8962 0.0858 0.9372
C21 C 0.7935(2) 0.1373(5) 0.87271(16)
H16 H 0.8091 0.0787 0.8386
C22 C 0.7179(2) 0.2221(5) 0.86603(14)
C23 C 0.6931(2) 0.3084(6) 0.91527(17)
H17 H 0.6417 0.3627 0.9098
C24 C 0.7458(2) 0.3137(5) 0.97374(16)
H18 H 0.7299 0.3739 1.0073
C25 C 0.8884(2) 0.4103(4) 1.30161(14)
C26 C 0.8093(2) 0.4163(4) 1.32085(16)
H19 H 0.7706 0.3336 1.3099
C27 C 0.7883(2) 0.5470(4) 1.35657(17)
H20 H 0.7349 0.5535 1.3689
C28 C 0.8470(2) 0.6679(4) 1.37393(16)
H21 H 0.8334 0.7533 1.3992
C29 C 0.9258(2) 0.6629(4) 1.35406(15)
H22 H 0.9644 0.7457 1.3650
C30 C 0.9468(2) 0.5322(4) 1.31741(14)
H23 H 0.9995 0.5272 1.3038
Br2 Br 0.86033(2) 0.30212(6) 1.70793(2)
O4 O 0.52215(14) 0.4402(3) 1.47530(11)
O5 O 0.61532(16) 0.0443(3) 1.16950(11)
O6 O 0.56592(16) 0.4356(3) 1.31492(11)
N5 N 0.48910(15) 0.2259(3) 1.40712(12)
N6 N 0.53975(17) 0.1590(3) 1.30820(12)
N7 N 0.55251(17) 0.0376(3) 1.26252(12)
N8 N 0.59081(18) 0.2755(3) 1.22846(13)
C31 C 0.54343(18) 0.3244(4) 1.44567(13)
C32 C 0.63362(19) 0.2642(4) 1.44469(14)
H24 H 0.6595 0.3291 1.4139
C33 C 0.61814(18) 0.0928(4) 1.41728(14)
H25 H 0.6112 0.0214 1.4532
C34 C 0.53203(18) 0.1049(4) 1.37466(14)
C35 C 0.4923(2) -0.0616(4) 1.37051(15)
H26 H 0.4475 -0.0868 1.3923
C36 C 0.5245(2) -0.1696(4) 1.33444(15)
H27 H 0.5079 -0.2771 1.3343
C37 C 0.5889(2) -0.1126(4) 1.29365(15)
H28 H 0.5954 -0.1937 1.2608
C38 C 0.6746(2) -0.0719(4) 1.33113(15)
H29 H 0.7221 -0.1148 1.3166
C39 C 0.6866(2) 0.0211(4) 1.38344(15)
H30 H 0.7421 0.0438 1.4007
C40 C 0.5906(2) 0.1108(4) 1.21457(15)
C41 C 0.56629(19) 0.3048(4) 1.28878(13)
C42 C 0.4021(5) 0.2566(13) 1.3892(4)
C43 C 0.3488(4) 0.2060(9) 1.4311(4)
H31 H 0.3704 0.1589 1.4701
C44 C 0.2613(4) 0.2268(10) 1.4140(4)
H32 H 0.2248 0.1932 1.4419
C45 C 0.2290(4) 0.2971(10) 1.3557(4)
C46 C 0.2843(4) 0.3469(9) 1.3154(3)
H33 H 0.2630 0.3931 1.2761
C47 C 0.3703(4) 0.3305(9) 1.3315(3)
H34 H 0.4066 0.3683 1.3041
C48 C 0.1346(4) 0.3139(14) 1.3360(5)
H35 H 0.1233 0.3488 1.2922
H36 H 0.1128 0.3919 1.3631
H37 H 0.1079 0.2116 1.3404
C49 C 0.68883(19) 0.2721(4) 1.50876(14)
C50 C 0.66334(19) 0.2005(4) 1.56299(14)
H38 H 0.6120 0.1464 1.5593
C51 C 0.7140(2) 0.2096(5) 1.62232(15)
H39 H 0.6964 0.1632 1.6583
C52 C 0.7906(2) 0.2880(5) 1.62727(15)
C53 C 0.8175(3) 0.3578(6) 1.57452(19)
H40 H 0.8695 0.4095 1.5783
C54 C 0.7661(2) 0.3500(6) 1.51557(18)
H41 H 0.7839 0.3981 1.4800
C55 C 0.6156(2) 0.4009(4) 1.18810(14)
C56 C 0.6942(2) 0.3967(5) 1.16787(16)
H42 H 0.7306 0.3104 1.1786
C57 C 0.7175(2) 0.5248(5) 1.13110(17)
H43 H 0.7701 0.5247 1.1174
C58 C 0.6626(2) 0.6517(5) 1.11500(17)
H44 H 0.6780 0.7358 1.0899
C59 C 0.5848(2) 0.6539(4) 1.13604(16)
H45 H 0.5484 0.7403 1.1254
C60 C 0.5607(2) 0.5289(4) 1.17274(15)
H46 H 0.5084 0.5305 1.1870
O7 O 0.1101(16) 0.547(4) 1.4869(18)
O8 O 0.0032(13) 0.614(3) 1.5362(9)
C61 C 0.0376(15) 0.524(3) 1.4959(16)
C62 C 0.003(2) 0.351(3) 1.494(2)
H47 H 0.0348 0.2871 1.5271
H48 H 0.0098 0.3088 1.4529
H49 H -0.0556 0.3489 1.4992
C63 C -0.0770(14) 0.679(4) 1.5244(10)
H50 H -0.1110 0.6096 1.4948
H51 H -0.0679 0.7795 1.5035
H52 H -0.1056 0.6999 1.5607
C64? C 0.3965(9) 0.246(2) 1.4028(6)
C65? C 0.3584(6) 0.2431(12) 1.4570(5)
H53? H 0.3895 0.2246 1.4972
C66? C 0.2715(5) 0.2683(12) 1.4501(5)
H54? H 0.2444 0.2660 1.4863
C67? C 0.2249(5) 0.2966(15) 1.3908(6)
C68? C 0.2649(6) 0.2961(15) 1.3367(5)
H55? H 0.2335 0.3102 1.2964
C69? C 0.3515(6) 0.2747(15) 1.3424(5)
H56? H 0.3789 0.2792 1.3064
C70? C 0.1304(6) 0.3228(19) 1.3841(8)
H57? H 0.1091 0.2757 1.4201
H58? H 0.1038 0.2728 1.3452
H59? H 0.1186 0.4363 1.3825
O9? O -0.1324(11) -0.006(2) 1.5149(9)
O10? O -0.0618(12) 0.197(2) 1.4771(12)
C71? C -0.0740(11) 0.032(2) 1.4876(11)
C72? C 0.0208(14) 0.250(4) 1.4858(18)
H60? H 0.0186 0.3661 1.4870
H61? H 0.0506 0.2168 1.4517
H62? H 0.0494 0.2107 1.5259
C73? C 0.0101(14) -0.047(3) 1.4989(17)
H63? H 0.0508 0.0257 1.4857
H64? H 0.0092 -0.1450 1.4742
H65? H 0.0252 -0.0722 1.5436
O11? O 1.3813(9) 0.492(2) 1.0255(7)
O12? O 1.5014(10) 0.4781(17) 0.9859(8)
C74? C 1.4346(12) 0.550(2) 0.9989(13)
C75? C 1.4590(15) 0.7330(19) 0.9999(14)
H66? H 1.4593 0.7743 1.0425
H67? H 1.4184 0.7914 0.9706
H68? H 1.5140 0.7455 0.9875
C76? C 1.5243(10) 0.3183(19) 1.0130(8)
H69? H 1.5765 0.2840 0.9999
H70? H 1.4806 0.2425 0.9978
H71? H 1.5307 0.3237 1.0590
O13? O -0.0536(9) 0.0890(15) 1.4841(7)
O14? O -0.0133(9) 0.3477(13) 1.5016(9)
C77? C -0.0011(9) 0.1909(14) 1.4814(10)
C78? C 0.0796(11) 0.178(2) 1.4571(13)
H72? H 0.1076 0.2805 1.4594
H73? H 0.1132 0.1020 1.4842
H74? H 0.0722 0.1395 1.4136
C79? C 0.0467(11) 0.4648(18) 1.4980(10)
H75? H 0.0584 0.4732 1.4547
H76? H 0.0976 0.4376 1.5258
H77? H 0.0257 0.5661 1.5111
O15? O 1.5551(6) 0.4888(12) 0.9798(5)
O16? O 1.4810(6) 0.2902(11) 1.0152(4)
C80? C 1.4951(7) 0.4365(12) 0.9991(7)
C81? C 1.4153(8) 0.5368(19) 1.0068(12)
H78? H 1.3685 0.4657 1.0090
H79? H 1.4023 0.6078 0.9707
H80? H 1.4258 0.5993 1.0455
C82? C 1.5446(8) 0.1650(14) 1.0122(7)
H81? H 1.5179 0.0611 1.0083
H82? H 1.5850 0.1679 1.0506
H83? H 1.5728 0.1840 0.9757
loop_
_geom_bond_atom_site_label_1
_geom_bond_atom_site_label_2
_geom_bond_site_symmetry_1
_geom_bond_site_symmetry_2
Br1 C22 1_555 1_555
O1 C1 1_555 1_555
O2 C10 1_555 1_555
O3 C11 1_555 1_555
N1 C1 1_555 1_555
N2 N3 1_555 1_555
N3 C4 1_555 1_555
N4 C10 1_555 1_555
C1 C2 1_555 1_555
C2 H1 1_555 1_555
C3 C2 1_555 1_555
H2 C3 1_555 1_555
C4 N1 1_555 1_555
C5 C4 1_555 1_555
H3 C5 1_555 1_555
C6 C5 1_555 1_555
H4 C6 1_555 1_555
C7 N2 1_555 1_555
H5 C7 1_555 1_555
C8 C7 1_555 1_555
H6 C8 1_555 1_555
C9 C3 1_555 1_555
H7 C9 1_555 1_555
C10 N3 1_555 1_555
C11 N2 1_555 1_555
C12 N1 1_555 1_555
C13 C12 1_555 1_555
H8 C13 1_555 1_555
C14 C13 1_555 1_555
H9 C14 1_555 1_555
C15 C14 1_555 1_555
C16 C15 1_555 1_555
H10 C16 1_555 1_555
C17 C12 1_555 1_555
H11 C17 1_555 1_555
C18 C15 1_555 1_555
H12 C18 1_555 1_555
H13 C18 1_555 1_555
H14 C18 1_555 1_555
C19 C2 1_555 1_555
C20 C19 1_555 1_555
H15 C20 1_555 1_555
C21 C20 1_555 1_555
H16 C21 1_555 1_555
C22 C21 1_555 1_555
C23 C22 1_555 1_555
H17 C23 1_555 1_555
C24 C19 1_555 1_555
H18 C24 1_555 1_555
C25 N4 1_555 1_555
C26 C25 1_555 1_555
H19 C26 1_555 1_555
C27 C26 1_555 1_555
H20 C27 1_555 1_555
C28 C27 1_555 1_555
H21 C28 1_555 1_555
C29 C28 1_555 1_555
H22 C29 1_555 1_555
C30 C25 1_555 1_555
H23 C30 1_555 1_555
Br2 C52 1_555 1_555
O4 C31 1_555 1_555
O5 C40 1_555 1_555
O6 C41 1_555 1_555
N5 C31 1_555 1_555
N6 N7 1_555 1_555
N7 C37 1_555 1_555
N8 C40 1_555 1_555
C31 C32 1_555 1_555
C32 H24 1_555 1_555
C33 C32 1_555 1_555
H25 C33 1_555 1_555
C34 N5 1_555 1_555
C35 C34 1_555 1_555
H26 C35 1_555 1_555
C36 C35 1_555 1_555
H27 C36 1_555 1_555
C37 C36 1_555 1_555
H28 C37 1_555 1_555
C38 C37 1_555 1_555
H29 C38 1_555 1_555
C39 C33 1_555 1_555
H30 C39 1_555 1_555
C40 N7 1_555 1_555
C41 N6 1_555 1_555
C42 N5 1_555 1_555
C43 C42 1_555 1_555
H31 C43 1_555 1_555
C44 C43 1_555 1_555
H32 C44 1_555 1_555
C45 C44 1_555 1_555
C46 C45 1_555 1_555
H33 C46 1_555 1_555
C47 C42 1_555 1_555
H34 C47 1_555 1_555
C48 C45 1_555 1_555
H35 C48 1_555 1_555
H36 C48 1_555 1_555
H37 C48 1_555 1_555
C49 C32 1_555 1_555
C50 C49 1_555 1_555
H38 C50 1_555 1_555
C51 C50 1_555 1_555
H39 C51 1_555 1_555
C52 C51 1_555 1_555
C53 C52 1_555 1_555
H40 C53 1_555 1_555
C54 C49 1_555 1_555
H41 C54 1_555 1_555
C55 N8 1_555 1_555
C56 C55 1_555 1_555
H42 C56 1_555 1_555
C57 C56 1_555 1_555
H43 C57 1_555 1_555
C58 C57 1_555 1_555
H44 C58 1_555 1_555
C59 C58 1_555 1_555
H45 C59 1_555 1_555
C60 C55 1_555 1_555
H46 C60 1_555 1_555
O7 C61 1_555 1_555
O8 C61 1_555 1_555
C61 C62 1_555 1_555
C62 H47 1_555 1_555
H48 C62 1_555 1_555
H49 C62 1_555 1_555
C63 O8 1_555 1_555
H50 C63 1_555 1_555
H51 C63 1_555 1_555
H52 C63 1_555 1_555
N4 C11 1_555 1_555
C3 C4 1_555 1_555
C6 C7 1_555 1_555
C8 C9 1_555 1_555
C16 C17 1_555 1_555
C23 C24 1_555 1_555
C29 C30 1_555 1_555
N6 C34 1_555 1_555
N8 C41 1_555 1_555
C33 C34 1_555 1_555
C38 C39 1_555 1_555
C46 C47 1_555 1_555
C53 C54 1_555 1_555
C59 C60 1_555 1_555

#END
