
#######################################################################
#
#                 Cambridge Crystallographic Data Centre
#                                CCDC 
#
#######################################################################
#
# If this CIF has been generated from an entry in the Cambridge 
# Structural Database, then it will include bibliographic, chemical, 
# crystal, experimental, refinement or atomic coordinate data resulting 
# from the CCDC's data processing and validation procedures.
#
#######################################################################

data_HETBAM
_chemical_formula_moiety         'C22 H18 Br1 N1 O1'
_chemical_name_systematic        
3-(4-bromophenyl)-1-(4-methylphenyl)-3,3a-dihydrocyclohepta[b]pyrrol-2(1H)-one
_symmetry_cell_setting           monoclinic
_symmetry_space_group_name_H-M   'C 2'
_symmetry_Int_Tables_number      5
_space_group_name_Hall           'C 2y'
loop_
_symmetry_equiv_pos_site_id
_symmetry_equiv_pos_as_xyz
1 x,y,z
2 -x,y,-z
3 1/2+x,1/2+y,z
4 1/2-x,1/2+y,-z
_cell_length_a                   19.8832(3)
_cell_length_b                   5.20348(16)
_cell_length_c                   17.1850(4)
_cell_angle_alpha                90
_cell_angle_beta                 92.8783(17)
_cell_angle_gamma                90
_cell_volume                     1775.75
_exptl_crystal_colour            yellow
_exptl_crystal_description       block
_cell_formula_units_Z            4
loop_
_atom_site_label
_atom_site_type_symbol
_atom_site_fract_x
_atom_site_fract_y
_atom_site_fract_z
Br1 Br 0.41310(2) 0.73967(8) 0.48443(2)
O1 O 0.19984(8) 0.2360(5) 0.19148(9)
N1 N 0.12240(10) 0.5578(4) 0.16309(11)
C1 C 0.16194(11) 0.4033(5) 0.21226(14)
C2 C 0.08161(9) 0.7283(5) 0.20352(12)
C3 C 0.03889(12) 0.9021(5) 0.17055(15)
H1 H 0.0354 0.9117 0.1165
C4 C -0.00180(13) 1.0745(5) 0.21435(17)
H2 H -0.0122 1.2315 0.1908
C5 C -0.02649(12) 1.0368(5) 0.28462(18)
H3 H -0.0511 1.1707 0.3050
C6 C -0.01842(11) 0.8071(5) 0.33180(14)
H4 H -0.0527 0.7689 0.3649
C7 C 0.03395(12) 0.6444(5) 0.33214(14)
H5 H 0.0311 0.4915 0.3598
C8 C 0.09721(10) 0.6975(4) 0.28982(12)
H6 H 0.1182 0.8555 0.3104
C9 C 0.14905(11) 0.4763(4) 0.29619(13)
H7 H 0.1281 0.3293 0.3212
C10 C 0.21436(10) 0.5385(4) 0.34128(12)
C11 C 0.23757(11) 0.3829(5) 0.40241(13)
H8 H 0.2127 0.2389 0.4153
C12 C 0.29731(12) 0.4379(5) 0.44493(13)
H9 H 0.3126 0.3326 0.4858
C13 C 0.33335(11) 0.6537(5) 0.42474(13)
C14 C 0.31222(11) 0.8109(5) 0.36321(14)
H10 H 0.3376 0.9530 0.3500
C15 C 0.25234(10) 0.7529(6) 0.32135(12)
H11 H 0.2375 0.8571 0.2800
C16 C 0.12642(12) 0.5528(5) 0.08022(13)
C17 C 0.1825(2) 0.6066(10) 0.0512(3)
H12 H 0.2201 0.6457 0.0835
C18 C 0.1867(2) 0.6058(10) -0.0292(3)
H13 H 0.2280 0.6480 -0.0489
C19 C 0.13505(13) 0.5480(5) -0.08175(14)
C20 C 0.0699(2) 0.4892(9) -0.0441(3)
H14 H 0.0316 0.4538 -0.0756
C21 C 0.0655(2) 0.4863(9) 0.0365(3)
H15 H 0.0259 0.4445 0.0602
C22 C 0.13942(14) 0.5451(6) -0.16915(15)
H16 H 0.0955 0.5735 -0.1934
H17 H 0.1562 0.3814 -0.1852
H18 H 0.1694 0.6785 -0.1845
C23? C 0.1218(2) 0.3310(9) 0.0363(3)
H19? H 0.1150 0.1761 0.0617
C24? C 0.1267(2) 0.3276(9) -0.0443(3)
H20? H 0.1243 0.1732 -0.0715
C25? C 0.1502(3) 0.7764(12) -0.0442(3)
H21? H 0.1627 0.9209 -0.0718
C26? C 0.1460(3) 0.7837(11) 0.0367(3)
H22? H 0.1556 0.9357 0.0634
H23? H 0.1788 0.6376 -0.1832
H24? H 0.1001 0.6252 -0.1930
H25? H 0.1422 0.3707 -0.1869
loop_
_geom_bond_atom_site_label_1
_geom_bond_atom_site_label_2
_geom_bond_site_symmetry_1
_geom_bond_site_symmetry_2
Br1 C13 1_555 1_555
O1 C1 1_555 1_555
N1 C1 1_555 1_555
C1 C9 1_555 1_555
C2 N1 1_555 1_555
C3 C2 1_555 1_555
H1 C3 1_555 1_555
C4 C3 1_555 1_555
H2 C4 1_555 1_555
C5 C4 1_555 1_555
H3 C5 1_555 1_555
C6 C5 1_555 1_555
H4 C6 1_555 1_555
C7 C6 1_555 1_555
H5 C7 1_555 1_555
C8 C2 1_555 1_555
H6 C8 1_555 1_555
C9 C8 1_555 1_555
H7 C9 1_555 1_555
C10 C9 1_555 1_555
C11 C10 1_555 1_555
H8 C11 1_555 1_555
C12 C11 1_555 1_555
H9 C12 1_555 1_555
C13 C12 1_555 1_555
C14 C13 1_555 1_555
H10 C14 1_555 1_555
C15 C10 1_555 1_555
H11 C15 1_555 1_555
C16 N1 1_555 1_555
C17 C16 1_555 1_555
H12 C17 1_555 1_555
C18 C17 1_555 1_555
H13 C18 1_555 1_555
C19 C18 1_555 1_555
C20 C19 1_555 1_555
H14 C20 1_555 1_555
C21 C16 1_555 1_555
H15 C21 1_555 1_555
C22 C19 1_555 1_555
H16 C22 1_555 1_555
H17 C22 1_555 1_555
H18 C22 1_555 1_555
C7 C8 1_555 1_555
C14 C15 1_555 1_555
C20 C21 1_555 1_555

#END
