
#######################################################################
#
#                 Cambridge Crystallographic Data Centre
#                                CCDC 
#
#######################################################################
#
# If this CIF has been generated from an entry in the Cambridge 
# Structural Database, then it will include bibliographic, chemical, 
# crystal, experimental, refinement or atomic coordinate data resulting 
# from the CCDC's data processing and validation procedures.
#
#######################################################################

data_HETBEQ
_chemical_formula_moiety         'C29 H25 Cl2 N3'
_chemical_name_systematic        
1'-benzyl-6-chloro-3'-(6-chloro-1H-indol-3-yl)-5'-ethenylspiro[indole-3,4'-piperidine]
_symmetry_cell_setting           orthorhombic
_symmetry_space_group_name_H-M   'P 21 21 21'
_symmetry_Int_Tables_number      19
_space_group_name_Hall           'P 2ac 2ab'
loop_
_symmetry_equiv_pos_site_id
_symmetry_equiv_pos_as_xyz
1 x,y,z
2 1/2-x,-y,1/2+z
3 -x,1/2+y,1/2-z
4 1/2+x,1/2-y,-z
_cell_length_a                   11.8077(14)
_cell_length_b                   12.6080(16)
_cell_length_c                   16.779(2)
_cell_angle_alpha                90
_cell_angle_beta                 90
_cell_angle_gamma                90
_cell_volume                     2497.91
_exptl_crystal_colour            colorless
_exptl_crystal_description       prismatic
_cell_formula_units_Z            4
loop_
_atom_site_label
_atom_site_type_symbol
_atom_site_fract_x
_atom_site_fract_y
_atom_site_fract_z
Cl1 Cl 0.65628(9) 0.42704(9) 1.09811(8)
Cl2 Cl 0.03350(18) 0.43181(17) 1.33309(9)
N1 N 0.2943(3) 0.3171(3) 0.9451(2)
N2 N -0.0763(3) 0.3908(2) 1.0362(2)
N3 N 0.0319(3) 0.6794(3) 0.8442(2)
C1 C 0.3644(3) 0.3827(3) 0.9866(2)
C2 C 0.4725(3) 0.3642(3) 1.0175(2)
H1 H 0.5088 0.2992 1.0116
C3 C 0.5216(3) 0.4464(3) 1.0566(3)
C4 C 0.4707(4) 0.5455(3) 1.0654(3)
H2 H 0.5084 0.5995 1.0924
C5 C 0.3654(3) 0.5633(3) 1.0344(3)
H3 H 0.3310 0.6293 1.0400
C6 C 0.3097(3) 0.4809(3) 0.9939(2)
C7 C 0.2026(3) 0.4724(3) 0.9551(2)
C8 C 0.1967(4) 0.3712(3) 0.9274(3)
H4 H 0.1352 0.3427 0.9001
C9 C 0.1205(3) 0.5615(3) 0.9441(2)
H5 H 0.1578 0.6244 0.9662
C10 C 0.1013(3) 0.5859(3) 0.8558(2)
H6 H 0.1739 0.5965 0.8300
H7 H 0.0648 0.5256 0.8307
C11 C -0.0784(3) 0.6630(3) 0.8811(3)
H8 H -0.1139 0.6009 0.8579
H9 H -0.1265 0.7237 0.8701
C12 C -0.0686(3) 0.6482(3) 0.9707(3)
H10 H -0.0304 0.7110 0.9921
C13 C 0.0071(3) 0.5500(3) 0.9907(2)
C14 C -0.0553(3) 0.4482(3) 0.9751(2)
H11 H -0.0774 0.4281 0.9241
C15 C -0.0268(3) 0.4450(3) 1.1018(2)
C16 C 0.0245(3) 0.5376(3) 1.0784(2)
C17 C 0.0788(4) 0.5996(4) 1.1344(3)
H12 H 0.1131 0.6632 1.1199
C18 C 0.0811(5) 0.5650(5) 1.2129(3)
H13 H 0.1185 0.6050 1.2513
C19 C 0.0286(5) 0.4723(5) 1.2340(3)
C20 C -0.0264(4) 0.4101(4) 1.1792(3)
H14 H -0.0618 0.3471 1.1938
C21 C -0.1829(4) 0.6424(3) 1.0086(3)
H15 H -0.2365 0.5992 0.9842
C22 C -0.2132(5) 0.6911(4) 1.0711(4)
H16 H -0.1623 0.7352 1.0975
H17 H -0.2864 0.6829 1.0907
C23 C 0.0204(4) 0.7055(4) 0.7598(3)
H18 H -0.0416 0.7552 0.7534
H19 H 0.0012 0.6415 0.7307
C24 C 0.1249(4) 0.7526(4) 0.7242(2)
C25 C 0.1935(4) 0.6953(4) 0.6730(3)
H20 H 0.1754 0.6253 0.6610
C26 C 0.2876(5) 0.7404(6) 0.6400(3)
H21 H 0.3323 0.7011 0.6052
C27 C 0.3168(5) 0.8421(6) 0.6574(3)
H22 H 0.3812 0.8722 0.6350
C28 C 0.2495(5) 0.9002(5) 0.7090(3)
H23 H 0.2691 0.9696 0.7217
C29 C 0.1554(4) 0.8563(4) 0.7408(3)
H24 H 0.1102 0.8966 0.7746
H25 H 0.308(3) 0.257(4) 0.943(2)
loop_
_geom_bond_atom_site_label_1
_geom_bond_atom_site_label_2
_geom_bond_site_symmetry_1
_geom_bond_site_symmetry_2
Cl1 C3 1_555 1_555
Cl2 C19 1_555 1_555
N1 C1 1_555 1_555
N2 C14 1_555 1_555
N3 C10 1_555 1_555
C1 C2 1_555 1_555
C2 H1 1_555 1_555
C3 C2 1_555 1_555
C4 C3 1_555 1_555
H2 C4 1_555 1_555
C5 C4 1_555 1_555
H3 C5 1_555 1_555
C6 C1 1_555 1_555
C7 C6 1_555 1_555
C8 N1 1_555 1_555
H4 C8 1_555 1_555
C9 C7 1_555 1_555
H5 C9 1_555 1_555
C10 C9 1_555 1_555
H6 C10 1_555 1_555
H7 C10 1_555 1_555
C11 N3 1_555 1_555
H8 C11 1_555 1_555
H9 C11 1_555 1_555
C12 C11 1_555 1_555
H10 C12 1_555 1_555
C13 C9 1_555 1_555
C14 C13 1_555 1_555
H11 C14 1_555 1_555
C15 N2 1_555 1_555
C16 C13 1_555 1_555
C17 C16 1_555 1_555
H12 C17 1_555 1_555
C18 C17 1_555 1_555
H13 C18 1_555 1_555
C19 C18 1_555 1_555
C20 C15 1_555 1_555
H14 C20 1_555 1_555
C21 C12 1_555 1_555
H15 C21 1_555 1_555
C22 C21 1_555 1_555
H16 C22 1_555 1_555
H17 C22 1_555 1_555
C23 N3 1_555 1_555
H18 C23 1_555 1_555
H19 C23 1_555 1_555
C24 C23 1_555 1_555
C25 C24 1_555 1_555
H20 C25 1_555 1_555
C26 C25 1_555 1_555
H21 C26 1_555 1_555
C27 C26 1_555 1_555
H22 C27 1_555 1_555
C28 C27 1_555 1_555
H23 C28 1_555 1_555
C29 C24 1_555 1_555
H24 C29 1_555 1_555
H25 N1 1_555 1_555
C5 C6 1_555 1_555
C7 C8 1_555 1_555
C12 C13 1_555 1_555
C15 C16 1_555 1_555
C19 C20 1_555 1_555
C28 C29 1_555 1_555

#END
