
#######################################################################
#
#                 Cambridge Crystallographic Data Centre
#                                CCDC 
#
#######################################################################
#
# If this CIF has been generated from an entry in the Cambridge 
# Structural Database, then it will include bibliographic, chemical, 
# crystal, experimental, refinement or atomic coordinate data resulting 
# from the CCDC's data processing and validation procedures.
#
#######################################################################

data_HETLAW
_chemical_formula_moiety         'C36 H26 N2 O2'
_chemical_name_systematic        
"4,4'-{2,2-bis[4-(pyridin-4-yl)phenyl]ethene-1,1-diyl}diphenol unknown solvate"
_symmetry_cell_setting           monoclinic
_symmetry_space_group_name_H-M   'P 21/c'
_symmetry_Int_Tables_number      14
_space_group_name_Hall           '-P 2ybc'
loop_
_symmetry_equiv_pos_site_id
_symmetry_equiv_pos_as_xyz
1 x,y,z
2 -x,1/2+y,1/2-z
3 -x,-y,-z
4 x,1/2-y,1/2+z
_cell_length_a                   29.8205(5)
_cell_length_b                   8.8627(2)
_cell_length_c                   25.1375(4)
_cell_angle_alpha                90
_cell_angle_beta                 110.0500(10)
_cell_angle_gamma                90
_cell_volume                     6240.95
_exptl_crystal_colour            colorless
_exptl_crystal_description       plate
_cell_formula_units_Z            8
loop_
_atom_site_label
_atom_site_type_symbol
_atom_site_fract_x
_atom_site_fract_y
_atom_site_fract_z
N1 N 0.38279(6) 1.2933(2) 0.71665(7)
N2 N -0.12257(6) 1.2050(2) 0.48915(7)
O1 O 0.33079(5) 1.17670(17) 0.35245(5)
H1 H 0.3518 1.1509 0.3860
O2 O -0.01202(5) 1.1331(2) 0.15899(5)
H2 H -0.0413 1.1654 0.1608
C1 C -0.12176(8) 1.1457(3) 0.44060(9)
H3 H -0.1505 1.1041 0.4152
C2 C -0.08154(7) 1.1413(3) 0.42516(8)
H4 H -0.0830 1.0962 0.3903
C3 C -0.03891(7) 1.2029(2) 0.46072(8)
C4 C -0.03944(7) 1.2606(3) 0.51186(8)
H5 H -0.0111 1.3009 0.5385
C5 C -0.08131(7) 1.2590(3) 0.52382(9)
H6 H -0.0806 1.2992 0.5591
C6 C 0.00494(7) 1.2079(2) 0.44534(8)
C7 C 0.01669(7) 1.0938(2) 0.41423(8)
H7 H -0.0044 1.0108 0.4010
C8 C 0.05886(7) 1.1003(2) 0.40239(8)
H8 H 0.0663 1.0214 0.3812
C9 C 0.09044(7) 1.2205(2) 0.42103(7)
C10 C 0.07790(8) 1.3351(3) 0.45125(9)
H9 H 0.0987 1.4190 0.4641
C11 C 0.03592(8) 1.3291(3) 0.46282(9)
H10 H 0.0281 1.4094 0.4831
C12 C 0.13784(6) 1.2267(2) 0.41361(7)
C13 C 0.14450(6) 1.1997(2) 0.36360(7)
C14 C 0.10344(6) 1.1864(2) 0.30941(7)
C15 C 0.06532(7) 1.2872(2) 0.29502(8)
H11 H 0.0656 1.3677 0.3201
C16 C 0.02690(7) 1.2729(3) 0.24502(8)
H12 H 0.0017 1.3445 0.2357
C17 C 0.02534(7) 1.1532(3) 0.20835(8)
C18 C 0.06311(7) 1.0525(3) 0.22185(8)
H13 H 0.0625 0.9710 0.1971
C19 C 0.10182(7) 1.0703(2) 0.27135(7)
H14 H 0.1278 1.0018 0.2795
C20 C 0.38510(7) 1.3102(3) 0.66479(8)
H15 H 0.4157 1.3194 0.6613
C21 C 0.34547(7) 1.3151(3) 0.61591(8)
H16 H 0.3492 1.3295 0.5802
C22 C 0.30013(7) 1.2987(2) 0.61925(7)
C23 C 0.29783(7) 1.2819(2) 0.67333(8)
H17 H 0.2677 1.2711 0.6781
C24 C 0.33890(7) 1.2808(3) 0.71970(8)
H18 H 0.3361 1.2706 0.7561
C25 C 0.25699(7) 1.2931(2) 0.56802(7)
C26 C 0.21958(7) 1.1960(2) 0.56547(7)
H19 H 0.2207 1.1402 0.5982
C27 C 0.18093(7) 1.1796(2) 0.51610(7)
H20 H 0.1559 1.1125 0.5154
C28 C 0.17807(7) 1.2598(2) 0.46734(7)
C29 C 0.21384(7) 1.3633(2) 0.47076(7)
H21 H 0.2115 1.4241 0.4388
C30 C 0.25293(7) 1.3797(2) 0.51992(7)
H22 H 0.2772 1.4503 0.5211
C31 C 0.28650(6) 1.1765(2) 0.35628(7)
C32 C 0.27495(7) 1.0987(2) 0.39774(7)
H23 H 0.2989 1.0425 0.4254
C33 C 0.22928(6) 1.1021(2) 0.39927(7)
H24 H 0.2222 1.0465 0.4277
C34 C 0.19305(6) 1.1853(2) 0.35998(7)
C35 C 0.20499(7) 1.2596(2) 0.31765(8)
H25 H 0.1810 1.3144 0.2894
C36 C 0.25079(7) 1.2552(3) 0.31578(8)
H26 H 0.2578 1.3067 0.2864
N3 N 0.90617(6) 1.3104(2) 0.68080(7)
N4 N 0.40569(6) 1.1192(2) 0.44931(7)
O3 O 0.79288(5) 1.32900(18) 1.01178(5)
O4 O 0.45334(5) 1.22396(17) 0.81498(5)
H27 H 0.4273 1.2521 0.7781
C37 C 0.86362(7) 1.2732(3) 0.64356(8)
H28 H 0.8619 1.2455 0.6064
C38 C 0.82182(7) 1.2726(3) 0.65589(8)
H29 H 0.7924 1.2462 0.6275
C39 C 0.82312(7) 1.3110(2) 0.71017(7)
C40 C 0.86719(7) 1.3514(3) 0.74834(8)
H30 H 0.8699 1.3807 0.7857
C41 C 0.90707(7) 1.3495(3) 0.73262(9)
H31 H 0.9368 1.3774 0.7600
C42 C 0.77924(6) 1.3047(2) 0.72502(7)
C43 C 0.74563(7) 1.1931(2) 0.70112(8)
H32 H 0.7521 1.1188 0.6775
C44 C 0.70288(7) 1.1887(2) 0.71116(7)
H33 H 0.6805 1.1114 0.6943
C45 C 0.69205(6) 1.2955(2) 0.74559(7)
C46 C 0.72648(7) 1.4050(2) 0.77088(7)
H34 H 0.7204 1.4776 0.7954
C47 C 0.76931(7) 1.4094(2) 0.76084(7)
H35 H 0.7922 1.4848 0.7786
C48 C 0.64470(6) 1.2879(2) 0.75325(7)
C49 C 0.63854(6) 1.2939(2) 0.80413(7)
C50 C 0.67925(6) 1.2989(2) 0.85886(7)
C51 C 0.67852(7) 1.3995(2) 0.90112(7)
H36 H 0.6516 1.4630 0.8951
C52 C 0.71630(7) 1.4085(2) 0.95168(7)
H37 H 0.7151 1.4784 0.9798
C53 C 0.75574(7) 1.3166(2) 0.96162(7)
C54 C 0.75646(7) 1.2123(2) 0.92070(7)
H38 H 0.7830 1.1465 0.9275
C55 C 0.71863(7) 1.2037(2) 0.86994(7)
H39 H 0.7195 1.1320 0.8423
C56 C 0.40729(8) 1.0738(3) 0.50036(9)
H40 H 0.3804 1.0215 0.5031
C57 C 0.44550(7) 1.0976(3) 0.54962(8)
H41 H 0.4448 1.0599 0.5847
C58 C 0.48508(7) 1.1774(2) 0.54746(7)
C59 C 0.48346(7) 1.2256(3) 0.49388(8)
H42 H 0.5095 1.2799 0.4897
C60 C 0.44398(7) 1.1943(3) 0.44710(8)
H43 H 0.4439 1.2280 0.4112
C61 C 0.52663(7) 1.2076(2) 0.59914(7)
C62 C 0.54010(7) 1.1009(2) 0.64239(7)
H44 H 0.5230 1.0087 0.6380
C63 C 0.57801(7) 1.1274(2) 0.69153(7)
H45 H 0.5865 1.0529 0.7205
C64 C 0.60391(6) 1.2601(2) 0.69963(7)
C65 C 0.59102(7) 1.3671(2) 0.65617(7)
H46 H 0.6085 1.4585 0.6605
C66 C 0.55277(7) 1.3406(2) 0.60673(8)
H47 H 0.5443 1.4145 0.5776
C67 C 0.59010(6) 1.2876(2) 0.80867(7)
C68 C 0.55200(7) 1.3745(2) 0.77505(7)
H48 H 0.5573 1.4480 0.7504
C69 C 0.50652(7) 1.3558(2) 0.77693(7)
H49 H 0.4811 1.4164 0.7536
C70 C 0.49776(6) 1.2492(2) 0.81252(7)
C71 C 0.53565(7) 1.1664(2) 0.84848(8)
H50 H 0.5304 1.0960 0.8742
C72 C 0.58105(7) 1.1873(2) 0.84655(7)
H51 H 0.6068 1.1316 0.8718
H52 H 0.8223(10) 1.299(3) 1.0061(11)
loop_
_geom_bond_atom_site_label_1
_geom_bond_atom_site_label_2
_geom_bond_site_symmetry_1
_geom_bond_site_symmetry_2
N1 C20 1_555 1_555
N2 C1 1_555 1_555
O1 H1 1_555 1_555
O2 H2 1_555 1_555
C1 H3 1_555 1_555
C2 C1 1_555 1_555
H4 C2 1_555 1_555
C3 C2 1_555 1_555
C4 C3 1_555 1_555
H5 C4 1_555 1_555
C5 N2 1_555 1_555
H6 C5 1_555 1_555
C6 C3 1_555 1_555
C7 C6 1_555 1_555
H7 C7 1_555 1_555
C8 C7 1_555 1_555
H8 C8 1_555 1_555
C9 C8 1_555 1_555
C10 C9 1_555 1_555
H9 C10 1_555 1_555
C11 C6 1_555 1_555
H10 C11 1_555 1_555
C12 C9 1_555 1_555
C13 C12 1_555 1_555
C14 C13 1_555 1_555
C15 C14 1_555 1_555
H11 C15 1_555 1_555
C16 C15 1_555 1_555
H12 C16 1_555 1_555
C17 O2 1_555 1_555
C18 C17 1_555 1_555
H13 C18 1_555 1_555
C19 C14 1_555 1_555
H14 C19 1_555 1_555
C20 H15 1_555 1_555
C21 C20 1_555 1_555
H16 C21 1_555 1_555
C22 C21 1_555 1_555
C23 C22 1_555 1_555
H17 C23 1_555 1_555
C24 N1 1_555 1_555
H18 C24 1_555 1_555
C25 C22 1_555 1_555
C26 C25 1_555 1_555
H19 C26 1_555 1_555
C27 C26 1_555 1_555
H20 C27 1_555 1_555
C28 C12 1_555 1_555
C29 C28 1_555 1_555
H21 C29 1_555 1_555
C30 C25 1_555 1_555
H22 C30 1_555 1_555
C31 O1 1_555 1_555
C32 C31 1_555 1_555
H23 C32 1_555 1_555
C33 C32 1_555 1_555
H24 C33 1_555 1_555
C34 C13 1_555 1_555
C35 C34 1_555 1_555
H25 C35 1_555 1_555
C36 C31 1_555 1_555
H26 C36 1_555 1_555
N3 C37 1_555 1_555
N4 C56 1_555 1_555
O3 C53 1_555 1_555
O4 H27 1_555 1_555
C37 H28 1_555 1_555
C38 C37 1_555 1_555
H29 C38 1_555 1_555
C39 C38 1_555 1_555
C40 C39 1_555 1_555
H30 C40 1_555 1_555
C41 N3 1_555 1_555
H31 C41 1_555 1_555
C42 C39 1_555 1_555
C43 C42 1_555 1_555
H32 C43 1_555 1_555
C44 C43 1_555 1_555
H33 C44 1_555 1_555
C45 C44 1_555 1_555
C46 C45 1_555 1_555
H34 C46 1_555 1_555
C47 C42 1_555 1_555
H35 C47 1_555 1_555
C48 C45 1_555 1_555
C49 C48 1_555 1_555
C50 C49 1_555 1_555
C51 C50 1_555 1_555
H36 C51 1_555 1_555
C52 C51 1_555 1_555
H37 C52 1_555 1_555
C53 C52 1_555 1_555
C54 C53 1_555 1_555
H38 C54 1_555 1_555
C55 C50 1_555 1_555
H39 C55 1_555 1_555
C56 H40 1_555 1_555
C57 C56 1_555 1_555
H41 C57 1_555 1_555
C58 C57 1_555 1_555
C59 C58 1_555 1_555
H42 C59 1_555 1_555
C60 N4 1_555 1_555
H43 C60 1_555 1_555
C61 C58 1_555 1_555
C62 C61 1_555 1_555
H44 C62 1_555 1_555
C63 C62 1_555 1_555
H45 C63 1_555 1_555
C64 C48 1_555 1_555
C65 C64 1_555 1_555
H46 C65 1_555 1_555
C66 C61 1_555 1_555
H47 C66 1_555 1_555
C67 C49 1_555 1_555
C68 C67 1_555 1_555
H48 C68 1_555 1_555
C69 C68 1_555 1_555
H49 C69 1_555 1_555
C70 O4 1_555 1_555
C71 C70 1_555 1_555
H50 C71 1_555 1_555
C72 C67 1_555 1_555
H51 C72 1_555 1_555
H52 O3 1_555 1_555
C4 C5 1_555 1_555
C10 C11 1_555 1_555
C16 C17 1_555 1_555
C18 C19 1_555 1_555
C23 C24 1_555 1_555
C27 C28 1_555 1_555
C29 C30 1_555 1_555
C33 C34 1_555 1_555
C35 C36 1_555 1_555
C40 C41 1_555 1_555
C46 C47 1_555 1_555
C54 C55 1_555 1_555
C59 C60 1_555 1_555
C63 C64 1_555 1_555
C65 C66 1_555 1_555
C69 C70 1_555 1_555
C71 C72 1_555 1_555

#END
