
#######################################################################
#
#                 Cambridge Crystallographic Data Centre
#                                CCDC 
#
#######################################################################
#
# If this CIF has been generated from an entry in the Cambridge 
# Structural Database, then it will include bibliographic, chemical, 
# crystal, experimental, refinement or atomic coordinate data resulting 
# from the CCDC's data processing and validation procedures.
#
#######################################################################

data_HETVOS
_chemical_formula_moiety         '2(C8 H8 N1 O4 1+),O4 S1 2-,2(H2 O1)'
_chemical_name_systematic        
'bis(5-Ammonioisophthalic acid) sulfate dihydrate'
_symmetry_cell_setting           orthorhombic
_symmetry_space_group_name_H-M   'P n m a'
_symmetry_Int_Tables_number      62
_space_group_name_Hall           '-P 2ac 2n'
loop_
_symmetry_equiv_pos_site_id
_symmetry_equiv_pos_as_xyz
1 x,y,z
2 1/2-x,-y,1/2+z
3 1/2+x,1/2-y,1/2-z
4 -x,1/2+y,-z
5 -x,-y,-z
6 1/2+x,y,1/2-z
7 1/2-x,1/2+y,1/2+z
8 x,1/2-y,z
_cell_length_a                   22.9226(6)
_cell_length_b                   27.2080(8)
_cell_length_c                   6.55500(10)
_cell_angle_alpha                90
_cell_angle_beta                 90
_cell_angle_gamma                90
_cell_volume                     4088.21
_exptl_crystal_colour            yellow
_exptl_crystal_description       prism
_cell_formula_units_Z            8
loop_
_atom_site_label
_atom_site_type_symbol
_atom_site_fract_x
_atom_site_fract_y
_atom_site_fract_z
O1 O 0.21914(19) -0.01423(16) 0.2167(7)
H1 H 0.2176 -0.0443 0.2246
O2 O 0.3143(2) -0.02794(17) 0.2231(9)
O3 O 0.45325(17) 0.11111(14) 0.2099(6)
O4 O 0.41704(17) 0.18645(14) 0.1893(7)
H2 H 0.4517 0.1933 0.1761
N1 N 0.1981(2) 0.1721(2) 0.2184(8)
H3 H 0.158(3) 0.153(3) 0.199(10)
H4 H 0.203(3) 0.196(2) 0.115(10)
H5 H 0.200(2) 0.187(2) 0.352(9)
C1 C 0.2814(3) 0.0548(2) 0.2150(9)
C2 C 0.3385(2) 0.0713(2) 0.2107(8)
H6 H 0.3691 0.0489 0.2131
C3 C 0.3499(2) 0.1216(2) 0.2028(8)
C4 C 0.3030(2) 0.1545(2) 0.2027(9)
H7 H 0.3097 0.1881 0.1957
C5 C 0.2470(3) 0.1366(2) 0.2131(8)
C6 C 0.2354(3) 0.0872(2) 0.2154(9)
H8 H 0.1972 0.0758 0.2172
C7 C 0.2740(3) -0.0001(3) 0.2183(10)
C8 C 0.4109(2) 0.1386(2) 0.2012(9)
O5 O 0.33281(19) 0.18646(14) 0.6801(7)
H9 H 0.2982 0.1941 0.6858
O6 O 0.29713(17) 0.11049(15) 0.7012(7)
O7 O 0.4363(2) -0.02898(17) 0.7300(9)
O8 O 0.53073(18) -0.01358(16) 0.7681(7)
H10 H 0.5335 -0.0436 0.7612
N2 N 0.5519(3) 0.1719(2) 0.7352(8)
H11 H 0.548(3) 0.196(3) 0.634(10)
H12 H 0.585(3) 0.158(3) 0.725(9)
H13 H 0.550(3) 0.189(3) 0.869(11)
C9 C 0.4007(2) 0.1216(2) 0.7083(9)
C10 C 0.4118(3) 0.0714(2) 0.7180(8)
H14 H 0.3806 0.0496 0.7143
C11 C 0.4677(2) 0.0533(2) 0.7330(8)
C12 C 0.5151(3) 0.0866(2) 0.7377(8)
H15 H 0.5532 0.0754 0.7498
C13 C 0.5029(2) 0.1370(2) 0.7238(9)
C14 C 0.4467(3) 0.1545(2) 0.7095(8)
H16 H 0.4397 0.1881 0.7006
C15 C 0.3380(3) 0.1384(2) 0.6979(9)
C16 C 0.4767(3) -0.0008(2) 0.7442(8)
S1 S 0.05067(10) 0.2500 0.2542(3)
O9 O 0.1134(3) 0.2500 0.2524(9)
O10 O 0.02783(16) 0.20592(13) 0.3639(6)
O11 O 0.0266(2) 0.2500 0.0472(8)
O10G O 0.02783(16) 0.29408(13) 0.3639(6)
S2 S 0.19965(9) 0.2500 0.7301(3)
O12 O 0.1367(3) 0.2500 0.7309(9)
O13 O 0.22323(17) 0.20601(13) 0.6199(6)
O14 O 0.2246(2) 0.2500 0.9386(8)
O13G O 0.22323(17) 0.29399(13) 0.6199(6)
O15 O 0.1592(2) 0.12668(19) 0.7784(10)
H17 H 0.187(2) 0.1468(19) 0.727(12)
H18 H 0.166(3) 0.0947(9) 0.747(12)
O16 O 0.0901(2) 0.1275(2) 0.2046(10)
H19 H 0.077(4) 0.0972(13) 0.166(10)
H20 H 0.097(4) 0.129(3) 0.342(3)
loop_
_geom_bond_atom_site_label_1
_geom_bond_atom_site_label_2
_geom_bond_site_symmetry_1
_geom_bond_site_symmetry_2
O1 H1 1_555 1_555
O2 C7 1_555 1_555
O3 C8 1_555 1_555
O4 H2 1_555 1_555
N1 H3 1_555 1_555
H4 N1 1_555 1_555
H5 N1 1_555 1_555
C1 C2 1_555 1_555
C2 H6 1_555 1_555
C3 C2 1_555 1_555
C4 C3 1_555 1_555
H7 C4 1_555 1_555
C5 N1 1_555 1_555
C6 C1 1_555 1_555
H8 C6 1_555 1_555
C7 O1 1_555 1_555
C8 O4 1_555 1_555
O5 H9 1_555 1_555
O6 C15 1_555 1_555
O7 C16 1_555 1_555
O8 H10 1_555 1_555
N2 H11 1_555 1_555
H12 N2 1_555 1_555
H13 N2 1_555 1_555
C9 C10 1_555 1_555
C10 H14 1_555 1_555
C11 C10 1_555 1_555
C12 C11 1_555 1_555
H15 C12 1_555 1_555
C13 N2 1_555 1_555
C14 C9 1_555 1_555
H16 C14 1_555 1_555
C15 O5 1_555 1_555
C16 O8 1_555 1_555
S1 O9 1_555 1_555
O10 S1 1_555 1_555
O11 S1 1_555 1_555
S2 O12 1_555 1_555
O13 S2 1_555 1_555
O14 S2 1_555 1_555
O15 H17 1_555 1_555
H18 O15 1_555 1_555
O16 H19 1_555 1_555
H20 O16 1_555 1_555
O10G S1 1_555 1_555
O13G S2 1_555 1_555
C1 C7 1_555 1_555
C3 C8 1_555 1_555
C4 C5 1_555 1_555
C5 C6 1_555 1_555
C9 C15 1_555 1_555
C11 C16 1_555 1_555
C12 C13 1_555 1_555
C13 C14 1_555 1_555

#END
