
#######################################################################
#
#                 Cambridge Crystallographic Data Centre
#                                CCDC 
#
#######################################################################
#
# If this CIF has been generated from an entry in the Cambridge 
# Structural Database, then it will include bibliographic, chemical, 
# crystal, experimental, refinement or atomic coordinate data resulting 
# from the CCDC's data processing and validation procedures.
#
#######################################################################

data_HETWEL
_chemical_name_common            
"(4bR*,4cS*,15bR*,15cS*)-10-t-butyl-4b,4c,15b,15c-tetrahydrobenzo[7,8]corannuleno[1',2':1,2]indolizino[6,5,4,3-def]phenanthridine dichloromethane solvate"
_chemical_formula_moiety         'C44 H31 N1,C1 H2 Cl2'
_chemical_name_systematic        
"6-t-butyl-11b,11c,19b,19c-tetrahydrobenzo[7,8]dibenzo[1',10':6',7']fluorantheno[2',3':1,2]indolizino[6,5,4,3-def]phenanthridine dichloromethane solvate"
_symmetry_cell_setting           triclinic
_symmetry_space_group_name_H-M   'P -1'
_symmetry_Int_Tables_number      2
_space_group_name_Hall           '-P 1'
loop_
_symmetry_equiv_pos_site_id
_symmetry_equiv_pos_as_xyz
1 x,y,z
2 -x,-y,-z
_cell_length_a                   8.604(3)
_cell_length_b                   11.748(5)
_cell_length_c                   16.357(7)
_cell_angle_alpha                89.359(13)
_cell_angle_beta                 83.114(12)
_cell_angle_gamma                75.306(11)
_cell_volume                     1587.43
_exptl_crystal_colour            colorless
_exptl_crystal_description       Block
_chemical_melting_point          '422-424 K'
_cell_formula_units_Z            2
_exptl_crystal_recrystallization_method dichloromethane/hexane
loop_
_atom_site_label
_atom_site_type_symbol
_atom_site_fract_x
_atom_site_fract_y
_atom_site_fract_z
Cl1 Cl 0.3079(2) 0.99836(17) 0.31084(12)
Cl2 Cl 0.5892(2) 1.00792(17) 0.39087(12)
C1 C 0.3760(9) 1.0518(7) 0.3969(4)
H1 H 0.339340 1.138751 0.399469
H2 H 0.328259 1.021315 0.448005
N1 N 0.2570(6) 0.5791(5) 0.2049(3)
C2 C 0.1370(7) 0.5147(6) 0.6004(4)
C3 C 0.3642(8) 0.4389(5) 0.4048(4)
C4 C 0.3704(8) 0.7366(6) 0.1451(4)
C5 C 0.2160(8) 0.8218(6) 0.1743(4)
C6 C 0.4718(8) 0.2817(6) 0.4999(4)
H3 H 0.549847 0.210783 0.508768
C7 C 0.4361(8) 0.2581(6) 0.2184(4)
H4 H 0.365797 0.238492 0.262529
C8 C 0.4310(8) 0.3758(6) 0.2030(4)
C9 C 0.6384(8) 0.3148(6) 0.0877(4)
H5 H 0.706466 0.333486 0.042240
C10 C 0.5028(8) 0.7700(6) 0.1028(4)
H6 H 0.494012 0.851549 0.094934
C11 C 0.7936(8) 0.7285(6) 0.0305(4)
C12 C 0.2394(8) 0.4792(6) 0.4645(4)
C13 C 0.2315(8) 0.4285(6) 0.5433(4)
C14 C 0.1117(8) 0.7867(6) 0.2356(4)
C15 C 0.3121(8) 0.4721(5) 0.2541(4)
H7 H 0.215434 0.442742 0.274669
C16 C 0.5335(8) 0.4067(6) 0.1377(4)
C17 C 0.1683(8) 0.9332(6) 0.1410(4)
H8 H 0.236956 0.956429 0.097695
C18 C 0.1612(8) 0.6650(5) 0.2690(4)
H9 H 0.060843 0.639925 0.289310
C19 C 0.0855(8) 0.6203(6) 0.5582(4)
C20 C 0.1525(8) 0.5095(6) 0.6838(4)
C21 C -0.0802(8) 0.9764(6) 0.2327(4)
H10 H -0.179786 1.029711 0.253234
C22 C 0.0230(8) 1.0101(6) 0.1701(4)
H11 H -0.006873 1.086268 0.147451
C23 C 0.1693(8) 0.6897(6) 0.4240(4)
C24 C 0.3475(8) 0.3315(6) 0.5657(4)
C25 C -0.0363(8) 0.8641(6) 0.2648(4)
H12 H -0.107093 0.839998 0.306609
C26 C 0.6436(9) 0.1988(6) 0.1038(4)
H13 H 0.716102 0.138298 0.069902
C27 C 0.3846(8) 0.6161(6) 0.1594(4)
C28 C 0.6453(8) 0.6911(6) 0.0718(4)
C29 C 0.2691(8) 0.6518(6) 0.3409(4)
H14 H 0.344048 0.704167 0.329337
C30 C 0.3756(8) 0.5178(6) 0.3297(4)
H15 H 0.491544 0.517992 0.314241
C31 C 0.4805(8) 0.3346(6) 0.4239(4)
H16 H 0.567191 0.300210 0.382942
C32 C 0.3404(8) 0.3143(6) 0.6538(4)
H17 H 0.400578 0.242012 0.673360
C33 C 0.6490(8) 0.5717(6) 0.0821(4)
H18 H 0.742369 0.514831 0.058261
C34 C 0.0492(8) 0.7294(6) 0.5976(4)
C35 C 0.1454(8) 0.6012(6) 0.4749(4)
C36 C 0.1118(8) 0.8053(6) 0.4596(4)
H19 H 0.112350 0.871053 0.425311
C37 C 0.0913(8) 0.6220(6) 0.7274(4)
H20 H 0.085889 0.624121 0.785732
C38 C 0.5253(8) 0.5318(6) 0.1248(4)
C39 C 0.5426(9) 0.1695(6) 0.1699(4)
H21 H 0.547278 0.089358 0.181313
C40 C 0.0545(8) 0.8253(6) 0.5434(4)
H22 H 0.018545 0.903703 0.564689
C41 C 0.0410(9) 0.7252(7) 0.6869(5)
H23 H -0.000556 0.796334 0.718183
C42 C 0.2505(9) 0.3981(6) 0.7102(4)
H24 H 0.252058 0.383326 0.767356
C43 C 0.8313(10) 0.6867(7) -0.0597(4)
H25 H 0.847879 0.601096 -0.062656
H26 H 0.929635 0.707498 -0.084527
H27 H 0.740542 0.724703 -0.089730
C44 C 0.7666(10) 0.8616(7) 0.0341(5)
H28 H 0.675690 0.898606 0.003862
H29 H 0.864533 0.882691 0.009083
H30 H 0.742021 0.889216 0.091654
C45 C 0.9412(9) 0.6734(7) 0.0771(5)
H31 H 0.913995 0.695191 0.135703
H32 H 1.033964 0.702755 0.054289
H33 H 0.968716 0.587520 0.070672
loop_
_geom_bond_atom_site_label_1
_geom_bond_atom_site_label_2
_geom_bond_site_symmetry_1
_geom_bond_site_symmetry_2
Cl1 C1 1_555 1_555
Cl2 C1 1_555 1_555
C1 H1 1_555 1_555
H2 C1 1_555 1_555
N1 C15 1_555 1_555
C2 C13 1_555 1_555
C3 C12 1_555 1_555
C4 C5 1_555 1_555
C5 C14 1_555 1_555
C6 H3 1_555 1_555
C7 H4 1_555 1_555
C8 C7 1_555 1_555
C9 H5 1_555 1_555
C10 C4 1_555 1_555
H6 C10 1_555 1_555
C11 C28 1_555 1_555
C12 C13 1_555 1_555
C13 C24 1_555 1_555
C14 C18 1_555 1_555
C15 C8 1_555 1_555
H7 C15 1_555 1_555
C16 C8 1_555 1_555
C17 C5 1_555 1_555
H8 C17 1_555 1_555
C18 N1 1_555 1_555
H9 C18 1_555 1_555
C19 C2 1_555 1_555
C20 C2 1_555 1_555
C21 H10 1_555 1_555
C22 C17 1_555 1_555
H11 C22 1_555 1_555
C23 C29 1_555 1_555
C24 C6 1_555 1_555
C25 C14 1_555 1_555
H12 C25 1_555 1_555
C26 C9 1_555 1_555
H13 C26 1_555 1_555
C27 N1 1_555 1_555
C28 C10 1_555 1_555
C29 C18 1_555 1_555
H14 C29 1_555 1_555
C30 C3 1_555 1_555
H15 C30 1_555 1_555
C31 C3 1_555 1_555
H16 C31 1_555 1_555
C32 C24 1_555 1_555
H17 C32 1_555 1_555
C33 C28 1_555 1_555
H18 C33 1_555 1_555
C34 C19 1_555 1_555
C35 C12 1_555 1_555
C36 C23 1_555 1_555
H19 C36 1_555 1_555
C37 C20 1_555 1_555
H20 C37 1_555 1_555
C38 C16 1_555 1_555
C39 C7 1_555 1_555
H21 C39 1_555 1_555
C40 C34 1_555 1_555
H22 C40 1_555 1_555
C41 C34 1_555 1_555
H23 C41 1_555 1_555
C42 C20 1_555 1_555
H24 C42 1_555 1_555
C43 C11 1_555 1_555
H25 C43 1_555 1_555
H26 C43 1_555 1_555
H27 C43 1_555 1_555
C44 C11 1_555 1_555
H28 C44 1_555 1_555
H29 C44 1_555 1_555
H30 C44 1_555 1_555
C45 C11 1_555 1_555
H31 C45 1_555 1_555
H32 C45 1_555 1_555
H33 C45 1_555 1_555
C4 C27 1_555 1_555
C6 C31 1_555 1_555
C9 C16 1_555 1_555
C15 C30 1_555 1_555
C19 C35 1_555 1_555
C21 C22 1_555 1_555
C21 C25 1_555 1_555
C23 C35 1_555 1_555
C26 C39 1_555 1_555
C27 C38 1_555 1_555
C29 C30 1_555 1_555
C32 C42 1_555 1_555
C33 C38 1_555 1_555
C36 C40 1_555 1_555
C37 C41 1_555 1_555

#END
