
#######################################################################
#
#                 Cambridge Crystallographic Data Centre
#                                CCDC 
#
#######################################################################
#
# If this CIF has been generated from an entry in the Cambridge 
# Structural Database, then it will include bibliographic, chemical, 
# crystal, experimental, refinement or atomic coordinate data resulting 
# from the CCDC's data processing and validation procedures.
#
#######################################################################

data_HETWAH
_chemical_formula_moiety         'C28 H29 N1 O2'
_chemical_name_systematic        
9,11-di-t-butyl-6-methoxy[1]benzopyrano[4,3,2-gh]phenanthridine
_symmetry_cell_setting           orthorhombic
_symmetry_space_group_name_H-M   'P b c m'
_symmetry_Int_Tables_number      57
_space_group_name_Hall           '-P 2c 2b'
loop_
_symmetry_equiv_pos_site_id
_symmetry_equiv_pos_as_xyz
1 x,y,z
2 -x,-y,1/2+z
3 -x,1/2+y,1/2-z
4 x,1/2-y,-z
5 -x,-y,-z
6 x,y,1/2-z
7 x,1/2-y,1/2+z
8 -x,1/2+y,z
_cell_length_a                   12.2621(12)
_cell_length_b                   25.215(3)
_cell_length_c                   7.1279(7)
_cell_angle_alpha                90
_cell_angle_beta                 90
_cell_angle_gamma                90
_cell_volume                     2203.87
_exptl_crystal_colour            yellow
_exptl_crystal_description       needle
_cell_formula_units_Z            4
loop_
_atom_site_label
_atom_site_type_symbol
_atom_site_fract_x
_atom_site_fract_y
_atom_site_fract_z
O1 O 0.8240(3) 0.31785(14) 0.7500
C1 C 0.7562(5) 0.2745(2) 0.7500
C2 C 0.8061(4) 0.2256(2) 0.7500
H1 H 0.8834 0.2230 0.7500
C3 C 0.7413(5) 0.1796(2) 0.7500
C4 C 0.6291(4) 0.1839(2) 0.7500
H2 H 0.5858 0.1526 0.7500
C5 C 0.5783(4) 0.2334(2) 0.7500
C6 C 0.4614(4) 0.2422(2) 0.7500
C7 C 0.3860(5) 0.2003(2) 0.7500
H3 H 0.4118 0.1648 0.7500
C8 C 0.2763(5) 0.2097(2) 0.7500
H4 H 0.2267 0.1808 0.7500
C9 C 0.2369(5) 0.2615(2) 0.7500
H5 H 0.1605 0.2680 0.7500
C10 C 0.3081(4) 0.3028(2) 0.7500
H6 H 0.2806 0.3381 0.7500
C11 C 0.4214(4) 0.2945(2) 0.7500
N1 N 0.4886(4) 0.33883(16) 0.7500
C12 C 0.5940(4) 0.3307(2) 0.7500
C13 C 0.6430(4) 0.27906(19) 0.7500
O2 O 0.7997(3) 0.13385(13) 0.7500
C14 C 0.7416(4) 0.08509(19) 0.7500
H7 H 0.7934 0.0555 0.7500
H8 H 0.6957 0.0831 0.8623
C15 C 0.6686(4) 0.3767(2) 0.7500
C16 C 0.7802(5) 0.36868(19) 0.7500
C17 C 0.8545(4) 0.4103(2) 0.7500
C18 C 0.8104(4) 0.4608(2) 0.7500
H9 H 0.8592 0.4901 0.7500
C19 C 0.6981(4) 0.47139(19) 0.7500
C20 C 0.6299(4) 0.4285(2) 0.7500
H10 H 0.5533 0.4344 0.7500
C21 C 0.9800(4) 0.4010(2) 0.7500
C22 C 1.0142(3) 0.37047(14) 0.5731(5)
H11 H 1.0935 0.3659 0.5725
H12 H 0.9920 0.3904 0.4614
H13 H 0.9788 0.3356 0.5724
C23 C 1.0438(4) 0.4529(2) 0.7500
C24 C 0.6596(4) 0.5295(2) 0.7500
C25 C 0.7026(3) 0.55735(13) 0.9263(6)
H14 H 0.6738 0.5936 0.9314
H15 H 0.7824 0.5585 0.9223
H16 H 0.6790 0.5378 1.0379
C26 C 0.5358(4) 0.5348(2) 0.7500
H8E H 0.6957 0.0831 0.6377
C22E C 1.0142(3) 0.37047(14) 0.9269(5)
H11E H 1.0935 0.3659 0.9275
H12E H 0.9920 0.3904 1.0386
H13E H 0.9788 0.3356 0.9276
C25E C 0.7026(3) 0.55735(13) 0.5737(6)
H14E H 0.6738 0.5936 0.5686
H15E H 0.7824 0.5585 0.5777
H16E H 0.6790 0.5378 0.4621
H17? H 0.6957 0.0831 0.8623
H18? H 0.5061 0.5180 0.8630
H19? H 1.0260 0.4731 0.6367
H20? H 1.1221 0.4452 0.7521
H21? H 1.0243 0.4737 0.8612
H22? H 0.5158 0.5724 0.7514
H23? H 0.5060 0.5173 0.8615
loop_
_geom_bond_atom_site_label_1
_geom_bond_atom_site_label_2
_geom_bond_site_symmetry_1
_geom_bond_site_symmetry_2
O1 C1 1_555 1_555
C1 C2 1_555 1_555
C2 H1 1_555 1_555
C3 C2 1_555 1_555
C4 C3 1_555 1_555
H2 C4 1_555 1_555
C5 C4 1_555 1_555
C6 C5 1_555 1_555
C7 C6 1_555 1_555
H3 C7 1_555 1_555
C8 C7 1_555 1_555
H4 C8 1_555 1_555
C9 C8 1_555 1_555
H5 C9 1_555 1_555
C10 C9 1_555 1_555
H6 C10 1_555 1_555
C11 C6 1_555 1_555
N1 C11 1_555 1_555
C12 N1 1_555 1_555
C13 C1 1_555 1_555
O2 C3 1_555 1_555
C14 O2 1_555 1_555
H7 C14 1_555 1_555
H8 C14 1_555 1_555
C15 C12 1_555 1_555
C16 O1 1_555 1_555
C17 C16 1_555 1_555
C18 C17 1_555 1_555
H9 C18 1_555 1_555
C19 C18 1_555 1_555
C20 C15 1_555 1_555
H10 C20 1_555 1_555
C21 C17 1_555 1_555
C22 C21 1_555 1_555
H11 C22 1_555 1_555
H12 C22 1_555 1_555
H13 C22 1_555 1_555
C23 C21 1_555 1_555
C24 C19 1_555 1_555
C25 C24 1_555 1_555
H14 C25 1_555 1_555
H15 C25 1_555 1_555
H16 C25 1_555 1_555
C26 C24 1_555 1_555
H8E C14 1_555 1_555
C22E C21 1_555 1_555
H11E C22E 1_555 1_555
H12E C22E 1_555 1_555
H13E C22E 1_555 1_555
C25E C24 1_555 1_555
H14E C25E 1_555 1_555
H15E C25E 1_555 1_555
H16E C25E 1_555 1_555
C5 C13 1_555 1_555
C10 C11 1_555 1_555
C12 C13 1_555 1_555
C15 C16 1_555 1_555
C19 C20 1_555 1_555

#END
