
#######################################################################
#
#                 Cambridge Crystallographic Data Centre
#                                CCDC 
#
#######################################################################
#
# If this CIF has been generated from an entry in the Cambridge 
# Structural Database, then it will include bibliographic, chemical, 
# crystal, experimental, refinement or atomic coordinate data resulting 
# from the CCDC's data processing and validation procedures.
#
#######################################################################

data_HETWIP
_chemical_formula_moiety         'C68 H52 N2'
_chemical_name_systematic        
"(7bR*,7cS*,9bR*,9cS*,20bR*,20cS*,24bR*,24cS*)-2,15-di-t-butyl-7b,7c,9b,9c,20b,20c,24b,24c-octahydrocorannuleno[1'',2'':1,2;5'',6'':1',2']dibenzo[7,8:7',8']diindolizino[6,5,4,3-def:6',5',4',3'-d'e'f']diphenanthridine unknown solvate"
_symmetry_cell_setting           monoclinic
_symmetry_space_group_name_H-M   'C 2/c'
_symmetry_Int_Tables_number      15
_space_group_name_Hall           '-C 2yn'
loop_
_symmetry_equiv_pos_site_id
_symmetry_equiv_pos_as_xyz
1 x,y,z
2 -x,y,1/2-z
3 1/2+x,1/2+y,z
4 1/2-x,1/2+y,1/2-z
5 -x,-y,-z
6 x,-y,1/2+z
7 1/2-x,1/2-y,-z
8 1/2+x,1/2-y,1/2+z
_cell_length_a                   27.136(9)
_cell_length_b                   12.127(4)
_cell_length_c                   34.232(12)
_cell_angle_alpha                90
_cell_angle_beta                 94.242(4)
_cell_angle_gamma                90
_cell_volume                     11234.1
_exptl_crystal_colour            colorless
_exptl_crystal_description       Block
_cell_formula_units_Z            8
_exptl_crystal_recrystallization_method dichloromethane/pentane
loop_
_atom_site_label
_atom_site_type_symbol
_atom_site_fract_x
_atom_site_fract_y
_atom_site_fract_z
N1 N 0.50785(13) 0.2977(3) 0.35877(10)
N2 N 0.33384(12) 0.2967(3) 0.08575(10)
C1 C 0.54121(15) -0.0762(3) 0.40253(12)
H1 H 0.552842 -0.148300 0.397378
C2 C 0.46121(15) 0.2745(3) 0.45808(12)
H2 H 0.459321 0.220706 0.478083
C3 C 0.18179(15) 0.3787(3) 0.06109(12)
C4 C 0.47859(18) 0.7076(4) 0.34710(13)
H3 H 0.474548 0.784240 0.351697
C5 C 0.20047(15) 0.2753(3) 0.05249(12)
H4 H 0.178296 0.221115 0.041442
C6 C 0.21672(16) 0.4563(3) 0.07606(12)
H5 H 0.205344 0.528360 0.081495
C7 C 0.51762(15) 0.0614(3) 0.44827(13)
H6 H 0.514149 0.084127 0.474486
C8 C 0.52966(15) -0.0038(3) 0.37167(13)
H7 H 0.534236 -0.026072 0.345581
C9 C 0.25014(15) 0.2476(3) 0.05934(11)
C10 C 0.48367(15) 0.2454(3) 0.42399(12)
C11 C 0.30244(16) 0.5180(3) 0.09854(12)
C12 C 0.44142(16) 0.3793(3) 0.46402(12)
C13 C 0.37264(17) 0.6700(4) 0.13083(13)
H8 H 0.396109 0.721200 0.142079
C14 C 0.46754(15) 0.4323(3) 0.39976(12)
C15 C 0.35446(15) 0.0932(3) 0.16795(12)
C16 C 0.46930(17) 0.6318(3) 0.37613(13)
H9 H 0.459990 0.657270 0.400779
C17 C 0.51120(15) 0.1025(3) 0.37884(12)
C18 C 0.53576(15) -0.0433(3) 0.44092(13)
H10 H 0.544378 -0.092186 0.462028
C19 C 0.50442(15) 0.1337(3) 0.41724(12)
C20 C 0.44498(15) 0.4558(3) 0.43450(12)
H11 H 0.431612 0.527286 0.437776
C21 C 0.34253(16) -0.0210(3) 0.17025(13)
H12 H 0.319377 -0.051646 0.151070
C22 C 0.28349(16) 0.3257(4) 0.07697(12)
C23 C 0.34846(15) 0.4818(3) 0.11561(11)
C24 C 0.48552(15) 0.3246(3) 0.39409(12)
C25 C 0.43606(15) 0.0947(3) 0.29493(12)
C26 C 0.47353(15) 0.5177(3) 0.36944(13)
C27 C 0.29278(17) 0.6325(3) 0.09730(13)
H13 H 0.262359 0.658923 0.085313
C28 C 0.42702(17) -0.0216(3) 0.29974(14)
H14 H 0.433956 -0.053064 0.324956
C29 C 0.41105(16) 0.0618(3) 0.22575(12)
C30 C 0.48717(15) 0.4823(4) 0.33303(12)
C31 C 0.26867(15) 0.1355(3) 0.05211(12)
C32 C 0.38334(16) 0.5569(4) 0.13162(13)
H15 H 0.414237 0.531481 0.143027
C33 C 0.26674(15) 0.4345(3) 0.08342(12)
C34 C 0.39786(17) -0.0470(3) 0.23044(13)
C35 C 0.43663(16) 0.3078(3) 0.31347(12)
H16 H 0.412857 0.341233 0.331032
C36 C 0.49359(18) 0.6720(4) 0.31177(14)
H17 H 0.501090 0.724056 0.292347
C37 C 0.49898(15) 0.1820(3) 0.34642(12)
H18 H 0.521642 0.165937 0.325389
C38 C 0.12678(16) 0.4067(3) 0.05786(13)
C39 C 0.33003(16) -0.0064(3) 0.06722(13)
H19 H 0.359688 -0.029768 0.081276
C40 C 0.41717(16) 0.3306(3) 0.27155(12)
C41 C 0.49780(17) 0.5600(4) 0.30445(13)
H20 H 0.507939 0.535660 0.279910
C42 C 0.40871(17) -0.0902(3) 0.26943(13)
H21 H 0.403299 -0.166111 0.274462
C43 C 0.31325(16) 0.1014(3) 0.07185(13)
C44 C 0.41620(18) 0.4029(3) 0.50222(13)
C45 C 0.43061(15) 0.1299(3) 0.25692(12)
C46 C 0.32791(17) 0.7072(4) 0.11367(14)
H22 H 0.320957 0.784030 0.112982
C47 C 0.48838(15) 0.3613(3) 0.32410(12)
H23 H 0.510026 0.348503 0.302129
C48 C 0.39039(16) 0.4225(3) 0.25587(12)
H24 H 0.388711 0.486747 0.271596
C49 C 0.39028(16) 0.1307(3) 0.19480(12)
C50 C 0.30387(17) -0.0799(4) 0.04228(14)
H25 H 0.315355 -0.153371 0.039661
C51 C 0.42118(15) 0.2444(3) 0.24582(11)
C52 C 0.36644(17) 0.4233(3) 0.21864(13)
H26 H 0.348941 0.487467 0.209688
C53 C 0.39654(15) 0.2444(3) 0.20761(12)
C54 C 0.44500(16) 0.1808(3) 0.32682(12)
H27 H 0.422130 0.164749 0.347708
C55 C 0.36376(18) -0.0896(4) 0.19978(13)
H28 H 0.355542 -0.165797 0.199638
C56 C 0.33538(16) 0.3078(3) 0.15594(12)
H29 H 0.302292 0.341859 0.158849
C57 C 0.26076(17) -0.0453(4) 0.02118(14)
H30 H 0.243139 -0.094824 0.003763
C58 C 0.34109(16) 0.1813(3) 0.09871(12)
H31 H 0.377093 0.163788 0.098617
C59 C 0.32676(16) 0.1805(3) 0.14307(12)
H32 H 0.290619 0.164386 0.143046
C60 C 0.09527(17) 0.3141(4) 0.03802(15)
H33 H 0.105080 0.302748 0.011329
H34 H 0.060290 0.334745 0.037045
H35 H 0.100385 0.245731 0.053051
C61 C 0.11663(18) 0.5122(4) 0.03363(15)
H36 H 0.133432 0.574671 0.046975
H37 H 0.080982 0.526174 0.030819
H38 H 0.129024 0.502806 0.007662
C62 C 0.35699(16) 0.3597(3) 0.11954(12)
H39 H 0.393410 0.345776 0.121211
C63 C 0.36765(15) 0.3295(3) 0.19353(12)
C64 C 0.24334(16) 0.0626(3) 0.02562(12)
H40 H 0.214382 0.086506 0.010727
C65 C 0.10983(18) 0.4251(4) 0.09921(14)
H41 H 0.116142 0.358293 0.114903
H42 H 0.074388 0.441637 0.097479
H43 H 0.128153 0.487014 0.111613
C66 C 0.4511(2) 0.3713(4) 0.53730(13)
H44 H 0.456605 0.291477 0.537243
H45 H 0.436408 0.392592 0.561504
H46 H 0.482676 0.409613 0.535733
C67 C 0.4033(2) 0.5254(4) 0.50564(16)
H47 H 0.387455 0.538006 0.530062
H48 H 0.380668 0.547058 0.483334
H49 H 0.433584 0.569525 0.505730
C68 C 0.3687(2) 0.3342(5) 0.50209(15)
H50 H 0.377020 0.255626 0.501476
H51 H 0.346924 0.352880 0.478915
H52 H 0.351842 0.350288 0.525782
loop_
_geom_bond_atom_site_label_1
_geom_bond_atom_site_label_2
_geom_bond_site_symmetry_1
_geom_bond_site_symmetry_2
N1 C24 1_555 1_555
N2 C22 1_555 1_555
C1 H1 1_555 1_555
C2 H2 1_555 1_555
C3 C5 1_555 1_555
C4 H3 1_555 1_555
C5 H4 1_555 1_555
C6 C3 1_555 1_555
H5 C6 1_555 1_555
C7 H6 1_555 1_555
C8 C1 1_555 1_555
H7 C8 1_555 1_555
C9 C5 1_555 1_555
C10 C2 1_555 1_555
C11 C23 1_555 1_555
C12 C2 1_555 1_555
C13 H8 1_555 1_555
C14 C20 1_555 1_555
C15 C21 1_555 1_555
C16 C4 1_555 1_555
H9 C16 1_555 1_555
C17 C8 1_555 1_555
C18 C1 1_555 1_555
H10 C18 1_555 1_555
C19 C7 1_555 1_555
C20 C12 1_555 1_555
H11 C20 1_555 1_555
C21 H12 1_555 1_555
C22 C9 1_555 1_555
C23 C32 1_555 1_555
C24 C10 1_555 1_555
C25 C28 1_555 1_555
C26 C14 1_555 1_555
C27 C11 1_555 1_555
H13 C27 1_555 1_555
C28 H14 1_555 1_555
C29 C34 1_555 1_555
C30 C26 1_555 1_555
C31 C9 1_555 1_555
C32 C13 1_555 1_555
H15 C32 1_555 1_555
C33 C6 1_555 1_555
C34 C42 1_555 1_555
C35 H16 1_555 1_555
C36 C4 1_555 1_555
H17 C36 1_555 1_555
C37 N1 1_555 1_555
H18 C37 1_555 1_555
C38 C3 1_555 1_555
C39 H19 1_555 1_555
C40 C35 1_555 1_555
C41 C30 1_555 1_555
H20 C41 1_555 1_555
C42 C28 1_555 1_555
H21 C42 1_555 1_555
C43 C31 1_555 1_555
C44 C12 1_555 1_555
C45 C25 1_555 1_555
C46 C13 1_555 1_555
H22 C46 1_555 1_555
C47 N1 1_555 1_555
H23 C47 1_555 1_555
C48 C40 1_555 1_555
H24 C48 1_555 1_555
C49 C15 1_555 1_555
C50 C39 1_555 1_555
H25 C50 1_555 1_555
C51 C40 1_555 1_555
C52 C48 1_555 1_555
H26 C52 1_555 1_555
C53 C49 1_555 1_555
C54 C25 1_555 1_555
H27 C54 1_555 1_555
C55 C21 1_555 1_555
H28 C55 1_555 1_555
C56 H29 1_555 1_555
C57 C50 1_555 1_555
H30 C57 1_555 1_555
C58 N2 1_555 1_555
H31 C58 1_555 1_555
C59 C15 1_555 1_555
H32 C59 1_555 1_555
C60 C38 1_555 1_555
H33 C60 1_555 1_555
H34 C60 1_555 1_555
H35 C60 1_555 1_555
C61 C38 1_555 1_555
H36 C61 1_555 1_555
H37 C61 1_555 1_555
H38 C61 1_555 1_555
C62 N2 1_555 1_555
H39 C62 1_555 1_555
C63 C52 1_555 1_555
C64 C31 1_555 1_555
H40 C64 1_555 1_555
C65 C38 1_555 1_555
H41 C65 1_555 1_555
H42 C65 1_555 1_555
H43 C65 1_555 1_555
C66 C44 1_555 1_555
H44 C66 1_555 1_555
H45 C66 1_555 1_555
H46 C66 1_555 1_555
C67 C44 1_555 1_555
H47 C67 1_555 1_555
H48 C67 1_555 1_555
H49 C67 1_555 1_555
C68 C44 1_555 1_555
H50 C68 1_555 1_555
H51 C68 1_555 1_555
H52 C68 1_555 1_555
C7 C18 1_555 1_555
C10 C19 1_555 1_555
C11 C33 1_555 1_555
C14 C24 1_555 1_555
C16 C26 1_555 1_555
C17 C19 1_555 1_555
C17 C37 1_555 1_555
C22 C33 1_555 1_555
C23 C62 1_555 1_555
C27 C46 1_555 1_555
C29 C45 1_555 1_555
C29 C49 1_555 1_555
C30 C47 1_555 1_555
C34 C55 1_555 1_555
C35 C47 1_555 1_555
C35 C54 1_555 1_555
C36 C41 1_555 1_555
C37 C54 1_555 1_555
C39 C43 1_555 1_555
C43 C58 1_555 1_555
C45 C51 1_555 1_555
C51 C53 1_555 1_555
C53 C63 1_555 1_555
C56 C59 1_555 1_555
C56 C62 1_555 1_555
C56 C63 1_555 1_555
C57 C64 1_555 1_555
C58 C59 1_555 1_555

#END
