
#######################################################################
#
#                 Cambridge Crystallographic Data Centre
#                                CCDC 
#
#######################################################################
#
# If this CIF has been generated from an entry in the Cambridge 
# Structural Database, then it will include bibliographic, chemical, 
# crystal, experimental, refinement or atomic coordinate data resulting 
# from the CCDC's data processing and validation procedures.
#
#######################################################################

data_HETXAI
_chemical_formula_moiety         'C15 H13 F4 N1 O6 S1'
_chemical_name_systematic        
'7-[(1,3-dioxo-1,3-dihydro-2H-isoindol-2-yl)oxy]-1,1,1-trifluoro-7-oxoheptane-3-sulfonyl fluoride'
_symmetry_cell_setting           triclinic
_symmetry_space_group_name_H-M   'P -1'
_symmetry_Int_Tables_number      2
_space_group_name_Hall           '-P 1'
loop_
_symmetry_equiv_pos_site_id
_symmetry_equiv_pos_as_xyz
1 x,y,z
2 -x,-y,-z
_cell_length_a                   7.996(3)
_cell_length_b                   9.972(4)
_cell_length_c                   11.666(4)
_cell_angle_alpha                75.330(7)
_cell_angle_beta                 75.146(8)
_cell_angle_gamma                86.426(7)
_cell_volume                     869.802
_exptl_crystal_colour            colorless
_exptl_crystal_description       prismatic
_cell_formula_units_Z            2
loop_
_atom_site_label
_atom_site_type_symbol
_atom_site_fract_x
_atom_site_fract_y
_atom_site_fract_z
S1 S 0.44459(18) 0.19088(14) 0.60364(12)
F1 F 0.5292(6) 0.1328(5) 0.7054(3)
F2 F 0.9451(8) 0.1643(7) 0.5402(6)
F3 F 0.9784(12) 0.2398(7) 0.3425(8)
F4 F 1.0188(11) 0.3710(8) 0.4462(7)
N1 N 0.1073(5) 0.6384(4) 0.0642(3)
O1 O -0.1533(5) 0.5236(4) 0.1489(3)
O2 O 0.3270(4) 0.7791(4) -0.0634(3)
O3 O 0.2115(5) 0.5259(3) 0.0982(3)
O4 O 0.2468(5) 0.6268(4) 0.2423(3)
O5 O 0.3588(5) 0.3138(4) 0.6247(3)
O6 O 0.3424(6) 0.0904(4) 0.5914(4)
C1 C -0.0697(6) 0.6222(5) 0.0846(4)
C2 C -0.1202(6) 0.7532(4) 0.0063(4)
C3 C -0.2839(6) 0.7972(5) -0.0040(4)
H1 H -0.3822 0.7451 0.0409
C4 C -0.2925(7) 0.9246(6) -0.0861(5)
H2 H -0.3998 0.9585 -0.0970
C5 C -0.1471(8) 1.0012(5) -0.1512(4)
H3 H -0.1577 1.0862 -0.2047
C6 C 0.0144(7) 0.9547(5) -0.1387(4)
H4 H 0.1135 1.0061 -0.1832
C7 C 0.0234(6) 0.8287(4) -0.0576(4)
C8 C 0.1777(6) 0.7529(5) -0.0255(4)
C9 C 0.2797(6) 0.5356(5) 0.1933(4)
C10 C 0.3946(6) 0.4144(5) 0.2174(4)
H5 H 0.4976 0.4260 0.1502
H6 H 0.3354 0.3315 0.2195
C11 C 0.4478(6) 0.3943(4) 0.3348(4)
H7 H 0.3453 0.3846 0.4023
H8 H 0.5110 0.4754 0.3321
C12 C 0.5596(7) 0.2679(5) 0.3563(4)
H9 H 0.6610 0.2797 0.2879
H10 H 0.4959 0.1887 0.3552
C13 C 0.6210(7) 0.2326(6) 0.4740(4)
H11 H 0.6685 0.1496 0.4738
C14 C 0.7432(9) 0.3234(7) 0.4781(6)
H12 H 0.7155 0.3424 0.5584
H13 H 0.7395 0.4103 0.4182
C15 C 0.9298(8) 0.2609(8) 0.4510(6)
F5? F 1.0745(17) 0.1586(14) 0.4479(14)
F6? F 0.970(3) 0.305(2) 0.3327(16)
F7? F 1.006(3) 0.324(2) 0.5068(16)
H14? H 0.6778 0.3206 0.4536
C16? C 0.779(2) 0.1706(16) 0.4921(17)
H15? H 0.8039 0.0962 0.4505
H16? H 0.7639 0.1290 0.5789
loop_
_geom_bond_atom_site_label_1
_geom_bond_atom_site_label_2
_geom_bond_site_symmetry_1
_geom_bond_site_symmetry_2
S1 F1 1_555 1_555
F2 C15 1_555 1_555
F3 C15 1_555 1_555
F4 C15 1_555 1_555
N1 O3 1_555 1_555
O1 C1 1_555 1_555
O2 C8 1_555 1_555
O3 C9 1_555 1_555
O4 C9 1_555 1_555
O5 S1 1_555 1_555
O6 S1 1_555 1_555
C1 N1 1_555 1_555
C2 C1 1_555 1_555
C3 C2 1_555 1_555
H1 C3 1_555 1_555
C4 C3 1_555 1_555
H2 C4 1_555 1_555
C5 C4 1_555 1_555
H3 C5 1_555 1_555
C6 C5 1_555 1_555
H4 C6 1_555 1_555
C7 C2 1_555 1_555
C8 N1 1_555 1_555
C9 C10 1_555 1_555
C10 H5 1_555 1_555
H6 C10 1_555 1_555
C11 C10 1_555 1_555
H7 C11 1_555 1_555
H8 C11 1_555 1_555
C12 C11 1_555 1_555
H9 C12 1_555 1_555
H10 C12 1_555 1_555
C13 S1 1_555 1_555
H11 C13 1_555 1_555
C14 C13 1_555 1_555
H12 C14 1_555 1_555
H13 C14 1_555 1_555
C15 C14 1_555 1_555
C6 C7 1_555 1_555
C7 C8 1_555 1_555
C12 C13 1_555 1_555

#END
