
#######################################################################
#
#                 Cambridge Crystallographic Data Centre
#                                CCDC 
#
#######################################################################
#
# If this CIF has been generated from an entry in the Cambridge 
# Structural Database, then it will include bibliographic, chemical, 
# crystal, experimental, refinement or atomic coordinate data resulting 
# from the CCDC's data processing and validation procedures.
#
#######################################################################

data_HEVDAQ
_chemical_formula_moiety         'C18 H16 F1 N1 O1'
_chemical_name_systematic        
2-{[4-(dimethylamino)phenyl]methylidene}-5-fluoro-2,3-dihydro-1H-inden-1-one
_symmetry_cell_setting           monoclinic
_symmetry_space_group_name_H-M   'P 21/c'
_symmetry_Int_Tables_number      14
_space_group_name_Hall           '-P 2ybc'
loop_
_symmetry_equiv_pos_site_id
_symmetry_equiv_pos_as_xyz
1 x,y,z
2 -x,1/2+y,1/2-z
3 -x,-y,-z
4 x,1/2-y,1/2+z
_cell_length_a                   13.2079(16)
_cell_length_b                   6.4809(8)
_cell_length_c                   16.6320(16)
_cell_angle_alpha                90
_cell_angle_beta                 90.708(10)
_cell_angle_gamma                90
_cell_volume                     1423.58
_exptl_crystal_colour            orange
_exptl_crystal_description       block
_cell_formula_units_Z            4
loop_
_atom_site_label
_atom_site_type_symbol
_atom_site_fract_x
_atom_site_fract_y
_atom_site_fract_z
C1 C 0.42067(15) 1.0204(3) 0.10255(11)
H1 H 0.4558 1.1096 0.1366
C2 C 0.45736(14) 0.8198(3) 0.09221(10)
C3 C 0.40056(15) 0.6949(3) 0.04051(11)
H2 H 0.4214 0.5594 0.0327
C4 C 0.62137(14) 0.8163(3) 0.17538(10)
C5 C 0.73297(14) 1.0175(3) 0.25624(10)
C6 C 0.27942(15) 0.9634(3) 0.01084(10)
N1 N 0.19544(13) 1.0326(3) -0.03029(10)
C7 C 0.77915(15) 0.8276(3) 0.24494(10)
C8 C 0.54954(15) 0.7367(3) 0.12704(11)
H3 H 0.5614 0.6000 0.1130
C9 C 0.33465(15) 1.0902(3) 0.06418(11)
H4 H 0.3124 1.2240 0.0737
C10 C 0.71298(16) 0.6953(3) 0.19542(11)
C11 C 0.92440(17) 0.9394(4) 0.31880(11)
H5 H 0.9891 0.9172 0.3397
O1 O 0.73215(14) 0.5191(2) 0.17377(9)
C12 C 0.78119(15) 1.1691(3) 0.30024(11)
H6 H 0.7507 1.2962 0.3094
C13 C 0.63143(15) 1.0265(3) 0.21328(11)
H7 H 0.5772 1.0515 0.2509
H8 H 0.6306 1.1341 0.1727
C14 C 0.31508(16) 0.7626(3) 0.00052(11)
H9 H 0.2805 0.6733 -0.0339
C15 C 0.13084(17) 0.8898(4) -0.07372(13)
H10 H 0.1698 0.8183 -0.1133
H11 H 0.0770 0.9644 -0.0999
H12 H 0.1028 0.7919 -0.0368
C16 C 0.87511(17) 0.7886(4) 0.27624(11)
H13 H 0.9056 0.6610 0.2683
C17 C 0.87574(16) 1.1254(4) 0.32992(11)
C18 C 0.15431(19) 1.2339(4) -0.01496(14)
H14 H 0.1273 1.2378 0.0384
H15 H 0.1013 1.2628 -0.0533
H16 H 0.2068 1.3355 -0.0196
F1 F 0.92577(10) 1.2738(2) 0.37241(8)
loop_
_geom_bond_atom_site_label_1
_geom_bond_atom_site_label_2
_geom_bond_site_symmetry_1
_geom_bond_site_symmetry_2
C1 H1 1_555 1_555
C2 C1 1_555 1_555
C3 C2 1_555 1_555
H2 C3 1_555 1_555
C4 C8 1_555 1_555
C5 C7 1_555 1_555
C6 N1 1_555 1_555
N1 C15 1_555 1_555
C7 C10 1_555 1_555
C8 C2 1_555 1_555
H3 C8 1_555 1_555
C9 C1 1_555 1_555
H4 C9 1_555 1_555
C10 C4 1_555 1_555
C11 H5 1_555 1_555
O1 C10 1_555 1_555
C12 C5 1_555 1_555
H6 C12 1_555 1_555
C13 C4 1_555 1_555
H7 C13 1_555 1_555
H8 C13 1_555 1_555
C14 C3 1_555 1_555
H9 C14 1_555 1_555
C15 H10 1_555 1_555
H11 C15 1_555 1_555
H12 C15 1_555 1_555
C16 C7 1_555 1_555
H13 C16 1_555 1_555
C17 C11 1_555 1_555
C18 N1 1_555 1_555
H14 C18 1_555 1_555
H15 C18 1_555 1_555
H16 C18 1_555 1_555
F1 C17 1_555 1_555
C5 C13 1_555 1_555
C6 C9 1_555 1_555
C6 C14 1_555 1_555
C11 C16 1_555 1_555
C12 C17 1_555 1_555

#END
