
#######################################################################
#
#                 Cambridge Crystallographic Data Centre
#                                CCDC 
#
#######################################################################
#
# If this CIF has been generated from an entry in the Cambridge 
# Structural Database, then it will include bibliographic, chemical, 
# crystal, experimental, refinement or atomic coordinate data resulting 
# from the CCDC's data processing and validation procedures.
#
#######################################################################

data_HEVMON
_chemical_formula_moiety         'C15 H22 O1 S2'
_chemical_name_systematic        
4a',6'-dimethyl-4',4a',5',6',7',8'-hexahydro-3'H-spiro[1,3-dithiolane-2,2'-naphthalene]-5'-carbaldehyde
_symmetry_cell_setting           orthorhombic
_symmetry_space_group_name_H-M   'P 21 21 21'
_symmetry_Int_Tables_number      19
_space_group_name_Hall           'P 2ac 2ab'
loop_
_symmetry_equiv_pos_site_id
_symmetry_equiv_pos_as_xyz
1 x,y,z
2 1/2-x,-y,1/2+z
3 1/2+x,1/2-y,-z
4 -x,1/2+y,1/2-z
_cell_length_a                   7.0800(10)
_cell_length_b                   7.9760(10)
_cell_length_c                   25.635(2)
_cell_angle_alpha                90
_cell_angle_beta                 90
_cell_angle_gamma                90
_cell_volume                     1447.61
_exptl_crystal_colour            colorless
_exptl_crystal_description       block
_cell_formula_units_Z            4
loop_
_atom_site_label
_atom_site_type_symbol
_atom_site_fract_x
_atom_site_fract_y
_atom_site_fract_z
S1 S 0.0463(3) 0.2447(2) 0.17349(7)
C1 C 0.0517(13) 0.3645(9) 0.2327(3)
H1 H -0.052886 0.446845 0.233055
H2 H 0.037436 0.289538 0.263231
C2 C 0.2402(12) 0.4542(9) 0.2350(3)
H3 H 0.261585 0.499409 0.270447
H4 H 0.241179 0.548921 0.210000
S2 S 0.4225(3) 0.3074(2) 0.21862(7)
C3 C 0.3002(9) 0.2118(8) 0.1630(2)
C4 C 0.3578(9) 0.2877(7) 0.1108(2)
H5 H 0.262553 0.257983 0.084098
H6 H 0.360522 0.411380 0.113946
C5 C 0.5514(10) 0.2257(7) 0.0932(2)
H7 H 0.646480 0.253949 0.120091
H8 H 0.587388 0.283734 0.060505
C6 C 0.5518(9) 0.0332(7) 0.0838(2)
C7 C 0.4515(11) -0.0068(8) 0.0320(2)
H9 H 0.454952 -0.127951 0.025730
H10 H 0.515774 0.051425 0.003365
H11 H 0.319849 0.030789 0.033827
C8 C 0.7621(9) -0.0297(7) 0.0830(2)
H12 H 0.822668 0.014007 0.115488
C9 C 0.8654(10) 0.0485(10) 0.0382(3)
H13 H 0.897823 0.163584 0.041647
O1 O 0.9106(10) -0.0178(9) -0.0008(3)
C10 C 0.7842(8) -0.2234(7) 0.0844(2)
H14 H 0.732778 -0.271736 0.051361
C11 C 0.9936(9) -0.2685(9) 0.0890(3)
H15 H 1.048888 -0.209423 0.118795
H16 H 1.059369 -0.235207 0.056952
H17 H 1.006611 -0.389720 0.094016
C12 C 0.6742(10) -0.2933(8) 0.1301(3)
H18 H 0.680968 -0.417250 0.129236
H19 H 0.734095 -0.255288 0.162973
C13 C 0.4710(10) -0.2409(8) 0.1302(3)
H20 H 0.408945 -0.284229 0.162080
H21 H 0.406532 -0.290808 0.099655
C14 C 0.4503(10) -0.0528(7) 0.1283(2)
C15 C 0.3446(10) 0.0264(8) 0.1636(2)
H22 H 0.293338 -0.038652 0.191276
loop_
_geom_bond_atom_site_label_1
_geom_bond_atom_site_label_2
_geom_bond_site_symmetry_1
_geom_bond_site_symmetry_2
S1 C1 1_555 1_555
C1 H1 1_555 1_555
H2 C1 1_555 1_555
C2 C1 1_555 1_555
H3 C2 1_555 1_555
H4 C2 1_555 1_555
S2 C2 1_555 1_555
C3 S1 1_555 1_555
C4 C3 1_555 1_555
H5 C4 1_555 1_555
H6 C4 1_555 1_555
C5 C4 1_555 1_555
H7 C5 1_555 1_555
H8 C5 1_555 1_555
C6 C5 1_555 1_555
C7 C6 1_555 1_555
H9 C7 1_555 1_555
H10 C7 1_555 1_555
H11 C7 1_555 1_555
C8 C6 1_555 1_555
H12 C8 1_555 1_555
C9 C8 1_555 1_555
H13 C9 1_555 1_555
O1 C9 1_555 1_555
C10 C8 1_555 1_555
H14 C10 1_555 1_555
C11 C10 1_555 1_555
H15 C11 1_555 1_555
H16 C11 1_555 1_555
H17 C11 1_555 1_555
C12 C10 1_555 1_555
H18 C12 1_555 1_555
H19 C12 1_555 1_555
C13 C12 1_555 1_555
H20 C13 1_555 1_555
H21 C13 1_555 1_555
C14 C6 1_555 1_555
C15 C3 1_555 1_555
H22 C15 1_555 1_555
S2 C3 1_555 1_555
C13 C14 1_555 1_555
C14 C15 1_555 1_555

#END
