
#######################################################################
#
#                 Cambridge Crystallographic Data Centre
#                                CCDC 
#
#######################################################################
#
# If this CIF has been generated from an entry in the Cambridge 
# Structural Database, then it will include bibliographic, chemical, 
# crystal, experimental, refinement or atomic coordinate data resulting 
# from the CCDC's data processing and validation procedures.
#
#######################################################################

data_HEVNEB
_chemical_formula_moiety         'C12 H16 Br4'
_chemical_name_systematic        
4,4,8,8-Tetrabromo-1,3,5,7-tetramethyl-cis-transoid-cis-tricyclo(5.1.0.0^3,5^)octane
_symmetry_cell_setting           monoclinic
_symmetry_space_group_name_H-M   'C 2/c'
_symmetry_Int_Tables_number      15
_space_group_name_Hall           '-C 2yn'
loop_
_symmetry_equiv_pos_site_id
_symmetry_equiv_pos_as_xyz
1 x,y,z
2 1/2+x,1/2+y,z
3 -x,y,1/2-z
4 1/2-x,1/2+y,1/2-z
5 -x,-y,-z
6 1/2-x,1/2-y,-z
7 x,-y,1/2+z
8 1/2+x,1/2-y,1/2+z
_cell_length_a                   17.177(9)
_cell_length_b                   6.426(2)
_cell_length_c                   14.516(4)
_cell_angle_alpha                90
_cell_angle_beta                 120.74(3)
_cell_angle_gamma                90
_cell_volume                     1377.14
_exptl_crystal_colour            colorless
_cell_formula_units_Z            4
loop_
_atom_site_label
_atom_site_type_symbol
_atom_site_fract_x
_atom_site_fract_y
_atom_site_fract_z
Br1 Br 0.42507(4) 0.20030(11) 0.30040(4)
Br2 Br 0.26750(4) 0.31189(11) 0.34034(4)
C1 C 0.3821(3) 0.1710(10) 0.3995(4)
C2 C 0.4487(3) 0.1695(9) 0.5191(4)
C3 C 0.5489(3) 0.2024(10) 0.5581(4)
C4 C 0.4000(3) -0.0317(9) 0.4607(4)
C5 C 0.4219(4) 0.2739(10) 0.5919(4)
C6 C 0.3266(4) -0.1212(10) 0.4780(5)
H1 H 0.5794 0.2272 0.6339
H2 H 0.5542 0.3273 0.5255
H3 H 0.4580 0.3965 0.6226
H4 H 0.3591 0.3118 0.5511
H5 H 0.4314 0.1799 0.6482
H6 H 0.3031 -0.2457 0.4362
H7 H 0.3516 -0.1536 0.5525
H8 H 0.2786 -0.0215 0.4560
C4D C 0.6000(3) 0.0317(9) 0.5393(4)
C3D C 0.4511(3) -0.2024(10) 0.4419(4)
C1D C 0.6179(3) -0.1710(10) 0.6005(4)
C2D C 0.5513(3) -0.1695(9) 0.4809(4)
C6D C 0.6734(4) 0.1212(10) 0.5220(5)
H1D H 0.4206 -0.2272 0.3661
H2D H 0.4458 -0.3273 0.4745
Br1D Br 0.57493(4) -0.20030(11) 0.69960(4)
Br2D Br 0.73250(4) -0.31189(11) 0.65966(4)
C5D C 0.5781(4) -0.2739(10) 0.4081(4)
H6D H 0.6969 0.2457 0.5638
H7D H 0.6484 0.1536 0.4475
H8D H 0.7214 0.0215 0.5440
H3D H 0.5420 -0.3965 0.3774
H4D H 0.6409 -0.3118 0.4489
H5D H 0.5686 -0.1799 0.3518
loop_
_geom_bond_atom_site_label_1
_geom_bond_atom_site_label_2
_geom_bond_site_symmetry_1
_geom_bond_site_symmetry_2
Br1 C1 1_555 1_555
Br2 C1 1_555 1_555
C1 C2 1_555 1_555
C2 C3 1_555 1_555
C3 H1 1_555 1_555
C4 C1 1_555 1_555
C5 C2 1_555 1_555
C6 C4 1_555 1_555
H2 C3 1_555 1_555
H3 C5 1_555 1_555
H4 C5 1_555 1_555
H5 C5 1_555 1_555
H6 C6 1_555 1_555
H7 C6 1_555 1_555
H8 C6 1_555 1_555
C4D C3 1_555 1_555
C3D C4 1_555 1_555
C1D C4D 1_555 1_555
C2D C4D 1_555 1_555
C6D C4D 1_555 1_555
H1D C3D 1_555 1_555
H2D C3D 1_555 1_555
Br1D C1D 1_555 1_555
Br2D C1D 1_555 1_555
C5D C2D 1_555 1_555
H6D C6D 1_555 1_555
H7D C6D 1_555 1_555
H8D C6D 1_555 1_555
H3D C5D 1_555 1_555
H4D C5D 1_555 1_555
H5D C5D 1_555 1_555
C2 C4 1_555 1_555
C3D C2D 1_555 1_555
C1D C2D 1_555 1_555

#END
