
#######################################################################
#
#                 Cambridge Crystallographic Data Centre
#                                CCDC 
#
#######################################################################
#
# If this CIF has been generated from an entry in the Cambridge 
# Structural Database, then it will include bibliographic, chemical, 
# crystal, experimental, refinement or atomic coordinate data resulting 
# from the CCDC's data processing and validation procedures.
#
#######################################################################

data_HEVNAA
_chemical_formula_moiety         'C21 H30 O4 S1'
_chemical_name_systematic        
11-hydroxy-2b,7,11a,11c-tetramethyltetradecahydro-1aH,4H-naphtho[2',1',8':1,8,7]oxireno[3,3a]azuleno[4,5-d][1,3]dioxole-4-thione
_symmetry_cell_setting           orthorhombic
_symmetry_space_group_name_H-M   'P 21 21 21'
_symmetry_Int_Tables_number      19
_space_group_name_Hall           'P 2ac 2ab'
loop_
_symmetry_equiv_pos_site_id
_symmetry_equiv_pos_as_xyz
1 x,y,z
2 1/2-x,-y,1/2+z
3 -x,1/2+y,1/2-z
4 1/2+x,1/2-y,-z
_cell_length_a                   9.011(2)
_cell_length_b                   11.113(2)
_cell_length_c                   17.552(4)
_cell_angle_alpha                90
_cell_angle_beta                 90
_cell_angle_gamma                90
_cell_volume                     1757.64
_exptl_crystal_colour            colorless
_exptl_crystal_description       block
_cell_formula_units_Z            4
loop_
_atom_site_label
_atom_site_type_symbol
_atom_site_fract_x
_atom_site_fract_y
_atom_site_fract_z
S1 S 0.75559(11) 0.23633(9) 0.75592(6)
C1 C 0.6499(4) 0.1357(4) 0.7902(2)
O1 O 0.5262(2) 0.1093(2) 0.75960(15)
O2 O 0.6748(3) 0.0682(2) 0.85184(14)
C2 C 0.5677(4) -0.0284(3) 0.8554(2)
C3 C 0.5540(4) -0.0585(3) 0.9401(2)
O3 O 0.5252(3) -0.1846(2) 0.95574(15)
C4 C 0.6627(4) -0.1340(3) 0.9735(2)
H1 H 0.750873 -0.157556 0.942297
C5 C 0.6861(4) -0.1014(4) 1.0551(2)
H2 H 0.688957 -0.175026 1.086870
H3 H 0.781451 -0.058285 1.061229
C6 C 0.5604(4) -0.0228(3) 1.0792(2)
C7 C 0.4979(4) 0.0264(3) 1.0014(2)
H4 H 0.551152 0.104102 0.992445
C8 C 0.4586(4) -0.0985(3) 1.1280(2)
H5 H 0.501563 -0.100344 1.180546
O4 O 0.4437(3) -0.2205(2) 1.10319(15)
H6 H 0.458777 -0.224272 1.056026
C9 C 0.3155(4) -0.0406(4) 1.1331(2)
H7 H 0.326037 0.039928 1.156621
H8 H 0.247697 -0.089165 1.165125
C10 C 0.2532(4) -0.0288(3) 1.0536(2)
H9 H 0.259367 -0.110129 1.029454
C11 C 0.0983(4) 0.0041(4) 1.0557(2)
H10 H 0.087139 0.086166 1.076925
H11 H 0.042868 -0.052524 1.088628
C12 C 0.0374(4) 0.0001(4) 0.9756(2)
H12 H 0.034994 -0.085056 0.959007
H13 H -0.066537 0.028957 0.977049
C13 C 0.1192(4) 0.0715(4) 0.9161(2)
H14 H 0.103466 0.159198 0.925865
C14 C 0.2770(4) 0.0449(3) 0.9210(2)
H15 H 0.289271 -0.041554 0.906547
C15 C 0.3370(4) 0.0580(3) 1.0022(2)
C16 C 0.3598(4) 0.1181(4) 0.8618(2)
H16 H 0.288367 0.163131 0.829788
H17 H 0.425870 0.176831 0.887266
C17 C 0.4481(4) 0.0359(3) 0.8140(2)
H18 H 0.381953 -0.022737 0.787232
C18 C 0.6197(5) -0.1339(4) 0.8078(2)
H19 H 0.620079 -0.111040 0.753884
H20 H 0.552417 -0.202134 0.815367
H21 H 0.720249 -0.156773 0.823383
C19 C 0.6129(5) 0.0806(4) 1.1299(2)
H22 H 0.666466 0.048022 1.173936
H23 H 0.526949 0.126823 1.147601
H24 H 0.679100 0.133302 1.100753
C20 C 0.0618(5) 0.0410(5) 0.8377(2)
H25 H 0.112298 0.091103 0.799781
H26 H -0.045247 0.056223 0.835608
H27 H 0.081064 -0.044058 0.826849
C21 C 0.3236(4) 0.1892(3) 1.0301(2)
H28 H 0.357284 0.194439 1.083077
H29 H 0.219879 0.215058 1.026805
H30 H 0.385284 0.241357 0.998082
loop_
_geom_bond_atom_site_label_1
_geom_bond_atom_site_label_2
_geom_bond_site_symmetry_1
_geom_bond_site_symmetry_2
S1 C1 1_555 1_555
C1 O1 1_555 1_555
O1 C17 1_555 1_555
O2 C1 1_555 1_555
C2 O2 1_555 1_555
C3 C2 1_555 1_555
O3 C3 1_555 1_555
C4 C3 1_555 1_555
H1 C4 1_555 1_555
C5 C4 1_555 1_555
H2 C5 1_555 1_555
H3 C5 1_555 1_555
C6 C5 1_555 1_555
C7 C3 1_555 1_555
H4 C7 1_555 1_555
C8 C6 1_555 1_555
H5 C8 1_555 1_555
O4 C8 1_555 1_555
H6 O4 1_555 1_555
C9 C8 1_555 1_555
H7 C9 1_555 1_555
H8 C9 1_555 1_555
C10 C9 1_555 1_555
H9 C10 1_555 1_555
C11 C10 1_555 1_555
H10 C11 1_555 1_555
H11 C11 1_555 1_555
C12 C11 1_555 1_555
H12 C12 1_555 1_555
H13 C12 1_555 1_555
C13 C12 1_555 1_555
H14 C13 1_555 1_555
C14 C13 1_555 1_555
H15 C14 1_555 1_555
C15 C7 1_555 1_555
C16 C14 1_555 1_555
H16 C16 1_555 1_555
H17 C16 1_555 1_555
C17 C2 1_555 1_555
H18 C17 1_555 1_555
C18 C2 1_555 1_555
H19 C18 1_555 1_555
H20 C18 1_555 1_555
H21 C18 1_555 1_555
C19 C6 1_555 1_555
H22 C19 1_555 1_555
H23 C19 1_555 1_555
H24 C19 1_555 1_555
C20 C13 1_555 1_555
H25 C20 1_555 1_555
H26 C20 1_555 1_555
H27 C20 1_555 1_555
C21 C15 1_555 1_555
H28 C21 1_555 1_555
H29 C21 1_555 1_555
H30 C21 1_555 1_555
O3 C4 1_555 1_555
C6 C7 1_555 1_555
C10 C15 1_555 1_555
C14 C15 1_555 1_555
C16 C17 1_555 1_555

#END
