
#######################################################################
#
#                 Cambridge Crystallographic Data Centre
#                                CCDC 
#
#######################################################################
#
# If this CIF has been generated from an entry in the Cambridge 
# Structural Database, then it will include bibliographic, chemical, 
# crystal, experimental, refinement or atomic coordinate data resulting 
# from the CCDC's data processing and validation procedures.
#
#######################################################################

data_HEVNEE
_chemical_formula_moiety         'C20 H30 O2'
_chemical_name_systematic        
3-hydroxy-2a,7,10c-trimethyl-10-methylidenetetradecahydronaphtho[2,1,8-cde]azulen-1(2H)-one
_symmetry_cell_setting           orthorhombic
_symmetry_space_group_name_H-M   'P 21 21 21'
_symmetry_Int_Tables_number      19
_space_group_name_Hall           'P 2ac 2ab'
loop_
_symmetry_equiv_pos_site_id
_symmetry_equiv_pos_as_xyz
1 x,y,z
2 1/2-x,-y,1/2+z
3 1/2+x,1/2-y,-z
4 -x,1/2+y,1/2-z
_cell_length_a                   7.2930(10)
_cell_length_b                   14.0520(10)
_cell_length_c                   16.692(3)
_cell_angle_alpha                90
_cell_angle_beta                 90
_cell_angle_gamma                90
_cell_volume                     1710.62
_exptl_crystal_colour            colorless
_exptl_crystal_description       block
_cell_formula_units_Z            4
loop_
_atom_site_label
_atom_site_type_symbol
_atom_site_fract_x
_atom_site_fract_y
_atom_site_fract_z
C1 C 1.1975(7) 0.0220(3) 0.8548(3)
H1 H 1.328105 0.025327 0.870664
H2 H 1.161741 -0.045875 0.852226
C2 C 1.0810(8) 0.0726(3) 0.9169(3)
H3 H 1.100969 0.042005 0.970226
O1 O 1.1387(6) 0.1697(2) 0.92097(17)
H4 H 1.186894 0.180221 0.965823
C3 C 0.8785(7) 0.0684(3) 0.8964(2)
C4 C 0.7724(8) 0.1422(3) 0.9461(3)
H5 H 0.641122 0.124866 0.949833
H6 H 0.823600 0.147045 1.000840
C5 C 0.7959(7) 0.2342(3) 0.9017(3)
O2 O 0.7882(6) 0.3141(2) 0.93002(19)
C6 C 0.8239(6) 0.2129(2) 0.8140(2)
H7 H 0.941159 0.242807 0.795779
C7 C 0.6681(6) 0.2479(3) 0.7615(3)
C8 C 0.7011(6) 0.2457(3) 0.6732(2)
H8 H 0.789765 0.296580 0.659749
H9 H 0.584442 0.261011 0.645750
C9 C 0.7732(5) 0.1522(3) 0.6397(2)
H10 H 0.771577 0.155337 0.580460
H11 H 0.690204 0.100060 0.656308
C10 C 0.9681(5) 0.1291(3) 0.6677(2)
H12 H 1.021602 0.191367 0.684981
C11 C 0.9741(5) 0.0647(2) 0.7432(2)
C12 C 0.8419(6) 0.1026(2) 0.8087(2)
H13 H 0.717384 0.078299 0.794154
C13 C 1.0940(6) 0.0933(3) 0.6002(2)
H14 H 1.047721 0.030296 0.580919
C14 C 1.2882(6) 0.0807(4) 0.6324(3)
H15 H 1.362136 0.047204 0.591446
H16 H 1.343077 0.144445 0.640246
C15 C 1.3021(6) 0.0260(4) 0.7107(3)
H17 H 1.270986 -0.041670 0.701247
H18 H 1.429662 0.028943 0.730830
C16 C 1.1735(5) 0.0670(3) 0.7730(2)
H19 H 1.207039 0.135636 0.778979
C17 C 0.8026(8) -0.0318(3) 0.9151(3)
H20 H 0.885697 -0.079988 0.893134
H21 H 0.681133 -0.038879 0.890714
H22 H 0.792902 -0.039965 0.973214
C18 C 0.5071(7) 0.2758(3) 0.7903(4)
H23 H 0.412151 0.294494 0.754619
H24 H 0.486902 0.277111 0.846470
C19 C 0.9131(6) -0.0374(3) 0.7210(3)
H25 H 0.988884 -0.061139 0.676800
H26 H 0.784129 -0.036631 0.704422
H27 H 0.927449 -0.079156 0.767582
C20 C 1.1033(7) 0.1619(4) 0.5293(3)
H28 H 1.131044 0.226121 0.548755
H29 H 0.985058 0.162395 0.501368
H30 H 1.199679 0.141289 0.492253
loop_
_geom_bond_atom_site_label_1
_geom_bond_atom_site_label_2
_geom_bond_site_symmetry_1
_geom_bond_site_symmetry_2
C1 H1 1_555 1_555
H2 C1 1_555 1_555
C2 C1 1_555 1_555
H3 C2 1_555 1_555
O1 C2 1_555 1_555
H4 O1 1_555 1_555
C3 C2 1_555 1_555
C4 C3 1_555 1_555
H5 C4 1_555 1_555
H6 C4 1_555 1_555
C5 C4 1_555 1_555
O2 C5 1_555 1_555
C6 C5 1_555 1_555
H7 C6 1_555 1_555
C7 C6 1_555 1_555
C8 C7 1_555 1_555
H8 C8 1_555 1_555
H9 C8 1_555 1_555
C9 C8 1_555 1_555
H10 C9 1_555 1_555
H11 C9 1_555 1_555
C10 C9 1_555 1_555
H12 C10 1_555 1_555
C11 C10 1_555 1_555
C12 C3 1_555 1_555
H13 C12 1_555 1_555
C13 C10 1_555 1_555
H14 C13 1_555 1_555
C14 C13 1_555 1_555
H15 C14 1_555 1_555
H16 C14 1_555 1_555
C15 C14 1_555 1_555
H17 C15 1_555 1_555
H18 C15 1_555 1_555
C16 C1 1_555 1_555
H19 C16 1_555 1_555
C17 C3 1_555 1_555
H20 C17 1_555 1_555
H21 C17 1_555 1_555
H22 C17 1_555 1_555
C18 C7 1_555 1_555
H23 C18 1_555 1_555
H24 C18 1_555 1_555
C19 C11 1_555 1_555
H25 C19 1_555 1_555
H26 C19 1_555 1_555
H27 C19 1_555 1_555
C20 C13 1_555 1_555
H28 C20 1_555 1_555
H29 C20 1_555 1_555
H30 C20 1_555 1_555
C6 C12 1_555 1_555
C11 C12 1_555 1_555
C11 C16 1_555 1_555
C15 C16 1_555 1_555

#END
