
#######################################################################
#
#                 Cambridge Crystallographic Data Centre
#                                CCDC 
#
#######################################################################
#
# If this CIF has been generated from an entry in the Cambridge 
# Structural Database, then it will include bibliographic, chemical, 
# crystal, experimental, refinement or atomic coordinate data resulting 
# from the CCDC's data processing and validation procedures.
#
#######################################################################

data_HEVNAX
_chemical_formula_moiety         'C12 H16 Cl4'
_chemical_name_systematic        
4,4,8,8-Tetrachloro-1,3,5,7-tetramethyl-cis-transoid-cis-tricyclo(5.1.0.0^3,5^)octane
_symmetry_cell_setting           monoclinic
_symmetry_space_group_name_H-M   'P 21/c'
_symmetry_Int_Tables_number      14
_space_group_name_Hall           '-P 2ybc'
loop_
_symmetry_equiv_pos_site_id
_symmetry_equiv_pos_as_xyz
1 x,y,z
2 -x,1/2+y,1/2-z
3 -x,-y,-z
4 x,1/2-y,1/2+z
_cell_length_a                   6.436(4)
_cell_length_b                   6.954(3)
_cell_length_c                   14.850(9)
_cell_angle_alpha                90
_cell_angle_beta                 100.33(5)
_cell_angle_gamma                90
_cell_volume                     653.853
_exptl_crystal_colour            colorless
_cell_formula_units_Z            2
loop_
_atom_site_label
_atom_site_type_symbol
_atom_site_fract_x
_atom_site_fract_y
_atom_site_fract_z
Cl1 Cl 0.32561(6) 0.19240(6) 0.06276(3)
Cl2 Cl 0.14379(7) 0.11237(6) -0.12506(3)
C1 C 0.3062(2) 0.2716(2) -0.05125(10)
C2 C 0.4956(2) 0.3634(2) -0.08022(10)
C3 C 0.6954(2) 0.3786(2) -0.00859(11)
C4 C 0.3002(2) 0.4847(2) -0.07138(10)
C5 C 0.5435(3) 0.3178(3) -0.17398(12)
C6 C 0.1584(3) 0.5568(3) -0.15708(11)
H1 H 0.724(3) 0.258(3) 0.0171(12)
H2 H 0.809(3) 0.417(3) -0.0405(13)
H3 H 0.628(3) 0.215(3) -0.1717(14)
H4 H 0.422(4) 0.288(3) -0.218(2)
H5 H 0.607(3) 0.424(3) -0.1961(14)
H6 H 0.211(3) 0.668(3) -0.182(2)
H7 H 0.137(3) 0.471(3) -0.202(2)
H8 H 0.030(4) 0.596(3) -0.1417(15)
C4B C 0.6998(2) 0.5153(2) 0.07138(10)
C3B C 0.3046(2) 0.6214(2) 0.00859(11)
C1B C 0.6938(2) 0.7284(2) 0.05125(10)
C2B C 0.5044(2) 0.6366(2) 0.08022(10)
C6B C 0.8416(3) 0.4432(3) 0.15708(11)
H1B H 0.276(3) 0.742(3) -0.0171(12)
H2B H 0.191(3) 0.583(3) 0.0405(13)
Cl1B Cl 0.67439(6) 0.80760(6) -0.06276(3)
Cl2B Cl 0.85621(7) 0.88763(6) 0.12506(3)
C5B C 0.4565(3) 0.6822(3) 0.17398(12)
H6B H 0.789(3) 0.332(3) 0.182(2)
H7B H 0.863(3) 0.529(3) 0.202(2)
H8B H 0.970(4) 0.404(3) 0.1417(15)
H3B H 0.372(3) 0.785(3) 0.1717(14)
H4B H 0.578(4) 0.712(3) 0.218(2)
H5B H 0.393(3) 0.576(3) 0.1961(14)
loop_
_geom_bond_atom_site_label_1
_geom_bond_atom_site_label_2
_geom_bond_site_symmetry_1
_geom_bond_site_symmetry_2
Cl1 C1 1_555 1_555
Cl2 C1 1_555 1_555
C1 C2 1_555 1_555
C2 C3 1_555 1_555
C3 H1 1_555 1_555
C4 C1 1_555 1_555
C5 C2 1_555 1_555
C6 C4 1_555 1_555
H2 C3 1_555 1_555
H3 C5 1_555 1_555
H4 C5 1_555 1_555
H5 C5 1_555 1_555
H6 C6 1_555 1_555
H7 C6 1_555 1_555
H8 C6 1_555 1_555
C4B C3 1_555 1_555
C3B C4 1_555 1_555
C1B C4B 1_555 1_555
C2B C4B 1_555 1_555
C6B C4B 1_555 1_555
H1B C3B 1_555 1_555
H2B C3B 1_555 1_555
Cl1B C1B 1_555 1_555
Cl2B C1B 1_555 1_555
C5B C2B 1_555 1_555
H6B C6B 1_555 1_555
H7B C6B 1_555 1_555
H8B C6B 1_555 1_555
H3B C5B 1_555 1_555
H4B C5B 1_555 1_555
H5B C5B 1_555 1_555
C2 C4 1_555 1_555
C3B C2B 1_555 1_555
C1B C2B 1_555 1_555

#END
