
#######################################################################
#
#                 Cambridge Crystallographic Data Centre
#                                CCDC 
#
#######################################################################
#
# If this CIF has been generated from an entry in the Cambridge 
# Structural Database, then it will include bibliographic, chemical, 
# crystal, experimental, refinement or atomic coordinate data resulting 
# from the CCDC's data processing and validation procedures.
#
#######################################################################

data_HEVPUW
_chemical_formula_moiety         'C38 H37 Cl1 N1 O3 P1 S1'
_chemical_name_systematic        
N-{(4-chlorophenyl)[5-(diphenylphosphoryl)-9,9-dimethyl-9H-xanthen-4-yl]methyl}-2-methylpropane-2-sulfinamide
_symmetry_cell_setting           orthorhombic
_symmetry_space_group_name_H-M   'P 21 21 21'
_symmetry_Int_Tables_number      19
_space_group_name_Hall           'P 2ac 2ab'
loop_
_symmetry_equiv_pos_site_id
_symmetry_equiv_pos_as_xyz
1 x,y,z
2 1/2-x,-y,1/2+z
3 -x,1/2+y,1/2-z
4 1/2+x,1/2-y,-z
_cell_length_a                   11.4093(3)
_cell_length_b                   16.5857(4)
_cell_length_c                   18.4396(5)
_cell_angle_alpha                90
_cell_angle_beta                 90
_cell_angle_gamma                90
_cell_volume                     3489.35
_exptl_crystal_colour            colorless
_exptl_crystal_description       block
_cell_formula_units_Z            4
loop_
_atom_site_label
_atom_site_type_symbol
_atom_site_fract_x
_atom_site_fract_y
_atom_site_fract_z
S1 S 0.38232(5) 0.21282(3) 0.87236(3)
P1 P -0.01260(5) 0.13566(4) 0.73292(3)
Cl1 Cl 0.33849(7) -0.16161(4) 0.62862(6)
O1 O 0.36491(16) 0.14233(10) 0.92123(8)
O2 O 0.07017(13) 0.14548(10) 0.79472(8)
O3 O 0.17477(12) 0.22987(8) 0.66000(8)
N1 N 0.31138(15) 0.20094(11) 0.79604(9)
H1 H 0.2365 0.2062 0.7936
C1 C 0.06718(19) 0.26358(12) 0.64550(11)
C2 C -0.02911(19) 0.22538(13) 0.67807(12)
C3 C -0.1405(2) 0.25831(17) 0.66679(15)
H2 H -0.2060 0.2345 0.6878
C4 C -0.1526(2) 0.32601(18) 0.62460(18)
H3 H -0.2265 0.3486 0.6183
C5 C -0.0585(2) 0.36055(16) 0.59198(15)
H4 H -0.0698 0.4060 0.5632
C6 C 0.0554(2) 0.32988(13) 0.60031(12)
C7 C 0.1579(2) 0.36371(15) 0.55895(14)
C8 C 0.2711(2) 0.33899(13) 0.59570(12)
C9 C 0.3754(2) 0.37850(16) 0.58198(15)
H5 H 0.3755 0.4228 0.5510
C10 C 0.4792(2) 0.35393(18) 0.61307(17)
H6 H 0.5487 0.3806 0.6021
C11 C 0.4798(2) 0.28974(16) 0.66055(14)
H7 H 0.5497 0.2741 0.6822
C12 C 0.37775(19) 0.24820(13) 0.67646(11)
C13 C 0.27477(18) 0.27404(12) 0.64283(11)
C14 C 0.02164(19) 0.05346(14) 0.67289(12)
C15 C 0.0316(2) -0.02245(16) 0.70295(14)
H8 H 0.0257 -0.0289 0.7529
C16 C 0.0503(2) -0.08883(16) 0.65934(18)
H9 H 0.0561 -0.1399 0.6799
C17 C 0.0602(2) -0.07971(18) 0.58567(16)
H10 H 0.0726 -0.1245 0.5564
C18 C 0.0519(2) -0.00545(18) 0.55562(15)
H11 H 0.0597 0.0006 0.5057
C19 C 0.0320(2) 0.06147(17) 0.59845(13)
H12 H 0.0255 0.1121 0.5772
C20 C -0.15839(18) 0.11229(12) 0.76529(12)
C21 C -0.1942(2) 0.14566(15) 0.83015(13)
H13 H -0.1440 0.1797 0.8555
C22 C -0.3046(2) 0.12877(16) 0.85767(13)
H14 H -0.3291 0.1527 0.9007
C23 C -0.3773(2) 0.07719(15) 0.82186(15)
H15 H -0.4501 0.0644 0.8414
C24 C -0.3432(2) 0.04421(18) 0.75716(18)
H16 H -0.3938 0.0102 0.7321
C25 C -0.2342(2) 0.06125(17) 0.72901(16)
H17 H -0.2114 0.0383 0.6852
C26 C 0.38165(18) 0.18090(12) 0.73187(11)
H18 H 0.4629 0.1799 0.7491
C27 C 0.35878(17) 0.09648(13) 0.70355(11)
C28 C 0.3369(2) 0.03456(14) 0.75177(13)
H19 H 0.3258 0.0464 0.8006
C29 C 0.3311(2) -0.04438(15) 0.72876(16)
H20 H 0.3174 -0.0856 0.7618
C30 C 0.3459(2) -0.06145(14) 0.65661(15)
C31 C 0.3652(2) -0.00159(16) 0.60714(14)
H21 H 0.3741 -0.0137 0.5582
C32 C 0.3712(2) 0.07736(14) 0.63110(13)
H22 H 0.3839 0.1184 0.5977
C33 C 0.2988(2) 0.29559(14) 0.91425(12)
C34 C 0.1758(2) 0.26925(17) 0.93170(15)
H23 H 0.1339 0.3132 0.9535
H24 H 0.1782 0.2246 0.9648
H25 H 0.1368 0.2531 0.8879
C35 C 0.3044(3) 0.36615(17) 0.86249(17)
H26 H 0.2619 0.4108 0.8825
H27 H 0.2702 0.3510 0.8169
H28 H 0.3847 0.3814 0.8551
C36 C 0.3686(3) 0.31434(18) 0.98320(15)
H29 H 0.3313 0.3575 1.0090
H30 H 0.4469 0.3300 0.9703
H31 H 0.3713 0.2672 1.0134
C37 C 0.1585(3) 0.3246(3) 0.48278(17)
H32 H 0.1642 0.2671 0.4875
H33 H 0.2245 0.3443 0.4557
H34 H 0.0874 0.3382 0.4578
C38 C 0.1495(3) 0.4550(2) 0.5526(3)
H35 H 0.1482 0.4784 0.6002
H36 H 0.0790 0.4692 0.5273
H37 H 0.2161 0.4750 0.5264
loop_
_geom_bond_atom_site_label_1
_geom_bond_atom_site_label_2
_geom_bond_site_symmetry_1
_geom_bond_site_symmetry_2
S1 O1 1_555 1_555
P1 O2 1_555 1_555
Cl1 C30 1_555 1_555
O3 C1 1_555 1_555
N1 S1 1_555 1_555
H1 N1 1_555 1_555
C1 C2 1_555 1_555
C2 P1 1_555 1_555
C3 C2 1_555 1_555
H2 C3 1_555 1_555
C4 C3 1_555 1_555
H3 C4 1_555 1_555
C5 C4 1_555 1_555
H4 C5 1_555 1_555
C6 C1 1_555 1_555
C7 C6 1_555 1_555
C8 C7 1_555 1_555
C9 C8 1_555 1_555
H5 C9 1_555 1_555
C10 C9 1_555 1_555
H6 C10 1_555 1_555
C11 C10 1_555 1_555
H7 C11 1_555 1_555
C12 C11 1_555 1_555
C13 O3 1_555 1_555
C14 P1 1_555 1_555
C15 C14 1_555 1_555
H8 C15 1_555 1_555
C16 C15 1_555 1_555
H9 C16 1_555 1_555
C17 C16 1_555 1_555
H10 C17 1_555 1_555
C18 C17 1_555 1_555
H11 C18 1_555 1_555
C19 C14 1_555 1_555
H12 C19 1_555 1_555
C20 P1 1_555 1_555
C21 C20 1_555 1_555
H13 C21 1_555 1_555
C22 C21 1_555 1_555
H14 C22 1_555 1_555
C23 C22 1_555 1_555
H15 C23 1_555 1_555
C24 C23 1_555 1_555
H16 C24 1_555 1_555
C25 C20 1_555 1_555
H17 C25 1_555 1_555
C26 N1 1_555 1_555
H18 C26 1_555 1_555
C27 C26 1_555 1_555
C28 C27 1_555 1_555
H19 C28 1_555 1_555
C29 C28 1_555 1_555
H20 C29 1_555 1_555
C30 C29 1_555 1_555
C31 C30 1_555 1_555
H21 C31 1_555 1_555
C32 C27 1_555 1_555
H22 C32 1_555 1_555
C33 S1 1_555 1_555
C34 C33 1_555 1_555
H23 C34 1_555 1_555
H24 C34 1_555 1_555
H25 C34 1_555 1_555
C35 C33 1_555 1_555
H26 C35 1_555 1_555
H27 C35 1_555 1_555
H28 C35 1_555 1_555
C36 C33 1_555 1_555
H29 C36 1_555 1_555
H30 C36 1_555 1_555
H31 C36 1_555 1_555
C37 C7 1_555 1_555
H32 C37 1_555 1_555
H33 C37 1_555 1_555
H34 C37 1_555 1_555
C38 C7 1_555 1_555
H35 C38 1_555 1_555
H36 C38 1_555 1_555
H37 C38 1_555 1_555
C5 C6 1_555 1_555
C8 C13 1_555 1_555
C12 C13 1_555 1_555
C12 C26 1_555 1_555
C18 C19 1_555 1_555
C24 C25 1_555 1_555
C31 C32 1_555 1_555

#END
