
#######################################################################
#
#                 Cambridge Crystallographic Data Centre
#                                CCDC 
#
#######################################################################
#
# If this CIF has been generated from an entry in the Cambridge 
# Structural Database, then it will include bibliographic, chemical, 
# crystal, experimental, refinement or atomic coordinate data resulting 
# from the CCDC's data processing and validation procedures.
#
#######################################################################

data_HEVSIL
_chemical_formula_moiety         'C38 H27 N7'
_chemical_name_systematic        
3,6-bis(2,2'-Dipyridylamino)-9-phenylcarbazole
_symmetry_cell_setting           monoclinic
_symmetry_space_group_name_H-M   'P 21/n'
_symmetry_Int_Tables_number      14
_space_group_name_Hall           '-P 2yn'
loop_
_symmetry_equiv_pos_site_id
_symmetry_equiv_pos_as_xyz
1 x,y,z
2 1/2-x,1/2+y,1/2-z
3 -x,-y,-z
4 1/2+x,1/2-y,1/2+z
_cell_length_a                   9.9254(8)
_cell_length_b                   9.3590(8)
_cell_length_c                   32.350(3)
_cell_angle_alpha                90
_cell_angle_beta                 94.903(2)
_cell_angle_gamma                90
_cell_volume                     2994.05
_cell_formula_units_Z            4
loop_
_atom_site_label
_atom_site_type_symbol
_atom_site_fract_x
_atom_site_fract_y
_atom_site_fract_z
C1 C 0.8472(4) -0.3246(3) 0.17701(10)
H1 H 0.9211 -0.3830 0.1846
C2 C 0.7215(5) -0.3795(4) 0.17622(11)
H2 H 0.7074 -0.4741 0.1835
C3 C 0.6163(4) -0.2918(5) 0.16440(14)
H3 H 0.5289 -0.3279 0.1637
C4 C 0.6337(3) -0.1546(4) 0.15369(11)
H4 H 0.5598 -0.0971 0.1455
C5 C 0.7581(3) -0.1035(3) 0.15508(8)
C6 C 0.8829(3) 0.0940(3) 0.12569(8)
C7 C 0.9236(3) 0.2350(3) 0.12965(11)
H5 H 0.8782 0.2989 0.1455
C8 C 1.0333(4) 0.2782(4) 0.10941(13)
H6 H 1.0621 0.3727 0.1112
C9 C 1.0992(4) 0.1824(4) 0.08684(12)
H7 H 1.1750 0.2092 0.0736
C10 C 1.0520(3) 0.0485(4) 0.08417(10)
H8 H 1.0969 -0.0164 0.0684
C11 C 0.6725(3) 0.1399(3) 0.15856(9)
C12 C 0.6502(3) 0.1450(4) 0.20046(9)
H9 H 0.7026 0.0885 0.2192
C13 C 0.5522(3) 0.2318(4) 0.21467(9)
H10 H 0.5368 0.2335 0.2426
C14 C 0.4775(3) 0.3162(3) 0.18626(8)
C15 C 0.5000(3) 0.3160(3) 0.14395(8)
C16 C 0.5992(3) 0.2254(3) 0.13016(8)
H11 H 0.6153 0.2229 0.1023
C17 C 0.3098(3) 0.4293(3) 0.23025(8)
C18 C 0.3741(4) 0.4855(4) 0.26452(10)
H12 H 0.4630 0.5166 0.2641
C19 C 0.3089(5) 0.4977(5) 0.30069(11)
H13 H 0.3544 0.5384 0.3241
C20 C 0.1837(5) 0.4527(4) 0.30248(12)
H14 H 0.1426 0.4578 0.3272
C21 C 0.1152(5) 0.3984(6) 0.26757(16)
H15 H 0.0255 0.3702 0.2681
C22 C 0.1787(5) 0.3857(5) 0.23181(13)
H16 H 0.1321 0.3469 0.2083
C23 C 0.3321(3) 0.4758(3) 0.15480(8)
C24 C 0.4077(2) 0.4187(3) 0.12399(8)
C25 C 0.3877(3) 0.4725(3) 0.08341(8)
H17 H 0.4371 0.4367 0.0625
C26 C 0.2942(3) 0.5786(3) 0.07509(8)
C27 C 0.2202(3) 0.6340(3) 0.10634(8)
H18 H 0.1573 0.7060 0.0999
C28 C 0.2384(3) 0.5841(3) 0.14642(8)
H19 H 0.1897 0.6218 0.1672
C29 C 0.2394(3) 0.5416(3) 0.00100(8)
C30 C 0.1524(3) 0.4326(3) 0.00708(9)
H20 H 0.1156 0.4220 0.0324
C31 C 0.1199(3) 0.3388(3) -0.02483(11)
H21 H 0.0601 0.2642 -0.0213
C32 C 0.1750(4) 0.3551(4) -0.06143(11)
H22 H 0.1550 0.2918 -0.0833
C33 C 0.2602(4) 0.4667(4) -0.06514(11)
H23 H 0.2964 0.4790 -0.0905
C34 C 0.3040(3) 0.7815(3) 0.02781(8)
C35 C 0.3810(3) 0.8469(3) 0.05750(8)
H24 H 0.4175 0.7971 0.0807
C36 C 0.4049(4) 0.9866(4) 0.05319(12)
H25 H 0.4576 1.0332 0.0742
C37 C 0.3560(4) 1.0634(4) 0.01964(13)
H26 H 0.3754 1.1602 0.0174
C38 C 0.2773(4) 0.9941(3) -0.01076(12)
H27 H 0.2429 1.0442 -0.0342
N1 N 0.8688(3) -0.1843(3) 0.16692(8)
N2 N 0.7731(2) 0.0425(2) 0.14555(8)
N3 N 0.9450(2) 0.0016(3) 0.10249(7)
N4 N 0.3742(2) 0.4128(2) 0.19262(7)
N5 N 0.2744(2) 0.6368(2) 0.03385(7)
N6 N 0.2959(3) 0.5602(3) -0.03493(8)
N7 N 0.2483(3) 0.8515(3) -0.00714(10)
loop_
_geom_bond_atom_site_label_1
_geom_bond_atom_site_label_2
_geom_bond_site_symmetry_1
_geom_bond_site_symmetry_2
C1 H1 1_555 1_555
C2 C1 1_555 1_555
H2 C2 1_555 1_555
C3 C2 1_555 1_555
H3 C3 1_555 1_555
C4 C3 1_555 1_555
H4 C4 1_555 1_555
C5 C4 1_555 1_555
C6 C7 1_555 1_555
C7 H5 1_555 1_555
C8 C7 1_555 1_555
H6 C8 1_555 1_555
C9 C8 1_555 1_555
H7 C9 1_555 1_555
C10 C9 1_555 1_555
H8 C10 1_555 1_555
C11 C12 1_555 1_555
C12 H9 1_555 1_555
C13 C12 1_555 1_555
H10 C13 1_555 1_555
C14 C13 1_555 1_555
C15 C14 1_555 1_555
C16 C11 1_555 1_555
H11 C16 1_555 1_555
C17 C18 1_555 1_555
C18 H12 1_555 1_555
C19 C18 1_555 1_555
H13 C19 1_555 1_555
C20 C19 1_555 1_555
H14 C20 1_555 1_555
C21 C20 1_555 1_555
H15 C21 1_555 1_555
C22 C17 1_555 1_555
H16 C22 1_555 1_555
C23 C24 1_555 1_555
C24 C15 1_555 1_555
C25 C24 1_555 1_555
H17 C25 1_555 1_555
C26 C25 1_555 1_555
C27 C26 1_555 1_555
H18 C27 1_555 1_555
C28 C23 1_555 1_555
H19 C28 1_555 1_555
C29 C30 1_555 1_555
C30 H20 1_555 1_555
C31 C30 1_555 1_555
H21 C31 1_555 1_555
C32 C31 1_555 1_555
H22 C32 1_555 1_555
C33 C32 1_555 1_555
H23 C33 1_555 1_555
C34 C35 1_555 1_555
C35 H24 1_555 1_555
C36 C35 1_555 1_555
H25 C36 1_555 1_555
C37 C36 1_555 1_555
H26 C37 1_555 1_555
C38 C37 1_555 1_555
H27 C38 1_555 1_555
N1 C1 1_555 1_555
N2 C5 1_555 1_555
N3 C6 1_555 1_555
N4 C14 1_555 1_555
N5 C26 1_555 1_555
N6 C29 1_555 1_555
N7 C34 1_555 1_555
C5 N1 1_555 1_555
C6 N2 1_555 1_555
C10 N3 1_555 1_555
C11 N2 1_555 1_555
C15 C16 1_555 1_555
C17 N4 1_555 1_555
C21 C22 1_555 1_555
C23 N4 1_555 1_555
C27 C28 1_555 1_555
C29 N5 1_555 1_555
C33 N6 1_555 1_555
C34 N5 1_555 1_555
C38 N7 1_555 1_555

#END
