
#######################################################################
#
#                 Cambridge Crystallographic Data Centre
#                                CCDC 
#
#######################################################################
#
# If this CIF has been generated from an entry in the Cambridge 
# Structural Database, then it will include bibliographic, chemical, 
# crystal, experimental, refinement or atomic coordinate data resulting 
# from the CCDC's data processing and validation procedures.
#
#######################################################################

data_HEWBUI
_chemical_formula_moiety         'C12 H12 N2 O2 S1'
_chemical_name_systematic        
6-Methoxy-2-(methylsulfanyl)-3-phenylpyrimidin-4(3H)-one
_symmetry_cell_setting           monoclinic
_symmetry_space_group_name_H-M   'P 21/n'
_symmetry_Int_Tables_number      14
_space_group_name_Hall           '-P 2yn'
loop_
_symmetry_equiv_pos_site_id
_symmetry_equiv_pos_as_xyz
1 x,y,z
2 1/2-x,1/2+y,1/2-z
3 -x,-y,-z
4 1/2+x,1/2-y,1/2+z
_cell_length_a                   7.7784(15)
_cell_length_b                   16.972(3)
_cell_length_c                   9.6375(19)
_cell_angle_alpha                90
_cell_angle_beta                 108.755(2)
_cell_angle_gamma                90
_cell_volume                     1204.74
_exptl_crystal_colour            colorless
_exptl_crystal_description       block
_cell_formula_units_Z            4
loop_
_atom_site_label
_atom_site_type_symbol
_atom_site_fract_x
_atom_site_fract_y
_atom_site_fract_z
S1 S 0.70575(6) 1.03316(2) 0.78182(5)
O1 O 0.79611(17) 1.02345(7) 0.30436(13)
O2 O 0.75813(17) 0.78145(7) 0.54263(14)
N1 N 0.75553(17) 1.02037(8) 0.52236(15)
N2 N 0.74109(17) 0.90122(8) 0.64482(14)
C1 C 0.7159(2) 0.86257(9) 0.77088(17)
C2 C 0.8653(2) 0.83425(9) 0.88143(19)
H1 H 0.9818 0.8408 0.8762
C3 C 0.8384(3) 0.79595(10) 1.0000(2)
H2 H 0.9374 0.7770 1.0754
C4 C 0.6645(3) 0.78591(10) 1.0063(2)
H3 H 0.6472 0.7599 1.0858
C5 C 0.5156(3) 0.81443(10) 0.8947(2)
H4 H 0.3991 0.8079 0.8998
C6 C 0.5412(2) 0.85271(9) 0.77559(19)
H5 H 0.4423 0.8715 0.6999
C7 C 0.7372(2) 0.98198(9) 0.63340(17)
C8 C 0.7621(2) 0.85317(10) 0.53076(18)
C9 C 0.7826(2) 0.89615(10) 0.41000(18)
H6 H 0.7987 0.8695 0.3307
C10 C 0.7787(2) 0.97616(10) 0.41122(18)
C11 C 0.7914(3) 0.98682(13) 0.1693(2)
H7 H 0.8917 0.9510 0.1868
H8 H 0.7998 1.0265 0.1008
H9 H 0.6796 0.9584 0.1299
C12 C 0.7109(3) 1.13313(9) 0.7207(2)
H10 H 0.8236 1.1425 0.7026
H11 H 0.7003 1.1687 0.7949
H12 H 0.6117 1.1414 0.6320
loop_
_geom_bond_atom_site_label_1
_geom_bond_atom_site_label_2
_geom_bond_site_symmetry_1
_geom_bond_site_symmetry_2
S1 C7 1_555 1_555
O1 C10 1_555 1_555
O2 C8 1_555 1_555
N1 C7 1_555 1_555
N2 C1 1_555 1_555
C1 C2 1_555 1_555
C2 H1 1_555 1_555
C3 C2 1_555 1_555
H2 C3 1_555 1_555
C4 C3 1_555 1_555
H3 C4 1_555 1_555
C5 C4 1_555 1_555
H4 C5 1_555 1_555
C6 C1 1_555 1_555
H5 C6 1_555 1_555
C7 N2 1_555 1_555
C8 N2 1_555 1_555
C9 C8 1_555 1_555
H6 C9 1_555 1_555
C10 N1 1_555 1_555
C11 O1 1_555 1_555
H7 C11 1_555 1_555
H8 C11 1_555 1_555
H9 C11 1_555 1_555
C12 S1 1_555 1_555
H10 C12 1_555 1_555
H11 C12 1_555 1_555
H12 C12 1_555 1_555
C5 C6 1_555 1_555
C9 C10 1_555 1_555

#END
