
#######################################################################
#
#                 Cambridge Crystallographic Data Centre
#                                CCDC 
#
#######################################################################
#
# If this CIF has been generated from an entry in the Cambridge 
# Structural Database, then it will include bibliographic, chemical, 
# crystal, experimental, refinement or atomic coordinate data resulting 
# from the CCDC's data processing and validation procedures.
#
#######################################################################

data_HEWFAQ
_chemical_name_common            
4$5!,9$4!-bis(Trifluoromethyl)-2,11-dioxo-3,10-diaza-5,8-dioxa-1(2,6)-pyridina-4,9(1,2)-dibenzenaundecaphane
_chemical_formula_moiety         'C23 H15 F6 N3 O4'
_chemical_name_systematic        
2,11,14-Triaza-5,8-dioxa-3,4:9,10-di(4-trifluoromethylbenzo)-13,15-pyridino(2',6')-cyclopentadecene-1,12-dione
_symmetry_cell_setting           monoclinic
_symmetry_space_group_name_H-M   'P 21/c'
_symmetry_Int_Tables_number      14
_space_group_name_Hall           '-P 2ybc'
loop_
_symmetry_equiv_pos_site_id
_symmetry_equiv_pos_as_xyz
1 x,y,z
2 -x,1/2+y,1/2-z
3 -x,-y,-z
4 x,1/2-y,1/2+z
_cell_length_a                   6.732(2)
_cell_length_b                   15.751(4)
_cell_length_c                   20.420(8)
_cell_angle_alpha                90
_cell_angle_beta                 96.54(3)
_cell_angle_gamma                90
_cell_volume                     2151.16
_chemical_melting_point          250-251deg.C
_cell_formula_units_Z            4
loop_
_atom_site_label
_atom_site_type_symbol
_atom_site_fract_x
_atom_site_fract_y
_atom_site_fract_z
N1 N 1.0650(5) 0.0963(2) 0.6145(2)
N2 N 1.3472(5) 0.2063(2) 0.5883(2)
N3 N 0.7862(6) 0.1593(2) 0.6824(2)
O1 O 1.2606(5) 0.3426(2) 0.6508(2)
O2 O 0.8949(5) 0.3189(2) 0.6962(2)
O3 O 1.4879(6) 0.1078(2) 0.5281(2)
O4 O 0.6440(5) 0.0286(2) 0.6892(2)
F1 F 0.2540(1) 0.2513(5) 0.8898(3)
F2 F 0.3373(9) 0.1302(4) 0.8718(3)
F3 F 1.9850(1) 0.4216(5) 0.4907(4)
F4 F 1.9790(1) 0.2923(4) 0.4896(4)
F5 F 0.1376(9) 0.1860(7) 0.8031(4)
F6 F 1.7910(1) 0.3633(6) 0.4213(3)
C1 C 1.1452(8) 0.4134(3) 0.6665(2)
C2 C 1.0157(7) 0.3898(3) 0.7168(2)
C3 C 1.3623(7) 0.1287(3) 0.5628(2)
C4 C 0.7681(7) 0.0760(3) 0.6696(2)
C5 C 1.8541(8) 0.3590(3) 0.4803(3)
C6 C 1.4029(6) 0.3537(3) 0.6089(2)
C7 C 1.4983(7) 0.4285(3) 0.5982(2)
C8 C 1.6458(7) 0.4314(3) 0.5557(2)
C9 C 1.6989(6) 0.3582(3) 0.5252(2)
C10 C 1.6026(7) 0.2826(3) 0.5354(2)
C11 C 1.4549(6) 0.2798(3) 0.5770(2)
C12 C 0.7512(6) 0.2932(3) 0.7346(2)
C13 C 0.6652(7) 0.3447(3) 0.7785(2)
C14 C 0.5195(8) 0.3140(4) 0.8141(3)
C15 C 0.4525(7) 0.2314(3) 0.8037(2)
C16 C 0.5363(7) 0.1785(3) 0.7600(2)
C17 C 0.6869(7) 0.2094(3) 0.7254(2)
C18 C 1.2087(7) 0.0665(3) 0.5805(2)
C19 C 1.2164(7) -0.0175(3) 0.5601(2)
C20 C 1.0655(8) -0.0722(3) 0.5740(2)
C21 C 0.9174(7) -0.0413(3) 0.6079(2)
C22 C 0.9233(7) 0.0427(3) 0.6280(2)
C23 C 0.2930(8) 0.1967(4) 0.8392(3)
loop_
_geom_bond_atom_site_label_1
_geom_bond_atom_site_label_2
_geom_bond_site_symmetry_1
_geom_bond_site_symmetry_2
N1 C18 1_555 1_555
N2 C3 1_555 1_555
N3 C4 1_555 1_555
O1 C1 1_555 1_555
O2 C2 1_555 1_555
O3 C3 1_555 1_555
O4 C4 1_555 1_555
F1 C23 1_555 1_555
F2 C23 1_555 1_555
F3 C5 1_555 1_555
F4 C5 1_555 1_555
F5 C23 1_555 1_555
F6 C5 1_555 1_555
C1 C2 1_555 1_555
C3 C18 1_555 1_555
C4 C22 1_555 1_555
C5 C9 1_555 1_555
C6 O1 1_555 1_555
C7 C6 1_555 1_555
C8 C7 1_555 1_555
C9 C8 1_555 1_555
C10 C9 1_555 1_555
C11 N2 1_555 1_555
C12 O2 1_555 1_555
C13 C12 1_555 1_555
C14 C13 1_555 1_555
C15 C14 1_555 1_555
C16 C15 1_555 1_555
C17 N3 1_555 1_555
C18 C19 1_555 1_555
C19 C20 1_555 1_555
C20 C21 1_555 1_555
C21 C22 1_555 1_555
C22 N1 1_555 1_555
C23 C15 1_555 1_555
C6 C11 1_555 1_555
C10 C11 1_555 1_555
C12 C17 1_555 1_555
C16 C17 1_555 1_555

#END
