
#######################################################################
#
#                 Cambridge Crystallographic Data Centre
#                                CCDC 
#
#######################################################################
#
# If this CIF has been generated from an entry in the Cambridge 
# Structural Database, then it will include bibliographic, chemical, 
# crystal, experimental, refinement or atomic coordinate data resulting 
# from the CCDC's data processing and validation procedures.
#
#######################################################################

data_HEWJOL
_chemical_formula_moiety         'C19 H20 Cl1 N1 O2'
_chemical_name_systematic        
2-(2-t-butoxyphenyl)-6-chloro-3-methylisoindolin-1-one
_symmetry_cell_setting           orthorhombic
_symmetry_space_group_name_H-M   'P 21 21 21'
_symmetry_Int_Tables_number      19
_space_group_name_Hall           'P 2ac 2ab'
loop_
_symmetry_equiv_pos_site_id
_symmetry_equiv_pos_as_xyz
1 x,y,z
2 1/2-x,-y,1/2+z
3 -x,1/2+y,1/2-z
4 1/2+x,1/2-y,-z
_cell_length_a                   16.674(11)
_cell_length_b                   8.400(6)
_cell_length_c                   12.281(8)
_cell_angle_alpha                90
_cell_angle_beta                 90
_cell_angle_gamma                90
_cell_volume                     1720.1
_exptl_crystal_colour            colorless
_exptl_crystal_description       plate
_cell_formula_units_Z            4
loop_
_atom_site_label
_atom_site_type_symbol
_atom_site_fract_x
_atom_site_fract_y
_atom_site_fract_z
Cl1 Cl -0.15409(3) -1.11081(6) -0.54331(5)
O1 O 0.12243(8) -0.74127(17) -0.42834(13)
O2 O 0.07047(8) -0.22055(16) -0.52832(11)
N1 N 0.04663(9) -0.51061(19) -0.41877(13)
C1 C -0.03763(10) -0.4594(2) -0.43279(16)
H1 H -0.0415 -0.3803 -0.4934
C2 C -0.07672(10) -0.6126(2) -0.46588(15)
C3 C -0.15572(11) -0.6410(2) -0.49648(16)
H2 H -0.1935 -0.5565 -0.4996
C4 C -0.17817(11) -0.7957(3) -0.52246(16)
H3 H -0.2316 -0.8180 -0.5447
C5 C -0.12196(12) -0.9178(2) -0.51569(15)
C6 C -0.04224(11) -0.8919(2) -0.48788(16)
H4 H -0.0042 -0.9760 -0.4853
C7 C -0.02153(10) -0.7358(2) -0.46404(15)
C8 C 0.05879(11) -0.6705(2) -0.43490(16)
C9 C -0.07094(12) -0.3874(3) -0.32813(18)
H5 H -0.0414 -0.2899 -0.3106
H6 H -0.0650 -0.4640 -0.2685
H7 H -0.1278 -0.3621 -0.3381
C10 C 0.10668(10) -0.4019(2) -0.38432(14)
C11 C 0.11665(10) -0.2565(2) -0.43879(15)
C12 C 0.16802(12) -0.1423(2) -0.39548(17)
H8 H 0.1722 -0.0407 -0.4290
C13 C 0.21322(13) -0.1765(3) -0.30327(18)
H9 H 0.2486 -0.0986 -0.2744
C14 C 0.20680(13) -0.3242(3) -0.25317(17)
H10 H 0.2395 -0.3489 -0.1922
C15 C 0.15289(12) -0.4349(2) -0.29205(16)
H11 H 0.1471 -0.5342 -0.2559
C16 C 0.10430(12) -0.2521(2) -0.63718(15)
C17 C 0.12093(17) -0.4279(3) -0.65156(18)
H12 H 0.0710 -0.4879 -0.6425
H13 H 0.1600 -0.4627 -0.5969
H14 H 0.1426 -0.4469 -0.7246
C18 C 0.03857(17) -0.1976(4) -0.7130(2)
H15 H 0.0282 -0.0840 -0.7013
H16 H -0.0104 -0.2584 -0.6983
H17 H 0.0552 -0.2149 -0.7886
C19 C 0.18138(19) -0.1584(4) -0.6532(2)
H18 H 0.2237 -0.2040 -0.6075
H19 H 0.1725 -0.0471 -0.6326
H20 H 0.1976 -0.1638 -0.7298
loop_
_geom_bond_atom_site_label_1
_geom_bond_atom_site_label_2
_geom_bond_site_symmetry_1
_geom_bond_site_symmetry_2
Cl1 C5 1_555 1_555
O1 C8 1_555 1_555
O2 C11 1_555 1_555
N1 C1 1_555 1_555
C1 H1 1_555 1_555
C2 C1 1_555 1_555
C3 C2 1_555 1_555
H2 C3 1_555 1_555
C4 C3 1_555 1_555
H3 C4 1_555 1_555
C5 C4 1_555 1_555
C6 C5 1_555 1_555
H4 C6 1_555 1_555
C7 C2 1_555 1_555
C8 N1 1_555 1_555
C9 C1 1_555 1_555
H5 C9 1_555 1_555
H6 C9 1_555 1_555
H7 C9 1_555 1_555
C10 N1 1_555 1_555
C11 C10 1_555 1_555
C12 C11 1_555 1_555
H8 C12 1_555 1_555
C13 C12 1_555 1_555
H9 C13 1_555 1_555
C14 C13 1_555 1_555
H10 C14 1_555 1_555
C15 C10 1_555 1_555
H11 C15 1_555 1_555
C16 O2 1_555 1_555
C17 C16 1_555 1_555
H12 C17 1_555 1_555
H13 C17 1_555 1_555
H14 C17 1_555 1_555
C18 C16 1_555 1_555
H15 C18 1_555 1_555
H16 C18 1_555 1_555
H17 C18 1_555 1_555
C19 C16 1_555 1_555
H18 C19 1_555 1_555
H19 C19 1_555 1_555
H20 C19 1_555 1_555
C6 C7 1_555 1_555
C7 C8 1_555 1_555
C14 C15 1_555 1_555

#END
