
#######################################################################
#
#                 Cambridge Crystallographic Data Centre
#                                CCDC 
#
#######################################################################
#
# If this CIF has been generated from an entry in the Cambridge 
# Structural Database, then it will include bibliographic, chemical, 
# crystal, experimental, refinement or atomic coordinate data resulting 
# from the CCDC's data processing and validation procedures.
#
#######################################################################

data_HEWLED
_chemical_formula_moiety         'C30 H31 N1 O5 S1'
_chemical_name_systematic        
'2-(1-(4-ethoxyphenyl)-4-methyl-5-(4-methylbenzylidene)-2-oxo-2,5-dihydro-1H-pyrrol-3-yl)ethyl 4-methylbenzenesulfonate'
_symmetry_cell_setting           triclinic
_symmetry_space_group_name_H-M   'P -1'
_symmetry_Int_Tables_number      2
_space_group_name_Hall           '-P 1'
loop_
_symmetry_equiv_pos_site_id
_symmetry_equiv_pos_as_xyz
1 x,y,z
2 -x,-y,-z
_cell_length_a                   9.9850(10)
_cell_length_b                   11.2880(10)
_cell_length_c                   13.0069(13)
_cell_angle_alpha                105.490(8)
_cell_angle_beta                 93.730(8)
_cell_angle_gamma                101.964(8)
_cell_volume                     1370.76
_exptl_crystal_colour            colorless
_exptl_crystal_description       block
_cell_formula_units_Z            2
loop_
_atom_site_label
_atom_site_type_symbol
_atom_site_fract_x
_atom_site_fract_y
_atom_site_fract_z
N1 N 0.0945(2) 1.00228(17) 0.83547(17)
S1 S 0.18743(10) 0.67107(7) 0.46312(7)
O1 O -0.0929(2) 0.97506(18) 0.71004(17)
O2 O 0.1911(2) 1.52470(15) 1.00466(15)
O3 O 0.0791(2) 0.64139(16) 0.54068(15)
O4 O 0.1162(3) 0.6455(2) 0.35868(18)
O5 O 0.2882(3) 0.6029(2) 0.4798(2)
C1 C 0.5138(4) 1.4337(3) 1.2568(4)
H1 H 0.5534 1.4947 1.2215
H2 H 0.4385 1.4592 1.2918
H3 H 0.5828 1.4281 1.3092
C2 C 0.4615(3) 1.3057(3) 1.1743(4)
C3 C 0.3996(3) 1.2007(3) 1.2036(3)
H4 H 0.3940 1.2079 1.2760
C4 C 0.3454(3) 1.0847(3) 1.1283(3)
H5 H 0.3065 1.0151 1.1508
C5 C 0.3489(3) 1.0715(2) 1.0187(2)
C6 C 0.4155(3) 1.1749(3) 0.9891(3)
H6 H 0.4235 1.1674 0.9169
C7 C 0.4708(3) 1.2906(3) 1.0661(4)
H7 H 0.5150 1.3590 1.0442
C8 C 0.2788(3) 0.9498(2) 0.9414(2)
H8 H 0.3146 0.8815 0.9463
C9 C 0.1715(3) 0.9220(2) 0.8651(2)
C10 C -0.0094(3) 0.9321(2) 0.7532(2)
C11 C -0.0002(3) 0.7993(2) 0.7303(2)
C12 C 0.1058(3) 0.7937(2) 0.7952(2)
C13 C 0.1568(3) 0.6796(2) 0.8006(2)
H9 H 0.2349 0.7043 0.8552
H10 H 0.0846 0.6201 0.8179
H11 H 0.1835 0.6412 0.7323
C14 C 0.1138(3) 1.1359(2) 0.8810(2)
C15 C 0.1447(3) 1.2151(2) 0.8168(2)
H12 H 0.1501 1.1813 0.7441
C16 C 0.1675(3) 1.3439(2) 0.8605(2)
H13 H 0.1863 1.3968 0.8167
C17 C 0.1629(3) 1.3956(2) 0.9690(2)
C18 C 0.1281(3) 1.3165(2) 1.0331(2)
H14 H 0.1224 1.3501 1.1058
C19 C 0.1021(3) 1.1865(2) 0.9876(2)
H15 H 0.0764 1.1330 1.0299
C20 C 0.1887(3) 1.5835(2) 1.1162(2)
H16 H 0.2551 1.5598 1.1599
H17 H 0.0977 1.5573 1.1362
C21 C 0.2249(3) 1.7241(2) 1.1333(2)
H18 H 0.2243 1.7667 1.2077
H19 H 0.3151 1.7489 1.1134
H20 H 0.1584 1.7464 1.0898
C22 C -0.0972(3) 0.6979(3) 0.6445(2)
H21 H -0.1872 0.7176 0.6419
H22 H -0.1072 0.6185 0.6620
C23 C -0.0482(3) 0.6830(3) 0.5353(2)
H23 H -0.1167 0.6211 0.4802
H24 H -0.0324 0.7630 0.5182
C24 C 0.2576(3) 0.8340(3) 0.5154(2)
C25 C 0.3468(3) 0.8772(3) 0.6107(3)
H25 H 0.3673 0.8208 0.6465
C26 C 0.4041(3) 1.0037(3) 0.6514(3)
H26 H 0.4638 1.0323 0.7154
C27 C 0.3766(3) 1.0900(3) 0.6012(3)
C28 C 0.2859(4) 1.0446(3) 0.5066(3)
H27 H 0.2643 1.1013 0.4715
C29 C 0.2271(4) 0.9173(3) 0.4634(3)
H28 H 0.1672 0.8884 0.3995
C30 C 0.4407(4) 1.2291(3) 0.6470(3)
H29 H 0.4093 1.2741 0.6008
H30 H 0.4143 1.2590 0.7173
H31 H 0.5394 1.2430 0.6522
loop_
_geom_bond_atom_site_label_1
_geom_bond_atom_site_label_2
_geom_bond_site_symmetry_1
_geom_bond_site_symmetry_2
N1 C9 1_555 1_555
S1 O3 1_555 1_555
O1 C10 1_555 1_555
O2 C17 1_555 1_555
O3 C23 1_555 1_555
O4 S1 1_555 1_555
O5 S1 1_555 1_555
C1 H1 1_555 1_555
H2 C1 1_555 1_555
H3 C1 1_555 1_555
C2 C1 1_555 1_555
C3 C2 1_555 1_555
H4 C3 1_555 1_555
C4 C3 1_555 1_555
H5 C4 1_555 1_555
C5 C4 1_555 1_555
C6 C5 1_555 1_555
H6 C6 1_555 1_555
C7 C2 1_555 1_555
H7 C7 1_555 1_555
C8 C5 1_555 1_555
H8 C8 1_555 1_555
C9 C8 1_555 1_555
C10 N1 1_555 1_555
C11 C10 1_555 1_555
C12 C9 1_555 1_555
C13 C12 1_555 1_555
H9 C13 1_555 1_555
H10 C13 1_555 1_555
H11 C13 1_555 1_555
C14 N1 1_555 1_555
C15 C14 1_555 1_555
H12 C15 1_555 1_555
C16 C15 1_555 1_555
H13 C16 1_555 1_555
C17 C16 1_555 1_555
C18 C17 1_555 1_555
H14 C18 1_555 1_555
C19 C14 1_555 1_555
H15 C19 1_555 1_555
C20 O2 1_555 1_555
H16 C20 1_555 1_555
H17 C20 1_555 1_555
C21 C20 1_555 1_555
H18 C21 1_555 1_555
H19 C21 1_555 1_555
H20 C21 1_555 1_555
C22 C11 1_555 1_555
H21 C22 1_555 1_555
H22 C22 1_555 1_555
C23 C22 1_555 1_555
H23 C23 1_555 1_555
H24 C23 1_555 1_555
C24 S1 1_555 1_555
C25 C24 1_555 1_555
H25 C25 1_555 1_555
C26 C25 1_555 1_555
H26 C26 1_555 1_555
C27 C26 1_555 1_555
C28 C27 1_555 1_555
H27 C28 1_555 1_555
C29 C24 1_555 1_555
H28 C29 1_555 1_555
C30 C27 1_555 1_555
H29 C30 1_555 1_555
H30 C30 1_555 1_555
H31 C30 1_555 1_555
C6 C7 1_555 1_555
C11 C12 1_555 1_555
C18 C19 1_555 1_555
C28 C29 1_555 1_555

#END
