
#######################################################################
#
#                 Cambridge Crystallographic Data Centre
#                                CCDC 
#
#######################################################################
#
# If this CIF has been generated from an entry in the Cambridge 
# Structural Database, then it will include bibliographic, chemical, 
# crystal, experimental, refinement or atomic coordinate data resulting 
# from the CCDC's data processing and validation procedures.
#
#######################################################################

data_HEWMAA
_chemical_formula_moiety         'C22 H29 N1 O3 S1 Si1'
_chemical_name_systematic        
1-[(4-methylphenyl)sulfonyl]-4-phenyl-3-[(trimethylsilyl)methylidene]piperidin-4-ol
_symmetry_cell_setting           monoclinic
_symmetry_space_group_name_H-M   'P 21/n'
_symmetry_Int_Tables_number      14
_space_group_name_Hall           '-P 2yn'
loop_
_symmetry_equiv_pos_site_id
_symmetry_equiv_pos_as_xyz
1 x,y,z
2 1/2-x,1/2+y,1/2-z
3 -x,-y,-z
4 1/2+x,1/2-y,1/2+z
_cell_length_a                   9.8648(12)
_cell_length_b                   14.0886(17)
_cell_length_c                   16.4805(19)
_cell_angle_alpha                90
_cell_angle_beta                 96.475(3)
_cell_angle_gamma                90
_cell_volume                     2275.87
_exptl_crystal_colour            colorless
_exptl_crystal_description       prismatic
_cell_formula_units_Z            4
loop_
_atom_site_label
_atom_site_type_symbol
_atom_site_fract_x
_atom_site_fract_y
_atom_site_fract_z
S1 S 0.18023(5) 0.72333(3) 0.14729(3)
Si1 Si 0.22189(6) 0.52658(4) 0.42147(3)
N1 N 0.10339(15) 0.62443(10) 0.16826(9)
O1 O 0.09595(14) 0.37967(9) 0.14773(8)
H1 H 0.1497 0.3498 0.1796
O2 O 0.08314(16) 0.77820(10) 0.09713(10)
O3 O 0.23960(18) 0.76045(10) 0.22382(9)
C1 C 0.00538(18) 0.43256(12) 0.19253(10)
C2 C -0.06599(19) 0.50288(14) 0.13121(11)
H2 H -0.1130 0.4678 0.0858
H3 H -0.1340 0.5376 0.1573
C3 C 0.0309(2) 0.57311(14) 0.09846(11)
H4 H 0.0957 0.5398 0.0686
H5 H -0.0197 0.6175 0.0616
C4 C 0.18333(19) 0.55985(14) 0.22498(11)
H6 H 0.2306 0.5963 0.2695
H7 H 0.2514 0.5280 0.1966
C5 C 0.09367(17) 0.48664(12) 0.25922(11)
C6 C 0.10570(19) 0.46804(13) 0.33869(11)
H8 H 0.0498 0.4203 0.3552
C7 C -0.10352(18) 0.36835(13) 0.22144(10)
C8 C -0.1173(2) 0.27556(14) 0.19495(12)
H9 H -0.0543 0.2502 0.1630
C9 C -0.2243(2) 0.21968(16) 0.21564(15)
H10 H -0.2327 0.1574 0.1970
C10 C -0.3171(3) 0.2551(2) 0.26303(16)
H11 H -0.3882 0.2172 0.2769
C11 C -0.3051(2) 0.3464(2) 0.28997(15)
H12 H -0.3681 0.3707 0.3224
C12 C -0.1996(2) 0.40330(17) 0.26936(13)
H13 H -0.1930 0.4657 0.2878
C13 C 0.4016(2) 0.5275(2) 0.39751(16)
H14 H 0.4579 0.5594 0.4404
H15 H 0.4068 0.5602 0.3468
H16 H 0.4330 0.4635 0.3929
C14 C 0.2119(3) 0.45756(19) 0.51693(13)
H17 H 0.2366 0.3927 0.5083
H18 H 0.1205 0.4601 0.5315
H19 H 0.2735 0.4843 0.5602
C15 C 0.1657(4) 0.6510(2) 0.43548(19)
H20 H 0.2264 0.6810 0.4774
H21 H 0.0748 0.6510 0.4511
H22 H 0.1668 0.6853 0.3852
C16 C 0.31270(19) 0.69186(13) 0.08926(11)
C17 C 0.4410(2) 0.67193(17) 0.12713(14)
H23 H 0.4599 0.6784 0.1834
C18 C 0.5411(2) 0.64237(18) 0.08120(16)
H24 H 0.6277 0.6292 0.1072
C19 C 0.5165(2) 0.63174(14) -0.00220(14)
C20 C 0.3874(2) 0.65260(15) -0.03896(13)
H25 H 0.3686 0.6462 -0.0953
C21 C 0.2858(2) 0.68272(14) 0.00576(12)
H26 H 0.1995 0.6968 -0.0202
C22 C 0.6264(3) 0.59816(18) -0.05185(18)
H27 H 0.7122 0.6254 -0.0304
H28 H 0.6044 0.6175 -0.1077
H29 H 0.6325 0.5302 -0.0491
loop_
_geom_bond_atom_site_label_1
_geom_bond_atom_site_label_2
_geom_bond_site_symmetry_1
_geom_bond_site_symmetry_2
S1 N1 1_555 1_555
Si1 C6 1_555 1_555
N1 C3 1_555 1_555
O1 H1 1_555 1_555
O2 S1 1_555 1_555
O3 S1 1_555 1_555
C1 O1 1_555 1_555
C2 C1 1_555 1_555
H2 C2 1_555 1_555
H3 C2 1_555 1_555
C3 C2 1_555 1_555
H4 C3 1_555 1_555
H5 C3 1_555 1_555
C4 N1 1_555 1_555
H6 C4 1_555 1_555
H7 C4 1_555 1_555
C5 C1 1_555 1_555
C6 C5 1_555 1_555
H8 C6 1_555 1_555
C7 C1 1_555 1_555
C8 C7 1_555 1_555
H9 C8 1_555 1_555
C9 C8 1_555 1_555
H10 C9 1_555 1_555
C10 C9 1_555 1_555
H11 C10 1_555 1_555
C11 C10 1_555 1_555
H12 C11 1_555 1_555
C12 C7 1_555 1_555
H13 C12 1_555 1_555
C13 Si1 1_555 1_555
H14 C13 1_555 1_555
H15 C13 1_555 1_555
H16 C13 1_555 1_555
C14 Si1 1_555 1_555
H17 C14 1_555 1_555
H18 C14 1_555 1_555
H19 C14 1_555 1_555
C15 Si1 1_555 1_555
H20 C15 1_555 1_555
H21 C15 1_555 1_555
H22 C15 1_555 1_555
C16 S1 1_555 1_555
C17 C16 1_555 1_555
H23 C17 1_555 1_555
C18 C17 1_555 1_555
H24 C18 1_555 1_555
C19 C18 1_555 1_555
C20 C19 1_555 1_555
H25 C20 1_555 1_555
C21 C16 1_555 1_555
H26 C21 1_555 1_555
C22 C19 1_555 1_555
H27 C22 1_555 1_555
H28 C22 1_555 1_555
H29 C22 1_555 1_555
C4 C5 1_555 1_555
C11 C12 1_555 1_555
C20 C21 1_555 1_555

#END
