
#######################################################################
#
#                 Cambridge Crystallographic Data Centre
#                                CCDC 
#
#######################################################################
#
# If this CIF has been generated from an entry in the Cambridge 
# Structural Database, then it will include bibliographic, chemical, 
# crystal, experimental, refinement or atomic coordinate data resulting 
# from the CCDC's data processing and validation procedures.
#
#######################################################################

data_HEWPEH
_chemical_formula_moiety         'C15 H15 F1 O3 S1'
_chemical_name_systematic        
2-(4-fluorophenyl)-1-(phenylsulfonyl)propan-2-ol
_symmetry_cell_setting           monoclinic
_symmetry_space_group_name_H-M   'P 21/c'
_symmetry_Int_Tables_number      14
_space_group_name_Hall           '-P 2ybc'
loop_
_symmetry_equiv_pos_site_id
_symmetry_equiv_pos_as_xyz
1 x,y,z
2 -x,1/2+y,1/2-z
3 -x,-y,-z
4 x,1/2-y,1/2+z
_cell_length_a                   11.8458(16)
_cell_length_b                   5.8269(9)
_cell_length_c                   20.094(3)
_cell_angle_alpha                90
_cell_angle_beta                 90.619(5)
_cell_angle_gamma                90
_cell_volume                     1386.89
_exptl_crystal_colour            colorless
_cell_formula_units_Z            4
loop_
_atom_site_label
_atom_site_type_symbol
_atom_site_fract_x
_atom_site_fract_y
_atom_site_fract_z
C1 C 0.87881(16) 0.7454(3) 0.66087(9)
C2 C 0.91410(18) 0.9546(4) 0.68663(11)
H1 H 0.9610 1.0504 0.6623
C3 C 0.8779(2) 1.0176(4) 0.74928(12)
H2 H 0.9006 1.1574 0.7673
C4 C 0.8089(2) 0.8757(4) 0.78502(12)
H3 H 0.7855 0.9191 0.8272
C5 C 0.7742(2) 0.6696(4) 0.75869(11)
H4 H 0.7273 0.5742 0.7831
C6 C 0.80848(18) 0.6034(4) 0.69618(10)
H5 H 0.7844 0.4646 0.6781
C7 C 0.86812(18) 0.8374(3) 0.52091(10)
H6 H 0.8709 0.9938 0.5373
H7 H 0.9155 0.8309 0.4819
C8 C 0.74592(18) 0.7876(3) 0.49834(10)
C9 C 0.66393(16) 0.7897(3) 0.55582(10)
C10 C 0.65676(18) 0.9800(4) 0.59743(10)
H8 H 0.7031 1.1059 0.5898
C11 C 0.5827(2) 0.9857(4) 0.64944(12)
H9 H 0.5793 1.1123 0.6775
C12 C 0.5141(2) 0.8000(5) 0.65887(13)
C13 C 0.5161(2) 0.6121(5) 0.61920(14)
H10 H 0.4677 0.4893 0.6267
C14 C 0.59182(18) 0.6073(4) 0.56721(12)
H11 H 0.5943 0.4795 0.5395
C15 C 0.7112(2) 0.9687(4) 0.44712(12)
H12 H 0.7664 0.9749 0.4125
H13 H 0.7064 1.1158 0.4684
H14 H 0.6390 0.9293 0.4282
F1 F 0.44067(15) 0.8059(3) 0.71050(9)
O1 O 1.04899(13) 0.7063(4) 0.58226(8)
O2 O 0.89430(17) 0.4251(3) 0.57139(8)
O3 O 0.74180(14) 0.5739(3) 0.46370(8)
H15 H 0.7870 0.4843 0.4807
S1 S 0.92983(4) 0.65718(9) 0.58278(2)
loop_
_geom_bond_atom_site_label_1
_geom_bond_atom_site_label_2
_geom_bond_site_symmetry_1
_geom_bond_site_symmetry_2
C1 C2 1_555 1_555
C2 H1 1_555 1_555
C3 C2 1_555 1_555
H2 C3 1_555 1_555
C4 C3 1_555 1_555
H3 C4 1_555 1_555
C5 C4 1_555 1_555
H4 C5 1_555 1_555
C6 C1 1_555 1_555
H5 C6 1_555 1_555
C7 H6 1_555 1_555
H7 C7 1_555 1_555
C8 C7 1_555 1_555
C9 C8 1_555 1_555
C10 C9 1_555 1_555
H8 C10 1_555 1_555
C11 C10 1_555 1_555
H9 C11 1_555 1_555
C12 C11 1_555 1_555
C13 C12 1_555 1_555
H10 C13 1_555 1_555
C14 C9 1_555 1_555
H11 C14 1_555 1_555
C15 C8 1_555 1_555
H12 C15 1_555 1_555
H13 C15 1_555 1_555
H14 C15 1_555 1_555
F1 C12 1_555 1_555
O1 S1 1_555 1_555
O2 S1 1_555 1_555
O3 C8 1_555 1_555
H15 O3 1_555 1_555
S1 C1 1_555 1_555
C5 C6 1_555 1_555
C7 S1 1_555 1_555
C13 C14 1_555 1_555

#END
