
#######################################################################
#
#                 Cambridge Crystallographic Data Centre
#                                CCDC 
#
#######################################################################
#
# If this CIF has been generated from an entry in the Cambridge 
# Structural Database, then it will include bibliographic, chemical, 
# crystal, experimental, refinement or atomic coordinate data resulting 
# from the CCDC's data processing and validation procedures.
#
#######################################################################

data_HEWWIS
_chemical_formula_moiety         'C16 H17 N1 O5'
_chemical_name_systematic        
10-(methoxymethyl)-6a-nitro-6a,7,10,10a-tetrahydro-6H-dibenzo[b,d]pyran-8-carbaldehyde
_symmetry_cell_setting           orthorhombic
_symmetry_space_group_name_H-M   'P 21 21 21'
_symmetry_Int_Tables_number      19
_space_group_name_Hall           'P 2ac 2ab'
loop_
_symmetry_equiv_pos_site_id
_symmetry_equiv_pos_as_xyz
1 x,y,z
2 1/2-x,-y,1/2+z
3 -x,1/2+y,1/2-z
4 1/2+x,1/2-y,-z
_cell_length_a                   9.19831(6)
_cell_length_b                   9.53797(7)
_cell_length_c                   33.4535(3)
_cell_angle_alpha                90
_cell_angle_beta                 90
_cell_angle_gamma                90
_cell_volume                     2934.98
_exptl_crystal_colour            colorless
_exptl_crystal_description       block
_cell_formula_units_Z            8
loop_
_atom_site_label
_atom_site_type_symbol
_atom_site_fract_x
_atom_site_fract_y
_atom_site_fract_z
O1 O 0.12223(17) 0.78999(14) 0.17280(4)
O2 O 0.24361(16) 0.30423(15) 0.30762(4)
O3 O 0.43558(15) 0.71926(15) 0.21070(5)
O4 O 0.34575(16) 0.51663(14) 0.19658(4)
N1 N 0.33791(17) 0.63258(16) 0.21219(4)
C1 C 0.16207(18) 0.55059(18) 0.26229(5)
H1 H 0.0680 0.5654 0.2747
H2 H 0.1591 0.4625 0.2478
C2 C 0.27866(19) 0.54529(19) 0.29385(5)
C3 C 0.19559(18) 0.66992(17) 0.23374(5)
C4 C 0.3540(2) 0.6584(2) 0.30456(5)
H3 H 0.4303 0.6457 0.3224
C5 C 0.1670(2) 0.9170(2) 0.18845(6)
C6 C 0.20985(19) 0.80884(18) 0.25631(5)
H4 H 0.1168 0.8205 0.2702
C7 C 0.3106(2) 0.4119(2) 0.31338(5)
H5 H 0.3874 0.4094 0.3314
C8 C 0.21818(19) 0.93136(19) 0.22762(5)
C9 C 0.0819(2) 0.68548(19) 0.20100(5)
H6 H 0.0700 0.5965 0.1874
H7 H -0.0107 0.7103 0.2129
O5 O 0.1501(4) 0.8750(5) 0.33940(7)
C10 C 0.3257(2) 0.8048(2) 0.29008(6)
H8 H 0.4168 0.8380 0.2782
C11 C 0.2697(2) 1.0634(2) 0.23863(7)
H9 H 0.3070 1.0758 0.2642
C12 C 0.1644(3) 1.0295(2) 0.16237(6)
H10 H 0.1294 1.0177 0.1365
C13 C 0.2670(3) 1.1766(2) 0.21273(8)
H11 H 0.3010 1.2637 0.2210
C14 C 0.2137(3) 1.1596(2) 0.17467(8)
H12 H 0.2108 1.2353 0.1572
C15 C 0.2916(8) 0.9039(6) 0.3245(2)
H13 H 0.3626 0.8918 0.3456
H14 H 0.2965 1.0002 0.3153
C16 C 0.1459(9) 0.8023(5) 0.37646(14)
H15 H 0.1916 0.7124 0.3735
H16 H 0.0467 0.7896 0.3846
H17 H 0.1967 0.8557 0.3964
O7 O 0.06569(15) 0.17248(15) 0.41358(4)
O8 O 0.61581(16) 0.01757(14) 0.43271(4)
O9 O 0.49071(15) 0.53883(14) 0.40515(4)
O10 O 0.55712(16) 0.54636(15) 0.50647(4)
O11 O 0.30187(15) 0.58248(15) 0.44140(5)
N2 N 0.40941(16) 0.51269(15) 0.43311(4)
C19 C 0.31688(18) 0.22422(17) 0.41301(5)
C20 C 0.58583(18) 0.31715(17) 0.44905(5)
H24 H 0.5974 0.2389 0.4678
C21 C 0.1797(2) 0.17543(18) 0.39563(5)
H25 H 0.1804 0.1449 0.3692
C22 C 0.43974(18) 0.21415(17) 0.39179(5)
H26 H 0.4319 0.1823 0.3656
C23 C 0.70850(19) 0.41841(18) 0.45876(5)
C24 C 0.58931(17) 0.25003(17) 0.40672(5)
H27 H 0.6333 0.3172 0.3882
C25 C 0.8438(2) 0.4118(2) 0.44039(6)
H28 H 0.8607 0.3427 0.4213
C26 C 0.44112(19) 0.38512(18) 0.45994(5)
C27 C 0.6878(2) 0.52326(19) 0.48752(5)
C28 C 0.67855(19) 0.11420(18) 0.40566(5)
H29 H 0.6783 0.0754 0.3789
H30 H 0.7784 0.1333 0.4132
C29 C 0.31523(19) 0.28312(19) 0.45470(5)
H31 H 0.3237 0.2075 0.4740
H32 H 0.2239 0.3312 0.4595
C30 C 0.4490(2) 0.4402(2) 0.50245(5)
H33 H 0.3551 0.4783 0.5100
H34 H 0.4712 0.3635 0.5205
C31 C 0.7987(2) 0.6161(2) 0.49732(6)
H35 H 0.7832 0.6843 0.5167
C32 C 0.9314(2) 0.6075(2) 0.47840(7)
H36 H 1.0053 0.6701 0.4849
C33 C 0.9543(2) 0.5051(2) 0.44969(7)
H37 H 1.0435 0.4991 0.4367
C34 C 0.6622(3) -0.1210(2) 0.42589(7)
H38 H 0.6309 -0.1507 0.3999
H39 H 0.6210 -0.1816 0.4458
H40 H 0.7664 -0.1252 0.4274
H18? H 0.4153 0.8539 0.2826
O6? O 0.1316(6) 0.7886(10) 0.34380(15)
C17? C 0.0779(12) 0.8305(10) 0.3822(3)
H19? H 0.0311 0.9201 0.3799
H20? H 0.1575 0.8371 0.4007
H21? H 0.0093 0.7623 0.3916
C18? C 0.2532(14) 0.8677(13) 0.3305(4)
H22? H 0.3259 0.8695 0.3515
H23? H 0.2227 0.9636 0.3256
loop_
_geom_bond_atom_site_label_1
_geom_bond_atom_site_label_2
_geom_bond_site_symmetry_1
_geom_bond_site_symmetry_2
O1 C5 1_555 1_555
O2 C7 1_555 1_555
O3 N1 1_555 1_555
O4 N1 1_555 1_555
N1 C3 1_555 1_555
C1 H1 1_555 1_555
H2 C1 1_555 1_555
C2 C1 1_555 1_555
C3 C1 1_555 1_555
C4 C2 1_555 1_555
H3 C4 1_555 1_555
C5 C8 1_555 1_555
C6 C3 1_555 1_555
H4 C6 1_555 1_555
C7 C2 1_555 1_555
H5 C7 1_555 1_555
C8 C6 1_555 1_555
C9 O1 1_555 1_555
H6 C9 1_555 1_555
H7 C9 1_555 1_555
O5 C15 1_555 1_555
C10 C4 1_555 1_555
H8 C10 1_555 1_555
C11 C8 1_555 1_555
H9 C11 1_555 1_555
C12 C5 1_555 1_555
H10 C12 1_555 1_555
C13 C11 1_555 1_555
H11 C13 1_555 1_555
C14 C12 1_555 1_555
H12 C14 1_555 1_555
C15 C10 1_555 1_555
H13 C15 1_555 1_555
H14 C15 1_555 1_555
C16 O5 1_555 1_555
H15 C16 1_555 1_555
H16 C16 1_555 1_555
H17 C16 1_555 1_555
O7 C21 1_555 1_555
O8 C28 1_555 1_555
O9 N2 1_555 1_555
O10 C27 1_555 1_555
O11 N2 1_555 1_555
N2 C26 1_555 1_555
C19 C21 1_555 1_555
C20 H24 1_555 1_555
C21 H25 1_555 1_555
C22 C19 1_555 1_555
H26 C22 1_555 1_555
C23 C20 1_555 1_555
C24 C20 1_555 1_555
H27 C24 1_555 1_555
C25 C23 1_555 1_555
H28 C25 1_555 1_555
C26 C20 1_555 1_555
C27 C23 1_555 1_555
C28 C24 1_555 1_555
H29 C28 1_555 1_555
H30 C28 1_555 1_555
C29 C19 1_555 1_555
H31 C29 1_555 1_555
H32 C29 1_555 1_555
C30 O10 1_555 1_555
H33 C30 1_555 1_555
H34 C30 1_555 1_555
C31 C27 1_555 1_555
H35 C31 1_555 1_555
C32 C31 1_555 1_555
H36 C32 1_555 1_555
C33 C25 1_555 1_555
H37 C33 1_555 1_555
C34 O8 1_555 1_555
H38 C34 1_555 1_555
H39 C34 1_555 1_555
H40 C34 1_555 1_555
C3 C9 1_555 1_555
C6 C10 1_555 1_555
C13 C14 1_555 1_555
C22 C24 1_555 1_555
C26 C29 1_555 1_555
C26 C30 1_555 1_555
C32 C33 1_555 1_555

#END
