
#######################################################################
#
#                 Cambridge Crystallographic Data Centre
#                                CCDC 
#
#######################################################################
#
# If this CIF has been generated from an entry in the Cambridge 
# Structural Database, then it will include bibliographic, chemical, 
# crystal, experimental, refinement or atomic coordinate data resulting 
# from the CCDC's data processing and validation procedures.
#
#######################################################################

data_HEWXOW
_chemical_formula_moiety         'C42 H66 N8 Na2 O2'
_chemical_name_systematic        
bis(\m~2~-2-(Phenoxy)phenylamido-N,N)-bis(pentamethyldiethylenetriamine)-di-sodium
_symmetry_cell_setting           monoclinic
_symmetry_space_group_name_H-M   'P 21/n'
_symmetry_Int_Tables_number      14
_space_group_name_Hall           '-P 2yn'
loop_
_symmetry_equiv_pos_site_id
_symmetry_equiv_pos_as_xyz
1 x,y,z
2 1/2-x,1/2+y,1/2-z
3 -x,-y,-z
4 1/2+x,1/2-y,1/2+z
_cell_length_a                   10.858(2)
_cell_length_b                   16.140(3)
_cell_length_c                   12.739(3)
_cell_angle_alpha                90
_cell_angle_beta                 98.04(3)
_cell_angle_gamma                90
_cell_volume                     2210.54
_exptl_crystal_colour            colorless
_chemical_melting_point          117-119deg.C
_cell_formula_units_Z            2
_chemical_properties_physical    'highly air-sensitive'
loop_
_atom_site_label
_atom_site_type_symbol
_atom_site_fract_x
_atom_site_fract_y
_atom_site_fract_z
Na1 Na 0.0415(1) 0.0087(1) 0.6254(1)
O1 O 0.1987(2) 0.2403(1) 0.4222(2)
N1 N -0.1450(2) 0.0034(2) 0.7479(2)
N2 N 0.1112(3) 0.0668(2) 0.8083(2)
N3 N 0.2743(2) -0.0218(2) 0.6801(2)
N4 N 0.0509(3) 0.1056(2) 0.4819(2)
C1 C -0.2748(3) 0.0133(3) 0.7034(3)
C2 C -0.1255(4) -0.0799(2) 0.7908(3)
C3 C -0.1121(3) 0.0662(2) 0.8307(3)
C4 C 0.0206(4) 0.0615(2) 0.8832(3)
C5 C 0.1293(4) 0.1534(2) 0.7796(3)
C6 C 0.2304(4) 0.0296(2) 0.8545(3)
C7 C 0.3232(3) 0.0236(2) 0.7768(3)
C8 C 0.3533(3) -0.0074(2) 0.5975(3)
C9 C 0.2641(4) -0.1103(2) 0.7013(3)
C10 C 0.0899(3) 0.2554(2) 0.4708(3)
C11 C 0.0206(3) 0.1856(2) 0.4965(2)
C12 C -0.0855(3) 0.2069(2) 0.5439(3)
C13 C -0.1164(4) 0.2868(3) 0.5651(4)
C14 C -0.0446(4) 0.3530(3) 0.5389(4)
C15 C 0.0584(4) 0.3358(2) 0.4905(3)
C16 C 0.3105(3) 0.2334(2) 0.4895(3)
C17 C 0.4159(4) 0.2130(2) 0.4430(4)
C18 C 0.5292(4) 0.2067(2) 0.5073(5)
C19 C 0.5399(4) 0.2194(2) 0.6152(5)
C20 C 0.4366(3) 0.2387(2) 0.6593(3)
C21 C 0.3215(3) 0.2467(2) 0.5966(3)
H1 H 0.1201(30) 0.1058(18) 0.4571(24)
H2 H -0.2876(5) 0.0686(6) 0.6722(16)
H3 H -0.3271(4) 0.0065(14) 0.7596(5)
H4 H -0.2972(7) -0.0287(9) 0.6485(13)
H5 H -0.0363(4) -0.0893(5) 0.8122(15)
H6 H -0.1577(17) -0.1204(2) 0.7366(6)
H7 H -0.1693(16) -0.0860(5) 0.8526(10)
H8 H -0.1676(3) 0.0597(2) 0.8855(3)
H9 H -0.1272(3) 0.1219(2) 0.7989(3)
H10 H 0.0362(4) 0.1072(2) 0.9352(3)
H11 H 0.0331(4) 0.0086(2) 0.9226(3)
H12 H 0.1567(4) 0.1853(2) 0.8421(3)
H13 H 0.1906(4) 0.1562(2) 0.7323(3)
H14 H 0.0519(4) 0.1752(2) 0.7450(3)
H15 H 0.2146(4) -0.0267(2) 0.8806(3)
H16 H 0.2669(4) 0.0632(2) 0.9161(3)
H17 H 0.3469(3) 0.0802(2) 0.7573(3)
H18 H 0.3991(3) -0.0046(2) 0.8115(3)
H19 H 0.3189(11) -0.0371(11) 0.5329(6)
H20 H 0.4376(6) -0.0275(12) 0.6219(7)
H21 H 0.3560(16) 0.0521(3) 0.5824(12)
H22 H 0.2348(18) -0.1394(3) 0.6357(5)
H23 H 0.2114(15) -0.1197(2) 0.7544(12)
H24 H 0.3503(5) -0.1314(3) 0.7281(15)
H25 H -0.1379(3) 0.1635(2) 0.5619(3)
H26 H -0.1881(4) 0.2972(3) 0.5981(4)
H27 H -0.0659(4) 0.4084(3) 0.5540(4)
H28 H 0.1081(4) 0.3800(2) 0.4706(3)
H29 H 0.4098(4) 0.2036(2) 0.3688(4)
H30 H 0.6014(4) 0.1934(2) 0.4763(5)
H31 H 0.6185(4) 0.2146(2) 0.6582(5)
H32 H 0.4429(3) 0.2467(2) 0.7337(3)
H33 H 0.2504(3) 0.2616(2) 0.6281(3)
N4B N -0.0509(3) -0.1056(2) 0.5181(2)
Na1B Na -0.0415(1) -0.0087(1) 0.3746(1)
C11B C -0.0206(3) -0.1856(2) 0.5035(2)
H1B H -0.1201(30) -0.1058(18) 0.5429(24)
N1B N 0.1450(2) -0.0034(2) 0.2521(2)
N2B N -0.1112(3) -0.0668(2) 0.1917(2)
N3B N -0.2743(2) 0.0218(2) 0.3199(2)
C10B C -0.0899(3) -0.2554(2) 0.5292(3)
C12B C 0.0855(3) -0.2069(2) 0.4561(3)
C1B C 0.2748(3) -0.0133(3) 0.2966(3)
C2B C 0.1255(4) 0.0799(2) 0.2092(3)
C3B C 0.1121(3) -0.0662(2) 0.1693(3)
C4B C -0.0206(4) -0.0615(2) 0.1168(3)
C5B C -0.1293(4) -0.1534(2) 0.2204(3)
C6B C -0.2304(4) -0.0296(2) 0.1455(3)
C7B C -0.3232(3) -0.0236(2) 0.2232(3)
C8B C -0.3533(3) 0.0074(2) 0.4025(3)
C9B C -0.2641(4) 0.1103(2) 0.2987(3)
O1B O -0.1987(2) -0.2403(1) 0.5778(2)
C15B C -0.0584(4) -0.3358(2) 0.5095(3)
C13B C 0.1164(4) -0.2868(3) 0.4349(4)
H25B H 0.1379(3) -0.1635(2) 0.4381(3)
H2B H 0.2876(5) -0.0686(6) 0.3278(16)
H3B H 0.3271(4) -0.0065(14) 0.2404(5)
H4B H 0.2972(7) 0.0287(9) 0.3515(13)
H5B H 0.0363(4) 0.0893(5) 0.1878(15)
H6B H 0.1577(17) 0.1204(2) 0.2634(6)
H7B H 0.1693(16) 0.0860(5) 0.1474(10)
H8B H 0.1676(3) -0.0597(2) 0.1145(3)
H9B H 0.1272(3) -0.1219(2) 0.2011(3)
H10B H -0.0362(4) -0.1072(2) 0.0648(3)
H11B H -0.0331(4) -0.0086(2) 0.0774(3)
H12B H -0.1567(4) -0.1853(2) 0.1579(3)
H13B H -0.1906(4) -0.1562(2) 0.2677(3)
H14B H -0.0519(4) -0.1752(2) 0.2550(3)
H15B H -0.2146(4) 0.0267(2) 0.1194(3)
H16B H -0.2669(4) -0.0632(2) 0.0839(3)
H17B H -0.3469(3) -0.0802(2) 0.2427(3)
H18B H -0.3991(3) 0.0046(2) 0.1885(3)
H19B H -0.3189(11) 0.0371(11) 0.4671(6)
H20B H -0.4376(6) 0.0275(12) 0.3781(7)
H21B H -0.3560(16) -0.0521(3) 0.4176(12)
H22B H -0.2348(18) 0.1394(3) 0.3643(5)
H23B H -0.2114(15) 0.1197(2) 0.2456(12)
H24B H -0.3503(5) 0.1314(3) 0.2719(15)
C16B C -0.3105(3) -0.2334(2) 0.5105(3)
C14B C 0.0446(4) -0.3530(3) 0.4611(4)
H28B H -0.1081(4) -0.3800(2) 0.5294(3)
H26B H 0.1881(4) -0.2972(3) 0.4019(4)
C17B C -0.4159(4) -0.2130(2) 0.5570(4)
C21B C -0.3215(3) -0.2467(2) 0.4034(3)
H27B H 0.0659(4) -0.4084(3) 0.4460(4)
C18B C -0.5292(4) -0.2067(2) 0.4927(5)
H29B H -0.4098(4) -0.2036(2) 0.6312(4)
C20B C -0.4366(3) -0.2387(2) 0.3407(3)
H33B H -0.2504(3) -0.2616(2) 0.3719(3)
C19B C -0.5399(4) -0.2194(2) 0.3848(5)
H30B H -0.6014(4) -0.1934(2) 0.5237(5)
H32B H -0.4429(3) -0.2467(2) 0.2663(3)
H31B H -0.6185(4) -0.2146(2) 0.3418(5)
loop_
_geom_bond_atom_site_label_1
_geom_bond_atom_site_label_2
_geom_bond_site_symmetry_1
_geom_bond_site_symmetry_2
Na1 N1 1_555 1_555
O1 C10 1_555 1_555
N1 C1 1_555 1_555
N2 Na1 1_555 1_555
N3 Na1 1_555 1_555
N4 Na1 1_555 1_555
C1 H2 1_555 1_555
C2 N1 1_555 1_555
C3 N1 1_555 1_555
C4 N2 1_555 1_555
C5 N2 1_555 1_555
C6 N2 1_555 1_555
C7 N3 1_555 1_555
C8 N3 1_555 1_555
C9 N3 1_555 1_555
C10 C11 1_555 1_555
C11 N4 1_555 1_555
C12 C11 1_555 1_555
C13 C12 1_555 1_555
C14 C13 1_555 1_555
C15 C10 1_555 1_555
C16 O1 1_555 1_555
C17 C16 1_555 1_555
C18 C17 1_555 1_555
C19 C18 1_555 1_555
C20 C19 1_555 1_555
C21 C16 1_555 1_555
H1 N4 1_555 1_555
H3 C1 1_555 1_555
H4 C1 1_555 1_555
H5 C2 1_555 1_555
H6 C2 1_555 1_555
H7 C2 1_555 1_555
H8 C3 1_555 1_555
H9 C3 1_555 1_555
H10 C4 1_555 1_555
H11 C4 1_555 1_555
H12 C5 1_555 1_555
H13 C5 1_555 1_555
H14 C5 1_555 1_555
H15 C6 1_555 1_555
H16 C6 1_555 1_555
H17 C7 1_555 1_555
H18 C7 1_555 1_555
H19 C8 1_555 1_555
H20 C8 1_555 1_555
H21 C8 1_555 1_555
H22 C9 1_555 1_555
H23 C9 1_555 1_555
H24 C9 1_555 1_555
H25 C12 1_555 1_555
H26 C13 1_555 1_555
H27 C14 1_555 1_555
H28 C15 1_555 1_555
H29 C17 1_555 1_555
H30 C18 1_555 1_555
H31 C19 1_555 1_555
H32 C20 1_555 1_555
H33 C21 1_555 1_555
N4B Na1 1_555 1_555
Na1B N4 1_555 1_555
C11B N4B 1_555 1_555
H1B N4B 1_555 1_555
N1B Na1B 1_555 1_555
N2B Na1B 1_555 1_555
N3B Na1B 1_555 1_555
C10B C11B 1_555 1_555
C12B C11B 1_555 1_555
C1B N1B 1_555 1_555
C2B N1B 1_555 1_555
C3B N1B 1_555 1_555
C4B N2B 1_555 1_555
C5B N2B 1_555 1_555
C6B N2B 1_555 1_555
C7B N3B 1_555 1_555
C8B N3B 1_555 1_555
C9B N3B 1_555 1_555
O1B C10B 1_555 1_555
C15B C10B 1_555 1_555
C13B C12B 1_555 1_555
H25B C12B 1_555 1_555
H2B C1B 1_555 1_555
H3B C1B 1_555 1_555
H4B C1B 1_555 1_555
H5B C2B 1_555 1_555
H6B C2B 1_555 1_555
H7B C2B 1_555 1_555
H8B C3B 1_555 1_555
H9B C3B 1_555 1_555
H10B C4B 1_555 1_555
H11B C4B 1_555 1_555
H12B C5B 1_555 1_555
H13B C5B 1_555 1_555
H14B C5B 1_555 1_555
H15B C6B 1_555 1_555
H16B C6B 1_555 1_555
H17B C7B 1_555 1_555
H18B C7B 1_555 1_555
H19B C8B 1_555 1_555
H20B C8B 1_555 1_555
H21B C8B 1_555 1_555
H22B C9B 1_555 1_555
H23B C9B 1_555 1_555
H24B C9B 1_555 1_555
C16B O1B 1_555 1_555
C14B C15B 1_555 1_555
H28B C15B 1_555 1_555
H26B C13B 1_555 1_555
C17B C16B 1_555 1_555
C21B C16B 1_555 1_555
H27B C14B 1_555 1_555
C18B C17B 1_555 1_555
H29B C17B 1_555 1_555
C20B C21B 1_555 1_555
H33B C21B 1_555 1_555
C19B C18B 1_555 1_555
H30B C18B 1_555 1_555
H32B C20B 1_555 1_555
H31B C19B 1_555 1_555
C3 C4 1_555 1_555
C6 C7 1_555 1_555
C14 C15 1_555 1_555
C20 C21 1_555 1_555
N4B Na1B 1_555 1_555
C3B C4B 1_555 1_555
C6B C7B 1_555 1_555
C13B C14B 1_555 1_555
C20B C19B 1_555 1_555

#END
