
#######################################################################
#
#                 Cambridge Crystallographic Data Centre
#                                CCDC 
#
#######################################################################
#
# If this CIF has been generated from an entry in the Cambridge 
# Structural Database, then it will include bibliographic, chemical, 
# crystal, experimental, refinement or atomic coordinate data resulting 
# from the CCDC's data processing and validation procedures.
#
#######################################################################

data_HEWZOY
_chemical_formula_moiety         'C64 H70 N4,2(C2 H6 O1)'
_chemical_name_systematic        
'2,3,7,8,12,13,17,18-Octamethyl-5,10,15,20-tetramesitylporphyrin ethanol solvate'
_symmetry_cell_setting           tetragonal
_symmetry_space_group_name_H-M   'P -4 21 c'
_symmetry_Int_Tables_number      114
_space_group_name_Hall           'P -4 2n'
loop_
_symmetry_equiv_pos_site_id
_symmetry_equiv_pos_as_xyz
1 x,y,z
2 y,-x,-z
3 1/2+x,1/2-y,1/2-z
4 -x,-y,z
5 1/2-y,1/2-x,1/2+z
6 -y,x,-z
7 1/2-x,1/2+y,1/2-z
8 1/2+y,1/2+x,1/2+z
_cell_length_a                   15.129(2)
_cell_length_b                   15.129(2)
_cell_length_c                   13.774(3)
_cell_angle_alpha                90
_cell_angle_beta                 90
_cell_angle_gamma                90
_cell_volume                     3152.68
_exptl_crystal_colour            'dark red'
_cell_formula_units_Z            2
loop_
_atom_site_label
_atom_site_type_symbol
_atom_site_fract_x
_atom_site_fract_y
_atom_site_fract_z
N1 N 0.3776 0.4461 0.0079
C1 C 0.3621(3) 0.3605(3) 0.0372(3)
C2 C 0.2720(3) 0.3550(3) 0.0746(4)
C3 C 0.2340(3) 0.4360(3) 0.0596(4)
C4 C 0.3002(3) 0.4922(3) 0.0156(4)
C5 C 0.4203(3) 0.2900(3) 0.0179(4)
C6 C 0.3875(3) 0.1973(3) 0.0351(4)
C7 C 0.3274(3) 0.1591(3) -0.0266(4)
C8 C 0.2975(4) 0.0721(4) -0.0079(5)
C9 C 0.3270(4) 0.0261(4) 0.0725(5)
C10 C 0.3860(4) 0.0674(4) 0.1343(5)
C11 C 0.4179(3) 0.1511(3) 0.1171(4)
C12 C 0.4826(4) 0.1891(4) 0.1880(5)
C13 C 0.2960(4) 0.2060(4) -0.1185(5)
C14 C 0.2920(5) -0.0647(4) 0.0925(6)
C15 C 0.1406(4) 0.4589(4) 0.0928(5)
C16 C 0.2298(4) 0.2825(4) 0.1310(5)
H1 H 0.2576 0.0445 -0.0528
H2 H 0.4061 0.0357 0.1905
H3 H 0.4944 0.1466 0.2381
H4 H 0.4585 0.2418 0.2165
H5 H 0.5366 0.2032 0.1548
H6 H 0.2537 0.1696 -0.1516
H7 H 0.2690 0.2613 -0.1015
H8 H 0.3457 0.2166 -0.1603
H9 H 0.3164 -0.0898 0.1506
H10 H 0.2289 -0.0613 0.0984
H11 H 0.3071 -0.1013 0.0380
H12 H 0.1274 0.5188 0.0750
H13 H 0.1358 0.4525 0.1620
H14 H 0.0996 0.4198 0.0616
H15 H 0.2683 0.2321 0.1324
H16 H 0.1751 0.2666 0.1004
H17 H 0.2184 0.3020 0.1962
C5A C 0.2900(3) 0.5797(3) -0.0179(4)
C4E C 0.5078(3) 0.3002(3) -0.0156(4)
C1A C 0.3605(3) 0.6379(3) -0.0372(3)
C6A C 0.1973(3) 0.6125(3) -0.0351(4)
N1E N 0.5539 0.3776 -0.0079
C3E C 0.5640(3) 0.2340(3) -0.0596(4)
N1A N 0.4461 0.6224 -0.0079
C2A C 0.3550(3) 0.7280(3) -0.0746(4)
C7A C 0.1591(3) 0.6726(3) 0.0266(4)
C11A C 0.1511(3) 0.5821(3) -0.1171(4)
C1E C 0.6395(3) 0.3621(3) -0.0372(3)
C2E C 0.6450(3) 0.2720(3) -0.0746(4)
C15E C 0.5411(4) 0.1406(4) -0.0928(5)
C4A C 0.4922(3) 0.6998(3) -0.0156(4)
C3A C 0.4360(3) 0.7660(3) -0.0596(4)
C16A C 0.2825(4) 0.7702(4) -0.1310(5)
C8A C 0.0721(4) 0.7025(4) 0.0079(5)
C13A C 0.2060(4) 0.7040(4) 0.1185(5)
C10A C 0.0674(4) 0.6140(4) -0.1343(5)
C12A C 0.1891(4) 0.5174(4) -0.1880(5)
C5E C 0.7100(3) 0.4203(3) -0.0179(4)
C16E C 0.7175(4) 0.2298(4) -0.1310(5)
H12E H 0.4812 0.1274 -0.0750
H13E H 0.5475 0.1358 -0.1620
H14E H 0.5802 0.0996 -0.0616
C5C C 0.5797(3) 0.7100(3) 0.0179(4)
C15A C 0.4589(4) 0.8594(4) -0.0928(5)
H15A H 0.2321 0.7317 -0.1324
H16A H 0.2666 0.8249 -0.1004
H17A H 0.3020 0.7816 -0.1962
C9A C 0.0261(4) 0.6730(4) -0.0725(5)
H1A H 0.0445 0.7424 0.0528
H6A H 0.1696 0.7463 0.1516
H7A H 0.2613 0.7310 0.1015
H8A H 0.2166 0.6543 0.1603
H2A H 0.0357 0.5939 -0.1905
H3A H 0.1466 0.5056 -0.2381
H4A H 0.2418 0.5415 -0.2165
H5A H 0.2032 0.4634 -0.1548
C4C C 0.6998(3) 0.5078(3) 0.0156(4)
C6E C 0.8027(3) 0.3875(3) -0.0351(4)
H15E H 0.7679 0.2683 -0.1324
H16E H 0.7334 0.1751 -0.1004
H17E H 0.6980 0.2184 -0.1962
C1C C 0.6379(3) 0.6395(3) 0.0372(3)
C6C C 0.6125(3) 0.8027(3) 0.0351(4)
H12A H 0.5188 0.8726 -0.0750
H13A H 0.4525 0.8642 -0.1620
H14A H 0.4198 0.9004 -0.0616
C14A C -0.0647(4) 0.7080(5) -0.0925(6)
N1C N 0.6224 0.5539 0.0079
C3C C 0.7660(3) 0.5640(3) 0.0596(4)
C7E C 0.8409(3) 0.3274(3) 0.0266(4)
C11E C 0.8489(3) 0.4179(3) -0.1171(4)
C2C C 0.7280(3) 0.6450(3) 0.0746(4)
C7C C 0.6726(3) 0.8409(3) -0.0266(4)
C11C C 0.5821(3) 0.8489(3) 0.1171(4)
H9A H -0.0898 0.6836 -0.1506
H10A H -0.0613 0.7711 -0.0984
H11A H -0.1013 0.6929 -0.0380
C15C C 0.8594(4) 0.5411(4) 0.0928(5)
C8E C 0.9279(4) 0.2975(4) 0.0079(5)
C13E C 0.7940(4) 0.2960(4) 0.1185(5)
C10E C 0.9326(4) 0.3860(4) -0.1343(5)
C12E C 0.8109(4) 0.4826(4) -0.1880(5)
C16C C 0.7702(4) 0.7175(4) 0.1310(5)
C8C C 0.7025(4) 0.9279(4) -0.0079(5)
C13C C 0.7040(4) 0.7940(4) -0.1185(5)
C10C C 0.6140(4) 0.9326(4) 0.1343(5)
C12C C 0.5174(4) 0.8109(4) 0.1880(5)
H12C H 0.8726 0.4812 0.0750
H13C H 0.8642 0.5475 0.1620
H14C H 0.9004 0.5802 0.0616
C9E C 0.9739(4) 0.3270(4) -0.0725(5)
H1E H 0.9555 0.2576 0.0528
H6E H 0.8304 0.2537 0.1516
H7E H 0.7387 0.2690 0.1015
H8E H 0.7834 0.3457 0.1603
H2E H 0.9643 0.4061 -0.1905
H3E H 0.8534 0.4944 -0.2381
H4E H 0.7582 0.4585 -0.2165
H5E H 0.7968 0.5366 -0.1548
H15C H 0.7317 0.7679 0.1324
H16C H 0.8249 0.7334 0.1004
H17C H 0.7816 0.6980 0.1962
C9C C 0.6730(4) 0.9739(4) 0.0725(5)
H1C H 0.7424 0.9555 -0.0528
H6C H 0.7463 0.8304 -0.1516
H7C H 0.7310 0.7387 -0.1015
H8C H 0.6543 0.7834 -0.1603
H2C H 0.5939 0.9643 0.1905
H3C H 0.5056 0.8534 0.2381
H4C H 0.5415 0.7582 0.2165
H5C H 0.4634 0.7968 0.1548
C14E C 1.0647(4) 0.2920(5) -0.0925(6)
C14C C 0.7080(5) 1.0647(4) 0.0925(6)
H9E H 1.0898 0.3164 -0.1506
H10E H 1.0613 0.2289 -0.0984
H11E H 1.1013 0.3071 -0.0380
H9C H 0.6836 1.0898 0.1506
H10C H 0.7711 1.0613 0.0984
H11C H 0.6929 1.1013 0.0380
O1? O -0.0968(6) -0.0753(6) 0.2241(7)
C17? C -0.0274(6) -0.0242(7) 0.2701(7)
C18? C 0.0578(6) -0.0608(7) 0.2211(7)
loop_
_geom_bond_atom_site_label_1
_geom_bond_atom_site_label_2
_geom_bond_site_symmetry_1
_geom_bond_site_symmetry_2
N1 C1 1_555 1_555
C1 C2 1_555 1_555
C2 C3 1_555 1_555
C3 C4 1_555 1_555
C4 N1 1_555 1_555
C5 C1 1_555 1_555
C6 C5 1_555 1_555
C7 C6 1_555 1_555
C8 C7 1_555 1_555
C9 C8 1_555 1_555
C10 C9 1_555 1_555
C11 C6 1_555 1_555
C12 C11 1_555 1_555
C13 C7 1_555 1_555
C14 C9 1_555 1_555
C15 C3 1_555 1_555
C16 C2 1_555 1_555
H1 C8 1_555 1_555
H2 C10 1_555 1_555
H3 C12 1_555 1_555
H4 C12 1_555 1_555
H5 C12 1_555 1_555
H6 C13 1_555 1_555
H7 C13 1_555 1_555
H8 C13 1_555 1_555
H9 C14 1_555 1_555
H10 C14 1_555 1_555
H11 C14 1_555 1_555
H12 C15 1_555 1_555
H13 C15 1_555 1_555
H14 C15 1_555 1_555
H15 C16 1_555 1_555
H16 C16 1_555 1_555
H17 C16 1_555 1_555
C5A C4 1_555 1_555
C4E C5 1_555 1_555
C1A C5A 1_555 1_555
C6A C5A 1_555 1_555
N1E C4E 1_555 1_555
C3E C4E 1_555 1_555
N1A C1A 1_555 1_555
C2A C1A 1_555 1_555
C7A C6A 1_555 1_555
C11A C6A 1_555 1_555
C1E N1E 1_555 1_555
C2E C3E 1_555 1_555
C15E C3E 1_555 1_555
C4A N1A 1_555 1_555
C3A C2A 1_555 1_555
C16A C2A 1_555 1_555
C8A C7A 1_555 1_555
C13A C7A 1_555 1_555
C10A C11A 1_555 1_555
C12A C11A 1_555 1_555
C5E C1E 1_555 1_555
C16E C2E 1_555 1_555
H12E C15E 1_555 1_555
H13E C15E 1_555 1_555
H14E C15E 1_555 1_555
C5C C4A 1_555 1_555
C15A C3A 1_555 1_555
H15A C16A 1_555 1_555
H16A C16A 1_555 1_555
H17A C16A 1_555 1_555
C9A C8A 1_555 1_555
H1A C8A 1_555 1_555
H6A C13A 1_555 1_555
H7A C13A 1_555 1_555
H8A C13A 1_555 1_555
H2A C10A 1_555 1_555
H3A C12A 1_555 1_555
H4A C12A 1_555 1_555
H5A C12A 1_555 1_555
C4C C5E 1_555 1_555
C6E C5E 1_555 1_555
H15E C16E 1_555 1_555
H16E C16E 1_555 1_555
H17E C16E 1_555 1_555
C1C C5C 1_555 1_555
C6C C5C 1_555 1_555
H12A C15A 1_555 1_555
H13A C15A 1_555 1_555
H14A C15A 1_555 1_555
C14A C9A 1_555 1_555
N1C C4C 1_555 1_555
C3C C4C 1_555 1_555
C7E C6E 1_555 1_555
C11E C6E 1_555 1_555
C2C C1C 1_555 1_555
C7C C6C 1_555 1_555
C11C C6C 1_555 1_555
H9A C14A 1_555 1_555
H10A C14A 1_555 1_555
H11A C14A 1_555 1_555
C15C C3C 1_555 1_555
C8E C7E 1_555 1_555
C13E C7E 1_555 1_555
C10E C11E 1_555 1_555
C12E C11E 1_555 1_555
C16C C2C 1_555 1_555
C8C C7C 1_555 1_555
C13C C7C 1_555 1_555
C10C C11C 1_555 1_555
C12C C11C 1_555 1_555
H12C C15C 1_555 1_555
H13C C15C 1_555 1_555
H14C C15C 1_555 1_555
C9E C8E 1_555 1_555
H1E C8E 1_555 1_555
H6E C13E 1_555 1_555
H7E C13E 1_555 1_555
H8E C13E 1_555 1_555
H2E C10E 1_555 1_555
H3E C12E 1_555 1_555
H4E C12E 1_555 1_555
H5E C12E 1_555 1_555
H15C C16C 1_555 1_555
H16C C16C 1_555 1_555
H17C C16C 1_555 1_555
C9C C8C 1_555 1_555
H1C C8C 1_555 1_555
H6C C13C 1_555 1_555
H7C C13C 1_555 1_555
H8C C13C 1_555 1_555
H2C C10C 1_555 1_555
H3C C12C 1_555 1_555
H4C C12C 1_555 1_555
H5C C12C 1_555 1_555
C14E C9E 1_555 1_555
C14C C9C 1_555 1_555
H9E C14E 1_555 1_555
H10E C14E 1_555 1_555
H11E C14E 1_555 1_555
H9C C14C 1_555 1_555
H10C C14C 1_555 1_555
H11C C14C 1_555 1_555
C10 C11 1_555 1_555
C1E C2E 1_555 1_555
C4A C3A 1_555 1_555
C10A C9A 1_555 1_555
C1C N1C 1_555 1_555
C3C C2C 1_555 1_555
C10E C9E 1_555 1_555
C10C C9C 1_555 1_555

#END
