
#######################################################################
#
#                 Cambridge Crystallographic Data Centre
#                                CCDC 
#
#######################################################################
#
# If this CIF has been generated from an entry in the Cambridge 
# Structural Database, then it will include bibliographic, chemical, 
# crystal, experimental, refinement or atomic coordinate data resulting 
# from the CCDC's data processing and validation procedures.
#
#######################################################################

data_HEXDAQ
_chemical_formula_moiety         'C9 H7 N3 O8,H2 O1'
_chemical_name_systematic        
'3,5-dimethyl-2,4,6-trinitrobenzoic acid monohydrate'
_symmetry_cell_setting           monoclinic
_symmetry_space_group_name_H-M   'P 21/c'
_symmetry_Int_Tables_number      14
_space_group_name_Hall           '-P 2ybc'
loop_
_symmetry_equiv_pos_site_id
_symmetry_equiv_pos_as_xyz
1 x,y,z
2 -x,1/2+y,1/2-z
3 -x,-y,-z
4 x,1/2-y,1/2+z
_cell_length_a                   12.724(3)
_cell_length_b                   6.032(1)
_cell_length_c                   16.359(4)
_cell_angle_alpha                90
_cell_angle_beta                 92.17(2)
_cell_angle_gamma                90
_cell_volume                     1254.67
_cell_formula_units_Z            4
loop_
_atom_site_label
_atom_site_type_symbol
_atom_site_fract_x
_atom_site_fract_y
_atom_site_fract_z
O1 O 0.05154(14) 0.2523(3) 0.57801(12)
O2 O 0.14456(14) 0.0034(3) 0.52184(12)
O3 O 0.16492(18) 0.4826(4) 0.23461(11)
O4 O 0.14866(14) 0.8222(3) 0.27059(10)
O5 O 0.38565(12) 0.7878(2) 0.29588(9)
O6 O 0.34078(13) 1.0499(3) 0.38452(10)
O7 O 0.48197(13) 0.7473(3) 0.48796(11)
O8 O 0.38816(15) 0.8472(3) 0.58888(11)
N1 N 0.12014(14) 0.1933(3) 0.53357(11)
N2 N 0.16837(15) 0.6291(4) 0.28513(11)
N3 N 0.40043(15) 0.7519(3) 0.52454(12)
C1 C 0.17694(16) 0.3681(3) 0.48926(12)
C2 C 0.14236(16) 0.4071(3) 0.40905(13)
C3 C 0.19871(16) 0.5695(3) 0.37015(12)
C4 C 0.28185(15) 0.6864(3) 0.40566(12)
C5 C 0.30975(15) 0.6340(3) 0.48650(12)
C6 C 0.25918(16) 0.4732(3) 0.53122(12)
C7 C 0.05098(18) 0.2850(4) 0.36954(14)
H1 H 0.0240 0.1803 0.4077
H2 H 0.0738 0.2078 0.3220
H3 H -0.0032 0.3887 0.3537
C8 C 0.29323(19) 0.4083(4) 0.61686(13)
H7 H 0.3512 0.4998 0.6352
H8 H 0.3146 0.2557 0.6176
H9 H 0.2357 0.4280 0.6524
C9 C 0.34275(16) 0.8502(4) 0.35658(13)
H15 H 0.374(2) 1.136(4) 0.3553(16)
O9 O 0.57157(17) 0.8285(3) 0.20885(14)
H13 H 0.5168(17) 0.806(6) 0.231(2)
H14 H 0.586(3) 0.960(2) 0.206(2)
H4? H 0.0390 0.3376 0.3146
H5? H -0.0108 0.3101 0.4002
H6? H 0.0663 0.1292 0.3686
H10? H 0.2498 0.2892 0.6350
H11? H 0.2863 0.5333 0.6526
H12? H 0.3653 0.3610 0.6178
loop_
_geom_bond_atom_site_label_1
_geom_bond_atom_site_label_2
_geom_bond_site_symmetry_1
_geom_bond_site_symmetry_2
O1 N1 1_555 1_555
O2 N1 1_555 1_555
O3 N2 1_555 1_555
O4 N2 1_555 1_555
O5 C9 1_555 1_555
O6 C9 1_555 1_555
O7 N3 1_555 1_555
O8 N3 1_555 1_555
N1 C1 1_555 1_555
N2 C3 1_555 1_555
N3 C5 1_555 1_555
C1 C2 1_555 1_555
C2 C3 1_555 1_555
C3 C4 1_555 1_555
C4 C5 1_555 1_555
C5 C6 1_555 1_555
C6 C1 1_555 1_555
C7 C2 1_555 1_555
H1 C7 1_555 1_555
H2 C7 1_555 1_555
H3 C7 1_555 1_555
C8 C6 1_555 1_555
H7 C8 1_555 1_555
H8 C8 1_555 1_555
H9 C8 1_555 1_555
C9 C4 1_555 1_555
O9 H13 1_555 1_555
H14 O9 1_555 1_555
H15 O6 1_555 1_555

#END
