
#######################################################################
#
#                 Cambridge Crystallographic Data Centre
#                                CCDC 
#
#######################################################################
#
# If this CIF has been generated from an entry in the Cambridge 
# Structural Database, then it will include bibliographic, chemical, 
# crystal, experimental, refinement or atomic coordinate data resulting 
# from the CCDC's data processing and validation procedures.
#
#######################################################################

data_HEXHOI
_chemical_formula_moiety         'C26 H28 N6'
_chemical_name_systematic        
5,7,12,14,15-pentamethyl-3,10-diphenyl-1,3,4,8,10,11-hexa-azatetracyclo(6.6.1.0^2,6^,0^9,13^)pentadeca-2(6),4,9(13),11-tetraene
_symmetry_cell_setting           monoclinic
_symmetry_space_group_name_H-M   'P 21/n'
_symmetry_Int_Tables_number      14
_space_group_name_Hall           '-P 2yn'
loop_
_symmetry_equiv_pos_site_id
_symmetry_equiv_pos_as_xyz
1 x,y,z
2 1/2-x,1/2+y,1/2-z
3 -x,-y,-z
4 1/2+x,1/2-y,1/2+z
_cell_length_a                   10.372(3)
_cell_length_b                   13.986(3)
_cell_length_c                   15.905(4)
_cell_angle_alpha                90
_cell_angle_beta                 104.893(4)
_cell_angle_gamma                90
_cell_volume                     2229.72
_exptl_crystal_colour            colorless
_chemical_melting_point          '265-266 deg.C'
_cell_formula_units_Z            4
_exptl_crystal_recrystallization_method ethanol
loop_
_atom_site_label
_atom_site_type_symbol
_atom_site_fract_x
_atom_site_fract_y
_atom_site_fract_z
N1 N 0.6171(3) 0.5828(2) 0.23564(16)
N2 N 0.5171(3) 0.67471(19) 0.33508(16)
N3 N 0.4613(3) 0.4623(2) 0.15247(16)
N4 N 0.3312(3) 0.4337(2) 0.14274(18)
N5 N 0.5904(3) 0.6180(2) 0.48685(16)
N6 N 0.6771(3) 0.5505(2) 0.53325(17)
C1 C 0.5931(4) 0.6789(3) 0.2675(2)
H1 H 0.6818 0.7019 0.2985
C2 C 0.5471(6) 0.7472(4) 0.1978(3)
H2 H 0.6035 0.7442 0.1585
H3 H 0.5502 0.8104 0.2217
H4 H 0.4570 0.7322 0.1669
C5 C 0.7108(3) 0.5259(3) 0.3053(2)
H9 H 0.6902 0.4581 0.2932
C6 C 0.8553(3) 0.5414(3) 0.3039(2)
H10 H 0.8661 0.5255 0.2474
H11 H 0.9122 0.5013 0.3469
H12 H 0.8790 0.6072 0.3166
C7 C 0.3776(3) 0.6353(3) 0.3015(2)
H13 H 0.3540 0.6045 0.3508
C8 C 0.2739(4) 0.7122(3) 0.2683(3)
H14 H 0.2766 0.7582 0.3134
H15 H 0.1869 0.6836 0.2514
H16 H 0.2925 0.7433 0.2189
C9 C 0.4913(3) 0.5374(2) 0.20934(19)
C10 C 0.3797(3) 0.5583(2) 0.2360(2)
C11 C 0.2828(3) 0.4929(3) 0.1925(2)
C12 C 0.1409(4) 0.4816(3) 0.1979(3)
H17 H 0.0993 0.4303 0.1606
H18 H 0.0929 0.5399 0.1798
H19 H 0.1399 0.4675 0.2568
C13 C 0.5404(3) 0.4134(3) 0.10473(19)
C14 C 0.6437(4) 0.4594(3) 0.0815(2)
H20 H 0.6631 0.5229 0.0972
C15 C 0.7182(4) 0.4106(3) 0.0348(2)
H21 H 0.7892 0.4411 0.0203
C16 C 0.6886(4) 0.3181(3) 0.0098(2)
H22 H 0.7381 0.2858 -0.0224
C17 C 0.5846(4) 0.2732(3) 0.0328(3)
H23 H 0.5645 0.2100 0.0163
C18 C 0.5095(4) 0.3204(3) 0.0802(2)
H24 H 0.4392 0.2895 0.0953
C19 C 0.5934(3) 0.6156(2) 0.40119(19)
C20 C 0.6835(3) 0.5485(2) 0.3919(2)
C21 C 0.7324(3) 0.5090(3) 0.4761(2)
C22 C 0.8269(3) 0.4280(3) 0.5036(2)
H25 H 0.8414 0.4176 0.5650
H26 H 0.9102 0.4430 0.4909
H27 H 0.7900 0.3713 0.4727
C23 C 0.5197(3) 0.6778(2) 0.53195(19)
C24 C 0.4566(4) 0.7594(3) 0.4938(2)
H28 H 0.4615 0.7769 0.4383
C25 C 0.3859(4) 0.8152(3) 0.5383(2)
H29 H 0.3413 0.8694 0.5119
C26 C 0.3812(4) 0.7913(3) 0.6210(2)
H30 H 0.3333 0.8288 0.6506
C27 C 0.4467(4) 0.7123(3) 0.6593(2)
H31 H 0.4450 0.6969 0.7158
C28 C 0.5160(3) 0.6543(3) 0.6157(2)
H32 H 0.5598 0.6000 0.6424
C3? C 0.5931(4) 0.6789(3) 0.2675(2)
H5? H 0.5221 0.7008 0.2179
C4? C 0.6796(12) 0.7546(8) 0.2747(8)
H6? H 0.7241 0.7516 0.2288
H7? H 0.7444 0.7518 0.3300
H8? H 0.6307 0.8135 0.2705
loop_
_geom_bond_atom_site_label_1
_geom_bond_atom_site_label_2
_geom_bond_site_symmetry_1
_geom_bond_site_symmetry_2
N1 C1 1_555 1_555
N2 C1 1_555 1_555
N3 N4 1_555 1_555
N4 C11 1_555 1_555
N5 N6 1_555 1_555
N6 C21 1_555 1_555
C1 H1 1_555 1_555
C2 C1 1_555 1_555
H2 C2 1_555 1_555
H3 C2 1_555 1_555
H4 C2 1_555 1_555
C5 N1 1_555 1_555
H9 C5 1_555 1_555
C6 C5 1_555 1_555
H10 C6 1_555 1_555
H11 C6 1_555 1_555
H12 C6 1_555 1_555
C7 N2 1_555 1_555
H13 C7 1_555 1_555
C8 C7 1_555 1_555
H14 C8 1_555 1_555
H15 C8 1_555 1_555
H16 C8 1_555 1_555
C9 N1 1_555 1_555
C10 C7 1_555 1_555
C11 C10 1_555 1_555
C12 C11 1_555 1_555
H17 C12 1_555 1_555
H18 C12 1_555 1_555
H19 C12 1_555 1_555
C13 N3 1_555 1_555
C14 C13 1_555 1_555
H20 C14 1_555 1_555
C15 C14 1_555 1_555
H21 C15 1_555 1_555
C16 C15 1_555 1_555
H22 C16 1_555 1_555
C17 C16 1_555 1_555
H23 C17 1_555 1_555
C18 C13 1_555 1_555
H24 C18 1_555 1_555
C19 N2 1_555 1_555
C20 C5 1_555 1_555
C21 C20 1_555 1_555
C22 C21 1_555 1_555
H25 C22 1_555 1_555
H26 C22 1_555 1_555
H27 C22 1_555 1_555
C23 N5 1_555 1_555
C24 C23 1_555 1_555
H28 C24 1_555 1_555
C25 C24 1_555 1_555
H29 C25 1_555 1_555
C26 C25 1_555 1_555
H30 C26 1_555 1_555
C27 C26 1_555 1_555
H31 C27 1_555 1_555
C28 C23 1_555 1_555
H32 C28 1_555 1_555
N3 C9 1_555 1_555
N5 C19 1_555 1_555
C9 C10 1_555 1_555
C17 C18 1_555 1_555
C19 C20 1_555 1_555
C27 C28 1_555 1_555

#END
