
#######################################################################
#
#                 Cambridge Crystallographic Data Centre
#                                CCDC 
#
#######################################################################
#
# If this CIF has been generated from an entry in the Cambridge 
# Structural Database, then it will include bibliographic, chemical, 
# crystal, experimental, refinement or atomic coordinate data resulting 
# from the CCDC's data processing and validation procedures.
#
#######################################################################

data_HEXLUU
_chemical_formula_moiety         'C15 H13 1-,C4 H8 O1,Li1 1+'
_chemical_name_systematic        
'lithium 1,3-diphenylprop-2-en-1-ide tetrahydrofuran solvate'
_symmetry_cell_setting           monoclinic
_symmetry_space_group_name_H-M   'P 21/c'
_symmetry_Int_Tables_number      14
_space_group_name_Hall           '-P 2ybc'
loop_
_symmetry_equiv_pos_site_id
_symmetry_equiv_pos_as_xyz
1 x,y,z
2 -x,1/2+y,1/2-z
3 -x,-y,-z
4 x,1/2-y,1/2+z
_cell_length_a                   11.683(2)
_cell_length_b                   7.4782(15)
_cell_length_c                   18.013(4)
_cell_angle_alpha                90
_cell_angle_beta                 91.86(3)
_cell_angle_gamma                90
_cell_volume                     1572.93
_cell_formula_units_Z            4
loop_
_atom_site_label
_atom_site_type_symbol
_atom_site_fract_x
_atom_site_fract_y
_atom_site_fract_z
Li1 Li 0.4583(2) 0.3827(4) 0.20873(14)
O1 O 0.36023(9) 0.46228(15) 0.12975(5)
C1 C 0.39017(15) 0.5790(3) 0.07053(9)
H1 H 0.4673 0.5500 0.0528
H2 H 0.3894 0.7053 0.0870
C2 C 0.30108(17) 0.5475(2) 0.01080(9)
H3 H 0.3198 0.4414 -0.0194
H4 H 0.2926 0.6529 -0.0222
C3 C 0.19476(16) 0.5169(3) 0.05374(11)
H5 H 0.1452 0.4261 0.0289
H6 H 0.1508 0.6293 0.0583
C4 C 0.23714(14) 0.4516(3) 0.12935(9)
H7 H 0.2065 0.5277 0.1691
H8 H 0.2123 0.3268 0.1375
C5 C 0.62458(13) -0.0109(2) 0.06890(8)
H9 H 0.5458 -0.0411 0.0632
C6 C 0.69793(15) -0.0514(2) 0.01251(9)
H10 H 0.6687 -0.1093 -0.0311
C7 C 0.81341(15) -0.0088(2) 0.01861(9)
H11 H 0.8635 -0.0366 -0.0203
C8 C 0.85389(14) 0.0753(2) 0.08280(9)
H12 H 0.9328 0.1051 0.0879
C9 C 0.78183(12) 0.1165(2) 0.13920(8)
H13 H 0.8121 0.1751 0.1823
C10 C 0.66443(12) 0.07421(18) 0.13465(8)
C11 C 0.59174(12) 0.11805(18) 0.19619(8)
H14 H 0.6300(11) 0.1785(19) 0.2370(6)
C12 C 0.47652(12) 0.07677(18) 0.20105(8)
H15 H 0.4434(12) 0.0142(19) 0.1586(6)
C13 C 0.40334(12) 0.11072(19) 0.25925(8)
H16 H 0.4330(11) 0.1705(19) 0.3029(6)
C14 C 0.28184(12) 0.06614(18) 0.25946(8)
C15 C 0.22409(13) -0.0248(2) 0.20104(8)
H17 H 0.2652 -0.0577 0.1585
C16 C 0.10901(13) -0.0675(2) 0.20391(9)
H18 H 0.0727 -0.1287 0.1634
C17 C 0.04613(14) -0.0225(2) 0.26499(10)
H19 H -0.0326 -0.0531 0.2671
C18 C 0.10074(14) 0.0681(2) 0.32289(9)
H20 H 0.0588 0.1001 0.3652
C19 C 0.21549(14) 0.1129(2) 0.32025(8)
H21 H 0.2503 0.1769 0.3606
loop_
_geom_bond_atom_site_label_1
_geom_bond_atom_site_label_2
_geom_bond_site_symmetry_1
_geom_bond_site_symmetry_2
O1 C1 1_555 1_555
C1 H1 1_555 1_555
H2 C1 1_555 1_555
C2 C1 1_555 1_555
H3 C2 1_555 1_555
H4 C2 1_555 1_555
C3 C2 1_555 1_555
H5 C3 1_555 1_555
H6 C3 1_555 1_555
C4 O1 1_555 1_555
H7 C4 1_555 1_555
H8 C4 1_555 1_555
C5 H9 1_555 1_555
C6 C5 1_555 1_555
H10 C6 1_555 1_555
C7 C6 1_555 1_555
H11 C7 1_555 1_555
C8 C7 1_555 1_555
H12 C8 1_555 1_555
C9 C8 1_555 1_555
H13 C9 1_555 1_555
C10 C5 1_555 1_555
C11 C10 1_555 1_555
H14 C11 1_555 1_555
C12 C11 1_555 1_555
H15 C12 1_555 1_555
C13 C12 1_555 1_555
H16 C13 1_555 1_555
C14 C13 1_555 1_555
C15 C14 1_555 1_555
H17 C15 1_555 1_555
C16 C15 1_555 1_555
H18 C16 1_555 1_555
C17 C16 1_555 1_555
H19 C17 1_555 1_555
C18 C17 1_555 1_555
H20 C18 1_555 1_555
C19 C14 1_555 1_555
H21 C19 1_555 1_555
C3 C4 1_555 1_555
C9 C10 1_555 1_555
C18 C19 1_555 1_555

#END
