
#######################################################################
#
#                 Cambridge Crystallographic Data Centre
#                                CCDC 
#
#######################################################################
#
# If this CIF has been generated from an entry in the Cambridge 
# Structural Database, then it will include bibliographic, chemical, 
# crystal, experimental, refinement or atomic coordinate data resulting 
# from the CCDC's data processing and validation procedures.
#
#######################################################################

data_HEXPUY
_chemical_formula_moiety         'C17 H18 O4 S1'
_chemical_name_systematic        
2-methyl-3-[(4-methylphenyl)sulfonyl]-3,4-dihydro-2H-1-benzopyran-4-ol
_symmetry_cell_setting           monoclinic
_symmetry_space_group_name_H-M   'P 21/c'
_symmetry_Int_Tables_number      14
_space_group_name_Hall           '-P 2ybc'
loop_
_symmetry_equiv_pos_site_id
_symmetry_equiv_pos_as_xyz
1 x,y,z
2 -x,1/2+y,1/2-z
3 -x,-y,-z
4 x,1/2-y,1/2+z
_cell_length_a                   15.4645(14)
_cell_length_b                   18.3380(16)
_cell_length_c                   5.4053(4)
_cell_angle_alpha                90
_cell_angle_beta                 93.229(3)
_cell_angle_gamma                90
_cell_volume                     1530.44
_exptl_crystal_colour            colorless
_cell_formula_units_Z            4
loop_
_atom_site_label
_atom_site_type_symbol
_atom_site_fract_x
_atom_site_fract_y
_atom_site_fract_z
S1 S 0.27931(6) 0.39247(4) -0.14578(13)
O1 O 0.09086(15) 0.46225(11) -0.2292(4)
O2 O 0.24930(16) 0.32454(13) -0.2514(4)
O3 O 0.29446(17) 0.45249(14) -0.3125(4)
O4 O 0.30704(13) 0.51732(11) 0.2213(4)
H1 H 0.318(2) 0.500(2) 0.356(7)
C1 C 0.1088(2) 0.65566(16) -0.3612(6)
H2 H 0.0844 0.6900 -0.4769
C2 C 0.08287(19) 0.58335(16) -0.3738(5)
H3 H 0.0410 0.5679 -0.4981
C3 C 0.11879(19) 0.53360(15) -0.2027(5)
C4 C 0.1068(2) 0.41658(16) -0.0128(6)
H4 H 0.0723 0.4373 0.1215
C5 C 0.2029(2) 0.42141(15) 0.0777(5)
H5 H 0.2112 0.3888 0.2255
C6 C 0.3771(2) 0.37625(15) 0.0301(5)
C7 C 0.3774(2) 0.32925(15) 0.2335(5)
H6 H 0.3256 0.3062 0.2785
C8 C 0.4549(2) 0.31695(16) 0.3680(5)
H7 H 0.4554 0.2858 0.5086
C9 C 0.5323(2) 0.34896(17) 0.3031(6)
C10 C 0.6159(2) 0.3332(2) 0.4533(7)
H8 H 0.6337 0.2828 0.4240
H9 H 0.6068 0.3399 0.6298
H10 H 0.6611 0.3667 0.4033
C11 C 0.0693(2) 0.34166(17) -0.0763(7)
H11 H 0.0060 0.3449 -0.0941
H12 H 0.0861 0.3073 0.0566
H13 H 0.0916 0.3246 -0.2323
C12 C 0.5304(2) 0.39491(17) 0.0978(6)
H14 H 0.5826 0.4168 0.0498
C13 C 0.4533(2) 0.40911(17) -0.0375(6)
H15 H 0.4526 0.4411 -0.1757
C14 C 0.2186(2) 0.50002(16) 0.1674(5)
H16 H 0.1877 0.5064 0.3236
C15 C 0.18061(19) 0.55466(15) -0.0200(5)
C16 C 0.20581(19) 0.62811(16) -0.0111(5)
H17 H 0.2478 0.6437 0.1126
C17 C 0.1704(2) 0.67818(16) -0.1796(6)
H18 H 0.1882 0.7278 -0.1713
loop_
_geom_bond_atom_site_label_1
_geom_bond_atom_site_label_2
_geom_bond_site_symmetry_1
_geom_bond_site_symmetry_2
S1 O2 1_555 1_555
O1 C3 1_555 1_555
O3 S1 1_555 1_555
O4 H1 1_555 1_555
C1 H2 1_555 1_555
C2 C1 1_555 1_555
H3 C2 1_555 1_555
C3 C2 1_555 1_555
C4 O1 1_555 1_555
H4 C4 1_555 1_555
C5 S1 1_555 1_555
H5 C5 1_555 1_555
C6 S1 1_555 1_555
C7 C6 1_555 1_555
H6 C7 1_555 1_555
C8 C7 1_555 1_555
H7 C8 1_555 1_555
C9 C8 1_555 1_555
C10 C9 1_555 1_555
H8 C10 1_555 1_555
H9 C10 1_555 1_555
H10 C10 1_555 1_555
C11 C4 1_555 1_555
H11 C11 1_555 1_555
H12 C11 1_555 1_555
H13 C11 1_555 1_555
C12 C9 1_555 1_555
H14 C12 1_555 1_555
C13 C6 1_555 1_555
H15 C13 1_555 1_555
C14 O4 1_555 1_555
H16 C14 1_555 1_555
C15 C3 1_555 1_555
C16 C15 1_555 1_555
H17 C16 1_555 1_555
C17 C1 1_555 1_555
H18 C17 1_555 1_555
C4 C5 1_555 1_555
C5 C14 1_555 1_555
C12 C13 1_555 1_555
C14 C15 1_555 1_555
C16 C17 1_555 1_555

#END
