
#######################################################################
#
#                 Cambridge Crystallographic Data Centre
#                                CCDC 
#
#######################################################################
#
# If this CIF has been generated from an entry in the Cambridge 
# Structural Database, then it will include bibliographic, chemical, 
# crystal, experimental, refinement or atomic coordinate data resulting 
# from the CCDC's data processing and validation procedures.
#
#######################################################################

data_HEXTIN01
_chemical_formula_moiety         'C9 H9 N3 O6'
_chemical_name_systematic        2,4,6-Trinitromesitylene
_symmetry_cell_setting           triclinic
_symmetry_space_group_name_H-M   'P -1'
_symmetry_Int_Tables_number      2
_space_group_name_Hall           '-P 1'
loop_
_symmetry_equiv_pos_site_id
_symmetry_equiv_pos_as_xyz
1 x,y,z
2 -x,-y,-z
_cell_length_a                   8.273(1)
_cell_length_b                   8.798(1)
_cell_length_c                   8.940(1)
_cell_angle_alpha                108.07(1)
_cell_angle_beta                 113.25(1)
_cell_angle_gamma                95.15(1)
_cell_volume                     551.347
_cell_formula_units_Z            2
_exptl_crystal_recrystallization_method 'ethyl acetate'
loop_
_atom_site_label
_atom_site_type_symbol
_atom_site_fract_x
_atom_site_fract_y
_atom_site_fract_z
O1 O 0.6591(2) 0.9303(2) 0.2655(2)
O2 O 0.6305(2) 0.66935(19) 0.16017(19)
O3 O 0.7661(2) 1.0232(2) 0.9492(2)
O4 O 0.8146(2) 0.7844(2) 0.9307(2)
O5 O 0.1116(2) 0.4434(2) 0.3805(3)
O6 O 0.0221(2) 0.6550(2) 0.3461(3)
N1 N 0.6208(2) 0.7924(2) 0.2612(2)
N2 N 0.7424(2) 0.8781(2) 0.8680(2)
N3 N 0.1388(2) 0.5819(2) 0.3865(2)
C1 C 0.3781(2) 0.6880(2) 0.3223(2)
C2 C 0.5568(2) 0.7728(2) 0.3885(2)
C3 C 0.6825(2) 0.8389(2) 0.5662(2)
C4 C 0.6151(2) 0.8111(2) 0.6777(2)
C5 C 0.4406(2) 0.7278(2) 0.6280(2)
C6 C 0.3281(2) 0.6691(2) 0.4479(2)
C7 C 0.2479(3) 0.6228(3) 0.1296(3)
H1 H 0.1321 0.5687 0.1118
H2 H 0.2939 0.5457 0.0644
H3 H 0.2347 0.7126 0.0897
C8 C 0.8744(3) 0.9275(3) 0.6299(3)
H7 H 0.8926 0.9331 0.5319
H8 H 0.9554 0.8692 0.6863
H9 H 0.8983 1.0371 0.7123
C9 C 0.3767(3) 0.7069(3) 0.7580(3)
H13 H 0.2522 0.6460 0.6965
H14 H 0.3875 0.8133 0.8389
H15 H 0.4496 0.6481 0.8215
H4? H 0.3084 0.6493 0.0655
H5? H 0.1466 0.6723 0.1129
H6? H 0.2057 0.5054 0.0875
H10? H 0.9383 0.9599 0.7551
H11? H 0.8755 1.0237 0.6007
H12? H 0.9325 0.8558 0.5747
H16? H 0.4740 0.7590 0.8748
H17? H 0.3387 0.5916 0.7324
H18? H 0.2765 0.7568 0.7498
loop_
_geom_bond_atom_site_label_1
_geom_bond_atom_site_label_2
_geom_bond_site_symmetry_1
_geom_bond_site_symmetry_2
O1 N1 1_555 1_555
O2 N1 1_555 1_555
O3 N2 1_555 1_555
O4 N2 1_555 1_555
O5 N3 1_555 1_555
O6 N3 1_555 1_555
N1 C2 1_555 1_555
N2 C4 1_555 1_555
N3 C6 1_555 1_555
C1 C2 1_555 1_555
C2 C3 1_555 1_555
C3 C4 1_555 1_555
C4 C5 1_555 1_555
C5 C6 1_555 1_555
C6 C1 1_555 1_555
C7 C1 1_555 1_555
H1 C7 1_555 1_555
H2 C7 1_555 1_555
H3 C7 1_555 1_555
C8 C3 1_555 1_555
H7 C8 1_555 1_555
H8 C8 1_555 1_555
H9 C8 1_555 1_555
C9 C5 1_555 1_555
H13 C9 1_555 1_555
H14 C9 1_555 1_555
H15 C9 1_555 1_555

#END
