
#######################################################################
#
#                 Cambridge Crystallographic Data Centre
#                                CCDC 
#
#######################################################################
#
# If this CIF has been generated from an entry in the Cambridge 
# Structural Database, then it will include bibliographic, chemical, 
# crystal, experimental, refinement or atomic coordinate data resulting 
# from the CCDC's data processing and validation procedures.
#
#######################################################################

data_HEXTAI
_chemical_formula_moiety         'C13 H21 O1 Si1 1+,C1 H6 B11 Br6 1-'
_chemical_name_systematic        
'benzylidene(triethylsilyl)oxidanium 7,8,9,10,11,12-hexabromo-1-carba-closo-dodecaborate'
_symmetry_cell_setting           monoclinic
_symmetry_space_group_name_H-M   'P 21/n'
_symmetry_Int_Tables_number      14
_space_group_name_Hall           '-P 2yn'
loop_
_symmetry_equiv_pos_site_id
_symmetry_equiv_pos_as_xyz
1 x,y,z
2 1/2-x,1/2+y,1/2-z
3 -x,-y,-z
4 1/2+x,1/2-y,1/2+z
_cell_length_a                   14.02428(15)
_cell_length_b                   11.37152(14)
_cell_length_c                   18.7124(2)
_cell_angle_alpha                90
_cell_angle_beta                 100.7439(10)
_cell_angle_gamma                90
_cell_volume                     2931.89
_exptl_crystal_colour            yellow
_exptl_crystal_description       block
_cell_formula_units_Z            4
_chemical_properties_physical    Air-sensitive,Moisture-sensitive
loop_
_atom_site_label
_atom_site_type_symbol
_atom_site_fract_x
_atom_site_fract_y
_atom_site_fract_z
Br1 Br 0.59399(3) 0.14884(4) 0.400113(19)
Br2 Br 0.41013(3) 0.39451(4) 0.33617(2)
Br3 Br 0.33043(3) 0.36990(4) 0.12637(2)
Br4 Br 0.47446(3) 0.11237(4) 0.063982(19)
Br5 Br 0.63565(3) -0.02054(4) 0.23091(2)
Br6 Br 0.59669(2) 0.31616(3) 0.21918(2)
B1 B 0.3693(3) 0.1140(5) 0.3233(2)
H1 H 0.342(3) 0.107(4) 0.373(3)
B2 B 0.2936(3) 0.1758(5) 0.2455(2)
H2 H 0.220(3) 0.206(4) 0.251(2)
B3 B 0.3125(3) 0.0964(4) 0.1673(2)
H3 H 0.254(3) 0.080(4) 0.125(2)
B4 B 0.3989(3) -0.0156(4) 0.1970(2)
H4 H 0.392(3) -0.125(4) 0.161(3)
B5 B 0.4340(3) -0.0061(4) 0.2930(2)
H5 H 0.456(3) -0.078(4) 0.323(2)
B6 B 0.4919(3) 0.1309(4) 0.3147(2)
B7 B 0.4056(3) 0.2443(4) 0.28491(19)
B8 B 0.3698(3) 0.2332(4) 0.18811(19)
B9 B 0.4360(3) 0.1147(3) 0.1582(2)
C1 C 0.3203(3) 0.0303(4) 0.2497(2)
H6 H 0.275(4) -0.030(5) 0.254(3)
B10 B 0.5105(3) 0.0518(4) 0.2365(2)
B11 B 0.4934(2) 0.2067(3) 0.23091(19)
Si1 Si 0.64705(7) 0.67796(9) 0.43052(5)
O1 O 0.60867(18) 0.6662(3) 0.33488(13)
C2 C 0.6537(3) 0.6724(3) 0.28314(19)
H7 H 0.7218 0.6850 0.2939
C3 C 0.6080(3) 0.6615(3) 0.20962(19)
C4 C 0.6646(3) 0.6744(4) 0.1568(2)
H8 H 0.7325 0.6869 0.1707
C5 C 0.6224(3) 0.6689(4) 0.0838(2)
H9 H 0.6608 0.6777 0.0473
C6 C 0.5235(4) 0.6507(4) 0.0648(2)
H10 H 0.4941 0.6473 0.0148
C7 C 0.4663(3) 0.6372(5) 0.1173(3)
H11 H 0.3985 0.6239 0.1031
C8 C 0.5075(3) 0.6430(4) 0.1896(2)
H12 H 0.4686 0.6347 0.2257
C9 C 0.7689(3) 0.7485(4) 0.4496(2)
H13 H 0.7998 0.7302 0.5004
H14 H 0.8094 0.7125 0.4174
C10 C 0.7696(3) 0.8809(4) 0.4395(3)
H15 H 0.8367 0.9095 0.4498
H16 H 0.7327 0.9182 0.4729
H17 H 0.7400 0.9005 0.3892
C11 C 0.5483(3) 0.7674(5) 0.4545(2)
H18 H 0.5588 0.7755 0.5081
H19 H 0.5512 0.8471 0.4337
C12 C 0.4459(3) 0.7157(4) 0.4273(2)
H20 H 0.3969 0.7701 0.4391
H21 H 0.4402 0.6399 0.4511
H22 H 0.4357 0.7043 0.3745
C13 C 0.6511(3) 0.5238(4) 0.4613(2)
H23 H 0.6657 0.5227 0.5151
H24 H 0.5859 0.4887 0.4456
C14 C 0.7253(3) 0.4468(4) 0.4332(3)
H25 H 0.7301 0.3706 0.4581
H26 H 0.7888 0.4857 0.4428
H27 H 0.7048 0.4347 0.3808
loop_
_geom_bond_atom_site_label_1
_geom_bond_atom_site_label_2
_geom_bond_site_symmetry_1
_geom_bond_site_symmetry_2
Br1 B6 1_555 1_555
Br2 B7 1_555 1_555
Br3 B8 1_555 1_555
Br4 B9 1_555 1_555
Br5 B10 1_555 1_555
Br6 B11 1_555 1_555
B1 H1 1_555 1_555
B2 B1 1_555 1_555
H2 B2 1_555 1_555
B3 B2 1_555 1_555
H3 B3 1_555 1_555
B4 B3 1_555 1_555
H4 B4 1_555 1_555
B5 B1 1_555 1_555
H5 B5 1_555 1_555
B6 B1 1_555 1_555
B7 B1 1_555 1_555
B8 B2 1_555 1_555
B9 B3 1_555 1_555
C1 B1 1_555 1_555
H6 C1 1_555 1_555
B10 B4 1_555 1_555
B11 B6 1_555 1_555
Si1 O1 1_555 1_555
O1 C2 1_555 1_555
C2 H7 1_555 1_555
C3 C2 1_555 1_555
C4 C3 1_555 1_555
H8 C4 1_555 1_555
C5 C4 1_555 1_555
H9 C5 1_555 1_555
C6 C5 1_555 1_555
H10 C6 1_555 1_555
C7 C6 1_555 1_555
H11 C7 1_555 1_555
C8 C3 1_555 1_555
H12 C8 1_555 1_555
C9 Si1 1_555 1_555
H13 C9 1_555 1_555
H14 C9 1_555 1_555
C10 C9 1_555 1_555
H15 C10 1_555 1_555
H16 C10 1_555 1_555
H17 C10 1_555 1_555
C11 Si1 1_555 1_555
H18 C11 1_555 1_555
H19 C11 1_555 1_555
C12 C11 1_555 1_555
H20 C12 1_555 1_555
H21 C12 1_555 1_555
H22 C12 1_555 1_555
C13 Si1 1_555 1_555
H23 C13 1_555 1_555
H24 C13 1_555 1_555
C14 C13 1_555 1_555
H25 C14 1_555 1_555
H26 C14 1_555 1_555
H27 C14 1_555 1_555
B2 B7 1_555 1_555
B2 C1 1_555 1_555
B3 B8 1_555 1_555
B3 C1 1_555 1_555
B4 B5 1_555 1_555
B4 B9 1_555 1_555
B4 C1 1_555 1_555
B5 B6 1_555 1_555
B5 C1 1_555 1_555
B5 B10 1_555 1_555
B6 B7 1_555 1_555
B6 B10 1_555 1_555
B7 B8 1_555 1_555
B7 B11 1_555 1_555
B8 B9 1_555 1_555
B8 B11 1_555 1_555
B9 B10 1_555 1_555
B9 B11 1_555 1_555
B10 B11 1_555 1_555
C7 C8 1_555 1_555

#END
