
#######################################################################
#
#                 Cambridge Crystallographic Data Centre
#                                CCDC 
#
#######################################################################
#
# If this CIF has been generated from an entry in the Cambridge 
# Structural Database, then it will include bibliographic, chemical, 
# crystal, experimental, refinement or atomic coordinate data resulting 
# from the CCDC's data processing and validation procedures.
#
#######################################################################

data_HEXTEM
_chemical_formula_moiety         'C9 H23 O1 Si1 1+,C1 H6 B11 Br6 1-'
_chemical_name_systematic        
'tri-isopropylsilyloxidanium 7,8,9,10,11,12-hexabromo-1-carba-closo-dodecaborate'
_symmetry_cell_setting           monoclinic
_symmetry_space_group_name_H-M   'C 2/c'
_symmetry_Int_Tables_number      15
_space_group_name_Hall           '-C 2yn'
loop_
_symmetry_equiv_pos_site_id
_symmetry_equiv_pos_as_xyz
1 x,y,z
2 -x,y,1/2-z
3 1/2+x,1/2+y,z
4 1/2-x,1/2+y,1/2-z
5 -x,-y,-z
6 x,-y,1/2+z
7 1/2-x,1/2-y,-z
8 1/2+x,1/2-y,1/2+z
_cell_length_a                   25.9507(3)
_cell_length_b                   7.97460(10)
_cell_length_c                   27.2390(3)
_cell_angle_alpha                90
_cell_angle_beta                 110.0100(10)
_cell_angle_gamma                90
_cell_volume                     5296.72
_exptl_crystal_colour            colorless
_exptl_crystal_description       block
_cell_formula_units_Z            8
_chemical_properties_physical    Air-sensitive,Moisture-sensitive
loop_
_atom_site_label
_atom_site_type_symbol
_atom_site_fract_x
_atom_site_fract_y
_atom_site_fract_z
Br1 Br 0.144202(17) 0.75943(6) 0.738965(16)
Br2 Br 0.01954(7) 0.4886(12) 0.68352(7)
Br3 Br 0.019882(17) 0.30722(6) 0.550215(16)
Br4 Br 0.142495(17) 0.50648(5) 0.524055(14)
Br5 Br 0.219808(17) 0.78021(5) 0.639966(16)
Br6 Br 0.062999(14) 0.76136(5) 0.592345(15)
C1 C 0.18294(17) 0.2558(5) 0.68198(16)
H1 H 0.2051(17) 0.165(4) 0.7011(17)
B1 B 0.20597(16) 0.4497(6) 0.70463(16)
H2 H 0.2412(19) 0.465(6) 0.7370(18)
B2 B 0.14969(19) 0.3593(6) 0.71690(16)
H3 H 0.1546(19) 0.324(6) 0.7574(19)
B3 B 0.1135(2) 0.2287(6) 0.66285(18)
H4 H 0.0969(19) 0.113(6) 0.6676(18)
B4 B 0.14852(18) 0.2398(5) 0.61685(17)
H5 H 0.1541(18) 0.141(6) 0.5942(18)
B5 B 0.20547(16) 0.3771(6) 0.64291(17)
H6 H 0.2452(18) 0.358(6) 0.6353(17)
B6 B 0.14579(15) 0.5684(6) 0.69479(15)
B7 B 0.08899(16) 0.4314(6) 0.66930(16)
B8 B 0.08791(15) 0.3581(5) 0.60687(15)
B9 B 0.14453(15) 0.4500(5) 0.59490(14)
B10 B 0.18052(14) 0.5796(5) 0.64877(15)
B11 B 0.10770(14) 0.5696(5) 0.62680(14)
Si1 Si 0.11413(4) 0.17171(13) 0.40142(4)
O1 O 0.06805(11) 0.3018(4) 0.42116(12)
H7 H 0.040(2) 0.319(6) 0.408(2)
H8 H 0.081(2) 0.344(6) 0.451(2)
C2 C 0.0718(3) 0.0801(10) 0.3366(3)
H9 H 0.0634 0.1728 0.3103
C3 C 0.0176(3) 0.0062(11) 0.3355(3)
H10 H 0.0004 -0.0535 0.3025
H11 H -0.0067 0.0965 0.3386
H12 H 0.0239 -0.0721 0.3647
C4 C 0.1070(5) -0.0511(13) 0.3202(5)
H13 H 0.0884 -0.0831 0.2837
H14 H 0.1120 -0.1506 0.3425
H15 H 0.1429 -0.0026 0.3241
C5 C 0.16045(16) 0.3211(5) 0.38385(15)
H16 H 0.1731 0.2613 0.3577
C6 C 0.1308(2) 0.4788(7) 0.3563(2)
H17 H 0.1561 0.5470 0.3449
H18 H 0.1181 0.5439 0.3805
H19 H 0.0993 0.4464 0.3258
C7 C 0.21241(16) 0.3684(6) 0.42886(16)
H20 H 0.2369 0.4320 0.4152
H21 H 0.2310 0.2663 0.4460
H22 H 0.2027 0.4373 0.4542
C8 C 0.14769(15) 0.0491(5) 0.46225(15)
H23 H 0.1685 0.1313 0.4895
C9 C 0.18995(17) -0.0773(5) 0.45611(18)
H24 H 0.2116 -0.1223 0.4905
H25 H 0.2143 -0.0207 0.4407
H26 H 0.1708 -0.1691 0.4332
C10 C 0.1071(2) -0.0382(6) 0.4833(2)
H27 H 0.1272 -0.0940 0.5164
H28 H 0.0861 -0.1216 0.4579
H29 H 0.0820 0.0451 0.4891
Br7? Br 0.0244(2) 0.4239(18) 0.6878(2)
C11? C 0.0623(4) 0.0239(13) 0.3535(4)
H30? H 0.0443 -0.0476 0.3732
C12? C 0.0184(4) 0.1194(16) 0.3105(4)
H31? H -0.0089 0.0401 0.2891
H32? H 0.0356 0.1784 0.2885
H33? H 0.0005 0.2008 0.3263
C13? C 0.0936(7) -0.0893(19) 0.3270(8)
H34? H 0.0677 -0.1652 0.3023
H35? H 0.1212 -0.1552 0.3536
H36? H 0.1117 -0.0192 0.3082
loop_
_geom_bond_atom_site_label_1
_geom_bond_atom_site_label_2
_geom_bond_site_symmetry_1
_geom_bond_site_symmetry_2
Br1 B6 1_555 1_555
Br2 B7 1_555 1_555
Br3 B8 1_555 1_555
Br4 B9 1_555 1_555
Br5 B10 1_555 1_555
Br6 B11 1_555 1_555
C1 H1 1_555 1_555
B1 C1 1_555 1_555
H2 B1 1_555 1_555
B2 C1 1_555 1_555
H3 B2 1_555 1_555
B3 C1 1_555 1_555
H4 B3 1_555 1_555
B4 C1 1_555 1_555
H5 B4 1_555 1_555
B5 C1 1_555 1_555
H6 B5 1_555 1_555
B6 B1 1_555 1_555
B7 B2 1_555 1_555
B8 B3 1_555 1_555
B9 B4 1_555 1_555
B10 B1 1_555 1_555
B11 B6 1_555 1_555
Si1 O1 1_555 1_555
O1 H7 1_555 1_555
H8 O1 1_555 1_555
C2 Si1 1_555 1_555
H9 C2 1_555 1_555
C3 C2 1_555 1_555
H10 C3 1_555 1_555
H11 C3 1_555 1_555
H12 C3 1_555 1_555
C4 C2 1_555 1_555
H13 C4 1_555 1_555
H14 C4 1_555 1_555
H15 C4 1_555 1_555
C5 Si1 1_555 1_555
H16 C5 1_555 1_555
C6 C5 1_555 1_555
H17 C6 1_555 1_555
H18 C6 1_555 1_555
H19 C6 1_555 1_555
C7 C5 1_555 1_555
H20 C7 1_555 1_555
H21 C7 1_555 1_555
H22 C7 1_555 1_555
C8 Si1 1_555 1_555
H23 C8 1_555 1_555
C9 C8 1_555 1_555
H24 C9 1_555 1_555
H25 C9 1_555 1_555
H26 C9 1_555 1_555
C10 C8 1_555 1_555
H27 C10 1_555 1_555
H28 C10 1_555 1_555
H29 C10 1_555 1_555
B1 B2 1_555 1_555
B1 B5 1_555 1_555
B2 B3 1_555 1_555
B2 B6 1_555 1_555
B3 B4 1_555 1_555
B3 B7 1_555 1_555
B4 B5 1_555 1_555
B4 B8 1_555 1_555
B5 B9 1_555 1_555
B5 B10 1_555 1_555
B6 B7 1_555 1_555
B6 B10 1_555 1_555
B7 B8 1_555 1_555
B7 B11 1_555 1_555
B8 B9 1_555 1_555
B8 B11 1_555 1_555
B9 B10 1_555 1_555
B9 B11 1_555 1_555
B10 B11 1_555 1_555

#END
