
#######################################################################
#
#                 Cambridge Crystallographic Data Centre
#                                CCDC 
#
#######################################################################
#
# If this CIF has been generated from an entry in the Cambridge 
# Structural Database, then it will include bibliographic, chemical, 
# crystal, experimental, refinement or atomic coordinate data resulting 
# from the CCDC's data processing and validation procedures.
#
#######################################################################

data_HEXVAK
_chemical_formula_moiety         'C16 H12 O6 S1'
_chemical_name_systematic        
8-[(phenylsulfonyl)methyl]-2H-furo[3,4-e][1,3]benzodioxol-6(8H)-one
_symmetry_cell_setting           monoclinic
_symmetry_space_group_name_H-M   'P 21/n'
_symmetry_Int_Tables_number      14
_space_group_name_Hall           '-P 2yn'
loop_
_symmetry_equiv_pos_site_id
_symmetry_equiv_pos_as_xyz
1 x,y,z
2 1/2-x,1/2+y,1/2-z
3 -x,-y,-z
4 1/2+x,1/2-y,1/2+z
_cell_length_a                   7.1312(3)
_cell_length_b                   17.8557(8)
_cell_length_c                   11.3138(6)
_cell_angle_alpha                90
_cell_angle_beta                 98.808(8)
_cell_angle_gamma                90
_cell_volume                     1423.63
_exptl_crystal_colour            colorless
_exptl_crystal_description       block
_cell_formula_units_Z            4
loop_
_atom_site_label
_atom_site_type_symbol
_atom_site_fract_x
_atom_site_fract_y
_atom_site_fract_z
C1 C 0.8283(4) 0.63525(18) 0.6092(3)
H1 H 0.7890 0.5893 0.5753
C2 C 0.8196(5) 0.6985(2) 0.5396(3)
H2 H 0.7747 0.6957 0.4581
C3 C 0.8772(5) 0.7660(2) 0.5906(4)
H3 H 0.8700 0.8088 0.5432
C4 C 0.9456(5) 0.77140(19) 0.7109(4)
H4 H 0.9846 0.8175 0.7444
C5 C 0.9558(4) 0.70796(18) 0.7816(3)
H5 H 1.0026 0.7108 0.8628
C6 C 0.8958(4) 0.64035(16) 0.7299(3)
C7 C 0.7303(4) 0.57370(16) 0.9161(3)
H6 H 0.7559 0.5381 0.9813
H7 H 0.7493 0.6233 0.9507
C8 C 0.5211(4) 0.56661(14) 0.8635(3)
H8 H 0.4450 0.5807 0.9251
C9 C 0.4509(4) 0.61024(15) 0.7516(3)
C10 C 0.3805(4) 0.56040(16) 0.6611(3)
C11 C 0.3972(4) 0.48515(17) 0.7117(3)
C12 C 0.3072(5) 0.58233(18) 0.5461(3)
H9 H 0.2629 0.5470 0.4882
C13 C 0.3011(5) 0.65824(18) 0.5188(3)
H10 H 0.2534 0.6752 0.4424
C14 C 0.3682(4) 0.70707(16) 0.6088(3)
C15 C 0.4411(4) 0.68496(16) 0.7237(3)
C16 C 0.4557(5) 0.80995(17) 0.7168(3)
H11 H 0.3666 0.8428 0.7479
H12 H 0.5711 0.8379 0.7123
O1 O 1.0841(3) 0.56105(14) 0.8995(2)
O2 O 0.8557(4) 0.49566(12) 0.7467(2)
O3 O 0.4779(3) 0.48953(10) 0.8292(2)
O4 O 0.3502(4) 0.42534(12) 0.6660(2)
O5 O 0.4967(3) 0.74581(11) 0.79386(19)
O6 O 0.3760(3) 0.78329(11) 0.6008(2)
S1 S 0.90455(12) 0.55996(4) 0.82106(8)
loop_
_geom_bond_atom_site_label_1
_geom_bond_atom_site_label_2
_geom_bond_site_symmetry_1
_geom_bond_site_symmetry_2
C1 H1 1_555 1_555
C2 C1 1_555 1_555
H2 C2 1_555 1_555
C3 C2 1_555 1_555
H3 C3 1_555 1_555
C4 C3 1_555 1_555
H4 C4 1_555 1_555
C5 C4 1_555 1_555
H5 C5 1_555 1_555
C6 C1 1_555 1_555
C7 H6 1_555 1_555
H7 C7 1_555 1_555
C8 C7 1_555 1_555
H8 C8 1_555 1_555
C9 C8 1_555 1_555
C10 C9 1_555 1_555
C11 C10 1_555 1_555
C12 C10 1_555 1_555
H9 C12 1_555 1_555
C13 C12 1_555 1_555
H10 C13 1_555 1_555
C14 C13 1_555 1_555
C15 C9 1_555 1_555
C16 H11 1_555 1_555
H12 C16 1_555 1_555
O1 S1 1_555 1_555
O2 S1 1_555 1_555
O3 C8 1_555 1_555
O4 C11 1_555 1_555
O5 C15 1_555 1_555
O6 C14 1_555 1_555
S1 C6 1_555 1_555
C5 C6 1_555 1_555
C7 S1 1_555 1_555
C11 O3 1_555 1_555
C14 C15 1_555 1_555
C16 O5 1_555 1_555
C16 O6 1_555 1_555

#END
