
#######################################################################
#
#                 Cambridge Crystallographic Data Centre
#                                CCDC 
#
#######################################################################
#
# If this CIF has been generated from an entry in the Cambridge 
# Structural Database, then it will include bibliographic, chemical, 
# crystal, experimental, refinement or atomic coordinate data resulting 
# from the CCDC's data processing and validation procedures.
#
#######################################################################

data_HEXVUC
_chemical_formula_moiety         'C32 H44 S5'
_chemical_name_systematic        
3,6-Didecanyldithieno(2,3-d:2',3'-d')thieno(3,2-b:4,5-b'')dithiophene
_symmetry_cell_setting           monoclinic
_symmetry_space_group_name_H-M   'C 2/c'
_symmetry_Int_Tables_number      15
_space_group_name_Hall           '-C 2yn'
loop_
_symmetry_equiv_pos_site_id
_symmetry_equiv_pos_as_xyz
1 x,y,z
2 1/2+x,1/2+y,z
3 -x,y,1/2-z
4 1/2-x,1/2+y,1/2-z
5 -x,-y,-z
6 1/2-x,1/2-y,-z
7 x,-y,1/2+z
8 1/2+x,1/2-y,1/2+z
_cell_length_a                   34.990(2)
_cell_length_b                   6.9313(4)
_cell_length_c                   12.8425(8)
_cell_angle_alpha                90
_cell_angle_beta                 93.083(4)
_cell_angle_gamma                90
_cell_volume                     3110.13
_exptl_crystal_colour            colorless
_exptl_crystal_description       plate
_chemical_melting_point          '109 deg.C'
_cell_formula_units_Z            4
_exptl_crystal_recrystallization_method toluene
loop_
_atom_site_label
_atom_site_type_symbol
_atom_site_fract_x
_atom_site_fract_y
_atom_site_fract_z
S1 S 0.0000 0.59191(6) 0.2500
S2 S 0.031030(9) 1.12963(5) 0.38036(3)
S3 S 0.057197(11) 0.59763(5) 0.51754(3)
C1 C 0.01092(4) 0.95462(18) 0.29823(11)
C2 C 0.01848(4) 0.76839(18) 0.33362(11)
C3 C 0.04035(4) 0.76733(19) 0.42988(11)
C4 C 0.04944(4) 0.95198(19) 0.46415(11)
C5 C 0.07697(4) 0.7754(2) 0.59834(12)
H1 H 0.0898(5) 0.736(3) 0.6619(15)
C6 C 0.07093(4) 0.9582(2) 0.56173(11)
C7 C 0.08350(4) 1.1424(2) 0.61310(12)
H2 H 0.0967(4) 1.210(2) 0.5629(12)
H3 H 0.0623(4) 1.212(2) 0.6246(12)
C8 C 0.10851(4) 1.1321(2) 0.71307(12)
H4 H 0.1320(4) 1.064(2) 0.7019(12)
H5 H 0.0951(5) 1.065(2) 0.7661(13)
C9 C 0.11793(5) 1.3360(2) 0.74991(13)
H6 H 0.1301(5) 1.397(3) 0.6961(15)
H7 H 0.0946(5) 1.400(2) 0.7589(13)
C10 C 0.14354(5) 1.3570(2) 0.84797(13)
H8 H 0.1673(5) 1.292(2) 0.8390(13)
H9 H 0.1316(5) 1.296(3) 0.9036(14)
C11 C 0.15079(6) 1.5695(3) 0.87149(15)
H10 H 0.1627(6) 1.623(3) 0.8142(17)
H11 H 0.1270(5) 1.636(3) 0.8776(15)
C12 C 0.17571(5) 1.6135(3) 0.96890(15)
H12 H 0.1624(5) 1.559(3) 1.0281(15)
H13 H 0.2002(6) 1.549(3) 0.9647(16)
C13 C 0.18158(6) 1.8298(3) 0.98376(16)
H14 H 0.1928(6) 1.881(3) 0.9212(17)
H15 H 0.1569(6) 1.894(3) 0.9848(15)
C14 C 0.20591(5) 1.8890(3) 1.07905(16)
H16 H 0.2310(6) 1.834(3) 1.0767(16)
H17 H 0.1954(5) 1.838(3) 1.1429(15)
C15 C 0.20904(7) 2.1071(3) 1.08948(19)
H18 H 0.2198(7) 2.155(3) 1.024(2)
H19 H 0.1830(7) 2.167(3) 1.1014(17)
C16 C 0.23365(6) 2.1734(4) 1.18258(17)
H20 H 0.2226 2.1279 1.2466
H21 H 0.2349 2.3146 1.1832
H22 H 0.2595 2.1206 1.1785
S2B S -0.031030(9) 1.12963(5) 0.11964(3)
S3B S -0.057197(11) 0.59763(5) -0.01754(3)
C1B C -0.01092(4) 0.95462(18) 0.20177(11)
C2B C -0.01848(4) 0.76839(18) 0.16638(11)
C3B C -0.04035(4) 0.76733(19) 0.07012(11)
C4B C -0.04944(4) 0.95198(19) 0.03585(11)
C5B C -0.07697(4) 0.7754(2) -0.09834(12)
H1B H -0.0898(5) 0.736(3) -0.1619(15)
C6B C -0.07093(4) 0.9582(2) -0.06173(11)
C7B C -0.08350(4) 1.1424(2) -0.11310(12)
H2B H -0.0967(4) 1.210(2) -0.0629(12)
H3B H -0.0623(4) 1.212(2) -0.1246(12)
C8B C -0.10851(4) 1.1321(2) -0.21307(12)
H4B H -0.1320(4) 1.064(2) -0.2019(12)
H5B H -0.0951(5) 1.065(2) -0.2661(13)
C9B C -0.11793(5) 1.3360(2) -0.24991(13)
H6B H -0.1301(5) 1.397(3) -0.1961(15)
H7B H -0.0946(5) 1.400(2) -0.2589(13)
C10B C -0.14354(5) 1.3570(2) -0.34797(13)
H8B H -0.1673(5) 1.292(2) -0.3390(13)
H9B H -0.1316(5) 1.296(3) -0.4036(14)
C11B C -0.15079(6) 1.5695(3) -0.37149(15)
H10B H -0.1627(6) 1.623(3) -0.3142(17)
H11B H -0.1270(5) 1.636(3) -0.3776(15)
C12B C -0.17571(5) 1.6135(3) -0.46890(15)
H12B H -0.1624(5) 1.559(3) -0.5281(15)
H13B H -0.2002(6) 1.549(3) -0.4647(16)
C13B C -0.18158(6) 1.8298(3) -0.48376(16)
H14B H -0.1928(6) 1.881(3) -0.4212(17)
H15B H -0.1569(6) 1.894(3) -0.4848(15)
C14B C -0.20591(5) 1.8890(3) -0.57905(16)
H16B H -0.2310(6) 1.834(3) -0.5767(16)
H17B H -0.1954(5) 1.838(3) -0.6429(15)
C15B C -0.20904(7) 2.1071(3) -0.58948(19)
H18B H -0.2198(7) 2.155(3) -0.524(2)
H19B H -0.1830(7) 2.167(3) -0.6014(17)
C16B C -0.23365(6) 2.1734(4) -0.68258(17)
H20B H -0.2226 2.1279 -0.7466
H21B H -0.2349 2.3146 -0.6832
H22B H -0.2595 2.1206 -0.6785
loop_
_geom_bond_atom_site_label_1
_geom_bond_atom_site_label_2
_geom_bond_site_symmetry_1
_geom_bond_site_symmetry_2
S1 C2 1_555 1_555
S2 C1 1_555 1_555
S3 C3 1_555 1_555
C1 C2 1_555 1_555
C2 C3 1_555 1_555
C3 C4 1_555 1_555
C4 S2 1_555 1_555
C5 S3 1_555 1_555
H1 C5 1_555 1_555
C6 C4 1_555 1_555
C7 C6 1_555 1_555
H2 C7 1_555 1_555
H3 C7 1_555 1_555
C8 C7 1_555 1_555
H4 C8 1_555 1_555
H5 C8 1_555 1_555
C9 C8 1_555 1_555
H6 C9 1_555 1_555
H7 C9 1_555 1_555
C10 C9 1_555 1_555
H8 C10 1_555 1_555
H9 C10 1_555 1_555
C11 C10 1_555 1_555
H10 C11 1_555 1_555
H11 C11 1_555 1_555
C12 C11 1_555 1_555
H12 C12 1_555 1_555
H13 C12 1_555 1_555
C13 C12 1_555 1_555
H14 C13 1_555 1_555
H15 C13 1_555 1_555
C14 C13 1_555 1_555
H16 C14 1_555 1_555
H17 C14 1_555 1_555
C15 C14 1_555 1_555
H18 C15 1_555 1_555
H19 C15 1_555 1_555
C16 C15 1_555 1_555
H20 C16 1_555 1_555
H21 C16 1_555 1_555
H22 C16 1_555 1_555
S2B C1B 1_555 1_555
S3B C3B 1_555 1_555
C1B C1 1_555 1_555
C2B S1 1_555 1_555
C3B C2B 1_555 1_555
C4B S2B 1_555 1_555
C5B S3B 1_555 1_555
H1B C5B 1_555 1_555
C6B C4B 1_555 1_555
C7B C6B 1_555 1_555
H2B C7B 1_555 1_555
H3B C7B 1_555 1_555
C8B C7B 1_555 1_555
H4B C8B 1_555 1_555
H5B C8B 1_555 1_555
C9B C8B 1_555 1_555
H6B C9B 1_555 1_555
H7B C9B 1_555 1_555
C10B C9B 1_555 1_555
H8B C10B 1_555 1_555
H9B C10B 1_555 1_555
C11B C10B 1_555 1_555
H10B C11B 1_555 1_555
H11B C11B 1_555 1_555
C12B C11B 1_555 1_555
H12B C12B 1_555 1_555
H13B C12B 1_555 1_555
C13B C12B 1_555 1_555
H14B C13B 1_555 1_555
H15B C13B 1_555 1_555
C14B C13B 1_555 1_555
H16B C14B 1_555 1_555
H17B C14B 1_555 1_555
C15B C14B 1_555 1_555
H18B C15B 1_555 1_555
H19B C15B 1_555 1_555
C16B C15B 1_555 1_555
H20B C16B 1_555 1_555
H21B C16B 1_555 1_555
H22B C16B 1_555 1_555
C5 C6 1_555 1_555
C1B C2B 1_555 1_555
C3B C4B 1_555 1_555
C5B C6B 1_555 1_555

#END
