
#######################################################################
#
#                 Cambridge Crystallographic Data Centre
#                                CCDC 
#
#######################################################################
#
# If this CIF has been generated from an entry in the Cambridge 
# Structural Database, then it will include bibliographic, chemical, 
# crystal, experimental, refinement or atomic coordinate data resulting 
# from the CCDC's data processing and validation procedures.
#
#######################################################################

data_HEYCIA
_chemical_formula_moiety         'C18 H17 N1 O1'
_chemical_name_systematic        
phenyl(1-phenyl-1,4,5,6-tetrahydropyridin-3-yl)methanone
_symmetry_cell_setting           orthorhombic
_symmetry_space_group_name_H-M   'P c a 21'
_symmetry_Int_Tables_number      29
_space_group_name_Hall           'P 2c -2ac'
loop_
_symmetry_equiv_pos_site_id
_symmetry_equiv_pos_as_xyz
1 x,y,z
2 -x,-y,1/2+z
3 1/2+x,-y,z
4 1/2-x,y,1/2+z
_cell_length_a                   22.2044(12)
_cell_length_b                   8.5077(7)
_cell_length_c                   7.4456(6)
_cell_angle_alpha                90
_cell_angle_beta                 90
_cell_angle_gamma                90
_cell_volume                     1406.54
_exptl_crystal_colour            colorless
_exptl_crystal_description       block
_cell_formula_units_Z            4
loop_
_atom_site_label
_atom_site_type_symbol
_atom_site_fract_x
_atom_site_fract_y
_atom_site_fract_z
O1 O 0.82387(8) 0.6843(2) 0.5226(4)
N1 N 0.61660(8) 0.5567(2) 0.4998(4)
C1 C 0.77612(10) 0.2942(3) 0.6148(4)
H1 H 0.7431 0.3178 0.6868
C2 C 0.79651(12) 0.1422(3) 0.6047(5)
H2 H 0.7777 0.0642 0.6719
C3 C 0.84453(12) 0.1042(4) 0.4959(6)
H3 H 0.8568 0.0001 0.4843
C4 C 0.87414(13) 0.2215(4) 0.4045(5)
H4 H 0.9073 0.1970 0.3335
C5 C 0.85499(11) 0.3750(3) 0.4177(4)
H5 H 0.8762 0.4538 0.3586
C6 C 0.80438(9) 0.4135(3) 0.5182(4)
C7 C 0.78467(10) 0.5829(3) 0.5218(4)
C8 C 0.72137(10) 0.6270(3) 0.5200(4)
C9 C 0.67630(10) 0.5211(3) 0.4940(4)
H6 H 0.6870 0.4174 0.4707
C10 C 0.70696(12) 0.7983(3) 0.5433(5)
H7 H 0.7359 0.8613 0.4776
H8 H 0.7097 0.8262 0.6694
C11 C 0.64432(14) 0.8326(3) 0.4754(6)
H9 H 0.6328 0.9383 0.5102
H10 H 0.6440 0.8272 0.3453
C12 C 0.59930(12) 0.7171(3) 0.5497(5)
H11 H 0.5977 0.7263 0.6795
H12 H 0.5596 0.7405 0.5025
C13 C 0.57235(10) 0.4370(3) 0.4898(4)
C14 C 0.58193(11) 0.3037(3) 0.3873(4)
H13 H 0.6172 0.2936 0.3211
C15 C 0.53943(12) 0.1859(4) 0.3828(5)
H14 H 0.5465 0.0953 0.3160
C16 C 0.48613(13) 0.2020(5) 0.4775(6)
H15 H 0.4574 0.1225 0.4750
C17 C 0.47615(13) 0.3359(5) 0.5749(5)
H16 H 0.4400 0.3477 0.6365
C18 C 0.51862(11) 0.4533(4) 0.5832(4)
H17 H 0.5114 0.5431 0.6510
loop_
_geom_bond_atom_site_label_1
_geom_bond_atom_site_label_2
_geom_bond_site_symmetry_1
_geom_bond_site_symmetry_2
O1 C7 1_555 1_555
N1 C9 1_555 1_555
C1 H1 1_555 1_555
C2 C1 1_555 1_555
H2 C2 1_555 1_555
C3 C2 1_555 1_555
H3 C3 1_555 1_555
C4 C3 1_555 1_555
H4 C4 1_555 1_555
C5 C4 1_555 1_555
H5 C5 1_555 1_555
C6 C1 1_555 1_555
C7 C6 1_555 1_555
C8 C7 1_555 1_555
C9 C8 1_555 1_555
H6 C9 1_555 1_555
C10 C8 1_555 1_555
H7 C10 1_555 1_555
H8 C10 1_555 1_555
C11 C10 1_555 1_555
H9 C11 1_555 1_555
H10 C11 1_555 1_555
C12 N1 1_555 1_555
H11 C12 1_555 1_555
H12 C12 1_555 1_555
C13 N1 1_555 1_555
C14 C13 1_555 1_555
H13 C14 1_555 1_555
C15 C14 1_555 1_555
H14 C15 1_555 1_555
C16 C15 1_555 1_555
H15 C16 1_555 1_555
C17 C16 1_555 1_555
H16 C17 1_555 1_555
C18 C13 1_555 1_555
H17 C18 1_555 1_555
C5 C6 1_555 1_555
C11 C12 1_555 1_555
C17 C18 1_555 1_555

#END
