
#######################################################################
#
#                 Cambridge Crystallographic Data Centre
#                                CCDC 
#
#######################################################################
#
# If this CIF has been generated from an entry in the Cambridge 
# Structural Database, then it will include bibliographic, chemical, 
# crystal, experimental, refinement or atomic coordinate data resulting 
# from the CCDC's data processing and validation procedures.
#
#######################################################################

data_HEYDOE
_chemical_formula_moiety         'C30 H20 S4 Te4'
_chemical_name_systematic        
(\m~4~-Tetrathiafulvalen-2,3,6,7-tetrayl)-tetrakis(phenyl-tellurium)
_symmetry_cell_setting           monoclinic
_symmetry_space_group_name_H-M   'P 21/c'
_symmetry_Int_Tables_number      14
_space_group_name_Hall           '-P 2ybc'
loop_
_symmetry_equiv_pos_site_id
_symmetry_equiv_pos_as_xyz
1 x,y,z
2 -x,1/2+y,1/2-z
3 -x,-y,-z
4 x,1/2-y,1/2+z
_cell_length_a                   18.470(4)
_cell_length_b                   6.270(2)
_cell_length_c                   14.490(3)
_cell_angle_alpha                90
_cell_angle_beta                 111.78(3)
_cell_angle_gamma                90
_cell_volume                     1558.26
_exptl_crystal_colour            red
_chemical_melting_point          170.1-170.6deg.C
_cell_formula_units_Z            2
loop_
_atom_site_label
_atom_site_type_symbol
_atom_site_fract_x
_atom_site_fract_y
_atom_site_fract_z
Te1 Te 0.1785(1) 0.1517(1) 0.0013(1)
Te2 Te 0.1129(1) 0.1595(1) 0.2307(1)
S1 S 0.0294(1) -0.2797(3) 0.1273(1)
S2 S 0.0762(1) -0.2890(3) -0.0462(1)
C1 C 0.1103(4) -0.0752(11) 0.0372(5)
C2 C 0.0883(4) -0.0707(11) 0.1163(5)
C3 C 0.0213(4) -0.4130(11) 0.0156(5)
C4 C 0.2326(4) 0.0802(15) 0.2995(5)
C5 C 0.2930(5) -0.2056(17) 0.1156(7)
C6 C 0.2862(4) -0.0050(14) 0.0718(6)
C7 C 0.2550(6) -0.1128(17) 0.3459(7)
C8 C 0.3530(6) 0.0986(19) 0.0739(7)
C9 C 0.3670(6) -0.2976(21) 0.1605(8)
C10 C 0.2893(5) 0.2312(19) 0.3013(7)
C11 C 0.3645(7) 0.1816(23) 0.3459(9)
C12 C 0.4259(6) 0.0060(24) 0.1160(8)
C13 C 0.3354(8) -0.1581(24) 0.3901(8)
C14 C 0.3897(6) -0.0115(26) 0.3907(8)
C15 C 0.4330(6) -0.1893(24) 0.1594(8)
H1 H 0.2474 -0.2801 0.1149
H2 H 0.2170 -0.2147 0.3483
H3 H 0.3485 0.2385 0.0453
H4 H 0.3724 -0.4346 0.1919
H5 H 0.2741 0.3682 0.2706
H6 H 0.4027 0.2860 0.3468
H7 H 0.4712 0.0789 0.1145
H8 H 0.3519 -0.2951 0.4201
H9 H 0.4444 -0.0422 0.4219
H10 H 0.4836 -0.2532 0.1896
C3B C -0.0213(4) -0.5870(11) -0.0156(5)
S1B S -0.0294(1) -0.7203(3) -0.1273(1)
S2B S -0.0762(1) -0.7110(3) 0.0462(1)
C2B C -0.0883(4) -0.9293(11) -0.1163(5)
C1B C -0.1103(4) -0.9248(11) -0.0372(5)
Te2B Te -0.1129(1) -1.1595(1) -0.2307(1)
Te1B Te -0.1785(1) -1.1517(1) -0.0013(1)
C4B C -0.2326(4) -1.0802(15) -0.2995(5)
C6B C -0.2862(4) -0.9950(14) -0.0718(6)
C7B C -0.2550(6) -0.8872(17) -0.3459(7)
C10B C -0.2893(5) -1.2312(19) -0.3013(7)
C5B C -0.2930(5) -0.7944(17) -0.1156(7)
C8B C -0.3530(6) -1.0986(19) -0.0739(7)
C13B C -0.3354(8) -0.8419(24) -0.3901(8)
H2B H -0.2170 -0.7853 -0.3483
C11B C -0.3645(7) -1.1816(23) -0.3459(9)
H5B H -0.2741 -1.3682 -0.2706
C9B C -0.3670(6) -0.7024(21) -0.1605(8)
H1B H -0.2474 -0.7199 -0.1149
C12B C -0.4259(6) -1.0060(24) -0.1160(8)
H3B H -0.3485 -1.2385 -0.0453
C14B C -0.3897(6) -0.9885(26) -0.3907(8)
H8B H -0.3519 -0.7049 -0.4201
H6B H -0.4027 -1.2860 -0.3468
C15B C -0.4330(6) -0.8107(24) -0.1594(8)
H4B H -0.3724 -0.5654 -0.1919
H7B H -0.4712 -1.0789 -0.1145
H9B H -0.4444 -0.9578 -0.4219
H10B H -0.4836 -0.7468 -0.1896
loop_
_geom_bond_atom_site_label_1
_geom_bond_atom_site_label_2
_geom_bond_site_symmetry_1
_geom_bond_site_symmetry_2
Te1 C1 1_555 1_555
Te2 C2 1_555 1_555
S1 C2 1_555 1_555
S2 C1 1_555 1_555
C1 C2 1_555 1_555
C3 S1 1_555 1_555
C4 Te2 1_555 1_555
C5 C6 1_555 1_555
C6 Te1 1_555 1_555
C7 C4 1_555 1_555
C8 C6 1_555 1_555
C9 C5 1_555 1_555
C10 C4 1_555 1_555
C11 C10 1_555 1_555
C12 C8 1_555 1_555
C13 C7 1_555 1_555
C14 C11 1_555 1_555
C15 C9 1_555 1_555
H1 C5 1_555 1_555
H2 C7 1_555 1_555
H3 C8 1_555 1_555
H4 C9 1_555 1_555
H5 C10 1_555 1_555
H6 C11 1_555 1_555
H7 C12 1_555 1_555
H8 C13 1_555 1_555
H9 C14 1_555 1_555
H10 C15 1_555 1_555
C3B C3 1_555 1_555
S1B C3B 1_555 1_555
S2B C3B 1_555 1_555
C2B S1B 1_555 1_555
C1B S2B 1_555 1_555
Te2B C2B 1_555 1_555
Te1B C1B 1_555 1_555
C4B Te2B 1_555 1_555
C6B Te1B 1_555 1_555
C7B C4B 1_555 1_555
C10B C4B 1_555 1_555
C5B C6B 1_555 1_555
C8B C6B 1_555 1_555
C13B C7B 1_555 1_555
H2B C7B 1_555 1_555
C11B C10B 1_555 1_555
H5B C10B 1_555 1_555
C9B C5B 1_555 1_555
H1B C5B 1_555 1_555
C12B C8B 1_555 1_555
H3B C8B 1_555 1_555
C14B C13B 1_555 1_555
H8B C13B 1_555 1_555
H6B C11B 1_555 1_555
C15B C9B 1_555 1_555
H4B C9B 1_555 1_555
H7B C12B 1_555 1_555
H9B C14B 1_555 1_555
H10B C15B 1_555 1_555
S2 C3 1_555 1_555
C12 C15 1_555 1_555
C13 C14 1_555 1_555
C2B C1B 1_555 1_555
C11B C14B 1_555 1_555
C12B C15B 1_555 1_555

#END
