
#######################################################################
#
#                 Cambridge Crystallographic Data Centre
#                                CCDC 
#
#######################################################################
#
# If this CIF has been generated from an entry in the Cambridge 
# Structural Database, then it will include bibliographic, chemical, 
# crystal, experimental, refinement or atomic coordinate data resulting 
# from the CCDC's data processing and validation procedures.
#
#######################################################################

data_HEYDIY
_chemical_formula_moiety         'C18 H12 S4 Te2'
_chemical_name_systematic        
(\m~2~-Tetrathiafulvalen-2,6-diyl)-bis(phenyl-tellurium)
_symmetry_cell_setting           monoclinic
_symmetry_space_group_name_H-M   'C 2/c'
_symmetry_Int_Tables_number      15
_space_group_name_Hall           '-C 2yn'
loop_
_symmetry_equiv_pos_site_id
_symmetry_equiv_pos_as_xyz
1 x,y,z
2 -x,y,1/2-z
3 1/2+x,1/2+y,z
4 1/2-x,1/2+y,1/2-z
5 -x,-y,-z
6 x,-y,1/2+z
7 1/2-x,1/2-y,-z
8 1/2+x,1/2-y,1/2+z
_cell_length_a                   11.950(2)
_cell_length_b                   5.339(1)
_cell_length_c                   31.132(6)
_cell_angle_alpha                90
_cell_angle_beta                 100.31(3)
_cell_angle_gamma                90
_cell_volume                     1954.18
_exptl_crystal_colour            orange
_chemical_melting_point          179.6deg.C
_cell_formula_units_Z            4
loop_
_atom_site_label
_atom_site_type_symbol
_atom_site_fract_x
_atom_site_fract_y
_atom_site_fract_z
Te1 Te 0.1480(1) 0.2765(1) 0.1101(1)
S1 S -0.1176(3) 0.8533(6) 0.0407(1)
S2 S 0.1189(3) 0.7196(6) 0.0341(1)
C1 C 0.0018(11) 0.9110(18) 0.0158(4)
C2 C -0.0534(12) 0.6118(20) 0.0734(4)
C3 C 0.0531(13) 0.5553(20) 0.0698(4)
C4 C 0.2306(11) 0.5461(21) 0.1559(4)
C5 C 0.1735(12) 0.7037(25) 0.1787(5)
C6 C 0.2308(16) 0.8769(26) 0.2062(5)
C7 C 0.3469(17) 0.8968(29) 0.2129(5)
C8 C 0.4060(14) 0.7470(31) 0.1897(5)
C9 C 0.3508(13) 0.5667(26) 0.1606(5)
H1 H -0.0837 0.5105 0.0941
H2 H 0.0922 0.6922 0.1754
H3 H 0.1879 0.9878 0.2213
H4 H 0.3854 1.0153 0.2336
H5 H 0.4871 0.7647 0.1936
H6 H 0.3935 0.4607 0.1445
C1D C -0.0018(11) 1.0890(18) -0.0158(4)
S1D S 0.1176(3) 1.1467(6) -0.0407(1)
S2D S -0.1189(3) 1.2804(6) -0.0341(1)
C2D C 0.0534(12) 1.3882(20) -0.0734(4)
C3D C -0.0531(13) 1.4447(20) -0.0698(4)
H1D H 0.0837 1.4895 -0.0941
Te1D Te -0.1480(1) 1.7235(1) -0.1101(1)
C4D C -0.2306(11) 1.4539(21) -0.1559(4)
C5D C -0.1735(12) 1.2963(25) -0.1787(5)
C9D C -0.3508(13) 1.4333(26) -0.1606(5)
C6D C -0.2308(16) 1.1231(26) -0.2062(5)
H2D H -0.0922 1.3078 -0.1754
C8D C -0.4060(14) 1.2530(31) -0.1897(5)
H6D H -0.3935 1.5393 -0.1445
C7D C -0.3469(17) 1.1032(29) -0.2129(5)
H3D H -0.1879 1.0122 -0.2213
H5D H -0.4871 1.2353 -0.1936
H4D H -0.3854 0.9847 -0.2336
loop_
_geom_bond_atom_site_label_1
_geom_bond_atom_site_label_2
_geom_bond_site_symmetry_1
_geom_bond_site_symmetry_2
Te1 C3 1_555 1_555
S1 C1 1_555 1_555
S2 C1 1_555 1_555
C1 C1D 1_555 1_555
C2 S1 1_555 1_555
C3 S2 1_555 1_555
C4 Te1 1_555 1_555
C5 C4 1_555 1_555
C6 C5 1_555 1_555
C7 C6 1_555 1_555
C8 C7 1_555 1_555
C9 C4 1_555 1_555
H1 C2 1_555 1_555
H2 C5 1_555 1_555
H3 C6 1_555 1_555
H4 C7 1_555 1_555
H5 C8 1_555 1_555
H6 C9 1_555 1_555
C1D S1D 1_555 1_555
S1D C2D 1_555 1_555
S2D C1D 1_555 1_555
C2D C3D 1_555 1_555
C3D S2D 1_555 1_555
H1D C2D 1_555 1_555
Te1D C3D 1_555 1_555
C4D Te1D 1_555 1_555
C5D C4D 1_555 1_555
C9D C4D 1_555 1_555
C6D C5D 1_555 1_555
H2D C5D 1_555 1_555
C8D C9D 1_555 1_555
H6D C9D 1_555 1_555
C7D C6D 1_555 1_555
H3D C6D 1_555 1_555
H5D C8D 1_555 1_555
H4D C7D 1_555 1_555
C2 C3 1_555 1_555
C8 C9 1_555 1_555
C8D C7D 1_555 1_555

#END
