
#######################################################################
#
#                 Cambridge Crystallographic Data Centre
#                                CCDC 
#
#######################################################################
#
# If this CIF has been generated from an entry in the Cambridge 
# Structural Database, then it will include bibliographic, chemical, 
# crystal, experimental, refinement or atomic coordinate data resulting 
# from the CCDC's data processing and validation procedures.
#
#######################################################################

data_HEYGUO
_chemical_formula_moiety         'C37 H51 N7 O7,C5 H5 N1,0.5(H2 O1)'
_chemical_name_systematic        
'2,6-bis(N-(6-t-Butoxycarbonylaminopyridin-2-yl)carbamoyl)-4-decyloxypyridine pyridine hemihydrate clathrate'
_symmetry_cell_setting           triclinic
_symmetry_space_group_name_H-M   'P -1'
_symmetry_Int_Tables_number      2
_space_group_name_Hall           '-P 1'
loop_
_symmetry_equiv_pos_site_id
_symmetry_equiv_pos_as_xyz
1 x,y,z
2 -x,-y,-z
_cell_length_a                   9.915(4)
_cell_length_b                   10.365(4)
_cell_length_c                   22.163(4)
_cell_angle_alpha                94.23(2)
_cell_angle_beta                 91.30(2)
_cell_angle_gamma                94.73(3)
_cell_volume                     2262.78
_exptl_crystal_colour            colorless
_exptl_crystal_description       prismatic
_cell_formula_units_Z            2
loop_
_atom_site_label
_atom_site_type_symbol
_atom_site_fract_x
_atom_site_fract_y
_atom_site_fract_z
O1 O 0.7279(3) 0.3635(3) 0.3613(1)
O2 O 0.6008(4) 0.1784(3) 0.3731(1)
O3 O 0.3462(2) 0.0401(2) 0.02451(9)
O4 O 0.3591(2) 0.2791(3) -0.17102(9)
O5 O 0.7286(2) 0.5847(2) -0.0723(1)
O6 O 1.1812(3) 0.5069(3) 0.2570(1)
O7 O 1.2363(3) 0.6950(3) 0.2165(1)
N1 N 0.6281(3) 0.2587(3) 0.2819(1)
N2 N 0.5434(3) 0.2080(2) 0.1868(1)
N3 N 0.4812(3) 0.1822(2) 0.0880(1)
N4 N 0.5579(2) 0.3214(2) -0.0035(1)
N5 N 0.7640(2) 0.5043(2) 0.0193(1)
N6 N 0.9159(2) 0.5450(2) 0.0978(1)
N7 N 1.0618(3) 0.5549(3) 0.1789(1)
C1 C 0.7703(5) 0.3943(5) 0.4240(2)
C2 C 0.6448(8) 0.4169(8) 0.4588(3)
C3 C 0.8424(9) 0.2915(7) 0.4482(4)
C4 C 0.8580(6) 0.5179(6) 0.4218(2)
C5 C 0.6479(4) 0.2579(4) 0.3423(2)
C6 C 0.5501(3) 0.1688(3) 0.2427(1)
C7 C 0.4868(4) 0.0527(3) 0.2582(2)
C8 C 0.4189(4) -0.0251(3) 0.2129(2)
C9 C 0.4117(3) 0.0114(3) 0.1547(1)
C10 C 0.4759(3) 0.1297(3) 0.1439(1)
C11 C 0.4218(3) 0.1390(3) 0.0335(1)
C12 C 0.4590(3) 0.2265(3) -0.0157(1)
C13 C 0.3887(3) 0.2056(3) -0.0703(1)
C14 C 0.4207(3) 0.2873(3) -0.1152(1)
C15 C 0.5230(3) 0.3863(3) -0.1037(1)
C16 C 0.5884(3) 0.3988(3) -0.0479(1)
C17 C 0.7009(3) 0.5057(3) -0.0353(1)
C18 C 0.8780(3) 0.5816(3) 0.0438(1)
C19 C 0.9438(3) 0.6819(3) 0.0158(1)
C20 C 1.0551(3) 0.7460(3) 0.0462(2)
C21 C 1.0985(3) 0.7110(3) 0.1014(2)
C22 C 1.0259(3) 0.6079(3) 0.1256(1)
C23 C 1.1666(3) 0.5966(3) 0.2180(2)
C24 C 1.2877(4) 0.5240(4) 0.3047(2)
C25 C 1.2701(6) 0.3986(6) 0.3342(3)
C26 C 1.2639(6) 0.6384(6) 0.3471(2)
C27 C 1.4260(5) 0.5398(6) 0.2776(2)
C28 C 0.2525(4) 0.1787(4) -0.1844(2)
C29 C 0.2035(5) 0.1864(5) -0.2480(2)
C30 C 0.0853(5) 0.0831(6) -0.2644(2)
C31 C 0.0269(7) 0.0864(8) -0.3260(3)
C32 C -0.0890(7) -0.0066(8) -0.3436(4)
C33 C -0.1366(10) -0.0009(10) -0.4096(4)
C34 C -0.229(1) -0.0838(9) -0.4308(5)
C35 C -0.272(1) -0.074(1) -0.4977(6)
C36 C -0.357(2) -0.162(1) -0.5155(6)
C37 C -0.3995(10) -0.1564(9) -0.5808(5)
H1 H 0.6731 0.3296 0.2636
H2 H 0.5357 0.2620 0.0877
H3 H 0.7257 0.4422 0.0448
H4 H 1.0067 0.4808 0.1892
H5 H 0.6681 0.4366 0.5003
H6 H 0.6033 0.4889 0.4436
H7 H 0.5829 0.3422 0.4538
H8 H 0.7859 0.2128 0.4451
H9 H 0.9214 0.2794 0.4248
H10 H 0.8692 0.3146 0.4889
H11 H 0.8917 0.5469 0.4612
H12 H 0.9320 0.5034 0.3960
H13 H 0.8068 0.5821 0.4060
H14 H 0.4905 0.0280 0.2986
H15 H 0.3755 -0.1063 0.2221
H16 H 0.3644 -0.0427 0.1233
H17 H 0.3197 0.1364 -0.0769
H18 H 0.5473 0.4443 -0.1337
H19 H 0.9139 0.7057 -0.0225
H20 H 1.1032 0.8163 0.0285
H21 H 1.1756 0.7557 0.1221
H22 H 1.1809 0.3878 0.3493
H23 H 1.2832 0.3285 0.3056
H24 H 1.3340 0.3999 0.3669
H25 H 1.3325 0.6488 0.3781
H26 H 1.2659 0.7140 0.3255
H27 H 1.1779 0.6241 0.3647
H28 H 1.4396 0.4649 0.2518
H29 H 1.4316 0.6141 0.2547
H30 H 1.4934 0.5507 0.3090
H31 H 0.2855 0.0962 -0.1799
H32 H 0.1803 0.1903 -0.1576
H33 H 0.1737 0.2700 -0.2524
H34 H 0.2760 0.1726 -0.2746
H35 H 0.1178 -0.0003 -0.2611
H36 H 0.0160 0.0953 -0.2366
H37 H -0.0003 0.1710 -0.3298
H38 H 0.0973 0.0709 -0.3539
H39 H -0.0633 -0.0914 -0.3383
H40 H -0.1611 0.0120 -0.3183
H41 H -0.1674 0.0820 -0.4132
H42 H -0.0592 -0.0104 -0.4340
H43 H -0.1987 -0.1683 -0.4274
H44 H -0.3068 -0.0751 -0.4075
H45 H -0.3083 0.0049 -0.5023
H46 H -0.1945 -0.0817 -0.5224
H47 H -0.3208 -0.2444 -0.5110
H48 H -0.4345 -0.1575 -0.4913
H49 H -0.4322 -0.0749 -0.5864
H50 H -0.3242 -0.1686 -0.6059
H51 H -0.4694 -0.2237 -0.5919
O8 O 0.7559(6) 0.4754(6) 0.2197(3)
N8 N 0.9752(5) 0.2680(4) 0.1682(2)
C38 C 0.8605(4) 0.2331(4) 0.1408(2)
C39 C 0.8377(4) 0.1308(4) 0.1002(2)
C40 C 0.9386(5) 0.0578(4) 0.0868(2)
C41 C 1.0619(5) 0.0869(5) 0.1140(3)
C42 C 1.0800(5) 0.1902(5) 0.1553(3)
H52 H 0.7868 0.2837 0.1499
H53 H 0.7508 0.1108 0.0814
H54 H 0.9241 -0.0148 0.0580
H55 H 1.1346 0.0355 0.1045
H56 H 1.1653 0.2097 0.1757
loop_
_geom_bond_atom_site_label_1
_geom_bond_atom_site_label_2
_geom_bond_site_symmetry_1
_geom_bond_site_symmetry_2
O1 C1 1_555 1_555
O2 C5 1_555 1_555
O3 C11 1_555 1_555
O4 C14 1_555 1_555
O5 C17 1_555 1_555
O6 C23 1_555 1_555
O7 C23 1_555 1_555
N1 C5 1_555 1_555
N2 C6 1_555 1_555
N3 C10 1_555 1_555
N4 C12 1_555 1_555
N5 C17 1_555 1_555
N6 C18 1_555 1_555
N7 C22 1_555 1_555
C1 C2 1_555 1_555
C2 H5 1_555 1_555
C3 C1 1_555 1_555
C4 C1 1_555 1_555
C5 O1 1_555 1_555
C6 N1 1_555 1_555
C7 C6 1_555 1_555
C8 C7 1_555 1_555
C9 C8 1_555 1_555
C10 N2 1_555 1_555
C11 N3 1_555 1_555
C12 C11 1_555 1_555
C13 C12 1_555 1_555
C14 C13 1_555 1_555
C15 C14 1_555 1_555
C16 N4 1_555 1_555
C17 C16 1_555 1_555
C18 N5 1_555 1_555
C19 C18 1_555 1_555
C20 C19 1_555 1_555
C21 C20 1_555 1_555
C22 N6 1_555 1_555
C23 N7 1_555 1_555
C24 O6 1_555 1_555
C25 C24 1_555 1_555
C26 C24 1_555 1_555
C27 C24 1_555 1_555
C28 O4 1_555 1_555
C29 C28 1_555 1_555
C30 C29 1_555 1_555
C31 C30 1_555 1_555
C32 C31 1_555 1_555
C33 C32 1_555 1_555
C34 C33 1_555 1_555
C35 C34 1_555 1_555
C36 C35 1_555 1_555
C37 C36 1_555 1_555
H1 N1 1_555 1_555
H2 N3 1_555 1_555
H3 N5 1_555 1_555
H4 N7 1_555 1_555
H6 C2 1_555 1_555
H7 C2 1_555 1_555
H8 C3 1_555 1_555
H9 C3 1_555 1_555
H10 C3 1_555 1_555
H11 C4 1_555 1_555
H12 C4 1_555 1_555
H13 C4 1_555 1_555
H14 C7 1_555 1_555
H15 C8 1_555 1_555
H16 C9 1_555 1_555
H17 C13 1_555 1_555
H18 C15 1_555 1_555
H19 C19 1_555 1_555
H20 C20 1_555 1_555
H21 C21 1_555 1_555
H22 C25 1_555 1_555
H23 C25 1_555 1_555
H24 C25 1_555 1_555
H25 C26 1_555 1_555
H26 C26 1_555 1_555
H27 C26 1_555 1_555
H28 C27 1_555 1_555
H29 C27 1_555 1_555
H30 C27 1_555 1_555
H31 C28 1_555 1_555
H32 C28 1_555 1_555
H33 C29 1_555 1_555
H34 C29 1_555 1_555
H35 C30 1_555 1_555
H36 C30 1_555 1_555
H37 C31 1_555 1_555
H38 C31 1_555 1_555
H39 C32 1_555 1_555
H40 C32 1_555 1_555
H41 C33 1_555 1_555
H42 C33 1_555 1_555
H43 C34 1_555 1_555
H44 C34 1_555 1_555
H45 C35 1_555 1_555
H46 C35 1_555 1_555
H47 C36 1_555 1_555
H48 C36 1_555 1_555
H49 C37 1_555 1_555
H50 C37 1_555 1_555
H51 C37 1_555 1_555
N8 C38 1_555 1_555
C38 C39 1_555 1_555
C39 C40 1_555 1_555
C40 C41 1_555 1_555
C41 C42 1_555 1_555
C42 N8 1_555 1_555
H52 C38 1_555 1_555
H53 C39 1_555 1_555
H54 C40 1_555 1_555
H55 C41 1_555 1_555
H56 C42 1_555 1_555
C9 C10 1_555 1_555
C15 C16 1_555 1_555
C21 C22 1_555 1_555

#END
