
#######################################################################
#
#                 Cambridge Crystallographic Data Centre
#                                CCDC 
#
#######################################################################
#
# If this CIF has been generated from an entry in the Cambridge 
# Structural Database, then it will include bibliographic, chemical, 
# crystal, experimental, refinement or atomic coordinate data resulting 
# from the CCDC's data processing and validation procedures.
#
#######################################################################

data_HEYHUO02
_chemical_formula_moiety         'C18 H14 O1'
_chemical_name_systematic        4,4-Diphenyl-2,5-cyclohexadienone
_symmetry_cell_setting           triclinic
_symmetry_space_group_name_H-M   'P -1'
_symmetry_Int_Tables_number      2
_space_group_name_Hall           '-P 1'
loop_
_symmetry_equiv_pos_site_id
_symmetry_equiv_pos_as_xyz
1 x,y,z
2 -x,-y,-z
_cell_length_a                   18.3788(4)
_cell_length_b                   19.9701(4)
_cell_length_c                   24.4423(5)
_cell_angle_alpha                95.0080(10)
_cell_angle_beta                 111.6880(10)
_cell_angle_gamma                105.2180(10)
_cell_volume                     7871.86
_exptl_crystal_colour            colorless
_cell_formula_units_Z            24
_exptl_crystal_recrystallization_method 'ethyl acetate/hexane'
loop_
_atom_site_label
_atom_site_type_symbol
_atom_site_fract_x
_atom_site_fract_y
_atom_site_fract_z
O1 O 0.1666 0.3317 0.3379
C1 C 0.1724 0.3264 0.2890
C2 C 0.1350 0.3603 0.2421
H1 H 0.1064 0.3913 0.2488
C3 C 0.1396 0.3492 0.1892
H2 H 0.1098 0.3701 0.1587
C4 C 0.1879 0.3064 0.1737
C5 C 0.2291 0.2750 0.2265
H3 H 0.2622 0.2473 0.2221
C6 C 0.2219 0.2835 0.2782
H4 H 0.2490 0.2616 0.3090
C7 C 0.2520 0.3571 0.1575
C8 C 0.3341 0.3866 0.1999
H5 H 0.3517 0.3729 0.2377
C9 C 0.3902 0.4375 0.1851
H6 H 0.4470 0.4555 0.2116
C10 C 0.3627 0.4602 0.1333
H7 H 0.3998 0.4970 0.1253
C11 C 0.2820 0.4316 0.0916
H8 H 0.2651 0.4470 0.0545
C12 C 0.2262 0.3813 0.1031
H9 H 0.1703 0.3626 0.0747
C13 C 0.1334 0.2423 0.1214
C14 C 0.1598 0.2108 0.0849
H10 H 0.2144 0.2317 0.0881
C15 C 0.1104 0.1493 0.0433
H11 H 0.1314 0.1280 0.0187
C16 C 0.0273 0.1170 0.0364
H12 H -0.0076 0.0747 0.0075
C17 C -0.0005 0.1502 0.0740
H13 H -0.0556 0.1307 0.0702
C18 C 0.0520 0.2114 0.1169
H14 H 0.0333 0.2326 0.1433
O2 O 0.1649 -0.0008 1.0039
C19 C 0.1747 -0.0071 0.9574
C20 C 0.1356 0.0268 0.9083
H15 H 0.1049 0.0563 0.9138
C21 C 0.1429 0.0163 0.8566
H16 H 0.1150 0.0384 0.8263
C22 C 0.1895 -0.0257 0.8412
C23 C 0.2297 -0.0590 0.8922
H17 H 0.2619 -0.0873 0.8873
C24 C 0.2214 -0.0499 0.9441
H18 H 0.2478 -0.0729 0.9744
C25 C 0.1295 -0.0911 0.7892
C26 C 0.0499 -0.1216 0.7843
H19 H 0.0303 -0.1009 0.8102
C27 C -0.0016 -0.1836 0.7405
H20 H -0.0568 -0.2040 0.7362
C28 C 0.0269 -0.2154 0.7035
H21 H -0.0084 -0.2572 0.6741
C29 C 0.1050 -0.1865 0.7097
H22 H 0.1249 -0.2092 0.6851
C30 C 0.1582 -0.1231 0.7519
H23 H 0.2127 -0.1025 0.7548
C31 C 0.2534 0.0259 0.8251
C32 C 0.2265 0.0487 0.7707
H24 H 0.1705 0.0297 0.7426
C33 C 0.2830 0.0994 0.7585
H25 H 0.2648 0.1158 0.7220
C34 C 0.3658 0.1270 0.7986
H26 H 0.4044 0.1600 0.7888
C35 C 0.3909 0.1054 0.8531
H27 H 0.4466 0.1249 0.8816
C36 C 0.3340 0.0547 0.8660
H28 H 0.3514 0.0400 0.9033
O3 O 0.8337 0.3336 0.3287
C37 C 0.8256 0.3404 0.3771
C38 C 0.8663 0.3061 0.4253
H29 H 0.8959 0.2762 0.4181
C39 C 0.8624 0.3163 0.4793
H30 H 0.8913 0.2949 0.5098
C40 C 0.8136 0.3609 0.4933
C41 C 0.7706 0.3917 0.4409
H31 H 0.7363 0.4182 0.4452
C42 C 0.7789 0.3830 0.3881
H32 H 0.7530 0.4059 0.3576
C43 C 0.7485 0.3085 0.5079
C44 C 0.6657 0.2779 0.4683
H33 H 0.6467 0.2922 0.4309
C45 C 0.6115 0.2287 0.4811
H34 H 0.5560 0.2090 0.4523
C46 C 0.6354 0.2060 0.5360
H35 H 0.5966 0.1730 0.5457
C47 C 0.7172 0.2335 0.5751
H36 H 0.7366 0.2175 0.6117
C48 C 0.7718 0.2846 0.5613
H37 H 0.8275 0.3040 0.5898
C49 C 0.8724 0.4254 0.5440
C50 C 0.8413 0.4578 0.5809
H38 H 0.7856 0.4377 0.5755
C51 C 0.8914 0.5183 0.6244
H39 H 0.8715 0.5389 0.6501
C52 C 0.9699 0.5479 0.6297
H40 H 1.0039 0.5903 0.6588
C53 C 1.0026 0.5184 0.5940
H41 H 1.0580 0.5394 0.5990
C54 C 0.9507 0.4570 0.5508
H42 H 0.9710 0.4367 0.5253
O4 O 0.4928 0.1115 0.6081
C55 C 0.4475 0.0620 0.6179
C56 C 0.3843 0.0731 0.6386
H43 H 0.3831 0.1198 0.6481
C57 C 0.3299 0.0188 0.6438
H44 H 0.2904 0.0295 0.6564
C58 C 0.3237 -0.0582 0.6320
C59 C 0.3919 -0.0641 0.6141
H45 H 0.3954 -0.1105 0.6068
C60 C 0.4473 -0.0127 0.6075
H46 H 0.4877 -0.0232 0.5959
C61 C 0.3371 -0.0884 0.6906
C62 C 0.3788 -0.0452 0.7467
H47 H 0.3974 0.0047 0.7500
C63 C 0.3946 -0.0724 0.7987
H48 H 0.4234 -0.0419 0.8373
C64 C 0.3673 -0.1448 0.7928
H49 H 0.3779 -0.1645 0.8278
C65 C 0.3241 -0.1899 0.7358
H50 H 0.3045 -0.2398 0.7318
C66 C 0.3108 -0.1599 0.6854
H51 H 0.2829 -0.1898 0.6465
C67 C 0.2382 -0.0952 0.5816
C68 C 0.1677 -0.1057 0.5936
H52 H 0.1732 -0.0910 0.6334
C69 C 0.0907 -0.1373 0.5482
H53 H 0.0438 -0.1439 0.5575
C70 C 0.0785 -0.1603 0.4888
H54 H 0.0248 -0.1821 0.4578
C71 C 0.1484 -0.1499 0.4773
H55 H 0.1431 -0.1643 0.4376
C72 C 0.2258 -0.1186 0.5232
H56 H 0.2727 -0.1129 0.5140
O5 O 0.4928 0.4442 0.9417
C73 C 0.4439 0.3958 0.9518
C74 C 0.3854 0.4079 0.9728
H57 H 0.3858 0.4550 0.9834
C75 C 0.3287 0.3522 0.9776
H58 H 0.2888 0.3621 0.9902
C76 C 0.3247 0.2756 0.9644
C77 C 0.3917 0.2683 0.9471
H59 H 0.3955 0.2222 0.9391
C78 C 0.4474 0.3233 0.9420
H60 H 0.4900 0.3152 0.9319
C79 C 0.3387 0.2470 1.0238
C80 C 0.3781 0.2895 1.0793
H61 H 0.3956 0.3396 1.0835
C81 C 0.3929 0.2591 1.1305
H62 H 0.4207 0.2894 1.1692
C82 C 0.3683 0.1870 1.1263
H63 H 0.3789 0.1676 1.1615
C83 C 0.3280 0.1432 1.0700
H64 H 0.3119 0.0932 1.0668
C84 C 0.3102 0.1703 1.0177
H65 H 0.2804 0.1397 0.9792
C85 C 0.2376 0.2370 0.9152
C86 C 0.1672 0.2278 0.9270
H66 H 0.1724 0.2434 0.9665
C87 C 0.0895 0.1959 0.8806
H67 H 0.0419 0.1892 0.8890
C88 C 0.0800 0.1740 0.8235
H68 H 0.0264 0.1521 0.7924
C89 C 0.1487 0.1838 0.8111
H69 H 0.1418 0.1692 0.7710
C90 C 0.2287 0.2148 0.8564
H70 H 0.2757 0.2206 0.8473
O6 O 0.5069 0.2231 0.7248
C91 C 0.5556 0.2718 0.7151
C92 C 0.5526 0.3440 0.7245
H71 H 0.5103 0.3528 0.7345
C93 C 0.6097 0.3983 0.7191
H72 H 0.6075 0.4449 0.7274
C94 C 0.6761 0.3890 0.7009
C95 C 0.6738 0.3122 0.6876
H73 H 0.7121 0.3009 0.6738
C96 C 0.6176 0.2612 0.6954
H74 H 0.6183 0.2140 0.6874
C97 C 0.7635 0.4298 0.7521
C98 C 0.7722 0.4507 0.8113
H75 H 0.7255 0.4422 0.8210
C99 C 0.8522 0.4843 0.8555
H76 H 0.8593 0.5014 0.8952
C100 C 0.9202 0.4933 0.8432
H77 H 0.9737 0.5144 0.8747
C101 C 0.9118 0.4718 0.7851
H78 H 0.9588 0.4789 0.7758
C102 C 0.8315 0.4391 0.7402
H79 H 0.8248 0.4230 0.7004
C103 C 0.6665 0.4230 0.6457
C104 C 0.6899 0.4939 0.6486
H80 H 0.7174 0.5249 0.6869
C105 C 0.6751 0.5230 0.5975
H81 H 0.6955 0.5728 0.6014
C106 C 0.6308 0.4795 0.5413
H82 H 0.6186 0.4994 0.5063
C107 C 0.6044 0.4074 0.5360
H83 H 0.5745 0.3774 0.4972
C108 C 0.6209 0.3776 0.5869
H84 H 0.6021 0.3276 0.5828
O7 O 0.5359 0.5980 0.6256
C109 C 0.4821 0.5492 0.6283
C110 C 0.4727 0.4742 0.6091
H85 H 0.5114 0.4634 0.5956
C111 C 0.4118 0.4209 0.6100
H86 H 0.4082 0.3739 0.5955
C112 C 0.3489 0.4302 0.6322
C113 C 0.3647 0.5079 0.6541
H87 H 0.3293 0.5194 0.6708
C114 C 0.4233 0.5614 0.6519
H88 H 0.4272 0.6086 0.6660
C115 C 0.3559 0.3885 0.6848
C116 C 0.3903 0.4252 0.7442
H89 H 0.4069 0.4755 0.7536
C117 C 0.3998 0.3857 0.7900
H90 H 0.4225 0.4097 0.8308
C118 C 0.3770 0.3148 0.7767
H91 H 0.3849 0.2889 0.8080
C119 C 0.3408 0.2781 0.7152
H92 H 0.3232 0.2277 0.7056
C120 C 0.3317 0.3162 0.6699
H93 H 0.3089 0.2925 0.6290
C121 C 0.2596 0.4011 0.5832
C122 C 0.1943 0.3903 0.5990
H94 H 0.2033 0.3990 0.6402
C123 C 0.1146 0.3667 0.5544
H95 H 0.0689 0.3605 0.5650
C124 C 0.1014 0.3519 0.4941
H96 H 0.0466 0.3342 0.4639
C125 C 0.1673 0.3627 0.4781
H97 H 0.1582 0.3536 0.4369
C126 C 0.2478 0.3870 0.5230
H98 H 0.2938 0.3939 0.5126
O8 O 0.0007 0.0414 0.6963
C127 C -0.0483 -0.0038 0.6525
C128 C -0.1230 0.0070 0.6095
H99 H -0.1337 0.0502 0.6170
C129 C -0.1759 -0.0415 0.5609
H100 H -0.2235 -0.0312 0.5358
C130 C -0.1670 -0.1118 0.5417
C131 C -0.0918 -0.1216 0.5898
H101 H -0.0828 -0.1660 0.5843
C132 C -0.0383 -0.0740 0.6382
H102 H 0.0080 -0.0846 0.6649
C133 C -0.2463 -0.1708 0.5308
C134 C -0.2525 -0.2177 0.5689
H103 H -0.2054 -0.2136 0.6043
C135 C -0.3249 -0.2692 0.5562
H104 H -0.3272 -0.3023 0.5816
C136 C -0.3965 -0.2739 0.5056
H105 H -0.4471 -0.3103 0.4961
C137 C -0.3917 -0.2250 0.4705
H106 H -0.4407 -0.2255 0.4381
C138 C -0.3168 -0.1740 0.4806
H107 H -0.3140 -0.1423 0.4541
C139 C -0.1483 -0.1154 0.4829
C140 C -0.1565 -0.1789 0.4535
H108 H -0.1747 -0.2206 0.4672
C141 C -0.1386 -0.1836 0.4038
H109 H -0.1459 -0.2285 0.3822
C142 C -0.1097 -0.1222 0.3856
H110 H -0.0953 -0.1251 0.3522
C143 C -0.1017 -0.0576 0.4147
H111 H -0.0831 -0.0157 0.4013
C144 C -0.1216 -0.0545 0.4651
H112 H -0.1163 -0.0102 0.4865
O9 O -0.0018 0.2925 0.6369
C145 C 0.0508 0.3377 0.6822
C146 C 0.0401 0.4072 0.6954
H113 H -0.0064 0.4172 0.6684
C147 C 0.0935 0.4556 0.7437
H114 H 0.0853 0.5004 0.7485
C148 C 0.1650 0.4449 0.7908
C149 C 0.1772 0.3755 0.7738
H115 H 0.2246 0.3656 0.7997
C150 C 0.1239 0.3271 0.7236
H116 H 0.1351 0.2844 0.7153
C151 C 0.1490 0.4469 0.8476
C152 C 0.1207 0.3858 0.8674
H117 H 0.1137 0.3406 0.8466
C153 C 0.1026 0.3912 0.9181
H118 H 0.0840 0.3493 0.9315
C154 C 0.1111 0.4570 0.9498
H119 H 0.1005 0.4604 0.9850
C155 C 0.1354 0.5163 0.9282
H120 H 0.1385 0.5611 0.9474
C156 C 0.1551 0.5122 0.8795
H121 H 0.1736 0.5546 0.8667
C157 C 0.2466 0.5035 0.8030
C158 C 0.3190 0.5090 0.8519
H122 H 0.3170 0.4764 0.8778
C159 C 0.3933 0.5594 0.8644
H123 H 0.4415 0.5612 0.8981
C160 C 0.3970 0.6081 0.8269
H124 H 0.4479 0.6434 0.8350
C161 C 0.3259 0.6047 0.7776
H125 H 0.3281 0.6377 0.7521
C162 C 0.2507 0.5520 0.7657
H126 H 0.2023 0.5495 0.7319
O10 O 0.5354 0.2645 0.2915
C163 C 0.4804 0.2165 0.2960
C164 C 0.4724 0.1413 0.2744
H127 H 0.5099 0.1310 0.2592
C165 C 0.4134 0.0902 0.2766
H128 H 0.4104 0.0433 0.2626
C166 C 0.3491 0.0978 0.2991
C167 C 0.3621 0.1745 0.3217
H129 H 0.3267 0.1855 0.3386
C168 C 0.4226 0.2286 0.3187
H130 H 0.4266 0.2760 0.3321
C169 C 0.2609 0.0683 0.2490
C170 C 0.2454 0.0536 0.1883
H131 H 0.2908 0.0613 0.1771
C171 C 0.1673 0.0287 0.1444
H132 H 0.1591 0.0176 0.1036
C172 C 0.0996 0.0193 0.1588
H133 H 0.0455 0.0042 0.1277
C173 C 0.1109 0.0322 0.2195
H134 H 0.0655 0.0243 0.2306
C174 C 0.1922 0.0571 0.2623
H135 H 0.2012 0.0671 0.3034
C175 C 0.3554 0.0585 0.3497
C176 C 0.3319 -0.0172 0.3371
H136 H 0.3099 -0.0417 0.2965
C177 C 0.3400 -0.0560 0.3818
H137 H 0.3225 -0.1063 0.3718
C178 C 0.3736 -0.0212 0.4413
H138 H 0.3799 -0.0476 0.4724
C179 C 0.3980 0.0519 0.4555
H139 H 0.4216 0.0757 0.4964
C180 C 0.3886 0.0905 0.4110
H140 H 0.4051 0.1407 0.4220
O11 O 0.4638 0.0685 1.0399
C181 C 0.5185 0.1176 1.0380
C182 C 0.5282 0.1916 1.0587
H141 H 0.4910 0.2024 1.0739
C183 C 0.5906 0.2457 1.0565
H142 H 0.5950 0.2930 1.0709
C184 C 0.6510 0.2353 1.0333
C185 C 0.6375 0.1572 1.0115
H143 H 0.6737 0.1455 0.9956
C186 C 0.5777 0.1051 1.0139
H144 H 0.5725 0.0576 0.9994
C187 C 0.6425 0.2762 0.9821
C188 C 0.6109 0.2430 0.9231
H145 H 0.5951 0.1928 0.9128
C189 C 0.6017 0.2823 0.8779
H146 H 0.5790 0.2588 0.8369
C190 C 0.6260 0.3563 0.8929
H147 H 0.6202 0.3833 0.8623
C191 C 0.6575 0.3891 0.9507
H148 H 0.6734 0.4393 0.9610
C192 C 0.6671 0.3502 0.9956
H149 H 0.6909 0.3744 1.0365
C193 C 0.7388 0.2655 1.0833
C194 C 0.8079 0.2763 1.0689
H150 H 0.7997 0.2658 1.0280
C195 C 0.8877 0.3018 1.1133
H151 H 0.9333 0.3105 1.1023
C196 C 0.9014 0.3146 1.1732
H152 H 0.9561 0.3301 1.2035
C197 C 0.8358 0.3050 1.1884
H153 H 0.8452 0.3148 1.2296
C198 C 0.7549 0.2811 1.1442
H154 H 0.7101 0.2753 1.1559
O12 O 0.0016 0.3747 0.0295
C199 C -0.0493 0.3279 -0.0149
C200 C -0.1241 0.3392 -0.0564
H155 H -0.1361 0.3811 -0.0471
C201 C -0.1761 0.2918 -0.1074
H156 H -0.2215 0.3034 -0.1343
C202 C -0.1665 0.2212 -0.1243
C203 C -0.0920 0.2101 -0.0763
H157 H -0.0839 0.1653 -0.0809
C204 C -0.0360 0.2611 -0.0268
H158 H 0.0119 0.2525 -0.0002
C205 C -0.2472 0.1626 -0.1361
C206 C -0.2520 0.1141 -0.0988
H159 H -0.2039 0.1157 -0.0651
C207 C -0.3276 0.0631 -0.1110
H160 H -0.3306 0.0305 -0.0852
C208 C -0.3956 0.0597 -0.1585
H161 H -0.4467 0.0254 -0.1655
C209 C -0.3931 0.1056 -0.1979
H162 H -0.4411 0.1013 -0.2328
C210 C -0.3202 0.1567 -0.1854
H163 H -0.3189 0.1898 -0.2110
C211 C -0.1494 0.2192 -0.1804
C212 C -0.1554 0.1524 -0.2125
H164 H -0.1721 0.1099 -0.1993
C213 C -0.1368 0.1500 -0.2632
H165 H -0.1432 0.1056 -0.2850
C214 C -0.1089 0.2120 -0.2820
H166 H -0.0944 0.2105 -0.3154
C215 C -0.1030 0.2752 -0.2508
H167 H -0.0847 0.3176 -0.2636
C216 C -0.1225 0.2793 -0.2022
H168 H -0.1177 0.3244 -0.1824
loop_
_geom_bond_atom_site_label_1
_geom_bond_atom_site_label_2
_geom_bond_site_symmetry_1
_geom_bond_site_symmetry_2
O1 C1 1_555 1_555
C1 C2 1_555 1_555
C2 H1 1_555 1_555
C3 C2 1_555 1_555
H2 C3 1_555 1_555
C4 C3 1_555 1_555
C5 C4 1_555 1_555
H3 C5 1_555 1_555
C6 C1 1_555 1_555
H4 C6 1_555 1_555
C7 C4 1_555 1_555
C8 C7 1_555 1_555
H5 C8 1_555 1_555
C9 C8 1_555 1_555
H6 C9 1_555 1_555
C10 C9 1_555 1_555
H7 C10 1_555 1_555
C11 C10 1_555 1_555
H8 C11 1_555 1_555
C12 C7 1_555 1_555
H9 C12 1_555 1_555
C13 C4 1_555 1_555
C14 C13 1_555 1_555
H10 C14 1_555 1_555
C15 C14 1_555 1_555
H11 C15 1_555 1_555
C16 C15 1_555 1_555
H12 C16 1_555 1_555
C17 C16 1_555 1_555
H13 C17 1_555 1_555
C18 C13 1_555 1_555
H14 C18 1_555 1_555
O2 C19 1_555 1_555
C19 C20 1_555 1_555
C20 H15 1_555 1_555
C21 C20 1_555 1_555
H16 C21 1_555 1_555
C22 C21 1_555 1_555
C23 C22 1_555 1_555
H17 C23 1_555 1_555
C24 C19 1_555 1_555
H18 C24 1_555 1_555
C25 C22 1_555 1_555
C26 C25 1_555 1_555
H19 C26 1_555 1_555
C27 C26 1_555 1_555
H20 C27 1_555 1_555
C28 C27 1_555 1_555
H21 C28 1_555 1_555
C29 C28 1_555 1_555
H22 C29 1_555 1_555
C30 C25 1_555 1_555
H23 C30 1_555 1_555
C31 C22 1_555 1_555
C32 C31 1_555 1_555
H24 C32 1_555 1_555
C33 C32 1_555 1_555
H25 C33 1_555 1_555
C34 C33 1_555 1_555
H26 C34 1_555 1_555
C35 C34 1_555 1_555
H27 C35 1_555 1_555
C36 C31 1_555 1_555
H28 C36 1_555 1_555
O3 C37 1_555 1_555
C37 C38 1_555 1_555
C38 H29 1_555 1_555
C39 C38 1_555 1_555
H30 C39 1_555 1_555
C40 C39 1_555 1_555
C41 C40 1_555 1_555
H31 C41 1_555 1_555
C42 C37 1_555 1_555
H32 C42 1_555 1_555
C43 C40 1_555 1_555
C44 C43 1_555 1_555
H33 C44 1_555 1_555
C45 C44 1_555 1_555
H34 C45 1_555 1_555
C46 C45 1_555 1_555
H35 C46 1_555 1_555
C47 C46 1_555 1_555
H36 C47 1_555 1_555
C48 C43 1_555 1_555
H37 C48 1_555 1_555
C49 C40 1_555 1_555
C50 C49 1_555 1_555
H38 C50 1_555 1_555
C51 C50 1_555 1_555
H39 C51 1_555 1_555
C52 C51 1_555 1_555
H40 C52 1_555 1_555
C53 C52 1_555 1_555
H41 C53 1_555 1_555
C54 C49 1_555 1_555
H42 C54 1_555 1_555
O4 C55 1_555 1_555
C55 C56 1_555 1_555
C56 H43 1_555 1_555
C57 C56 1_555 1_555
H44 C57 1_555 1_555
C58 C57 1_555 1_555
C59 C58 1_555 1_555
H45 C59 1_555 1_555
C60 C55 1_555 1_555
H46 C60 1_555 1_555
C61 C58 1_555 1_555
C62 C61 1_555 1_555
H47 C62 1_555 1_555
C63 C62 1_555 1_555
H48 C63 1_555 1_555
C64 C63 1_555 1_555
H49 C64 1_555 1_555
C65 C64 1_555 1_555
H50 C65 1_555 1_555
C66 C61 1_555 1_555
H51 C66 1_555 1_555
C67 C58 1_555 1_555
C68 C67 1_555 1_555
H52 C68 1_555 1_555
C69 C68 1_555 1_555
H53 C69 1_555 1_555
C70 C69 1_555 1_555
H54 C70 1_555 1_555
C71 C70 1_555 1_555
H55 C71 1_555 1_555
C72 C67 1_555 1_555
H56 C72 1_555 1_555
O5 C73 1_555 1_555
C73 C74 1_555 1_555
C74 H57 1_555 1_555
C75 C74 1_555 1_555
H58 C75 1_555 1_555
C76 C75 1_555 1_555
C77 C76 1_555 1_555
H59 C77 1_555 1_555
C78 C73 1_555 1_555
H60 C78 1_555 1_555
C79 C76 1_555 1_555
C80 C79 1_555 1_555
H61 C80 1_555 1_555
C81 C80 1_555 1_555
H62 C81 1_555 1_555
C82 C81 1_555 1_555
H63 C82 1_555 1_555
C83 C82 1_555 1_555
H64 C83 1_555 1_555
C84 C79 1_555 1_555
H65 C84 1_555 1_555
C85 C76 1_555 1_555
C86 C85 1_555 1_555
H66 C86 1_555 1_555
C87 C86 1_555 1_555
H67 C87 1_555 1_555
C88 C87 1_555 1_555
H68 C88 1_555 1_555
C89 C88 1_555 1_555
H69 C89 1_555 1_555
C90 C85 1_555 1_555
H70 C90 1_555 1_555
O6 C91 1_555 1_555
C91 C92 1_555 1_555
C92 H71 1_555 1_555
C93 C92 1_555 1_555
H72 C93 1_555 1_555
C94 C93 1_555 1_555
C95 C94 1_555 1_555
H73 C95 1_555 1_555
C96 C91 1_555 1_555
H74 C96 1_555 1_555
C97 C94 1_555 1_555
C98 C97 1_555 1_555
H75 C98 1_555 1_555
C99 C98 1_555 1_555
H76 C99 1_555 1_555
C100 C99 1_555 1_555
H77 C100 1_555 1_555
C101 C100 1_555 1_555
H78 C101 1_555 1_555
C102 C97 1_555 1_555
H79 C102 1_555 1_555
C103 C94 1_555 1_555
C104 C103 1_555 1_555
H80 C104 1_555 1_555
C105 C104 1_555 1_555
H81 C105 1_555 1_555
C106 C105 1_555 1_555
H82 C106 1_555 1_555
C107 C106 1_555 1_555
H83 C107 1_555 1_555
C108 C103 1_555 1_555
H84 C108 1_555 1_555
O7 C109 1_555 1_555
C109 C110 1_555 1_555
C110 H85 1_555 1_555
C111 C110 1_555 1_555
H86 C111 1_555 1_555
C112 C111 1_555 1_555
C113 C112 1_555 1_555
H87 C113 1_555 1_555
C114 C109 1_555 1_555
H88 C114 1_555 1_555
C115 C112 1_555 1_555
C116 C115 1_555 1_555
H89 C116 1_555 1_555
C117 C116 1_555 1_555
H90 C117 1_555 1_555
C118 C117 1_555 1_555
H91 C118 1_555 1_555
C119 C118 1_555 1_555
H92 C119 1_555 1_555
C120 C115 1_555 1_555
H93 C120 1_555 1_555
C121 C112 1_555 1_555
C122 C121 1_555 1_555
H94 C122 1_555 1_555
C123 C122 1_555 1_555
H95 C123 1_555 1_555
C124 C123 1_555 1_555
H96 C124 1_555 1_555
C125 C124 1_555 1_555
H97 C125 1_555 1_555
C126 C121 1_555 1_555
H98 C126 1_555 1_555
O8 C127 1_555 1_555
C127 C128 1_555 1_555
C128 H99 1_555 1_555
C129 C128 1_555 1_555
H100 C129 1_555 1_555
C130 C129 1_555 1_555
C131 C130 1_555 1_555
H101 C131 1_555 1_555
C132 C127 1_555 1_555
H102 C132 1_555 1_555
C133 C130 1_555 1_555
C134 C133 1_555 1_555
H103 C134 1_555 1_555
C135 C134 1_555 1_555
H104 C135 1_555 1_555
C136 C135 1_555 1_555
H105 C136 1_555 1_555
C137 C136 1_555 1_555
H106 C137 1_555 1_555
C138 C133 1_555 1_555
H107 C138 1_555 1_555
C139 C130 1_555 1_555
C140 C139 1_555 1_555
H108 C140 1_555 1_555
C141 C140 1_555 1_555
H109 C141 1_555 1_555
C142 C141 1_555 1_555
H110 C142 1_555 1_555
C143 C142 1_555 1_555
H111 C143 1_555 1_555
C144 C139 1_555 1_555
H112 C144 1_555 1_555
O9 C145 1_555 1_555
C145 C146 1_555 1_555
C146 H113 1_555 1_555
C147 C146 1_555 1_555
H114 C147 1_555 1_555
C148 C147 1_555 1_555
C149 C148 1_555 1_555
H115 C149 1_555 1_555
C150 C145 1_555 1_555
H116 C150 1_555 1_555
C151 C148 1_555 1_555
C152 C151 1_555 1_555
H117 C152 1_555 1_555
C153 C152 1_555 1_555
H118 C153 1_555 1_555
C154 C153 1_555 1_555
H119 C154 1_555 1_555
C155 C154 1_555 1_555
H120 C155 1_555 1_555
C156 C151 1_555 1_555
H121 C156 1_555 1_555
C157 C148 1_555 1_555
C158 C157 1_555 1_555
H122 C158 1_555 1_555
C159 C158 1_555 1_555
H123 C159 1_555 1_555
C160 C159 1_555 1_555
H124 C160 1_555 1_555
C161 C160 1_555 1_555
H125 C161 1_555 1_555
C162 C157 1_555 1_555
H126 C162 1_555 1_555
O10 C163 1_555 1_555
C163 C164 1_555 1_555
C164 H127 1_555 1_555
C165 C164 1_555 1_555
H128 C165 1_555 1_555
C166 C165 1_555 1_555
C167 C166 1_555 1_555
H129 C167 1_555 1_555
C168 C163 1_555 1_555
H130 C168 1_555 1_555
C169 C166 1_555 1_555
C170 C169 1_555 1_555
H131 C170 1_555 1_555
C171 C170 1_555 1_555
H132 C171 1_555 1_555
C172 C171 1_555 1_555
H133 C172 1_555 1_555
C173 C172 1_555 1_555
H134 C173 1_555 1_555
C174 C169 1_555 1_555
H135 C174 1_555 1_555
C175 C166 1_555 1_555
C176 C175 1_555 1_555
H136 C176 1_555 1_555
C177 C176 1_555 1_555
H137 C177 1_555 1_555
C178 C177 1_555 1_555
H138 C178 1_555 1_555
C179 C178 1_555 1_555
H139 C179 1_555 1_555
C180 C175 1_555 1_555
H140 C180 1_555 1_555
O11 C181 1_555 1_555
C181 C182 1_555 1_555
C182 H141 1_555 1_555
C183 C182 1_555 1_555
H142 C183 1_555 1_555
C184 C183 1_555 1_555
C185 C184 1_555 1_555
H143 C185 1_555 1_555
C186 C181 1_555 1_555
H144 C186 1_555 1_555
C187 C184 1_555 1_555
C188 C187 1_555 1_555
H145 C188 1_555 1_555
C189 C188 1_555 1_555
H146 C189 1_555 1_555
C190 C189 1_555 1_555
H147 C190 1_555 1_555
C191 C190 1_555 1_555
H148 C191 1_555 1_555
C192 C187 1_555 1_555
H149 C192 1_555 1_555
C193 C184 1_555 1_555
C194 C193 1_555 1_555
H150 C194 1_555 1_555
C195 C194 1_555 1_555
H151 C195 1_555 1_555
C196 C195 1_555 1_555
H152 C196 1_555 1_555
C197 C196 1_555 1_555
H153 C197 1_555 1_555
C198 C193 1_555 1_555
H154 C198 1_555 1_555
O12 C199 1_555 1_555
C199 C200 1_555 1_555
C200 H155 1_555 1_555
C201 C200 1_555 1_555
H156 C201 1_555 1_555
C202 C201 1_555 1_555
C203 C202 1_555 1_555
H157 C203 1_555 1_555
C204 C199 1_555 1_555
H158 C204 1_555 1_555
C205 C202 1_555 1_555
C206 C205 1_555 1_555
H159 C206 1_555 1_555
C207 C206 1_555 1_555
H160 C207 1_555 1_555
C208 C207 1_555 1_555
H161 C208 1_555 1_555
C209 C208 1_555 1_555
H162 C209 1_555 1_555
C210 C205 1_555 1_555
H163 C210 1_555 1_555
C211 C202 1_555 1_555
C212 C211 1_555 1_555
H164 C212 1_555 1_555
C213 C212 1_555 1_555
H165 C213 1_555 1_555
C214 C213 1_555 1_555
H166 C214 1_555 1_555
C215 C214 1_555 1_555
H167 C215 1_555 1_555
C216 C211 1_555 1_555
H168 C216 1_555 1_555
C5 C6 1_555 1_555
C11 C12 1_555 1_555
C17 C18 1_555 1_555
C23 C24 1_555 1_555
C29 C30 1_555 1_555
C35 C36 1_555 1_555
C41 C42 1_555 1_555
C47 C48 1_555 1_555
C53 C54 1_555 1_555
C59 C60 1_555 1_555
C65 C66 1_555 1_555
C71 C72 1_555 1_555
C77 C78 1_555 1_555
C83 C84 1_555 1_555
C89 C90 1_555 1_555
C95 C96 1_555 1_555
C101 C102 1_555 1_555
C107 C108 1_555 1_555
C113 C114 1_555 1_555
C119 C120 1_555 1_555
C125 C126 1_555 1_555
C131 C132 1_555 1_555
C137 C138 1_555 1_555
C143 C144 1_555 1_555
C149 C150 1_555 1_555
C155 C156 1_555 1_555
C161 C162 1_555 1_555
C167 C168 1_555 1_555
C173 C174 1_555 1_555
C179 C180 1_555 1_555
C185 C186 1_555 1_555
C191 C192 1_555 1_555
C197 C198 1_555 1_555
C203 C204 1_555 1_555
C209 C210 1_555 1_555
C215 C216 1_555 1_555

#END
