
#######################################################################
#
#                 Cambridge Crystallographic Data Centre
#                                CCDC 
#
#######################################################################
#
# If this CIF has been generated from an entry in the Cambridge 
# Structural Database, then it will include bibliographic, chemical, 
# crystal, experimental, refinement or atomic coordinate data resulting 
# from the CCDC's data processing and validation procedures.
#
#######################################################################

data_HEYLAB
_chemical_formula_moiety         'C17 H16 Br1 N1 O4 S1'
_chemical_name_systematic        
'1-[bromo(phenyl)methyl]-8b-(hydroxymethyl)-6-methyl-1,8b-dihydro-3H-3\l^6^-azireno[1,2-c][1,2,3]benzoxathiazine-3,3-dione unknown solvate'
_symmetry_cell_setting           trigonal
_symmetry_space_group_name_H-M   'P 31'
_symmetry_Int_Tables_number      144
_space_group_name_Hall           'P 31'
loop_
_symmetry_equiv_pos_site_id
_symmetry_equiv_pos_as_xyz
1 x,y,z
2 -y,x-y,1/3+z
3 -x+y,-x,2/3+z
_cell_length_a                   16.1588(4)
_cell_length_b                   16.1588(4)
_cell_length_c                   6.7139(2)
_cell_angle_alpha                90
_cell_angle_beta                 90
_cell_angle_gamma                120
_cell_volume                     1518.18
_exptl_crystal_colour            colorless
_exptl_crystal_description       prism
_cell_formula_units_Z            3
loop_
_atom_site_label
_atom_site_type_symbol
_atom_site_fract_x
_atom_site_fract_y
_atom_site_fract_z
Br1 Br 0.34545(5) 0.43647(5) 0.15844(14)
S1 S 0.26632(10) 0.17730(10) 0.6861(2)
O1 O 0.2488(3) 0.2619(3) 0.7533(6)
O2 O 0.3584(4) 0.2055(4) 0.7568(8)
O3 O 0.1870(3) 0.0898(3) 0.7447(6)
O4 O 0.0622(3) 0.0441(3) 0.2933(5)
H1 H 0.021111 0.056952 0.336307
N1 N 0.2635(3) 0.1767(3) 0.4460(7)
C1 C 0.1945(4) 0.1986(4) 0.3431(8)
C2 C 0.3001(4) 0.2585(4) 0.3052(9)
H2 H 0.320399 0.245414 0.173800
C3 C 0.3597(4) 0.3604(4) 0.3724(10)
H3 H 0.333215 0.369837 0.499565
C4 C 0.4626(5) 0.3909(5) 0.3999(15)
C5 C 0.5071(7) 0.4299(5) 0.575(2)
H4 H 0.472154 0.437030 0.681276
C6 C 0.6088(9) 0.4613(7) 0.602(3)
H5 H 0.642618 0.489551 0.721779
C7 C 0.6522(8) 0.4454(7) 0.433(3)
H6 H 0.718140 0.465324 0.443691
C8 C 0.6091(8) 0.4053(8) 0.261(3)
H7 H 0.641943 0.394899 0.154946
C9 C 0.5166(6) 0.3805(6) 0.2462(18)
H8 H 0.485124 0.354080 0.123550
C10 C 0.1350(4) 0.1245(4) 0.1934(8)
H9 H 0.106246 0.150355 0.099674
H10 H 0.175223 0.105789 0.116133
C11 C 0.1464(4) 0.2380(4) 0.4697(8)
C12 C 0.1712(4) 0.2652(4) 0.6648(8)
C13 C 0.1284(4) 0.3021(4) 0.7826(9)
H11 H 0.148826 0.320179 0.916191
C14 C 0.0542(5) 0.3129(5) 0.7043(11)
C15 C 0.0283(5) 0.2873(5) 0.5099(11)
H12 H -0.020510 0.296343 0.453285
C16 C 0.0715(4) 0.2483(4) 0.3929(9)
H13 H 0.049991 0.228595 0.260374
C17 C 0.0047(6) 0.3530(6) 0.8287(13)
H14 H -0.002496 0.400287 0.750622
H15 H 0.042971 0.383703 0.947805
H16 H -0.058458 0.301202 0.868627
loop_
_geom_bond_atom_site_label_1
_geom_bond_atom_site_label_2
_geom_bond_site_symmetry_1
_geom_bond_site_symmetry_2
Br1 C3 1_555 1_555
S1 O1 1_555 1_555
O1 C12 1_555 1_555
O2 S1 1_555 1_555
O3 S1 1_555 1_555
O4 H1 1_555 1_555
N1 S1 1_555 1_555
C1 N1 1_555 1_555
C2 N1 1_555 1_555
H2 C2 1_555 1_555
C3 C2 1_555 1_555
H3 C3 1_555 1_555
C4 C3 1_555 1_555
C5 C4 1_555 1_555
H4 C5 1_555 1_555
C6 C5 1_555 1_555
H5 C6 1_555 1_555
C7 C6 1_555 1_555
H6 C7 1_555 1_555
C8 C7 1_555 1_555
H7 C8 1_555 1_555
C9 C4 1_555 1_555
H8 C9 1_555 1_555
C10 O4 1_555 1_555
H9 C10 1_555 1_555
H10 C10 1_555 1_555
C11 C1 1_555 1_555
C12 C11 1_555 1_555
C13 C12 1_555 1_555
H11 C13 1_555 1_555
C14 C13 1_555 1_555
C15 C14 1_555 1_555
H12 C15 1_555 1_555
C16 C11 1_555 1_555
H13 C16 1_555 1_555
C17 C14 1_555 1_555
H14 C17 1_555 1_555
H15 C17 1_555 1_555
H16 C17 1_555 1_555
C1 C2 1_555 1_555
C1 C10 1_555 1_555
C8 C9 1_555 1_555
C15 C16 1_555 1_555

#END
