
#######################################################################
#
#                 Cambridge Crystallographic Data Centre
#                                CCDC 
#
#######################################################################
#
# If this CIF has been generated from an entry in the Cambridge 
# Structural Database, then it will include bibliographic, chemical, 
# crystal, experimental, refinement or atomic coordinate data resulting 
# from the CCDC's data processing and validation procedures.
#
#######################################################################

data_HEYLIJ
_chemical_formula_moiety         'C17 H13 Cl1 N2'
_chemical_name_systematic        
2-(4-chlorophenyl)-5-methyl-4-phenylpyrimidine
_symmetry_cell_setting           orthorhombic
_symmetry_space_group_name_H-M   'P n a 21'
_symmetry_Int_Tables_number      33
_space_group_name_Hall           'P 2c -2n'
loop_
_symmetry_equiv_pos_site_id
_symmetry_equiv_pos_as_xyz
1 x,y,z
2 -x,-y,1/2+z
3 1/2+x,1/2-y,z
4 1/2-x,1/2+y,1/2+z
_cell_length_a                   11.574(2)
_cell_length_b                   6.2498(12)
_cell_length_c                   19.551(4)
_cell_angle_alpha                90
_cell_angle_beta                 90
_cell_angle_gamma                90
_cell_volume                     1414.23
_exptl_crystal_colour            colorless
_exptl_crystal_description       block
_cell_formula_units_Z            4
loop_
_atom_site_label
_atom_site_type_symbol
_atom_site_fract_x
_atom_site_fract_y
_atom_site_fract_z
C1 C 0.5373(2) -0.0540(4) 0.66154(12)
C2 C 0.6194(2) 0.0020(4) 0.61413(12)
H1 H 0.6855 -0.0808 0.6085
C3 C 0.60222(19) 0.1836(4) 0.57481(12)
H2 H 0.6578 0.2232 0.5428
C4 C 0.50386(18) 0.3072(4) 0.58226(11)
C5 C 0.4227(2) 0.2455(4) 0.63077(14)
H3 H 0.3560 0.3265 0.6366
C6 C 0.4396(2) 0.0662(4) 0.67036(14)
H4 H 0.3850 0.0269 0.7029
C7 C 0.48399(17) 0.4991(4) 0.53931(12)
C8 C 0.3772(2) 0.7926(4) 0.51433(14)
H5 H 0.3134 0.8790 0.5229
C9 C 0.45046(19) 0.8525(4) 0.46233(12)
C10 C 0.54233(19) 0.7128(3) 0.45017(12)
C11 C 0.6258(2) 0.7419(4) 0.39335(12)
C12 C 0.6927(2) 0.9253(4) 0.38724(14)
H6 H 0.6836 1.0366 0.4184
C13 C 0.7726(3) 0.9432(5) 0.33506(14)
H7 H 0.8175 1.0661 0.3316
C14 C 0.7862(3) 0.7832(5) 0.28871(16)
H8 H 0.8401 0.7968 0.2537
C15 C 0.7200(3) 0.6006(5) 0.29357(14)
H9 H 0.7288 0.4916 0.2616
C16 C 0.6405(2) 0.5793(4) 0.34571(13)
H10 H 0.5965 0.4553 0.3490
C17 C 0.4268(3) 1.0514(4) 0.42127(16)
H11 H 0.3498 1.1005 0.4305
H12 H 0.4344 1.0198 0.3734
H13 H 0.4811 1.1607 0.4337
Cl1 Cl 0.55714(7) -0.28145(11) 0.71120(4)
N1 N 0.55877(15) 0.5366(3) 0.48849(10)
N2 N 0.39106(16) 0.6199(3) 0.55326(11)
loop_
_geom_bond_atom_site_label_1
_geom_bond_atom_site_label_2
_geom_bond_site_symmetry_1
_geom_bond_site_symmetry_2
C1 C2 1_555 1_555
C2 H1 1_555 1_555
C3 C2 1_555 1_555
H2 C3 1_555 1_555
C4 C3 1_555 1_555
C5 C4 1_555 1_555
H3 C5 1_555 1_555
C6 C1 1_555 1_555
H4 C6 1_555 1_555
C7 C4 1_555 1_555
C8 H5 1_555 1_555
C9 C8 1_555 1_555
C10 C9 1_555 1_555
C11 C10 1_555 1_555
C12 C11 1_555 1_555
H6 C12 1_555 1_555
C13 C12 1_555 1_555
H7 C13 1_555 1_555
C14 C13 1_555 1_555
H8 C14 1_555 1_555
C15 C14 1_555 1_555
H9 C15 1_555 1_555
C16 C11 1_555 1_555
H10 C16 1_555 1_555
C17 C9 1_555 1_555
H11 C17 1_555 1_555
H12 C17 1_555 1_555
H13 C17 1_555 1_555
Cl1 C1 1_555 1_555
N1 C7 1_555 1_555
N2 C7 1_555 1_555
C5 C6 1_555 1_555
C8 N2 1_555 1_555
C10 N1 1_555 1_555
C15 C16 1_555 1_555

#END
