
#######################################################################
#
#                 Cambridge Crystallographic Data Centre
#                                CCDC 
#
#######################################################################
#
# If this CIF has been generated from an entry in the Cambridge 
# Structural Database, then it will include bibliographic, chemical, 
# crystal, experimental, refinement or atomic coordinate data resulting 
# from the CCDC's data processing and validation procedures.
#
#######################################################################

data_HEYLEF
_chemical_formula_moiety         'C17 H13 N3 O2'
_chemical_name_systematic        5-methyl-4-(3-nitrophenyl)-2-phenylpyrimidine
_symmetry_cell_setting           triclinic
_symmetry_space_group_name_H-M   'P -1'
_symmetry_Int_Tables_number      2
_space_group_name_Hall           '-P 1'
loop_
_symmetry_equiv_pos_site_id
_symmetry_equiv_pos_as_xyz
1 x,y,z
2 -x,-y,-z
_cell_length_a                   7.379(2)
_cell_length_b                   8.176(2)
_cell_length_c                   12.148(3)
_cell_angle_alpha                91.669(4)
_cell_angle_beta                 97.473(4)
_cell_angle_gamma                97.937(4)
_cell_volume                     718.883
_exptl_crystal_colour            colorless
_exptl_crystal_description       block
_cell_formula_units_Z            2
loop_
_atom_site_label
_atom_site_type_symbol
_atom_site_fract_x
_atom_site_fract_y
_atom_site_fract_z
C1 C 0.3600(2) 0.89854(17) 0.29759(12)
H1 H 0.4805 0.8893 0.2863
C2 C 0.2436(2) 0.96097(19) 0.21598(13)
H2 H 0.2860 0.9926 0.1499
C3 C 0.0655(3) 0.9767(2) 0.23170(14)
H3 H -0.0127 1.0180 0.1764
C4 C 0.0034(2) 0.9305(3) 0.33072(15)
H4 H -0.1164 0.9421 0.3421
C5 C 0.1181(2) 0.8676(2) 0.41218(13)
H5 H 0.0750 0.8370 0.4783
C6 C 0.29755(19) 0.84938(15) 0.39671(10)
C7 C 0.42000(18) 0.77506(15) 0.48176(10)
C8 C 0.6908(2) 0.67858(18) 0.53264(12)
H6 H 0.8054 0.6576 0.5163
C9 C 0.64372(19) 0.63900(16) 0.63649(11)
C10 C 0.46778(19) 0.66996(15) 0.65423(10)
C11 C 0.7792(2) 0.5740(2) 0.72082(13)
H7 H 0.8990 0.5892 0.6968
H8 H 0.7405 0.4585 0.7287
H9 H 0.7849 0.6329 0.7910
C12 C 0.38995(18) 0.63109(16) 0.75926(10)
C13 C 0.3273(2) 0.75438(17) 0.81893(12)
H10 H 0.3350 0.8607 0.7931
C14 C 0.2535(2) 0.72127(19) 0.91631(12)
H11 H 0.2151 0.8059 0.9562
C15 C 0.23667(19) 0.56329(19) 0.95451(10)
H12 H 0.1860 0.5397 1.0194
C16 C 0.29712(18) 0.44141(16) 0.89366(10)
C17 C 0.37424(19) 0.47132(16) 0.79679(10)
H13 H 0.4145 0.3867 0.7579
N1 N 0.58271(17) 0.74469(15) 0.45469(10)
N2 N 0.35733(16) 0.73970(13) 0.57842(9)
N3 N 0.27942(18) 0.27212(16) 0.93271(9)
O1 O 0.35783(18) 0.17102(14) 0.88984(10)
O2 O 0.1838(2) 0.23993(17) 1.00640(11)
loop_
_geom_bond_atom_site_label_1
_geom_bond_atom_site_label_2
_geom_bond_site_symmetry_1
_geom_bond_site_symmetry_2
C1 H1 1_555 1_555
C2 C1 1_555 1_555
H2 C2 1_555 1_555
C3 C2 1_555 1_555
H3 C3 1_555 1_555
C4 C3 1_555 1_555
H4 C4 1_555 1_555
C5 C4 1_555 1_555
H5 C5 1_555 1_555
C6 C1 1_555 1_555
C7 C6 1_555 1_555
C8 H6 1_555 1_555
C9 C8 1_555 1_555
C10 C9 1_555 1_555
C11 C9 1_555 1_555
H7 C11 1_555 1_555
H8 C11 1_555 1_555
H9 C11 1_555 1_555
C12 C10 1_555 1_555
C13 C12 1_555 1_555
H10 C13 1_555 1_555
C14 C13 1_555 1_555
H11 C14 1_555 1_555
C15 C14 1_555 1_555
H12 C15 1_555 1_555
C16 C15 1_555 1_555
C17 C12 1_555 1_555
H13 C17 1_555 1_555
N1 C7 1_555 1_555
N2 C7 1_555 1_555
N3 C16 1_555 1_555
O1 N3 1_555 1_555
O2 N3 1_555 1_555
C5 C6 1_555 1_555
C8 N1 1_555 1_555
C10 N2 1_555 1_555
C16 C17 1_555 1_555

#END
