
#######################################################################
#
#                 Cambridge Crystallographic Data Centre
#                                CCDC 
#
#######################################################################
#
# If this CIF has been generated from an entry in the Cambridge 
# Structural Database, then it will include bibliographic, chemical, 
# crystal, experimental, refinement or atomic coordinate data resulting 
# from the CCDC's data processing and validation procedures.
#
#######################################################################

data_HEYLIH
_chemical_formula_moiety         'C15 H20 F3 N1 O2 S1'
_chemical_name_systematic        
(R~S~,S)-N-(4,4,4-trifluoro-3-hydroxy-3-methyl-1-phenylbutylidene)-t-butanesulfinamide
_symmetry_cell_setting           monoclinic
_symmetry_space_group_name_H-M   'P 21'
_symmetry_Int_Tables_number      4
_space_group_name_Hall           'P 2yb'
loop_
_symmetry_equiv_pos_site_id
_symmetry_equiv_pos_as_xyz
1 x,y,z
2 -x,1/2+y,-z
_cell_length_a                   5.925(2)
_cell_length_b                   10.782(4)
_cell_length_c                   13.718(6)
_cell_angle_alpha                90
_cell_angle_beta                 100.340(7)
_cell_angle_gamma                90
_cell_volume                     862.12
_exptl_crystal_colour            colorless
_exptl_crystal_description       prismatic
_chemical_melting_point          '113-115 deg.C'
_cell_formula_units_Z            2
loop_
_atom_site_label
_atom_site_type_symbol
_atom_site_fract_x
_atom_site_fract_y
_atom_site_fract_z
S1 S 0.14797(17) 0.29749(11) 0.45659(7)
O1 O 0.2736(5) 0.3442(3) 0.2165(3)
O2 O 0.2616(6) 0.3957(3) 0.4075(2)
N1 N 0.0391(5) 0.1840(3) 0.3777(2)
F1 F 0.0704(7) 0.5701(3) 0.2233(3)
F2 F 0.1396(9) 0.5338(4) 0.0802(3)
F3 F -0.2017(8) 0.5264(4) 0.1059(3)
C1 C -0.0773(6) 0.2042(4) 0.2905(3)
C2 C -0.1259(7) 0.3285(4) 0.2422(3)
H1 H -0.1153 0.3917 0.2932
H2 H -0.2815 0.3291 0.2050
C3 C 0.0436(8) 0.3607(4) 0.1712(3)
C4 C 0.0110(12) 0.4974(5) 0.1446(4)
C5 C 0.0012(11) 0.2846(6) 0.0771(3)
H3 H 0.1013 0.3124 0.0338
H4 H -0.1554 0.2944 0.0448
H5 H 0.0309 0.1988 0.0930
C6 C -0.1718(6) 0.0904(4) 0.2362(3)
C7 C -0.0414(8) -0.0166(4) 0.2448(4)
H6 H 0.1049 -0.0170 0.2833
C8 C -0.1295(11) -0.1232(5) 0.1959(4)
H7 H -0.0397 -0.1944 0.2005
C9 C -0.3404(11) -0.1258(6) 0.1422(4)
H8 H -0.3965 -0.1984 0.1102
C10 C -0.4745(9) -0.0221(6) 0.1340(4)
H9 H -0.6224 -0.0245 0.0971
C11 C -0.3898(7) 0.0871(5) 0.1809(3)
H10 H -0.4806 0.1580 0.1748
C12 C 0.3808(7) 0.2041(4) 0.5263(3)
C13 C 0.5304(8) 0.1546(5) 0.4577(4)
H11 H 0.6593 0.1119 0.4955
H12 H 0.5841 0.2221 0.4223
H13 H 0.4435 0.0982 0.4114
C14 C 0.5152(9) 0.2947(7) 0.6019(3)
H14 H 0.6422 0.2521 0.6411
H15 H 0.4160 0.3263 0.6442
H16 H 0.5714 0.3623 0.5674
C15 C 0.2687(8) 0.1017(6) 0.5780(4)
H17 H 0.1817 0.0483 0.5292
H18 H 0.1686 0.1381 0.6179
H19 H 0.3854 0.0543 0.6195
H20 H 0.287(10) 0.369(7) 0.280(4)
loop_
_geom_bond_atom_site_label_1
_geom_bond_atom_site_label_2
_geom_bond_site_symmetry_1
_geom_bond_site_symmetry_2
S1 O2 1_555 1_555
O1 C3 1_555 1_555
N1 S1 1_555 1_555
F1 C4 1_555 1_555
F2 C4 1_555 1_555
F3 C4 1_555 1_555
C1 N1 1_555 1_555
C2 C1 1_555 1_555
H1 C2 1_555 1_555
H2 C2 1_555 1_555
C3 C2 1_555 1_555
C4 C3 1_555 1_555
C5 C3 1_555 1_555
H3 C5 1_555 1_555
H4 C5 1_555 1_555
H5 C5 1_555 1_555
C6 C1 1_555 1_555
C7 C6 1_555 1_555
H6 C7 1_555 1_555
C8 C7 1_555 1_555
H7 C8 1_555 1_555
C9 C8 1_555 1_555
H8 C9 1_555 1_555
C10 C9 1_555 1_555
H9 C10 1_555 1_555
C11 C6 1_555 1_555
H10 C11 1_555 1_555
C12 S1 1_555 1_555
C13 C12 1_555 1_555
H11 C13 1_555 1_555
H12 C13 1_555 1_555
H13 C13 1_555 1_555
C14 C12 1_555 1_555
H14 C14 1_555 1_555
H15 C14 1_555 1_555
H16 C14 1_555 1_555
C15 C12 1_555 1_555
H17 C15 1_555 1_555
H18 C15 1_555 1_555
H19 C15 1_555 1_555
H20 O1 1_555 1_555
C10 C11 1_555 1_555

#END
