
#######################################################################
#
#                 Cambridge Crystallographic Data Centre
#                                CCDC 
#
#######################################################################
#
# If this CIF has been generated from an entry in the Cambridge 
# Structural Database, then it will include bibliographic, chemical, 
# crystal, experimental, refinement or atomic coordinate data resulting 
# from the CCDC's data processing and validation procedures.
#
#######################################################################

data_HEYMII
_chemical_name_common            N,N'-4,4'-dipyridyloxalamide
_chemical_formula_moiety         'C12 H10 N4 O2'
_chemical_name_systematic        N,N'-bis(4-pyridyl)oxamide
_symmetry_cell_setting           monoclinic
_symmetry_space_group_name_H-M   'P 21/c'
_symmetry_Int_Tables_number      14
_space_group_name_Hall           '-P 2ybc'
loop_
_symmetry_equiv_pos_site_id
_symmetry_equiv_pos_as_xyz
1 x,y,z
2 -x,1/2+y,1/2-z
3 -x,-y,-z
4 x,1/2-y,1/2+z
_cell_length_a                   8.3729(6)
_cell_length_b                   14.6999(10)
_cell_length_c                   9.1764(6)
_cell_angle_alpha                90
_cell_angle_beta                 98.917(2)
_cell_angle_gamma                90
_cell_volume                     1115.79
_exptl_crystal_colour            colorless
_exptl_crystal_description       plate
_cell_formula_units_Z            4
_exptl_crystal_recrystallization_method acetone
loop_
_atom_site_label
_atom_site_type_symbol
_atom_site_fract_x
_atom_site_fract_y
_atom_site_fract_z
O1 O 0.91952(15) 0.95892(8) 1.12971(13)
O2 O 0.71030(15) 0.90546(8) 0.78328(13)
N1 N 0.90400(17) 0.82224(9) 1.00808(15)
H1 H 0.8578 0.7955 0.9265
N2 N 0.67714(16) 1.02702(9) 0.93228(14)
H2 H 0.7124 1.0498 1.0201
N3 N 1.21685(18) 0.65504(10) 1.29622(16)
N4 N 0.33058(18) 1.18956(9) 0.67075(16)
C1 C 0.8663(2) 0.91046(11) 1.02648(18)
C2 C 0.7423(2) 0.94693(10) 0.89837(18)
C3 C 1.1192(2) 0.62291(11) 1.17779(19)
H3 H 1.1214 0.5594 1.1590
C4 C 1.0158(2) 0.67609(11) 1.08141(19)
H4 H 0.9496 0.6495 0.9990
C5 C 1.00997(19) 0.76943(11) 1.10695(17)
C6 C 1.1115(2) 0.80456(11) 1.22779(18)
H5 H 1.1128 0.8678 1.2491
C7 C 1.2107(2) 0.74472(11) 1.31633(19)
H6 H 1.2802 0.7696 1.3983
C8 C 0.3855(2) 1.11273(12) 0.61809(19)
H7 H 0.3439 1.0965 0.5193
C9 C 0.4980(2) 1.05510(11) 0.69603(19)
H8 H 0.5327 1.0017 0.6516
C10 C 0.55915(19) 1.07723(10) 0.84123(17)
C11 C 0.4998(2) 1.15527(10) 0.90003(18)
H9 H 0.5350 1.1715 1.0001
C12 C 0.3894(2) 1.20869(11) 0.81127(18)
H10 H 0.3527 1.2626 0.8527
loop_
_geom_bond_atom_site_label_1
_geom_bond_atom_site_label_2
_geom_bond_site_symmetry_1
_geom_bond_site_symmetry_2
O1 C1 1_555 1_555
O2 C2 1_555 1_555
N1 H1 1_555 1_555
N2 H2 1_555 1_555
N3 C3 1_555 1_555
N4 C8 1_555 1_555
C1 N1 1_555 1_555
C2 N2 1_555 1_555
C3 H3 1_555 1_555
C4 C3 1_555 1_555
H4 C4 1_555 1_555
C5 N1 1_555 1_555
C6 C5 1_555 1_555
H5 C6 1_555 1_555
C7 N3 1_555 1_555
H6 C7 1_555 1_555
C8 H7 1_555 1_555
C9 C8 1_555 1_555
H8 C9 1_555 1_555
C10 N2 1_555 1_555
C11 C10 1_555 1_555
H9 C11 1_555 1_555
C12 N4 1_555 1_555
H10 C12 1_555 1_555
C1 C2 1_555 1_555
C4 C5 1_555 1_555
C6 C7 1_555 1_555
C9 C10 1_555 1_555
C11 C12 1_555 1_555

#END
