
#######################################################################
#
#                 Cambridge Crystallographic Data Centre
#                                CCDC 
#
#######################################################################
#
# If this CIF has been generated from an entry in the Cambridge 
# Structural Database, then it will include bibliographic, chemical, 
# crystal, experimental, refinement or atomic coordinate data resulting 
# from the CCDC's data processing and validation procedures.
#
#######################################################################

data_HEYTOX
_chemical_formula_moiety         
'C40 H48 K1 N8 1+,Br1 1-,0.8(C1 H4 O1),0.7(H2 O1)'
_chemical_name_systematic        
'[1,9,17,25,39,46,47,48-octa-azanonacyclo[15.15.6.6^9,25^.1^3,7^.1^11,15^.1^19,23^.1^27,31^.0^33,38^.0^40,45^]octatetraconta-3(48),4,6,11(47),12,14,19(46),20,22,27(39),28,30-dodecaene]-potassium bromide methanol solvate hydrate'
_symmetry_cell_setting           orthorhombic
_symmetry_space_group_name_H-M   'P 21 21 21'
_symmetry_Int_Tables_number      19
_space_group_name_Hall           'P 2ac 2ab'
loop_
_symmetry_equiv_pos_site_id
_symmetry_equiv_pos_as_xyz
1 x,y,z
2 1/2-x,-y,1/2+z
3 -x,1/2+y,1/2-z
4 1/2+x,1/2-y,-z
_cell_length_a                   21.201(4)
_cell_length_b                   26.732(6)
_cell_length_c                   26.969(5)
_cell_angle_alpha                90
_cell_angle_beta                 90
_cell_angle_gamma                90
_cell_volume                     15284.5
_exptl_crystal_colour            colorless
_exptl_crystal_description       block
_cell_formula_units_Z            16
loop_
_atom_site_label
_atom_site_type_symbol
_atom_site_fract_x
_atom_site_fract_y
_atom_site_fract_z
K1 K 0.49293(8) 0.53870(7) 0.18798(6)
N1 N 0.5858(3) 0.4830(2) 0.2173(2)
N2 N 0.6088(3) 0.5799(2) 0.1714(2)
N3 N 0.4977(3) 0.6362(3) 0.2174(2)
N4 N 0.3964(3) 0.5881(2) 0.1586(2)
N5 N 0.4040(3) 0.4849(2) 0.1344(2)
N6 N 0.4606(3) 0.4458(2) 0.2278(2)
N7 N 0.5356(3) 0.5221(2) 0.0999(2)
N8 N 0.4524(3) 0.5501(3) 0.2788(2)
C1 C 0.5786(4) 0.4369(3) 0.2313(3)
C2 C 0.6280(4) 0.4092(3) 0.2520(4)
H1 H 0.6212 0.3762 0.2641
C3 C 0.6865(4) 0.4310(4) 0.2543(4)
H2 H 0.7218 0.4126 0.2661
C4 C 0.6935(4) 0.4800(3) 0.2393(3)
H3 H 0.7334 0.4961 0.2413
C5 C 0.6419(4) 0.5052(3) 0.2215(3)
C6 C 0.6473(4) 0.5606(3) 0.2120(3)
H4 H 0.6355 0.5785 0.2427
H5 H 0.6920 0.5684 0.2049
C7 C 0.6023(4) 0.6359(3) 0.1728(3)
H6 H 0.5804 0.6464 0.1417
C8 C 0.6687(5) 0.6604(3) 0.1727(3)
H7 H 0.6923 0.6489 0.2022
H8 H 0.6920 0.6490 0.1429
C9 C 0.6669(5) 0.7174(3) 0.1727(3)
H9 H 0.7104 0.7308 0.1734
H10 H 0.6462 0.7295 0.1420
C10 C 0.6308(5) 0.7358(4) 0.2176(3)
H11 H 0.6528 0.7254 0.2484
H12 H 0.6283 0.7727 0.2172
C11 C 0.5652(4) 0.7136(3) 0.2163(4)
H13 H 0.5432 0.7258 0.1863
H14 H 0.5414 0.7257 0.2455
C12 C 0.5641(4) 0.6559(3) 0.2162(3)
H15 H 0.5854 0.6445 0.2473
C13 C 0.4570(4) 0.6619(3) 0.1809(3)
H16 H 0.4801 0.6643 0.1491
H17 H 0.4491 0.6964 0.1926
C14 C 0.3948(4) 0.6371(3) 0.1715(3)
C15 C 0.3387(5) 0.6643(3) 0.1729(3)
H18 H 0.3383 0.6981 0.1836
C16 C 0.2831(4) 0.6404(4) 0.1581(3)
H19 H 0.2445 0.6584 0.1569
C17 C 0.2848(4) 0.5908(3) 0.1453(3)
H20 H 0.2474 0.5740 0.1353
C18 C 0.3421(4) 0.5652(3) 0.1470(3)
C19 C 0.3422(4) 0.5106(3) 0.1381(3)
H21 H 0.3188 0.5042 0.1070
H22 H 0.3182 0.4946 0.1653
C20 C 0.4001(4) 0.4317(3) 0.1495(3)
H23 H 0.4386 0.4148 0.1360
C21 C 0.3428(4) 0.4052(3) 0.1261(3)
H24 H 0.3040 0.4238 0.1350
H25 H 0.3471 0.4061 0.0895
C22 C 0.3360(4) 0.3514(3) 0.1428(4)
H26 H 0.2973 0.3369 0.1282
H27 H 0.3725 0.3317 0.1306
C23 C 0.3328(4) 0.3475(3) 0.1972(4)
H28 H 0.3292 0.3119 0.2070
H29 H 0.2950 0.3654 0.2095
C24 C 0.3914(4) 0.3700(3) 0.2203(4)
H30 H 0.4286 0.3501 0.2098
H31 H 0.3881 0.3675 0.2568
C25 C 0.4020(4) 0.4246(3) 0.2060(3)
H32 H 0.3659 0.4441 0.2200
C26 C 0.5142(4) 0.4121(3) 0.2228(3)
H33 H 0.5136 0.3974 0.1891
H34 H 0.5093 0.3843 0.2468
C27 C 0.6321(4) 0.5632(3) 0.1233(3)
H35 H 0.6773 0.5547 0.1265
H36 H 0.6285 0.5911 0.0994
C28 C 0.5970(4) 0.5179(3) 0.1025(3)
C29 C 0.6280(4) 0.4753(3) 0.0869(3)
H37 H 0.6725 0.4726 0.0898
C30 C 0.5926(4) 0.4367(3) 0.0670(3)
H38 H 0.6129 0.4078 0.0542
C31 C 0.5278(4) 0.4404(3) 0.0660(3)
H39 H 0.5029 0.4136 0.0537
C32 C 0.4994(4) 0.4837(3) 0.0831(3)
C33 C 0.4300(4) 0.4911(3) 0.0846(3)
H40 H 0.4199 0.5251 0.0724
H41 H 0.4097 0.4667 0.0620
C34 C 0.4707(4) 0.6383(3) 0.2679(3)
H42 H 0.4478 0.6703 0.2722
H43 H 0.5053 0.6374 0.2926
C35 C 0.4263(4) 0.5954(3) 0.2774(3)
C36 C 0.3631(4) 0.6019(3) 0.2836(3)
H44 H 0.3453 0.6345 0.2831
C37 C 0.3255(4) 0.5607(3) 0.2908(3)
H45 H 0.2814 0.5646 0.2956
C38 C 0.3527(4) 0.5129(3) 0.2908(3)
H46 H 0.3276 0.4838 0.2951
C39 C 0.4171(4) 0.5097(3) 0.2845(3)
C40 C 0.4506(4) 0.4608(3) 0.2804(3)
H47 H 0.4256 0.4347 0.2975
H48 H 0.4919 0.4633 0.2973
K2 K 0.56451(9) 0.60710(7) 0.43373(6)
N9 N 0.6599(4) 0.6581(3) 0.4665(3)
N10 N 0.5664(3) 0.7043(2) 0.4014(2)
N11 N 0.4493(3) 0.6526(3) 0.4435(3)
N12 N 0.4727(3) 0.5503(2) 0.4053(2)
N13 N 0.5961(3) 0.5130(2) 0.4000(2)
N14 N 0.6519(3) 0.5552(2) 0.4922(2)
N15 N 0.6126(3) 0.6171(3) 0.3463(2)
N16 N 0.5226(4) 0.5982(3) 0.5237(2)
C41 C 0.7091(4) 0.6370(3) 0.4875(3)
C42 C 0.7573(4) 0.6660(4) 0.5066(4)
H49 H 0.7922 0.6509 0.5229
C43 C 0.7537(5) 0.7161(4) 0.5013(5)
H50 H 0.7872 0.7365 0.5131
C44 C 0.7026(4) 0.7379(4) 0.4795(4)
H51 H 0.6993 0.7732 0.4766
C45 C 0.6568(4) 0.7073(3) 0.4620(3)
C46 C 0.5981(5) 0.7310(3) 0.4421(3)
H52 H 0.5677 0.7346 0.4698
H53 H 0.6088 0.7651 0.4304
C47 C 0.5006(4) 0.7222(3) 0.3927(3)
H54 H 0.4853 0.7062 0.3614
C48 C 0.4993(4) 0.7796(3) 0.3847(4)
H55 H 0.5174 0.7962 0.4143
H56 H 0.5262 0.7881 0.3559
C49 C 0.4332(5) 0.8001(3) 0.3758(4)
H57 H 0.4351 0.8369 0.3718
H58 H 0.4157 0.7856 0.3449
C50 C 0.3917(6) 0.7872(3) 0.4184(4)
H59 H 0.3487 0.8003 0.4125
H60 H 0.4083 0.8026 0.4491
C51 C 0.3896(5) 0.7300(4) 0.4240(4)
H61 H 0.3604 0.7213 0.4514
H62 H 0.3727 0.7151 0.3931
C52 C 0.4535(5) 0.7077(3) 0.4347(3)
H63 H 0.4693 0.7233 0.4660
C53 C 0.4112(4) 0.6260(3) 0.4069(3)
H64 H 0.4249 0.6364 0.3733
H65 H 0.3666 0.6363 0.4109
C54 C 0.4151(4) 0.5705(3) 0.4105(3)
C55 C 0.3629(4) 0.5415(4) 0.4175(3)
H66 H 0.3228 0.5566 0.4218
C56 C 0.3686(4) 0.4901(4) 0.4184(3)
H67 H 0.3326 0.4694 0.4227
C57 C 0.4275(4) 0.4695(3) 0.4128(3)
H68 H 0.4329 0.4342 0.4128
C58 C 0.4784(4) 0.5005(3) 0.4074(3)
C59 C 0.5438(4) 0.4786(3) 0.4050(3)
H69 H 0.5506 0.4586 0.4355
H70 H 0.5453 0.4551 0.3766
C60 C 0.6556(4) 0.4938(3) 0.4231(3)
H71 H 0.6910 0.5142 0.4092
C61 C 0.6685(4) 0.4391(3) 0.4087(3)
H72 H 0.6317 0.4185 0.4183
H73 H 0.6731 0.4369 0.3723
C62 C 0.7271(5) 0.4177(4) 0.4329(4)
H74 H 0.7319 0.3822 0.4234
H75 H 0.7647 0.4361 0.4210
C63 C 0.7231(5) 0.4217(3) 0.4880(4)
H76 H 0.7620 0.4082 0.5032
H77 H 0.6869 0.4019 0.5003
C64 C 0.7148(5) 0.4761(3) 0.5022(4)
H78 H 0.7530 0.4948 0.4920
H79 H 0.7114 0.4785 0.5387
C65 C 0.6564(4) 0.5013(3) 0.4786(3)
H80 H 0.6183 0.4843 0.4923
C66 C 0.7138(4) 0.5801(3) 0.4881(3)
H81 H 0.7347 0.5689 0.4572
H82 H 0.7405 0.5697 0.5163
C67 C 0.6048(4) 0.7066(3) 0.3560(3)
H83 H 0.6333 0.7359 0.3580
H84 H 0.5766 0.7116 0.3271
C68 C 0.6437(4) 0.6600(3) 0.3479(3)
C69 C 0.7084(4) 0.6631(3) 0.3424(3)
H85 H 0.7296 0.6944 0.3439
C70 C 0.7421(4) 0.6181(3) 0.3344(3)
H86 H 0.7863 0.6187 0.3286
C71 C 0.7100(4) 0.5733(4) 0.3352(3)
H87 H 0.7319 0.5426 0.3309
C72 C 0.6446(4) 0.5738(3) 0.3426(3)
C73 C 0.6063(4) 0.5270(3) 0.3481(3)
H88 H 0.5649 0.5319 0.3318
H89 H 0.6281 0.4992 0.3309
C74 C 0.4294(5) 0.6420(3) 0.4961(3)
H90 H 0.3831 0.6371 0.4970
H91 H 0.4395 0.6714 0.5170
C75 C 0.4612(5) 0.5963(4) 0.5176(3)
C76 C 0.4253(5) 0.5551(3) 0.5320(3)
H92 H 0.3807 0.5551 0.5288
C77 C 0.4571(5) 0.5142(4) 0.5512(3)
H93 H 0.4345 0.4854 0.5617
C78 C 0.5206(5) 0.5157(4) 0.5550(3)
H94 H 0.5427 0.4875 0.5674
C79 C 0.5542(5) 0.5583(3) 0.5408(3)
C80 C 0.6227(5) 0.5619(3) 0.5420(3)
H95 H 0.6395 0.5361 0.5648
H96 H 0.6348 0.5951 0.5553
K3 K 0.51260(8) 0.68710(6) 0.68849(6)
N17 N 0.4211(3) 0.7426(3) 0.7216(2)
N18 N 0.3952(3) 0.6461(2) 0.6763(2)
N19 N 0.5073(3) 0.5895(2) 0.7176(2)
N20 N 0.6065(3) 0.6368(3) 0.6545(2)
N21 N 0.5996(3) 0.7404(2) 0.6325(2)
N22 N 0.5468(3) 0.7804(3) 0.7269(2)
N23 N 0.4657(3) 0.7040(3) 0.6021(2)
N24 N 0.5553(3) 0.6750(3) 0.7782(2)
C81 C 0.4293(4) 0.7913(3) 0.7303(3)
C82 C 0.3794(4) 0.8207(3) 0.7447(3)
H97 H 0.3860 0.8550 0.7521
C83 C 0.3200(4) 0.8004(3) 0.7483(3)
H98 H 0.2853 0.8205 0.7584
C84 C 0.3113(4) 0.7496(3) 0.7368(3)
H99 H 0.2707 0.7346 0.7372
C85 C 0.3644(4) 0.7225(3) 0.7249(3)
C86 C 0.3600(4) 0.6666(3) 0.7187(3)
H100 H 0.3757 0.6505 0.7493
H101 H 0.3150 0.6575 0.7149
C87 C 0.4002(4) 0.5904(3) 0.6772(3)
H102 H 0.4196 0.5799 0.6450
C88 C 0.3334(4) 0.5664(3) 0.6795(4)
H103 H 0.3120 0.5774 0.7102
H104 H 0.3082 0.5784 0.6510
C89 C 0.3360(4) 0.5095(4) 0.6784(4)
H105 H 0.2927 0.4957 0.6804
H106 H 0.3550 0.4982 0.6468
C90 C 0.3747(4) 0.4905(4) 0.7214(4)
H107 H 0.3547 0.5006 0.7531
H108 H 0.3768 0.4535 0.7204
C91 C 0.4397(4) 0.5120(3) 0.7182(3)
H109 H 0.4600 0.4995 0.6876
H110 H 0.4647 0.4996 0.7467
C92 C 0.4418(4) 0.5699(3) 0.7181(3)
H111 H 0.4226 0.5811 0.7501
C93 C 0.5474(4) 0.5638(3) 0.6805(3)
H112 H 0.5226 0.5598 0.6497
H113 H 0.5569 0.5298 0.6931
C94 C 0.6081(4) 0.5886(3) 0.6677(3)
C95 C 0.6645(4) 0.5614(3) 0.6678(3)
H114 H 0.6651 0.5273 0.6777
C96 C 0.7186(4) 0.5851(3) 0.6532(3)
H115 H 0.7573 0.5672 0.6523
C97 C 0.7174(4) 0.6340(4) 0.6400(3)
H116 H 0.7547 0.6507 0.6297
C98 C 0.6596(4) 0.6594(3) 0.6420(3)
C99 C 0.6606(4) 0.7153(3) 0.6332(3)
H117 H 0.6867 0.7309 0.6594
H118 H 0.6818 0.7217 0.6011
C100 C 0.6047(4) 0.7935(3) 0.6468(3)
H119 H 0.5661 0.8106 0.6338
C101 C 0.6619(4) 0.8195(3) 0.6222(3)
H120 H 0.7007 0.8007 0.6307
H121 H 0.6567 0.8183 0.5857
C102 C 0.6700(4) 0.8734(3) 0.6381(4)
H122 H 0.7086 0.8874 0.6228
H123 H 0.6335 0.8934 0.6265
C103 C 0.6749(4) 0.8771(4) 0.6937(4)
H124 H 0.6797 0.9126 0.7035
H125 H 0.7127 0.8587 0.7052
C104 C 0.6169(4) 0.8556(3) 0.7180(3)
H126 H 0.5799 0.8761 0.7088
H127 H 0.6219 0.8574 0.7545
C105 C 0.6046(4) 0.8006(3) 0.7029(3)
H128 H 0.6408 0.7806 0.7160
C106 C 0.4934(4) 0.8148(3) 0.7231(3)
H129 H 0.4945 0.8309 0.6901
H130 H 0.4988 0.8415 0.7482
C107 C 0.3695(4) 0.6643(3) 0.6282(3)
H131 H 0.3244 0.6730 0.6327
H132 H 0.3717 0.6368 0.6036
C108 C 0.4036(4) 0.7090(3) 0.6079(3)
C109 C 0.3723(4) 0.7521(3) 0.5926(3)
H133 H 0.3280 0.7550 0.5966
C110 C 0.4059(5) 0.7900(4) 0.5718(3)
H134 H 0.3852 0.8193 0.5602
C111 C 0.4719(4) 0.7853(4) 0.5676(3)
H135 H 0.4967 0.8115 0.5540
C112 C 0.4992(4) 0.7419(3) 0.5838(3)
C113 C 0.5699(4) 0.7340(3) 0.5827(3)
H136 H 0.5790 0.6999 0.5703
H137 H 0.5890 0.7582 0.5593
C114 C 0.5370(4) 0.5874(3) 0.7670(3)
H138 H 0.5603 0.5554 0.7702
H139 H 0.5036 0.5878 0.7926
C115 C 0.5819(4) 0.6302(3) 0.7763(3)
C116 C 0.6466(4) 0.6235(3) 0.7808(3)
H140 H 0.6645 0.5909 0.7801
C117 C 0.6840(4) 0.6650(4) 0.7862(3)
H141 H 0.7284 0.6616 0.7897
C118 C 0.6561(4) 0.7124(3) 0.7866(3)
H142 H 0.6812 0.7416 0.7898
C119 C 0.5926(4) 0.7160(3) 0.7824(3)
C120 C 0.5589(4) 0.7652(3) 0.7787(3)
H143 H 0.5182 0.7628 0.7966
H144 H 0.5846 0.7913 0.7952
K4 K 0.43406(9) 0.61336(7) 0.93656(6)
N25 N 0.3438(4) 0.5608(3) 0.9733(3)
N26 N 0.4341(4) 0.5154(3) 0.9045(2)
N27 N 0.5510(4) 0.5706(3) 0.9423(2)
N28 N 0.5202(4) 0.6714(3) 0.9009(2)
N29 N 0.3946(3) 0.7070(3) 0.9031(2)
N30 N 0.3524(3) 0.6642(3) 0.9991(3)
N31 N 0.3804(3) 0.6026(3) 0.8496(2)
N32 N 0.4874(4) 0.6259(3) 1.0227(2)
C121 C 0.2974(4) 0.5813(3) 0.9986(3)
C122 C 0.2490(4) 0.5521(4) 1.0195(3)
H145 H 0.2157 0.5674 1.0377
C123 C 0.2507(4) 0.5020(4) 1.0133(4)
H146 H 0.2188 0.4814 1.0273
C124 C 0.2989(4) 0.4809(3) 0.9865(3)
H147 H 0.3007 0.4458 0.9813
C125 C 0.3447(4) 0.5118(3) 0.9675(3)
C126 C 0.4037(5) 0.4880(3) 0.9451(3)
H148 H 0.4350 0.4834 0.9719
H149 H 0.3923 0.4543 0.9327
C127 C 0.5008(4) 0.4981(3) 0.8962(3)
H150 H 0.5149 0.5132 0.8641
C128 C 0.5029(5) 0.4406(3) 0.8893(4)
H151 H 0.4849 0.4245 0.9192
H152 H 0.4760 0.4314 0.8607
C129 C 0.5680(5) 0.4205(3) 0.8808(3)
H153 H 0.5663 0.3836 0.8781
H154 H 0.5849 0.4339 0.8492
C130 C 0.6107(5) 0.4350(4) 0.9224(4)
H155 H 0.6538 0.4222 0.9160
H156 H 0.5953 0.4201 0.9538
C131 C 0.6120(5) 0.4916(3) 0.9266(4)
H157 H 0.6405 0.5011 0.9542
H158 H 0.6298 0.5057 0.8957
C132 C 0.5483(4) 0.5149(3) 0.9356(3)
H159 H 0.5329 0.5009 0.9678
C133 C 0.5827(4) 0.5955(3) 0.9010(3)
H160 H 0.5638 0.5838 0.8695
H161 H 0.6277 0.5857 0.9009
C134 C 0.5780(4) 0.6524(3) 0.9035(3)
C135 C 0.6313(5) 0.6817(3) 0.9072(3)
H162 H 0.6722 0.6671 0.9074
C136 C 0.6232(5) 0.7334(4) 0.9104(3)
H163 H 0.6586 0.7549 0.9137
C137 C 0.5640(5) 0.7524(3) 0.9089(3)
H164 H 0.5578 0.7875 0.9110
C138 C 0.5128(5) 0.7210(3) 0.9044(3)
C139 C 0.4471(4) 0.7419(3) 0.9054(3)
H165 H 0.4426 0.7618 0.9361
H166 H 0.4429 0.7653 0.8772
C140 C 0.3378(4) 0.7240(3) 0.9299(3)
H167 H 0.3023 0.7017 0.9195
C141 C 0.3191(4) 0.7774(3) 0.9156(3)
H168 H 0.3557 0.7998 0.9210
H169 H 0.3088 0.7782 0.8798
C142 C 0.2634(5) 0.7972(3) 0.9445(4)
H170 H 0.2545 0.8322 0.9345
H171 H 0.2256 0.7768 0.9372
C143 C 0.2777(5) 0.7952(3) 0.9990(3)
H172 H 0.2419 0.8089 1.0182
H173 H 0.3157 0.8154 1.0064
C144 C 0.2889(5) 0.7412(3) 1.0131(3)
H174 H 0.2505 0.7216 1.0056
H175 H 0.2963 0.7393 1.0493
C145 C 0.3456(5) 0.7173(3) 0.9859(3)
H176 H 0.3848 0.7352 0.9964
C146 C 0.2914(4) 0.6373(3) 1.0006(3)
H177 H 0.2652 0.6484 0.9722
H178 H 0.2689 0.6466 1.0314
C147 C 0.3960(4) 0.5148(3) 0.8590(3)
H179 H 0.3705 0.4838 0.8584
H180 H 0.4247 0.5139 0.8300
C148 C 0.3532(5) 0.5581(3) 0.8536(3)
C149 C 0.2881(4) 0.5537(3) 0.8518(3)
H181 H 0.2691 0.5215 0.8542
C150 C 0.2504(5) 0.5956(4) 0.8465(4)
H182 H 0.2058 0.5929 0.8439
C151 C 0.2807(4) 0.6423(4) 0.8451(3)
H183 H 0.2567 0.6721 0.8422
C152 C 0.3460(4) 0.6445(3) 0.8479(3)
C153 C 0.3822(4) 0.6918(3) 0.8516(3)
H184 H 0.4230 0.6876 0.8342
H185 H 0.3585 0.7187 0.8347
C154 C 0.5789(5) 0.5840(3) 0.9903(3)
H186 H 0.6244 0.5911 0.9855
H187 H 0.5754 0.5550 1.0130
C155 C 0.5481(5) 0.6290(3) 1.0143(3)
C156 C 0.5834(5) 0.6715(4) 1.0267(3)
H188 H 0.6274 0.6731 1.0202
C157 C 0.5521(5) 0.7110(4) 1.0489(3)
H189 H 0.5747 0.7398 1.0594
C158 C 0.4879(5) 0.7083(4) 1.0556(3)
H190 H 0.4653 0.7357 1.0691
C159 C 0.4564(5) 0.6644(4) 1.0421(3)
C160 C 0.3863(5) 0.6586(4) 1.0471(3)
H191 H 0.3770 0.6251 1.0610
H192 H 0.3703 0.6839 1.0707
Br1 Br 0.12713(9) 0.61746(8) 0.10684(12)
Br2 Br 0.30794(16) 0.74781(15) 0.28060(12)
Br3 Br 0.47421(14) 0.33545(7) 0.35759(8)
Br4 Br 0.3712(2) 0.34037(17) 0.4761(2)
Br5 Br 0.59524(9) 0.85971(3) 0.49841(3)
Br6 Br 0.35553(5) 0.96418(4) 0.73773(4)
O1 O 0.6502(5) 0.3040(2) 0.3552(3)
H193 H 0.6853 0.2914 0.3480
C161 C 0.6062(6) 0.2950(4) 0.3152(4)
H194 H 0.5784 0.3240 0.3114
H195 H 0.5807 0.2653 0.3228
H196 H 0.6295 0.2894 0.2843
O2 O 0.7481(4) 0.8564(3) 0.5220(3)
H197 H 0.7089 0.8581 0.5259
C162 C 0.7622(5) 0.8604(4) 0.4732(4)
H198 H 0.7761 0.8946 0.4660
H199 H 0.7246 0.8527 0.4534
H200 H 0.7960 0.8369 0.4648
O3 O 0.5377(8) 0.3557(7) 0.4914(6)
H201 H 0.5616 0.3388 0.4730
C163 C 0.5749(8) 0.3793(7) 0.5308(7)
H202 H 0.5472 0.3883 0.5585
H203 H 0.5955 0.4095 0.5181
H204 H 0.6069 0.3556 0.5423
O4 O 0.5100(9) 0.4043(7) 0.6151(7)
H205 H 0.4711 0.4052 0.6091
C164 C 0.5199(13) 0.3930(11) 0.6658(8)
H206 H 0.5652 0.3898 0.6723
H207 H 0.4988 0.3614 0.6740
H208 H 0.5025 0.4199 0.6864
O5 O 0.6685(8) 0.4154(7) 0.6324(6)
O6? O 0.1284(10) 0.6166(8) 0.0737(10)
O7? O 0.3655(5) 0.7475(4) 0.2701(4)
O8? O 0.3922(14) 0.3470(11) 0.3590(11)
Br7? Br 0.3498(7) 0.3248(5) 0.4244(5)
Br8? Br 0.563(3) 0.8580(13) 0.4973(12)
O9? O 0.5307(11) 0.3705(9) 0.5106(10)
H209? H 0.5115 0.3909 0.4924
C165? C 0.518(3) 0.3223(15) 0.495(2)
H210? H 0.5577 0.3044 0.4896
H211? H 0.4941 0.3235 0.4638
H212? H 0.4930 0.3050 0.5202
O10? O 0.591(2) 0.4137(13) 0.5031(17)
O11? O 0.7049(14) 0.4355(12) 0.6551(11)
O12? O 0.7002(13) 0.4059(11) 0.6724(10)
loop_
_geom_bond_atom_site_label_1
_geom_bond_atom_site_label_2
_geom_bond_site_symmetry_1
_geom_bond_site_symmetry_2
K1 N1 1_555 1_555
N1 C1 1_555 1_555
N2 K1 1_555 1_555
N3 K1 1_555 1_555
N4 K1 1_555 1_555
N5 K1 1_555 1_555
N6 K1 1_555 1_555
N7 K1 1_555 1_555
N8 K1 1_555 1_555
C1 C2 1_555 1_555
C2 H1 1_555 1_555
C3 C2 1_555 1_555
H2 C3 1_555 1_555
C4 C3 1_555 1_555
H3 C4 1_555 1_555
C5 N1 1_555 1_555
C6 N2 1_555 1_555
H4 C6 1_555 1_555
H5 C6 1_555 1_555
C7 N2 1_555 1_555
H6 C7 1_555 1_555
C8 C7 1_555 1_555
H7 C8 1_555 1_555
H8 C8 1_555 1_555
C9 C8 1_555 1_555
H9 C9 1_555 1_555
H10 C9 1_555 1_555
C10 C9 1_555 1_555
H11 C10 1_555 1_555
H12 C10 1_555 1_555
C11 C10 1_555 1_555
H13 C11 1_555 1_555
H14 C11 1_555 1_555
C12 N3 1_555 1_555
H15 C12 1_555 1_555
C13 N3 1_555 1_555
H16 C13 1_555 1_555
H17 C13 1_555 1_555
C14 N4 1_555 1_555
C15 C14 1_555 1_555
H18 C15 1_555 1_555
C16 C15 1_555 1_555
H19 C16 1_555 1_555
C17 C16 1_555 1_555
H20 C17 1_555 1_555
C18 N4 1_555 1_555
C19 N5 1_555 1_555
H21 C19 1_555 1_555
H22 C19 1_555 1_555
C20 N5 1_555 1_555
H23 C20 1_555 1_555
C21 C20 1_555 1_555
H24 C21 1_555 1_555
H25 C21 1_555 1_555
C22 C21 1_555 1_555
H26 C22 1_555 1_555
H27 C22 1_555 1_555
C23 C22 1_555 1_555
H28 C23 1_555 1_555
H29 C23 1_555 1_555
C24 C23 1_555 1_555
H30 C24 1_555 1_555
H31 C24 1_555 1_555
C25 N6 1_555 1_555
H32 C25 1_555 1_555
C26 N6 1_555 1_555
H33 C26 1_555 1_555
H34 C26 1_555 1_555
C27 N2 1_555 1_555
H35 C27 1_555 1_555
H36 C27 1_555 1_555
C28 N7 1_555 1_555
C29 C28 1_555 1_555
H37 C29 1_555 1_555
C30 C29 1_555 1_555
H38 C30 1_555 1_555
C31 C30 1_555 1_555
H39 C31 1_555 1_555
C32 N7 1_555 1_555
C33 N5 1_555 1_555
H40 C33 1_555 1_555
H41 C33 1_555 1_555
C34 N3 1_555 1_555
H42 C34 1_555 1_555
H43 C34 1_555 1_555
C35 N8 1_555 1_555
C36 C35 1_555 1_555
H44 C36 1_555 1_555
C37 C36 1_555 1_555
H45 C37 1_555 1_555
C38 C37 1_555 1_555
H46 C38 1_555 1_555
C39 N8 1_555 1_555
C40 N6 1_555 1_555
H47 C40 1_555 1_555
H48 C40 1_555 1_555
K2 N9 1_555 1_555
N9 C41 1_555 1_555
N10 K2 1_555 1_555
N11 K2 1_555 1_555
N12 K2 1_555 1_555
N13 K2 1_555 1_555
N14 K2 1_555 1_555
N15 K2 1_555 1_555
N16 K2 1_555 1_555
C41 C42 1_555 1_555
C42 H49 1_555 1_555
C43 C42 1_555 1_555
H50 C43 1_555 1_555
C44 C43 1_555 1_555
H51 C44 1_555 1_555
C45 N9 1_555 1_555
C46 N10 1_555 1_555
H52 C46 1_555 1_555
H53 C46 1_555 1_555
C47 N10 1_555 1_555
H54 C47 1_555 1_555
C48 C47 1_555 1_555
H55 C48 1_555 1_555
H56 C48 1_555 1_555
C49 C48 1_555 1_555
H57 C49 1_555 1_555
H58 C49 1_555 1_555
C50 C49 1_555 1_555
H59 C50 1_555 1_555
H60 C50 1_555 1_555
C51 C50 1_555 1_555
H61 C51 1_555 1_555
H62 C51 1_555 1_555
C52 N11 1_555 1_555
H63 C52 1_555 1_555
C53 N11 1_555 1_555
H64 C53 1_555 1_555
H65 C53 1_555 1_555
C54 N12 1_555 1_555
C55 C54 1_555 1_555
H66 C55 1_555 1_555
C56 C55 1_555 1_555
H67 C56 1_555 1_555
C57 C56 1_555 1_555
H68 C57 1_555 1_555
C58 N12 1_555 1_555
C59 N13 1_555 1_555
H69 C59 1_555 1_555
H70 C59 1_555 1_555
C60 N13 1_555 1_555
H71 C60 1_555 1_555
C61 C60 1_555 1_555
H72 C61 1_555 1_555
H73 C61 1_555 1_555
C62 C61 1_555 1_555
H74 C62 1_555 1_555
H75 C62 1_555 1_555
C63 C62 1_555 1_555
H76 C63 1_555 1_555
H77 C63 1_555 1_555
C64 C63 1_555 1_555
H78 C64 1_555 1_555
H79 C64 1_555 1_555
C65 N14 1_555 1_555
H80 C65 1_555 1_555
C66 N14 1_555 1_555
H81 C66 1_555 1_555
H82 C66 1_555 1_555
C67 N10 1_555 1_555
H83 C67 1_555 1_555
H84 C67 1_555 1_555
C68 N15 1_555 1_555
C69 C68 1_555 1_555
H85 C69 1_555 1_555
C70 C69 1_555 1_555
H86 C70 1_555 1_555
C71 C70 1_555 1_555
H87 C71 1_555 1_555
C72 N15 1_555 1_555
C73 N13 1_555 1_555
H88 C73 1_555 1_555
H89 C73 1_555 1_555
C74 N11 1_555 1_555
H90 C74 1_555 1_555
H91 C74 1_555 1_555
C75 N16 1_555 1_555
C76 C75 1_555 1_555
H92 C76 1_555 1_555
C77 C76 1_555 1_555
H93 C77 1_555 1_555
C78 C77 1_555 1_555
H94 C78 1_555 1_555
C79 N16 1_555 1_555
C80 N14 1_555 1_555
H95 C80 1_555 1_555
H96 C80 1_555 1_555
K3 N17 1_555 1_555
N17 C81 1_555 1_555
N18 K3 1_555 1_555
N19 K3 1_555 1_555
N20 K3 1_555 1_555
N21 K3 1_555 1_555
N22 K3 1_555 1_555
N23 K3 1_555 1_555
N24 K3 1_555 1_555
C81 C82 1_555 1_555
C82 H97 1_555 1_555
C83 C82 1_555 1_555
H98 C83 1_555 1_555
C84 C83 1_555 1_555
H99 C84 1_555 1_555
C85 N17 1_555 1_555
C86 N18 1_555 1_555
H100 C86 1_555 1_555
H101 C86 1_555 1_555
C87 N18 1_555 1_555
H102 C87 1_555 1_555
C88 C87 1_555 1_555
H103 C88 1_555 1_555
H104 C88 1_555 1_555
C89 C88 1_555 1_555
H105 C89 1_555 1_555
H106 C89 1_555 1_555
C90 C89 1_555 1_555
H107 C90 1_555 1_555
H108 C90 1_555 1_555
C91 C90 1_555 1_555
H109 C91 1_555 1_555
H110 C91 1_555 1_555
C92 N19 1_555 1_555
H111 C92 1_555 1_555
C93 N19 1_555 1_555
H112 C93 1_555 1_555
H113 C93 1_555 1_555
C94 N20 1_555 1_555
C95 C94 1_555 1_555
H114 C95 1_555 1_555
C96 C95 1_555 1_555
H115 C96 1_555 1_555
C97 C96 1_555 1_555
H116 C97 1_555 1_555
C98 N20 1_555 1_555
C99 N21 1_555 1_555
H117 C99 1_555 1_555
H118 C99 1_555 1_555
C100 N21 1_555 1_555
H119 C100 1_555 1_555
C101 C100 1_555 1_555
H120 C101 1_555 1_555
H121 C101 1_555 1_555
C102 C101 1_555 1_555
H122 C102 1_555 1_555
H123 C102 1_555 1_555
C103 C102 1_555 1_555
H124 C103 1_555 1_555
H125 C103 1_555 1_555
C104 C103 1_555 1_555
H126 C104 1_555 1_555
H127 C104 1_555 1_555
C105 N22 1_555 1_555
H128 C105 1_555 1_555
C106 N22 1_555 1_555
H129 C106 1_555 1_555
H130 C106 1_555 1_555
C107 N18 1_555 1_555
H131 C107 1_555 1_555
H132 C107 1_555 1_555
C108 N23 1_555 1_555
C109 C108 1_555 1_555
H133 C109 1_555 1_555
C110 C109 1_555 1_555
H134 C110 1_555 1_555
C111 C110 1_555 1_555
H135 C111 1_555 1_555
C112 N23 1_555 1_555
C113 N21 1_555 1_555
H136 C113 1_555 1_555
H137 C113 1_555 1_555
C114 N19 1_555 1_555
H138 C114 1_555 1_555
H139 C114 1_555 1_555
C115 N24 1_555 1_555
C116 C115 1_555 1_555
H140 C116 1_555 1_555
C117 C116 1_555 1_555
H141 C117 1_555 1_555
C118 C117 1_555 1_555
H142 C118 1_555 1_555
C119 N24 1_555 1_555
C120 N22 1_555 1_555
H143 C120 1_555 1_555
H144 C120 1_555 1_555
K4 N25 1_555 1_555
N25 C121 1_555 1_555
N26 K4 1_555 1_555
N27 K4 1_555 1_555
N28 K4 1_555 1_555
N29 K4 1_555 1_555
N30 K4 1_555 1_555
N31 K4 1_555 1_555
N32 K4 1_555 1_555
C121 C122 1_555 1_555
C122 H145 1_555 1_555
C123 C122 1_555 1_555
H146 C123 1_555 1_555
C124 C123 1_555 1_555
H147 C124 1_555 1_555
C125 N25 1_555 1_555
C126 N26 1_555 1_555
H148 C126 1_555 1_555
H149 C126 1_555 1_555
C127 N26 1_555 1_555
H150 C127 1_555 1_555
C128 C127 1_555 1_555
H151 C128 1_555 1_555
H152 C128 1_555 1_555
C129 C128 1_555 1_555
H153 C129 1_555 1_555
H154 C129 1_555 1_555
C130 C129 1_555 1_555
H155 C130 1_555 1_555
H156 C130 1_555 1_555
C131 C130 1_555 1_555
H157 C131 1_555 1_555
H158 C131 1_555 1_555
C132 N27 1_555 1_555
H159 C132 1_555 1_555
C133 N27 1_555 1_555
H160 C133 1_555 1_555
H161 C133 1_555 1_555
C134 N28 1_555 1_555
C135 C134 1_555 1_555
H162 C135 1_555 1_555
C136 C135 1_555 1_555
H163 C136 1_555 1_555
C137 C136 1_555 1_555
H164 C137 1_555 1_555
C138 N28 1_555 1_555
C139 N29 1_555 1_555
H165 C139 1_555 1_555
H166 C139 1_555 1_555
C140 N29 1_555 1_555
H167 C140 1_555 1_555
C141 C140 1_555 1_555
H168 C141 1_555 1_555
H169 C141 1_555 1_555
C142 C141 1_555 1_555
H170 C142 1_555 1_555
H171 C142 1_555 1_555
C143 C142 1_555 1_555
H172 C143 1_555 1_555
H173 C143 1_555 1_555
C144 C143 1_555 1_555
H174 C144 1_555 1_555
H175 C144 1_555 1_555
C145 N30 1_555 1_555
H176 C145 1_555 1_555
C146 N30 1_555 1_555
H177 C146 1_555 1_555
H178 C146 1_555 1_555
C147 N26 1_555 1_555
H179 C147 1_555 1_555
H180 C147 1_555 1_555
C148 N31 1_555 1_555
C149 C148 1_555 1_555
H181 C149 1_555 1_555
C150 C149 1_555 1_555
H182 C150 1_555 1_555
C151 C150 1_555 1_555
H183 C151 1_555 1_555
C152 N31 1_555 1_555
C153 N29 1_555 1_555
H184 C153 1_555 1_555
H185 C153 1_555 1_555
C154 N27 1_555 1_555
H186 C154 1_555 1_555
H187 C154 1_555 1_555
C155 N32 1_555 1_555
C156 C155 1_555 1_555
H188 C156 1_555 1_555
C157 C156 1_555 1_555
H189 C157 1_555 1_555
C158 C157 1_555 1_555
H190 C158 1_555 1_555
C159 N32 1_555 1_555
C160 N30 1_555 1_555
H191 C160 1_555 1_555
H192 C160 1_555 1_555
O1 H193 1_555 1_555
C161 O1 1_555 1_555
H194 C161 1_555 1_555
H195 C161 1_555 1_555
H196 C161 1_555 1_555
O2 H197 1_555 1_555
C162 O2 1_555 1_555
H198 C162 1_555 1_555
H199 C162 1_555 1_555
H200 C162 1_555 1_555
O3 H201 1_555 1_555
C163 O3 1_555 1_555
H202 C163 1_555 1_555
H203 C163 1_555 1_555
H204 C163 1_555 1_555
O4 H205 1_555 1_555
C164 O4 1_555 1_555
H206 C164 1_555 1_555
H207 C164 1_555 1_555
H208 C164 1_555 1_555
C1 C26 1_555 1_555
C4 C5 1_555 1_555
C5 C6 1_555 1_555
C7 C12 1_555 1_555
C11 C12 1_555 1_555
C13 C14 1_555 1_555
C17 C18 1_555 1_555
C18 C19 1_555 1_555
C20 C25 1_555 1_555
C24 C25 1_555 1_555
C27 C28 1_555 1_555
C31 C32 1_555 1_555
C32 C33 1_555 1_555
C34 C35 1_555 1_555
C38 C39 1_555 1_555
C39 C40 1_555 1_555
C41 C66 1_555 1_555
C44 C45 1_555 1_555
C45 C46 1_555 1_555
C47 C52 1_555 1_555
C51 C52 1_555 1_555
C53 C54 1_555 1_555
C57 C58 1_555 1_555
C58 C59 1_555 1_555
C60 C65 1_555 1_555
C64 C65 1_555 1_555
C67 C68 1_555 1_555
C71 C72 1_555 1_555
C72 C73 1_555 1_555
C74 C75 1_555 1_555
C78 C79 1_555 1_555
C79 C80 1_555 1_555
C81 C106 1_555 1_555
C84 C85 1_555 1_555
C85 C86 1_555 1_555
C87 C92 1_555 1_555
C91 C92 1_555 1_555
C93 C94 1_555 1_555
C97 C98 1_555 1_555
C98 C99 1_555 1_555
C100 C105 1_555 1_555
C104 C105 1_555 1_555
C107 C108 1_555 1_555
C111 C112 1_555 1_555
C112 C113 1_555 1_555
C114 C115 1_555 1_555
C118 C119 1_555 1_555
C119 C120 1_555 1_555
C121 C146 1_555 1_555
C124 C125 1_555 1_555
C125 C126 1_555 1_555
C127 C132 1_555 1_555
C131 C132 1_555 1_555
C133 C134 1_555 1_555
C137 C138 1_555 1_555
C138 C139 1_555 1_555
C140 C145 1_555 1_555
C144 C145 1_555 1_555
C147 C148 1_555 1_555
C151 C152 1_555 1_555
C152 C153 1_555 1_555
C154 C155 1_555 1_555
C158 C159 1_555 1_555
C159 C160 1_555 1_555

#END
