
#######################################################################
#
#                 Cambridge Crystallographic Data Centre
#                                CCDC 
#
#######################################################################
#
# If this CIF has been generated from an entry in the Cambridge 
# Structural Database, then it will include bibliographic, chemical, 
# crystal, experimental, refinement or atomic coordinate data resulting 
# from the CCDC's data processing and validation procedures.
#
#######################################################################

data_HEYTIR
_chemical_formula_moiety         
'C40 H48 K1 N8 1+,Br1 1-,0.7(C1 H4 O1),0.9(H2 O1)'
_chemical_name_systematic        
'[1,9,17,25,39,46,47,48-octa-azanonacyclo[15.15.6.6^9,25^.1^3,7^.1^11,15^.1^19,23^.1^27,31^.0^33,38^.0^40,45^]octatetraconta-3(48),4,6,11(47),12,14,19(46),20,22,27(39),28,30-dodecaene]-potassium bromide methanol solvate hydrate'
_symmetry_cell_setting           monoclinic
_symmetry_space_group_name_H-M   'P 21'
_symmetry_Int_Tables_number      4
_space_group_name_Hall           'P 2yb'
loop_
_symmetry_equiv_pos_site_id
_symmetry_equiv_pos_as_xyz
1 x,y,z
2 -x,1/2+y,-z
_cell_length_a                   12.092(4)
_cell_length_b                   27.403(8)
_cell_length_c                   23.358(9)
_cell_angle_alpha                90
_cell_angle_beta                 93.30(3)
_cell_angle_gamma                90
_cell_volume                     7727
_exptl_crystal_colour            colorless
_exptl_crystal_description       plate
_cell_formula_units_Z            8
loop_
_atom_site_label
_atom_site_type_symbol
_atom_site_fract_x
_atom_site_fract_y
_atom_site_fract_z
K1 K 0.0548(2) 0.24589(12) 0.92853(13)
N1 N 0.2536(8) 0.2145(4) 0.9160(5)
N2 N 0.1967(7) 0.2580(3) 1.0225(4)
N3 N -0.0373(7) 0.2166(3) 1.0275(4)
N4 N -0.1457(7) 0.2782(3) 0.9348(4)
N5 N -0.0287(7) 0.3015(3) 0.8360(4)
N6 N 0.0901(7) 0.2085(3) 0.8183(4)
N7 N 0.1453(7) 0.3306(3) 0.9319(4)
N8 N -0.0261(7) 0.1577(3) 0.9190(4)
C1 C 0.2862(9) 0.2007(4) 0.8643(6)
C2 C 0.3879(10) 0.1768(5) 0.8569(6)
H1 H 0.4089 0.1660 0.8204
C3 C 0.4551(10) 0.1701(6) 0.9065(7)
H2 H 0.5249 0.1547 0.9035
C4 C 0.4246(9) 0.1849(4) 0.9605(6)
H3 H 0.4717 0.1803 0.9940
C5 C 0.3211(9) 0.2070(4) 0.9624(6)
C6 C 0.2759(9) 0.2169(4) 1.0200(5)
H4 H 0.2387 0.1869 1.0327
H5 H 0.3391 0.2233 1.0479
C7 C 0.1341(9) 0.2568(4) 1.0757(5)
H6 H 0.0918 0.2881 1.0768
C8 C 0.2123(9) 0.2560(5) 1.1298(5)
H7 H 0.2592 0.2856 1.1301
H8 H 0.2618 0.2273 1.1278
C9 C 0.1531(10) 0.2538(4) 1.1868(5)
H9 H 0.2089 0.2507 1.2193
H10 H 0.1112 0.2844 1.1919
C10 C 0.0750(10) 0.2109(4) 1.1865(5)
H11 H 0.0356 0.2105 1.2225
H12 H 0.1173 0.1801 1.1841
C11 C -0.0077(10) 0.2151(4) 1.1357(5)
H13 H -0.0509 0.2455 1.1392
H14 H -0.0600 0.1873 1.1362
C12 C 0.0483(8) 0.2154(4) 1.0768(5)
H15 H 0.0897 0.1839 1.0740
C13 C -0.1242(9) 0.2535(4) 1.0353(5)
H16 H -0.0882 0.2842 1.0489
H17 H -0.1716 0.2421 1.0658
C14 C -0.1976(9) 0.2647(4) 0.9823(5)
C15 C -0.3114(9) 0.2638(4) 0.9834(5)
H18 H -0.3463 0.2541 1.0169
C16 C -0.3725(9) 0.2771(4) 0.9354(6)
H19 H -0.4510 0.2769 0.9353
C17 C -0.3210(9) 0.2909(4) 0.8863(6)
H20 H -0.3634 0.3010 0.8529
C18 C -0.2071(9) 0.2896(4) 0.8871(6)
C19 C -0.1519(8) 0.3004(4) 0.8315(5)
H21 H -0.1759 0.2753 0.8029
H22 H -0.1789 0.3323 0.8167
C20 C 0.0180(9) 0.2880(4) 0.7796(5)
H23 H 0.0959 0.3005 0.7806
C21 C -0.0467(9) 0.3131(4) 0.7266(5)
H24 H -0.1256 0.3033 0.7256
H25 H -0.0432 0.3490 0.7312
C22 C 0.0028(10) 0.2987(5) 0.6700(6)
H26 H -0.0384 0.3151 0.6376
H27 H 0.0812 0.3093 0.6703
C23 C -0.0041(10) 0.2439(4) 0.6622(6)
H28 H 0.0263 0.2344 0.6253
H29 H -0.0823 0.2331 0.6618
C24 C 0.0635(9) 0.2197(5) 0.7125(5)
H30 H 0.1419 0.2298 0.7109
H31 H 0.0603 0.1839 0.7075
C25 C 0.0237(9) 0.2325(4) 0.7728(5)
H32 H -0.0536 0.2198 0.7743
C26 C 0.2115(9) 0.2121(5) 0.8114(5)
H33 H 0.2282 0.2456 0.7986
H34 H 0.2308 0.1895 0.7804
C27 C 0.2566(9) 0.3049(4) 1.0173(5)
H35 H 0.3357 0.2997 1.0289
H36 H 0.2267 0.3288 1.0442
C28 C 0.2481(9) 0.3264(4) 0.9575(5)
C29 C 0.3396(10) 0.3422(4) 0.9294(6)
H37 H 0.4118 0.3389 0.9473
C30 C 0.3260(10) 0.3625(4) 0.8759(6)
H38 H 0.3881 0.3746 0.8571
C31 C 0.2179(9) 0.3654(4) 0.8489(5)
H39 H 0.2061 0.3780 0.8112
C32 C 0.1311(9) 0.3492(4) 0.8791(5)
C33 C 0.0116(8) 0.3502(4) 0.8545(5)
H40 H -0.0365 0.3630 0.8839
H41 H 0.0061 0.3727 0.8213
C34 C -0.0855(9) 0.1679(4) 1.0158(5)
H42 H -0.1532 0.1642 1.0373
H43 H -0.0320 0.1426 1.0297
C35 C -0.1151(9) 0.1595(4) 0.9516(5)
C36 C -0.2232(9) 0.1547(4) 0.9291(6)
H44 H -0.2836 0.1551 0.9534
C37 C -0.2405(9) 0.1493(4) 0.8708(5)
H45 H -0.3134 0.1457 0.8539
C38 C -0.1508(9) 0.1491(4) 0.8371(6)
H46 H -0.1619 0.1459 0.7967
C39 C -0.0451(9) 0.1534(4) 0.8617(5)
C40 C 0.0573(9) 0.1568(4) 0.8275(5)
H47 H 0.1191 0.1393 0.8482
H48 H 0.0427 0.1407 0.7899
K2 K 0.4106(2) 0.36328(12) 0.47263(13)
N9 N 0.6059(8) 0.3304(3) 0.4547(5)
N10 N 0.5491(8) 0.3703(4) 0.5699(5)
N11 N 0.3118(7) 0.3310(3) 0.5693(4)
N12 N 0.2158(8) 0.3984(4) 0.4821(5)
N13 N 0.3292(7) 0.4249(4) 0.3833(4)
N14 N 0.4442(7) 0.3300(3) 0.3617(4)
N15 N 0.4979(9) 0.4502(3) 0.4865(5)
N16 N 0.3140(7) 0.2784(3) 0.4595(4)
C41 C 0.6438(9) 0.3326(4) 0.4034(6)
C42 C 0.7544(10) 0.3381(4) 0.3938(6)
H49 H 0.7791 0.3393 0.3560
C43 C 0.8275(10) 0.3418(4) 0.4406(7)
H50 H 0.9043 0.3458 0.4354
C44 C 0.7902(9) 0.3398(5) 0.4956(6)
H51 H 0.8406 0.3421 0.5282
C45 C 0.6779(9) 0.3343(4) 0.5018(6)
C46 C 0.6322(9) 0.3307(4) 0.5599(5)
H52 H 0.6938 0.3329 0.5896
H53 H 0.5963 0.2985 0.5637
C47 C 0.4892(9) 0.3602(5) 0.6234(6)
H54 H 0.4518 0.3915 0.6331
C48 C 0.5678(11) 0.3479(5) 0.6752(6)
H55 H 0.6259 0.3733 0.6793
H56 H 0.6047 0.3164 0.6682
C49 C 0.5085(12) 0.3444(6) 0.7316(6)
H57 H 0.5629 0.3375 0.7639
H58 H 0.4713 0.3757 0.7393
C50 C 0.4233(11) 0.3034(5) 0.7259(6)
H59 H 0.3831 0.3010 0.7615
H60 H 0.4611 0.2719 0.7199
C51 C 0.3410(10) 0.3141(4) 0.6746(6)
H61 H 0.2984 0.3438 0.6831
H62 H 0.2878 0.2867 0.6704
C52 C 0.3966(9) 0.3215(4) 0.6167(5)
H63 H 0.4332 0.2900 0.6077
C53 C 0.2399(10) 0.3725(4) 0.5828(6)
H64 H 0.2874 0.3986 0.6003
H65 H 0.1895 0.3616 0.6122
C54 C 0.1694(10) 0.3948(4) 0.5329(6)
C55 C 0.0649(10) 0.4120(5) 0.5429(7)
H66 H 0.0338 0.4070 0.5789
C56 C 0.0093(10) 0.4358(6) 0.5010(7)
H67 H -0.0613 0.4493 0.5074
C57 C 0.0544(9) 0.4410(5) 0.4471(6)
H68 H 0.0138 0.4571 0.4166
C58 C 0.1590(9) 0.4224(5) 0.4392(6)
C59 C 0.2086(8) 0.4247(5) 0.3819(5)
H69 H 0.1814 0.3964 0.3588
H70 H 0.1812 0.4546 0.3619
C60 C 0.3724(10) 0.4114(4) 0.3278(6)
H71 H 0.4516 0.4221 0.3288
C61 C 0.3113(9) 0.4387(4) 0.2772(5)
H72 H 0.2309 0.4321 0.2779
H73 H 0.3225 0.4742 0.2824
C62 C 0.3507(9) 0.4239(4) 0.2190(6)
H74 H 0.3094 0.4425 0.1883
H75 H 0.4304 0.4315 0.2171
C63 C 0.3320(9) 0.3698(4) 0.2100(6)
H76 H 0.2523 0.3620 0.2121
H77 H 0.3552 0.3600 0.1717
C64 C 0.3987(10) 0.3425(4) 0.2559(6)
H78 H 0.4783 0.3487 0.2512
H79 H 0.3856 0.3071 0.2504
C65 C 0.3712(9) 0.3564(4) 0.3188(6)
H80 H 0.2938 0.3452 0.3240
C66 C 0.5612(8) 0.3329(4) 0.3509(5)
H81 H 0.5733 0.3632 0.3290
H82 H 0.5792 0.3051 0.3260
C67 C 0.6005(10) 0.4199(5) 0.5700(6)
H83 H 0.5606 0.4413 0.5960
H84 H 0.6783 0.4174 0.5853
C68 C 0.5985(11) 0.4426(4) 0.5125(6)
C69 C 0.6917(11) 0.4566(5) 0.4867(6)
H85 H 0.7616 0.4521 0.5067
C70 C 0.6888(12) 0.4767(5) 0.4340(8)
H86 H 0.7549 0.4860 0.4167
C71 C 0.5862(12) 0.4833(4) 0.4060(6)
H87 H 0.5796 0.4972 0.3687
C72 C 0.4911(10) 0.4688(4) 0.4344(6)
C73 C 0.3744(10) 0.4727(4) 0.4057(6)
H88 H 0.3239 0.4859 0.4339
H89 H 0.3757 0.4962 0.3736
C74 C 0.2494(9) 0.2875(4) 0.5539(6)
H90 H 0.1781 0.2885 0.5727
H91 H 0.2911 0.2587 0.5689
C75 C 0.2253(9) 0.2809(4) 0.4891(6)
C76 C 0.1188(10) 0.2791(4) 0.4630(6)
H92 H 0.0563 0.2825 0.4856
C77 C 0.1036(10) 0.2723(4) 0.4047(6)
H93 H 0.0319 0.2680 0.3867
C78 C 0.1965(9) 0.2722(4) 0.3737(5)
H94 H 0.1898 0.2696 0.3331
C79 C 0.3010(9) 0.2760(4) 0.4020(6)
C80 C 0.4097(9) 0.2783(4) 0.3704(6)
H95 H 0.4689 0.2607 0.3931
H96 H 0.3989 0.2618 0.3328
K3 K 0.4115(2) 0.61769(12) 0.56479(12)
N17 N 0.5022(8) 0.6495(4) 0.6610(4)
N18 N 0.6364(6) 0.6068(3) 0.5726(4)
N19 N 0.5083(7) 0.6486(3) 0.4684(4)
N20 N 0.3073(7) 0.5866(3) 0.4728(4)
N21 N 0.2240(7) 0.5603(3) 0.5807(4)
N22 N 0.2671(7) 0.6532(4) 0.6456(4)
N23 N 0.4747(7) 0.5326(3) 0.6010(4)
N24 N 0.3499(7) 0.7058(3) 0.5364(4)
C81 C 0.4458(8) 0.6570(4) 0.7082(5)
C82 C 0.4978(10) 0.6685(4) 0.7609(6)
H97 H 0.4566 0.6734 0.7939
C83 C 0.6144(10) 0.6727(5) 0.7635(5)
H98 H 0.6531 0.6811 0.7987
C84 C 0.6719(10) 0.6647(4) 0.7154(6)
H99 H 0.7505 0.6667 0.7168
C85 C 0.6115(10) 0.6536(4) 0.6646(6)
C86 C 0.6682(9) 0.6492(4) 0.6079(5)
H100 H 0.6517 0.6790 0.5851
H101 H 0.7493 0.6481 0.6164
C87 C 0.6829(8) 0.6090(4) 0.5158(5)
H102 H 0.6635 0.5776 0.4958
C88 C 0.8131(8) 0.6132(4) 0.5193(5)
H103 H 0.8352 0.6435 0.5399
H104 H 0.8448 0.5853 0.5416
C89 C 0.8612(9) 0.6136(5) 0.4599(5)
H105 H 0.9430 0.6158 0.4642
H106 H 0.8415 0.5829 0.4394
C90 C 0.8162(9) 0.6563(5) 0.4258(6)
H107 H 0.8491 0.6571 0.3880
H108 H 0.8358 0.6871 0.4462
C91 C 0.6902(9) 0.6516(4) 0.4177(5)
H109 H 0.6716 0.6211 0.3967
H110 H 0.6607 0.6793 0.3943
C92 C 0.6327(8) 0.6511(4) 0.4772(5)
H111 H 0.6513 0.6827 0.4971
C93 C 0.4716(8) 0.6122(4) 0.4244(5)
H112 H 0.5160 0.5822 0.4311
H113 H 0.4892 0.6252 0.3864
C94 C 0.3495(10) 0.5981(4) 0.4216(6)
C95 C 0.2881(10) 0.5966(4) 0.3709(6)
H114 H 0.3186 0.6078 0.3367
C96 C 0.1808(9) 0.5788(5) 0.3695(6)
H115 H 0.1378 0.5752 0.3344
C97 C 0.1387(9) 0.5663(4) 0.4218(6)
H116 H 0.0652 0.5543 0.4228
C98 C 0.2051(9) 0.5715(5) 0.4733(5)
C99 C 0.1501(8) 0.5627(4) 0.5284(5)
H117 H 0.0955 0.5890 0.5333
H118 H 0.1086 0.5316 0.5248
C100 C 0.1660(9) 0.5734(4) 0.6334(5)
H119 H 0.2127 0.5607 0.6668
C101 C 0.0532(8) 0.5481(5) 0.6347(5)
H120 H 0.0075 0.5571 0.5998
H121 H 0.0645 0.5123 0.6339
C102 C -0.0099(9) 0.5611(5) 0.6874(6)
H122 H 0.0326 0.5503 0.7226
H123 H -0.0826 0.5444 0.6855
C103 C -0.0269(9) 0.6165(5) 0.6888(6)
H124 H -0.0688 0.6255 0.7224
H125 H -0.0699 0.6272 0.6537
C104 C 0.0879(9) 0.6420(5) 0.6927(5)
H126 H 0.0772 0.6778 0.6937
H127 H 0.1290 0.6322 0.7287
C105 C 0.1570(9) 0.6287(4) 0.6413(5)
H128 H 0.1161 0.6418 0.6062
C106 C 0.3222(9) 0.6489(4) 0.7048(5)
H129 H 0.3071 0.6159 0.7199
H130 H 0.2880 0.6729 0.7301
C107 C 0.6630(8) 0.5604(4) 0.6013(5)
H131 H 0.7266 0.5655 0.6293
H132 H 0.6863 0.5366 0.5724
C108 C 0.5673(9) 0.5388(4) 0.6323(6)
C109 C 0.5783(10) 0.5229(4) 0.6899(6)
H133 H 0.6461 0.5275 0.7118
C110 C 0.4900(9) 0.5006(4) 0.7141(6)
H134 H 0.4969 0.4885 0.7523
C111 C 0.3905(10) 0.4962(4) 0.6815(6)
H135 H 0.3273 0.4820 0.6972
C112 C 0.3860(9) 0.5132(4) 0.6248(6)
C113 C 0.2792(9) 0.5120(4) 0.5852(5)
H136 H 0.2977 0.5011 0.5465
H137 H 0.2272 0.4879 0.6004
C114 C 0.4616(8) 0.6983(4) 0.4544(5)
H138 H 0.4536 0.7025 0.4123
H139 H 0.5132 0.7237 0.4701
C115 C 0.3493(9) 0.7046(4) 0.4798(6)
C116 C 0.2520(10) 0.7075(4) 0.4450(6)
H140 H 0.2536 0.7071 0.4044
C117 C 0.1530(10) 0.7110(5) 0.4715(6)
H141 H 0.0850 0.7129 0.4491
C118 C 0.1528(10) 0.7118(4) 0.5304(5)
H142 H 0.0857 0.7144 0.5494
C119 C 0.2546(10) 0.7086(4) 0.5612(6)
C120 C 0.2611(9) 0.7048(4) 0.6258(5)
H143 H 0.3275 0.7225 0.6415
H144 H 0.1951 0.7205 0.6409
K4 K 0.9296(2) 0.49679(11) 0.97895(12)
N25 N 0.8304(7) 0.4604(3) 0.8877(4)
N26 N 1.0223(7) 0.5281(3) 0.8799(4)
N27 N 1.1570(7) 0.4904(3) 0.9854(4)
N28 N 1.0144(7) 0.5309(3) 1.0742(4)
N29 N 0.7812(7) 0.5302(3) 1.0560(4)
N30 N 0.7449(6) 0.4358(3) 0.9941(4)
N31 N 0.8564(7) 0.5810(3) 0.9439(5)
N32 N 0.9970(7) 0.4112(3) 1.0131(4)
C121 C 0.7276(9) 0.4416(4) 0.8846(5)
C122 C 0.6734(8) 0.4289(4) 0.8349(5)
H145 H 0.6015 0.4149 0.8349
C123 C 0.7228(10) 0.4364(5) 0.7839(5)
H146 H 0.6851 0.4275 0.7487
C124 C 0.8254(9) 0.4564(4) 0.7842(5)
H147 H 0.8604 0.4621 0.7495
C125 C 0.8780(9) 0.4683(4) 0.8370(6)
C126 C 0.9979(8) 0.4867(4) 0.8424(5)
H148 H 1.0456 0.4592 0.8559
H149 H 1.0198 0.4954 0.8035
C127 C 1.1443(9) 0.5347(4) 0.8899(5)
H150 H 1.1554 0.5664 0.9106
C128 C 1.2035(8) 0.5399(4) 0.8318(5)
H151 H 1.1886 0.5100 0.8088
H152 H 1.1699 0.5677 0.8101
C129 C 1.3273(9) 0.5476(4) 0.8381(5)
H153 H 1.3441 0.5790 0.8576
H154 H 1.3583 0.5485 0.7998
C130 C 1.3781(9) 0.5059(4) 0.8729(5)
H155 H 1.4594 0.5103 0.8773
H156 H 1.3627 0.4747 0.8527
C131 C 1.3301(8) 0.5042(5) 0.9322(5)
H157 H 1.3465 0.5353 0.9526
H158 H 1.3660 0.4775 0.9550
C132 C 1.2018(8) 0.4958(4) 0.9274(5)
H159 H 1.1891 0.4639 0.9072
C133 C 1.1850(9) 0.5306(4) 1.0252(5)
H160 H 1.1677 0.5619 1.0052
H161 H 1.2658 0.5300 1.0347
C134 C 1.1265(9) 0.5298(4) 1.0798(6)
C135 C 1.1816(10) 0.5268(4) 1.1310(6)
H162 H 1.2602 0.5264 1.1337
C136 C 1.1210(10) 0.5243(4) 1.1815(6)
H163 H 1.1589 0.5225 1.2182
C137 C 1.0087(9) 0.5244(4) 1.1765(6)
H164 H 0.9663 0.5220 1.2094
C138 C 0.9567(9) 0.5282(4) 1.1213(6)
C139 C 0.8337(9) 0.5276(4) 1.1150(5)
H165 H 0.8077 0.4974 1.1331
H166 H 0.8059 0.5554 1.1371
C140 C 0.6725(9) 0.5050(4) 1.0515(6)
H167 H 0.6337 0.5166 1.0151
C141 C 0.5957(9) 0.5185(4) 1.1008(5)
H168 H 0.6363 0.5122 1.1381
H169 H 0.5793 0.5539 1.0986
C142 C 0.4860(9) 0.4903(4) 1.0989(6)
H170 H 0.4436 0.4997 1.1323
H171 H 0.4412 0.4990 1.0636
C143 C 0.5073(9) 0.4358(4) 1.1001(6)
H172 H 0.4361 0.4179 1.0992
H173 H 0.5508 0.4269 1.1358
C144 C 0.5718(8) 0.4221(4) 1.0475(5)
H174 H 0.5259 0.4300 1.0122
H175 H 0.5853 0.3865 1.0478
C145 C 0.6841(9) 0.4489(4) 1.0456(5)
H176 H 0.7308 0.4376 1.0797
C146 C 0.6735(9) 0.4365(4) 0.9432(5)
H177 H 0.6208 0.4639 0.9465
H178 H 0.6296 0.4060 0.9422
C147 C 0.9649(8) 0.5728(4) 0.8609(5)
H179 H 0.9536 0.5723 0.8186
H180 H 1.0122 0.6012 0.8715
C148 C 0.8526(9) 0.5789(4) 0.8872(5)
C149 C 0.7557(9) 0.5843(4) 0.8551(5)
H181 H 0.7548 0.5840 0.8144
C150 C 0.6574(10) 0.5903(4) 0.8832(6)
H182 H 0.5890 0.5945 0.8616
C151 C 0.6604(10) 0.5903(4) 0.9418(6)
H183 H 0.5940 0.5938 0.9613
C152 C 0.7634(9) 0.5849(4) 0.9732(6)
C153 C 0.7760(9) 0.5811(4) 1.0360(5)
H184 H 0.7127 0.5976 1.0529
H185 H 0.8445 0.5983 1.0498
C154 C 1.1878(8) 0.4435(4) 1.0130(5)
H186 H 1.2512 0.4489 1.0410
H187 H 1.2122 0.4205 0.9835
C155 C 1.0924(9) 0.4200(4) 1.0441(5)
C156 C 1.1058(10) 0.4075(4) 1.1018(5)
H188 H 1.1743 0.4124 1.1230
C157 C 1.0136(10) 0.3872(4) 1.1274(6)
H189 H 1.0183 0.3780 1.1667
C158 C 0.9164(10) 0.3811(4) 1.0942(6)
H190 H 0.8528 0.3681 1.1108
C159 C 0.9115(9) 0.3934(4) 1.0386(5)
C160 C 0.8048(9) 0.3891(4) 1.0018(5)
H191 H 0.8219 0.3763 0.9636
H192 H 0.7559 0.3652 1.0196
Br1 Br 0.61812(11) 0.16920(9) 1.09098(7)
Br2 Br 0.11988(9) 0.42922(8) 0.71159(6)
Br3 Br -0.02385(19) 0.39129(14) 0.28894(11)
O1 O -0.0850(11) 0.2750(5) 0.2837(6)
H193 H -0.0600 0.3032 0.2897
C161 C -0.1740(14) 0.2769(9) 0.2421(7)
H194 H -0.2417 0.2864 0.2604
H195 H -0.1846 0.2447 0.2244
H196 H -0.1578 0.3009 0.2127
Br4 Br 0.4510(2) 0.57571(13) 0.23676(13)
Br5 Br 0.3322(3) 0.70896(16) 0.28044(18)
O2 O -0.3028(6) 0.4421(4) 0.2534(4)
H197 H -0.3492 0.4625 0.2400
C162 C -0.2347(12) 0.4270(7) 0.2098(5)
H198 H -0.1769 0.4515 0.2050
H199 H -0.2795 0.4234 0.1738
H200 H -0.2003 0.3957 0.2204
O3 O 0.5087(11) 0.2780(5) 1.1057(6)
H201 H 0.4893 0.2512 1.1192
C163 C 0.5898(13) 0.2996(7) 1.1433(7)
H202 H 0.5954 0.3345 1.1346
H203 H 0.6615 0.2839 1.1386
H204 H 0.5691 0.2955 1.1830
O4 O -0.1279(10) 0.4152(6) 0.6455(6)
O5 O 0.7514(19) 0.5930(9) 0.2774(12)
O6 O -0.0952(9) 0.5101(5) 0.3336(6)
Br6? Br -0.0031(10) 0.3433(5) 0.2863(6)
O7? O -0.254(6) 0.2564(19) 0.199(3)
H205? H -0.3199 0.2486 0.2042
C164? C -0.229(9) 0.301(2) 0.227(4)
H206? H -0.2419 0.2971 0.2682
H207? H -0.2757 0.3269 0.2110
H208? H -0.1506 0.3090 0.2232
O8? O 0.4505(13) 0.6817(6) 0.2842(8)
O9? O -0.1411(18) 0.4506(11) 0.6387(11)
O10? O 0.6910(16) 0.5624(8) 0.2960(9)
O11? O -0.139(2) 0.5508(12) 0.3148(15)
loop_
_geom_bond_atom_site_label_1
_geom_bond_atom_site_label_2
_geom_bond_site_symmetry_1
_geom_bond_site_symmetry_2
K1 N1 1_555 1_555
N1 C1 1_555 1_555
N2 K1 1_555 1_555
N3 K1 1_555 1_555
N4 K1 1_555 1_555
N5 K1 1_555 1_555
N6 K1 1_555 1_555
N7 K1 1_555 1_555
N8 K1 1_555 1_555
C1 C2 1_555 1_555
C2 H1 1_555 1_555
C3 C2 1_555 1_555
H2 C3 1_555 1_555
C4 C3 1_555 1_555
H3 C4 1_555 1_555
C5 N1 1_555 1_555
C6 N2 1_555 1_555
H4 C6 1_555 1_555
H5 C6 1_555 1_555
C7 N2 1_555 1_555
H6 C7 1_555 1_555
C8 C7 1_555 1_555
H7 C8 1_555 1_555
H8 C8 1_555 1_555
C9 C8 1_555 1_555
H9 C9 1_555 1_555
H10 C9 1_555 1_555
C10 C9 1_555 1_555
H11 C10 1_555 1_555
H12 C10 1_555 1_555
C11 C10 1_555 1_555
H13 C11 1_555 1_555
H14 C11 1_555 1_555
C12 N3 1_555 1_555
H15 C12 1_555 1_555
C13 N3 1_555 1_555
H16 C13 1_555 1_555
H17 C13 1_555 1_555
C14 N4 1_555 1_555
C15 C14 1_555 1_555
H18 C15 1_555 1_555
C16 C15 1_555 1_555
H19 C16 1_555 1_555
C17 C16 1_555 1_555
H20 C17 1_555 1_555
C18 N4 1_555 1_555
C19 N5 1_555 1_555
H21 C19 1_555 1_555
H22 C19 1_555 1_555
C20 N5 1_555 1_555
H23 C20 1_555 1_555
C21 C20 1_555 1_555
H24 C21 1_555 1_555
H25 C21 1_555 1_555
C22 C21 1_555 1_555
H26 C22 1_555 1_555
H27 C22 1_555 1_555
C23 C22 1_555 1_555
H28 C23 1_555 1_555
H29 C23 1_555 1_555
C24 C23 1_555 1_555
H30 C24 1_555 1_555
H31 C24 1_555 1_555
C25 N6 1_555 1_555
H32 C25 1_555 1_555
C26 N6 1_555 1_555
H33 C26 1_555 1_555
H34 C26 1_555 1_555
C27 N2 1_555 1_555
H35 C27 1_555 1_555
H36 C27 1_555 1_555
C28 N7 1_555 1_555
C29 C28 1_555 1_555
H37 C29 1_555 1_555
C30 C29 1_555 1_555
H38 C30 1_555 1_555
C31 C30 1_555 1_555
H39 C31 1_555 1_555
C32 N7 1_555 1_555
C33 N5 1_555 1_555
H40 C33 1_555 1_555
H41 C33 1_555 1_555
C34 N3 1_555 1_555
H42 C34 1_555 1_555
H43 C34 1_555 1_555
C35 N8 1_555 1_555
C36 C35 1_555 1_555
H44 C36 1_555 1_555
C37 C36 1_555 1_555
H45 C37 1_555 1_555
C38 C37 1_555 1_555
H46 C38 1_555 1_555
C39 N8 1_555 1_555
C40 N6 1_555 1_555
H47 C40 1_555 1_555
H48 C40 1_555 1_555
K2 N9 1_555 1_555
N9 C41 1_555 1_555
N10 K2 1_555 1_555
N11 K2 1_555 1_555
N12 K2 1_555 1_555
N13 K2 1_555 1_555
N14 K2 1_555 1_555
N15 K2 1_555 1_555
N16 K2 1_555 1_555
C41 C42 1_555 1_555
C42 H49 1_555 1_555
C43 C42 1_555 1_555
H50 C43 1_555 1_555
C44 C43 1_555 1_555
H51 C44 1_555 1_555
C45 N9 1_555 1_555
C46 N10 1_555 1_555
H52 C46 1_555 1_555
H53 C46 1_555 1_555
C47 N10 1_555 1_555
H54 C47 1_555 1_555
C48 C47 1_555 1_555
H55 C48 1_555 1_555
H56 C48 1_555 1_555
C49 C48 1_555 1_555
H57 C49 1_555 1_555
H58 C49 1_555 1_555
C50 C49 1_555 1_555
H59 C50 1_555 1_555
H60 C50 1_555 1_555
C51 C50 1_555 1_555
H61 C51 1_555 1_555
H62 C51 1_555 1_555
C52 N11 1_555 1_555
H63 C52 1_555 1_555
C53 N11 1_555 1_555
H64 C53 1_555 1_555
H65 C53 1_555 1_555
C54 N12 1_555 1_555
C55 C54 1_555 1_555
H66 C55 1_555 1_555
C56 C55 1_555 1_555
H67 C56 1_555 1_555
C57 C56 1_555 1_555
H68 C57 1_555 1_555
C58 N12 1_555 1_555
C59 N13 1_555 1_555
H69 C59 1_555 1_555
H70 C59 1_555 1_555
C60 N13 1_555 1_555
H71 C60 1_555 1_555
C61 C60 1_555 1_555
H72 C61 1_555 1_555
H73 C61 1_555 1_555
C62 C61 1_555 1_555
H74 C62 1_555 1_555
H75 C62 1_555 1_555
C63 C62 1_555 1_555
H76 C63 1_555 1_555
H77 C63 1_555 1_555
C64 C63 1_555 1_555
H78 C64 1_555 1_555
H79 C64 1_555 1_555
C65 N14 1_555 1_555
H80 C65 1_555 1_555
C66 N14 1_555 1_555
H81 C66 1_555 1_555
H82 C66 1_555 1_555
C67 N10 1_555 1_555
H83 C67 1_555 1_555
H84 C67 1_555 1_555
C68 N15 1_555 1_555
C69 C68 1_555 1_555
H85 C69 1_555 1_555
C70 C69 1_555 1_555
H86 C70 1_555 1_555
C71 C70 1_555 1_555
H87 C71 1_555 1_555
C72 N15 1_555 1_555
C73 N13 1_555 1_555
H88 C73 1_555 1_555
H89 C73 1_555 1_555
C74 N11 1_555 1_555
H90 C74 1_555 1_555
H91 C74 1_555 1_555
C75 N16 1_555 1_555
C76 C75 1_555 1_555
H92 C76 1_555 1_555
C77 C76 1_555 1_555
H93 C77 1_555 1_555
C78 C77 1_555 1_555
H94 C78 1_555 1_555
C79 N16 1_555 1_555
C80 N14 1_555 1_555
H95 C80 1_555 1_555
H96 C80 1_555 1_555
K3 N17 1_555 1_555
N17 C81 1_555 1_555
N18 K3 1_555 1_555
N19 K3 1_555 1_555
N20 K3 1_555 1_555
N21 K3 1_555 1_555
N22 K3 1_555 1_555
N23 K3 1_555 1_555
N24 K3 1_555 1_555
C81 C82 1_555 1_555
C82 H97 1_555 1_555
C83 C82 1_555 1_555
H98 C83 1_555 1_555
C84 C83 1_555 1_555
H99 C84 1_555 1_555
C85 N17 1_555 1_555
C86 N18 1_555 1_555
H100 C86 1_555 1_555
H101 C86 1_555 1_555
C87 N18 1_555 1_555
H102 C87 1_555 1_555
C88 C87 1_555 1_555
H103 C88 1_555 1_555
H104 C88 1_555 1_555
C89 C88 1_555 1_555
H105 C89 1_555 1_555
H106 C89 1_555 1_555
C90 C89 1_555 1_555
H107 C90 1_555 1_555
H108 C90 1_555 1_555
C91 C90 1_555 1_555
H109 C91 1_555 1_555
H110 C91 1_555 1_555
C92 N19 1_555 1_555
H111 C92 1_555 1_555
C93 N19 1_555 1_555
H112 C93 1_555 1_555
H113 C93 1_555 1_555
C94 N20 1_555 1_555
C95 C94 1_555 1_555
H114 C95 1_555 1_555
C96 C95 1_555 1_555
H115 C96 1_555 1_555
C97 C96 1_555 1_555
H116 C97 1_555 1_555
C98 N20 1_555 1_555
C99 N21 1_555 1_555
H117 C99 1_555 1_555
H118 C99 1_555 1_555
C100 N21 1_555 1_555
H119 C100 1_555 1_555
C101 C100 1_555 1_555
H120 C101 1_555 1_555
H121 C101 1_555 1_555
C102 C101 1_555 1_555
H122 C102 1_555 1_555
H123 C102 1_555 1_555
C103 C102 1_555 1_555
H124 C103 1_555 1_555
H125 C103 1_555 1_555
C104 C103 1_555 1_555
H126 C104 1_555 1_555
H127 C104 1_555 1_555
C105 N22 1_555 1_555
H128 C105 1_555 1_555
C106 N22 1_555 1_555
H129 C106 1_555 1_555
H130 C106 1_555 1_555
C107 N18 1_555 1_555
H131 C107 1_555 1_555
H132 C107 1_555 1_555
C108 N23 1_555 1_555
C109 C108 1_555 1_555
H133 C109 1_555 1_555
C110 C109 1_555 1_555
H134 C110 1_555 1_555
C111 C110 1_555 1_555
H135 C111 1_555 1_555
C112 N23 1_555 1_555
C113 N21 1_555 1_555
H136 C113 1_555 1_555
H137 C113 1_555 1_555
C114 N19 1_555 1_555
H138 C114 1_555 1_555
H139 C114 1_555 1_555
C115 N24 1_555 1_555
C116 C115 1_555 1_555
H140 C116 1_555 1_555
C117 C116 1_555 1_555
H141 C117 1_555 1_555
C118 C117 1_555 1_555
H142 C118 1_555 1_555
C119 N24 1_555 1_555
C120 N22 1_555 1_555
H143 C120 1_555 1_555
H144 C120 1_555 1_555
K4 N25 1_555 1_555
N25 C121 1_555 1_555
N26 K4 1_555 1_555
N27 K4 1_555 1_555
N28 K4 1_555 1_555
N29 K4 1_555 1_555
N30 K4 1_555 1_555
N31 K4 1_555 1_555
N32 K4 1_555 1_555
C121 C122 1_555 1_555
C122 H145 1_555 1_555
C123 C122 1_555 1_555
H146 C123 1_555 1_555
C124 C123 1_555 1_555
H147 C124 1_555 1_555
C125 N25 1_555 1_555
C126 N26 1_555 1_555
H148 C126 1_555 1_555
H149 C126 1_555 1_555
C127 N26 1_555 1_555
H150 C127 1_555 1_555
C128 C127 1_555 1_555
H151 C128 1_555 1_555
H152 C128 1_555 1_555
C129 C128 1_555 1_555
H153 C129 1_555 1_555
H154 C129 1_555 1_555
C130 C129 1_555 1_555
H155 C130 1_555 1_555
H156 C130 1_555 1_555
C131 C130 1_555 1_555
H157 C131 1_555 1_555
H158 C131 1_555 1_555
C132 N27 1_555 1_555
H159 C132 1_555 1_555
C133 N27 1_555 1_555
H160 C133 1_555 1_555
H161 C133 1_555 1_555
C134 N28 1_555 1_555
C135 C134 1_555 1_555
H162 C135 1_555 1_555
C136 C135 1_555 1_555
H163 C136 1_555 1_555
C137 C136 1_555 1_555
H164 C137 1_555 1_555
C138 N28 1_555 1_555
C139 N29 1_555 1_555
H165 C139 1_555 1_555
H166 C139 1_555 1_555
C140 N29 1_555 1_555
H167 C140 1_555 1_555
C141 C140 1_555 1_555
H168 C141 1_555 1_555
H169 C141 1_555 1_555
C142 C141 1_555 1_555
H170 C142 1_555 1_555
H171 C142 1_555 1_555
C143 C142 1_555 1_555
H172 C143 1_555 1_555
H173 C143 1_555 1_555
C144 C143 1_555 1_555
H174 C144 1_555 1_555
H175 C144 1_555 1_555
C145 N30 1_555 1_555
H176 C145 1_555 1_555
C146 N30 1_555 1_555
H177 C146 1_555 1_555
H178 C146 1_555 1_555
C147 N26 1_555 1_555
H179 C147 1_555 1_555
H180 C147 1_555 1_555
C148 N31 1_555 1_555
C149 C148 1_555 1_555
H181 C149 1_555 1_555
C150 C149 1_555 1_555
H182 C150 1_555 1_555
C151 C150 1_555 1_555
H183 C151 1_555 1_555
C152 N31 1_555 1_555
C153 N29 1_555 1_555
H184 C153 1_555 1_555
H185 C153 1_555 1_555
C154 N27 1_555 1_555
H186 C154 1_555 1_555
H187 C154 1_555 1_555
C155 N32 1_555 1_555
C156 C155 1_555 1_555
H188 C156 1_555 1_555
C157 C156 1_555 1_555
H189 C157 1_555 1_555
C158 C157 1_555 1_555
H190 C158 1_555 1_555
C159 N32 1_555 1_555
C160 N30 1_555 1_555
H191 C160 1_555 1_555
H192 C160 1_555 1_555
O1 H193 1_555 1_555
C161 O1 1_555 1_555
H194 C161 1_555 1_555
H195 C161 1_555 1_555
H196 C161 1_555 1_555
O2 H197 1_555 1_555
C162 O2 1_555 1_555
H198 C162 1_555 1_555
H199 C162 1_555 1_555
H200 C162 1_555 1_555
O3 H201 1_555 1_555
C163 O3 1_555 1_555
H202 C163 1_555 1_555
H203 C163 1_555 1_555
H204 C163 1_555 1_555
C1 C26 1_555 1_555
C4 C5 1_555 1_555
C5 C6 1_555 1_555
C7 C12 1_555 1_555
C11 C12 1_555 1_555
C13 C14 1_555 1_555
C17 C18 1_555 1_555
C18 C19 1_555 1_555
C20 C25 1_555 1_555
C24 C25 1_555 1_555
C27 C28 1_555 1_555
C31 C32 1_555 1_555
C32 C33 1_555 1_555
C34 C35 1_555 1_555
C38 C39 1_555 1_555
C39 C40 1_555 1_555
C41 C66 1_555 1_555
C44 C45 1_555 1_555
C45 C46 1_555 1_555
C47 C52 1_555 1_555
C51 C52 1_555 1_555
C53 C54 1_555 1_555
C57 C58 1_555 1_555
C58 C59 1_555 1_555
C60 C65 1_555 1_555
C64 C65 1_555 1_555
C67 C68 1_555 1_555
C71 C72 1_555 1_555
C72 C73 1_555 1_555
C74 C75 1_555 1_555
C78 C79 1_555 1_555
C79 C80 1_555 1_555
C81 C106 1_555 1_555
C84 C85 1_555 1_555
C85 C86 1_555 1_555
C87 C92 1_555 1_555
C91 C92 1_555 1_555
C93 C94 1_555 1_555
C97 C98 1_555 1_555
C98 C99 1_555 1_555
C100 C105 1_555 1_555
C104 C105 1_555 1_555
C107 C108 1_555 1_555
C111 C112 1_555 1_555
C112 C113 1_555 1_555
C114 C115 1_555 1_555
C118 C119 1_555 1_555
C119 C120 1_555 1_555
C121 C146 1_555 1_555
C124 C125 1_555 1_555
C125 C126 1_555 1_555
C127 C132 1_555 1_555
C131 C132 1_555 1_555
C133 C134 1_555 1_555
C137 C138 1_555 1_555
C138 C139 1_555 1_555
C140 C145 1_555 1_555
C144 C145 1_555 1_555
C147 C148 1_555 1_555
C151 C152 1_555 1_555
C152 C153 1_555 1_555
C154 C155 1_555 1_555
C158 C159 1_555 1_555
C159 C160 1_555 1_555

#END
