
#######################################################################
#
#                 Cambridge Crystallographic Data Centre
#                                CCDC 
#
#######################################################################
#
# If this CIF has been generated from an entry in the Cambridge 
# Structural Database, then it will include bibliographic, chemical, 
# crystal, experimental, refinement or atomic coordinate data resulting 
# from the CCDC's data processing and validation procedures.
#
#######################################################################

data_HEYVUD
_chemical_formula_moiety         'C17 H14 N2 O1'
_chemical_name_systematic        
2,5-bis((E)-(Pyridin-4-yl)methylidene)cyclopentanone
_symmetry_cell_setting           monoclinic
_symmetry_space_group_name_H-M   'C 2/c'
_symmetry_Int_Tables_number      15
_space_group_name_Hall           '-C 2yn'
loop_
_symmetry_equiv_pos_site_id
_symmetry_equiv_pos_as_xyz
1 x,y,z
2 1/2+x,1/2+y,z
3 -x,y,1/2-z
4 1/2-x,1/2+y,1/2-z
5 -x,-y,-z
6 1/2-x,1/2-y,-z
7 x,-y,1/2+z
8 1/2+x,1/2-y,1/2+z
_cell_length_a                   6.0078(2)
_cell_length_b                   11.6896(4)
_cell_length_c                   18.5325(6)
_cell_angle_alpha                90
_cell_angle_beta                 95.807(1)
_cell_angle_gamma                90
_cell_volume                     1294.84
_exptl_crystal_colour            colorless
_exptl_crystal_description       block
_cell_formula_units_Z            4
loop_
_atom_site_label
_atom_site_type_symbol
_atom_site_fract_x
_atom_site_fract_y
_atom_site_fract_z
O1 O 0.0000 0.17196(9) 0.2500
N1 N 0.78635(16) -0.10055(9) 0.04182(5)
C1 C 0.0000 0.06727(12) 0.2500
C2 C 0.15041(16) -0.00742(9) 0.21130(5)
C3 C 0.08961(17) -0.13058(9) 0.22249(6)
C4 C 0.30649(17) 0.04103(10) 0.17397(6)
C5 C 0.77201(18) 0.01179(10) 0.05543(6)
C6 C 0.61839(18) 0.05886(10) 0.09799(6)
C7 C 0.46813(17) -0.01180(9) 0.13015(5)
C8 C 0.48292(19) -0.12931(9) 0.11635(6)
C9 C 0.64101(19) -0.16837(10) 0.07224(6)
H1 H 0.026(2) -0.1634(11) 0.1752(7)
H2 H 0.220(2) -0.1784(12) 0.2407(8)
H3 H 0.315(2) 0.1252(13) 0.1758(7)
H4 H 0.875(2) 0.0622(12) 0.0339(8)
H5 H 0.387(2) -0.1854(12) 0.1373(8)
H6 H 0.650(2) -0.2504(13) 0.0612(8)
H7 H 0.613(2) 0.1426(13) 0.1049(8)
N1B N -0.78635(16) -0.10055(9) 0.45818(5)
C2B C -0.15041(16) -0.00742(9) 0.28870(5)
C3B C -0.08961(17) -0.13058(9) 0.27751(6)
C4B C -0.30649(17) 0.04103(10) 0.32603(6)
C5B C -0.77201(18) 0.01179(10) 0.44457(6)
C6B C -0.61839(18) 0.05886(10) 0.40201(6)
C7B C -0.46813(17) -0.01180(9) 0.36985(5)
C8B C -0.48292(19) -0.12931(9) 0.38365(6)
C9B C -0.64101(19) -0.16837(10) 0.42776(6)
H1B H -0.026(2) -0.1634(11) 0.3248(7)
H2B H -0.220(2) -0.1784(12) 0.2593(8)
H3B H -0.315(2) 0.1252(13) 0.3242(7)
H4B H -0.875(2) 0.0622(12) 0.4661(8)
H5B H -0.387(2) -0.1854(12) 0.3627(8)
H6B H -0.650(2) -0.2504(13) 0.4388(8)
H7B H -0.613(2) 0.1426(13) 0.3951(8)
loop_
_geom_bond_atom_site_label_1
_geom_bond_atom_site_label_2
_geom_bond_site_symmetry_1
_geom_bond_site_symmetry_2
O1 C1 1_555 1_555
N1 C5 1_555 1_555
C1 C2 1_555 1_555
C2 C3 1_555 1_555
C3 H1 1_555 1_555
C4 C2 1_555 1_555
C5 C6 1_555 1_555
C6 C7 1_555 1_555
C7 C4 1_555 1_555
C8 C7 1_555 1_555
C9 N1 1_555 1_555
H2 C3 1_555 1_555
H3 C4 1_555 1_555
H4 C5 1_555 1_555
H5 C8 1_555 1_555
H6 C9 1_555 1_555
H7 C6 1_555 1_555
N1B C5B 1_555 1_555
C2B C1 1_555 1_555
C3B C3 1_555 1_555
C4B C2B 1_555 1_555
C5B C6B 1_555 1_555
C6B C7B 1_555 1_555
C7B C4B 1_555 1_555
C8B C7B 1_555 1_555
C9B N1B 1_555 1_555
H1B C3B 1_555 1_555
H2B C3B 1_555 1_555
H3B C4B 1_555 1_555
H4B C5B 1_555 1_555
H5B C8B 1_555 1_555
H6B C9B 1_555 1_555
H7B C6B 1_555 1_555
C8 C9 1_555 1_555
C2B C3B 1_555 1_555
C8B C9B 1_555 1_555

#END
