
#######################################################################
#
#                 Cambridge Crystallographic Data Centre
#                                CCDC 
#
#######################################################################
#
# If this CIF has been generated from an entry in the Cambridge 
# Structural Database, then it will include bibliographic, chemical, 
# crystal, experimental, refinement or atomic coordinate data resulting 
# from the CCDC's data processing and validation procedures.
#
#######################################################################

data_HEYVAL
_chemical_formula_moiety         'C33 H47 N7 4+,4(Cl1 1-),7(H2 O1)'
_chemical_name_systematic        
'38,39,40-triaza-1,8,16,23-tetra-azoniaheptacyclo[14.14.7.1^10,14^.1^25,29^.1^32,36^.0^2,7^.0^17,22^]tetraconta-10(40),11,13,25(39),26,28,32(38),33,35-nonaene tetrachloride heptahydrate'
_symmetry_cell_setting           tetragonal
_symmetry_space_group_name_H-M   'P 41 21 2'
_symmetry_Int_Tables_number      92
_space_group_name_Hall           'P 4abw 2nw'
loop_
_symmetry_equiv_pos_site_id
_symmetry_equiv_pos_as_xyz
1 x,y,z
2 -x,-y,1/2+z
3 1/2-y,1/2+x,1/4+z
4 1/2+y,1/2-x,3/4+z
5 1/2-x,1/2+y,1/4-z
6 1/2+x,1/2-y,3/4-z
7 y,x,-z
8 -y,-x,1/2-z
_cell_length_a                   12.559(3)
_cell_length_b                   12.559(3)
_cell_length_c                   56.211(9)
_cell_angle_alpha                90
_cell_angle_beta                 90
_cell_angle_gamma                90
_cell_volume                     8866.08
_exptl_crystal_colour            colorless
_exptl_crystal_description       block
_cell_formula_units_Z            8
loop_
_atom_site_label
_atom_site_type_symbol
_atom_site_fract_x
_atom_site_fract_y
_atom_site_fract_z
N1 N 0.5223(6) 1.0633(6) 0.13554(14)
N2 N 0.4236(6) 0.9149(6) 0.16335(13)
H1 H 0.4580 0.8935 0.1480
N3 N 0.4785(6) 0.6809(6) 0.15383(13)
H2 H 0.4138 0.6862 0.1466
H3 H 0.5041 0.7379 0.1456
N4 N 0.5226(6) 0.6271(6) 0.10972(13)
N5 N 0.4237(6) 0.7764(6) 0.08216(13)
H4 H 0.4535 0.7917 0.0983
N6 N 0.4800(6) 1.0088(6) 0.09152(14)
H5 H 0.4093 1.0231 0.0930
H6 H 0.4821 0.9545 0.1022
N7 N 0.3150(5) 0.8453(6) 0.12292(13)
C1 C 0.5754(7) 1.1239(6) 0.11977(17)
C2 C 0.6491(8) 1.1985(8) 0.12682(19)
H7 H 0.6859 1.2404 0.1154
C3 C 0.6685(8) 1.2113(8) 0.1505(2)
H8 H 0.7169 1.2643 0.1558
C4 C 0.6171(8) 1.1464(8) 0.1669(2)
H9 H 0.6306 1.1525 0.1835
C5 C 0.5455(7) 1.0723(7) 0.15810(18)
C6 C 0.4986(9) 0.9912(8) 0.17547(19)
H10 H 0.5572 0.9505 0.1830
H11 H 0.4599 1.0293 0.1882
C7 C 0.3959(8) 0.8184(7) 0.17945(16)
H12 H 0.3271 0.7886 0.1734
C8 C 0.3754(10) 0.8567(8) 0.20494(17)
H13 H 0.4421 0.8852 0.2119
H14 H 0.3218 0.9145 0.2048
C9 C 0.3353(10) 0.7641(9) 0.21992(18)
H15 H 0.3194 0.7889 0.2363
H16 H 0.2689 0.7353 0.2129
C10 C 0.4192(11) 0.6780(9) 0.22074(18)
H17 H 0.3931 0.6178 0.2305
H18 H 0.4844 0.7063 0.2283
C11 C 0.4458(9) 0.6383(8) 0.19586(17)
H19 H 0.3834 0.5999 0.1894
H20 H 0.5054 0.5869 0.1969
C12 C 0.4770(7) 0.7283(7) 0.17850(16)
H21 H 0.5493 0.7561 0.1826
C13 C 0.5481(8) 0.5877(8) 0.15138(18)
H22 H 0.5122 0.5243 0.1581
H23 H 0.6147 0.5997 0.1604
C14 C 0.5743(7) 0.5679(7) 0.12542(18)
C15 C 0.6511(7) 0.4941(7) 0.11901(17)
H24 H 0.6873 0.4531 0.1307
C16 C 0.6735(7) 0.4817(7) 0.09477(17)
H25 H 0.7242 0.4307 0.0896
C17 C 0.6203(8) 0.5456(7) 0.07844(18)
H26 H 0.6331 0.5382 0.0619
C18 C 0.5480(7) 0.6204(7) 0.08688(17)
C19 C 0.4988(8) 0.7003(8) 0.06976(17)
H27 H 0.5562 0.7415 0.0620
H28 H 0.4594 0.6615 0.0572
C20 C 0.3926(7) 0.8720(7) 0.06634(16)
H29 H 0.3241 0.9012 0.0726
C21 C 0.3724(8) 0.8348(9) 0.04067(16)
H30 H 0.4392 0.8064 0.0338
H31 H 0.3189 0.7769 0.0407
C22 C 0.3323(10) 0.9270(12) 0.02538(19)
H32 H 0.2647 0.9546 0.0320
H33 H 0.3186 0.9016 0.0090
C23 C 0.4161(10) 1.0164(12) 0.0249(2)
H34 H 0.4816 0.9904 0.0170
H35 H 0.3885 1.0774 0.0156
C24 C 0.4416(10) 1.0518(9) 0.04960(18)
H36 H 0.3785 1.0885 0.0563
H37 H 0.5002 1.1044 0.0488
C25 C 0.4740(8) 0.9625(8) 0.06661(16)
H38 H 0.5454 0.9343 0.0619
C26 C 0.5492(8) 1.1059(8) 0.09379(18)
H39 H 0.5114 1.1688 0.0873
H40 H 0.6156 1.0959 0.0846
C27 C 0.3225(7) 0.9686(7) 0.15623(17)
H41 H 0.3392 1.0375 0.1485
H42 H 0.2792 0.9831 0.1706
C28 C 0.2598(7) 0.9004(7) 0.13931(17)
C29 C 0.1478(8) 0.8982(8) 0.14036(19)
H43 H 0.1108 0.9333 0.1528
C30 C 0.0933(8) 0.8445(7) 0.12306(19)
H44 H 0.0176 0.8443 0.1231
C31 C 0.1492(7) 0.7898(7) 0.10534(19)
H45 H 0.1124 0.7551 0.0928
C32 C 0.2587(7) 0.7874(6) 0.10648(16)
C33 C 0.3229(8) 0.7220(8) 0.08974(17)
H46 H 0.2795 0.7060 0.0755
H47 H 0.3410 0.6535 0.0975
Cl1 Cl 0.60584(16) 0.84515(16) 0.12367(4)
Cl2 Cl 0.25460(17) 1.09972(17) 0.10047(4)
Cl3 Cl 0.6981(5) 0.8642(7) 0.20963(12)
Cl4 Cl 0.3819(3) 1.1773(3) 0.21037(7)
Cl5 Cl 0.1076(4) 0.9560(7) 0.20580(11)
Cl6 Cl 0.7346(3) 0.4556(4) 0.18753(7)
O1 O 0.4648(16) 0.4196(15) 0.2475(3)
O2 O 0.9650(12) 0.7393(11) 0.2550(2)
O3? O 0.7235(18) 0.8333(17) 0.2050(3)
O4? O 0.760(2) 0.768(2) 0.1909(4)
O5? O 0.709(3) 0.927(3) 0.2200(6)
O6? O 0.3845(9) 1.2400(11) 0.2019(2)
O7? O 0.1146(7) 0.9946(10) 0.20853(16)
O8? O 0.7701(11) 0.3506(11) 0.2025(2)
O9? O 0.825(2) 0.316(2) 0.2253(4)
O10? O 0.666(4) 1.177(4) 0.2408(9)
O11? O 0.611(2) 1.104(2) 0.2321(5)
O12? O 0.7220(11) 0.6199(11) 0.2265(2)
O13? O 0.5146(16) 1.3793(16) 0.2050(4)
O14? O 0.536(3) 1.392(3) 0.2184(6)
O15? O 1.011(3) 0.743(3) 0.2467(6)
O16? O 0.9330(10) 0.8035(10) 0.2148(2)
O17? O 0.976(3) 0.803(3) 0.2024(7)
O18? O 0.759(2) 1.021(2) 0.2432(5)
O19? O 0.401(2) 1.132(2) 0.2475(5)
O20? O 0.942(3) 1.058(3) 0.2500
loop_
_geom_bond_atom_site_label_1
_geom_bond_atom_site_label_2
_geom_bond_site_symmetry_1
_geom_bond_site_symmetry_2
N1 C1 1_555 1_555
N2 H1 1_555 1_555
N3 H2 1_555 1_555
H3 N3 1_555 1_555
N4 C14 1_555 1_555
N5 H4 1_555 1_555
N6 H5 1_555 1_555
H6 N6 1_555 1_555
N7 C28 1_555 1_555
C1 C2 1_555 1_555
C2 H7 1_555 1_555
C3 C2 1_555 1_555
H8 C3 1_555 1_555
C4 C3 1_555 1_555
H9 C4 1_555 1_555
C5 N1 1_555 1_555
C6 N2 1_555 1_555
H10 C6 1_555 1_555
H11 C6 1_555 1_555
C7 N2 1_555 1_555
H12 C7 1_555 1_555
C8 C7 1_555 1_555
H13 C8 1_555 1_555
H14 C8 1_555 1_555
C9 C8 1_555 1_555
H15 C9 1_555 1_555
H16 C9 1_555 1_555
C10 C9 1_555 1_555
H17 C10 1_555 1_555
H18 C10 1_555 1_555
C11 C10 1_555 1_555
H19 C11 1_555 1_555
H20 C11 1_555 1_555
C12 N3 1_555 1_555
H21 C12 1_555 1_555
C13 N3 1_555 1_555
H22 C13 1_555 1_555
H23 C13 1_555 1_555
C14 C13 1_555 1_555
C15 C14 1_555 1_555
H24 C15 1_555 1_555
C16 C15 1_555 1_555
H25 C16 1_555 1_555
C17 C16 1_555 1_555
H26 C17 1_555 1_555
C18 N4 1_555 1_555
C19 N5 1_555 1_555
H27 C19 1_555 1_555
H28 C19 1_555 1_555
C20 N5 1_555 1_555
H29 C20 1_555 1_555
C21 C20 1_555 1_555
H30 C21 1_555 1_555
H31 C21 1_555 1_555
C22 C21 1_555 1_555
H32 C22 1_555 1_555
H33 C22 1_555 1_555
C23 C22 1_555 1_555
H34 C23 1_555 1_555
H35 C23 1_555 1_555
C24 C23 1_555 1_555
H36 C24 1_555 1_555
H37 C24 1_555 1_555
C25 N6 1_555 1_555
H38 C25 1_555 1_555
C26 N6 1_555 1_555
H39 C26 1_555 1_555
H40 C26 1_555 1_555
C27 N2 1_555 1_555
H41 C27 1_555 1_555
H42 C27 1_555 1_555
C28 C27 1_555 1_555
C29 C28 1_555 1_555
H43 C29 1_555 1_555
C30 C29 1_555 1_555
H44 C30 1_555 1_555
C31 C30 1_555 1_555
H45 C31 1_555 1_555
C32 N7 1_555 1_555
C33 N5 1_555 1_555
H46 C33 1_555 1_555
H47 C33 1_555 1_555
C1 C26 1_555 1_555
C4 C5 1_555 1_555
C5 C6 1_555 1_555
C7 C12 1_555 1_555
C11 C12 1_555 1_555
C17 C18 1_555 1_555
C18 C19 1_555 1_555
C20 C25 1_555 1_555
C24 C25 1_555 1_555
C31 C32 1_555 1_555
C32 C33 1_555 1_555

#END
