
#######################################################################
#
#                 Cambridge Crystallographic Data Centre
#                                CCDC 
#
#######################################################################
#
# If this CIF has been generated from an entry in the Cambridge 
# Structural Database, then it will include bibliographic, chemical, 
# crystal, experimental, refinement or atomic coordinate data resulting 
# from the CCDC's data processing and validation procedures.
#
#######################################################################

data_HEYVEP
_chemical_formula_moiety         'C54 H64 N6 2+,2(C2 H5 O4 S1 1-),2(C2 H3 N1)'
_chemical_name_systematic        
'5,13,18,26-tetrabenzyl-1,2,3,4,4a,5,6,12,13,13a,14,15,16,17,17a,18,19,25,26,26a-icosahydro-7,11:20,24-bis(azeno)dibenzo[b,m][1,4,12,15]tetra-azacyclodocosine-5,18-di-ium bis(ethyl sulfate) acetonitrile solvate'
_symmetry_cell_setting           orthorhombic
_symmetry_space_group_name_H-M   'P 21 21 21'
_symmetry_Int_Tables_number      19
_space_group_name_Hall           'P 2ac 2ab'
loop_
_symmetry_equiv_pos_site_id
_symmetry_equiv_pos_as_xyz
1 x,y,z
2 1/2-x,-y,1/2+z
3 -x,1/2+y,1/2-z
4 1/2+x,1/2-y,-z
_cell_length_a                   16.703(3)
_cell_length_b                   18.692(4)
_cell_length_c                   18.760(4)
_cell_angle_alpha                90
_cell_angle_beta                 90
_cell_angle_gamma                90
_cell_volume                     5857.11
_exptl_crystal_colour            colorless
_exptl_crystal_description       block
_cell_formula_units_Z            4
loop_
_atom_site_label
_atom_site_type_symbol
_atom_site_fract_x
_atom_site_fract_y
_atom_site_fract_z
N1 N 0.53915(18) 0.57761(17) 0.29989(17)
N2 N 0.36595(18) 0.63604(16) 0.32126(17)
H1 H 0.3841 0.6153 0.3677
N3 N 0.29411(18) 0.53470(17) 0.40481(16)
N4 N 0.45129(19) 0.56701(18) 0.45673(17)
N5 N 0.62415(19) 0.64030(18) 0.44834(19)
H2 H 0.6080 0.6235 0.3998
N6 N 0.69685(18) 0.55579(17) 0.35153(18)
C1 C 0.5846(2) 0.5228(2) 0.2792(2)
C2 C 0.5816(2) 0.4947(2) 0.2112(2)
H3 H 0.6120 0.4535 0.1991
C3 C 0.5335(2) 0.5279(2) 0.1611(2)
H4 H 0.5329 0.5117 0.1132
C4 C 0.4867(2) 0.5847(2) 0.1817(2)
H5 H 0.4531 0.6084 0.1483
C5 C 0.4893(2) 0.6066(2) 0.2519(2)
C6 C 0.4358(2) 0.6654(2) 0.2785(2)
H6 H 0.4150 0.6930 0.2374
H7 H 0.4673 0.6984 0.3087
C7 C 0.3119(2) 0.6975(2) 0.3429(2)
H8 H 0.3015 0.7284 0.3011
H9 H 0.2599 0.6783 0.3596
C8 C 0.3494(2) 0.7412(2) 0.4011(2)
C9 C 0.3903(2) 0.8044(2) 0.3858(2)
H10 H 0.3937 0.8206 0.3379
C10 C 0.4258(2) 0.8435(2) 0.4390(3)
H11 H 0.4533 0.8866 0.4280
C11 C 0.4213(2) 0.8199(2) 0.5090(3)
H12 H 0.4463 0.8466 0.5459
C12 C 0.3807(2) 0.7578(2) 0.5249(2)
H13 H 0.3775 0.7417 0.5728
C13 C 0.3445(2) 0.7186(2) 0.4708(2)
H14 H 0.3162 0.6760 0.4821
C14 C 0.3212(2) 0.5769(2) 0.2835(2)
H15 H 0.3612 0.5394 0.2700
C15 C 0.2801(2) 0.6009(2) 0.2156(2)
H16 H 0.3189 0.6255 0.1841
H17 H 0.2364 0.6348 0.2270
C16 C 0.2462(3) 0.5350(2) 0.1783(2)
H18 H 0.2168 0.5501 0.1349
H19 H 0.2908 0.5036 0.1632
C17 C 0.1898(2) 0.4929(2) 0.2265(2)
H20 H 0.1730 0.4485 0.2019
H21 H 0.1413 0.5218 0.2359
C18 C 0.2296(2) 0.4736(2) 0.2972(2)
H22 H 0.2749 0.4405 0.2885
H23 H 0.1905 0.4491 0.3285
C19 C 0.2603(2) 0.5418(2) 0.3337(2)
H24 H 0.2138 0.5753 0.3376
C20 C 0.2366(2) 0.5412(2) 0.4635(2)
H25 H 0.2088 0.5877 0.4580
H26 H 0.2674 0.5436 0.5085
C21 C 0.1729(2) 0.4841(2) 0.4724(2)
C22 C 0.0947(3) 0.4994(2) 0.4516(2)
H27 H 0.0824 0.5446 0.4312
C23 C 0.0346(3) 0.4485(3) 0.4608(2)
H28 H -0.0185 0.4589 0.4457
C24 C 0.0511(3) 0.3840(3) 0.4914(3)
H29 H 0.0095 0.3501 0.4982
C25 C 0.1283(3) 0.3677(3) 0.5123(2)
H30 H 0.1401 0.3225 0.5330
C26 C 0.1889(3) 0.4186(2) 0.5028(2)
H31 H 0.2419 0.4078 0.5177
C27 C 0.3563(2) 0.4807(2) 0.4148(2)
H32 H 0.3857 0.4732 0.3696
H33 H 0.3317 0.4347 0.4291
C28 C 0.4125(2) 0.5059(2) 0.4714(2)
C29 C 0.4203(2) 0.4702(3) 0.5355(2)
H34 H 0.3942 0.4257 0.5433
C30 C 0.4673(3) 0.5011(3) 0.5885(2)
H35 H 0.4719 0.4793 0.6340
C31 C 0.5065(3) 0.5633(3) 0.5737(2)
H36 H 0.5386 0.5855 0.6092
C32 C 0.4996(2) 0.5937(2) 0.5075(2)
C33 C 0.5478(2) 0.6589(2) 0.4885(2)
H37 H 0.5620 0.6849 0.5327
H38 H 0.5147 0.6911 0.4587
C34 C 0.6750(2) 0.7061(2) 0.4420(2)
H39 H 0.6813 0.7277 0.4899
H40 H 0.7289 0.6920 0.4251
C35 C 0.6419(2) 0.7612(2) 0.3926(2)
C36 C 0.6310(2) 0.8315(2) 0.4161(2)
H41 H 0.6415 0.8431 0.4645
C37 C 0.6053(3) 0.8839(2) 0.3702(3)
H42 H 0.6004 0.9318 0.3865
C38 C 0.5865(3) 0.8671(2) 0.3005(2)
H43 H 0.5669 0.9030 0.2691
C39 C 0.5965(3) 0.7977(2) 0.2769(2)
H44 H 0.5838 0.7861 0.2289
C40 C 0.6243(2) 0.7453(2) 0.3216(2)
H45 H 0.6317 0.6980 0.3043
C41 C 0.6708(2) 0.5773(2) 0.4773(2)
H46 H 0.6321 0.5370 0.4841
C42 C 0.7111(2) 0.5907(2) 0.5486(2)
H47 H 0.7533 0.6275 0.5433
H48 H 0.6714 0.6080 0.5838
C43 C 0.7476(3) 0.5208(2) 0.5738(2)
H49 H 0.7765 0.5293 0.6191
H50 H 0.7041 0.4861 0.5834
C44 C 0.8048(2) 0.4889(2) 0.5203(2)
H51 H 0.8222 0.4412 0.5372
H52 H 0.8528 0.5197 0.5166
C45 C 0.7672(2) 0.4812(2) 0.4473(2)
H53 H 0.7241 0.4449 0.4491
H54 H 0.8081 0.4647 0.4128
C46 C 0.7323(2) 0.5532(2) 0.4221(2)
H55 H 0.7769 0.5889 0.4229
C47 C 0.7506(2) 0.5790(2) 0.2950(2)
H56 H 0.7637 0.6300 0.3034
H57 H 0.7209 0.5765 0.2494
C48 C 0.8278(2) 0.5391(2) 0.2856(2)
C49 C 0.8995(2) 0.5707(2) 0.3055(2)
H58 H 0.8992 0.6179 0.3244
C50 C 0.9716(3) 0.5346(3) 0.2984(2)
H59 H 1.0203 0.5569 0.3124
C51 C 0.9723(3) 0.4669(3) 0.2713(2)
H60 H 1.0215 0.4417 0.2673
C52 C 0.9019(3) 0.4345(2) 0.2495(2)
H61 H 0.9027 0.3876 0.2299
C53 C 0.8302(3) 0.4713(2) 0.2565(2)
H62 H 0.7818 0.4494 0.2410
C54 C 0.6434(2) 0.4964(2) 0.3338(2)
H63 H 0.6148 0.4799 0.3770
H64 H 0.6746 0.4558 0.3144
S1 S 0.43928(7) 0.81807(6) 0.13945(6)
O1 O 0.47869(19) 0.75060(15) 0.13075(17)
O2 O 0.49301(19) 0.87785(15) 0.14001(18)
O3 O 0.3818(2) 0.81813(18) 0.19701(18)
O4 O 0.3837(2) 0.82837(18) 0.07182(18)
C55 C 0.4258(4) 0.8389(4) 0.0055(3)
H65 H 0.4706 0.8044 0.0021
H66 H 0.4485 0.8879 0.0042
C56 C 0.3713(5) 0.8290(4) -0.0550(3)
H67 H 0.3232 0.8580 -0.0478
H68 H 0.3563 0.7784 -0.0585
H69 H 0.3982 0.8438 -0.0990
S2 S 0.09168(6) 0.71722(5) 0.34112(6)
O5 O 0.1167(2) 0.6713(2) 0.2843(2)
O6 O 0.0939(2) 0.6839(2) 0.4080(2)
O7 O 0.1267(2) 0.78646(18) 0.3406(2)
O8 O -0.00262(18) 0.73003(17) 0.32837(17)
C57 C -0.0248(3) 0.7526(3) 0.2576(3)
H70 H -0.0202 0.7120 0.2241
H71 H 0.0115 0.7912 0.2413
C58 C -0.1086(4) 0.7791(4) 0.2593(4)
H72 H -0.1121 0.8208 0.2909
H73 H -0.1439 0.7412 0.2770
H74 H -0.1251 0.7929 0.2111
N7 N 0.3371(4) 0.3096(3) 0.5778(3)
C59 C 0.3261(4) 0.2636(3) 0.6135(3)
C60 C 0.3060(4) 0.2055(3) 0.6594(3)
H75 H 0.3217 0.2172 0.7084
H76 H 0.3343 0.1623 0.6439
H77 H 0.2481 0.1970 0.6576
N8 N 0.6809(4) 0.6555(3) 0.1461(3)
C61 C 0.6786(4) 0.7113(3) 0.1256(3)
C62 C 0.6735(4) 0.7826(4) 0.0997(4)
H78 H 0.6843 0.7831 0.0484
H79 H 0.7131 0.8124 0.1243
H80 H 0.6197 0.8015 0.1087
loop_
_geom_bond_atom_site_label_1
_geom_bond_atom_site_label_2
_geom_bond_site_symmetry_1
_geom_bond_site_symmetry_2
N1 C1 1_555 1_555
N2 H1 1_555 1_555
N3 C19 1_555 1_555
N4 C28 1_555 1_555
N5 H2 1_555 1_555
N6 C46 1_555 1_555
C1 C2 1_555 1_555
C2 H3 1_555 1_555
C3 C2 1_555 1_555
H4 C3 1_555 1_555
C4 C3 1_555 1_555
H5 C4 1_555 1_555
C5 N1 1_555 1_555
C6 N2 1_555 1_555
H6 C6 1_555 1_555
H7 C6 1_555 1_555
C7 N2 1_555 1_555
H8 C7 1_555 1_555
H9 C7 1_555 1_555
C8 C7 1_555 1_555
C9 C8 1_555 1_555
H10 C9 1_555 1_555
C10 C9 1_555 1_555
H11 C10 1_555 1_555
C11 C10 1_555 1_555
H12 C11 1_555 1_555
C12 C11 1_555 1_555
H13 C12 1_555 1_555
C13 C8 1_555 1_555
H14 C13 1_555 1_555
C14 N2 1_555 1_555
H15 C14 1_555 1_555
C15 C14 1_555 1_555
H16 C15 1_555 1_555
H17 C15 1_555 1_555
C16 C15 1_555 1_555
H18 C16 1_555 1_555
H19 C16 1_555 1_555
C17 C16 1_555 1_555
H20 C17 1_555 1_555
H21 C17 1_555 1_555
C18 C17 1_555 1_555
H22 C18 1_555 1_555
H23 C18 1_555 1_555
C19 C14 1_555 1_555
H24 C19 1_555 1_555
C20 N3 1_555 1_555
H25 C20 1_555 1_555
H26 C20 1_555 1_555
C21 C20 1_555 1_555
C22 C21 1_555 1_555
H27 C22 1_555 1_555
C23 C22 1_555 1_555
H28 C23 1_555 1_555
C24 C23 1_555 1_555
H29 C24 1_555 1_555
C25 C24 1_555 1_555
H30 C25 1_555 1_555
C26 C21 1_555 1_555
H31 C26 1_555 1_555
C27 N3 1_555 1_555
H32 C27 1_555 1_555
H33 C27 1_555 1_555
C28 C27 1_555 1_555
C29 C28 1_555 1_555
H34 C29 1_555 1_555
C30 C29 1_555 1_555
H35 C30 1_555 1_555
C31 C30 1_555 1_555
H36 C31 1_555 1_555
C32 N4 1_555 1_555
C33 N5 1_555 1_555
H37 C33 1_555 1_555
H38 C33 1_555 1_555
C34 N5 1_555 1_555
H39 C34 1_555 1_555
H40 C34 1_555 1_555
C35 C34 1_555 1_555
C36 C35 1_555 1_555
H41 C36 1_555 1_555
C37 C36 1_555 1_555
H42 C37 1_555 1_555
C38 C37 1_555 1_555
H43 C38 1_555 1_555
C39 C38 1_555 1_555
H44 C39 1_555 1_555
C40 C35 1_555 1_555
H45 C40 1_555 1_555
C41 N5 1_555 1_555
H46 C41 1_555 1_555
C42 C41 1_555 1_555
H47 C42 1_555 1_555
H48 C42 1_555 1_555
C43 C42 1_555 1_555
H49 C43 1_555 1_555
H50 C43 1_555 1_555
C44 C43 1_555 1_555
H51 C44 1_555 1_555
H52 C44 1_555 1_555
C45 C44 1_555 1_555
H53 C45 1_555 1_555
H54 C45 1_555 1_555
C46 C41 1_555 1_555
H55 C46 1_555 1_555
C47 N6 1_555 1_555
H56 C47 1_555 1_555
H57 C47 1_555 1_555
C48 C47 1_555 1_555
C49 C48 1_555 1_555
H58 C49 1_555 1_555
C50 C49 1_555 1_555
H59 C50 1_555 1_555
C51 C50 1_555 1_555
H60 C51 1_555 1_555
C52 C51 1_555 1_555
H61 C52 1_555 1_555
C53 C48 1_555 1_555
H62 C53 1_555 1_555
C54 N6 1_555 1_555
H63 C54 1_555 1_555
H64 C54 1_555 1_555
S1 O1 1_555 1_555
O2 S1 1_555 1_555
O3 S1 1_555 1_555
O4 S1 1_555 1_555
C55 O4 1_555 1_555
H65 C55 1_555 1_555
H66 C55 1_555 1_555
C56 C55 1_555 1_555
H67 C56 1_555 1_555
H68 C56 1_555 1_555
H69 C56 1_555 1_555
S2 O5 1_555 1_555
O6 S2 1_555 1_555
O7 S2 1_555 1_555
O8 S2 1_555 1_555
C57 O8 1_555 1_555
H70 C57 1_555 1_555
H71 C57 1_555 1_555
C58 C57 1_555 1_555
H72 C58 1_555 1_555
H73 C58 1_555 1_555
H74 C58 1_555 1_555
N7 C59 1_555 1_555
C59 C60 1_555 1_555
C60 H75 1_555 1_555
H76 C60 1_555 1_555
H77 C60 1_555 1_555
N8 C61 1_555 1_555
C61 C62 1_555 1_555
C62 H78 1_555 1_555
H79 C62 1_555 1_555
H80 C62 1_555 1_555
C1 C54 1_555 1_555
C4 C5 1_555 1_555
C5 C6 1_555 1_555
C12 C13 1_555 1_555
C18 C19 1_555 1_555
C25 C26 1_555 1_555
C31 C32 1_555 1_555
C32 C33 1_555 1_555
C39 C40 1_555 1_555
C45 C46 1_555 1_555
C52 C53 1_555 1_555

#END
