
#######################################################################
#
#                 Cambridge Crystallographic Data Centre
#                                CCDC 
#
#######################################################################
#
# If this CIF has been generated from an entry in the Cambridge 
# Structural Database, then it will include bibliographic, chemical, 
# crystal, experimental, refinement or atomic coordinate data resulting 
# from the CCDC's data processing and validation procedures.
#
#######################################################################

data_HEYWIS
_chemical_formula_moiety         'C19 H19 N3 O1'
_chemical_name_systematic        
1-Ethyl-3,5-bis((E)-(pyridin-3-yl)methylidene)piperidin-4-one
_symmetry_cell_setting           triclinic
_symmetry_space_group_name_H-M   'P -1'
_symmetry_Int_Tables_number      2
_space_group_name_Hall           '-P 1'
loop_
_symmetry_equiv_pos_site_id
_symmetry_equiv_pos_as_xyz
1 x,y,z
2 -x,-y,-z
_cell_length_a                   6.010(5)
_cell_length_b                   8.942(2)
_cell_length_c                   15.190(7)
_cell_angle_alpha                98.30(3)
_cell_angle_beta                 97.97(5)
_cell_angle_gamma                98.60(5)
_cell_volume                     787.915
_exptl_crystal_colour            yellow
_exptl_crystal_description       block
_chemical_melting_point          219deg.C
_cell_formula_units_Z            2
loop_
_atom_site_label
_atom_site_type_symbol
_atom_site_fract_x
_atom_site_fract_y
_atom_site_fract_z
O1 O 0.36471(19) 0.51253(14) 0.87560(8)
N1 N 0.2269(3) 0.7009(2) 0.49228(11)
N2 N 0.1478(3) 0.11764(18) 1.15983(10)
C1 C -0.4731(3) 0.2171(2) 0.69799(14)
C2 C 0.1630(3) 0.46342(18) 0.84427(11)
N3 N -0.2426(2) 0.29179(15) 0.74457(9)
C3 C -0.4964(5) 0.0467(3) 0.67621(19)
C4 C -0.1973(3) 0.4514(2) 0.73207(13)
C5 C 0.0529(3) 0.51197(18) 0.76224(11)
C6 C 0.1849(3) 0.59788(19) 0.71780(11)
C7 C 0.1205(3) 0.65648(19) 0.63470(11)
C8 C -0.0731(3) 0.7202(2) 0.61489(13)
C9 C -0.1150(4) 0.7714(2) 0.53417(14)
C10 C 0.0373(4) 0.7597(2) 0.47535(15)
C11 C 0.2645(3) 0.6528(2) 0.57035(13)
C12 C -0.2161(3) 0.2839(2) 0.84056(11)
C13 C 0.0211(3) 0.35489(17) 0.88873(10)
C14 C 0.1162(3) 0.33014(19) 0.96906(11)
C15 C 0.0310(3) 0.23548(18) 1.03124(11)
C16 C -0.1965(3) 0.1732(2) 1.03247(12)
C17 C -0.2448(3) 0.0848(2) 1.09625(13)
C18 C -0.0714(3) 0.0576(2) 1.15769(13)
C19 C 0.1916(3) 0.2044(2) 1.09847(11)
H1 H 0.269(3) 0.3820(18) 0.9887(11)
H2 H -0.320(3) 0.1979(19) 0.9899(12)
H3 H -0.243(2) 0.1752(19) 0.8460(10)
H4 H -0.332(3) 0.3350(19) 0.8701(12)
H5 H -0.242(3) 0.4559(17) 0.6673(12)
H6 H -0.292(3) 0.5152(19) 0.7668(11)
H7 H 0.354(3) 0.255(2) 1.1018(12)
H8 H 0.345(3) 0.622(2) 0.7421(12)
H9 H -0.397(3) 0.042(2) 1.1002(13)
H10 H -0.170(3) 0.732(2) 0.6594(13)
H11 H -0.240(3) 0.820(2) 0.5169(13)
H12 H -0.102(3) -0.011(2) 1.2043(13)
H13 H 0.009(3) 0.794(2) 0.4155(14)
H14 H 0.400(4) 0.607(2) 0.5826(13)
H15 H -0.653(5) 0.001(3) 0.6453(18)
H16 H -0.385(5) 0.024(3) 0.6323(19)
H17 H -0.457(5) 0.001(4) 0.732(2)
H18 H -0.499(3) 0.258(2) 0.6402(13)
H19 H -0.604(4) 0.235(2) 0.7346(14)
loop_
_geom_bond_atom_site_label_1
_geom_bond_atom_site_label_2
_geom_bond_site_symmetry_1
_geom_bond_site_symmetry_2
O1 C2 1_555 1_555
N1 C10 1_555 1_555
N2 C18 1_555 1_555
C1 N3 1_555 1_555
C2 C5 1_555 1_555
N3 C4 1_555 1_555
C3 C1 1_555 1_555
C4 C5 1_555 1_555
C5 C6 1_555 1_555
C6 C7 1_555 1_555
C7 C8 1_555 1_555
C8 C9 1_555 1_555
C9 C10 1_555 1_555
C10 H13 1_555 1_555
C11 N1 1_555 1_555
C12 N3 1_555 1_555
C13 C2 1_555 1_555
C14 C13 1_555 1_555
C15 C14 1_555 1_555
C16 C15 1_555 1_555
C17 C16 1_555 1_555
C18 C17 1_555 1_555
C19 N2 1_555 1_555
H1 C14 1_555 1_555
H2 C16 1_555 1_555
H3 C12 1_555 1_555
H4 C12 1_555 1_555
H5 C4 1_555 1_555
H6 C4 1_555 1_555
H7 C19 1_555 1_555
H8 C6 1_555 1_555
H9 C17 1_555 1_555
H10 C8 1_555 1_555
H11 C9 1_555 1_555
H12 C18 1_555 1_555
H14 C11 1_555 1_555
H15 C3 1_555 1_555
H16 C3 1_555 1_555
H17 C3 1_555 1_555
H18 C1 1_555 1_555
H19 C1 1_555 1_555
C7 C11 1_555 1_555
C12 C13 1_555 1_555
C15 C19 1_555 1_555

#END
