
#######################################################################
#
#                 Cambridge Crystallographic Data Centre
#                                CCDC 
#
#######################################################################
#
# If this CIF has been generated from an entry in the Cambridge 
# Structural Database, then it will include bibliographic, chemical, 
# crystal, experimental, refinement or atomic coordinate data resulting 
# from the CCDC's data processing and validation procedures.
#
#######################################################################

data_HEYWAK
_chemical_formula_moiety         'C16 H14 O1 S2'
_chemical_name_systematic        
2,6-bis((E)-(2-Thienyl)methylidene)cyclohexanone
_symmetry_cell_setting           monoclinic
_symmetry_space_group_name_H-M   'P 21/c'
_symmetry_Int_Tables_number      14
_space_group_name_Hall           '-P 2ybc'
loop_
_symmetry_equiv_pos_site_id
_symmetry_equiv_pos_as_xyz
1 x,y,z
2 -x,1/2+y,1/2-z
3 -x,-y,-z
4 x,1/2-y,1/2+z
_cell_length_a                   15.000(9)
_cell_length_b                   11.982(8)
_cell_length_c                   7.608(7)
_cell_angle_alpha                90
_cell_angle_beta                 95.87(6)
_cell_angle_gamma                90
_cell_volume                     1360.22
_exptl_crystal_colour            yellow
_exptl_crystal_description       block
_chemical_melting_point          169deg.C
_cell_formula_units_Z            4
loop_
_atom_site_label
_atom_site_type_symbol
_atom_site_fract_x
_atom_site_fract_y
_atom_site_fract_z
S1 S 1.03842(12) 0.16401(17) 0.3522(3)
S2 S 0.47194(12) 0.09845(15) 0.2292(3)
O1 O 0.7362(3) 0.3939(4) 0.4818(6)
C1 C 0.7423(4) 0.2954(5) 0.4437(7)
C2 C 0.6624(4) 0.2246(5) 0.3943(7)
C3 C 0.6708(4) 0.0996(5) 0.3994(8)
H1 H 0.6669 0.0713 0.2795
H2 H 0.6213 0.0686 0.4559
C4 C 0.7589(4) 0.0611(5) 0.4990(8)
H3 H 0.7644 -0.0192 0.4882
H4 H 0.7592 0.0790 0.6234
C5 C 0.8385(4) 0.1181(5) 0.4248(8)
H5 H 0.8936 0.0945 0.4925
H6 H 0.8410 0.0945 0.3034
C6 C 0.8320(4) 0.2437(4) 0.4307(7)
C7 C 0.9000(4) 0.3133(5) 0.4113(7)
H7 H 0.8859 0.3884 0.4223
C8 C 0.9919(4) 0.2925(5) 0.3761(8)
C9 C 1.0559(3) 0.3827(5) 0.3613(7)
H8 H 1.0453 0.4586 0.3737
C10 C 1.1377(5) 0.3321(8) 0.3241(9)
H9 H 1.1885 0.3740 0.3083
C11 C 1.1373(5) 0.2208(7) 0.3133(10)
H10 H 1.1865 0.1790 0.2870
C12 C 0.5868(4) 0.2784(5) 0.3385(7)
H11 H 0.5900 0.3556 0.3501
C13 C 0.5008(4) 0.2370(5) 0.2632(8)
C14 C 0.4286(4) 0.3015(5) 0.2018(9)
H12 H 0.4296 0.3791 0.2070
C15 C 0.3534(4) 0.2417(6) 0.1309(9)
H13 H 0.3000 0.2746 0.0843
C16 C 0.3674(4) 0.1322(6) 0.1381(9)
H14 H 0.3245 0.0797 0.0975
loop_
_geom_bond_atom_site_label_1
_geom_bond_atom_site_label_2
_geom_bond_site_symmetry_1
_geom_bond_site_symmetry_2
S1 C8 1_555 1_555
S2 C13 1_555 1_555
O1 C1 1_555 1_555
C1 C2 1_555 1_555
C2 C3 1_555 1_555
C3 H1 1_555 1_555
H2 C3 1_555 1_555
C4 C3 1_555 1_555
H3 C4 1_555 1_555
H4 C4 1_555 1_555
C5 C4 1_555 1_555
H5 C5 1_555 1_555
H6 C5 1_555 1_555
C6 C1 1_555 1_555
C7 C6 1_555 1_555
H7 C7 1_555 1_555
C8 C7 1_555 1_555
C9 C8 1_555 1_555
H8 C9 1_555 1_555
C10 C9 1_555 1_555
H9 C10 1_555 1_555
C11 S1 1_555 1_555
H10 C11 1_555 1_555
C12 C2 1_555 1_555
H11 C12 1_555 1_555
C13 C12 1_555 1_555
C14 C13 1_555 1_555
H12 C14 1_555 1_555
C15 C14 1_555 1_555
H13 C15 1_555 1_555
C16 S2 1_555 1_555
H14 C16 1_555 1_555
C5 C6 1_555 1_555
C10 C11 1_555 1_555
C15 C16 1_555 1_555

#END
