
#######################################################################
#
#                 Cambridge Crystallographic Data Centre
#                                CCDC 
#
#######################################################################
#
# If this CIF has been generated from an entry in the Cambridge 
# Structural Database, then it will include bibliographic, chemical, 
# crystal, experimental, refinement or atomic coordinate data resulting 
# from the CCDC's data processing and validation procedures.
#
#######################################################################

data_HEYXAL
_chemical_formula_moiety         'C24 H31 N3 O4'
_chemical_name_systematic        
6',7'-Dimethoxy-1,1-dimethyl-6,7,8,9,10,10a-hexahydro-1H,11H-spiro(3a,9a-(epiminomethano)cyclopenta(b)quinolizine-2,3'-indole)-2',11(1'H)-dione
_symmetry_cell_setting           monoclinic
_symmetry_space_group_name_H-M   'P 21/c'
_symmetry_Int_Tables_number      14
_space_group_name_Hall           '-P 2ybc'
loop_
_symmetry_equiv_pos_site_id
_symmetry_equiv_pos_as_xyz
1 x,y,z
2 -x,1/2+y,1/2-z
3 -x,-y,-z
4 x,1/2-y,1/2+z
_cell_length_a                   10.3506(12)
_cell_length_b                   16.2481(18)
_cell_length_c                   12.9422(15)
_cell_angle_alpha                90
_cell_angle_beta                 107.794(2)
_cell_angle_gamma                90
_cell_volume                     2072.46
_exptl_crystal_colour            colorless
_exptl_crystal_description       block
_chemical_melting_point          '290 deg.C(dec)'
_cell_formula_units_Z            4
_exptl_crystal_recrystallization_method 'ethyl acetate/dichloromethane/methanol'
loop_
_atom_site_label
_atom_site_type_symbol
_atom_site_fract_x
_atom_site_fract_y
_atom_site_fract_z
O1 O 0.44302(18) 0.53467(11) 0.26534(15)
O2 O 0.4646(2) 0.82664(11) 0.29084(18)
O3 O 0.25116(17) 0.23950(10) 0.27776(13)
O4 O 0.15670(18) 0.19242(10) 0.44297(13)
N1 N 0.3435(2) 0.41068(12) 0.27876(16)
H1 H 0.3643 0.3834 0.2273
N2 N 0.2361(2) 0.80539(12) 0.43628(15)
N3 N 0.4404(2) 0.71880(12) 0.39649(16)
H2 H 0.5270 0.7063 0.4232
C1 C 0.3704(2) 0.49199(15) 0.30119(19)
C2 C 0.2912(2) 0.51999(14) 0.37883(18)
C3 C 0.2552(2) 0.43783(14) 0.41733(18)
C4 C 0.2054(3) 0.41500(15) 0.50017(19)
H3 H 0.1919 0.4553 0.5490
C5 C 0.1746(3) 0.33240(15) 0.5127(2)
H4 H 0.1436 0.3165 0.5716
C6 C 0.1893(2) 0.27371(15) 0.43931(19)
C7 C 0.2420(2) 0.29511(14) 0.35551(18)
C8 C 0.2780(2) 0.37639(14) 0.34899(18)
C9 C 0.3739(2) 0.58248(14) 0.46359(19)
H5 H 0.3537 0.5758 0.5331
H6 H 0.4723 0.5739 0.4769
C10 C 0.3321(2) 0.66883(14) 0.41662(18)
C11 C 0.2727(3) 0.72397(14) 0.48729(19)
H7 H 0.1911 0.6975 0.4970
H8 H 0.3402 0.7308 0.5598
C12 C 0.2457(2) 0.80491(15) 0.32417(19)
C13 C 0.1991(3) 0.88696(15) 0.2692(2)
H9 H 0.0995 0.8912 0.2530
H10 H 0.2194 0.8883 0.1993
C14 C 0.2651(3) 0.96117(16) 0.3365(2)
H11 H 0.3614 0.9646 0.3385
H12 H 0.2189 1.0120 0.3020
C15 C 0.2575(3) 0.95537(16) 0.4514(2)
H13 H 0.1619 0.9614 0.4505
H14 H 0.3106 1.0007 0.4956
C16 C 0.3126(3) 0.87340(15) 0.5021(2)
H15 H 0.4097 0.8687 0.5070
H16 H 0.3053 0.8702 0.5765
C17 C 0.3955(3) 0.78540(15) 0.3335(2)
C18 C 0.1534(3) 0.73390(14) 0.26483(18)
H17 H 0.0666 0.7345 0.2820
H18 H 0.1336 0.7396 0.1853
C19 C 0.2300(2) 0.65364(14) 0.30414(18)
H19 H 0.2865 0.6442 0.2548
C20 C 0.1613(2) 0.57061(14) 0.30947(18)
C21 C 0.0533(2) 0.57336(15) 0.3676(2)
H20 H -0.0157 0.6143 0.3328
H21 H 0.0957 0.5884 0.4439
H22 H 0.0106 0.5191 0.3636
C22 C 0.0952(3) 0.53552(15) 0.19655(19)
H23 H 0.0128 0.5668 0.1605
H24 H 0.0716 0.4777 0.2025
H25 H 0.1587 0.5395 0.1540
C23 C 0.3603(3) 0.18217(16) 0.3143(2)
H26 H 0.3559 0.1420 0.2569
H27 H 0.3531 0.1535 0.3790
H28 H 0.4470 0.2117 0.3323
C24 C 0.1061(3) 0.16730(17) 0.5295(2)
H29 H 0.0933 0.1075 0.5269
H30 H 0.0191 0.1945 0.5216
H31 H 0.1713 0.1827 0.5992
loop_
_geom_bond_atom_site_label_1
_geom_bond_atom_site_label_2
_geom_bond_site_symmetry_1
_geom_bond_site_symmetry_2
O1 C1 1_555 1_555
O2 C17 1_555 1_555
O3 C7 1_555 1_555
O4 C6 1_555 1_555
N1 H1 1_555 1_555
N2 C11 1_555 1_555
N3 H2 1_555 1_555
C1 N1 1_555 1_555
C2 C1 1_555 1_555
C3 C2 1_555 1_555
C4 C3 1_555 1_555
H3 C4 1_555 1_555
C5 C4 1_555 1_555
H4 C5 1_555 1_555
C6 C5 1_555 1_555
C7 C6 1_555 1_555
C8 N1 1_555 1_555
C9 C2 1_555 1_555
H5 C9 1_555 1_555
H6 C9 1_555 1_555
C10 N3 1_555 1_555
C11 C10 1_555 1_555
H7 C11 1_555 1_555
H8 C11 1_555 1_555
C12 N2 1_555 1_555
C13 C12 1_555 1_555
H9 C13 1_555 1_555
H10 C13 1_555 1_555
C14 C13 1_555 1_555
H11 C14 1_555 1_555
H12 C14 1_555 1_555
C15 C14 1_555 1_555
H13 C15 1_555 1_555
H14 C15 1_555 1_555
C16 N2 1_555 1_555
H15 C16 1_555 1_555
H16 C16 1_555 1_555
C17 N3 1_555 1_555
C18 C12 1_555 1_555
H17 C18 1_555 1_555
H18 C18 1_555 1_555
C19 C10 1_555 1_555
H19 C19 1_555 1_555
C20 C2 1_555 1_555
C21 C20 1_555 1_555
H20 C21 1_555 1_555
H21 C21 1_555 1_555
H22 C21 1_555 1_555
C22 C20 1_555 1_555
H23 C22 1_555 1_555
H24 C22 1_555 1_555
H25 C22 1_555 1_555
C23 O3 1_555 1_555
H26 C23 1_555 1_555
H27 C23 1_555 1_555
H28 C23 1_555 1_555
C24 O4 1_555 1_555
H29 C24 1_555 1_555
H30 C24 1_555 1_555
H31 C24 1_555 1_555
C3 C8 1_555 1_555
C7 C8 1_555 1_555
C9 C10 1_555 1_555
C12 C17 1_555 1_555
C15 C16 1_555 1_555
C18 C19 1_555 1_555
C19 C20 1_555 1_555

#END
