
#######################################################################
#
#                 Cambridge Crystallographic Data Centre
#                                CCDC 
#
#######################################################################
#
# If this CIF has been generated from an entry in the Cambridge 
# Structural Database, then it will include bibliographic, chemical, 
# crystal, experimental, refinement or atomic coordinate data resulting 
# from the CCDC's data processing and validation procedures.
#
#######################################################################

data_HEZFIE
_chemical_formula_moiety         'C19 H19 N1 O1'
_chemical_name_systematic        
(2-ethyl-3,5-dimethyl-1H-indol-1-yl)(phenyl)methanone
_symmetry_cell_setting           monoclinic
_symmetry_space_group_name_H-M   'P 21/c'
_symmetry_Int_Tables_number      14
_space_group_name_Hall           '-P 2ybc'
loop_
_symmetry_equiv_pos_site_id
_symmetry_equiv_pos_as_xyz
1 x,y,z
2 -x,1/2+y,1/2-z
3 -x,-y,-z
4 x,1/2-y,1/2+z
_cell_length_a                   11.996(2)
_cell_length_b                   10.037(2)
_cell_length_c                   12.978(3)
_cell_angle_alpha                90
_cell_angle_beta                 104.78(3)
_cell_angle_gamma                90
_cell_volume                     1510.9
_exptl_crystal_colour            yellow
_exptl_crystal_description       block
_cell_formula_units_Z            4
loop_
_atom_site_label
_atom_site_type_symbol
_atom_site_fract_x
_atom_site_fract_y
_atom_site_fract_z
O1 O 0.81063(9) 0.44511(10) 1.24875(8)
N1 N 0.80469(10) 0.53925(11) 1.08790(9)
C1 C 0.76646(12) 0.26157(14) 1.00787(11)
H1 H 0.8112 0.3156 0.9736
C2 C 0.72972(12) 0.13696(14) 0.96735(11)
H2 H 0.7504 0.1048 0.9059
C3 C 0.66315(14) 0.05953(15) 1.01614(12)
H3 H 0.6373 -0.0255 0.9876
C4 C 0.63372(14) 0.10502(16) 1.10653(13)
H4 H 0.5872 0.0516 1.1394
C5 C 0.67205(13) 0.22800(14) 1.14877(12)
H5 H 0.6535 0.2582 1.2118
C6 C 0.73768(12) 0.30764(13) 1.09918(11)
C7 C 0.78480(12) 0.43449(13) 1.15194(11)
C8 C 0.73298(11) 0.57970(13) 0.98883(10)
C9 C 0.62962(12) 0.52837(14) 0.92725(11)
H6 H 0.5939 0.4534 0.9501
C10 C 0.58104(12) 0.59110(14) 0.83131(11)
H7 H 0.5110 0.5569 0.7876
C11 C 0.63045(12) 0.70261(14) 0.79591(11)
C12 C 0.72939(12) 0.75706(14) 0.86134(11)
H8 H 0.7624 0.8351 0.8400
C13 C 0.78038(12) 0.69655(13) 0.95895(11)
C14 C 0.88150(12) 0.72974(13) 1.04197(11)
C15 C 0.89481(12) 0.63558(14) 1.11935(11)
C16 C 0.99486(12) 0.61446(15) 1.21352(11)
H9 H 0.9658 0.6004 1.2776
H10 H 1.0432 0.6957 1.2253
C17 C 1.06902(14) 0.49570(17) 1.19997(14)
H11 H 1.0230 0.4140 1.1930
H12 H 1.1350 0.4886 1.2624
H13 H 1.0968 0.5081 1.1359
C18 C 0.57842(14) 0.76156(16) 0.68705(12)
H14 H 0.6025 0.8547 0.6860
H15 H 0.4942 0.7571 0.6714
H16 H 0.6049 0.7111 0.6331
C19 C 0.95677(13) 0.84663(15) 1.03711(13)
H17 H 1.0203 0.8494 1.1018
H18 H 0.9114 0.9287 1.0317
H19 H 0.9880 0.8385 0.9746
loop_
_geom_bond_atom_site_label_1
_geom_bond_atom_site_label_2
_geom_bond_site_symmetry_1
_geom_bond_site_symmetry_2
O1 C7 1_555 1_555
N1 C7 1_555 1_555
C1 H1 1_555 1_555
C2 C1 1_555 1_555
H2 C2 1_555 1_555
C3 C2 1_555 1_555
H3 C3 1_555 1_555
C4 C3 1_555 1_555
H4 C4 1_555 1_555
C5 C4 1_555 1_555
H5 C5 1_555 1_555
C6 C1 1_555 1_555
C7 C6 1_555 1_555
C8 N1 1_555 1_555
C9 C8 1_555 1_555
H6 C9 1_555 1_555
C10 C9 1_555 1_555
H7 C10 1_555 1_555
C11 C10 1_555 1_555
C12 C11 1_555 1_555
H8 C12 1_555 1_555
C13 C8 1_555 1_555
C14 C13 1_555 1_555
C15 N1 1_555 1_555
C16 C15 1_555 1_555
H9 C16 1_555 1_555
H10 C16 1_555 1_555
C17 C16 1_555 1_555
H11 C17 1_555 1_555
H12 C17 1_555 1_555
H13 C17 1_555 1_555
C18 C11 1_555 1_555
H14 C18 1_555 1_555
H15 C18 1_555 1_555
H16 C18 1_555 1_555
C19 C14 1_555 1_555
H17 C19 1_555 1_555
H18 C19 1_555 1_555
H19 C19 1_555 1_555
C5 C6 1_555 1_555
C12 C13 1_555 1_555
C14 C15 1_555 1_555

#END
