
#######################################################################
#
#                 Cambridge Crystallographic Data Centre
#                                CCDC 
#
#######################################################################
#
# If this CIF has been generated from an entry in the Cambridge 
# Structural Database, then it will include bibliographic, chemical, 
# crystal, experimental, refinement or atomic coordinate data resulting 
# from the CCDC's data processing and validation procedures.
#
#######################################################################

data_HEZFUQ
_chemical_formula_moiety         'C19 H21 N1 O1'
_chemical_name_systematic        
N-[2-methyl-6-(pent-2-en-3-yl)phenyl]benzamide
_symmetry_cell_setting           triclinic
_symmetry_space_group_name_H-M   'P -1'
_symmetry_Int_Tables_number      2
_space_group_name_Hall           '-P 1'
loop_
_symmetry_equiv_pos_site_id
_symmetry_equiv_pos_as_xyz
1 x,y,z
2 -x,-y,-z
_cell_length_a                   9.0306(18)
_cell_length_b                   11.330(3)
_cell_length_c                   15.965(3)
_cell_angle_alpha                76.49(3)
_cell_angle_beta                 89.93(3)
_cell_angle_gamma                79.04(3)
_cell_volume                     1557.72
_exptl_crystal_colour            colorless
_exptl_crystal_description       block
_cell_formula_units_Z            4
loop_
_atom_site_label
_atom_site_type_symbol
_atom_site_fract_x
_atom_site_fract_y
_atom_site_fract_z
O1 O 0.6563(4) -0.0440(3) 0.1952(2)
N1 N 0.4163(4) 0.0402(3) 0.2156(2)
H1 H 0.3379 0.0339 0.2480
C1 C 0.4030(5) 0.1404(4) 0.1410(3)
C2 C 0.4412(5) 0.2527(4) 0.1499(3)
C3 C 0.4235(5) 0.3503(4) 0.0768(3)
H2 H 0.4474 0.4270 0.0805
C4 C 0.3709(6) 0.3366(5) -0.0020(3)
H3 H 0.3586 0.4042 -0.0512
C5 C 0.3371(6) 0.2263(4) -0.0085(3)
H4 H 0.3038 0.2174 -0.0627
C6 C 0.3509(5) 0.1264(4) 0.0633(3)
C7 C 0.3128(6) 0.0051(5) 0.0562(3)
H5 H 0.4037 -0.0601 0.0697
H6 H 0.2747 0.0126 -0.0026
H7 H 0.2353 -0.0161 0.0969
C8 C 0.5022(5) 0.2705(4) 0.2318(3)
C9 C 0.6301(5) 0.3103(4) 0.2314(3)
H8 H 0.6804 0.3199 0.1786
C10 C 0.7060(6) 0.3427(5) 0.3046(3)
H9 H 0.6378 0.3428 0.3524
H10 H 0.7309 0.4249 0.2849
H11 H 0.7988 0.2813 0.3242
C11 C 0.4066(6) 0.2511(4) 0.3110(3)
H12 H 0.3431 0.1903 0.3070
H13 H 0.4738 0.2170 0.3635
C12 C 0.3063(7) 0.3717(5) 0.3184(4)
H14 H 0.3692 0.4292 0.3282
H15 H 0.2403 0.3554 0.3668
H16 H 0.2444 0.4084 0.2649
C13 C 0.5438(5) -0.0446(4) 0.2381(3)
C14 C 0.5399(5) -0.1426(4) 0.3197(3)
C15 C 0.6429(6) -0.2532(4) 0.3293(3)
H17 H 0.7134 -0.2637 0.2862
C16 C 0.6427(6) -0.3487(5) 0.4022(3)
H18 H 0.7119 -0.4249 0.4080
C17 C 0.5435(6) -0.3339(4) 0.4657(3)
H19 H 0.5442 -0.3995 0.5153
C18 C 0.4430(6) -0.2238(5) 0.4576(3)
H20 H 0.3749 -0.2127 0.5018
C19 C 0.4419(6) -0.1288(4) 0.3842(3)
H21 H 0.3719 -0.0529 0.3785
O2 O 0.1345(4) 1.0476(3) 0.3020(2)
N2 N -0.0642(4) 0.9616(3) 0.2816(2)
H22 H -0.1449 0.9669 0.2490
C20 C -0.0303(5) 0.8618(4) 0.3571(3)
C21 C 0.0601(5) 0.7500(4) 0.3499(3)
C22 C 0.0899(5) 0.6544(4) 0.4242(3)
H23 H 0.1505 0.5773 0.4212
C23 C 0.0328(6) 0.6699(4) 0.5020(3)
H24 H 0.0541 0.6035 0.5519
C24 C -0.0554(6) 0.7819(5) 0.5077(3)
H25 H -0.0932 0.7924 0.5616
C25 C -0.0886(5) 0.8792(4) 0.4344(3)
C26 C -0.1854(6) 1.0002(5) 0.4414(3)
H26 H -0.1273 1.0663 0.4257
H27 H -0.2170 0.9936 0.5008
H28 H -0.2748 1.0193 0.4023
C27 C 0.1238(5) 0.7300(4) 0.2669(3)
C28 C 0.0135(6) 0.7364(5) 0.1943(3)
H29 H 0.0610 0.7598 0.1385
H30 H -0.0766 0.8011 0.1954
C29 C -0.0350(7) 0.6129(6) 0.2014(4)
H31 H 0.0505 0.5522 0.1899
H32 H -0.1182 0.6235 0.1593
H33 H -0.0686 0.5837 0.2597
C30 C 0.2730(5) 0.6982(4) 0.2626(3)
H34 H 0.3305 0.6941 0.3134
C31 C 0.3613(6) 0.6684(5) 0.1895(3)
H35 H 0.2922 0.6659 0.1429
H36 H 0.4287 0.5876 0.2087
H37 H 0.4212 0.7320 0.1684
C32 C 0.0222(5) 1.0473(4) 0.2584(3)
C33 C -0.0264(5) 1.1419(4) 0.1772(3)
C34 C -0.1182(6) 1.1279(4) 0.1135(3)
H38 H -0.1517 1.0518 0.1198
C35 C -0.1638(6) 1.2216(5) 0.0401(3)
H39 H -0.2280 1.2096 -0.0030
C36 C -0.1155(6) 1.3319(4) 0.0300(3)
H40 H -0.1460 1.3965 -0.0201
C37 C -0.0225(6) 1.3483(4) 0.0930(3)
H41 H 0.0108 1.4245 0.0865
C38 C 0.0224(5) 1.2540(4) 0.1659(3)
H42 H 0.0874 1.2657 0.2087
loop_
_geom_bond_atom_site_label_1
_geom_bond_atom_site_label_2
_geom_bond_site_symmetry_1
_geom_bond_site_symmetry_2
O1 C13 1_555 1_555
N1 H1 1_555 1_555
C1 N1 1_555 1_555
C2 C1 1_555 1_555
C3 C2 1_555 1_555
H2 C3 1_555 1_555
C4 C3 1_555 1_555
H3 C4 1_555 1_555
C5 C4 1_555 1_555
H4 C5 1_555 1_555
C6 C1 1_555 1_555
C7 C6 1_555 1_555
H5 C7 1_555 1_555
H6 C7 1_555 1_555
H7 C7 1_555 1_555
C8 C2 1_555 1_555
C9 C8 1_555 1_555
H8 C9 1_555 1_555
C10 C9 1_555 1_555
H9 C10 1_555 1_555
H10 C10 1_555 1_555
H11 C10 1_555 1_555
C11 C8 1_555 1_555
H12 C11 1_555 1_555
H13 C11 1_555 1_555
C12 C11 1_555 1_555
H14 C12 1_555 1_555
H15 C12 1_555 1_555
H16 C12 1_555 1_555
C13 N1 1_555 1_555
C14 C13 1_555 1_555
C15 C14 1_555 1_555
H17 C15 1_555 1_555
C16 C15 1_555 1_555
H18 C16 1_555 1_555
C17 C16 1_555 1_555
H19 C17 1_555 1_555
C18 C17 1_555 1_555
H20 C18 1_555 1_555
C19 C14 1_555 1_555
H21 C19 1_555 1_555
O2 C32 1_555 1_555
N2 H22 1_555 1_555
C20 N2 1_555 1_555
C21 C20 1_555 1_555
C22 C21 1_555 1_555
H23 C22 1_555 1_555
C23 C22 1_555 1_555
H24 C23 1_555 1_555
C24 C23 1_555 1_555
H25 C24 1_555 1_555
C25 C20 1_555 1_555
C26 C25 1_555 1_555
H26 C26 1_555 1_555
H27 C26 1_555 1_555
H28 C26 1_555 1_555
C27 C21 1_555 1_555
C28 C27 1_555 1_555
H29 C28 1_555 1_555
H30 C28 1_555 1_555
C29 C28 1_555 1_555
H31 C29 1_555 1_555
H32 C29 1_555 1_555
H33 C29 1_555 1_555
C30 C27 1_555 1_555
H34 C30 1_555 1_555
C31 C30 1_555 1_555
H35 C31 1_555 1_555
H36 C31 1_555 1_555
H37 C31 1_555 1_555
C32 N2 1_555 1_555
C33 C32 1_555 1_555
C34 C33 1_555 1_555
H38 C34 1_555 1_555
C35 C34 1_555 1_555
H39 C35 1_555 1_555
C36 C35 1_555 1_555
H40 C36 1_555 1_555
C37 C36 1_555 1_555
H41 C37 1_555 1_555
C38 C33 1_555 1_555
H42 C38 1_555 1_555
C5 C6 1_555 1_555
C18 C19 1_555 1_555
C24 C25 1_555 1_555
C37 C38 1_555 1_555

#END
