
#######################################################################
#
#                 Cambridge Crystallographic Data Centre
#                                CCDC 
#
#######################################################################
#
# If this CIF has been generated from an entry in the Cambridge 
# Structural Database, then it will include bibliographic, chemical, 
# crystal, experimental, refinement or atomic coordinate data resulting 
# from the CCDC's data processing and validation procedures.
#
#######################################################################

data_HEZFOK
_chemical_formula_moiety         'C6 H8 I1 N1 O4 S1'
_chemical_name_systematic        (aqua(phenyl)iodonio)sulfamate
_symmetry_cell_setting           monoclinic
_symmetry_space_group_name_H-M   'P 21/c'
_symmetry_Int_Tables_number      14
_space_group_name_Hall           '-P 2ybc'
loop_
_symmetry_equiv_pos_site_id
_symmetry_equiv_pos_as_xyz
1 x,y,z
2 -x,1/2+y,1/2-z
3 -x,-y,-z
4 x,1/2-y,1/2+z
_cell_length_a                   11.675(2)
_cell_length_b                   7.4011(15)
_cell_length_c                   12.138(2)
_cell_angle_alpha                90
_cell_angle_beta                 112.48(3)
_cell_angle_gamma                90
_cell_volume                     969.122
_exptl_crystal_colour            white
_exptl_crystal_description       block
_cell_formula_units_Z            4
loop_
_atom_site_label
_atom_site_type_symbol
_atom_site_fract_x
_atom_site_fract_y
_atom_site_fract_z
I1 I 0.133485(13) 0.261488(17) 0.995584(12)
S1 S 0.12761(5) -0.13689(7) 0.89546(4)
O1 O 0.20514(18) -0.1228(3) 0.82759(18)
O2 O 0.19848(17) -0.1552(2) 1.02212(15)
O3 O 0.02993(19) -0.2708(2) 0.8487(2)
O4 O 0.23977(17) 0.5152(2) 1.13094(15)
H1 H 0.230(2) 0.523(4) 1.1972(14)
H2 H 0.226(3) 0.616(2) 1.092(2)
N1 N 0.04958(15) 0.0573(2) 0.88326(16)
H3 H 0.020(2) 0.099(4) 0.8087(12)
C1 C 0.28022(19) 0.3064(3) 0.93869(18)
C2 C 0.3935(2) 0.2235(3) 1.0004(2)
H4 H 0.4054 0.1504 1.0682
C3 C 0.4895(3) 0.2503(3) 0.9603(3)
H5 H 0.5677 0.1944 1.0007
C4 C 0.4711(2) 0.3576(4) 0.8620(2)
H6 H 0.5368 0.3758 0.8354
C5 C 0.3570(2) 0.4393(4) 0.8018(2)
H7 H 0.3453 0.5129 0.7343
C6 C 0.25968(19) 0.4140(3) 0.83967(19)
H8 H 0.1813 0.4691 0.7987
loop_
_geom_bond_atom_site_label_1
_geom_bond_atom_site_label_2
_geom_bond_site_symmetry_1
_geom_bond_site_symmetry_2
I1 O4 1_555 1_555
S1 O1 1_555 1_555
O2 S1 1_555 1_555
O3 S1 1_555 1_555
O4 H1 1_555 1_555
H2 O4 1_555 1_555
N1 I1 1_555 1_555
H3 N1 1_555 1_555
C1 I1 1_555 1_555
C2 C1 1_555 1_555
H4 C2 1_555 1_555
C3 C2 1_555 1_555
H5 C3 1_555 1_555
C4 C3 1_555 1_555
H6 C4 1_555 1_555
C5 C4 1_555 1_555
H7 C5 1_555 1_555
C6 C1 1_555 1_555
H8 C6 1_555 1_555
S1 N1 1_555 1_555
C5 C6 1_555 1_555

#END
