
#######################################################################
#
#                 Cambridge Crystallographic Data Centre
#                                CCDC 
#
#######################################################################
#
# If this CIF has been generated from an entry in the Cambridge 
# Structural Database, then it will include bibliographic, chemical, 
# crystal, experimental, refinement or atomic coordinate data resulting 
# from the CCDC's data processing and validation procedures.
#
#######################################################################

data_HEZJUT
_chemical_formula_moiety         'C33 H38 O1'
_chemical_name_systematic        
2,7-Di-t-butyl-10,12,13c,13d-tetramethyl-13c,13d-dihydro-11H-cyclohepta[e]pyren-11-one
_symmetry_cell_setting           monoclinic
_symmetry_space_group_name_H-M   'P 21/n'
_symmetry_Int_Tables_number      14
_space_group_name_Hall           '-P 2yn'
loop_
_symmetry_equiv_pos_site_id
_symmetry_equiv_pos_as_xyz
1 x,y,z
2 1/2-x,1/2+y,1/2-z
3 -x,-y,-z
4 1/2+x,1/2-y,1/2+z
_cell_length_a                   6.4014(3)
_cell_length_b                   38.8137(17)
_cell_length_c                   10.4638(5)
_cell_angle_alpha                90
_cell_angle_beta                 91.734(1)
_cell_angle_gamma                90
_cell_volume                     2598.67
_exptl_crystal_colour            'dark red'
_cell_formula_units_Z            4
loop_
_atom_site_label
_atom_site_type_symbol
_atom_site_fract_x
_atom_site_fract_y
_atom_site_fract_z
O1 O 1.05171(18) 0.11995(5) 0.50513(11)
C1 C 0.2535(2) 0.18000(4) 0.25681(13)
H1 H 0.2774 0.1838 0.3458
C2 C 0.1203(2) 0.20353(3) 0.18873(13)
C3 C 0.0764(2) 0.19772(3) 0.06081(13)
H2 H -0.0153 0.2131 0.0159
C4 C 0.1623(2) 0.16996(3) -0.00541(13)
C5 C 0.1125(2) 0.16288(4) -0.13129(13)
H3 H 0.0162 0.1774 -0.1765
C6 C 0.2006(2) 0.13469(4) -0.19521(14)
H4 H 0.1709 0.1317 -0.2840
C7 C 0.3289(2) 0.11141(4) -0.13175(14)
C8 C 0.4253(2) 0.08403(4) -0.19371(15)
H5 H 0.3928 0.0802 -0.2817
C9 C 0.5660(2) 0.06244(4) -0.13147(15)
C10 C 0.6179(2) 0.06862(4) -0.00005(14)
H6 H 0.7211 0.0544 0.0401
C11 C 0.5281(2) 0.09389(3) 0.07253(14)
C12 C 0.5822(2) 0.10104(3) 0.20516(13)
C13 C 0.4884(2) 0.12877(3) 0.26968(13)
C14 C 0.3497(2) 0.15227(3) 0.20224(13)
C15 C 0.0353(2) 0.23460(4) 0.26064(14)
C16 C -0.0828(3) 0.22273(5) 0.37753(17)
H7 H -0.2002 0.2080 0.3500
H8 H -0.1357 0.2429 0.4229
H9 H 0.0119 0.2097 0.4347
C17 C 0.2239(3) 0.25708(4) 0.30200(17)
H10 H 0.3191 0.2437 0.3577
H11 H 0.1750 0.2773 0.3485
H12 H 0.2977 0.2646 0.2261
C18 C -0.1110(3) 0.25691(4) 0.17723(16)
H13 H -0.2315 0.2432 0.1479
H14 H -0.0359 0.2653 0.1032
H15 H -0.1592 0.2766 0.2272
C19 C 0.6764(2) 0.03356(4) -0.20351(15)
C20 C 0.5255(2) 0.13593(4) 0.40476(13)
H16 H 0.4087 0.1457 0.4454
C21 C 0.6940(2) 0.13142(4) 0.48358(13)
C22 C 0.7007(3) 0.14766(4) 0.61437(14)
H17 H 0.5621 0.1567 0.6334
H18 H 0.8025 0.1665 0.6164
H19 H 0.7418 0.1303 0.6784
C23 C 0.8845(2) 0.11287(5) 0.45089(14)
C24 C 0.8683(2) 0.08235(5) 0.36765(14)
C25 C 1.0321(3) 0.05515(7) 0.39703(17)
H20 H 0.9964 0.0340 0.3502
H21 H 1.0372 0.0504 0.4891
H22 H 1.1689 0.0635 0.3708
C26 C 0.7332(2) 0.07807(4) 0.26775(14)
H23 H 0.7372 0.0557 0.2310
C27 C 0.3455(4) 0.15012(6) 0.0575(2)
C28 C 0.5492(3) 0.16817(6) 0.0130(2)
H24 H 0.5475 0.1924 0.0386
H25 H 0.5564 0.1666 -0.0803
H26 H 0.6713 0.1568 0.0527
C29 C 0.3395(4) 0.11246(6) 0.01464(17)
C30 C 0.1407(3) 0.09400(6) 0.0634(2)
H27 H 0.1404 0.0699 0.0351
H28 H 0.0155 0.1056 0.0287
H29 H 0.1413 0.0948 0.1570
C31 C 0.6539(6) 0.00045(7) -0.1441(3)
H30 H 0.5053 -0.0054 -0.1410
H31 H 0.7144 0.0012 -0.0570
H32 H 0.7266 -0.0170 -0.1938
C32 C 0.5931(4) 0.03039(8) -0.3505(2)
H33 H 0.6185 0.0521 -0.3952
H34 H 0.4429 0.0255 -0.3528
H35 H 0.6674 0.0117 -0.3926
C33 C 0.9127(5) 0.04380(8) -0.2191(3)
H36 H 0.9205 0.0657 -0.2651
H37 H 0.9834 0.0258 -0.2673
H38 H 0.9809 0.0462 -0.1344
C34? C 0.2585(17) 0.1401(2) 0.0721(9)
C35? C 0.0838(11) 0.1134(2) 0.0988(7)
H39? H 0.0232 0.1050 0.0175
H40? H -0.0253 0.1244 0.1483
H41? H 0.1436 0.0940 0.1474
C36? C 0.4320(15) 0.1260(2) -0.0036(7)
C37? C 0.6088(13) 0.1527(2) -0.0291(8)
H42? H 0.5497 0.1725 -0.0759
H43? H 0.7167 0.1418 -0.0799
H44? H 0.6708 0.1605 0.0526
C38? C 0.7981(7) 0.00739(10) -0.1005(4)
H45? H 0.9131 0.0198 -0.0569
H46? H 0.8539 -0.0124 -0.1463
H47? H 0.6993 -0.0006 -0.0372
C39? C 0.5038(6) 0.00986(10) -0.2605(4)
H48? H 0.4195 0.0227 -0.3242
H49? H 0.4141 0.0019 -0.1921
H50? H 0.5680 -0.0101 -0.3013
C40? C 0.8180(8) 0.04756(10) -0.2861(5)
H51? H 0.7439 0.0622 -0.3490
H52? H 0.8902 0.0290 -0.3303
H53? H 0.9205 0.0615 -0.2374
loop_
_geom_bond_atom_site_label_1
_geom_bond_atom_site_label_2
_geom_bond_site_symmetry_1
_geom_bond_site_symmetry_2
O1 C23 1_555 1_555
C1 H1 1_555 1_555
C2 C1 1_555 1_555
C3 C2 1_555 1_555
H2 C3 1_555 1_555
C4 C3 1_555 1_555
C5 C4 1_555 1_555
H3 C5 1_555 1_555
C6 C5 1_555 1_555
H4 C6 1_555 1_555
C7 C6 1_555 1_555
C8 C7 1_555 1_555
H5 C8 1_555 1_555
C9 C8 1_555 1_555
C10 C9 1_555 1_555
H6 C10 1_555 1_555
C11 C10 1_555 1_555
C12 C11 1_555 1_555
C13 C12 1_555 1_555
C14 C1 1_555 1_555
C15 C2 1_555 1_555
C16 C15 1_555 1_555
H7 C16 1_555 1_555
H8 C16 1_555 1_555
H9 C16 1_555 1_555
C17 C15 1_555 1_555
H10 C17 1_555 1_555
H11 C17 1_555 1_555
H12 C17 1_555 1_555
C18 C15 1_555 1_555
H13 C18 1_555 1_555
H14 C18 1_555 1_555
H15 C18 1_555 1_555
C19 C9 1_555 1_555
C20 C13 1_555 1_555
H16 C20 1_555 1_555
C21 C20 1_555 1_555
C22 C21 1_555 1_555
H17 C22 1_555 1_555
H18 C22 1_555 1_555
H19 C22 1_555 1_555
C23 C21 1_555 1_555
C24 C23 1_555 1_555
C25 C24 1_555 1_555
H20 C25 1_555 1_555
H21 C25 1_555 1_555
H22 C25 1_555 1_555
C26 C12 1_555 1_555
H23 C26 1_555 1_555
C27 C4 1_555 1_555
C28 C27 1_555 1_555
H24 C28 1_555 1_555
H25 C28 1_555 1_555
H26 C28 1_555 1_555
C29 C7 1_555 1_555
C30 C29 1_555 1_555
H27 C30 1_555 1_555
H28 C30 1_555 1_555
H29 C30 1_555 1_555
C31 C19 1_555 1_555
H30 C31 1_555 1_555
H31 C31 1_555 1_555
H32 C31 1_555 1_555
C32 C19 1_555 1_555
H33 C32 1_555 1_555
H34 C32 1_555 1_555
H35 C32 1_555 1_555
C33 C19 1_555 1_555
H36 C33 1_555 1_555
H37 C33 1_555 1_555
H38 C33 1_555 1_555
C11 C29 1_555 1_555
C13 C14 1_555 1_555
C14 C27 1_555 1_555
C24 C26 1_555 1_555
C27 C29 1_555 1_555

#END
