
#######################################################################
#
#                 Cambridge Crystallographic Data Centre
#                                CCDC 
#
#######################################################################
#
# If this CIF has been generated from an entry in the Cambridge 
# Structural Database, then it will include bibliographic, chemical, 
# crystal, experimental, refinement or atomic coordinate data resulting 
# from the CCDC's data processing and validation procedures.
#
#######################################################################

data_HEZNAB
_chemical_formula_moiety         'C37 H33 N7'
_chemical_name_systematic        
N,N'-bis(4,4-Diphenyl-1-methyl-2,3-diazabuta-1,3-dien-1-yl)-N''-phenylguanidine
_symmetry_cell_setting           orthorhombic
_symmetry_space_group_name_H-M   'P 21 21 21'
_symmetry_Int_Tables_number      19
_space_group_name_Hall           'P 2ac 2ab'
loop_
_symmetry_equiv_pos_site_id
_symmetry_equiv_pos_as_xyz
1 x,y,z
2 1/2-x,-y,1/2+z
3 1/2+x,1/2-y,-z
4 -x,1/2+y,1/2-z
_cell_length_a                   7.221(2)
_cell_length_b                   15.345(5)
_cell_length_c                   28.233(5)
_cell_angle_alpha                90
_cell_angle_beta                 90
_cell_angle_gamma                90
_cell_volume                     3128.39
_exptl_crystal_colour            yellow
_chemical_melting_point          196-197deg.C
_cell_formula_units_Z            4
loop_
_atom_site_label
_atom_site_type_symbol
_atom_site_fract_x
_atom_site_fract_y
_atom_site_fract_z
N1 N 0.2651(20) 0.2149(9) 0.1529(4)
N2 N 0.1043(18) 0.1786(8) 0.1743(4)
N3 N -0.1494(18) 0.0945(8) 0.1539(4)
H1 H -0.231(20) 0.0719(94) 0.1300(46)
N4 N -0.1329(17) 0.1170(8) 0.2353(3)
N5 N -0.3965(24) 0.0472(9) 0.2029(5)
N6 N -0.4482(18) 0.0133(8) 0.1237(4)
N7 N -0.5664(17) -0.0379(8) 0.0963(4)
C1 C 0.3628(22) 0.2607(10) 0.1827(5)
C2 C 0.6099(15) 0.2747(6) 0.1212(3)
C3 C 0.7661(15) 0.3163(6) 0.1029(3)
C4 C 0.8457(15) 0.3859(6) 0.1273(3)
C5 C 0.7690(15) 0.4140(6) 0.1701(3)
C6 C 0.6128(15) 0.3724(6) 0.1884(3)
C7 C 0.5333(15) 0.3028(6) 0.1639(3)
H2 H 0.5483(15) 0.2209(6) 0.1023(3)
H3 H 0.8255(15) 0.2946(6) 0.0699(3)
H4 H 0.9666(15) 0.4181(6) 0.1132(3)
H5 H 0.8306(15) 0.4679(6) 0.1890(3)
H6 H 0.5535(15) 0.3941(6) 0.2214(3)
C8 C 0.4169(13) 0.2382(6) 0.2694(4)
C9 C 0.3871(13) 0.2598(6) 0.3168(4)
C10 C 0.2516(13) 0.3207(6) 0.3288(4)
C11 C 0.1459(13) 0.3601(6) 0.2934(4)
C12 C 0.1756(13) 0.3385(6) 0.2460(4)
C13 C 0.3111(13) 0.2776(6) 0.2340(4)
H7 H 0.5217(13) 0.1910(6) 0.2601(4)
H8 H 0.4690(13) 0.2294(6) 0.3442(4)
H9 H 0.2286(13) 0.3375(6) 0.3655(4)
H10 H 0.0410(13) 0.4073(6) 0.3027(4)
H11 H 0.0937(13) 0.3689(6) 0.2186(4)
C14 C 0.0117(23) 0.1366(11) 0.1407(4)
C15 C 0.0583(32) 0.1243(21) 0.0907(7)
H12 H 0.212(20) 0.1598(83) 0.0865(42)
H13 H 0.035(33) 0.146(17) 0.0795(75)
H14 H -0.037(20) 0.0775(90) 0.0728(47)
C16 C -0.0761(14) 0.1654(6) 0.3122(4)
C17 C -0.0994(14) 0.1630(6) 0.3612(4)
C18 C -0.2222(14) 0.1035(6) 0.3814(4)
C19 C -0.3217(14) 0.0464(6) 0.3526(4)
C20 C -0.2983(14) 0.0488(6) 0.3035(4)
C21 C -0.1756(14) 0.1083(6) 0.2833(4)
H15 H 0.0189(14) 0.2115(6) 0.2965(4)
H16 H -0.0225(14) 0.2072(6) 0.3835(4)
H17 H -0.2403(14) 0.1016(6) 0.4194(4)
H18 H -0.4167(14) 0.0003(6) 0.3682(4)
H19 H -0.3753(14) 0.0046(6) 0.2812(4)
C22 C -0.2300(26) 0.0869(10) 0.1974(5)
C23 C -0.5001(22) 0.0121(10) 0.1694(6)
C24 C -0.6792(27) -0.0267(13) 0.1863(6)
H20 H -0.756(19) -0.0406(80) 0.1531(45)
H21 H -0.755(20) -0.0003(90) 0.2159(46)
H22 H -0.685(22) -0.0839(88) 0.1993(45)
C25 C -0.5482(20) -0.0336(9) 0.0514(5)
C26 C -0.6691(13) -0.0754(6) -0.0277(3)
C27 C -0.7817(13) -0.1271(6) -0.0563(3)
C28 C -0.8951(13) -0.1905(6) -0.0360(3)
C29 C -0.8959(13) -0.2022(6) 0.0130(3)
C30 C -0.7832(13) -0.1505(6) 0.0417(3)
C31 C -0.6698(13) -0.0871(6) 0.0213(3)
H23 H -0.5813(13) -0.0264(6) -0.0434(3)
H24 H -0.7812(13) -0.1181(6) -0.0943(3)
H25 H -0.9824(13) -0.2305(6) -0.0582(3)
H26 H -0.9836(13) -0.2513(6) 0.0287(3)
H27 H -0.7837(13) -0.1596(6) 0.0796(3)
C32 C -0.2491(14) -0.0072(5) 0.0077(3)
C33 C -0.1341(14) 0.0463(5) -0.0193(3)
C34 C -0.1809(14) 0.1335(5) -0.0265(3)
C35 C -0.3427(14) 0.1672(5) -0.0067(3)
C36 C -0.4577(14) 0.1137(5) 0.0203(3)
C37 C -0.4109(14) 0.0265(5) 0.0275(3)
H28 H -0.2128(14) -0.0747(5) 0.0133(3)
H29 H -0.0088(14) 0.0202(5) -0.0347(3)
H30 H -0.0918(14) 0.1749(5) -0.0475(3)
H31 H -0.3790(14) 0.2347(5) -0.0123(3)
H32 H -0.5830(14) 0.1398(5) 0.0356(3)
H33? H -0.370(27) 0.103(11) 0.2128(55)
loop_
_geom_bond_atom_site_label_1
_geom_bond_atom_site_label_2
_geom_bond_site_symmetry_1
_geom_bond_site_symmetry_2
N1 N2 1_555 1_555
N2 C14 1_555 1_555
N3 H1 1_555 1_555
N4 C21 1_555 1_555
N5 C22 1_555 1_555
N6 N7 1_555 1_555
N7 C25 1_555 1_555
C1 N1 1_555 1_555
C2 C3 1_555 1_555
C3 C4 1_555 1_555
C4 C5 1_555 1_555
C5 C6 1_555 1_555
C6 C7 1_555 1_555
C7 C1 1_555 1_555
H2 C2 1_555 1_555
H3 C3 1_555 1_555
H4 C4 1_555 1_555
H5 C5 1_555 1_555
H6 C6 1_555 1_555
C8 C9 1_555 1_555
C9 C10 1_555 1_555
C10 C11 1_555 1_555
C11 C12 1_555 1_555
C12 C13 1_555 1_555
C13 C1 1_555 1_555
H7 C8 1_555 1_555
H8 C9 1_555 1_555
H9 C10 1_555 1_555
H10 C11 1_555 1_555
H11 C12 1_555 1_555
C14 N3 1_555 1_555
C15 C14 1_555 1_555
H12 C15 1_555 1_555
H13 C15 1_555 1_555
H14 C15 1_555 1_555
C16 C17 1_555 1_555
C17 C18 1_555 1_555
C18 C19 1_555 1_555
C19 C20 1_555 1_555
C20 C21 1_555 1_555
C21 C16 1_555 1_555
H15 C16 1_555 1_555
H16 C17 1_555 1_555
H17 C18 1_555 1_555
H18 C19 1_555 1_555
H19 C20 1_555 1_555
C22 N3 1_555 1_555
C23 N5 1_555 1_555
C24 C23 1_555 1_555
H20 C24 1_555 1_555
H21 C24 1_555 1_555
H22 C24 1_555 1_555
C25 C31 1_555 1_555
C26 C27 1_555 1_555
C27 C28 1_555 1_555
C28 C29 1_555 1_555
C29 C30 1_555 1_555
C30 C31 1_555 1_555
C31 C26 1_555 1_555
H23 C26 1_555 1_555
H24 C27 1_555 1_555
H25 C28 1_555 1_555
H26 C29 1_555 1_555
H27 C30 1_555 1_555
C32 C33 1_555 1_555
C33 C34 1_555 1_555
C34 C35 1_555 1_555
C35 C36 1_555 1_555
C36 C37 1_555 1_555
C37 C25 1_555 1_555
H28 C32 1_555 1_555
H29 C33 1_555 1_555
H30 C34 1_555 1_555
H31 C35 1_555 1_555
H32 C36 1_555 1_555
N4 C22 1_555 1_555
N6 C23 1_555 1_555
C2 C7 1_555 1_555
C8 C13 1_555 1_555
C32 C37 1_555 1_555

#END
