
#######################################################################
#
#                 Cambridge Crystallographic Data Centre
#                                CCDC 
#
#######################################################################
#
# If this CIF has been generated from an entry in the Cambridge 
# Structural Database, then it will include bibliographic, chemical, 
# crystal, experimental, refinement or atomic coordinate data resulting 
# from the CCDC's data processing and validation procedures.
#
#######################################################################

data_HEZPIO
_chemical_formula_moiety         'C24 H22 F5 N1 O4 S1'
_chemical_name_systematic        
'4-benzyl 2-methyl 5-(naphthalen-2-yl)-3-(pentafluorosulfanyl)pyrrolidine-2,4-dicarboxylate'
_symmetry_cell_setting           triclinic
_symmetry_space_group_name_H-M   'P 1'
_symmetry_Int_Tables_number      1
_space_group_name_Hall           'P 1'
loop_
_symmetry_equiv_pos_site_id
_symmetry_equiv_pos_as_xyz
1 x,y,z
_cell_length_a                   5.8464(3)
_cell_length_b                   7.1522(3)
_cell_length_c                   13.4511(6)
_cell_angle_alpha                97.322(4)
_cell_angle_beta                 100.704(4)
_cell_angle_gamma                94.614(4)
_cell_volume                     545.022
_exptl_crystal_colour            colorless
_exptl_crystal_description       parallelepiped
_cell_formula_units_Z            1
loop_
_atom_site_label
_atom_site_type_symbol
_atom_site_fract_x
_atom_site_fract_y
_atom_site_fract_z
C1 C -1.3870(8) -0.9955(7) -0.9760(3)
H1 H -1.455256 -1.085705 -0.937681
H2 H -1.378171 -1.060297 -1.043691
H3 H -1.485363 -0.891553 -0.983736
C2 C -1.1378(7) -0.8373(5) -0.8255(3)
C3 C -0.8864(7) -0.7607(5) -0.7776(3)
H4 H -0.776858 -0.808119 -0.821637
C4 C -0.8448(7) -0.5416(5) -0.7501(3)
H5 H -0.959045 -0.500719 -0.706963
C5 C -0.6016(7) -0.5182(5) -0.6812(3)
H6 H -0.485436 -0.5408 -0.726237
C6 C -0.6107(7) -0.6879(5) -0.6188(3)
H7 H -0.470619 -0.757583 -0.62348
C7 C -0.6232(7) -0.6390(5) -0.5067(3)
C8 C -0.4477(7) -0.6754(5) -0.4329(3)
H8 H -0.316468 -0.729345 -0.452312
C9 C -0.4544(7) -0.6352(5) -0.3275(3)
C10 C -0.6489(7) -0.5521(5) -0.2990(3)
C11 C -0.8305(7) -0.5136(5) -0.3774(3)
H9 H -0.961087 -0.456042 -0.35967
C12 C -0.8192(7) -0.5585(5) -0.4779(3)
H10 H -0.944529 -0.535549 -0.529369
C13 C -0.6554(7) -0.5098(6) -0.1939(3)
H11 H -0.78447 -0.453127 -0.173933
C14 C -0.4772(7) -0.5501(6) -0.1208(3)
H12 H -0.482769 -0.519869 -0.050486
C15 C -0.2854(7) -0.6360(6) -0.1491(3)
H13 H -0.163753 -0.665211 -0.097915
C16 C -0.2742(7) -0.6774(5) -0.2501(3)
H14 H -0.144348 -0.735121 -0.268533
C17 C -0.5283(7) -0.3252(6) -0.6175(3)
C18 C -0.1896(8) -0.1134(6) -0.5337(3)
H15 H -0.302546 -0.019494 -0.5479
H16 H -0.049392 -0.076 -0.561012
C19 C -0.1208(7) -0.1087(5) -0.4211(3)
C20 C -0.2754(7) -0.1730(6) -0.3619(3)
H17 H -0.430719 -0.223052 -0.394134
C21 C -0.2061(8) -0.1649(6) -0.2576(3)
H18 H -0.31207 -0.211331 -0.21855
C22 C 0.0203(8) -0.0883(6) -0.2097(3)
H19 H 0.068927 -0.082538 -0.137852
C23 C 0.1731(8) -0.0211(6) -0.2665(3)
H20 H 0.326258 0.033595 -0.233558
C24 C 0.1043(7) -0.0329(5) -0.3716(3)
H21 H 0.212194 0.011348 -0.410369
N1 N -0.8227(6) -0.8109(5) -0.6751(2)
H22 H -0.787(8) -0.929(7) -0.673(3)
O1 O -1.1543(5) -0.9202(4) -0.9212(2)
O2 O -1.3013(5) -0.8235(4) -0.7832(2)
O3 O -0.6593(5) -0.2099(4) -0.5991(2)
O4 O -0.2955(5) -0.3007(4) -0.5868(2)
F1 F -0.7816(5) -0.5661(4) -0.92917(19)
F2 F -0.9761(5) -0.2394(4) -0.7966(2)
F3 F -0.9143(5) -0.2950(4) -0.95332(19)
F4 F -1.1367(4) -0.5056(4) -0.89936(18)
F5 F -0.6229(5) -0.2977(4) -0.8260(2)
S1 S -0.87663(18) -0.40790(14) -0.85894(8)
loop_
_geom_bond_atom_site_label_1
_geom_bond_atom_site_label_2
_geom_bond_site_symmetry_1
_geom_bond_site_symmetry_2
C1 H1 1_555 1_555
H2 C1 1_555 1_555
H3 C1 1_555 1_555
C2 C3 1_555 1_555
C3 H4 1_555 1_555
C4 C3 1_555 1_555
H5 C4 1_555 1_555
C5 C4 1_555 1_555
H6 C5 1_555 1_555
C6 C5 1_555 1_555
H7 C6 1_555 1_555
C7 C6 1_555 1_555
C8 C7 1_555 1_555
H8 C8 1_555 1_555
C9 C8 1_555 1_555
C10 C9 1_555 1_555
C11 C10 1_555 1_555
H9 C11 1_555 1_555
C12 C7 1_555 1_555
H10 C12 1_555 1_555
C13 C10 1_555 1_555
H11 C13 1_555 1_555
C14 C13 1_555 1_555
H12 C14 1_555 1_555
C15 C14 1_555 1_555
H13 C15 1_555 1_555
C16 C9 1_555 1_555
H14 C16 1_555 1_555
C17 C5 1_555 1_555
C18 H15 1_555 1_555
H16 C18 1_555 1_555
C19 C18 1_555 1_555
C20 C19 1_555 1_555
H17 C20 1_555 1_555
C21 C20 1_555 1_555
H18 C21 1_555 1_555
C22 C21 1_555 1_555
H19 C22 1_555 1_555
C23 C22 1_555 1_555
H20 C23 1_555 1_555
C24 C19 1_555 1_555
H21 C24 1_555 1_555
N1 C3 1_555 1_555
H22 N1 1_555 1_555
O1 C1 1_555 1_555
O2 C2 1_555 1_555
O3 C17 1_555 1_555
O4 C17 1_555 1_555
F1 S1 1_555 1_555
F2 S1 1_555 1_555
F3 S1 1_555 1_555
F4 S1 1_555 1_555
F5 S1 1_555 1_555
S1 C4 1_555 1_555
C2 O1 1_555 1_555
C6 N1 1_555 1_555
C11 C12 1_555 1_555
C15 C16 1_555 1_555
C18 O4 1_555 1_555
C23 C24 1_555 1_555

#END
