
#######################################################################
#
#                 Cambridge Crystallographic Data Centre
#                                CCDC 
#
#######################################################################
#
# If this CIF has been generated from an entry in the Cambridge 
# Structural Database, then it will include bibliographic, chemical, 
# crystal, experimental, refinement or atomic coordinate data resulting 
# from the CCDC's data processing and validation procedures.
#
#######################################################################

data_HEZQUY03
_chemical_formula_moiety         'C8 H6 O2'
_chemical_name_systematic        2-benzofuran-1(3H)-one
_symmetry_cell_setting           monoclinic
_symmetry_space_group_name_H-M   'P 21/c'
_symmetry_Int_Tables_number      14
_space_group_name_Hall           '-P 2ybc'
loop_
_symmetry_equiv_pos_site_id
_symmetry_equiv_pos_as_xyz
1 x,y,z
2 -x,1/2+y,1/2-z
3 -x,-y,-z
4 x,1/2-y,1/2+z
_cell_length_a                   7.7471(7)
_cell_length_b                   10.8420(11)
_cell_length_c                   8.1277(9)
_cell_angle_alpha                90
_cell_angle_beta                 112.208(4)
_cell_angle_gamma                90
_cell_volume                     632.036
_exptl_crystal_colour            colorless
_cell_formula_units_Z            4
loop_
_atom_site_label
_atom_site_type_symbol
_atom_site_fract_x
_atom_site_fract_y
_atom_site_fract_z
O1 O 1.32570(19) 0.75383(13) 0.6052(2)
O2 O 1.37604(15) 0.59278(11) 0.78756(15)
C1 C 1.2631(2) 0.67415(17) 0.6691(2)
C2 C 1.0699(2) 0.64536(15) 0.6429(2)
C3 C 1.0699(2) 0.54775(15) 0.7500(2)
C4 C 0.9038(2) 0.50287(17) 0.7531(2)
H1 H 0.9024 0.4366 0.8252
C5 C 0.7412(2) 0.55930(19) 0.6465(2)
H2 H 0.6284 0.5310 0.6480
C6 C 1.2676(2) 0.51017(16) 0.8496(2)
H3 H 1.3008 0.5191 0.9767
H4 H 1.2873 0.4251 0.8240
C7 C 0.9051(2) 0.70133(18) 0.5329(2)
H5 H 0.9062 0.7666 0.4591
C8 C 0.7407(2) 0.65717(18) 0.5368(2)
H6 H 0.6283 0.6932 0.4654
loop_
_geom_bond_atom_site_label_1
_geom_bond_atom_site_label_2
_geom_bond_site_symmetry_1
_geom_bond_site_symmetry_2
O1 C1 1_555 1_555
O2 C1 1_555 1_555
C1 C2 1_555 1_555
C2 C3 1_555 1_555
C3 C4 1_555 1_555
C4 H1 1_555 1_555
C5 C4 1_555 1_555
H2 C5 1_555 1_555
C6 O2 1_555 1_555
H3 C6 1_555 1_555
H4 C6 1_555 1_555
C7 C2 1_555 1_555
H5 C7 1_555 1_555
C8 C5 1_555 1_555
H6 C8 1_555 1_555
C3 C6 1_555 1_555
C7 C8 1_555 1_555

#END
