
#######################################################################
#
#                 Cambridge Crystallographic Data Centre
#                                CCDC 
#
#######################################################################
#
# If this CIF has been generated from an entry in the Cambridge 
# Structural Database, then it will include bibliographic, chemical, 
# crystal, experimental, refinement or atomic coordinate data resulting 
# from the CCDC's data processing and validation procedures.
#
#######################################################################

data_HEZRUZ
_chemical_formula_moiety         'C14 H18 N2 O4'
_chemical_name_systematic        
2,2-Dimethyl-5-(p-dimethylaminopyridyl)methyl-1,3-dioxane-4,6-dione
_symmetry_cell_setting           orthorhombic
_symmetry_space_group_name_H-M   'P 21 21 21'
_symmetry_Int_Tables_number      19
_space_group_name_Hall           'P 2ac 2ab'
loop_
_symmetry_equiv_pos_site_id
_symmetry_equiv_pos_as_xyz
1 x,y,z
2 1/2-x,-y,1/2+z
3 1/2+x,1/2-y,-z
4 -x,1/2+y,1/2-z
_cell_length_a                   7.1270(10)
_cell_length_b                   10.044(3)
_cell_length_c                   19.322(7)
_cell_angle_alpha                90
_cell_angle_beta                 90
_cell_angle_gamma                90
_cell_volume                     1383.14
_exptl_crystal_colour            colorless
_cell_formula_units_Z            4
loop_
_atom_site_label
_atom_site_type_symbol
_atom_site_fract_x
_atom_site_fract_y
_atom_site_fract_z
N1 N -0.5001(5) 0.0129(4) 0.9177(2)
C1 C -0.4932(7) -0.0122(5) 0.9861(3)
C2 C -0.4920(8) -0.1381(5) 1.0119(3)
C3 C -0.4986(6) -0.2497(5) 0.9660(3)
C4 C -0.5031(7) -0.2177(5) 0.8952(3)
C5 C -0.5040(7) -0.0882(5) 0.8734(2)
N2 N -0.4961(7) -0.3740(4) 0.9884(2)
C6 C -0.5071(11) -0.4865(6) 0.9396(3)
C7 C -0.4982(9) -0.4071(6) 1.0609(3)
C8 C -0.5025(8) 0.1538(5) 0.8910(3)
C9 C -0.3289(7) 0.1915(5) 0.8539(2)
C10 C -0.3158(6) 0.1736(5) 0.7820(2)
O1 O -0.1529(5) 0.2206(3) 0.7497(2)
C11 C -0.0482(7) 0.3197(5) 0.7863(3)
O2 O -0.0194(5) 0.2762(4) 0.8568(2)
C12 C -0.1768(6) 0.2368(5) 0.8926(3)
C13 C 0.1435(8) 0.3241(8) 0.7539(3)
C14 C -0.1466(9) 0.4488(6) 0.7835(3)
O3 O -0.4260(5) 0.1166(4) 0.7435(2)
O4 O -0.1647(5) 0.2361(4) 0.9560(2)
H1 H -0.4931 0.0613 1.0178
H2 H -0.4869 -0.1522 1.0610
H3 H -0.5031 -0.2881 0.8615
H4 H -0.5076 -0.0702 0.8246
H5 H -0.5068 -0.4525 0.8931
H6 H -0.4017 -0.5449 0.9458
H7 H -0.6212 -0.5348 0.9476
H8 H -0.4893 -0.3268 1.0877
H9 H -0.6119 -0.4531 1.0726
H10 H -0.3925 -0.4632 1.0708
H11 H -0.5197 0.2130 0.9296
H12 H -0.6078 0.1648 0.8606
H13 H 0.2014 0.2381 0.7570
H14 H 0.1327 0.3494 0.7061
H15 H 0.2189 0.3883 0.7779
H16 H -0.2677 0.4393 0.8046
H17 H -0.0755 0.5148 0.8080
H18 H -0.1617 0.4760 0.7362
loop_
_geom_bond_atom_site_label_1
_geom_bond_atom_site_label_2
_geom_bond_site_symmetry_1
_geom_bond_site_symmetry_2
N1 C1 1_555 1_555
C1 C2 1_555 1_555
C2 C3 1_555 1_555
C3 C4 1_555 1_555
C4 C5 1_555 1_555
C5 N1 1_555 1_555
N2 C3 1_555 1_555
C6 N2 1_555 1_555
C7 N2 1_555 1_555
C8 N1 1_555 1_555
C9 C8 1_555 1_555
C10 C9 1_555 1_555
O1 C10 1_555 1_555
C11 O1 1_555 1_555
O2 C11 1_555 1_555
C12 C9 1_555 1_555
C13 C11 1_555 1_555
C14 C11 1_555 1_555
O3 C10 1_555 1_555
O4 C12 1_555 1_555
H1 C1 1_555 1_555
H2 C2 1_555 1_555
H3 C4 1_555 1_555
H4 C5 1_555 1_555
H5 C6 1_555 1_555
H6 C6 1_555 1_555
H7 C6 1_555 1_555
H8 C7 1_555 1_555
H9 C7 1_555 1_555
H10 C7 1_555 1_555
H11 C8 1_555 1_555
H12 C8 1_555 1_555
H13 C13 1_555 1_555
H14 C13 1_555 1_555
H15 C13 1_555 1_555
H16 C14 1_555 1_555
H17 C14 1_555 1_555
H18 C14 1_555 1_555
O2 C12 1_555 1_555

#END
