
#######################################################################
#
#                 Cambridge Crystallographic Data Centre
#                                CCDC 
#
#######################################################################
#
# If this CIF has been generated from an entry in the Cambridge 
# Structural Database, then it will include bibliographic, chemical, 
# crystal, experimental, refinement or atomic coordinate data resulting 
# from the CCDC's data processing and validation procedures.
#
#######################################################################

data_HEZSUB
_chemical_formula_moiety         'C54 H52 O4'
_chemical_name_systematic        
trans-anti-3,3'-(4'-n-hexyl-4-biphenyl)-3,3'-dihydroxy-(2,2'-bi-1H-indene)-1,1-dione
_symmetry_cell_setting           triclinic
_symmetry_space_group_name_H-M   'P -1'
_symmetry_Int_Tables_number      2
_space_group_name_Hall           '-P 1'
loop_
_symmetry_equiv_pos_site_id
_symmetry_equiv_pos_as_xyz
1 x,y,z
2 -x,-y,-z
_cell_length_a                   6.2667(9)
_cell_length_b                   8.5979(12)
_cell_length_c                   19.959(3)
_cell_angle_alpha                83.907(2)
_cell_angle_beta                 89.471(2)
_cell_angle_gamma                77.551(2)
_cell_volume                     1044.08
_exptl_crystal_colour            'pale yellow'
_exptl_crystal_description       lamellar
_chemical_melting_point          '277.7 deg.C'
_cell_formula_units_Z            1
_chemical_properties_physical    light-sensitive
_exptl_crystal_recrystallization_method dichloromethane/acetone
_exptl_crystal_preparation       photochromic
loop_
_atom_site_label
_atom_site_type_symbol
_atom_site_fract_x
_atom_site_fract_y
_atom_site_fract_z
O1 O 0.1327(2) 0.4217(2) 0.05580(9)
H1 H 0.0906 0.5188 0.0470
O2 O 0.8331(3) 0.27075(19) -0.02841(8)
C1 C 0.4292(4) 0.2052(3) 0.08691(11)
C2 C 0.3294(5) 0.0997(3) 0.12616(13)
H2 H 0.2008 0.1362 0.1487
C3 C 0.4258(5) -0.0608(3) 0.13091(14)
H3 H 0.3602 -0.1338 0.1566
C4 C 0.6199(5) -0.1160(3) 0.09795(14)
H4 H 0.6834 -0.2249 0.1029
C5 C 0.7180(5) -0.0135(3) 0.05868(13)
H5 H 0.8472 -0.0506 0.0365
C6 C 0.6186(4) 0.1493(3) 0.05258(11)
C7 C 0.6778(4) 0.2812(3) 0.00948(12)
C8 C 0.5079(3) 0.4290(3) 0.01878(11)
C9 C 0.3559(3) 0.3862(3) 0.07570(11)
C10 C 0.3929(3) 0.4570(3) 0.14067(11)
C11 C 0.2208(4) 0.5209(4) 0.17943(13)
H6 H 0.0788 0.5284 0.1642
C12 C 0.2537(4) 0.5744(4) 0.24034(13)
H7 H 0.1327 0.6180 0.2649
C13 C 0.4598(4) 0.5655(3) 0.26628(12)
C14 C 0.6311(4) 0.5048(3) 0.22617(13)
H8 H 0.7732 0.4991 0.2409
C15 C 0.5988(4) 0.4520(3) 0.16480(12)
H9 H 0.7193 0.4122 0.1393
C16 C 0.4936(4) 0.6182(3) 0.33304(12)
C17 C 0.3259(5) 0.6775(5) 0.37322(17)
H10 H 0.1833 0.6896 0.3576
C18 C 0.3593(6) 0.7203(5) 0.43617(16)
H11 H 0.2378 0.7589 0.4615
C19 C 0.5578(5) 0.7092(4) 0.46259(13)
C20 C 0.7273(5) 0.6477(6) 0.42383(16)
H12 H 0.8692 0.6344 0.4402
C21 C 0.6952(5) 0.6040(5) 0.36050(16)
H13 H 0.8170 0.5632 0.3357
C22 C 0.5832(5) 0.7536(4) 0.53327(14)
H14 H 0.4695 0.8469 0.5396
H15 H 0.5571 0.6664 0.5651
C23 C 0.7972(5) 0.7889(4) 0.55120(14)
H16 H 0.8244 0.8774 0.5204
H17 H 0.9127 0.6961 0.5457
C24 C 0.8044(5) 0.8313(4) 0.62318(14)
H18 H 0.6840 0.9207 0.6290
H19 H 0.7825 0.7408 0.6538
C25 C 1.0154(5) 0.8750(5) 0.64264(15)
H20 H 1.1363 0.7863 0.6364
H21 H 1.0365 0.9667 0.6127
C26 C 1.0197(6) 0.9141(5) 0.71450(16)
H22 H 0.8961 1.0008 0.7209
H23 H 1.0018 0.8213 0.7443
C27 C 1.2239(7) 0.9616(6) 0.7345(2)
H24 H 1.3479 0.8779 0.7273
H25 H 1.2177 0.9789 0.7812
H26 H 1.2372 1.0586 0.7077
O1A O 0.8673(2) 0.5783(2) -0.05580(9)
H1A H 0.9094 0.4812 -0.0470
O2A O 0.1669(3) 0.72925(19) 0.02841(8)
C1A C 0.5708(4) 0.7948(3) -0.08691(11)
C2A C 0.6706(5) 0.9003(3) -0.12616(13)
H2A H 0.7992 0.8638 -0.1487
C3A C 0.5742(5) 1.0608(3) -0.13091(14)
H3A H 0.6398 1.1338 -0.1566
C4A C 0.3801(5) 1.1160(3) -0.09795(14)
H4A H 0.3166 1.2249 -0.1029
C5A C 0.2820(5) 1.0135(3) -0.05868(13)
H5A H 0.1528 1.0506 -0.0365
C6A C 0.3814(4) 0.8507(3) -0.05258(11)
C7A C 0.3222(4) 0.7188(3) -0.00948(12)
C8A C 0.4921(3) 0.5710(3) -0.01878(11)
C9A C 0.6441(3) 0.6138(3) -0.07570(11)
C10A C 0.6071(3) 0.5430(3) -0.14067(11)
C11A C 0.7792(4) 0.4791(4) -0.17943(13)
H6A H 0.9212 0.4716 -0.1642
C12A C 0.7463(4) 0.4256(4) -0.24034(13)
H7A H 0.8673 0.3820 -0.2649
C13A C 0.5402(4) 0.4345(3) -0.26628(12)
C14A C 0.3689(4) 0.4952(3) -0.22617(13)
H8A H 0.2268 0.5009 -0.2409
C15A C 0.4012(4) 0.5480(3) -0.16480(12)
H9A H 0.2807 0.5878 -0.1393
C16A C 0.5064(4) 0.3818(3) -0.33304(12)
C17A C 0.6741(5) 0.3225(5) -0.37322(17)
H10A H 0.8167 0.3104 -0.3576
C18A C 0.6407(6) 0.2797(5) -0.43617(16)
H11A H 0.7622 0.2411 -0.4615
C19A C 0.4422(5) 0.2908(4) -0.46259(13)
C20A C 0.2727(5) 0.3523(6) -0.42383(16)
H12A H 0.1308 0.3656 -0.4402
C21A C 0.3048(5) 0.3960(5) -0.36050(16)
H13A H 0.1830 0.4368 -0.3357
C22A C 0.4168(5) 0.2464(4) -0.53327(14)
H14A H 0.5305 0.1531 -0.5396
H15A H 0.4429 0.3336 -0.5651
C23A C 0.2028(5) 0.2111(4) -0.55120(14)
H16A H 0.1756 0.1226 -0.5204
H17A H 0.0873 0.3039 -0.5457
C24A C 0.1956(5) 0.1687(4) -0.62318(14)
H18A H 0.3160 0.0793 -0.6290
H19A H 0.2175 0.2592 -0.6538
C25A C -0.0154(5) 0.1250(5) -0.64264(15)
H20A H -0.1363 0.2137 -0.6364
H21A H -0.0365 0.0333 -0.6127
C26A C -0.0197(6) 0.0859(5) -0.71450(16)
H22A H 0.1039 -0.0008 -0.7209
H23A H -0.0018 0.1787 -0.7443
C27A C -0.2239(7) 0.0384(6) -0.7345(2)
H24A H -0.3479 0.1221 -0.7273
H25A H -0.2177 0.0211 -0.7812
H26A H -0.2372 -0.0586 -0.7077
loop_
_geom_bond_atom_site_label_1
_geom_bond_atom_site_label_2
_geom_bond_site_symmetry_1
_geom_bond_site_symmetry_2
O1 H1 1_555 1_555
O2 C7 1_555 1_555
C1 C2 1_555 1_555
C2 H2 1_555 1_555
C3 C2 1_555 1_555
H3 C3 1_555 1_555
C4 C3 1_555 1_555
H4 C4 1_555 1_555
C5 C4 1_555 1_555
H5 C5 1_555 1_555
C6 C1 1_555 1_555
C7 C6 1_555 1_555
C8 C7 1_555 1_555
C9 O1 1_555 1_555
C10 C9 1_555 1_555
C11 C10 1_555 1_555
H6 C11 1_555 1_555
C12 C11 1_555 1_555
H7 C12 1_555 1_555
C13 C12 1_555 1_555
C14 C13 1_555 1_555
H8 C14 1_555 1_555
C15 C10 1_555 1_555
H9 C15 1_555 1_555
C16 C13 1_555 1_555
C17 C16 1_555 1_555
H10 C17 1_555 1_555
C18 C17 1_555 1_555
H11 C18 1_555 1_555
C19 C18 1_555 1_555
C20 C19 1_555 1_555
H12 C20 1_555 1_555
C21 C16 1_555 1_555
H13 C21 1_555 1_555
C22 C19 1_555 1_555
H14 C22 1_555 1_555
H15 C22 1_555 1_555
C23 C22 1_555 1_555
H16 C23 1_555 1_555
H17 C23 1_555 1_555
C24 C23 1_555 1_555
H18 C24 1_555 1_555
H19 C24 1_555 1_555
C25 C24 1_555 1_555
H20 C25 1_555 1_555
H21 C25 1_555 1_555
C26 C25 1_555 1_555
H22 C26 1_555 1_555
H23 C26 1_555 1_555
C27 C26 1_555 1_555
H24 C27 1_555 1_555
H25 C27 1_555 1_555
H26 C27 1_555 1_555
O1A H1A 1_555 1_555
O2A C7A 1_555 1_555
C1A C2A 1_555 1_555
C2A H2A 1_555 1_555
C3A C2A 1_555 1_555
H3A C3A 1_555 1_555
C4A C3A 1_555 1_555
H4A C4A 1_555 1_555
C5A C4A 1_555 1_555
H5A C5A 1_555 1_555
C6A C1A 1_555 1_555
C7A C6A 1_555 1_555
C8A C8 1_555 1_555
C9A O1A 1_555 1_555
C10A C9A 1_555 1_555
C11A C10A 1_555 1_555
H6A C11A 1_555 1_555
C12A C11A 1_555 1_555
H7A C12A 1_555 1_555
C13A C12A 1_555 1_555
C14A C13A 1_555 1_555
H8A C14A 1_555 1_555
C15A C10A 1_555 1_555
H9A C15A 1_555 1_555
C16A C13A 1_555 1_555
C17A C16A 1_555 1_555
H10A C17A 1_555 1_555
C18A C17A 1_555 1_555
H11A C18A 1_555 1_555
C19A C18A 1_555 1_555
C20A C19A 1_555 1_555
H12A C20A 1_555 1_555
C21A C16A 1_555 1_555
H13A C21A 1_555 1_555
C22A C19A 1_555 1_555
H14A C22A 1_555 1_555
H15A C22A 1_555 1_555
C23A C22A 1_555 1_555
H16A C23A 1_555 1_555
H17A C23A 1_555 1_555
C24A C23A 1_555 1_555
H18A C24A 1_555 1_555
H19A C24A 1_555 1_555
C25A C24A 1_555 1_555
H20A C25A 1_555 1_555
H21A C25A 1_555 1_555
C26A C25A 1_555 1_555
H22A C26A 1_555 1_555
H23A C26A 1_555 1_555
C27A C26A 1_555 1_555
H24A C27A 1_555 1_555
H25A C27A 1_555 1_555
H26A C27A 1_555 1_555
C1 C9 1_555 1_555
C5 C6 1_555 1_555
C8 C9 1_555 1_555
C14 C15 1_555 1_555
C20 C21 1_555 1_555
C1A C9A 1_555 1_555
C5A C6A 1_555 1_555
C7A C8A 1_555 1_555
C8A C9A 1_555 1_555
C14A C15A 1_555 1_555
C20A C21A 1_555 1_555

#END
