
#######################################################################
#
#                 Cambridge Crystallographic Data Centre
#                                CCDC 
#
#######################################################################
#
# If this CIF has been generated from an entry in the Cambridge 
# Structural Database, then it will include bibliographic, chemical, 
# crystal, experimental, refinement or atomic coordinate data resulting 
# from the CCDC's data processing and validation procedures.
#
#######################################################################

data_HEZVEP
_chemical_formula_moiety         'C14 H12 N2 O1'
_chemical_name_systematic        
2-(3-(4,5-Dihydro-1,3-oxazol-2-yl)phenyl)pyridine
_symmetry_cell_setting           monoclinic
_symmetry_space_group_name_H-M   'P 21/c'
_symmetry_Int_Tables_number      14
_space_group_name_Hall           '-P 2ybc'
loop_
_symmetry_equiv_pos_site_id
_symmetry_equiv_pos_as_xyz
1 x,y,z
2 -x,1/2+y,1/2-z
3 -x,-y,-z
4 x,1/2-y,1/2+z
_cell_length_a                   5.7024(11)
_cell_length_b                   9.4926(19)
_cell_length_c                   20.010(4)
_cell_angle_alpha                90
_cell_angle_beta                 92.23(3)
_cell_angle_gamma                90
_cell_volume                     1082.33
_cell_formula_units_Z            4
loop_
_atom_site_label
_atom_site_type_symbol
_atom_site_fract_x
_atom_site_fract_y
_atom_site_fract_z
O1 O 0.21710(16) 0.70191(10) 0.02269(4)
N1 N 0.30926(18) 0.89485(11) 0.24889(5)
N2 N -0.11188(19) 0.73585(11) -0.04224(5)
C1 C 0.4663(2) 0.91927(13) 0.29915(6)
H1 H 0.5665 0.8462 0.3123
C2 C 0.4887(2) 1.04626(13) 0.33256(6)
H2 H 0.6027 1.0588 0.3665
C3 C 0.3366(2) 1.15407(13) 0.31404(6)
H3 H 0.3458 1.2408 0.3356
C4 C 0.1710(2) 1.13112(13) 0.26300(6)
H4 H 0.0647 1.2016 0.2505
C5 C 0.1647(2) 1.00157(12) 0.23044(6)
C6 C 0.0037(2) 0.97575(12) 0.17135(6)
C7 C -0.2117(2) 1.04497(12) 0.16311(6)
H5 H -0.2592 1.1075 0.1957
C8 C -0.3555(2) 1.02118(13) 0.10658(6)
H6 H -0.4990 1.0673 0.1017
C9 C -0.2857(2) 0.92879(12) 0.05748(6)
H7 H -0.3824 0.9128 0.0197
C10 C -0.0705(2) 0.85996(12) 0.06477(6)
C11 C 0.0724(2) 0.88269(12) 0.12158(6)
H8 H 0.2150 0.8356 0.1266
C12 C 0.0042(2) 0.76371(12) 0.01180(6)
C13 C 0.0316(2) 0.63680(14) -0.07974(6)
H9 H 0.0632 0.6742 -0.1236
H10 H -0.0474 0.5468 -0.0851
C14 C 0.2595(2) 0.62067(14) -0.03736(6)
H11 H 0.2896 0.5225 -0.0266
H12 H 0.3920 0.6582 -0.0606
loop_
_geom_bond_atom_site_label_1
_geom_bond_atom_site_label_2
_geom_bond_site_symmetry_1
_geom_bond_site_symmetry_2
O1 C12 1_555 1_555
N1 C1 1_555 1_555
N2 C12 1_555 1_555
C1 H1 1_555 1_555
C2 C1 1_555 1_555
H2 C2 1_555 1_555
C3 C2 1_555 1_555
H3 C3 1_555 1_555
C4 C3 1_555 1_555
H4 C4 1_555 1_555
C5 N1 1_555 1_555
C6 C5 1_555 1_555
C7 C6 1_555 1_555
H5 C7 1_555 1_555
C8 C7 1_555 1_555
H6 C8 1_555 1_555
C9 C8 1_555 1_555
H7 C9 1_555 1_555
C10 C9 1_555 1_555
C11 C6 1_555 1_555
H8 C11 1_555 1_555
C12 C10 1_555 1_555
C13 N2 1_555 1_555
H9 C13 1_555 1_555
H10 C13 1_555 1_555
C14 O1 1_555 1_555
H11 C14 1_555 1_555
H12 C14 1_555 1_555
C4 C5 1_555 1_555
C10 C11 1_555 1_555
C13 C14 1_555 1_555

#END
