
#######################################################################
#
#                 Cambridge Crystallographic Data Centre
#                                CCDC 
#
#######################################################################
#
# If this CIF has been generated from an entry in the Cambridge 
# Structural Database, then it will include bibliographic, chemical, 
# crystal, experimental, refinement or atomic coordinate data resulting 
# from the CCDC's data processing and validation procedures.
#
#######################################################################

data_HIBCEA
_chemical_name_common            'Guanidinium p-aminobenzenesulfonate'
_chemical_formula_moiety         'C1 H6 N3 1+,C6 H6 N1 O3 S1 1-'
_chemical_name_systematic        'Guanidinium sulfanilate'
_symmetry_cell_setting           monoclinic
_symmetry_space_group_name_H-M   'P 21/c'
_symmetry_Int_Tables_number      14
_space_group_name_Hall           '-P 2ybc'
loop_
_symmetry_equiv_pos_site_id
_symmetry_equiv_pos_as_xyz
1 x,y,z
2 -x,1/2+y,1/2-z
3 -x,-y,-z
4 x,1/2-y,1/2+z
_cell_length_a                   12.182(3)
_cell_length_b                   7.453(4)
_cell_length_c                   25.046(8)
_cell_angle_alpha                90
_cell_angle_beta                 97.26(2)
_cell_angle_gamma                90
_cell_volume                     2255.76
_exptl_crystal_colour            colorless
_chemical_melting_point          221-222deg.C
_cell_formula_units_Z            8
loop_
_atom_site_label
_atom_site_type_symbol
_atom_site_fract_x
_atom_site_fract_y
_atom_site_fract_z
S1 S 0.9893(1) 0.3598(2) 0.59691(6)
O1 O 1.0795(3) 0.3455(5) 0.5642(1)
O2 O 0.9174(3) 0.5141(5) 0.5827(1)
O3 O 0.9253(3) 0.1928(5) 0.5966(1)
N1 N 1.1908(4) 0.4640(9) 0.8226(2)
C1 C 1.0504(4) 0.3963(7) 0.6635(2)
C2 C 1.1524(4) 0.3199(8) 0.6817(2)
C3 C 1.1988(4) 0.341(1) 0.7345(3)
C4 C 1.1448(5) 0.4372(8) 0.7706(3)
C5 C 1.0428(5) 0.5130(8) 0.7518(3)
C6 C 0.9969(5) 0.4912(8) 0.6991(3)
H1 H 1.1905 0.2530 0.6575
H2 H 1.2687 0.2877 0.7463
H3 H 1.0044 0.5807 0.7757
H4 H 0.9268 0.5431 0.6873
H5 H 1.2617 0.4159 0.8347
H6 H 1.1519 0.5310 0.8463
S2 S 0.4652(1) -0.1506(2) 0.59188(6)
O4 O 0.4141(3) -0.3182(5) 0.5709(2)
O5 O 0.4218(3) 0.0029(5) 0.5599(1)
O6 O 0.5856(3) -0.1568(6) 0.5982(2)
N2 N 0.3291(5) -0.049(1) 0.8087(2)
C7 C 0.4256(4) -0.1226(8) 0.6565(2)
C8 C 0.4835(5) -0.0064(9) 0.6927(3)
C9 C 0.4509(6) 0.014(1) 0.7432(3)
C10 C 0.3596(6) -0.074(1) 0.7584(3)
C11 C 0.3012(5) -0.185(1) 0.7208(3)
C12 C 0.3348(5) -0.2101(8) 0.6706(2)
H7 H 0.5452 0.0585 0.6831
H8 H 0.4926 0.0910 0.7684
H9 H 0.2370 -0.2445 0.7297
H10 H 0.2943 -0.2893 0.6457
H11 H 0.3707 0.0285 0.8336
H12 H 0.2662 -0.1102 0.8186
N3 N 0.6818(4) 0.5039(7) 0.5599(2)
N4 N 0.6843(4) 0.1975(7) 0.5619(2)
N5 N 0.5202(4) 0.3478(7) 0.5577(2)
C13 C 0.6277(5) 0.350(1) 0.5602(2)
H13 H 0.6425 0.6141 0.5587
H14 H 0.7600 0.5041 0.5608
H15 H 0.7625 0.1998 0.5627
H16 H 0.6466 0.0860 0.5621
H17 H 0.4821 0.2367 0.5579
H18 H 0.4800 0.4574 0.5556
N6 N 1.0191(4) -0.1427(7) 0.5570(2)
N7 N 1.1803(4) 0.0026(7) 0.5465(2)
N8 N 1.1725(4) -0.3048(7) 0.5425(2)
C14 C 1.1240(4) -0.148(1) 0.5487(2)
H19 H 0.9786 -0.2512 0.5586
H20 H 0.9840 -0.0307 0.5614
H21 H 1.1453 0.1147 0.5508
H22 H 1.2556 -0.0012 0.5405
H23 H 1.2480 -0.3090 0.5365
H24 H 1.1318 -0.4130 0.5441
loop_
_geom_bond_atom_site_label_1
_geom_bond_atom_site_label_2
_geom_bond_site_symmetry_1
_geom_bond_site_symmetry_2
S1 O1 1_555 1_555
O2 S1 1_555 1_555
O3 S1 1_555 1_555
N1 C4 1_555 1_555
C1 S1 1_555 1_555
C2 C1 1_555 1_555
C3 C2 1_555 1_555
C4 C3 1_555 1_555
C5 C4 1_555 1_555
C6 C1 1_555 1_555
H1 C2 1_555 1_555
H2 C3 1_555 1_555
H3 C5 1_555 1_555
H4 C6 1_555 1_555
H5 N1 1_555 1_555
H6 N1 1_555 1_555
S2 O4 1_555 1_555
O5 S2 1_555 1_555
O6 S2 1_555 1_555
N2 C10 1_555 1_555
C7 S2 1_555 1_555
C8 C7 1_555 1_555
C9 C8 1_555 1_555
C10 C9 1_555 1_555
C11 C10 1_555 1_555
C12 C7 1_555 1_555
H7 C8 1_555 1_555
H8 C9 1_555 1_555
H9 C11 1_555 1_555
H10 C12 1_555 1_555
H11 N2 1_555 1_555
H12 N2 1_555 1_555
N3 C13 1_555 1_555
N4 C13 1_555 1_555
N5 C13 1_555 1_555
H13 N3 1_555 1_555
H14 N3 1_555 1_555
H15 N4 1_555 1_555
H16 N4 1_555 1_555
H17 N5 1_555 1_555
H18 N5 1_555 1_555
N6 C14 1_555 1_555
N7 C14 1_555 1_555
N8 C14 1_555 1_555
H19 N6 1_555 1_555
H20 N6 1_555 1_555
H21 N7 1_555 1_555
H22 N7 1_555 1_555
H23 N8 1_555 1_555
H24 N8 1_555 1_555
C5 C6 1_555 1_555
C11 C12 1_555 1_555

#END
