
#######################################################################
#
#                 Cambridge Crystallographic Data Centre
#                                CCDC 
#
#######################################################################
#
# If this CIF has been generated from an entry in the Cambridge 
# Structural Database, then it will include bibliographic, chemical, 
# crystal, experimental, refinement or atomic coordinate data resulting 
# from the CCDC's data processing and validation procedures.
#
#######################################################################

data_HIBCOK
_chemical_formula_moiety         'C1 H6 N3 1+,C6 H4 N1 O5 S1 1-'
_chemical_name_systematic        'Guanidinium p-nitrobenzenesulfonate'
_symmetry_cell_setting           orthorhombic
_symmetry_space_group_name_H-M   'A m a 2'
_symmetry_Int_Tables_number      40
_space_group_name_Hall           'A 2 -2a'
loop_
_symmetry_equiv_pos_site_id
_symmetry_equiv_pos_as_xyz
1 x,y,z
2 -x,-y,z
3 1/2-x,y,z
4 1/2+x,-y,z
5 x,1/2+y,1/2+z
6 -x,1/2-y,1/2+z
7 1/2-x,1/2+y,1/2+z
8 1/2+x,1/2-y,1/2+z
_cell_length_a                   7.471(8)
_cell_length_b                   20.690(7)
_cell_length_c                   7.340(2)
_cell_angle_alpha                90
_cell_angle_beta                 90
_cell_angle_gamma                90
_cell_volume                     1134.58
_exptl_crystal_colour            'light tan'
_chemical_melting_point          258-259deg.C
_cell_formula_units_Z            4
loop_
_atom_site_label
_atom_site_type_symbol
_atom_site_fract_x
_atom_site_fract_y
_atom_site_fract_z
N1 N 0.7500 0.3147(2) 0.2476
N2 N 0.5976(5) 0.2319(1) 0.1136(4)
C1 C 0.7500 0.2599(2) 0.1575(6)
H1 H 0.648(4) 0.331(1) 0.275(4)
H2 H 0.505(5) 0.250(2) 0.124(5)
H3 H 0.595(8) 0.196(2) 0.041(8)
N2B N 0.9024(5) 0.2319(1) 0.1136(4)
H1B H 0.852(4) 0.331(1) 0.275(4)
H2B H 0.995(5) 0.250(2) 0.124(5)
H3B H 0.905(8) 0.196(2) 0.041(8)
S1 S 0.2500 0.36565(5) 0.2250
O1 O 0.2500 0.3048(1) 0.1264(5)
O2 O 0.4101(3) 0.3750(1) 0.3340(3)
O3 O 0.2500 0.6322(2) -0.272(1)
O4 O 0.2500 0.5632(2) -0.4865(8)
N3 N 0.2500 0.5778(2) -0.3266(7)
C2 C 0.2500 0.4277(2) 0.0589(6)
C3 C 0.2500 0.4134(2) -0.1229(7)
C4 C 0.2500 0.4624(2) -0.2494(7)
C5 C 0.2500 0.5239(2) -0.1923(6)
C6 C 0.2500 0.5400(2) -0.0115(8)
C7 C 0.2500 0.4911(2) 0.1140(7)
H4 H 0.2500 0.3696 -0.1619
H5 H 0.2500 0.4528 -0.3759
H6 H 0.2500 0.5839 0.0258
H7 H 0.2500 0.5012 0.2403
O2B O 0.0899(3) 0.3750(1) 0.3340(3)
loop_
_geom_bond_atom_site_label_1
_geom_bond_atom_site_label_2
_geom_bond_site_symmetry_1
_geom_bond_site_symmetry_2
N1 C1 1_555 1_555
N2 C1 1_555 1_555
C1 N2B 1_555 1_555
H1 N1 1_555 1_555
H2 N2 1_555 1_555
H3 N2 1_555 1_555
S1 O1 1_555 1_555
O2 S1 1_555 1_555
O3 N3 1_555 1_555
O4 N3 1_555 1_555
N3 C5 1_555 1_555
C2 S1 1_555 1_555
C3 C2 1_555 1_555
C4 C3 1_555 1_555
C5 C4 1_555 1_555
C6 C5 1_555 1_555
C7 C2 1_555 1_555
H4 C3 1_555 1_555
H5 C4 1_555 1_555
H6 C6 1_555 1_555
H7 C7 1_555 1_555
N2B H2B 1_555 1_555
H1B N1 1_555 1_555
H3B N2B 1_555 1_555
O2B S1 1_555 1_555
C6 C7 1_555 1_555

#END
