
#######################################################################
#
#                 Cambridge Crystallographic Data Centre
#                                CCDC 
#
#######################################################################
#
# If this CIF has been generated from an entry in the Cambridge 
# Structural Database, then it will include bibliographic, chemical, 
# crystal, experimental, refinement or atomic coordinate data resulting 
# from the CCDC's data processing and validation procedures.
#
#######################################################################

data_HIBCIE
_chemical_name_common            'Guanidinium p-anisolesulfonate'
_chemical_formula_moiety         'C1 H6 N3 1+,C7 H7 O4 S1 1-'
_chemical_name_systematic        'Guanidinium p-methoxybenzenesulfonate'
_symmetry_cell_setting           monoclinic
_symmetry_space_group_name_H-M   'P 21/c'
_symmetry_Int_Tables_number      14
_space_group_name_Hall           '-P 2ybc'
loop_
_symmetry_equiv_pos_site_id
_symmetry_equiv_pos_as_xyz
1 x,y,z
2 -x,1/2+y,1/2-z
3 -x,-y,-z
4 x,1/2-y,1/2+z
_cell_length_a                   12.119(8)
_cell_length_b                   7.432(2)
_cell_length_c                   27.587(6)
_cell_angle_alpha                90
_cell_angle_beta                 94.53(3)
_cell_angle_gamma                90
_cell_volume                     2476.96
_exptl_crystal_colour            colorless
_chemical_melting_point          227-240deg.C
_cell_formula_units_Z            8
loop_
_atom_site_label
_atom_site_type_symbol
_atom_site_fract_x
_atom_site_fract_y
_atom_site_fract_z
S1 S 0.0142(1) 0.1595(2) 0.90698(6)
O1 O 0.0819(3) 0.3233(6) 0.9113(2)
O2 O 0.0808(3) -0.0034(6) 0.9140(1)
O3 O -0.0769(3) 0.1630(6) 0.9382(1)
O4 O -0.1962(4) 0.1188(7) 0.7070(2)
C1 C -0.0465(4) 0.1518(9) 0.8466(2)
C2 C -0.0005(5) 0.240(1) 0.8099(2)
C3 C -0.0484(6) 0.233(1) 0.7623(3)
C4 C -0.1417(6) 0.137(1) 0.7525(3)
C5 C -0.1882(6) 0.047(1) 0.7894(3)
C6 C -0.1413(6) 0.056(1) 0.8359(2)
C7 C -0.1595(8) 0.224(1) 0.6682(3)
H1 H 0.0655 0.3075 0.8168
H2 H -0.0157 0.2960 0.7370
H3 H -0.2536 -0.0218 0.7825
H4 H -0.1749 -0.0057 0.8611
H5 H -0.0855 0.1919 0.6630
H6 H -0.2060 0.2017 0.6395
H7 H -0.1626 0.3478 0.6764
S2 S 0.5416(1) -0.3457(3) 0.92049(6)
O5 O 0.5936(3) -0.1784(6) 0.9384(1)
O6 O 0.5911(3) -0.5035(6) 0.9454(1)
O7 O 0.4222(3) -0.3405(7) 0.9206(2)
O8 O 0.6649(6) -0.382(1) 0.7186(2)
C8 C 0.5727(5) -0.3644(8) 0.8594(2)
C9 C 0.5098(7) -0.277(1) 0.8240(3)
C10 C 0.5370(8) -0.279(1) 0.7759(3)
C11 C 0.6282(8) -0.371(1) 0.7644(3)
C12 C 0.6902(7) -0.462(1) 0.7997(3)
C13 C 0.6630(6) -0.458(1) 0.8469(2)
C14 C 0.615(1) -0.274(2) 0.6816(3)
H8 H 0.4460 -0.2130 0.8322
H9 H 0.4926 -0.2164 0.7515
H10 H 0.7530 -0.5285 0.7914
H11 H 0.7075 -0.5211 0.8712
H12 H 0.6216 -0.1515 0.6908
H13 H 0.6510 -0.2932 0.6526
H14 H 0.5392 -0.3056 0.6761
N1 N 0.3176(4) 0.3106(7) 0.9416(2)
N2 N 0.3170(4) 0.0026(7) 0.9409(2)
N3 N 0.4816(3) 0.1557(7) 0.9475(2)
C15 C 0.3729(4) 0.157(1) 0.9429(2)
H15 H 0.3564 0.4217 0.9431
H16 H 0.2390 0.3097 0.9393
H17 H 0.3557 -0.1086 0.9418
H18 H 0.2383 0.0036 0.9385
H19 H 0.5203 0.0445 0.9484
H20 H 0.5214 0.2658 0.9499
N4 N 0.8298(4) -0.4914(7) 0.9620(2)
N5 N 0.8312(4) -0.1847(7) 0.9612(2)
N6 N 0.9884(3) -0.3431(7) 0.9480(2)
C16 C 0.8834(4) -0.340(1) 0.9568(2)
H21 H 0.7542 -0.4891 0.9688
H22 H 0.8665 -0.6033 0.9588
H23 H 0.7557 -0.1835 0.9681
H24 H 0.8695 -0.0745 0.9575
H25 H 1.0272 -0.2334 0.9443
H26 H 1.0256 -0.4548 0.9454
loop_
_geom_bond_atom_site_label_1
_geom_bond_atom_site_label_2
_geom_bond_site_symmetry_1
_geom_bond_site_symmetry_2
S1 O1 1_555 1_555
O2 S1 1_555 1_555
O3 S1 1_555 1_555
O4 C4 1_555 1_555
C1 S1 1_555 1_555
C2 C1 1_555 1_555
C3 C2 1_555 1_555
C4 C3 1_555 1_555
C5 C4 1_555 1_555
C6 C1 1_555 1_555
C7 O4 1_555 1_555
S2 O5 1_555 1_555
O6 S2 1_555 1_555
O7 S2 1_555 1_555
O8 C11 1_555 1_555
C8 S2 1_555 1_555
C9 C8 1_555 1_555
C10 C9 1_555 1_555
C11 C10 1_555 1_555
C12 C11 1_555 1_555
C13 C8 1_555 1_555
C14 O8 1_555 1_555
N1 C15 1_555 1_555
N2 C15 1_555 1_555
N3 C15 1_555 1_555
N4 C16 1_555 1_555
N5 C16 1_555 1_555
N6 C16 1_555 1_555
H1 C2 1_555 1_555
H2 C3 1_555 1_555
H3 C5 1_555 1_555
H4 C6 1_555 1_555
H5 C7 1_555 1_555
H6 C7 1_555 1_555
H7 C7 1_555 1_555
H8 C9 1_555 1_555
H9 C10 1_555 1_555
H10 C12 1_555 1_555
H11 C13 1_555 1_555
H12 C14 1_555 1_555
H13 C14 1_555 1_555
H14 C14 1_555 1_555
H15 N1 1_555 1_555
H16 N1 1_555 1_555
H17 N2 1_555 1_555
H18 N2 1_555 1_555
H19 N3 1_555 1_555
H20 N3 1_555 1_555
H21 N4 1_555 1_555
H22 N4 1_555 1_555
H23 N5 1_555 1_555
H24 N5 1_555 1_555
H25 N6 1_555 1_555
H26 N6 1_555 1_555
C5 C6 1_555 1_555
C12 C13 1_555 1_555

#END
