
#######################################################################
#
#                 Cambridge Crystallographic Data Centre
#                                CCDC 
#
#######################################################################
#
# If this CIF has been generated from an entry in the Cambridge 
# Structural Database, then it will include bibliographic, chemical, 
# crystal, experimental, refinement or atomic coordinate data resulting 
# from the CCDC's data processing and validation procedures.
#
#######################################################################

data_HIBENZ01
_chemical_formula_moiety         'C6 I6'
_chemical_name_systematic        Hexaiodobenzene
_symmetry_cell_setting           monoclinic
_symmetry_space_group_name_H-M   'P 21/n'
_symmetry_Int_Tables_number      14
_space_group_name_Hall           '-P 2yn'
loop_
_symmetry_equiv_pos_site_id
_symmetry_equiv_pos_as_xyz
1 x,y,z
2 1/2-x,1/2+y,1/2-z
3 -x,-y,-z
4 1/2+x,1/2-y,1/2+z
_cell_length_a                   8.87(2)
_cell_length_b                   4.29(1)
_cell_length_c                   16.28(3)
_cell_angle_alpha                90
_cell_angle_beta                 93.0(2)
_cell_angle_gamma                90
_cell_volume                     618.642
_cell_formula_units_Z            2
loop_
_atom_site_label
_atom_site_type_symbol
_atom_site_fract_x
_atom_site_fract_y
_atom_site_fract_z
C1 C 0.38970 0.35440 0.44690
C2 C 0.52640 0.47230 0.41630
C3 C 0.35950 0.39990 0.52970
I1 I 0.22891 0.17021 0.36145
I2 I 0.57741 0.41289 0.29266
I3 I 0.15530 0.23136 0.56994
C3B C 0.64050 0.60010 0.47030
C2B C 0.47360 0.52770 0.58370
C1B C 0.61030 0.64560 0.55310
I3B I 0.84470 0.76864 0.43006
I2B I 0.42259 0.58711 0.70734
I1B I 0.77109 0.82979 0.63855
loop_
_geom_bond_atom_site_label_1
_geom_bond_atom_site_label_2
_geom_bond_site_symmetry_1
_geom_bond_site_symmetry_2
C1 C2 1_555 1_555
C2 I2 1_555 1_555
C3 C1 1_555 1_555
I1 C1 1_555 1_555
I3 C3 1_555 1_555
C3B C2 1_555 1_555
C2B C3 1_555 1_555
C1B C3B 1_555 1_555
I3B C3B 1_555 1_555
I2B C2B 1_555 1_555
I1B C1B 1_555 1_555
C2B C1B 1_555 1_555

#END
