
#######################################################################
#
#                 Cambridge Crystallographic Data Centre
#                                CCDC 
#
#######################################################################
#
# If this CIF has been generated from an entry in the Cambridge 
# Structural Database, then it will include bibliographic, chemical, 
# crystal, experimental, refinement or atomic coordinate data resulting 
# from the CCDC's data processing and validation procedures.
#
#######################################################################

data_HIBHIL
_chemical_formula_moiety         'C15 H18 N3 O1 1+,Cl1 1-'
_chemical_name_systematic        
'4-(4-Cyano-5-(dimethylamino)-2-furyl)-N,N-dimethylanilinium chloride'
_symmetry_cell_setting           triclinic
_symmetry_space_group_name_H-M   'P -1'
_symmetry_Int_Tables_number      2
_space_group_name_Hall           '-P 1'
loop_
_symmetry_equiv_pos_site_id
_symmetry_equiv_pos_as_xyz
1 x,y,z
2 -x,-y,-z
_cell_length_a                   7.0249(4)
_cell_length_b                   10.3298(5)
_cell_length_c                   11.2418(5)
_cell_angle_alpha                108.321(3)
_cell_angle_beta                 93.281(3)
_cell_angle_gamma                92.027(3)
_cell_volume                     771.923
_exptl_crystal_colour            colorless
_exptl_crystal_description       block
_cell_formula_units_Z            2
loop_
_atom_site_label
_atom_site_type_symbol
_atom_site_fract_x
_atom_site_fract_y
_atom_site_fract_z
C1 C 0.2003(4) 0.6278(3) -0.0364(3)
N1 N 0.2041(4) 0.5281(3) -0.3729(2)
O1 O 0.2218(3) 0.58041(18) 0.06298(17)
C2 C 0.2303(4) 0.5252(3) -0.1457(3)
N2 N 0.1616(4) 0.7602(2) -0.0078(2)
C3 C 0.2756(4) 0.4082(3) -0.1094(3)
H1 H 0.3057 0.3217 -0.1639
N3 N 0.3824(4) 0.1775(2) 0.3858(2)
H2 H 0.445(5) 0.099(4) 0.351(3)
C4 C 0.2678(4) 0.4428(3) 0.0152(3)
C5 C 0.2962(4) 0.3756(3) 0.1100(3)
C6 C 0.2590(4) 0.4410(3) 0.2348(3)
H3 H 0.2153 0.5309 0.2580
C7 C 0.2848(4) 0.3771(3) 0.3250(3)
H4 H 0.2573 0.4217 0.4095
C8 C 0.3514(4) 0.2468(3) 0.2903(3)
C9 C 0.3885(4) 0.1786(3) 0.1674(3)
H5 H 0.4337 0.0891 0.1455
C10 C 0.3592(4) 0.2423(3) 0.0763(3)
H6 H 0.3818 0.1957 -0.0086
C11 C 0.5147(5) 0.2586(3) 0.4954(3)
H7 H 0.6345 0.2829 0.4650
H8 H 0.5410 0.2039 0.5510
H9 H 0.4549 0.3421 0.5419
C12 C 0.1977(5) 0.1379(3) 0.4294(3)
H10 H 0.1289 0.2201 0.4674
H11 H 0.2242 0.0913 0.4917
H12 H 0.1193 0.0765 0.3576
C13 C 0.1197(5) 0.8371(3) 0.1199(3)
H13 H 0.0048 0.7959 0.1421
H14 H 0.0984 0.9319 0.1251
H15 H 0.2278 0.8351 0.1784
C14 C 0.1381(4) 0.8249(3) -0.1045(3)
H16 H 0.2132 0.7790 -0.1751
H17 H 0.1823 0.9213 -0.0701
H18 H 0.0030 0.8180 -0.1339
C15 C 0.2156(4) 0.5299(3) -0.2703(3)
Cl1 Cl 0.63397(12) -0.05649(8) 0.28459(7)
loop_
_geom_bond_atom_site_label_1
_geom_bond_atom_site_label_2
_geom_bond_site_symmetry_1
_geom_bond_site_symmetry_2
C1 O1 1_555 1_555
N1 C15 1_555 1_555
O1 C4 1_555 1_555
C2 C1 1_555 1_555
N2 C1 1_555 1_555
C3 C2 1_555 1_555
H1 C3 1_555 1_555
N3 H2 1_555 1_555
C4 C3 1_555 1_555
C5 C4 1_555 1_555
C6 C5 1_555 1_555
H3 C6 1_555 1_555
C7 C6 1_555 1_555
H4 C7 1_555 1_555
C8 N3 1_555 1_555
C9 C8 1_555 1_555
H5 C9 1_555 1_555
C10 C5 1_555 1_555
H6 C10 1_555 1_555
C11 N3 1_555 1_555
H7 C11 1_555 1_555
H8 C11 1_555 1_555
H9 C11 1_555 1_555
C12 N3 1_555 1_555
H10 C12 1_555 1_555
H11 C12 1_555 1_555
H12 C12 1_555 1_555
C13 N2 1_555 1_555
H13 C13 1_555 1_555
H14 C13 1_555 1_555
H15 C13 1_555 1_555
C14 N2 1_555 1_555
H16 C14 1_555 1_555
H17 C14 1_555 1_555
H18 C14 1_555 1_555
C15 C2 1_555 1_555
C7 C8 1_555 1_555
C9 C10 1_555 1_555

#END
