
#######################################################################
#
#                 Cambridge Crystallographic Data Centre
#                                CCDC 
#
#######################################################################
#
# If this CIF has been generated from an entry in the Cambridge 
# Structural Database, then it will include bibliographic, chemical, 
# crystal, experimental, refinement or atomic coordinate data resulting 
# from the CCDC's data processing and validation procedures.
#
#######################################################################

data_HIBPOY
_chemical_formula_moiety         'C20 H22 N3 O1 1+,Cl1 1-,H2 O1'
_chemical_name_systematic        
'1-Mesityl-3-(phenylacetamido)imidazolium chloride monohydrate'
_symmetry_cell_setting           orthorhombic
_symmetry_space_group_name_H-M   'P c a 21'
_symmetry_Int_Tables_number      29
_space_group_name_Hall           'P 2c -2ac'
loop_
_symmetry_equiv_pos_site_id
_symmetry_equiv_pos_as_xyz
1 x,y,z
2 -x,-y,1/2+z
3 1/2+x,-y,z
4 1/2-x,y,1/2+z
_cell_length_a                   16.9660(10)
_cell_length_b                   7.7816(4)
_cell_length_c                   30.4169(18)
_cell_angle_alpha                90
_cell_angle_beta                 90
_cell_angle_gamma                90
_cell_volume                     4015.72
_cell_formula_units_Z            8
_exptl_crystal_recrystallization_method acetonitrile
loop_
_atom_site_label
_atom_site_type_symbol
_atom_site_fract_x
_atom_site_fract_y
_atom_site_fract_z
Cl1 Cl -1.22908(4) 1.27874(9) -0.29901(2)
Cl2 Cl 0.01261(4) 0.20816(9) 0.14836(2)
O1 O -0.29301(12) 0.7360(3) 0.01834(7)
N1 N -0.41111(12) 0.7889(3) 0.05084(7)
H5 H -0.4329 0.7938 0.0767
N2 N -0.22080(12) 0.6718(3) 0.09547(7)
N3 N -0.09898(12) 0.6353(2) 0.07741(7)
C1 C -0.33419(16) 0.7546(3) 0.05024(9)
C2 C -0.29932(15) 0.7478(4) 0.09690(9)
H7 H -0.2962 0.8642 0.1091
H8 H -0.3335 0.6791 0.1160
C3 C -0.15904(14) 0.7453(3) 0.07753(8)
H9 H -0.1575 0.8580 0.0665
C4 C -0.12450(19) 0.4859(3) 0.09640(10)
H10 H -0.0943 0.3863 0.1011
C5 C -0.20032(17) 0.5076(4) 0.10712(11)
H11 H -0.2334 0.4254 0.1202
C6 C -0.02074(14) 0.6709(3) 0.06119(8)
C7 C -0.00819(15) 0.6632(3) 0.01605(9)
C8 C 0.06653(18) 0.7027(4) 0.00154(10)
H12 H 0.0770 0.7010 -0.0288
C9 C 0.12688(17) 0.7450(4) 0.03037(12)
C10 C 0.11111(16) 0.7491(3) 0.07450(11)
H13 H 0.1520 0.7773 0.0941
C11 C 0.03732(15) 0.7134(3) 0.09120(9)
C12 C -0.07215(16) 0.6141(4) -0.01581(10)
H14 H -0.1204 0.5908 0.0002
H15 H -0.0564 0.5121 -0.0319
H16 H -0.0809 0.7078 -0.0363
C13 C 0.20974(19) 0.7898(5) 0.01352(15)
H17 H 0.2108 0.7809 -0.0183
H18 H 0.2477 0.7106 0.0260
H19 H 0.2230 0.9063 0.0222
C14 C 0.02224(18) 0.7217(4) 0.14004(10)
H20 H 0.0704 0.7541 0.1551
H21 H 0.0050 0.6100 0.1504
H22 H -0.0183 0.8064 0.1460
C15 C -0.46159(14) 0.8182(3) 0.01484(8)
C16 C -0.53751(15) 0.8741(3) 0.02391(9)
H23 H -0.5529 0.8928 0.0532
C17 C -0.59038(16) 0.9023(4) -0.00941(11)
H24 H -0.6417 0.9400 -0.0028
C18 C -0.56849(18) 0.8756(4) -0.05240(11)
H25 H -0.6046 0.8957 -0.0752
C19 C -0.49333(19) 0.8192(5) -0.06189(11)
H26 H -0.4785 0.7994 -0.0912
C20 C -0.43906(17) 0.7915(4) -0.02809(9)
H27 H -0.3876 0.7548 -0.0346
O2 O -1.03313(11) 1.3161(3) -0.16892(7)
N4 N -1.15305(12) 1.3347(3) -0.20222(7)
H6 H -1.1756 1.3205 -0.2277
N5 N -0.96410(12) 1.1969(3) -0.24490(7)
N6 N -0.84386(11) 1.1363(2) -0.22871(7)
C21 C -1.07426(16) 1.3111(3) -0.20141(9)
C22 C -1.03873(15) 1.2889(4) -0.24695(9)
H28 H -1.0756 1.2252 -0.2656
H29 H -1.0302 1.4021 -0.2603
C23 C -0.89972(14) 1.2540(3) -0.22508(9)
H30 H -0.8946 1.3605 -0.2108
C24 C -0.87407(17) 0.9987(3) -0.25154(9)
H31 H -0.8472 0.8969 -0.2587
C25 C -0.94878(17) 1.0365(3) -0.26165(9)
H32 H -0.9842 0.9665 -0.2773
C26 C -0.76426(14) 1.1504(3) -0.21113(9)
C27 C -0.75247(15) 1.1166(3) -0.16677(9)
C28 C -0.67607(16) 1.1313(3) -0.15156(10)
H33 H -0.6660 1.1098 -0.1217
C29 C -0.61416(15) 1.1761(4) -0.17844(11)
C30 C -0.62889(16) 1.2076(3) -0.22231(11)
H34 H -0.5866 1.2383 -0.2407
C31 C -0.70436(15) 1.1955(3) -0.24033(9)
C32 C -0.81901(16) 1.0653(4) -0.13672(9)
H35 H -0.7987 1.0470 -0.1073
H36 H -0.8429 0.9600 -0.1474
H37 H -0.8583 1.1559 -0.1361
C33 C -0.53148(18) 1.1950(5) -0.15946(14)
H38 H -0.4952 1.2270 -0.1827
H39 H -0.5150 1.0866 -0.1467
H40 H -0.5316 1.2833 -0.1369
C34 C -0.71908(18) 1.2314(4) -0.28784(10)
H41 H -0.6698 1.2615 -0.3021
H42 H -0.7559 1.3260 -0.2906
H43 H -0.7410 1.1298 -0.3017
C35 C -1.20398(14) 1.3797(3) -0.16706(8)
C36 C -1.28403(14) 1.3867(3) -0.17625(9)
H44 H -1.3022 1.3613 -0.2047
C37 C -1.33651(16) 1.4303(3) -0.14403(10)
H45 H -1.3907 1.4347 -0.1505
C38 C -1.31079(17) 1.4680(4) -0.10220(10)
H46 H -1.3470 1.4970 -0.0800
C39 C -1.23181(16) 1.4626(4) -0.09331(9)
H47 H -1.2140 1.4900 -0.0649
C40 C -1.17792(15) 1.4180(4) -0.12520(9)
H48 H -1.1239 1.4136 -0.1185
O3 O 0.40857(16) 0.5822(3) 0.21981(8)
H1 H 0.4397(14) 0.630(3) 0.2014(9)
H2 H 0.3648(15) 0.591(5) 0.2067(11)
O4 O -0.16860(18) 0.0757(3) 0.12813(8)
H3 H -0.1219(14) 0.094(4) 0.1328(12)
H4 H -0.1925(18) 0.111(4) 0.1488(10)
loop_
_geom_bond_atom_site_label_1
_geom_bond_atom_site_label_2
_geom_bond_site_symmetry_1
_geom_bond_site_symmetry_2
O1 C1 1_555 1_555
O2 C21 1_555 1_555
O3 H1 1_555 1_555
H2 O3 1_555 1_555
O4 H3 1_555 1_555
H4 O4 1_555 1_555
N1 H5 1_555 1_555
N2 C2 1_555 1_555
N3 C3 1_555 1_555
N4 H6 1_555 1_555
N5 C22 1_555 1_555
N6 C23 1_555 1_555
C1 N1 1_555 1_555
C2 C1 1_555 1_555
H7 C2 1_555 1_555
H8 C2 1_555 1_555
C3 N2 1_555 1_555
H9 C3 1_555 1_555
C4 N3 1_555 1_555
H10 C4 1_555 1_555
C5 N2 1_555 1_555
H11 C5 1_555 1_555
C6 N3 1_555 1_555
C7 C6 1_555 1_555
C8 C7 1_555 1_555
H12 C8 1_555 1_555
C9 C8 1_555 1_555
C10 C9 1_555 1_555
H13 C10 1_555 1_555
C11 C6 1_555 1_555
C12 C7 1_555 1_555
H14 C12 1_555 1_555
H15 C12 1_555 1_555
H16 C12 1_555 1_555
C13 C9 1_555 1_555
H17 C13 1_555 1_555
H18 C13 1_555 1_555
H19 C13 1_555 1_555
C14 C11 1_555 1_555
H20 C14 1_555 1_555
H21 C14 1_555 1_555
H22 C14 1_555 1_555
C15 N1 1_555 1_555
C16 C15 1_555 1_555
H23 C16 1_555 1_555
C17 C16 1_555 1_555
H24 C17 1_555 1_555
C18 C17 1_555 1_555
H25 C18 1_555 1_555
C19 C18 1_555 1_555
H26 C19 1_555 1_555
C20 C15 1_555 1_555
H27 C20 1_555 1_555
C21 N4 1_555 1_555
C22 C21 1_555 1_555
H28 C22 1_555 1_555
H29 C22 1_555 1_555
C23 N5 1_555 1_555
H30 C23 1_555 1_555
C24 N6 1_555 1_555
H31 C24 1_555 1_555
C25 N5 1_555 1_555
H32 C25 1_555 1_555
C26 N6 1_555 1_555
C27 C26 1_555 1_555
C28 C27 1_555 1_555
H33 C28 1_555 1_555
C29 C28 1_555 1_555
C30 C29 1_555 1_555
H34 C30 1_555 1_555
C31 C26 1_555 1_555
C32 C27 1_555 1_555
H35 C32 1_555 1_555
H36 C32 1_555 1_555
H37 C32 1_555 1_555
C33 C29 1_555 1_555
H38 C33 1_555 1_555
H39 C33 1_555 1_555
H40 C33 1_555 1_555
C34 C31 1_555 1_555
H41 C34 1_555 1_555
H42 C34 1_555 1_555
H43 C34 1_555 1_555
C35 N4 1_555 1_555
C36 C35 1_555 1_555
H44 C36 1_555 1_555
C37 C36 1_555 1_555
H45 C37 1_555 1_555
C38 C37 1_555 1_555
H46 C38 1_555 1_555
C39 C38 1_555 1_555
H47 C39 1_555 1_555
C40 C35 1_555 1_555
H48 C40 1_555 1_555
C4 C5 1_555 1_555
C10 C11 1_555 1_555
C19 C20 1_555 1_555
C24 C25 1_555 1_555
C30 C31 1_555 1_555
C39 C40 1_555 1_555

#END
