
#######################################################################
#
#                 Cambridge Crystallographic Data Centre
#                                CCDC 
#
#######################################################################
#
# If this CIF has been generated from an entry in the Cambridge 
# Structural Database, then it will include bibliographic, chemical, 
# crystal, experimental, refinement or atomic coordinate data resulting 
# from the CCDC's data processing and validation procedures.
#
#######################################################################

data_HIBRAO
_chemical_formula_moiety         'C45 H36 N2 O4'
_chemical_name_systematic        
'ethyl 5-isocyano-9-[2-isocyanophenyl]-7-(2-oxo-2-phenylethyl)-11-phenyl-1,6:15,20-dicyclothromboxa-1,3,5,10,12,15,17,19-octaene-13-carboxylate'
_symmetry_cell_setting           triclinic
_symmetry_space_group_name_H-M   'P -1'
_symmetry_Int_Tables_number      2
_space_group_name_Hall           '-P 1'
loop_
_symmetry_equiv_pos_site_id
_symmetry_equiv_pos_as_xyz
1 x,y,z
2 -x,-y,-z
_cell_length_a                   10.387(6)
_cell_length_b                   11.392(7)
_cell_length_c                   16.831(11)
_cell_angle_alpha                93.930(8)
_cell_angle_beta                 102.005(8)
_cell_angle_gamma                112.469(7)
_cell_volume                     1775.85
_exptl_crystal_colour            colorless
_exptl_crystal_description       block
_cell_formula_units_Z            2
loop_
_atom_site_label
_atom_site_type_symbol
_atom_site_fract_x
_atom_site_fract_y
_atom_site_fract_z
C1 C -0.0027(8) 0.1677(7) 0.1090(4)
C2 C 0.0549(10) 0.0765(8) 0.1089(5)
H1 H -0.0031 -0.0091 0.0861
C3 C 0.1985(11) 0.1147(9) 0.1431(6)
H2 H 0.2380 0.0539 0.1446
C4 C 0.2861(9) 0.2417(9) 0.1754(5)
H3 H 0.3839 0.2660 0.1983
C5 C 0.2277(7) 0.3344(7) 0.1739(4)
H4 H 0.2878 0.4203 0.1948
C6 C 0.0815(7) 0.2997(6) 0.1417(4)
C7 C -0.2697(12) 0.0868(9) 0.0451(8)
C8 C 0.0147(6) 0.3966(6) 0.1377(4)
H5 H -0.0585 0.3725 0.0853
C9 C 0.1241(7) 0.5319(6) 0.1412(4)
H6 H 0.1448 0.5596 0.0928
C10 C 0.1902(7) 0.6107(6) 0.2117(4)
C11 C 0.0557(6) 0.4563(6) 0.2877(4)
C12 C -0.0598(6) 0.3994(6) 0.2083(4)
H7 H -0.1226 0.3110 0.2114
C13 C -0.1519(7) 0.4804(6) 0.1931(4)
H8 H -0.0877 0.5665 0.1870
C14 C -0.2705(6) 0.4242(6) 0.1140(4)
C15 C -0.2812(7) 0.4900(7) 0.0494(4)
C16 C -0.3922(9) 0.4390(9) -0.0226(5)
H9 H -0.3960 0.4864 -0.0652
C17 C -0.4943(9) 0.3191(10) -0.0288(5)
H10 H -0.5696 0.2840 -0.0761
C18 C -0.4887(8) 0.2498(8) 0.0324(6)
H11 H -0.5591 0.1669 0.0265
C19 C -0.3795(7) 0.3006(7) 0.1040(5)
H12 H -0.3782 0.2520 0.1461
C20 C -0.0891(13) 0.7182(11) 0.0607(6)
C21 C -0.2173(8) 0.4968(7) 0.2660(4)
H13 H -0.2895 0.4141 0.2698
H14 H -0.1421 0.5260 0.3170
C22 C -0.2855(8) 0.5924(7) 0.2554(4)
C23 C -0.1930(8) 0.7318(7) 0.2671(4)
C24 C -0.2594(9) 0.8169(9) 0.2512(5)
H15 H -0.3593 0.7850 0.2338
C25 C -0.1776(12) 0.9491(10) 0.2609(6)
H16 H -0.2224 1.0055 0.2519
C26 C -0.0278(12) 0.9953(9) 0.2844(6)
H17 H 0.0274 1.0832 0.2904
C27 C 0.0395(10) 0.9130(8) 0.2988(6)
H18 H 0.1395 0.9447 0.3133
C28 C -0.0438(9) 0.7810(8) 0.2913(5)
H19 H 0.0016 0.7256 0.3028
C29 C 0.2957(7) 0.7451(6) 0.2273(5)
C30 C 0.3587(8) 0.8136(7) 0.3055(5)
H20 H 0.3356 0.7749 0.3505
C31 C 0.4585(10) 0.9427(8) 0.3177(7)
H21 H 0.5000 0.9884 0.3709
C32 C 0.4949(9) 1.0009(8) 0.2549(7)
H22 H 0.5600 1.0866 0.2645
C33 C 0.4353(8) 0.9334(7) 0.1746(6)
H23 H 0.4628 0.9721 0.1305
C34 C 0.3352(8) 0.8084(7) 0.1622(5)
H24 H 0.2922 0.7644 0.1085
C35 C 0.0628(7) 0.4144(6) 0.3611(4)
C36 C 0.1947(8) 0.4769(7) 0.4327(4)
H25 H 0.1654 0.4990 0.4807
H26 H 0.2592 0.5563 0.4197
C37 C 0.2754(7) 0.3935(7) 0.4538(4)
C38 C 0.3023(13) 0.3596(13) 0.5287(6)
H27 H 0.2688 0.3879 0.5700
C39 C 0.3772(15) 0.2847(15) 0.5455(9)
H28 H 0.3951 0.2663 0.5986
C40 C 0.4248(11) 0.2379(10) 0.4914(8)
H29 H 0.4753 0.1870 0.5050
C41 C 0.3988(17) 0.2654(16) 0.4154(8)
H30 H 0.4278 0.2299 0.3747
C42 C 0.3305(13) 0.3446(13) 0.3968(5)
H31 H 0.3200 0.3670 0.3445
C43 C -0.0594(8) 0.3043(7) 0.3735(5)
C44 C -0.1191(13) 0.1489(9) 0.4687(8)
H32 H -0.1672 0.0834 0.4200
H33 H -0.0640 0.1207 0.5111
N1 N -0.1502(7) 0.1268(6) 0.0738(4)
N2 N -0.1759(8) 0.6142(7) 0.0550(4)
O1 O 0.1677(5) 0.5703(4) 0.2866(3)
O2 O -0.4166(6) 0.5524(6) 0.2355(4)
O3 O -0.1719(6) 0.2392(5) 0.3252(3)
O4 O -0.0354(7) 0.2805(8) 0.4511(4)
C45 C -0.2160(19) 0.2008(18) 0.4987(12)
H34 H -0.2879 0.1335 0.5164
H35 H -0.2619 0.2323 0.4549
H36 H -0.1602 0.2699 0.5440
loop_
_geom_bond_atom_site_label_1
_geom_bond_atom_site_label_2
_geom_bond_site_symmetry_1
_geom_bond_site_symmetry_2
C1 C2 1_555 1_555
C2 H1 1_555 1_555
C3 C2 1_555 1_555
H2 C3 1_555 1_555
C4 C3 1_555 1_555
H3 C4 1_555 1_555
C5 C4 1_555 1_555
H4 C5 1_555 1_555
C6 C1 1_555 1_555
C7 N1 1_555 1_555
C8 C6 1_555 1_555
H5 C8 1_555 1_555
C9 C8 1_555 1_555
H6 C9 1_555 1_555
C10 C9 1_555 1_555
C11 C12 1_555 1_555
C12 C8 1_555 1_555
H7 C12 1_555 1_555
C13 C12 1_555 1_555
H8 C13 1_555 1_555
C14 C13 1_555 1_555
C15 C14 1_555 1_555
C16 C15 1_555 1_555
H9 C16 1_555 1_555
C17 C16 1_555 1_555
H10 C17 1_555 1_555
C18 C17 1_555 1_555
H11 C18 1_555 1_555
C19 C14 1_555 1_555
H12 C19 1_555 1_555
C20 N2 1_555 1_555
C21 C13 1_555 1_555
H13 C21 1_555 1_555
H14 C21 1_555 1_555
C22 C21 1_555 1_555
C23 C22 1_555 1_555
C24 C23 1_555 1_555
H15 C24 1_555 1_555
C25 C24 1_555 1_555
H16 C25 1_555 1_555
C26 C25 1_555 1_555
H17 C26 1_555 1_555
C27 C26 1_555 1_555
H18 C27 1_555 1_555
C28 C23 1_555 1_555
H19 C28 1_555 1_555
C29 C10 1_555 1_555
C30 C29 1_555 1_555
H20 C30 1_555 1_555
C31 C30 1_555 1_555
H21 C31 1_555 1_555
C32 C31 1_555 1_555
H22 C32 1_555 1_555
C33 C32 1_555 1_555
H23 C33 1_555 1_555
C34 C29 1_555 1_555
H24 C34 1_555 1_555
C35 C11 1_555 1_555
C36 C35 1_555 1_555
H25 C36 1_555 1_555
H26 C36 1_555 1_555
C37 C36 1_555 1_555
C38 C37 1_555 1_555
H27 C38 1_555 1_555
C39 C38 1_555 1_555
H28 C39 1_555 1_555
C40 C39 1_555 1_555
H29 C40 1_555 1_555
C41 C40 1_555 1_555
H30 C41 1_555 1_555
C42 C37 1_555 1_555
H31 C42 1_555 1_555
C43 C35 1_555 1_555
C44 H32 1_555 1_555
H33 C44 1_555 1_555
N1 C1 1_555 1_555
N2 C15 1_555 1_555
O1 C10 1_555 1_555
O2 C22 1_555 1_555
O3 C43 1_555 1_555
O4 C43 1_555 1_555
C45 C44 1_555 1_555
H34 C45 1_555 1_555
H35 C45 1_555 1_555
H36 C45 1_555 1_555
C5 C6 1_555 1_555
C11 O1 1_555 1_555
C18 C19 1_555 1_555
C27 C28 1_555 1_555
C33 C34 1_555 1_555
C41 C42 1_555 1_555
C44 O4 1_555 1_555

#END
