
#######################################################################
#
#                 Cambridge Crystallographic Data Centre
#                                CCDC 
#
#######################################################################
#
# If this CIF has been generated from an entry in the Cambridge 
# Structural Database, then it will include bibliographic, chemical, 
# crystal, experimental, refinement or atomic coordinate data resulting 
# from the CCDC's data processing and validation procedures.
#
#######################################################################

data_HIBRES
_chemical_formula_moiety         'C43 H36 Br2 O4'
_chemical_name_systematic        
'ethyl 2-{4-(4-bromophenyl)-3-[1-(4-bromophenyl)-3-oxo-3-phenylpropyl]-6-phenyl-3,4-dihydro-2H-pyran-2-ylidene}-3-phenylpropanoate'
_symmetry_cell_setting           monoclinic
_symmetry_space_group_name_H-M   'C 2/c'
_symmetry_Int_Tables_number      15
_space_group_name_Hall           '-C 2yn'
loop_
_symmetry_equiv_pos_site_id
_symmetry_equiv_pos_as_xyz
1 x,y,z
2 -x,y,1/2-z
3 1/2+x,1/2+y,z
4 1/2-x,1/2+y,1/2-z
5 -x,-y,-z
6 x,-y,1/2+z
7 1/2-x,1/2-y,-z
8 1/2+x,1/2-y,1/2+z
_cell_length_a                   23.249(4)
_cell_length_b                   14.541(3)
_cell_length_c                   21.540(4)
_cell_angle_alpha                90
_cell_angle_beta                 102.683(3)
_cell_angle_gamma                90
_cell_volume                     7104.21
_exptl_crystal_colour            colorless
_exptl_crystal_description       block
_cell_formula_units_Z            8
loop_
_atom_site_label
_atom_site_type_symbol
_atom_site_fract_x
_atom_site_fract_y
_atom_site_fract_z
Br1 Br 0.49239(2) 1.26398(3) 0.16436(2)
Br2 Br 0.44646(2) 0.57081(3) 0.02325(2)
O1 O 0.27909(9) 0.92909(15) 0.27890(10)
O2 O 0.25199(10) 0.73488(19) 0.30479(12)
O3 O 0.45283(11) 0.9228(2) 0.43044(12)
O4 O 0.45789(10) 0.84111(17) 0.34444(11)
C1 C 0.35874(13) 0.8584(2) 0.23817(14)
H1 H 0.4024 0.8572 0.2494
C2 C 0.33919(13) 0.9173(2) 0.17804(15)
H2 H 0.3450 0.8797 0.1416
C3 C 0.27418(14) 0.9360(2) 0.16796(15)
H3 H 0.2520 0.9470 0.1266
C4 C 0.24762(13) 0.9372(2) 0.21667(14)
C5 C 0.33723(13) 0.9017(2) 0.29227(15)
C6 C 0.33604(13) 0.7574(2) 0.22772(14)
H4 H 0.2928 0.7596 0.2110
C7 C 0.34789(14) 0.7008(2) 0.28906(15)
H5 H 0.3497 0.6357 0.2780
H6 H 0.3866 0.7180 0.3147
C8 C 0.30248(15) 0.7124(2) 0.32921(16)
C9 C 0.31853(15) 0.6884(2) 0.39830(16)
C10 C 0.27338(19) 0.6699(3) 0.42948(19)
H7 H 0.2340 0.6734 0.4069
C11 C 0.2857(2) 0.6467(4) 0.4931(2)
H8 H 0.2547 0.6329 0.5133
C12 C 0.3431(2) 0.6437(3) 0.5271(2)
H9 H 0.3513 0.6283 0.5706
C13 C 0.3888(2) 0.6631(3) 0.49748(19)
H10 H 0.4280 0.6624 0.5210
C14 C 0.37674(17) 0.6835(3) 0.43347(17)
H11 H 0.4080 0.6943 0.4131
C15 C 0.36338(13) 0.7100(2) 0.17825(14)
C16 C 0.42388(14) 0.7133(2) 0.18181(17)
H12 H 0.4483 0.7450 0.2156
C17 C 0.44855(15) 0.6710(2) 0.13675(18)
H13 H 0.4894 0.6742 0.1395
C18 C 0.41280(14) 0.6239(2) 0.08761(15)
C19 C 0.35291(15) 0.6174(2) 0.08347(15)
H14 H 0.3288 0.5841 0.0503
C20 C 0.32899(13) 0.6606(2) 0.12880(15)
H15 H 0.2882 0.6565 0.1261
C21 C 0.37680(13) 1.0036(2) 0.17942(14)
C22 C 0.43453(15) 0.9954(2) 0.17088(18)
H16 H 0.4501 0.9366 0.1670
C23 C 0.46941(16) 1.0726(3) 0.16803(19)
H17 H 0.5082 1.0659 0.1625
C24 C 0.44636(16) 1.1586(2) 0.17348(16)
C25 C 0.39083(16) 1.1687(2) 0.18517(18)
H18 H 0.3763 1.2276 0.1913
C26 C 0.35633(15) 1.0913(2) 0.18781(16)
H19 H 0.3183 1.0986 0.1954
C27 C 0.18417(13) 0.9493(2) 0.21439(15)
C28 C 0.14432(14) 0.9634(2) 0.15624(16)
H20 H 0.1580 0.9643 0.1183
C29 C 0.08471(15) 0.9761(3) 0.15409(18)
H21 H 0.0584 0.9856 0.1148
C30 C 0.06409(15) 0.9749(3) 0.20872(19)
H22 H 0.0237 0.9834 0.2070
C31 C 0.10287(15) 0.9610(3) 0.26653(18)
H23 H 0.0887 0.9605 0.3042
C32 C 0.16223(14) 0.9479(3) 0.26938(16)
H24 H 0.1881 0.9379 0.3090
C33 C 0.36613(13) 0.9122(2) 0.35285(14)
C34 C 0.42948(14) 0.8865(2) 0.37347(14)
C35 C 0.51349(16) 0.8959(3) 0.46031(18)
H25 H 0.5308 0.8612 0.4300
H26 H 0.5376 0.9509 0.4731
C36 C 0.5125(2) 0.8395(4) 0.5158(3)
H27 H 0.4905 0.8709 0.5429
H28 H 0.5526 0.8289 0.5394
H29 H 0.4939 0.7810 0.5023
C37 C 0.33441(14) 0.9470(2) 0.40282(15)
H30 H 0.3527 0.9184 0.4436
H31 H 0.2935 0.9256 0.3913
C38 C 0.33384(13) 1.0510(2) 0.41258(15)
C39 C 0.32569(17) 1.0852(3) 0.47027(17)
H32 H 0.3222 1.0441 0.5030
C40 C 0.32264(19) 1.1791(3) 0.48009(19)
H33 H 0.3172 1.2012 0.5194
C41 C 0.32744(18) 1.2395(3) 0.4334(2)
H34 H 0.3255 1.3031 0.4404
C42 C 0.33518(16) 1.2069(3) 0.37562(19)
H35 H 0.3382 1.2484 0.3430
C43 C 0.33855(15) 1.1132(2) 0.36570(16)
H36 H 0.3441 1.0916 0.3263
loop_
_geom_bond_atom_site_label_1
_geom_bond_atom_site_label_2
_geom_bond_site_symmetry_1
_geom_bond_site_symmetry_2
Br1 C24 1_555 1_555
Br2 C18 1_555 1_555
O1 C4 1_555 1_555
O2 C8 1_555 1_555
O3 C34 1_555 1_555
O4 C34 1_555 1_555
C1 H1 1_555 1_555
C2 C1 1_555 1_555
H2 C2 1_555 1_555
C3 C2 1_555 1_555
H3 C3 1_555 1_555
C4 C3 1_555 1_555
C5 O1 1_555 1_555
C6 C1 1_555 1_555
H4 C6 1_555 1_555
C7 C6 1_555 1_555
H5 C7 1_555 1_555
H6 C7 1_555 1_555
C8 C7 1_555 1_555
C9 C8 1_555 1_555
C10 C9 1_555 1_555
H7 C10 1_555 1_555
C11 C10 1_555 1_555
H8 C11 1_555 1_555
C12 C11 1_555 1_555
H9 C12 1_555 1_555
C13 C12 1_555 1_555
H10 C13 1_555 1_555
C14 C9 1_555 1_555
H11 C14 1_555 1_555
C15 C6 1_555 1_555
C16 C15 1_555 1_555
H12 C16 1_555 1_555
C17 C16 1_555 1_555
H13 C17 1_555 1_555
C18 C17 1_555 1_555
C19 C18 1_555 1_555
H14 C19 1_555 1_555
C20 C15 1_555 1_555
H15 C20 1_555 1_555
C21 C2 1_555 1_555
C22 C21 1_555 1_555
H16 C22 1_555 1_555
C23 C22 1_555 1_555
H17 C23 1_555 1_555
C24 C23 1_555 1_555
C25 C24 1_555 1_555
H18 C25 1_555 1_555
C26 C21 1_555 1_555
H19 C26 1_555 1_555
C27 C4 1_555 1_555
C28 C27 1_555 1_555
H20 C28 1_555 1_555
C29 C28 1_555 1_555
H21 C29 1_555 1_555
C30 C29 1_555 1_555
H22 C30 1_555 1_555
C31 C30 1_555 1_555
H23 C31 1_555 1_555
C32 C27 1_555 1_555
H24 C32 1_555 1_555
C33 C5 1_555 1_555
C34 C33 1_555 1_555
C35 O3 1_555 1_555
H25 C35 1_555 1_555
H26 C35 1_555 1_555
C36 C35 1_555 1_555
H27 C36 1_555 1_555
H28 C36 1_555 1_555
H29 C36 1_555 1_555
C37 C33 1_555 1_555
H30 C37 1_555 1_555
H31 C37 1_555 1_555
C38 C37 1_555 1_555
C39 C38 1_555 1_555
H32 C39 1_555 1_555
C40 C39 1_555 1_555
H33 C40 1_555 1_555
C41 C40 1_555 1_555
H34 C41 1_555 1_555
C42 C41 1_555 1_555
H35 C42 1_555 1_555
C43 C38 1_555 1_555
H36 C43 1_555 1_555
C1 C5 1_555 1_555
C13 C14 1_555 1_555
C19 C20 1_555 1_555
C25 C26 1_555 1_555
C31 C32 1_555 1_555
C42 C43 1_555 1_555

#END
