
#######################################################################
#
#                 Cambridge Crystallographic Data Centre
#                                CCDC 
#
#######################################################################
#
# If this CIF has been generated from an entry in the Cambridge 
# Structural Database, then it will include bibliographic, chemical, 
# crystal, experimental, refinement or atomic coordinate data resulting 
# from the CCDC's data processing and validation procedures.
#
#######################################################################

data_HIBZOK
_chemical_formula_moiety         '2(C8 H20 N1 1+),C12 H60 B44 N4 Na2 O8 2-'
_chemical_name_systematic        
'bis(tetraethylammonium) bis(\m-(methoxyamino)(1-carba-closo-dodecaboranid-1-yl)methanone)-bis((methoxyamino)(1-carba-closo-dodecaboranid-1-yl)methanone)-di-sodium'
_symmetry_cell_setting           triclinic
_symmetry_space_group_name_H-M   'P -1'
_symmetry_Int_Tables_number      2
_space_group_name_Hall           '-P 1'
loop_
_symmetry_equiv_pos_site_id
_symmetry_equiv_pos_as_xyz
1 x,y,z
2 -x,-y,-z
_cell_length_a                   7.6610(3)
_cell_length_b                   14.6847(11)
_cell_length_c                   30.005(2)
_cell_angle_alpha                88.511(6)
_cell_angle_beta                 89.235(4)
_cell_angle_gamma                85.054(5)
_cell_volume                     3361.63
_exptl_crystal_colour            colorless
_exptl_crystal_description       plate
_cell_formula_units_Z            2
loop_
_atom_site_label
_atom_site_type_symbol
_atom_site_fract_x
_atom_site_fract_y
_atom_site_fract_z
Na1 Na 0.5498(4) 0.39801(17) 0.96227(9)
O1 O 0.6320(6) 0.2598(3) 0.92624(16)
O2 O 0.7536(7) 0.2764(3) 1.00875(16)
O3 O 0.6284(6) 0.5477(3) 0.97591(15)
O4 O 0.6988(8) 0.6889(4) 1.0194(2)
N1 N 0.7873(9) 0.1967(4) 0.9842(2)
H1 H 0.8488 0.1484 0.9955
N2 N 0.7968(8) 0.6622(4) 0.9811(2)
H2 H 0.8841 0.6922 0.9708
C1 C 0.7768(8) 0.1077(4) 0.9191(2)
C2 C 0.7228(8) 0.1965(4) 0.9429(2)
C3 C 0.6538(10) 0.2558(5) 1.0485(2)
H3 H 0.5464 0.2291 1.0401
H4 H 0.6234 0.3121 1.0648
H5 H 0.7242 0.2121 1.0676
C4 C 0.8507(8) 0.5624(4) 0.92003(19)
C5 C 0.7483(8) 0.5891(4) 0.9617(2)
C6 C 0.7626(9) 0.7630(5) 1.0393(2)
H6 H 0.8859 0.7481 1.0470
H7 H 0.6945 0.7774 1.0665
H8 H 0.7524 0.8159 1.0187
B1 B 0.7377(11) 0.0052(5) 0.9454(3)
H9 H 0.6788 -0.0009 0.9796
B2 B 0.9562(10) 0.0360(5) 0.9370(3)
H10 H 1.0406 0.0499 0.9659
B3 B 0.9635(10) 0.0996(5) 0.8863(2)
H11 H 1.0524 0.1558 0.8815
B4 B 0.7523(10) 0.1060(5) 0.8627(3)
H12 H 0.7030 0.1673 0.8420
B5 B 0.6105(10) 0.0494(5) 0.8985(3)
H13 H 0.4677 0.0724 0.9016
B6 B 0.6890(11) -0.0676(5) 0.9023(3)
H14 H 0.5981 -0.1226 0.9081
B7 B 0.9051(11) -0.0753(5) 0.9251(3)
H15 H 0.9577 -0.1362 0.9455
B8 B 1.0431(10) -0.0158(5) 0.8890(3)
H16 H 1.1867 -0.0366 0.8854
B9 B 0.9152(11) 0.0259(5) 0.8429(3)
H17 H 0.9742 0.0320 0.8088
B10 B 0.6980(11) -0.0042(5) 0.8505(3)
H18 H 0.6132 -0.0174 0.8217
B11 B 0.8780(10) -0.0824(5) 0.8671(3)
H19 H 0.9116 -0.1478 0.8493
B12 B 1.0708(9) 0.5336(5) 0.9235(2)
H20 H 1.1481 0.5349 0.9549
B13 B 0.9892(9) 0.6360(5) 0.8954(2)
H21 H 1.0142 0.7046 0.9082
B14 B 0.7850(9) 0.6160(5) 0.8710(2)
H22 H 0.6754 0.6715 0.8681
B15 B 0.7437(10) 0.4995(5) 0.8828(2)
H23 H 0.6075 0.4784 0.8875
B16 B 0.9210(10) 0.4483(5) 0.9152(3)
H24 H 0.9015 0.3937 0.9411
B17 B 1.1144(11) 0.4484(5) 0.8815(3)
H25 H 1.2234 0.3929 0.8849
B18 B 1.1565(9) 0.5640(5) 0.8698(2)
H26 H 1.2932 0.5846 0.8655
B19 B 0.9789(10) 0.6152(5) 0.8376(2)
H27 H 0.9976 0.6701 0.8118
B20 B 0.8278(11) 0.5319(6) 0.8299(3)
H28 H 0.7467 0.5320 0.7991
B21 B 0.9124(11) 0.4278(5) 0.8568(3)
H29 H 0.8880 0.3592 0.8438
B22 B 1.0577(10) 0.5002(5) 0.8294(2)
H30 H 1.1297 0.4790 0.7981
Na1A Na 0.4502(4) 0.60199(17) 1.03773(9)
O1A O 0.3680(6) 0.7402(3) 1.07376(16)
O2A O 0.2464(7) 0.7236(3) 0.99125(16)
O3A O 0.3716(6) 0.4523(3) 1.02409(15)
O4A O 0.3012(8) 0.3111(4) 0.9806(2)
N1A N 0.2127(9) 0.8033(4) 1.0158(2)
H1A H 0.1512 0.8516 1.0045
N2A N 0.2032(8) 0.3378(4) 1.0189(2)
H2A H 0.1159 0.3078 1.0292
C1A C 0.2232(8) 0.8923(4) 1.0809(2)
C2A C 0.2772(8) 0.8035(4) 1.0571(2)
C3A C 0.3462(10) 0.7442(5) 0.9515(2)
H3A H 0.4536 0.7709 0.9599
H4A H 0.3766 0.6879 0.9352
H5A H 0.2758 0.7879 0.9324
C4A C 0.1493(8) 0.4376(4) 1.07997(19)
C5A C 0.2517(8) 0.4109(4) 1.0383(2)
C6A C 0.2374(9) 0.2370(5) 0.9607(2)
H6A H 0.1141 0.2519 0.9530
H7A H 0.3055 0.2226 0.9335
H8A H 0.2476 0.1841 0.9813
B1A B 0.2623(11) 0.9948(5) 1.0546(3)
H9A H 0.3212 1.0009 1.0204
B2A B 0.0438(10) 0.9640(5) 1.0630(3)
H10A H -0.0406 0.9501 1.0341
B3A B 0.0365(10) 0.9004(5) 1.1137(2)
H11A H -0.0524 0.8442 1.1185
B4A B 0.2477(10) 0.8940(5) 1.1373(3)
H12A H 0.2970 0.8327 1.1580
B5A B 0.3895(10) 0.9506(5) 1.1015(3)
H13A H 0.5323 0.9276 1.0984
B6A B 0.3110(11) 1.0676(5) 1.0977(3)
H14A H 0.4019 1.1226 1.0919
B7A B 0.0949(11) 1.0753(5) 1.0749(3)
H15A H 0.0423 1.1362 1.0545
B8A B -0.0431(10) 1.0158(5) 1.1110(3)
H16A H -0.1867 1.0366 1.1146
B9A B 0.0848(11) 0.9741(5) 1.1571(3)
H17A H 0.0258 0.9680 1.1912
B10A B 0.3020(11) 1.0042(5) 1.1495(3)
H18A H 0.3868 1.0174 1.1783
B11A B 0.1220(10) 1.0824(5) 1.1329(3)
H19A H 0.0884 1.1478 1.1507
B12A B -0.0708(9) 0.4664(5) 1.0765(2)
H20A H -0.1481 0.4651 1.0451
B13A B 0.0108(9) 0.3640(5) 1.1046(2)
H21A H -0.0142 0.2954 1.0918
B14A B 0.2150(9) 0.3840(5) 1.1290(2)
H22A H 0.3246 0.3285 1.1319
B15A B 0.2563(10) 0.5005(5) 1.1172(2)
H23A H 0.3925 0.5216 1.1125
B16A B 0.0790(10) 0.5517(5) 1.0848(3)
H24A H 0.0985 0.6063 1.0589
B17A B -0.1144(11) 0.5516(5) 1.1185(3)
H25A H -0.2234 0.6071 1.1151
B18A B -0.1565(9) 0.4360(5) 1.1302(2)
H26A H -0.2932 0.4154 1.1345
B19A B 0.0211(10) 0.3848(5) 1.1624(2)
H27A H 0.0024 0.3299 1.1882
B20A B 0.1722(11) 0.4681(6) 1.1701(3)
H28A H 0.2533 0.4680 1.2009
B21A B 0.0876(11) 0.5722(5) 1.1432(3)
H29A H 0.1120 0.6408 1.1562
B22A B -0.0577(10) 0.4998(5) 1.1706(2)
H30A H -0.1297 0.5210 1.2019
Na2 Na 0.5495(4) 0.39352(17) 0.53447(9)
O5 O 0.6355(6) 0.2531(3) 0.56491(16)
O6 O 0.7802(8) 0.2645(3) 0.48379(16)
O7 O 0.6273(6) 0.5455(3) 0.52520(14)
O8 O 0.6945(7) 0.6970(4) 0.48531(17)
N3 N 0.7872(9) 0.1834(4) 0.50892(19)
H31 H 0.8373 0.1324 0.4981
N4 N 0.7954(7) 0.6617(4) 0.52113(17)
H32 H 0.8853 0.6886 0.5309
C7 C 0.7382(8) 0.0951(4) 0.5755(2)
C8 C 0.7165(8) 0.1846(4) 0.5498(2)
C9 C 0.6650(10) 0.2599(5) 0.4470(2)
H33 H 0.7142 0.2134 0.4264
H34 H 0.6515 0.3195 0.4313
H35 H 0.5503 0.2437 0.4579
C10 C 0.8515(7) 0.5502(4) 0.58004(19)
C11 C 0.7463(7) 0.5850(4) 0.53928(18)
C12 C 0.7785(9) 0.7672(4) 0.4626(2)
H36 H 0.7952 0.8162 0.4833
H37 H 0.7057 0.7916 0.4377
H38 H 0.8926 0.7422 0.4512
B23 B 0.8110(12) 0.0988(5) 0.6284(3)
H39 H 0.8459 0.1625 0.6446
B24 B 0.9465(11) 0.0456(5) 0.5849(3)
H40 H 1.0704 0.0735 0.5727
B25 B 0.8028(11) -0.0038(5) 0.5478(3)
H41 H 0.8308 -0.0081 0.5112
B26 B 0.5852(11) 0.0182(5) 0.5678(3)
H42 H 0.4728 0.0283 0.5442
B27 B 0.5916(11) 0.0798(5) 0.6175(3)
H43 H 0.4811 0.1309 0.6269
B28 B 0.7109(12) 0.0118(5) 0.6581(3)
H44 H 0.6796 0.0166 0.6946
B29 B 0.9281(12) -0.0099(6) 0.6386(3)
H45 H 1.0404 -0.0188 0.6623
B30 B 0.9241(11) -0.0719(5) 0.5884(3)
H46 H 1.0349 -0.1223 0.5783
B31 B 0.7038(12) -0.0896(5) 0.5788(3)
H47 H 0.6675 -0.1533 0.5629
B32 B 0.5684(11) -0.0373(6) 0.6204(3)
H48 H 0.4428 -0.0647 0.6318
B33 B 0.7834(12) -0.0944(5) 0.6336(3)
H49 H 0.8007 -0.1599 0.6536
B34 B 0.9766(8) 0.6223(4) 0.6077(2)
H50 H 0.9900 0.6957 0.5981
B35 B 1.0739(9) 0.5308(5) 0.5752(2)
H51 H 1.1511 0.5440 0.5441
B36 B 0.9381(9) 0.4387(4) 0.5790(2)
H52 H 0.9258 0.3917 0.5506
B37 B 0.7567(9) 0.4724(5) 0.6142(2)
H53 H 0.6247 0.4473 0.6090
B38 B 0.7799(9) 0.5868(5) 0.6314(2)
H54 H 0.6636 0.6368 0.6373
B39 B 0.9700(9) 0.5841(5) 0.6637(2)
H55 H 0.9800 0.6320 0.6918
B40 B 1.1541(9) 0.5502(5) 0.6289(2)
H56 H 1.2859 0.5757 0.6339
B41 B 1.1307(10) 0.4368(5) 0.6116(2)
H57 H 1.2477 0.3876 0.6051
B42 B 0.9334(10) 0.4001(5) 0.6357(2)
H58 H 0.9195 0.3268 0.6452
B43 B 0.8355(10) 0.4914(5) 0.6678(2)
H59 H 0.7566 0.4782 0.6986
B44 B 1.0656(10) 0.4689(5) 0.6659(2)
H60 H 1.1400 0.4405 0.6958
Na2A Na 0.4505(4) 0.60648(17) 0.46553(9)
O5A O 0.3645(6) 0.7469(3) 0.43509(16)
O6A O 0.2198(8) 0.7355(3) 0.51621(16)
O7A O 0.3727(6) 0.4545(3) 0.47480(14)
O8A O 0.3055(7) 0.3030(4) 0.51469(17)
N3A N 0.2128(9) 0.8166(4) 0.49108(19)
H31A H 0.1627 0.8676 0.5019
N4A N 0.2046(7) 0.3383(4) 0.47887(17)
H32A H 0.1147 0.3114 0.4691
C7A C 0.2618(8) 0.9049(4) 0.4245(2)
C8A C 0.2835(8) 0.8154(4) 0.4502(2)
C9A C 0.3350(10) 0.7401(5) 0.5530(2)
H33A H 0.2858 0.7866 0.5736
H34A H 0.3485 0.6805 0.5687
H35A H 0.4497 0.7563 0.5421
C10A C 0.1485(7) 0.4498(4) 0.41996(19)
C11A C 0.2537(7) 0.4150(4) 0.46072(18)
C12A C 0.2215(9) 0.2328(4) 0.5374(2)
H36A H 0.2048 0.1838 0.5167
H37A H 0.2943 0.2084 0.5623
H38A H 0.1074 0.2578 0.5488
B23A B 0.1890(12) 0.9012(5) 0.3716(3)
H39A H 0.1541 0.8375 0.3554
B24A B 0.0535(11) 0.9544(5) 0.4151(3)
H40A H -0.0704 0.9265 0.4273
B25A B 0.1972(11) 1.0038(5) 0.4522(3)
H41A H 0.1692 1.0081 0.4888
B26A B 0.4148(11) 0.9818(5) 0.4322(3)
H42A H 0.5272 0.9717 0.4558
B27A B 0.4084(11) 0.9202(5) 0.3825(3)
H43A H 0.5189 0.8691 0.3731
B28A B 0.2891(12) 0.9882(5) 0.3419(3)
H44A H 0.3204 0.9834 0.3054
B29A B 0.0719(12) 1.0099(6) 0.3614(3)
H45A H -0.0404 1.0188 0.3377
B30A B 0.0759(11) 1.0719(5) 0.4116(3)
H46A H -0.0349 1.1223 0.4217
B31A B 0.2962(12) 1.0896(5) 0.4212(3)
H47A H 0.3325 1.1533 0.4371
B32A B 0.4316(11) 1.0373(6) 0.3796(3)
H48A H 0.5572 1.0647 0.3682
B33A B 0.2166(12) 1.0944(5) 0.3664(3)
H49A H 0.1993 1.1599 0.3464
B34A B 0.0234(8) 0.3777(4) 0.3923(2)
H50A H 0.0100 0.3043 0.4019
B35A B -0.0739(9) 0.4692(5) 0.4248(2)
H51A H -0.1511 0.4560 0.4559
B36A B 0.0619(9) 0.5613(4) 0.4210(2)
H52A H 0.0742 0.6083 0.4494
B37A B 0.2433(9) 0.5276(5) 0.3858(2)
H53A H 0.3753 0.5527 0.3910
B38A B 0.2201(9) 0.4132(5) 0.3686(2)
H54A H 0.3364 0.3632 0.3627
B39A B 0.0300(9) 0.4159(5) 0.3363(2)
H55A H 0.0200 0.3680 0.3082
B40A B -0.1541(9) 0.4498(5) 0.3711(2)
H56A H -0.2859 0.4243 0.3661
B41A B -0.1307(10) 0.5632(5) 0.3884(2)
H57A H -0.2477 0.6124 0.3949
B42A B 0.0666(10) 0.5999(5) 0.3643(2)
H58A H 0.0805 0.6732 0.3548
B43A B 0.1645(10) 0.5086(5) 0.3322(2)
H59A H 0.2434 0.5218 0.3014
B44A B -0.0656(10) 0.5311(5) 0.3341(2)
H60A H -0.1400 0.5595 0.3042
N5 N 1.3138(7) 0.2265(3) 0.75113(17)
C13 C 1.3062(9) 0.3146(5) 0.7766(2)
H61 H 1.2038 0.3164 0.7971
H62 H 1.2865 0.3665 0.7550
C14 C 1.4686(11) 0.3286(6) 0.8036(3)
H63 H 1.5721 0.3247 0.7840
H64 H 1.4831 0.2811 0.8272
H65 H 1.4548 0.3889 0.8171
C15 C 1.3144(10) 0.1465(5) 0.7842(2)
H66 H 1.2123 0.1566 0.8046
H67 H 1.4216 0.1449 0.8024
C16 C 1.3079(11) 0.0534(5) 0.7624(3)
H68 H 1.4034 0.0447 0.7404
H69 H 1.1953 0.0514 0.7475
H70 H 1.3208 0.0046 0.7853
C17 C 1.1553(9) 0.2303(5) 0.7211(2)
H71 H 1.1640 0.1748 0.7029
H72 H 1.1590 0.2837 0.7004
C18 C 0.9786(9) 0.2370(6) 0.7454(3)
H73 H 0.8842 0.2428 0.7235
H74 H 0.9694 0.2907 0.7642
H75 H 0.9686 0.1818 0.7640
C19 C 1.4766(9) 0.2153(5) 0.7220(2)
H76 H 1.4708 0.1603 0.7038
H77 H 1.5802 0.2047 0.7414
C20 C 1.5024(11) 0.2974(5) 0.6906(3)
H78 H 1.3998 0.3092 0.6715
H79 H 1.6072 0.2839 0.6720
H80 H 1.5166 0.3514 0.7083
N6 N 0.4269(6) -0.2561(3) 0.74871(15)
C21 C 0.5432(9) -0.1798(5) 0.7385(2)
H81 H 0.5504 -0.1709 0.7057
H82 H 0.4863 -0.1227 0.7508
C22 C 0.7264(9) -0.1941(5) 0.7562(3)
H83 H 0.7932 -0.1433 0.7461
H84 H 0.7834 -0.2517 0.7452
H85 H 0.7221 -0.1967 0.7889
C23 C 0.4097(10) -0.2744(5) 0.7981(2)
H86 H 0.5247 -0.3006 0.8093
H87 H 0.3255 -0.3213 0.8029
C24 C 0.3500(13) -0.1924(6) 0.8256(3)
H88 H 0.4261 -0.1432 0.8192
H89 H 0.3564 -0.2096 0.8573
H90 H 0.2290 -0.1712 0.8181
C25 C 0.5032(10) -0.3435(5) 0.7273(2)
H91 H 0.5147 -0.3316 0.6948
H92 H 0.6226 -0.3590 0.7390
C26 C 0.3992(10) -0.4250(5) 0.7345(3)
H93 H 0.4464 -0.4745 0.7154
H94 H 0.2763 -0.4080 0.7271
H95 H 0.4071 -0.4455 0.7658
C27 C 0.2439(9) -0.2263(5) 0.7305(2)
H96 H 0.1621 -0.2711 0.7410
H97 H 0.2030 -0.1665 0.7432
C28 C 0.2350(11) -0.2178(6) 0.6800(3)
H98 H 0.2616 -0.2782 0.6672
H99 H 0.3206 -0.1764 0.6690
H100 H 0.1171 -0.1933 0.6713
loop_
_geom_bond_atom_site_label_1
_geom_bond_atom_site_label_2
_geom_bond_site_symmetry_1
_geom_bond_site_symmetry_2
Na1 O1 1_555 1_555
O1 C2 1_555 1_555
O2 Na1 1_555 1_555
O3 Na1 1_555 1_555
O4 N2 1_555 1_555
N1 O2 1_555 1_555
H1 N1 1_555 1_555
N2 H2 1_555 1_555
C1 C2 1_555 1_555
C2 N1 1_555 1_555
C3 O2 1_555 1_555
H3 C3 1_555 1_555
H4 C3 1_555 1_555
H5 C3 1_555 1_555
C4 C5 1_555 1_555
C5 O3 1_555 1_555
C6 O4 1_555 1_555
H6 C6 1_555 1_555
H7 C6 1_555 1_555
H8 C6 1_555 1_555
B1 C1 1_555 1_555
H9 B1 1_555 1_555
B2 C1 1_555 1_555
H10 B2 1_555 1_555
B3 C1 1_555 1_555
H11 B3 1_555 1_555
B4 C1 1_555 1_555
H12 B4 1_555 1_555
B5 C1 1_555 1_555
H13 B5 1_555 1_555
B6 B1 1_555 1_555
H14 B6 1_555 1_555
B7 B1 1_555 1_555
H15 B7 1_555 1_555
B8 B2 1_555 1_555
H16 B8 1_555 1_555
B9 B3 1_555 1_555
H17 B9 1_555 1_555
B10 B4 1_555 1_555
H18 B10 1_555 1_555
B11 B6 1_555 1_555
H19 B11 1_555 1_555
B12 C4 1_555 1_555
H20 B12 1_555 1_555
B13 C4 1_555 1_555
H21 B13 1_555 1_555
B14 C4 1_555 1_555
H22 B14 1_555 1_555
B15 C4 1_555 1_555
H23 B15 1_555 1_555
B16 C4 1_555 1_555
H24 B16 1_555 1_555
B17 B12 1_555 1_555
H25 B17 1_555 1_555
B18 B12 1_555 1_555
H26 B18 1_555 1_555
B19 B13 1_555 1_555
H27 B19 1_555 1_555
B20 B14 1_555 1_555
H28 B20 1_555 1_555
B21 B15 1_555 1_555
H29 B21 1_555 1_555
B22 B17 1_555 1_555
H30 B22 1_555 1_555
Na2 O5 1_555 1_555
O5 C8 1_555 1_555
O6 Na2 1_555 1_555
O7 Na2 1_555 1_555
O8 N4 1_555 1_555
N3 O6 1_555 1_555
H31 N3 1_555 1_555
N4 H32 1_555 1_555
C7 C8 1_555 1_555
C8 N3 1_555 1_555
C9 O6 1_555 1_555
H33 C9 1_555 1_555
H34 C9 1_555 1_555
H35 C9 1_555 1_555
C10 C11 1_555 1_555
C11 O7 1_555 1_555
C12 O8 1_555 1_555
H36 C12 1_555 1_555
H37 C12 1_555 1_555
H38 C12 1_555 1_555
B23 C7 1_555 1_555
H39 B23 1_555 1_555
B24 C7 1_555 1_555
H40 B24 1_555 1_555
B25 C7 1_555 1_555
H41 B25 1_555 1_555
B26 C7 1_555 1_555
H42 B26 1_555 1_555
B27 C7 1_555 1_555
H43 B27 1_555 1_555
B28 B23 1_555 1_555
H44 B28 1_555 1_555
B29 B23 1_555 1_555
H45 B29 1_555 1_555
B30 B24 1_555 1_555
H46 B30 1_555 1_555
B31 B25 1_555 1_555
H47 B31 1_555 1_555
B32 B26 1_555 1_555
H48 B32 1_555 1_555
B33 B28 1_555 1_555
H49 B33 1_555 1_555
B34 C10 1_555 1_555
H50 B34 1_555 1_555
B35 C10 1_555 1_555
H51 B35 1_555 1_555
B36 C10 1_555 1_555
H52 B36 1_555 1_555
B37 C10 1_555 1_555
H53 B37 1_555 1_555
B38 C10 1_555 1_555
H54 B38 1_555 1_555
B39 B34 1_555 1_555
H55 B39 1_555 1_555
B40 B34 1_555 1_555
H56 B40 1_555 1_555
B41 B35 1_555 1_555
H57 B41 1_555 1_555
B42 B36 1_555 1_555
H58 B42 1_555 1_555
B43 B37 1_555 1_555
H59 B43 1_555 1_555
B44 B39 1_555 1_555
H60 B44 1_555 1_555
N5 C13 1_555 1_555
C13 H61 1_555 1_555
H62 C13 1_555 1_555
C14 C13 1_555 1_555
H63 C14 1_555 1_555
H64 C14 1_555 1_555
H65 C14 1_555 1_555
C15 N5 1_555 1_555
H66 C15 1_555 1_555
H67 C15 1_555 1_555
C16 C15 1_555 1_555
H68 C16 1_555 1_555
H69 C16 1_555 1_555
H70 C16 1_555 1_555
C17 N5 1_555 1_555
H71 C17 1_555 1_555
H72 C17 1_555 1_555
C18 C17 1_555 1_555
H73 C18 1_555 1_555
H74 C18 1_555 1_555
H75 C18 1_555 1_555
C19 N5 1_555 1_555
H76 C19 1_555 1_555
H77 C19 1_555 1_555
C20 C19 1_555 1_555
H78 C20 1_555 1_555
H79 C20 1_555 1_555
H80 C20 1_555 1_555
N6 C21 1_555 1_555
C21 H81 1_555 1_555
H82 C21 1_555 1_555
C22 C21 1_555 1_555
H83 C22 1_555 1_555
H84 C22 1_555 1_555
H85 C22 1_555 1_555
C23 N6 1_555 1_555
H86 C23 1_555 1_555
H87 C23 1_555 1_555
C24 C23 1_555 1_555
H88 C24 1_555 1_555
H89 C24 1_555 1_555
H90 C24 1_555 1_555
C25 N6 1_555 1_555
H91 C25 1_555 1_555
H92 C25 1_555 1_555
C26 C25 1_555 1_555
H93 C26 1_555 1_555
H94 C26 1_555 1_555
H95 C26 1_555 1_555
C27 N6 1_555 1_555
H96 C27 1_555 1_555
H97 C27 1_555 1_555
C28 C27 1_555 1_555
H98 C28 1_555 1_555
H99 C28 1_555 1_555
H100 C28 1_555 1_555
Na1A O3 1_555 1_555
O1A Na1A 1_555 1_555
O2A Na1A 1_555 1_555
O3A Na1 1_555 1_555
O4A Na1 1_555 1_555
N1A O2A 1_555 1_555
H1A N1A 1_555 1_555
N2A O4A 1_555 1_555
H2A N2A 1_555 1_555
C1A C2A 1_555 1_555
C2A O1A 1_555 1_555
C3A O2A 1_555 1_555
H3A C3A 1_555 1_555
H4A C3A 1_555 1_555
H5A C3A 1_555 1_555
C4A C5A 1_555 1_555
C5A O3A 1_555 1_555
C6A O4A 1_555 1_555
H6A C6A 1_555 1_555
H7A C6A 1_555 1_555
H8A C6A 1_555 1_555
B1A C1A 1_555 1_555
H9A B1A 1_555 1_555
B2A C1A 1_555 1_555
H10A B2A 1_555 1_555
B3A C1A 1_555 1_555
H11A B3A 1_555 1_555
B4A C1A 1_555 1_555
H12A B4A 1_555 1_555
B5A C1A 1_555 1_555
H13A B5A 1_555 1_555
B6A B1A 1_555 1_555
H14A B6A 1_555 1_555
B7A B1A 1_555 1_555
H15A B7A 1_555 1_555
B8A B2A 1_555 1_555
H16A B8A 1_555 1_555
B9A B3A 1_555 1_555
H17A B9A 1_555 1_555
B10A B4A 1_555 1_555
H18A B10A 1_555 1_555
B11A B6A 1_555 1_555
H19A B11A 1_555 1_555
B12A C4A 1_555 1_555
H20A B12A 1_555 1_555
B13A C4A 1_555 1_555
H21A B13A 1_555 1_555
B14A C4A 1_555 1_555
H22A B14A 1_555 1_555
B15A C4A 1_555 1_555
H23A B15A 1_555 1_555
B16A C4A 1_555 1_555
H24A B16A 1_555 1_555
B17A B12A 1_555 1_555
H25A B17A 1_555 1_555
B18A B12A 1_555 1_555
H26A B18A 1_555 1_555
B19A B13A 1_555 1_555
H27A B19A 1_555 1_555
B20A B14A 1_555 1_555
H28A B20A 1_555 1_555
B21A B15A 1_555 1_555
H29A B21A 1_555 1_555
B22A B17A 1_555 1_555
H30A B22A 1_555 1_555
Na2A O7 1_555 1_555
O5A Na2A 1_555 1_555
O6A Na2A 1_555 1_555
O7A Na2 1_555 1_555
O8A Na2 1_555 1_555
N3A O6A 1_555 1_555
H31A N3A 1_555 1_555
N4A O8A 1_555 1_555
H32A N4A 1_555 1_555
C7A C8A 1_555 1_555
C8A O5A 1_555 1_555
C9A O6A 1_555 1_555
H33A C9A 1_555 1_555
H34A C9A 1_555 1_555
H35A C9A 1_555 1_555
C10A C11A 1_555 1_555
C11A O7A 1_555 1_555
C12A O8A 1_555 1_555
H36A C12A 1_555 1_555
H37A C12A 1_555 1_555
H38A C12A 1_555 1_555
B23A C7A 1_555 1_555
H39A B23A 1_555 1_555
B24A C7A 1_555 1_555
H40A B24A 1_555 1_555
B25A C7A 1_555 1_555
H41A B25A 1_555 1_555
B26A C7A 1_555 1_555
H42A B26A 1_555 1_555
B27A C7A 1_555 1_555
H43A B27A 1_555 1_555
B28A B23A 1_555 1_555
H44A B28A 1_555 1_555
B29A B23A 1_555 1_555
H45A B29A 1_555 1_555
B30A B24A 1_555 1_555
H46A B30A 1_555 1_555
B31A B25A 1_555 1_555
H47A B31A 1_555 1_555
B32A B26A 1_555 1_555
H48A B32A 1_555 1_555
B33A B28A 1_555 1_555
H49A B33A 1_555 1_555
B34A C10A 1_555 1_555
H50A B34A 1_555 1_555
B35A C10A 1_555 1_555
H51A B35A 1_555 1_555
B36A C10A 1_555 1_555
H52A B36A 1_555 1_555
B37A C10A 1_555 1_555
H53A B37A 1_555 1_555
B38A C10A 1_555 1_555
H54A B38A 1_555 1_555
B39A B34A 1_555 1_555
H55A B39A 1_555 1_555
B40A B34A 1_555 1_555
H56A B40A 1_555 1_555
B41A B35A 1_555 1_555
H57A B41A 1_555 1_555
B42A B36A 1_555 1_555
H58A B42A 1_555 1_555
B43A B37A 1_555 1_555
H59A B43A 1_555 1_555
B44A B39A 1_555 1_555
H60A B44A 1_555 1_555
O4 Na1A 1_555 1_555
N2 C5 1_555 1_555
B1 B2 1_555 1_555
B1 B5 1_555 1_555
B2 B3 1_555 1_555
B2 B7 1_555 1_555
B3 B4 1_555 1_555
B3 B8 1_555 1_555
B4 B5 1_555 1_555
B4 B9 1_555 1_555
B5 B6 1_555 1_555
B5 B10 1_555 1_555
B6 B7 1_555 1_555
B6 B10 1_555 1_555
B7 B8 1_555 1_555
B7 B11 1_555 1_555
B8 B9 1_555 1_555
B8 B11 1_555 1_555
B9 B10 1_555 1_555
B9 B11 1_555 1_555
B10 B11 1_555 1_555
B12 B13 1_555 1_555
B12 B16 1_555 1_555
B13 B14 1_555 1_555
B13 B18 1_555 1_555
B14 B15 1_555 1_555
B14 B19 1_555 1_555
B15 B16 1_555 1_555
B15 B20 1_555 1_555
B16 B17 1_555 1_555
B16 B21 1_555 1_555
B17 B18 1_555 1_555
B17 B21 1_555 1_555
B18 B19 1_555 1_555
B18 B22 1_555 1_555
B19 B20 1_555 1_555
B19 B22 1_555 1_555
B20 B21 1_555 1_555
B20 B22 1_555 1_555
B21 B22 1_555 1_555
O8 Na2A 1_555 1_555
N4 C11 1_555 1_555
B23 B24 1_555 1_555
B23 B27 1_555 1_555
B24 B25 1_555 1_555
B24 B29 1_555 1_555
B25 B26 1_555 1_555
B25 B30 1_555 1_555
B26 B27 1_555 1_555
B26 B31 1_555 1_555
B27 B28 1_555 1_555
B27 B32 1_555 1_555
B28 B29 1_555 1_555
B28 B32 1_555 1_555
B29 B30 1_555 1_555
B29 B33 1_555 1_555
B30 B31 1_555 1_555
B30 B33 1_555 1_555
B31 B32 1_555 1_555
B31 B33 1_555 1_555
B32 B33 1_555 1_555
B34 B35 1_555 1_555
B34 B38 1_555 1_555
B35 B36 1_555 1_555
B35 B40 1_555 1_555
B36 B37 1_555 1_555
B36 B41 1_555 1_555
B37 B38 1_555 1_555
B37 B42 1_555 1_555
B38 B39 1_555 1_555
B38 B43 1_555 1_555
B39 B40 1_555 1_555
B39 B43 1_555 1_555
B40 B41 1_555 1_555
B40 B44 1_555 1_555
B41 B42 1_555 1_555
B41 B44 1_555 1_555
B42 B43 1_555 1_555
B42 B44 1_555 1_555
B43 B44 1_555 1_555
Na1A O3A 1_555 1_555
N1A C2A 1_555 1_555
N2A C5A 1_555 1_555
B1A B2A 1_555 1_555
B1A B5A 1_555 1_555
B2A B3A 1_555 1_555
B2A B7A 1_555 1_555
B3A B4A 1_555 1_555
B3A B8A 1_555 1_555
B4A B5A 1_555 1_555
B4A B9A 1_555 1_555
B5A B6A 1_555 1_555
B5A B10A 1_555 1_555
B6A B7A 1_555 1_555
B6A B10A 1_555 1_555
B7A B8A 1_555 1_555
B7A B11A 1_555 1_555
B8A B9A 1_555 1_555
B8A B11A 1_555 1_555
B9A B10A 1_555 1_555
B9A B11A 1_555 1_555
B10A B11A 1_555 1_555
B12A B13A 1_555 1_555
B12A B16A 1_555 1_555
B13A B14A 1_555 1_555
B13A B18A 1_555 1_555
B14A B15A 1_555 1_555
B14A B19A 1_555 1_555
B15A B16A 1_555 1_555
B15A B20A 1_555 1_555
B16A B17A 1_555 1_555
B16A B21A 1_555 1_555
B17A B18A 1_555 1_555
B17A B21A 1_555 1_555
B18A B19A 1_555 1_555
B18A B22A 1_555 1_555
B19A B20A 1_555 1_555
B19A B22A 1_555 1_555
B20A B21A 1_555 1_555
B20A B22A 1_555 1_555
B21A B22A 1_555 1_555
Na2A O7A 1_555 1_555
N3A C8A 1_555 1_555
N4A C11A 1_555 1_555
B23A B24A 1_555 1_555
B23A B27A 1_555 1_555
B24A B25A 1_555 1_555
B24A B29A 1_555 1_555
B25A B26A 1_555 1_555
B25A B30A 1_555 1_555
B26A B27A 1_555 1_555
B26A B31A 1_555 1_555
B27A B28A 1_555 1_555
B27A B32A 1_555 1_555
B28A B29A 1_555 1_555
B28A B32A 1_555 1_555
B29A B30A 1_555 1_555
B29A B33A 1_555 1_555
B30A B31A 1_555 1_555
B30A B33A 1_555 1_555
B31A B32A 1_555 1_555
B31A B33A 1_555 1_555
B32A B33A 1_555 1_555
B34A B35A 1_555 1_555
B34A B38A 1_555 1_555
B35A B36A 1_555 1_555
B35A B40A 1_555 1_555
B36A B37A 1_555 1_555
B36A B41A 1_555 1_555
B37A B38A 1_555 1_555
B37A B42A 1_555 1_555
B38A B39A 1_555 1_555
B38A B43A 1_555 1_555
B39A B40A 1_555 1_555
B39A B43A 1_555 1_555
B40A B41A 1_555 1_555
B40A B44A 1_555 1_555
B41A B42A 1_555 1_555
B41A B44A 1_555 1_555
B42A B43A 1_555 1_555
B42A B44A 1_555 1_555
B43A B44A 1_555 1_555

#END
