
#######################################################################
#
#                 Cambridge Crystallographic Data Centre
#                                CCDC 
#
#######################################################################
#
# If this CIF has been generated from an entry in the Cambridge 
# Structural Database, then it will include bibliographic, chemical, 
# crystal, experimental, refinement or atomic coordinate data resulting 
# from the CCDC's data processing and validation procedures.
#
#######################################################################

data_HICFEG
_chemical_formula_moiety         'C33 H29 Br1 N2 O1'
_chemical_name_systematic        
1-Allyl-3-(4-bromophenyl)-4-((trityloxy)methyl)azetidine-2-carbonitrile
_symmetry_cell_setting           orthorhombic
_symmetry_space_group_name_H-M   'P 21 21 21'
_symmetry_Int_Tables_number      19
_space_group_name_Hall           'P 2ac 2ab'
loop_
_symmetry_equiv_pos_site_id
_symmetry_equiv_pos_as_xyz
1 x,y,z
2 1/2-x,-y,1/2+z
3 -x,1/2+y,1/2-z
4 1/2+x,1/2-y,-z
_cell_length_a                   9.3871(4)
_cell_length_b                   10.3132(5)
_cell_length_c                   28.3675(13)
_cell_angle_alpha                90
_cell_angle_beta                 90
_cell_angle_gamma                90
_cell_volume                     2746.29
_exptl_crystal_colour            colorless
_exptl_crystal_description       block
_cell_formula_units_Z            4
loop_
_atom_site_label
_atom_site_type_symbol
_atom_site_fract_x
_atom_site_fract_y
_atom_site_fract_z
N1 N 0.18873(12) 0.17191(11) 0.08338(4)
C1 C 0.29897(14) 0.13079(13) 0.11681(5)
H1 H 0.2752 0.0437 0.1292
H2 H 0.3017 0.1919 0.1437
C2 C 0.44182(16) 0.12681(16) 0.09366(5)
H3 H 0.4551 0.0668 0.0686
C3 C 0.54996(17) 0.20009(19) 0.10541(7)
H4 H 0.5405 0.2612 0.1303
H5 H 0.6379 0.1922 0.0891
C4 C 0.03851(13) 0.17437(12) 0.10027(4)
H6 H 0.0213 0.1024 0.1232
C5 C -0.01521(14) 0.30042(11) 0.11981(4)
H7 H 0.0096 0.3729 0.0984
H8 H -0.1200 0.2977 0.1235
O1 O 0.05210(10) 0.31721(9) 0.16456(3)
C6 C 0.03153(13) 0.44125(11) 0.18727(4)
C7 C 0.10174(13) 0.54943(12) 0.15842(4)
C8 C 0.22317(14) 0.52129(13) 0.13177(5)
H9 H 0.2545 0.4341 0.1288
C9 C 0.29848(15) 0.62017(14) 0.10956(5)
H10 H 0.3796 0.5998 0.0909
C10 C 0.25603(14) 0.74808(13) 0.11444(5)
H11 H 0.3084 0.8155 0.0996
C11 C 0.13629(15) 0.77692(14) 0.14114(5)
H12 H 0.1072 0.8646 0.1448
C12 C 0.05854(14) 0.67857(12) 0.16257(5)
H13 H -0.0245 0.6993 0.1802
C13 C 0.11836(14) 0.43347(13) 0.23298(4)
C14 C 0.12067(16) 0.53940(14) 0.26337(5)
H14 H 0.0603 0.6115 0.2574
C15 C 0.21030(18) 0.54096(16) 0.30240(5)
H15 H 0.2116 0.6143 0.3227
C16 C 0.29777(16) 0.43563(16) 0.31176(5)
H16 H 0.3603 0.4370 0.3381
C17 C 0.29312(15) 0.32854(15) 0.28244(5)
H17 H 0.3512 0.2554 0.2891
C18 C 0.20374(14) 0.32722(13) 0.24314(5)
H18 H 0.2013 0.2532 0.2232
C19 C -0.12818(14) 0.46092(12) 0.19576(5)
C20 C -0.21634(15) 0.50960(13) 0.16034(5)
H19 H -0.1760 0.5386 0.1315
C21 C -0.36317(16) 0.51589(15) 0.16707(6)
H20 H -0.4221 0.5491 0.1427
C22 C -0.42418(16) 0.47450(16) 0.20872(6)
H21 H -0.5243 0.4799 0.2132
C23 C -0.33762(18) 0.42489(18) 0.24401(6)
H22 H -0.3785 0.3959 0.2728
C24 C -0.19097(16) 0.41755(15) 0.23731(5)
H23 H -0.1327 0.3823 0.2615
C25 C -0.00827(15) 0.13348(11) 0.05017(4)
H24 H -0.0163 0.2121 0.0297
C26 C -0.13345(14) 0.04640(13) 0.04164(5)
C27 C -0.16384(14) -0.05847(13) 0.07085(5)
H25 H -0.1066 -0.0734 0.0979
C28 C -0.27633(15) -0.14156(13) 0.06105(5)
H26 H -0.2962 -0.2131 0.0811
C29 C -0.35897(14) -0.11814(14) 0.02155(5)
Br1 Br -0.508448(16) -0.233128(15) 0.005652(5)
C30 C -0.33346(14) -0.01318(14) -0.00751(5)
H27 H -0.3927 0.0027 -0.0340
C31 C -0.22009(14) 0.06885(13) 0.00254(5)
H28 H -0.2014 0.1409 -0.0174
C32 C 0.14512(14) 0.07761(13) 0.04661(5)
H29 H 0.1484 -0.0128 0.0593
C33 C 0.21997(14) 0.08543(13) 0.00118(5)
N2 N 0.27685(15) 0.09042(14) -0.03436(5)
loop_
_geom_bond_atom_site_label_1
_geom_bond_atom_site_label_2
_geom_bond_site_symmetry_1
_geom_bond_site_symmetry_2
N1 C1 1_555 1_555
C1 H1 1_555 1_555
H2 C1 1_555 1_555
C2 C1 1_555 1_555
H3 C2 1_555 1_555
C3 C2 1_555 1_555
H4 C3 1_555 1_555
H5 C3 1_555 1_555
C4 N1 1_555 1_555
H6 C4 1_555 1_555
C5 C4 1_555 1_555
H7 C5 1_555 1_555
H8 C5 1_555 1_555
O1 C5 1_555 1_555
C6 O1 1_555 1_555
C7 C6 1_555 1_555
C8 C7 1_555 1_555
H9 C8 1_555 1_555
C9 C8 1_555 1_555
H10 C9 1_555 1_555
C10 C9 1_555 1_555
H11 C10 1_555 1_555
C11 C10 1_555 1_555
H12 C11 1_555 1_555
C12 C7 1_555 1_555
H13 C12 1_555 1_555
C13 C6 1_555 1_555
C14 C13 1_555 1_555
H14 C14 1_555 1_555
C15 C14 1_555 1_555
H15 C15 1_555 1_555
C16 C15 1_555 1_555
H16 C16 1_555 1_555
C17 C16 1_555 1_555
H17 C17 1_555 1_555
C18 C13 1_555 1_555
H18 C18 1_555 1_555
C19 C6 1_555 1_555
C20 C19 1_555 1_555
H19 C20 1_555 1_555
C21 C20 1_555 1_555
H20 C21 1_555 1_555
C22 C21 1_555 1_555
H21 C22 1_555 1_555
C23 C22 1_555 1_555
H22 C23 1_555 1_555
C24 C19 1_555 1_555
H23 C24 1_555 1_555
C25 C4 1_555 1_555
H24 C25 1_555 1_555
C26 C25 1_555 1_555
C27 C26 1_555 1_555
H25 C27 1_555 1_555
C28 C27 1_555 1_555
H26 C28 1_555 1_555
C29 C28 1_555 1_555
Br1 C29 1_555 1_555
C30 C29 1_555 1_555
H27 C30 1_555 1_555
C31 C26 1_555 1_555
H28 C31 1_555 1_555
C32 N1 1_555 1_555
H29 C32 1_555 1_555
C33 C32 1_555 1_555
N2 C33 1_555 1_555
C11 C12 1_555 1_555
C17 C18 1_555 1_555
C23 C24 1_555 1_555
C25 C32 1_555 1_555
C30 C31 1_555 1_555

#END
