
#######################################################################
#
#                 Cambridge Crystallographic Data Centre
#                                CCDC 
#
#######################################################################
#
# If this CIF has been generated from an entry in the Cambridge 
# Structural Database, then it will include bibliographic, chemical, 
# crystal, experimental, refinement or atomic coordinate data resulting 
# from the CCDC's data processing and validation procedures.
#
#######################################################################

data_HICFUW
_chemical_formula_moiety         'C40 H36 Br1 N3 O5 S1'
_chemical_name_systematic        
1-Allyl-3-(4-bromophenyl)-6-((4-nitrophenyl)sulfonyl)-2-((trityloxy)methyl)-1,6-diazaspiro[3.3]heptane
_symmetry_cell_setting           monoclinic
_symmetry_space_group_name_H-M   'P 21'
_symmetry_Int_Tables_number      4
_space_group_name_Hall           'P 2yb'
loop_
_symmetry_equiv_pos_site_id
_symmetry_equiv_pos_as_xyz
1 x,y,z
2 -x,1/2+y,-z
_cell_length_a                   9.1778(5)
_cell_length_b                   11.4057(7)
_cell_length_c                   16.8718(10)
_cell_angle_alpha                90
_cell_angle_beta                 99.8640(10)
_cell_angle_gamma                90
_cell_volume                     1740.02
_exptl_crystal_colour            colorless
_exptl_crystal_description       block
_cell_formula_units_Z            2
loop_
_atom_site_label
_atom_site_type_symbol
_atom_site_fract_x
_atom_site_fract_y
_atom_site_fract_z
N1 N 0.52433(11) 0.48380(8) 0.93314(5)
N2 N 0.67632(10) 0.36866(8) 0.77653(5)
C1 C 0.58315(11) 0.39030(9) 0.83737(6)
C2 C 0.64927(12) 0.40297(9) 0.92831(6)
H1 H 0.6476 0.3298 0.9598
H2 H 0.7479 0.4406 0.9391
C3 C 0.49859(12) 0.50566(9) 0.84475(6)
H3 H 0.5486 0.5765 0.8286
H4 H 0.3932 0.5035 0.8190
C4 C 0.49644(11) 0.27580(8) 0.81200(6)
H5 H 0.4869 0.2252 0.8592
C5 C 0.63375(12) 0.24272(9) 0.77390(6)
H6 H 0.7058 0.1973 0.8135
C6 C 0.61490(11) 0.18442(9) 0.69224(6)
H7 H 0.5541 0.2337 0.6509
H8 H 0.7121 0.1702 0.6760
C7 C 0.83516(12) 0.39278(10) 0.79380(7)
H9 H 0.8821 0.3580 0.7506
H10 H 0.8780 0.3538 0.8449
C8 C 0.87214(15) 0.52066(11) 0.80032(7)
H11 H 0.8085 0.5738 0.7676
C9 C 0.98836(17) 0.56419(14) 0.84892(9)
H12 H 1.0541 0.5133 0.8823
H13 H 1.0059 0.6463 0.8503
S1 S 0.52549(3) 0.58615(2) 0.999744(15)
O1 O 0.38103(10) 0.63788(8) 0.98610(5)
O2 O 0.58491(10) 0.53455(8) 1.07611(5)
C10 C 0.84589(13) 0.85359(10) 0.93588(7)
C11 C 0.90052(13) 0.76296(11) 0.98732(7)
H14 H 1.0035 0.7559 1.0069
C12 C 0.80139(13) 0.68302(10) 1.00942(7)
H15 H 0.8353 0.6208 1.0453
C13 C 0.65101(12) 0.69483(9) 0.97840(6)
C14 C 0.59839(12) 0.78729(9) 0.92747(6)
H16 H 0.4955 0.7943 0.9075
C15 C 0.69640(13) 0.86895(10) 0.90601(7)
H17 H 0.6625 0.9333 0.8720
N3 N 0.95064(12) 0.93765(10) 0.91073(7)
O3 O 1.08142(11) 0.90780(11) 0.91875(7)
O4 O 0.90333(13) 1.03202(9) 0.88302(8)
C16 C 0.08600(10) 0.30033(10) 0.64699(6)
C17 C 0.10183(12) 0.21750(9) 0.70824(6)
H18 H 0.0233 0.1653 0.7133
C18 C 0.23516(12) 0.21249(9) 0.76208(6)
H19 H 0.2467 0.1567 0.8045
C19 C 0.35224(11) 0.28798(8) 0.75486(6)
C20 C 0.33212(11) 0.37058(9) 0.69270(6)
H20 H 0.4103 0.4229 0.6872
C21 C 0.19955(11) 0.37740(9) 0.63876(6)
H21 H 0.1869 0.4340 0.5968
Br1 Br -0.092924(10) 0.310036(9) 0.572097(6)
O5 O 0.54188(8) 0.07624(6) 0.70244(4)
C22 C 0.53558(11) -0.01118(9) 0.64018(6)
C23 C 0.44327(11) 0.03165(9) 0.56084(6)
C24 C 0.45669(11) -0.01806(9) 0.48653(6)
H22 H 0.5299 -0.0761 0.4839
C25 C 0.36370(12) 0.01687(9) 0.41657(6)
H23 H 0.3732 -0.0179 0.3665
C26 C 0.25671(13) 0.10254(10) 0.41961(7)
H24 H 0.1940 0.1269 0.3717
C27 C 0.24215(12) 0.15208(10) 0.49272(7)
H25 H 0.1698 0.2110 0.4949
C28 C 0.33347(11) 0.11564(9) 0.56319(6)
H26 H 0.3208 0.1484 0.6133
C29 C 0.69422(11) -0.04525(9) 0.63345(6)
C30 C 0.77169(12) -0.12408(10) 0.68858(7)
H27 H 0.7222 -0.1618 0.7266
C31 C 0.92071(12) -0.14806(11) 0.68853(7)
H28 H 0.9722 -0.2013 0.7267
C32 C 0.99406(12) -0.09425(11) 0.63280(7)
H29 H 1.0948 -0.1121 0.6318
C33 C 0.91919(11) -0.01432(10) 0.57868(6)
H30 H 0.9693 0.0238 0.5411
C34 C 0.77065(12) 0.01034(10) 0.57924(7)
H31 H 0.7207 0.0658 0.5422
C35 C 0.44973(11) -0.11346(9) 0.66931(6)
C36 C 0.38527(11) -0.10408(10) 0.73818(6)
H32 H 0.3987 -0.0347 0.7697
C37 C 0.30115(10) -0.19619(12) 0.76092(6)
H33 H 0.2585 -0.1892 0.8082
C38 C 0.27900(12) -0.29802(10) 0.71524(7)
H34 H 0.2200 -0.3599 0.7303
C39 C 0.34473(13) -0.30793(10) 0.64707(7)
H35 H 0.3314 -0.3775 0.6157
C40 C 0.42966(12) -0.21702(9) 0.62456(7)
H36 H 0.4747 -0.2253 0.5782
loop_
_geom_bond_atom_site_label_1
_geom_bond_atom_site_label_2
_geom_bond_site_symmetry_1
_geom_bond_site_symmetry_2
N1 C2 1_555 1_555
N2 C1 1_555 1_555
C1 C2 1_555 1_555
C2 H1 1_555 1_555
H2 C2 1_555 1_555
C3 N1 1_555 1_555
H3 C3 1_555 1_555
H4 C3 1_555 1_555
C4 C1 1_555 1_555
H5 C4 1_555 1_555
C5 N2 1_555 1_555
H6 C5 1_555 1_555
C6 C5 1_555 1_555
H7 C6 1_555 1_555
H8 C6 1_555 1_555
C7 N2 1_555 1_555
H9 C7 1_555 1_555
H10 C7 1_555 1_555
C8 C7 1_555 1_555
H11 C8 1_555 1_555
C9 C8 1_555 1_555
H12 C9 1_555 1_555
H13 C9 1_555 1_555
S1 N1 1_555 1_555
O1 S1 1_555 1_555
O2 S1 1_555 1_555
C10 C11 1_555 1_555
C11 H14 1_555 1_555
C12 C11 1_555 1_555
H15 C12 1_555 1_555
C13 S1 1_555 1_555
C14 C13 1_555 1_555
H16 C14 1_555 1_555
C15 C10 1_555 1_555
H17 C15 1_555 1_555
N3 C10 1_555 1_555
O3 N3 1_555 1_555
O4 N3 1_555 1_555
C16 C17 1_555 1_555
C17 H18 1_555 1_555
C18 C17 1_555 1_555
H19 C18 1_555 1_555
C19 C4 1_555 1_555
C20 C19 1_555 1_555
H20 C20 1_555 1_555
C21 C16 1_555 1_555
H21 C21 1_555 1_555
Br1 C16 1_555 1_555
O5 C6 1_555 1_555
C22 O5 1_555 1_555
C23 C22 1_555 1_555
C24 C23 1_555 1_555
H22 C24 1_555 1_555
C25 C24 1_555 1_555
H23 C25 1_555 1_555
C26 C25 1_555 1_555
H24 C26 1_555 1_555
C27 C26 1_555 1_555
H25 C27 1_555 1_555
C28 C23 1_555 1_555
H26 C28 1_555 1_555
C29 C22 1_555 1_555
C30 C29 1_555 1_555
H27 C30 1_555 1_555
C31 C30 1_555 1_555
H28 C31 1_555 1_555
C32 C31 1_555 1_555
H29 C32 1_555 1_555
C33 C32 1_555 1_555
H30 C33 1_555 1_555
C34 C29 1_555 1_555
H31 C34 1_555 1_555
C35 C22 1_555 1_555
C36 C35 1_555 1_555
H32 C36 1_555 1_555
C37 C36 1_555 1_555
H33 C37 1_555 1_555
C38 C37 1_555 1_555
H34 C38 1_555 1_555
C39 C38 1_555 1_555
H35 C39 1_555 1_555
C40 C35 1_555 1_555
H36 C40 1_555 1_555
C1 C3 1_555 1_555
C4 C5 1_555 1_555
C12 C13 1_555 1_555
C14 C15 1_555 1_555
C18 C19 1_555 1_555
C20 C21 1_555 1_555
C27 C28 1_555 1_555
C33 C34 1_555 1_555
C39 C40 1_555 1_555

#END
