
#######################################################################
#
#                 Cambridge Crystallographic Data Centre
#                                CCDC 
#
#######################################################################
#
# If this CIF has been generated from an entry in the Cambridge 
# Structural Database, then it will include bibliographic, chemical, 
# crystal, experimental, refinement or atomic coordinate data resulting 
# from the CCDC's data processing and validation procedures.
#
#######################################################################

data_HICGEI
_chemical_formula_moiety         'C56 H42 N2,C1 H2 Cl2'
_chemical_name_systematic        
'2,7-di-t-butyl-9,20-diphenylacenaphtho[1,2-b]benzo[8,9]triphenyleno[2,3-g]quinoxaline dichloromethane solvate'
_symmetry_cell_setting           orthorhombic
_symmetry_space_group_name_H-M   'P b c a'
_symmetry_Int_Tables_number      61
_space_group_name_Hall           '-P 2ac 2ab'
loop_
_symmetry_equiv_pos_site_id
_symmetry_equiv_pos_as_xyz
1 x,y,z
2 1/2-x,-y,1/2+z
3 -x,1/2+y,1/2-z
4 1/2+x,1/2-y,-z
5 -x,-y,-z
6 1/2+x,y,1/2-z
7 x,1/2-y,1/2+z
8 1/2-x,1/2+y,z
_cell_length_a                   16.9551(15)
_cell_length_b                   18.6570(16)
_cell_length_c                   27.345(2)
_cell_angle_alpha                90
_cell_angle_beta                 90
_cell_angle_gamma                90
_cell_volume                     8650.08
_exptl_crystal_colour            red
_exptl_crystal_description       BLOCK
_cell_formula_units_Z            8
loop_
_atom_site_label
_atom_site_type_symbol
_atom_site_fract_x
_atom_site_fract_y
_atom_site_fract_z
Cl1 Cl 0.61836(11) 0.07804(10) 0.10875(7)
Cl2 Cl 0.48126(15) 0.16062(18) 0.10214(11)
C1 C 0.5425(4) 0.1208(3) 0.13880(19)
H1 H 0.5138 0.0859 0.1582
H2 H 0.5645 0.1560 0.1610
N1 N 0.51609(18) 0.20992(15) 0.33993(10)
N2 N 0.55682(18) 0.23269(15) 0.23789(10)
C2 C 0.5822(2) 0.18825(18) 0.32052(13)
C3 C 0.6027(2) 0.19966(18) 0.26933(13)
C4 C 0.6809(2) 0.16646(18) 0.26103(14)
C5 C 0.7027(2) 0.13686(17) 0.30664(14)
C6 C 0.6466(2) 0.14925(18) 0.34402(14)
C7 C 0.6622(2) 0.12491(19) 0.39029(14)
H3 H 0.6264 0.1328 0.4155
C8 C 0.7330(3) 0.0878(2) 0.39914(16)
H4 H 0.7433 0.0711 0.4305
C9 C 0.7872(3) 0.0756(2) 0.36293(16)
H5 H 0.8330 0.0502 0.3700
C10 C 0.7743(2) 0.10118(18) 0.31487(15)
C11 C 0.8252(2) 0.09562(19) 0.27408(16)
H6 H 0.8738 0.0731 0.2774
C12 C 0.8034(2) 0.1232(2) 0.22974(17)
H7 H 0.8378 0.1183 0.2035
C13 C 0.7310(2) 0.15880(19) 0.22216(15)
H8 H 0.7177 0.1766 0.1915
C14 C 0.4658(2) 0.24590(18) 0.30800(12)
C15 C 0.3953(2) 0.27211(18) 0.32586(12)
H9 H 0.3829 0.2646 0.3586
C16 C 0.3416(2) 0.30994(18) 0.29611(12)
C17 C 0.2721(2) 0.34302(18) 0.31589(12)
C18 C 0.2217(2) 0.38046(17) 0.28459(12)
C19 C 0.1588(2) 0.42772(17) 0.30428(12)
C20 C 0.1647(2) 0.46105(18) 0.34951(12)
H10 H 0.2110 0.4551 0.3674
C21 C 0.1041(2) 0.50358(18) 0.36981(13)
C22 C 0.0378(2) 0.51288(18) 0.34235(13)
H11 H -0.0038 0.5390 0.3554
C23 C 0.0302(2) 0.48458(18) 0.29517(12)
C24 C -0.0380(2) 0.49775(18) 0.26556(13)
H12 H -0.0803 0.5229 0.2788
C25 C -0.0424(2) 0.47479(19) 0.21931(13)
H13 H -0.0887 0.4819 0.2017
C26 C 0.0231(2) 0.43935(18) 0.19628(12)
C27 C 0.0229(2) 0.42441(18) 0.14607(13)
H14 H -0.0221 0.4350 0.1280
C28 C 0.0866(2) 0.39462(17) 0.12249(13)
C29 C 0.1523(2) 0.37797(18) 0.15124(13)
H15 H 0.1948 0.3558 0.1359
C30 C 0.1589(2) 0.39220(17) 0.20121(12)
C31 C 0.2290(2) 0.37294(16) 0.23159(12)
C32 C 0.2999(2) 0.34640(17) 0.21304(12)
C33 C 0.3592(2) 0.31744(17) 0.24518(11)
C34 C 0.4319(2) 0.29191(17) 0.22772(13)
H16 H 0.4444 0.2985 0.1949
C35 C 0.4858(2) 0.25723(18) 0.25768(13)
C36 C 0.0930(2) 0.44363(17) 0.27483(12)
C37 C 0.0911(2) 0.42323(16) 0.22449(12)
C38 C 0.2543(2) 0.33170(19) 0.36851(12)
C39 C 0.1874(2) 0.2946(2) 0.38223(14)
H17 H 0.1520 0.2795 0.3584
C40 C 0.1722(3) 0.2797(2) 0.43083(16)
H18 H 0.1265 0.2552 0.4394
C41 C 0.2240(3) 0.3007(3) 0.46631(16)
H19 H 0.2143 0.2891 0.4988
C42 C 0.2901(3) 0.3387(3) 0.45412(14)
H20 H 0.3246 0.3543 0.4783
C43 C 0.3050(2) 0.3537(2) 0.40595(14)
H21 H 0.3503 0.3793 0.3979
C44 C 0.3218(2) 0.34501(18) 0.15988(12)
C45 C 0.3473(2) 0.4066(2) 0.13681(14)
H22 H 0.3477 0.4500 0.1536
C46 C 0.3725(3) 0.4038(3) 0.08829(17)
H23 H 0.3909 0.4450 0.0730
C47 C 0.3702(3) 0.3404(4) 0.06323(16)
H24 H 0.3861 0.3389 0.0307
C48 C 0.3447(3) 0.2796(3) 0.08563(15)
H25 H 0.3432 0.2366 0.0684
C49 C 0.3213(2) 0.2815(2) 0.13358(13)
H26 H 0.3048 0.2395 0.1487
C50 C 0.1154(3) 0.5387(2) 0.41990(14)
C51 C 0.1224(15) 0.4750(9) 0.4574(3)
H27 H 0.1651 0.4442 0.4480
H28 H 0.0741 0.4482 0.4577
H29 H 0.1324 0.4938 0.4895
C52 C 0.1832(11) 0.5865(13) 0.4209(8)
H30 H 0.2299 0.5602 0.4124
H31 H 0.1890 0.6064 0.4531
H32 H 0.1754 0.6246 0.3977
C53 C 0.0388(12) 0.5807(8) 0.4352(6)
H33 H 0.0459 0.6007 0.4673
H34 H -0.0054 0.5485 0.4355
H35 H 0.0291 0.6186 0.4122
C54 C 0.0868(2) 0.3809(2) 0.06739(13)
C55 C 0.1501(7) 0.4269(8) 0.0442(3)
H36 H 0.1966 0.4261 0.0642
H37 H 0.1314 0.4753 0.0413
H38 H 0.1625 0.4085 0.0123
C56 C 0.1036(10) 0.3034(4) 0.0580(2)
H39 H 0.1584 0.2939 0.0641
H40 H 0.0915 0.2922 0.0246
H41 H 0.0718 0.2744 0.0793
C57 C 0.0081(5) 0.3983(8) 0.0431(2)
H42 H 0.0121 0.3903 0.0085
H43 H -0.0050 0.4476 0.0491
H44 H -0.0323 0.3680 0.0565
C58? C 0.1823(18) 0.5039(10) 0.4517(5)
H45? H 0.2302 0.5018 0.4331
H46? H 0.1669 0.4562 0.4610
H47? H 0.1906 0.5322 0.4805
C59? C 0.1509(19) 0.6167(12) 0.4101(8)
H48? H 0.1625 0.6395 0.4408
H49? H 0.1132 0.6450 0.3924
H50? H 0.1985 0.6126 0.3912
C60? C 0.0447(17) 0.5447(18) 0.4489(9)
H51? H 0.0495 0.5846 0.4709
H52? H 0.0373 0.5015 0.4675
H53? H 0.0002 0.5520 0.4278
C61? C 0.0328(18) 0.3180(14) 0.0545(6)
H54? H 0.0237 0.3174 0.0199
H55? H -0.0165 0.3232 0.0714
H56? H 0.0575 0.2739 0.0642
C62? C 0.061(2) 0.4478(14) 0.0406(6)
H57? H 0.0699 0.4417 0.0061
H58? H 0.0909 0.4881 0.0522
H59? H 0.0059 0.4560 0.0464
C63? C 0.1705(13) 0.363(2) 0.0481(7)
H60? H 0.1919 0.3237 0.0662
H61? H 0.2040 0.4044 0.0521
H62? H 0.1676 0.3508 0.0141
loop_
_geom_bond_atom_site_label_1
_geom_bond_atom_site_label_2
_geom_bond_site_symmetry_1
_geom_bond_site_symmetry_2
Cl1 C1 1_555 1_555
Cl2 C1 1_555 1_555
C1 H1 1_555 1_555
H2 C1 1_555 1_555
N1 C2 1_555 1_555
N2 C3 1_555 1_555
C2 C3 1_555 1_555
C3 C4 1_555 1_555
C4 C5 1_555 1_555
C5 C6 1_555 1_555
C6 C2 1_555 1_555
C7 C6 1_555 1_555
H3 C7 1_555 1_555
C8 C7 1_555 1_555
H4 C8 1_555 1_555
C9 C8 1_555 1_555
H5 C9 1_555 1_555
C10 C5 1_555 1_555
C11 C10 1_555 1_555
H6 C11 1_555 1_555
C12 C11 1_555 1_555
H7 C12 1_555 1_555
C13 C4 1_555 1_555
H8 C13 1_555 1_555
C14 N1 1_555 1_555
C15 C14 1_555 1_555
H9 C15 1_555 1_555
C16 C15 1_555 1_555
C17 C16 1_555 1_555
C18 C17 1_555 1_555
C19 C18 1_555 1_555
C20 C19 1_555 1_555
H10 C20 1_555 1_555
C21 C20 1_555 1_555
C22 C21 1_555 1_555
H11 C22 1_555 1_555
C23 C22 1_555 1_555
C24 C23 1_555 1_555
H12 C24 1_555 1_555
C25 C24 1_555 1_555
H13 C25 1_555 1_555
C26 C25 1_555 1_555
C27 C26 1_555 1_555
H14 C27 1_555 1_555
C28 C27 1_555 1_555
C29 C28 1_555 1_555
H15 C29 1_555 1_555
C30 C29 1_555 1_555
C31 C18 1_555 1_555
C32 C31 1_555 1_555
C33 C16 1_555 1_555
C34 C33 1_555 1_555
H16 C34 1_555 1_555
C35 N2 1_555 1_555
C36 C19 1_555 1_555
C37 C26 1_555 1_555
C38 C17 1_555 1_555
C39 C38 1_555 1_555
H17 C39 1_555 1_555
C40 C39 1_555 1_555
H18 C40 1_555 1_555
C41 C40 1_555 1_555
H19 C41 1_555 1_555
C42 C41 1_555 1_555
H20 C42 1_555 1_555
C43 C38 1_555 1_555
H21 C43 1_555 1_555
C44 C32 1_555 1_555
C45 C44 1_555 1_555
H22 C45 1_555 1_555
C46 C45 1_555 1_555
H23 C46 1_555 1_555
C47 C46 1_555 1_555
H24 C47 1_555 1_555
C48 C47 1_555 1_555
H25 C48 1_555 1_555
C49 C44 1_555 1_555
H26 C49 1_555 1_555
C50 C21 1_555 1_555
C51 C50 1_555 1_555
H27 C51 1_555 1_555
H28 C51 1_555 1_555
H29 C51 1_555 1_555
C52 C50 1_555 1_555
H30 C52 1_555 1_555
H31 C52 1_555 1_555
H32 C52 1_555 1_555
C53 C50 1_555 1_555
H33 C53 1_555 1_555
H34 C53 1_555 1_555
H35 C53 1_555 1_555
C54 C28 1_555 1_555
C55 C54 1_555 1_555
H36 C55 1_555 1_555
H37 C55 1_555 1_555
H38 C55 1_555 1_555
C56 C54 1_555 1_555
H39 C56 1_555 1_555
H40 C56 1_555 1_555
H41 C56 1_555 1_555
C57 C54 1_555 1_555
H42 C57 1_555 1_555
H43 C57 1_555 1_555
H44 C57 1_555 1_555
C9 C10 1_555 1_555
C12 C13 1_555 1_555
C14 C35 1_555 1_555
C23 C36 1_555 1_555
C30 C31 1_555 1_555
C30 C37 1_555 1_555
C32 C33 1_555 1_555
C34 C35 1_555 1_555
C36 C37 1_555 1_555
C42 C43 1_555 1_555
C48 C49 1_555 1_555

#END
