
#######################################################################
#
#                 Cambridge Crystallographic Data Centre
#                                CCDC 
#
#######################################################################
#
# If this CIF has been generated from an entry in the Cambridge 
# Structural Database, then it will include bibliographic, chemical, 
# crystal, experimental, refinement or atomic coordinate data resulting 
# from the CCDC's data processing and validation procedures.
#
#######################################################################

data_HICGUX
_chemical_formula_moiety         'C28 H23 Br1 Cl1 F1 N2 O1'
_chemical_name_systematic        
7-((4-Bromophenyl)amino)-1-(4-chlorophenyl)-2-(4-fluorophenyl)-6,6-dimethyl-1,5,6,7-tetrahydro-4H-indol-4-one
_symmetry_cell_setting           orthorhombic
_symmetry_space_group_name_H-M   'P b c a'
_symmetry_Int_Tables_number      61
_space_group_name_Hall           '-P 2ac 2ab'
loop_
_symmetry_equiv_pos_site_id
_symmetry_equiv_pos_as_xyz
1 x,y,z
2 1/2-x,-y,1/2+z
3 -x,1/2+y,1/2-z
4 1/2+x,1/2-y,-z
5 -x,-y,-z
6 1/2+x,y,1/2-z
7 x,1/2-y,1/2+z
8 1/2-x,1/2+y,z
_cell_length_a                   17.7159(18)
_cell_length_b                   9.6703(9)
_cell_length_c                   29.114(3)
_cell_angle_alpha                90
_cell_angle_beta                 90
_cell_angle_gamma                90
_cell_volume                     4987.75
_exptl_crystal_colour            yellow
_exptl_crystal_description       block
_cell_formula_units_Z            8
loop_
_atom_site_label
_atom_site_type_symbol
_atom_site_fract_x
_atom_site_fract_y
_atom_site_fract_z
Br1 Br 1.23522(4) -0.10935(8) 0.77350(2)
Cl1 Cl 0.94787(11) -0.01195(19) 0.78834(4)
F1 F 0.56446(15) 0.0265(3) 0.62519(10)
N1 N 0.92054(18) 0.1360(3) 0.59203(11)
N2 N 1.09394(19) 0.0553(4) 0.59230(12)
H1 H 1.0937 -0.0060 0.5709
O1 O 0.99591(18) 0.1981(4) 0.44350(11)
C1 C 0.8579(2) 0.1178(4) 0.56376(14)
C2 C 0.8813(2) 0.1426(4) 0.51956(14)
H2 H 0.8511 0.1389 0.4935
C3 C 0.9594(2) 0.1748(4) 0.52053(14)
C4 C 1.0127(2) 0.2015(5) 0.48397(15)
C5 C 1.0932(2) 0.2241(5) 0.49939(15)
H3 H 1.1171 0.2873 0.4779
H4 H 1.1197 0.1366 0.4972
C6 C 1.1046(2) 0.2814(5) 0.54810(14)
C7 C 1.0603(2) 0.1908(5) 0.58299(15)
H5 H 1.0573 0.2415 0.6121
C8 C 0.9817(2) 0.1701(4) 0.56557(14)
C9 C 0.9263(2) 0.0993(5) 0.64011(14)
C10 C 0.9311(2) -0.0367(5) 0.65254(14)
H6 H 0.9301 -0.1052 0.6301
C11 C 0.9375(3) -0.0721(6) 0.69784(18)
H7 H 0.9398 -0.1645 0.7065
C12 C 0.9405(3) 0.0305(6) 0.73029(15)
C13 C 0.9378(3) 0.1670(6) 0.71840(16)
H8 H 0.9410 0.2354 0.7407
C14 C 0.9301(2) 0.2018(5) 0.67242(15)
H9 H 0.9276 0.2941 0.6636
C15 C 0.7821(2) 0.0900(4) 0.58138(14)
C16 C 0.7534(3) 0.1581(5) 0.61934(15)
H10 H 0.7840 0.2198 0.6353
C17 C 0.6812(3) 0.1365(5) 0.63387(16)
H11 H 0.6628 0.1830 0.6595
C18 C 0.6365(3) 0.0468(5) 0.61070(17)
C19 C 0.6615(2) -0.0240(5) 0.57372(17)
H12 H 0.6301 -0.0860 0.5585
C20 C 0.7347(3) -0.0025(5) 0.55894(15)
H13 H 0.7525 -0.0507 0.5335
C21 C 1.0767(3) 0.4306(5) 0.55112(16)
H14 H 1.1076 0.4885 0.5321
H15 H 1.0797 0.4617 0.5824
H16 H 1.0253 0.4352 0.5408
C22 C 1.1883(3) 0.2788(6) 0.55949(18)
H17 H 1.2066 0.1856 0.5577
H18 H 1.1959 0.3136 0.5900
H19 H 1.2152 0.3356 0.5380
C23 C 1.1263(2) 0.0220(5) 0.63459(15)
C24 C 1.1470(3) 0.1177(5) 0.66753(16)
H20 H 1.1392 0.2113 0.6620
C25 C 1.1791(3) 0.0765(6) 0.70841(17)
H21 H 1.1931 0.1422 0.7301
C26 C 1.1903(3) -0.0595(6) 0.71694(15)
C27 C 1.1704(3) -0.1584(5) 0.68575(16)
H22 H 1.1788 -0.2515 0.6919
C28 C 1.1375(2) -0.1177(5) 0.64503(15)
H23 H 1.1225 -0.1847 0.6240
loop_
_geom_bond_atom_site_label_1
_geom_bond_atom_site_label_2
_geom_bond_site_symmetry_1
_geom_bond_site_symmetry_2
Br1 C26 1_555 1_555
Cl1 C12 1_555 1_555
F1 C18 1_555 1_555
N1 C1 1_555 1_555
N2 H1 1_555 1_555
O1 C4 1_555 1_555
C1 C2 1_555 1_555
C2 H2 1_555 1_555
C3 C2 1_555 1_555
C4 C3 1_555 1_555
C5 C4 1_555 1_555
H3 C5 1_555 1_555
H4 C5 1_555 1_555
C6 C5 1_555 1_555
C7 N2 1_555 1_555
H5 C7 1_555 1_555
C8 N1 1_555 1_555
C9 N1 1_555 1_555
C10 C9 1_555 1_555
H6 C10 1_555 1_555
C11 C10 1_555 1_555
H7 C11 1_555 1_555
C12 C11 1_555 1_555
C13 C12 1_555 1_555
H8 C13 1_555 1_555
C14 C9 1_555 1_555
H9 C14 1_555 1_555
C15 C1 1_555 1_555
C16 C15 1_555 1_555
H10 C16 1_555 1_555
C17 C16 1_555 1_555
H11 C17 1_555 1_555
C18 C17 1_555 1_555
C19 C18 1_555 1_555
H12 C19 1_555 1_555
C20 C15 1_555 1_555
H13 C20 1_555 1_555
C21 C6 1_555 1_555
H14 C21 1_555 1_555
H15 C21 1_555 1_555
H16 C21 1_555 1_555
C22 C6 1_555 1_555
H17 C22 1_555 1_555
H18 C22 1_555 1_555
H19 C22 1_555 1_555
C23 N2 1_555 1_555
C24 C23 1_555 1_555
H20 C24 1_555 1_555
C25 C24 1_555 1_555
H21 C25 1_555 1_555
C26 C25 1_555 1_555
C27 C26 1_555 1_555
H22 C27 1_555 1_555
C28 C23 1_555 1_555
H23 C28 1_555 1_555
C3 C8 1_555 1_555
C6 C7 1_555 1_555
C7 C8 1_555 1_555
C13 C14 1_555 1_555
C19 C20 1_555 1_555
C27 C28 1_555 1_555

#END
