
#######################################################################
#
#                 Cambridge Crystallographic Data Centre
#                                CCDC 
#
#######################################################################
#
# If this CIF has been generated from an entry in the Cambridge 
# Structural Database, then it will include bibliographic, chemical, 
# crystal, experimental, refinement or atomic coordinate data resulting 
# from the CCDC's data processing and validation procedures.
#
#######################################################################

data_HICGEH
_chemical_formula_moiety         'C21 H22 Br1 N3 O5 S1'
_chemical_name_systematic        
(5-Allyl-7-(4-bromophenyl)-1-((2-nitrophenyl)sulfonyl)-1,5-diazaspiro[2.4]hept-6-yl)methanol
_symmetry_cell_setting           monoclinic
_symmetry_space_group_name_H-M   'P 21'
_symmetry_Int_Tables_number      4
_space_group_name_Hall           'P 2yb'
loop_
_symmetry_equiv_pos_site_id
_symmetry_equiv_pos_as_xyz
1 x,y,z
2 -x,1/2+y,-z
_cell_length_a                   11.1883(6)
_cell_length_b                   6.6495(4)
_cell_length_c                   14.7070(8)
_cell_angle_alpha                90
_cell_angle_beta                 100.1370(10)
_cell_angle_gamma                90
_cell_volume                     1077.07
_exptl_crystal_colour            colorless
_exptl_crystal_description       block
_cell_formula_units_Z            2
loop_
_atom_site_label
_atom_site_type_symbol
_atom_site_fract_x
_atom_site_fract_y
_atom_site_fract_z
O1 O 0.37473(9) 0.5609(2) 0.96677(7)
O2 O 0.19988(11) 0.49464(17) 0.84300(7)
S1 S 0.26053(3) 0.62510(5) 0.91448(2)
C1 C 0.15894(13) 0.6623(2) 0.99334(10)
C2 C 0.03543(13) 0.6315(2) 0.96118(10)
H1 H 0.0070 0.6105 0.8971
C3 C -0.04671(14) 0.6315(2) 1.02237(12)
H2 H -0.1312 0.6172 0.9996
C4 C -0.00483(16) 0.6523(2) 1.11670(12)
H3 H -0.0604 0.6451 1.1586
C5 C 0.11803(16) 0.6834(2) 1.14997(11)
H4 H 0.1470 0.6976 1.2144
C6 C 0.19747(14) 0.6935(2) 1.08777(10)
N1 N 0.32335(13) 0.7532(2) 1.12466(9)
O3 O 0.37737(13) 0.6623(2) 1.19234(9)
O4 O 0.36338(12) 0.8968(2) 1.08800(8)
N2 N 0.26419(11) 0.84850(19) 0.86648(8)
C7 C 0.37005(14) 0.9851(2) 0.89411(10)
H5 H 0.3540 1.1315 0.8947
H6 H 0.4367 0.9379 0.9428
C8 C 0.35380(13) 0.8831(2) 0.80335(9)
C9 C 0.30878(13) 0.9935(2) 0.71184(9)
H7 H 0.3445 1.1317 0.7164
C10 C 0.17337(13) 1.0117(2) 0.67998(9)
C11 C 0.09805(14) 0.8429(2) 0.67701(10)
H8 H 0.1318 0.7172 0.6990
C12 C -0.02557(15) 0.8569(3) 0.64226(11)
H9 H -0.0764 0.7421 0.6404
C13 C -0.07359(13) 1.0425(3) 0.61019(10)
Br1 Br -0.242822(13) 1.06130(3) 0.565454(11)
C14 C -0.00109(16) 1.2102(3) 0.61150(12)
H10 H -0.0349 1.3352 0.5886
C15 C 0.12291(15) 1.1942(3) 0.64697(11)
H11 H 0.1733 1.3096 0.6485
C16 C 0.36837(13) 0.8711(2) 0.64239(9)
H12 H 0.3143 0.7567 0.6176
C17 C 0.39686(14) 0.9986(2) 0.56287(10)
H13 H 0.4273 0.9109 0.5175
H14 H 0.3216 1.0647 0.5312
O5 O 0.48556(11) 1.14774(18) 0.59512(8)
H15 H 0.5263(19) 1.100(4) 0.6430(12)
N3 N 0.48033(11) 0.79285(19) 0.69922(8)
C18 C 0.53622(14) 0.6341(3) 0.65205(10)
H16 H 0.5371 0.6774 0.5878
H17 H 0.4852 0.5119 0.6493
C19 C 0.66315(14) 0.5812(3) 0.69677(11)
H18 H 0.6971 0.4633 0.6751
C20 C 0.73245(16) 0.6820(3) 0.76323(13)
H19 H 0.7027 0.8009 0.7873
H20 H 0.8121 0.6357 0.7871
C21 C 0.44155(14) 0.7199(2) 0.78375(10)
H21 H 0.5114 0.7078 0.8351
H22 H 0.4004 0.5880 0.7735
loop_
_geom_bond_atom_site_label_1
_geom_bond_atom_site_label_2
_geom_bond_site_symmetry_1
_geom_bond_site_symmetry_2
O1 S1 1_555 1_555
O2 S1 1_555 1_555
S1 C1 1_555 1_555
C1 C2 1_555 1_555
C2 H1 1_555 1_555
C3 C2 1_555 1_555
H2 C3 1_555 1_555
C4 C3 1_555 1_555
H3 C4 1_555 1_555
C5 C4 1_555 1_555
H4 C5 1_555 1_555
C6 C1 1_555 1_555
N1 C6 1_555 1_555
O3 N1 1_555 1_555
O4 N1 1_555 1_555
N2 S1 1_555 1_555
C7 N2 1_555 1_555
H5 C7 1_555 1_555
H6 C7 1_555 1_555
C8 N2 1_555 1_555
C9 C8 1_555 1_555
H7 C9 1_555 1_555
C10 C9 1_555 1_555
C11 C10 1_555 1_555
H8 C11 1_555 1_555
C12 C11 1_555 1_555
H9 C12 1_555 1_555
C13 C12 1_555 1_555
Br1 C13 1_555 1_555
C14 C13 1_555 1_555
H10 C14 1_555 1_555
C15 C10 1_555 1_555
H11 C15 1_555 1_555
C16 C9 1_555 1_555
H12 C16 1_555 1_555
C17 C16 1_555 1_555
H13 C17 1_555 1_555
H14 C17 1_555 1_555
O5 C17 1_555 1_555
H15 O5 1_555 1_555
N3 C16 1_555 1_555
C18 N3 1_555 1_555
H16 C18 1_555 1_555
H17 C18 1_555 1_555
C19 C18 1_555 1_555
H18 C19 1_555 1_555
C20 C19 1_555 1_555
H19 C20 1_555 1_555
H20 C20 1_555 1_555
C21 C8 1_555 1_555
H21 C21 1_555 1_555
H22 C21 1_555 1_555
C5 C6 1_555 1_555
C7 C8 1_555 1_555
C14 C15 1_555 1_555
N3 C21 1_555 1_555

#END
