
#######################################################################
#
#                 Cambridge Crystallographic Data Centre
#                                CCDC 
#
#######################################################################
#
# If this CIF has been generated from an entry in the Cambridge 
# Structural Database, then it will include bibliographic, chemical, 
# crystal, experimental, refinement or atomic coordinate data resulting 
# from the CCDC's data processing and validation procedures.
#
#######################################################################

data_HICGAD
_chemical_formula_moiety         'C34 H31 Br1 N2 O2'
_chemical_name_systematic        
1-Allyl-3-(4-bromophenyl)-2-(hydroxymethyl)-4-((trityloxy)methyl)azetidine-2-carbonitrile
_symmetry_cell_setting           orthorhombic
_symmetry_space_group_name_H-M   'P 21 21 21'
_symmetry_Int_Tables_number      19
_space_group_name_Hall           'P 2ac 2ab'
loop_
_symmetry_equiv_pos_site_id
_symmetry_equiv_pos_as_xyz
1 x,y,z
2 1/2-x,-y,1/2+z
3 -x,1/2+y,1/2-z
4 1/2+x,1/2-y,-z
_cell_length_a                   10.0010(2)
_cell_length_b                   12.0602(2)
_cell_length_c                   23.3614(4)
_cell_angle_alpha                90
_cell_angle_beta                 90
_cell_angle_gamma                90
_cell_volume                     2817.71
_exptl_crystal_colour            colorless
_exptl_crystal_description       block
_cell_formula_units_Z            4
loop_
_atom_site_label
_atom_site_type_symbol
_atom_site_fract_x
_atom_site_fract_y
_atom_site_fract_z
Br1 Br 0.520445(15) 1.071731(13) 0.250695(8)
O1 O 0.89420(12) 0.83923(10) 0.51995(5)
H1 H 0.8310(19) 0.8304(18) 0.5407(8)
O2 O 0.88490(11) 0.45917(9) 0.37880(4)
N1 N 0.79455(14) 0.62900(11) 0.46658(6)
N2 N 1.12969(14) 0.68064(12) 0.43733(6)
C1 C 0.87178(16) 0.71714(13) 0.43815(6)
C2 C 0.80273(15) 0.68825(13) 0.37931(6)
H2 H 0.8700 0.6544 0.3529
C3 C 0.72749(15) 0.59497(13) 0.41207(6)
H3 H 0.6299 0.6128 0.4140
C4 C 0.84593(16) 0.83276(13) 0.46287(7)
H4 H 0.8914 0.8891 0.4390
H5 H 0.7488 0.8485 0.4623
C5 C 1.01785(17) 0.69713(13) 0.43734(6)
C6 C 0.74667(16) 0.47860(13) 0.38984(7)
H6 H 0.7137 0.4246 0.4184
H7 H 0.6946 0.4685 0.3542
C7 C 0.91792(16) 0.35126(13) 0.35567(7)
C8 C 0.86383(16) 0.54967(13) 0.50329(7)
H8 H 0.9249 0.5905 0.5291
H9 H 0.9190 0.5001 0.4791
C9 C 0.77058(18) 0.48055(14) 0.53860(7)
H10 H 0.8089 0.4227 0.5608
C10 C 0.64001(19) 0.49330(15) 0.54147(8)
H11 H 0.5976 0.5502 0.5200
H12 H 0.5882 0.4456 0.5650
C11 C 0.72885(16) 0.78010(13) 0.34855(6)
C12 C 0.59582(17) 0.80691(14) 0.35989(8)
H13 H 0.5474 0.7658 0.3877
C13 C 0.53345(17) 0.89322(14) 0.33091(8)
H14 H 0.4426 0.9109 0.3385
C14 C 0.60540(17) 0.95299(13) 0.29095(7)
C15 C 0.73762(16) 0.92926(15) 0.27916(7)
H15 H 0.7861 0.9716 0.2519
C16 C 0.79790(16) 0.84230(14) 0.30803(7)
H16 H 0.8886 0.8247 0.3000
C17 C 0.85299(17) 0.26201(13) 0.39384(7)
C18 C 0.91128(19) 0.23940(15) 0.44675(7)
H17 H 0.9939 0.2732 0.4566
C19 C 0.8496(2) 0.16776(15) 0.48518(8)
H18 H 0.8903 0.1529 0.5211
C20 C 0.7288(2) 0.11791(15) 0.47133(8)
H19 H 0.6872 0.0683 0.4974
C21 C 0.66953(19) 0.14103(15) 0.41927(8)
H20 H 0.5864 0.1077 0.4097
C22 C 0.73088(18) 0.21283(14) 0.38067(7)
H21 H 0.6890 0.2284 0.3451
C23 C 0.87770(15) 0.34552(13) 0.29213(7)
C24 C 0.86295(16) 0.24467(13) 0.26351(6)
H22 H 0.8718 0.1773 0.2842
C25 C 0.83561(17) 0.24110(14) 0.20523(7)
H23 H 0.8251 0.1717 0.1865
C26 C 0.82364(16) 0.33897(14) 0.17434(7)
H24 H 0.8047 0.3369 0.1345
C27 C 0.83945(16) 0.43927(14) 0.20200(7)
H25 H 0.8316 0.5064 0.1810
C28 C 0.86684(15) 0.44280(13) 0.26036(7)
H26 H 0.8783 0.5124 0.2788
C29 C 1.07135(16) 0.34469(13) 0.35745(6)
C30 C 1.13562(18) 0.24588(14) 0.34324(7)
H27 H 1.0841 0.1821 0.3340
C31 C 1.27424(19) 0.23980(15) 0.34241(8)
H28 H 1.3168 0.1720 0.3325
C32 C 1.35080(18) 0.33149(15) 0.35590(7)
H29 H 1.4456 0.3271 0.3549
C33 C 1.28866(17) 0.42944(16) 0.37088(7)
H30 H 1.3408 0.4924 0.3809
C34 C 1.14886(16) 0.43614(14) 0.37141(6)
H31 H 1.1067 0.5040 0.3814
loop_
_geom_bond_atom_site_label_1
_geom_bond_atom_site_label_2
_geom_bond_site_symmetry_1
_geom_bond_site_symmetry_2
Br1 C14 1_555 1_555
O1 H1 1_555 1_555
O2 C6 1_555 1_555
N1 C1 1_555 1_555
N2 C5 1_555 1_555
C1 C2 1_555 1_555
C2 H2 1_555 1_555
C3 N1 1_555 1_555
H3 C3 1_555 1_555
C4 O1 1_555 1_555
H4 C4 1_555 1_555
H5 C4 1_555 1_555
C5 C1 1_555 1_555
C6 C3 1_555 1_555
H6 C6 1_555 1_555
H7 C6 1_555 1_555
C7 O2 1_555 1_555
C8 N1 1_555 1_555
H8 C8 1_555 1_555
H9 C8 1_555 1_555
C9 C8 1_555 1_555
H10 C9 1_555 1_555
C10 C9 1_555 1_555
H11 C10 1_555 1_555
H12 C10 1_555 1_555
C11 C2 1_555 1_555
C12 C11 1_555 1_555
H13 C12 1_555 1_555
C13 C12 1_555 1_555
H14 C13 1_555 1_555
C14 C13 1_555 1_555
C15 C14 1_555 1_555
H15 C15 1_555 1_555
C16 C11 1_555 1_555
H16 C16 1_555 1_555
C17 C7 1_555 1_555
C18 C17 1_555 1_555
H17 C18 1_555 1_555
C19 C18 1_555 1_555
H18 C19 1_555 1_555
C20 C19 1_555 1_555
H19 C20 1_555 1_555
C21 C20 1_555 1_555
H20 C21 1_555 1_555
C22 C17 1_555 1_555
H21 C22 1_555 1_555
C23 C7 1_555 1_555
C24 C23 1_555 1_555
H22 C24 1_555 1_555
C25 C24 1_555 1_555
H23 C25 1_555 1_555
C26 C25 1_555 1_555
H24 C26 1_555 1_555
C27 C26 1_555 1_555
H25 C27 1_555 1_555
C28 C23 1_555 1_555
H26 C28 1_555 1_555
C29 C7 1_555 1_555
C30 C29 1_555 1_555
H27 C30 1_555 1_555
C31 C30 1_555 1_555
H28 C31 1_555 1_555
C32 C31 1_555 1_555
H29 C32 1_555 1_555
C33 C32 1_555 1_555
H30 C33 1_555 1_555
C34 C29 1_555 1_555
H31 C34 1_555 1_555
C1 C4 1_555 1_555
C2 C3 1_555 1_555
C15 C16 1_555 1_555
C21 C22 1_555 1_555
C27 C28 1_555 1_555
C33 C34 1_555 1_555

#END
