
#######################################################################
#
#                 Cambridge Crystallographic Data Centre
#                                CCDC 
#
#######################################################################
#
# If this CIF has been generated from an entry in the Cambridge 
# Structural Database, then it will include bibliographic, chemical, 
# crystal, experimental, refinement or atomic coordinate data resulting 
# from the CCDC's data processing and validation procedures.
#
#######################################################################

data_HICHAE
_chemical_formula_moiety         'C25 H25 Cl1 N2 O3'
_chemical_name_systematic        
'(3-((4-Chlorophenyl)amino)-6,6-dimethyl-2-(4-methylphenyl)-4-oxo-4,5,6,7-tetrahydro-1H-indol-1-yl)acetic acid'
_symmetry_cell_setting           monoclinic
_symmetry_space_group_name_H-M   'P 21/n'
_symmetry_Int_Tables_number      14
_space_group_name_Hall           '-P 2yn'
loop_
_symmetry_equiv_pos_site_id
_symmetry_equiv_pos_as_xyz
1 x,y,z
2 1/2-x,1/2+y,1/2-z
3 -x,-y,-z
4 1/2+x,1/2-y,1/2+z
_cell_length_a                   6.5620(8)
_cell_length_b                   15.7896(16)
_cell_length_c                   22.268(2)
_cell_angle_alpha                90
_cell_angle_beta                 93.4840(10)
_cell_angle_gamma                90
_cell_volume                     2302.95
_exptl_crystal_colour            'pale white'
_exptl_crystal_description       block
_cell_formula_units_Z            4
loop_
_atom_site_label
_atom_site_type_symbol
_atom_site_fract_x
_atom_site_fract_y
_atom_site_fract_z
Cl1 Cl 0.83691(18) 0.09476(9) 0.01416(6)
N1 N 0.3742(4) 0.4729(2) 0.24729(14)
N2 N 0.2551(4) 0.28976(19) 0.15444(13)
H1 H 0.1267 0.2794 0.1489
O1 O 0.5142(4) 0.18845(16) 0.25521(11)
O2 O 0.6863(4) 0.58096(16) 0.23530(11)
H2 H 0.7825 0.6141 0.2347
O3 O 0.5400(4) 0.68771(19) 0.28113(14)
C1 C 0.2831(5) 0.4354(3) 0.19466(17)
C2 C 0.3248(5) 0.3513(2) 0.19703(16)
C3 C 0.4482(5) 0.3356(2) 0.25178(16)
C4 C 0.5360(5) 0.2601(3) 0.27724(17)
C5 C 0.6582(6) 0.2721(3) 0.33778(16)
H3 H 0.5681 0.2598 0.3696
H4 H 0.7663 0.2301 0.3403
C6 C 0.7547(6) 0.3587(3) 0.35058(17)
C7 C 0.5891(5) 0.4266(3) 0.34056(16)
H5 H 0.4958 0.4241 0.3727
H6 H 0.6516 0.4823 0.3412
C8 C 0.4730(5) 0.4125(3) 0.28081(17)
C9 C 0.5352(6) 0.6169(3) 0.26207(18)
C10 C 0.3497(5) 0.5610(2) 0.26605(16)
H7 H 0.3105 0.5613 0.3073
H8 H 0.2381 0.5858 0.2414
C11 C 0.1640(6) 0.4864(3) 0.14908(17)
C12 C 0.2456(6) 0.5543(3) 0.11963(18)
H9 H 0.3796 0.5706 0.1296
C13 C 0.1312(7) 0.5992(3) 0.07515(19)
H10 H 0.1905 0.6444 0.0559
C14 C -0.0696(8) 0.5772(3) 0.05936(19)
C15 C -0.1486(6) 0.5084(3) 0.0880(2)
H11 H -0.2815 0.4914 0.0772
C16 C -0.0374(6) 0.4637(3) 0.13245(18)
H12 H -0.0972 0.4182 0.1513
C17 C -0.1960(7) 0.6262(3) 0.01103(17)
H13 H -0.1337 0.6803 0.0049
H14 H -0.3317 0.6344 0.0238
H15 H -0.2018 0.5948 -0.0259
C18 C 0.3956(6) 0.2457(2) 0.12126(16)
C19 C 0.5848(6) 0.2775(3) 0.11051(17)
H16 H 0.6226 0.3304 0.1259
C20 C 0.7206(6) 0.2328(3) 0.07735(19)
H17 H 0.8480 0.2555 0.0705
C21 C 0.6649(7) 0.1539(3) 0.05443(17)
C22 C 0.4748(7) 0.1208(3) 0.06358(17)
H18 H 0.4370 0.0682 0.0478
C23 C 0.3409(6) 0.1667(3) 0.09648(16)
H19 H 0.2121 0.1447 0.1023
C24 C 0.9269(6) 0.3744(3) 0.30778(18)
H20 H 0.8723 0.3713 0.2669
H21 H 1.0311 0.3323 0.3145
H22 H 0.9844 0.4296 0.3153
C25 C 0.8416(6) 0.3619(3) 0.41573(16)
H23 H 0.9473 0.3201 0.4217
H24 H 0.7349 0.3504 0.4422
H25 H 0.8973 0.4171 0.4242
loop_
_geom_bond_atom_site_label_1
_geom_bond_atom_site_label_2
_geom_bond_site_symmetry_1
_geom_bond_site_symmetry_2
Cl1 C21 1_555 1_555
N1 C1 1_555 1_555
N2 H1 1_555 1_555
O1 C4 1_555 1_555
O2 H2 1_555 1_555
O3 C9 1_555 1_555
C1 C2 1_555 1_555
C2 N2 1_555 1_555
C3 C2 1_555 1_555
C4 C3 1_555 1_555
C5 C4 1_555 1_555
H3 C5 1_555 1_555
H4 C5 1_555 1_555
C6 C5 1_555 1_555
C7 C6 1_555 1_555
H5 C7 1_555 1_555
H6 C7 1_555 1_555
C8 N1 1_555 1_555
C9 O2 1_555 1_555
C10 N1 1_555 1_555
H7 C10 1_555 1_555
H8 C10 1_555 1_555
C11 C1 1_555 1_555
C12 C11 1_555 1_555
H9 C12 1_555 1_555
C13 C12 1_555 1_555
H10 C13 1_555 1_555
C14 C13 1_555 1_555
C15 C14 1_555 1_555
H11 C15 1_555 1_555
C16 C11 1_555 1_555
H12 C16 1_555 1_555
C17 C14 1_555 1_555
H13 C17 1_555 1_555
H14 C17 1_555 1_555
H15 C17 1_555 1_555
C18 N2 1_555 1_555
C19 C18 1_555 1_555
H16 C19 1_555 1_555
C20 C19 1_555 1_555
H17 C20 1_555 1_555
C21 C20 1_555 1_555
C22 C21 1_555 1_555
H18 C22 1_555 1_555
C23 C18 1_555 1_555
H19 C23 1_555 1_555
C24 C6 1_555 1_555
H20 C24 1_555 1_555
H21 C24 1_555 1_555
H22 C24 1_555 1_555
C25 C6 1_555 1_555
H23 C25 1_555 1_555
H24 C25 1_555 1_555
H25 C25 1_555 1_555
C3 C8 1_555 1_555
C7 C8 1_555 1_555
C9 C10 1_555 1_555
C15 C16 1_555 1_555
C22 C23 1_555 1_555

#END
