
#######################################################################
#
#                 Cambridge Crystallographic Data Centre
#                                CCDC 
#
#######################################################################
#
# If this CIF has been generated from an entry in the Cambridge 
# Structural Database, then it will include bibliographic, chemical, 
# crystal, experimental, refinement or atomic coordinate data resulting 
# from the CCDC's data processing and validation procedures.
#
#######################################################################

data_HICJUY
_chemical_name_common            'Deltakephalin hexahydrate'
_chemical_formula_moiety         'C34 H48 N6 O10,6(H2 O1)'
_chemical_name_systematic        
'Tyrosinyl-D-threonyl-glycyl-phenylalanyl-leucyl-threonine hexahydrate'
_chemical_properties_biological  'potent delta-selective agonist activity'
_symmetry_cell_setting           monoclinic
_symmetry_space_group_name_H-M   'C 2'
_symmetry_Int_Tables_number      5
_space_group_name_Hall           'C 2y'
loop_
_symmetry_equiv_pos_site_id
_symmetry_equiv_pos_as_xyz
1 x,y,z
2 1/2+x,1/2+y,z
3 -x,y,-z
4 1/2-x,1/2+y,-z
_cell_length_a                   27.389(5)
_cell_length_b                   9.205(2)
_cell_length_c                   16.786(3)
_cell_angle_alpha                90
_cell_angle_beta                 98.87(10)
_cell_angle_gamma                90
_cell_volume                     4181.4
_exptl_crystal_colour            colorless
_cell_formula_units_Z            4
loop_
_atom_site_label
_atom_site_type_symbol
_atom_site_fract_x
_atom_site_fract_y
_atom_site_fract_z
N1 N 0.81972 0.64592 0.41978
H1 H 0.82505 0.54656 0.40439
H2 H 0.83662 0.66485 0.45866
H3 H 0.83032 0.70544 0.37135
C1 C 0.76787 0.68765 0.42562
H4 H 0.76564 0.79297 0.43279
C2 C 0.75227 0.60989 0.49677
O1 O 0.76260 0.48060 0.50921
C3 C 0.73500 0.64104 0.34686
H5 H 0.74263 0.70247 0.30347
H6 H 0.74349 0.54211 0.33453
C4 C 0.68027 0.64822 0.34828
C5 C 0.65364 0.77607 0.33081
H7 H 0.66975 0.85999 0.31821
C6 C 0.60295 0.77862 0.33217
H8 H 0.58525 0.86381 0.31921
C7 C 0.57897 0.65682 0.35240
C8 C 0.60512 0.52914 0.36920
H9 H 0.58891 0.44494 0.38108
C9 C 0.65535 0.52732 0.36823
H10 H 0.67286 0.44188 0.38146
O2 O 0.52874 0.66579 0.35625
H11 H 0.52189 0.58306 0.38002
N2 N 0.72678 0.68724 0.54259
H12 H 0.72758 0.77939 0.53884
C10 C 0.70724 0.62410 0.61008
H13 H 0.69777 0.52343 0.59639
C11 C 0.74705 0.62257 0.68539
O3 O 0.78628 0.68702 0.68815
C12 C 0.66121 0.70579 0.62740
H14 H 0.64774 0.65358 0.67002
C13 C 0.62130 0.71489 0.55461
H15 H 0.59341 0.76676 0.56860
H16 H 0.61128 0.61865 0.53710
H17 H 0.63383 0.76505 0.51187
O4 O 0.67694 0.84670 0.65770
H18 H 0.65167 0.89799 0.66973
N3 N 0.73446 0.55087 0.74809
H19 H 0.71051 0.50725 0.74546
C14 C 0.76583 0.55079 0.82664
H20 H 0.80006 0.54632 0.81825
H21 H 0.75903 0.46335 0.85526
C15 C 0.75970 0.67963 0.87919
O5 O 0.78540 0.68729 0.94681
N4 N 0.72654 0.78124 0.85121
H22 H 0.71266 0.77176 0.80416
C16 C 0.71662 0.91283 0.89229
H23 H 0.73096 0.90476 0.94932
C17 C 0.66021 0.93266 0.88552
O6 O 0.63135 0.86321 0.83496
C18 C 0.73819 1.04664 0.85612
H24 H 0.72886 1.04470 0.79799
H25 H 0.72404 1.13341 0.87611
C19 C 0.79432 1.05466 0.87641
C20 C 0.81504 1.13545 0.94349
H26 H 0.79461 1.18477 0.97376
C21 C 0.86573 1.14259 0.96520
H27 H 0.87925 1.19481 1.01073
C22 C 0.89604 1.07336 0.92014
H28 H 0.93016 1.07909 0.93459
C23 C 0.87592 0.99494 0.85316
H29 H 0.89645 0.94831 0.82199
C24 C 0.82490 0.98559 0.83222
H30 H 0.81151 0.93136 0.78739
N5 N 0.64464 1.03129 0.93204
H31 H 0.65864 1.04943 0.96488
C25 C 0.59237 1.06471 0.92913
H32 H 0.57432 0.97241 0.92461
C26 C 0.57126 1.15797 0.85646
O7 O 0.52772 1.14101 0.82550
C27 C 0.58429 1.13603 1.00833
H33 H 0.55067 1.17222 1.00248
H34 H 0.60632 1.21871 1.01859
C28 C 0.59313 1.03385 1.08138
H35 H 0.62450 0.98307 1.08055
C29 C 0.59738 1.12050 1.15911
H36 H 0.62283 1.19242 1.15990
H37 H 0.60554 1.05633 1.20429
H38 H 0.56645 1.16752 1.16230
C30 C 0.55295 0.92102 1.08114
H39 H 0.54993 0.86564 1.03216
H40 H 0.52214 0.96849 1.08461
H41 H 0.56127 0.85733 1.12649
N6 N 0.60080 1.25472 0.82988
H42 H 0.62649 1.25868 0.84781
C31 C 0.58533 1.34861 0.76027
H43 H 0.55313 1.31340 0.73371
C32 C 0.62089 1.33910 0.69894
O8 O 0.66417 1.29792 0.72103
C33 C 0.57874 1.50600 0.78331
H44 H 0.56775 1.56107 0.73382
C34 C 0.54119 1.52858 0.83997
H45 H 0.53895 1.63019 0.85176
H46 H 0.55140 1.47602 0.88911
H47 H 0.50948 1.49379 0.81485
O9 O 0.62673 1.55947 0.81835
H48 H 0.62701 1.66441 0.82288
O10 O 0.60443 1.37626 0.62813
O11 O 0.80708 0.87396 1.07721
H49 H 0.81899 0.95461 1.09658
H50 H 0.80707 0.87564 1.02601
O12 O 0.99206 0.91705 0.41473
H51 H 0.96146 0.89434 0.40686
H52 H 0.99643 0.92408 0.46611
O13 O 0.59512 0.99565 0.68006
H53 H 0.56930 0.97679 0.64657
H54 H 0.59685 0.99576 0.73123
O14 O 0.50271 0.93143 0.58442
H55 H 0.50441 0.92961 0.53403
H56 H 0.49491 0.84412 0.59426
O15 O 0.86311 0.66578 0.58491
H57 H 0.84576 0.65169 0.62209
H58 H 0.89358 0.65345 0.60309
O16 O 0.96737 0.67096 0.66056
H59 H 0.98113 0.65631 0.70892
H60 H 0.97888 0.74711 0.64155
H61? H 1.00473 0.83395 0.41011
H62? H 0.98642 0.56297 0.62676
loop_
_geom_bond_atom_site_label_1
_geom_bond_atom_site_label_2
_geom_bond_site_symmetry_1
_geom_bond_site_symmetry_2
N1 H1 1_555 1_555
H2 N1 1_555 1_555
H3 N1 1_555 1_555
C1 N1 1_555 1_555
H4 C1 1_555 1_555
C2 C1 1_555 1_555
O1 C2 1_555 1_555
C3 C1 1_555 1_555
H5 C3 1_555 1_555
H6 C3 1_555 1_555
C4 C3 1_555 1_555
C5 C4 1_555 1_555
H7 C5 1_555 1_555
C6 C5 1_555 1_555
H8 C6 1_555 1_555
C7 C6 1_555 1_555
C8 C7 1_555 1_555
H9 C8 1_555 1_555
C9 C4 1_555 1_555
H10 C9 1_555 1_555
O2 C7 1_555 1_555
H11 O2 1_555 1_555
N2 C2 1_555 1_555
H12 N2 1_555 1_555
C10 N2 1_555 1_555
H13 C10 1_555 1_555
C11 C10 1_555 1_555
O3 C11 1_555 1_555
C12 C10 1_555 1_555
H14 C12 1_555 1_555
C13 C12 1_555 1_555
H15 C13 1_555 1_555
H16 C13 1_555 1_555
H17 C13 1_555 1_555
O4 C12 1_555 1_555
H18 O4 1_555 1_555
N3 C11 1_555 1_555
H19 N3 1_555 1_555
C14 N3 1_555 1_555
H20 C14 1_555 1_555
H21 C14 1_555 1_555
C15 C14 1_555 1_555
O5 C15 1_555 1_555
N4 C15 1_555 1_555
H22 N4 1_555 1_555
C16 N4 1_555 1_555
H23 C16 1_555 1_555
C17 C16 1_555 1_555
O6 C17 1_555 1_555
C18 C16 1_555 1_555
H24 C18 1_555 1_555
H25 C18 1_555 1_555
C19 C18 1_555 1_555
C20 C19 1_555 1_555
H26 C20 1_555 1_555
C21 C20 1_555 1_555
H27 C21 1_555 1_555
C22 C21 1_555 1_555
H28 C22 1_555 1_555
C23 C22 1_555 1_555
H29 C23 1_555 1_555
C24 C19 1_555 1_555
H30 C24 1_555 1_555
N5 C17 1_555 1_555
H31 N5 1_555 1_555
C25 N5 1_555 1_555
H32 C25 1_555 1_555
C26 C25 1_555 1_555
O7 C26 1_555 1_555
C27 C25 1_555 1_555
H33 C27 1_555 1_555
H34 C27 1_555 1_555
C28 C27 1_555 1_555
H35 C28 1_555 1_555
C29 C28 1_555 1_555
H36 C29 1_555 1_555
H37 C29 1_555 1_555
H38 C29 1_555 1_555
C30 C28 1_555 1_555
H39 C30 1_555 1_555
H40 C30 1_555 1_555
H41 C30 1_555 1_555
N6 C26 1_555 1_555
H42 N6 1_555 1_555
C31 N6 1_555 1_555
H43 C31 1_555 1_555
C32 C31 1_555 1_555
O8 C32 1_555 1_555
C33 C31 1_555 1_555
H44 C33 1_555 1_555
C34 C33 1_555 1_555
H45 C34 1_555 1_555
H46 C34 1_555 1_555
H47 C34 1_555 1_555
O9 C33 1_555 1_555
H48 O9 1_555 1_555
O10 C32 1_555 1_555
O11 H49 1_555 1_555
H50 O11 1_555 1_555
O12 H51 1_555 1_555
H52 O12 1_555 1_555
O13 H53 1_555 1_555
H54 O13 1_555 1_555
O14 H55 1_555 1_555
H56 O14 1_555 1_555
O15 H57 1_555 1_555
H58 O15 1_555 1_555
O16 H59 1_555 1_555
H60 O16 1_555 1_555
C8 C9 1_555 1_555
C23 C24 1_555 1_555

#END
