
#######################################################################
#
#                 Cambridge Crystallographic Data Centre
#                                CCDC 
#
#######################################################################
#
# If this CIF has been generated from an entry in the Cambridge 
# Structural Database, then it will include bibliographic, chemical, 
# crystal, experimental, refinement or atomic coordinate data resulting 
# from the CCDC's data processing and validation procedures.
#
#######################################################################

data_HICQIT
_chemical_formula_moiety         'C12 H16 N3 O2'
_chemical_name_systematic        
2-(3-Pyridyl)-4,4,5,5-tetramethyl-4,5-dihydro-1H-imidazol-1-oxyl-3-oxide
_symmetry_cell_setting           monoclinic
_symmetry_space_group_name_H-M   'P 21/c'
_symmetry_Int_Tables_number      14
_space_group_name_Hall           '-P 2ybc'
loop_
_symmetry_equiv_pos_site_id
_symmetry_equiv_pos_as_xyz
1 x,y,z
2 -x,1/2+y,1/2-z
3 -x,-y,-z
4 x,1/2-y,1/2+z
_cell_length_a                   6.1729(9)
_cell_length_b                   30.292(4)
_cell_length_c                   13.0640(13)
_cell_angle_alpha                90
_cell_angle_beta                 100.959(11)
_cell_angle_gamma                90
_cell_volume                     2398.28
_exptl_crystal_colour            blue
_chemical_melting_point          112deg.C
_cell_formula_units_Z            8
_exptl_crystal_recrystallization_method dichloromethane
loop_
_atom_site_label
_atom_site_type_symbol
_atom_site_fract_x
_atom_site_fract_y
_atom_site_fract_z
O1 O 0.4905(5) 0.71641(10) 0.11735(24)
O2 O -0.0077(5) 0.81794(10) -0.04964(24)
N1 N 0.3267(6) 0.73313(12) 0.0560(3)
N2 N 0.0887(6) 0.78156(12) -0.0225(3)
N3 N 0.7466(6) 0.84335(14) 0.1841(3)
C1 C 0.6385(9) 0.87791(16) 0.2123(4)
C2 C 0.4134(9) 0.88193(15) 0.1921(4)
C3 C 0.2885(7) 0.84837(15) 0.1395(3)
C4 C 0.3944(7) 0.81214(14) 0.1090(3)
C5 C 0.6217(8) 0.81145(15) 0.1332(3)
C6 C 0.2729(7) 0.77652(14) 0.0499(3)
C7 C 0.0266(7) 0.74029(14) -0.0841(3)
C8 C 0.1492(7) 0.70500(14) -0.0088(3)
C9 C 0.1143(8) 0.74581(16) -0.1840(3)
C10 C -0.2215(8) 0.73558(15) -0.1083(4)
C11 C 0.0146(8) 0.68621(16) 0.0664(4)
C12 C 0.2555(8) 0.66790(15) -0.0587(4)
H1 H 0.721 0.901 0.250
H2 H 0.345 0.908 0.213
H3 H 0.132 0.850 0.126
H4 H 0.697 0.787 0.112
H5 H 0.270 0.749 -0.171
H6 H 0.077 0.721 -0.229
H7 H 0.053 0.771 -0.221
H8 H -0.279 0.732 -0.046
H9 H -0.288 0.761 -0.144
H10 H -0.263 0.711 -0.152
H11 H -0.054 0.709 0.098
H12 H -0.100 0.667 0.032
H13 H 0.103 0.670 0.121
H14 H 0.341 0.679 -0.106
H15 H 0.351 0.651 -0.008
H16 H 0.149 0.648 -0.096
O3 O 0.2682(5) 0.58958(10) 0.17685(24)
O4 O 0.7734(5) 0.48667(10) 0.3329(3)
N4 N 0.4319(6) 0.57214(11) 0.2377(3)
N5 N 0.6735(6) 0.52318(12) 0.3120(3)
N6 N 0.0300(6) 0.46189(13) 0.0956(3)
C13 C 0.1364(8) 0.43833(15) 0.0360(4)
C14 C 0.3602(8) 0.44032(15) 0.0406(3)
C15 C 0.4822(7) 0.46969(14) 0.1090(3)
C16 C 0.3735(7) 0.49569(14) 0.1692(3)
C17 C 0.1490(8) 0.49025(15) 0.1607(4)
C18 C 0.4905(7) 0.52936(14) 0.2391(3)
C19 C 0.7299(7) 0.56368(14) 0.3785(3)
C20 C 0.6042(7) 0.59994(14) 0.3063(3)
C21 C 0.6421(8) 0.55585(17) 0.4771(4)
C22 C 0.9786(7) 0.56902(15) 0.4048(4)
C23 C 0.7399(8) 0.62072(14) 0.2335(3)
C24 C 0.4956(7) 0.63549(15) 0.3593(4)
H17 H 0.053 0.419 -0.014
H18 H 0.428 0.422 -0.003
H19 H 0.638 0.472 0.115
H20 H 0.076 0.507 0.205
H21 H 0.486 0.553 0.463
H22 H 0.703 0.530 0.513
H23 H 0.676 0.580 0.524
H24 H 1.034 0.574 0.342
H25 H 1.020 0.594 0.449
H26 H 1.048 0.543 0.437
H27 H 0.810 0.599 0.199
H28 H 0.652 0.638 0.180
H29 H 0.853 0.639 0.269
H30 H 0.411 0.623 0.405
H31 H 0.600 0.654 0.400
H32 H 0.397 0.653 0.311
loop_
_geom_bond_atom_site_label_1
_geom_bond_atom_site_label_2
_geom_bond_site_symmetry_1
_geom_bond_site_symmetry_2
O1 N1 1_555 1_555
O2 N2 1_555 1_555
N1 C6 1_555 1_555
N2 C6 1_555 1_555
N3 C1 1_555 1_555
C1 C2 1_555 1_555
C2 C3 1_555 1_555
C3 C4 1_555 1_555
C4 C5 1_555 1_555
C5 N3 1_555 1_555
C6 C4 1_555 1_555
C7 N2 1_555 1_555
C8 N1 1_555 1_555
C9 C7 1_555 1_555
C10 C7 1_555 1_555
C11 C8 1_555 1_555
C12 C8 1_555 1_555
H1 C1 1_555 1_555
H2 C2 1_555 1_555
H3 C3 1_555 1_555
H4 C5 1_555 1_555
H5 C9 1_555 1_555
H6 C9 1_555 1_555
H7 C9 1_555 1_555
H8 C10 1_555 1_555
H9 C10 1_555 1_555
H10 C10 1_555 1_555
H11 C11 1_555 1_555
H12 C11 1_555 1_555
H13 C11 1_555 1_555
H14 C12 1_555 1_555
H15 C12 1_555 1_555
H16 C12 1_555 1_555
O3 N4 1_555 1_555
O4 N5 1_555 1_555
N4 C18 1_555 1_555
N5 C18 1_555 1_555
N6 C13 1_555 1_555
C13 C14 1_555 1_555
C14 C15 1_555 1_555
C15 C16 1_555 1_555
C16 C17 1_555 1_555
C17 N6 1_555 1_555
C18 C16 1_555 1_555
C19 N5 1_555 1_555
C20 N4 1_555 1_555
C21 C19 1_555 1_555
C22 C19 1_555 1_555
C23 C20 1_555 1_555
C24 C20 1_555 1_555
H17 C13 1_555 1_555
H18 C14 1_555 1_555
H19 C15 1_555 1_555
H20 C17 1_555 1_555
H21 C21 1_555 1_555
H22 C21 1_555 1_555
H23 C21 1_555 1_555
H24 C22 1_555 1_555
H25 C22 1_555 1_555
H26 C22 1_555 1_555
H27 C23 1_555 1_555
H28 C23 1_555 1_555
H29 C23 1_555 1_555
H30 C24 1_555 1_555
H31 C24 1_555 1_555
H32 C24 1_555 1_555
C7 C8 1_555 1_555
C19 C20 1_555 1_555

#END
