
#######################################################################
#
#                 Cambridge Crystallographic Data Centre
#                                CCDC 
#
#######################################################################
#
# If this CIF has been generated from an entry in the Cambridge 
# Structural Database, then it will include bibliographic, chemical, 
# crystal, experimental, refinement or atomic coordinate data resulting 
# from the CCDC's data processing and validation procedures.
#
#######################################################################

data_HICQEP
_chemical_formula_moiety         'C12 H16 N3 O2'
_chemical_name_systematic        
2-(2-Pyridyl)-4,4,5,5-tetramethyl-4,5-dihydro-1H-imidazol-1-oxyl-3-oxide
_symmetry_cell_setting           monoclinic
_symmetry_space_group_name_H-M   'P 21/c'
_symmetry_Int_Tables_number      14
_space_group_name_Hall           '-P 2ybc'
loop_
_symmetry_equiv_pos_site_id
_symmetry_equiv_pos_as_xyz
1 x,y,z
2 -x,1/2+y,1/2-z
3 -x,-y,-z
4 x,1/2-y,1/2+z
_cell_length_a                   6.190(3)
_cell_length_b                   30.283(9)
_cell_length_c                   13.116(4)
_cell_angle_alpha                90
_cell_angle_beta                 100.74(3)
_cell_angle_gamma                90
_cell_volume                     2415.55
_exptl_crystal_colour            blue
_chemical_melting_point          121deg.C
_cell_formula_units_Z            8
_exptl_crystal_recrystallization_method dichloromethane
loop_
_atom_site_label
_atom_site_type_symbol
_atom_site_fract_x
_atom_site_fract_y
_atom_site_fract_z
O1 O 0.4868(5) 0.21796(9) 0.12155(24)
O2 O -0.0098(5) 0.31935(9) -0.04883(25)
N1 N 0.3224(5) 0.23443(9) 0.06011(24)
N2 N 0.0850(5) 0.28263(9) -0.02016(24)
N3 N 0.2728(5) 0.34391(10) 0.1516(3)
C1 C 0.3827(7) 0.37821(13) 0.1996(4)
C2 C 0.6080(7) 0.38297(13) 0.2123(3)
C3 C 0.7264(6) 0.35144(14) 0.1723(3)
C4 C 0.6168(6) 0.31537(12) 0.1230(3)
C5 C 0.3910(6) 0.31358(11) 0.1127(3)
C6 C 0.2676(5) 0.27739(11) 0.0540(3)
C7 C 0.1489(6) 0.20585(11) -0.0045(3)
C8 C 0.0299(6) 0.24100(12) -0.0815(3)
C9 C 0.0083(7) 0.18748(13) 0.0691(3)
C10 C 0.2572(7) 0.16808(13) -0.0528(4)
C11 C -0.2193(6) 0.23611(14) -0.1111(3)
C12 C 0.1290(7) 0.24696(15) -0.1798(3)
H1 H 0.297(7) 0.4049(14) 0.213(3)
H2 H 0.683(8) 0.4142(16) 0.243(4)
H3 H 0.889(9) 0.3535(17) 0.174(4)
H4 H 0.695(6) 0.2879(12) 0.095(3)
H5 H -0.069(6) 0.2095(12) 0.096(3)
H6 H -0.099(9) 0.1600(17) 0.026(4)
H7 H 0.112(8) 0.1673(15) 0.123(4)
H8 H 0.346(7) 0.1748(15) -0.087(3)
H9 H 0.307(8) 0.1397(17) 0.010(4)
H10 H 0.128(9) 0.1471(18) -0.095(4)
H11 H -0.291(6) 0.2376(13) -0.046(3)
H12 H -0.304(8) 0.2609(17) -0.148(4)
H13 H -0.254(7) 0.2089(14) -0.139(3)
H14 H 0.331(8) 0.2487(16) -0.157(4)
H15 H 0.109(8) 0.2183(17) -0.227(4)
H16 H 0.059(10) 0.2799(19) -0.212(5)
O3 O 0.7265(5) 0.58964(9) 0.33184(25)
O4 O 0.2471(5) 0.48492(9) 0.1642(3)
N4 N 0.5688(5) 0.57192(9) 0.26776(25)
N5 N 0.3384(5) 0.52233(9) 0.18889(25)
N6 N 0.5230(5) 0.47247(10) 0.3904(3)
C13 C 0.6356(7) 0.44322(13) 0.4573(3)
C14 C 0.8594(6) 0.43637(13) 0.4685(3)
C15 C 0.9735(6) 0.45932(13) 0.4058(4)
C16 C 0.8616(6) 0.48993(13) 0.3367(3)
C17 C 0.6385(5) 0.49526(11) 0.3327(3)
C18 C 0.5162(6) 0.52904(11) 0.2638(3)
C19 C 0.3979(5) 0.59928(11) 0.1980(3)
C20 C 0.2814(6) 0.56303(11) 0.1242(3)
C21 C 0.2547(6) 0.61960(13) 0.2675(3)
C22 C 0.5110(7) 0.63593(13) 0.1481(4)
C23 C 0.3795(8) 0.55620(16) 0.0263(3)
C24 C 0.0323(6) 0.56805(14) 0.0948(4)
H17 H 0.519(9) 0.4198(18) 0.502(4)
H18 H 0.942(7) 0.4135(15) 0.507(3)
H19 H 1.132(7) 0.4533(13) 0.409(3)
H20 H 0.938(8) 0.5098(16) 0.293(4)
H21 H 0.155(6) 0.5952(12) 0.298(3)
H22 H 0.350(8) 0.6391(16) 0.314(4)
H23 H 0.150(7) 0.6380(13) 0.220(3)
H24 H 0.625(8) 0.6260(15) 0.105(4)
H25 H 0.388(7) 0.6533(13) 0.103(3)
H26 H 0.569(9) 0.6644(17) 0.206(4)
H27 H 0.568(8) 0.5564(16) 0.048(4)
H28 H 0.321(9) 0.5269(19) -0.007(4)
H29 H 0.364(8) 0.5844(16) -0.023(4)
H30 H -0.041(7) 0.5683(14) 0.170(3)
H31 H -0.006(7) 0.6027(15) 0.056(4)
H32 H -0.020(7) 0.5488(14) 0.061(3)
loop_
_geom_bond_atom_site_label_1
_geom_bond_atom_site_label_2
_geom_bond_site_symmetry_1
_geom_bond_site_symmetry_2
O1 N1 1_555 1_555
O2 N2 1_555 1_555
N1 C6 1_555 1_555
N2 C6 1_555 1_555
N3 C1 1_555 1_555
C1 C2 1_555 1_555
C2 C3 1_555 1_555
C3 C4 1_555 1_555
C4 C5 1_555 1_555
C5 N3 1_555 1_555
C6 C5 1_555 1_555
C7 N1 1_555 1_555
C8 N2 1_555 1_555
C9 C7 1_555 1_555
C10 C7 1_555 1_555
C11 C8 1_555 1_555
C12 C8 1_555 1_555
H1 C1 1_555 1_555
H2 C2 1_555 1_555
H3 C3 1_555 1_555
H4 C4 1_555 1_555
H5 C9 1_555 1_555
H6 C9 1_555 1_555
H7 C9 1_555 1_555
H8 C10 1_555 1_555
H9 C10 1_555 1_555
H10 C10 1_555 1_555
H11 C11 1_555 1_555
H12 C11 1_555 1_555
H13 C11 1_555 1_555
H14 C12 1_555 1_555
H15 C12 1_555 1_555
H16 C12 1_555 1_555
O3 N4 1_555 1_555
O4 N5 1_555 1_555
N4 C18 1_555 1_555
N5 C18 1_555 1_555
N6 C13 1_555 1_555
C13 C14 1_555 1_555
C14 C15 1_555 1_555
C15 C16 1_555 1_555
C16 C17 1_555 1_555
C17 N6 1_555 1_555
C18 C17 1_555 1_555
C19 N4 1_555 1_555
C20 N5 1_555 1_555
C21 C19 1_555 1_555
C22 C19 1_555 1_555
C23 C20 1_555 1_555
C24 C20 1_555 1_555
H17 C13 1_555 1_555
H18 C14 1_555 1_555
H19 C15 1_555 1_555
H20 C16 1_555 1_555
H21 C21 1_555 1_555
H22 C21 1_555 1_555
H23 C21 1_555 1_555
H24 C22 1_555 1_555
H25 C22 1_555 1_555
H26 C22 1_555 1_555
H27 C23 1_555 1_555
H28 C23 1_555 1_555
H29 C23 1_555 1_555
H30 C24 1_555 1_555
H31 C24 1_555 1_555
H32 C24 1_555 1_555
C7 C8 1_555 1_555
C19 C20 1_555 1_555

#END
