
#######################################################################
#
#                 Cambridge Crystallographic Data Centre
#                                CCDC 
#
#######################################################################
#
# If this CIF has been generated from an entry in the Cambridge 
# Structural Database, then it will include bibliographic, chemical, 
# crystal, experimental, refinement or atomic coordinate data resulting 
# from the CCDC's data processing and validation procedures.
#
#######################################################################

data_HICQOZ
_chemical_formula_moiety         'C13 H18 N3 O2'
_chemical_name_systematic        
2-(6-Methyl-2-pyridyl)-4,4,5,5-tetramethyl-4,5-dihydro-1H-imidazol-1-oxyl-3-oxide
_symmetry_cell_setting           monoclinic
_symmetry_space_group_name_H-M   'P 21/c'
_symmetry_Int_Tables_number      14
_space_group_name_Hall           '-P 2ybc'
loop_
_symmetry_equiv_pos_site_id
_symmetry_equiv_pos_as_xyz
1 x,y,z
2 -x,1/2+y,1/2-z
3 -x,-y,-z
4 x,1/2-y,1/2+z
_cell_length_a                   6.3698(7)
_cell_length_b                   26.753(15)
_cell_length_c                   15.610(7)
_cell_angle_alpha                90
_cell_angle_beta                 95.729(18)
_cell_angle_gamma                90
_cell_volume                     2646.83
_exptl_crystal_colour            violet-blue
_chemical_melting_point          90deg.C
_cell_formula_units_Z            8
_exptl_crystal_recrystallization_method dichloromethane
loop_
_atom_site_label
_atom_site_type_symbol
_atom_site_fract_x
_atom_site_fract_y
_atom_site_fract_z
O1 O 0.2241(4) 0.87324(8) 0.95266(15)
O2 O -0.1849(5) 0.80495(9) 1.15023(16)
N1 N 0.1434(4) 0.84150(10) 1.00142(17)
N2 N -0.0534(5) 0.80898(10) 1.09405(17)
N3 N 0.0367(4) 0.93863(10) 1.09299(16)
C1 C 0.0945(6) 1.02529(13) 1.13211(22)
C2 C -0.0516(6) 0.98297(12) 1.10580(19)
C3 C -0.2688(6) 0.98988(13) 1.09635(21)
C4 C -0.3992(6) 0.95065(14) 1.07438(23)
C5 C -0.3109(6) 0.90443(13) 1.06197(22)
C6 C -0.0934(6) 0.90037(12) 1.07143(19)
C7 C 0.0023(5) 0.85146(12) 1.05712(20)
C8 C 0.0772(6) 0.76494(12) 1.06975(21)
C9 C 0.1647(5) 0.78588(11) 0.98807(20)
C10 C 0.2429(7) 0.75607(14) 1.14447(25)
C11 C -0.0638(7) 0.71945(13) 1.05601(24)
C12 C 0.3933(6) 0.77304(13) 0.9790(3)
C13 C 0.0306(7) 0.77412(13) 0.90469(23)
H1 H 0.237 1.014 1.136
H2 H 0.078 1.052 1.091
H3 H 0.069 1.038 1.187
H4 H -0.326 1.022 1.105
H5 H -0.548 0.955 1.068
H6 H -0.396 0.876 1.046
H7 H 0.332 0.729 1.133
H8 H 0.330 0.785 1.154
H9 H 0.180 0.749 1.196
H10 H 0.012 0.691 1.040
H11 H -0.131 0.712 1.106
H12 H -0.173 0.726 1.011
H13 H 0.413 0.738 0.971
H14 H 0.443 0.790 0.931
H15 H 0.482 0.783 1.029
H16 H 0.036 0.739 0.893
H17 H -0.113 0.783 0.909
H18 H 0.080 0.792 0.858
O3 O 0.2242(4) 0.65564(9) 0.91572(15)
O4 O 0.7239(4) 0.53765(10) 1.00761(15)
N4 N 0.3743(5) 0.62366(10) 0.91531(16)
N5 N 0.6122(5) 0.56804(11) 0.95942(17)
N6 N 0.5233(5) 0.61907(10) 1.13145(18)
C14 C 0.6121(7) 0.64491(18) 1.2784(3)
C15 C 0.4562(7) 0.62386(13) 1.20977(22)
C16 C 0.2529(7) 0.61112(14) 1.22635(23)
C17 C 0.1142(6) 0.59340(14) 1.16134(25)
C18 C 0.1794(6) 0.58827(13) 1.08053(21)
C19 C 0.3846(6) 0.60144(12) 1.06927(21)
C20 C 0.4579(5) 0.59773(12) 0.98290(20)
C21 C 0.6154(6) 0.56784(13) 0.86248(20)
C22 C 0.4987(6) 0.61756(12) 0.83896(20)
C23 C 0.4937(7) 0.52200(13) 0.82999(23)
C24 C 0.8406(6) 0.56483(16) 0.84006(23)
C25 C 0.3492(7) 0.61654(14) 0.75756(21)
C26 C 0.6435(7) 0.66297(15) 0.83990(24)
H19 H 0.744 0.652 1.257
H20 H 0.562 0.675 1.301
H21 H 0.637 0.622 1.325
H22 H 0.211 0.615 1.283
H23 H -0.026 0.585 1.171
H24 H 0.087 0.575 1.034
H25 H 0.491 0.519 0.769
H26 H 0.561 0.493 0.854
H27 H 0.353 0.523 0.846
H28 H 0.846 0.565 0.779
H29 H 0.919 0.593 0.864
H30 H 0.906 0.535 0.863
H31 H 0.424 0.613 0.708
H32 H 0.253 0.589 0.758
H33 H 0.271 0.647 0.751
H34 H 0.729 0.662 0.793
H35 H 0.564 0.693 0.836
H36 H 0.735 0.664 0.892
loop_
_geom_bond_atom_site_label_1
_geom_bond_atom_site_label_2
_geom_bond_site_symmetry_1
_geom_bond_site_symmetry_2
O1 N1 1_555 1_555
O2 N2 1_555 1_555
N1 C7 1_555 1_555
N2 C7 1_555 1_555
N3 C2 1_555 1_555
C1 C2 1_555 1_555
C2 C3 1_555 1_555
C3 C4 1_555 1_555
C4 C5 1_555 1_555
C5 C6 1_555 1_555
C6 N3 1_555 1_555
C7 C6 1_555 1_555
C8 N2 1_555 1_555
C9 N1 1_555 1_555
C10 C8 1_555 1_555
C11 C8 1_555 1_555
C12 C9 1_555 1_555
C13 C9 1_555 1_555
H1 C1 1_555 1_555
H2 C1 1_555 1_555
H3 C1 1_555 1_555
H4 C3 1_555 1_555
H5 C4 1_555 1_555
H6 C5 1_555 1_555
H7 C10 1_555 1_555
H8 C10 1_555 1_555
H9 C10 1_555 1_555
H10 C11 1_555 1_555
H11 C11 1_555 1_555
H12 C11 1_555 1_555
H13 C12 1_555 1_555
H14 C12 1_555 1_555
H15 C12 1_555 1_555
H16 C13 1_555 1_555
H17 C13 1_555 1_555
H18 C13 1_555 1_555
O3 N4 1_555 1_555
O4 N5 1_555 1_555
N4 C20 1_555 1_555
N5 C20 1_555 1_555
N6 C15 1_555 1_555
C14 C15 1_555 1_555
C15 C16 1_555 1_555
C16 C17 1_555 1_555
C17 C18 1_555 1_555
C18 C19 1_555 1_555
C19 N6 1_555 1_555
C20 C19 1_555 1_555
C21 N5 1_555 1_555
C22 N4 1_555 1_555
C23 C21 1_555 1_555
C24 C21 1_555 1_555
C25 C22 1_555 1_555
C26 C22 1_555 1_555
H19 C14 1_555 1_555
H20 C14 1_555 1_555
H21 C14 1_555 1_555
H22 C16 1_555 1_555
H23 C17 1_555 1_555
H24 C18 1_555 1_555
H25 C23 1_555 1_555
H26 C23 1_555 1_555
H27 C23 1_555 1_555
H28 C24 1_555 1_555
H29 C24 1_555 1_555
H30 C24 1_555 1_555
H31 C25 1_555 1_555
H32 C25 1_555 1_555
H33 C25 1_555 1_555
H34 C26 1_555 1_555
H35 C26 1_555 1_555
H36 C26 1_555 1_555
C8 C9 1_555 1_555
C21 C22 1_555 1_555

#END
