
#######################################################################
#
#                 Cambridge Crystallographic Data Centre
#                                CCDC 
#
#######################################################################
#
# If this CIF has been generated from an entry in the Cambridge 
# Structural Database, then it will include bibliographic, chemical, 
# crystal, experimental, refinement or atomic coordinate data resulting 
# from the CCDC's data processing and validation procedures.
#
#######################################################################

data_HICVEX
_chemical_formula_moiety         'C27 H23 N1 O3'
_chemical_name_systematic        
'ethyl {4-hydroxy-1-[phenyl(phenylimino)methyl]naphthalen-2-yl}acetate'
_symmetry_cell_setting           monoclinic
_symmetry_space_group_name_H-M   'P 21/c'
_symmetry_Int_Tables_number      14
_space_group_name_Hall           '-P 2ybc'
loop_
_symmetry_equiv_pos_site_id
_symmetry_equiv_pos_as_xyz
1 x,y,z
2 -x,1/2+y,1/2-z
3 -x,-y,-z
4 x,1/2-y,1/2+z
_cell_length_a                   14.9117(12)
_cell_length_b                   9.0532(8)
_cell_length_c                   16.0374(14)
_cell_angle_alpha                90
_cell_angle_beta                 99.025(2)
_cell_angle_gamma                90
_cell_volume                     2138.22
_exptl_crystal_colour            yellow
_exptl_crystal_description       block
_cell_formula_units_Z            4
loop_
_atom_site_label
_atom_site_type_symbol
_atom_site_fract_x
_atom_site_fract_y
_atom_site_fract_z
N1 N 0.1069(4) 1.0456(7) 0.1256(4)
O1 O 0.3288(4) 0.6975(6) 0.0387(4)
O2 O 0.3936(4) 0.8417(6) -0.0434(4)
O3 O 0.5358(3) 1.1941(7) 0.1910(3)
H1 H 0.5590 1.1732 0.1495
C1 C 0.3384(5) 0.8203(9) 0.0030(5)
C2 C 0.2780(5) 0.9391(8) 0.0262(4)
H2 H 0.2207 0.8961 0.0350
H3 H 0.2657 1.0088 -0.0201
C3 C 0.3198(4) 1.0206(7) 0.1054(4)
C4 C 0.4099(4) 1.0691(7) 0.1144(4)
H4 H 0.4436 1.0484 0.0716
C5 C 0.4483(4) 1.1420(8) 0.1803(4)
C6 C 0.4010(5) 1.1752(8) 0.2493(4)
C7 C 0.4397(6) 1.2577(9) 0.3186(5)
H5 H 0.4985 1.2936 0.3211
C8 C 0.3930(6) 1.2866(10) 0.3824(5)
H6 H 0.4191 1.3435 0.4281
C9 C 0.3046(5) 1.2302(9) 0.3793(5)
H7 H 0.2725 1.2470 0.4237
C10 C 0.2669(5) 1.1516(8) 0.3116(5)
H8 H 0.2080 1.1162 0.3098
C11 C 0.3125(4) 1.1210(7) 0.2439(4)
C12 C 0.2722(4) 1.0453(8) 0.1707(4)
C13 C 0.1778(5) 0.9872(8) 0.1675(4)
C14 C 0.1675(5) 0.8513(9) 0.2176(5)
C15 C 0.2381(5) 0.7521(9) 0.2371(5)
H9 H 0.2940 0.7717 0.2205
C16 C 0.2265(6) 0.6275(10) 0.2798(6)
H10 H 0.2742 0.5606 0.2914
C17 C 0.1454(8) 0.5977(12) 0.3063(6)
H11 H 0.1371 0.5098 0.3341
C18 C 0.0785(8) 0.6967(14) 0.2918(6)
H12 H 0.0249 0.6800 0.3130
C19 C 0.0870(5) 0.8216(11) 0.2465(6)
H13 H 0.0385 0.8869 0.2350
C20 C 0.1115(4) 1.1758(9) 0.0784(5)
C21 C 0.1394(6) 1.3070(10) 0.1144(6)
H14 H 0.1617 1.3098 0.1719
C22 C 0.1359(6) 1.4346(11) 0.0692(7)
H15 H 0.1552 1.5232 0.0953
C23 C 0.1036(7) 1.4304(12) -0.0153(8)
H16 H 0.0998 1.5165 -0.0473
C24 C 0.0769(6) 1.2993(13) -0.0520(6)
H17 H 0.0581 1.2949 -0.1101
C25 C 0.0773(5) 1.1745(10) -0.0051(6)
H18 H 0.0539 1.0874 -0.0304
C26 C 0.3863(8) 0.5766(11) 0.0205(8)
H19 H 0.3611 0.5304 -0.0326
H20 H 0.4465 0.6131 0.0158
C27 C 0.3917(8) 0.4717(13) 0.0873(9)
H21 H 0.4117 0.5202 0.1402
H22 H 0.4340 0.3954 0.0789
H23 H 0.3329 0.4290 0.0880
loop_
_geom_bond_atom_site_label_1
_geom_bond_atom_site_label_2
_geom_bond_site_symmetry_1
_geom_bond_site_symmetry_2
N1 C13 1_555 1_555
O1 C1 1_555 1_555
O2 C1 1_555 1_555
O3 H1 1_555 1_555
C1 C2 1_555 1_555
C2 H2 1_555 1_555
H3 C2 1_555 1_555
C3 C2 1_555 1_555
C4 C3 1_555 1_555
H4 C4 1_555 1_555
C5 O3 1_555 1_555
C6 C5 1_555 1_555
C7 C6 1_555 1_555
H5 C7 1_555 1_555
C8 C7 1_555 1_555
H6 C8 1_555 1_555
C9 C8 1_555 1_555
H7 C9 1_555 1_555
C10 C9 1_555 1_555
H8 C10 1_555 1_555
C11 C6 1_555 1_555
C12 C3 1_555 1_555
C13 C12 1_555 1_555
C14 C13 1_555 1_555
C15 C14 1_555 1_555
H9 C15 1_555 1_555
C16 C15 1_555 1_555
H10 C16 1_555 1_555
C17 C16 1_555 1_555
H11 C17 1_555 1_555
C18 C17 1_555 1_555
H12 C18 1_555 1_555
C19 C14 1_555 1_555
H13 C19 1_555 1_555
C20 N1 1_555 1_555
C21 C20 1_555 1_555
H14 C21 1_555 1_555
C22 C21 1_555 1_555
H15 C22 1_555 1_555
C23 C22 1_555 1_555
H16 C23 1_555 1_555
C24 C23 1_555 1_555
H17 C24 1_555 1_555
C25 C20 1_555 1_555
H18 C25 1_555 1_555
C26 O1 1_555 1_555
H19 C26 1_555 1_555
H20 C26 1_555 1_555
C27 C26 1_555 1_555
H21 C27 1_555 1_555
H22 C27 1_555 1_555
H23 C27 1_555 1_555
C4 C5 1_555 1_555
C10 C11 1_555 1_555
C11 C12 1_555 1_555
C18 C19 1_555 1_555
C24 C25 1_555 1_555

#END
