
#######################################################################
#
#                 Cambridge Crystallographic Data Centre
#                                CCDC 
#
#######################################################################
#
# If this CIF has been generated from an entry in the Cambridge 
# Structural Database, then it will include bibliographic, chemical, 
# crystal, experimental, refinement or atomic coordinate data resulting 
# from the CCDC's data processing and validation procedures.
#
#######################################################################

data_HICWOH
_chemical_formula_moiety         
'2(C27 H22 N8 O6 S1),3(C16 H36 N1 1+),H2 O4 P1 1-,2.9(C1 H2 Cl2),H1 O4 P1 2-'
_chemical_name_systematic        
'tris(Tetrabutylammonium) bis(3-(4-nitrophenyl)-3-(2-(((2-(((4-nitrophenyl)carbamoyl)amino)phenyl)carbamothioyl)amino)phenyl)urea) dihydrogen phosphate hydrogen phosphate dichloromethane solvate'
_symmetry_cell_setting           monoclinic
_symmetry_space_group_name_H-M   'P 2/c'
_symmetry_Int_Tables_number      13
_space_group_name_Hall           '-P 2yc'
loop_
_symmetry_equiv_pos_site_id
_symmetry_equiv_pos_as_xyz
1 x,y,z
2 -x,y,1/2-z
3 -x,-y,-z
4 x,-y,1/2+z
_cell_length_a                   17.251(3)
_cell_length_b                   12.4954(19)
_cell_length_c                   28.007(4)
_cell_angle_alpha                90
_cell_angle_beta                 97.612(3)
_cell_angle_gamma                90
_cell_volume                     5983.94
_exptl_crystal_colour            yellow
_exptl_crystal_description       block
_cell_formula_units_Z            2
loop_
_atom_site_label
_atom_site_type_symbol
_atom_site_fract_x
_atom_site_fract_y
_atom_site_fract_z
S1 S 0.33616(8) 0.94297(9) 0.01789(5)
O1 O -0.0190(4) 1.0425(5) 0.3480(2)
O2 O 0.0437(5) 0.8901(7) 0.3770(3)
O3 O 0.23293(19) 1.1819(2) 0.18925(13)
O4 O 0.2604(2) 0.4889(2) 0.12518(12)
O5 O 0.1983(3) 0.3169(4) 0.34949(15)
O6 O 0.2070(3) 0.4695(4) 0.38651(13)
N1 N 0.0449(3) 0.9775(4) 0.35428(16)
N2 N 0.23846(18) 1.0052(3) 0.21054(12)
H3 H 0.2578 0.9447 0.2035
N3 N 0.31480(19) 1.0659(3) 0.15709(13)
H4 H 0.3276 0.9995 0.1565
N4 N 0.41924(19) 0.9770(3) 0.10375(14)
H5 H 0.4472 0.9527 0.1291
N5 N 0.4081(2) 0.8030(3) 0.08087(14)
H6 H 0.4355 0.7904 0.1082
N6 N 0.3056(2) 0.6560(3) 0.10940(13)
H7 H 0.3079 0.7206 0.1200
N7 N 0.2653(2) 0.6216(3) 0.18205(14)
H8 H 0.2690 0.6900 0.1851
N8 N 0.2084(2) 0.4142(4) 0.35025(15)
C2 C 0.0947(3) 0.9867(4) 0.31682(14)
C3 C 0.0757(5) 1.0692(8) 0.2784(3)
C4 C 0.1202(6) 1.0751(8) 0.2413(3)
C5 C 0.1888(2) 1.0042(3) 0.24575(13)
C6 C 0.2066(5) 0.9335(7) 0.2834(3)
C7 C 0.1577(5) 0.9273(8) 0.3184(3)
C8 C 0.2596(2) 1.0923(3) 0.18617(15)
C9 C 0.3528(2) 1.1354(3) 0.12802(16)
C10 C 0.3406(2) 1.2445(3) 0.12546(17)
H9 H 0.3060 1.2765 0.1439
C11 C 0.3799(3) 1.3062(3) 0.0956(2)
H10 H 0.3716 1.3797 0.0940
C12 C 0.4318(3) 1.2592(4) 0.06791(19)
H11 H 0.4578 1.3008 0.0475
C13 C 0.4442(3) 1.1515(3) 0.07091(19)
H12 H 0.4792 1.1203 0.0525
C14 C 0.4063(2) 1.0879(3) 0.10048(17)
C15 C 0.3903(2) 0.9063(3) 0.06941(15)
C16 C 0.3848(3) 0.7146(3) 0.05089(18)
C17 C 0.4135(3) 0.7024(4) 0.0077(2)
H13 H 0.4480 0.7528 -0.0018
C18 C 0.3911(4) 0.6149(4) -0.0218(2)
H14 H 0.4105 0.6065 -0.0511
C19 C 0.3396(3) 0.5410(4) -0.00701(19)
H15 H 0.3248 0.4821 -0.0264
C20 C 0.3101(3) 0.5531(3) 0.03572(18)
H16 H 0.2747 0.5033 0.0448
C21 C 0.3326(3) 0.6387(3) 0.06533(17)
C22 C 0.2755(2) 0.5805(3) 0.13780(17)
C23 C 0.2498(2) 0.5658(3) 0.22194(16)
C24 C 0.2306(2) 0.4565(3) 0.22187(15)
H17 H 0.2273 0.4172 0.1935
C25 C 0.2169(2) 0.4082(4) 0.26389(16)
H18 H 0.2047 0.3357 0.2641
C26 C 0.2211(2) 0.4672(4) 0.30620(16)
C27 C 0.2405(3) 0.5741(4) 0.30696(17)
H19 H 0.2430 0.6129 0.3354
C28 C 0.2557(3) 0.6220(4) 0.26619(18)
H20 H 0.2704 0.6937 0.2671
P1 P 0.40715(7) 0.82687(9) 0.21274(5)
O9 O 0.32676(17) 0.8277(2) 0.18332(12)
O10 O 0.4695(2) 0.8695(5) 0.18640(17)
O11 O 0.4007(3) 0.8932(5) 0.25758(17)
O12 O 0.4318(2) 0.7147(3) 0.2297(3)
N9 N 0.5000 0.3666(4) 0.2500
C33 C 0.3641(4) 0.1051(7) 0.3488(3)
H21 H 0.4085 0.0582 0.3517
H22 H 0.3170 0.0634 0.3469
H23 H 0.3677 0.1511 0.3765
C34 C 0.3626(3) 0.1697(6) 0.3054(3)
H24 H 0.3218 0.2231 0.3053
H25 H 0.3489 0.1239 0.2776
C35 C 0.4391(3) 0.2262(4) 0.3002(2)
H26 H 0.4549 0.2696 0.3285
H27 H 0.4796 0.1735 0.2977
C36 C 0.4299(2) 0.2957(4) 0.2563(2)
H28 H 0.3847 0.3413 0.2573
H29 H 0.4192 0.2501 0.2282
C37 C 0.4764(2) 0.4350(4) 0.2061(2)
H30 H 0.4362 0.4841 0.2136
H31 H 0.4527 0.3886 0.1805
C38 C 0.5398(3) 0.5000(4) 0.1868(2)
H32 H 0.5608 0.5521 0.2108
H33 H 0.5821 0.4529 0.1808
C39 C 0.5087(3) 0.5566(4) 0.1414(2)
H34 H 0.4658 0.6025 0.1477
H35 H 0.4878 0.5039 0.1176
C40 C 0.5686(3) 0.6233(5) 0.1206(2)
H36 H 0.5859 0.6800 0.1426
H37 H 0.5458 0.6532 0.0904
H38 H 0.6124 0.5792 0.1156
C33A C 0.6359(4) 0.1051(7) 0.1512(3)
H21A H 0.5915 0.0582 0.1483
H22A H 0.6830 0.0634 0.1531
H23A H 0.6323 0.1511 0.1235
C34A C 0.6374(3) 0.1697(6) 0.1946(3)
H24A H 0.6782 0.2231 0.1947
H25A H 0.6511 0.1239 0.2224
C35A C 0.5609(3) 0.2262(4) 0.1998(2)
H26A H 0.5451 0.2696 0.1715
H27A H 0.5204 0.1735 0.2023
C36A C 0.5701(2) 0.2957(4) 0.2437(2)
H28A H 0.6153 0.3413 0.2427
H29A H 0.5808 0.2501 0.2718
C37A C 0.5236(2) 0.4350(4) 0.2939(2)
H30A H 0.5638 0.4841 0.2864
H31A H 0.5473 0.3886 0.3195
C38A C 0.4602(3) 0.5000(4) 0.3132(2)
H32A H 0.4392 0.5521 0.2892
H33A H 0.4179 0.4529 0.3192
C39A C 0.4913(3) 0.5566(4) 0.3586(2)
H34A H 0.5342 0.6025 0.3523
H35A H 0.5122 0.5039 0.3824
C40A C 0.4314(3) 0.6233(5) 0.3794(2)
H36A H 0.4141 0.6800 0.3574
H37A H 0.4542 0.6532 0.4096
H38A H 0.3876 0.5792 0.3844
N10 N 0.1327(2) 0.2171(3) 0.02212(12)
C41 C 0.1369(3) 0.2745(4) 0.07043(14)
H39 H 0.1752 0.2383 0.0934
H40 H 0.1557 0.3468 0.0666
C42 C 0.0605(3) 0.2804(4) 0.09136(16)
H41 H 0.0405 0.2088 0.0951
H42 H 0.0223 0.3198 0.0696
C43 C 0.0734(3) 0.3359(5) 0.14003(17)
H43 H 0.1136 0.2979 0.1609
H44 H 0.0923 0.4079 0.1357
C44 C 0.0010(4) 0.3419(5) 0.16427(19)
H45 H -0.0376 0.3848 0.1452
H46 H 0.0135 0.3737 0.1956
H47 H -0.0193 0.2711 0.1676
C45 C 0.1521(4) -0.1453(4) 0.1055(2)
H48 H 0.2079 -0.1460 0.1065
H49 H 0.1323 -0.2170 0.1011
H50 H 0.1387 -0.1170 0.1353
C46 C 0.1163(3) -0.0760(4) 0.06415(15)
H51 H 0.0601 -0.0738 0.0640
H52 H 0.1266 -0.1080 0.0341
C47 C 0.1479(3) 0.0373(3) 0.06704(16)
H53 H 0.2035 0.0366 0.0646
H54 H 0.1405 0.0690 0.0977
C48 C 0.1048(3) 0.1028(3) 0.02609(15)
H55 H 0.1095 0.0664 -0.0040
H56 H 0.0498 0.1043 0.0299
C49 C 0.0754(3) 0.2690(4) -0.01583(16)
H57 H 0.0241 0.2666 -0.0053
H58 H 0.0729 0.2265 -0.0450
C50 C 0.0926(4) 0.3838(4) -0.02825(18)
H59 H 0.0941 0.4279 0.0004
H60 H 0.1435 0.3877 -0.0393
C51 C 0.0315(5) 0.4259(5) -0.0666(2)
H61 H 0.0400 0.5020 -0.0706
H62 H -0.0195 0.4170 -0.0562
C52 C 0.0313(6) 0.3716(6) -0.1146(2)
H63 H 0.0804 0.3840 -0.1263
H64 H -0.0103 0.4002 -0.1372
H65 H 0.0236 0.2961 -0.1110
C53 C 0.2144(3) 0.2205(4) 0.00870(17)
H66 H 0.2486 0.1821 0.0332
H67 H 0.2315 0.2946 0.0097
C54 C 0.2260(4) 0.1743(4) -0.04052(19)
H68 H 0.2148 0.0982 -0.0413
H69 H 0.1905 0.2087 -0.0656
C55 C 0.3103(4) 0.1933(4) -0.0491(2)
H70 H 0.3192 0.2697 -0.0514
H71 H 0.3452 0.1664 -0.0218
C56 C 0.3294(6) 0.1395(6) -0.0944(3)
H72 H 0.3317 0.0634 -0.0897
H73 H 0.3791 0.1647 -0.1017
H74 H 0.2896 0.1562 -0.1207
Cl1 Cl 0.14640(12) 0.13956(13) 0.43338(5)
Cl2 Cl 0.13427(10) 0.32823(11) 0.49287(6)
C1 C 0.1973(4) 0.2494(4) 0.46254(18)
H1 H 0.2402 0.2233 0.4855
H2 H 0.2190 0.2929 0.4389
O7? O 0.0092(4) 1.0445(6) 0.3647(2)
O8? O 0.0712(5) 0.9253(7) 0.3899(3)
C29? C 0.1070(5) 1.0770(8) 0.2995(3)
C30? C 0.1478(5) 1.0873(8) 0.2586(3)
C31? C 0.1707(5) 0.8985(7) 0.2619(3)
C32? C 0.1239(5) 0.8848(8) 0.2980(3)
loop_
_geom_bond_atom_site_label_1
_geom_bond_atom_site_label_2
_geom_bond_site_symmetry_1
_geom_bond_site_symmetry_2
Cl1 C1 1_555 1_555
Cl2 C1 1_555 1_555
C1 H1 1_555 1_555
H2 C1 1_555 1_555
S1 C15 1_555 1_555
O1 N1 1_555 1_555
O2 N1 1_555 1_555
O3 C8 1_555 1_555
O4 C22 1_555 1_555
O5 N8 1_555 1_555
O6 N8 1_555 1_555
N1 C2 1_555 1_555
N2 H3 1_555 1_555
N3 H4 1_555 1_555
N4 H5 1_555 1_555
N5 H6 1_555 1_555
N6 H7 1_555 1_555
N7 H8 1_555 1_555
N8 C26 1_555 1_555
C2 C3 1_555 1_555
C3 C4 1_555 1_555
C4 C5 1_555 1_555
C5 N2 1_555 1_555
C6 C5 1_555 1_555
C7 C2 1_555 1_555
C8 N2 1_555 1_555
C9 N3 1_555 1_555
C10 C9 1_555 1_555
H9 C10 1_555 1_555
C11 C10 1_555 1_555
H10 C11 1_555 1_555
C12 C11 1_555 1_555
H11 C12 1_555 1_555
C13 C12 1_555 1_555
H12 C13 1_555 1_555
C14 N4 1_555 1_555
C15 N4 1_555 1_555
C16 N5 1_555 1_555
C17 C16 1_555 1_555
H13 C17 1_555 1_555
C18 C17 1_555 1_555
H14 C18 1_555 1_555
C19 C18 1_555 1_555
H15 C19 1_555 1_555
C20 C19 1_555 1_555
H16 C20 1_555 1_555
C21 N6 1_555 1_555
C22 N6 1_555 1_555
C23 N7 1_555 1_555
C24 C23 1_555 1_555
H17 C24 1_555 1_555
C25 C24 1_555 1_555
H18 C25 1_555 1_555
C26 C25 1_555 1_555
C27 C26 1_555 1_555
H19 C27 1_555 1_555
C28 C23 1_555 1_555
H20 C28 1_555 1_555
P1 O9 1_555 1_555
O10 P1 1_555 1_555
O11 P1 1_555 1_555
O12 P1 1_555 1_555
N9 C36 1_555 1_555
C33 H21 1_555 1_555
H22 C33 1_555 1_555
H23 C33 1_555 1_555
C34 C33 1_555 1_555
H24 C34 1_555 1_555
H25 C34 1_555 1_555
C35 C34 1_555 1_555
H26 C35 1_555 1_555
H27 C35 1_555 1_555
C36 C35 1_555 1_555
H28 C36 1_555 1_555
H29 C36 1_555 1_555
C37 N9 1_555 1_555
H30 C37 1_555 1_555
H31 C37 1_555 1_555
C38 C37 1_555 1_555
H32 C38 1_555 1_555
H33 C38 1_555 1_555
C39 C38 1_555 1_555
H34 C39 1_555 1_555
H35 C39 1_555 1_555
C40 C39 1_555 1_555
H36 C40 1_555 1_555
H37 C40 1_555 1_555
H38 C40 1_555 1_555
N10 C41 1_555 1_555
C41 H39 1_555 1_555
H40 C41 1_555 1_555
C42 C41 1_555 1_555
H41 C42 1_555 1_555
H42 C42 1_555 1_555
C43 C42 1_555 1_555
H43 C43 1_555 1_555
H44 C43 1_555 1_555
C44 C43 1_555 1_555
H45 C44 1_555 1_555
H46 C44 1_555 1_555
H47 C44 1_555 1_555
C45 H48 1_555 1_555
H49 C45 1_555 1_555
H50 C45 1_555 1_555
C46 C45 1_555 1_555
H51 C46 1_555 1_555
H52 C46 1_555 1_555
C47 C46 1_555 1_555
H53 C47 1_555 1_555
H54 C47 1_555 1_555
C48 N10 1_555 1_555
H55 C48 1_555 1_555
H56 C48 1_555 1_555
C49 N10 1_555 1_555
H57 C49 1_555 1_555
H58 C49 1_555 1_555
C50 C49 1_555 1_555
H59 C50 1_555 1_555
H60 C50 1_555 1_555
C51 C50 1_555 1_555
H61 C51 1_555 1_555
H62 C51 1_555 1_555
C52 C51 1_555 1_555
H63 C52 1_555 1_555
H64 C52 1_555 1_555
H65 C52 1_555 1_555
C53 N10 1_555 1_555
H66 C53 1_555 1_555
H67 C53 1_555 1_555
C54 C53 1_555 1_555
H68 C54 1_555 1_555
H69 C54 1_555 1_555
C55 C54 1_555 1_555
H70 C55 1_555 1_555
H71 C55 1_555 1_555
C56 C55 1_555 1_555
H72 C56 1_555 1_555
H73 C56 1_555 1_555
H74 C56 1_555 1_555
C33A H21A 1_555 1_555
H22A C33A 1_555 1_555
H23A C33A 1_555 1_555
C34A C33A 1_555 1_555
H24A C34A 1_555 1_555
H25A C34A 1_555 1_555
C35A C34A 1_555 1_555
H26A C35A 1_555 1_555
H27A C35A 1_555 1_555
C36A N9 1_555 1_555
H28A C36A 1_555 1_555
H29A C36A 1_555 1_555
C37A N9 1_555 1_555
H30A C37A 1_555 1_555
H31A C37A 1_555 1_555
C38A C37A 1_555 1_555
H32A C38A 1_555 1_555
H33A C38A 1_555 1_555
C39A C38A 1_555 1_555
H34A C39A 1_555 1_555
H35A C39A 1_555 1_555
C40A C39A 1_555 1_555
H36A C40A 1_555 1_555
H37A C40A 1_555 1_555
H38A C40A 1_555 1_555
N3 C8 1_555 1_555
N5 C15 1_555 1_555
N7 C22 1_555 1_555
C6 C7 1_555 1_555
C9 C14 1_555 1_555
C13 C14 1_555 1_555
C16 C21 1_555 1_555
C20 C21 1_555 1_555
C27 C28 1_555 1_555
C47 C48 1_555 1_555
C35A C36A 1_555 1_555

#END
