
#######################################################################
#
#                 Cambridge Crystallographic Data Centre
#                                CCDC 
#
#######################################################################
#
# If this CIF has been generated from an entry in the Cambridge 
# Structural Database, then it will include bibliographic, chemical, 
# crystal, experimental, refinement or atomic coordinate data resulting 
# from the CCDC's data processing and validation procedures.
#
#######################################################################

data_HIDBUU
_chemical_formula_moiety         'C21 H14 F1 N3'
_chemical_name_systematic        4'-(4-fluorophenyl)-2,2':6',2''-terpyridine
_symmetry_cell_setting           monoclinic
_symmetry_space_group_name_H-M   'P 21/c'
_symmetry_Int_Tables_number      14
_space_group_name_Hall           '-P 2ybc'
loop_
_symmetry_equiv_pos_site_id
_symmetry_equiv_pos_as_xyz
1 x,y,z
2 -x,1/2+y,1/2-z
3 -x,-y,-z
4 x,1/2-y,1/2+z
_cell_length_a                   10.8634(19)
_cell_length_b                   13.318(2)
_cell_length_c                   12.176(2)
_cell_angle_alpha                90
_cell_angle_beta                 113.881(2)
_cell_angle_gamma                90
_cell_volume                     1610.79
_exptl_crystal_description       block
_cell_formula_units_Z            4
loop_
_atom_site_label
_atom_site_type_symbol
_atom_site_fract_x
_atom_site_fract_y
_atom_site_fract_z
F1 F 0.22924(11) 0.02307(8) -0.49794(8)
N1 N 0.25480(10) -0.00245(8) 0.20293(10)
N2 N -0.00863(12) -0.18251(9) 0.05544(11)
N3 N 0.50936(14) 0.18557(10) 0.25053(12)
C1 C 0.16829(12) -0.05863(9) 0.11351(11)
C2 C 0.07789(12) -0.12655(9) 0.14483(12)
C3 C 0.25253(13) 0.00313(9) -0.02930(12)
C4 C 0.33977(13) 0.05689(9) 0.17733(11)
C5 C 0.16304(13) -0.05646(9) -0.00232(11)
H1 H 0.0994 -0.0950 -0.0622
C6 C 0.43408(13) 0.11908(10) 0.27810(12)
C7 C 0.25048(13) 0.00619(10) -0.15250(12)
C8 C 0.34250(13) 0.06058(10) 0.06437(12)
H2 H 0.4046 0.1015 0.0512
C9 C 0.08488(15) -0.13181(11) 0.26097(13)
H3 H 0.1457 -0.0921 0.3214
C10 C 0.23775(17) 0.01662(12) -0.38312(13)
C11 C 0.44331(16) 0.10741(12) 0.39378(13)
H4 H 0.3893 0.0609 0.4105
C12 C 0.32804(16) 0.07342(13) -0.18334(14)
H5 H 0.3859 0.1162 -0.1248
C13 C -0.09024(16) -0.24339(12) 0.08198(16)
H6 H -0.1518 -0.2816 0.0202
C14 C -0.08918(16) -0.25325(12) 0.19486(17)
H7 H -0.1478 -0.2971 0.2089
C15 C 0.00063(17) -0.19661(12) 0.28580(15)
H8 H 0.0047 -0.2018 0.3634
C16 C 0.32213(18) 0.07898(14) -0.29884(15)
H9 H 0.3751 0.1247 -0.3180
C17 C 0.61130(17) 0.23297(13) 0.45749(15)
H10 H 0.6731 0.2730 0.5168
C18 C 0.53356(18) 0.16557(14) 0.48439(15)
H11 H 0.5412 0.1588 0.5629
C19 C 0.1681(2) -0.05618(13) -0.24196(14)
H12 H 0.1157 -0.1032 -0.2239
C20 C 0.59585(18) 0.24010(13) 0.34049(16)
H13 H 0.6494 0.2861 0.3225
C21 C 0.1606(2) -0.05135(14) -0.35807(15)
H14 H 0.1038 -0.0940 -0.4175
loop_
_geom_bond_atom_site_label_1
_geom_bond_atom_site_label_2
_geom_bond_site_symmetry_1
_geom_bond_site_symmetry_2
F1 C10 1_555 1_555
N1 C1 1_555 1_555
N2 C2 1_555 1_555
N3 C6 1_555 1_555
C1 C2 1_555 1_555
C2 C9 1_555 1_555
C3 C5 1_555 1_555
C4 N1 1_555 1_555
C5 C1 1_555 1_555
H1 C5 1_555 1_555
C6 C4 1_555 1_555
C7 C3 1_555 1_555
C8 C3 1_555 1_555
H2 C8 1_555 1_555
C9 H3 1_555 1_555
C10 C16 1_555 1_555
C11 C6 1_555 1_555
H4 C11 1_555 1_555
C12 C7 1_555 1_555
H5 C12 1_555 1_555
C13 N2 1_555 1_555
H6 C13 1_555 1_555
C14 C13 1_555 1_555
H7 C14 1_555 1_555
C15 C9 1_555 1_555
H8 C15 1_555 1_555
C16 C12 1_555 1_555
H9 C16 1_555 1_555
C17 H10 1_555 1_555
C18 C11 1_555 1_555
H11 C18 1_555 1_555
C19 C7 1_555 1_555
H12 C19 1_555 1_555
C20 N3 1_555 1_555
H13 C20 1_555 1_555
C21 C10 1_555 1_555
H14 C21 1_555 1_555
C4 C8 1_555 1_555
C14 C15 1_555 1_555
C17 C18 1_555 1_555
C17 C20 1_555 1_555
C19 C21 1_555 1_555

#END
