
#######################################################################
#
#                 Cambridge Crystallographic Data Centre
#                                CCDC 
#
#######################################################################
#
# If this CIF has been generated from an entry in the Cambridge 
# Structural Database, then it will include bibliographic, chemical, 
# crystal, experimental, refinement or atomic coordinate data resulting 
# from the CCDC's data processing and validation procedures.
#
#######################################################################

data_HIDJAG
_chemical_formula_moiety         'C18 H16 O5'
_chemical_name_systematic        
'cis-Dimethyl 2,3-diphenyloxirane-2,3-dicarboxylate'
_symmetry_cell_setting           monoclinic
_symmetry_space_group_name_H-M   'C 2/c'
_symmetry_Int_Tables_number      15
_space_group_name_Hall           '-C 2yn'
loop_
_symmetry_equiv_pos_site_id
_symmetry_equiv_pos_as_xyz
1 x,y,z
2 1/2+x,1/2+y,z
3 -x,y,1/2-z
4 1/2-x,1/2+y,1/2-z
5 -x,-y,-z
6 1/2-x,1/2-y,-z
7 x,-y,1/2+z
8 1/2+x,1/2-y,1/2+z
_cell_length_a                   16.024(4)
_cell_length_b                   7.0035(14)
_cell_length_c                   28.674(7)
_cell_angle_alpha                90
_cell_angle_beta                 102.41(4)
_cell_angle_gamma                90
_cell_volume                     3142.73
_exptl_crystal_colour            colorless
_exptl_crystal_description       plate
_chemical_melting_point          131-132deg.C
_cell_formula_units_Z            8
_exptl_crystal_recrystallization_method pentane/dichloromethane
loop_
_atom_site_label
_atom_site_type_symbol
_atom_site_fract_x
_atom_site_fract_y
_atom_site_fract_z
O1 O 0.16249(5) 0.19201(13) 0.06990(3)
O2 O 0.21593(6) 0.46086(16) 0.01250(4)
O3 O 0.34675(6) 0.47322(13) 0.05988(3)
O4 O 0.14870(7) 0.67704(14) 0.09709(5)
O5 O 0.04037(5) 0.48511(14) 0.06407(3)
C1 C 0.24361(7) 0.28559(17) 0.08593(4)
C2 C 0.16649(7) 0.33916(17) 0.10464(4)
C3 C 0.26592(8) 0.41567(18) 0.04803(4)
C4 C 0.11900(8) 0.52106(18) 0.08766(4)
C5 C 0.31303(7) 0.16878(17) 0.11597(4)
C6 C 0.31705(8) -0.02515(19) 0.10824(5)
H1 H 0.2747 -0.0850 0.0844
C7 C 0.38268(9) -0.1330(2) 0.13511(5)
H2 H 0.3853 -0.2663 0.1294
C8 C 0.44377(9) -0.0486(2) 0.16979(5)
H3 H 0.4890 -0.1227 0.1879
C9 C 0.43921(9) 0.1456(2) 0.17827(5)
H4 H 0.4810 0.2043 0.2026
C10 C 0.37408(9) 0.2544(2) 0.15146(5)
H5 H 0.3712 0.3874 0.1574
C11 C 0.15834(7) 0.27897(18) 0.15362(4)
C12 C 0.13369(9) 0.0944(2) 0.16166(5)
H6 H 0.1223 0.0046 0.1363
C13 C 0.12575(11) 0.0419(2) 0.20718(6)
H7 H 0.1091 -0.0846 0.2129
C14 C 0.14196(10) 0.1723(3) 0.24412(5)
H8 H 0.1356 0.1358 0.2751
C15 C 0.16735(9) 0.3548(3) 0.23626(5)
H9 H 0.1794 0.4437 0.2619
C16 C 0.17537(9) 0.4091(2) 0.19104(5)
H10 H 0.1925 0.5355 0.1856
C17 C 0.37512(9) 0.5994(2) 0.02620(5)
H11 H 0.3732 0.5312 -0.0039
H12 H 0.4338 0.6410 0.0395
H13 H 0.3375 0.7111 0.0202
C18 C -0.01313(9) 0.6517(2) 0.05051(5)
H14 H -0.0181 0.7228 0.0792
H15 H -0.0700 0.6111 0.0334
H16 H 0.0126 0.7338 0.0297
loop_
_geom_bond_atom_site_label_1
_geom_bond_atom_site_label_2
_geom_bond_site_symmetry_1
_geom_bond_site_symmetry_2
O1 C1 1_555 1_555
O2 C3 1_555 1_555
O3 C3 1_555 1_555
O4 C4 1_555 1_555
O5 C4 1_555 1_555
C1 C2 1_555 1_555
C2 O1 1_555 1_555
C3 C1 1_555 1_555
C4 C2 1_555 1_555
C5 C1 1_555 1_555
C6 C5 1_555 1_555
H1 C6 1_555 1_555
C7 C6 1_555 1_555
H2 C7 1_555 1_555
C8 C7 1_555 1_555
H3 C8 1_555 1_555
C9 C8 1_555 1_555
H4 C9 1_555 1_555
C10 C5 1_555 1_555
H5 C10 1_555 1_555
C11 C2 1_555 1_555
C12 C11 1_555 1_555
H6 C12 1_555 1_555
C13 C12 1_555 1_555
H7 C13 1_555 1_555
C14 C13 1_555 1_555
H8 C14 1_555 1_555
C15 C14 1_555 1_555
H9 C15 1_555 1_555
C16 C11 1_555 1_555
H10 C16 1_555 1_555
C17 O3 1_555 1_555
H11 C17 1_555 1_555
H12 C17 1_555 1_555
H13 C17 1_555 1_555
C18 O5 1_555 1_555
H14 C18 1_555 1_555
H15 C18 1_555 1_555
H16 C18 1_555 1_555
C9 C10 1_555 1_555
C15 C16 1_555 1_555

#END
