
#######################################################################
#
#                 Cambridge Crystallographic Data Centre
#                                CCDC 
#
#######################################################################
#
# If this CIF has been generated from an entry in the Cambridge 
# Structural Database, then it will include bibliographic, chemical, 
# crystal, experimental, refinement or atomic coordinate data resulting 
# from the CCDC's data processing and validation procedures.
#
#######################################################################

data_HIDKOU
_chemical_formula_moiety         'C51 H57 Br1 N4 O6,2.5(H2 O1)'
_chemical_name_systematic        
'p-Bromobenzoyl-tris(D-\a-methylphenylalanyl)-D-\a-methylphenylalanine t-butyl ester hydrate'
_symmetry_cell_setting           orthorhombic
_symmetry_space_group_name_H-M   'P 21 21 21'
_symmetry_Int_Tables_number      19
_space_group_name_Hall           'P 2ac 2ab'
loop_
_symmetry_equiv_pos_site_id
_symmetry_equiv_pos_as_xyz
1 x,y,z
2 1/2-x,-y,1/2+z
3 1/2+x,1/2-y,-z
4 -x,1/2+y,1/2-z
_cell_length_a                   12.441(3)
_cell_length_b                   20.933(3)
_cell_length_c                   40.309(5)
_cell_angle_alpha                90
_cell_angle_beta                 90
_cell_angle_gamma                90
_cell_volume                     10497.6
_cell_formula_units_Z            8
loop_
_atom_site_label
_atom_site_type_symbol
_atom_site_fract_x
_atom_site_fract_y
_atom_site_fract_z
C1 C 0.48950(80) 1.06080(40) 0.00110(20)
N1 N 0.63530(60) 1.05370(40) -0.04110(20)
O1 O 0.45840(50) 1.07590(30) 0.02810(10)
C2 C 0.58360(70) 1.09750(40) -0.01710(20)
C3 C 0.53360(80) 1.15130(40) -0.03620(20)
C4 C 0.65990(80) 1.12160(50) 0.00960(20)
C5 C 0.7584(10) 1.15690(60) -0.00500(20)
C6 C 0.8525(12) 1.12060(60) -0.01430(30)
C7 C 0.7575(11) 1.21830(70) -0.00870(30)
C8 C 0.9379(10) 1.1523(10) -0.02770(30)
C9 C 0.8477(18) 1.24940(80) -0.02230(30)
C10 C 0.9397(17) 1.2163(10) -0.03310(30)
C11 C 0.67730(90) 0.99690(50) -0.03160(20)
C12 C 0.7259(10) 0.96030(50) -0.05820(30)
C13 C 0.6992(10) 0.96180(50) -0.09110(30)
C14 C 0.7425(15) 0.92110(70) -0.11460(30)
C15 C 0.8195(14) 0.87720(60) -0.10440(50)
C16 C 0.8498(14) 0.87340(80) -0.07230(40)
C17 C 0.8043(12) 0.91110(70) -0.04890(30)
O2 O 0.67560(60) 0.97850(30) -0.00320(10)
Br1 Br 0.88130(20) 0.82460(10) -0.13820(10)
C18 C 0.3840(14) 0.93480(50) 0.02660(30)
N2 N 0.44450(70) 1.01200(40) -0.01750(20)
O3 O 0.31130(70) 0.91329(40) 0.04210(20)
C19 C 0.35550(90) 0.97040(50) -0.00780(20)
C20 C 0.35130(90) 0.92090(50) -0.03340(20)
C21 C 0.25210(90) 1.00930(50) -0.00180(30)
C22 C 0.2173(10) 1.04320(60) -0.03290(30)
C23 C 0.1565(13) 1.01290(70) -0.05620(40)
C24 C 0.2464(11) 1.10540(70) -0.03770(30)
C25 C 0.1301(31) 1.0440(12) -0.08490(60)
C26 C 0.2204(12) 1.13710(80) -0.06610(40)
C27 C 0.1564(27) 1.1071(12) -0.08880(50)
C28 C 0.45760(90) 0.92870(40) 0.09460(30)
N3 N 0.48780(80) 0.93120(40) 0.03510(20)
O4 O 0.43010(60) 0.89490(30) 0.11800(20)
C29 C 0.5233(11) 0.90300(40) 0.06620(20)
C30 C 0.6369(11) 0.92140(60) 0.07140(30)
C31 C 0.5093(10) 0.82980(40) 0.06520(30)
C32 C 0.5745(11) 0.79800(50) 0.03900(30)
C33 C 0.5327(12) 0.78800(70) 0.00810(30)
C34 C 0.6793(12) 0.78090(70) 0.04460(30)
C35 C 0.5894(18) 0.7619(16) -0.01760(40)
C36 C 0.7348(17) 0.7492(10) 0.02010(40)
C37 C 0.6931(18) 0.7435(17) -0.01120(40)
C38 C 0.4225(10) 1.00890(50) 0.15370(30)
N4 N 0.43410(60) 0.99230(30) 0.09430(20)
O5 O 0.37070(70) 1.00770(40) 0.17870(20)
C39 C 0.37180(90) 1.02440(50) 0.11990(20)
C40 C 0.25510(80) 0.99940(60) 0.11930(30)
C41 C 0.3739(10) 1.09650(50) 0.11560(20)
C42 C 0.4747(11) 1.13270(40) 0.12380(20)
C43 C 0.5572(12) 1.13930(60) 0.10150(30)
C44 C 0.4828(13) 1.15960(50) 0.15460(30)
C45 C 0.6487(16) 1.17240(90) 0.10880(40)
C46 C 0.5718(17) 1.19380(70) 0.16280(30)
C47 C 0.6569(17) 1.19990(80) 0.14240(40)
C48 C 0.6008(11) 0.98710(60) 0.18110(20)
C49 C 0.5854(14) 1.03420(70) 0.20850(30)
C50 C 0.7091(10) 0.99070(70) 0.16560(30)
C51 C 0.5723(13) 0.91810(60) 0.18960(30)
O6 O 0.52730(10) 1.00450(10) 0.15220(10)
C52 C -0.05320(90) 0.29590(40) 0.26670(20)
N5 N 0.00050(70) 0.29680(30) 0.32570(20)
O7 O -0.02430(60) 0.28560(30) 0.23820(10)
C53 C 0.00480(90) 0.26060(50) 0.29620(20)
C54 C -0.0600(10) 0.20030(40) 0.30130(20)
C55 C 0.12090(90) 0.24650(50) 0.28520(20)
C56 C 0.1882(10) 0.21400(70) 0.31070(30)
C57 C 0.2469(12) 0.24880(80) 0.33270(40)
C58 C 0.1980(15) 0.14830(70) 0.31120(50)
C59 C 0.3138(17) 0.2210(11) 0.35540(50)
C60 C 0.2595(22) 0.12150(90) 0.33570(70)
C61 C 0.3019(24) 0.1573(12) 0.36090(50)
C62 C 0.04270(90) 0.35890(40) 0.32790(20)
C63 C 0.03970(90) 0.38670(50) 0.36140(20)
C64 C 0.03140(90) 0.45050(50) 0.36350(20)
C65 C 0.03270(90) 0.48260(50) 0.39390(30)
C66 C 0.0414(11) 0.44530(70) 0.42300(30)
C67 C 0.0577(13) 0.38310(60) 0.42060(20)
C68 C 0.0564(11) 0.35270(50) 0.39030(20)
O8 O 0.07280(60) 0.38660(30) 0.30390(10)
Br2 Br 0.04390(20) 0.49040(10) 0.46350(10)
C69 C -0.1183(11) 0.41570(40) 0.23180(20)
N6 N -0.13610(60) 0.33310(30) 0.27500(20)
O9 O -0.15860(60) 0.44080(30) 0.20540(20)
C70 C -0.19800(80) 0.37280(50) 0.25060(20)
C71 C -0.27360(90) 0.41330(50) 0.27060(20)
C72 C -0.26030(80) 0.32860(50) 0.22660(20)
C73 C -0.3361(12) 0.28200(70) 0.24270(20)
C74 C -0.3018(12) 0.21770(70) 0.25030(30)
C75 C -0.4382(14) 0.29710(60) 0.25040(30)
C76 C -0.3743(20) 0.17770(70) 0.26580(30)
C77 C -0.5080(16) 0.2579(10) 0.26390(40)
C78 C -0.4805(19) 0.1980(11) 0.27270(40)
C79 C 0.06340(80) 0.44070(40) 0.18710(20)
N7 N -0.02160(70) 0.42580(30) 0.24230(20)
O10 O 0.09420(60) 0.47480(30) 0.16570(10)
C80 C 0.0569(10) 0.46320(40) 0.22380(20)
C81 C 0.16710(90) 0.45170(50) 0.23970(20)
C82 C 0.0267(10) 0.53610(40) 0.22240(20)
C83 C 0.0073(14) 0.56460(50) 0.25890(30)
C84 C 0.0873(13) 0.58890(50) 0.27790(30)
C85 C -0.0972(13) 0.56360(50) 0.27060(30)
C86 C 0.0624(17) 0.61080(50) 0.30820(30)
C87 C -0.1240(17) 0.58550(60) 0.30050(40)
C88 C -0.0464(19) 0.61010(70) 0.31870(40)
C89 C 0.15770(90) 0.36480(40) 0.13370(20)
N8 N 0.04380(70) 0.37800(30) 0.18240(10)
O11 O 0.16920(50) 0.38280(30) 0.10490(10)
C90 C 0.04680(90) 0.35210(40) 0.14890(20)
C91 C -0.04360(90) 0.37920(50) 0.12790(20)
C92 C 0.0373(10) 0.27540(40) 0.15370(20)
C93 C 0.0338(11) 0.24210(40) 0.12150(20)
C94 C -0.0535(11) 0.22730(50) 0.10350(30)
C95 C 0.1295(13) 0.21840(50) 0.10890(30)
C96 C -0.0535(16) 0.19140(80) 0.07520(30)
C97 C 0.1315(13) 0.18380(50) 0.07920(30)
C98 C 0.0467(17) 0.17120(60) 0.06290(30)
C99 C 0.3506(10) 0.36360(60) 0.14710(30)
C100 C 0.4025(11) 0.34180(80) 0.17910(30)
C101 C 0.3678(10) 0.43120(70) 0.14040(30)
C102 C 0.3868(11) 0.31990(60) 0.11800(30)
O12 O 0.23690(60) 0.35160(30) 0.15440(10)
O13 O 0.9202(16) 0.21970(80) 0.38150(30)
O14 O 0.7369(14) 0.33320(60) 0.34070(30)
O15 O 0.7769(16) 0.32360(80) 0.40570(40)
O16 O 0.0315(20) 0.07290(80) 0.37250(40)
O17 O 0.6554(73) 0.4701(28) 0.1775(23)
loop_
_geom_bond_atom_site_label_1
_geom_bond_atom_site_label_2
_geom_bond_site_symmetry_1
_geom_bond_site_symmetry_2
C1 O1 1_555 1_555
N1 C2 1_555 1_555
C2 C1 1_555 1_555
C3 C2 1_555 1_555
C4 C2 1_555 1_555
C5 C4 1_555 1_555
C6 C5 1_555 1_555
C7 C5 1_555 1_555
C8 C6 1_555 1_555
C9 C7 1_555 1_555
C10 C8 1_555 1_555
C11 N1 1_555 1_555
C12 C11 1_555 1_555
C13 C12 1_555 1_555
C14 C13 1_555 1_555
C15 C14 1_555 1_555
C16 C15 1_555 1_555
C17 C12 1_555 1_555
O2 C11 1_555 1_555
Br1 C15 1_555 1_555
C18 O3 1_555 1_555
N2 C1 1_555 1_555
C19 C18 1_555 1_555
C20 C19 1_555 1_555
C21 C19 1_555 1_555
C22 C21 1_555 1_555
C23 C22 1_555 1_555
C24 C22 1_555 1_555
C25 C23 1_555 1_555
C26 C24 1_555 1_555
C27 C25 1_555 1_555
C28 O4 1_555 1_555
N3 C18 1_555 1_555
C29 C28 1_555 1_555
C30 C29 1_555 1_555
C31 C29 1_555 1_555
C32 C31 1_555 1_555
C33 C32 1_555 1_555
C34 C32 1_555 1_555
C35 C33 1_555 1_555
C36 C34 1_555 1_555
C37 C35 1_555 1_555
C38 O5 1_555 1_555
N4 C28 1_555 1_555
C39 C38 1_555 1_555
C40 C39 1_555 1_555
C41 C39 1_555 1_555
C42 C41 1_555 1_555
C43 C42 1_555 1_555
C44 C42 1_555 1_555
C45 C43 1_555 1_555
C46 C44 1_555 1_555
C47 C45 1_555 1_555
C48 C49 1_555 1_555
C50 C48 1_555 1_555
C51 C48 1_555 1_555
O6 C38 1_555 1_555
C52 O7 1_555 1_555
N5 C53 1_555 1_555
C53 C52 1_555 1_555
C54 C53 1_555 1_555
C55 C53 1_555 1_555
C56 C55 1_555 1_555
C57 C56 1_555 1_555
C58 C56 1_555 1_555
C59 C57 1_555 1_555
C60 C58 1_555 1_555
C61 C59 1_555 1_555
C62 N5 1_555 1_555
C63 C62 1_555 1_555
C64 C63 1_555 1_555
C65 C64 1_555 1_555
C66 C65 1_555 1_555
C67 C66 1_555 1_555
C68 C63 1_555 1_555
O8 C62 1_555 1_555
Br2 C66 1_555 1_555
C69 O9 1_555 1_555
N6 C52 1_555 1_555
C70 C69 1_555 1_555
C71 C70 1_555 1_555
C72 C70 1_555 1_555
C73 C72 1_555 1_555
C74 C73 1_555 1_555
C75 C73 1_555 1_555
C76 C74 1_555 1_555
C77 C75 1_555 1_555
C78 C76 1_555 1_555
C79 O10 1_555 1_555
N7 C69 1_555 1_555
C80 C79 1_555 1_555
C81 C80 1_555 1_555
C82 C80 1_555 1_555
C83 C82 1_555 1_555
C84 C83 1_555 1_555
C85 C83 1_555 1_555
C86 C84 1_555 1_555
C87 C85 1_555 1_555
C88 C86 1_555 1_555
C89 O11 1_555 1_555
N8 C79 1_555 1_555
C90 C89 1_555 1_555
C91 C90 1_555 1_555
C92 C90 1_555 1_555
C93 C92 1_555 1_555
C94 C93 1_555 1_555
C95 C93 1_555 1_555
C96 C94 1_555 1_555
C97 C95 1_555 1_555
C98 C96 1_555 1_555
C99 C100 1_555 1_555
C101 C99 1_555 1_555
C102 C99 1_555 1_555
O12 C89 1_555 1_555
C9 C10 1_555 1_555
C16 C17 1_555 1_555
N2 C19 1_555 1_555
C26 C27 1_555 1_555
N3 C29 1_555 1_555
C36 C37 1_555 1_555
N4 C39 1_555 1_555
C46 C47 1_555 1_555
C48 O6 1_555 1_555
C60 C61 1_555 1_555
C67 C68 1_555 1_555
N6 C70 1_555 1_555
C77 C78 1_555 1_555
N7 C80 1_555 1_555
C87 C88 1_555 1_555
N8 C90 1_555 1_555
C97 C98 1_555 1_555
C99 O12 1_555 1_555

#END
