
#######################################################################
#
#                 Cambridge Crystallographic Data Centre
#                                CCDC 
#
#######################################################################
#
# If this CIF has been generated from an entry in the Cambridge 
# Structural Database, then it will include bibliographic, chemical, 
# crystal, experimental, refinement or atomic coordinate data resulting 
# from the CCDC's data processing and validation procedures.
#
#######################################################################

data_HIDPIU
_chemical_formula_moiety         'C14 H11 N1 O1 S2'
_chemical_name_systematic        
(Z)-4-Methyl-2-(thiophen-2-ylmethylidene)-4H-benzo(1,4)oxazine-3-thione
_symmetry_cell_setting           triclinic
_symmetry_space_group_name_H-M   'P -1'
_symmetry_Int_Tables_number      2
_space_group_name_Hall           '-P 1'
loop_
_symmetry_equiv_pos_site_id
_symmetry_equiv_pos_as_xyz
1 x,y,z
2 -x,-y,-z
_cell_length_a                   7.8323(4)
_cell_length_b                   9.1500(5)
_cell_length_c                   17.6593(9)
_cell_angle_alpha                102.463(1)
_cell_angle_beta                 92.061(1)
_cell_angle_gamma                98.069(1)
_cell_volume                     1220.63
_exptl_crystal_colour            orange
_exptl_crystal_description       rods
_chemical_melting_point          139-141deg.C
_cell_formula_units_Z            4
_exptl_crystal_recrystallization_method dichloromethane/hexane
loop_
_atom_site_label
_atom_site_type_symbol
_atom_site_fract_x
_atom_site_fract_y
_atom_site_fract_z
S1 S 0.19128(5) 0.84047(4) 0.08888(2)
C1 C 0.23326(17) 0.67444(15) 0.03893(8)
N1 N 0.32471(15) 0.65942(13) -0.02565(7)
C2 C 0.42243(19) 0.49802(19) -0.14175(9)
H1 H 0.4668 0.5845 -0.1606
C3 C 0.4355(2) 0.3543(2) -0.18458(9)
H2 H 0.4901 0.3430 -0.2322
C4 C 0.3693(2) 0.2269(2) -0.15823(9)
H3 H 0.3774 0.1288 -0.1881
C5 C 0.29127(18) 0.24288(17) -0.08820(8)
H4 H 0.2455 0.1563 -0.0698
O1 O 0.20914(13) 0.39703(11) 0.02430(6)
C6 C 0.17125(17) 0.53401(15) 0.06456(8)
C7 C 0.34446(17) 0.51609(16) -0.07120(8)
C8 C 0.28127(17) 0.38675(16) -0.04568(8)
C9 C 0.08332(17) 0.52881(15) 0.12818(8)
H5 H 0.0570 0.6223 0.1570
C10 C 0.02495(17) 0.39581(16) 0.15698(8)
S2 S 0.06474(5) 0.21366(4) 0.11685(2)
C11 C -0.04674(19) 0.14142(18) 0.18558(9)
H6 H -0.0608 0.0376 0.1878
C12 C -0.11302(19) 0.24959(19) 0.23665(9)
H7 H -0.1796 0.2292 0.2781
C13 C -0.07229(18) 0.39529(17) 0.22143(8)
H8 H -0.1075 0.4835 0.2519
C14 C 0.3999(2) 0.79327(18) -0.05303(9)
H9 H 0.3380 0.7955 -0.1019
H10 H 0.5221 0.7887 -0.0616
H11 H 0.3896 0.8849 -0.0139
S3 S 0.76206(5) 0.34891(4) 0.64401(2)
C15 C 0.77574(17) 0.18451(15) 0.58359(8)
N2 N 0.86050(15) 0.07811(13) 0.60428(6)
C16 C 0.91207(18) -0.18725(16) 0.58234(9)
H12 H 0.9675 -0.1691 0.6329
C17 C 0.89499(19) -0.33024(16) 0.53387(9)
H13 H 0.9395 -0.4094 0.5515
C18 C 0.81353(18) -0.35910(16) 0.45989(9)
H14 H 0.8040 -0.4570 0.4267
C19 C 0.74600(18) -0.24397(15) 0.43466(8)
H15 H 0.6880 -0.2629 0.3845
O2 O 0.69657(13) 0.00851(11) 0.45541(6)
C20 C 0.69640(16) 0.14933(14) 0.50355(7)
C21 C 0.84802(17) -0.06978(15) 0.55701(8)
C22 C 0.76413(16) -0.10149(15) 0.48332(8)
C23 C 0.62523(16) 0.24975(15) 0.47190(8)
H16 H 0.6263 0.3472 0.5045
C24 C 0.54761(16) 0.22630(14) 0.39426(7)
S4 S 0.52080(4) 0.05629(4) 0.325227(19)
C25 C 0.41615(18) 0.13161(17) 0.25937(8)
H17 H 0.3739 0.0766 0.2086
C26 C 0.40040(18) 0.27928(17) 0.28806(8)
H18 H 0.3446 0.3382 0.2595
C27 C 0.47603(17) 0.33643(16) 0.36511(8)
H19 H 0.4777 0.4375 0.3934
C28 C 0.9571(2) 0.11039(18) 0.68035(8)
H20 H 0.9898 0.2201 0.6989
H21 H 1.0614 0.0621 0.6754
H22 H 0.8844 0.0705 0.7175
loop_
_geom_bond_atom_site_label_1
_geom_bond_atom_site_label_2
_geom_bond_site_symmetry_1
_geom_bond_site_symmetry_2
S1 C1 1_555 1_555
C1 N1 1_555 1_555
N1 C7 1_555 1_555
C2 H1 1_555 1_555
C3 C2 1_555 1_555
H2 C3 1_555 1_555
C4 C3 1_555 1_555
H3 C4 1_555 1_555
C5 C4 1_555 1_555
H4 C5 1_555 1_555
O1 C6 1_555 1_555
C6 C1 1_555 1_555
C7 C2 1_555 1_555
C8 C5 1_555 1_555
C9 C6 1_555 1_555
H5 C9 1_555 1_555
C10 C9 1_555 1_555
S2 C10 1_555 1_555
C11 S2 1_555 1_555
H6 C11 1_555 1_555
C12 C11 1_555 1_555
H7 C12 1_555 1_555
C13 C10 1_555 1_555
H8 C13 1_555 1_555
C14 N1 1_555 1_555
H9 C14 1_555 1_555
H10 C14 1_555 1_555
H11 C14 1_555 1_555
S3 C15 1_555 1_555
C15 N2 1_555 1_555
N2 C21 1_555 1_555
C16 H12 1_555 1_555
C17 C16 1_555 1_555
H13 C17 1_555 1_555
C18 C17 1_555 1_555
H14 C18 1_555 1_555
C19 C18 1_555 1_555
H15 C19 1_555 1_555
O2 C20 1_555 1_555
C20 C15 1_555 1_555
C21 C16 1_555 1_555
C22 C19 1_555 1_555
C23 C20 1_555 1_555
H16 C23 1_555 1_555
C24 C23 1_555 1_555
S4 C24 1_555 1_555
C25 S4 1_555 1_555
H17 C25 1_555 1_555
C26 C25 1_555 1_555
H18 C26 1_555 1_555
C27 C24 1_555 1_555
H19 C27 1_555 1_555
C28 N2 1_555 1_555
H20 C28 1_555 1_555
H21 C28 1_555 1_555
H22 C28 1_555 1_555
O1 C8 1_555 1_555
C7 C8 1_555 1_555
C12 C13 1_555 1_555
O2 C22 1_555 1_555
C21 C22 1_555 1_555
C26 C27 1_555 1_555

#END
