
#######################################################################
#
#                 Cambridge Crystallographic Data Centre
#                                CCDC 
#
#######################################################################
#
# If this CIF has been generated from an entry in the Cambridge 
# Structural Database, then it will include bibliographic, chemical, 
# crystal, experimental, refinement or atomic coordinate data resulting 
# from the CCDC's data processing and validation procedures.
#
#######################################################################

data_HIDPOA
_chemical_formula_moiety         'C14 H12 N2 O1 S1'
_chemical_name_systematic        
(Z)-4-Methyl-2-(pyrrol-2-ylmethylidene)-4H-benzo(1,4)oxazine-3-thione
_symmetry_cell_setting           orthorhombic
_symmetry_space_group_name_H-M   'P b c a'
_symmetry_Int_Tables_number      61
_space_group_name_Hall           '-P 2ac 2ab'
loop_
_symmetry_equiv_pos_site_id
_symmetry_equiv_pos_as_xyz
1 x,y,z
2 1/2-x,-y,1/2+z
3 -x,1/2+y,1/2-z
4 1/2+x,1/2-y,-z
5 -x,-y,-z
6 1/2+x,y,1/2-z
7 x,1/2-y,1/2+z
8 1/2-x,1/2+y,z
_cell_length_a                   10.2224(5)
_cell_length_b                   9.6541(5)
_cell_length_c                   24.3598(13)
_cell_angle_alpha                90
_cell_angle_beta                 90
_cell_angle_gamma                90
_cell_volume                     2404.02
_exptl_crystal_colour            orange
_exptl_crystal_description       plates
_chemical_melting_point          190-191deg.C
_cell_formula_units_Z            8
loop_
_atom_site_label
_atom_site_type_symbol
_atom_site_fract_x
_atom_site_fract_y
_atom_site_fract_z
S1 S -0.13298(6) 1.11426(7) 0.44365(3)
N1 N 0.12539(16) 1.10526(18) 0.43619(7)
C1 C 0.3662(2) 1.0942(3) 0.43632(11)
H1 H 0.3701 1.1578 0.4650
C2 C 0.4808(2) 1.0418(3) 0.41436(12)
H2 H 0.5610 1.0710 0.4281
C3 C 0.4768(2) 0.9468(3) 0.37229(11)
H3 H 0.5542 0.9120 0.3577
C4 C 0.3575(2) 0.9030(3) 0.35163(10)
H4 H 0.3540 0.8385 0.3233
O1 O 0.12772(13) 0.91113(17) 0.35180(7)
C5 C 0.01040(19) 0.9470(2) 0.37649(8)
C6 C 0.00860(19) 1.0561(2) 0.41893(8)
C7 C 0.2457(2) 1.0530(2) 0.41603(8)
C8 C 0.24365(19) 0.9565(2) 0.37375(8)
C9 C 0.1309(2) 1.2125(3) 0.47876(11)
H5 H 0.0478 1.2584 0.4811
H6 H 0.1974 1.2788 0.4696
H7 H 0.1512 1.1706 0.5135
C10 C -0.0966(2) 0.8816(2) 0.35819(9)
H8 H -0.1751 0.9078 0.3745
C11 C -0.1062(2) 0.7768(2) 0.31694(8)
N2 N -0.00561(17) 0.72801(19) 0.28498(7)
H9 H 0.0737 0.7576 0.2860
C12 C -0.0500(2) 0.6263(2) 0.25156(9)
H10 H -0.0001 0.5772 0.2262
C13 C -0.1801(3) 0.6080(3) 0.26133(10)
H11 H -0.2350 0.5448 0.2440
C14 C -0.2155(2) 0.7023(3) 0.30223(10)
H12 H -0.2987 0.7129 0.3170
loop_
_geom_bond_atom_site_label_1
_geom_bond_atom_site_label_2
_geom_bond_site_symmetry_1
_geom_bond_site_symmetry_2
S1 C6 1_555 1_555
N1 C6 1_555 1_555
C1 H1 1_555 1_555
C2 C1 1_555 1_555
H2 C2 1_555 1_555
C3 C2 1_555 1_555
H3 C3 1_555 1_555
C4 C3 1_555 1_555
H4 C4 1_555 1_555
O1 C5 1_555 1_555
C5 C6 1_555 1_555
C7 N1 1_555 1_555
C8 C4 1_555 1_555
C9 N1 1_555 1_555
H5 C9 1_555 1_555
H6 C9 1_555 1_555
H7 C9 1_555 1_555
C10 C5 1_555 1_555
H8 C10 1_555 1_555
C11 C10 1_555 1_555
N2 C11 1_555 1_555
H9 N2 1_555 1_555
C12 N2 1_555 1_555
H10 C12 1_555 1_555
C13 C12 1_555 1_555
H11 C13 1_555 1_555
C14 C11 1_555 1_555
H12 C14 1_555 1_555
C1 C7 1_555 1_555
O1 C8 1_555 1_555
C7 C8 1_555 1_555
C13 C14 1_555 1_555

#END
