
#######################################################################
#
#                 Cambridge Crystallographic Data Centre
#                                CCDC 
#
#######################################################################
#
# If this CIF has been generated from an entry in the Cambridge 
# Structural Database, then it will include bibliographic, chemical, 
# crystal, experimental, refinement or atomic coordinate data resulting 
# from the CCDC's data processing and validation procedures.
#
#######################################################################

data_HIDQES
_chemical_formula_moiety         'C27 H22 N2 O5'
_chemical_name_systematic        
5-Benzyl-1-methoxy-2'-methyl-3-phenyl-1'H-spiro[2,7-dioxa-4-azabicyclo[3.2.0]hept-3-ene-6,4'-isoquinoline]-1',3'(2'H)-dione
_symmetry_cell_setting           triclinic
_symmetry_space_group_name_H-M   'P -1'
_symmetry_Int_Tables_number      2
_space_group_name_Hall           '-P 1'
loop_
_symmetry_equiv_pos_site_id
_symmetry_equiv_pos_as_xyz
1 x,y,z
2 -x,-y,-z
_cell_length_a                   7.4467(4)
_cell_length_b                   12.1591(6)
_cell_length_c                   12.8432(6)
_cell_angle_alpha                84.203(1)
_cell_angle_beta                 76.464(1)
_cell_angle_gamma                84.446(1)
_cell_volume                     1121.59
_exptl_crystal_colour            colorless
_exptl_crystal_description       block
_cell_formula_units_Z            2
loop_
_atom_site_label
_atom_site_type_symbol
_atom_site_fract_x
_atom_site_fract_y
_atom_site_fract_z
O1 O 0.32899(19) 1.03140(9) 0.18519(10)
O2 O 0.45355(16) 0.80296(9) 0.46273(9)
O3 O 0.24075(13) 0.55148(7) 0.52755(7)
O4 O 0.43770(12) 0.61229(7) 0.36661(7)
O5 O 0.23511(14) 0.47428(7) 0.37309(8)
N1 N 0.36078(17) 0.91793(9) 0.33158(10)
N2 N 0.08424(15) 0.71801(8) 0.49799(8)
C1 C 0.39962(18) 0.81364(11) 0.38065(11)
C2 C 0.35173(19) 0.93707(11) 0.22428(12)
C3 C 0.37819(18) 0.83969(11) 0.16112(11)
C4 C 0.4010(2) 0.85638(14) 0.04999(12)
H1 H 0.3941 0.9281 0.0175
C5 C 0.4332(3) 0.76837(17) -0.01144(14)
H2 H 0.4492 0.7800 -0.0856
C6 C 0.4420(3) 0.66181(17) 0.03676(14)
H3 H 0.4651 0.6019 -0.0054
C7 C 0.4168(3) 0.64313(13) 0.14728(13)
H4 H 0.4211 0.5710 0.1791
C8 C 0.38503(18) 0.73222(11) 0.21040(10)
C9 C 0.35020(17) 0.71633(10) 0.33026(10)
C10 C 0.15175(17) 0.67621(9) 0.39182(10)
C11 C 0.00136(19) 0.67594(11) 0.33018(11)
H5 H 0.0451 0.6266 0.2732
H6 H -0.1059 0.6452 0.3785
C12 C -0.06021(17) 0.78715(11) 0.28082(11)
C13 C -0.0955(2) 0.88162(13) 0.33590(13)
H7 H -0.0832 0.8776 0.4066
C14 C -0.1490(3) 0.98255(15) 0.28692(17)
H8 H -0.1710 1.0457 0.3247
C15 C -0.1697(3) 0.98964(18) 0.18299(18)
H9 H -0.2051 1.0574 0.1502
C16 C -0.1382(3) 0.8967(2) 0.12801(16)
H10 H -0.1530 0.9008 0.0578
C17 C -0.0842(3) 0.79648(17) 0.17703(14)
H11 H -0.0636 0.7336 0.1389
C18 C 0.26438(17) 0.56725(10) 0.41401(10)
C19 C 0.13818(17) 0.64506(10) 0.56527(10)
C20 C 0.09754(18) 0.64880(10) 0.68238(10)
C21 C 0.1694(2) 0.56402(12) 0.74602(11)
H12 H 0.2452 0.5053 0.7147
C22 C 0.1265(3) 0.56848(15) 0.85609(13)
H13 H 0.1744 0.5126 0.8992
C23 C 0.0135(3) 0.65476(18) 0.90239(14)
H14 H -0.0153 0.6565 0.9767
C24 C -0.0576(3) 0.73877(16) 0.84003(14)
H15 H -0.1335 0.7972 0.8719
C25 C -0.0156(2) 0.73558(13) 0.73008(13)
H16 H -0.0635 0.7921 0.6876
C26 C 0.3496(3) 1.01496(13) 0.39252(16)
H17 H 0.4564 1.0561 0.3637
H18 H 0.3453 0.9911 0.4666
H19 H 0.2396 1.0613 0.3872
C27 C 0.3590(2) 0.37840(11) 0.38952(14)
H20 H 0.2922 0.3129 0.4016
H21 H 0.4084 0.3860 0.4509
H22 H 0.4585 0.3726 0.3270
loop_
_geom_bond_atom_site_label_1
_geom_bond_atom_site_label_2
_geom_bond_site_symmetry_1
_geom_bond_site_symmetry_2
O1 C2 1_555 1_555
O2 C1 1_555 1_555
O3 C18 1_555 1_555
O4 C9 1_555 1_555
O5 C18 1_555 1_555
N1 C1 1_555 1_555
N2 C10 1_555 1_555
C1 C9 1_555 1_555
C2 N1 1_555 1_555
C3 C2 1_555 1_555
C4 C3 1_555 1_555
H1 C4 1_555 1_555
C5 C4 1_555 1_555
H2 C5 1_555 1_555
C6 C5 1_555 1_555
H3 C6 1_555 1_555
C7 C6 1_555 1_555
H4 C7 1_555 1_555
C8 C3 1_555 1_555
C9 C8 1_555 1_555
C10 C9 1_555 1_555
C11 C10 1_555 1_555
H5 C11 1_555 1_555
H6 C11 1_555 1_555
C12 C11 1_555 1_555
C13 C12 1_555 1_555
H7 C13 1_555 1_555
C14 C13 1_555 1_555
H8 C14 1_555 1_555
C15 C14 1_555 1_555
H9 C15 1_555 1_555
C16 C15 1_555 1_555
H10 C16 1_555 1_555
C17 C12 1_555 1_555
H11 C17 1_555 1_555
C18 O4 1_555 1_555
C19 O3 1_555 1_555
C20 C19 1_555 1_555
C21 C20 1_555 1_555
H12 C21 1_555 1_555
C22 C21 1_555 1_555
H13 C22 1_555 1_555
C23 C22 1_555 1_555
H14 C23 1_555 1_555
C24 C23 1_555 1_555
H15 C24 1_555 1_555
C25 C20 1_555 1_555
H16 C25 1_555 1_555
C26 N1 1_555 1_555
H17 C26 1_555 1_555
H18 C26 1_555 1_555
H19 C26 1_555 1_555
C27 O5 1_555 1_555
H20 C27 1_555 1_555
H21 C27 1_555 1_555
H22 C27 1_555 1_555
N2 C19 1_555 1_555
C7 C8 1_555 1_555
C10 C18 1_555 1_555
C16 C17 1_555 1_555
C24 C25 1_555 1_555

#END
