
#######################################################################
#
#                 Cambridge Crystallographic Data Centre
#                                CCDC 
#
#######################################################################
#
# If this CIF has been generated from an entry in the Cambridge 
# Structural Database, then it will include bibliographic, chemical, 
# crystal, experimental, refinement or atomic coordinate data resulting 
# from the CCDC's data processing and validation procedures.
#
#######################################################################

data_HIDSOF
_chemical_formula_moiety         'C15 H16 N4 O4 S2'
_chemical_name_systematic        
"ethyl N-[(5'-amino-4'-cyano[2',3'-dihydro[2,3'-bithiophene]]-2'-carbonyl)carbamoyl]glycinate"
_symmetry_cell_setting           triclinic
_symmetry_space_group_name_H-M   'P -1'
_symmetry_Int_Tables_number      2
_space_group_name_Hall           '-P 1'
loop_
_symmetry_equiv_pos_site_id
_symmetry_equiv_pos_as_xyz
1 x,y,z
2 -x,-y,-z
_cell_length_a                   8.2173(8)
_cell_length_b                   8.3786(9)
_cell_length_c                   14.5475(15)
_cell_angle_alpha                92.588(4)
_cell_angle_beta                 103.511(3)
_cell_angle_gamma                103.084(3)
_cell_volume                     943.49
_exptl_crystal_colour            yellow
_exptl_crystal_description       block
_cell_formula_units_Z            2
loop_
_atom_site_label
_atom_site_type_symbol
_atom_site_fract_x
_atom_site_fract_y
_atom_site_fract_z
C1 C -0.1462(6) 0.0293(7) -0.4179(3)
H1 H -0.1885 0.0359 -0.4824
C2 C -0.1027(7) -0.1017(7) -0.3839(3)
H2 H -0.1107 -0.1952 -0.4234
C3 C -0.0408(5) -0.0925(5) -0.2804(2)
H3 H -0.0077 -0.1744 -0.2447
C4 C -0.0426(4) 0.0744(4) -0.2451(2)
C5 C 0.2108(3) 0.2081(3) -0.10659(18)
H4 H 0.2680 0.1468 -0.1427
C6 C 0.0126(3) 0.1464(3) -0.14264(19)
H5 H -0.0285 0.0617 -0.1035
C7 C -0.0563(3) 0.2940(4) -0.12620(19)
C8 C -0.2278(4) 0.2788(4) -0.1213(2)
C9 C 0.0562(3) 0.4428(4) -0.11984(19)
C10 C 0.2711(3) 0.1935(3) -0.00076(19)
C11 C 0.5303(4) 0.1628(3) 0.1189(2)
C12 C 0.5288(6) 0.1247(5) 0.2828(3)
H6 H 0.6144 0.0636 0.2788
H7 H 0.4421 0.0552 0.3084
C13 C 0.6128(8) 0.2700(7) 0.3507(3)
C14 C 0.6646(13) 0.5597(9) 0.3882(5)
H8 H 0.6688 0.5401 0.4538
H9 H 0.7819 0.5960 0.3819
C15 C 0.5755(15) 0.6773(10) 0.3624(6)
H10 H 0.5806 0.7026 0.2993
H11 H 0.6262 0.7752 0.4060
H12 H 0.4573 0.6366 0.3640
N1 N -0.3679(4) 0.2620(5) -0.1166(2)
N2 N 0.0299(4) 0.5938(3) -0.1124(2)
H13 H -0.0707 0.6061 -0.1110
H14 H 0.1134 0.6787 -0.1089
N3 N 0.4379(3) 0.1843(3) 0.02835(17)
H15 H 0.4946 0.1930 -0.0147
N4 N 0.4468(4) 0.1510(4) 0.18748(19)
H16 H 0.3416 0.1592 0.1747
O1 O 0.1766(3) 0.1887(3) 0.05304(14)
O2 O 0.6793(3) 0.1533(3) 0.12943(18)
O3 O 0.7050(10) 0.2646(7) 0.4244(3)
O4 O 0.5712(7) 0.4037(5) 0.3230(3)
S1 S -0.11828(16) 0.18257(15) -0.33441(7)
S2 S 0.26395(8) 0.42626(9) -0.12469(5)
loop_
_geom_bond_atom_site_label_1
_geom_bond_atom_site_label_2
_geom_bond_site_symmetry_1
_geom_bond_site_symmetry_2
C1 H1 1_555 1_555
C2 C1 1_555 1_555
H2 C2 1_555 1_555
C3 C2 1_555 1_555
H3 C3 1_555 1_555
C4 C3 1_555 1_555
C5 H4 1_555 1_555
C6 C4 1_555 1_555
H5 C6 1_555 1_555
C7 C6 1_555 1_555
C8 C7 1_555 1_555
C9 C7 1_555 1_555
C10 C5 1_555 1_555
C11 N3 1_555 1_555
C12 H6 1_555 1_555
H7 C12 1_555 1_555
C13 C12 1_555 1_555
C14 H8 1_555 1_555
H9 C14 1_555 1_555
C15 C14 1_555 1_555
H10 C15 1_555 1_555
H11 C15 1_555 1_555
H12 C15 1_555 1_555
N1 C8 1_555 1_555
N2 C9 1_555 1_555
H13 N2 1_555 1_555
H14 N2 1_555 1_555
N3 C10 1_555 1_555
H15 N3 1_555 1_555
N4 C11 1_555 1_555
H16 N4 1_555 1_555
O1 C10 1_555 1_555
O2 C11 1_555 1_555
O3 C13 1_555 1_555
O4 C13 1_555 1_555
S1 C1 1_555 1_555
S2 C5 1_555 1_555
C4 S1 1_555 1_555
C5 C6 1_555 1_555
C9 S2 1_555 1_555
C12 N4 1_555 1_555
C14 O4 1_555 1_555

#END
