
#######################################################################
#
#                 Cambridge Crystallographic Data Centre
#                                CCDC 
#
#######################################################################
#
# If this CIF has been generated from an entry in the Cambridge 
# Structural Database, then it will include bibliographic, chemical, 
# crystal, experimental, refinement or atomic coordinate data resulting 
# from the CCDC's data processing and validation procedures.
#
#######################################################################

data_HIDWOJ
_chemical_formula_moiety         'C18 H20 N4 O4 S1'
_chemical_name_systematic        
'ethyl N-{[5-amino-4-cyano-3-(4-methylphenyl)-2,3-dihydrothiophene-2-carbonyl]carbamoyl}glycinate'
_symmetry_cell_setting           triclinic
_symmetry_space_group_name_H-M   'P -1'
_symmetry_Int_Tables_number      2
_space_group_name_Hall           '-P 1'
loop_
_symmetry_equiv_pos_site_id
_symmetry_equiv_pos_as_xyz
1 x,y,z
2 -x,-y,-z
_cell_length_a                   6.0489(3)
_cell_length_b                   11.7701(6)
_cell_length_c                   14.2912(7)
_cell_angle_alpha                106.8458(17)
_cell_angle_beta                 91.1007(18)
_cell_angle_gamma                94.0053(19)
_cell_volume                     970.608
_exptl_crystal_colour            colorless
_exptl_crystal_description       block
_cell_formula_units_Z            2
loop_
_atom_site_label
_atom_site_type_symbol
_atom_site_fract_x
_atom_site_fract_y
_atom_site_fract_z
C1 C 0.6620(5) 0.3163(3) 0.8658(2)
H1 H 0.5315 0.3231 0.8330
C2 C 0.6860(6) 0.3665(3) 0.9665(2)
H2 H 0.5709 0.4065 1.0001
C3 C 0.8755(5) 0.3582(2) 1.01745(18)
C4 C 0.9067(7) 0.4165(3) 1.1267(2)
H3 H 0.7688 0.4446 1.1526
H4 H 1.0171 0.4823 1.1390
H5 H 0.9539 0.3595 1.1576
C5 C 1.0400(5) 0.2964(3) 0.96564(19)
H6 H 1.1691 0.2882 0.9987
C6 C 1.0178(4) 0.2461(2) 0.86553(17)
H7 H 1.1318 0.2045 0.8324
C7 C 0.8294(4) 0.2566(2) 0.81398(15)
C8 C 0.8896(3) 0.30096(18) 0.65229(15)
H8 H 0.8796 0.3812 0.6967
C9 C 0.8054(4) 0.20771(19) 0.70290(15)
H9 H 0.6479 0.1856 0.6844
C10 C 0.9335(4) 0.10158(18) 0.65834(15)
C11 C 0.8622(4) -0.0165(2) 0.65617(17)
C12 C 1.1304(4) 0.12582(18) 0.62119(15)
C13 C 0.7621(3) 0.28867(18) 0.55629(15)
C14 C 0.7217(4) 0.3941(2) 0.43021(17)
C15 C 0.4296(5) 0.3398(2) 0.30416(18)
H10 H 0.4785 0.4161 0.2952
H11 H 0.2706 0.3388 0.3120
C16 C 0.4740(6) 0.2437(3) 0.2132(2)
C17 C 0.7160(12) 0.1016(5) 0.1360(4)
H12 H 0.8745 0.0956 0.1419
H13 H 0.6838 0.1297 0.0801
C18 C 0.5872(12) -0.0166(5) 0.1275(5)
H14 H 0.6224 -0.0423 0.1836
H15 H 0.6266 -0.0751 0.0692
H16 H 0.4310 -0.0074 0.1243
N1 N 0.8065(5) -0.1129(2) 0.6507(2)
N2 N 1.2906(3) 0.05301(17) 0.58665(15)
H17 H 1.2750 -0.0203 0.5863
H18 H 1.4088 0.0797 0.5649
N3 N 0.8111(3) 0.37776(16) 0.51637(14)
H19 H 0.9106 0.4318 0.5480
N4 N 0.5342(3) 0.33163(17) 0.39328(14)
H20 H 0.4726 0.2847 0.4232
O1 O 0.6266(2) 0.20511(13) 0.51960(11)
O2 O 0.8186(3) 0.46715(16) 0.39620(13)
O3 O 0.3745(5) 0.2292(3) 0.13751(17)
O4 O 0.6334(5) 0.1798(2) 0.22630(17)
S1 S 1.18067(9) 0.27639(5) 0.62607(4)
C19? C 0.6333(18) 0.0562(6) 0.1623(7)
H21? H 0.4963 0.0338 0.1228
H22? H 0.6457 0.0019 0.2015
C20? C 0.8300(17) 0.0502(10) 0.0971(7)
H23? H 0.8092 0.0984 0.0542
H24? H 0.8418 -0.0309 0.0589
H25? H 0.9633 0.0792 0.1369
loop_
_geom_bond_atom_site_label_1
_geom_bond_atom_site_label_2
_geom_bond_site_symmetry_1
_geom_bond_site_symmetry_2
C1 H1 1_555 1_555
C2 C1 1_555 1_555
H2 C2 1_555 1_555
C3 C2 1_555 1_555
C4 C3 1_555 1_555
H3 C4 1_555 1_555
H4 C4 1_555 1_555
H5 C4 1_555 1_555
C5 C3 1_555 1_555
H6 C5 1_555 1_555
C6 C5 1_555 1_555
H7 C6 1_555 1_555
C7 C1 1_555 1_555
C8 H8 1_555 1_555
C9 C7 1_555 1_555
H9 C9 1_555 1_555
C10 C9 1_555 1_555
C11 C10 1_555 1_555
C12 C10 1_555 1_555
C13 C8 1_555 1_555
C14 N3 1_555 1_555
C15 H10 1_555 1_555
H11 C15 1_555 1_555
C16 C15 1_555 1_555
C17 H12 1_555 1_555
H13 C17 1_555 1_555
C18 C17 1_555 1_555
H14 C18 1_555 1_555
H15 C18 1_555 1_555
H16 C18 1_555 1_555
N1 C11 1_555 1_555
N2 C12 1_555 1_555
H17 N2 1_555 1_555
H18 N2 1_555 1_555
N3 C13 1_555 1_555
H19 N3 1_555 1_555
N4 C14 1_555 1_555
H20 N4 1_555 1_555
O1 C13 1_555 1_555
O2 C14 1_555 1_555
O3 C16 1_555 1_555
O4 C16 1_555 1_555
S1 C8 1_555 1_555
C6 C7 1_555 1_555
C8 C9 1_555 1_555
C12 S1 1_555 1_555
C15 N4 1_555 1_555
C17 O4 1_555 1_555

#END
