
#######################################################################
#
#                 Cambridge Crystallographic Data Centre
#                                CCDC 
#
#######################################################################
#
# If this CIF has been generated from an entry in the Cambridge 
# Structural Database, then it will include bibliographic, chemical, 
# crystal, experimental, refinement or atomic coordinate data resulting 
# from the CCDC's data processing and validation procedures.
#
#######################################################################

data_HIDWIB
_chemical_formula_moiety         'C10 H12 Br1 N1 O2'
_chemical_name_systematic        N-(2-(4-Bromophenoxy)ethyl)acetamide
_symmetry_cell_setting           monoclinic
_symmetry_space_group_name_H-M   'P 21'
_symmetry_Int_Tables_number      4
_space_group_name_Hall           'P 2yb'
loop_
_symmetry_equiv_pos_site_id
_symmetry_equiv_pos_as_xyz
1 x,y,z
2 -x,1/2+y,-z
_cell_length_a                   4.9957(16)
_cell_length_b                   9.340(3)
_cell_length_c                   11.700(4)
_cell_angle_alpha                90
_cell_angle_beta                 95.882(6)
_cell_angle_gamma                90
_cell_volume                     543.046
_exptl_crystal_colour            colorless
_exptl_crystal_description       block
_chemical_melting_point          '486-488 K'
_cell_formula_units_Z            2
_exptl_crystal_recrystallization_method methanol
loop_
_atom_site_label
_atom_site_type_symbol
_atom_site_fract_x
_atom_site_fract_y
_atom_site_fract_z
Br1 Br -0.12880(10) 0.00942(10) -0.24266(4)
O1 O 0.5292(7) 0.0523(3) 0.2175(3)
O2 O 0.6292(9) 0.3946(3) 0.4793(4)
N1 N 0.6194(8) 0.1570(4) 0.4501(3)
H1 H 0.555(10) 0.080(5) 0.470(4)
C1 C 0.3895(10) 0.0474(4) 0.1110(4)
C2 C 0.4419(10) 0.1354(6) 0.0201(4)
H2 H 0.5785 0.2033 0.0301
C3 C 0.2908(11) 0.1220(6) -0.0852(4)
H3 H 0.3283 0.1793 -0.1466
C4 C 0.0862(8) 0.0242(7) -0.0988(3)
C5 C 0.0337(12) -0.0621(6) -0.0102(5)
H4 H -0.1041 -0.1293 -0.0207
C6 C 0.1835(11) -0.0508(5) 0.0949(4)
H5 H 0.1454 -0.1096 0.1552
C7 C 0.6996(10) 0.1735(5) 0.2446(4)
H6 H 0.5967 0.2613 0.2338
H7 H 0.8431 0.1759 0.1947
C8 C 0.8150(9) 0.1596(5) 0.3676(4)
H8 H 0.9200 0.0722 0.3757
H9 H 0.9369 0.2390 0.3860
C9 C 0.5438(10) 0.2766(6) 0.5011(5)
C10 C 0.3455(10) 0.2564(6) 0.5878(4)
H10 H 0.4249 0.2869 0.6620
H11 H 0.2975 0.1570 0.5911
H12 H 0.1872 0.3122 0.5658
loop_
_geom_bond_atom_site_label_1
_geom_bond_atom_site_label_2
_geom_bond_site_symmetry_1
_geom_bond_site_symmetry_2
Br1 C4 1_555 1_555
O1 C1 1_555 1_555
O2 C9 1_555 1_555
N1 H1 1_555 1_555
C1 C2 1_555 1_555
C2 H2 1_555 1_555
C3 C2 1_555 1_555
H3 C3 1_555 1_555
C4 C3 1_555 1_555
C5 C4 1_555 1_555
H4 C5 1_555 1_555
C6 C1 1_555 1_555
H5 C6 1_555 1_555
C7 O1 1_555 1_555
H6 C7 1_555 1_555
H7 C7 1_555 1_555
C8 N1 1_555 1_555
H8 C8 1_555 1_555
H9 C8 1_555 1_555
C9 N1 1_555 1_555
C10 C9 1_555 1_555
H10 C10 1_555 1_555
H11 C10 1_555 1_555
H12 C10 1_555 1_555
C5 C6 1_555 1_555
C7 C8 1_555 1_555

#END
