
#######################################################################
#
#                 Cambridge Crystallographic Data Centre
#                                CCDC 
#
#######################################################################
#
# If this CIF has been generated from an entry in the Cambridge 
# Structural Database, then it will include bibliographic, chemical, 
# crystal, experimental, refinement or atomic coordinate data resulting 
# from the CCDC's data processing and validation procedures.
#
#######################################################################

data_HIDXIE
_chemical_formula_moiety         'C26 H28 N4 O5 S1'
_chemical_name_systematic        
'ethyl 2-({[5-amino-4-cyano-3-(4-methoxyphenyl)-2,3-dihydrothiophene-2-carbonyl]carbamoyl}amino)-4-phenylbutanoate'
_symmetry_cell_setting           orthorhombic
_symmetry_space_group_name_H-M   'P 21 21 2'
_symmetry_Int_Tables_number      18
_space_group_name_Hall           'P 2 2ab'
loop_
_symmetry_equiv_pos_site_id
_symmetry_equiv_pos_as_xyz
1 x,y,z
2 -x,-y,z
3 1/2+x,1/2-y,-z
4 1/2-x,1/2+y,-z
_cell_length_a                   17.559
_cell_length_b                   17.5588(13)
_cell_length_c                   8.3081(6)
_cell_angle_alpha                90
_cell_angle_beta                 90
_cell_angle_gamma                90
_cell_volume                     2561.51
_exptl_crystal_colour            colorless
_exptl_crystal_description       block
_cell_formula_units_Z            4
loop_
_atom_site_label
_atom_site_type_symbol
_atom_site_fract_x
_atom_site_fract_y
_atom_site_fract_z
C1 C 0.2031(3) 0.4212(3) 0.5439(7)
H1 H 0.2237 0.4614 0.6025
C2 C 0.1248(3) 0.4115(4) 0.5374(7)
H2 H 0.0933 0.4463 0.5894
C3 C 0.0933(3) 0.3520(4) 0.4562(7)
C4 C -0.0196(4) 0.2995(4) 0.3426(8)
H3 H -0.0023 0.3124 0.2365
H4 H -0.0738 0.3057 0.3484
H5 H -0.0065 0.2476 0.3658
C5 C 0.1403(3) 0.2996(3) 0.3789(7)
H6 H 0.1198 0.2578 0.3256
C6 C 0.2180(3) 0.3113(3) 0.3834(7)
H7 H 0.2493 0.2769 0.3299
C7 C 0.2513(3) 0.3709(3) 0.4627(6)
C8 C 0.3385(3) 0.3798(3) 0.4643(6)
H8 H 0.3607 0.3309 0.4966
C9 C 0.3684(3) 0.4403(3) 0.5773(6)
C10 C 0.3655(3) 0.4323(3) 0.7491(7)
C11 C 0.3951(3) 0.5038(3) 0.5108(6)
C12 C 0.3718(3) 0.4012(3) 0.2981(6)
H9 H 0.3353 0.3881 0.2132
C13 C 0.4488(3) 0.3618(3) 0.2652(6)
C14 C 0.5352(3) 0.3304(3) 0.0364(7)
C15 C 0.8555(3) 0.3172(4) -0.0743(9)
H10 H 0.8870 0.2932 0.0001
C16 C 0.8824(4) 0.3311(4) -0.2260(9)
H11 H 0.9318 0.3173 -0.2535
C17 C 0.8356(4) 0.3659(4) -0.3389(9)
H12 H 0.8532 0.3756 -0.4424
C18 C 0.7630(4) 0.3858(4) -0.2951(11)
H13 H 0.7312 0.4088 -0.3703
C19 C 0.7366(4) 0.3726(4) -0.1447(10)
H14 H 0.6871 0.3870 -0.1186
C20 C 0.7816(3) 0.3383(4) -0.0284(8)
C21 C 0.7526(4) 0.3251(4) 0.1401(9)
H15 H 0.7167 0.3651 0.1669
H16 H 0.7950 0.3289 0.2145
C22 C 0.7137(3) 0.2480(4) 0.1636(7)
H17 H 0.7486 0.2079 0.1316
H18 H 0.7024 0.2411 0.2769
C23 C 0.6406(3) 0.2402(3) 0.0676(7)
H19 H 0.6515 0.2571 -0.0424
C24 C 0.6107(4) 0.1602(4) 0.0571(8)
C25 C 0.6420(6) 0.0311(4) 0.0147(11)
H20 H 0.6851 0.0004 0.0484
H21 H 0.6007 0.0219 0.0897
C26 C 0.6189(6) 0.0078(5) -0.1428(9)
H22 H 0.5742 0.0356 -0.1739
H23 H 0.6077 -0.0457 -0.1422
H24 H 0.6591 0.0178 -0.2180
N1 N 0.3622(3) 0.4294(3) 0.8847(6)
N2 N 0.4223(3) 0.5669(3) 0.5800(6)
H25 H 0.4243 0.5702 0.6832
H26 H 0.4378 0.6041 0.5214
N3 N 0.4703(2) 0.3624(3) 0.1086(5)
H27 H 0.4399 0.3858 0.0442
N4 N 0.5813(2) 0.2909(3) 0.1326(5)
H28 H 0.5762 0.2950 0.2352
O1 O 0.0156(2) 0.3478(3) 0.4559(5)
O2 O 0.4863(2) 0.3339(2) 0.3726(4)
O3 O 0.5443(2) 0.3409(2) -0.1072(5)
O4 O 0.5456(3) 0.1433(3) 0.0812(8)
O5 O 0.6631(3) 0.1111(3) 0.0213(6)
S1 S 0.38826(8) 0.50348(9) 0.29922(16)
loop_
_geom_bond_atom_site_label_1
_geom_bond_atom_site_label_2
_geom_bond_site_symmetry_1
_geom_bond_site_symmetry_2
C1 H1 1_555 1_555
C2 C1 1_555 1_555
H2 C2 1_555 1_555
C3 C2 1_555 1_555
C4 H3 1_555 1_555
H4 C4 1_555 1_555
H5 C4 1_555 1_555
C5 C3 1_555 1_555
H6 C5 1_555 1_555
C6 C5 1_555 1_555
H7 C6 1_555 1_555
C7 C1 1_555 1_555
C8 C7 1_555 1_555
H8 C8 1_555 1_555
C9 C8 1_555 1_555
C10 C9 1_555 1_555
C11 C9 1_555 1_555
C12 C8 1_555 1_555
H9 C12 1_555 1_555
C13 C12 1_555 1_555
C14 N3 1_555 1_555
C15 H10 1_555 1_555
C16 C15 1_555 1_555
H11 C16 1_555 1_555
C17 C16 1_555 1_555
H12 C17 1_555 1_555
C18 C17 1_555 1_555
H13 C18 1_555 1_555
C19 C18 1_555 1_555
H14 C19 1_555 1_555
C20 C15 1_555 1_555
C21 C20 1_555 1_555
H15 C21 1_555 1_555
H16 C21 1_555 1_555
C22 C21 1_555 1_555
H17 C22 1_555 1_555
H18 C22 1_555 1_555
C23 C22 1_555 1_555
H19 C23 1_555 1_555
C24 C23 1_555 1_555
C25 H20 1_555 1_555
H21 C25 1_555 1_555
C26 C25 1_555 1_555
H22 C26 1_555 1_555
H23 C26 1_555 1_555
H24 C26 1_555 1_555
N1 C10 1_555 1_555
N2 C11 1_555 1_555
H25 N2 1_555 1_555
H26 N2 1_555 1_555
N3 C13 1_555 1_555
H27 N3 1_555 1_555
N4 C14 1_555 1_555
H28 N4 1_555 1_555
O1 C3 1_555 1_555
O2 C13 1_555 1_555
O3 C14 1_555 1_555
O4 C24 1_555 1_555
O5 C24 1_555 1_555
S1 C11 1_555 1_555
C4 O1 1_555 1_555
C6 C7 1_555 1_555
C12 S1 1_555 1_555
C19 C20 1_555 1_555
C23 N4 1_555 1_555
C25 O5 1_555 1_555

#END
