
#######################################################################
#
#                 Cambridge Crystallographic Data Centre
#                                CCDC 
#
#######################################################################
#
# If this CIF has been generated from an entry in the Cambridge 
# Structural Database, then it will include bibliographic, chemical, 
# crystal, experimental, refinement or atomic coordinate data resulting 
# from the CCDC's data processing and validation procedures.
#
#######################################################################

data_HIDXUQ
_chemical_formula_moiety         'C25 H24 N4 O4 S1'
_chemical_name_systematic        
'ethyl N-{[5-amino-4-cyano-3-(4-methylphenyl)thiophene-2-carbonyl]carbamoyl}phenylalaninate'
_symmetry_cell_setting           monoclinic
_symmetry_space_group_name_H-M   'C 2'
_symmetry_Int_Tables_number      5
_space_group_name_Hall           'C 2y'
loop_
_symmetry_equiv_pos_site_id
_symmetry_equiv_pos_as_xyz
1 x,y,z
2 -x,y,-z
3 1/2+x,1/2+y,z
4 1/2-x,1/2+y,-z
_cell_length_a                   18.926(3)
_cell_length_b                   9.4145(14)
_cell_length_c                   15.008(3)
_cell_angle_alpha                90
_cell_angle_beta                 112.887(5)
_cell_angle_gamma                90
_cell_volume                     2463.59
_exptl_crystal_colour            colorless
_exptl_crystal_description       block
_cell_formula_units_Z            4
loop_
_atom_site_label
_atom_site_type_symbol
_atom_site_fract_x
_atom_site_fract_y
_atom_site_fract_z
C1 C 0.2729(2) 0.5680(4) 0.2513(2)
H1 H 0.3202 0.6001 0.2538
C2 C 0.2354(3) 0.4606(4) 0.1887(3)
H2 H 0.2576 0.4216 0.1489
C3 C 0.1659(3) 0.4093(4) 0.1835(3)
C4 C 0.1226(3) 0.2967(6) 0.1099(4)
H3 H 0.1570 0.2210 0.1111
H4 H 0.1019 0.3382 0.0465
H5 H 0.0816 0.2597 0.1256
C5 C 0.1353(3) 0.4669(5) 0.2448(3)
H6 H 0.0894 0.4311 0.2444
C6 C 0.1713(3) 0.5771(4) 0.3069(3)
H7 H 0.1487 0.6163 0.3462
C7 C 0.2404(2) 0.6288(4) 0.3108(2)
C8 C 0.3425(2) 0.7691(4) 0.4481(2)
C9 C 0.2752(2) 0.7582(4) 0.3684(2)
C10 C 0.1678(2) 0.9179(4) 0.2625(3)
C11 C 0.2384(2) 0.8921(4) 0.3414(3)
C12 C 0.2789(2) 1.0039(4) 0.3993(3)
C13 C 0.3964(3) 0.6655(4) 0.5111(3)
C14 C 0.4107(2) 0.4070(4) 0.5492(3)
C15 C 0.5590(3) -0.0248(5) 0.7181(3)
H8 H 0.5108 -0.0310 0.6683
C16 C 0.5872(3) -0.1397(5) 0.7778(4)
H9 H 0.5581 -0.2221 0.7682
C17 C 0.6568(3) -0.1333(6) 0.8500(4)
H10 H 0.6758 -0.2106 0.8910
C18 C 0.6999(3) -0.0114(6) 0.8630(4)
H11 H 0.7482 -0.0062 0.9128
C19 C 0.6717(3) 0.1024(5) 0.8024(3)
H12 H 0.7017 0.1834 0.8109
C20 C 0.6000(2) 0.0990(4) 0.7296(3)
C21 C 0.5672(3) 0.2260(5) 0.6660(3)
H13 H 0.5417 0.1940 0.5997
H14 H 0.6090 0.2879 0.6688
C22 C 0.5096(2) 0.3125(4) 0.6942(2)
H15 H 0.4690 0.2492 0.6957
C23 C 0.5498(2) 0.3788(4) 0.7930(3)
C24 C 0.5957(3) 0.3321(6) 0.9607(3)
H16 H 0.6421 0.3813 0.9659
H17 H 0.5650 0.3960 0.9816
C25 C 0.6147(4) 0.2057(7) 1.0207(3)
H18 H 0.5689 0.1525 1.0100
H19 H 0.6382 0.2327 1.0875
H20 H 0.6498 0.1481 1.0043
N1 N 0.1115(2) 0.9467(5) 0.2006(3)
N2 N 0.2575(2) 1.1408(3) 0.3917(3)
H21 H 0.2147 1.1666 0.3473
H22 H 0.2867 1.2026 0.4311
N3 N 0.37758(19) 0.5252(3) 0.4920(2)
H23 H 0.3405 0.5076 0.4377
N4 N 0.47545(18) 0.4263(3) 0.6255(2)
H24 H 0.4977 0.5078 0.6346
O1 O 0.45269(19) 0.7034(3) 0.5801(2)
O2 O 0.37896(17) 0.2915(3) 0.52671(18)
O3 O 0.57731(18) 0.4957(3) 0.8061(2)
O4 O 0.55293(16) 0.2885(3) 0.86131(17)
S1 S 0.36284(6) 0.94460(10) 0.48759(6)
loop_
_geom_bond_atom_site_label_1
_geom_bond_atom_site_label_2
_geom_bond_site_symmetry_1
_geom_bond_site_symmetry_2
C1 H1 1_555 1_555
C2 C1 1_555 1_555
H2 C2 1_555 1_555
C3 C2 1_555 1_555
C4 C3 1_555 1_555
H3 C4 1_555 1_555
H4 C4 1_555 1_555
H5 C4 1_555 1_555
C5 C3 1_555 1_555
H6 C5 1_555 1_555
C6 C5 1_555 1_555
H7 C6 1_555 1_555
C7 C1 1_555 1_555
C8 C9 1_555 1_555
C9 C7 1_555 1_555
C10 C11 1_555 1_555
C11 C9 1_555 1_555
C12 C11 1_555 1_555
C13 C8 1_555 1_555
C14 N3 1_555 1_555
C15 H8 1_555 1_555
C16 C15 1_555 1_555
H9 C16 1_555 1_555
C17 C16 1_555 1_555
H10 C17 1_555 1_555
C18 C17 1_555 1_555
H11 C18 1_555 1_555
C19 C18 1_555 1_555
H12 C19 1_555 1_555
C20 C15 1_555 1_555
C21 C20 1_555 1_555
H13 C21 1_555 1_555
H14 C21 1_555 1_555
C22 C21 1_555 1_555
H15 C22 1_555 1_555
C23 C22 1_555 1_555
C24 H16 1_555 1_555
H17 C24 1_555 1_555
C25 C24 1_555 1_555
H18 C25 1_555 1_555
H19 C25 1_555 1_555
H20 C25 1_555 1_555
N1 C10 1_555 1_555
N2 C12 1_555 1_555
H21 N2 1_555 1_555
H22 N2 1_555 1_555
N3 C13 1_555 1_555
H23 N3 1_555 1_555
N4 C14 1_555 1_555
H24 N4 1_555 1_555
O1 C13 1_555 1_555
O2 C14 1_555 1_555
O3 C23 1_555 1_555
O4 C23 1_555 1_555
S1 C8 1_555 1_555
C6 C7 1_555 1_555
C12 S1 1_555 1_555
C19 C20 1_555 1_555
C22 N4 1_555 1_555
C24 O4 1_555 1_555

#END
