
#######################################################################
#
#                 Cambridge Crystallographic Data Centre
#                                CCDC 
#
#######################################################################
#
# If this CIF has been generated from an entry in the Cambridge 
# Structural Database, then it will include bibliographic, chemical, 
# crystal, experimental, refinement or atomic coordinate data resulting 
# from the CCDC's data processing and validation procedures.
#
#######################################################################

data_HIDZAW
_chemical_formula_moiety         'C17 H13 F1 N2 O3'
_chemical_name_systematic        
4-(4-Fluorophenyl)-6-(3-nitrophenyl)-3,4-dihydropyridin-2(1H)-one
_symmetry_cell_setting           monoclinic
_symmetry_space_group_name_H-M   'P 21/c'
_symmetry_Int_Tables_number      14
_space_group_name_Hall           '-P 2ybc'
loop_
_symmetry_equiv_pos_site_id
_symmetry_equiv_pos_as_xyz
1 x,y,z
2 -x,1/2+y,1/2-z
3 -x,-y,-z
4 x,1/2-y,1/2+z
_cell_length_a                   13.960(3)
_cell_length_b                   8.5633(18)
_cell_length_c                   12.523(3)
_cell_angle_alpha                90
_cell_angle_beta                 103.789(4)
_cell_angle_gamma                90
_cell_volume                     1453.9
_exptl_crystal_colour            'light yellow'
_exptl_crystal_description       block
_chemical_melting_point          '505-506 K'
_cell_formula_units_Z            4
_exptl_crystal_recrystallization_method dimethylformamide
loop_
_atom_site_label
_atom_site_type_symbol
_atom_site_fract_x
_atom_site_fract_y
_atom_site_fract_z
F1 F 0.78946(13) -0.1655(2) 1.29010(11)
O1 O 1.04678(15) 0.4446(3) 0.62439(18)
O2 O 0.99304(15) 0.4310(3) 0.77082(18)
O3 O 0.46242(13) -0.0937(2) 0.60918(13)
N1 N 0.99112(16) 0.3923(3) 0.6762(2)
N2 N 0.60903(13) 0.0255(2) 0.62412(15)
H1 H 0.5940 0.0470 0.5550
C1 C 0.84672(16) 0.2335(3) 0.67593(18)
H2 H 0.8452 0.2788 0.7430
C2 C 0.91898(16) 0.2743(3) 0.62407(19)
C3 C 0.92517(18) 0.2107(3) 0.5249(2)
H3 H 0.9747 0.2405 0.4909
C4 C 0.85556(19) 0.1016(3) 0.47801(19)
H4 H 0.8588 0.0545 0.4120
C5 C 0.78057(17) 0.0608(3) 0.52803(18)
H5 H 0.7328 -0.0104 0.4937
C6 C 0.77572(16) 0.1246(3) 0.62852(16)
C7 C 0.70100(16) 0.0770(3) 0.68827(17)
C8 C 0.71617(17) 0.0791(3) 0.79684(18)
H6 H 0.7771 0.1118 0.8388
C9 C 0.63783(17) 0.0303(3) 0.85426(18)
H7 H 0.5946 0.1202 0.8553
C10 C 0.57687(17) -0.0971(3) 0.78540(17)
H8 H 0.6158 -0.1921 0.7925
H9 H 0.5194 -0.1181 0.8140
C11 C 0.54353(18) -0.0558(3) 0.66617(19)
C12 C 0.67915(17) -0.0210(3) 0.97197(17)
C13 C 0.76049(19) -0.1187(3) 0.99936(19)
H10 H 0.7905 -0.1517 0.9445
C14 C 0.79815(19) -0.1682(3) 1.10595(19)
H11 H 0.8527 -0.2339 1.1234
C15 C 0.7532(2) -0.1181(3) 1.18456(19)
C16 C 0.6736(2) -0.0217(3) 1.1623(2)
H12 H 0.6446 0.0108 1.2181
C17 C 0.63649(18) 0.0274(3) 1.0549(2)
H13 H 0.5822 0.0938 1.0387
loop_
_geom_bond_atom_site_label_1
_geom_bond_atom_site_label_2
_geom_bond_site_symmetry_1
_geom_bond_site_symmetry_2
F1 C15 1_555 1_555
O1 N1 1_555 1_555
O2 N1 1_555 1_555
O3 C11 1_555 1_555
N1 C2 1_555 1_555
N2 H1 1_555 1_555
C1 H2 1_555 1_555
C2 C1 1_555 1_555
C3 C2 1_555 1_555
H3 C3 1_555 1_555
C4 C3 1_555 1_555
H4 C4 1_555 1_555
C5 C4 1_555 1_555
H5 C5 1_555 1_555
C6 C1 1_555 1_555
C7 N2 1_555 1_555
C8 C7 1_555 1_555
H6 C8 1_555 1_555
C9 C8 1_555 1_555
H7 C9 1_555 1_555
C10 C9 1_555 1_555
H8 C10 1_555 1_555
H9 C10 1_555 1_555
C11 N2 1_555 1_555
C12 C9 1_555 1_555
C13 C12 1_555 1_555
H10 C13 1_555 1_555
C14 C13 1_555 1_555
H11 C14 1_555 1_555
C15 C14 1_555 1_555
C16 C15 1_555 1_555
H12 C16 1_555 1_555
C17 C12 1_555 1_555
H13 C17 1_555 1_555
C5 C6 1_555 1_555
C6 C7 1_555 1_555
C10 C11 1_555 1_555
C16 C17 1_555 1_555

#END
