
#######################################################################
#
#                 Cambridge Crystallographic Data Centre
#                                CCDC 
#
#######################################################################
#
# If this CIF has been generated from an entry in the Cambridge 
# Structural Database, then it will include bibliographic, chemical, 
# crystal, experimental, refinement or atomic coordinate data resulting 
# from the CCDC's data processing and validation procedures.
#
#######################################################################

data_HIFBII
_chemical_formula_moiety         'C17 H18 N2 O5,H2 O1'
_chemical_name_systematic        
"N'-(4-Hydroxy-3-methoxybenzylidene)-3,5-dimethoxybenzohydrazide monohydrate"
_symmetry_cell_setting           monoclinic
_symmetry_space_group_name_H-M   'P 21/c'
_symmetry_Int_Tables_number      14
_space_group_name_Hall           '-P 2ybc'
loop_
_symmetry_equiv_pos_site_id
_symmetry_equiv_pos_as_xyz
1 x,y,z
2 -x,1/2+y,1/2-z
3 -x,-y,-z
4 x,1/2-y,1/2+z
_cell_length_a                   10.8278(19)
_cell_length_b                   18.276(3)
_cell_length_c                   9.4755(17)
_cell_angle_alpha                90
_cell_angle_beta                 115.735(3)
_cell_angle_gamma                90
_cell_volume                     1689.11
_exptl_crystal_colour            colorless
_exptl_crystal_description       block
_chemical_melting_point          '513-514 K'
_cell_formula_units_Z            4
_exptl_crystal_recrystallization_method methanol
loop_
_atom_site_label
_atom_site_type_symbol
_atom_site_fract_x
_atom_site_fract_y
_atom_site_fract_z
O1 O 0.54461(15) -0.17435(7) 0.81530(16)
H1 H 0.5338 -0.1782 0.8955
O2 O 0.60348(15) -0.14808(7) 0.58070(16)
O3 O 0.76025(15) 0.29537(7) 0.97663(15)
O4 O 0.83650(18) 0.54766(8) 0.8148(2)
O5 O 1.05872(15) 0.38518(8) 0.60433(19)
N1 N 0.70523(16) 0.16510(8) 0.81472(17)
N2 N 0.74975(16) 0.22848(8) 0.77010(17)
H2 H 0.7599 0.2286 0.6850
C1 C 0.66017(18) 0.03653(10) 0.7601(2)
C2 C 0.62926(18) 0.02085(10) 0.8850(2)
H3 H 0.6349 0.0576 0.9554
C3 C 0.59033(19) -0.04888(10) 0.9049(2)
H4 H 0.5704 -0.0587 0.9892
C4 C 0.58054(18) -0.10439(10) 0.8012(2)
C5 C 0.61255(19) -0.08959(10) 0.6758(2)
C6 C 0.65143(18) -0.01977(10) 0.6567(2)
H5 H 0.6722 -0.0100 0.5731
C7 C 0.6603(2) -0.13978(12) 0.4707(2)
H6 H 0.6098 -0.1032 0.3949
H7 H 0.6547 -0.1855 0.4184
H8 H 0.7545 -0.1251 0.5249
C8 C 0.70141(19) 0.10901(10) 0.7330(2)
H9 H 0.7264 0.1147 0.6513
C9 C 0.77723(18) 0.28966(9) 0.8570(2)
C10 C 0.83664(19) 0.35073(10) 0.8007(2)
C11 C 0.8118(2) 0.42209(10) 0.8300(2)
H10 H 0.7570 0.4316 0.8809
C12 C 0.8696(2) 0.47934(10) 0.7827(2)
C13 C 0.9518(2) 0.46558(11) 0.7080(2)
H11 H 0.9903 0.5041 0.6767
C14 C 0.9766(2) 0.39382(11) 0.6799(2)
C15 C 0.92005(19) 0.33611(10) 0.7259(2)
H12 H 0.9374 0.2881 0.7073
C16 C 0.8897(3) 0.60932(12) 0.7692(3)
H13 H 0.9876 0.6102 0.8272
H14 H 0.8517 0.6531 0.7902
H15 H 0.8657 0.6064 0.6592
C17 C 1.1004(2) 0.31259(12) 0.5906(3)
H16 H 1.1435 0.2906 0.6926
H17 H 1.1642 0.3140 0.5452
H18 H 1.0217 0.2843 0.5249
O6 O 0.50584(15) 0.70150(7) 0.57048(16)
H19 H 0.5330 0.7456 0.5971
H20 H 0.4402 0.6886 0.5924
loop_
_geom_bond_atom_site_label_1
_geom_bond_atom_site_label_2
_geom_bond_site_symmetry_1
_geom_bond_site_symmetry_2
O1 H1 1_555 1_555
O2 C5 1_555 1_555
O3 C9 1_555 1_555
O4 C12 1_555 1_555
O5 C14 1_555 1_555
N1 N2 1_555 1_555
N2 H2 1_555 1_555
C1 C2 1_555 1_555
C2 H3 1_555 1_555
C3 C2 1_555 1_555
H4 C3 1_555 1_555
C4 O1 1_555 1_555
C5 C4 1_555 1_555
C6 C1 1_555 1_555
H5 C6 1_555 1_555
C7 O2 1_555 1_555
H6 C7 1_555 1_555
H7 C7 1_555 1_555
H8 C7 1_555 1_555
C8 N1 1_555 1_555
H9 C8 1_555 1_555
C9 N2 1_555 1_555
C10 C9 1_555 1_555
C11 C10 1_555 1_555
H10 C11 1_555 1_555
C12 C11 1_555 1_555
C13 C12 1_555 1_555
H11 C13 1_555 1_555
C14 C13 1_555 1_555
C15 C10 1_555 1_555
H12 C15 1_555 1_555
C16 O4 1_555 1_555
H13 C16 1_555 1_555
H14 C16 1_555 1_555
H15 C16 1_555 1_555
C17 O5 1_555 1_555
H16 C17 1_555 1_555
H17 C17 1_555 1_555
H18 C17 1_555 1_555
O6 H19 1_555 1_555
H20 O6 1_555 1_555
C1 C8 1_555 1_555
C3 C4 1_555 1_555
C5 C6 1_555 1_555
C14 C15 1_555 1_555

#END
