
#######################################################################
#
#                 Cambridge Crystallographic Data Centre
#                                CCDC 
#
#######################################################################
#
# If this CIF has been generated from an entry in the Cambridge 
# Structural Database, then it will include bibliographic, chemical, 
# crystal, experimental, refinement or atomic coordinate data resulting 
# from the CCDC's data processing and validation procedures.
#
#######################################################################

data_HIFDIK
_chemical_formula_moiety         'C20 H15 Cl1 N2 O1'
_chemical_name_systematic        
2-((2-Chlorophenyl)(1,2,3,4-tetrahydro-1-oxo-2-naphthyl)methyl)malononitrile
_symmetry_cell_setting           monoclinic
_symmetry_space_group_name_H-M   'P 21/c'
_symmetry_Int_Tables_number      14
_space_group_name_Hall           '-P 2ybc'
loop_
_symmetry_equiv_pos_site_id
_symmetry_equiv_pos_as_xyz
1 x,y,z
2 -x,1/2+y,1/2-z
3 -x,-y,-z
4 x,1/2-y,1/2+z
_cell_length_a                   8.2263(8)
_cell_length_b                   19.3791(19)
_cell_length_c                   10.6624(10)
_cell_angle_alpha                90
_cell_angle_beta                 94.198(3)
_cell_angle_gamma                90
_cell_volume                     1695.22
_exptl_crystal_colour            colorless
_exptl_crystal_description       block
_chemical_melting_point          '453-455 K'
_cell_formula_units_Z            4
_exptl_crystal_recrystallization_method dimethylformamide
loop_
_atom_site_label
_atom_site_type_symbol
_atom_site_fract_x
_atom_site_fract_y
_atom_site_fract_z
Cl1 Cl 0.38287(10) 0.23213(4) 0.42004(9)
O1 O 0.0158(3) 0.49181(9) 0.36190(16)
N1 N -0.2919(3) 0.3509(2) 0.3100(2)
N2 N -0.0234(3) 0.26462(10) 0.63566(18)
C1 C 0.1291(2) 0.34989(9) 0.38580(17)
H1 H 0.1322 0.3006 0.3586
C2 C 0.1292(2) 0.39320(9) 0.26447(17)
H2 H 0.0430 0.3728 0.2047
C3 C 0.0873(3) 0.46909(10) 0.27499(18)
C4 C 0.1325(2) 0.51552(10) 0.17263(17)
C5 C 0.2273(2) 0.49232(11) 0.07800(18)
C6 C 0.2809(3) 0.41865(12) 0.07353(19)
H3 H 0.3896 0.4165 0.0394
H4 H 0.2036 0.3927 0.0157
C7 C 0.2900(2) 0.38441(11) 0.20249(19)
H5 H 0.3798 0.4053 0.2567
H6 H 0.3139 0.3347 0.1935
C8 C 0.0779(3) 0.58403(11) 0.1743(2)
H7 H 0.0101 0.5987 0.2376
C9 C 0.1218(3) 0.62988(13) 0.0851(2)
H8 H 0.0864 0.6765 0.0874
C10 C 0.2172(3) 0.60810(14) -0.0079(2)
H9 H 0.2486 0.6401 -0.0692
C11 C 0.2681(3) 0.54034(14) -0.0132(2)
H10 H 0.3314 0.5260 -0.0795
C12 C -0.0275(2) 0.35762(11) 0.45826(18)
H11 H -0.0247 0.4040 0.4995
C13 C -0.1771(3) 0.35302(16) 0.3754(2)
C14 C -0.0279(2) 0.30454(10) 0.55763(19)
C15 C 0.2766(2) 0.35999(11) 0.47923(19)
C16 C 0.3911(3) 0.30837(14) 0.5033(2)
C17 C 0.5191(3) 0.3175(2) 0.5975(3)
H12 H 0.5959 0.2816 0.6154
C18 C 0.5325(4) 0.3783(3) 0.6632(3)
H13 H 0.6175 0.3841 0.7275
C19 C 0.4226(4) 0.4311(2) 0.6360(3)
H14 H 0.4346 0.4740 0.6791
C20 C 0.2964(3) 0.42136(15) 0.5468(2)
H15 H 0.2199 0.4575 0.5305
loop_
_geom_bond_atom_site_label_1
_geom_bond_atom_site_label_2
_geom_bond_site_symmetry_1
_geom_bond_site_symmetry_2
Cl1 C16 1_555 1_555
O1 C3 1_555 1_555
N1 C13 1_555 1_555
N2 C14 1_555 1_555
C1 H1 1_555 1_555
C2 C1 1_555 1_555
H2 C2 1_555 1_555
C3 C2 1_555 1_555
C4 C3 1_555 1_555
C5 C4 1_555 1_555
C6 C5 1_555 1_555
H3 C6 1_555 1_555
H4 C6 1_555 1_555
C7 C2 1_555 1_555
H5 C7 1_555 1_555
H6 C7 1_555 1_555
C8 C4 1_555 1_555
H7 C8 1_555 1_555
C9 C8 1_555 1_555
H8 C9 1_555 1_555
C10 C9 1_555 1_555
H9 C10 1_555 1_555
C11 C5 1_555 1_555
H10 C11 1_555 1_555
C12 C1 1_555 1_555
H11 C12 1_555 1_555
C13 C12 1_555 1_555
C14 C12 1_555 1_555
C15 C1 1_555 1_555
C16 C15 1_555 1_555
C17 C16 1_555 1_555
H12 C17 1_555 1_555
C18 C17 1_555 1_555
H13 C18 1_555 1_555
C19 C18 1_555 1_555
H14 C19 1_555 1_555
C20 C15 1_555 1_555
H15 C20 1_555 1_555
C6 C7 1_555 1_555
C10 C11 1_555 1_555
C19 C20 1_555 1_555

#END
