
#######################################################################
#
#                 Cambridge Crystallographic Data Centre
#                                CCDC 
#
#######################################################################
#
# If this CIF has been generated from an entry in the Cambridge 
# Structural Database, then it will include bibliographic, chemical, 
# crystal, experimental, refinement or atomic coordinate data resulting 
# from the CCDC's data processing and validation procedures.
#
#######################################################################

data_HIFGIN01
_chemical_formula_moiety         'C14 H10 N8 S2'
_chemical_name_systematic        5,5'-Dithio-bis(1-phenyl-1H-tetrazole)
_symmetry_cell_setting           triclinic
_symmetry_space_group_name_H-M   'P -1'
_symmetry_Int_Tables_number      2
_space_group_name_Hall           '-P 1'
loop_
_symmetry_equiv_pos_site_id
_symmetry_equiv_pos_as_xyz
1 x,y,z
2 -x,-y,-z
_cell_length_a                   7.2986(15)
_cell_length_b                   9.3495(19)
_cell_length_c                   11.977(2)
_cell_angle_alpha                80.43(3)
_cell_angle_beta                 89.36(3)
_cell_angle_gamma                74.60(3)
_cell_volume                     776.512
_exptl_crystal_colour            colorless
_exptl_crystal_description       Block
_cell_formula_units_Z            2
loop_
_atom_site_label
_atom_site_type_symbol
_atom_site_fract_x
_atom_site_fract_y
_atom_site_fract_z
C1 C 0.7604(4) 0.4786(3) 0.0464(2)
H1 H 0.7885 0.5708 0.0277
S1 S 0.25767(8) 0.17261(5) 0.17847(5)
S2 S 0.10081(9) 0.05550(6) 0.27775(5)
N1 N 0.2195(3) 0.1599(2) 0.46184(14)
N2 N 0.6285(3) 0.06624(19) 0.12813(15)
C2 C 0.4667(3) 0.0330(2) 0.16242(17)
C3 C 0.6758(3) 0.2071(2) 0.10039(17)
C4 C 0.1877(3) 0.3178(2) 0.41775(17)
C5 C 0.1935(3) 0.0461(2) 0.41361(19)
N3 N 0.2431(3) -0.0789(2) 0.4876(2)
C6 C 0.6178(3) 0.3140(2) 0.16884(18)
H2 H 0.5518 0.2940 0.2339
N4 N 0.2902(3) 0.1024(3) 0.56886(16)
C7 C 0.6584(4) 0.4513(3) 0.1401(2)
H3 H 0.6163 0.5253 0.1847
N5 N 0.4901(3) -0.1129(2) 0.17496(18)
C8 C 0.7783(4) 0.2325(3) 0.0053(2)
H4 H 0.8174 0.1597 -0.0406
N6 N 0.7590(3) -0.0656(2) 0.11911(19)
C9 C 0.0106(4) 0.3989(3) 0.3741(2)
H5 H -0.0881 0.3533 0.3736
C10 C 0.3354(4) 0.3826(3) 0.4227(2)
H6 H 0.4535 0.3260 0.4543
N7 N 0.3018(3) -0.0395(3) 0.5824(2)
N8 N 0.6744(4) -0.1699(2) 0.1475(2)
C11 C -0.0176(5) 0.5498(3) 0.3308(2)
H7 H -0.1358 0.6063 0.2992
C12 C 0.8214(4) 0.3705(4) -0.0201(2)
H8 H 0.8925 0.3894 -0.0831
C13 C 0.3036(5) 0.5345(3) 0.3793(3)
H9 H 0.4014 0.5809 0.3808
C14 C 0.1271(6) 0.6165(3) 0.3340(2)
H10 H 0.1062 0.7185 0.3053
loop_
_geom_bond_atom_site_label_1
_geom_bond_atom_site_label_2
_geom_bond_site_symmetry_1
_geom_bond_site_symmetry_2
C1 H1 1_555 1_555
S1 S2 1_555 1_555
S2 C5 1_555 1_555
N1 C4 1_555 1_555
N2 C2 1_555 1_555
C2 S1 1_555 1_555
C3 N2 1_555 1_555
C4 C9 1_555 1_555
C5 N1 1_555 1_555
N3 C5 1_555 1_555
C6 C3 1_555 1_555
H2 C6 1_555 1_555
N4 N1 1_555 1_555
C7 C1 1_555 1_555
H3 C7 1_555 1_555
N5 C2 1_555 1_555
C8 C3 1_555 1_555
H4 C8 1_555 1_555
N6 N2 1_555 1_555
C9 H5 1_555 1_555
C10 C4 1_555 1_555
H6 C10 1_555 1_555
N7 N3 1_555 1_555
N8 N5 1_555 1_555
C11 C9 1_555 1_555
H7 C11 1_555 1_555
C12 C1 1_555 1_555
H8 C12 1_555 1_555
C13 C10 1_555 1_555
H9 C13 1_555 1_555
C14 C11 1_555 1_555
H10 C14 1_555 1_555
C6 C7 1_555 1_555
N4 N7 1_555 1_555
C8 C12 1_555 1_555
N6 N8 1_555 1_555
C13 C14 1_555 1_555

#END
