
#######################################################################
#
#                 Cambridge Crystallographic Data Centre
#                                CCDC 
#
#######################################################################
#
# If this CIF has been generated from an entry in the Cambridge 
# Structural Database, then it will include bibliographic, chemical, 
# crystal, experimental, refinement or atomic coordinate data resulting 
# from the CCDC's data processing and validation procedures.
#
#######################################################################

data_HIFHOV
_chemical_formula_moiety         'C32 H32 N2'
_chemical_name_systematic        
1,1'-Dibenzyl-1,1',2,2',3,3',4,4'-octahydro-6,6'-biquinoline
_symmetry_cell_setting           triclinic
_symmetry_space_group_name_H-M   'P -1'
_symmetry_Int_Tables_number      2
_space_group_name_Hall           '-P 1'
loop_
_symmetry_equiv_pos_site_id
_symmetry_equiv_pos_as_xyz
1 x,y,z
2 -x,-y,-z
_cell_length_a                   7.577(6)
_cell_length_b                   7.621(6)
_cell_length_c                   11.472(9)
_cell_angle_alpha                90.963(7)
_cell_angle_beta                 101.151(10)
_cell_angle_gamma                112.377(11)
_cell_volume                     598.002
_exptl_crystal_colour            colorless
_exptl_crystal_description       Prism
_cell_formula_units_Z            1
loop_
_atom_site_label
_atom_site_type_symbol
_atom_site_fract_x
_atom_site_fract_y
_atom_site_fract_z
C1 C -0.9959(5) 0.0761(5) 0.0435(3)
C2 C -1.1362(5) 0.1565(6) 0.0272(4)
H1 H -1.2384 0.1104 -0.0396
C3 C -0.8461(6) 0.1523(6) 0.1442(4)
H2 H -0.7477 0.1057 0.1585
N1 N -0.9772(5) 0.5088(5) 0.2889(3)
C4 C -0.9790(5) 0.3716(6) 0.2068(3)
C5 C -1.1322(6) 0.2999(6) 0.1041(4)
C6 C -0.8376(6) 0.2937(6) 0.2232(4)
H3 H -0.7347 0.3389 0.2897
C7 C -1.1075(7) 0.6039(7) 0.2636(5)
H4 H -1.0455 0.7181 0.2262
H5 H -1.1297 0.6436 0.3384
C8 C -1.2976(8) 0.4879(9) 0.1855(6)
H6 H -1.3643 0.5709 0.1585
H7 H -1.3763 0.3973 0.2321
C9 C -0.4750(6) 0.7765(7) 0.4856(4)
H8 H -0.4968 0.7289 0.5579
C10 C -0.5887(6) 0.7839(6) 0.2798(4)
H9 H -0.6873 0.7402 0.2110
C11 C -0.6274(5) 0.7134(5) 0.3864(3)
C12 C -1.2869(7) 0.3814(8) 0.0793(4)
H10 H -1.2605 0.4663 0.0170
H11 H -1.4130 0.2781 0.0495
C13 C -0.8243(6) 0.5734(6) 0.3978(4)
H12 H -0.8084 0.4622 0.4300
H13 H -0.8695 0.6306 0.4557
C14 C -0.2582(7) 0.9796(7) 0.3748(5)
H14 H -0.1357 1.0696 0.3712
C15 C -0.4082(7) 0.9172(7) 0.2727(4)
H15 H -0.3865 0.9651 0.2004
C16 C -0.2931(7) 0.9066(8) 0.4812(5)
H16 H -0.1935 0.9456 0.5495
C1A C -1.0041(5) -0.0761(5) -0.0435(3)
C2A C -0.8638(5) -0.1565(6) -0.0272(4)
H1A H -0.7616 -0.1104 0.0396
C3A C -1.1539(6) -0.1523(6) -0.1442(4)
H2A H -1.2523 -0.1057 -0.1585
N1A N -1.0228(5) -0.5088(5) -0.2889(3)
C4A C -1.0210(5) -0.3716(6) -0.2068(3)
C5A C -0.8678(6) -0.2999(6) -0.1041(4)
C6A C -1.1624(6) -0.2937(6) -0.2232(4)
H3A H -1.2653 -0.3389 -0.2897
C7A C -0.8925(7) -0.6039(7) -0.2636(5)
H4A H -0.9545 -0.7181 -0.2262
H5A H -0.8703 -0.6436 -0.3384
C8A C -0.7024(8) -0.4879(9) -0.1855(6)
H6A H -0.6357 -0.5709 -0.1585
H7A H -0.6237 -0.3973 -0.2321
C9A C -1.5250(6) -0.7765(7) -0.4856(4)
H8A H -1.5032 -0.7289 -0.5579
C10A C -1.4113(6) -0.7839(6) -0.2798(4)
H9A H -1.3127 -0.7402 -0.2110
C11A C -1.3726(5) -0.7134(5) -0.3864(3)
C12A C -0.7131(7) -0.3814(8) -0.0793(4)
H10A H -0.7395 -0.4663 -0.0170
H11A H -0.5870 -0.2781 -0.0495
C13A C -1.1757(6) -0.5734(6) -0.3978(4)
H12A H -1.1916 -0.4622 -0.4300
H13A H -1.1305 -0.6306 -0.4557
C14A C -1.7418(7) -0.9796(7) -0.3748(5)
H14A H -1.8643 -1.0696 -0.3712
C15A C -1.5918(7) -0.9172(7) -0.2727(4)
H15A H -1.6135 -0.9651 -0.2004
C16A C -1.7069(7) -0.9066(8) -0.4812(5)
H16A H -1.8065 -0.9456 -0.5495
loop_
_geom_bond_atom_site_label_1
_geom_bond_atom_site_label_2
_geom_bond_site_symmetry_1
_geom_bond_site_symmetry_2
C1 C2 1_555 1_555
C2 H1 1_555 1_555
C3 C1 1_555 1_555
H2 C3 1_555 1_555
N1 C4 1_555 1_555
C4 C5 1_555 1_555
C5 C2 1_555 1_555
C6 C3 1_555 1_555
H3 C6 1_555 1_555
C7 N1 1_555 1_555
H4 C7 1_555 1_555
H5 C7 1_555 1_555
C8 C7 1_555 1_555
H6 C8 1_555 1_555
H7 C8 1_555 1_555
C9 H8 1_555 1_555
C10 H9 1_555 1_555
C11 C9 1_555 1_555
C12 C5 1_555 1_555
H10 C12 1_555 1_555
H11 C12 1_555 1_555
C13 N1 1_555 1_555
H12 C13 1_555 1_555
H13 C13 1_555 1_555
C14 H14 1_555 1_555
C15 C10 1_555 1_555
H15 C15 1_555 1_555
C16 C9 1_555 1_555
H16 C16 1_555 1_555
C1A C1 1_555 1_555
C2A C1A 1_555 1_555
H1A C2A 1_555 1_555
C3A C1A 1_555 1_555
H2A C3A 1_555 1_555
N1A C4A 1_555 1_555
C4A C5A 1_555 1_555
C5A C2A 1_555 1_555
C6A C3A 1_555 1_555
H3A C6A 1_555 1_555
C7A N1A 1_555 1_555
H4A C7A 1_555 1_555
H5A C7A 1_555 1_555
C8A C7A 1_555 1_555
H6A C8A 1_555 1_555
H7A C8A 1_555 1_555
C9A H8A 1_555 1_555
C10A H9A 1_555 1_555
C11A C9A 1_555 1_555
C12A C5A 1_555 1_555
H10A C12A 1_555 1_555
H11A C12A 1_555 1_555
C13A N1A 1_555 1_555
H12A C13A 1_555 1_555
H13A C13A 1_555 1_555
C14A H14A 1_555 1_555
C15A C10A 1_555 1_555
H15A C15A 1_555 1_555
C16A C9A 1_555 1_555
H16A C16A 1_555 1_555
C4 C6 1_555 1_555
C8 C12 1_555 1_555
C10 C11 1_555 1_555
C11 C13 1_555 1_555
C14 C15 1_555 1_555
C14 C16 1_555 1_555
C4A C6A 1_555 1_555
C8A C12A 1_555 1_555
C10A C11A 1_555 1_555
C11A C13A 1_555 1_555
C14A C15A 1_555 1_555
C14A C16A 1_555 1_555

#END
