
#######################################################################
#
#                 Cambridge Crystallographic Data Centre
#                                CCDC 
#
#######################################################################
#
# If this CIF has been generated from an entry in the Cambridge 
# Structural Database, then it will include bibliographic, chemical, 
# crystal, experimental, refinement or atomic coordinate data resulting 
# from the CCDC's data processing and validation procedures.
#
#######################################################################

data_HIFWAW
_chemical_formula_moiety         'C16 H19 N1 O2'
_chemical_name_systematic        
2-Methoxy-6-methyl-7-(prop-1-en-2-yl)-6,7,7a,8-tetrahydrocyclobuta[g]quinolin-5(5aH)-one
_symmetry_cell_setting           monoclinic
_symmetry_space_group_name_H-M   'P 21/n'
_symmetry_Int_Tables_number      14
_space_group_name_Hall           '-P 2yn'
loop_
_symmetry_equiv_pos_site_id
_symmetry_equiv_pos_as_xyz
1 x,y,z
2 1/2-x,1/2+y,1/2-z
3 -x,-y,-z
4 1/2+x,1/2-y,1/2+z
_cell_length_a                   10.618(4)
_cell_length_b                   8.024(3)
_cell_length_c                   17.216(7)
_cell_angle_alpha                90
_cell_angle_beta                 107.44(2)
_cell_angle_gamma                90
_cell_volume                     1399.36
_cell_formula_units_Z            4
loop_
_atom_site_label
_atom_site_type_symbol
_atom_site_fract_x
_atom_site_fract_y
_atom_site_fract_z
O1 O 0.3557(1) 0.3415(2) 0.9718(1)
N1 N 0.3448(1) 0.0925(2) 1.0321(1)
O2 O 0.6806(1) -0.0853(2) 1.2617(1)
C1 C 0.5899(2) 0.1533(2) 1.1382(1)
C2 C 0.5255(1) 0.0062(2) 1.1432(1)
C3 C 0.4100(2) 0.2287(2) 1.0287(1)
C4 C 0.4019(1) -0.0187(2) 1.0888(1)
C5 C 0.5249(2) -0.2846(2) 1.1958(1)
C6 C 0.5335(2) 0.2662(2) 1.0808(1)
C7 C 0.3221(2) -0.1659(2) 1.0951(1)
C8 C 0.4024(2) -0.3200(2) 1.1245(1)
C9 C 0.5850(2) -0.1177(2) 1.2050(1)
C10 C 0.4467(2) -0.3356(2) 1.2539(1)
C11 C 0.2090(2) -0.4370(2) 1.1724(1)
C12 C 0.2307(2) 0.3031(3) 0.9162(1)
C13 C 0.3524(2) -0.4279(2) 1.1834(1)
C14 C 0.1541(2) -0.3730(3) 1.2233(1)
C15 C 0.1319(2) -0.5232(3) 1.0977(1)
C16 C 0.5165(2) -0.4289(4) 1.3296(1)
H1 H 0.6727 0.1742 1.1747
H2 H 0.5924 -0.3688 1.1973
H3 H 0.5757 0.3656 1.0762
H4 H 0.2600 -0.1883 1.0420
H5 H 0.2715 -0.1405 1.1321
H6 H 0.4209 -0.3942 1.0807
H7 H 0.4025 -0.2377 1.2678
H8 H 0.2041 0.3912 0.8769
H9 H 0.1668 0.2917 0.9452
H10 H 0.2364 0.2005 0.8888
H11 H 0.3856 -0.5416 1.1824
H12 H 0.0633 -0.3807 1.2133
H13 H 0.2057 -0.3194 1.2699
H14 H 0.1388 -0.4630 1.0510
H15 H 0.0410 -0.5287 1.0965
H16 H 0.1657 -0.6340 1.0971
H17 H 0.5816 -0.3580 1.3651
H18 H 0.5588 -0.5252 1.3157
H19 H 0.4539 -0.4633 1.3567
loop_
_geom_bond_atom_site_label_1
_geom_bond_atom_site_label_2
_geom_bond_site_symmetry_1
_geom_bond_site_symmetry_2
O1 C3 1_555 1_555
N1 C3 1_555 1_555
O2 C9 1_555 1_555
C1 C2 1_555 1_555
C2 C4 1_555 1_555
C3 C6 1_555 1_555
C4 N1 1_555 1_555
C5 C8 1_555 1_555
C6 C1 1_555 1_555
C7 C4 1_555 1_555
C8 C7 1_555 1_555
C9 C2 1_555 1_555
C10 C5 1_555 1_555
C11 C13 1_555 1_555
C12 O1 1_555 1_555
C13 C8 1_555 1_555
C14 C11 1_555 1_555
C15 C11 1_555 1_555
C16 C10 1_555 1_555
H1 C1 1_555 1_555
H2 C5 1_555 1_555
H3 C6 1_555 1_555
H4 C7 1_555 1_555
H5 C7 1_555 1_555
H6 C8 1_555 1_555
H7 C10 1_555 1_555
H8 C12 1_555 1_555
H9 C12 1_555 1_555
H10 C12 1_555 1_555
H11 C13 1_555 1_555
H12 C14 1_555 1_555
H13 C14 1_555 1_555
H14 C15 1_555 1_555
H15 C15 1_555 1_555
H16 C15 1_555 1_555
H17 C16 1_555 1_555
H18 C16 1_555 1_555
H19 C16 1_555 1_555
C5 C9 1_555 1_555
C10 C13 1_555 1_555

#END
