
#######################################################################
#
#                 Cambridge Crystallographic Data Centre
#                                CCDC 
#
#######################################################################
#
# If this CIF has been generated from an entry in the Cambridge 
# Structural Database, then it will include bibliographic, chemical, 
# crystal, experimental, refinement or atomic coordinate data resulting 
# from the CCDC's data processing and validation procedures.
#
#######################################################################

data_HIFXIF
_chemical_formula_moiety         'C14 H12 N2 O3'
_chemical_name_systematic        '(Z)-4-Nitrobenzophenone O-methyl oxime'
_symmetry_cell_setting           monoclinic
_symmetry_space_group_name_H-M   'P 21/n'
_symmetry_Int_Tables_number      14
_space_group_name_Hall           '-P 2yn'
loop_
_symmetry_equiv_pos_site_id
_symmetry_equiv_pos_as_xyz
1 x,y,z
2 1/2-x,1/2+y,1/2-z
3 -x,-y,-z
4 1/2+x,1/2-y,1/2+z
_cell_length_a                   8.8087(9)
_cell_length_b                   9.1805(10)
_cell_length_c                   16.007(2)
_cell_angle_alpha                90
_cell_angle_beta                 102.879(5)
_cell_angle_gamma                90
_cell_volume                     1261.89
_exptl_crystal_colour            colorless
_exptl_crystal_description       plate
_cell_formula_units_Z            4
loop_
_atom_site_label
_atom_site_type_symbol
_atom_site_fract_x
_atom_site_fract_y
_atom_site_fract_z
O1 O 0.48459(8) 0.55220(7) 0.69547(4)
O2 O 0.96165(9) 0.74487(9) 0.43567(5)
O3 O 1.08234(9) 0.80205(9) 0.56453(5)
N1 N 0.48236(8) 0.39977(8) 0.68802(4)
N2 N 0.98367(9) 0.73313(9) 0.51382(5)
C1 C 0.57974(9) 0.35316(9) 0.64483(5)
C2 C 0.57826(9) 0.19455(9) 0.62854(5)
C3 C 0.44531(10) 0.11083(10) 0.62831(5)
H1 H 0.3526 0.1566 0.6358
C4 C 0.44879(11) -0.03900(10) 0.61708(6)
H2 H 0.3584 -0.0955 0.6170
C5 C 0.58423(11) -0.10676(10) 0.60594(6)
H3 H 0.5870 -0.2095 0.5996
C6 C 0.71533(11) -0.02386(10) 0.60415(6)
H4 H 0.8072 -0.0699 0.5955
C7 C 0.71257(10) 0.12632(9) 0.61499(5)
H5 H 0.8022 0.1827 0.6132
C8 C 0.68968(9) 0.44795(8) 0.61124(5)
C9 C 0.68553(9) 0.45078(9) 0.52348(5)
H6 H 0.6163 0.3883 0.4857
C10 C 0.78207(9) 0.54446(9) 0.49122(5)
H7 H 0.7774 0.5494 0.4314
C11 C 0.88546(9) 0.63071(9) 0.54838(5)
C12 C 0.89738(10) 0.62608(9) 0.63623(5)
H8 H 0.9718 0.6840 0.6741
C13 C 0.79739(9) 0.53425(9) 0.66727(5)
H9 H 0.8022 0.5301 0.7271
C14 C 0.37900(12) 0.59238(12) 0.74783(6)
H10 H 0.2735 0.5607 0.7202
H11 H 0.3803 0.6984 0.7551
H12 H 0.4109 0.5456 0.8040
loop_
_geom_bond_atom_site_label_1
_geom_bond_atom_site_label_2
_geom_bond_site_symmetry_1
_geom_bond_site_symmetry_2
O1 N1 1_555 1_555
O2 N2 1_555 1_555
O3 N2 1_555 1_555
N1 C1 1_555 1_555
N2 C11 1_555 1_555
C1 C2 1_555 1_555
C2 C3 1_555 1_555
C3 H1 1_555 1_555
C4 C3 1_555 1_555
H2 C4 1_555 1_555
C5 C4 1_555 1_555
H3 C5 1_555 1_555
C6 C5 1_555 1_555
H4 C6 1_555 1_555
C7 C2 1_555 1_555
H5 C7 1_555 1_555
C8 C1 1_555 1_555
C9 C8 1_555 1_555
H6 C9 1_555 1_555
C10 C9 1_555 1_555
H7 C10 1_555 1_555
C11 C10 1_555 1_555
C12 C11 1_555 1_555
H8 C12 1_555 1_555
C13 C8 1_555 1_555
H9 C13 1_555 1_555
C14 O1 1_555 1_555
H10 C14 1_555 1_555
H11 C14 1_555 1_555
H12 C14 1_555 1_555
C6 C7 1_555 1_555
C12 C13 1_555 1_555

#END
