
#######################################################################
#
#                 Cambridge Crystallographic Data Centre
#                                CCDC 
#
#######################################################################
#
# If this CIF has been generated from an entry in the Cambridge 
# Structural Database, then it will include bibliographic, chemical, 
# crystal, experimental, refinement or atomic coordinate data resulting 
# from the CCDC's data processing and validation procedures.
#
#######################################################################

data_HIFXEB
_chemical_formula_moiety         'C15 H15 N1 O1'
_chemical_name_systematic        
N-Methoxy-1-(2-methylphenyl)-1-phenylmethanimine
_symmetry_cell_setting           monoclinic
_symmetry_space_group_name_H-M   'P 21/c'
_symmetry_Int_Tables_number      14
_space_group_name_Hall           '-P 2ybc'
loop_
_symmetry_equiv_pos_site_id
_symmetry_equiv_pos_as_xyz
1 x,y,z
2 -x,1/2+y,1/2-z
3 -x,-y,-z
4 x,1/2-y,1/2+z
_cell_length_a                   12.793(2)
_cell_length_b                   7.5861(10)
_cell_length_c                   12.616(2)
_cell_angle_alpha                90
_cell_angle_beta                 94.795(5)
_cell_angle_gamma                90
_cell_volume                     1220.08
_exptl_crystal_colour            colorless
_exptl_crystal_description       prism
_cell_formula_units_Z            4
loop_
_atom_site_label
_atom_site_type_symbol
_atom_site_fract_x
_atom_site_fract_y
_atom_site_fract_z
O1 O 0.43462(4) 0.50625(8) 0.73982(5)
N1 N 0.34892(5) 0.39096(9) 0.74454(5)
C1 C 0.27395(6) 0.43219(10) 0.67414(6)
C2 C 0.17733(6) 0.32364(10) 0.66980(6)
C3 C 0.10492(6) 0.33363(11) 0.58028(7)
H1 H 0.1173 0.4122 0.5240
C4 C 0.01492(6) 0.22913(12) 0.57306(8)
H2 H -0.0333 0.2358 0.5117
C5 C -0.00428(7) 0.11539(13) 0.65546(8)
H3 H -0.0657 0.0444 0.6507
C6 C 0.06662(8) 0.10565(13) 0.74504(8)
H4 H 0.0533 0.0283 0.8016
C7 C 0.15702(7) 0.20857(12) 0.75236(7)
H5 H 0.2052 0.2007 0.8137
C8 C 0.27919(6) 0.58419(11) 0.59932(6)
C9 C 0.23297(7) 0.74420(12) 0.62328(7)
H6 H 0.1991 0.7561 0.6871
C10 C 0.23621(7) 0.88675(11) 0.55395(7)
H7 H 0.2055 0.9962 0.5708
C11 C 0.28460(7) 0.86756(13) 0.46014(7)
H8 H 0.2867 0.9641 0.4124
C12 C 0.33004(7) 0.70742(13) 0.43573(8)
H9 H 0.3625 0.6958 0.3711
C13 C 0.32869(6) 0.56332(11) 0.50492(6)
C14 C 0.37890(8) 0.39049(13) 0.47967(8)
H10 H 0.4040 0.3963 0.4085
H11 H 0.3272 0.2955 0.4819
H12 H 0.4381 0.3672 0.5322
C15 C 0.51462(6) 0.45859(12) 0.82139(7)
H13 H 0.4872 0.4708 0.8912
H14 H 0.5754 0.5363 0.8175
H15 H 0.5359 0.3361 0.8111
C16? C 0.3005(12) 0.5220(18) 0.5702(11)
C17? C 0.3487(13) 0.441(2) 0.4912(11)
H16? H 0.3717 0.3233 0.5027
C18? C 0.3667(11) 0.5196(17) 0.3951(10)
H17? H 0.3960 0.4580 0.3391
C19? C 0.3381(12) 0.6948(18) 0.3880(13)
H18? H 0.3504 0.7572 0.3250
C20? C 0.2942(12) 0.781(2) 0.4649(10)
H19? H 0.2789 0.9031 0.4551
C21? C 0.2688(11) 0.6977(17) 0.5629(10)
C22? C 0.2161(14) 0.779(2) 0.6501(13)
loop_
_geom_bond_atom_site_label_1
_geom_bond_atom_site_label_2
_geom_bond_site_symmetry_1
_geom_bond_site_symmetry_2
O1 N1 1_555 1_555
N1 C1 1_555 1_555
C1 C2 1_555 1_555
C2 C3 1_555 1_555
C3 H1 1_555 1_555
C4 C3 1_555 1_555
H2 C4 1_555 1_555
C5 C4 1_555 1_555
H3 C5 1_555 1_555
C6 C5 1_555 1_555
H4 C6 1_555 1_555
C7 C2 1_555 1_555
H5 C7 1_555 1_555
C8 C1 1_555 1_555
C9 C8 1_555 1_555
H6 C9 1_555 1_555
C10 C9 1_555 1_555
H7 C10 1_555 1_555
C11 C10 1_555 1_555
H8 C11 1_555 1_555
C12 C11 1_555 1_555
H9 C12 1_555 1_555
C13 C8 1_555 1_555
C14 C13 1_555 1_555
H10 C14 1_555 1_555
H11 C14 1_555 1_555
H12 C14 1_555 1_555
C15 O1 1_555 1_555
H13 C15 1_555 1_555
H14 C15 1_555 1_555
H15 C15 1_555 1_555
C6 C7 1_555 1_555
C12 C13 1_555 1_555

#END
