
#######################################################################
#
#                 Cambridge Crystallographic Data Centre
#                                CCDC 
#
#######################################################################
#
# If this CIF has been generated from an entry in the Cambridge 
# Structural Database, then it will include bibliographic, chemical, 
# crystal, experimental, refinement or atomic coordinate data resulting 
# from the CCDC's data processing and validation procedures.
#
#######################################################################

data_HIFYUS
_chemical_formula_moiety         'C17 H15 N1 O2'
_chemical_name_systematic        
N-Methoxy-1-(4-methoxyphenyl)-3-phenylprop-2-yn-1-imine
_symmetry_cell_setting           monoclinic
_symmetry_space_group_name_H-M   'P 21'
_symmetry_Int_Tables_number      4
_space_group_name_Hall           'P 2yb'
loop_
_symmetry_equiv_pos_site_id
_symmetry_equiv_pos_as_xyz
1 x,y,z
2 -x,1/2+y,-z
_cell_length_a                   8.0955(10)
_cell_length_b                   5.7255(6)
_cell_length_c                   14.7233(15)
_cell_angle_alpha                90
_cell_angle_beta                 90.723(5)
_cell_angle_gamma                90
_cell_volume                     682.382
_exptl_crystal_colour            yellow
_exptl_crystal_description       plate
_cell_formula_units_Z            2
loop_
_atom_site_label
_atom_site_type_symbol
_atom_site_fract_x
_atom_site_fract_y
_atom_site_fract_z
O1 O 0.55990(7) 0.65960(11) 0.80006(4)
O2 O 0.10100(7) 0.61158(11) 0.33860(4)
N1 N 0.50292(8) 0.69747(12) 0.71125(4)
C1 C 0.39504(9) 0.54130(13) 0.68664(5)
C2 C 0.32150(9) 0.56249(13) 0.59456(5)
C3 C 0.35451(9) 0.75755(13) 0.54044(5)
H1 H 0.4257 0.8766 0.5630
C4 C 0.28473(9) 0.77959(13) 0.45412(5)
H2 H 0.3083 0.9124 0.4178
C5 C 0.17962(9) 0.60463(13) 0.42119(5)
C6 C 0.14678(9) 0.40839(13) 0.47401(5)
H3 H 0.0762 0.2889 0.4511
C7 C 0.21736(9) 0.38765(13) 0.56016(5)
H4 H 0.1947 0.2537 0.5960
C8 C 0.34569(9) 0.35598(14) 0.74543(5)
C9 C 0.30360(9) 0.20450(14) 0.79733(5)
C10 C 0.25355(9) 0.03103(13) 0.86099(5)
C11 C 0.31743(10) 0.03494(14) 0.94978(5)
H5 H 0.3947 0.1520 0.9673
C12 C 0.26793(10) -0.13239(16) 1.01254(5)
H6 H 0.3121 -0.1302 1.0726
C13 C 0.15371(10) -0.30287(14) 0.98709(5)
H7 H 0.1183 -0.4153 1.0301
C14 C 0.09144(10) -0.30850(15) 0.89866(5)
H8 H 0.0148 -0.4265 0.8814
C15 C 0.14032(9) -0.14289(14) 0.83529(5)
H9 H 0.0973 -0.1476 0.7750
C16 C 0.12694(11) 0.81267(16) 0.28366(5)
H10 H 0.0876 0.9518 0.3156
H11 H 0.0660 0.7955 0.2261
H12 H 0.2451 0.8292 0.2715
C17 C 0.67305(10) 0.84364(16) 0.82169(5)
H13 H 0.7659 0.8390 0.7796
H14 H 0.7144 0.8237 0.8841
H15 H 0.6165 0.9944 0.8162
loop_
_geom_bond_atom_site_label_1
_geom_bond_atom_site_label_2
_geom_bond_site_symmetry_1
_geom_bond_site_symmetry_2
O1 N1 1_555 1_555
O2 C5 1_555 1_555
N1 C1 1_555 1_555
C1 C2 1_555 1_555
C2 C3 1_555 1_555
C3 H1 1_555 1_555
C4 C3 1_555 1_555
H2 C4 1_555 1_555
C5 C4 1_555 1_555
C6 C5 1_555 1_555
H3 C6 1_555 1_555
C7 C2 1_555 1_555
H4 C7 1_555 1_555
C8 C1 1_555 1_555
C9 C8 1_555 1_555
C10 C9 1_555 1_555
C11 C10 1_555 1_555
H5 C11 1_555 1_555
C12 C11 1_555 1_555
H6 C12 1_555 1_555
C13 C12 1_555 1_555
H7 C13 1_555 1_555
C14 C13 1_555 1_555
H8 C14 1_555 1_555
C15 C10 1_555 1_555
H9 C15 1_555 1_555
C16 O2 1_555 1_555
H10 C16 1_555 1_555
H11 C16 1_555 1_555
H12 C16 1_555 1_555
C17 O1 1_555 1_555
H13 C17 1_555 1_555
H14 C17 1_555 1_555
H15 C17 1_555 1_555
C6 C7 1_555 1_555
C14 C15 1_555 1_555

#END
