
#######################################################################
#
#                 Cambridge Crystallographic Data Centre
#                                CCDC 
#
#######################################################################
#
# If this CIF has been generated from an entry in the Cambridge 
# Structural Database, then it will include bibliographic, chemical, 
# crystal, experimental, refinement or atomic coordinate data resulting 
# from the CCDC's data processing and validation procedures.
#
#######################################################################

data_HIFYAY
_chemical_formula_moiety         'C17 H19 N1 O1'
_chemical_name_systematic        
N-Isopropoxy-1-(4-methylphenyl)-1-phenylmethanimine
_symmetry_cell_setting           orthorhombic
_symmetry_space_group_name_H-M   'P n a 21'
_symmetry_Int_Tables_number      33
_space_group_name_Hall           'P 2c -2n'
loop_
_symmetry_equiv_pos_site_id
_symmetry_equiv_pos_as_xyz
1 x,y,z
2 -x,-y,1/2+z
3 1/2-x,1/2+y,1/2+z
4 1/2+x,1/2-y,z
_cell_length_a                   17.454(5)
_cell_length_b                   5.917(2)
_cell_length_c                   13.841(5)
_cell_angle_alpha                90
_cell_angle_beta                 90
_cell_angle_gamma                90
_cell_volume                     1429.43
_exptl_crystal_colour            colorless
_cell_formula_units_Z            4
loop_
_atom_site_label
_atom_site_type_symbol
_atom_site_fract_x
_atom_site_fract_y
_atom_site_fract_z
O1 O 0.42360(7) 0.9056(2) 0.56837(10)
N1 N 0.39097(8) 0.7432(2) 0.50608(12)
C1 C 0.44284(10) 0.6362(3) 0.45778(14)
C2 C 0.41556(10) 0.4536(3) 0.39245(14)
C3 C 0.45777(10) 0.3929(3) 0.31085(16)
H1 H 0.5039 0.4712 0.2966
C4 C 0.43355(10) 0.2196(3) 0.24986(14)
H2 H 0.4624 0.1842 0.1937
C5 C 0.36711(11) 0.0977(3) 0.27085(15)
C6 C 0.32468(11) 0.1596(3) 0.35218(15)
H3 H 0.2790 0.0795 0.3670
C7 C 0.34780(10) 0.3356(3) 0.41184(14)
H4 H 0.3174 0.3761 0.4661
C8 C 0.52687(10) 0.6778(3) 0.46607(13)
C9 C 0.55913(11) 0.8837(3) 0.43815(14)
H5 H 0.5272 1.0018 0.4148
C10 C 0.63790(10) 0.9160(3) 0.44441(15)
H6 H 0.6597 1.0551 0.4240
C11 C 0.68489(10) 0.7461(3) 0.48035(14)
H7 H 0.7387 0.7687 0.4849
C12 C 0.65252(10) 0.5431(3) 0.50952(16)
H8 H 0.6842 0.4276 0.5355
C13 C 0.57438(10) 0.5074(3) 0.50111(16)
H9 H 0.5531 0.3660 0.5193
C14 C 0.34252(12) -0.0984(3) 0.20853(17)
H10 H 0.3825 -0.1306 0.1607
H11 H 0.2947 -0.0600 0.1752
H12 H 0.3344 -0.2319 0.2492
C15 C 0.36307(10) 1.0055(3) 0.62644(14)
H13 H 0.3208 1.0579 0.5832
C16 C 0.33160(13) 0.8364(3) 0.69855(16)
H14 H 0.3124 0.7033 0.6640
H15 H 0.2897 0.9059 0.7351
H16 H 0.3724 0.7906 0.7431
C17 C 0.40025(11) 1.2085(3) 0.67422(15)
H17 H 0.4447 1.1588 0.7119
H18 H 0.3632 1.2820 0.7171
H19 H 0.4169 1.3157 0.6245
loop_
_geom_bond_atom_site_label_1
_geom_bond_atom_site_label_2
_geom_bond_site_symmetry_1
_geom_bond_site_symmetry_2
O1 N1 1_555 1_555
N1 C1 1_555 1_555
C1 C2 1_555 1_555
C2 C3 1_555 1_555
C3 H1 1_555 1_555
C4 C3 1_555 1_555
H2 C4 1_555 1_555
C5 C4 1_555 1_555
C6 C5 1_555 1_555
H3 C6 1_555 1_555
C7 C2 1_555 1_555
H4 C7 1_555 1_555
C8 C1 1_555 1_555
C9 C8 1_555 1_555
H5 C9 1_555 1_555
C10 C9 1_555 1_555
H6 C10 1_555 1_555
C11 C10 1_555 1_555
H7 C11 1_555 1_555
C12 C11 1_555 1_555
H8 C12 1_555 1_555
C13 C8 1_555 1_555
H9 C13 1_555 1_555
C14 C5 1_555 1_555
H10 C14 1_555 1_555
H11 C14 1_555 1_555
H12 C14 1_555 1_555
C15 O1 1_555 1_555
H13 C15 1_555 1_555
C16 C15 1_555 1_555
H14 C16 1_555 1_555
H15 C16 1_555 1_555
H16 C16 1_555 1_555
C17 C15 1_555 1_555
H17 C17 1_555 1_555
H18 C17 1_555 1_555
H19 C17 1_555 1_555
C6 C7 1_555 1_555
C12 C13 1_555 1_555

#END
