
#######################################################################
#
#                 Cambridge Crystallographic Data Centre
#                                CCDC 
#
#######################################################################
#
# If this CIF has been generated from an entry in the Cambridge 
# Structural Database, then it will include bibliographic, chemical, 
# crystal, experimental, refinement or atomic coordinate data resulting 
# from the CCDC's data processing and validation procedures.
#
#######################################################################

data_HIFYIH
_chemical_formula_moiety         'C14 H9 Cl1 N4 O1 S1'
_chemical_name_systematic        
1-(4-chlorophenyl)-3-methyl-1H-pyrazolo[4',3':5,6][1,4]oxathiino[2,3-b]pyrazine
_symmetry_cell_setting           monoclinic
_symmetry_space_group_name_H-M   'P 21/n'
_symmetry_Int_Tables_number      14
_space_group_name_Hall           '-P 2yn'
loop_
_symmetry_equiv_pos_site_id
_symmetry_equiv_pos_as_xyz
1 x,y,z
2 1/2-x,1/2+y,1/2-z
3 -x,-y,-z
4 1/2+x,1/2-y,1/2+z
_cell_length_a                   6.877(3)
_cell_length_b                   17.060(7)
_cell_length_c                   23.960(10)
_cell_angle_alpha                90
_cell_angle_beta                 97.017(9)
_cell_angle_gamma                90
_cell_volume                     2789.97
_exptl_crystal_colour            yellow
_exptl_crystal_description       block
_cell_formula_units_Z            8
loop_
_atom_site_label
_atom_site_type_symbol
_atom_site_fract_x
_atom_site_fract_y
_atom_site_fract_z
Cl1 Cl 1.0667(6) 0.6840(2) 0.43340(13)
S1 S 0.8413(4) 0.86819(19) 0.05832(12)
O1 O 0.8807(12) 0.8774(5) 0.1938(3)
N1 N 0.8849(14) 1.0169(6) 0.0799(4)
N2 N 0.9155(13) 1.0046(7) 0.1956(4)
N3 N 0.8641(13) 0.6785(6) 0.1536(4)
N4 N 0.8709(12) 0.7360(5) 0.1920(3)
C1 C 1.0019(16) 0.6987(7) 0.3624(4)
C2 C 0.8936(17) 0.7630(7) 0.3448(5)
H1 H 0.8547 0.7985 0.3707
C3 C 0.8428(16) 0.7746(7) 0.2879(4)
H2 H 0.7618 0.8162 0.2754
C4 C 0.9104(14) 0.7255(6) 0.2503(4)
C5 C 0.8919(14) 0.9434(7) 0.1630(4)
C6 C 0.9323(17) 1.0719(8) 0.1692(5)
H3 H 0.9584 1.1170 0.1906
C7 C 0.9130(17) 1.0783(8) 0.1121(6)
H4 H 0.9200 1.1276 0.0958
C8 C 0.8741(14) 0.9473(7) 0.1042(5)
C9 C 0.8491(15) 0.7136(8) 0.1048(4)
C10 C 0.8340(16) 0.6657(6) 0.0527(4)
H5 H 0.9068 0.6180 0.0599
H6 H 0.8864 0.6946 0.0236
H7 H 0.6989 0.6535 0.0409
C11 C 1.0160(14) 0.6599(6) 0.2680(4)
H8 H 1.0558 0.6250 0.2418
C12 C 1.0628(16) 0.6459(8) 0.3249(5)
H9 H 1.1342 0.6017 0.3376
C13 C 0.8517(13) 0.7954(5) 0.1084(4)
C14 C 0.8676(13) 0.8055(5) 0.1642(4)
Cl2 Cl -0.0825(7) 0.4322(3) 0.06109(14)
S2 S 0.1722(5) 0.25878(19) 0.44019(12)
O2 O 0.1314(12) 0.2456(5) 0.3044(3)
N5 N 0.1336(15) 0.1094(6) 0.4214(4)
N6 N 0.0941(13) 0.1146(5) 0.3063(4)
N7 N 0.1201(12) 0.4447(5) 0.3407(4)
N8 N 0.1178(11) 0.3799(5) 0.3033(4)
C15 C -0.0141(18) 0.4207(7) 0.1323(5)
C16 C -0.0773(16) 0.4704(6) 0.1701(5)
H10 H -0.1530 0.5133 0.1571
C17 C -0.0345(14) 0.4601(6) 0.2258(5)
H11 H -0.0810 0.4949 0.2510
C18 C 0.0802(14) 0.3967(6) 0.2449(4)
C19 C 0.1369(14) 0.3125(8) 0.3333(4)
C20 C 0.1212(14) 0.1780(6) 0.3364(4)
C21 C 0.1395(14) 0.1778(7) 0.3955(4)
C22 C 0.111(2) 0.0446(7) 0.3908(6)
H12 H 0.1101 -0.0034 0.4091
C23 C 0.1417(14) 0.4125(6) 0.3924(4)
C24 C 0.1485(17) 0.4624(8) 0.4426(5)
H13 H 0.2415 0.5039 0.4402
H14 H 0.1872 0.4315 0.4756
H15 H 0.0211 0.4844 0.4448
C25 C 0.1492(13) 0.3302(8) 0.3878(4)
C26 C 0.0901(17) 0.0459(6) 0.3320(6)
H16 H 0.0735 -0.0003 0.3114
C27 C 0.1510(16) 0.3461(6) 0.2068(4)
H17 H 0.2325 0.3045 0.2192
C28 C 0.1001(17) 0.3581(7) 0.1516(5)
H18 H 0.1432 0.3233 0.1258
loop_
_geom_bond_atom_site_label_1
_geom_bond_atom_site_label_2
_geom_bond_site_symmetry_1
_geom_bond_site_symmetry_2
Cl1 C1 1_555 1_555
S1 C8 1_555 1_555
O1 C5 1_555 1_555
N1 C7 1_555 1_555
N2 C5 1_555 1_555
N3 N4 1_555 1_555
N4 C4 1_555 1_555
C1 C2 1_555 1_555
C2 H1 1_555 1_555
C3 C2 1_555 1_555
H2 C3 1_555 1_555
C4 C3 1_555 1_555
C5 C8 1_555 1_555
C6 N2 1_555 1_555
H3 C6 1_555 1_555
C7 C6 1_555 1_555
H4 C7 1_555 1_555
C8 N1 1_555 1_555
C9 N3 1_555 1_555
C10 C9 1_555 1_555
H5 C10 1_555 1_555
H6 C10 1_555 1_555
H7 C10 1_555 1_555
C11 C4 1_555 1_555
H8 C11 1_555 1_555
C12 C1 1_555 1_555
H9 C12 1_555 1_555
C13 S1 1_555 1_555
C14 O1 1_555 1_555
Cl2 C15 1_555 1_555
S2 C21 1_555 1_555
O2 C19 1_555 1_555
N5 C21 1_555 1_555
N6 C20 1_555 1_555
N7 N8 1_555 1_555
N8 C18 1_555 1_555
C15 C16 1_555 1_555
C16 H10 1_555 1_555
C17 C16 1_555 1_555
H11 C17 1_555 1_555
C18 C17 1_555 1_555
C19 N8 1_555 1_555
C20 O2 1_555 1_555
C21 C20 1_555 1_555
C22 N5 1_555 1_555
H12 C22 1_555 1_555
C23 N7 1_555 1_555
C24 C23 1_555 1_555
H13 C24 1_555 1_555
H14 C24 1_555 1_555
H15 C24 1_555 1_555
C25 S2 1_555 1_555
C26 N6 1_555 1_555
H16 C26 1_555 1_555
C27 C18 1_555 1_555
H17 C27 1_555 1_555
C28 C15 1_555 1_555
H18 C28 1_555 1_555
N4 C14 1_555 1_555
C9 C13 1_555 1_555
C11 C12 1_555 1_555
C13 C14 1_555 1_555
C19 C25 1_555 1_555
C22 C26 1_555 1_555
C23 C25 1_555 1_555
C27 C28 1_555 1_555

#END
