
#######################################################################
#
#                 Cambridge Crystallographic Data Centre
#                                CCDC 
#
#######################################################################
#
# If this CIF has been generated from an entry in the Cambridge 
# Structural Database, then it will include bibliographic, chemical, 
# crystal, experimental, refinement or atomic coordinate data resulting 
# from the CCDC's data processing and validation procedures.
#
#######################################################################

data_HIFZAZ
_chemical_formula_moiety         'C13 H15 N1 O2'
_chemical_name_systematic        
5-(Methoxyimino)-2-methyl-5-phenylpent-3-yn-2-ol
_symmetry_cell_setting           monoclinic
_symmetry_space_group_name_H-M   'P 21/c'
_symmetry_Int_Tables_number      14
_space_group_name_Hall           '-P 2ybc'
loop_
_symmetry_equiv_pos_site_id
_symmetry_equiv_pos_as_xyz
1 x,y,z
2 -x,1/2+y,1/2-z
3 -x,-y,-z
4 x,1/2-y,1/2+z
_cell_length_a                   6.063(2)
_cell_length_b                   25.888(9)
_cell_length_c                   23.133(7)
_cell_angle_alpha                90
_cell_angle_beta                 95.663(10)
_cell_angle_gamma                90
_cell_volume                     3613.21
_exptl_crystal_colour            colorless
_exptl_crystal_description       lath
_cell_formula_units_Z            12
loop_
_atom_site_label
_atom_site_type_symbol
_atom_site_fract_x
_atom_site_fract_y
_atom_site_fract_z
O1 O 0.6826(3) 0.31429(9) 0.56777(9)
O2 O 0.1840(3) 0.31565(9) 0.76427(9)
H1 H 0.2992 0.2999 0.7776
N1 N 0.5938(4) 0.26460(11) 0.55924(11)
C1 C 0.4375(5) 0.25679(13) 0.59241(12)
C2 C 0.3335(5) 0.20482(13) 0.59050(13)
C3 C 0.4398(5) 0.16280(13) 0.56798(13)
H2 H 0.5749 0.1679 0.5512
C4 C 0.3516(6) 0.11375(14) 0.56972(14)
H3 H 0.4251 0.0854 0.5539
C5 C 0.1545(6) 0.10584(15) 0.59473(13)
H4 H 0.0960 0.0720 0.5974
C6 C 0.0451(5) 0.14759(14) 0.61554(13)
H5 H -0.0922 0.1426 0.6313
C7 C 0.1338(5) 0.19675(14) 0.61368(13)
H6 H 0.0575 0.2252 0.6284
C8 C 0.3688(5) 0.29382(13) 0.63294(14)
C9 C 0.3094(5) 0.32032(14) 0.67093(14)
C10 C 0.2370(5) 0.35067(14) 0.71980(13)
C11 C 0.0237(5) 0.37961(14) 0.69998(15)
H7 H -0.0916 0.3548 0.6861
H8 H 0.0507 0.4034 0.6685
H9 H -0.0250 0.3992 0.7327
C12 C 0.4214(5) 0.38755(14) 0.74372(15)
H10 H 0.3706 0.4078 0.7757
H11 H 0.4587 0.4109 0.7128
H12 H 0.5529 0.3676 0.7580
C13 C 0.8601(5) 0.32018(15) 0.53170(14)
H13 H 0.9766 0.2949 0.5432
H14 H 0.9211 0.3552 0.5362
H15 H 0.8039 0.3145 0.4910
O3 O 1.5690(3) 0.44566(9) 0.95148(9)
O4 O 0.8840(3) 0.31355(9) 0.84527(9)
H16 H 0.9768 0.3148 0.8206
N2 N 1.4787(4) 0.48034(11) 0.90949(11)
C14 C 1.2960(5) 0.46226(13) 0.88300(13)
C15 C 1.1818(5) 0.49490(13) 0.83671(13)
C16 C 1.2922(5) 0.53589(14) 0.81322(13)
H17 H 1.4401 0.5438 0.8280
C17 C 1.1879(6) 0.56489(14) 0.76878(14)
H18 H 1.2644 0.5928 0.7530
C18 C 0.9728(6) 0.55384(15) 0.74689(14)
H19 H 0.9025 0.5738 0.7159
C19 C 0.8615(6) 0.51414(15) 0.77000(14)
H20 H 0.7128 0.5069 0.7553
C20 C 0.9646(5) 0.48429(14) 0.81485(13)
H21 H 0.8865 0.4566 0.8306
C21 C 1.2021(5) 0.41336(14) 0.89537(13)
C22 C 1.1104(5) 0.37305(14) 0.90066(13)
C23 C 0.9948(5) 0.32288(14) 0.90254(13)
C24 C 1.1594(5) 0.27937(13) 0.91841(13)
H22 H 1.2725 0.2790 0.8909
H23 H 1.0809 0.2462 0.9167
H24 H 1.2304 0.2849 0.9578
C25 C 0.8147(5) 0.32485(13) 0.94374(13)
H25 H 0.7382 0.2915 0.9434
H26 H 0.7081 0.3521 0.9313
H27 H 0.8816 0.3323 0.9832
C26 C 1.7733(5) 0.46731(14) 0.97769(14)
H28 H 1.7447 0.5014 0.9937
H29 H 1.8783 0.4707 0.9483
H30 H 1.8363 0.4446 1.0089
O5 O 1.1527(3) 0.14793(9) 0.91795(9)
O6 O 0.5266(3) 0.25468(9) 0.81379(9)
H31 H 0.6444 0.2706 0.8242
N3 N 1.0523(4) 0.10069(11) 0.92722(11)
C27 C 0.8630(5) 0.09663(13) 0.89592(13)
C28 C 0.7416(5) 0.04700(13) 0.89962(12)
C29 C 0.8402(5) 0.00503(14) 0.92923(14)
H32 H 0.9884 0.0079 0.9466
C30 C 0.7267(6) -0.04082(15) 0.93395(15)
H33 H 0.7965 -0.0691 0.9546
C31 C 0.5102(6) -0.04550(15) 0.90845(14)
H34 H 0.4311 -0.0769 0.9116
C32 C 0.4114(6) -0.00414(15) 0.87858(14)
H35 H 0.2637 -0.0073 0.8610
C33 C 0.5246(5) 0.04196(14) 0.87388(14)
H36 H 0.4545 0.0701 0.8531
C34 C 0.7695(5) 0.13763(14) 0.85924(13)
C35 C 0.6863(5) 0.17054(14) 0.82866(14)
C36 C 0.5777(5) 0.20761(13) 0.78596(13)
C37 C 0.7304(5) 0.21806(14) 0.73833(13)
H37 H 0.8680 0.2340 0.7555
H38 H 0.6562 0.2414 0.7093
H39 H 0.7647 0.1854 0.7197
C38 C 0.3553(5) 0.18509(14) 0.76114(14)
H40 H 0.2783 0.2100 0.7344
H41 H 0.2645 0.1777 0.7929
H42 H 0.3807 0.1531 0.7401
C39 C 1.3465(5) 0.15271(14) 0.95821(14)
H43 H 1.4405 0.1222 0.9554
H44 H 1.3026 0.1555 0.9977
H45 H 1.4289 0.1837 0.9490
loop_
_geom_bond_atom_site_label_1
_geom_bond_atom_site_label_2
_geom_bond_site_symmetry_1
_geom_bond_site_symmetry_2
O1 N1 1_555 1_555
O2 H1 1_555 1_555
N1 C1 1_555 1_555
C1 C2 1_555 1_555
C2 C3 1_555 1_555
C3 H2 1_555 1_555
C4 C3 1_555 1_555
H3 C4 1_555 1_555
C5 C4 1_555 1_555
H4 C5 1_555 1_555
C6 C5 1_555 1_555
H5 C6 1_555 1_555
C7 C2 1_555 1_555
H6 C7 1_555 1_555
C8 C1 1_555 1_555
C9 C8 1_555 1_555
C10 O2 1_555 1_555
C11 C10 1_555 1_555
H7 C11 1_555 1_555
H8 C11 1_555 1_555
H9 C11 1_555 1_555
C12 C10 1_555 1_555
H10 C12 1_555 1_555
H11 C12 1_555 1_555
H12 C12 1_555 1_555
C13 O1 1_555 1_555
H13 C13 1_555 1_555
H14 C13 1_555 1_555
H15 C13 1_555 1_555
O3 N2 1_555 1_555
O4 H16 1_555 1_555
N2 C14 1_555 1_555
C14 C15 1_555 1_555
C15 C16 1_555 1_555
C16 H17 1_555 1_555
C17 C16 1_555 1_555
H18 C17 1_555 1_555
C18 C17 1_555 1_555
H19 C18 1_555 1_555
C19 C18 1_555 1_555
H20 C19 1_555 1_555
C20 C15 1_555 1_555
H21 C20 1_555 1_555
C21 C14 1_555 1_555
C22 C21 1_555 1_555
C23 O4 1_555 1_555
C24 C23 1_555 1_555
H22 C24 1_555 1_555
H23 C24 1_555 1_555
H24 C24 1_555 1_555
C25 C23 1_555 1_555
H25 C25 1_555 1_555
H26 C25 1_555 1_555
H27 C25 1_555 1_555
C26 O3 1_555 1_555
H28 C26 1_555 1_555
H29 C26 1_555 1_555
H30 C26 1_555 1_555
O5 N3 1_555 1_555
O6 H31 1_555 1_555
N3 C27 1_555 1_555
C27 C28 1_555 1_555
C28 C29 1_555 1_555
C29 H32 1_555 1_555
C30 C29 1_555 1_555
H33 C30 1_555 1_555
C31 C30 1_555 1_555
H34 C31 1_555 1_555
C32 C31 1_555 1_555
H35 C32 1_555 1_555
C33 C28 1_555 1_555
H36 C33 1_555 1_555
C34 C27 1_555 1_555
C35 C34 1_555 1_555
C36 O6 1_555 1_555
C37 C36 1_555 1_555
H37 C37 1_555 1_555
H38 C37 1_555 1_555
H39 C37 1_555 1_555
C38 C36 1_555 1_555
H40 C38 1_555 1_555
H41 C38 1_555 1_555
H42 C38 1_555 1_555
C39 O5 1_555 1_555
H43 C39 1_555 1_555
H44 C39 1_555 1_555
H45 C39 1_555 1_555
C6 C7 1_555 1_555
C9 C10 1_555 1_555
C19 C20 1_555 1_555
C22 C23 1_555 1_555
C32 C33 1_555 1_555
C35 C36 1_555 1_555

#END
