
#######################################################################
#
#                 Cambridge Crystallographic Data Centre
#                                CCDC 
#
#######################################################################
#
# If this CIF has been generated from an entry in the Cambridge 
# Structural Database, then it will include bibliographic, chemical, 
# crystal, experimental, refinement or atomic coordinate data resulting 
# from the CCDC's data processing and validation procedures.
#
#######################################################################

data_HIGBOR
_chemical_formula_moiety         'C25 H20 N2 O1'
_chemical_name_systematic        
2-(4-methylphenyl)-3-[(quinolin-2-yl)methyl]-2,3-dihydro-1H-isoindol-1-one
_symmetry_cell_setting           monoclinic
_symmetry_space_group_name_H-M   'C 2/c'
_symmetry_Int_Tables_number      15
_space_group_name_Hall           '-C 2yn'
loop_
_symmetry_equiv_pos_site_id
_symmetry_equiv_pos_as_xyz
1 x,y,z
2 -x,y,1/2-z
3 1/2+x,1/2+y,z
4 1/2-x,1/2+y,1/2-z
5 -x,-y,-z
6 x,-y,1/2+z
7 1/2-x,1/2-y,-z
8 1/2+x,1/2-y,1/2+z
_cell_length_a                   27.9767(11)
_cell_length_b                   6.2247(2)
_cell_length_c                   23.2885(9)
_cell_angle_alpha                90
_cell_angle_beta                 114.4630(10)
_cell_angle_gamma                90
_cell_volume                     3691.54
_exptl_crystal_colour            colorless
_exptl_crystal_description       block
_chemical_melting_point          '441 K'
_cell_formula_units_Z            8
_exptl_crystal_recrystallization_method 
'Re-crystallisation from solvent:   Methanol'
loop_
_atom_site_label
_atom_site_type_symbol
_atom_site_fract_x
_atom_site_fract_y
_atom_site_fract_z
O1 O 0.56637(4) 0.12948(15) 0.30429(5)
N1 N 0.58722(4) 0.48310(17) 0.29168(5)
N2 N 0.75328(4) 0.66409(18) 0.34919(5)
C1 C 0.64542(5) 0.5503(2) 0.39512(6)
C2 C 0.55377(5) 0.5143(2) 0.22681(6)
C3 C 0.58974(5) 0.2975(2) 0.32514(6)
C4 C 0.62681(5) 0.3424(2) 0.39082(6)
C5 C 0.70522(5) 0.5920(2) 0.31569(6)
C6 C 0.53160(5) 0.7156(2) 0.20577(6)
H1 H 0.5397 0.8325 0.2345
C7 C 0.78783(5) 0.3171(2) 0.33403(6)
C8 C 0.62059(5) 0.6570(2) 0.33137(6)
H2 H 0.5977 0.7778 0.3333
C9 C 0.79475(5) 0.5299(2) 0.35798(6)
C10 C 0.54259(5) 0.3456(2) 0.18380(6)
H3 H 0.5581 0.2084 0.1973
C11 C 0.73584(5) 0.2469(2) 0.29809(6)
H4 H 0.7294 0.1060 0.2809
C12 C 0.69502(5) 0.3828(2) 0.28831(6)
H5 H 0.6600 0.3385 0.2634
C13 C 0.66074(5) 0.7434(2) 0.30744(6)
H6 H 0.6419 0.7782 0.2621
H7 H 0.6758 0.8788 0.3300
C14 C 0.49773(5) 0.7453(2) 0.14293(6)
H8 H 0.4826 0.8829 0.1292
C15 C 0.50869(5) 0.3794(2) 0.12103(6)
H9 H 0.5012 0.2635 0.0920
C16 C 0.48547(5) 0.5778(2) 0.09949(6)
C17 C 0.83236(6) 0.1859(2) 0.34664(6)
H10 H 0.8279 0.0422 0.3315
C18 C 0.64278(6) 0.2073(2) 0.44279(7)
H11 H 0.6293 0.0655 0.4393
C19 C 0.68165(5) 0.6297(2) 0.45245(6)
H12 H 0.6948 0.7719 0.4558
C20 C 0.69804(6) 0.4950(3) 0.50470(7)
H13 H 0.7226 0.5464 0.5444
C21 C 0.84642(6) 0.6061(2) 0.39330(7)
H14 H 0.8518 0.7478 0.4100
C22 C 0.67900(6) 0.2858(3) 0.49983(7)
H15 H 0.6910 0.1960 0.5361
C23 C 0.88177(6) 0.2639(3) 0.38039(7)
H16 H 0.9115 0.1753 0.3883
C24 C 0.88861(6) 0.4759(3) 0.40344(7)
H17 H 0.9231 0.5296 0.4264
C25 C 0.44847(6) 0.6119(3) 0.03127(7)
H18 H 0.4252 0.7333 0.0280
H19 H 0.4274 0.4820 0.0149
H20 H 0.4688 0.6425 0.0066
loop_
_geom_bond_atom_site_label_1
_geom_bond_atom_site_label_2
_geom_bond_site_symmetry_1
_geom_bond_site_symmetry_2
O1 C3 1_555 1_555
N1 C2 1_555 1_555
N2 C5 1_555 1_555
C1 C4 1_555 1_555
C2 C6 1_555 1_555
C3 N1 1_555 1_555
C4 C3 1_555 1_555
C5 C12 1_555 1_555
C6 H1 1_555 1_555
C7 C9 1_555 1_555
C8 N1 1_555 1_555
H2 C8 1_555 1_555
C9 N2 1_555 1_555
C10 C2 1_555 1_555
H3 C10 1_555 1_555
C11 C7 1_555 1_555
H4 C11 1_555 1_555
C12 C11 1_555 1_555
H5 C12 1_555 1_555
C13 C5 1_555 1_555
H6 C13 1_555 1_555
H7 C13 1_555 1_555
C14 C6 1_555 1_555
H8 C14 1_555 1_555
C15 C10 1_555 1_555
H9 C15 1_555 1_555
C16 C14 1_555 1_555
C17 C7 1_555 1_555
H10 C17 1_555 1_555
C18 C4 1_555 1_555
H11 C18 1_555 1_555
C19 C1 1_555 1_555
H12 C19 1_555 1_555
C20 C19 1_555 1_555
H13 C20 1_555 1_555
C21 C9 1_555 1_555
H14 C21 1_555 1_555
C22 C18 1_555 1_555
H15 C22 1_555 1_555
C23 C17 1_555 1_555
H16 C23 1_555 1_555
C24 C21 1_555 1_555
H17 C24 1_555 1_555
C25 C16 1_555 1_555
H18 C25 1_555 1_555
H19 C25 1_555 1_555
H20 C25 1_555 1_555
C1 C8 1_555 1_555
C8 C13 1_555 1_555
C15 C16 1_555 1_555
C20 C22 1_555 1_555
C23 C24 1_555 1_555

#END
