
#######################################################################
#
#                 Cambridge Crystallographic Data Centre
#                                CCDC 
#
#######################################################################
#
# If this CIF has been generated from an entry in the Cambridge 
# Structural Database, then it will include bibliographic, chemical, 
# crystal, experimental, refinement or atomic coordinate data resulting 
# from the CCDC's data processing and validation procedures.
#
#######################################################################

data_HIGDAC
_chemical_formula_moiety         'C2 H7 F1 N1 O3 P1'
_chemical_name_systematic        '2-Amino-1-fluoroethylphosphonic acid'
_symmetry_cell_setting           orthorhombic
_symmetry_space_group_name_H-M   'P b c a'
_symmetry_Int_Tables_number      61
_space_group_name_Hall           '-P 2ac 2ab'
loop_
_symmetry_equiv_pos_site_id
_symmetry_equiv_pos_as_xyz
1 x,y,z
2 1/2-x,-y,1/2+z
3 1/2+x,1/2-y,-z
4 -x,1/2+y,1/2-z
5 -x,-y,-z
6 1/2+x,y,1/2-z
7 1/2-x,1/2+y,z
8 x,1/2-y,1/2+z
_cell_length_a                   7.533(4)
_cell_length_b                   12.052(3)
_cell_length_c                   12.263(6)
_cell_angle_alpha                90
_cell_angle_beta                 90
_cell_angle_gamma                90
_cell_volume                     1113.33
_exptl_crystal_colour            colorless
_cell_formula_units_Z            8
loop_
_atom_site_label
_atom_site_type_symbol
_atom_site_fract_x
_atom_site_fract_y
_atom_site_fract_z
P1 P 0.17523(7) 0.36428(5) 0.65278(4)
F1 F 0.4774(2) 0.38427(14) 0.55011(14)
O1 O 0.2433(2) 0.43353(12) 0.74627(12)
O2 O -0.0155(2) 0.39924(15) 0.61836(14)
O3 O 0.1898(2) 0.24083(13) 0.66746(12)
N1 N 0.3555(3) 0.3643(2) 0.33502(15)
C1 C 0.2992(3) 0.4016(2) 0.5308(2)
H1 H 0.2819(3) 0.4794(2) 0.5174(2)
C2 C 0.2412(3) 0.3390(2) 0.4313(2)
H3 H -0.0883(50) 0.4130(29) 0.6714(28)
H4 H 0.2482(30) 0.2585(20) 0.4466(18)
H5 H 0.1079(34) 0.3574(17) 0.4173(19)
H6 H 0.4670(40) 0.3380(21) 0.3429(20)
H7 H 0.3090(39) 0.3244(22) 0.2756(25)
H8 H 0.3469(31) 0.4358(21) 0.3165(18)
F2? F 0.3148(6) 0.5095(4) 0.5226(4)
H2? H 0.4179(3) 0.3764(2) 0.5446(2)
loop_
_geom_bond_atom_site_label_1
_geom_bond_atom_site_label_2
_geom_bond_site_symmetry_1
_geom_bond_site_symmetry_2
P1 O1 1_555 1_555
F1 C1 1_555 1_555
O2 P1 1_555 1_555
O3 P1 1_555 1_555
N1 C2 1_555 1_555
C1 P1 1_555 1_555
H1 C1 1_555 1_555
C2 C1 1_555 1_555
H3 O2 1_555 1_555
H4 C2 1_555 1_555
H5 C2 1_555 1_555
H6 N1 1_555 1_555
H7 N1 1_555 1_555
H8 N1 1_555 1_555

#END
