
#######################################################################
#
#                 Cambridge Crystallographic Data Centre
#                                CCDC 
#
#######################################################################
#
# If this CIF has been generated from an entry in the Cambridge 
# Structural Database, then it will include bibliographic, chemical, 
# crystal, experimental, refinement or atomic coordinate data resulting 
# from the CCDC's data processing and validation procedures.
#
#######################################################################

data_HIGGIN
_chemical_formula_moiety         'C17 H22 N2 O5 S1'
_chemical_name_systematic        '(1S,2S) \b,\b-Dimethylcyclolanthionine'
_symmetry_cell_setting           monoclinic
_symmetry_space_group_name_H-M   'P 21'
_symmetry_Int_Tables_number      4
_space_group_name_Hall           'P 2yb'
loop_
_symmetry_equiv_pos_site_id
_symmetry_equiv_pos_as_xyz
1 x,y,z
2 -x,1/2+y,-z
_cell_length_a                   6.228(3)
_cell_length_b                   10.067(5)
_cell_length_c                   14.548(6)
_cell_angle_alpha                90
_cell_angle_beta                 90.89(3)
_cell_angle_gamma                90
_cell_volume                     912.01
_exptl_crystal_colour            colorless
_chemical_melting_point          140deg.C
_cell_formula_units_Z            2
loop_
_atom_site_label
_atom_site_type_symbol
_atom_site_fract_x
_atom_site_fract_y
_atom_site_fract_z
S1 S 0.57170(11) 0.0000 0.49103(6)
O1 O 0.0429(7) -0.1023(3) 0.6988(2)
O2 O -0.0167(4) 0.2787(3) 0.5195(2)
O3 O 0.1456(5) -0.1013(3) 0.2455(2)
O4 O 0.1297(5) 0.1179(3) 0.2171(2)
N1 N 0.0711(5) 0.1123(3) 0.6515(2)
H1 H 0.0579(5) 0.1973(3) 0.6698(2)
N2 N 0.1205(4) 0.1564(3) 0.4050(2)
H2 H 0.0713(4) 0.2170(3) 0.3643(2)
C1 C -0.0029(8) 0.0133(4) 0.7044(3)
C2 C 0.1721(5) 0.0816(4) 0.5645(2)
H3 H 0.1385(5) -0.0071(4) 0.5449(2)
C3 C 0.4176(5) 0.0991(4) 0.5703(2)
H4 H 0.4493(5) 0.1910(4) 0.5592(2)
H5 H 0.4650(5) 0.0787(4) 0.6318(2)
C4 C 0.4818(5) 0.0531(4) 0.3761(2)
C5 C 0.5924(6) -0.0480(4) 0.3124(2)
H6 H 0.5561(6) -0.0286(4) 0.2495(2)
H7 H 0.7454(6) -0.0436(4) 0.3210(2)
H8 H 0.5429(6) -0.1355(4) 0.3275(2)
C6 C 0.5556(6) 0.1938(4) 0.3535(2)
H9 H 0.5059(6) 0.2177(4) 0.2929(2)
H10 H 0.4954(6) 0.2534(4) 0.3976(2)
H11 H 0.7095(6) 0.1994(4) 0.3564(2)
C7 C 0.2308(4) 0.0409(3) 0.3687(2)
H12 H 0.1896(4) -0.0349(3) 0.4044(2)
C8 C 0.1614(5) 0.0270(3) 0.2685(2)
C9 C 0.0999(10) -0.1269(5) 0.1491(3)
H13 H 0.0891(10) -0.2210(5) 0.1391(3)
H14 H -0.0339(10) -0.0853(5) 0.1324(3)
H15 H 0.2124(10) -0.0913(5) 0.1120(3)
C10 C 0.0791(5) 0.1800(3) 0.4942(2)
C18 C -0.2648(17) -0.0308(7) 0.8210(5)
H23 H -0.1668(17) -0.0997(7) 0.8397(5)
H24 H -0.3832(17) -0.0707(7) 0.7883(5)
O6 O -0.1593(10) 0.0652(5) 0.7628(3)
C19 C -0.2121(7) 0.0592(6) 0.9805(4)
C20 C -0.2862(9) 0.1333(6) 1.0545(3)
C21 C -0.4906(11) 0.1899(6) 1.0507(3)
C22 C -0.6209(7) 0.1724(7) 0.9728(4)
C23 C -0.5468(8) 0.0982(7) 0.8987(3)
C24 C -0.3424(10) 0.0416(5) 0.9026(3)
H25 H -0.0715(9) 0.0202(9) 0.9831(6)
H26 H -0.1965(13) 0.1454(9) 1.1081(3)
H27 H -0.5415(16) 0.2409(8) 1.1016(4)
H28 H -0.7615(9) 0.2113(11) 0.9701(6)
H29 H -0.6365(12) 0.0861(10) 0.8451(4)
C11? C -0.2493(17) 0.0848(16) 0.9962(10)
C12? C -0.4016(22) 0.1538(14) 1.0468(7)
C13? C -0.6093(19) 0.1707(14) 1.0114(9)
C14? C -0.6646(18) 0.1186(15) 0.9254(10)
C15? C -0.5123(26) 0.0495(17) 0.8748(8)
C16? C -0.3046(23) 0.0326(17) 0.9102(10)
H16? H -0.1064(19) 0.0732(23) 1.0206(14)
H17? H -0.3636(33) 0.1897(21) 1.1060(8)
H18? H -0.7141(27) 0.2183(21) 1.0461(14)
H19? H -0.8075(21) 0.1302(22) 0.9010(15)
H20? H -0.5503(37) 0.0136(24) 0.8156(10)
O5? O -0.0736(15) 0.0642(12) 0.7861(7)
C17? C -0.1392(20) -0.0333(14) 0.8532(9)
H21? H -0.2053(20) -0.1074(14) 0.8225(9)
H22? H -0.0203(20) -0.0649(14) 0.8899(9)
loop_
_geom_bond_atom_site_label_1
_geom_bond_atom_site_label_2
_geom_bond_site_symmetry_1
_geom_bond_site_symmetry_2
S1 C3 1_555 1_555
O1 C1 1_555 1_555
O2 C10 1_555 1_555
O3 C8 1_555 1_555
O4 C8 1_555 1_555
N1 H1 1_555 1_555
N2 H2 1_555 1_555
C1 N1 1_555 1_555
C2 N1 1_555 1_555
H3 C2 1_555 1_555
C3 C2 1_555 1_555
H4 C3 1_555 1_555
H5 C3 1_555 1_555
C4 S1 1_555 1_555
C5 C4 1_555 1_555
H6 C5 1_555 1_555
H7 C5 1_555 1_555
H8 C5 1_555 1_555
C6 C4 1_555 1_555
H9 C6 1_555 1_555
H10 C6 1_555 1_555
H11 C6 1_555 1_555
C7 N2 1_555 1_555
H12 C7 1_555 1_555
C8 C7 1_555 1_555
C9 O3 1_555 1_555
H13 C9 1_555 1_555
H14 C9 1_555 1_555
H15 C9 1_555 1_555
C10 N2 1_555 1_555
C18 H23 1_555 1_555
H24 C18 1_555 1_555
O6 C1 1_555 1_555
C19 C20 1_555 1_555
C20 C21 1_555 1_555
C21 C22 1_555 1_555
C22 C23 1_555 1_555
C23 C24 1_555 1_555
C24 C18 1_555 1_555
H25 C19 1_555 1_555
H26 C20 1_555 1_555
H27 C21 1_555 1_555
H28 C22 1_555 1_555
H29 C23 1_555 1_555
C2 C10 1_555 1_555
C4 C7 1_555 1_555
C18 O6 1_555 1_555
C19 C24 1_555 1_555

#END
