
#######################################################################
#
#                 Cambridge Crystallographic Data Centre
#                                CCDC 
#
#######################################################################
#
# If this CIF has been generated from an entry in the Cambridge 
# Structural Database, then it will include bibliographic, chemical, 
# crystal, experimental, refinement or atomic coordinate data resulting 
# from the CCDC's data processing and validation procedures.
#
#######################################################################

data_HIGGEJ
_chemical_formula_moiety         'C17 H22 N2 O5 S1'
_chemical_name_systematic        (1S,2R)-\b,\b-Dimethylcyclolanthionine
_symmetry_cell_setting           monoclinic
_symmetry_space_group_name_H-M   'P 21'
_symmetry_Int_Tables_number      4
_space_group_name_Hall           'P 2yb'
loop_
_symmetry_equiv_pos_site_id
_symmetry_equiv_pos_as_xyz
1 x,y,z
2 -x,1/2+y,-z
_cell_length_a                   12.041(6)
_cell_length_b                   7.467(4)
_cell_length_c                   12.112(6)
_cell_angle_alpha                90
_cell_angle_beta                 118.59(4)
_cell_angle_gamma                90
_cell_volume                     956.207
_exptl_crystal_colour            colorless
_chemical_melting_point          142deg.C
_cell_formula_units_Z            2
loop_
_atom_site_label
_atom_site_type_symbol
_atom_site_fract_x
_atom_site_fract_y
_atom_site_fract_z
S1 S 0.94064(6) 0.50000(11) 0.78059(7)
O1 O 0.5929(2) 0.0568(4) 0.3225(2)
O2 O 0.7325(3) 0.2741(5) 0.3424(3)
O3 O 0.5109(2) 0.4982(3) 0.4712(2)
O4 O 0.9305(2) 0.9527(3) 0.6399(3)
O5 O 0.8208(3) 0.7491(4) 0.4906(3)
N1 N 0.6653(2) 0.2339(3) 0.4864(2)
H1 H 0.6217(2) 0.1629(3) 0.5108(2)
N2 N 0.6555(2) 0.7008(3) 0.5874(2)
H2 H 0.5893(2) 0.7744(3) 0.5643(2)
C1 C 0.5003(3) -0.2937(4) 0.2097(2)
C2 C 0.4067(3) -0.4238(4) 0.1526(3)
C3 C 0.3085(3) -0.3972(4) 0.0307(3)
C4 C 0.3039(2) -0.2405(5) -0.0341(2)
C5 C 0.3975(3) -0.1104(4) 0.0230(2)
C6 C 0.4957(3) -0.1370(4) 0.1449(2)
H3 H 0.5679(4) -0.3120(6) 0.2935(2)
H4 H 0.4099(5) -0.5317(5) 0.1972(4)
H5 H 0.2441(4) -0.4867(6) -0.0086(4)
H6 H 0.2363(3) -0.2222(6) -0.1179(3)
H7 H 0.3943(4) -0.0026(4) -0.0216(3)
C7 C 0.5963(6) -0.0013(9) 0.2092(5)
H8 H 0.6005(6) 0.0948(9) 0.1592(5)
H9 H 0.6722(6) -0.0704(9) 0.2411(5)
C8 C 0.6691(3) 0.1965(5) 0.3800(3)
C9 C 0.7256(2) 0.3956(4) 0.5566(2)
H10 H 0.7785(2) 0.4411(4) 0.5257(2)
C10 C 0.8131(3) 0.3446(4) 0.6946(3)
H11 H 0.8477(3) 0.2273(4) 0.6984(3)
H12 H 0.7624(3) 0.3375(4) 0.7342(3)
C11 C 0.8587(3) 0.6979(4) 0.7947(3)
C12 C 0.7768(4) 0.6486(6) 0.8552(3)
H13 H 0.7359(4) 0.7554(6) 0.8613(3)
H14 H 0.8268(4) 0.5978(6) 0.9366(3)
H15 H 0.7148(4) 0.5627(6) 0.8024(3)
C13 C 0.9647(3) 0.8246(6) 0.8842(4)
H16 H 0.9292(3) 0.9340(6) 0.8948(4)
H17 H 1.0186(3) 0.8520(6) 0.8503(4)
H18 H 1.0122(3) 0.7663(6) 0.9635(4)
C14 C 0.7766(2) 0.7879(4) 0.6643(3)
H19 H 0.7564(2) 0.9063(4) 0.6804(3)
C15 C 0.8451(3) 0.8231(4) 0.5873(3)
C16 C 1.0009(4) 1.0016(7) 0.5748(5)
H20 H 1.0586(4) 1.0967(7) 0.6199(5)
H21 H 0.9461(4) 1.0398(7) 0.4907(5)
H22 H 1.0467(4) 0.8970(7) 0.5742(5)
C17 C 0.6241(2) 0.5358(3) 0.5366(2)
loop_
_geom_bond_atom_site_label_1
_geom_bond_atom_site_label_2
_geom_bond_site_symmetry_1
_geom_bond_site_symmetry_2
S1 C10 1_555 1_555
O1 C7 1_555 1_555
O2 C8 1_555 1_555
O3 C17 1_555 1_555
O4 C15 1_555 1_555
O5 C15 1_555 1_555
N1 H1 1_555 1_555
N2 H2 1_555 1_555
C1 C2 1_555 1_555
C2 C3 1_555 1_555
C3 C4 1_555 1_555
C4 C5 1_555 1_555
C5 C6 1_555 1_555
C6 C1 1_555 1_555
H3 C1 1_555 1_555
H4 C2 1_555 1_555
H5 C3 1_555 1_555
H6 C4 1_555 1_555
H7 C5 1_555 1_555
C7 C6 1_555 1_555
H8 C7 1_555 1_555
H9 C7 1_555 1_555
C8 O1 1_555 1_555
C9 N1 1_555 1_555
H10 C9 1_555 1_555
C10 C9 1_555 1_555
H11 C10 1_555 1_555
H12 C10 1_555 1_555
C11 S1 1_555 1_555
C12 C11 1_555 1_555
H13 C12 1_555 1_555
H14 C12 1_555 1_555
H15 C12 1_555 1_555
C13 C11 1_555 1_555
H16 C13 1_555 1_555
H17 C13 1_555 1_555
H18 C13 1_555 1_555
C14 N2 1_555 1_555
H19 C14 1_555 1_555
C15 C14 1_555 1_555
C16 O4 1_555 1_555
H20 C16 1_555 1_555
H21 C16 1_555 1_555
H22 C16 1_555 1_555
C17 N2 1_555 1_555
N1 C8 1_555 1_555
C9 C17 1_555 1_555
C11 C14 1_555 1_555

#END
