
#######################################################################
#
#                 Cambridge Crystallographic Data Centre
#                                CCDC 
#
#######################################################################
#
# If this CIF has been generated from an entry in the Cambridge 
# Structural Database, then it will include bibliographic, chemical, 
# crystal, experimental, refinement or atomic coordinate data resulting 
# from the CCDC's data processing and validation procedures.
#
#######################################################################

data_HIGHOU
_chemical_formula_moiety         'C55 H66 N6 O2,C1 H1 Cl3'
_chemical_name_systematic        
'syn-3-Methyl-2,8,12,18-tetra-n-butyl-3,7,13,17-tetramethyl-5,15-bis(4-pyridyl)-22-ethoxycarbonylpurpurin chloroform solvate'
_symmetry_cell_setting           triclinic
_symmetry_space_group_name_H-M   'P -1'
_symmetry_Int_Tables_number      2
_space_group_name_Hall           '-P 1'
loop_
_symmetry_equiv_pos_site_id
_symmetry_equiv_pos_as_xyz
1 x,y,z
2 -x,-y,-z
_cell_length_a                   10.478(2)
_cell_length_b                   16.400(4)
_cell_length_c                   16.7910(14)
_cell_angle_alpha                112.660(15)
_cell_angle_beta                 105.780(10)
_cell_angle_gamma                91.32(2)
_cell_volume                     2535.6
_exptl_crystal_colour            purple
_cell_formula_units_Z            2
loop_
_atom_site_label
_atom_site_type_symbol
_atom_site_fract_x
_atom_site_fract_y
_atom_site_fract_z
O1 O 0.6874(2) 0.0945(2) 0.3130(2)
N1 N 0.4694(2) 0.5751(2) 0.1932(2)
C1 C 0.6563(3) 0.5763(2) 0.1307(2)
O2 O 0.8732(2) 0.1268(2) 0.2819(2)
N2 N 0.3288(2) 0.5048(2) 0.3026(2)
H1 H 0.3875(2) 0.4832(2) 0.2740(2)
C2 C 0.5286(3) 0.5989(2) 0.1404(2)
N3 N 0.5094(3) 0.3933(2) 0.2959(2)
C3 C 0.4453(3) 0.6505(2) 0.0978(2)
N4 N 0.6682(2) 0.4677(2) 0.1973(2)
H2 H 0.5920(2) 0.4752(2) 0.2099(2)
C4 C 0.3370(3) 0.6604(2) 0.1301(2)
N5 N 0.8502(3) 0.7308(2) 0.0282(2)
C5 C 0.3557(3) 0.6151(2) 0.1907(2)
N6 N 0.2047(3) 0.3111(2) 0.5509(2)
C6 C 0.2691(3) 0.6180(2) 0.2418(2)
H3 H 0.2049(3) 0.6576(2) 0.2391(2)
C7 C 0.2606(3) 0.5734(2) 0.2955(2)
C8 C 0.1757(3) 0.5874(2) 0.3524(2)
C9 C 0.1966(3) 0.5280(2) 0.3929(2)
C10 C 0.2936(3) 0.4742(2) 0.3600(2)
C11 C 0.3492(3) 0.4031(2) 0.3789(2)
C12 C 0.4509(3) 0.3626(2) 0.3455(2)
C13 C 0.5233(3) 0.2877(2) 0.3645(2)
H4 H 0.6034(3) 0.3177(2) 0.4190(2)
C14 C 0.5759(3) 0.2518(2) 0.2805(2)
C15 C 0.5941(3) 0.3374(2) 0.2688(2)
C16 C 0.7107(3) 0.3457(2) 0.2444(2)
C17 C 0.7484(3) 0.4079(2) 0.2137(2)
C18 C 0.8641(3) 0.4186(2) 0.1858(2)
C19 C 0.8478(3) 0.4826(2) 0.1513(2)
C20 C 0.7217(3) 0.5148(2) 0.1587(2)
C21 C 0.7257(3) 0.6276(2) 0.0939(2)
C22 C 0.7283(3) 0.5934(2) 0.0050(2)
H5 H 0.6881(3) 0.5340(2) -0.0354(2)
C23 C 0.7902(4) 0.6471(2) -0.0242(2)
H6 H 0.7900(4) 0.6228(2) -0.0856(2)
C24 C 0.8484(4) 0.7627(2) 0.1141(3)
H7 H 0.8919(4) 0.8216(2) 0.1534(3)
C25 C 0.7866(3) 0.7147(2) 0.1491(2)
H8 H 0.7860(3) 0.7413(2) 0.2102(2)
C26 C 0.4619(3) 0.6810(2) 0.0274(2)
H9 H 0.4808(21) 0.6313(4) -0.0216(7)
H10 H 0.5365(14) 0.7301(10) 0.0549(4)
H11 H 0.3793(8) 0.7017(13) 0.0029(10)
C27 C 0.2201(3) 0.7069(2) 0.1076(2)
H12 H 0.1399(3) 0.6763(2) 0.1103(2)
H13 H 0.2029(3) 0.7008(2) 0.0444(2)
C28 C 0.2375(3) 0.8062(2) 0.1695(3)
H14 H 0.1534(3) 0.8299(2) 0.1514(3)
H15 H 0.2524(3) 0.8124(2) 0.2325(3)
C29 C 0.3526(4) 0.8623(2) 0.1673(3)
H16 H 0.4368(4) 0.8385(2) 0.1848(3)
H17 H 0.3374(4) 0.8570(2) 0.1045(3)
C30 C 0.3690(4) 0.9601(3) 0.2298(4)
H18 H 0.4445(4) 0.9928(3) 0.2255(4)
H19 H 0.3862(4) 0.9661(3) 0.2923(4)
H20 H 0.2868(4) 0.9846(3) 0.2119(4)
C31 C 0.0879(3) 0.6596(2) 0.3667(2)
H21 H 0.0098(3) 0.6406(2) 0.3811(2)
H22 H 0.0540(3) 0.6684(2) 0.3099(2)
C32 C 0.1631(4) 0.7483(2) 0.4434(2)
H23 H 0.1841(4) 0.7417(2) 0.5016(2)
H24 H 0.2491(4) 0.7617(2) 0.4340(2)
C33 C 0.0858(4) 0.8271(2) 0.4505(3)
H25 H -0.0056(4) 0.8102(2) 0.4504(3)
H26 H 0.1306(4) 0.8778(2) 0.5091(3)
C34 C 0.0752(5) 0.8571(3) 0.3757(3)
H27 H 0.0247(5) 0.9078(3) 0.3845(3)
H28 H 0.0287(5) 0.8079(3) 0.3174(3)
H29 H 0.1652(5) 0.8753(3) 0.3761(3)
C35 C 0.1278(4) 0.5240(2) 0.4593(2)
H30 H 0.1943(5) 0.5225(16) 0.5124(7)
H31 H 0.0613(17) 0.4701(8) 0.4305(6)
H32 H 0.0830(20) 0.5768(8) 0.4782(12)
C36 C 0.2984(3) 0.3718(2) 0.4386(2)
C37 C 0.3684(3) 0.3986(2) 0.5292(2)
H33 H 0.4498(3) 0.4388(2) 0.5552(2)
C38 C 0.3198(4) 0.3667(2) 0.5822(2)
H34 H 0.3706(4) 0.3852(2) 0.6440(2)
C39 C 0.1367(3) 0.2864(2) 0.4635(2)
H35 H 0.0545(3) 0.2473(2) 0.4395(2)
C40 C 0.1786(3) 0.3144(2) 0.4060(2)
H36 H 0.1259(3) 0.2945(2) 0.3444(2)
C41 C 0.4509(4) 0.2165(2) 0.3806(2)
H37 H 0.5126(4) 0.1753(2) 0.3915(2)
H38 H 0.3740(4) 0.1835(2) 0.3271(2)
H39 H 0.4196(4) 0.2451(2) 0.4335(2)
C42 C 0.4640(3) 0.1834(2) 0.1972(2)
H40 H 0.4576(3) 0.1269(2) 0.2053(2)
H41 H 0.3776(3) 0.2064(2) 0.1975(2)
C43 C 0.4810(4) 0.1619(2) 0.1042(2)
H42 H 0.4892(4) 0.2177(2) 0.0951(2)
H43 H 0.5645(4) 0.1354(2) 0.1013(2)
C44 C 0.3625(4) 0.0968(3) 0.0288(2)
H44 H 0.2804(4) 0.1253(3) 0.0300(2)
H45 H 0.3507(4) 0.0433(3) 0.0413(2)
C45 C 0.3770(4) 0.0672(3) -0.0657(3)
H46 H 0.2972(4) 0.0259(3) -0.1102(3)
H47 H 0.4565(4) 0.0372(3) -0.0683(3)
H48 H 0.3865(4) 0.1195(3) -0.0794(3)
C46 C 0.7113(3) 0.2225(2) 0.2826(2)
C47 C 0.7810(3) 0.2742(2) 0.2581(2)
H49 H 0.8669(3) 0.2649(2) 0.2505(2)
C48 C 0.7516(3) 0.1425(2) 0.2944(2)
C49 C 0.9223(4) 0.0483(2) 0.2920(2)
H50 H 0.8499(4) -0.0033(2) 0.2602(2)
H51 H 0.9544(4) 0.0591(2) 0.3568(2)
C50 C 1.0350(4) 0.0300(3) 0.2515(3)
H52 H 1.0708(4) -0.0229(3) 0.2570(3)
H53 H 1.1060(4) 0.0816(3) 0.2835(3)
H54 H 1.0019(4) 0.0194(3) 0.1873(3)
C51 C 0.9789(3) 0.3652(2) 0.1912(2)
H55 H 1.0020(3) 0.3592(2) 0.2497(2)
H56 H 1.0581(3) 0.3983(2) 0.1902(2)
C52 C 0.9480(3) 0.2716(2) 0.1138(2)
H57 H 0.8568(3) 0.2446(2) 0.1044(2)
H58 H 0.9486(3) 0.2774(2) 0.0574(2)
C53 C 1.0465(3) 0.2094(2) 0.1310(2)
H59 H 1.1375(3) 0.2349(2) 0.1380(2)
H60 H 1.0483(3) 0.2047(2) 0.1883(2)
C54 C 1.0101(4) 0.1172(2) 0.0549(3)
H61 H 1.0759(4) 0.0792(2) 0.0686(3)
H62 H 1.0099(4) 0.1215(2) -0.0018(3)
H63 H 0.9208(4) 0.0913(2) 0.0485(3)
C55 C 0.9425(3) 0.5093(2) 0.1100(2)
H64 H 0.9602(17) 0.5745(2) 0.1341(11)
H65 H 0.9026(9) 0.4848(12) 0.0441(3)
H66 H 1.0269(8) 0.4858(12) 0.1250(12)
Cl1 Cl 1.48770(13) 0.19539(9) 0.62784(9)
Cl2 Cl 1.29823(13) 0.07004(9) 0.63390(9)
Cl3 Cl 1.2831(2) 0.08036(9) 0.46471(8)
C56 C 1.3242(5) 0.1399(3) 0.5815(3)
H67 H 1.2628(5) 0.1860(3) 0.5932(3)
loop_
_geom_bond_atom_site_label_1
_geom_bond_atom_site_label_2
_geom_bond_site_symmetry_1
_geom_bond_site_symmetry_2
O1 C48 1_555 1_555
N1 C2 1_555 1_555
C1 C2 1_555 1_555
O2 C48 1_555 1_555
N2 H1 1_555 1_555
C2 C3 1_555 1_555
N3 C12 1_555 1_555
C3 C4 1_555 1_555
N4 H2 1_555 1_555
C4 C5 1_555 1_555
N5 C23 1_555 1_555
C5 N1 1_555 1_555
N6 C38 1_555 1_555
C6 C5 1_555 1_555
H3 C6 1_555 1_555
C7 N2 1_555 1_555
C8 C7 1_555 1_555
C9 C8 1_555 1_555
C10 N2 1_555 1_555
C11 C10 1_555 1_555
C12 C11 1_555 1_555
C13 C12 1_555 1_555
H4 C13 1_555 1_555
C14 C13 1_555 1_555
C15 N3 1_555 1_555
C16 C15 1_555 1_555
C17 N4 1_555 1_555
C18 C17 1_555 1_555
C19 C18 1_555 1_555
C20 C1 1_555 1_555
C21 C1 1_555 1_555
C22 C21 1_555 1_555
H5 C22 1_555 1_555
C23 C22 1_555 1_555
H6 C23 1_555 1_555
C24 N5 1_555 1_555
H7 C24 1_555 1_555
C25 C21 1_555 1_555
H8 C25 1_555 1_555
C26 C3 1_555 1_555
H9 C26 1_555 1_555
H10 C26 1_555 1_555
H11 C26 1_555 1_555
C27 C4 1_555 1_555
H12 C27 1_555 1_555
H13 C27 1_555 1_555
C28 C27 1_555 1_555
H14 C28 1_555 1_555
H15 C28 1_555 1_555
C29 C28 1_555 1_555
H16 C29 1_555 1_555
H17 C29 1_555 1_555
C30 C29 1_555 1_555
H18 C30 1_555 1_555
H19 C30 1_555 1_555
H20 C30 1_555 1_555
C31 C8 1_555 1_555
H21 C31 1_555 1_555
H22 C31 1_555 1_555
C32 C31 1_555 1_555
H23 C32 1_555 1_555
H24 C32 1_555 1_555
C33 C32 1_555 1_555
H25 C33 1_555 1_555
H26 C33 1_555 1_555
C34 C33 1_555 1_555
H27 C34 1_555 1_555
H28 C34 1_555 1_555
H29 C34 1_555 1_555
C35 C9 1_555 1_555
H30 C35 1_555 1_555
H31 C35 1_555 1_555
H32 C35 1_555 1_555
C36 C11 1_555 1_555
C37 C36 1_555 1_555
H33 C37 1_555 1_555
C38 C37 1_555 1_555
H34 C38 1_555 1_555
C39 N6 1_555 1_555
H35 C39 1_555 1_555
C40 C36 1_555 1_555
H36 C40 1_555 1_555
C41 C13 1_555 1_555
H37 C41 1_555 1_555
H38 C41 1_555 1_555
H39 C41 1_555 1_555
C42 C14 1_555 1_555
H40 C42 1_555 1_555
H41 C42 1_555 1_555
C43 C42 1_555 1_555
H42 C43 1_555 1_555
H43 C43 1_555 1_555
C44 C43 1_555 1_555
H44 C44 1_555 1_555
H45 C44 1_555 1_555
C45 C44 1_555 1_555
H46 C45 1_555 1_555
H47 C45 1_555 1_555
H48 C45 1_555 1_555
C46 C14 1_555 1_555
C47 C16 1_555 1_555
H49 C47 1_555 1_555
C48 C46 1_555 1_555
C49 O2 1_555 1_555
H50 C49 1_555 1_555
H51 C49 1_555 1_555
C50 C49 1_555 1_555
H52 C50 1_555 1_555
H53 C50 1_555 1_555
H54 C50 1_555 1_555
C51 C18 1_555 1_555
H55 C51 1_555 1_555
H56 C51 1_555 1_555
C52 C51 1_555 1_555
H57 C52 1_555 1_555
H58 C52 1_555 1_555
C53 C52 1_555 1_555
H59 C53 1_555 1_555
H60 C53 1_555 1_555
C54 C53 1_555 1_555
H61 C54 1_555 1_555
H62 C54 1_555 1_555
H63 C54 1_555 1_555
C55 C19 1_555 1_555
H64 C55 1_555 1_555
H65 C55 1_555 1_555
H66 C55 1_555 1_555
Cl1 C56 1_555 1_555
Cl2 C56 1_555 1_555
Cl3 C56 1_555 1_555
C56 H67 1_555 1_555
N4 C20 1_555 1_555
C6 C7 1_555 1_555
C9 C10 1_555 1_555
C14 C15 1_555 1_555
C16 C17 1_555 1_555
C19 C20 1_555 1_555
C24 C25 1_555 1_555
C39 C40 1_555 1_555
C46 C47 1_555 1_555

#END
