
#######################################################################
#
#                 Cambridge Crystallographic Data Centre
#                                CCDC 
#
#######################################################################
#
# If this CIF has been generated from an entry in the Cambridge 
# Structural Database, then it will include bibliographic, chemical, 
# crystal, experimental, refinement or atomic coordinate data resulting 
# from the CCDC's data processing and validation procedures.
#
#######################################################################

data_HIGLOB
_chemical_formula_moiety         'C29 H30 O5'
_chemical_name_systematic        
'methyl 1,3-bis(benzyloxy)-8-methyl-8-(2-oxoethyl)-5,6,7,8-tetrahydronaphthalene-2-carboxylate'
_symmetry_cell_setting           monoclinic
_symmetry_space_group_name_H-M   'P 21/n'
_symmetry_Int_Tables_number      14
_space_group_name_Hall           '-P 2yn'
loop_
_symmetry_equiv_pos_site_id
_symmetry_equiv_pos_as_xyz
1 x,y,z
2 1/2-x,1/2+y,1/2-z
3 -x,-y,-z
4 1/2+x,1/2-y,1/2+z
_cell_length_a                   10.573(3)
_cell_length_b                   16.555(4)
_cell_length_c                   14.695(4)
_cell_angle_alpha                90
_cell_angle_beta                 104.784(3)
_cell_angle_gamma                90
_cell_volume                     2487
_cell_formula_units_Z            4
loop_
_atom_site_label
_atom_site_type_symbol
_atom_site_fract_x
_atom_site_fract_y
_atom_site_fract_z
O1 O 0.54960(13) 0.12329(10) 0.24413(10)
O2 O 0.69452(13) 0.15374(9) 0.57299(10)
O3 O 0.77783(13) 0.05676(8) 0.36605(11)
C1 C 0.36207(18) 0.15411(12) 0.42072(14)
C2 C 0.38732(19) 0.13947(12) 0.33368(14)
C3 C 0.61865(18) 0.13596(11) 0.40643(14)
C4 C 0.51389(18) 0.13184(11) 0.32590(13)
C5 C 0.59183(18) 0.14863(11) 0.49326(14)
C6 C 0.46423(18) 0.16015(11) 0.50289(13)
C7 C 0.4360(2) 0.17590(14) 0.59980(15)
C8 C 0.4518(2) 0.10986(19) 0.15993(15)
C9 C 0.5176(2) 0.10763(13) 0.08074(14)
O4 O 0.82691(17) 0.18508(11) 0.39848(19)
C10 C 0.2200(2) 0.16264(18) 0.42124(17)
C11 C 0.75186(19) 0.13051(12) 0.39126(15)
C12 C 0.8726(2) 0.09868(14) 0.68872(15)
C13 C 0.5248(3) 0.15218(16) -0.07260(18)
C14 C 0.9667(3) 0.15660(16) 0.6950(2)
C15 C 0.6271(2) 0.06058(15) 0.08533(17)
C16 C 0.1972(3) 0.15024(19) 0.51776(19)
C17 C 0.4676(2) 0.15329(13) 0.00168(15)
C18 C 0.2923(2) 0.20166(19) 0.58669(19)
C19 C 0.5327(3) 0.31549(15) 0.5966(2)
C20 C 0.5228(3) 0.24427(15) 0.65368(17)
C21 C 0.6334(3) 0.10578(16) -0.06817(19)
C22 C 0.6854(3) 0.05983(17) 0.01051(19)
C23 C 0.7697(3) 0.08015(19) 0.6000(2)
C24 C 0.4628(4) 0.09802(19) 0.6598(2)
C25 C 0.8984(3) 0.0454(3) 0.3397(3)
O5 O 0.6162(3) 0.36564(16) 0.6142(2)
C26 C 0.8744(3) 0.05187(18) 0.7670(2)
C27 C 1.0614(3) 0.1688(2) 0.7765(3)
C28 C 1.0633(3) 0.1231(2) 0.8533(2)
C29 C 0.9717(4) 0.0655(3) 0.8503(2)
H1 H 0.310(2) 0.1377(12) 0.2792(15)
H2 H 0.115(3) 0.1677(16) 0.5162(19)
H3 H 0.290(2) 0.2568(14) 0.5681(15)
H4 H 0.272(3) 0.1978(16) 0.651(2)
H5 H 0.408(3) 0.0634(16) 0.1647(17)
H6 H 0.386(3) 0.1879(17) -0.0028(18)
H7 H 0.484(2) 0.1850(14) -0.1292(17)
H8 H 0.672(2) 0.1057(15) -0.119(2)
H9 H 0.757(3) 0.021(2) 0.016(2)
H10 H 0.196(2) 0.2218(16) 0.4010(16)
H11 H 0.814(3) 0.0092(18) 0.764(2)
H12 H 0.825(2) 0.1262(13) 0.5788(14)
H13 H 0.167(3) 0.1165(18) 0.371(2)
H14 H 0.544(4) 0.084(2) 0.673(3)
H15 H 0.484(3) 0.2581(16) 0.710(2)
H16 H 0.413(3) 0.049(2) 0.624(2)
H17 H 0.212(3) 0.0892(18) 0.5386(18)
H18 H 0.662(3) 0.0258(18) 0.142(2)
H19 H 0.810(3) 0.059(2) 0.549(2)
H20 H 0.460(3) 0.3249(17) 0.537(2)
H21 H 0.972(4) 0.056(2) 0.394(3)
H22 H 0.962(3) 0.191(2) 0.646(2)
H23 H 0.964(4) 0.029(3) 0.895(3)
H24 H 0.437(3) 0.1080(18) 0.715(2)
H25 H 0.622(3) 0.2254(15) 0.6844(18)
H26 H 1.130(4) 0.137(2) 0.917(3)
H27 H 0.894(3) -0.009(2) 0.313(3)
H28 H 0.903(3) 0.081(2) 0.296(3)
H29 H 1.125(3) 0.207(2) 0.774(2)
H30 H 0.390(3) 0.1531(19) 0.154(2)
loop_
_geom_bond_atom_site_label_1
_geom_bond_atom_site_label_2
_geom_bond_site_symmetry_1
_geom_bond_site_symmetry_2
O1 C4 1_555 1_555
O2 C5 1_555 1_555
O3 C11 1_555 1_555
C1 C2 1_555 1_555
C2 C4 1_555 1_555
C3 C4 1_555 1_555
C5 C3 1_555 1_555
C6 C1 1_555 1_555
C7 C6 1_555 1_555
C8 O1 1_555 1_555
C9 C8 1_555 1_555
O4 C11 1_555 1_555
C10 C1 1_555 1_555
C11 C3 1_555 1_555
C12 C14 1_555 1_555
C13 C17 1_555 1_555
C14 C27 1_555 1_555
C15 C9 1_555 1_555
C16 C10 1_555 1_555
C17 C9 1_555 1_555
C18 C7 1_555 1_555
C19 C20 1_555 1_555
C20 C7 1_555 1_555
C21 C13 1_555 1_555
C22 C15 1_555 1_555
C23 O2 1_555 1_555
C24 C7 1_555 1_555
C25 O3 1_555 1_555
O5 C19 1_555 1_555
C26 C12 1_555 1_555
C27 C28 1_555 1_555
C28 C29 1_555 1_555
C29 C26 1_555 1_555
H1 C2 1_555 1_555
H2 C16 1_555 1_555
H3 C18 1_555 1_555
H4 C18 1_555 1_555
H5 C8 1_555 1_555
H6 C17 1_555 1_555
H7 C13 1_555 1_555
H8 C21 1_555 1_555
H9 C22 1_555 1_555
H10 C10 1_555 1_555
H11 C26 1_555 1_555
H12 C23 1_555 1_555
H13 C10 1_555 1_555
H14 C24 1_555 1_555
H15 C20 1_555 1_555
H16 C24 1_555 1_555
H17 C16 1_555 1_555
H18 C15 1_555 1_555
H19 C23 1_555 1_555
H20 C19 1_555 1_555
H21 C25 1_555 1_555
H22 C14 1_555 1_555
H23 C29 1_555 1_555
H24 C24 1_555 1_555
H25 C20 1_555 1_555
H26 C28 1_555 1_555
H27 C25 1_555 1_555
H28 C25 1_555 1_555
H29 C27 1_555 1_555
H30 C8 1_555 1_555
C5 C6 1_555 1_555
C12 C23 1_555 1_555
C16 C18 1_555 1_555
C21 C22 1_555 1_555

#END
