
#######################################################################
#
#                 Cambridge Crystallographic Data Centre
#                                CCDC 
#
#######################################################################
#
# If this CIF has been generated from an entry in the Cambridge 
# Structural Database, then it will include bibliographic, chemical, 
# crystal, experimental, refinement or atomic coordinate data resulting 
# from the CCDC's data processing and validation procedures.
#
#######################################################################

data_HIGNOA
_chemical_formula_moiety         'C24 H32 N1 O3 1+,Cl1 1-'
_chemical_name_systematic        
'Methyl (\aS,3R,4R)-4-(3-hydroxyphenyl)-3,4-dimethyl-\a-(phenylmethyl)-1-piperidinepropanoate hydrochloride'
_symmetry_cell_setting           orthorhombic
_symmetry_space_group_name_H-M   'P 21 21 21'
_symmetry_Int_Tables_number      19
_space_group_name_Hall           'P 2ac 2ab'
loop_
_symmetry_equiv_pos_site_id
_symmetry_equiv_pos_as_xyz
1 x,y,z
2 1/2-x,-y,1/2+z
3 1/2+x,1/2-y,-z
4 -x,1/2+y,1/2-z
_cell_length_a                   7.8440
_cell_length_b                   14.431
_cell_length_c                   20.755
_cell_angle_alpha                90
_cell_angle_beta                 90
_cell_angle_gamma                90
_cell_volume                     2349.4
_chemical_melting_point          230.0-232.0deg.C(dec.)
_cell_formula_units_Z            4
loop_
_atom_site_label
_atom_site_type_symbol
_atom_site_fract_x
_atom_site_fract_y
_atom_site_fract_z
Cl1 Cl 0.03562(14) 0.43628(5) 0.24898(4)
N1 N 0.44489(34) 0.35332(18) 0.72132(12)
C1 C 0.51591(45) 0.30470(24) 0.66373(16)
H1 H 0.48321(45) 0.24067(24) 0.66582(16)
H2 H 0.63811(45) 0.30776(24) 0.66512(16)
C2 C 0.45387(45) 0.34647(24) 0.60005(16)
H3 H 0.49163(45) 0.30648(24) 0.56595(16)
C3 C 0.25648(44) 0.34810(24) 0.59589(16)
C4 C 0.19177(44) 0.39820(32) 0.65626(17)
H4 H 0.06947(44) 0.39977(32) 0.65486(17)
H5 H 0.23179(44) 0.46105(32) 0.65515(17)
C5 C 0.25306(44) 0.35582(33) 0.71870(18)
H6 H 0.20905(44) 0.39042(33) 0.75453(18)
H7 H 0.21123(44) 0.29343(33) 0.72150(18)
C6 C 0.19515(44) 0.39670(25) 0.53432(17)
C7 C 0.07763(72) 0.46829(37) 0.53505(20)
H8 H 0.03619(72) 0.49070(37) 0.57569(20)
C8 C 0.01996(83) 0.50549(37) 0.47862(22)
H9 H -0.05768(83) 0.55688(37) 0.47998(22)
C9 C 0.07827(74) 0.47546(32) 0.42013(19)
H10 H 0.03394(74) 0.50085(32) 0.38080(19)
C10 C 0.19807(47) 0.40506(24) 0.41856(16)
C11 C 0.25334(43) 0.36496(23) 0.47444(15)
H11 H 0.33293(43) 0.31448(23) 0.47282(15)
C12 C 0.89934(47) 0.22732(25) 0.87370(17)
C13 C 0.98522(53) 0.27460(37) 0.92147(21)
H12 H 0.92500(53) 0.32111(37) 0.94547(21)
C14 C 1.15642(69) 0.25256(46) 0.93487(25)
H13 H 1.21584(69) 0.28628(46) 0.96782(25)
C15 C 1.23764(60) 0.18362(48) 0.89964(29)
H14 H 1.35449(60) 0.16924(48) 0.90909(29)
C16 C 1.15390(62) 0.14022(38) 0.85398(28)
H15 H 1.21286(62) 0.09331(38) 0.82992(28)
C17 C 0.98525(54) 0.16032(28) 0.84008(21)
H16 H 0.92589(54) 0.12630(28) 0.80727(21)
C18 C 0.71421(43) 0.24689(26) 0.85931(16)
H17 H 0.66779(43) 0.28588(26) 0.89242(16)
H18 H 0.65234(43) 0.18949(26) 0.85945(16)
C19 C 0.68842(44) 0.29622(23) 0.79445(15)
H19 H 0.72877(44) 0.25546(23) 0.76123(15)
C20 C 0.78400(43) 0.38588(25) 0.78901(18)
O1 O 0.85358(47) 0.41146(25) 0.74127(17)
O2 O 0.78006(40) 0.43304(17) 0.84411(14)
C21 C 0.87342(98) 0.52049(34) 0.84479(35)
H20 H 0.86282(98) 0.54960(34) 0.88618(35)
H21 H 0.99123(98) 0.50704(34) 0.83644(35)
H22 H 0.83063(98) 0.56140(34) 0.81209(35)
C22 C 0.49720(38) 0.30926(22) 0.78423(16)
H23 H 0.44114(38) 0.25036(22) 0.78791(16)
H24 H 0.45712(38) 0.34780(22) 0.81876(16)
O3 O 0.25987(35) 0.37187(19) 0.36109(11)
H25 H 0.33132(35) 0.32899(19) 0.36876(11)
C23 C 0.53589(52) 0.44043(31) 0.58758(17)
H26 H 0.49477(52) 0.46582(31) 0.54775(17)
H27 H 0.50677(52) 0.48130(31) 0.62238(17)
H28 H 0.65751(52) 0.43366(31) 0.58546(17)
C24 C 0.18610(74) 0.24750(35) 0.59421(24)
H29 H 0.06383(74) 0.24845(35) 0.59232(24)
H30 H 0.23025(74) 0.21780(35) 0.55634(24)
H31 H 0.22199(74) 0.21390(35) 0.63175(24)
loop_
_geom_bond_atom_site_label_1
_geom_bond_atom_site_label_2
_geom_bond_site_symmetry_1
_geom_bond_site_symmetry_2
N1 C1 1_555 1_555
C1 H1 1_555 1_555
H2 C1 1_555 1_555
C2 C1 1_555 1_555
H3 C2 1_555 1_555
C3 C2 1_555 1_555
C4 C3 1_555 1_555
H4 C4 1_555 1_555
H5 C4 1_555 1_555
C5 N1 1_555 1_555
H6 C5 1_555 1_555
H7 C5 1_555 1_555
C6 C3 1_555 1_555
C7 C6 1_555 1_555
H8 C7 1_555 1_555
C8 C7 1_555 1_555
H9 C8 1_555 1_555
C9 C8 1_555 1_555
H10 C9 1_555 1_555
C10 C9 1_555 1_555
C11 C6 1_555 1_555
H11 C11 1_555 1_555
C12 C13 1_555 1_555
C13 H12 1_555 1_555
C14 C13 1_555 1_555
H13 C14 1_555 1_555
C15 C14 1_555 1_555
H14 C15 1_555 1_555
C16 C15 1_555 1_555
H15 C16 1_555 1_555
C17 C12 1_555 1_555
H16 C17 1_555 1_555
C18 C12 1_555 1_555
H17 C18 1_555 1_555
H18 C18 1_555 1_555
C19 C18 1_555 1_555
H19 C19 1_555 1_555
C20 C19 1_555 1_555
O1 C20 1_555 1_555
O2 C20 1_555 1_555
C21 O2 1_555 1_555
H20 C21 1_555 1_555
H21 C21 1_555 1_555
H22 C21 1_555 1_555
C22 N1 1_555 1_555
H23 C22 1_555 1_555
H24 C22 1_555 1_555
O3 C10 1_555 1_555
H25 O3 1_555 1_555
C23 C2 1_555 1_555
H26 C23 1_555 1_555
H27 C23 1_555 1_555
H28 C23 1_555 1_555
C24 C3 1_555 1_555
H29 C24 1_555 1_555
H30 C24 1_555 1_555
H31 C24 1_555 1_555
C4 C5 1_555 1_555
C10 C11 1_555 1_555
C16 C17 1_555 1_555
C19 C22 1_555 1_555

#END
