
#######################################################################
#
#                 Cambridge Crystallographic Data Centre
#                                CCDC 
#
#######################################################################
#
# If this CIF has been generated from an entry in the Cambridge 
# Structural Database, then it will include bibliographic, chemical, 
# crystal, experimental, refinement or atomic coordinate data resulting 
# from the CCDC's data processing and validation procedures.
#
#######################################################################

data_HIGQAR
_chemical_formula_moiety         'C30 H28 N2 O4 S2'
_chemical_name_systematic        N-benzyl-N,N'-di-p-itosylcinnamimidamide
_symmetry_cell_setting           monoclinic
_symmetry_space_group_name_H-M   'P 21/c'
_symmetry_Int_Tables_number      14
_space_group_name_Hall           '-P 2ybc'
loop_
_symmetry_equiv_pos_site_id
_symmetry_equiv_pos_as_xyz
1 x,y,z
2 -x,1/2+y,1/2-z
3 -x,-y,-z
4 x,1/2-y,1/2+z
_cell_length_a                   15.399(3)
_cell_length_b                   10.623(2)
_cell_length_c                   17.063(3)
_cell_angle_alpha                90
_cell_angle_beta                 102.89(3)
_cell_angle_gamma                90
_cell_volume                     2720.89
_cell_formula_units_Z            4
loop_
_atom_site_label
_atom_site_type_symbol
_atom_site_fract_x
_atom_site_fract_y
_atom_site_fract_z
S1 S 0.09180(4) 0.45267(7) 0.18091(4)
S2 S 0.40669(4) 0.30557(6) 0.21017(4)
O1 O 0.01461(11) 0.45458(19) 0.21518(11)
O2 O 0.08371(12) 0.41997(18) 0.09860(10)
O3 O 0.43455(12) 0.40908(18) 0.16719(10)
O4 O 0.40533(11) 0.18166(17) 0.17569(11)
N1 N 0.16245(13) 0.3477(2) 0.23562(11)
N2 N 0.31169(13) 0.34966(19) 0.23144(11)
C1 C 0.14778(15) 0.5974(2) 0.20213(14)
C2 C 0.22082(18) 0.6224(3) 0.16817(15)
H1 H 0.2362 0.5667 0.1315
C3 C 0.26997(19) 0.7314(3) 0.18986(17)
H2 H 0.3184 0.7477 0.1671
C4 C 0.24916(17) 0.8166(3) 0.24440(15)
C5 C 0.17487(17) 0.7909(3) 0.27595(15)
H3 H 0.1584 0.8480 0.3113
C6 C 0.12509(16) 0.6825(3) 0.25577(15)
H4 H 0.0764 0.6668 0.2782
C7 C 0.30551(19) 0.9325(3) 0.26843(18)
H5 H 0.3631 0.9082 0.2993
H6 H 0.2770 0.9865 0.3002
H7 H 0.3123 0.9767 0.2211
C8 C 0.18869(17) 0.3805(2) 0.32292(13)
H8 H 0.1394 0.4227 0.3388
H9 H 0.2388 0.4382 0.3318
C9 C 0.21396(17) 0.2645(3) 0.37427(13)
C10 C 0.29845(18) 0.2513(3) 0.42244(14)
H10 H 0.3414 0.3123 0.4209
C11 C 0.3199(2) 0.1483(4) 0.47298(16)
H11 H 0.3769 0.1402 0.5051
C12 C 0.2567(3) 0.0583(3) 0.47547(18)
H12 H 0.2709 -0.0106 0.5095
C13 C 0.1720(2) 0.0696(3) 0.42767(18)
H13 H 0.1292 0.0084 0.4293
C14 C 0.15132(19) 0.1722(3) 0.37740(15)
H14 H 0.0943 0.1795 0.3451
C15 C 0.23361(16) 0.3027(2) 0.20019(13)
C16 C 0.21114(16) 0.2062(2) 0.13892(14)
H15 H 0.2442 0.2025 0.0995
C17 C 0.14573(15) 0.1221(2) 0.13570(13)
H16 H 0.1080 0.1349 0.1706
C18 C 0.12735(15) 0.0120(2) 0.08304(13)
C19 C 0.17595(17) -0.0147(3) 0.02492(15)
H17 H 0.2218 0.0387 0.0187
C20 C 0.1561(2) -0.1201(3) -0.02344(16)
H18 H 0.1884 -0.1362 -0.0624
C21 C 0.0889(2) -0.2022(3) -0.01474(17)
H19 H 0.0764 -0.2729 -0.0474
C22 C 0.04113(19) -0.1782(3) 0.04223(17)
H20 H -0.0041 -0.2328 0.0484
C23 C 0.06014(16) -0.0723(3) 0.09096(15)
H21 H 0.0274 -0.0573 0.1297
C24 C 0.47263(15) 0.3017(2) 0.30874(14)
C25 C 0.49125(17) 0.1875(3) 0.34840(16)
H22 H 0.4728 0.1123 0.3220
C26 C 0.53781(18) 0.1872(3) 0.42791(17)
H23 H 0.5509 0.1107 0.4545
C27 C 0.56541(18) 0.2981(3) 0.46877(16)
C28 C 0.54874(17) 0.4117(3) 0.42652(16)
H24 H 0.5692 0.4867 0.4522
C29 C 0.50240(16) 0.4142(3) 0.34728(15)
H25 H 0.4912 0.4903 0.3199
C30 C 0.6105(2) 0.2965(4) 0.55738(17)
H26 H 0.5663 0.2871 0.5887
H27 H 0.6421 0.3741 0.5714
H28 H 0.6515 0.2273 0.5680
loop_
_geom_bond_atom_site_label_1
_geom_bond_atom_site_label_2
_geom_bond_site_symmetry_1
_geom_bond_site_symmetry_2
S1 O1 1_555 1_555
S2 O3 1_555 1_555
O2 S1 1_555 1_555
O4 S2 1_555 1_555
N1 S1 1_555 1_555
N2 S2 1_555 1_555
C1 S1 1_555 1_555
C2 C1 1_555 1_555
H1 C2 1_555 1_555
C3 C2 1_555 1_555
H2 C3 1_555 1_555
C4 C3 1_555 1_555
C5 C4 1_555 1_555
H3 C5 1_555 1_555
C6 C1 1_555 1_555
H4 C6 1_555 1_555
C7 C4 1_555 1_555
H5 C7 1_555 1_555
H6 C7 1_555 1_555
H7 C7 1_555 1_555
C8 N1 1_555 1_555
H8 C8 1_555 1_555
H9 C8 1_555 1_555
C9 C8 1_555 1_555
C10 C9 1_555 1_555
H10 C10 1_555 1_555
C11 C10 1_555 1_555
H11 C11 1_555 1_555
C12 C11 1_555 1_555
H12 C12 1_555 1_555
C13 C12 1_555 1_555
H13 C13 1_555 1_555
C14 C9 1_555 1_555
H14 C14 1_555 1_555
C15 N1 1_555 1_555
C16 C15 1_555 1_555
H15 C16 1_555 1_555
C17 C16 1_555 1_555
H16 C17 1_555 1_555
C18 C17 1_555 1_555
C19 C18 1_555 1_555
H17 C19 1_555 1_555
C20 C19 1_555 1_555
H18 C20 1_555 1_555
C21 C20 1_555 1_555
H19 C21 1_555 1_555
C22 C21 1_555 1_555
H20 C22 1_555 1_555
C23 C18 1_555 1_555
H21 C23 1_555 1_555
C24 S2 1_555 1_555
C25 C24 1_555 1_555
H22 C25 1_555 1_555
C26 C25 1_555 1_555
H23 C26 1_555 1_555
C27 C26 1_555 1_555
C28 C27 1_555 1_555
H24 C28 1_555 1_555
C29 C24 1_555 1_555
H25 C29 1_555 1_555
C30 C27 1_555 1_555
H26 C30 1_555 1_555
H27 C30 1_555 1_555
H28 C30 1_555 1_555
N2 C15 1_555 1_555
C5 C6 1_555 1_555
C13 C14 1_555 1_555
C22 C23 1_555 1_555
C28 C29 1_555 1_555

#END
