
#######################################################################
#
#                 Cambridge Crystallographic Data Centre
#                                CCDC 
#
#######################################################################
#
# If this CIF has been generated from an entry in the Cambridge 
# Structural Database, then it will include bibliographic, chemical, 
# crystal, experimental, refinement or atomic coordinate data resulting 
# from the CCDC's data processing and validation procedures.
#
#######################################################################

data_HIGREW
_chemical_formula_moiety         'C18 H15 Br1 Cl1 N3 O3'
_chemical_name_systematic        
4-Bromo-4-(1-(3-chlorophenyl)-2-nitroethyl)-5-methyl-2-phenyl-2,4-dihydro-3H-pyrazol-3-one
_symmetry_cell_setting           monoclinic
_symmetry_space_group_name_H-M   'P 21'
_symmetry_Int_Tables_number      4
_space_group_name_Hall           'P 2yb'
loop_
_symmetry_equiv_pos_site_id
_symmetry_equiv_pos_as_xyz
1 x,y,z
2 -x,1/2+y,-z
_cell_length_a                   7.4286(19)
_cell_length_b                   18.729(5)
_cell_length_c                   13.349(3)
_cell_angle_alpha                90
_cell_angle_beta                 99.001(4)
_cell_angle_gamma                90
_cell_volume                     1834.38
_exptl_crystal_colour            colorless
_exptl_crystal_description       Prism
_cell_formula_units_Z            4
loop_
_atom_site_label
_atom_site_type_symbol
_atom_site_fract_x
_atom_site_fract_y
_atom_site_fract_z
Br1 Br 0.81060(4) 0.493372(19) 0.21489(3)
Cl1 Cl 1.03636(15) 0.69007(5) -0.26561(8)
O1 O 0.8805(3) 0.66124(12) 0.28147(17)
O2 O 0.4393(4) 0.60014(14) -0.0731(2)
O3 O 0.4360(4) 0.70746(17) -0.0231(3)
N1 N 1.1660(3) 0.62608(14) 0.2476(2)
N2 N 1.2373(3) 0.57676(15) 0.18218(19)
N3 N 0.4824(4) 0.64597(17) -0.0096(2)
C1 C 1.2878(4) 0.66114(18) 0.3241(3)
C2 C 1.4562(4) 0.63142(18) 0.3603(2)
H1 H 1.4939 0.5887 0.3314
C3 C 1.5690(5) 0.66457(19) 0.4390(3)
H2 H 1.6840 0.6440 0.4646
C4 C 1.5160(5) 0.7274(2) 0.4809(3)
H3 H 1.5934 0.7497 0.5352
C5 C 1.3489(5) 0.75705(19) 0.4424(3)
H4 H 1.3126 0.8003 0.4707
C6 C 1.2339(5) 0.72530(18) 0.3638(3)
H5 H 1.1203 0.7466 0.3373
C7 C 0.9783(4) 0.62675(18) 0.2350(3)
C8 C 0.9208(4) 0.57324(18) 0.1492(2)
C9 C 1.1030(5) 0.54696(17) 0.1261(3)
C10 C 1.1272(4) 0.49203(19) 0.0487(2)
H6 H 1.2573 0.4819 0.0514
H7 H 1.0767 0.5099 -0.0189
H8 H 1.0634 0.4482 0.0625
C11 C 0.7905(4) 0.60231(17) 0.0568(2)
H9 H 0.7634 0.5624 0.0070
C12 C 0.8823(4) 0.66155(17) 0.0054(3)
C13 C 0.9293(4) 0.72725(18) 0.0524(3)
H10 H 0.9047 0.7357 0.1191
C14 C 1.0117(4) 0.78013(18) 0.0024(3)
H11 H 1.0440 0.8242 0.0356
C15 C 1.0474(4) 0.76949(18) -0.0951(3)
H12 H 1.1039 0.8056 -0.1294
C16 C 0.9983(5) 0.70471(19) -0.1412(3)
C17 C 0.9172(4) 0.65077(17) -0.0931(3)
H13 H 0.8855 0.6068 -0.1269
C18 C 0.6074(4) 0.62738(18) 0.0864(2)
H14 H 0.5533 0.5889 0.1229
H15 H 0.6271 0.6696 0.1313
Br2 Br 0.05206(5) 0.58167(2) 0.50703(3)
Cl2 Cl 0.58924(12) 0.41439(5) 0.99411(7)
O4 O 0.0632(3) 0.40770(13) 0.45550(17)
O5 O -0.1572(3) 0.48838(14) 0.80185(17)
O6 O -0.1371(4) 0.37457(13) 0.7771(2)
N4 N 0.3623(4) 0.44790(15) 0.4617(2)
N5 N 0.4841(3) 0.49444(16) 0.52323(19)
N6 N -0.1271(4) 0.43680(17) 0.7506(2)
C19 C 0.4296(4) 0.40676(18) 0.3855(2)
C20 C 0.6161(4) 0.39834(18) 0.3895(2)
H16 H 0.6988 0.4227 0.4394
C21 C 0.6807(4) 0.35385(18) 0.3198(3)
H17 H 0.8082 0.3467 0.3237
C22 C 0.5611(4) 0.31987(18) 0.2448(3)
H18 H 0.6059 0.2886 0.1984
C23 C 0.3761(5) 0.3319(2) 0.2382(3)
H19 H 0.2943 0.3104 0.1849
C24 C 0.3079(5) 0.3748(2) 0.3081(3)
H20 H 0.1804 0.3824 0.3034
C25 C 0.1919(5) 0.44588(19) 0.4893(3)
C26 C 0.1984(4) 0.5017(2) 0.5733(2)
C27 C 0.3957(4) 0.52518(17) 0.5866(3)
C28 C 0.4790(4) 0.57998(19) 0.6613(2)
H21 H 0.6062 0.5879 0.6528
H22 H 0.4743 0.5631 0.7303
H23 H 0.4112 0.6249 0.6495
C29 C 0.1301(4) 0.47882(17) 0.6707(2)
H24 H 0.1316 0.5220 0.7149
C30 C 0.2576(4) 0.42362(17) 0.7283(2)
C31 C 0.2753(4) 0.35501(18) 0.6890(3)
H25 H 0.2085 0.3422 0.6249
C32 C 0.3912(4) 0.30552(18) 0.7443(3)
H26 H 0.4025 0.2589 0.7180
C33 C 0.4906(4) 0.32416(18) 0.8382(2)
H27 H 0.5717 0.2909 0.8753
C34 C 0.4694(4) 0.39125(18) 0.8758(2)
C35 C 0.3550(4) 0.44126(17) 0.8230(2)
H28 H 0.3429 0.4873 0.8510
C36 C -0.0692(4) 0.45079(18) 0.6498(2)
H29 H -0.1501 0.4868 0.6116
H30 H -0.0758 0.4063 0.6093
loop_
_geom_bond_atom_site_label_1
_geom_bond_atom_site_label_2
_geom_bond_site_symmetry_1
_geom_bond_site_symmetry_2
Br1 C8 1_555 1_555
Cl1 C16 1_555 1_555
O1 C7 1_555 1_555
O2 N3 1_555 1_555
O3 N3 1_555 1_555
N1 N2 1_555 1_555
N2 C9 1_555 1_555
N3 C18 1_555 1_555
C1 N1 1_555 1_555
C2 C1 1_555 1_555
H1 C2 1_555 1_555
C3 C2 1_555 1_555
H2 C3 1_555 1_555
C4 C3 1_555 1_555
H3 C4 1_555 1_555
C5 C4 1_555 1_555
H4 C5 1_555 1_555
C6 C1 1_555 1_555
H5 C6 1_555 1_555
C7 N1 1_555 1_555
C8 C7 1_555 1_555
C9 C8 1_555 1_555
C10 C9 1_555 1_555
H6 C10 1_555 1_555
H7 C10 1_555 1_555
H8 C10 1_555 1_555
C11 C8 1_555 1_555
H9 C11 1_555 1_555
C12 C11 1_555 1_555
C13 C12 1_555 1_555
H10 C13 1_555 1_555
C14 C13 1_555 1_555
H11 C14 1_555 1_555
C15 C14 1_555 1_555
H12 C15 1_555 1_555
C16 C15 1_555 1_555
C17 C12 1_555 1_555
H13 C17 1_555 1_555
C18 C11 1_555 1_555
H14 C18 1_555 1_555
H15 C18 1_555 1_555
Br2 C26 1_555 1_555
Cl2 C34 1_555 1_555
O4 C25 1_555 1_555
O5 N6 1_555 1_555
O6 N6 1_555 1_555
N4 N5 1_555 1_555
N5 C27 1_555 1_555
N6 C36 1_555 1_555
C19 N4 1_555 1_555
C20 C19 1_555 1_555
H16 C20 1_555 1_555
C21 C20 1_555 1_555
H17 C21 1_555 1_555
C22 C21 1_555 1_555
H18 C22 1_555 1_555
C23 C22 1_555 1_555
H19 C23 1_555 1_555
C24 C19 1_555 1_555
H20 C24 1_555 1_555
C25 N4 1_555 1_555
C26 C25 1_555 1_555
C27 C26 1_555 1_555
C28 C27 1_555 1_555
H21 C28 1_555 1_555
H22 C28 1_555 1_555
H23 C28 1_555 1_555
C29 C26 1_555 1_555
H24 C29 1_555 1_555
C30 C29 1_555 1_555
C31 C30 1_555 1_555
H25 C31 1_555 1_555
C32 C31 1_555 1_555
H26 C32 1_555 1_555
C33 C32 1_555 1_555
H27 C33 1_555 1_555
C34 C33 1_555 1_555
C35 C30 1_555 1_555
H28 C35 1_555 1_555
C36 C29 1_555 1_555
H29 C36 1_555 1_555
H30 C36 1_555 1_555
C5 C6 1_555 1_555
C16 C17 1_555 1_555
C23 C24 1_555 1_555
C34 C35 1_555 1_555

#END
