
#######################################################################
#
#                 Cambridge Crystallographic Data Centre
#                                CCDC 
#
#######################################################################
#
# If this CIF has been generated from an entry in the Cambridge 
# Structural Database, then it will include bibliographic, chemical, 
# crystal, experimental, refinement or atomic coordinate data resulting 
# from the CCDC's data processing and validation procedures.
#
#######################################################################

data_HIGROF
_chemical_formula_moiety         'C60 H52 N4,C16 H36 N1 1+,N3 1-,C6 H14'
_chemical_name_systematic        
'Tetrabutylammonium azide 13,22,37,46-tetra-t-butyl-2,9,26,33-tetraazaundecacyclo[42.4.0.0^3,8^.0^4,48^.0^7,11^.0^10,15^.0^20,25^.0^24,28^.0^27,32^.0^31,35^.0^34,39^]octatetraconta-1(48),3,5,7,10,12,14,20,22,24,27,29,31,34,36,38,44,46-octadecaene-16,18,40,42-tetrayne hexane solvate'
_symmetry_cell_setting           monoclinic
_symmetry_space_group_name_H-M   'P 21/c'
_symmetry_Int_Tables_number      14
_space_group_name_Hall           '-P 2ybc'
loop_
_symmetry_equiv_pos_site_id
_symmetry_equiv_pos_as_xyz
1 x,y,z
2 -x,1/2+y,1/2-z
3 -x,-y,-z
4 x,1/2-y,1/2+z
_cell_length_a                   18.459(4)
_cell_length_b                   17.029(3)
_cell_length_c                   12.014(2)
_cell_angle_alpha                90
_cell_angle_beta                 103.43(3)
_cell_angle_gamma                90
_cell_volume                     3673.19
_exptl_crystal_colour            yellow
_exptl_crystal_description       plate
_cell_formula_units_Z            2
_chemical_properties_physical    air-sensitive
loop_
_atom_site_label
_atom_site_type_symbol
_atom_site_fract_x
_atom_site_fract_y
_atom_site_fract_z
N3 N 0.5000 0.5000 1.0000
N4 N 0.50063(15) 0.4653(2) 0.9145(3)
N4B N 0.49937(15) 0.5347(2) 1.0855(3)
N5 N 0.5000 0.5000 0.5000
C34 C 0.4473(5) 0.5072(5) 0.3777(7)
H36 H 0.4196 0.5572 0.3753
H37 H 0.4793 0.5123 0.3224
C35 C 0.3913(6) 0.4439(6) 0.3339(10)
H38 H 0.4138 0.3931 0.3633
H39 H 0.3832 0.4424 0.2495
C36 C 0.3122(5) 0.4492(6) 0.3633(8)
H40 H 0.3178 0.4346 0.4446
H41 H 0.2954 0.5045 0.3548
C37 C 0.2517(8) 0.3980(8) 0.2909(12)
C38 C 0.4545(5) 0.4862(5) 0.5861(8)
H42 H 0.4209 0.4410 0.5611
C39 C 0.4093(4) 0.5556(5) 0.6021(6)
H44 H 0.4431 0.5987 0.6366
H45 H 0.3805 0.5736 0.5264
C40 C 0.3577(5) 0.5391(5) 0.6752(8)
H46 H 0.3865 0.5332 0.7552
H47 H 0.3322 0.4886 0.6513
C41 C 0.2992(8) 0.6031(8) 0.6704(12)
C34B C 0.5527(5) 0.4928(5) 0.6223(7)
H36B H 0.5804 0.4428 0.6247
H37B H 0.5207 0.4877 0.6776
C35B C 0.6087(6) 0.5561(6) 0.6661(10)
H38B H 0.5862 0.6069 0.6367
H39B H 0.6168 0.5576 0.7505
C36B C 0.6878(5) 0.5508(6) 0.6367(8)
H40B H 0.6822 0.5654 0.5554
H41B H 0.7046 0.4955 0.6452
C37B C 0.7483(8) 0.6020(8) 0.7091(12)
C38B C 0.5455(5) 0.5138(5) 0.4139(8)
H42B H 0.5791 0.5590 0.4389
C39B C 0.5907(4) 0.4444(5) 0.3979(6)
H44B H 0.5569 0.4013 0.3634
H45B H 0.6195 0.4264 0.4736
C40B C 0.6423(5) 0.4609(5) 0.3248(8)
H46B H 0.6135 0.4668 0.2448
H47B H 0.6678 0.5114 0.3487
C41B C 0.7008(8) 0.3969(8) 0.3296(12)
C1 C 0.72074(16) 0.38343(19) 0.8361(2)
C2 C 0.65284(15) 0.34691(18) 0.7872(2)
N1 N 0.58446(13) 0.35788(16) 0.8128(2)
H1 H 0.5747(17) 0.387(2) 0.861(3)
C3 C 0.53294(16) 0.31193(19) 0.7385(2)
C4 C 0.45554(16) 0.30837(19) 0.7223(2)
N2 N 0.40909(13) 0.35039(17) 0.7756(2)
H2 H 0.423(2) 0.390(2) 0.823(3)
C5 C 0.33661(16) 0.3317(2) 0.7221(3)
C6 C 0.27046(16) 0.3617(2) 0.7435(3)
C7 C 0.20365(17) 0.3351(2) 0.6724(3)
H3 H 0.1581 0.3551 0.6847
C8 C 0.20078(18) 0.2810(3) 0.5849(3)
C9 C 0.26800(18) 0.2508(3) 0.5674(3)
H4 H 0.2672 0.2129 0.5090
C10 C 0.33629(17) 0.2761(2) 0.6354(3)
C11 C 0.41369(17) 0.2608(2) 0.6361(3)
C12 C 0.45011(18) 0.2134(2) 0.5680(3)
H5 H 0.4219 0.1788 0.5124
C13 C 0.52589(18) 0.2179(2) 0.5826(3)
H6 H 0.5501 0.1871 0.5361
C14 C 0.56819(17) 0.2684(2) 0.6669(3)
C15 C 0.64602(16) 0.2921(2) 0.6974(3)
C16 C 0.70847(17) 0.2736(2) 0.6555(3)
H7 H 0.7044 0.2366 0.5951
C17 C 0.77701(17) 0.3094(2) 0.7019(3)
C18 C 0.78177(16) 0.3628(2) 0.7916(3)
H8 H 0.8286 0.3863 0.8238
C19 C 0.84757(18) 0.2909(3) 0.6590(3)
C20 C 0.8762(3) 0.3706(3) 0.6141(5)
H9 H 0.9196 0.3596 0.5826
H10 H 0.8903 0.4077 0.6778
H11 H 0.8364 0.3934 0.5544
C21 C 0.9073(2) 0.2609(4) 0.7538(4)
H12 H 0.8899 0.2135 0.7859
H13 H 0.9202 0.3011 0.8135
H14 H 0.9513 0.2482 0.7248
C22 C 0.8327(2) 0.2377(4) 0.5562(4)
H15 H 0.7945 0.2612 0.4949
H16 H 0.8153 0.1866 0.5770
H17 H 0.8787 0.2306 0.5298
C26 C 0.1239(2) 0.2571(3) 0.5112(4)
C27 C 0.0838(3) 0.3334(4) 0.4505(5)
H27 H 0.1123 0.3544 0.3978
H28 H 0.0809 0.3730 0.5084
H29 H 0.0335 0.3198 0.4076
C28 C 0.0744(2) 0.2298(4) 0.5832(4)
H30 H 0.0259 0.2155 0.5345
H31 H 0.0678 0.2719 0.6356
H32 H 0.0965 0.1839 0.6274
C29 C 0.1288(2) 0.2041(3) 0.4173(4)
H33 H 0.1497 0.1537 0.4487
H34 H 0.1611 0.2274 0.3719
H35 H 0.0789 0.1958 0.3685
C30 C 0.72503(15) 0.4384(2) 0.9267(3)
C31 C 0.72451(15) 0.48434(19) 1.0035(3)
C32 C 0.27181(15) 0.4168(2) 0.8329(3)
C33 C 0.72569(16) 0.5369(2) 1.0900(3)
C1B C 0.27926(16) 0.61657(19) 1.1639(2)
C2B C 0.34716(15) 0.65309(18) 1.2128(2)
N1B N 0.41554(13) 0.64212(16) 1.1872(2)
H1B H 0.4253(17) 0.613(2) 1.139(3)
C3B C 0.46706(16) 0.68807(19) 1.2615(2)
C4B C 0.54446(16) 0.69163(19) 1.2777(2)
N2B N 0.59091(13) 0.64961(17) 1.2244(2)
H2B H 0.577(2) 0.610(2) 1.177(3)
C5B C 0.66339(16) 0.6683(2) 1.2779(3)
C6B C 0.72954(16) 0.6383(2) 1.2565(3)
C7B C 0.79635(17) 0.6649(2) 1.3276(3)
H3B H 0.8419 0.6449 1.3153
C8B C 0.79922(18) 0.7190(3) 1.4151(3)
C9B C 0.73200(18) 0.7492(3) 1.4326(3)
H4B H 0.7328 0.7871 1.4910
C10B C 0.66371(17) 0.7239(2) 1.3646(3)
C11B C 0.58631(17) 0.7392(2) 1.3639(3)
C12B C 0.54989(18) 0.7866(2) 1.4320(3)
H5B H 0.5781 0.8212 1.4876
C13B C 0.47411(18) 0.7821(2) 1.4174(3)
H6B H 0.4499 0.8129 1.4639
C14B C 0.43181(17) 0.7316(2) 1.3331(3)
C15B C 0.35398(16) 0.7079(2) 1.3026(3)
C16B C 0.29153(17) 0.7264(2) 1.3445(3)
H7B H 0.2956 0.7634 1.4049
C17B C 0.22299(17) 0.6906(2) 1.2981(3)
C18B C 0.21823(16) 0.6372(2) 1.2084(3)
H8B H 0.1714 0.6137 1.1762
C19B C 0.15243(18) 0.7091(3) 1.3410(3)
C20B C 0.1238(3) 0.6294(3) 1.3859(5)
H9B H 0.0804 0.6404 1.4174
H10B H 0.1097 0.5923 1.3222
H11B H 0.1636 0.6066 1.4456
C21B C 0.0927(2) 0.7391(4) 1.2462(4)
H12B H 0.1101 0.7865 1.2141
H13B H 0.0798 0.6989 1.1865
H14B H 0.0487 0.7518 1.2752
C22B C 0.1673(2) 0.7623(4) 1.4438(4)
H15B H 0.2055 0.7388 1.5051
H16B H 0.1847 0.8134 1.4230
H17B H 0.1213 0.7694 1.4702
C26B C 0.8761(2) 0.7429(3) 1.4888(4)
C27B C 0.9162(3) 0.6666(4) 1.5495(5)
H27B H 0.8877 0.6456 1.6022
H28B H 0.9191 0.6270 1.4916
H29B H 0.9665 0.6802 1.5924
C28B C 0.9256(2) 0.7702(4) 1.4168(4)
H30B H 0.9741 0.7845 1.4655
H31B H 0.9322 0.7281 1.3644
H32B H 0.9035 0.8161 1.3726
C29B C 0.8712(2) 0.7959(3) 1.5827(4)
H33B H 0.8503 0.8463 1.5513
H34B H 0.8389 0.7726 1.6281
H35B H 0.9211 0.8042 1.6315
C30B C 0.27497(15) 0.5616(2) 1.0733(3)
C31B C 0.27549(15) 0.51566(19) 0.9965(3)
C32B C 0.72819(15) 0.5832(2) 1.1671(3)
C33B C 0.27431(16) 0.4631(2) 0.9100(3)
C23? C 0.8607(18) 0.1980(11) 0.705(3)
H18? H 0.8162 0.1669 0.6729
H19? H 0.8701 0.1971 0.7892
H20? H 0.9036 0.1757 0.6815
C24? C 0.9177(11) 0.3223(15) 0.7291(18)
H21? H 0.9598 0.3004 0.7024
H22? H 0.9222 0.3078 0.8093
H23? H 0.9179 0.3796 0.7221
C25? C 0.8359(14) 0.2850(19) 0.546(2)
H24? H 0.8804 0.2634 0.5261
H25? H 0.8253 0.3372 0.5116
H26? H 0.7934 0.2502 0.5173
H43? H 0.4881 0.4724 0.6604
C42? C 0.5511(5) 0.5660(6) 0.5196(8)
H48? H 0.5216 0.6149 0.5161
H49? H 0.5772 0.5679 0.4564
C43? C 0.6069(10) 0.5649(11) 0.6280(15)
H50? H 0.5816 0.5740 0.6910
H51? H 0.6296 0.5120 0.6389
C44? C 0.6644(6) 0.6210(7) 0.6367(10)
H52? H 0.6417 0.6736 0.6373
H53? H 0.6830 0.6175 0.5660
C45? C 0.7306(9) 0.6174(9) 0.7360(14)
C46? C 0.5400(5) 0.4158(6) 0.4937(8)
H54? H 0.5768 0.4080 0.5672
H55? H 0.5016 0.3746 0.4886
C47? C 0.5797(6) 0.4012(8) 0.3979(10)
H56? H 0.5789 0.3440 0.3836
H57? H 0.5497 0.4263 0.3278
C48? C 0.6524(10) 0.4265(10) 0.4117(16)
H58? H 0.6827 0.4075 0.4859
H59? H 0.6538 0.4846 0.4123
C49? C 0.6889(9) 0.3925(10) 0.3043(14)
C50? C 0.9124(10) 0.0224(10) 0.8559(14)
C51? C 0.9453(7) 0.0027(8) 0.7637(10)
H60? H 0.9992 0.0059 0.7999
H61? H 0.9347 -0.0542 0.7542
C52? C 0.9431(8) 0.0248(9) 0.6592(11)
H62? H 0.9438 0.0830 0.6588
H63? H 0.8943 0.0084 0.6115
C53? C 1.0006(6) -0.0020(7) 0.6008(8)
H64? H 1.0067 -0.0593 0.6139
H65? H 1.0482 0.0229 0.6400
C54? C 0.9905(10) 0.0123(12) 0.4716(11)
H66? H 0.9858 0.0693 0.4555
H67? H 0.9444 -0.0137 0.4292
C55? C 1.0585(10) -0.0210(11) 0.4312(16)
loop_
_geom_bond_atom_site_label_1
_geom_bond_atom_site_label_2
_geom_bond_site_symmetry_1
_geom_bond_site_symmetry_2
C1 C2 1_555 1_555
C2 N1 1_555 1_555
N1 H1 1_555 1_555
C3 N1 1_555 1_555
C4 C3 1_555 1_555
N2 C4 1_555 1_555
H2 N2 1_555 1_555
C5 N2 1_555 1_555
C6 C5 1_555 1_555
C7 C6 1_555 1_555
H3 C7 1_555 1_555
C8 C7 1_555 1_555
C9 C8 1_555 1_555
H4 C9 1_555 1_555
C10 C5 1_555 1_555
C11 C4 1_555 1_555
C12 C11 1_555 1_555
H5 C12 1_555 1_555
C13 C12 1_555 1_555
H6 C13 1_555 1_555
C14 C3 1_555 1_555
C15 C2 1_555 1_555
C16 C15 1_555 1_555
H7 C16 1_555 1_555
C17 C16 1_555 1_555
C18 C1 1_555 1_555
H8 C18 1_555 1_555
C19 C17 1_555 1_555
C20 C19 1_555 1_555
H9 C20 1_555 1_555
H10 C20 1_555 1_555
H11 C20 1_555 1_555
C21 C19 1_555 1_555
H12 C21 1_555 1_555
H13 C21 1_555 1_555
H14 C21 1_555 1_555
C22 C19 1_555 1_555
H15 C22 1_555 1_555
H16 C22 1_555 1_555
H17 C22 1_555 1_555
C26 C8 1_555 1_555
C27 C26 1_555 1_555
H27 C27 1_555 1_555
H28 C27 1_555 1_555
H29 C27 1_555 1_555
C28 C26 1_555 1_555
H30 C28 1_555 1_555
H31 C28 1_555 1_555
H32 C28 1_555 1_555
C29 C26 1_555 1_555
H33 C29 1_555 1_555
H34 C29 1_555 1_555
H35 C29 1_555 1_555
C30 C1 1_555 1_555
C31 C30 1_555 1_555
C32 C6 1_555 1_555
C33 C31 1_555 1_555
N3 N4 1_555 1_555
N5 C34 1_555 1_555
C34 H36 1_555 1_555
H37 C34 1_555 1_555
C35 C34 1_555 1_555
H38 C35 1_555 1_555
H39 C35 1_555 1_555
C36 C35 1_555 1_555
H40 C36 1_555 1_555
H41 C36 1_555 1_555
C37 C36 1_555 1_555
C38 N5 1_555 1_555
H42 C38 1_555 1_555
C39 C38 1_555 1_555
H44 C39 1_555 1_555
H45 C39 1_555 1_555
C40 C39 1_555 1_555
H46 C40 1_555 1_555
H47 C40 1_555 1_555
C41 C40 1_555 1_555
C1B C2B 1_555 1_555
C2B N1B 1_555 1_555
N1B H1B 1_555 1_555
C3B N1B 1_555 1_555
C4B C3B 1_555 1_555
N2B C4B 1_555 1_555
H2B N2B 1_555 1_555
C5B N2B 1_555 1_555
C6B C5B 1_555 1_555
C7B C6B 1_555 1_555
H3B C7B 1_555 1_555
C8B C7B 1_555 1_555
C9B C8B 1_555 1_555
H4B C9B 1_555 1_555
C10B C5B 1_555 1_555
C11B C4B 1_555 1_555
C12B C11B 1_555 1_555
H5B C12B 1_555 1_555
C13B C12B 1_555 1_555
H6B C13B 1_555 1_555
C14B C3B 1_555 1_555
C15B C2B 1_555 1_555
C16B C15B 1_555 1_555
H7B C16B 1_555 1_555
C17B C16B 1_555 1_555
C18B C1B 1_555 1_555
H8B C18B 1_555 1_555
C19B C17B 1_555 1_555
C20B C19B 1_555 1_555
H9B C20B 1_555 1_555
H10B C20B 1_555 1_555
H11B C20B 1_555 1_555
C21B C19B 1_555 1_555
H12B C21B 1_555 1_555
H13B C21B 1_555 1_555
H14B C21B 1_555 1_555
C22B C19B 1_555 1_555
H15B C22B 1_555 1_555
H16B C22B 1_555 1_555
H17B C22B 1_555 1_555
C26B C8B 1_555 1_555
C27B C26B 1_555 1_555
H27B C27B 1_555 1_555
H28B C27B 1_555 1_555
H29B C27B 1_555 1_555
C28B C26B 1_555 1_555
H30B C28B 1_555 1_555
H31B C28B 1_555 1_555
H32B C28B 1_555 1_555
C29B C26B 1_555 1_555
H33B C29B 1_555 1_555
H34B C29B 1_555 1_555
H35B C29B 1_555 1_555
C30B C1B 1_555 1_555
C31B C30B 1_555 1_555
C32B C33 1_555 1_555
C33B C32 1_555 1_555
N4B N3 1_555 1_555
C34B N5 1_555 1_555
H36B C34B 1_555 1_555
H37B C34B 1_555 1_555
C35B C34B 1_555 1_555
H38B C35B 1_555 1_555
H39B C35B 1_555 1_555
C36B C35B 1_555 1_555
H40B C36B 1_555 1_555
H41B C36B 1_555 1_555
C37B C36B 1_555 1_555
C38B N5 1_555 1_555
H42B C38B 1_555 1_555
C39B C38B 1_555 1_555
H44B C39B 1_555 1_555
H45B C39B 1_555 1_555
C40B C39B 1_555 1_555
H46B C40B 1_555 1_555
H47B C40B 1_555 1_555
C41B C40B 1_555 1_555
C9 C10 1_555 1_555
C10 C11 1_555 1_555
C13 C14 1_555 1_555
C14 C15 1_555 1_555
C17 C18 1_555 1_555
C6B C32B 1_555 1_555
C9B C10B 1_555 1_555
C10B C11B 1_555 1_555
C13B C14B 1_555 1_555
C14B C15B 1_555 1_555
C17B C18B 1_555 1_555
C31B C33B 1_555 1_555

#END
