
#######################################################################
#
#                 Cambridge Crystallographic Data Centre
#                                CCDC 
#
#######################################################################
#
# If this CIF has been generated from an entry in the Cambridge 
# Structural Database, then it will include bibliographic, chemical, 
# crystal, experimental, refinement or atomic coordinate data resulting 
# from the CCDC's data processing and validation procedures.
#
#######################################################################

data_HIGSUN
_chemical_name_common            
'Norfloxacin hydrogen 2-aminoisophthalate monohydrate'
_chemical_formula_moiety         'C16 H19 F1 N3 O3 1+,C8 H6 N1 O4 1-,H2 O1'
_chemical_name_systematic        
'4-(3-Carboxy-1-ethyl-6-fluoro-4-oxo-1,4-dihydroquinolin-7-yl)piperazin-1-ium 2-amino-3-carboxybenzoate monohydrate'
_chemical_properties_biological  'antibacterial activity'
_symmetry_cell_setting           monoclinic
_symmetry_space_group_name_H-M   'P 21/n'
_symmetry_Int_Tables_number      14
_space_group_name_Hall           '-P 2yn'
loop_
_symmetry_equiv_pos_site_id
_symmetry_equiv_pos_as_xyz
1 x,y,z
2 1/2-x,1/2+y,1/2-z
3 -x,-y,-z
4 1/2+x,1/2-y,1/2+z
_cell_length_a                   9.5670(8)
_cell_length_b                   8.1152(6)
_cell_length_c                   30.906(3)
_cell_angle_alpha                90
_cell_angle_beta                 92.476(2)
_cell_angle_gamma                90
_cell_volume                     2397.24
_exptl_crystal_colour            colorless
_exptl_crystal_description       block
_cell_formula_units_Z            4
loop_
_atom_site_label
_atom_site_type_symbol
_atom_site_fract_x
_atom_site_fract_y
_atom_site_fract_z
C1 C 0.1442(2) 0.6489(3) 0.18723(7)
H1 H 0.1196 0.6847 0.2159
H2 H 0.0594 0.6454 0.1689
C2 C 0.2459(2) 0.7684(2) 0.16890(7)
H3 H 0.2022 0.8759 0.1661
H4 H 0.3269 0.7786 0.1887
C3 C 0.3547(2) 0.5513(2) 0.12912(7)
H5 H 0.4383 0.5548 0.1480
H6 H 0.3815 0.5164 0.1006
C4 C 0.2521(2) 0.4296(2) 0.14662(6)
H7 H 0.1706 0.4219 0.1269
H8 H 0.2952 0.3215 0.1487
C5 C 0.3640(2) 0.8334(2) 0.10312(6)
C6 C 0.3004(2) 0.9857(2) 0.09176(6)
C7 C 0.3650(2) 1.1046(2) 0.06931(6)
H9 H 0.3194 1.2035 0.0631
C8 C 0.5016(2) 1.0780(2) 0.05539(6)
C9 C 0.5657(2) 0.9264(2) 0.06473(6)
C10 C 0.4961(2) 0.8072(2) 0.08859(6)
H10 H 0.5405 0.7074 0.0948
N1 N 0.69955(18) 0.8963(2) 0.05045(6)
C11 C 0.7656(2) 1.0136(3) 0.02878(7)
H11 H 0.8554 0.9910 0.0201
C12 C 0.7097(2) 1.1643(3) 0.01862(7)
C13 C 0.5728(2) 1.2052(3) 0.03172(7)
C14 C 0.7725(2) 0.7392(3) 0.06060(9)
H12 H 0.8443 0.7216 0.0399
H13 H 0.7061 0.6492 0.0577
C15 C 0.8392(4) 0.7377(4) 0.10603(11)
H14 H 0.9101 0.8212 0.1084
H15 H 0.8805 0.6318 0.1118
H16 H 0.7690 0.7591 0.1266
C16 C 0.7927(3) 1.2805(4) -0.00636(8)
F1 F 0.16720(13) 1.01197(15) 0.10294(4)
N2 N 0.20854(17) 0.4818(2) 0.18987(5)
H17 H 0.2834 0.4835 0.2085
H18 H 0.1463 0.4093 0.1998
N3 N 0.29173(17) 0.71507(19) 0.12631(5)
O1 O 0.5165(2) 1.3431(2) 0.02387(6)
O2 O 0.7318(2) 1.4222(2) -0.01655(6)
H19 H 0.6583 1.4300 -0.0040
O3 O 0.9108(2) 1.2511(3) -0.01728(7)
C17 C 0.66110(18) 0.0875(2) 0.19538(6)
C18 C 0.78752(19) 0.0435(2) 0.21884(6)
C19 C 0.91609(18) 0.0981(2) 0.20202(6)
C20 C 0.91435(19) 0.1826(2) 0.16328(6)
H20 H 0.9990 0.2152 0.1523
C21 C 0.7915(2) 0.2209(3) 0.14014(6)
H21 H 0.7935 0.2757 0.1138
C22 C 0.6663(2) 0.1760(3) 0.15699(6)
H22 H 0.5831 0.2056 0.1423
C23 C 0.52357(19) 0.0462(2) 0.21253(6)
C24 C 1.05538(18) 0.0703(2) 0.22549(6)
N4 N 0.78533(18) -0.0418(3) 0.25580(6)
H23 H 0.8624 -0.0646 0.2699
H24 H 0.7069 -0.0738 0.2655
O4 O 0.41799(13) 0.11835(18) 0.19072(5)
H25 H 0.3449 0.0997 0.2028
O5 O 0.50518(14) -0.04196(19) 0.24340(5)
O6 O 1.06222(14) -0.0258(2) 0.25735(5)
O7 O 1.15975(13) 0.14459(17) 0.21175(5)
O8 O 0.0360(4) 0.4035(4) 0.06313(9)
H26 H -0.0325 0.4026 0.0462
H27 H 0.1157 0.3976 0.0545
loop_
_geom_bond_atom_site_label_1
_geom_bond_atom_site_label_2
_geom_bond_site_symmetry_1
_geom_bond_site_symmetry_2
C1 H1 1_555 1_555
H2 C1 1_555 1_555
C2 C1 1_555 1_555
H3 C2 1_555 1_555
H4 C2 1_555 1_555
C3 H5 1_555 1_555
H6 C3 1_555 1_555
C4 C3 1_555 1_555
H7 C4 1_555 1_555
H8 C4 1_555 1_555
C5 C6 1_555 1_555
C6 C7 1_555 1_555
C7 H9 1_555 1_555
C8 C7 1_555 1_555
C9 C8 1_555 1_555
C10 C5 1_555 1_555
H10 C10 1_555 1_555
N1 C9 1_555 1_555
C11 N1 1_555 1_555
H11 C11 1_555 1_555
C12 C11 1_555 1_555
C13 C8 1_555 1_555
C14 N1 1_555 1_555
H12 C14 1_555 1_555
H13 C14 1_555 1_555
C15 C14 1_555 1_555
H14 C15 1_555 1_555
H15 C15 1_555 1_555
H16 C15 1_555 1_555
C16 C12 1_555 1_555
F1 C6 1_555 1_555
N2 C1 1_555 1_555
H17 N2 1_555 1_555
H18 N2 1_555 1_555
N3 C2 1_555 1_555
O1 C13 1_555 1_555
O2 C16 1_555 1_555
H19 O2 1_555 1_555
O3 C16 1_555 1_555
C17 C18 1_555 1_555
C18 C19 1_555 1_555
C19 C20 1_555 1_555
C20 H20 1_555 1_555
C21 C20 1_555 1_555
H21 C21 1_555 1_555
C22 C17 1_555 1_555
H22 C22 1_555 1_555
C23 C17 1_555 1_555
C24 C19 1_555 1_555
N4 C18 1_555 1_555
H23 N4 1_555 1_555
H24 N4 1_555 1_555
O4 C23 1_555 1_555
H25 O4 1_555 1_555
O5 C23 1_555 1_555
O6 C24 1_555 1_555
O7 C24 1_555 1_555
O8 H26 1_555 1_555
H27 O8 1_555 1_555
C3 N3 1_555 1_555
C4 N2 1_555 1_555
C5 N3 1_555 1_555
C9 C10 1_555 1_555
C12 C13 1_555 1_555
C21 C22 1_555 1_555

#END
