
#######################################################################
#
#                 Cambridge Crystallographic Data Centre
#                                CCDC 
#
#######################################################################
#
# If this CIF has been generated from an entry in the Cambridge 
# Structural Database, then it will include bibliographic, chemical, 
# crystal, experimental, refinement or atomic coordinate data resulting 
# from the CCDC's data processing and validation procedures.
#
#######################################################################

data_HIGSIB
_chemical_name_common            'Norfloxacin hydrogen isophthalate'
_chemical_formula_moiety         'C16 H19 F1 N3 O3 1+,C8 H5 O4 1-'
_chemical_name_systematic        
'4-(3-Carboxy-1-ethyl-6-fluoro-4-oxo-1,4-dihydroquinolin-7-yl)piperazin-1-ium 3-carboxybenzoate'
_chemical_properties_biological  'antibacterial activity'
_symmetry_cell_setting           orthorhombic
_symmetry_space_group_name_H-M   'P b c a'
_symmetry_Int_Tables_number      61
_space_group_name_Hall           '-P 2ac 2ab'
loop_
_symmetry_equiv_pos_site_id
_symmetry_equiv_pos_as_xyz
1 x,y,z
2 1/2-x,-y,1/2+z
3 -x,1/2+y,1/2-z
4 1/2+x,1/2-y,-z
5 -x,-y,-z
6 1/2+x,y,1/2-z
7 x,1/2-y,1/2+z
8 1/2-x,1/2+y,z
_cell_length_a                   13.9940(17)
_cell_length_b                   13.6288(18)
_cell_length_c                   22.537(3)
_cell_angle_alpha                90
_cell_angle_beta                 90
_cell_angle_gamma                90
_cell_volume                     4298.29
_exptl_crystal_colour            yellow
_exptl_crystal_description       block
_cell_formula_units_Z            8
loop_
_atom_site_label
_atom_site_type_symbol
_atom_site_fract_x
_atom_site_fract_y
_atom_site_fract_z
C1 C 0.38336(18) 0.9762(2) 0.39932(11)
H1 H 0.3646 1.0348 0.4208
H2 H 0.3350 0.9264 0.4062
C2 C 0.38745(18) 0.9991(2) 0.33390(10)
H3 H 0.3242 1.0168 0.3199
H4 H 0.4296 1.0545 0.3272
C3 C 0.51865(17) 0.8877(2) 0.32007(11)
H5 H 0.5614 0.9428 0.3138
H6 H 0.5421 0.8326 0.2971
C4 C 0.51655(19) 0.8608(2) 0.38564(11)
H7 H 0.4783 0.8021 0.3909
H8 H 0.5810 0.8464 0.3989
C5 C 0.40369(16) 0.9125(2) 0.23981(11)
C6 C 0.30800(17) 0.9131(2) 0.22035(11)
C7 C 0.28304(17) 0.9108(2) 0.16249(11)
H9 H 0.2189 0.9140 0.1519
C8 C 0.35303(17) 0.9034(2) 0.11848(10)
C9 C 0.44915(16) 0.8980(2) 0.13606(11)
C10 C 0.47319(16) 0.9042(2) 0.19677(11)
H10 H 0.5371 0.9025 0.2079
C11 C 0.32617(17) 0.8994(2) 0.05649(11)
C12 C 0.40209(17) 0.8888(2) 0.01515(11)
C13 C 0.49415(18) 0.8819(2) 0.03508(11)
H11 H 0.5423 0.8735 0.0071
N1 N 0.51945(13) 0.88657(17) 0.09226(8)
C14 C 0.62128(17) 0.8727(2) 0.10795(12)
H12 H 0.6387 0.9190 0.1388
H13 H 0.6606 0.8864 0.0735
C15 C 0.6408(2) 0.7707(3) 0.12910(15)
H14 H 0.6029 0.7574 0.1637
H15 H 0.7073 0.7644 0.1388
H16 H 0.6247 0.7248 0.0984
C16 C 0.38194(19) 0.8830(2) -0.04904(12)
F1 F 0.23723(10) 0.91455(15) 0.26164(7)
N2 N 0.47643(15) 0.94084(18) 0.42255(9)
H17 H 0.5181 0.9912 0.4235
H18 H 0.4685 0.9191 0.4599
N3 N 0.42246(14) 0.91360(18) 0.30068(9)
O1 O 0.23911(12) 0.90578(17) 0.04102(8)
O2 O 0.29181(14) 0.8912(2) -0.06367(8)
H19 H 0.2588 0.8907 -0.0336
O3 O 0.44330(14) 0.87391(17) -0.08748(8)
C17 C 0.32360(17) 0.8461(2) 0.70525(11)
C18 C 0.22440(18) 0.8411(2) 0.71105(12)
H20 H 0.1966 0.8387 0.7485
C19 C 0.16778(18) 0.8397(2) 0.66104(12)
H21 H 0.1017 0.8361 0.6649
C20 C 0.20844(18) 0.8435(2) 0.60501(12)
H22 H 0.1695 0.8412 0.5716
C21 C 0.30703(18) 0.8506(2) 0.59833(11)
C22 C 0.36367(17) 0.8503(2) 0.64896(10)
H23 H 0.4298 0.8531 0.6451
C23 C 0.3501(2) 0.8574(2) 0.53696(11)
C24 C 0.38812(19) 0.8488(2) 0.75791(12)
O4 O 0.34191(14) 0.8601(2) 0.80836(8)
H24 H 0.3804 0.8655 0.8356
O5 O 0.47365(13) 0.8421(2) 0.75458(9)
O6 O 0.30198(15) 0.83405(18) 0.49404(8)
O7 O 0.43639(13) 0.89000(16) 0.53470(8)
loop_
_geom_bond_atom_site_label_1
_geom_bond_atom_site_label_2
_geom_bond_site_symmetry_1
_geom_bond_site_symmetry_2
C1 H1 1_555 1_555
H2 C1 1_555 1_555
C2 C1 1_555 1_555
H3 C2 1_555 1_555
H4 C2 1_555 1_555
C3 H5 1_555 1_555
H6 C3 1_555 1_555
C4 C3 1_555 1_555
H7 C4 1_555 1_555
H8 C4 1_555 1_555
C5 C6 1_555 1_555
C6 C7 1_555 1_555
C7 H9 1_555 1_555
C8 C7 1_555 1_555
C9 C8 1_555 1_555
C10 C5 1_555 1_555
H10 C10 1_555 1_555
C11 C8 1_555 1_555
C12 C11 1_555 1_555
C13 C12 1_555 1_555
H11 C13 1_555 1_555
N1 C9 1_555 1_555
C14 N1 1_555 1_555
H12 C14 1_555 1_555
H13 C14 1_555 1_555
C15 C14 1_555 1_555
H14 C15 1_555 1_555
H15 C15 1_555 1_555
H16 C15 1_555 1_555
C16 C12 1_555 1_555
F1 C6 1_555 1_555
N2 C1 1_555 1_555
H17 N2 1_555 1_555
H18 N2 1_555 1_555
N3 C2 1_555 1_555
O1 C11 1_555 1_555
O2 C16 1_555 1_555
H19 O2 1_555 1_555
O3 C16 1_555 1_555
C17 C18 1_555 1_555
C18 H20 1_555 1_555
C19 C18 1_555 1_555
H21 C19 1_555 1_555
C20 C19 1_555 1_555
H22 C20 1_555 1_555
C21 C20 1_555 1_555
C22 C17 1_555 1_555
H23 C22 1_555 1_555
C23 C21 1_555 1_555
C24 C17 1_555 1_555
O4 C24 1_555 1_555
H24 O4 1_555 1_555
O5 C24 1_555 1_555
O6 C23 1_555 1_555
O7 C23 1_555 1_555
C3 N3 1_555 1_555
C4 N2 1_555 1_555
C5 N3 1_555 1_555
C9 C10 1_555 1_555
C13 N1 1_555 1_555
C21 C22 1_555 1_555

#END
