
#######################################################################
#
#                 Cambridge Crystallographic Data Centre
#                                CCDC 
#
#######################################################################
#
# If this CIF has been generated from an entry in the Cambridge 
# Structural Database, then it will include bibliographic, chemical, 
# crystal, experimental, refinement or atomic coordinate data resulting 
# from the CCDC's data processing and validation procedures.
#
#######################################################################

data_HIGSAT
_chemical_name_common            'Norfloxacin hydrogen phthalate'
_chemical_formula_moiety         'C16 H19 F1 N3 O3 1+,C8 H5 O4 1-'
_chemical_name_systematic        
'4-(3-Carboxy-1-ethyl-6-fluoro-4-oxo-1,4-dihydroquinolin-7-yl)piperazin-1-ium 2-carboxybenzoate'
_chemical_properties_biological  'antibacterial activity'
_symmetry_cell_setting           triclinic
_symmetry_space_group_name_H-M   'P -1'
_symmetry_Int_Tables_number      2
_space_group_name_Hall           '-P 1'
loop_
_symmetry_equiv_pos_site_id
_symmetry_equiv_pos_as_xyz
1 x,y,z
2 -x,-y,-z
_cell_length_a                   8.998(12)
_cell_length_b                   9.624(13)
_cell_length_c                   13.044(18)
_cell_angle_alpha                94.09(3)
_cell_angle_beta                 106.38(3)
_cell_angle_gamma                91.93(3)
_cell_volume                     1079.25
_exptl_crystal_colour            colorless
_exptl_crystal_description       block
_cell_formula_units_Z            2
loop_
_atom_site_label
_atom_site_type_symbol
_atom_site_fract_x
_atom_site_fract_y
_atom_site_fract_z
C1 C 0.2729(3) 0.5994(2) 0.20409(18)
H1 H 0.2966 0.6862 0.1771
H2 H 0.1707 0.5635 0.1609
C2 C 0.3894(3) 0.4971(2) 0.19368(18)
H3 H 0.3853 0.4785 0.1188
H4 H 0.4929 0.5350 0.2325
C3 C 0.3662(3) 0.3970(2) 0.34790(17)
H5 H 0.4694 0.4351 0.3871
H6 H 0.3480 0.3100 0.3768
C4 C 0.2490(3) 0.4972(2) 0.36171(18)
H7 H 0.1453 0.4561 0.3274
H8 H 0.2594 0.5173 0.4374
C5 C 0.4234(2) 0.2531(2) 0.20809(16)
C6 C 0.3686(2) 0.1226(2) 0.22453(18)
C7 C 0.4272(3) 0.0046(2) 0.19862(17)
H9 H 0.3866 -0.0804 0.2115
C8 C 0.5472(2) 0.0076(2) 0.15306(16)
C9 C 0.6021(2) 0.1351(2) 0.13200(15)
C10 C 0.5401(2) 0.25628(19) 0.16079(16)
H10 H 0.5791 0.3418 0.1475
N1 N 0.72122(19) 0.14034(17) 0.08536(13)
C11 C 0.7844(3) 0.0242(2) 0.06358(17)
H11 H 0.8667 0.0309 0.0339
C12 C 0.7368(2) -0.1031(2) 0.08171(16)
C13 C 0.6130(2) -0.1186(2) 0.12634(16)
C14 C 0.8165(3) -0.2227(3) 0.0513(2)
C15 C 0.7804(3) 0.2718(2) 0.05961(18)
H12 H 0.6942 0.3302 0.0334
H13 H 0.8282 0.2535 0.0024
C16 C 0.8952(3) 0.3485(3) 0.1521(2)
H14 H 0.8495 0.3651 0.2098
H15 H 0.9264 0.4360 0.1314
H16 H 0.9842 0.2941 0.1754
F1 F 0.24978(17) 0.11725(14) 0.26669(13)
N2 N 0.2717(2) 0.62588(17) 0.31433(15)
H17 H 0.1950 0.6824 0.3172
H18 H 0.3622 0.6699 0.3527
N3 N 0.3563(2) 0.37108(16) 0.23621(14)
O1 O 0.9204(3) -0.2141(2) 0.01307(19)
O2 O 0.7618(3) -0.34424(18) 0.06858(16)
H19 H 0.6862 -0.3333 0.0911
O3 O 0.5617(2) -0.23399(15) 0.14267(14)
C17 C 0.6506(3) 0.7764(3) 0.41537(18)
C18 C 0.7436(2) 0.9021(2) 0.40562(15)
C19 C 0.6890(3) 1.0261(3) 0.43424(18)
H20 H 0.6016 1.0238 0.4588
C20 C 0.7571(3) 1.1515(3) 0.42822(19)
H21 H 0.7187 1.2334 0.4502
C21 C 0.8819(3) 1.1563(3) 0.3898(2)
H22 H 0.9290 1.2419 0.3843
C22 C 0.9384(3) 1.0363(2) 0.35918(17)
H23 H 1.0230 1.0410 0.3316
C23 C 0.8737(2) 0.9079(2) 0.36802(16)
C24 C 0.9589(3) 0.7893(3) 0.33681(18)
O4 O 0.5203(2) 0.7904(2) 0.42335(16)
O5 O 0.7072(2) 0.6584(2) 0.41692(18)
O6 O 0.9333(2) 0.66784(19) 0.36049(18)
H24 H 0.8555 0.6657 0.3815
O7 O 1.0574(2) 0.8126(2) 0.29327(16)
loop_
_geom_bond_atom_site_label_1
_geom_bond_atom_site_label_2
_geom_bond_site_symmetry_1
_geom_bond_site_symmetry_2
C1 H1 1_555 1_555
H2 C1 1_555 1_555
C2 C1 1_555 1_555
H3 C2 1_555 1_555
H4 C2 1_555 1_555
C3 H5 1_555 1_555
H6 C3 1_555 1_555
C4 C3 1_555 1_555
H7 C4 1_555 1_555
H8 C4 1_555 1_555
C5 C6 1_555 1_555
C6 C7 1_555 1_555
C7 H9 1_555 1_555
C8 C7 1_555 1_555
C9 C8 1_555 1_555
C10 C5 1_555 1_555
H10 C10 1_555 1_555
N1 C9 1_555 1_555
C11 N1 1_555 1_555
H11 C11 1_555 1_555
C12 C11 1_555 1_555
C13 C8 1_555 1_555
C14 C12 1_555 1_555
C15 N1 1_555 1_555
H12 C15 1_555 1_555
H13 C15 1_555 1_555
C16 C15 1_555 1_555
H14 C16 1_555 1_555
H15 C16 1_555 1_555
H16 C16 1_555 1_555
F1 C6 1_555 1_555
N2 C1 1_555 1_555
H17 N2 1_555 1_555
H18 N2 1_555 1_555
N3 C2 1_555 1_555
O1 C14 1_555 1_555
O2 C14 1_555 1_555
H19 O2 1_555 1_555
O3 C13 1_555 1_555
C17 C18 1_555 1_555
C18 C19 1_555 1_555
C19 H20 1_555 1_555
C20 C19 1_555 1_555
H21 C20 1_555 1_555
C21 C20 1_555 1_555
H22 C21 1_555 1_555
C22 C21 1_555 1_555
H23 C22 1_555 1_555
C23 C18 1_555 1_555
C24 C23 1_555 1_555
O4 C17 1_555 1_555
O5 C17 1_555 1_555
O6 C24 1_555 1_555
H24 O6 1_555 1_555
O7 C24 1_555 1_555
C3 N3 1_555 1_555
C4 N2 1_555 1_555
C5 N3 1_555 1_555
C9 C10 1_555 1_555
C12 C13 1_555 1_555
C22 C23 1_555 1_555

#END
