
#######################################################################
#
#                 Cambridge Crystallographic Data Centre
#                                CCDC 
#
#######################################################################
#
# If this CIF has been generated from an entry in the Cambridge 
# Structural Database, then it will include bibliographic, chemical, 
# crystal, experimental, refinement or atomic coordinate data resulting 
# from the CCDC's data processing and validation procedures.
#
#######################################################################

data_HIHBAE
_chemical_formula_moiety         'C20 H16 Br1 F1 O3'
_chemical_name_systematic        
'(+)-(1R,2S)-methyl 2-(4-bromophenyl)-1-fluoro-4-methyl-5-oxo-3-phenylcyclopent-3-ene-1-carboxylate'
_symmetry_cell_setting           orthorhombic
_symmetry_space_group_name_H-M   'P 21 21 21'
_symmetry_Int_Tables_number      19
_space_group_name_Hall           'P 2ac 2ab'
loop_
_symmetry_equiv_pos_site_id
_symmetry_equiv_pos_as_xyz
1 x,y,z
2 1/2-x,-y,1/2+z
3 -x,1/2+y,1/2-z
4 1/2+x,1/2-y,-z
_cell_length_a                   9.6137(6)
_cell_length_b                   11.7958(7)
_cell_length_c                   16.1824(9)
_cell_angle_alpha                90
_cell_angle_beta                 90
_cell_angle_gamma                90
_cell_volume                     1835.1
_exptl_crystal_colour            colorless
_exptl_crystal_description       plate
_chemical_melting_point          '407-409 K'
_cell_formula_units_Z            4
_exptl_crystal_recrystallization_method ether
loop_
_atom_site_label
_atom_site_type_symbol
_atom_site_fract_x
_atom_site_fract_y
_atom_site_fract_z
Br1 Br -0.08633(7) 0.44857(7) 0.22143(4)
F1 F 0.4759(4) 0.8321(2) 0.39420(19)
O1 O 0.7561(4) 0.7577(3) 0.3948(2)
O2 O 0.4416(4) 0.7820(3) 0.2359(2)
O3 O 0.5680(4) 0.6250(3) 0.25399(17)
C1 C 0.6560(6) 0.6937(4) 0.4026(3)
C2 C 0.6530(5) 0.5843(4) 0.4434(3)
C3 C 0.5191(5) 0.5515(4) 0.4533(2)
C4 C 0.4154(5) 0.6357(3) 0.4190(2)
H1 H 0.375586 0.675964 0.466375
C5 C 0.5089(6) 0.7217(3) 0.3726(3)
C6 C 0.7836(5) 0.5325(5) 0.4738(3)
H2 H 0.764134 0.487096 0.521693
H3 H 0.848425 0.591183 0.488216
H4 H 0.822978 0.485605 0.431351
C7 C 0.4723(5) 0.4495(4) 0.4986(2)
C8 C 0.5456(6) 0.3484(4) 0.4933(3)
H5 H 0.620198 0.342121 0.456962
C9 C 0.5080(8) 0.2571(5) 0.5419(4)
H6 H 0.556815 0.189273 0.537850
C10 C 0.3997(8) 0.2661(5) 0.5956(4)
H7 H 0.377217 0.205200 0.629600
C11 C 0.3243(7) 0.3628(6) 0.6002(3)
H8 H 0.248814 0.367376 0.635950
C12 C 0.3599(5) 0.4554(4) 0.5511(3)
H9 H 0.307523 0.521570 0.553936
C13 C 0.2940(5) 0.5874(4) 0.3702(3)
C14 C 0.3046(5) 0.4875(4) 0.3252(3)
H10 H 0.387952 0.447512 0.325006
C15 C 0.1920(5) 0.4467(4) 0.2804(3)
H11 H 0.199897 0.379705 0.250471
C16 C 0.0693(5) 0.5058(5) 0.2805(3)
C17 C 0.0566(6) 0.6055(5) 0.3237(4)
H12 H -0.026631 0.645694 0.323159
C18 C 0.1690(6) 0.6452(5) 0.3677(3)
H13 H 0.160583 0.712914 0.396649
C19 C 0.4997(5) 0.7161(4) 0.2786(3)
C20 C 0.5779(8) 0.6060(6) 0.1652(3)
H14 H 0.541755 0.670747 0.136388
H15 H 0.524876 0.540011 0.150625
H16 H 0.673477 0.594732 0.150203
loop_
_geom_bond_atom_site_label_1
_geom_bond_atom_site_label_2
_geom_bond_site_symmetry_1
_geom_bond_site_symmetry_2
Br1 C16 1_555 1_555
F1 C5 1_555 1_555
O1 C1 1_555 1_555
O2 C19 1_555 1_555
O3 C19 1_555 1_555
C1 C2 1_555 1_555
C2 C3 1_555 1_555
C3 C4 1_555 1_555
C4 H1 1_555 1_555
C5 C1 1_555 1_555
C6 C2 1_555 1_555
H2 C6 1_555 1_555
H3 C6 1_555 1_555
H4 C6 1_555 1_555
C7 C3 1_555 1_555
C8 C7 1_555 1_555
H5 C8 1_555 1_555
C9 C8 1_555 1_555
H6 C9 1_555 1_555
C10 C9 1_555 1_555
H7 C10 1_555 1_555
C11 C10 1_555 1_555
H8 C11 1_555 1_555
C12 C7 1_555 1_555
H9 C12 1_555 1_555
C13 C4 1_555 1_555
C14 C13 1_555 1_555
H10 C14 1_555 1_555
C15 C14 1_555 1_555
H11 C15 1_555 1_555
C16 C15 1_555 1_555
C17 C16 1_555 1_555
H12 C17 1_555 1_555
C18 C13 1_555 1_555
H13 C18 1_555 1_555
C19 C5 1_555 1_555
C20 O3 1_555 1_555
H14 C20 1_555 1_555
H15 C20 1_555 1_555
H16 C20 1_555 1_555
C4 C5 1_555 1_555
C11 C12 1_555 1_555
C17 C18 1_555 1_555

#END
