
#######################################################################
#
#                 Cambridge Crystallographic Data Centre
#                                CCDC 
#
#######################################################################
#
# If this CIF has been generated from an entry in the Cambridge 
# Structural Database, then it will include bibliographic, chemical, 
# crystal, experimental, refinement or atomic coordinate data resulting 
# from the CCDC's data processing and validation procedures.
#
#######################################################################

data_HIHCEJ
_chemical_formula_moiety         'C17 H14 O3'
_chemical_name_systematic        'ethyl 10-hydroxyphenanthrene-9-carboxylate'
_symmetry_cell_setting           monoclinic
_symmetry_space_group_name_H-M   'P 21/c'
_symmetry_Int_Tables_number      14
_space_group_name_Hall           '-P 2ybc'
loop_
_symmetry_equiv_pos_site_id
_symmetry_equiv_pos_as_xyz
1 x,y,z
2 -x,1/2+y,1/2-z
3 -x,-y,-z
4 x,1/2-y,1/2+z
_cell_length_a                   13.4846(18)
_cell_length_b                   5.0700(6)
_cell_length_c                   19.620(3)
_cell_angle_alpha                90
_cell_angle_beta                 107.072(3)
_cell_angle_gamma                90
_cell_volume                     1282.25
_exptl_crystal_colour            colorless
_exptl_crystal_description       Prism
_cell_formula_units_Z            4
loop_
_atom_site_label
_atom_site_type_symbol
_atom_site_fract_x
_atom_site_fract_y
_atom_site_fract_z
O1 O 0.33859(6) 0.46756(15) 0.35772(4)
H1 H 0.3717 0.3621 0.3396
O2 O 0.40408(6) 0.26618(16) 0.26382(4)
O3 O 0.36594(6) 0.44108(17) 0.15527(4)
C1 C 0.28304(8) 0.6313(2) 0.30729(5)
C2 C 0.22233(8) 0.8211(2) 0.33238(5)
C3 C 0.22595(8) 0.8246(2) 0.40508(6)
H2 H 0.2686 0.7021 0.4373
C4 C 0.16816(9) 1.0042(2) 0.42934(6)
H3 H 0.1713 1.0069 0.4784
C5 C 0.10471(9) 1.1830(2) 0.38213(6)
H4 H 0.0640 1.3054 0.3990
C6 C 0.10074(8) 1.1832(2) 0.31098(6)
H5 H 0.0576 1.3069 0.2795
C7 C 0.15979(8) 1.0026(2) 0.28434(5)
C8 C 0.15785(7) 0.9968(2) 0.20950(5)
C9 C 0.09580(8) 1.1774(2) 0.16076(5)
H6 H 0.0561 1.3034 0.1773
C10 C 0.09121(8) 1.1758(2) 0.08963(6)
H7 H 0.0495 1.3003 0.0576
C11 C 0.14862(9) 0.9891(2) 0.06569(6)
H8 H 0.1452 0.9842 0.0166
C12 C 0.21043(9) 0.8111(2) 0.11209(6)
H9 H 0.2488 0.6855 0.0942
C13 C 0.21851(8) 0.8096(2) 0.18570(5)
C14 C 0.28380(8) 0.6242(2) 0.23661(5)
C15 C 0.35497(8) 0.4294(2) 0.22020(6)
C16 C 0.44122(9) 0.2609(3) 0.14034(6)
H10 H 0.4227 0.0758 0.1470
H11 H 0.5115 0.2965 0.1726
C17 C 0.43802(14) 0.3086(4) 0.06413(8)
H12 H 0.3688 0.2658 0.0327
H13 H 0.4897 0.1968 0.0520
H14 H 0.4535 0.4944 0.0579
loop_
_geom_bond_atom_site_label_1
_geom_bond_atom_site_label_2
_geom_bond_site_symmetry_1
_geom_bond_site_symmetry_2
O1 H1 1_555 1_555
O2 C15 1_555 1_555
O3 C15 1_555 1_555
C1 O1 1_555 1_555
C2 C1 1_555 1_555
C3 C2 1_555 1_555
H2 C3 1_555 1_555
C4 C3 1_555 1_555
H3 C4 1_555 1_555
C5 C4 1_555 1_555
H4 C5 1_555 1_555
C6 C5 1_555 1_555
H5 C6 1_555 1_555
C7 C2 1_555 1_555
C8 C7 1_555 1_555
C9 C8 1_555 1_555
H6 C9 1_555 1_555
C10 C9 1_555 1_555
H7 C10 1_555 1_555
C11 C10 1_555 1_555
H8 C11 1_555 1_555
C12 C11 1_555 1_555
H9 C12 1_555 1_555
C13 C8 1_555 1_555
C14 C1 1_555 1_555
C15 C14 1_555 1_555
C16 O3 1_555 1_555
H10 C16 1_555 1_555
H11 C16 1_555 1_555
C17 C16 1_555 1_555
H12 C17 1_555 1_555
H13 C17 1_555 1_555
H14 C17 1_555 1_555
C6 C7 1_555 1_555
C12 C13 1_555 1_555
C13 C14 1_555 1_555

#END
