
#######################################################################
#
#                 Cambridge Crystallographic Data Centre
#                                CCDC 
#
#######################################################################
#
# If this CIF has been generated from an entry in the Cambridge 
# Structural Database, then it will include bibliographic, chemical, 
# crystal, experimental, refinement or atomic coordinate data resulting 
# from the CCDC's data processing and validation procedures.
#
#######################################################################

data_HIHKEQ
_chemical_formula_moiety         'C21 H23 N1 O2'
_chemical_name_systematic        
(2-Methylphenyl)(phenyl)(2,2,5-trimethyl-1,3-dioxolan-4-yl)acetonitrile
_symmetry_cell_setting           orthorhombic
_symmetry_space_group_name_H-M   'P 21 21 21'
_symmetry_Int_Tables_number      19
_space_group_name_Hall           'P 2ac 2ab'
loop_
_symmetry_equiv_pos_site_id
_symmetry_equiv_pos_as_xyz
1 x,y,z
2 1/2-x,-y,1/2+z
3 -x,1/2+y,1/2-z
4 1/2+x,1/2-y,-z
_cell_length_a                   6.728(3)
_cell_length_b                   15.585(6)
_cell_length_c                   18.301(7)
_cell_angle_alpha                90
_cell_angle_beta                 90
_cell_angle_gamma                90
_cell_volume                     1918.97
_exptl_crystal_colour            white
_exptl_crystal_description       platelet
_cell_formula_units_Z            4
loop_
_atom_site_label
_atom_site_type_symbol
_atom_site_fract_x
_atom_site_fract_y
_atom_site_fract_z
C1 C 0.4021(5) 0.5009(3) 0.7604(2)
C2 C 0.3539(6) 0.5749(2) 0.7071(2)
C3 C 0.4675(7) 0.5881(3) 0.6447(3)
C4 C 0.1453(10) 0.6922(3) 0.6726(3)
H1 H 0.0359 0.7268 0.6825
C5 C 0.4185(9) 0.6572(4) 0.5982(3)
H2 H 0.4969 0.6683 0.5574
C6 C 0.1910(7) 0.6265(3) 0.7190(3)
H3 H 0.1106 0.6163 0.7594
C7 C 0.6467(7) 0.5347(3) 0.6223(3)
H4 H 0.6236 0.4756 0.6346
H5 H 0.7626 0.5549 0.6476
H6 H 0.6669 0.5397 0.5705
C8 C 0.2575(11) 0.7079(3) 0.6123(3)
H7 H 0.2248 0.7527 0.5809
C9 C 0.6155(6) 0.5078(3) 0.7817(2)
N1 N 0.7737(6) 0.5124(3) 0.8018(2)
C10 C 0.2850(6) 0.5068(3) 0.8334(2)
H8 H 0.145(6) 0.501(3) 0.8197(18)
O1 O 0.3354(4) 0.58530(16) 0.86864(15)
C11 C 0.3331(9) 0.4403(3) 0.8913(3)
H9 H 0.477(7) 0.421(3) 0.890(2)
C12 C 0.3529(6) 0.4135(2) 0.7260(2)
C13 C 0.1636(7) 0.4008(3) 0.6985(2)
H10 H 0.0745 0.4464 0.6971
C14 C 0.1057(8) 0.3214(3) 0.6731(2)
H11 H -0.0231 0.3133 0.6560
C15 C 0.4863(8) 0.3458(3) 0.7254(3)
H12 H 0.6151 0.3532 0.7428
C16 C 0.4250(11) 0.2665(3) 0.6985(3)
H13 H 0.5143 0.2210 0.6980
C17 C 0.2379(11) 0.2544(3) 0.6730(3)
H14 H 0.1993 0.2008 0.6555
O2 O 0.2923(7) 0.4857(2) 0.95664(17)
C18 C 0.1989(8) 0.3616(3) 0.8926(3)
H15 H 0.0625 0.3795 0.8946
H16 H 0.2292 0.3274 0.9348
H17 H 0.2204 0.3283 0.8492
C19 C 0.3271(7) 0.5741(3) 0.9451(2)
C20 C 0.1525(9) 0.6217(4) 0.9776(3)
H18 H 0.0343 0.6082 0.9505
H19 H 0.1768 0.6823 0.9754
H20 H 0.1353 0.6047 1.0277
C21 C 0.5220(8) 0.6003(4) 0.9774(3)
H21 H 0.5464 0.6597 0.9669
H22 H 0.6264 0.5660 0.9568
H23 H 0.5185 0.5920 1.0294
loop_
_geom_bond_atom_site_label_1
_geom_bond_atom_site_label_2
_geom_bond_site_symmetry_1
_geom_bond_site_symmetry_2
C1 C2 1_555 1_555
C2 C3 1_555 1_555
C3 C5 1_555 1_555
C4 H1 1_555 1_555
C5 H2 1_555 1_555
C6 C2 1_555 1_555
H3 C6 1_555 1_555
C7 C3 1_555 1_555
H4 C7 1_555 1_555
H5 C7 1_555 1_555
H6 C7 1_555 1_555
C8 C4 1_555 1_555
H7 C8 1_555 1_555
C9 C1 1_555 1_555
N1 C9 1_555 1_555
C10 C1 1_555 1_555
H8 C10 1_555 1_555
O1 C10 1_555 1_555
C11 C10 1_555 1_555
H9 C11 1_555 1_555
C12 C1 1_555 1_555
C13 C12 1_555 1_555
H10 C13 1_555 1_555
C14 C13 1_555 1_555
H11 C14 1_555 1_555
C15 C12 1_555 1_555
H12 C15 1_555 1_555
C16 C15 1_555 1_555
H13 C16 1_555 1_555
C17 C14 1_555 1_555
H14 C17 1_555 1_555
O2 C11 1_555 1_555
C18 C11 1_555 1_555
H15 C18 1_555 1_555
H16 C18 1_555 1_555
H17 C18 1_555 1_555
C19 O1 1_555 1_555
C20 C19 1_555 1_555
H18 C20 1_555 1_555
H19 C20 1_555 1_555
H20 C20 1_555 1_555
C21 C19 1_555 1_555
H21 C21 1_555 1_555
H22 C21 1_555 1_555
H23 C21 1_555 1_555
C4 C6 1_555 1_555
C5 C8 1_555 1_555
C16 C17 1_555 1_555
O2 C19 1_555 1_555

#END
