
#######################################################################
#
#                 Cambridge Crystallographic Data Centre
#                                CCDC 
#
#######################################################################
#
# If this CIF has been generated from an entry in the Cambridge 
# Structural Database, then it will include bibliographic, chemical, 
# crystal, experimental, refinement or atomic coordinate data resulting 
# from the CCDC's data processing and validation procedures.
#
#######################################################################

data_HIHKIU
_chemical_formula_moiety         'C23 H22 N2 O2'
_chemical_name_systematic        
4-(Benzyloxy)-3-hydroxy-2-phenyl-2-(pyridin-3-yl)pentanenitrile
_symmetry_cell_setting           orthorhombic
_symmetry_space_group_name_H-M   'P 21 21 21'
_symmetry_Int_Tables_number      19
_space_group_name_Hall           'P 2ac 2ab'
loop_
_symmetry_equiv_pos_site_id
_symmetry_equiv_pos_as_xyz
1 x,y,z
2 1/2-x,-y,1/2+z
3 -x,1/2+y,1/2-z
4 1/2+x,1/2-y,-z
_cell_length_a                   6.8457(12)
_cell_length_b                   15.545(3)
_cell_length_c                   18.637(3)
_cell_angle_alpha                90
_cell_angle_beta                 90
_cell_angle_gamma                90
_cell_volume                     1983.28
_exptl_crystal_colour            white
_exptl_crystal_description       platelet
_cell_formula_units_Z            4
loop_
_atom_site_label
_atom_site_type_symbol
_atom_site_fract_x
_atom_site_fract_y
_atom_site_fract_z
C1 C 0.1503(2) 0.16364(9) 0.18927(8)
C2 C 0.2426(2) 0.12515(10) 0.32098(8)
H1 H 0.260(2) 0.1875(9) 0.3274(8)
O1 O 0.04729(18) 0.10338(8) 0.33896(6)
C3 C 0.2026(3) 0.14520(10) 0.11003(9)
C4 C -0.0346(3) 0.22956(14) 0.41081(10)
C5 C 0.1142(4) 0.27855(16) 0.43836(11)
H2 H 0.2263 0.2518 0.4556
C6 C 0.3783(3) 0.10953(14) 0.08989(10)
H3 H 0.4679 0.0931 0.1248
C7 C -0.1997(4) 0.27169(17) 0.38584(12)
H4 H -0.3025 0.2398 0.3671
C8 C 0.2947(6) 0.12163(19) -0.03390(14)
H5 H 0.3250 0.1137 -0.0821
C9 C 0.0749(4) 0.16990(15) 0.05699(12)
H6 H -0.0436 0.1953 0.0692
C10 C -0.2138(5) 0.3591(2) 0.38833(15)
H7 H -0.3256 0.3862 0.3712
C11 C 0.4230(4) 0.09782(17) 0.01775(14)
H8 H 0.5420 0.0734 0.0049
C12 C 0.1000(6) 0.36720(18) 0.44083(13)
H9 H 0.2021 0.3997 0.4595
C13 C -0.0646(7) 0.40687(19) 0.41582(14)
H10 H -0.0748 0.4665 0.4176
C14 C 0.1218(6) 0.15716(19) -0.01461(15)
H11 H 0.0332 0.1733 -0.0500
C15 C -0.0605(3) 0.14662(10) 0.19869(9)
N1 N -0.2236(2) 0.13465(10) 0.20287(10)
N2 N 0.0837(3) 0.40215(9) 0.22966(10)
C16 C 0.3854(2) 0.28754(10) 0.20596(10)
H12 H 0.4875 0.2496 0.1970
C17 C 0.1940(2) 0.25869(9) 0.20502(8)
C18 C 0.0495(3) 0.31881(10) 0.21770(10)
H13 H -0.0795 0.3001 0.2179
C19 C 0.4234(3) 0.37270(11) 0.22018(11)
H14 H 0.5511 0.3929 0.2223
C20 C 0.2689(3) 0.42698(11) 0.23115(11)
H15 H 0.2953 0.4847 0.2402
C21 C 0.2682(2) 0.10415(9) 0.24167(8)
H16 H 0.409(2) 0.1143(10) 0.2301(8)
C22 C -0.0190(3) 0.13380(14) 0.40717(10)
H17 H 0.0708 0.1143 0.4440
H18 H -0.1459 0.1089 0.4173
C23 C 0.3904(3) 0.07741(13) 0.36616(10)
H19 H 0.3799 0.0959 0.4152
H20 H 0.5196 0.0893 0.3487
H21 H 0.3657 0.0167 0.3633
O2 O 0.23337(17) 0.01688(6) 0.22625(6)
H22 H 0.126(2) 0.0005(12) 0.2456(9)
loop_
_geom_bond_atom_site_label_1
_geom_bond_atom_site_label_2
_geom_bond_site_symmetry_1
_geom_bond_site_symmetry_2
C1 C3 1_555 1_555
C2 H1 1_555 1_555
O1 C2 1_555 1_555
C3 C6 1_555 1_555
C4 C5 1_555 1_555
C5 H2 1_555 1_555
C6 H3 1_555 1_555
C7 C4 1_555 1_555
H4 C7 1_555 1_555
C8 H5 1_555 1_555
C9 C3 1_555 1_555
H6 C9 1_555 1_555
C10 C7 1_555 1_555
H7 C10 1_555 1_555
C11 C6 1_555 1_555
H8 C11 1_555 1_555
C12 C5 1_555 1_555
H9 C12 1_555 1_555
C13 C10 1_555 1_555
H10 C13 1_555 1_555
C14 C8 1_555 1_555
H11 C14 1_555 1_555
C15 C1 1_555 1_555
N1 C15 1_555 1_555
N2 C18 1_555 1_555
C16 H12 1_555 1_555
C17 C1 1_555 1_555
C18 C17 1_555 1_555
H13 C18 1_555 1_555
C19 C16 1_555 1_555
H14 C19 1_555 1_555
C20 N2 1_555 1_555
H15 C20 1_555 1_555
C21 C1 1_555 1_555
H16 C21 1_555 1_555
C22 O1 1_555 1_555
H17 C22 1_555 1_555
H18 C22 1_555 1_555
C23 C2 1_555 1_555
H19 C23 1_555 1_555
H20 C23 1_555 1_555
H21 C23 1_555 1_555
O2 C21 1_555 1_555
H22 O2 1_555 1_555
C2 C21 1_555 1_555
C4 C22 1_555 1_555
C8 C11 1_555 1_555
C9 C14 1_555 1_555
C12 C13 1_555 1_555
C16 C17 1_555 1_555
C19 C20 1_555 1_555

#END
