
#######################################################################
#
#                 Cambridge Crystallographic Data Centre
#                                CCDC 
#
#######################################################################
#
# If this CIF has been generated from an entry in the Cambridge 
# Structural Database, then it will include bibliographic, chemical, 
# crystal, experimental, refinement or atomic coordinate data resulting 
# from the CCDC's data processing and validation procedures.
#
#######################################################################

data_HIHLIW
_chemical_formula_moiety         'C25 H28 N2 O4'
_chemical_name_systematic        
'ethyl 2,7,7-trimethyl-4-(5-methyl-3-phenyl-1,2-oxazol-4-yl)-5-oxo-1,4,5,6,7,8-hexahydroquinoline-3-carboxylate'
_symmetry_cell_setting           monoclinic
_symmetry_space_group_name_H-M   'P 21/c'
_symmetry_Int_Tables_number      14
_space_group_name_Hall           '-P 2ybc'
loop_
_symmetry_equiv_pos_site_id
_symmetry_equiv_pos_as_xyz
1 x,y,z
2 -x,1/2+y,1/2-z
3 -x,-y,-z
4 x,1/2-y,1/2+z
_cell_length_a                   16.0832(7)
_cell_length_b                   9.8265(4)
_cell_length_c                   13.7577(6)
_cell_angle_alpha                90
_cell_angle_beta                 93.053(3)
_cell_angle_gamma                90
_cell_volume                     2171.2
_exptl_crystal_colour            yellow
_exptl_crystal_description       Prism
_cell_formula_units_Z            4
loop_
_atom_site_label
_atom_site_type_symbol
_atom_site_fract_x
_atom_site_fract_y
_atom_site_fract_z
O1 O 0.66669(8) 0.18527(13) 0.86603(9)
O2 O 0.97429(9) 0.04051(15) 0.61560(10)
O3 O 0.90827(8) -0.04685(14) 0.74075(9)
O4 O 0.64612(9) -0.22067(13) 0.62300(10)
N1 N 0.74945(10) 0.26269(15) 0.54932(11)
H1 H 0.7380 0.3019 0.4927
N2 N 0.67802(11) -0.27065(16) 0.71385(12)
C1 C 0.82167(12) 0.18652(18) 0.56128(13)
C2 C 0.83315(12) 0.10627(18) 0.64112(13)
C3 C 0.76320(11) 0.08525(18) 0.71074(13)
H2 H 0.7890 0.0835 0.7785
C4 C 0.70325(11) 0.20429(18) 0.70365(13)
C5 C 0.65400(11) 0.23910(18) 0.78526(13)
C6 C 0.58776(12) 0.34742(19) 0.77125(13)
H3 H 0.6110 0.4351 0.7955
H4 H 0.5407 0.3238 0.8116
C7 C 0.55433(12) 0.36660(19) 0.66574(13)
C8 C 0.62982(12) 0.38838(19) 0.60394(13)
H5 H 0.6111 0.3884 0.5342
H6 H 0.6547 0.4784 0.6194
C9 C 0.69491(11) 0.28000(18) 0.62144(13)
C10 C 0.50377(12) 0.24295(19) 0.62977(14)
H7 H 0.5376 0.1606 0.6387
H8 H 0.4876 0.2543 0.5606
H9 H 0.4537 0.2348 0.6670
C11 C 0.49871(13) 0.4926(2) 0.65870(14)
H10 H 0.4518 0.4808 0.7006
H11 H 0.4776 0.5050 0.5911
H12 H 0.5311 0.5728 0.6799
C12 C 0.87890(13) 0.2075(2) 0.47945(14)
H13 H 0.8476 0.1956 0.4170
H14 H 0.9243 0.1410 0.4849
H15 H 0.9021 0.2998 0.4832
C13 C 0.91233(12) 0.03334(19) 0.66128(13)
C14 C 0.98377(13) -0.1204(2) 0.77004(15)
H16 H 1.0114 -0.1516 0.7114
H17 H 0.9694 -0.2017 0.8082
C15 C 1.04223(15) -0.0320(2) 0.83008(18)
H18 H 1.0579 0.0470 0.7916
H19 H 1.0923 -0.0841 0.8499
H20 H 1.0148 -0.0010 0.8880
C16 C 0.64752(13) -0.0298(2) 0.51659(14)
H21 H 0.6778 -0.0745 0.4655
H22 H 0.6607 0.0676 0.5177
H23 H 0.5875 -0.0421 0.5034
C17 C 0.67258(12) -0.09078(19) 0.61215(14)
C18 C 0.71900(11) -0.05066(18) 0.69256(13)
C19 C 0.72086(12) -0.16911(19) 0.75327(14)
C20 C 0.76418(12) -0.19324(19) 0.84973(14)
C21 C 0.75464(12) -0.1034(2) 0.92632(14)
H24 H 0.7197 -0.0259 0.9173
C22 C 0.79592(13) -0.1264(2) 1.01591(15)
H25 H 0.7890 -0.0649 1.0681
C23 C 0.84727(13) -0.2388(2) 1.02949(15)
H26 H 0.8761 -0.2538 1.0906
C24 C 0.85628(13) -0.3289(2) 0.95385(15)
H27 H 0.8911 -0.4064 0.9631
C25 C 0.81472(13) -0.3066(2) 0.86428(15)
H28 H 0.8209 -0.3693 0.8126
loop_
_geom_bond_atom_site_label_1
_geom_bond_atom_site_label_2
_geom_bond_site_symmetry_1
_geom_bond_site_symmetry_2
O1 C5 1_555 1_555
O2 C13 1_555 1_555
O3 C13 1_555 1_555
O4 N2 1_555 1_555
N1 H1 1_555 1_555
N2 C19 1_555 1_555
C1 N1 1_555 1_555
C2 C1 1_555 1_555
C3 C2 1_555 1_555
H2 C3 1_555 1_555
C4 C3 1_555 1_555
C5 C4 1_555 1_555
C6 C5 1_555 1_555
H3 C6 1_555 1_555
H4 C6 1_555 1_555
C7 C6 1_555 1_555
C8 C7 1_555 1_555
H5 C8 1_555 1_555
H6 C8 1_555 1_555
C9 N1 1_555 1_555
C10 C7 1_555 1_555
H7 C10 1_555 1_555
H8 C10 1_555 1_555
H9 C10 1_555 1_555
C11 C7 1_555 1_555
H10 C11 1_555 1_555
H11 C11 1_555 1_555
H12 C11 1_555 1_555
C12 C1 1_555 1_555
H13 C12 1_555 1_555
H14 C12 1_555 1_555
H15 C12 1_555 1_555
C13 C2 1_555 1_555
C14 O3 1_555 1_555
H16 C14 1_555 1_555
H17 C14 1_555 1_555
C15 C14 1_555 1_555
H18 C15 1_555 1_555
H19 C15 1_555 1_555
H20 C15 1_555 1_555
C16 H21 1_555 1_555
H22 C16 1_555 1_555
H23 C16 1_555 1_555
C17 O4 1_555 1_555
C18 C3 1_555 1_555
C19 C18 1_555 1_555
C20 C19 1_555 1_555
C21 C20 1_555 1_555
H24 C21 1_555 1_555
C22 C21 1_555 1_555
H25 C22 1_555 1_555
C23 C22 1_555 1_555
H26 C23 1_555 1_555
C24 C23 1_555 1_555
H27 C24 1_555 1_555
C25 C20 1_555 1_555
H28 C25 1_555 1_555
C4 C9 1_555 1_555
C8 C9 1_555 1_555
C16 C17 1_555 1_555
C17 C18 1_555 1_555
C24 C25 1_555 1_555

#END
