
#######################################################################
#
#                 Cambridge Crystallographic Data Centre
#                                CCDC 
#
#######################################################################
#
# If this CIF has been generated from an entry in the Cambridge 
# Structural Database, then it will include bibliographic, chemical, 
# crystal, experimental, refinement or atomic coordinate data resulting 
# from the CCDC's data processing and validation procedures.
#
#######################################################################

data_HIHLAN
_chemical_formula_moiety         'C27 H30 Cl1 N1 O2 Si1'
_chemical_name_systematic        
4-(Benzyloxy)-2-(2-chlorophenyl)-2-phenyl-3-((trimethylsilyl)oxy)pentanenitrile
_symmetry_cell_setting           monoclinic
_symmetry_space_group_name_H-M   'P 21'
_symmetry_Int_Tables_number      4
_space_group_name_Hall           'P 2yb'
loop_
_symmetry_equiv_pos_site_id
_symmetry_equiv_pos_as_xyz
1 x,y,z
2 -x,1/2+y,-z
_cell_length_a                   7.7728(10)
_cell_length_b                   10.3863(14)
_cell_length_c                   15.713(2)
_cell_angle_alpha                90
_cell_angle_beta                 95.659(2)
_cell_angle_gamma                90
_cell_volume                     1262.34
_exptl_crystal_colour            white
_exptl_crystal_description       block
_cell_formula_units_Z            2
loop_
_atom_site_label
_atom_site_type_symbol
_atom_site_fract_x
_atom_site_fract_y
_atom_site_fract_z
Cl1 Cl 0.82960(7) 0.66398(6) 0.88481(3)
C1 C 0.4196(2) 0.61807(18) 0.85645(10)
C2 C 0.6345(2) 0.50062(18) 0.77644(11)
C3 C 0.7886(2) 0.5211(2) 0.82828(12)
C4 C 0.4872(2) 0.60218(17) 0.76847(10)
C5 C 0.2932(3) 0.6357(3) 1.01560(12)
H1 H 0.2503 0.6418 1.0686
C6 C 0.3849(2) 0.5080(2) 0.90219(12)
H2 H 0.4035 0.4272 0.8793
C7 C 0.3901(3) 0.7374(2) 0.89155(12)
H3 H 0.4123 0.8121 0.8619
C8 C 0.3227(3) 0.5180(2) 0.98160(13)
H4 H 0.3010 0.4438 1.0119
C9 C 0.6170(3) 0.3811(2) 0.73703(13)
H5 H 0.5152 0.3623 0.7031
C10 C 0.9171(3) 0.4292(3) 0.83862(16)
H6 H 1.0178 0.4458 0.8739
C11 C 0.3270(3) 0.7451(2) 0.97132(14)
H7 H 0.3076 0.8254 0.9948
C12 C 0.7465(3) 0.2888(2) 0.74659(15)
H8 H 0.7313 0.2100 0.7187
C13 C 0.8966(3) 0.3136(3) 0.79701(17)
H9 H 0.9842 0.2524 0.8030
C14 C 0.5630(2) 0.72259(19) 0.73772(12)
N1 N 0.6271(2) 0.81201(19) 0.71303(12)
O1 O 0.40098(17) 0.55886(12) 0.62006(7)
C15 C 0.3344(2) 0.56273(18) 0.69993(11)
H10 H 0.303(2) 0.475(2) 0.7159(12)
Si1 Si 0.37966(9) 0.46995(5) 0.53289(3)
C16 C 0.2697(4) 0.5657(3) 0.44456(15)
H11 H 0.3312 0.6449 0.4389
H12 H 0.1536 0.5842 0.4566
H13 H 0.2672 0.5177 0.3922
C17 C 0.2579(4) 0.3189(3) 0.54933(18)
H14 H 0.1416 0.3398 0.5599
H15 H 0.3133 0.2729 0.5975
H16 H 0.2560 0.2662 0.4991
C18 C 0.6031(4) 0.4351(3) 0.50745(17)
H17 H 0.6623 0.3857 0.5530
H18 H 0.6637 0.5145 0.5011
H19 H 0.5990 0.3870 0.4551
C19 C 0.1741(2) 0.6495(2) 0.69742(11)
H20 H 0.147(2) 0.657(2) 0.7578(13)
O2 O 0.21807(17) 0.76993(14) 0.66331(10)
C20 C 0.0976(3) 0.8727(2) 0.67016(18)
H21 H -0.0165 0.8371 0.6748
H22 H 0.0919 0.9250 0.6188
C21 C 0.1490(2) 0.9561(2) 0.74693(14)
C22 C 0.0564(3) 0.9593(2) 0.81707(17)
H23 H -0.0460 0.9128 0.8164
C23 C 0.1137(3) 1.0308(3) 0.88894(17)
H24 H 0.0510 1.0306 0.9364
C24 C 0.2968(3) 1.0309(2) 0.74867(15)
H25 H 0.3596 1.0330 0.7013
C25 C 0.3513(3) 1.1022(2) 0.82016(18)
H26 H 0.4511 1.1517 0.8207
C26 C 0.2613(3) 1.1012(3) 0.88993(17)
H27 H 0.3005 1.1484 0.9382
C27 C 0.0201(3) 0.5898(2) 0.64412(15)
H28 H 0.0440 0.5850 0.5854
H29 H -0.0806 0.6420 0.6484
H30 H -0.0001 0.5048 0.6649
loop_
_geom_bond_atom_site_label_1
_geom_bond_atom_site_label_2
_geom_bond_site_symmetry_1
_geom_bond_site_symmetry_2
Cl1 C3 1_555 1_555
C1 C4 1_555 1_555
C2 C3 1_555 1_555
C3 C10 1_555 1_555
C4 C2 1_555 1_555
C5 H1 1_555 1_555
C6 C1 1_555 1_555
H2 C6 1_555 1_555
C7 C1 1_555 1_555
H3 C7 1_555 1_555
C8 C5 1_555 1_555
H4 C8 1_555 1_555
C9 C2 1_555 1_555
H5 C9 1_555 1_555
C10 H6 1_555 1_555
C11 C5 1_555 1_555
H7 C11 1_555 1_555
C12 C9 1_555 1_555
H8 C12 1_555 1_555
C13 C10 1_555 1_555
H9 C13 1_555 1_555
C14 C4 1_555 1_555
N1 C14 1_555 1_555
O1 C15 1_555 1_555
C15 C4 1_555 1_555
H10 C15 1_555 1_555
Si1 O1 1_555 1_555
C16 Si1 1_555 1_555
H11 C16 1_555 1_555
H12 C16 1_555 1_555
H13 C16 1_555 1_555
C17 Si1 1_555 1_555
H14 C17 1_555 1_555
H15 C17 1_555 1_555
H16 C17 1_555 1_555
C18 Si1 1_555 1_555
H17 C18 1_555 1_555
H18 C18 1_555 1_555
H19 C18 1_555 1_555
C19 C15 1_555 1_555
H20 C19 1_555 1_555
O2 C19 1_555 1_555
C20 O2 1_555 1_555
H21 C20 1_555 1_555
H22 C20 1_555 1_555
C21 C20 1_555 1_555
C22 C21 1_555 1_555
H23 C22 1_555 1_555
C23 C22 1_555 1_555
H24 C23 1_555 1_555
C24 C21 1_555 1_555
H25 C24 1_555 1_555
C25 C24 1_555 1_555
H26 C25 1_555 1_555
C26 C23 1_555 1_555
H27 C26 1_555 1_555
C27 C19 1_555 1_555
H28 C27 1_555 1_555
H29 C27 1_555 1_555
H30 C27 1_555 1_555
C6 C8 1_555 1_555
C7 C11 1_555 1_555
C12 C13 1_555 1_555
C25 C26 1_555 1_555

#END
