
#######################################################################
#
#                 Cambridge Crystallographic Data Centre
#                                CCDC 
#
#######################################################################
#
# If this CIF has been generated from an entry in the Cambridge 
# Structural Database, then it will include bibliographic, chemical, 
# crystal, experimental, refinement or atomic coordinate data resulting 
# from the CCDC's data processing and validation procedures.
#
#######################################################################

data_HIHMOC
_chemical_formula_moiety         'C56 H37 N5'
_chemical_name_systematic        
9-Phenyl-3,6-bis(2-(1-phenyl-1H-benzimidazol-2-yl)phenyl)-9H-carbazole
_symmetry_cell_setting           monoclinic
_symmetry_space_group_name_H-M   'P 21/c'
_symmetry_Int_Tables_number      14
_space_group_name_Hall           '-P 2ybc'
loop_
_symmetry_equiv_pos_site_id
_symmetry_equiv_pos_as_xyz
1 x,y,z
2 -x,1/2+y,1/2-z
3 -x,-y,-z
4 x,1/2-y,1/2+z
_cell_length_a                   14.0188(2)
_cell_length_b                   14.5960(2)
_cell_length_c                   20.5850(3)
_cell_angle_alpha                90
_cell_angle_beta                 106.5080(10)
_cell_angle_gamma                90
_cell_volume                     4038.45
_cell_formula_units_Z            4
loop_
_atom_site_label
_atom_site_type_symbol
_atom_site_fract_x
_atom_site_fract_y
_atom_site_fract_z
N1 N 0.60731(13) 0.69746(13) 0.15553(10)
N2 N 0.40823(14) 0.28780(13) 0.18996(10)
N3 N 0.36831(13) 0.35610(13) 0.08779(9)
N4 N 0.92453(13) 0.55572(14) 0.39846(9)
N5 N 1.06419(14) 0.56419(17) 0.36527(10)
C1 C 0.68230(16) 0.63777(15) 0.18707(11)
C2 C 0.78469(16) 0.64987(15) 0.20387(11)
H1 H 0.8126 0.7062 0.1950
C3 C 0.84468(16) 0.57765(16) 0.23375(11)
H2 H 0.9149 0.5849 0.2456
C4 C 0.80486(16) 0.49349(15) 0.24717(11)
C5 C 0.70248(16) 0.48339(15) 0.23310(11)
H3 H 0.6750 0.4276 0.2433
C6 C 0.64046(15) 0.55591(15) 0.20391(11)
C7 C 0.53422(15) 0.56936(14) 0.18351(10)
C8 C 0.45483(15) 0.51608(14) 0.18946(11)
H4 H 0.4670 0.4580 0.2111
C9 C 0.35757(16) 0.54771(15) 0.16380(11)
C10 C 0.34191(16) 0.63466(16) 0.13214(12)
H5 H 0.2756 0.6557 0.1136
C11 C 0.41989(16) 0.69041(15) 0.12714(12)
H6 H 0.4078 0.7492 0.1066
C12 C 0.51641(16) 0.65722(15) 0.15326(11)
C13 C 0.62460(16) 0.78682(15) 0.13273(11)
C14 C 0.67969(18) 0.79476(17) 0.08616(12)
H7 H 0.7026 0.7416 0.0686
C15 C 0.70034(19) 0.88102(19) 0.06606(13)
H8 H 0.7376 0.8872 0.0343
C16 C 0.6673(2) 0.95840(17) 0.09173(15)
H9 H 0.6814 1.0175 0.0775
C17 C 0.61384(19) 0.94934(17) 0.13817(14)
H10 H 0.5918 1.0025 0.1563
C18 C 0.59206(17) 0.86331(16) 0.15864(12)
H11 H 0.5548 0.8574 0.1904
C19 C 0.27204(16) 0.49286(16) 0.17216(11)
C20 C 0.19464(19) 0.53751(18) 0.18936(15)
H12 H 0.1955 0.6024 0.1930
C21 C 0.1161(2) 0.4884(2) 0.20133(17)
H13 H 0.0640 0.5204 0.2127
C22 C 0.1126(2) 0.3948(2) 0.19705(15)
H14 H 0.0587 0.3619 0.2053
C23 C 0.18947(18) 0.34850(17) 0.18045(12)
H15 H 0.1884 0.2835 0.1783
C24 C 0.26805(16) 0.39640(16) 0.16699(11)
C25 C 0.34687(15) 0.34366(14) 0.14884(11)
C26 C 0.31456(17) 0.41044(15) 0.03208(11)
C27 C 0.3649(2) 0.47217(17) 0.00259(13)
H16 H 0.4350 0.4790 0.0199
C28 C 0.3121(2) 0.52379(19) -0.05235(14)
H17 H 0.3464 0.5653 -0.0734
C29 C 0.2103(2) 0.51551(19) -0.07674(13)
H18 H 0.1747 0.5512 -0.1145
C30 C 0.1600(2) 0.45543(19) -0.04645(13)
H19 H 0.0896 0.4508 -0.0626
C31 C 0.21249(18) 0.40175(17) 0.00775(12)
H20 H 0.1782 0.3592 0.0280
C32 C 0.47749(16) 0.26330(15) 0.15629(12)
C33 C 0.56194(17) 0.20790(16) 0.17782(13)
H21 H 0.5793 0.1796 0.2212
C34 C 0.61896(17) 0.19584(17) 0.13401(14)
H22 H 0.6781 0.1604 0.1483
C35 C 0.59260(18) 0.23415(18) 0.06929(14)
H23 H 0.6325 0.2217 0.0399
C36 C 0.50972(17) 0.28995(17) 0.04664(13)
H24 H 0.4919 0.3166 0.0027
C37 C 0.45375(16) 0.30483(15) 0.09239(12)
C38 C 0.87213(16) 0.41524(16) 0.27494(11)
C39 C 0.85076(18) 0.32844(17) 0.24558(13)
H25 H 0.7923 0.3200 0.2090
C40 C 0.91350(19) 0.25418(17) 0.26882(14)
H26 H 0.8980 0.1957 0.2482
C41 C 0.9983(2) 0.26598(19) 0.32196(14)
H27 H 1.0407 0.2152 0.3386
C42 C 1.02196(18) 0.3514(2) 0.35120(13)
H28 H 1.0816 0.3592 0.3868
C43 C 0.95896(16) 0.42654(17) 0.32888(12)
C44 C 0.98476(16) 0.51545(18) 0.36380(11)
C45 C 0.83228(16) 0.52272(16) 0.40618(11)
C46 C 0.82713(17) 0.43636(17) 0.43255(12)
H29 H 0.8847 0.3988 0.4461
C47 C 0.73727(18) 0.40544(19) 0.43890(13)
H30 H 0.7333 0.3460 0.4568
C48 C 0.65351(18) 0.45901(19) 0.41979(14)
H31 H 0.5921 0.4367 0.4244
C49 C 0.65889(17) 0.54561(18) 0.39373(13)
H32 H 0.6012 0.5831 0.3810
C50 C 0.74786(17) 0.57790(17) 0.38609(12)
H33 H 0.7514 0.6369 0.3674
C51 C 0.97018(16) 0.63737(17) 0.42419(11)
C52 C 0.94782(18) 0.70260(18) 0.46640(13)
H34 H 0.8895 0.6984 0.4810
C53 C 1.0147(2) 0.77454(18) 0.48650(14)
H35 H 1.0026 0.8201 0.5162
C54 C 1.0992(2) 0.7810(2) 0.46371(15)
H36 H 1.1429 0.8315 0.4777
C55 C 1.12087(19) 0.7165(2) 0.42177(14)
H37 H 1.1779 0.7225 0.4059
C56 C 1.05645(17) 0.64145(19) 0.40287(12)
loop_
_geom_bond_atom_site_label_1
_geom_bond_atom_site_label_2
_geom_bond_site_symmetry_1
_geom_bond_site_symmetry_2
N1 C1 1_555 1_555
N2 C25 1_555 1_555
N3 C25 1_555 1_555
N4 C44 1_555 1_555
N5 C44 1_555 1_555
C1 C2 1_555 1_555
C2 H1 1_555 1_555
C3 C2 1_555 1_555
H2 C3 1_555 1_555
C4 C3 1_555 1_555
C5 C4 1_555 1_555
H3 C5 1_555 1_555
C6 C1 1_555 1_555
C7 C6 1_555 1_555
C8 C7 1_555 1_555
H4 C8 1_555 1_555
C9 C8 1_555 1_555
C10 C9 1_555 1_555
H5 C10 1_555 1_555
C11 C10 1_555 1_555
H6 C11 1_555 1_555
C12 N1 1_555 1_555
C13 N1 1_555 1_555
C14 C13 1_555 1_555
H7 C14 1_555 1_555
C15 C14 1_555 1_555
H8 C15 1_555 1_555
C16 C15 1_555 1_555
H9 C16 1_555 1_555
C17 C16 1_555 1_555
H10 C17 1_555 1_555
C18 C13 1_555 1_555
H11 C18 1_555 1_555
C19 C9 1_555 1_555
C20 C19 1_555 1_555
H12 C20 1_555 1_555
C21 C20 1_555 1_555
H13 C21 1_555 1_555
C22 C21 1_555 1_555
H14 C22 1_555 1_555
C23 C22 1_555 1_555
H15 C23 1_555 1_555
C24 C19 1_555 1_555
C25 C24 1_555 1_555
C26 N3 1_555 1_555
C27 C26 1_555 1_555
H16 C27 1_555 1_555
C28 C27 1_555 1_555
H17 C28 1_555 1_555
C29 C28 1_555 1_555
H18 C29 1_555 1_555
C30 C29 1_555 1_555
H19 C30 1_555 1_555
C31 C26 1_555 1_555
H20 C31 1_555 1_555
C32 N2 1_555 1_555
C33 C32 1_555 1_555
H21 C33 1_555 1_555
C34 C33 1_555 1_555
H22 C34 1_555 1_555
C35 C34 1_555 1_555
H23 C35 1_555 1_555
C36 C35 1_555 1_555
H24 C36 1_555 1_555
C37 N3 1_555 1_555
C38 C4 1_555 1_555
C39 C38 1_555 1_555
H25 C39 1_555 1_555
C40 C39 1_555 1_555
H26 C40 1_555 1_555
C41 C40 1_555 1_555
H27 C41 1_555 1_555
C42 C41 1_555 1_555
H28 C42 1_555 1_555
C43 C38 1_555 1_555
C44 C43 1_555 1_555
C45 N4 1_555 1_555
C46 C45 1_555 1_555
H29 C46 1_555 1_555
C47 C46 1_555 1_555
H30 C47 1_555 1_555
C48 C47 1_555 1_555
H31 C48 1_555 1_555
C49 C48 1_555 1_555
H32 C49 1_555 1_555
C50 C45 1_555 1_555
H33 C50 1_555 1_555
C51 N4 1_555 1_555
C52 C51 1_555 1_555
H34 C52 1_555 1_555
C53 C52 1_555 1_555
H35 C53 1_555 1_555
C54 C53 1_555 1_555
H36 C54 1_555 1_555
C55 C54 1_555 1_555
H37 C55 1_555 1_555
C56 N5 1_555 1_555
C5 C6 1_555 1_555
C7 C12 1_555 1_555
C11 C12 1_555 1_555
C17 C18 1_555 1_555
C23 C24 1_555 1_555
C30 C31 1_555 1_555
C32 C37 1_555 1_555
C36 C37 1_555 1_555
C42 C43 1_555 1_555
C49 C50 1_555 1_555
C51 C56 1_555 1_555
C55 C56 1_555 1_555

#END
