
#######################################################################
#
#                 Cambridge Crystallographic Data Centre
#                                CCDC 
#
#######################################################################
#
# If this CIF has been generated from an entry in the Cambridge 
# Structural Database, then it will include bibliographic, chemical, 
# crystal, experimental, refinement or atomic coordinate data resulting 
# from the CCDC's data processing and validation procedures.
#
#######################################################################

data_HIHVIG
_chemical_formula_moiety         'C14 H25 N1 O5'
_chemical_name_systematic        
't-butyl (2R*,4R*)-2-(3-ethoxy-3-oxopropyl)-4-hydroxypyrrolidine-1-carboxylate'
_symmetry_cell_setting           monoclinic
_symmetry_space_group_name_H-M   'P 21/c'
_symmetry_Int_Tables_number      14
_space_group_name_Hall           '-P 2ybc'
loop_
_symmetry_equiv_pos_site_id
_symmetry_equiv_pos_as_xyz
1 x,y,z
2 -x,1/2+y,1/2-z
3 -x,-y,-z
4 x,1/2-y,1/2+z
_cell_length_a                   15.5057(8)
_cell_length_b                   9.2475(5)
_cell_length_c                   11.6104(5)
_cell_angle_alpha                90
_cell_angle_beta                 108.8865(17)
_cell_angle_gamma                90
_cell_volume                     1575.17
_exptl_crystal_colour            colorless
_exptl_crystal_description       plate
_cell_formula_units_Z            4
_exptl_crystal_recrystallization_method dichloromethane/hexane
loop_
_atom_site_label
_atom_site_type_symbol
_atom_site_fract_x
_atom_site_fract_y
_atom_site_fract_z
C1 C 0.48763(18) 0.6757(3) 0.5876(2)
H1 H 0.534006 0.628203 0.558626
H2 H 0.507469 0.670846 0.677575
C2 C 0.47211(18) 0.8307(3) 0.5437(2)
H3 H 0.529581 0.876835 0.540352
C3 C 0.40256(19) 0.8139(3) 0.4178(2)
H4 H 0.432319 0.782728 0.358301
H5 H 0.370139 0.906172 0.389792
C4 C 0.33672(17) 0.6978(3) 0.4331(2)
H6 H 0.289304 0.744501 0.462113
C5 C 0.29005(18) 0.6141(3) 0.3173(2)
H7 H 0.249223 0.540149 0.333398
H8 H 0.336431 0.563817 0.29006
C6 C 0.23482(18) 0.7162(3) 0.2174(2)
H9 H 0.204556 0.788756 0.254049
H10 H 0.277129 0.768662 0.184046
C7 C 0.16333(18) 0.6422(3) 0.1141(2)
C8 C 0.0604(2) 0.6755(3) -0.0856(2)
H11 H 0.010249 0.630428 -0.062899
H12 H 0.087498 0.601397 -0.124953
C9 C 0.37301(18) 0.4971(3) 0.5887(2)
C10 C 0.24581(19) 0.3312(3) 0.5689(2)
C11 C 0.1478(2) 0.3377(3) 0.4835(2)
H13 H 0.11756 0.42292 0.502763
H14 H 0.115302 0.250215 0.493503
H15 H 0.147654 0.344046 0.399128
C12 C 0.2956(2) 0.2037(3) 0.5395(2)
H16 H 0.29861 0.214397 0.456864
H17 H 0.263046 0.114377 0.544606
H18 H 0.357518 0.199509 0.597731
C13 C 0.2482(2) 0.3302(3) 0.7014(2)
H19 H 0.311714 0.328394 0.755076
H20 H 0.216377 0.244353 0.716298
H21 H 0.218192 0.417383 0.717815
N1 N 0.39796(14) 0.6086(2) 0.53362(17)
O1 O 0.43038(13) 0.9134(2) 0.61411(16)
H22 H 0.467573 0.925579 0.684336
O2 O 0.13938(14) 0.5185(2) 0.11362(17)
O3 O 0.12901(13) 0.7333(2) 0.02162(15)
O4 O 0.28340(12) 0.46837(19) 0.54121(15)
O5 O 0.42621(13) 0.42892(19) 0.67328(15)
C14 C 0.0251(2) 0.8002(4) -0.1706(3)
H23 H -0.007185 0.867821 -0.133866
H24 H -0.016928 0.76418 -0.247773
H25 H 0.076197 0.849973 -0.185545
loop_
_geom_bond_atom_site_label_1
_geom_bond_atom_site_label_2
_geom_bond_site_symmetry_1
_geom_bond_site_symmetry_2
C1 H1 1_555 1_555
H2 C1 1_555 1_555
C2 C1 1_555 1_555
H3 C2 1_555 1_555
C3 C2 1_555 1_555
H4 C3 1_555 1_555
H5 C3 1_555 1_555
C4 C3 1_555 1_555
H6 C4 1_555 1_555
C5 C4 1_555 1_555
H7 C5 1_555 1_555
H8 C5 1_555 1_555
C6 C5 1_555 1_555
H9 C6 1_555 1_555
H10 C6 1_555 1_555
C7 C6 1_555 1_555
C8 H11 1_555 1_555
H12 C8 1_555 1_555
C9 N1 1_555 1_555
C10 C11 1_555 1_555
C11 H13 1_555 1_555
H14 C11 1_555 1_555
H15 C11 1_555 1_555
C12 C10 1_555 1_555
H16 C12 1_555 1_555
H17 C12 1_555 1_555
H18 C12 1_555 1_555
C13 C10 1_555 1_555
H19 C13 1_555 1_555
H20 C13 1_555 1_555
H21 C13 1_555 1_555
N1 C1 1_555 1_555
O1 C2 1_555 1_555
H22 O1 1_555 1_555
O2 C7 1_555 1_555
O3 C7 1_555 1_555
O4 C9 1_555 1_555
O5 C9 1_555 1_555
C14 C8 1_555 1_555
H23 C14 1_555 1_555
H24 C14 1_555 1_555
H25 C14 1_555 1_555
C4 N1 1_555 1_555
C8 O3 1_555 1_555
C10 O4 1_555 1_555

#END
