
#######################################################################
#
#                 Cambridge Crystallographic Data Centre
#                                CCDC 
#
#######################################################################
#
# If this CIF has been generated from an entry in the Cambridge 
# Structural Database, then it will include bibliographic, chemical, 
# crystal, experimental, refinement or atomic coordinate data resulting 
# from the CCDC's data processing and validation procedures.
#
#######################################################################

data_HIHWEB
_chemical_formula_moiety         'C19 H33 N3'
_chemical_name_systematic        
N-(2,6-Diisopropylphenyl)-N',N''-diisopropylguanidine
_symmetry_cell_setting           monoclinic
_symmetry_space_group_name_H-M   'P 21/n'
_symmetry_Int_Tables_number      14
_space_group_name_Hall           '-P 2yn'
loop_
_symmetry_equiv_pos_site_id
_symmetry_equiv_pos_as_xyz
1 x,y,z
2 1/2-x,1/2+y,1/2-z
3 -x,-y,-z
4 1/2+x,1/2-y,1/2+z
_cell_length_a                   8.8510(11)
_cell_length_b                   14.2184(18)
_cell_length_c                   14.9359(17)
_cell_angle_alpha                90
_cell_angle_beta                 95.772(5)
_cell_angle_gamma                90
_cell_volume                     1870.11
_exptl_crystal_colour            colorless
_exptl_crystal_description       prism
_chemical_melting_point          '56-58 deg.C'
_cell_formula_units_Z            4
loop_
_atom_site_label
_atom_site_type_symbol
_atom_site_fract_x
_atom_site_fract_y
_atom_site_fract_z
N1 N 0.20361(17) 0.31333(11) 0.78870(10)
N2 N 0.03751(17) 0.42908(13) 0.73447(10)
N3 N 0.29535(19) 0.45063(11) 0.72255(10)
C1 C 0.1824(2) 0.39423(13) 0.74975(12)
C2 C 0.3500(2) 0.27280(13) 0.80101(12)
C3 C 0.4177(2) 0.26113(13) 0.89028(12)
C4 C 0.5558(2) 0.21439(13) 0.90521(13)
H1 H 0.6015 0.2068 0.9651
C5 C 0.6282(2) 0.17853(13) 0.83412(13)
H2 H 0.7238 0.1481 0.8453
C6 C 0.5599(2) 0.18755(13) 0.74709(13)
H3 H 0.6084 0.1615 0.6988
C7 C 0.4211(2) 0.23418(13) 0.72853(12)
C8 C 0.3376(2) 0.29950(13) 0.96805(12)
H4 H 0.2268 0.2863 0.9540
C9 C 0.3556(2) 0.40617(14) 0.97542(14)
H5 H 0.4636 0.4220 0.9866
H6 H 0.3018 0.4293 1.0253
H7 H 0.3129 0.4356 0.9191
C10 C 0.3864(2) 0.25535(16) 1.05962(13)
H8 H 0.3788 0.1867 1.0549
H9 H 0.3201 0.2779 1.1038
H10 H 0.4916 0.2730 1.0790
C11 C 0.3460(2) 0.23626(13) 0.63259(12)
H11 H 0.2569 0.2796 0.6308
C12 C 0.4516(2) 0.27281(15) 0.56545(13)
H12 H 0.4925 0.3342 0.5855
H13 H 0.3947 0.2793 0.5060
H14 H 0.5354 0.2284 0.5618
C13 C 0.2867(2) 0.13818(14) 0.60520(13)
H15 H 0.3722 0.0943 0.6057
H16 H 0.2330 0.1408 0.5446
H17 H 0.2169 0.1166 0.6478
C14 C -0.0895(2) 0.38531(15) 0.77410(13)
H18 H -0.0850 0.3159 0.7640
C15 C -0.2377(2) 0.42208(15) 0.72689(15)
H19 H -0.2452 0.4899 0.7375
H20 H -0.3231 0.3899 0.7506
H21 H -0.2404 0.4102 0.6621
C16 C -0.0842(2) 0.40303(17) 0.87472(14)
H22 H 0.0124 0.3799 0.9046
H23 H -0.1685 0.3699 0.8987
H24 H -0.0930 0.4707 0.8857
C17 C 0.2739(2) 0.52984(13) 0.65912(12)
H25 H 0.1973 0.5735 0.6812
C18 C 0.4233(2) 0.58221(15) 0.66024(16)
H26 H 0.4574 0.6015 0.7220
H27 H 0.4094 0.6380 0.6218
H28 H 0.4997 0.5410 0.6377
C19 C 0.2157(3) 0.49842(16) 0.56463(14)
H29 H 0.2917 0.4581 0.5404
H30 H 0.1969 0.5537 0.5259
H31 H 0.1210 0.4632 0.5666
H32 H 0.383(2) 0.4237(14) 0.7274(13)
H33 H 0.029(2) 0.4891(17) 0.7260(14)
loop_
_geom_bond_atom_site_label_1
_geom_bond_atom_site_label_2
_geom_bond_site_symmetry_1
_geom_bond_site_symmetry_2
N1 C1 1_555 1_555
N2 C1 1_555 1_555
N3 C1 1_555 1_555
C2 N1 1_555 1_555
C3 C2 1_555 1_555
C4 C3 1_555 1_555
H1 C4 1_555 1_555
C5 C4 1_555 1_555
H2 C5 1_555 1_555
C6 C5 1_555 1_555
H3 C6 1_555 1_555
C7 C2 1_555 1_555
C8 C3 1_555 1_555
H4 C8 1_555 1_555
C9 C8 1_555 1_555
H5 C9 1_555 1_555
H6 C9 1_555 1_555
H7 C9 1_555 1_555
C10 C8 1_555 1_555
H8 C10 1_555 1_555
H9 C10 1_555 1_555
H10 C10 1_555 1_555
C11 C7 1_555 1_555
H11 C11 1_555 1_555
C12 C11 1_555 1_555
H12 C12 1_555 1_555
H13 C12 1_555 1_555
H14 C12 1_555 1_555
C13 C11 1_555 1_555
H15 C13 1_555 1_555
H16 C13 1_555 1_555
H17 C13 1_555 1_555
C14 N2 1_555 1_555
H18 C14 1_555 1_555
C15 C14 1_555 1_555
H19 C15 1_555 1_555
H20 C15 1_555 1_555
H21 C15 1_555 1_555
C16 C14 1_555 1_555
H22 C16 1_555 1_555
H23 C16 1_555 1_555
H24 C16 1_555 1_555
C17 N3 1_555 1_555
H25 C17 1_555 1_555
C18 C17 1_555 1_555
H26 C18 1_555 1_555
H27 C18 1_555 1_555
H28 C18 1_555 1_555
C19 C17 1_555 1_555
H29 C19 1_555 1_555
H30 C19 1_555 1_555
H31 C19 1_555 1_555
H32 N3 1_555 1_555
H33 N2 1_555 1_555
C6 C7 1_555 1_555

#END
