
#######################################################################
#
#                 Cambridge Crystallographic Data Centre
#                                CCDC 
#
#######################################################################
#
# If this CIF has been generated from an entry in the Cambridge 
# Structural Database, then it will include bibliographic, chemical, 
# crystal, experimental, refinement or atomic coordinate data resulting 
# from the CCDC's data processing and validation procedures.
#
#######################################################################

data_HIHYII
_chemical_name_common            
1-((Difluoro(methyl)silyl)methyl)piperidine-2,6-dione
_chemical_formula_moiety         'C7 H11 F2 N1 O2 Si1'
_chemical_name_systematic        
difluoro-methyl-((2,6-dioxopiperidin-1-yl)methyl)-silicon
_symmetry_cell_setting           monoclinic
_symmetry_space_group_name_H-M   'P 21/c'
_symmetry_Int_Tables_number      14
_space_group_name_Hall           '-P 2ybc'
loop_
_symmetry_equiv_pos_site_id
_symmetry_equiv_pos_as_xyz
1 x,y,z
2 -x,1/2+y,1/2-z
3 -x,-y,-z
4 x,1/2-y,1/2+z
_cell_length_a                   12.7138(4)
_cell_length_b                   7.4295(3)
_cell_length_c                   9.7496(4)
_cell_angle_alpha                90
_cell_angle_beta                 92.419(2)
_cell_angle_gamma                90
_cell_volume                     920.099
_exptl_crystal_colour            colorless
_exptl_crystal_description       Block
_cell_formula_units_Z            4
loop_
_atom_site_label
_atom_site_type_symbol
_atom_site_fract_x
_atom_site_fract_y
_atom_site_fract_z
C1 C 0.73552(19) -0.0951(3) 0.9515(3)
C2 C 0.88705(19) 0.0249(4) 1.0849(3)
C3 C 0.8925(2) -0.1474(4) 1.1651(3)
H1 H 0.8497 -0.1347 1.2470
H2 H 0.9663 -0.1686 1.1975
C4 C 0.8537(2) -0.3094(4) 1.0828(3)
H3 H 0.8533 -0.4172 1.1425
H4 H 0.9013 -0.3331 1.0070
C5 C 0.7424(2) -0.2714(4) 1.0244(3)
H5 H 0.7209 -0.3687 0.9597
H6 H 0.6929 -0.2714 1.1001
C6 C 0.79278(19) 0.2065(3) 0.9030(3)
H7 H 0.8517 0.2224 0.8409
H8 H 0.7950 0.3080 0.9689
C7 C 0.5332(2) 0.2320(4) 0.8679(3)
H9 H 0.5066 0.3550 0.8557
H10 H 0.5371 0.2020 0.9658
H11 H 0.4856 0.1478 0.8190
N1 N 0.80819(15) 0.0373(3) 0.9793(2)
O1 O 0.66392(14) -0.0619(3) 0.86458(19)
O2 O 0.94483(15) 0.1526(3) 1.1067(2)
F1 F 0.66898(13) 0.1244(2) 0.65016(16)
F2 F 0.68347(12) 0.4231(2) 0.74679(17)
Si1 Si 0.66499(5) 0.21546(10) 0.79877(7)
loop_
_geom_bond_atom_site_label_1
_geom_bond_atom_site_label_2
_geom_bond_site_symmetry_1
_geom_bond_site_symmetry_2
C1 C5 1_555 1_555
C2 C3 1_555 1_555
C3 H1 1_555 1_555
H2 C3 1_555 1_555
C4 C3 1_555 1_555
H3 C4 1_555 1_555
H4 C4 1_555 1_555
C5 C4 1_555 1_555
H5 C5 1_555 1_555
H6 C5 1_555 1_555
C6 H7 1_555 1_555
H8 C6 1_555 1_555
C7 H9 1_555 1_555
H10 C7 1_555 1_555
H11 C7 1_555 1_555
N1 C1 1_555 1_555
O1 C1 1_555 1_555
O2 C2 1_555 1_555
F1 Si1 1_555 1_555
F2 Si1 1_555 1_555
Si1 C6 1_555 1_555
C2 N1 1_555 1_555
C6 N1 1_555 1_555
C7 Si1 1_555 1_555
O1 Si1 1_555 1_555

#END
