
#######################################################################
#
#                 Cambridge Crystallographic Data Centre
#                                CCDC 
#
#######################################################################
#
# If this CIF has been generated from an entry in the Cambridge 
# Structural Database, then it will include bibliographic, chemical, 
# crystal, experimental, refinement or atomic coordinate data resulting 
# from the CCDC's data processing and validation procedures.
#
#######################################################################

data_HIHYEE
_chemical_formula_moiety         'C16 H28 N2 O5 Si2'
_chemical_name_systematic        
1,1'-((1,1,3,3-Tetramethyldisiloxane-1,3-diyl)bis(methylene))dipiperidine-2,6-dione
_symmetry_cell_setting           monoclinic
_symmetry_space_group_name_H-M   'P 21/n'
_symmetry_Int_Tables_number      14
_space_group_name_Hall           '-P 2yn'
loop_
_symmetry_equiv_pos_site_id
_symmetry_equiv_pos_as_xyz
1 x,y,z
2 1/2-x,1/2+y,1/2-z
3 -x,-y,-z
4 1/2+x,1/2-y,1/2+z
_cell_length_a                   12.501(2)
_cell_length_b                   6.1661(10)
_cell_length_c                   13.596(2)
_cell_angle_alpha                90
_cell_angle_beta                 111.413(2)
_cell_angle_gamma                90
_cell_volume                     975.671
_exptl_crystal_colour            colorless
_exptl_crystal_description       plate
_cell_formula_units_Z            2
loop_
_atom_site_label
_atom_site_type_symbol
_atom_site_fract_x
_atom_site_fract_y
_atom_site_fract_z
Si1 Si 0.63445(4) 0.43791(7) 0.53702(3)
N1 N 0.63516(11) 0.4992(2) 0.33090(10)
O1 O 0.76149(10) 0.2233(2) 0.35280(10)
O2 O 0.52722(11) 0.80607(19) 0.29922(9)
O3 O 0.5000 0.5000 0.5000
C1 C 0.67589(14) 0.3167(3) 0.29495(13)
C2 C 0.61129(15) 0.2443(3) 0.18349(13)
H1 H 0.6137 0.0840 0.1805
H2 H 0.6502 0.3022 0.1374
C3 C 0.48713(15) 0.3177(3) 0.14128(13)
H3 H 0.4444 0.2468 0.1811
H4 H 0.4502 0.2776 0.0659
C4 C 0.48506(14) 0.5627(3) 0.15373(12)
H5 H 0.5200 0.6319 0.1069
H6 H 0.4043 0.6120 0.1310
C5 C 0.54885(14) 0.6355(3) 0.26581(12)
C6 C 0.69486(13) 0.5656(3) 0.44243(12)
H7 H 0.6901 0.7253 0.4472
H8 H 0.7771 0.5264 0.4645
C7 C 0.71164(15) 0.5601(3) 0.66822(12)
H9 H 0.6835 0.4961 0.7202
H10 H 0.6981 0.7170 0.6646
H11 H 0.7942 0.5320 0.6894
C8 C 0.64763(14) 0.1396(3) 0.53679(13)
H12 H 0.6159 0.0768 0.5865
H13 H 0.7288 0.0996 0.5581
H14 H 0.6052 0.0840 0.4656
Si1B Si 0.36555(4) 0.56209(7) 0.46298(3)
N1B N 0.36484(11) 0.5008(2) 0.66910(10)
O1B O 0.23851(10) 0.7767(2) 0.64720(10)
O2B O 0.47278(11) 0.19393(19) 0.70078(9)
C1B C 0.32411(14) 0.6833(3) 0.70505(13)
C2B C 0.38871(15) 0.7557(3) 0.81651(13)
H1B H 0.3863 0.9160 0.8195
H2B H 0.3498 0.6978 0.8626
C3B C 0.51287(15) 0.6823(3) 0.85872(13)
H3B H 0.5556 0.7532 0.8189
H4B H 0.5498 0.7224 0.9341
C4B C 0.51494(14) 0.4373(3) 0.84627(12)
H5B H 0.4800 0.3681 0.8931
H6B H 0.5957 0.3880 0.8690
C5B C 0.45115(14) 0.3645(3) 0.73419(12)
C6B C 0.30514(13) 0.4344(3) 0.55757(12)
H7B H 0.3099 0.2747 0.5528
H8B H 0.2229 0.4736 0.5355
C7B C 0.28836(15) 0.4399(3) 0.33178(12)
H9B H 0.3165 0.5039 0.2798
H10B H 0.3019 0.2830 0.3354
H11B H 0.2058 0.4680 0.3106
C8B C 0.35237(14) 0.8604(3) 0.46321(13)
H12B H 0.3841 0.9232 0.4135
H13B H 0.2712 0.9004 0.4419
H14B H 0.3948 0.9160 0.5344
loop_
_geom_bond_atom_site_label_1
_geom_bond_atom_site_label_2
_geom_bond_site_symmetry_1
_geom_bond_site_symmetry_2
Si1 O3 1_555 1_555
N1 C1 1_555 1_555
O1 C1 1_555 1_555
O2 C5 1_555 1_555
O3 Si1B 1_555 1_555
C1 C2 1_555 1_555
C2 H1 1_555 1_555
H2 C2 1_555 1_555
C3 C2 1_555 1_555
H3 C3 1_555 1_555
H4 C3 1_555 1_555
C4 C3 1_555 1_555
H5 C4 1_555 1_555
H6 C4 1_555 1_555
C5 N1 1_555 1_555
C6 Si1 1_555 1_555
H7 C6 1_555 1_555
H8 C6 1_555 1_555
C7 Si1 1_555 1_555
H9 C7 1_555 1_555
H10 C7 1_555 1_555
H11 C7 1_555 1_555
C8 Si1 1_555 1_555
H12 C8 1_555 1_555
H13 C8 1_555 1_555
H14 C8 1_555 1_555
Si1B C6B 1_555 1_555
N1B C1B 1_555 1_555
O1B C1B 1_555 1_555
O2B C5B 1_555 1_555
C1B C2B 1_555 1_555
C2B H1B 1_555 1_555
H2B C2B 1_555 1_555
C3B C2B 1_555 1_555
H3B C3B 1_555 1_555
H4B C3B 1_555 1_555
C4B C3B 1_555 1_555
H5B C4B 1_555 1_555
H6B C4B 1_555 1_555
C5B N1B 1_555 1_555
C6B N1B 1_555 1_555
H7B C6B 1_555 1_555
H8B C6B 1_555 1_555
C7B Si1B 1_555 1_555
H9B C7B 1_555 1_555
H10B C7B 1_555 1_555
H11B C7B 1_555 1_555
C8B Si1B 1_555 1_555
H12B C8B 1_555 1_555
H13B C8B 1_555 1_555
H14B C8B 1_555 1_555
N1 C6 1_555 1_555
C4 C5 1_555 1_555
C4B C5B 1_555 1_555

#END
