
#######################################################################
#
#                 Cambridge Crystallographic Data Centre
#                                CCDC 
#
#######################################################################
#
# If this CIF has been generated from an entry in the Cambridge 
# Structural Database, then it will include bibliographic, chemical, 
# crystal, experimental, refinement or atomic coordinate data resulting 
# from the CCDC's data processing and validation procedures.
#
#######################################################################

data_HIHZEF
_chemical_formula_moiety         'C15 H13 N1 O2,C1 H1 Cl3'
_chemical_name_systematic        
'4-Benzylidene-4,5,6,7-tetrahydro-8H-furo[2,3-c]azepin-8-one chloroform solvate'
_symmetry_cell_setting           orthorhombic
_symmetry_space_group_name_H-M   'P b c a'
_symmetry_Int_Tables_number      61
_space_group_name_Hall           '-P 2ac 2ab'
loop_
_symmetry_equiv_pos_site_id
_symmetry_equiv_pos_as_xyz
1 x,y,z
2 1/2-x,-y,1/2+z
3 1/2+x,1/2-y,-z
4 -x,1/2+y,1/2-z
5 -x,-y,-z
6 1/2+x,y,1/2-z
7 1/2-x,1/2+y,z
8 x,1/2-y,1/2+z
_cell_length_a                   9.7761(9)
_cell_length_b                   14.7382(10)
_cell_length_c                   24.0669(16)
_cell_angle_alpha                90
_cell_angle_beta                 90
_cell_angle_gamma                90
_cell_volume                     3467.61
_exptl_crystal_colour            colorless
_exptl_crystal_description       platelet
_cell_formula_units_Z            8
loop_
_atom_site_label
_atom_site_type_symbol
_atom_site_fract_x
_atom_site_fract_y
_atom_site_fract_z
Cl1 Cl -0.1833(2) 0.12688(14) 0.31642(9)
Cl2 Cl 0.1060(2) 0.13064(14) 0.32865(10)
Cl3 Cl -0.0151(4) -0.00016(14) 0.25512(8)
C1 C -0.0352(6) 0.0574(4) 0.3166(2)
H1 H -0.0418 0.0137 0.3471
O1 O 0.5459(3) 0.3355(2) 0.35801(12)
O2 O 0.5440(3) 0.4623(2) 0.43292(12)
N1 N 0.4540(4) 0.3763(3) 0.50052(14)
H2 H 0.4567 0.4239 0.5212
C2 C 0.5264(6) 0.2628(4) 0.3246(2)
H3 H 0.5529 0.2603 0.2875
C3 C 0.4646(5) 0.1954(3) 0.35139(19)
H4 H 0.4418 0.1390 0.3368
C4 C 0.4398(4) 0.2261(3) 0.40676(17)
C5 C 0.4897(4) 0.3129(3) 0.40862(16)
C6 C 0.4973(4) 0.3875(3) 0.44846(16)
C7 C 0.4023(6) 0.2938(3) 0.52730(18)
H5 H 0.3615 0.3103 0.5626
H6 H 0.4792 0.2541 0.5351
C8 C 0.2974(5) 0.2410(3) 0.49358(19)
H7 H 0.2423 0.2047 0.5186
H8 H 0.2370 0.2836 0.4750
C9 C 0.3612(4) 0.1800(3) 0.45086(18)
C10 C 0.3444(5) 0.0898(3) 0.4539(2)
H9 H 0.2826 0.0700 0.4806
C11 C 0.4099(5) 0.0175(3) 0.4208(2)
C12 C 0.3317(6) -0.0492(3) 0.3958(2)
H10 H 0.2370 -0.0467 0.3991
C13 C 0.3898(7) -0.1189(4) 0.3661(3)
H11 H 0.3348 -0.1618 0.3487
C14 C 0.5306(7) -0.1249(4) 0.3624(3)
H12 H 0.5712 -0.1728 0.3434
C15 C 0.6103(6) -0.0593(4) 0.3871(3)
H13 H 0.7050 -0.0625 0.3842
C16 C 0.5510(5) 0.0108(4) 0.4158(2)
H14 H 0.6062 0.0546 0.4322
loop_
_geom_bond_atom_site_label_1
_geom_bond_atom_site_label_2
_geom_bond_site_symmetry_1
_geom_bond_site_symmetry_2
Cl1 C1 1_555 1_555
Cl2 C1 1_555 1_555
Cl3 C1 1_555 1_555
C1 H1 1_555 1_555
O1 C2 1_555 1_555
O2 C6 1_555 1_555
N1 H2 1_555 1_555
C2 H3 1_555 1_555
C3 C2 1_555 1_555
H4 C3 1_555 1_555
C4 C3 1_555 1_555
C5 O1 1_555 1_555
C6 N1 1_555 1_555
C7 N1 1_555 1_555
H5 C7 1_555 1_555
H6 C7 1_555 1_555
C8 C7 1_555 1_555
H7 C8 1_555 1_555
H8 C8 1_555 1_555
C9 C4 1_555 1_555
C10 C9 1_555 1_555
H9 C10 1_555 1_555
C11 C10 1_555 1_555
C12 C11 1_555 1_555
H10 C12 1_555 1_555
C13 C12 1_555 1_555
H11 C13 1_555 1_555
C14 C13 1_555 1_555
H12 C14 1_555 1_555
C15 C14 1_555 1_555
H13 C15 1_555 1_555
C16 C11 1_555 1_555
H14 C16 1_555 1_555
C4 C5 1_555 1_555
C5 C6 1_555 1_555
C8 C9 1_555 1_555
C15 C16 1_555 1_555

#END
