
#######################################################################
#
#                 Cambridge Crystallographic Data Centre
#                                CCDC 
#
#######################################################################
#
# If this CIF has been generated from an entry in the Cambridge 
# Structural Database, then it will include bibliographic, chemical, 
# crystal, experimental, refinement or atomic coordinate data resulting 
# from the CCDC's data processing and validation procedures.
#
#######################################################################

data_HIJBEK
_chemical_compound_source        
'trunks of ornamental shrub Jatropha multifida L. (Euphorbiaceae)'
_chemical_name_common            'jatromultone A'
_chemical_formula_moiety         'C20 H28 O4'
_chemical_name_systematic        
5,7-dihydroxy-1,1,2a,5,7a-pentamethyl-1a,2,2a,4,5,7,7a,8,9,9a-decahydro-1H-cyclopropa[4,5]cyclohepta[1,2-f]indene-3,6-dione
_symmetry_cell_setting           monoclinic
_symmetry_space_group_name_H-M   'P 21'
_symmetry_Int_Tables_number      4
_space_group_name_Hall           'P 2yb'
loop_
_symmetry_equiv_pos_site_id
_symmetry_equiv_pos_as_xyz
1 x,y,z
2 -x,1/2+y,-z
_cell_length_a                   13.79199(9)
_cell_length_b                   6.33031(4)
_cell_length_c                   20.50181(15)
_cell_angle_alpha                90
_cell_angle_beta                 97.9058(7)
_cell_angle_gamma                90
_cell_volume                     1772.95
_cell_formula_units_Z            4
loop_
_atom_site_label
_atom_site_type_symbol
_atom_site_fract_x
_atom_site_fract_y
_atom_site_fract_z
O1 O 0.87644(6) 0.29204(15) 0.17934(4)
O2 O 1.25555(5) 0.48114(13) 0.23209(4)
O3 O 1.09922(6) 0.22523(14) -0.01408(4)
O4 O 1.24445(6) 0.43465(15) 0.08038(4)
C1 C 0.95444(7) 0.38513(17) 0.18651(5)
C2 C 1.09574(7) 0.51575(17) 0.26757(5)
C3 C 0.98423(7) 0.55026(17) 0.23993(5)
C4 C 0.91124(7) 0.7236(2) 0.33587(5)
C5 C 0.91488(8) 0.53074(19) 0.29293(5)
C6 C 1.15804(7) 0.54848(17) 0.21058(5)
C7 C 1.02543(8) 0.34710(18) 0.13953(5)
C8 C 0.90755(8) 0.7117(2) 0.40949(5)
C9 C 1.11643(8) 0.42598(18) 0.15054(5)
C10 C 0.96527(8) 0.76410(18) 0.20358(5)
C11 C 1.00355(8) 0.22036(19) 0.07748(5)
C12 C 1.16739(8) 0.36611(18) 0.09434(5)
C13 C 0.99946(8) 0.7899(2) 0.38410(5)
C14 C 1.13694(7) 0.67346(18) 0.32232(5)
C15 C 1.10532(8) 0.19585(18) 0.05491(5)
C16 C 0.84545(9) 0.8782(3) 0.43688(6)
C17 C 0.90514(9) 0.5030(2) 0.44423(6)
C18 C 1.15259(9) -0.01580(19) 0.07637(6)
C19 C 1.09347(8) 0.6646(2) 0.38739(5)
C20 C 1.11251(8) 0.28818(17) 0.29320(6)
H1 H 1.29354(11) 0.5488(19) 0.2128(6)
H2 H 1.1464(7) 0.294(2) -0.02223(7)
H3 H 0.87427(7) 0.8420(2) 0.31394(5)
H4 H 0.84929(8) 0.50161(19) 0.27112(5)
H5 H 0.93543(8) 0.41079(19) 0.32089(5)
H6 H 1.15859(7) 0.69902(17) 0.19948(5)
H7 H 1.0009(5) 0.7683(6) 0.1665(3)
H8 H 0.89656(11) 0.7788(6) 0.1885(4)
H9 H 0.9866(6) 0.87763(19) 0.23316(13)
H10 H 0.97584(8) 0.08394(19) 0.08602(5)
H11 H 0.95866(8) 0.29481(19) 0.04477(5)
H12 H 1.00907(8) 0.9431(2) 0.38755(5)
H13 H 1.20694(7) 0.65031(18) 0.33221(5)
H14 H 1.12749(7) 0.81529(18) 0.30469(5)
H15 H 0.8494(6) 1.0079(5) 0.4131(4)
H16 H 0.77863(17) 0.8315(8) 0.4322(5)
H17 H 0.8690(5) 0.9007(13) 0.48263(15)
H18 H 0.83927(17) 0.4502(9) 0.4388(5)
H19 H 0.9467(6) 0.4041(6) 0.4258(4)
H20 H 0.9279(8) 0.5214(4) 0.49026(11)
H21 H 1.1127(4) -0.12881(19) 0.0563(4)
H22 H 1.2164(3) -0.0235(7) 0.0629(4)
H23 H 1.1583(7) -0.0281(7) 0.12341(7)
H24 H 1.14085(8) 0.7200(2) 0.42257(5)
H25 H 1.08066(8) 0.5185(2) 0.39771(5)
H26 H 1.0725(5) 0.2622(5) 0.3272(3)
H27 H 1.0953(6) 0.19056(18) 0.25766(11)
H28 H 1.18017(15) 0.2699(4) 0.3108(4)
O5 O 0.38603(6) 0.73011(17) 0.17348(4)
O6 O 0.75568(5) 0.99415(14) 0.22759(4)
O7 O 0.75164(6) 0.93238(14) 0.07887(4)
O8 O 0.61122(6) 0.71573(14) -0.01806(4)
C21 C 0.41503(8) 0.9631(2) 0.28926(5)
C22 C 0.48271(7) 1.00245(18) 0.23609(5)
C23 C 0.62192(8) 0.76195(17) 0.28772(6)
C24 C 0.40373(8) 1.1488(2) 0.33374(5)
C25 C 0.59532(7) 0.98763(17) 0.26340(5)
C26 C 0.40247(8) 1.1271(3) 0.40750(6)
C27 C 0.58842(8) 1.1245(2) 0.38409(5)
C28 C 0.53197(8) 0.81705(18) 0.13448(5)
C29 C 0.45495(8) 1.2163(2) 0.20155(6)
C30 C 0.62010(8) 0.90963(18) 0.14607(5)
C31 C 0.45978(8) 0.83805(19) 0.18141(5)
C32 C 0.51579(8) 0.6879(2) 0.07271(6)
C33 C 0.67492(8) 0.85668(18) 0.09116(5)
C34 C 0.65528(7) 1.03810(17) 0.20620(5)
C35 C 0.41103(10) 0.9146(3) 0.44075(6)
C36 C 0.61833(8) 0.68034(18) 0.05069(5)
C37 C 0.48918(8) 1.2282(2) 0.38176(5)
C38 C 0.67194(10) 0.4746(2) 0.07073(6)
C39 C 0.33447(10) 1.2760(3) 0.43755(6)
C40 C 0.63021(8) 1.14733(18) 0.31874(5)
H29 H 0.78982(5) 1.0750(18) 0.2093(6)
H30 H 0.6581(7) 0.786(2) -0.02593(10)
H31 H 0.35075(8) 0.9232(2) 0.26742(5)
H32 H 0.44072(8) 0.8445(2) 0.31626(5)
H33 H 0.5840(5) 0.7250(5) 0.3219(3)
H34 H 0.6080(6) 0.6646(2) 0.25176(11)
H35 H 0.69032(16) 0.7557(4) 0.3046(4)
H36 H 0.36112(8) 1.2609(2) 0.31304(5)
H37 H 0.63347(8) 1.1878(2) 0.41916(5)
H38 H 0.58266(8) 0.9756(2) 0.39415(5)
H39 H 0.38550(12) 1.2212(6) 0.1881(4)
H40 H 0.4740(6) 1.3300(2) 0.23156(16)
H41 H 0.4882(5) 1.2299(7) 0.1636(3)
H42 H 0.49284(8) 0.5472(2) 0.08140(6)
H43 H 0.46875(8) 0.7550(2) 0.03960(6)
H44 H 0.64804(7) 1.18841(17) 0.19516(5)
H45 H 0.34759(17) 0.8498(8) 0.4372(5)
H46 H 0.4543(7) 0.8264(7) 0.4199(4)
H47 H 0.4366(8) 0.9322(3) 0.48639(14)
H48 H 0.49180(8) 1.3823(2) 0.38635(5)
H49 H 0.6371(4) 0.3584(3) 0.0484(4)
H50 H 0.7369(3) 0.4806(7) 0.0590(5)
H51 H 0.6756(7) 0.4555(8) 0.11745(9)
H52 H 0.3308(7) 1.4081(7) 0.4143(4)
H53 H 0.2704(3) 1.2144(9) 0.4343(6)
H54 H 0.3593(5) 1.2997(16) 0.48303(18)
H55 H 0.70094(8) 1.13759(18) 0.32817(5)
H56 H 0.61471(8) 1.28821(18) 0.30182(5)
loop_
_geom_bond_atom_site_label_1
_geom_bond_atom_site_label_2
_geom_bond_site_symmetry_1
_geom_bond_site_symmetry_2
O1 C1 1_555 1_555
O2 C6 1_555 1_555
O3 C15 1_555 1_555
O4 C12 1_555 1_555
C1 C3 1_555 1_555
C2 C3 1_555 1_555
C3 C5 1_555 1_555
C4 C5 1_555 1_555
C5 H4 1_555 1_555
C6 C2 1_555 1_555
C7 C1 1_555 1_555
C8 C4 1_555 1_555
C9 C6 1_555 1_555
C10 C3 1_555 1_555
C11 C7 1_555 1_555
C12 C9 1_555 1_555
C13 C4 1_555 1_555
C14 C2 1_555 1_555
C15 C11 1_555 1_555
C16 C8 1_555 1_555
C17 C8 1_555 1_555
C18 C15 1_555 1_555
C19 C13 1_555 1_555
C20 C2 1_555 1_555
H1 O2 1_555 1_555
H2 O3 1_555 1_555
H3 C4 1_555 1_555
H5 C5 1_555 1_555
H6 C6 1_555 1_555
H7 C10 1_555 1_555
H8 C10 1_555 1_555
H9 C10 1_555 1_555
H10 C11 1_555 1_555
H11 C11 1_555 1_555
H12 C13 1_555 1_555
H13 C14 1_555 1_555
H14 C14 1_555 1_555
H15 C16 1_555 1_555
H16 C16 1_555 1_555
H17 C16 1_555 1_555
H18 C17 1_555 1_555
H19 C17 1_555 1_555
H20 C17 1_555 1_555
H21 C18 1_555 1_555
H22 C18 1_555 1_555
H23 C18 1_555 1_555
H24 C19 1_555 1_555
H25 C19 1_555 1_555
H26 C20 1_555 1_555
H27 C20 1_555 1_555
H28 C20 1_555 1_555
O5 C31 1_555 1_555
O6 C34 1_555 1_555
O7 C33 1_555 1_555
O8 C36 1_555 1_555
C21 C22 1_555 1_555
C22 C25 1_555 1_555
C23 C25 1_555 1_555
C24 C21 1_555 1_555
C25 C34 1_555 1_555
C26 C24 1_555 1_555
C27 C37 1_555 1_555
C28 C30 1_555 1_555
C29 C22 1_555 1_555
C30 C33 1_555 1_555
C31 C22 1_555 1_555
C32 C28 1_555 1_555
C33 C36 1_555 1_555
C34 C30 1_555 1_555
C35 C26 1_555 1_555
C36 C32 1_555 1_555
C37 C24 1_555 1_555
C38 C36 1_555 1_555
C39 C26 1_555 1_555
C40 C25 1_555 1_555
H29 O6 1_555 1_555
H30 O8 1_555 1_555
H31 C21 1_555 1_555
H32 C21 1_555 1_555
H33 C23 1_555 1_555
H34 C23 1_555 1_555
H35 C23 1_555 1_555
H36 C24 1_555 1_555
H37 C27 1_555 1_555
H38 C27 1_555 1_555
H39 C29 1_555 1_555
H40 C29 1_555 1_555
H41 C29 1_555 1_555
H42 C32 1_555 1_555
H43 C32 1_555 1_555
H44 C34 1_555 1_555
H45 C35 1_555 1_555
H46 C35 1_555 1_555
H47 C35 1_555 1_555
H48 C37 1_555 1_555
H49 C38 1_555 1_555
H50 C38 1_555 1_555
H51 C38 1_555 1_555
H52 C39 1_555 1_555
H53 C39 1_555 1_555
H54 C39 1_555 1_555
H55 C40 1_555 1_555
H56 C40 1_555 1_555
C7 C9 1_555 1_555
C8 C13 1_555 1_555
C12 C15 1_555 1_555
C14 C19 1_555 1_555
C26 C37 1_555 1_555
C27 C40 1_555 1_555
C28 C31 1_555 1_555

#END
