
#######################################################################
#
#                 Cambridge Crystallographic Data Centre
#                                CCDC 
#
#######################################################################
#
# If this CIF has been generated from an entry in the Cambridge 
# Structural Database, then it will include bibliographic, chemical, 
# crystal, experimental, refinement or atomic coordinate data resulting 
# from the CCDC's data processing and validation procedures.
#
#######################################################################

data_HIJLIX
_chemical_formula_moiety         'C32 H36 Li1 N1 O2 P2 Se2'
_chemical_name_systematic        
(N-(diphenylphosphoroselenoyl)-P,P-diphenylphosphinimidoselenoato)-bis(tetrahydrofuran)-lithium
_symmetry_cell_setting           monoclinic
_symmetry_space_group_name_H-M   'C c'
_symmetry_Int_Tables_number      9
_space_group_name_Hall           'C -2yc'
loop_
_symmetry_equiv_pos_site_id
_symmetry_equiv_pos_as_xyz
1 x,y,z
2 x,-y,1/2+z
3 1/2+x,1/2+y,z
4 1/2+x,1/2-y,1/2+z
_cell_length_a                   22.0095(5)
_cell_length_b                   9.1496(2)
_cell_length_c                   17.3861(5)
_cell_angle_alpha                90
_cell_angle_beta                 113.821(3)
_cell_angle_gamma                90
_cell_volume                     3202.92
_exptl_crystal_colour            colorless
_exptl_crystal_description       block
_cell_formula_units_Z            4
loop_
_atom_site_label
_atom_site_type_symbol
_atom_site_fract_x
_atom_site_fract_y
_atom_site_fract_z
Li1 Li 0.9140(3) 0.7001(7) 0.6440(4)
Se1 Se 0.817917(16) 0.60610(4) 0.681521(19)
Se2 Se 0.994215(17) 0.87836(4) 0.75598(2)
P1 P 0.97346(4) 0.78567(9) 0.85619(5)
P2 P 0.82829(4) 0.75920(9) 0.77950(5)
O1 O 0.87093(14) 0.7977(3) 0.53567(17)
O2 O 0.95927(16) 0.5270(3) 0.6312(2)
N1 N 0.89986(15) 0.7894(3) 0.85229(19)
C1 C 1.00392(19) 0.5978(3) 0.8758(2)
C2 C 1.06254(19) 0.5560(4) 0.8695(2)
H1 H 1.0872 0.6247 0.8548
C3 C 1.0844(2) 0.4124(5) 0.8849(3)
H2 H 1.1240 0.3858 0.8814
C4 C 1.0479(2) 0.3088(4) 0.9055(3)
H3 H 1.0624 0.2124 0.9153
C5 C 0.9888(2) 0.3502(5) 0.9114(3)
H4 H 0.9640 0.2812 0.9255
C6 C 0.9671(2) 0.4927(4) 0.8966(3)
H5 H 0.9277 0.5192 0.9005
C7 C 1.02125(18) 0.8856(3) 0.9521(2)
C8 C 1.09077(19) 0.8765(4) 0.9903(2)
H6 H 1.1131 0.8173 0.9668
C9 C 1.12646(18) 0.9555(4) 1.0630(2)
H7 H 1.1725 0.9490 1.0879
C10 C 1.0934(2) 1.0443(4) 1.0985(2)
H8 H 1.1172 1.0971 1.1472
C11 C 1.0244(2) 1.0535(4) 1.0605(2)
H9 H 1.0020 1.1129 1.0839
C12 C 0.98905(18) 0.9752(4) 0.9885(2)
H10 H 0.9430 0.9825 0.9638
C13 C 0.77821(17) 0.6973(4) 0.8349(2)
C14 C 0.8025(2) 0.7141(5) 0.9220(3)
H11 H 0.8444 0.7540 0.9513
C15 C 0.7643(2) 0.6716(5) 0.9649(3)
H12 H 0.7806 0.6835 1.0229
C16 C 0.7016(2) 0.6108(4) 0.9213(3)
H13 H 0.6762 0.5817 0.9503
C17 C 0.6772(2) 0.5939(5) 0.8355(3)
H14 H 0.6353 0.5536 0.8064
C18 C 0.7155(2) 0.6376(5) 0.7920(3)
H15 H 0.6989 0.6264 0.7339
C19 C 0.79231(18) 0.9343(4) 0.7330(2)
C20 C 0.8299(2) 1.0615(4) 0.7596(3)
H16 H 0.8727 1.0566 0.8014
C21 C 0.8039(3) 1.1953(5) 0.7242(3)
H17 H 0.8292 1.2798 0.7422
C22 C 0.7403(3) 1.2030(5) 0.6619(4)
H18 H 0.7228 1.2930 0.6385
C23 C 0.7025(3) 1.0780(7) 0.6342(4)
H19 H 0.6599 1.0839 0.5921
C24 C 0.7285(2) 0.9421(5) 0.6695(3)
H20 H 0.7034 0.8576 0.6506
C25 C 0.8312(3) 0.7104(6) 0.4635(3)
H21 H 0.8326 0.6081 0.4789
H22 H 0.8473 0.7196 0.4193
C26 C 0.7620(3) 0.7688(8) 0.4347(5)
H23 H 0.7392 0.7634 0.3740
H24 H 0.7368 0.7141 0.4596
C27 C 0.7701(4) 0.9172(8) 0.4624(5)
H25 H 0.7338 0.9458 0.4773
H26 H 0.7701 0.9810 0.4179
C28 C 0.8346(2) 0.9295(5) 0.5372(3)
H27 H 0.8587 1.0159 0.5333
H28 H 0.8274 0.9347 0.5886
C29 C 0.9460(3) 0.3838(5) 0.6598(5)
H29 H 0.9548 0.3865 0.7191
H30 H 0.9002 0.3548 0.6283
C30 C 0.9909(4) 0.2845(7) 0.6443(7)
H31 H 0.9687 0.2381 0.5899
H32 H 1.0055 0.2090 0.6871
C31 C 1.0484(3) 0.3696(6) 0.6463(5)
H33 H 1.0606 0.3402 0.6008
H34 H 1.0863 0.3552 0.6993
C32 C 1.0264(3) 0.5270(5) 0.6363(3)
H35 H 1.0552 0.5843 0.6841
H36 H 1.0278 0.5682 0.5856
loop_
_geom_bond_atom_site_label_1
_geom_bond_atom_site_label_2
_geom_bond_site_symmetry_1
_geom_bond_site_symmetry_2
Li1 Se1 1_555 1_555
Se1 P2 1_555 1_555
Se2 Li1 1_555 1_555
P1 Se2 1_555 1_555
P2 N1 1_555 1_555
O1 Li1 1_555 1_555
O2 Li1 1_555 1_555
N1 P1 1_555 1_555
C1 P1 1_555 1_555
C2 C1 1_555 1_555
H1 C2 1_555 1_555
C3 C2 1_555 1_555
H2 C3 1_555 1_555
C4 C3 1_555 1_555
H3 C4 1_555 1_555
C5 C4 1_555 1_555
H4 C5 1_555 1_555
C6 C1 1_555 1_555
H5 C6 1_555 1_555
C7 P1 1_555 1_555
C8 C7 1_555 1_555
H6 C8 1_555 1_555
C9 C8 1_555 1_555
H7 C9 1_555 1_555
C10 C9 1_555 1_555
H8 C10 1_555 1_555
C11 C10 1_555 1_555
H9 C11 1_555 1_555
C12 C7 1_555 1_555
H10 C12 1_555 1_555
C13 P2 1_555 1_555
C14 C13 1_555 1_555
H11 C14 1_555 1_555
C15 C14 1_555 1_555
H12 C15 1_555 1_555
C16 C15 1_555 1_555
H13 C16 1_555 1_555
C17 C16 1_555 1_555
H14 C17 1_555 1_555
C18 C13 1_555 1_555
H15 C18 1_555 1_555
C19 P2 1_555 1_555
C20 C19 1_555 1_555
H16 C20 1_555 1_555
C21 C20 1_555 1_555
H17 C21 1_555 1_555
C22 C21 1_555 1_555
H18 C22 1_555 1_555
C23 C22 1_555 1_555
H19 C23 1_555 1_555
C24 C19 1_555 1_555
H20 C24 1_555 1_555
C25 O1 1_555 1_555
H21 C25 1_555 1_555
H22 C25 1_555 1_555
C26 C25 1_555 1_555
H23 C26 1_555 1_555
H24 C26 1_555 1_555
C27 C26 1_555 1_555
H25 C27 1_555 1_555
H26 C27 1_555 1_555
C28 O1 1_555 1_555
H27 C28 1_555 1_555
H28 C28 1_555 1_555
C29 O2 1_555 1_555
H29 C29 1_555 1_555
H30 C29 1_555 1_555
C30 C29 1_555 1_555
H31 C30 1_555 1_555
H32 C30 1_555 1_555
C31 C30 1_555 1_555
H33 C31 1_555 1_555
H34 C31 1_555 1_555
C32 O2 1_555 1_555
H35 C32 1_555 1_555
H36 C32 1_555 1_555
C5 C6 1_555 1_555
C11 C12 1_555 1_555
C17 C18 1_555 1_555
C23 C24 1_555 1_555
C27 C28 1_555 1_555
C31 C32 1_555 1_555

#END
