
#######################################################################
#
#                 Cambridge Crystallographic Data Centre
#                                CCDC 
#
#######################################################################
#
# If this CIF has been generated from an entry in the Cambridge 
# Structural Database, then it will include bibliographic, chemical, 
# crystal, experimental, refinement or atomic coordinate data resulting 
# from the CCDC's data processing and validation procedures.
#
#######################################################################

data_HIJLET
_chemical_formula_moiety         'C56 H56 N2 O2 P4 Se4 Sr1'
_chemical_name_systematic        
bis(N-(diphenylphosphoroselenoyl)-P,P-diphenylphosphinimidoselenoato)-bis(tetrahydrofuran)-strontium
_symmetry_cell_setting           orthorhombic
_symmetry_space_group_name_H-M   'P b c a'
_symmetry_Int_Tables_number      61
_space_group_name_Hall           '-P 2ac 2ab'
loop_
_symmetry_equiv_pos_site_id
_symmetry_equiv_pos_as_xyz
1 x,y,z
2 1/2-x,-y,1/2+z
3 1/2+x,1/2-y,-z
4 -x,1/2+y,1/2-z
5 -x,-y,-z
6 1/2+x,y,1/2-z
7 1/2-x,1/2+y,z
8 x,1/2-y,1/2+z
_cell_length_a                   10.9194(6)
_cell_length_b                   17.2140(6)
_cell_length_c                   29.4632(9)
_cell_angle_alpha                90
_cell_angle_beta                 90
_cell_angle_gamma                90
_cell_volume                     5538.1
_exptl_crystal_colour            colorless
_exptl_crystal_description       block
_cell_formula_units_Z            4
loop_
_atom_site_label
_atom_site_type_symbol
_atom_site_fract_x
_atom_site_fract_y
_atom_site_fract_z
Sr1 Sr 0.0000 0.5000 0.0000
Se1 Se -0.17927(3) 0.38891(2) 0.049527(12)
Se2 Se 0.08548(3) 0.583545(19) 0.088724(11)
P1 P -0.22456(7) 0.44739(4) 0.11184(2)
P2 P 0.01908(7) 0.50810(4) 0.14181(3)
O1 O -0.1627(2) 0.60350(14) -0.00618(9)
N1 N -0.1204(2) 0.48356(16) 0.14298(9)
C1 C -0.3348(3) 0.52455(18) 0.10064(10)
C2 C -0.4544(3) 0.5070(2) 0.08833(14)
H1 H -0.4786 0.4554 0.0856
C3 C -0.5380(3) 0.5663(2) 0.08015(15)
H2 H -0.6185 0.5545 0.0724
C4 C -0.5011(3) 0.6428(2) 0.08352(12)
H3 H -0.5569 0.6826 0.0781
C5 C -0.3821(3) 0.6606(2) 0.09481(11)
H4 H -0.3575 0.7122 0.0968
C6 C -0.2986(3) 0.60135(19) 0.10332(11)
H5 H -0.2181 0.6135 0.1108
C7 C -0.3064(3) 0.37936(18) 0.14806(11)
C8 C -0.3482(3) 0.30734(19) 0.13317(12)
H6 H -0.3376 0.2929 0.1030
C9 C -0.4056(3) 0.25701(19) 0.16332(14)
H7 H -0.4345 0.2093 0.1530
C10 C -0.4203(3) 0.2770(2) 0.20819(14)
H8 H -0.4570 0.2425 0.2283
C11 C -0.3801(4) 0.3490(3) 0.22346(13)
H9 H -0.3909 0.3631 0.2537
C12 C -0.3239(3) 0.3996(2) 0.19351(12)
H10 H -0.2973 0.4478 0.2038
C13 C 0.0478(3) 0.55554(17) 0.19601(10)
C14 C -0.0303(3) 0.5420(2) 0.23250(11)
H11 H -0.0998 0.5115 0.2286
C15 C -0.0044(4) 0.5743(3) 0.27489(13)
H12 H -0.0561 0.5644 0.2993
C16 C 0.0971(4) 0.6208(2) 0.28089(12)
H13 H 0.1138 0.6425 0.3091
C17 C 0.1737(4) 0.6348(2) 0.24460(13)
H14 H 0.2423 0.6661 0.2485
C18 C 0.1498(3) 0.6029(2) 0.20247(12)
H15 H 0.2021 0.6131 0.1783
C19 C 0.1168(3) 0.42252(17) 0.14622(10)
C20 C 0.0661(3) 0.34895(19) 0.15229(11)
H16 H -0.0184 0.3423 0.1516
C21 C 0.1431(4) 0.28535(19) 0.15946(11)
H17 H 0.1097 0.2361 0.1634
C22 C 0.2684(4) 0.2951(2) 0.16078(12)
H18 H 0.3190 0.2525 0.1656
C23 C 0.3193(3) 0.3682(2) 0.15496(13)
H19 H 0.4037 0.3748 0.1561
C24 C 0.2434(3) 0.4315(2) 0.14743(12)
H20 H 0.2774 0.4804 0.1431
C25 C -0.2870(3) 0.5899(2) -0.02224(13)
H21 H -0.3330 0.5601 -0.0001
H22 H -0.2858 0.5614 -0.0506
C26 C -0.3444(4) 0.6695(2) -0.02892(13)
H23 H -0.3964 0.6703 -0.0556
H24 H -0.3925 0.6845 -0.0027
C27 C -0.2349(4) 0.7221(2) -0.03485(14)
H25 H -0.2056 0.7214 -0.0659
H26 H -0.2540 0.7751 -0.0262
C28 C -0.1428(4) 0.6864(2) -0.00298(14)
H27 H -0.0601 0.6997 -0.0121
H28 H -0.1561 0.7044 0.0278
Se1D Se 0.17927(3) 0.61109(2) -0.049527(12)
Se2D Se -0.08548(3) 0.416455(19) -0.088724(11)
P1D P 0.22456(7) 0.55261(4) -0.11184(2)
P2D P -0.01908(7) 0.49190(4) -0.14181(3)
O1D O 0.1627(2) 0.39650(14) 0.00618(9)
N1D N 0.1204(2) 0.51644(16) -0.14298(9)
C1D C 0.3348(3) 0.47545(18) -0.10064(10)
C2D C 0.4544(3) 0.4930(2) -0.08833(14)
H1D H 0.4786 0.5446 -0.0856
C3D C 0.5380(3) 0.4337(2) -0.08015(15)
H2D H 0.6185 0.4455 -0.0724
C4D C 0.5011(3) 0.3572(2) -0.08352(12)
H3D H 0.5569 0.3174 -0.0781
C5D C 0.3821(3) 0.3394(2) -0.09481(11)
H4D H 0.3575 0.2878 -0.0968
C6D C 0.2986(3) 0.39865(19) -0.10332(11)
H5D H 0.2181 0.3865 -0.1108
C7D C 0.3064(3) 0.62064(18) -0.14806(11)
C8D C 0.3482(3) 0.69266(19) -0.13317(12)
H6D H 0.3376 0.7071 -0.1030
C9D C 0.4056(3) 0.74299(19) -0.16332(14)
H7D H 0.4345 0.7907 -0.1530
C10D C 0.4203(3) 0.7230(2) -0.20819(14)
H8D H 0.4570 0.7575 -0.2283
C11D C 0.3801(4) 0.6510(3) -0.22346(13)
H9D H 0.3909 0.6369 -0.2537
C12D C 0.3239(3) 0.6004(2) -0.19351(12)
H10D H 0.2973 0.5522 -0.2038
C13D C -0.0478(3) 0.44446(17) -0.19601(10)
C14D C 0.0303(3) 0.4580(2) -0.23250(11)
H11D H 0.0998 0.4885 -0.2286
C15D C 0.0044(4) 0.4257(3) -0.27489(13)
H12D H 0.0561 0.4356 -0.2993
C16D C -0.0971(4) 0.3792(2) -0.28089(12)
H13D H -0.1138 0.3575 -0.3091
C17D C -0.1737(4) 0.3652(2) -0.24460(13)
H14D H -0.2423 0.3339 -0.2485
C18D C -0.1498(3) 0.3971(2) -0.20247(12)
H15D H -0.2021 0.3869 -0.1783
C19D C -0.1168(3) 0.57748(17) -0.14622(10)
C20D C -0.0661(3) 0.65105(19) -0.15229(11)
H16D H 0.0184 0.6577 -0.1516
C21D C -0.1431(4) 0.71465(19) -0.15946(11)
H17D H -0.1097 0.7639 -0.1634
C22D C -0.2684(4) 0.7049(2) -0.16078(12)
H18D H -0.3190 0.7475 -0.1656
C23D C -0.3193(3) 0.6318(2) -0.15496(13)
H19D H -0.4037 0.6252 -0.1561
C24D C -0.2434(3) 0.5685(2) -0.14743(12)
H20D H -0.2774 0.5196 -0.1431
C25D C 0.2870(3) 0.4101(2) 0.02224(13)
H21D H 0.3330 0.4399 0.0001
H22D H 0.2858 0.4386 0.0506
C26D C 0.3444(4) 0.3305(2) 0.02892(13)
H23D H 0.3964 0.3297 0.0556
H24D H 0.3925 0.3155 0.0027
C27D C 0.2349(4) 0.2779(2) 0.03485(14)
H25D H 0.2056 0.2786 0.0659
H26D H 0.2540 0.2249 0.0262
C28D C 0.1428(4) 0.3136(2) 0.00298(14)
H27D H 0.0601 0.3003 0.0121
H28D H 0.1561 0.2956 -0.0278
loop_
_geom_bond_atom_site_label_1
_geom_bond_atom_site_label_2
_geom_bond_site_symmetry_1
_geom_bond_site_symmetry_2
Sr1 Se1 1_555 1_555
Se1 P1 1_555 1_555
Se2 Sr1 1_555 1_555
P1 N1 1_555 1_555
P2 Se2 1_555 1_555
O1 Sr1 1_555 1_555
N1 P2 1_555 1_555
C1 P1 1_555 1_555
C2 C1 1_555 1_555
H1 C2 1_555 1_555
C3 C2 1_555 1_555
H2 C3 1_555 1_555
C4 C3 1_555 1_555
H3 C4 1_555 1_555
C5 C4 1_555 1_555
H4 C5 1_555 1_555
C6 C1 1_555 1_555
H5 C6 1_555 1_555
C7 P1 1_555 1_555
C8 C7 1_555 1_555
H6 C8 1_555 1_555
C9 C8 1_555 1_555
H7 C9 1_555 1_555
C10 C9 1_555 1_555
H8 C10 1_555 1_555
C11 C10 1_555 1_555
H9 C11 1_555 1_555
C12 C7 1_555 1_555
H10 C12 1_555 1_555
C13 P2 1_555 1_555
C14 C13 1_555 1_555
H11 C14 1_555 1_555
C15 C14 1_555 1_555
H12 C15 1_555 1_555
C16 C15 1_555 1_555
H13 C16 1_555 1_555
C17 C16 1_555 1_555
H14 C17 1_555 1_555
C18 C13 1_555 1_555
H15 C18 1_555 1_555
C19 P2 1_555 1_555
C20 C19 1_555 1_555
H16 C20 1_555 1_555
C21 C20 1_555 1_555
H17 C21 1_555 1_555
C22 C21 1_555 1_555
H18 C22 1_555 1_555
C23 C22 1_555 1_555
H19 C23 1_555 1_555
C24 C19 1_555 1_555
H20 C24 1_555 1_555
C25 O1 1_555 1_555
H21 C25 1_555 1_555
H22 C25 1_555 1_555
C26 C25 1_555 1_555
H23 C26 1_555 1_555
H24 C26 1_555 1_555
C27 C26 1_555 1_555
H25 C27 1_555 1_555
H26 C27 1_555 1_555
C28 O1 1_555 1_555
H27 C28 1_555 1_555
H28 C28 1_555 1_555
Se1D Sr1 1_555 1_555
Se2D Sr1 1_555 1_555
P1D Se1D 1_555 1_555
P2D Se2D 1_555 1_555
O1D Sr1 1_555 1_555
N1D P1D 1_555 1_555
C1D P1D 1_555 1_555
C2D C1D 1_555 1_555
H1D C2D 1_555 1_555
C3D C2D 1_555 1_555
H2D C3D 1_555 1_555
C4D C3D 1_555 1_555
H3D C4D 1_555 1_555
C5D C4D 1_555 1_555
H4D C5D 1_555 1_555
C6D C1D 1_555 1_555
H5D C6D 1_555 1_555
C7D P1D 1_555 1_555
C8D C7D 1_555 1_555
H6D C8D 1_555 1_555
C9D C8D 1_555 1_555
H7D C9D 1_555 1_555
C10D C9D 1_555 1_555
H8D C10D 1_555 1_555
C11D C10D 1_555 1_555
H9D C11D 1_555 1_555
C12D C7D 1_555 1_555
H10D C12D 1_555 1_555
C13D P2D 1_555 1_555
C14D C13D 1_555 1_555
H11D C14D 1_555 1_555
C15D C14D 1_555 1_555
H12D C15D 1_555 1_555
C16D C15D 1_555 1_555
H13D C16D 1_555 1_555
C17D C16D 1_555 1_555
H14D C17D 1_555 1_555
C18D C13D 1_555 1_555
H15D C18D 1_555 1_555
C19D P2D 1_555 1_555
C20D C19D 1_555 1_555
H16D C20D 1_555 1_555
C21D C20D 1_555 1_555
H17D C21D 1_555 1_555
C22D C21D 1_555 1_555
H18D C22D 1_555 1_555
C23D C22D 1_555 1_555
H19D C23D 1_555 1_555
C24D C19D 1_555 1_555
H20D C24D 1_555 1_555
C25D O1D 1_555 1_555
H21D C25D 1_555 1_555
H22D C25D 1_555 1_555
C26D C25D 1_555 1_555
H23D C26D 1_555 1_555
H24D C26D 1_555 1_555
C27D C26D 1_555 1_555
H25D C27D 1_555 1_555
H26D C27D 1_555 1_555
C28D O1D 1_555 1_555
H27D C28D 1_555 1_555
H28D C28D 1_555 1_555
C5 C6 1_555 1_555
C11 C12 1_555 1_555
C17 C18 1_555 1_555
C23 C24 1_555 1_555
C27 C28 1_555 1_555
P2D N1D 1_555 1_555
C5D C6D 1_555 1_555
C11D C12D 1_555 1_555
C17D C18D 1_555 1_555
C23D C24D 1_555 1_555
C27D C28D 1_555 1_555

#END
