
#######################################################################
#
#                 Cambridge Crystallographic Data Centre
#                                CCDC 
#
#######################################################################
#
# If this CIF has been generated from an entry in the Cambridge 
# Structural Database, then it will include bibliographic, chemical, 
# crystal, experimental, refinement or atomic coordinate data resulting 
# from the CCDC's data processing and validation procedures.
#
#######################################################################

data_HIJLOD
_chemical_formula_moiety         'C60 H64 Ba1 N2 O3 P4 Se4'
_chemical_name_systematic        
bis(N-(diphenylphosphoroselenoyl)-P,P-diphenylphosphinimidoselenoato)-tris(tetrahydrofuran)-barium
_symmetry_cell_setting           monoclinic
_symmetry_space_group_name_H-M   'C 2/c'
_symmetry_Int_Tables_number      15
_space_group_name_Hall           '-C 2yn'
loop_
_symmetry_equiv_pos_site_id
_symmetry_equiv_pos_as_xyz
1 x,y,z
2 -x,y,1/2-z
3 1/2+x,1/2+y,z
4 1/2-x,1/2+y,1/2-z
5 -x,-y,-z
6 x,-y,1/2+z
7 1/2-x,1/2-y,-z
8 1/2+x,1/2-y,1/2+z
_cell_length_a                   33.7336(18)
_cell_length_b                   11.8971(10)
_cell_length_c                   18.1604(10)
_cell_angle_alpha                90
_cell_angle_beta                 104.155(6)
_cell_angle_gamma                90
_cell_volume                     7067.06
_exptl_crystal_colour            colorless
_exptl_crystal_description       block
_cell_formula_units_Z            4
loop_
_atom_site_label
_atom_site_type_symbol
_atom_site_fract_x
_atom_site_fract_y
_atom_site_fract_z
Ba1 Ba 0.0000 0.73000(4) 0.2500
Se1 Se 0.044108(19) 0.94431(7) 0.36333(4)
Se2 Se 0.09429(2) 0.62103(7) 0.30458(5)
P1 P 0.10432(4) 0.94562(11) 0.34467(8)
P2 P 0.13583(5) 0.71905(12) 0.38840(10)
N1 N 0.13622(15) 0.8520(4) 0.3832(3)
C1 C 0.18755(18) 0.6764(6) 0.3899(3)
C2 C 0.1284(3) 0.7633(7) 0.5345(5)
H1 H 0.1286 0.8384 0.5205
C3 C 0.1629(2) 1.0773(6) 0.4438(4)
H2 H 0.1744 1.0097 0.4641
C4 C 0.12864(18) 1.0766(5) 0.3831(3)
C5 C 0.10121(19) 0.9526(5) 0.2434(3)
C6 C 0.1120(3) 1.1793(6) 0.3532(5)
H3 H 0.0892 1.1812 0.3124
C7 C 0.13008(17) 0.6811(6) 0.4824(4)
C8 C 0.1338(2) 0.9137(7) 0.2165(4)
H4 H 0.1565 0.8819 0.2497
C9 C 0.2182(2) 0.7565(7) 0.4007(5)
H5 H 0.2122 0.8321 0.4051
C10 C 0.1979(3) 0.5649(7) 0.3835(6)
H6 H 0.1779 0.5096 0.3773
C11 C 0.2676(3) 0.6143(10) 0.3998(5)
H7 H 0.2947 0.5926 0.4057
C12 C 0.1281(3) 0.5693(8) 0.5029(6)
H8 H 0.1279 0.5130 0.4672
C13 C 0.2589(3) 0.7219(10) 0.4049(6)
H9 H 0.2796 0.7752 0.4113
C14 C 0.0677(2) 0.9956(7) 0.1918(4)
H10 H 0.0453 1.0209 0.2085
C15 C 0.1263(3) 0.7359(10) 0.6088(6)
H11 H 0.1264 0.7928 0.6440
C16 C 0.1796(2) 1.1765(7) 0.4739(4)
H12 H 0.2024 1.1753 0.5150
C17 C 0.0992(3) 0.9606(9) 0.0895(5)
H13 H 0.0978 0.9591 0.0377
C18 C 0.1301(3) 1.2790(6) 0.3852(7)
H14 H 0.1191 1.3473 0.3653
C19 C 0.0672(3) 1.0015(9) 0.1157(4)
H15 H 0.0449 1.0336 0.0818
C20 C 0.1326(3) 0.9225(8) 0.1401(5)
H16 H 0.1554 0.9017 0.1232
C21 C 0.1240(3) 0.6272(13) 0.6292(7)
H17 H 0.1209 0.6090 0.6773
C22 C 0.2379(3) 0.5351(9) 0.3862(7)
H18 H 0.2443 0.4606 0.3787
C23 C 0.1264(4) 0.5407(12) 0.5758(9)
H19 H 0.1268 0.4656 0.5901
O1 O 0.0000 0.4950(6) 0.2500
O2 O 0.01514(16) 0.6775(5) 0.1143(3)
C24 C 0.1638(3) 1.2783(6) 0.4450(6)
H20 H 0.1757 1.3453 0.4657
C25 C -0.0030(6) 0.3058(10) 0.2868(7)
H21 H 0.0181 0.2617 0.3204
H22 H -0.0294 0.2740 0.2869
C26 C -0.0180(3) 0.6728(13) 0.0469(5)
H23 H -0.0424 0.7083 0.0554
H24 H -0.0244 0.5958 0.0308
C27 C -0.0008(6) 0.4252(9) 0.3120(7)
H25 H -0.0243 0.4432 0.3315
H26 H 0.0237 0.4370 0.3523
C28 C 0.0510(3) 0.6794(14) 0.0926(6)
H27 H 0.0642 0.6065 0.1013
H28 H 0.0693 0.7350 0.1218
C29 C 0.0417(5) 0.7082(15) 0.0099(7)
H29 H 0.0576 0.7724 0.0009
H30 H 0.0473 0.6451 -0.0198
C30 C -0.0022(8) 0.7347(16) -0.0087(7)
H31 H -0.0066 0.8148 -0.0046
H32 H -0.0154 0.7105 -0.0599
C25A C 0.0030(6) 0.3058(10) 0.2132(7)
H21A H -0.0181 0.2617 0.1796
H22A H 0.0294 0.2740 0.2131
C27A C 0.0008(6) 0.4252(9) 0.1880(7)
H25A H 0.0243 0.4432 0.1685
H26A H -0.0237 0.4370 0.1477
Se1A Se -0.044108(19) 0.94431(7) 0.13667(4)
Se2A Se -0.09429(2) 0.62103(7) 0.19542(5)
P1A P -0.10432(4) 0.94562(11) 0.15533(8)
P2A P -0.13583(5) 0.71905(12) 0.11160(10)
N1A N -0.13622(15) 0.8520(4) 0.1168(3)
C1A C -0.18755(18) 0.6764(6) 0.1101(3)
C2A C -0.1284(3) 0.7633(7) -0.0345(5)
H1A H -0.1286 0.8384 -0.0205
C3A C -0.1629(2) 1.0773(6) 0.0562(4)
H2A H -0.1744 1.0097 0.0359
C4A C -0.12864(18) 1.0766(5) 0.1169(3)
C5A C -0.10121(19) 0.9526(5) 0.2566(3)
C6A C -0.1120(3) 1.1793(6) 0.1468(5)
H3A H -0.0892 1.1812 0.1876
C7A C -0.13008(17) 0.6811(6) 0.0176(4)
C8A C -0.1338(2) 0.9137(7) 0.2835(4)
H4A H -0.1565 0.8819 0.2503
C9A C -0.2182(2) 0.7565(7) 0.0993(5)
H5A H -0.2122 0.8321 0.0949
C10A C -0.1979(3) 0.5649(7) 0.1165(6)
H6A H -0.1779 0.5096 0.1227
C11A C -0.2676(3) 0.6143(10) 0.1002(5)
H7A H -0.2947 0.5926 0.0943
C12A C -0.1281(3) 0.5693(8) -0.0029(6)
H8A H -0.1279 0.5130 0.0328
C13A C -0.2589(3) 0.7219(10) 0.0951(6)
H9A H -0.2796 0.7752 0.0887
C14A C -0.0677(2) 0.9956(7) 0.3082(4)
H10A H -0.0453 1.0209 0.2915
C15A C -0.1263(3) 0.7359(10) -0.1088(6)
H11A H -0.1264 0.7928 -0.1440
C16A C -0.1796(2) 1.1765(7) 0.0261(4)
H12A H -0.2024 1.1753 -0.0150
C17A C -0.0992(3) 0.9606(9) 0.4105(5)
H13A H -0.0978 0.9591 0.4623
C18A C -0.1301(3) 1.2790(6) 0.1148(7)
H14A H -0.1191 1.3473 0.1347
C19A C -0.0672(3) 1.0015(9) 0.3843(4)
H15A H -0.0449 1.0336 0.4182
C20A C -0.1326(3) 0.9225(8) 0.3599(5)
H16A H -0.1554 0.9017 0.3768
C21A C -0.1240(3) 0.6272(13) -0.1292(7)
H17A H -0.1209 0.6090 -0.1773
C22A C -0.2379(3) 0.5351(9) 0.1138(7)
H18A H -0.2443 0.4606 0.1213
C23A C -0.1264(4) 0.5407(12) -0.0758(9)
H19A H -0.1268 0.4656 -0.0901
O2A O -0.01514(16) 0.6775(5) 0.3857(3)
C24A C -0.1638(3) 1.2783(6) 0.0550(6)
H20A H -0.1757 1.3453 0.0343
C26A C 0.0180(3) 0.6728(13) 0.4531(5)
H23A H 0.0424 0.7083 0.4446
H24A H 0.0244 0.5958 0.4692
C28A C -0.0510(3) 0.6794(14) 0.4074(6)
H27A H -0.0642 0.6065 0.3987
H28A H -0.0693 0.7350 0.3782
C29A C -0.0417(5) 0.7082(15) 0.4901(7)
H29A H -0.0576 0.7724 0.4991
H30A H -0.0473 0.6451 0.5198
C30A C 0.0022(8) 0.7347(16) 0.5087(7)
H31A H 0.0066 0.8148 0.5046
H32A H 0.0154 0.7105 0.5599
loop_
_geom_bond_atom_site_label_1
_geom_bond_atom_site_label_2
_geom_bond_site_symmetry_1
_geom_bond_site_symmetry_2
Ba1 Se1 1_555 1_555
Se1 P1 1_555 1_555
Se2 Ba1 1_555 1_555
P1 N1 1_555 1_555
P2 Se2 1_555 1_555
N1 P2 1_555 1_555
C1 P2 1_555 1_555
C2 H1 1_555 1_555
C3 H2 1_555 1_555
C4 P1 1_555 1_555
C5 P1 1_555 1_555
C6 C4 1_555 1_555
H3 C6 1_555 1_555
C7 P2 1_555 1_555
C8 C5 1_555 1_555
H4 C8 1_555 1_555
C9 C1 1_555 1_555
H5 C9 1_555 1_555
C10 C1 1_555 1_555
H6 C10 1_555 1_555
C11 H7 1_555 1_555
C12 C7 1_555 1_555
H8 C12 1_555 1_555
C13 C9 1_555 1_555
H9 C13 1_555 1_555
C14 C5 1_555 1_555
H10 C14 1_555 1_555
C15 C2 1_555 1_555
H11 C15 1_555 1_555
C16 C3 1_555 1_555
H12 C16 1_555 1_555
C17 H13 1_555 1_555
C18 C6 1_555 1_555
H14 C18 1_555 1_555
C19 C14 1_555 1_555
H15 C19 1_555 1_555
C20 C8 1_555 1_555
H16 C20 1_555 1_555
C21 C15 1_555 1_555
H17 C21 1_555 1_555
C22 C10 1_555 1_555
H18 C22 1_555 1_555
C23 C12 1_555 1_555
H19 C23 1_555 1_555
O1 Ba1 1_555 1_555
O2 Ba1 1_555 1_555
C24 C16 1_555 1_555
H20 C24 1_555 1_555
C25 H21 1_555 1_555
H22 C25 1_555 1_555
C26 O2 1_555 1_555
H23 C26 1_555 1_555
H24 C26 1_555 1_555
C27 O1 1_555 1_555
H25 C27 1_555 1_555
H26 C27 1_555 1_555
C28 O2 1_555 1_555
H27 C28 1_555 1_555
H28 C28 1_555 1_555
C29 C28 1_555 1_555
H29 C29 1_555 1_555
H30 C29 1_555 1_555
C30 C26 1_555 1_555
H31 C30 1_555 1_555
H32 C30 1_555 1_555
C25A C25 1_555 1_555
H21A C25A 1_555 1_555
H22A C25A 1_555 1_555
C27A O1 1_555 1_555
H25A C27A 1_555 1_555
H26A C27A 1_555 1_555
Se1A Ba1 1_555 1_555
Se2A Ba1 1_555 1_555
P1A Se1A 1_555 1_555
P2A Se2A 1_555 1_555
N1A P1A 1_555 1_555
C1A P2A 1_555 1_555
C2A H1A 1_555 1_555
C3A H2A 1_555 1_555
C4A P1A 1_555 1_555
C5A P1A 1_555 1_555
C6A C4A 1_555 1_555
H3A C6A 1_555 1_555
C7A P2A 1_555 1_555
C8A C5A 1_555 1_555
H4A C8A 1_555 1_555
C9A C1A 1_555 1_555
H5A C9A 1_555 1_555
C10A C1A 1_555 1_555
H6A C10A 1_555 1_555
C11A H7A 1_555 1_555
C12A C7A 1_555 1_555
H8A C12A 1_555 1_555
C13A C9A 1_555 1_555
H9A C13A 1_555 1_555
C14A C5A 1_555 1_555
H10A C14A 1_555 1_555
C15A C2A 1_555 1_555
H11A C15A 1_555 1_555
C16A C3A 1_555 1_555
H12A C16A 1_555 1_555
C17A H13A 1_555 1_555
C18A C6A 1_555 1_555
H14A C18A 1_555 1_555
C19A C14A 1_555 1_555
H15A C19A 1_555 1_555
C20A C8A 1_555 1_555
H16A C20A 1_555 1_555
C21A C15A 1_555 1_555
H17A C21A 1_555 1_555
C22A C10A 1_555 1_555
H18A C22A 1_555 1_555
C23A C12A 1_555 1_555
H19A C23A 1_555 1_555
O2A Ba1 1_555 1_555
C24A C16A 1_555 1_555
H20A C24A 1_555 1_555
C26A O2A 1_555 1_555
H23A C26A 1_555 1_555
H24A C26A 1_555 1_555
C28A O2A 1_555 1_555
H27A C28A 1_555 1_555
H28A C28A 1_555 1_555
C29A C28A 1_555 1_555
H29A C29A 1_555 1_555
H30A C29A 1_555 1_555
C30A C26A 1_555 1_555
H31A C30A 1_555 1_555
H32A C30A 1_555 1_555
C2 C7 1_555 1_555
C3 C4 1_555 1_555
C11 C13 1_555 1_555
C11 C22 1_555 1_555
C17 C19 1_555 1_555
C17 C20 1_555 1_555
C18 C24 1_555 1_555
C21 C23 1_555 1_555
C25 C27 1_555 1_555
C29 C30 1_555 1_555
C25A C27A 1_555 1_555
P2A N1A 1_555 1_555
C2A C7A 1_555 1_555
C3A C4A 1_555 1_555
C11A C13A 1_555 1_555
C11A C22A 1_555 1_555
C17A C19A 1_555 1_555
C17A C20A 1_555 1_555
C18A C24A 1_555 1_555
C21A C23A 1_555 1_555
C29A C30A 1_555 1_555

#END
