
#######################################################################
#
#                 Cambridge Crystallographic Data Centre
#                                CCDC 
#
#######################################################################
#
# If this CIF has been generated from an entry in the Cambridge 
# Structural Database, then it will include bibliographic, chemical, 
# crystal, experimental, refinement or atomic coordinate data resulting 
# from the CCDC's data processing and validation procedures.
#
#######################################################################

data_HIJNUM
_chemical_formula_moiety         'C54 H34 N4,C1 H2 Cl2'
_chemical_name_systematic        
"1-phenyl-2-(2'-(1-phenyl-1H-phenanthro[9,10-d]imidazol-2-yl)biphenyl-2-yl)-1H-phenanthro[9,10-d]imidazole dichloromethane solvate"
_symmetry_cell_setting           monoclinic
_symmetry_space_group_name_H-M   'P 21/c'
_symmetry_Int_Tables_number      14
_space_group_name_Hall           '-P 2ybc'
loop_
_symmetry_equiv_pos_site_id
_symmetry_equiv_pos_as_xyz
1 x,y,z
2 -x,1/2+y,1/2-z
3 -x,-y,-z
4 x,1/2-y,1/2+z
_cell_length_a                   16.3865(13)
_cell_length_b                   20.1765(16)
_cell_length_c                   12.7148(11)
_cell_angle_alpha                90
_cell_angle_beta                 98.129(2)
_cell_angle_gamma                90
_cell_volume                     4161.56
_exptl_crystal_colour            colorless
_exptl_crystal_description       block
_cell_formula_units_Z            4
loop_
_atom_site_label
_atom_site_type_symbol
_atom_site_fract_x
_atom_site_fract_y
_atom_site_fract_z
C1 C 0.3285(9) 0.8202(13) 0.6375(9)
H1 H 0.3441 0.7773 0.6122
H2 H 0.3810 0.8424 0.6569
Cl1 Cl 0.3207(4) 0.8002(3) 0.7344(5)
Cl2 Cl 0.30832(17) 0.85328(17) 0.5232(3)
C2 C 0.2239(2) 0.37205(18) 0.4610(3)
C3 C 0.1897(2) 0.55421(19) 0.2999(3)
C4 C 0.2537(2) 0.51050(19) 0.2948(3)
C5 C 0.3564(2) 0.31544(18) 0.5159(3)
C6 C 0.2563(2) 0.46935(19) 0.2031(3)
C7 C 0.2200(2) 0.44774(18) 0.5779(3)
C8 C 0.2974(2) 0.36700(18) 0.5272(3)
C9 C 0.2607(3) 0.28035(19) 0.3531(3)
C10 C 0.3381(2) 0.27398(18) 0.4259(3)
C11 C 0.2814(2) 0.55823(18) 0.4454(3)
C12 C 0.3052(2) 0.58334(18) 0.6449(3)
C13 C 0.1279(2) 0.56838(19) 0.2112(3)
C14 C 0.2025(2) 0.32929(19) 0.3714(3)
C15 C 0.2233(2) 0.56098(19) 0.6700(3)
C16 C 0.1967(2) 0.4805(2) 0.1145(3)
C17 C 0.3604(2) 0.43551(18) 0.6848(3)
C18 C 0.1109(2) 0.4846(2) 0.6750(3)
H3 H 0.0869 0.4435 0.6577
C19 C 0.4279(3) 0.3025(2) 0.5875(4)
H4 H 0.4386 0.3278 0.6490
C20 C 0.1531(2) 0.62738(19) 0.4456(3)
C21 C 0.3150(3) 0.4183(2) 0.2027(4)
H5 H 0.3552 0.4122 0.2613
C22 C 0.1344(2) 0.5323(2) 0.1164(3)
C23 C 0.1868(2) 0.49951(19) 0.6428(3)
C24 C 0.4358(2) 0.45376(19) 0.6560(4)
H6 H 0.4432 0.4553 0.5848
C25 C 0.3614(3) 0.6067(2) 0.7300(3)
H7 H 0.3458 0.6076 0.7976
C26 C 0.4388(3) 0.6283(2) 0.7167(4)
H8 H 0.4751 0.6430 0.7750
C27 C 0.4624(3) 0.6283(2) 0.6174(4)
H9 H 0.5145 0.6433 0.6076
C28 C 0.0796(3) 0.5490(2) 0.0255(4)
H10 H 0.0845 0.5275 -0.0380
C29 C 0.3299(2) 0.58245(18) 0.5442(3)
C30 C 0.0796(2) 0.6013(2) 0.4679(3)
H11 H 0.0682 0.5565 0.4576
C31 C 0.1811(3) 0.6051(2) 0.7282(3)
H12 H 0.2044 0.6462 0.7472
C32 C 0.0648(3) 0.6162(2) 0.2103(4)
H13 H 0.0599 0.6396 0.2721
C33 C 0.2398(3) 0.2387(2) 0.2643(4)
H14 H 0.2771 0.2064 0.2494
C34 C 0.3128(3) 0.3778(2) 0.1163(4)
H15 H 0.3507 0.3435 0.1166
C35 C 0.4819(3) 0.2540(2) 0.5697(4)
H16 H 0.5294 0.2471 0.6179
C36 C 0.4082(2) 0.6056(2) 0.5327(4)
H17 H 0.4244 0.6058 0.4654
C37 C 0.2543(3) 0.3876(3) 0.0285(4)
H18 H 0.2529 0.3596 -0.0298
C38 C 0.3475(3) 0.4358(2) 0.7890(3)
H19 H 0.2963 0.4246 0.8071
C39 C 0.4661(3) 0.2148(2) 0.4793(5)
H20 H 0.5033 0.1821 0.4662
C40 C 0.0109(3) 0.6287(2) 0.1206(4)
H21 H -0.0313 0.6593 0.1219
C41 C 0.1980(3) 0.4383(2) 0.0260(4)
H22 H 0.1602 0.4449 -0.0348
C42 C 0.4997(3) 0.4696(2) 0.7349(5)
H23 H 0.5512 0.4805 0.7171
C43 C 0.0707(3) 0.5289(2) 0.7313(4)
H24 H 0.0199 0.5181 0.7513
C44 C 0.3961(3) 0.2246(2) 0.4101(4)
H25 H 0.3860 0.1978 0.3502
C45 C 0.0233(3) 0.6425(3) 0.5056(4)
H26 H -0.0271 0.6259 0.5190
C46 C 0.0197(3) 0.5953(2) 0.0270(4)
H27 H -0.0158 0.6047 -0.0350
C47 C 0.1098(3) 0.2932(3) 0.2180(4)
H28 H 0.0602 0.2971 0.1728
C48 C 0.4120(3) 0.4532(2) 0.8671(4)
H29 H 0.4040 0.4539 0.9381
C49 C 0.1281(3) 0.3352(2) 0.3031(4)
H30 H 0.0906 0.3679 0.3154
C50 C 0.1062(3) 0.5892(2) 0.7579(4)
H31 H 0.0794 0.6195 0.7962
C51 C 0.1726(3) 0.6930(2) 0.4636(4)
H32 H 0.2227 0.7099 0.4494
C52 C 0.4878(3) 0.4693(2) 0.8394(5)
H33 H 0.5311 0.4801 0.8919
C53 C 0.1668(4) 0.2445(3) 0.2004(4)
H34 H 0.1544 0.2154 0.1436
C54 C 0.1152(4) 0.7333(3) 0.5037(5)
H35 H 0.1272 0.7779 0.5171
C55 C 0.0420(3) 0.7081(3) 0.5232(5)
H36 H 0.0039 0.7358 0.5489
N1 N 0.20724(18) 0.58389(15) 0.3983(3)
N2 N 0.31099(19) 0.51375(15) 0.3842(2)
N3 N 0.17555(19) 0.42184(15) 0.4939(3)
N4 N 0.29534(18) 0.41621(15) 0.6028(3)
loop_
_geom_bond_atom_site_label_1
_geom_bond_atom_site_label_2
_geom_bond_site_symmetry_1
_geom_bond_site_symmetry_2
C1 H1 1_555 1_555
H2 C1 1_555 1_555
Cl1 C1 1_555 1_555
Cl2 C1 1_555 1_555
C2 C8 1_555 1_555
C3 C4 1_555 1_555
C4 C6 1_555 1_555
C5 C8 1_555 1_555
C6 C16 1_555 1_555
C7 C23 1_555 1_555
C8 N4 1_555 1_555
C9 C10 1_555 1_555
C10 C5 1_555 1_555
C11 C29 1_555 1_555
C12 C15 1_555 1_555
C13 C3 1_555 1_555
C14 C2 1_555 1_555
C15 C23 1_555 1_555
C16 C22 1_555 1_555
C17 C24 1_555 1_555
C18 H3 1_555 1_555
C19 C5 1_555 1_555
H4 C19 1_555 1_555
C20 C30 1_555 1_555
C21 C6 1_555 1_555
H5 C21 1_555 1_555
C22 C13 1_555 1_555
C23 C18 1_555 1_555
C24 H6 1_555 1_555
C25 C12 1_555 1_555
H7 C25 1_555 1_555
C26 C25 1_555 1_555
H8 C26 1_555 1_555
C27 C26 1_555 1_555
H9 C27 1_555 1_555
C28 C22 1_555 1_555
H10 C28 1_555 1_555
C29 C12 1_555 1_555
C30 H11 1_555 1_555
C31 C15 1_555 1_555
H12 C31 1_555 1_555
C32 C13 1_555 1_555
H13 C32 1_555 1_555
C33 C9 1_555 1_555
H14 C33 1_555 1_555
C34 C21 1_555 1_555
H15 C34 1_555 1_555
C35 C19 1_555 1_555
H16 C35 1_555 1_555
C36 C27 1_555 1_555
H17 C36 1_555 1_555
C37 C34 1_555 1_555
H18 C37 1_555 1_555
C38 C17 1_555 1_555
H19 C38 1_555 1_555
C39 C35 1_555 1_555
H20 C39 1_555 1_555
C40 C32 1_555 1_555
H21 C40 1_555 1_555
C41 C16 1_555 1_555
H22 C41 1_555 1_555
C42 C24 1_555 1_555
H23 C42 1_555 1_555
C43 C18 1_555 1_555
H24 C43 1_555 1_555
C44 C10 1_555 1_555
H25 C44 1_555 1_555
C45 C30 1_555 1_555
H26 C45 1_555 1_555
C46 C28 1_555 1_555
H27 C46 1_555 1_555
C47 H28 1_555 1_555
C48 C38 1_555 1_555
H29 C48 1_555 1_555
C49 C14 1_555 1_555
H30 C49 1_555 1_555
C50 C31 1_555 1_555
H31 C50 1_555 1_555
C51 C20 1_555 1_555
H32 C51 1_555 1_555
C52 C42 1_555 1_555
H33 C52 1_555 1_555
C53 C33 1_555 1_555
H34 C53 1_555 1_555
C54 C51 1_555 1_555
H35 C54 1_555 1_555
C55 C45 1_555 1_555
H36 C55 1_555 1_555
N1 C3 1_555 1_555
N2 C4 1_555 1_555
N3 C2 1_555 1_555
N4 C7 1_555 1_555
C7 N3 1_555 1_555
C9 C14 1_555 1_555
C11 N1 1_555 1_555
C11 N2 1_555 1_555
C17 N4 1_555 1_555
C20 N1 1_555 1_555
C29 C36 1_555 1_555
C37 C41 1_555 1_555
C39 C44 1_555 1_555
C40 C46 1_555 1_555
C43 C50 1_555 1_555
C47 C49 1_555 1_555
C47 C53 1_555 1_555
C48 C52 1_555 1_555
C54 C55 1_555 1_555

#END
