
#######################################################################
#
#                 Cambridge Crystallographic Data Centre
#                                CCDC 
#
#######################################################################
#
# If this CIF has been generated from an entry in the Cambridge 
# Structural Database, then it will include bibliographic, chemical, 
# crystal, experimental, refinement or atomic coordinate data resulting 
# from the CCDC's data processing and validation procedures.
#
#######################################################################

data_HIJPEY
_chemical_formula_moiety         'C12 H11 Cl1 N2 O2'
_chemical_name_systematic        
'(E)-ethyl 3-[(4-chlorophenyl)amino]-2-cyanoprop-2-enoate'
_symmetry_cell_setting           triclinic
_symmetry_space_group_name_H-M   'P -1'
_symmetry_Int_Tables_number      2
_space_group_name_Hall           '-P 1'
loop_
_symmetry_equiv_pos_site_id
_symmetry_equiv_pos_as_xyz
1 x,y,z
2 -x,-y,-z
_cell_length_a                   7.0911(3)
_cell_length_b                   12.042(3)
_cell_length_c                   15.295(3)
_cell_angle_alpha                80.159(3)
_cell_angle_beta                 89.087(3)
_cell_angle_gamma                74.739(3)
_cell_volume                     1240.88
_exptl_crystal_colour            colorless
_exptl_crystal_description       plate
_cell_formula_units_Z            4
loop_
_atom_site_label
_atom_site_type_symbol
_atom_site_fract_x
_atom_site_fract_y
_atom_site_fract_z
C1 C 0.2296(4) -0.2013(2) 0.60144(15)
C2 C 0.2382(3) -0.10154(18) 0.53402(14)
C3 C 0.2337(3) -0.1080(2) 0.44625(14)
H1 H 0.227(3) -0.1777(19) 0.4286(13)
C4 C 0.2523(3) 0.0034(2) 0.56123(14)
C5 C 0.2368(3) -0.02611(18) 0.28870(13)
C6 C 0.1490(4) -0.1002(2) 0.25523(15)
H2 H 0.086(4) -0.148(2) 0.2941(16)
C7 C 0.1525(4) -0.1031(2) 0.16540(15)
H3 H 0.086(3) -0.154(2) 0.1429(15)
C8 C 0.2424(3) -0.0325(2) 0.10986(14)
C9 C 0.3253(4) 0.0446(2) 0.14196(16)
H4 H 0.386(4) 0.091(2) 0.1009(17)
C10 C 0.3223(4) 0.0474(2) 0.23148(15)
H5 H 0.385(4) 0.096(2) 0.2557(16)
C11 C 0.2131(6) -0.2654(2) 0.75515(16)
H6 H 0.316(4) -0.336(2) 0.7488(15)
H7 H 0.076(5) -0.277(3) 0.757(2)
C12 C 0.2343(6) -0.2236(3) 0.83902(17)
H8 H 0.2152 -0.2802 0.8883
H9 H 0.3630 -0.2129 0.8437
H10 H 0.1385 -0.1506 0.8395
N1 N 0.2419(3) -0.02198(17) 0.38021(11)
H11 H 0.259(4) 0.042(2) 0.3931(16)
N2 N 0.2633(4) 0.08970(19) 0.57896(14)
O1 O 0.2251(3) -0.29618(13) 0.58702(10)
O2 O 0.2269(3) -0.17388(13) 0.68264(9)
Cl1 Cl 0.25498(11) -0.04196(7) -0.00245(4)
C13 C 0.2857(3) 0.5212(2) 0.36805(14)
C14 C 0.2750(3) 0.41951(18) 0.43378(14)
C15 C 0.2645(3) 0.4272(2) 0.52143(15)
H12 H 0.264(3) 0.499(2) 0.5369(14)
C16 C 0.2776(4) 0.3130(2) 0.40449(14)
C17 C 0.2444(3) 0.34534(18) 0.67867(14)
C18 C 0.1825(4) 0.4493(2) 0.71079(15)
H13 H 0.144(4) 0.522(2) 0.6730(16)
C19 C 0.1714(4) 0.4475(2) 0.80129(16)
H14 H 0.122(4) 0.516(2) 0.8233(16)
C20 C 0.2204(4) 0.3434(2) 0.85931(15)
C21 C 0.2824(4) 0.2391(2) 0.82836(16)
H15 H 0.317(3) 0.163(2) 0.8700(16)
C22 C 0.2928(4) 0.2407(2) 0.73869(16)
H16 H 0.336(4) 0.173(2) 0.7176(16)
C23 C 0.3009(5) 0.5922(2) 0.21474(16)
H17 H 0.401(4) 0.627(2) 0.2272(16)
H18 H 0.168(4) 0.647(2) 0.2153(14)
C24 C 0.3349(5) 0.5447(3) 0.12987(16)
H19 H 0.4635 0.4923 0.1320
H20 H 0.3237 0.6079 0.0810
H21 H 0.2392 0.5033 0.1222
N3 N 0.2572(3) 0.34034(17) 0.58732(12)
H22 H 0.268(3) 0.273(2) 0.5736(15)
N4 N 0.2787(4) 0.22625(19) 0.38384(14)
O3 O 0.2741(3) 0.61745(15) 0.38405(11)
O4 O 0.3103(2) 0.49437(13) 0.28618(9)
Cl2 Cl 0.20570(14) 0.34291(7) 0.97328(4)
loop_
_geom_bond_atom_site_label_1
_geom_bond_atom_site_label_2
_geom_bond_site_symmetry_1
_geom_bond_site_symmetry_2
C1 C2 1_555 1_555
C2 C3 1_555 1_555
C3 H1 1_555 1_555
C4 C2 1_555 1_555
C5 C6 1_555 1_555
C6 H2 1_555 1_555
C7 C6 1_555 1_555
H3 C7 1_555 1_555
C8 C7 1_555 1_555
C9 C8 1_555 1_555
H4 C9 1_555 1_555
C10 C5 1_555 1_555
H5 C10 1_555 1_555
C11 H6 1_555 1_555
H7 C11 1_555 1_555
C12 C11 1_555 1_555
H8 C12 1_555 1_555
H9 C12 1_555 1_555
H10 C12 1_555 1_555
N1 C3 1_555 1_555
H11 N1 1_555 1_555
N2 C4 1_555 1_555
O1 C1 1_555 1_555
O2 C1 1_555 1_555
Cl1 C8 1_555 1_555
C13 C14 1_555 1_555
C14 C15 1_555 1_555
C15 H12 1_555 1_555
C16 C14 1_555 1_555
C17 C18 1_555 1_555
C18 H13 1_555 1_555
C19 C18 1_555 1_555
H14 C19 1_555 1_555
C20 C19 1_555 1_555
C21 C20 1_555 1_555
H15 C21 1_555 1_555
C22 C17 1_555 1_555
H16 C22 1_555 1_555
C23 H17 1_555 1_555
H18 C23 1_555 1_555
C24 C23 1_555 1_555
H19 C24 1_555 1_555
H20 C24 1_555 1_555
H21 C24 1_555 1_555
N3 C15 1_555 1_555
H22 N3 1_555 1_555
N4 C16 1_555 1_555
O3 C13 1_555 1_555
O4 C13 1_555 1_555
Cl2 C20 1_555 1_555
C5 N1 1_555 1_555
C9 C10 1_555 1_555
C11 O2 1_555 1_555
C17 N3 1_555 1_555
C21 C22 1_555 1_555
C23 O4 1_555 1_555

#END
