
#######################################################################
#
#                 Cambridge Crystallographic Data Centre
#                                CCDC 
#
#######################################################################
#
# If this CIF has been generated from an entry in the Cambridge 
# Structural Database, then it will include bibliographic, chemical, 
# crystal, experimental, refinement or atomic coordinate data resulting 
# from the CCDC's data processing and validation procedures.
#
#######################################################################

data_HIJPUO
_chemical_formula_moiety         'C22 H19 F7 N2 O2,3(H2 O1)'
_chemical_name_systematic        
'2-(benzenecarbonyl)-1-(heptafluoropropyl)-5,6,7,8,9,10-hexahydro-3H,4H-3a,6a-diazacyclohepta[1,2,3-de]naphthalen-3-one trihydrate'
_symmetry_cell_setting           monoclinic
_symmetry_space_group_name_H-M   'P 21/c'
_symmetry_Int_Tables_number      14
_space_group_name_Hall           '-P 2ybc'
loop_
_symmetry_equiv_pos_site_id
_symmetry_equiv_pos_as_xyz
1 x,y,z
2 -x,1/2+y,1/2-z
3 -x,-y,-z
4 x,1/2-y,1/2+z
_cell_length_a                   12.9920(4)
_cell_length_b                   9.8081(3)
_cell_length_c                   18.9141(6)
_cell_angle_alpha                90
_cell_angle_beta                 97.2446(14)
_cell_angle_gamma                90
_cell_volume                     2390.92
_cell_formula_units_Z            4
loop_
_atom_site_label
_atom_site_type_symbol
_atom_site_fract_x
_atom_site_fract_y
_atom_site_fract_z
C1 C -0.2709(6) 0.3361(8) 0.2550(4)
C2 C -0.2638(6) 0.3400(8) 0.1791(4)
C3 C -0.2643(7) 0.4657(9) 0.1429(5)
H1 H -0.2694 0.5479 0.1688
C4 C -0.2576(8) 0.4719(11) 0.0720(5)
H2 H -0.2551 0.5580 0.0491
C5 C -0.2544(8) 0.3524(11) 0.0325(5)
H3 H -0.2545 0.3567 -0.0176
C6 C -0.2512(7) 0.2274(11) 0.0666(5)
H4 H -0.2444 0.1462 0.0401
C7 C -0.2579(6) 0.2199(9) 0.1388(4)
H5 H -0.2585 0.1334 0.1614
C8 C -0.3609(6) 0.1359(7) 0.2938(4)
C9 C -0.2739(6) -0.0484(7) 0.3610(4)
C10 C -0.1772(6) 0.0153(8) 0.3640(4)
C11 C -0.1745(6) 0.1418(7) 0.3286(4)
C12 C -0.2635(6) 0.2030(7) 0.2938(4)
C13 C -0.4655(7) -0.0418(9) 0.3382(5)
H6 H -0.4854 -0.1059 0.2984
H7 H -0.5184 0.0312 0.3360
C14 C -0.4608(7) -0.1155(9) 0.4076(5)
H8 H -0.4413 -0.0515 0.4476
H9 H -0.5297 -0.1545 0.4131
C15 C -0.3828(8) -0.2258(9) 0.4089(6)
H10 H -0.3704 -0.2649 0.4575
H11 H -0.4104 -0.2992 0.3759
C16 C -0.2140(8) -0.2904(8) 0.3822(5)
H12 H -0.2541 -0.3711 0.3633
H13 H -0.1797 -0.3139 0.4304
C17 C -0.1280(8) -0.2608(10) 0.3331(5)
H14 H -0.0973 -0.3481 0.3199
H15 H -0.1600 -0.2163 0.2888
C18 C -0.0438(7) -0.1708(9) 0.3692(4)
H16 H 0.0028 -0.2254 0.4038
H17 H -0.0021 -0.1340 0.3332
C19 C -0.0876(6) -0.0555(8) 0.4073(4)
H18 H -0.0319 0.0119 0.4209
H19 H -0.1109 -0.0906 0.4517
C20 C -0.0738(6) 0.2152(8) 0.3295(4)
C21 C -0.0427(6) 0.3112(8) 0.3944(4)
C22 C 0.0630(7) 0.3799(10) 0.3980(5)
N1 N -0.3641(5) 0.0175(6) 0.3314(3)
N2 N -0.2864(6) -0.1781(6) 0.3887(3)
O1 O -0.4446(4) 0.1842(6) 0.2612(3)
O2 O -0.2918(5) 0.4397(6) 0.2871(3)
F1 F 0.0765(5) 0.4674(6) 0.4518(3)
F2 F 0.0764(5) 0.4424(7) 0.3402(3)
F3 F 0.1383(5) 0.2874(7) 0.4128(4)
F4 F -0.1130(4) 0.4093(5) 0.3938(3)
F5 F -0.0445(4) 0.2422(5) 0.4559(2)
F6 F -0.0771(3) 0.2988(5) 0.2717(2)
F7 F 0.0068(3) 0.1310(5) 0.3251(2)
O3 O 0.3504(3) 0.3528(4) 0.3399(3)
O4 O 0.5417(4) 0.3420(6) 0.4378(2)
O5 O 0.4741(7) 0.4125(11) 0.3606(5)
loop_
_geom_bond_atom_site_label_1
_geom_bond_atom_site_label_2
_geom_bond_site_symmetry_1
_geom_bond_site_symmetry_2
C1 C2 1_555 1_555
C2 C3 1_555 1_555
C3 H1 1_555 1_555
C4 C3 1_555 1_555
H2 C4 1_555 1_555
C5 C4 1_555 1_555
H3 C5 1_555 1_555
C6 C5 1_555 1_555
H4 C6 1_555 1_555
C7 C2 1_555 1_555
H5 C7 1_555 1_555
C8 C12 1_555 1_555
C9 C10 1_555 1_555
C10 C11 1_555 1_555
C11 C12 1_555 1_555
C12 C1 1_555 1_555
C13 H6 1_555 1_555
H7 C13 1_555 1_555
C14 C13 1_555 1_555
H8 C14 1_555 1_555
H9 C14 1_555 1_555
C15 C14 1_555 1_555
H10 C15 1_555 1_555
H11 C15 1_555 1_555
C16 H12 1_555 1_555
H13 C16 1_555 1_555
C17 C16 1_555 1_555
H14 C17 1_555 1_555
H15 C17 1_555 1_555
C18 C17 1_555 1_555
H16 C18 1_555 1_555
H17 C18 1_555 1_555
C19 C10 1_555 1_555
H18 C19 1_555 1_555
H19 C19 1_555 1_555
C20 C11 1_555 1_555
C21 C20 1_555 1_555
C22 C21 1_555 1_555
N1 C8 1_555 1_555
N2 C9 1_555 1_555
O1 C8 1_555 1_555
O2 C1 1_555 1_555
F1 C22 1_555 1_555
F2 C22 1_555 1_555
F3 C22 1_555 1_555
F4 C21 1_555 1_555
F5 C21 1_555 1_555
F6 C20 1_555 1_555
F7 C20 1_555 1_555
C6 C7 1_555 1_555
C9 N1 1_555 1_555
C13 N1 1_555 1_555
C15 N2 1_555 1_555
C16 N2 1_555 1_555
C18 C19 1_555 1_555

#END
