
#######################################################################
#
#                 Cambridge Crystallographic Data Centre
#                                CCDC 
#
#######################################################################
#
# If this CIF has been generated from an entry in the Cambridge 
# Structural Database, then it will include bibliographic, chemical, 
# crystal, experimental, refinement or atomic coordinate data resulting 
# from the CCDC's data processing and validation procedures.
#
#######################################################################

data_HIJSEA
_chemical_formula_moiety         'C8 H11 N1 O2'
_chemical_name_systematic        3-Hydroxy-3-(1H-pyrrol-2-yl)butan-2-one
_symmetry_cell_setting           triclinic
_symmetry_space_group_name_H-M   'P -1'
_symmetry_Int_Tables_number      2
_space_group_name_Hall           '-P 1'
loop_
_symmetry_equiv_pos_site_id
_symmetry_equiv_pos_as_xyz
1 x,y,z
2 -x,-y,-z
_cell_length_a                   8.37(2)
_cell_length_b                   10.24(3)
_cell_length_c                   10.52(3)
_cell_angle_alpha                95.85(5)
_cell_angle_beta                 110.15(4)
_cell_angle_gamma                112.75(4)
_cell_volume                     751.272
_exptl_crystal_colour            colorless
_exptl_crystal_description       block
_cell_formula_units_Z            4
loop_
_atom_site_label
_atom_site_type_symbol
_atom_site_fract_x
_atom_site_fract_y
_atom_site_fract_z
O1 O 0.3200(4) 0.3768(3) 0.0418(3)
O2 O 0.2404(4) 0.5863(3) -0.0078(3)
N1 N 0.6690(4) 0.5945(4) 0.2213(3)
C1 C 0.5238(5) 0.5533(4) 0.2605(4)
C2 C 0.5989(5) 0.6135(4) 0.3998(4)
H1 H 0.5302 0.6046 0.4566
C3 C 0.2549(5) 0.5704(4) 0.1030(4)
C4 C 0.3251(5) 0.4630(4) 0.1567(4)
C5 C 0.8312(5) 0.6771(4) 0.3314(4)
H2 H 0.9536 0.7200 0.3305
C6 C 0.2072(6) 0.6554(5) 0.1966(5)
H3 H 0.2209 0.7479 0.1724
H4 H 0.2941 0.6768 0.2949
H5 H 0.0756 0.5971 0.1835
C7 C 0.2011(5) 0.3688(4) 0.2170(4)
H6 H 0.0674 0.3261 0.1493
H7 H 0.2186 0.4285 0.3042
H8 H 0.2356 0.2896 0.2373
C8 C 0.7941(5) 0.6906(5) 0.4457(4)
H9 H 0.8849 0.7430 0.5397
H10 H 0.662(9) 0.566(7) 0.122(6)
H11 H 0.371(7) 0.318(6) 0.069(6)
N2 N 0.7576(5) 0.9862(4) 0.8614(3)
O3 O 0.4640(4) 0.7644(3) 0.8798(3)
O4 O 0.2680(4) 0.9054(3) 0.8892(3)
C9 C 0.5921(5) 0.9026(4) 0.7516(4)
C10 C 0.3314(5) 0.9245(4) 0.8041(4)
C11 C 0.8190(5) 0.9940(4) 0.6795(4)
H12 H 0.8848 1.0153 0.6208
C12 C 0.4151(5) 0.8234(4) 0.7685(4)
C13 C 0.8979(5) 1.0444(4) 0.8198(4)
H13 H 1.0282 1.1089 0.8785
C14 C 0.6263(6) 0.9059(4) 0.6344(4)
H14 H 0.5351 0.8571 0.5399
C15 C 0.3224(7) 1.0332(5) 0.7291(6)
H15 H 0.2242 1.0599 0.7351
H16 H 0.2905 0.9928 0.6302
H17 H 0.4463 1.1208 0.7707
C16 C 0.2642(6) 0.7047(5) 0.6383(5)
H18 H 0.3130 0.6379 0.6128
H19 H 0.2287 0.7487 0.5613
H20 H 0.1520 0.6495 0.6553
H21 H 0.394(7) 0.750(5) 0.903(5)
H22 H 0.766(6) 1.004(4) 0.933(5)
loop_
_geom_bond_atom_site_label_1
_geom_bond_atom_site_label_2
_geom_bond_site_symmetry_1
_geom_bond_site_symmetry_2
O1 C4 1_555 1_555
O2 C3 1_555 1_555
N1 C1 1_555 1_555
C1 C2 1_555 1_555
C2 H1 1_555 1_555
C3 C4 1_555 1_555
C4 C1 1_555 1_555
C5 N1 1_555 1_555
H2 C5 1_555 1_555
C6 C3 1_555 1_555
H3 C6 1_555 1_555
H4 C6 1_555 1_555
H5 C6 1_555 1_555
C7 C4 1_555 1_555
H6 C7 1_555 1_555
H7 C7 1_555 1_555
H8 C7 1_555 1_555
C8 C2 1_555 1_555
H9 C8 1_555 1_555
H10 N1 1_555 1_555
H11 O1 1_555 1_555
N2 C9 1_555 1_555
O3 C12 1_555 1_555
O4 C10 1_555 1_555
C9 C12 1_555 1_555
C10 C12 1_555 1_555
C11 H12 1_555 1_555
C12 C16 1_555 1_555
C13 N2 1_555 1_555
H13 C13 1_555 1_555
C14 C9 1_555 1_555
H14 C14 1_555 1_555
C15 C10 1_555 1_555
H15 C15 1_555 1_555
H16 C15 1_555 1_555
H17 C15 1_555 1_555
C16 H18 1_555 1_555
H19 C16 1_555 1_555
H20 C16 1_555 1_555
H21 O3 1_555 1_555
H22 N2 1_555 1_555
C5 C8 1_555 1_555
C11 C13 1_555 1_555
C11 C14 1_555 1_555

#END
