
#######################################################################
#
#                 Cambridge Crystallographic Data Centre
#                                CCDC 
#
#######################################################################
#
# If this CIF has been generated from an entry in the Cambridge 
# Structural Database, then it will include bibliographic, chemical, 
# crystal, experimental, refinement or atomic coordinate data resulting 
# from the CCDC's data processing and validation procedures.
#
#######################################################################

data_HIJSIE
_chemical_formula_moiety         'C30 H36 N4 O2'
_chemical_name_systematic        
1,1'-(5,10,15,15,20,20-Hexamethyl-5,10,15,20,22,24-hexahydroporphyrin-5,10-diyl)diethanone
_symmetry_cell_setting           monoclinic
_symmetry_space_group_name_H-M   'P 21'
_symmetry_Int_Tables_number      4
_space_group_name_Hall           'P 2yb'
loop_
_symmetry_equiv_pos_site_id
_symmetry_equiv_pos_as_xyz
1 x,y,z
2 -x,1/2+y,-z
_cell_length_a                   10.3743(16)
_cell_length_b                   12.098(2)
_cell_length_c                   11.1576(18)
_cell_angle_alpha                90
_cell_angle_beta                 105.030(17)
_cell_angle_gamma                90
_cell_volume                     1352.46
_exptl_crystal_colour            colorless
_exptl_crystal_description       block
_cell_formula_units_Z            2
loop_
_atom_site_label
_atom_site_type_symbol
_atom_site_fract_x
_atom_site_fract_y
_atom_site_fract_z
N1 N 0.3040(3) 0.0963(3) 0.1256(3)
C1 C 0.3050(3) 0.1790(3) 0.3345(3)
N2 N 0.5550(3) 0.1735(3) 0.4021(3)
N3 N 0.5750(3) 0.0002(3) 0.0260(3)
N4 N 0.8272(3) 0.1090(3) 0.2734(3)
C2 C 0.8250(3) 0.0007(3) 0.0797(3)
O1 O 0.1928(2) -0.1682(2) -0.1444(2)
C3 C 0.3266(3) -0.0115(3) -0.0610(3)
C4 C 0.3080(3) 0.0824(3) 0.2494(3)
C5 C 0.4402(3) 0.2353(3) 0.3645(3)
C6 C 0.4648(3) 0.0252(3) -0.0688(3)
C7 C 0.6895(3) 0.0299(3) -0.0044(3)
C8 C 0.6664(4) 0.2392(4) 0.4282(3)
C9 C 0.8222(3) 0.0091(3) 0.2147(3)
C10 C 0.3054(3) -0.1353(3) -0.1011(3)
C11 C 0.3182(3) -0.0036(3) 0.0712(3)
C12 C 0.8550(3) -0.1217(3) 0.0608(3)
C13 C 0.3315(3) -0.0822(3) 0.1618(3)
H1 H 0.3433 -0.1576 0.1524
O2 O 0.7654(3) -0.1848(2) 0.0148(2)
C14 C 0.5108(3) 0.0734(3) -0.1598(3)
H2 H 0.4587 0.1001 -0.2349
C15 C 0.6515(3) 0.0757(3) -0.1201(3)
H3 H 0.7084 0.1036 -0.1649
C16 C 0.8036(3) 0.1905(3) 0.4752(3)
C17 C 0.4224(3) -0.2112(3) -0.0847(3)
H4 H 0.3914 -0.2849 -0.1080
H5 H 0.4728 -0.2107 0.0007
H6 H 0.4781 -0.1869 -0.1361
C18 C 0.2196(3) 0.0562(3) -0.1501(3)
H7 H 0.1330 0.0322 -0.1450
H8 H 0.2274 0.0462 -0.2333
H9 H 0.2311 0.1330 -0.1282
C19 C 0.8171(3) 0.0948(4) 0.3925(3)
C20 C 0.6211(4) 0.3442(4) 0.4055(3)
H10 H 0.6736 0.4074 0.4133
C21 C 0.9327(3) 0.0759(4) 0.0493(3)
C22 C 0.4788(4) 0.3409(4) 0.3675(3)
H11 H 0.4225 0.4018 0.3482
C23 C 0.9102(4) 0.2768(4) 0.4758(4)
H12 H 0.9968 0.2452 0.5098
H13 H 0.8979 0.3387 0.5256
H14 H 0.9031 0.3012 0.3925
C24 C 0.3243(4) -0.0279(3) 0.2727(3)
H15 H 0.3298 -0.0620 0.3486
C25 C 0.8098(4) -0.0703(3) 0.2968(4)
H16 H 0.8040 -0.1461 0.2822
C26 C 0.2782(4) 0.1361(4) 0.4567(3)
H17 H 0.1933 0.0993 0.4385
H18 H 0.2775 0.1972 0.5114
H19 H 0.3472 0.0851 0.4959
C27 C 0.9956(4) -0.1611(4) 0.1002(4)
H20 H 0.9967 -0.2401 0.1085
H21 H 1.0395 -0.1282 0.1785
H22 H 1.0414 -0.1403 0.0390
C28 C 0.1966(3) 0.2631(4) 0.2766(4)
H23 H 0.2104 0.2893 0.1997
H24 H 0.2008 0.3242 0.3324
H25 H 0.1105 0.2286 0.2614
C29 C 0.8074(4) -0.0164(4) 0.4092(3)
H26 H 0.8004 -0.0509 0.4817
C30 C 0.8198(4) 0.1486(4) 0.6085(3)
H27 H 0.7482 0.0988 0.6101
H28 H 0.8178 0.2102 0.6623
H29 H 0.9035 0.1106 0.6364
H30 H 0.823(4) 0.174(4) 0.242(3)
H31 H 0.583(4) -0.021(4) 0.098(4)
H32 H 0.563(4) 0.102(4) 0.397(3)
H33 H 0.282(3) 0.155(3) 0.078(3)
loop_
_geom_bond_atom_site_label_1
_geom_bond_atom_site_label_2
_geom_bond_site_symmetry_1
_geom_bond_site_symmetry_2
N1 C4 1_555 1_555
C1 C4 1_555 1_555
N2 C5 1_555 1_555
N3 C6 1_555 1_555
N4 C9 1_555 1_555
C2 C7 1_555 1_555
O1 C10 1_555 1_555
C3 C6 1_555 1_555
C4 C24 1_555 1_555
C5 C1 1_555 1_555
C6 C14 1_555 1_555
C7 N3 1_555 1_555
C8 N2 1_555 1_555
C9 C2 1_555 1_555
C10 C3 1_555 1_555
C11 N1 1_555 1_555
C12 C2 1_555 1_555
C13 C11 1_555 1_555
H1 C13 1_555 1_555
O2 C12 1_555 1_555
C14 H2 1_555 1_555
C15 C7 1_555 1_555
H3 C15 1_555 1_555
C16 C8 1_555 1_555
C17 C10 1_555 1_555
H4 C17 1_555 1_555
H5 C17 1_555 1_555
H6 C17 1_555 1_555
C18 C3 1_555 1_555
H7 C18 1_555 1_555
H8 C18 1_555 1_555
H9 C18 1_555 1_555
C19 N4 1_555 1_555
C20 C8 1_555 1_555
H10 C20 1_555 1_555
C21 C2 1_555 1_555
C22 C5 1_555 1_555
H11 C22 1_555 1_555
C23 C16 1_555 1_555
H12 C23 1_555 1_555
H13 C23 1_555 1_555
H14 C23 1_555 1_555
C24 C13 1_555 1_555
H15 C24 1_555 1_555
C25 C9 1_555 1_555
H16 C25 1_555 1_555
C26 C1 1_555 1_555
H17 C26 1_555 1_555
H18 C26 1_555 1_555
H19 C26 1_555 1_555
C27 C12 1_555 1_555
H20 C27 1_555 1_555
H21 C27 1_555 1_555
H22 C27 1_555 1_555
C28 C1 1_555 1_555
H23 C28 1_555 1_555
H24 C28 1_555 1_555
H25 C28 1_555 1_555
C29 C19 1_555 1_555
H26 C29 1_555 1_555
C30 C16 1_555 1_555
H27 C30 1_555 1_555
H28 C30 1_555 1_555
H29 C30 1_555 1_555
H30 N4 1_555 1_555
H31 N3 1_555 1_555
H32 N2 1_555 1_555
H33 N1 1_555 1_555
C3 C11 1_555 1_555
C14 C15 1_555 1_555
C16 C19 1_555 1_555
C20 C22 1_555 1_555
C25 C29 1_555 1_555

#END
