
#######################################################################
#
#                 Cambridge Crystallographic Data Centre
#                                CCDC 
#
#######################################################################
#
# If this CIF has been generated from an entry in the Cambridge 
# Structural Database, then it will include bibliographic, chemical, 
# crystal, experimental, refinement or atomic coordinate data resulting 
# from the CCDC's data processing and validation procedures.
#
#######################################################################

data_HIJVOM
_chemical_formula_moiety         'C24 H32 N5 1+,Cl1 O4 1-,H2 O1'
_chemical_name_systematic        
'6-(2-(Naphthylmethyamino)ethyl)-6,9,15-triaza-3-azoniabicyclo(9.3.1)pentadeca-1(15),11,13-triene perchlorate monohydrate'
_symmetry_cell_setting           orthorhombic
_symmetry_space_group_name_H-M   'P 21 21 21'
_symmetry_Int_Tables_number      19
_space_group_name_Hall           'P 2ac 2ab'
loop_
_symmetry_equiv_pos_site_id
_symmetry_equiv_pos_as_xyz
1 x,y,z
2 1/2-x,-y,1/2+z
3 1/2+x,1/2-y,-z
4 -x,1/2+y,1/2-z
_cell_length_a                   8.9370(13)
_cell_length_b                   16.1640(8)
_cell_length_c                   18.0570(19)
_cell_angle_alpha                90
_cell_angle_beta                 90
_cell_angle_gamma                90
_cell_volume                     2608.47
_exptl_crystal_colour            colorless
_cell_formula_units_Z            4
loop_
_atom_site_label
_atom_site_type_symbol
_atom_site_fract_x
_atom_site_fract_y
_atom_site_fract_z
Cl1 Cl 0.4323(2) 0.43098(12) 0.63079(11)
O2 O 0.5646(6) 0.3876(4) 0.6119(3)
O3 O 0.4395(7) 0.4540(4) 0.7064(3)
O4 O 0.3060(6) 0.3822(4) 0.6174(4)
O5 O 0.4281(6) 0.5056(4) 0.5887(3)
O1 O 0.5632(5) 0.2124(3) 0.6495(3)
H1 H 0.6691 0.2202 0.655
H2 H 0.4981 0.2202 0.6912
N1 N 0.0646(7) 0.1307(3) 0.7942(3)
N2 N 0.3021(6) 0.1469(4) 0.7027(4)
H3 H 0.3046 0.1956 0.6837
N3 N 0.0609(7) 0.1479(4) 0.5963(3)
N4 N -0.1777(6) 0.1527(3) 0.7102(3)
H4 H -0.1017 0.1891 0.7067
H5 H -0.2599 0.1774 0.6918
N5 N -0.0109(6) 0.2993(3) 0.6677(3)
H6 H 0.0492 0.2582 0.6919
C1 C -0.0628(8) 0.1112(4) 0.8287(4)
C2 C -0.0635(9) 0.0723(5) 0.8966(4)
H7 H -0.1577 0.059 0.9192
C3 C 0.0692(11) 0.0537(5) 0.9298(4)
H8 H 0.0752 0.0168 0.9817
C4 C 0.2020(8) 0.0711(5) 0.8929(4)
H9 H 0.298 0.0565 0.9128
C5 C 0.1942(8) 0.1097(4) 0.8258(5)
C6 C 0.3328(7) 0.1314(5) 0.7813(5)
H10 H 0.4436 0.1057 0.7933
H11 H 0.4206 0.1771 0.8031
C7 C 0.2670(9) 0.0732(5) 0.6594(5)
H12 H 0.3886 0.0427 0.6613
H13 H 0.1824 0.0431 0.6811
C8 C 0.1970(10) 0.0963(6) 0.5876(5)
H14 H 0.1661 0.0461 0.5636
H15 H 0.2674 0.1249 0.5568
C9 C -0.0804(10) 0.1041(5) 0.5908(5)
H16 H -0.1523 0.1406 0.5686
H17 H -0.0684 0.0559 0.5602
C10 C -0.1417(8) 0.0790(5) 0.6631(5)
H18 H -0.0682 0.0449 0.687
H19 H -0.2322 0.0479 0.6564
C11 C -0.2036(6) 0.1344(4) 0.7890(4)
H20 H -0.2485 0.1814 0.8127
H21 H -0.2708 0.0882 0.7917
C12 C 0.0676(10) 0.2268(5) 0.5557(4)
H22 H 0.1679 0.2478 0.5568
H23 H 0.0384 0.2168 0.5053
C13 C -0.0370(9) 0.2922(5) 0.5890(4)
H24 H -0.1389 0.2755 0.5812
H25 H -0.0203 0.345 0.5662
C14 C -0.0806(8) 0.3724(4) 0.7027(4)
H26 H -0.0195 0.4203 0.6938
H27 H -0.1771 0.3803 0.6804
C15 C -0.1011(8) 0.3610(4) 0.7845(4)
C16 C -0.2425(9) 0.3539(5) 0.8134(5)
H28 H -0.3265 0.3555 0.7803
C17 C -0.2670(11) 0.3406(6) 0.8891(6)
H29 H -0.3653 0.3366 0.9102
C18 C -0.1496(14) 0.3349(5) 0.9355(5)
H30 H -0.166 0.3278 0.9877
C19 C -0.0023(11) 0.3402(5) 0.9091(5)
C20 C 0.0245(8) 0.3548(4) 0.8331(4)
C21 C 0.1721(9) 0.3646(4) 0.8085(4)
H31 H 0.1907 0.3735 0.7568
C22 C 0.2936(9) 0.3584(5) 0.8557(5)
H32 H 0.423 0.3718 0.822
C23 C 0.2617(14) 0.3421(7) 0.9321(6)
H33 H 0.3475 0.3338 0.9633
C24 C 0.1225(15) 0.3342(6) 0.9585(5)
H34 H 0.1034 0.3268 1.0103
loop_
_geom_bond_atom_site_label_1
_geom_bond_atom_site_label_2
_geom_bond_site_symmetry_1
_geom_bond_site_symmetry_2
Cl1 O2 1_555 1_555
O1 H1 1_555 1_555
H2 O1 1_555 1_555
O3 Cl1 1_555 1_555
O4 Cl1 1_555 1_555
O5 Cl1 1_555 1_555
N1 C1 1_555 1_555
N2 H3 1_555 1_555
N3 C8 1_555 1_555
N4 H4 1_555 1_555
H5 N4 1_555 1_555
N5 H6 1_555 1_555
C1 C2 1_555 1_555
C2 H7 1_555 1_555
C3 C2 1_555 1_555
H8 C3 1_555 1_555
C4 C3 1_555 1_555
H9 C4 1_555 1_555
C5 N1 1_555 1_555
C6 N2 1_555 1_555
H10 C6 1_555 1_555
H11 C6 1_555 1_555
C7 N2 1_555 1_555
H12 C7 1_555 1_555
H13 C7 1_555 1_555
C8 C7 1_555 1_555
H14 C8 1_555 1_555
H15 C8 1_555 1_555
C9 N3 1_555 1_555
H16 C9 1_555 1_555
H17 C9 1_555 1_555
C10 N4 1_555 1_555
H18 C10 1_555 1_555
H19 C10 1_555 1_555
C11 N4 1_555 1_555
H20 C11 1_555 1_555
H21 C11 1_555 1_555
C12 N3 1_555 1_555
H22 C12 1_555 1_555
H23 C12 1_555 1_555
C13 N5 1_555 1_555
H24 C13 1_555 1_555
H25 C13 1_555 1_555
C14 N5 1_555 1_555
H26 C14 1_555 1_555
H27 C14 1_555 1_555
C15 C14 1_555 1_555
C16 C15 1_555 1_555
H28 C16 1_555 1_555
C17 C16 1_555 1_555
H29 C17 1_555 1_555
C18 C17 1_555 1_555
H30 C18 1_555 1_555
C19 C18 1_555 1_555
C20 C15 1_555 1_555
C21 C20 1_555 1_555
H31 C21 1_555 1_555
C22 C21 1_555 1_555
H32 C22 1_555 1_555
C23 C22 1_555 1_555
H33 C23 1_555 1_555
C24 C19 1_555 1_555
H34 C24 1_555 1_555
C1 C11 1_555 1_555
C4 C5 1_555 1_555
C5 C6 1_555 1_555
C9 C10 1_555 1_555
C12 C13 1_555 1_555
C19 C20 1_555 1_555
C23 C24 1_555 1_555

#END
