
#######################################################################
#
#                 Cambridge Crystallographic Data Centre
#                                CCDC 
#
#######################################################################
#
# If this CIF has been generated from an entry in the Cambridge 
# Structural Database, then it will include bibliographic, chemical, 
# crystal, experimental, refinement or atomic coordinate data resulting 
# from the CCDC's data processing and validation procedures.
#
#######################################################################

data_HIJWUT
_chemical_formula_moiety         'C13 H16 O3 S1'
_chemical_name_systematic        
(R,S)-2-(((4-Methylphenyl)sulfinyl)methyl)-dihydro-2H-pyran-3(4H)-one
_symmetry_cell_setting           monoclinic
_symmetry_space_group_name_H-M   'P 21'
_symmetry_Int_Tables_number      4
_space_group_name_Hall           'P 2yb'
loop_
_symmetry_equiv_pos_site_id
_symmetry_equiv_pos_as_xyz
1 x,y,z
2 -x,1/2+y,-z
_cell_length_a                   16.0338(17)
_cell_length_b                   5.4918(4)
_cell_length_c                   16.9616(18)
_cell_angle_alpha                90
_cell_angle_beta                 117.095(4)
_cell_angle_gamma                90
_cell_volume                     1329.63
_exptl_crystal_colour            colorless
_exptl_crystal_description       prism
_cell_formula_units_Z            4
loop_
_atom_site_label
_atom_site_type_symbol
_atom_site_fract_x
_atom_site_fract_y
_atom_site_fract_z
S1 S 0.26801(7) 0.0175(3) 0.43017(8)
O1 O 0.2687(3) 0.1951(9) 0.3654(2)
O2 O 0.46507(19) 0.1171(5) 0.5876(2)
O3 O 0.3540(2) 0.5999(6) 0.6374(2)
C1 C 0.3030(3) 0.1866(8) 0.5320(3)
H1 H 0.2567 0.3112 0.5233
H2 H 0.3059 0.0776 0.5782
C2 C 0.3972(3) 0.3038(8) 0.5602(3)
H3 H 0.3966 0.3820 0.5080
C3 C 0.5590(3) 0.2116(9) 0.6201(3)
H4 H 0.5629 0.3125 0.5749
H5 H 0.6027 0.0777 0.6329
C4 C 0.5853(3) 0.3595(10) 0.7024(3)
H6 H 0.6483 0.4229 0.7231
H7 H 0.5845 0.2570 0.7486
C5 C 0.5178(3) 0.5670(9) 0.6838(4)
H8 H 0.5258 0.6338 0.7398
H9 H 0.5335 0.6940 0.6531
C6 C 0.4172(3) 0.4987(9) 0.6296(3)
C7 C 0.1488(3) -0.0263(10) 0.4081(3)
C8 C 0.0795(3) 0.1248(11) 0.3512(4)
H10 H 0.0946 0.2543 0.3247
C9 C -0.0128(3) 0.0849(12) 0.3331(4)
H11 H -0.0594 0.1890 0.2947
C10 C -0.0360(3) -0.1041(11) 0.3706(4)
C11 C 0.0323(4) -0.2508(12) 0.4286(5)
H12 H 0.0171 -0.3775 0.4561
C12 C 0.1262(4) -0.2113(11) 0.4472(5)
H13 H 0.1730 -0.3132 0.4866
C13 C -0.1379(3) -0.1444(16) 0.3493(5)
H14 H -0.1537 -0.0417 0.3863
H15 H -0.1471 -0.3117 0.3597
H16 H -0.1774 -0.1051 0.2882
S2 S -0.32500(8) 0.9839(3) -0.04737(8)
O4 O -0.3939(2) 0.8240(9) -0.1161(2)
O5 O -0.37486(19) 0.8466(5) 0.0964(2)
O6 O -0.2080(3) 0.3904(7) 0.1603(2)
C14 C -0.2611(3) 0.7889(8) 0.0467(3)
H17 H -0.2265 0.6675 0.0319
H18 H -0.2167 0.8844 0.0961
C15 C -0.3293(3) 0.6665(8) 0.0717(3)
H19 H -0.3765 0.5839 0.0190
C16 C -0.4425(3) 0.7496(10) 0.1214(4)
H20 H -0.4867 0.6475 0.0742
H21 H -0.4771 0.8817 0.1310
C17 C -0.3935(3) 0.6022(9) 0.2050(3)
H22 H -0.4393 0.5352 0.2214
H23 H -0.3516 0.7066 0.2528
C18 C -0.3382(4) 0.3980(9) 0.1916(4)
H24 H -0.2957 0.3312 0.2489
H25 H -0.3811 0.2696 0.1577
C19 C -0.2831(3) 0.4754(9) 0.1449(3)
C20 C -0.2319(3) 1.0383(10) -0.0756(3)
C21 C -0.2303(3) 0.9250(13) -0.1449(3)
H26 H -0.2757 0.8093 -0.1765
C22 C -0.1607(4) 0.9807(16) -0.1697(3)
H27 H -0.1607 0.9007 -0.2180
C23 C -0.0940(4) 1.1451(14) -0.1263(4)
C24 C -0.0944(5) 1.2525(12) -0.0529(5)
H28 H -0.0468 1.3609 -0.0193
C25 C -0.1638(4) 1.2029(11) -0.0279(5)
H29 H -0.1640 1.2809 0.0207
C26 C -0.0178(5) 1.1965(18) -0.1541(5)
H30 H 0.0213 1.0554 -0.1430
H31 H 0.0195 1.3319 -0.1208
H32 H -0.0462 1.2348 -0.2162
loop_
_geom_bond_atom_site_label_1
_geom_bond_atom_site_label_2
_geom_bond_site_symmetry_1
_geom_bond_site_symmetry_2
S1 O1 1_555 1_555
O2 C2 1_555 1_555
O3 C6 1_555 1_555
C1 S1 1_555 1_555
H1 C1 1_555 1_555
H2 C1 1_555 1_555
C2 C1 1_555 1_555
H3 C2 1_555 1_555
C3 O2 1_555 1_555
H4 C3 1_555 1_555
H5 C3 1_555 1_555
C4 C3 1_555 1_555
H6 C4 1_555 1_555
H7 C4 1_555 1_555
C5 C4 1_555 1_555
H8 C5 1_555 1_555
H9 C5 1_555 1_555
C6 C2 1_555 1_555
C7 S1 1_555 1_555
C8 C7 1_555 1_555
H10 C8 1_555 1_555
C9 C8 1_555 1_555
H11 C9 1_555 1_555
C10 C9 1_555 1_555
C11 C10 1_555 1_555
H12 C11 1_555 1_555
C12 C7 1_555 1_555
H13 C12 1_555 1_555
C13 C10 1_555 1_555
H14 C13 1_555 1_555
H15 C13 1_555 1_555
H16 C13 1_555 1_555
S2 O4 1_555 1_555
O5 C15 1_555 1_555
O6 C19 1_555 1_555
C14 S2 1_555 1_555
H17 C14 1_555 1_555
H18 C14 1_555 1_555
C15 C14 1_555 1_555
H19 C15 1_555 1_555
C16 O5 1_555 1_555
H20 C16 1_555 1_555
H21 C16 1_555 1_555
C17 C16 1_555 1_555
H22 C17 1_555 1_555
H23 C17 1_555 1_555
C18 C17 1_555 1_555
H24 C18 1_555 1_555
H25 C18 1_555 1_555
C19 C15 1_555 1_555
C20 S2 1_555 1_555
C21 C20 1_555 1_555
H26 C21 1_555 1_555
C22 C21 1_555 1_555
H27 C22 1_555 1_555
C23 C22 1_555 1_555
C24 C23 1_555 1_555
H28 C24 1_555 1_555
C25 C20 1_555 1_555
H29 C25 1_555 1_555
C26 C23 1_555 1_555
H30 C26 1_555 1_555
H31 C26 1_555 1_555
H32 C26 1_555 1_555
C5 C6 1_555 1_555
C11 C12 1_555 1_555
C18 C19 1_555 1_555
C24 C25 1_555 1_555

#END
