
#######################################################################
#
#                 Cambridge Crystallographic Data Centre
#                                CCDC 
#
#######################################################################
#
# If this CIF has been generated from an entry in the Cambridge 
# Structural Database, then it will include bibliographic, chemical, 
# crystal, experimental, refinement or atomic coordinate data resulting 
# from the CCDC's data processing and validation procedures.
#
#######################################################################

data_HIKHIU
_chemical_formula_moiety         'C21 H26 N2 O5'
_chemical_name_systematic        
't-Butyl 1-(4-methoxy-2,4-dioxobutyl)-1,3,4,9-tetrahydro-2H-\b-carboline-2-carboxylate'
_symmetry_cell_setting           triclinic
_symmetry_space_group_name_H-M   'P -1'
_symmetry_Int_Tables_number      2
_space_group_name_Hall           '-P 1'
loop_
_symmetry_equiv_pos_site_id
_symmetry_equiv_pos_as_xyz
1 x,y,z
2 -x,-y,-z
_cell_length_a                   9.503(6)
_cell_length_b                   10.014(4)
_cell_length_c                   11.440(5)
_cell_angle_alpha                76.52(3)
_cell_angle_beta                 72.89(3)
_cell_angle_gamma                87.86(2)
_cell_volume                     1011.25
_exptl_crystal_colour            colorless
_exptl_crystal_description       prismatic
_cell_formula_units_Z            2
loop_
_atom_site_label
_atom_site_type_symbol
_atom_site_fract_x
_atom_site_fract_y
_atom_site_fract_z
O1 O 0.2974(2) 0.8499(2) 0.5204(2)
O2 O 0.21696(19) 0.7933(2) 0.73436(18)
O3 O 0.3356(2) 1.0059(2) 0.8541(3)
O4 O 0.4068(2) 1.2838(2) 0.9382(2)
O5 O 0.3839(2) 1.3347(2) 0.7440(2)
N1 N 0.4601(2) 0.8244(2) 0.6357(2)
N2 N 0.6265(2) 0.5866(2) 0.8571(2)
H1 H 0.5964 0.5996 0.9339
C1 C 0.5858(3) 0.8218(3) 0.5237(3)
H2 H 0.6684 0.8797 0.5228
H3 H 0.5564 0.8602 0.4468
C2 C 0.6360(3) 0.6755(3) 0.5243(3)
H4 H 0.5623 0.6219 0.5067
H5 H 0.7311 0.6763 0.4586
C3 C 0.6529(3) 0.6117(3) 0.6511(3)
C4 C 0.7384(3) 0.4984(3) 0.6898(3)
C5 C 0.8355(3) 0.4119(3) 0.6259(3)
H6 H 0.8498 0.4193 0.5388
C6 C 0.9096(3) 0.3164(3) 0.6907(3)
H7 H 0.9762 0.2585 0.6476
C7 C 0.8887(3) 0.3030(3) 0.8187(3)
H8 H 0.9397 0.2348 0.8617
C8 C 0.7944(3) 0.3878(3) 0.8851(3)
H9 H 0.7808 0.3793 0.9722
C9 C 0.7205(3) 0.4859(3) 0.8181(3)
C10 C 0.5880(3) 0.6630(3) 0.7541(3)
C11 C 0.4923(3) 0.7866(3) 0.7570(3)
H10 H 0.3980 0.7608 0.8261
C12 C 0.3215(3) 0.8239(3) 0.6221(3)
C13 C 0.0608(3) 0.8226(3) 0.7425(3)
C14 C -0.0127(4) 0.7814(4) 0.8830(3)
H11 H 0.0067 0.6851 0.9149
H12 H -0.1191 0.7929 0.9003
H13 H 0.0269 0.8397 0.9247
C15 C 0.0466(3) 0.9740(3) 0.6912(4)
H14 H 0.0967 1.0273 0.7299
H15 H -0.0578 0.9961 0.7105
H16 H 0.0918 0.9969 0.5999
C16 C 0.0004(3) 0.7353(3) 0.6753(3)
H17 H 0.0497 0.7630 0.5847
H18 H -0.1057 0.7481 0.6913
H19 H 0.0183 0.6384 0.7065
C17 C 0.5697(3) 0.9072(3) 0.7790(3)
H20 H 0.6140 0.8717 0.8480
H21 H 0.6508 0.9452 0.7021
C18 C 0.4690(3) 1.0211(3) 0.8116(3)
C19 C 0.5446(3) 1.1599(3) 0.7875(3)
H22 H 0.6220 1.1494 0.8306
H23 H 0.5930 1.1928 0.6961
C20 C 0.4391(3) 1.2648(3) 0.8325(3)
C21 C 0.2788(4) 1.4383(3) 0.7787(3)
H24 H 0.1901 1.3937 0.8429
H25 H 0.2523 1.4891 0.7043
H26 H 0.3230 1.5021 0.8122
loop_
_geom_bond_atom_site_label_1
_geom_bond_atom_site_label_2
_geom_bond_site_symmetry_1
_geom_bond_site_symmetry_2
O1 C12 1_555 1_555
O2 C12 1_555 1_555
O3 C18 1_555 1_555
O4 C20 1_555 1_555
O5 C20 1_555 1_555
N1 C1 1_555 1_555
N2 H1 1_555 1_555
C1 H2 1_555 1_555
H3 C1 1_555 1_555
C2 C1 1_555 1_555
H4 C2 1_555 1_555
H5 C2 1_555 1_555
C3 C2 1_555 1_555
C4 C3 1_555 1_555
C5 C4 1_555 1_555
H6 C5 1_555 1_555
C6 C5 1_555 1_555
H7 C6 1_555 1_555
C7 C6 1_555 1_555
H8 C7 1_555 1_555
C8 C7 1_555 1_555
H9 C8 1_555 1_555
C9 N2 1_555 1_555
C10 N2 1_555 1_555
C11 N1 1_555 1_555
H10 C11 1_555 1_555
C12 N1 1_555 1_555
C13 O2 1_555 1_555
C14 C13 1_555 1_555
H11 C14 1_555 1_555
H12 C14 1_555 1_555
H13 C14 1_555 1_555
C15 C13 1_555 1_555
H14 C15 1_555 1_555
H15 C15 1_555 1_555
H16 C15 1_555 1_555
C16 C13 1_555 1_555
H17 C16 1_555 1_555
H18 C16 1_555 1_555
H19 C16 1_555 1_555
C17 C11 1_555 1_555
H20 C17 1_555 1_555
H21 C17 1_555 1_555
C18 C17 1_555 1_555
C19 C18 1_555 1_555
H22 C19 1_555 1_555
H23 C19 1_555 1_555
C20 C19 1_555 1_555
C21 O5 1_555 1_555
H24 C21 1_555 1_555
H25 C21 1_555 1_555
H26 C21 1_555 1_555
C3 C10 1_555 1_555
C4 C9 1_555 1_555
C8 C9 1_555 1_555
C10 C11 1_555 1_555

#END
