
#######################################################################
#
#                 Cambridge Crystallographic Data Centre
#                                CCDC 
#
#######################################################################
#
# If this CIF has been generated from an entry in the Cambridge 
# Structural Database, then it will include bibliographic, chemical, 
# crystal, experimental, refinement or atomic coordinate data resulting 
# from the CCDC's data processing and validation procedures.
#
#######################################################################

data_HIKKOD
_chemical_formula_moiety         'C30 H39 B3 N8 O3'
_chemical_name_systematic        
2,4,6-triphenyl-2,4-bis(1,3,5,7-tetraazatricyclo[3.3.1.1^3,7^]dec-1-yl)-boroxin
_symmetry_cell_setting           monoclinic
_symmetry_space_group_name_H-M   'C 2/c'
_symmetry_Int_Tables_number      15
_space_group_name_Hall           '-C 2yn'
loop_
_symmetry_equiv_pos_site_id
_symmetry_equiv_pos_as_xyz
1 x,y,z
2 -x,y,1/2-z
3 1/2+x,1/2+y,z
4 1/2-x,1/2+y,1/2-z
5 -x,-y,-z
6 x,-y,1/2+z
7 1/2-x,1/2-y,-z
8 1/2+x,1/2-y,1/2+z
_cell_length_a                   17.0023(8)
_cell_length_b                   10.8153(5)
_cell_length_c                   16.3825(6)
_cell_angle_alpha                90
_cell_angle_beta                 103.504(4)
_cell_angle_gamma                90
_cell_volume                     2929.21
_exptl_crystal_colour            colorless
_exptl_crystal_description       blocks
_cell_formula_units_Z            4
_exptl_crystal_recrystallization_method methanol
loop_
_atom_site_label
_atom_site_type_symbol
_atom_site_fract_x
_atom_site_fract_y
_atom_site_fract_z
C1 C 0.15385(7) 0.78283(11) 0.31100(7)
C2 C 0.22004(8) 0.86267(12) 0.33630(8)
H1 H 0.2161 0.9431 0.3157
C3 C 0.29130(8) 0.82536(13) 0.39109(9)
H2 H 0.3343 0.8803 0.4064
C4 C 0.29825(8) 0.70618(14) 0.42298(9)
H3 H 0.3462 0.6803 0.4588
C5 C 0.23319(8) 0.62568(13) 0.40112(8)
H4 H 0.2370 0.5461 0.4232
C6 C 0.16222(7) 0.66429(12) 0.34606(8)
H5 H 0.1190 0.6095 0.3321
C7 C 0.0000 1.16904(16) 0.2500
C8 C 0.07004(8) 1.23603(12) 0.24787(8)
H6 H 0.1172 1.1937 0.2459
C9 C 0.07040(8) 1.36443(12) 0.24864(8)
H7 H 0.1177 1.4073 0.2482
C10 C 0.0000 1.42866(16) 0.2500
H8 H 0.0000 1.5147 0.2500
C11 C 0.16399(7) 0.84097(12) 0.13068(8)
H9 H 0.1676 0.9296 0.1399
H10 H 0.2085 0.8025 0.1706
C12 C 0.08108(8) 0.65748(11) 0.12870(8)
H11 H 0.1241 0.6164 0.1688
H12 H 0.0299 0.6255 0.1363
C13 C 0.01810(7) 0.85448(12) 0.08083(8)
H13 H -0.0337 0.8253 0.0882
H14 H 0.0201 0.9433 0.0892
C14 C 0.02254(8) 0.69166(13) -0.01615(8)
H15 H -0.0289 0.6601 -0.0093
H16 H 0.0267 0.6729 -0.0729
C15 C 0.10355(8) 0.87243(13) -0.01418(8)
H17 H 0.1061 0.9613 -0.0060
H18 H 0.1085 0.8556 -0.0709
C16 C 0.16595(8) 0.67941(13) 0.03259(9)
H19 H 0.1713 0.6607 -0.0237
H20 H 0.2102 0.6395 0.0719
B1 B 0.07280(8) 0.82869(13) 0.24487(8)
B2 B 0.0000 1.02340(18) 0.2500
N1 N 0.08511(6) 0.79467(9) 0.14607(6)
N2 N 0.17166(6) 0.81419(11) 0.04576(7)
N3 N 0.02473(7) 0.82705(11) -0.00419(7)
N4 N 0.08871(7) 0.62921(11) 0.04399(7)
O1 O 0.0000 0.76574(11) 0.2500
O2 O 0.06842(5) 0.96319(8) 0.24360(5)
C1A C -0.15385(7) 0.78283(11) 0.18900(7)
C2A C -0.22004(8) 0.86267(12) 0.16370(8)
H1A H -0.2161 0.9431 0.1843
C3A C -0.29130(8) 0.82536(13) 0.10891(9)
H2A H -0.3343 0.8803 0.0936
C4A C -0.29825(8) 0.70618(14) 0.07702(9)
H3A H -0.3462 0.6803 0.0412
C5A C -0.23319(8) 0.62568(13) 0.09888(8)
H4A H -0.2370 0.5461 0.0768
C6A C -0.16222(7) 0.66429(12) 0.15394(8)
H5A H -0.1190 0.6095 0.1679
C8A C -0.07004(8) 1.23603(12) 0.25213(8)
H6A H -0.1172 1.1937 0.2541
C9A C -0.07040(8) 1.36443(12) 0.25136(8)
H7A H -0.1177 1.4073 0.2518
C11A C -0.16399(7) 0.84097(12) 0.36932(8)
H9A H -0.1676 0.9296 0.3601
H10A H -0.2085 0.8025 0.3294
C12A C -0.08108(8) 0.65748(11) 0.37130(8)
H11A H -0.1241 0.6164 0.3312
H12A H -0.0299 0.6255 0.3637
C13A C -0.01810(7) 0.85448(12) 0.41917(8)
H13A H 0.0337 0.8253 0.4118
H14A H -0.0201 0.9433 0.4108
C14A C -0.02254(8) 0.69166(13) 0.51615(8)
H15A H 0.0289 0.6601 0.5093
H16A H -0.0267 0.6729 0.5729
C15A C -0.10355(8) 0.87243(13) 0.51418(8)
H17A H -0.1061 0.9613 0.5060
H18A H -0.1085 0.8556 0.5709
C16A C -0.16595(8) 0.67941(13) 0.46741(9)
H19A H -0.1713 0.6607 0.5237
H20A H -0.2102 0.6395 0.4281
B1A B -0.07280(8) 0.82869(13) 0.25513(8)
N1A N -0.08511(6) 0.79467(9) 0.35393(6)
N2A N -0.17166(6) 0.81419(11) 0.45424(7)
N3A N -0.02473(7) 0.82705(11) 0.50419(7)
N4A N -0.08871(7) 0.62921(11) 0.45601(7)
O2A O -0.06842(5) 0.96319(8) 0.25640(5)
loop_
_geom_bond_atom_site_label_1
_geom_bond_atom_site_label_2
_geom_bond_site_symmetry_1
_geom_bond_site_symmetry_2
C1 C2 1_555 1_555
C2 H1 1_555 1_555
C3 C2 1_555 1_555
H2 C3 1_555 1_555
C4 C3 1_555 1_555
H3 C4 1_555 1_555
C5 C4 1_555 1_555
H4 C5 1_555 1_555
C6 C1 1_555 1_555
H5 C6 1_555 1_555
C7 C8 1_555 1_555
C8 H6 1_555 1_555
C9 C8 1_555 1_555
H7 C9 1_555 1_555
C10 C9 1_555 1_555
H8 C10 1_555 1_555
C11 H9 1_555 1_555
H10 C11 1_555 1_555
C12 H11 1_555 1_555
H12 C12 1_555 1_555
C13 H13 1_555 1_555
H14 C13 1_555 1_555
C14 H15 1_555 1_555
H16 C14 1_555 1_555
C15 H17 1_555 1_555
H18 C15 1_555 1_555
C16 H19 1_555 1_555
H20 C16 1_555 1_555
B1 C1 1_555 1_555
B2 C7 1_555 1_555
N1 C11 1_555 1_555
N2 C11 1_555 1_555
N3 C13 1_555 1_555
N4 C12 1_555 1_555
O1 B1 1_555 1_555
O2 B1 1_555 1_555
C1A C2A 1_555 1_555
C2A H1A 1_555 1_555
C3A C2A 1_555 1_555
H2A C3A 1_555 1_555
C4A C3A 1_555 1_555
H3A C4A 1_555 1_555
C5A C4A 1_555 1_555
H4A C5A 1_555 1_555
C6A C1A 1_555 1_555
H5A C6A 1_555 1_555
C8A C7 1_555 1_555
H6A C8A 1_555 1_555
C9A C10 1_555 1_555
H7A C9A 1_555 1_555
C11A H9A 1_555 1_555
H10A C11A 1_555 1_555
C12A H11A 1_555 1_555
H12A C12A 1_555 1_555
C13A H13A 1_555 1_555
H14A C13A 1_555 1_555
C14A H15A 1_555 1_555
H16A C14A 1_555 1_555
C15A H17A 1_555 1_555
H18A C15A 1_555 1_555
C16A H19A 1_555 1_555
H20A C16A 1_555 1_555
B1A O1 1_555 1_555
N1A C11A 1_555 1_555
N2A C11A 1_555 1_555
N3A C13A 1_555 1_555
N4A C12A 1_555 1_555
O2A B2 1_555 1_555
C5 C6 1_555 1_555
C12 N1 1_555 1_555
C13 N1 1_555 1_555
C14 N3 1_555 1_555
C14 N4 1_555 1_555
C15 N2 1_555 1_555
C15 N3 1_555 1_555
C16 N2 1_555 1_555
C16 N4 1_555 1_555
B1 N1 1_555 1_555
B2 O2 1_555 1_555
C1A B1A 1_555 1_555
C5A C6A 1_555 1_555
C8A C9A 1_555 1_555
C12A N1A 1_555 1_555
C13A N1A 1_555 1_555
C14A N3A 1_555 1_555
C14A N4A 1_555 1_555
C15A N2A 1_555 1_555
C15A N3A 1_555 1_555
C16A N2A 1_555 1_555
C16A N4A 1_555 1_555
B1A N1A 1_555 1_555
B1A O2A 1_555 1_555

#END
