
#######################################################################
#
#                 Cambridge Crystallographic Data Centre
#                                CCDC 
#
#######################################################################
#
# If this CIF has been generated from an entry in the Cambridge 
# Structural Database, then it will include bibliographic, chemical, 
# crystal, experimental, refinement or atomic coordinate data resulting 
# from the CCDC's data processing and validation procedures.
#
#######################################################################

data_HIKPIC
_chemical_formula_moiety         'C19 H27 N3 O2'
_chemical_name_systematic        
N-t-Butyl-5-(t-butylamino)-2-(4-methylphenyl)-1,3-oxazole-4-carboxamide
_symmetry_cell_setting           monoclinic
_symmetry_space_group_name_H-M   'P 21/c'
_symmetry_Int_Tables_number      14
_space_group_name_Hall           '-P 2ybc'
loop_
_symmetry_equiv_pos_site_id
_symmetry_equiv_pos_as_xyz
1 x,y,z
2 -x,1/2+y,1/2-z
3 -x,-y,-z
4 x,1/2-y,1/2+z
_cell_length_a                   17.3134(5)
_cell_length_b                   11.3700(2)
_cell_length_c                   10.5016(3)
_cell_angle_alpha                90
_cell_angle_beta                 107.582(3)
_cell_angle_gamma                90
_cell_volume                     1970.7
_exptl_crystal_colour            colorless
_exptl_crystal_description       prismatic
_cell_formula_units_Z            4
loop_
_atom_site_label
_atom_site_type_symbol
_atom_site_fract_x
_atom_site_fract_y
_atom_site_fract_z
O1 O 0.27243(5) 0.69137(7) 0.19334(7)
O2 O 0.13655(5) 0.42299(8) 0.29424(9)
N1 N 0.32257(6) 0.59253(8) 0.38449(9)
N2 N 0.14630(6) 0.60224(10) 0.10127(10)
H1 H 0.1168(10) 0.5483(14) 0.1135(15)
N3 N 0.24392(7) 0.41085(10) 0.48362(10)
H2 H 0.2887(9) 0.4407(13) 0.5207(15)
C1 C 0.21674(6) 0.60839(9) 0.19852(11)
C2 C 0.33530(7) 0.67604(10) 0.31031(11)
C3 C 0.24690(7) 0.54692(9) 0.31485(10)
C4 C 0.12360(7) 0.66175(11) -0.02940(12)
C5 C 0.04248(10) 0.61048(17) -0.10825(17)
H3 H 0.0484 0.5277 -0.1210
H4 H 0.0236 0.6487 -0.1936
H5 H 0.0040 0.6225 -0.0601
C6 C 0.11631(11) 0.79344(14) -0.01111(18)
H6 H 0.0775 0.8081 0.0357
H7 H 0.0988 0.8309 -0.0970
H8 H 0.1680 0.8245 0.0395
C7 C 0.18671(10) 0.63668(15) -0.10095(14)
H9 H 0.2377 0.6702 -0.0509
H10 H 0.1694 0.6708 -0.1886
H11 H 0.1926 0.5532 -0.1083
C8 C 0.40437(7) 0.75466(10) 0.33248(11)
C9 C 0.40426(8) 0.84767(12) 0.24687(14)
H12 H 0.3600 0.8592 0.1714
C10 C 0.46981(9) 0.92320(13) 0.27361(15)
H13 H 0.4688 0.9854 0.2156
C11 C 0.53667(8) 0.90864(12) 0.38392(14)
C12 C 0.53712(9) 0.81415(15) 0.46685(15)
H14 H 0.5821 0.8017 0.5409
C13 C 0.47197(8) 0.73757(13) 0.44196(13)
H15 H 0.4737 0.6744 0.4991
C14 C 0.60721(10) 0.99305(16) 0.41353(19)
H16 H 0.6347 0.9935 0.5078
H17 H 0.5877 1.0707 0.3851
H18 H 0.6442 0.9686 0.3665
C15 C 0.20435(7) 0.45503(10) 0.36284(11)
C16 C 0.21220(9) 0.32852(11) 0.56380(12)
C17 C 0.28124(12) 0.30803(17) 0.69215(16)
H19 H 0.3278 0.2789 0.6705
H20 H 0.2647 0.2515 0.7466
H21 H 0.2947 0.3808 0.7401
C18 C 0.13961(12) 0.38200(17) 0.59473(18)
H22 H 0.1550 0.4554 0.6406
H23 H 0.1208 0.3291 0.6502
H24 H 0.0970 0.3953 0.5129
C19 C 0.18869(13) 0.21279(13) 0.49021(17)
H25 H 0.1448 0.2257 0.4100
H26 H 0.1721 0.1580 0.5464
H27 H 0.2344 0.1814 0.4676
loop_
_geom_bond_atom_site_label_1
_geom_bond_atom_site_label_2
_geom_bond_site_symmetry_1
_geom_bond_site_symmetry_2
O1 C1 1_555 1_555
O2 C15 1_555 1_555
N1 C2 1_555 1_555
N2 H1 1_555 1_555
N3 H2 1_555 1_555
C1 N2 1_555 1_555
C2 O1 1_555 1_555
C3 N1 1_555 1_555
C4 N2 1_555 1_555
C5 C4 1_555 1_555
H3 C5 1_555 1_555
H4 C5 1_555 1_555
H5 C5 1_555 1_555
C6 C4 1_555 1_555
H6 C6 1_555 1_555
H7 C6 1_555 1_555
H8 C6 1_555 1_555
C7 C4 1_555 1_555
H9 C7 1_555 1_555
H10 C7 1_555 1_555
H11 C7 1_555 1_555
C8 C2 1_555 1_555
C9 C8 1_555 1_555
H12 C9 1_555 1_555
C10 C9 1_555 1_555
H13 C10 1_555 1_555
C11 C10 1_555 1_555
C12 C11 1_555 1_555
H14 C12 1_555 1_555
C13 C8 1_555 1_555
H15 C13 1_555 1_555
C14 C11 1_555 1_555
H16 C14 1_555 1_555
H17 C14 1_555 1_555
H18 C14 1_555 1_555
C15 N3 1_555 1_555
C16 N3 1_555 1_555
C17 C16 1_555 1_555
H19 C17 1_555 1_555
H20 C17 1_555 1_555
H21 C17 1_555 1_555
C18 C16 1_555 1_555
H22 C18 1_555 1_555
H23 C18 1_555 1_555
H24 C18 1_555 1_555
C19 C16 1_555 1_555
H25 C19 1_555 1_555
H26 C19 1_555 1_555
H27 C19 1_555 1_555
C1 C3 1_555 1_555
C3 C15 1_555 1_555
C12 C13 1_555 1_555

#END
