
#######################################################################
#
#                 Cambridge Crystallographic Data Centre
#                                CCDC 
#
#######################################################################
#
# If this CIF has been generated from an entry in the Cambridge 
# Structural Database, then it will include bibliographic, chemical, 
# crystal, experimental, refinement or atomic coordinate data resulting 
# from the CCDC's data processing and validation procedures.
#
#######################################################################

data_HIKWOQ
_chemical_formula_moiety         'C16 H28 O2'
_chemical_name_systematic        
\a-7-(2-hydroxyethyl)-1,5,7-trimethyldecahydrocyclobuta[d]inden-1-ol
_symmetry_cell_setting           orthorhombic
_symmetry_space_group_name_H-M   'P 21 21 21'
_symmetry_Int_Tables_number      19
_space_group_name_Hall           'P 2ac 2ab'
loop_
_symmetry_equiv_pos_site_id
_symmetry_equiv_pos_as_xyz
1 x,y,z
2 1/2-x,-y,1/2+z
3 -x,1/2+y,1/2-z
4 1/2+x,1/2-y,-z
_cell_length_a                   9.58390(10)
_cell_length_b                   12.70300(10)
_cell_length_c                   24.8305(3)
_cell_angle_alpha                90
_cell_angle_beta                 90
_cell_angle_gamma                90
_cell_volume                     3022.97
_exptl_crystal_colour            colorless
_exptl_crystal_description       needle
_cell_formula_units_Z            8
loop_
_atom_site_label
_atom_site_type_symbol
_atom_site_fract_x
_atom_site_fract_y
_atom_site_fract_z
C1 C 0.00534(17) 0.90693(13) 0.34671(6)
H1 H 0.0267 0.9790 0.3354
C2 C 0.00036(17) 0.89202(13) 0.40946(7)
C3 C 0.12885(17) 0.83402(13) 0.43238(7)
H2 H 0.1174 0.7576 0.4290
C4 C 0.25602(18) 0.87134(14) 0.40033(7)
H3 H 0.3399 0.8443 0.4173
H4 H 0.2602 0.9476 0.4016
C5 C 0.25326(17) 0.83562(13) 0.34059(6)
C6 C 0.10011(17) 0.82428(13) 0.32199(6)
H5 H 0.0962 0.8301 0.2831
H6 H 0.0663 0.7549 0.3318
C7 C -0.15293(17) 0.87924(13) 0.34453(7)
C8 C -0.13888(18) 0.83085(15) 0.40141(7)
H7 H -0.1277 0.7550 0.4013
H8 H -0.2123 0.8520 0.4260
C9 C -0.0114(2) 0.99312(15) 0.44440(8)
H9 H 0.0078 1.0550 0.4227
H10 H -0.1048 0.9994 0.4591
C10 C 0.0964(2) 0.98361(15) 0.49026(7)
H11 H 0.1779 1.0265 0.4828
H12 H 0.0563 1.0058 0.5243
C11 C 0.13522(19) 0.86634(14) 0.49191(7)
H13 H 0.2303 0.8576 0.5057
C12 C 0.32975(19) 0.91804(15) 0.30653(7)
H14 H 0.3353 0.8942 0.2699
H15 H 0.4222 0.9282 0.3205
H16 H 0.2797 0.9834 0.3078
C13 C -0.2452(2) 0.97600(16) 0.34198(8)
H17 H -0.2418 1.0053 0.3064
H18 H -0.2127 1.0273 0.3675
H19 H -0.3395 0.9567 0.3505
O1 O -0.19448(13) 0.80441(10) 0.30486(5)
H20 H -0.241(3) 0.834(2) 0.2788(12)
C14 C 0.0325(2) 0.80364(19) 0.52640(8)
H21 H -0.0610 0.8172 0.5144
H22 H 0.0417 0.8245 0.5634
H23 H 0.0524 0.7299 0.5231
C15 C 0.32826(17) 0.72864(14) 0.33663(7)
H24 H 0.4257 0.7390 0.3457
H25 H 0.2887 0.6818 0.3634
C16 C 0.32056(19) 0.67457(15) 0.28198(7)
H26 H 0.2241 0.6575 0.2739
H27 H 0.3538 0.7224 0.2544
O2 O 0.40191(14) 0.58087(10) 0.28086(6)
H28 H 0.486(3) 0.595(2) 0.2899(12)
C17 C 1.17331(18) 0.31958(13) 0.34819(6)
H29 H 1.1336 0.2486 0.3465
C18 C 1.21915(18) 0.35083(13) 0.40658(6)
C19 C 1.13331(18) 0.43481(13) 0.43778(6)
H30 H 1.2005 0.4871 0.4509
C20 C 1.02325(18) 0.49592(13) 0.40509(7)
H31 H 1.0659 0.5602 0.3919
H32 H 0.9483 0.5160 0.4293
C21 C 0.95913(18) 0.43715(13) 0.35677(7)
C22 C 1.08088(17) 0.40132(14) 0.32112(6)
H33 H 1.0439 0.3720 0.2880
H34 H 1.1372 0.4621 0.3118
C23 C 1.32925(18) 0.32260(13) 0.33056(6)
C24 C 1.36117(18) 0.38671(14) 0.38207(7)
H35 H 1.3672 0.4620 0.3760
H36 H 1.4418 0.3615 0.4018
C25 C 1.2308(2) 0.25670(15) 0.44611(8)
H37 H 1.1687 0.2002 0.4353
H38 H 1.3256 0.2299 0.4469
C26 C 1.1890(2) 0.29957(16) 0.50127(7)
H39 H 1.1539 0.2439 0.5243
H40 H 1.2674 0.3335 0.5189
C27 C 1.0749(2) 0.37888(15) 0.48804(7)
H41 H 0.9903 0.3404 0.4778
C28 C 0.8701(2) 0.34216(15) 0.37384(8)
H42 H 0.8005 0.3646 0.3992
H43 H 0.9288 0.2900 0.3902
H44 H 0.8253 0.3126 0.3427
C29 C 1.3965(2) 0.21446(15) 0.32871(8)
H45 H 1.3650 0.1776 0.2972
H46 H 1.3708 0.1755 0.3603
H47 H 1.4961 0.2220 0.3274
O3 O 1.36045(14) 0.37093(10) 0.28013(5)
H48 H 1.366(3) 0.438(2) 0.2834(11)
C30 C 1.0391(2) 0.45424(19) 0.53355(7)
H49 H 1.1191 0.4967 0.5419
H50 H 1.0123 0.4148 0.5649
H51 H 0.9633 0.4988 0.5227
C31 C 0.86866(18) 0.51405(14) 0.32372(7)
H52 H 0.9239 0.5762 0.3160
H53 H 0.8466 0.4810 0.2895
C32 C 0.7329(2) 0.54890(16) 0.34998(9)
H54 H 0.6737 0.4879 0.3557
H55 H 0.7530 0.5797 0.3849
O4 O 0.66073(15) 0.62342(11) 0.31784(7)
H56 H 0.708(4) 0.682(3) 0.3146(14)
loop_
_geom_bond_atom_site_label_1
_geom_bond_atom_site_label_2
_geom_bond_site_symmetry_1
_geom_bond_site_symmetry_2
C1 H1 1_555 1_555
C2 C1 1_555 1_555
C3 C2 1_555 1_555
H2 C3 1_555 1_555
C4 C3 1_555 1_555
H3 C4 1_555 1_555
H4 C4 1_555 1_555
C5 C4 1_555 1_555
C6 C1 1_555 1_555
H5 C6 1_555 1_555
H6 C6 1_555 1_555
C7 C1 1_555 1_555
C8 C2 1_555 1_555
H7 C8 1_555 1_555
H8 C8 1_555 1_555
C9 C2 1_555 1_555
H9 C9 1_555 1_555
H10 C9 1_555 1_555
C10 C9 1_555 1_555
H11 C10 1_555 1_555
H12 C10 1_555 1_555
C11 C3 1_555 1_555
H13 C11 1_555 1_555
C12 C5 1_555 1_555
H14 C12 1_555 1_555
H15 C12 1_555 1_555
H16 C12 1_555 1_555
C13 C7 1_555 1_555
H17 C13 1_555 1_555
H18 C13 1_555 1_555
H19 C13 1_555 1_555
O1 C7 1_555 1_555
H20 O1 1_555 1_555
C14 C11 1_555 1_555
H21 C14 1_555 1_555
H22 C14 1_555 1_555
H23 C14 1_555 1_555
C15 C5 1_555 1_555
H24 C15 1_555 1_555
H25 C15 1_555 1_555
C16 C15 1_555 1_555
H26 C16 1_555 1_555
H27 C16 1_555 1_555
O2 C16 1_555 1_555
H28 O2 1_555 1_555
C17 H29 1_555 1_555
C18 C17 1_555 1_555
C19 C18 1_555 1_555
H30 C19 1_555 1_555
C20 C19 1_555 1_555
H31 C20 1_555 1_555
H32 C20 1_555 1_555
C21 C20 1_555 1_555
C22 C17 1_555 1_555
H33 C22 1_555 1_555
H34 C22 1_555 1_555
C23 C17 1_555 1_555
C24 C18 1_555 1_555
H35 C24 1_555 1_555
H36 C24 1_555 1_555
C25 C18 1_555 1_555
H37 C25 1_555 1_555
H38 C25 1_555 1_555
C26 C25 1_555 1_555
H39 C26 1_555 1_555
H40 C26 1_555 1_555
C27 C19 1_555 1_555
H41 C27 1_555 1_555
C28 C21 1_555 1_555
H42 C28 1_555 1_555
H43 C28 1_555 1_555
H44 C28 1_555 1_555
C29 C23 1_555 1_555
H45 C29 1_555 1_555
H46 C29 1_555 1_555
H47 C29 1_555 1_555
O3 C23 1_555 1_555
H48 O3 1_555 1_555
C30 C27 1_555 1_555
H49 C30 1_555 1_555
H50 C30 1_555 1_555
H51 C30 1_555 1_555
C31 C21 1_555 1_555
H52 C31 1_555 1_555
H53 C31 1_555 1_555
C32 C31 1_555 1_555
H54 C32 1_555 1_555
H55 C32 1_555 1_555
O4 C32 1_555 1_555
H56 O4 1_555 1_555
C5 C6 1_555 1_555
C7 C8 1_555 1_555
C10 C11 1_555 1_555
C21 C22 1_555 1_555
C23 C24 1_555 1_555
C26 C27 1_555 1_555

#END
