
#######################################################################
#
#                 Cambridge Crystallographic Data Centre
#                                CCDC 
#
#######################################################################
#
# If this CIF has been generated from an entry in the Cambridge 
# Structural Database, then it will include bibliographic, chemical, 
# crystal, experimental, refinement or atomic coordinate data resulting 
# from the CCDC's data processing and validation procedures.
#
#######################################################################

data_HIKXAD
_chemical_formula_moiety         'C27 H26 O4'
_chemical_name_systematic        
6',7'-dimethoxy-4'-[2-(2-methylphenyl)ethenyl]-3',4'-dihydro-3H-spiro[2-benzofuran-1,2'-[1]benzopyran]
_symmetry_cell_setting           orthorhombic
_symmetry_space_group_name_H-M   'F d d 2'
_symmetry_Int_Tables_number      43
_space_group_name_Hall           'F 2 -2d'
loop_
_symmetry_equiv_pos_site_id
_symmetry_equiv_pos_as_xyz
1 x,y,z
2 -x,-y,z
3 1/4+x,1/4-y,1/4+z
4 1/4-x,1/4+y,1/4+z
5 x,1/2+y,1/2+z
6 -x,1/2-y,1/2+z
7 1/4+x,3/4-y,3/4+z
8 1/4-x,3/4+y,3/4+z
9 1/2+x,y,1/2+z
10 1/2-x,-y,1/2+z
11 3/4+x,1/4-y,3/4+z
12 3/4-x,1/4+y,3/4+z
13 1/2+x,1/2+y,z
14 1/2-x,1/2-y,z
15 3/4+x,3/4-y,1/4+z
16 3/4-x,3/4+y,1/4+z
_cell_length_a                   23.367(12)
_cell_length_b                   70.70(4)
_cell_length_c                   5.211(3)
_cell_angle_alpha                90
_cell_angle_beta                 90
_cell_angle_gamma                90
_cell_volume                     8608.82
_exptl_crystal_colour            colorless
_exptl_crystal_description       block
_cell_formula_units_Z            16
loop_
_atom_site_label
_atom_site_type_symbol
_atom_site_fract_x
_atom_site_fract_y
_atom_site_fract_z
O1 O 0.86803(16) 0.28793(5) 0.6749(8)
O2 O 0.84697(14) 0.29675(5) 0.2571(7)
O3 O 0.84500(17) 0.36017(5) -0.0384(9)
O4 O 0.76944(17) 0.36993(5) 0.2940(9)
C1 C 0.8335(2) 0.28354(7) 0.4530(13)
C2 C 0.8565(2) 0.26488(8) 0.3658(12)
C3 C 0.8359(3) 0.25341(8) 0.1757(13)
H1 H 0.802777 0.256453 0.086156
C4 C 0.8664(3) 0.23706(9) 0.1218(14)
H2 H 0.853034 0.228751 -0.002891
C5 C 0.9161(3) 0.23304(9) 0.2512(15)
H3 H 0.936685 0.222229 0.208436
C6 C 0.9358(3) 0.24444(9) 0.4390(15)
H4 H 0.969190 0.241506 0.527338
C7 C 0.9051(3) 0.26061(8) 0.4973(13)
C8 C 0.9165(2) 0.27545(8) 0.6879(14)
H5 H 0.920044 0.270049 0.858267
H6 H 0.951470 0.282170 0.646812
C9 C 0.7729(2) 0.28487(7) 0.5275(13)
H7 H 0.764920 0.275460 0.658126
H8 H 0.749210 0.282034 0.379610
C10 C 0.7568(2) 0.30443(7) 0.6307(11)
H9 H 0.774622 0.305998 0.799701
C11 C 0.7816(2) 0.31911(7) 0.4518(11)
C12 C 0.7628(2) 0.33789(8) 0.4583(12)
H10 H 0.734639 0.341375 0.575436
C13 C 0.7849(2) 0.35127(7) 0.2954(13)
C14 C 0.8267(2) 0.34614(8) 0.1175(12)
C15 C 0.8460(2) 0.32777(7) 0.1106(11)
H11 H 0.873975 0.324205 -0.006738
C16 C 0.8236(2) 0.31470(7) 0.2788(11)
C17 C 0.8881(2) 0.35560(8) -0.2213(13)
H12 H 0.874755 0.345605 -0.330585
H13 H 0.922103 0.351549 -0.133302
H14 H 0.896660 0.366554 -0.323127
C18 C 0.7381(3) 0.37643(9) 0.5092(15)
H15 H 0.732777 0.389859 0.496518
H16 H 0.758754 0.373532 0.663429
H17 H 0.701432 0.370295 0.513408
C19 C 0.6940(2) 0.30662(7) 0.6605(12)
H18 H 0.671553 0.303033 0.521410
C20 C 0.6670(2) 0.31307(7) 0.8621(12)
H19 H 0.689614 0.316592 1.000916
C21 C 0.6046(2) 0.31541(8) 0.8945(12)
C22 C 0.5673(3) 0.30458(8) 0.7498(14)
H20 H 0.582433 0.296028 0.632388
C23 C 0.5090(3) 0.30595(10) 0.7724(16)
H21 H 0.484771 0.298632 0.671394
C24 C 0.4876(3) 0.31844(11) 0.9485(17)
H22 H 0.448173 0.319430 0.970354
C25 C 0.5226(3) 0.32932(9) 1.0905(14)
H23 H 0.506899 0.337682 1.208890
C26 C 0.5817(3) 0.32838(8) 1.0649(13)
C27 C 0.6177(3) 0.34108(8) 1.2267(15)
H24 H 0.638141 0.333673 1.350784
H25 H 0.593612 0.350031 1.313704
H26 H 0.644415 0.347721 1.119731
loop_
_geom_bond_atom_site_label_1
_geom_bond_atom_site_label_2
_geom_bond_site_symmetry_1
_geom_bond_site_symmetry_2
O1 C1 1_555 1_555
O2 C1 1_555 1_555
O3 C14 1_555 1_555
O4 C13 1_555 1_555
C1 C2 1_555 1_555
C2 C3 1_555 1_555
C3 H1 1_555 1_555
C4 C3 1_555 1_555
H2 C4 1_555 1_555
C5 C4 1_555 1_555
H3 C5 1_555 1_555
C6 C5 1_555 1_555
H4 C6 1_555 1_555
C7 C2 1_555 1_555
C8 O1 1_555 1_555
H5 C8 1_555 1_555
H6 C8 1_555 1_555
C9 C1 1_555 1_555
H7 C9 1_555 1_555
H8 C9 1_555 1_555
C10 C9 1_555 1_555
H9 C10 1_555 1_555
C11 C10 1_555 1_555
C12 C11 1_555 1_555
H10 C12 1_555 1_555
C13 C12 1_555 1_555
C14 C13 1_555 1_555
C15 C14 1_555 1_555
H11 C15 1_555 1_555
C16 O2 1_555 1_555
C17 O3 1_555 1_555
H12 C17 1_555 1_555
H13 C17 1_555 1_555
H14 C17 1_555 1_555
C18 O4 1_555 1_555
H15 C18 1_555 1_555
H16 C18 1_555 1_555
H17 C18 1_555 1_555
C19 C10 1_555 1_555
H18 C19 1_555 1_555
C20 C19 1_555 1_555
H19 C20 1_555 1_555
C21 C20 1_555 1_555
C22 C21 1_555 1_555
H20 C22 1_555 1_555
C23 C22 1_555 1_555
H21 C23 1_555 1_555
C24 C23 1_555 1_555
H22 C24 1_555 1_555
C25 C24 1_555 1_555
H23 C25 1_555 1_555
C26 C21 1_555 1_555
C27 C26 1_555 1_555
H24 C27 1_555 1_555
H25 C27 1_555 1_555
H26 C27 1_555 1_555
C6 C7 1_555 1_555
C7 C8 1_555 1_555
C11 C16 1_555 1_555
C15 C16 1_555 1_555
C25 C26 1_555 1_555

#END
