
#######################################################################
#
#                 Cambridge Crystallographic Data Centre
#                                CCDC 
#
#######################################################################
#
# If this CIF has been generated from an entry in the Cambridge 
# Structural Database, then it will include bibliographic, chemical, 
# crystal, experimental, refinement or atomic coordinate data resulting 
# from the CCDC's data processing and validation procedures.
#
#######################################################################

data_HILGOB
_chemical_formula_moiety         'C29 H29 N1 O4,x(C6 H14)'
_chemical_name_systematic        
'1-{[4-(dimethylamino)phenyl](phenyl)methyl}-6,6-dimethyl-2-phenyl-5,7-dioxaspiro[2.5]octane-4,8-dione n-hexane solvate'
_symmetry_cell_setting           hexagonal
_symmetry_space_group_name_H-M   'P 65'
_symmetry_Int_Tables_number      170
_space_group_name_Hall           'P 65'
loop_
_symmetry_equiv_pos_site_id
_symmetry_equiv_pos_as_xyz
1 x,y,z
2 -y,x-y,2/3+z
3 -x+y,-x,1/3+z
4 -x,-y,1/2+z
5 y,-x+y,1/6+z
6 x-y,x,5/6+z
_cell_length_a                   26.7901(6)
_cell_length_b                   26.7901(6)
_cell_length_c                   5.99210(10)
_cell_angle_alpha                90
_cell_angle_beta                 90
_cell_angle_gamma                120
_cell_volume                     3724.42
_exptl_crystal_colour            colorless
_exptl_crystal_description       rod
_cell_formula_units_Z            6
loop_
_atom_site_label
_atom_site_type_symbol
_atom_site_fract_x
_atom_site_fract_y
_atom_site_fract_z
O1 O 0.38961(8) 0.57997(8) 0.9560(3)
O2 O 0.33463(8) 0.58074(8) 0.6502(3)
O3 O 0.26414(9) 0.50063(8) 0.5056(4)
O4 O 0.36663(8) 0.49932(8) 1.1318(3)
N1 N 0.20913(16) 0.16454(14) 0.6493(8)
C1 C 0.39168(11) 0.60775(12) 0.7465(4)
C2 C 0.30437(11) 0.52232(11) 0.6300(4)
C3 C 0.32408(11) 0.49031(11) 0.7738(4)
C4 C 0.36144(11) 0.52193(11) 0.9677(4)
C5 C 0.28681(11) 0.42504(11) 0.8057(4)
H1 H 0.2951 0.4118 0.9499
C6 C 0.33507(11) 0.44501(10) 0.6458(4)
H2 H 0.3216 0.4397 0.4873
C7 C 0.22513(11) 0.38624(11) 0.7289(4)
H3 H 0.2210 0.3991 0.5768
C8 C 0.21842(11) 0.32640(12) 0.7075(5)
C9 C 0.23389(13) 0.30983(13) 0.5125(6)
H4 H 0.2462 0.3353 0.3882
C10 C 0.23191(14) 0.25731(14) 0.4930(6)
H5 H 0.2432 0.2477 0.3568
C11 C 0.21353(13) 0.21842(14) 0.6703(7)
C12 C 0.19836(14) 0.23484(13) 0.8688(6)
H6 H 0.1861 0.2096 0.9935
C13 C 0.20106(13) 0.28804(13) 0.8849(5)
H7 H 0.1907 0.2984 1.0217
C14 C 0.17946(12) 0.38652(11) 0.8793(5)
C15 C 0.19204(12) 0.41676(12) 1.0795(5)
H8 H 0.2310 0.4396 1.1257
C16 C 0.14809(12) 0.41397(12) 1.2132(5)
H9 H 0.1573 0.4350 1.3490
C17 C 0.09112(12) 0.38054(12) 1.1484(5)
H10 H 0.0610 0.3780 1.2402
C18 C 0.07842(12) 0.35076(12) 0.9481(5)
H11 H 0.0394 0.3281 0.9021
C19 C 0.12166(12) 0.35370(12) 0.8150(5)
H12 H 0.1122 0.3332 0.6778
C20 C 0.38705(11) 0.43861(11) 0.6728(4)
C21 C 0.42628(11) 0.45609(11) 0.4961(4)
H13 H 0.4210 0.4743 0.3696
C22 C 0.47296(11) 0.44701(11) 0.5038(5)
H14 H 0.4995 0.4593 0.3831
C23 C 0.48110(12) 0.42015(11) 0.6859(5)
H15 H 0.5130 0.4138 0.6907
C24 C 0.44205(12) 0.40252(12) 0.8619(5)
H16 H 0.4472 0.3838 0.9870
C25 C 0.39566(12) 0.41206(12) 0.8565(5)
H17 H 0.3697 0.4004 0.9789
C26 C 0.40719(13) 0.66847(12) 0.8034(5)
H18 H 0.4096 0.6895 0.6661
H19 H 0.4445 0.6877 0.8801
H20 H 0.3775 0.6678 0.9012
C27 C 0.43367(12) 0.60438(13) 0.5881(5)
H21 H 0.4344 0.6233 0.4472
H22 H 0.4216 0.5639 0.5597
H23 H 0.4723 0.6238 0.6546
C28 C 0.1852(3) 0.1244(2) 0.8187(9)
H24 H 0.1840 0.0886 0.7734
H25 H 0.1460 0.1166 0.8493
H26 H 0.2088 0.1395 0.9537
C29 C 0.22994(19) 0.15025(18) 0.4550(8)
H27 H 0.2258 0.1120 0.4737
H28 H 0.2707 0.1789 0.4328
H29 H 0.2076 0.1500 0.3249
loop_
_geom_bond_atom_site_label_1
_geom_bond_atom_site_label_2
_geom_bond_site_symmetry_1
_geom_bond_site_symmetry_2
O1 C1 1_555 1_555
O2 C1 1_555 1_555
O3 C2 1_555 1_555
O4 C4 1_555 1_555
N1 C11 1_555 1_555
C1 C26 1_555 1_555
C2 O2 1_555 1_555
C3 C2 1_555 1_555
C4 O1 1_555 1_555
C5 C3 1_555 1_555
H1 C5 1_555 1_555
C6 C3 1_555 1_555
H2 C6 1_555 1_555
C7 C5 1_555 1_555
H3 C7 1_555 1_555
C8 C7 1_555 1_555
C9 C8 1_555 1_555
H4 C9 1_555 1_555
C10 C9 1_555 1_555
H5 C10 1_555 1_555
C11 C10 1_555 1_555
C12 C11 1_555 1_555
H6 C12 1_555 1_555
C13 C8 1_555 1_555
H7 C13 1_555 1_555
C14 C7 1_555 1_555
C15 C14 1_555 1_555
H8 C15 1_555 1_555
C16 C15 1_555 1_555
H9 C16 1_555 1_555
C17 C16 1_555 1_555
H10 C17 1_555 1_555
C18 C17 1_555 1_555
H11 C18 1_555 1_555
C19 C14 1_555 1_555
H12 C19 1_555 1_555
C20 C6 1_555 1_555
C21 C20 1_555 1_555
H13 C21 1_555 1_555
C22 C21 1_555 1_555
H14 C22 1_555 1_555
C23 C22 1_555 1_555
H15 C23 1_555 1_555
C24 C23 1_555 1_555
H16 C24 1_555 1_555
C25 C20 1_555 1_555
H17 C25 1_555 1_555
C26 H18 1_555 1_555
H19 C26 1_555 1_555
H20 C26 1_555 1_555
C27 C1 1_555 1_555
H21 C27 1_555 1_555
H22 C27 1_555 1_555
H23 C27 1_555 1_555
C28 N1 1_555 1_555
H24 C28 1_555 1_555
H25 C28 1_555 1_555
H26 C28 1_555 1_555
C29 N1 1_555 1_555
H27 C29 1_555 1_555
H28 C29 1_555 1_555
H29 C29 1_555 1_555
C3 C4 1_555 1_555
C5 C6 1_555 1_555
C12 C13 1_555 1_555
C18 C19 1_555 1_555
C24 C25 1_555 1_555

#END
