
#######################################################################
#
#                 Cambridge Crystallographic Data Centre
#                                CCDC 
#
#######################################################################
#
# If this CIF has been generated from an entry in the Cambridge 
# Structural Database, then it will include bibliographic, chemical, 
# crystal, experimental, refinement or atomic coordinate data resulting 
# from the CCDC's data processing and validation procedures.
#
#######################################################################

data_HILGIV
_chemical_formula_moiety         'C9 H8 F1 N3 O4 S1'
_chemical_name_systematic        
'5-(4-nitrophenyl)-4,5-dihydro-1H-pyrazole-3-sulfonyl fluoride'
_symmetry_cell_setting           triclinic
_symmetry_space_group_name_H-M   'P -1'
_symmetry_Int_Tables_number      2
_space_group_name_Hall           '-P 1'
loop_
_symmetry_equiv_pos_site_id
_symmetry_equiv_pos_as_xyz
1 x,y,z
2 -x,-y,-z
_cell_length_a                   9.0211(4)
_cell_length_b                   9.8773(5)
_cell_length_c                   12.0584(6)
_cell_angle_alpha                90.0808(16)
_cell_angle_beta                 99.2615(16)
_cell_angle_gamma                91.3378(16)
_cell_volume                     1060.14
_exptl_crystal_colour            colorless
_exptl_crystal_description       block
_cell_formula_units_Z            4
loop_
_atom_site_label
_atom_site_type_symbol
_atom_site_fract_x
_atom_site_fract_y
_atom_site_fract_z
C1 C -0.00126(19) 0.01138(17) 0.25795(14)
C2 C 0.0264(2) 0.15440(17) 0.30041(14)
H1 H 0.1346 0.1800 0.3123
H2 H -0.0147 0.1693 0.3707
C3 C -0.06314(19) 0.23112(17) 0.19947(14)
H3 H -0.1311 0.2968 0.2279
C4 C 0.03746(18) 0.30581(17) 0.12945(14)
C5 C 0.07673(19) 0.44091(17) 0.15665(14)
H4 H 0.0383 0.4836 0.2163
C6 C 0.17146(19) 0.51325(17) 0.09717(14)
H5 H 0.1987 0.6051 0.1152
C7 C 0.22520(19) 0.44737(17) 0.01047(14)
C8 C 0.1882(2) 0.31379(18) -0.01923(15)
H6 H 0.2268 0.2717 -0.0791
C9 C 0.0929(2) 0.24321(17) 0.04104(15)
H7 H 0.0651 0.1517 0.0220
N1 N 0.32159(17) 0.52454(16) -0.05512(12)
N2 N -0.15399(17) 0.12043(15) 0.13797(13)
H8 H -0.191(2) 0.127(2) 0.0690(19)
N3 N -0.10050(17) -0.00296(15) 0.16817(12)
O1 O 0.22066(15) -0.09507(14) 0.38531(11)
O2 O 0.05046(16) -0.24829(13) 0.25817(12)
O3 O 0.38870(17) 0.46353(15) -0.11926(13)
O4 O 0.33016(16) 0.64852(14) -0.04257(12)
F1 F -0.02615(14) -0.14573(12) 0.41844(9)
S1 S 0.07576(5) -0.13020(4) 0.32513(3)
C10 C 0.50484(19) 0.01778(17) 0.24271(14)
C11 C 0.4784(2) 0.15998(17) 0.20201(14)
H9 H 0.3703 0.1813 0.1894
H10 H 0.5208 0.1776 0.1325
C12 C 0.56676(19) 0.23869(17) 0.30440(14)
H11 H 0.6342 0.3088 0.2774
C13 C 0.46465(19) 0.30598(17) 0.37527(14)
C14 C 0.4151(2) 0.43625(18) 0.34429(15)
H12 H 0.4470 0.4793 0.2815
C15 C 0.3198(2) 0.50268(18) 0.40465(15)
H13 H 0.2848 0.5904 0.3836
C16 C 0.27727(19) 0.43718(18) 0.49659(14)
C17 C 0.3243(2) 0.30875(18) 0.52971(15)
H14 H 0.2935 0.2669 0.5935
C18 C 0.4177(2) 0.24268(17) 0.46715(15)
H15 H 0.4497 0.1538 0.4872
N4 N 0.18520(18) 0.51051(16) 0.56593(13)
N5 N 0.65865(17) 0.13074(15) 0.36384(13)
H16 H 0.692(3) 0.139(3) 0.435(2)
N6 N 0.60365(17) 0.00567(15) 0.33230(12)
O5 O 0.44837(16) -0.24421(13) 0.23740(12)
O6 O 0.28125(15) -0.09273(14) 0.11321(11)
O7 O 0.16164(19) 0.45854(16) 0.65363(14)
O8 O 0.13961(18) 0.62295(15) 0.53433(13)
F2 F 0.52796(13) -0.13504(12) 0.07950(9)
S2 S 0.42547(5) -0.12515(4) 0.17263(3)
loop_
_geom_bond_atom_site_label_1
_geom_bond_atom_site_label_2
_geom_bond_site_symmetry_1
_geom_bond_site_symmetry_2
C1 C2 1_555 1_555
C2 H1 1_555 1_555
H2 C2 1_555 1_555
C3 C2 1_555 1_555
H3 C3 1_555 1_555
C4 C3 1_555 1_555
C5 C4 1_555 1_555
H4 C5 1_555 1_555
C6 C5 1_555 1_555
H5 C6 1_555 1_555
C7 C6 1_555 1_555
C8 C7 1_555 1_555
H6 C8 1_555 1_555
C9 C4 1_555 1_555
H7 C9 1_555 1_555
N1 C7 1_555 1_555
N2 C3 1_555 1_555
H8 N2 1_555 1_555
N3 C1 1_555 1_555
O1 S1 1_555 1_555
O2 S1 1_555 1_555
O3 N1 1_555 1_555
O4 N1 1_555 1_555
F1 S1 1_555 1_555
S1 C1 1_555 1_555
C10 C11 1_555 1_555
C11 H9 1_555 1_555
H10 C11 1_555 1_555
C12 C11 1_555 1_555
H11 C12 1_555 1_555
C13 C12 1_555 1_555
C14 C13 1_555 1_555
H12 C14 1_555 1_555
C15 C14 1_555 1_555
H13 C15 1_555 1_555
C16 C15 1_555 1_555
C17 C16 1_555 1_555
H14 C17 1_555 1_555
C18 C13 1_555 1_555
H15 C18 1_555 1_555
N4 C16 1_555 1_555
N5 C12 1_555 1_555
H16 N5 1_555 1_555
N6 C10 1_555 1_555
O5 S2 1_555 1_555
O6 S2 1_555 1_555
O7 N4 1_555 1_555
O8 N4 1_555 1_555
F2 S2 1_555 1_555
S2 C10 1_555 1_555
C8 C9 1_555 1_555
N2 N3 1_555 1_555
C17 C18 1_555 1_555
N5 N6 1_555 1_555

#END
