
#######################################################################
#
#                 Cambridge Crystallographic Data Centre
#                                CCDC 
#
#######################################################################
#
# If this CIF has been generated from an entry in the Cambridge 
# Structural Database, then it will include bibliographic, chemical, 
# crystal, experimental, refinement or atomic coordinate data resulting 
# from the CCDC's data processing and validation procedures.
#
#######################################################################

data_HILHIV
_chemical_formula_moiety         'C28 H44 N2 O2,C1 H2 Cl2'
_chemical_name_systematic        
'N-(20-(dimethylamino)-4-oxopregn-2-en-3-yl)-3-methylbut-2-enamide dichloromethane solvate'
_symmetry_cell_setting           monoclinic
_symmetry_space_group_name_H-M   'P 21'
_symmetry_Int_Tables_number      4
_space_group_name_Hall           'P 2yb'
loop_
_symmetry_equiv_pos_site_id
_symmetry_equiv_pos_as_xyz
1 x,y,z
2 -x,1/2+y,-z
_cell_length_a                   8.4429(4)
_cell_length_b                   19.6901(9)
_cell_length_c                   9.0259(4)
_cell_angle_alpha                90
_cell_angle_beta                 100.700(2)
_cell_angle_gamma                90
_cell_volume                     1474.39
_exptl_crystal_colour            colorless
_cell_formula_units_Z            2
loop_
_atom_site_label
_atom_site_type_symbol
_atom_site_fract_x
_atom_site_fract_y
_atom_site_fract_z
C1 C 0.3669(3) 0.84137(14) -0.3763(3)
H1 H 0.4705 0.8642 -0.3573
H2 H 0.3858 0.7944 -0.4003
C2 C 0.2629(3) 0.87365(13) -0.5108(3)
H3 H 0.3110 0.8871 -0.5908
C3 C 0.1056(3) 0.88399(13) -0.5215(3)
C4 C 0.0225(3) 0.86281(14) -0.3975(3)
C5 C 0.1181(3) 0.81927(13) -0.2737(3)
H4 H 0.1222 0.7738 -0.3172
C6 C 0.0339(3) 0.81078(16) -0.1397(3)
H5 H 0.0261 0.8545 -0.0921
H6 H -0.0745 0.7937 -0.1742
C7 C 0.1268(3) 0.76181(15) -0.0264(3)
H7 H 0.1228 0.7169 -0.0710
H8 H 0.0753 0.7594 0.0610
C8 C 0.3030(3) 0.78278(13) 0.0243(3)
H9 H 0.3063 0.8259 0.0789
C9 C 0.3866(3) 0.79260(12) -0.1129(3)
H10 H 0.3821 0.7484 -0.1636
C10 C 0.2956(3) 0.84330(12) -0.2308(2)
C11 C 0.5660(3) 0.80933(15) -0.0628(3)
H11 H 0.5761 0.8543 -0.0182
H12 H 0.6167 0.8102 -0.1508
C12 C 0.6563(3) 0.75820(15) 0.0520(3)
H13 H 0.6607 0.7146 0.0030
H14 H 0.7661 0.7738 0.0856
C13 C 0.5750(3) 0.74938(12) 0.1892(2)
C14 C 0.3975(3) 0.73024(12) 0.1275(3)
H15 H 0.4005 0.6894 0.0661
C15 C 0.3330(3) 0.70771(14) 0.2678(3)
H16 H 0.2424 0.6770 0.2410
H17 H 0.2997 0.7465 0.3207
C16 C 0.4778(3) 0.67145(13) 0.3644(3)
H18 H 0.4587 0.6229 0.3652
H19 H 0.4945 0.6880 0.4673
C17 C 0.6276(3) 0.68691(12) 0.2931(2)
H20 H 0.6415 0.6486 0.2275
C18 C 0.5897(3) 0.81443(13) 0.2834(3)
H21 H 0.5386 0.8080 0.3689
H22 H 0.5383 0.8512 0.2229
H23 H 0.7016 0.8250 0.3175
C19 C 0.3031(3) 0.91617(13) -0.1690(3)
H24 H 0.4136 0.9303 -0.1429
H25 H 0.2544 0.9177 -0.0811
H26 H 0.2460 0.9461 -0.2446
C20 C 0.7808(3) 0.69180(12) 0.4134(3)
H27 H 0.7653 0.7300 0.4789
C21 C 0.9320(3) 0.70756(17) 0.3494(3)
H28 H 1.0234 0.7101 0.4303
H29 H 0.9186 0.7502 0.2970
H30 H 0.9491 0.6723 0.2807
C22 C 0.8990(4) 0.63964(18) 0.6536(4)
H31 H 0.8659 0.6796 0.7007
H32 H 1.0085 0.6449 0.6403
H33 H 0.8911 0.6009 0.7163
C23 C 0.8449(5) 0.57000(17) 0.4363(4)
H34 H 0.7758 0.5639 0.3400
H35 H 0.8371 0.5310 0.4984
H36 H 0.9542 0.5753 0.4225
C24 C -0.1201(4) 1.00563(16) -0.9946(3)
C25 C 0.0207(5) 1.0381(2) -1.0414(4)
H37 H -0.0147 1.0644 -1.1310
H38 H 0.0946 1.0038 -1.0613
H39 H 0.0735 1.0673 -0.9621
C26 C -0.2817(6) 1.0228(2) -1.0885(4)
H40 H -0.2670 1.0520 -1.1700
H41 H -0.3465 1.0455 -1.0269
H42 H -0.3347 0.9818 -1.1285
C27 C -0.1134(4) 0.96527(16) -0.8749(3)
H43 H -0.2118 0.9509 -0.8538
C28 C 0.0327(4) 0.94057(13) -0.7715(3)
O1 O -0.1180(2) 0.87773(14) -0.4011(2)
O2 O 0.1701(3) 0.94248(12) -0.7970(2)
N1 N -0.0024(3) 0.91435(12) -0.6410(2)
N2 N 0.7958(3) 0.62998(11) 0.5086(2)
C29 C 0.5252(4) 0.54253(18) -0.3340(4)
H44 H 0.5944 0.5129 -0.2644
H45 H 0.5917 0.5659 -0.3947
Cl1 Cl 0.4358(3) 0.60225(8) -0.2320(2)
Cl2 Cl 0.37988(12) 0.49350(5) -0.45198(11)
loop_
_geom_bond_atom_site_label_1
_geom_bond_atom_site_label_2
_geom_bond_site_symmetry_1
_geom_bond_site_symmetry_2
C1 H1 1_555 1_555
H2 C1 1_555 1_555
C2 C1 1_555 1_555
H3 C2 1_555 1_555
C3 C2 1_555 1_555
C4 C3 1_555 1_555
C5 C4 1_555 1_555
H4 C5 1_555 1_555
C6 C5 1_555 1_555
H5 C6 1_555 1_555
H6 C6 1_555 1_555
C7 C6 1_555 1_555
H7 C7 1_555 1_555
H8 C7 1_555 1_555
C8 C7 1_555 1_555
H9 C8 1_555 1_555
C9 C8 1_555 1_555
H10 C9 1_555 1_555
C10 C1 1_555 1_555
C11 C9 1_555 1_555
H11 C11 1_555 1_555
H12 C11 1_555 1_555
C12 C11 1_555 1_555
H13 C12 1_555 1_555
H14 C12 1_555 1_555
C13 C12 1_555 1_555
C14 C8 1_555 1_555
H15 C14 1_555 1_555
C15 C14 1_555 1_555
H16 C15 1_555 1_555
H17 C15 1_555 1_555
C16 C15 1_555 1_555
H18 C16 1_555 1_555
H19 C16 1_555 1_555
C17 C13 1_555 1_555
H20 C17 1_555 1_555
C18 C13 1_555 1_555
H21 C18 1_555 1_555
H22 C18 1_555 1_555
H23 C18 1_555 1_555
C19 C10 1_555 1_555
H24 C19 1_555 1_555
H25 C19 1_555 1_555
H26 C19 1_555 1_555
C20 C17 1_555 1_555
H27 C20 1_555 1_555
C21 C20 1_555 1_555
H28 C21 1_555 1_555
H29 C21 1_555 1_555
H30 C21 1_555 1_555
C22 H31 1_555 1_555
H32 C22 1_555 1_555
H33 C22 1_555 1_555
C23 H34 1_555 1_555
H35 C23 1_555 1_555
H36 C23 1_555 1_555
C24 C25 1_555 1_555
C25 H37 1_555 1_555
H38 C25 1_555 1_555
H39 C25 1_555 1_555
C26 C24 1_555 1_555
H40 C26 1_555 1_555
H41 C26 1_555 1_555
H42 C26 1_555 1_555
C27 C24 1_555 1_555
H43 C27 1_555 1_555
C28 C27 1_555 1_555
O1 C4 1_555 1_555
O2 C28 1_555 1_555
N1 C3 1_555 1_555
N2 C20 1_555 1_555
C29 H44 1_555 1_555
H45 C29 1_555 1_555
Cl1 C29 1_555 1_555
Cl2 C29 1_555 1_555
C5 C10 1_555 1_555
C9 C10 1_555 1_555
C13 C14 1_555 1_555
C16 C17 1_555 1_555
C22 N2 1_555 1_555
C23 N2 1_555 1_555
C28 N1 1_555 1_555

#END
