
#######################################################################
#
#                 Cambridge Crystallographic Data Centre
#                                CCDC 
#
#######################################################################
#
# If this CIF has been generated from an entry in the Cambridge 
# Structural Database, then it will include bibliographic, chemical, 
# crystal, experimental, refinement or atomic coordinate data resulting 
# from the CCDC's data processing and validation procedures.
#
#######################################################################

data_HILJIX
_chemical_formula_moiety         'C12 H13 Cl1 O4'
_chemical_name_systematic        
'2-(4-chlorophenyl)-5-methyl-1,3-dioxane-5-carboxylic acid'
_symmetry_cell_setting           monoclinic
_symmetry_space_group_name_H-M   'C 2/c'
_symmetry_Int_Tables_number      15
_space_group_name_Hall           '-C 2yn'
loop_
_symmetry_equiv_pos_site_id
_symmetry_equiv_pos_as_xyz
1 x,y,z
2 -x,y,1/2-z
3 1/2+x,1/2+y,z
4 1/2-x,1/2+y,1/2-z
5 -x,-y,-z
6 x,-y,1/2+z
7 1/2-x,1/2-y,-z
8 1/2+x,1/2-y,1/2+z
_cell_length_a                   35.3097(15)
_cell_length_b                   5.9993(2)
_cell_length_c                   22.7422(8)
_cell_angle_alpha                90
_cell_angle_beta                 98.692(4)
_cell_angle_gamma                90
_cell_volume                     4762.23
_exptl_crystal_colour            colorless
_exptl_crystal_description       block
_chemical_melting_point          '453 K'
_cell_formula_units_Z            16
loop_
_atom_site_label
_atom_site_type_symbol
_atom_site_fract_x
_atom_site_fract_y
_atom_site_fract_z
Cl1 Cl 0.566001(16) -0.14619(9) 0.66394(3)
O1 O 0.66110(3) 0.6379(2) 0.83087(5)
O2 O 0.69750(3) 0.6259(2) 0.75373(5)
O3 O 0.77408(4) 0.6237(2) 0.84885(6)
H1 H 0.7897(5) 0.529(3) 0.8683(8)
C1 C 0.71937(5) 0.8599(3) 0.83965(8)
C2 C 0.61044(6) 0.3350(3) 0.77350(9)
H2 H 0.6069 0.3915 0.8113
O4 O 0.74044(4) 0.6246(2) 0.92420(6)
C3 C 0.64315(6) 0.3428(3) 0.68910(9)
H3 H 0.6621 0.4054 0.6685
C4 C 0.67883(5) 0.8397(3) 0.85482(8)
H4 H 0.6798 0.8407 0.8986
H5 H 0.6634 0.9691 0.8383
C5 C 0.71708(5) 0.8293(3) 0.77252(8)
H6 H 0.7033 0.9570 0.7516
H7 H 0.7433 0.8257 0.7620
C6 C 0.66003(5) 0.6318(3) 0.76846(8)
H8 H 0.6466 0.7681 0.7506
C7 C 0.74591(5) 0.6881(3) 0.87312(8)
C8 C 0.62100(6) 0.1667(3) 0.66385(9)
H9 H 0.6246 0.1087 0.6262
C9 C 0.63814(5) 0.4290(3) 0.74397(8)
C10 C 0.59361(5) 0.0772(3) 0.69421(9)
C11 C 0.73581(6) 1.0911(3) 0.85813(9)
H10 H 0.7616 1.1043 0.8477
H11 H 0.7370 1.1098 0.9012
H12 H 0.7193 1.2066 0.8373
C12 C 0.58796(6) 0.1602(3) 0.74871(9)
H13 H 0.5689 0.0980 0.7690
Cl2 Cl 1.013301(19) 1.13470(10) 0.12909(4)
O5 O 0.87570(3) 0.3709(2) 0.07001(5)
O6 O 0.82284(4) 0.3408(2) -0.09411(6)
O7 O 0.79306(4) 0.3572(2) -0.01447(6)
H14 H 0.7757(5) 0.443(3) -0.0334(8)
O8 O 0.90520(4) 0.3426(2) -0.01451(6)
C13 C 0.91107(5) 0.3605(3) 0.04814(8)
H15 H 0.9255 0.2263 0.0653
C14 C 0.88657(5) 0.1363(3) -0.03228(8)
H16 H 0.9032 0.0105 -0.0163
H17 H 0.8824 0.1255 -0.0762
C15 C 0.84802(5) 0.1205(3) -0.00934(8)
C16 C 0.85508(5) 0.1660(3) 0.05732(8)
H18 H 0.8302 0.1748 0.0724
H19 H 0.8700 0.0415 0.0780
C17 C 0.81977(5) 0.2875(3) -0.04129(8)
C18 C 0.93434(5) 0.5642(3) 0.06670(9)
C19 C 0.93084(6) 0.6750(3) 0.11915(9)
H20 H 0.9116 0.6311 0.1417
C20 C 0.95536(6) 0.8497(4) 0.13888(11)
H21 H 0.9531 0.9250 0.1749
C21 C 0.83089(6) -0.1130(3) -0.02128(9)
H22 H 0.8067 -0.1232 -0.0052
H23 H 0.8489 -0.2246 -0.0021
H24 H 0.8261 -0.1402 -0.0642
C22 C 0.98307(6) 0.9124(4) 0.10534(12)
C23 C 0.96253(6) 0.6316(3) 0.03385(10)
H25 H 0.9650 0.5579 -0.0024
C24 C 0.98707(6) 0.8051(4) 0.05348(11)
H26 H 1.0065 0.8493 0.0312
loop_
_geom_bond_atom_site_label_1
_geom_bond_atom_site_label_2
_geom_bond_site_symmetry_1
_geom_bond_site_symmetry_2
Cl1 C10 1_555 1_555
O1 C4 1_555 1_555
O2 C5 1_555 1_555
O3 H1 1_555 1_555
C1 C4 1_555 1_555
C2 H2 1_555 1_555
O4 C7 1_555 1_555
C3 H3 1_555 1_555
C4 H4 1_555 1_555
H5 C4 1_555 1_555
C5 C1 1_555 1_555
H6 C5 1_555 1_555
H7 C5 1_555 1_555
C6 O1 1_555 1_555
H8 C6 1_555 1_555
C7 O3 1_555 1_555
C8 C3 1_555 1_555
H9 C8 1_555 1_555
C9 C2 1_555 1_555
C10 C8 1_555 1_555
C11 C1 1_555 1_555
H10 C11 1_555 1_555
H11 C11 1_555 1_555
H12 C11 1_555 1_555
C12 C2 1_555 1_555
H13 C12 1_555 1_555
Cl2 C22 1_555 1_555
O5 C13 1_555 1_555
O6 C17 1_555 1_555
O7 H14 1_555 1_555
O8 C13 1_555 1_555
C13 H15 1_555 1_555
C14 O8 1_555 1_555
H16 C14 1_555 1_555
H17 C14 1_555 1_555
C15 C14 1_555 1_555
C16 O5 1_555 1_555
H18 C16 1_555 1_555
H19 C16 1_555 1_555
C17 O7 1_555 1_555
C18 C13 1_555 1_555
C19 C18 1_555 1_555
H20 C19 1_555 1_555
C20 C19 1_555 1_555
H21 C20 1_555 1_555
C21 C15 1_555 1_555
H22 C21 1_555 1_555
H23 C21 1_555 1_555
H24 C21 1_555 1_555
C22 C20 1_555 1_555
C23 C18 1_555 1_555
H25 C23 1_555 1_555
C24 C22 1_555 1_555
H26 C24 1_555 1_555
O2 C6 1_555 1_555
C1 C7 1_555 1_555
C3 C9 1_555 1_555
C6 C9 1_555 1_555
C10 C12 1_555 1_555
C15 C16 1_555 1_555
C15 C17 1_555 1_555
C23 C24 1_555 1_555

#END
