
#######################################################################
#
#                 Cambridge Crystallographic Data Centre
#                                CCDC 
#
#######################################################################
#
# If this CIF has been generated from an entry in the Cambridge 
# Structural Database, then it will include bibliographic, chemical, 
# crystal, experimental, refinement or atomic coordinate data resulting 
# from the CCDC's data processing and validation procedures.
#
#######################################################################

data_HILMUN
_chemical_formula_moiety         'C18 H20 O4'
_chemical_name_systematic        
1-[6-(benzyloxy)-5-methoxy-2,3-dihydro-1-benzofuran-2-yl]ethan-1-ol
_symmetry_cell_setting           monoclinic
_symmetry_space_group_name_H-M   'C 2/c'
_symmetry_Int_Tables_number      15
_space_group_name_Hall           '-C 2yn'
loop_
_symmetry_equiv_pos_site_id
_symmetry_equiv_pos_as_xyz
1 x,y,z
2 -x,y,1/2-z
3 1/2+x,1/2+y,z
4 1/2-x,1/2+y,1/2-z
5 -x,-y,-z
6 x,-y,1/2+z
7 1/2-x,1/2-y,-z
8 1/2+x,1/2-y,1/2+z
_cell_length_a                   22.457(3)
_cell_length_b                   5.2177(7)
_cell_length_c                   25.976(3)
_cell_angle_alpha                90
_cell_angle_beta                 95.828(4)
_cell_angle_gamma                90
_cell_volume                     3027.98
_exptl_crystal_colour            colorless
_exptl_crystal_description       tabular
_cell_formula_units_Z            8
loop_
_atom_site_label
_atom_site_type_symbol
_atom_site_fract_x
_atom_site_fract_y
_atom_site_fract_z
C1 C 0.65671(11) 0.0021(5) 0.67796(10)
C2 C 0.63871(11) 0.1928(5) 0.64343(10)
C3 C 0.67820(10) 0.3531(4) 0.62145(9)
H1 H 0.6644 0.4846 0.5979
C4 C 0.73864(10) 0.3138(4) 0.63518(8)
C5 C 0.75839(10) 0.1215(4) 0.67126(8)
C6 C 0.71703(11) -0.0338(4) 0.69240(9)
H2 H 0.7301 -0.1637 0.7166
C7 C 0.76588(11) 0.6194(4) 0.57275(9)
H3 H 0.7477 0.7763 0.5858
H4 H 0.7360 0.5353 0.5476
C8 C 0.82050(11) 0.6866(4) 0.54725(8)
C9 C 0.85433(13) 0.9004(5) 0.56190(11)
H5 H 0.8430 1.0079 0.5888
C10 C 0.90461(14) 0.9584(6) 0.53758(12)
H6 H 0.9274 1.1066 0.5478
C11 C 0.92207(13) 0.8046(6) 0.49884(10)
H7 H 0.9570 0.8446 0.4827
C12 C 0.88870(13) 0.5937(6) 0.48384(10)
H8 H 0.9003 0.4864 0.4570
C13 C 0.83804(12) 0.5366(5) 0.50777(9)
H9 H 0.8148 0.3908 0.4968
C14 C 0.84019(12) -0.1081(5) 0.71390(10)
H10 H 0.8260 -0.0921 0.7482
H11 H 0.8840 -0.1101 0.7174
H12 H 0.8250 -0.2679 0.6976
O1 O 0.78355(7) 0.4482(3) 0.61503(6)
O2 O 0.81912(7) 0.1040(3) 0.68252(6)
O3 O 0.57752(7) 0.2100(4) 0.63256(8)
C15 C 0.5975(4) -0.132(3) 0.6868(4)
H13 H 0.6013 -0.3203 0.6839
H14 H 0.5854 -0.0900 0.7214
C16 C 0.5524(2) -0.0268(10) 0.6442(2)
H15 H 0.5500 -0.1418 0.6133
C17 C 0.4901(3) 0.0299(13) 0.6588(3)
H16 H 0.4674 0.1150 0.6284
C18 C 0.4572(3) -0.2043(12) 0.6701(2)
H17 H 0.4771 -0.2875 0.7010
H18 H 0.4563 -0.3220 0.6407
H19 H 0.4161 -0.1593 0.6763
O4 O 0.4917(2) 0.2024(9) 0.70088(19)
H20 H 0.5151 0.3238 0.6961
C19? C 0.6080(5) -0.132(3) 0.7015(4)
H21? H 0.6133 -0.1239 0.7398
H22? H 0.6040 -0.3131 0.6902
C20? C 0.5549(2) 0.0334(12) 0.6784(3)
H23? H 0.5418 0.1475 0.7061
C21? C 0.5025(3) -0.1144(15) 0.6551(3)
H24? H 0.5159 -0.2286 0.6276
C22? C 0.4534(3) 0.0415(13) 0.6327(3)
H25? H 0.4171 -0.0631 0.6274
H26? H 0.4630 0.1094 0.5993
H27? H 0.4469 0.1840 0.6560
O5? O 0.4836(2) -0.2764(10) 0.6974(2)
H28? H 0.4828 -0.4307 0.6881
loop_
_geom_bond_atom_site_label_1
_geom_bond_atom_site_label_2
_geom_bond_site_symmetry_1
_geom_bond_site_symmetry_2
C1 C2 1_555 1_555
C2 C3 1_555 1_555
C3 H1 1_555 1_555
C4 C3 1_555 1_555
C5 C4 1_555 1_555
C6 C1 1_555 1_555
H2 C6 1_555 1_555
C7 H3 1_555 1_555
H4 C7 1_555 1_555
C8 C7 1_555 1_555
C9 C8 1_555 1_555
H5 C9 1_555 1_555
C10 C9 1_555 1_555
H6 C10 1_555 1_555
C11 C10 1_555 1_555
H7 C11 1_555 1_555
C12 C11 1_555 1_555
H8 C12 1_555 1_555
C13 C8 1_555 1_555
H9 C13 1_555 1_555
C14 H10 1_555 1_555
H11 C14 1_555 1_555
H12 C14 1_555 1_555
O1 C4 1_555 1_555
O2 C5 1_555 1_555
O3 C2 1_555 1_555
C15 C1 1_555 1_555
H13 C15 1_555 1_555
H14 C15 1_555 1_555
C16 O3 1_555 1_555
H15 C16 1_555 1_555
C17 C16 1_555 1_555
H16 C17 1_555 1_555
C18 C17 1_555 1_555
H17 C18 1_555 1_555
H18 C18 1_555 1_555
H19 C18 1_555 1_555
O4 C17 1_555 1_555
H20 O4 1_555 1_555
C5 C6 1_555 1_555
C7 O1 1_555 1_555
C12 C13 1_555 1_555
C14 O2 1_555 1_555
C15 C16 1_555 1_555

#END
