
#######################################################################
#
#                 Cambridge Crystallographic Data Centre
#                                CCDC 
#
#######################################################################
#
# If this CIF has been generated from an entry in the Cambridge 
# Structural Database, then it will include bibliographic, chemical, 
# crystal, experimental, refinement or atomic coordinate data resulting 
# from the CCDC's data processing and validation procedures.
#
#######################################################################

data_HILMAS
_chemical_formula_moiety         'C31 H25 F2 N1 O3'
_chemical_name_systematic        
4-(4-(Benzyloxy)phenyl)-1-(4-fluorophenyl)-3-(3-(4-fluorophenyl)-3-oxopropyl)azetidin-2-one
_symmetry_cell_setting           orthorhombic
_symmetry_space_group_name_H-M   'P 21 21 21'
_symmetry_Int_Tables_number      19
_space_group_name_Hall           'P 2ac 2ab'
loop_
_symmetry_equiv_pos_site_id
_symmetry_equiv_pos_as_xyz
1 x,y,z
2 1/2-x,-y,1/2+z
3 -x,1/2+y,1/2-z
4 1/2+x,1/2-y,-z
_cell_length_a                   5.8400(12)
_cell_length_b                   16.645(3)
_cell_length_c                   25.716(5)
_cell_angle_alpha                90
_cell_angle_beta                 90
_cell_angle_gamma                90
_cell_volume                     2499.77
_exptl_crystal_colour            colorless
_exptl_crystal_description       block
_cell_formula_units_Z            4
loop_
_atom_site_label
_atom_site_type_symbol
_atom_site_fract_x
_atom_site_fract_y
_atom_site_fract_z
N1 N 1.1840(8) 1.0152(3) -0.10086(18)
F1 F 0.2972(8) 1.4521(3) -0.18089(18)
C1 C 1.0638(10) 1.0329(3) -0.0507(2)
H1 H 0.9167 1.0599 -0.0561
O1 O 1.1416(8) 1.3464(3) -0.04826(19)
F2 F 0.9290(9) 0.8094(2) -0.25706(16)
C2 C 1.3579(12) 1.0691(3) -0.0941(2)
O2 O 1.5233(8) 1.0876(2) -0.12049(17)
O3 O 0.9749(8) 0.7710(2) 0.08791(15)
C3 C 1.2647(10) 1.0940(3) -0.0410(2)
H2 H 1.3650 1.0759 -0.0128
C4 C 1.2056(11) 1.1842(3) -0.0356(2)
H3 H 1.1370 1.1932 -0.0017
H4 H 1.3463 1.2151 -0.0371
C5 C 1.0456(13) 1.2144(3) -0.0766(2)
H5 H 0.8976 1.1889 -0.0720
H6 H 1.1039 1.1989 -0.1105
C6 C 1.0138(13) 1.3046(4) -0.0756(2)
C7 C 0.8301(13) 1.3431(4) -0.1048(3)
C8 C 0.6694(13) 1.2992(4) -0.1304(2)
H7 H 0.6820 1.2435 -0.1305
C9 C 0.4863(14) 1.3348(4) -0.1567(3)
H8 H 0.3772 1.3044 -0.1741
C10 C 0.4760(16) 1.4169(5) -0.1554(3)
C11 C 0.6291(15) 1.4630(4) -0.1315(3)
H9 H 0.6145 1.5186 -0.1318
C12 C 0.8111(15) 1.4264(4) -0.1061(3)
H10 H 0.9213 1.4579 -0.0898
C13 C 1.1186(12) 0.9629(4) -0.1419(3)
C14 C 0.9105(12) 0.9248(4) -0.1384(3)
H11 H 0.8139 0.9344 -0.1103
C15 C 0.8470(13) 0.8719(4) -0.1775(3)
H12 H 0.7088 0.8443 -0.1754
C16 C 0.9858(17) 0.8607(4) -0.2181(3)
C17 C 1.1934(15) 0.8994(4) -0.2236(3)
H13 H 1.2873 0.8904 -0.2522
C18 C 1.2561(12) 0.9530(4) -0.1837(2)
H14 H 1.3924 0.9816 -0.1861
C19 C 1.0442(11) 0.9628(4) -0.0146(2)
C20 C 0.8544(11) 0.9589(4) 0.0174(2)
H15 H 0.7436 0.9988 0.0151
C21 C 0.8244(12) 0.8970(4) 0.0530(2)
H16 H 0.6977 0.8960 0.0749
C22 C 0.9856(12) 0.8376(3) 0.0550(2)
C23 C 1.1787(12) 0.8402(3) 0.0247(2)
H17 H 1.2911 0.8009 0.0274
C24 C 1.2013(11) 0.9034(4) -0.0104(2)
H18 H 1.3296 0.9049 -0.0317
C25 C 0.7675(11) 0.7590(4) 0.1164(2)
H19 H 0.7583 0.7030 0.1265
H20 H 0.6392 0.7701 0.0935
C26 C 0.7426(13) 0.8107(4) 0.1652(3)
C27 C 0.5416(13) 0.8494(4) 0.1743(3)
H21 H 0.4246 0.8474 0.1498
C28 C 0.6815(14) 0.8969(4) 0.2551(3)
H22 H 0.6640 0.9283 0.2848
C29 C 0.5111(13) 0.8917(4) 0.2198(3)
H23 H 0.3718 0.9169 0.2263
C30 C 0.8823(14) 0.8551(4) 0.2466(3)
H24 H 0.9971 0.8551 0.2717
C31 C 0.9120(14) 0.8129(4) 0.2005(3)
H25 H 1.0491 0.7863 0.1941
loop_
_geom_bond_atom_site_label_1
_geom_bond_atom_site_label_2
_geom_bond_site_symmetry_1
_geom_bond_site_symmetry_2
N1 C1 1_555 1_555
F1 C10 1_555 1_555
C1 H1 1_555 1_555
O1 C6 1_555 1_555
F2 C16 1_555 1_555
C2 N1 1_555 1_555
O2 C2 1_555 1_555
O3 C22 1_555 1_555
C3 C1 1_555 1_555
H2 C3 1_555 1_555
C4 C3 1_555 1_555
H3 C4 1_555 1_555
H4 C4 1_555 1_555
C5 C4 1_555 1_555
H5 C5 1_555 1_555
H6 C5 1_555 1_555
C6 C5 1_555 1_555
C7 C6 1_555 1_555
C8 C7 1_555 1_555
H7 C8 1_555 1_555
C9 C8 1_555 1_555
H8 C9 1_555 1_555
C10 C9 1_555 1_555
C11 C10 1_555 1_555
H9 C11 1_555 1_555
C12 C7 1_555 1_555
H10 C12 1_555 1_555
C13 N1 1_555 1_555
C14 C13 1_555 1_555
H11 C14 1_555 1_555
C15 C14 1_555 1_555
H12 C15 1_555 1_555
C16 C15 1_555 1_555
C17 C16 1_555 1_555
H13 C17 1_555 1_555
C18 C13 1_555 1_555
H14 C18 1_555 1_555
C19 C1 1_555 1_555
C20 C19 1_555 1_555
H15 C20 1_555 1_555
C21 C20 1_555 1_555
H16 C21 1_555 1_555
C22 C21 1_555 1_555
C23 C22 1_555 1_555
H17 C23 1_555 1_555
C24 C19 1_555 1_555
H18 C24 1_555 1_555
C25 O3 1_555 1_555
H19 C25 1_555 1_555
H20 C25 1_555 1_555
C26 C25 1_555 1_555
C27 C26 1_555 1_555
H21 C27 1_555 1_555
C28 H22 1_555 1_555
C29 C27 1_555 1_555
H23 C29 1_555 1_555
C30 C28 1_555 1_555
H24 C30 1_555 1_555
C31 C26 1_555 1_555
H25 C31 1_555 1_555
C2 C3 1_555 1_555
C11 C12 1_555 1_555
C17 C18 1_555 1_555
C23 C24 1_555 1_555
C28 C29 1_555 1_555
C30 C31 1_555 1_555

#END
