
#######################################################################
#
#                 Cambridge Crystallographic Data Centre
#                                CCDC 
#
#######################################################################
#
# If this CIF has been generated from an entry in the Cambridge 
# Structural Database, then it will include bibliographic, chemical, 
# crystal, experimental, refinement or atomic coordinate data resulting 
# from the CCDC's data processing and validation procedures.
#
#######################################################################

data_HILNAU
_chemical_formula_moiety         'C18 H20 O4'
_chemical_name_systematic        
7,8-dimethoxy-3-phenyl-1,3,4,5-tetrahydro-2-benzoxepin-4-ol
_symmetry_cell_setting           monoclinic
_symmetry_space_group_name_H-M   'P 21/n'
_symmetry_Int_Tables_number      14
_space_group_name_Hall           '-P 2yn'
loop_
_symmetry_equiv_pos_site_id
_symmetry_equiv_pos_as_xyz
1 x,y,z
2 1/2-x,1/2+y,1/2-z
3 -x,-y,-z
4 1/2+x,1/2-y,1/2+z
_cell_length_a                   6.8432(2)
_cell_length_b                   18.7402(7)
_cell_length_c                   11.7029(4)
_cell_angle_alpha                90
_cell_angle_beta                 91.367(2)
_cell_angle_gamma                90
_cell_volume                     1500.39
_exptl_crystal_colour            colorless
_cell_formula_units_Z            4
loop_
_atom_site_label
_atom_site_type_symbol
_atom_site_fract_x
_atom_site_fract_y
_atom_site_fract_z
O1 O 0.72075(16) 0.09768(7) 0.33890(10)
O2 O -0.00751(15) 0.16618(6) 0.02069(9)
O3 O 0.41090(16) 0.13001(6) 0.45030(9)
O4 O 0.32944(17) 0.14287(7) -0.21238(10)
H1 H 0.457(3) 0.1265(12) -0.2219(18)
C1 C 0.8481(2) 0.05200(9) 0.27706(15)
H2 H 0.7701 0.0184 0.2308
H3 H 0.9322 0.0254 0.3310
H4 H 0.9294 0.0809 0.2270
C2 C 0.5727(2) 0.12941(8) 0.27654(13)
C3 C 0.5786(2) 0.14305(8) 0.16062(13)
H5 H 0.6933 0.1317 0.1201
C4 C 0.4188(2) 0.17317(8) 0.10217(13)
C5 C 0.4251(2) 0.18528(9) -0.02492(13)
H6 H 0.5590 0.1752 -0.0507
H7 H 0.3973 0.2362 -0.0408
C6 C 0.2807(2) 0.13963(8) -0.09464(12)
H8 H 0.2873 0.0891 -0.0675
C7 C 0.0685(2) 0.16638(8) -0.09173(13)
H9 H 0.0640 0.2163 -0.1218
C8 C -0.0675(2) 0.12072(8) -0.16439(13)
C9 C -0.1077(2) 0.13871(8) -0.27739(13)
H10 H -0.0496 0.1801 -0.3089
C10 C -0.2318(2) 0.09706(9) -0.34516(14)
H11 H -0.2573 0.1099 -0.4226
C11 C -0.3182(2) 0.03693(9) -0.30024(14)
H12 H -0.4038 0.0086 -0.3464
C12 C -0.1544(2) 0.06001(8) -0.11980(13)
H13 H -0.1283 0.0470 -0.0425
C13 C -0.2790(2) 0.01820(9) -0.18706(14)
H14 H -0.3375 -0.0232 -0.1557
C14 C 0.0744(2) 0.21800(8) 0.09871(13)
H15 H -0.0255 0.2318 0.1544
H16 H 0.1111 0.2613 0.0557
C15 C 0.2513(2) 0.18943(8) 0.16186(13)
C16 C 0.2462(2) 0.17673(8) 0.27908(13)
H17 H 0.1325 0.1888 0.3199
C17 C 0.4047(2) 0.14672(8) 0.33676(12)
C18 C 0.2365(3) 0.14092(12) 0.51201(14)
H18 H 0.2049 0.1919 0.5128
H19 H 0.2559 0.1239 0.5906
H20 H 0.1289 0.1145 0.4750
loop_
_geom_bond_atom_site_label_1
_geom_bond_atom_site_label_2
_geom_bond_site_symmetry_1
_geom_bond_site_symmetry_2
O1 C1 1_555 1_555
O2 C7 1_555 1_555
O3 C17 1_555 1_555
O4 H1 1_555 1_555
C1 H2 1_555 1_555
H3 C1 1_555 1_555
H4 C1 1_555 1_555
C2 O1 1_555 1_555
C3 C2 1_555 1_555
H5 C3 1_555 1_555
C4 C3 1_555 1_555
C5 C4 1_555 1_555
H6 C5 1_555 1_555
H7 C5 1_555 1_555
C6 O4 1_555 1_555
H8 C6 1_555 1_555
C7 C6 1_555 1_555
H9 C7 1_555 1_555
C8 C7 1_555 1_555
C9 C8 1_555 1_555
H10 C9 1_555 1_555
C10 C9 1_555 1_555
H11 C10 1_555 1_555
C11 C10 1_555 1_555
H12 C11 1_555 1_555
C12 C8 1_555 1_555
H13 C12 1_555 1_555
C13 C11 1_555 1_555
H14 C13 1_555 1_555
C14 O2 1_555 1_555
H15 C14 1_555 1_555
H16 C14 1_555 1_555
C15 C4 1_555 1_555
C16 C15 1_555 1_555
H17 C16 1_555 1_555
C17 C2 1_555 1_555
C18 O3 1_555 1_555
H18 C18 1_555 1_555
H19 C18 1_555 1_555
H20 C18 1_555 1_555
C5 C6 1_555 1_555
C12 C13 1_555 1_555
C14 C15 1_555 1_555
C16 C17 1_555 1_555

#END
