
#######################################################################
#
#                 Cambridge Crystallographic Data Centre
#                                CCDC 
#
#######################################################################
#
# If this CIF has been generated from an entry in the Cambridge 
# Structural Database, then it will include bibliographic, chemical, 
# crystal, experimental, refinement or atomic coordinate data resulting 
# from the CCDC's data processing and validation procedures.
#
#######################################################################

data_HILNIC
_chemical_formula_moiety         'C19 H22 O4,0.5(H2 O1)'
_chemical_name_systematic        
'1-[7-(benzyloxy)-6-methoxy-3,4-dihydro-1H-2-benzopyran-3-yl]ethan-1-ol hemihydrate'
_symmetry_cell_setting           monoclinic
_symmetry_space_group_name_H-M   'C 2/c'
_symmetry_Int_Tables_number      15
_space_group_name_Hall           '-C 2yn'
loop_
_symmetry_equiv_pos_site_id
_symmetry_equiv_pos_as_xyz
1 x,y,z
2 -x,y,1/2-z
3 1/2+x,1/2+y,z
4 1/2-x,1/2+y,1/2-z
5 -x,-y,-z
6 x,-y,1/2+z
7 1/2-x,1/2-y,-z
8 1/2+x,1/2-y,1/2+z
_cell_length_a                   35.856(6)
_cell_length_b                   5.1944(10)
_cell_length_c                   19.808(3)
_cell_angle_alpha                90
_cell_angle_beta                 118.174(10)
_cell_angle_gamma                90
_cell_volume                     3252.14
_exptl_crystal_colour            colorless
_cell_formula_units_Z            8
loop_
_atom_site_label
_atom_site_type_symbol
_atom_site_fract_x
_atom_site_fract_y
_atom_site_fract_z
C1 C 0.5290(3) 0.765(2) 0.3950(6)
H1 H 0.5396 0.8635 0.3642
O1 O 0.53718(19) 0.5000(14) 0.3909(4)
C2 C 0.5535(3) 0.856(2) 0.4781(5)
H2 H 0.5417 0.7744 0.5091
H3 H 0.5509 1.0449 0.4807
O2 O 0.72821(17) 0.6047(12) 0.6001(3)
C3 C 0.6003(3) 0.7805(17) 0.5099(5)
O3 O 0.70666(17) 0.9626(12) 0.6644(3)
C4 C 0.6317(3) 0.9123(19) 0.5749(5)
H4 H 0.6237 1.0445 0.5986
C5 C 0.6738(3) 0.8473(18) 0.6034(5)
C6 C 0.6856(3) 0.6541(18) 0.5672(5)
C7 C 0.6548(3) 0.5308(17) 0.5034(5)
H5 H 0.6626 0.4011 0.4786
C8 C 0.6123(3) 0.5965(18) 0.4752(5)
C9 C 0.5797(3) 0.4574(19) 0.4038(5)
H6 H 0.5822 0.5185 0.3588
H7 H 0.5858 0.2704 0.4095
C10 C 0.4808(3) 0.815(2) 0.3602(6)
H8 H 0.4761 0.9961 0.3719
C11 C 0.6963(3) 1.1631(18) 0.7031(5)
H9 H 0.6821 1.3046 0.6673
H10 H 0.7222 1.2269 0.7465
H11 H 0.6774 1.0939 0.7218
C12 C 0.4597(3) 0.635(2) 0.3894(6)
H12 H 0.4292 0.6691 0.3637
H13 H 0.4711 0.6595 0.4447
H14 H 0.4648 0.4576 0.3791
C13 C 0.7411(3) 0.3997(18) 0.5681(5)
H15 H 0.7348 0.4427 0.5151
H16 H 0.7257 0.2399 0.5668
C14 C 0.7880(3) 0.3617(17) 0.6176(5)
C15 C 0.8027(3) 0.1616(18) 0.6704(5)
H17 H 0.7833 0.0467 0.6747
C16 C 0.8466(3) 0.1299(19) 0.7177(6)
H18 H 0.8570 -0.0083 0.7533
C17 C 0.8744(3) 0.3013(18) 0.7119(5)
H19 H 0.9039 0.2838 0.7447
C18 C 0.8597(3) 0.496(2) 0.6592(6)
H20 H 0.8791 0.6101 0.6547
C19 C 0.8167(3) 0.5275(18) 0.6124(5)
H21 H 0.8068 0.6644 0.5763
O4 O 0.4619(2) 0.7832(18) 0.2791(4)
H22 H 0.4671 0.9125 0.2596
O5 O 0.5000 0.227(2) 0.2500
H23 H 0.4950 0.3346 0.2130
H23A H 0.5050 0.3346 0.2870
loop_
_geom_bond_atom_site_label_1
_geom_bond_atom_site_label_2
_geom_bond_site_symmetry_1
_geom_bond_site_symmetry_2
C1 H1 1_555 1_555
O1 C1 1_555 1_555
C2 C1 1_555 1_555
H2 C2 1_555 1_555
H3 C2 1_555 1_555
O2 C6 1_555 1_555
C3 C2 1_555 1_555
O3 C5 1_555 1_555
C4 C3 1_555 1_555
H4 C4 1_555 1_555
C5 C4 1_555 1_555
C6 C5 1_555 1_555
C7 C6 1_555 1_555
H5 C7 1_555 1_555
C8 C3 1_555 1_555
C9 O1 1_555 1_555
H6 C9 1_555 1_555
H7 C9 1_555 1_555
C10 C1 1_555 1_555
H8 C10 1_555 1_555
C11 O3 1_555 1_555
H9 C11 1_555 1_555
H10 C11 1_555 1_555
H11 C11 1_555 1_555
C12 C10 1_555 1_555
H12 C12 1_555 1_555
H13 C12 1_555 1_555
H14 C12 1_555 1_555
C13 O2 1_555 1_555
H15 C13 1_555 1_555
H16 C13 1_555 1_555
C14 C13 1_555 1_555
C15 C14 1_555 1_555
H17 C15 1_555 1_555
C16 C15 1_555 1_555
H18 C16 1_555 1_555
C17 C16 1_555 1_555
H19 C17 1_555 1_555
C18 C17 1_555 1_555
H20 C18 1_555 1_555
C19 C14 1_555 1_555
H21 C19 1_555 1_555
O4 C10 1_555 1_555
H22 O4 1_555 1_555
O5 H23 1_555 1_555
H23A O5 1_555 1_555
C7 C8 1_555 1_555
C8 C9 1_555 1_555
C18 C19 1_555 1_555

#END
