
#######################################################################
#
#                 Cambridge Crystallographic Data Centre
#                                CCDC 
#
#######################################################################
#
# If this CIF has been generated from an entry in the Cambridge 
# Structural Database, then it will include bibliographic, chemical, 
# crystal, experimental, refinement or atomic coordinate data resulting 
# from the CCDC's data processing and validation procedures.
#
#######################################################################

data_HILPAW
_chemical_formula_moiety         'C25 H21 Br1 N2 O2 S2'
_chemical_name_systematic        
N-{3-[(4-bromophenyl)sulfanyl]-1-methyl-3-propadienyl-1,3-dihydro-2H-indol-2-ylidene}-4-methylbenzene-1-sulfonamide
_symmetry_cell_setting           monoclinic
_symmetry_space_group_name_H-M   'P 21/n'
_symmetry_Int_Tables_number      14
_space_group_name_Hall           '-P 2yn'
loop_
_symmetry_equiv_pos_site_id
_symmetry_equiv_pos_as_xyz
1 x,y,z
2 1/2-x,1/2+y,1/2-z
3 -x,-y,-z
4 1/2+x,1/2-y,1/2+z
_cell_length_a                   9.3106(8)
_cell_length_b                   8.6278(6)
_cell_length_c                   29.283(3)
_cell_angle_alpha                90
_cell_angle_beta                 93.252(8)
_cell_angle_gamma                90
_cell_volume                     2348.52
_exptl_crystal_colour            orange
_exptl_crystal_description       block
_cell_formula_units_Z            4
loop_
_atom_site_label
_atom_site_type_symbol
_atom_site_fract_x
_atom_site_fract_y
_atom_site_fract_z
Br1 Br 1.07000(8) 0.85939(8) 0.54615(3)
S1 S 0.63076(13) 0.43636(12) 0.42490(4)
S2 S 0.75102(12) 0.39182(11) 0.30159(4)
O1 O 0.6279(3) 0.3883(3) 0.26923(11)
O2 O 0.7614(4) 0.2674(3) 0.33349(12)
N1 N 0.6959(3) 0.7799(3) 0.36053(10)
N2 N 0.7644(3) 0.5609(3) 0.32448(11)
C1 C 0.3960(5) 0.7436(6) 0.43045(16)
H1 H 0.336334 0.663770 0.439256
C2 C 0.3791(5) 0.8927(6) 0.44680(19)
H2 H 0.306201 0.913798 0.466316
C3 C 0.4692(5) 1.0098(6) 0.43449(18)
H3 H 0.456208 1.108879 0.446073
C4 C 0.5773(5) 0.9847(5) 0.40566(15)
H4 H 0.637626 1.064430 0.397290
C5 C 0.5929(4) 0.8359(4) 0.38957(13)
C6 C 0.5029(4) 0.7161(5) 0.40087(14)
C7 C 0.5542(4) 0.5684(4) 0.37957(14)
C8 C 0.6775(4) 0.6273(4) 0.35126(13)
C9 C 0.4432(5) 0.4716(5) 0.35313(17)
H5 H 0.477517 0.405588 0.331150
C10 C 0.3081(5) 0.4699(6) 0.35741(16)
C11 C 0.1679(6) 0.4673(9) 0.3597(2)
C12 C 0.7500(4) 0.5600(4) 0.45675(14)
C13 C 0.8869(5) 0.5890(6) 0.44337(16)
H6 H 0.916525 0.545948 0.416345
C14 C 0.9801(5) 0.6805(6) 0.46937(18)
H7 H 1.071654 0.700867 0.459689
C15 C 0.9385(5) 0.7412(5) 0.50915(18)
C16 C 0.8039(6) 0.7157(6) 0.52361(18)
H8 H 0.776271 0.758337 0.550934
C17 C 0.7093(5) 0.6259(5) 0.49720(16)
H9 H 0.616840 0.609229 0.506647
C18 C 0.9068(4) 0.3920(4) 0.26991(13)
C19 C 0.9477(5) 0.5231(5) 0.24757(15)
H10 H 0.896091 0.614628 0.250185
C20 C 1.0654(5) 0.5185(6) 0.22127(16)
H11 H 1.091846 0.607545 0.205921
C21 C 1.1452(5) 0.3852(6) 0.21711(16)
C22 C 1.0994(5) 0.2557(6) 0.23905(18)
H12 H 1.149557 0.163452 0.235983
C23 C 0.9823(5) 0.2570(5) 0.26537(16)
H13 H 0.954319 0.167193 0.280009
C24 C 1.2764(6) 0.3840(7) 0.1891(2)
H14 H 1.263959 0.308235 0.165152
H15 H 1.359806 0.358333 0.208384
H16 H 1.288941 0.484538 0.175843
H17 H 0.141(6) 0.379(5) 0.3761(18)
H18 H 0.120(6) 0.527(6) 0.3372(16)
C25 C 0.8117(5) 0.8728(5) 0.34390(15)
H19 H 0.891843 0.871780 0.366004
H20 H 0.779036 0.977414 0.339169
H21 H 0.840755 0.830682 0.315520
loop_
_geom_bond_atom_site_label_1
_geom_bond_atom_site_label_2
_geom_bond_site_symmetry_1
_geom_bond_site_symmetry_2
Br1 C15 1_555 1_555
S1 C7 1_555 1_555
S2 O1 1_555 1_555
O2 S2 1_555 1_555
N1 C5 1_555 1_555
N2 S2 1_555 1_555
C1 H1 1_555 1_555
C2 C1 1_555 1_555
H2 C2 1_555 1_555
C3 C2 1_555 1_555
H3 C3 1_555 1_555
C4 C3 1_555 1_555
H4 C4 1_555 1_555
C5 C4 1_555 1_555
C6 C1 1_555 1_555
C7 C6 1_555 1_555
C8 N1 1_555 1_555
C9 C7 1_555 1_555
H5 C9 1_555 1_555
C10 C9 1_555 1_555
C11 C10 1_555 1_555
C12 S1 1_555 1_555
C13 C12 1_555 1_555
H6 C13 1_555 1_555
C14 C13 1_555 1_555
H7 C14 1_555 1_555
C15 C14 1_555 1_555
C16 C15 1_555 1_555
H8 C16 1_555 1_555
C17 C12 1_555 1_555
H9 C17 1_555 1_555
C18 S2 1_555 1_555
C19 C18 1_555 1_555
H10 C19 1_555 1_555
C20 C19 1_555 1_555
H11 C20 1_555 1_555
C21 C20 1_555 1_555
C22 C21 1_555 1_555
H12 C22 1_555 1_555
C23 C18 1_555 1_555
H13 C23 1_555 1_555
C24 C21 1_555 1_555
H14 C24 1_555 1_555
H15 C24 1_555 1_555
H16 C24 1_555 1_555
H17 C11 1_555 1_555
H18 C11 1_555 1_555
C25 N1 1_555 1_555
H19 C25 1_555 1_555
H20 C25 1_555 1_555
H21 C25 1_555 1_555
N2 C8 1_555 1_555
C5 C6 1_555 1_555
C7 C8 1_555 1_555
C16 C17 1_555 1_555
C22 C23 1_555 1_555

#END
