
#######################################################################
#
#                 Cambridge Crystallographic Data Centre
#                                CCDC 
#
#######################################################################
#
# If this CIF has been generated from an entry in the Cambridge 
# Structural Database, then it will include bibliographic, chemical, 
# crystal, experimental, refinement or atomic coordinate data resulting 
# from the CCDC's data processing and validation procedures.
#
#######################################################################

data_HILQAV
_chemical_formula_moiety         'C19 H18 Cl1 F1 N4 O3'
_chemical_name_systematic        
'(Z)-Ethyl 3-(4-chloro-3-ethyl-1-methyl-1H-pyrazol-5-yl-carboxamido)-2-cyano-3-(4-fluorophenyl)acrylate'
_symmetry_cell_setting           monoclinic
_symmetry_space_group_name_H-M   'P 21/c'
_symmetry_Int_Tables_number      14
_space_group_name_Hall           '-P 2ybc'
loop_
_symmetry_equiv_pos_site_id
_symmetry_equiv_pos_as_xyz
1 x,y,z
2 -x,1/2+y,1/2-z
3 -x,-y,-z
4 x,1/2-y,1/2+z
_cell_length_a                   8.7594(7)
_cell_length_b                   28.192(3)
_cell_length_c                   8.5160(8)
_cell_angle_alpha                90
_cell_angle_beta                 109.885(2)
_cell_angle_gamma                90
_cell_volume                     1977.6
_exptl_crystal_colour            colorless
_exptl_crystal_description       plate
_cell_formula_units_Z            4
_exptl_crystal_recrystallization_method 'ethyl acetate/petroleum ether'
loop_
_atom_site_label
_atom_site_type_symbol
_atom_site_fract_x
_atom_site_fract_y
_atom_site_fract_z
C1 C 0.0303(4) 0.12352(12) 0.9437(5)
C2 C 0.0405(4) 0.10853(13) 0.7953(5)
H1 H -0.0412 0.0903 0.7216
C3 C 0.1765(4) 0.12135(11) 0.7589(4)
H2 H 0.1875 0.1114 0.6591
C4 C 0.2981(4) 0.14907(10) 0.8698(4)
C5 C 0.2811(4) 0.16295(11) 1.0175(4)
H3 H 0.3615 0.1813 1.0924
C6 C 0.1457(4) 0.14992(11) 1.0563(4)
H4 H 0.1342 0.1590 1.1566
C7 C 0.4382(3) 0.16452(11) 0.8228(4)
C8 C 0.4831(4) 0.21105(11) 0.8269(4)
C9 C 0.3873(4) 0.24705(13) 0.8674(4)
C10 C 0.6234(4) 0.22698(12) 0.7842(4)
C11 C 0.7833(5) 0.29406(14) 0.7680(6)
H5 H 0.8090 0.2754 0.6845
H6 H 0.7593 0.3262 0.7265
C12 C 0.9218(6) 0.29404(18) 0.9250(7)
H7 H 0.8934 0.3111 1.0087
H8 H 1.0131 0.3091 0.9076
H9 H 0.9495 0.2620 0.9612
C13 C 0.5356(4) 0.08297(11) 0.7983(4)
C14 C 0.6074(3) 0.05767(10) 0.6913(4)
C15 C 0.6086(4) 0.06716(10) 0.5305(4)
C16 C 0.6972(4) 0.03064(12) 0.4911(4)
C17 C 0.7410(5) 0.02500(13) 0.3371(4)
H10 H 0.6468 0.0320 0.2399
H11 H 0.7720 -0.0077 0.3285
C18 C 0.8792(5) 0.05739(14) 0.3384(5)
H12 H 0.8501 0.0897 0.3500
H13 H 0.9005 0.0539 0.2356
H14 H 0.9747 0.0492 0.4304
C19 C 0.7339(4) -0.00981(12) 0.8945(4)
H15 H 0.7329 -0.0433 0.8734
H16 H 0.6562 -0.0026 0.9480
H17 H 0.8402 -0.0005 0.9659
Cl1 Cl 0.51799(13) 0.11280(3) 0.40193(12)
F1 F -0.1038(2) 0.11074(8) 0.9808(3)
N1 N 0.3149(4) 0.27709(11) 0.8997(4)
N2 N 0.5170(3) 0.13141(9) 0.7615(4)
N3 N 0.6914(3) 0.01611(9) 0.7359(3)
N4 N 0.7463(3) 0.00016(9) 0.6167(4)
O1 O 0.7110(3) 0.20129(8) 0.7383(3)
O2 O 0.6422(3) 0.27364(8) 0.7995(3)
O3 O 0.4979(3) 0.06497(8) 0.9086(3)
H18 H 0.584(4) 0.1442(11) 0.718(4)
loop_
_geom_bond_atom_site_label_1
_geom_bond_atom_site_label_2
_geom_bond_site_symmetry_1
_geom_bond_site_symmetry_2
C1 C2 1_555 1_555
C2 H1 1_555 1_555
C3 C2 1_555 1_555
H2 C3 1_555 1_555
C4 C3 1_555 1_555
C5 C4 1_555 1_555
H3 C5 1_555 1_555
C6 C1 1_555 1_555
H4 C6 1_555 1_555
C7 C4 1_555 1_555
C8 C7 1_555 1_555
C9 C8 1_555 1_555
C10 C8 1_555 1_555
C11 H5 1_555 1_555
H6 C11 1_555 1_555
C12 C11 1_555 1_555
H7 C12 1_555 1_555
H8 C12 1_555 1_555
H9 C12 1_555 1_555
C13 C14 1_555 1_555
C14 C15 1_555 1_555
C15 C16 1_555 1_555
C16 C17 1_555 1_555
C17 H10 1_555 1_555
H11 C17 1_555 1_555
C18 C17 1_555 1_555
H12 C18 1_555 1_555
H13 C18 1_555 1_555
H14 C18 1_555 1_555
C19 H15 1_555 1_555
H16 C19 1_555 1_555
H17 C19 1_555 1_555
Cl1 C15 1_555 1_555
F1 C1 1_555 1_555
N1 C9 1_555 1_555
N2 C7 1_555 1_555
N3 C14 1_555 1_555
N4 C16 1_555 1_555
O1 C10 1_555 1_555
O2 C10 1_555 1_555
O3 C13 1_555 1_555
H18 N2 1_555 1_555
C5 C6 1_555 1_555
C11 O2 1_555 1_555
C13 N2 1_555 1_555
C19 N3 1_555 1_555
N3 N4 1_555 1_555

#END
