
#######################################################################
#
#                 Cambridge Crystallographic Data Centre
#                                CCDC 
#
#######################################################################
#
# If this CIF has been generated from an entry in the Cambridge 
# Structural Database, then it will include bibliographic, chemical, 
# crystal, experimental, refinement or atomic coordinate data resulting 
# from the CCDC's data processing and validation procedures.
#
#######################################################################

data_HILQEZ
_chemical_formula_moiety         'C24 H20 N4 O2'
_chemical_name_systematic        
6-Methoxy-2-(tris(2-pyridyl)methyliminomethyl)phenol
_symmetry_cell_setting           triclinic
_symmetry_space_group_name_H-M   'P -1'
_symmetry_Int_Tables_number      2
_space_group_name_Hall           '-P 1'
loop_
_symmetry_equiv_pos_site_id
_symmetry_equiv_pos_as_xyz
1 x,y,z
2 -x,-y,-z
_cell_length_a                   8.8601(17)
_cell_length_b                   10.706(2)
_cell_length_c                   11.147(2)
_cell_angle_alpha                80.240(8)
_cell_angle_beta                 78.177(8)
_cell_angle_gamma                87.504(9)
_cell_volume                     1019.91
_exptl_crystal_colour            yellow
_exptl_crystal_description       block
_cell_formula_units_Z            2
loop_
_atom_site_label
_atom_site_type_symbol
_atom_site_fract_x
_atom_site_fract_y
_atom_site_fract_z
N1 N 0.33266(12) 0.74242(10) 1.02986(9)
C1 C 0.32798(15) 0.75382(12) 1.24160(11)
C2 C 0.40038(15) 0.77263(13) 1.11077(12)
H1 H 0.4984 0.8075 1.0856
C3 C 0.66470(16) 0.68999(16) 0.91031(14)
H2 H 0.6218 0.6133 0.9528
C4 C 0.2638(2) 0.46101(15) 0.74375(17)
H3 H 0.2294 0.3947 0.7124
C5 C 0.82107(19) 0.7082(2) 0.88838(17)
H4 H 0.8847 0.6436 0.9172
O1 O 0.09906(11) 0.66779(10) 1.20396(8)
O2 O -0.03696(12) 0.64400(11) 1.43905(9)
C6 C 0.17907(15) 0.70342(12) 1.28201(11)
C7 C 0.39813(13) 0.76771(11) 0.89521(10)
C8 C 0.57358(14) 0.78706(12) 0.86825(11)
C9 C 0.31630(13) 0.88584(11) 0.83720(11)
C10 C 0.35609(14) 0.65406(12) 0.84055(11)
N2 N 0.32578(15) 0.89811(11) 0.71510(10)
C11 C 0.10966(16) 0.69167(13) 1.40953(12)
N3 N 0.63130(14) 0.89841(12) 0.80865(13)
C12 C 0.1897(2) 0.72685(15) 1.49179(13)
H5 H 0.1440 0.7183 1.5756
N4 N 0.21454(13) 0.60759(12) 0.88633(12)
C13 C 0.40627(18) 0.78922(15) 1.32790(13)
H6 H 0.5050 0.8224 1.3012
C14 C 0.23894(17) 0.97280(14) 0.90640(14)
H7 H 0.2338 0.9618 0.9917
C15 C 0.3381(2) 0.77516(16) 1.45114(14)
H8 H 0.3912 0.7979 1.5079
C16 C 0.17926(19) 1.09068(15) 0.72196(17)
H9 H 0.1336 1.1598 0.6799
C17 C 0.2584(2) 1.00038(15) 0.65985(15)
H10 H 0.2658 1.0105 0.5743
C18 C 0.88412(17) 0.8203(2) 0.82472(17)
H11 H 0.9901 0.8327 0.8080
C19 C 0.1720(2) 0.51215(16) 0.83700(17)
H12 H 0.0739 0.4789 0.8684
C20 C 0.78688(18) 0.91319(17) 0.78668(18)
H13 H 0.8283 0.9902 0.7437
C21 C 0.16936(18) 1.07631(15) 0.84721(17)
H14 H 0.1162 1.1357 0.8923
C22 C 0.4556(2) 0.60833(15) 0.74578(14)
H15 H 0.5530 0.6430 0.7148
C23 C 0.4077(2) 0.50963(17) 0.69741(17)
H16 H 0.4732 0.4766 0.6337
C24 C -0.1187(2) 0.6382(2) 1.56427(16)
H17 H -0.2192 0.6035 1.5727
H18 H -0.1290 0.7219 1.5852
H19 H -0.0630 0.5851 1.6191
H20 H 0.1579 0.6804 1.1318
loop_
_geom_bond_atom_site_label_1
_geom_bond_atom_site_label_2
_geom_bond_site_symmetry_1
_geom_bond_site_symmetry_2
N1 C2 1_555 1_555
C1 C2 1_555 1_555
C2 H1 1_555 1_555
C3 H2 1_555 1_555
C4 H3 1_555 1_555
C5 C3 1_555 1_555
H4 C5 1_555 1_555
O1 C6 1_555 1_555
O2 C11 1_555 1_555
C6 C1 1_555 1_555
C7 N1 1_555 1_555
C8 C3 1_555 1_555
C9 C7 1_555 1_555
C10 C7 1_555 1_555
N2 C9 1_555 1_555
C11 C6 1_555 1_555
N3 C8 1_555 1_555
C12 C11 1_555 1_555
H5 C12 1_555 1_555
N4 C10 1_555 1_555
C13 C1 1_555 1_555
H6 C13 1_555 1_555
C14 C9 1_555 1_555
H7 C14 1_555 1_555
C15 C12 1_555 1_555
H8 C15 1_555 1_555
C16 H9 1_555 1_555
C17 N2 1_555 1_555
H10 C17 1_555 1_555
C18 C5 1_555 1_555
H11 C18 1_555 1_555
C19 C4 1_555 1_555
H12 C19 1_555 1_555
C20 N3 1_555 1_555
H13 C20 1_555 1_555
C21 C14 1_555 1_555
H14 C21 1_555 1_555
C22 C10 1_555 1_555
H15 C22 1_555 1_555
C23 C4 1_555 1_555
H16 C23 1_555 1_555
C24 O2 1_555 1_555
H17 C24 1_555 1_555
H18 C24 1_555 1_555
H19 C24 1_555 1_555
H20 O1 1_555 1_555
C7 C8 1_555 1_555
N4 C19 1_555 1_555
C13 C15 1_555 1_555
C16 C17 1_555 1_555
C16 C21 1_555 1_555
C18 C20 1_555 1_555
C22 C23 1_555 1_555

#END
