
#######################################################################
#
#                 Cambridge Crystallographic Data Centre
#                                CCDC 
#
#######################################################################
#
# If this CIF has been generated from an entry in the Cambridge 
# Structural Database, then it will include bibliographic, chemical, 
# crystal, experimental, refinement or atomic coordinate data resulting 
# from the CCDC's data processing and validation procedures.
#
#######################################################################

data_HILROK
_chemical_formula_moiety         'C30 H28 N2 O2'
_chemical_name_systematic        
(E,E)-4,4'-Dimethyl-2,2'-(azinodi(2-phenylethyl))diphenol
_symmetry_cell_setting           monoclinic
_symmetry_space_group_name_H-M   'P 21/c'
_symmetry_Int_Tables_number      14
_space_group_name_Hall           '-P 2ybc'
loop_
_symmetry_equiv_pos_site_id
_symmetry_equiv_pos_as_xyz
1 x,y,z
2 -x,1/2+y,1/2-z
3 -x,-y,-z
4 x,1/2-y,1/2+z
_cell_length_a                   7.7881(3)
_cell_length_b                   9.3199(4)
_cell_length_c                   16.5419(6)
_cell_angle_alpha                90
_cell_angle_beta                 98.388(2)
_cell_angle_gamma                90
_cell_volume                     1187.84
_exptl_crystal_colour            yellow
_exptl_crystal_description       plate
_cell_formula_units_Z            2
_exptl_crystal_recrystallization_method acetone
loop_
_atom_site_label
_atom_site_type_symbol
_atom_site_fract_x
_atom_site_fract_y
_atom_site_fract_z
O1 O 1.0013(2) 0.69688(17) 0.65896(9)
H1 H 1.0204 0.6307 0.6288
N1 N 0.9839(2) 0.56036(16) 0.52287(10)
C1 C 0.9186(3) 0.8041(2) 0.61378(14)
C2 C 0.8747(2) 0.7964(2) 0.52817(12)
C3 C 0.7900(2) 0.9149(2) 0.48862(14)
H2 H 0.7609 0.9113 0.4321
C4 C 0.7470(3) 1.0370(2) 0.52864(15)
C5 C 0.7929(3) 1.0392(3) 0.61281(17)
H3 H 0.7660 1.1197 0.6417
C6 C 0.8768(3) 0.9260(3) 0.65486(15)
H4 H 0.9057 0.9312 0.7113
C7 C 0.6570(3) 1.1611(2) 0.48306(18)
H5 H 0.6090 1.2226 0.5206
H6 H 0.5656 1.1261 0.4426
H7 H 0.7389 1.2142 0.4567
C8 C 0.9139(2) 0.66973(19) 0.48152(12)
C9 C 0.8695(2) 0.6714(2) 0.38985(12)
H8 H 0.9417 0.6019 0.3670
H9 H 0.8963 0.7654 0.3698
C10 C 0.6811(3) 0.63753(19) 0.36001(12)
C11 C 0.5936(3) 0.5321(2) 0.39669(13)
H10 H 0.6507 0.4824 0.4415
C12 C 0.4225(3) 0.4998(3) 0.36756(17)
H11 H 0.3655 0.4280 0.3923
C13 C 0.3372(3) 0.5736(4) 0.30232(19)
H12 H 0.2222 0.5517 0.2826
C14 C 0.4203(4) 0.6795(3) 0.26598(17)
H13 H 0.3616 0.7300 0.2219
C15 C 0.5920(3) 0.7115(3) 0.29474(14)
H14 H 0.6479 0.7837 0.2698
O1B O 0.9987(2) 0.30312(17) 0.34104(9)
H1B H 0.9796 0.3693 0.3712
N1B N 1.0161(2) 0.43964(16) 0.47713(10)
C1B C 1.0814(3) 0.1959(2) 0.38622(14)
C2B C 1.1253(2) 0.2036(2) 0.47183(12)
C3B C 1.2100(2) 0.0851(2) 0.51138(14)
H2B H 1.2391 0.0887 0.5679
C4B C 1.2530(3) -0.0370(2) 0.47136(15)
C5B C 1.2071(3) -0.0392(3) 0.38719(17)
H3B H 1.2340 -0.1197 0.3583
C6B C 1.1232(3) 0.0740(3) 0.34514(15)
H4B H 1.0943 0.0688 0.2887
C7B C 1.3430(3) -0.1611(2) 0.51694(18)
H5B H 1.3910 -0.2226 0.4794
H6B H 1.4344 -0.1261 0.5574
H7B H 1.2611 -0.2142 0.5433
C8B C 1.0861(2) 0.33027(19) 0.51848(12)
C9B C 1.1305(2) 0.3286(2) 0.61015(12)
H8B H 1.0583 0.3981 0.6330
H9B H 1.1037 0.2346 0.6302
C10B C 1.3189(3) 0.36247(19) 0.63999(12)
C11B C 1.4064(3) 0.4679(2) 0.60331(13)
H10B H 1.3493 0.5176 0.5585
C12B C 1.5775(3) 0.5002(3) 0.63244(17)
H11B H 1.6345 0.5720 0.6077
C13B C 1.6628(3) 0.4264(4) 0.69768(19)
H12B H 1.7778 0.4483 0.7174
C14B C 1.5797(4) 0.3205(3) 0.73402(17)
H13B H 1.6384 0.2700 0.7781
C15B C 1.4080(3) 0.2885(3) 0.70526(14)
H14B H 1.3521 0.2163 0.7302
loop_
_geom_bond_atom_site_label_1
_geom_bond_atom_site_label_2
_geom_bond_site_symmetry_1
_geom_bond_site_symmetry_2
O1 H1 1_555 1_555
N1 C8 1_555 1_555
C1 O1 1_555 1_555
C2 C1 1_555 1_555
C3 C2 1_555 1_555
H2 C3 1_555 1_555
C4 C3 1_555 1_555
C5 C4 1_555 1_555
H3 C5 1_555 1_555
C6 C1 1_555 1_555
H4 C6 1_555 1_555
C7 C4 1_555 1_555
H5 C7 1_555 1_555
H6 C7 1_555 1_555
H7 C7 1_555 1_555
C8 C2 1_555 1_555
C9 C8 1_555 1_555
H8 C9 1_555 1_555
H9 C9 1_555 1_555
C10 C9 1_555 1_555
C11 C10 1_555 1_555
H10 C11 1_555 1_555
C12 C11 1_555 1_555
H11 C12 1_555 1_555
C13 C12 1_555 1_555
H12 C13 1_555 1_555
C14 C13 1_555 1_555
H13 C14 1_555 1_555
C15 C10 1_555 1_555
H14 C15 1_555 1_555
O1B H1B 1_555 1_555
N1B N1 1_555 1_555
C1B O1B 1_555 1_555
C2B C1B 1_555 1_555
C3B C2B 1_555 1_555
H2B C3B 1_555 1_555
C4B C3B 1_555 1_555
C5B C4B 1_555 1_555
H3B C5B 1_555 1_555
C6B C1B 1_555 1_555
H4B C6B 1_555 1_555
C7B C4B 1_555 1_555
H5B C7B 1_555 1_555
H6B C7B 1_555 1_555
H7B C7B 1_555 1_555
C8B N1B 1_555 1_555
C9B C8B 1_555 1_555
H8B C9B 1_555 1_555
H9B C9B 1_555 1_555
C10B C9B 1_555 1_555
C11B C10B 1_555 1_555
H10B C11B 1_555 1_555
C12B C11B 1_555 1_555
H11B C12B 1_555 1_555
C13B C12B 1_555 1_555
H12B C13B 1_555 1_555
C14B C13B 1_555 1_555
H13B C14B 1_555 1_555
C15B C10B 1_555 1_555
H14B C15B 1_555 1_555
C5 C6 1_555 1_555
C14 C15 1_555 1_555
C2B C8B 1_555 1_555
C5B C6B 1_555 1_555
C14B C15B 1_555 1_555

#END
