
#######################################################################
#
#                 Cambridge Crystallographic Data Centre
#                                CCDC 
#
#######################################################################
#
# If this CIF has been generated from an entry in the Cambridge 
# Structural Database, then it will include bibliographic, chemical, 
# crystal, experimental, refinement or atomic coordinate data resulting 
# from the CCDC's data processing and validation procedures.
#
#######################################################################

data_HILRIG
_chemical_formula_moiety         'C24 H21 N1 O1 S1'
_chemical_name_systematic        
N-benzyl-5-(2-methoxyphenyl)-2-phenylthiophen-3-amine
_symmetry_cell_setting           monoclinic
_symmetry_space_group_name_H-M   'P 21/n'
_symmetry_Int_Tables_number      14
_space_group_name_Hall           '-P 2yn'
loop_
_symmetry_equiv_pos_site_id
_symmetry_equiv_pos_as_xyz
1 x,y,z
2 1/2-x,1/2+y,1/2-z
3 -x,-y,-z
4 1/2+x,1/2-y,1/2+z
_cell_length_a                   12.4729(9)
_cell_length_b                   10.1374(7)
_cell_length_c                   15.5012(13)
_cell_angle_alpha                90
_cell_angle_beta                 104.002(7)
_cell_angle_gamma                90
_cell_volume                     1901.78
_exptl_crystal_colour            yellow
_exptl_crystal_description       prismatic
_cell_formula_units_Z            4
loop_
_atom_site_label
_atom_site_type_symbol
_atom_site_fract_x
_atom_site_fract_y
_atom_site_fract_z
S1 S 0.50681(3) 0.46143(4) 0.30113(3)
N1 N 0.49660(14) 0.72260(16) 0.48562(10)
O1 O 0.64835(11) 0.34409(15) 0.21862(9)
C1 C 0.63595(13) 0.49070(16) 0.36882(11)
C2 C 0.62864(14) 0.58247(16) 0.43182(11)
H1 H 0.6900 0.6124 0.4741
C3 C 0.52013(13) 0.62828(16) 0.42757(11)
C4 C 0.44277(13) 0.56903(16) 0.35973(11)
C5 C 0.32148(13) 0.57853(16) 0.33510(11)
C6 C 0.26369(15) 0.68513(19) 0.35873(13)
H2 H 0.3025 0.7554 0.3901
C7 C 0.14970(16) 0.6876(2) 0.33610(14)
H3 H 0.1129 0.7596 0.3526
C8 C 0.08980(16) 0.5859(2) 0.28968(14)
H4 H 0.0130 0.5878 0.2756
C9 C 0.14491(16) 0.4814(2) 0.26439(13)
H5 H 0.1051 0.4125 0.2320
C10 C 0.25856(15) 0.47726(19) 0.28637(12)
H6 H 0.2943 0.4055 0.2684
C11 C 0.73687(13) 0.42233(16) 0.36000(11)
C12 C 0.83222(15) 0.42774(18) 0.42858(13)
H7 H 0.8305 0.4730 0.4804
C13 C 0.92938(16) 0.36780(19) 0.42187(15)
H8 H 0.9922 0.3741 0.4684
C14 C 0.93311(17) 0.2993(2) 0.34673(16)
H9 H 0.9986 0.2592 0.3423
C15 C 0.84081(16) 0.2893(2) 0.27782(14)
H10 H 0.8436 0.2418 0.2271
C16 C 0.74327(14) 0.35032(18) 0.28388(12)
C17 C 0.64569(18) 0.2683(2) 0.14152(14)
H11 H 0.7014 0.2996 0.1133
H12 H 0.5743 0.2764 0.1011
H13 H 0.6595 0.1774 0.1578
C18 C 0.58434(15) 0.77474(18) 0.55660(12)
H14 H 0.6291 0.7019 0.5860
H15 H 0.5516 0.8172 0.6001
C19 C 0.65819(15) 0.87235(16) 0.52579(11)
C20 C 0.76633(16) 0.8876(2) 0.57354(14)
H16 H 0.7935 0.8351 0.6232
C21 C 0.8345(2) 0.9793(2) 0.54877(18)
H17 H 0.9071 0.9883 0.5817
C22 C 0.7957(2) 1.0572(2) 0.47581(19)
H18 H 0.8417 1.1193 0.4591
C23 C 0.6890(2) 1.0434(2) 0.42762(17)
H19 H 0.6626 1.0964 0.3781
C24 C 0.62029(18) 0.95158(19) 0.45189(14)
H20 H 0.5480 0.9427 0.4184
H21 H 0.4366(17) 0.715(2) 0.4964(14)
loop_
_geom_bond_atom_site_label_1
_geom_bond_atom_site_label_2
_geom_bond_site_symmetry_1
_geom_bond_site_symmetry_2
S1 C1 1_555 1_555
N1 C3 1_555 1_555
O1 C16 1_555 1_555
C1 C2 1_555 1_555
C2 H1 1_555 1_555
C3 C2 1_555 1_555
C4 S1 1_555 1_555
C5 C4 1_555 1_555
C6 C5 1_555 1_555
H2 C6 1_555 1_555
C7 C6 1_555 1_555
H3 C7 1_555 1_555
C8 C7 1_555 1_555
H4 C8 1_555 1_555
C9 C8 1_555 1_555
H5 C9 1_555 1_555
C10 C5 1_555 1_555
H6 C10 1_555 1_555
C11 C1 1_555 1_555
C12 C11 1_555 1_555
H7 C12 1_555 1_555
C13 C12 1_555 1_555
H8 C13 1_555 1_555
C14 C13 1_555 1_555
H9 C14 1_555 1_555
C15 C14 1_555 1_555
H10 C15 1_555 1_555
C16 C11 1_555 1_555
C17 O1 1_555 1_555
H11 C17 1_555 1_555
H12 C17 1_555 1_555
H13 C17 1_555 1_555
C18 N1 1_555 1_555
H14 C18 1_555 1_555
H15 C18 1_555 1_555
C19 C18 1_555 1_555
C20 C19 1_555 1_555
H16 C20 1_555 1_555
C21 C20 1_555 1_555
H17 C21 1_555 1_555
C22 C21 1_555 1_555
H18 C22 1_555 1_555
C23 C22 1_555 1_555
H19 C23 1_555 1_555
C24 C19 1_555 1_555
H20 C24 1_555 1_555
H21 N1 1_555 1_555
C3 C4 1_555 1_555
C9 C10 1_555 1_555
C15 C16 1_555 1_555
C23 C24 1_555 1_555

#END
