
#######################################################################
#
#                 Cambridge Crystallographic Data Centre
#                                CCDC 
#
#######################################################################
#
# If this CIF has been generated from an entry in the Cambridge 
# Structural Database, then it will include bibliographic, chemical, 
# crystal, experimental, refinement or atomic coordinate data resulting 
# from the CCDC's data processing and validation procedures.
#
#######################################################################

data_HILSEB
_chemical_formula_moiety         'C8 H16 N2 O2'
_chemical_name_systematic        1,2-Diisobutyrylhydrazine
_symmetry_cell_setting           monoclinic
_symmetry_space_group_name_H-M   'P 21/n'
_symmetry_Int_Tables_number      14
_space_group_name_Hall           '-P 2yn'
loop_
_symmetry_equiv_pos_site_id
_symmetry_equiv_pos_as_xyz
1 x,y,z
2 1/2-x,1/2+y,1/2-z
3 -x,-y,-z
4 1/2+x,1/2-y,1/2+z
_cell_length_a                   4.7758(8)
_cell_length_b                   10.9093(13)
_cell_length_c                   9.9204(12)
_cell_angle_alpha                90
_cell_angle_beta                 91.0240(10)
_cell_angle_gamma                90
_cell_volume                     516.777
_exptl_crystal_colour            colorless
_exptl_crystal_description       block
_cell_formula_units_Z            2
_exptl_crystal_recrystallization_method ethanol
loop_
_atom_site_label
_atom_site_type_symbol
_atom_site_fract_x
_atom_site_fract_y
_atom_site_fract_z
N1 N 0.5501(5) 0.0388(2) 0.9509(2)
H1 H 0.7270 0.0428 0.9368
O1 O 0.1184(4) 0.10264(19) 0.8985(2)
C1 C 0.3724(6) 0.1075(2) 0.8781(3)
C2 C 0.4985(7) 0.1882(3) 0.7727(3)
H2 H 0.7029 0.1858 0.7827
C3 C 0.4004(12) 0.3177(4) 0.7895(5)
H3 H 0.2018 0.3217 0.7733
H4 H 0.4938 0.3696 0.7264
H5 H 0.4428 0.3449 0.8796
C4 C 0.4179(13) 0.1435(5) 0.6365(4)
H6 H 0.4935 0.0630 0.6233
H7 H 0.4904 0.1982 0.5699
H8 H 0.2174 0.1404 0.6281
N1B N 0.4499(5) -0.0388(2) 1.0491(2)
H1B H 0.2730 -0.0428 1.0632
O1B O 0.8816(4) -0.10264(19) 1.1015(2)
C1B C 0.6276(6) -0.1075(2) 1.1219(3)
C2B C 0.5015(7) -0.1882(3) 1.2273(3)
H2B H 0.2971 -0.1858 1.2173
C3B C 0.5996(12) -0.3177(4) 1.2105(5)
H3B H 0.7982 -0.3217 1.2267
H4B H 0.5062 -0.3696 1.2736
H5B H 0.5572 -0.3449 1.1204
C4B C 0.5821(13) -0.1435(5) 1.3635(4)
H6B H 0.5065 -0.0630 1.3767
H7B H 0.5096 -0.1982 1.4301
H8B H 0.7826 -0.1404 1.3719
loop_
_geom_bond_atom_site_label_1
_geom_bond_atom_site_label_2
_geom_bond_site_symmetry_1
_geom_bond_site_symmetry_2
N1 H1 1_555 1_555
O1 C1 1_555 1_555
C1 N1 1_555 1_555
C2 C1 1_555 1_555
H2 C2 1_555 1_555
C3 C2 1_555 1_555
H3 C3 1_555 1_555
H4 C3 1_555 1_555
H5 C3 1_555 1_555
C4 C2 1_555 1_555
H6 C4 1_555 1_555
H7 C4 1_555 1_555
H8 C4 1_555 1_555
N1B N1 1_555 1_555
H1B N1B 1_555 1_555
O1B C1B 1_555 1_555
C1B N1B 1_555 1_555
C2B C1B 1_555 1_555
H2B C2B 1_555 1_555
C3B C2B 1_555 1_555
H3B C3B 1_555 1_555
H4B C3B 1_555 1_555
H5B C3B 1_555 1_555
C4B C2B 1_555 1_555
H6B C4B 1_555 1_555
H7B C4B 1_555 1_555
H8B C4B 1_555 1_555

#END
