
#######################################################################
#
#                 Cambridge Crystallographic Data Centre
#                                CCDC 
#
#######################################################################
#
# If this CIF has been generated from an entry in the Cambridge 
# Structural Database, then it will include bibliographic, chemical, 
# crystal, experimental, refinement or atomic coordinate data resulting 
# from the CCDC's data processing and validation procedures.
#
#######################################################################

data_HILVEE
_chemical_formula_moiety         'C26 H24 N2 O2'
_chemical_name_systematic        
1,1'-((Butane-1,4-diyldioxy)bis(nitrilomethylidyne))dinaphthalene
_symmetry_cell_setting           monoclinic
_symmetry_space_group_name_H-M   'P 21/c'
_symmetry_Int_Tables_number      14
_space_group_name_Hall           '-P 2ybc'
loop_
_symmetry_equiv_pos_site_id
_symmetry_equiv_pos_as_xyz
1 x,y,z
2 -x,1/2+y,1/2-z
3 -x,-y,-z
4 x,1/2-y,1/2+z
_cell_length_a                   9.0910(18)
_cell_length_b                   5.8499(13)
_cell_length_c                   20.019(3)
_cell_angle_alpha                90
_cell_angle_beta                 94.779(2)
_cell_angle_gamma                90
_cell_volume                     1060.94
_exptl_crystal_colour            colorless
_exptl_crystal_description       block
_cell_formula_units_Z            2
_exptl_crystal_recrystallization_method ethanol
loop_
_atom_site_label
_atom_site_type_symbol
_atom_site_fract_x
_atom_site_fract_y
_atom_site_fract_z
N1 N 0.2816(2) 0.9484(3) 0.08370(9)
O1 O 0.29043(17) 1.1226(2) 0.03499(7)
C1 C 0.4221(3) 1.2525(4) 0.05003(11)
H1 H 0.5076 1.1527 0.0527
H2 H 0.4185 1.3296 0.0928
C2 C 0.4328(2) 1.4251(3) -0.00515(11)
H3 H 0.4349 1.3451 -0.0475
H4 H 0.3453 1.5207 -0.0079
C3 C 0.1568(3) 0.8486(4) 0.07499(10)
H5 H 0.0902 0.9063 0.0414
C4 C 0.1082(2) 0.6522(3) 0.11266(10)
C5 C -0.0180(3) 0.5460(4) 0.08575(11)
H6 H -0.0691 0.6097 0.0481
C6 C -0.0726(3) 0.3454(4) 0.11292(12)
H7 H -0.1583 0.2776 0.0935
C7 C 0.0009(3) 0.2513(4) 0.16784(12)
H8 H -0.0326 0.1145 0.1847
C8 C 0.1274(2) 0.3570(3) 0.19992(11)
C9 C 0.1829(2) 0.5628(3) 0.17299(10)
C10 C 0.3057(2) 0.6688(4) 0.20813(11)
H9 H 0.3429 0.8035 0.1915
C11 C 0.3708(3) 0.5778(4) 0.26582(12)
H10 H 0.4514 0.6509 0.2881
C12 C 0.3168(3) 0.3742(4) 0.29177(13)
H11 H 0.3613 0.3134 0.3314
C13 C 0.1998(3) 0.2660(4) 0.25924(13)
H12 H 0.1666 0.1292 0.2763
N1B N 0.7184(2) 2.0516(3) -0.08370(9)
O1B O 0.70957(17) 1.8774(2) -0.03499(7)
C1B C 0.5779(3) 1.7475(4) -0.05003(11)
H1B H 0.4924 1.8473 -0.0527
H2B H 0.5815 1.6704 -0.0928
C2B C 0.5672(2) 1.5749(3) 0.00515(11)
H3B H 0.5651 1.6549 0.0475
H4B H 0.6547 1.4793 0.0079
C3B C 0.8432(3) 2.1514(4) -0.07499(10)
H5B H 0.9098 2.0937 -0.0414
C4B C 0.8918(2) 2.3478(3) -0.11266(10)
C5B C 1.0180(3) 2.4540(4) -0.08575(11)
H6B H 1.0691 2.3903 -0.0481
C6B C 1.0726(3) 2.6546(4) -0.11292(12)
H7B H 1.1583 2.7224 -0.0935
C7B C 0.9991(3) 2.7487(4) -0.16784(12)
H8B H 1.0326 2.8855 -0.1847
C8B C 0.8726(2) 2.6430(3) -0.19992(11)
C9B C 0.8171(2) 2.4372(3) -0.17299(10)
C10B C 0.6943(2) 2.3312(4) -0.20813(11)
H9B H 0.6571 2.1965 -0.1915
C11B C 0.6292(3) 2.4222(4) -0.26582(12)
H10B H 0.5486 2.3491 -0.2881
C12B C 0.6832(3) 2.6258(4) -0.29177(13)
H11B H 0.6387 2.6866 -0.3314
C13B C 0.8002(3) 2.7340(4) -0.25924(13)
H12B H 0.8334 2.8708 -0.2763
loop_
_geom_bond_atom_site_label_1
_geom_bond_atom_site_label_2
_geom_bond_site_symmetry_1
_geom_bond_site_symmetry_2
N1 O1 1_555 1_555
O1 C1 1_555 1_555
C1 H1 1_555 1_555
H2 C1 1_555 1_555
C2 C1 1_555 1_555
H3 C2 1_555 1_555
H4 C2 1_555 1_555
C3 N1 1_555 1_555
H5 C3 1_555 1_555
C4 C3 1_555 1_555
C5 C4 1_555 1_555
H6 C5 1_555 1_555
C6 C5 1_555 1_555
H7 C6 1_555 1_555
C7 C6 1_555 1_555
H8 C7 1_555 1_555
C8 C7 1_555 1_555
C9 C4 1_555 1_555
C10 C9 1_555 1_555
H9 C10 1_555 1_555
C11 C10 1_555 1_555
H10 C11 1_555 1_555
C12 C11 1_555 1_555
H11 C12 1_555 1_555
C13 C8 1_555 1_555
H12 C13 1_555 1_555
N1B O1B 1_555 1_555
O1B C1B 1_555 1_555
C1B H1B 1_555 1_555
H2B C1B 1_555 1_555
C2B C2 1_555 1_555
H3B C2B 1_555 1_555
H4B C2B 1_555 1_555
C3B N1B 1_555 1_555
H5B C3B 1_555 1_555
C4B C3B 1_555 1_555
C5B C4B 1_555 1_555
H6B C5B 1_555 1_555
C6B C5B 1_555 1_555
H7B C6B 1_555 1_555
C7B C6B 1_555 1_555
H8B C7B 1_555 1_555
C8B C7B 1_555 1_555
C9B C4B 1_555 1_555
C10B C9B 1_555 1_555
H9B C10B 1_555 1_555
C11B C10B 1_555 1_555
H10B C11B 1_555 1_555
C12B C11B 1_555 1_555
H11B C12B 1_555 1_555
C13B C8B 1_555 1_555
H12B C13B 1_555 1_555
C8 C9 1_555 1_555
C12 C13 1_555 1_555
C1B C2B 1_555 1_555
C8B C9B 1_555 1_555
C12B C13B 1_555 1_555

#END
