
#######################################################################
#
#                 Cambridge Crystallographic Data Centre
#                                CCDC 
#
#######################################################################
#
# If this CIF has been generated from an entry in the Cambridge 
# Structural Database, then it will include bibliographic, chemical, 
# crystal, experimental, refinement or atomic coordinate data resulting 
# from the CCDC's data processing and validation procedures.
#
#######################################################################

data_HILWOP
_chemical_compound_source        'flowers of Datura metel L'
_chemical_name_common            'Withametelin I dihydrate'
_chemical_formula_moiety         'C28 H36 O6,2(H2 O1)'
_chemical_name_systematic        
'(20R,22R,24R)-5\b,6\b-Epoxy-21,24-epoxy-12\b-hydroxy-1-oxowitha-2,25(27)-dienolide dihydrate'
_chemical_properties_biological  
'cytotoxic activity against A549(lung), BGC-823(gastric) and K562(leukaemia) cancer cell lines'
_symmetry_cell_setting           orthorhombic
_symmetry_space_group_name_H-M   'P 21 21 21'
_symmetry_Int_Tables_number      19
_space_group_name_Hall           'P 2ac 2ab'
loop_
_symmetry_equiv_pos_site_id
_symmetry_equiv_pos_as_xyz
1 x,y,z
2 1/2-x,-y,1/2+z
3 -x,1/2+y,1/2-z
4 1/2+x,1/2-y,-z
_cell_length_a                   10.6156(7)
_cell_length_b                   11.2307(7)
_cell_length_c                   21.7108(14)
_cell_angle_alpha                90
_cell_angle_beta                 90
_cell_angle_gamma                90
_cell_volume                     2588.38
_exptl_crystal_colour            colorless
_chemical_melting_point          185-187deg.C
_cell_formula_units_Z            4
loop_
_atom_site_label
_atom_site_type_symbol
_atom_site_fract_x
_atom_site_fract_y
_atom_site_fract_z
O1 O 0.39835(17) 0.69539(13) 0.55050(5)
O2 O 0.51512(12) 0.36287(10) 0.41689(5)
O3 O 0.85116(13) 0.00304(13) 0.19652(6)
O4 O 0.84007(12) 0.19223(11) 0.21672(4)
O5 O 0.77291(10) 0.19119(9) 0.37071(4)
O6 O 0.38148(12) 0.93374(11) 0.36407(5)
C1 C 0.41399(15) 0.78619(16) 0.52198(6)
C2 C 0.4477(2) 0.8957(2) 0.55471(9)
C3 C 0.4212(2) 1.0008(2) 0.53085(10)
C4 C 0.3663(2) 1.01369(18) 0.46916(10)
C5 C 0.41434(16) 0.91570(14) 0.42776(7)
C6 C 0.39711(13) 0.78893(13) 0.45174(6)
C7 C 0.49919(13) 0.70082(13) 0.42548(6)
C8 C 0.54244(14) 0.73068(12) 0.35977(6)
C9 C 0.59919(15) 0.85486(13) 0.35809(7)
H1 H 0.6764 0.8555 0.3820
H2 H 0.6204 0.8750 0.3159
C10 C 0.51165(18) 0.94580(15) 0.38302(7)
H3 H 0.5443 1.0273 0.3850
C11 C 0.46089(15) 0.56961(14) 0.42956(7)
C12 C 0.55991(13) 0.48145(12) 0.40622(6)
H4 H 0.6352 0.4922 0.4317
C13 C 0.59843(11) 0.50756(12) 0.33916(6)
C14 C 0.64072(13) 0.63935(13) 0.33969(6)
C15 C 0.70248(17) 0.65819(15) 0.27713(8)
C16 C 0.77333(16) 0.54117(15) 0.26684(8)
C17 C 0.72268(13) 0.44876(13) 0.31452(6)
C18 C 0.72048(13) 0.32382(13) 0.28480(6)
C19 C 0.67980(14) 0.22147(14) 0.32567(7)
C20 C 0.89532(14) 0.16001(13) 0.34557(6)
C21 C 0.94429(14) 0.26455(14) 0.30880(7)
C22 C 0.85084(15) 0.29298(14) 0.25899(7)
C23 C 0.85726(15) 0.08025(16) 0.23527(7)
C24 C 0.88404(13) 0.05609(13) 0.30117(7)
C25 C 0.89875(16) -0.05620(15) 0.31732(9)
H5 H 0.8922 -0.1161 0.2879
H6 H 0.9157 -0.0755 0.3581
C26 C 0.97635(19) 0.13295(17) 0.40112(8)
H7 H 0.9780 0.2010 0.4279
H8 H 1.0605 0.1147 0.3879
H9 H 0.9420 0.0660 0.4229
C27 C 0.48947(14) 0.48453(15) 0.29464(7)
C28 C 0.26212(15) 0.74954(16) 0.43687(8)
H10 H 0.2042 0.8105 0.4494
H11 H 0.2435 0.6771 0.4585
H12 H 0.2542 0.7363 0.3934
H13 H 0.7781(12) 0.4428(11) 0.3481(6)
H14 H 0.6640(13) 0.3265(12) 0.2505(6)
H15 H 0.5997(14) 0.2432(12) 0.3493(6)
H16 H 0.6611(13) 0.1494(13) 0.3004(6)
H17 H 0.9535(15) 0.3330(15) 0.3359(7)
H18 H 0.8785(14) 0.3580(13) 0.2334(7)
H19 H 0.5143(14) 0.5000(13) 0.2522(7)
H20 H 0.4619(15) 0.4033(15) 0.2987(7)
H21 H 0.4146(16) 0.5340(15) 0.3044(7)
H22 H 1.0292(16) 0.2454(14) 0.2910(7)
H23 H 0.7573(17) 0.7247(16) 0.2781(8)
H24 H 0.6339(17) 0.6710(15) 0.2443(8)
H25 H 0.8635(17) 0.5519(15) 0.2734(7)
H26 H 0.7602(14) 0.5104(14) 0.2255(7)
H27 H 0.3891(19) 1.0893(18) 0.4513(9)
H28 H 0.4435(14) 0.5504(13) 0.4723(7)
H29 H 0.3830(15) 0.5551(14) 0.4056(7)
H34 H 0.276(2) 1.007(2) 0.4716(9)
H35 H 0.434(2) 0.361(2) 0.4095(12)
H36 H 0.7070(13) 0.6457(12) 0.3708(6)
H37 H 0.5716(13) 0.7119(12) 0.4512(6)
H38 H 0.4685(13) 0.7269(12) 0.3322(6)
H39 H 0.440(2) 1.069(2) 0.5562(10)
H40 H 0.4835(17) 0.8814(15) 0.5945(9)
O7 O 0.73845(15) 0.82950(16) 0.10732(9)
H30 H 0.779(3) 0.880(3) 0.1272(13)
H31 H 0.779(3) 0.823(2) 0.0675(13)
O8 O 0.16136(18) 0.28826(18) 0.50925(7)
H32 H 0.215(3) 0.305(3) 0.5396(14)
H33 H 0.112(3) 0.237(3) 0.5261(13)
loop_
_geom_bond_atom_site_label_1
_geom_bond_atom_site_label_2
_geom_bond_site_symmetry_1
_geom_bond_site_symmetry_2
O1 C1 1_555 1_555
O2 C12 1_555 1_555
O3 C23 1_555 1_555
O4 C22 1_555 1_555
O5 C19 1_555 1_555
O6 C5 1_555 1_555
O7 H30 1_555 1_555
O8 H32 1_555 1_555
C1 C2 1_555 1_555
C2 C3 1_555 1_555
C3 C4 1_555 1_555
C4 C5 1_555 1_555
C5 C6 1_555 1_555
C6 C1 1_555 1_555
C7 C6 1_555 1_555
C8 C7 1_555 1_555
C9 C8 1_555 1_555
H1 C9 1_555 1_555
H2 C9 1_555 1_555
C10 O6 1_555 1_555
H3 C10 1_555 1_555
C11 C7 1_555 1_555
C12 C11 1_555 1_555
H4 C12 1_555 1_555
C13 C12 1_555 1_555
C14 C8 1_555 1_555
C15 C14 1_555 1_555
C16 C15 1_555 1_555
C17 C13 1_555 1_555
C18 C17 1_555 1_555
C19 C18 1_555 1_555
C20 O5 1_555 1_555
C21 C20 1_555 1_555
C22 C18 1_555 1_555
C23 O4 1_555 1_555
C24 C20 1_555 1_555
C25 C24 1_555 1_555
H5 C25 1_555 1_555
H6 C25 1_555 1_555
C26 C20 1_555 1_555
H7 C26 1_555 1_555
H8 C26 1_555 1_555
H9 C26 1_555 1_555
C27 C13 1_555 1_555
C28 C6 1_555 1_555
H10 C28 1_555 1_555
H11 C28 1_555 1_555
H12 C28 1_555 1_555
H13 C17 1_555 1_555
H14 C18 1_555 1_555
H15 C19 1_555 1_555
H16 C19 1_555 1_555
H17 C21 1_555 1_555
H18 C22 1_555 1_555
H19 C27 1_555 1_555
H20 C27 1_555 1_555
H21 C27 1_555 1_555
H22 C21 1_555 1_555
H23 C15 1_555 1_555
H24 C15 1_555 1_555
H25 C16 1_555 1_555
H26 C16 1_555 1_555
H27 C4 1_555 1_555
H28 C11 1_555 1_555
H29 C11 1_555 1_555
H31 O7 1_555 1_555
H33 O8 1_555 1_555
H34 C4 1_555 1_555
H35 O2 1_555 1_555
H36 C14 1_555 1_555
H37 C7 1_555 1_555
H38 C8 1_555 1_555
H39 C3 1_555 1_555
H40 C2 1_555 1_555
C5 C10 1_555 1_555
C9 C10 1_555 1_555
C13 C14 1_555 1_555
C16 C17 1_555 1_555
C21 C22 1_555 1_555
C23 C24 1_555 1_555

#END
