
#######################################################################
#
#                 Cambridge Crystallographic Data Centre
#                                CCDC 
#
#######################################################################
#
# If this CIF has been generated from an entry in the Cambridge 
# Structural Database, then it will include bibliographic, chemical, 
# crystal, experimental, refinement or atomic coordinate data resulting 
# from the CCDC's data processing and validation procedures.
#
#######################################################################

data_HILYIN
_chemical_formula_moiety         'C19 H21 N1 O6'
_chemical_name_systematic        
'ethyl (5-hydroxy-2,3-dihydro-1,4-benzodioxin-6-yl)[(4-methoxyphenyl)amino]acetate'
_symmetry_cell_setting           monoclinic
_symmetry_space_group_name_H-M   'P 21/n'
_symmetry_Int_Tables_number      14
_space_group_name_Hall           '-P 2yn'
loop_
_symmetry_equiv_pos_site_id
_symmetry_equiv_pos_as_xyz
1 x,y,z
2 1/2-x,1/2+y,1/2-z
3 -x,-y,-z
4 1/2+x,1/2-y,1/2+z
_cell_length_a                   7.9494(3)
_cell_length_b                   20.2684(8)
_cell_length_c                   11.2962(4)
_cell_angle_alpha                90
_cell_angle_beta                 92.119(4)
_cell_angle_gamma                90
_cell_volume                     1818.82
_exptl_crystal_colour            colorless
_exptl_crystal_description       block
_cell_formula_units_Z            4
loop_
_atom_site_label
_atom_site_type_symbol
_atom_site_fract_x
_atom_site_fract_y
_atom_site_fract_z
O1 O 0.2269(2) 0.50801(12) 0.29794(19)
H1 H 0.1267 0.5006 0.2839
O2 O 0.0707(3) 0.43429(12) 0.1238(2)
O3 O 0.2714(3) 0.37009(11) -0.04594(18)
O4 O 0.8796(3) 0.51230(12) 0.3262(2)
O5 O 0.7243(3) 0.43956(11) 0.4241(2)
O6 O 0.7806(3) 0.79357(10) 0.6034(2)
N1 N 0.5914(3) 0.59216(12) 0.2904(2)
C1 C 0.3198(3) 0.47695(13) 0.2164(2)
C2 C 0.2446(4) 0.43891(13) 0.1261(2)
C3 C 0.3419(4) 0.40776(13) 0.0447(2)
C4 C 0.5147(4) 0.41478(14) 0.0502(2)
H2 H 0.5804 0.3946 -0.0058
C5 C 0.5883(4) 0.45211(14) 0.1395(2)
H3 H 0.7048 0.4567 0.1434
C6 C 0.4941(3) 0.48310(12) 0.2240(2)
C7 C 0.5765(3) 0.52379(13) 0.3237(2)
H4 H 0.5047 0.5214 0.3922
C8 C 0.7460(4) 0.49235(15) 0.3586(3)
C9 C 0.8698(6) 0.3983(2) 0.4549(5)
H5 H 0.9608 0.4083 0.4028
H6 H 0.9086 0.4073 0.5357
C10 C 0.8241(8) 0.3315(3) 0.4434(8)
H7 H 0.8246 0.3190 0.3614
H8 H 0.7134 0.3251 0.4726
H9 H 0.9032 0.3047 0.4882
C11 C 0.6486(4) 0.63883(13) 0.3737(2)
C12 C 0.7048(4) 0.70019(14) 0.3346(3)
H10 H 0.7120 0.7077 0.2538
C13 C 0.7494(4) 0.74921(15) 0.4123(3)
H11 H 0.7879 0.7893 0.3836
C14 C 0.7381(4) 0.74010(14) 0.5333(3)
C15 C 0.6866(4) 0.67995(15) 0.5741(3)
H12 H 0.6802 0.6728 0.6552
C16 C 0.6439(4) 0.62953(14) 0.4948(3)
H13 H 0.6115 0.5887 0.5239
C17 C 0.7685(6) 0.78626(19) 0.7272(3)
H14 H 0.6547 0.7753 0.7452
H15 H 0.7998 0.8269 0.7658
H16 H 0.8425 0.7517 0.7547
C18 C 0.0068(12) 0.4128(4) 0.0063(8)
H17 H 0.0245 0.4471 -0.0518
H18 H -0.1129 0.4037 0.0080
C19 C 0.1041(9) 0.3493(4) -0.0268(7)
H19 H 0.1022 0.3173 0.0370
H20 H 0.0544 0.3294 -0.0980
H21 H 0.622(4) 0.5982(15) 0.218(3)
C20? C 0.0059(15) 0.3853(5) 0.0490(9)
H22? H -0.1140 0.3924 0.0356
H23? H 0.0212 0.3427 0.0871
C21? C 0.0852(13) 0.3846(6) -0.0619(9)
H24? H 0.0699 0.4271 -0.1003
H25? H 0.0328 0.3513 -0.1126
loop_
_geom_bond_atom_site_label_1
_geom_bond_atom_site_label_2
_geom_bond_site_symmetry_1
_geom_bond_site_symmetry_2
O1 H1 1_555 1_555
O2 C2 1_555 1_555
O3 C3 1_555 1_555
O4 C8 1_555 1_555
O5 C8 1_555 1_555
O6 C14 1_555 1_555
N1 C7 1_555 1_555
C1 O1 1_555 1_555
C2 C1 1_555 1_555
C3 C2 1_555 1_555
C4 C3 1_555 1_555
H2 C4 1_555 1_555
C5 C4 1_555 1_555
H3 C5 1_555 1_555
C6 C1 1_555 1_555
C7 C6 1_555 1_555
H4 C7 1_555 1_555
C8 C7 1_555 1_555
C9 O5 1_555 1_555
H5 C9 1_555 1_555
H6 C9 1_555 1_555
C10 C9 1_555 1_555
H7 C10 1_555 1_555
H8 C10 1_555 1_555
H9 C10 1_555 1_555
C11 N1 1_555 1_555
C12 C11 1_555 1_555
H10 C12 1_555 1_555
C13 C12 1_555 1_555
H11 C13 1_555 1_555
C14 C13 1_555 1_555
C15 C14 1_555 1_555
H12 C15 1_555 1_555
C16 C11 1_555 1_555
H13 C16 1_555 1_555
C17 O6 1_555 1_555
H14 C17 1_555 1_555
H15 C17 1_555 1_555
H16 C17 1_555 1_555
C18 O2 1_555 1_555
H17 C18 1_555 1_555
H18 C18 1_555 1_555
C19 O3 1_555 1_555
H19 C19 1_555 1_555
H20 C19 1_555 1_555
H21 N1 1_555 1_555
C5 C6 1_555 1_555
C15 C16 1_555 1_555
C18 C19 1_555 1_555

#END
