
#######################################################################
#
#                 Cambridge Crystallographic Data Centre
#                                CCDC 
#
#######################################################################
#
# If this CIF has been generated from an entry in the Cambridge 
# Structural Database, then it will include bibliographic, chemical, 
# crystal, experimental, refinement or atomic coordinate data resulting 
# from the CCDC's data processing and validation procedures.
#
#######################################################################

data_HIMFEO
_chemical_formula_moiety         'C21 H25 N1 O3'
_chemical_name_systematic        
7-Isopropyl-6-hydroxy-2,2-dimethyl-6-naphthyl-3-oxa-1-azabicyclo(3.3.0)octan-8-one
_symmetry_cell_setting           orthorhombic
_symmetry_space_group_name_H-M   'P 21 21 21'
_symmetry_Int_Tables_number      19
_space_group_name_Hall           'P 2ac 2ab'
loop_
_symmetry_equiv_pos_site_id
_symmetry_equiv_pos_as_xyz
1 x,y,z
2 1/2-x,-y,1/2+z
3 1/2+x,1/2-y,-z
4 -x,1/2+y,1/2-z
_cell_length_a                   11.420(1)
_cell_length_b                   12.261(1)
_cell_length_c                   13.370(2)
_cell_angle_alpha                90
_cell_angle_beta                 90
_cell_angle_gamma                90
_cell_volume                     1872.08
_exptl_crystal_colour            colorless
_exptl_crystal_description       prism
_cell_formula_units_Z            4
loop_
_atom_site_label
_atom_site_type_symbol
_atom_site_fract_x
_atom_site_fract_y
_atom_site_fract_z
N1 N 0.8965(2) 0.0379(2) -0.1729(2)
O1 O 0.7184(2) -0.0087(2) -0.2373(1)
C1 C 0.7810(2) 0.0195(2) -0.1674(2)
C2 C 0.7426(2) 0.0404(2) -0.0607(2)
O2 O 0.8627(2) 0.0988(1) 0.0826(1)
C3 C 0.8581(2) 0.0261(2) 0.0007(2)
C4 C 0.9524(2) 0.0609(3) -0.0769(2)
C5 C 1.0691(3) 0.0035(3) -0.0935(2)
O3 O 1.0892(2) 0.0196(2) -0.1985(2)
C6 C 0.9814(3) 0.0045(3) -0.2497(2)
C7 C 0.9642(4) -0.1146(3) -0.2776(3)
C8 C 0.9795(4) 0.0798(4) -0.3388(2)
C9 C 0.8791(2) -0.0921(2) 0.0352(2)
C10 C 0.9744(2) -0.1166(2) 0.1021(2)
C11 C 1.0562(3) -0.0388(3) 0.1376(2)
C12 C 1.1487(3) -0.0679(4) 0.1968(2)
C13 C 1.1653(4) -0.1753(5) 0.2257(3)
C14 C 1.0883(4) -0.2535(4) 0.1948(3)
C15 C 0.9925(3) -0.2267(3) 0.1318(2)
C16 C 0.9152(4) -0.3086(3) 0.0968(3)
C17 C 0.8277(4) -0.2842(2) 0.0321(3)
C18 C 0.8109(3) -0.1764(2) 0.0014(2)
C19 C 0.6809(3) 0.1526(2) -0.0501(2)
C20 C 0.5557(3) 0.1430(3) -0.0881(3)
C21 C 0.7451(4) 0.2471(3) -0.1002(3)
H1 H 0.6875(2) -0.0170(2) -0.0409(2)
H2 H 0.8308(27) 0.0681(24) 0.1353(22)
H3 H 0.9639(23) 0.1402(24) -0.0746(20)
H4 H 1.1307(3) 0.0364(3) -0.0538(2)
H5 H 1.0637(3) -0.0735(3) -0.0773(2)
H6 H 0.8909(4) -0.1230(3) -0.3120(3)
H7 H 0.9637(4) -0.1583(3) -0.2180(3)
H8 H 1.0270(4) -0.1378(3) -0.3203(3)
H9 H 0.9072(4) 0.0707(4) -0.3743(2)
H10 H 1.0439(4) 0.0626(4) -0.3822(2)
H11 H 0.9864(4) 0.1539(4) -0.3165(2)
H12 H 1.0467(3) 0.0341(3) 0.1202(2)
H13 H 1.2014(3) -0.0148(4) 0.2179(2)
H14 H 1.2285(4) -0.1941(5) 0.2660(3)
H15 H 1.0988(4) -0.3253(4) 0.2153(3)
H16 H 0.9246(4) -0.3801(3) 0.1186(3)
H17 H 0.7790(4) -0.3391(2) 0.0082(3)
H18 H 0.7511(3) -0.1613(2) -0.0437(2)
H19 H 0.6766(3) 0.1692(2) 0.0215(2)
H20 H 0.5176(3) 0.0830(3) -0.0554(3)
H21 H 0.5565(3) 0.1306(3) -0.1590(3)
H22 H 0.5141(3) 0.2092(3) -0.0740(3)
H23 H 0.8237(4) 0.2511(3) -0.0748(3)
H24 H 0.7049(4) 0.3141(3) -0.0861(3)
H25 H 0.7473(4) 0.2355(3) -0.1712(3)
loop_
_geom_bond_atom_site_label_1
_geom_bond_atom_site_label_2
_geom_bond_site_symmetry_1
_geom_bond_site_symmetry_2
N1 C1 1_555 1_555
O1 C1 1_555 1_555
C1 C2 1_555 1_555
C2 C3 1_555 1_555
O2 C3 1_555 1_555
C3 C4 1_555 1_555
C4 N1 1_555 1_555
C5 C4 1_555 1_555
O3 C5 1_555 1_555
C6 N1 1_555 1_555
C7 C6 1_555 1_555
C8 C6 1_555 1_555
C9 C3 1_555 1_555
C10 C9 1_555 1_555
C11 C10 1_555 1_555
C12 C11 1_555 1_555
C13 C12 1_555 1_555
C14 C13 1_555 1_555
C15 C10 1_555 1_555
C16 C15 1_555 1_555
C17 C16 1_555 1_555
C18 C9 1_555 1_555
C19 C2 1_555 1_555
C20 C19 1_555 1_555
C21 C19 1_555 1_555
H1 C2 1_555 1_555
H2 O2 1_555 1_555
H3 C4 1_555 1_555
H4 C5 1_555 1_555
H5 C5 1_555 1_555
H6 C7 1_555 1_555
H7 C7 1_555 1_555
H8 C7 1_555 1_555
H9 C8 1_555 1_555
H10 C8 1_555 1_555
H11 C8 1_555 1_555
H12 C11 1_555 1_555
H13 C12 1_555 1_555
H14 C13 1_555 1_555
H15 C14 1_555 1_555
H16 C16 1_555 1_555
H17 C17 1_555 1_555
H18 C18 1_555 1_555
H19 C19 1_555 1_555
H20 C20 1_555 1_555
H21 C20 1_555 1_555
H22 C20 1_555 1_555
H23 C21 1_555 1_555
H24 C21 1_555 1_555
H25 C21 1_555 1_555
O3 C6 1_555 1_555
C14 C15 1_555 1_555
C17 C18 1_555 1_555

#END
