
#######################################################################
#
#                 Cambridge Crystallographic Data Centre
#                                CCDC 
#
#######################################################################
#
# If this CIF has been generated from an entry in the Cambridge 
# Structural Database, then it will include bibliographic, chemical, 
# crystal, experimental, refinement or atomic coordinate data resulting 
# from the CCDC's data processing and validation procedures.
#
#######################################################################

data_HIMPAX
_chemical_formula_moiety         
'C47 H76 Mg1 N4 O6 2+,C4 H8 O1,4(C1 F3 O3 S1 1-),C43 H70 Mg1 N4 O6 2+'
_chemical_name_systematic        
"aqua-(1,1'-(propane-1,3-diyl)bis{N-[2,6-di-isopropylphenyl]-1-oxo-1\l^5^-piperidine-2-carboxamide})-(tetrahydrofuran)-magnesium (1,1'-(propane-1,3-diyl)bis{N-[2,6-di-isopropylphenyl]-1-oxo-1\l^5^-piperidine-2-carboxamide})-bis(tetrahydrofuran)-magnesium tetrakis(trifluoromethanesulfonate) tetrahydrofuran solvate"
_symmetry_cell_setting           monoclinic
_symmetry_space_group_name_H-M   'P 21'
_symmetry_Int_Tables_number      4
_space_group_name_Hall           'P 2yb'
loop_
_symmetry_equiv_pos_site_id
_symmetry_equiv_pos_as_xyz
1 x,y,z
2 -x,1/2+y,-z
_cell_length_a                   21.7828(5)
_cell_length_b                   11.9067(2)
_cell_length_c                   24.0674(5)
_cell_angle_alpha                90
_cell_angle_beta                 104.989(2)
_cell_angle_gamma                90
_cell_volume                     6029.77
_exptl_crystal_colour            colorless
_exptl_crystal_description       block
_cell_formula_units_Z            2
loop_
_atom_site_label
_atom_site_type_symbol
_atom_site_fract_x
_atom_site_fract_y
_atom_site_fract_z
S1 S 1.08023(12) 0.7900(3) 1.09886(11)
F1 F 1.1354(4) 0.6398(8) 1.1751(4)
F2 F 1.1385(6) 0.8021(11) 1.2085(4)
F3 F 1.0505(6) 0.7135(13) 1.1891(5)
O1 O 1.1405(4) 0.8157(11) 1.0870(5)
O2 O 1.0438(4) 0.6998(8) 1.0676(4)
O3 O 1.0448(4) 0.8866(8) 1.1050(4)
C1 C 1.1046(6) 0.7373(13) 1.1682(6)
S2 S 0.58497(16) 1.2440(3) 0.91439(16)
F4 F 0.5148(8) 1.2099(16) 0.9839(7)
F5 F 0.5197(5) 1.3810(11) 0.9555(6)
F6 F 0.4627(5) 1.2557(11) 0.8992(6)
O4 O 0.5838(8) 1.3225(10) 0.8717(6)
O5 O 0.5724(5) 1.1307(8) 0.8945(5)
O6 O 0.6338(3) 1.2440(9) 0.9545(5)
C2 C 0.5184(8) 1.2800(15) 0.9385(8)
S3 S 0.92606(13) 1.2145(3) 1.40066(13)
F7 F 0.9517(5) 1.0355(8) 1.4625(5)
F8 F 0.8608(5) 1.1136(11) 1.4596(5)
F9 F 0.8716(4) 1.0140(7) 1.3869(4)
O7 O 0.9691(4) 1.1688(8) 1.3696(4)
O8 O 0.9557(4) 1.2760(7) 1.4492(4)
O9 O 0.8674(4) 1.2599(9) 1.3663(5)
C3 C 0.9049(5) 1.1047(15) 1.4292(4)
S4 S 0.38054(14) 0.5901(2) 0.56505(14)
F10 F 0.4977(7) 0.5481(17) 0.6175(8)
F11 F 0.4839(8) 0.6788(18) 0.5585(10)
F12 F 0.4680(7) 0.5147(19) 0.5255(9)
O10 O 0.3802(5) 0.6746(8) 0.6061(5)
O11 O 0.3642(7) 0.4816(9) 0.5795(6)
O12 O 0.3539(7) 0.6200(9) 0.5113(5)
C4 C 0.4585(9) 0.5888(17) 0.5648(9)
Mg1 Mg 0.74145(13) 0.7879(3) 0.98942(15)
O13 O 0.8132(3) 0.8665(6) 1.0482(4)
O14 O 0.8085(3) 0.7273(5) 0.9529(3)
O15 O 0.6707(3) 0.7012(5) 0.9329(3)
O16 O 0.7470(3) 0.6538(5) 1.0430(3)
O17 O 0.7223(4) 0.9206(7) 0.9298(5)
O18 O 0.6806(4) 0.8684(8) 1.0326(7)
N1 N 0.9102(4) 0.9018(6) 1.1035(3)
H1 H 0.9502 0.8910 1.1083
N2 N 0.8713(3) 0.7088(6) 0.9832(3)
N3 N 0.7321(3) 0.5450(6) 1.0234(3)
N4 N 0.6170(4) 0.5536(7) 0.8882(4)
H2 H 0.6061 0.4847 0.8906
C5 C 0.9343(6) 1.1675(10) 1.0813(5)
H3 H 0.9463 1.2209 1.1121
H4 H 0.9361 1.2025 1.0458
H5 H 0.9630 1.1048 1.0890
C6 C 0.8209(8) 1.2202(11) 1.0575(8)
H6 H 0.7787 1.1916 1.0535
H7 H 0.8244 1.2489 1.0211
H8 H 0.8292 1.2794 1.0855
C7 C 0.8683(6) 1.1275(8) 1.0768(6)
H9 H 0.8587 1.0685 1.0474
C8 C 0.8684(6) 1.0729(9) 1.1351(6)
C9 C 0.8534(8) 1.1290(11) 1.1806(7)
H10 H 0.8418 1.2043 1.1756
C10 C 0.8547(10) 1.0795(12) 1.2323(8)
H11 H 0.8487 1.1217 1.2629
C11 C 0.8648(18) 0.9694(15) 1.2374(11)
H12 H 0.8545 0.9315 1.2675
C12 C 0.8907(8) 0.9080(10) 1.1985(6)
C13 C 0.8900(6) 0.9612(9) 1.1469(5)
C14 C 0.9052(9) 0.7842(10) 1.2082(6)
H13 H 0.9274 0.7616 1.1793
C15 C 0.9495(13) 0.7641(14) 1.2641(7)
H14 H 0.9849 0.8146 1.2693
H15 H 0.9644 0.6880 1.2660
H16 H 0.9282 0.7764 1.2939
C16 C 0.8427(10) 0.7125(13) 1.1958(10)
H17 H 0.8143 0.7441 1.2162
H18 H 0.8529 0.6367 1.2085
H19 H 0.8227 0.7128 1.1553
C17 C 0.8701(4) 0.8620(7) 1.0558(4)
C18 C 0.9032(4) 0.8180(7) 1.0102(4)
H20 H 0.9480 0.8028 1.0290
C19 C 0.8993(4) 0.9062(8) 0.9643(4)
H21 H 0.9192 0.9750 0.9817
H22 H 0.8551 0.9222 0.9457
C20 C 0.9327(5) 0.8647(9) 0.9197(4)
H23 H 0.9275 0.9193 0.8890
H24 H 0.9778 0.8563 0.9375
C21 C 0.9050(5) 0.7530(9) 0.8954(4)
H25 H 0.9287 0.7248 0.8693
H26 H 0.8613 0.7639 0.8735
C22 C 0.9072(4) 0.6672(9) 0.9424(4)
H27 H 0.8887 0.5971 0.9253
H28 H 0.9510 0.6530 0.9630
C23 C 0.8760(4) 0.6250(7) 1.0314(3)
H29 H 0.8566 0.6581 1.0595
H30 H 0.9206 0.6134 1.0502
C24 C 0.8456(4) 0.5108(7) 1.0144(3)
H31 H 0.8548 0.4644 1.0487
H32 H 0.8670 0.4768 0.9879
C25 C 0.7736(4) 0.5038(7) 0.9867(4)
H33 H 0.7640 0.5470 0.9513
H34 H 0.7627 0.4262 0.9765
C26 C 0.7401(4) 0.4700(8) 1.0766(4)
H35 H 0.7305 0.3929 1.0646
H36 H 0.7840 0.4730 1.0993
C27 C 0.6970(6) 0.5074(10) 1.1129(5)
H37 H 0.7029 0.4586 1.1461
H38 H 0.7083 0.5832 1.1266
C28 C 0.6288(5) 0.5049(10) 1.0798(5)
H39 H 0.6026 0.5346 1.1033
H40 H 0.6159 0.4279 1.0699
C29 C 0.6193(4) 0.5748(9) 1.0250(5)
H41 H 0.5755 0.5685 1.0026
H42 H 0.6277 0.6532 1.0351
C30 C 0.6633(4) 0.5357(8) 0.9886(4)
H43 H 0.6539 0.4570 0.9778
C31 C 0.6525(4) 0.6063(9) 0.9343(4)
C32 C 0.5971(6) 0.6126(11) 0.8347(5)
C33 C 0.6257(8) 0.5829(12) 0.7934(6)
C34 C 0.6052(12) 0.6355(19) 0.7377(6)
H44 H 0.6226 0.6167 0.7074
C35 C 0.5573(9) 0.7168(15) 0.7319(6)
H45 H 0.5450 0.7559 0.6973
C36 C 0.5276(8) 0.7420(16) 0.7741(6)
H46 H 0.4945 0.7937 0.7672
C37 C 0.5468(6) 0.6912(12) 0.8257(5)
C38 C 0.6803(10) 0.4998(15) 0.8011(6)
H47 H 0.6823 0.4642 0.8383
C39 C 0.7419(11) 0.558(2) 0.8104(12)
H48 H 0.7385 0.6167 0.7826
H49 H 0.7738 0.5050 0.8062
H50 H 0.7536 0.5890 0.8484
C40 C 0.6701(14) 0.400(3) 0.7583(10)
H51 H 0.6269 0.3742 0.7509
H52 H 0.6984 0.3399 0.7745
H53 H 0.6785 0.4240 0.7229
C41 C 0.5151(6) 0.7208(15) 0.8740(7)
H54 H 0.5418 0.6942 0.9109
C42 C 0.4516(13) 0.671(5) 0.8636(11)
H55 H 0.4526 0.6026 0.8426
H56 H 0.4206 0.7210 0.8407
H57 H 0.4403 0.6539 0.8987
C43 C 0.504(2) 0.845(3) 0.8774(15)
H58 H 0.5400 0.8801 0.9027
H59 H 0.4671 0.8557 0.8922
H60 H 0.4959 0.8781 0.8399
C44 C 0.7112(10) 0.888(2) 0.8602(8)
H61 H 0.7329 0.8183 0.8569
H62 H 0.6662 0.8774 0.8427
C45 C 0.7334(18) 0.970(4) 0.8319(19)
H63 H 0.7127 0.9703 0.7910
H64 H 0.7792 0.9662 0.8378
C46 C 0.7312(8) 1.0335(14) 0.9342(8)
H65 H 0.7744 1.0533 0.9546
H66 H 0.7014 1.0702 0.9520
C47 C 0.6178(11) 0.916(2) 0.9989(13)
H67 H 0.6197 0.9451 0.9617
H68 H 0.5833 0.8628 0.9941
C48 C 0.6133(19) 1.007(3) 1.0391(14)
H69 H 0.5692 1.0225 1.0373
H70 H 0.6329 1.0747 1.0296
C49 C 0.650(2) 0.964(3) 1.1031(17)
H71 H 0.6735 1.0249 1.1256
H72 H 0.6203 0.9337 1.1229
C50 C 0.6944(8) 0.875(2) 1.0947(10)
H73 H 0.7383 0.8963 1.1115
H74 H 0.6859 0.8043 1.1112
C51 C 0.7150(14) 1.061(3) 0.8604(15)
H75 H 0.6699 1.0744 0.8451
H76 H 0.7377 1.1277 0.8541
Mg2 Mg 0.73560(15) 0.6554(3) 0.49079(12)
O19 O 0.6614(3) 0.5716(6) 0.4323(3)
O20 O 0.7416(3) 0.5156(5) 0.5417(3)
O21 O 0.8008(3) 0.5985(5) 0.4509(2)
O22 O 0.8089(3) 0.7252(6) 0.5506(2)
O23 O 0.6777(4) 0.7277(7) 0.5403(3)
O24 O 0.7187(3) 0.7951(6) 0.4395(3)
H77 H 0.7482 0.8461 0.4518
H78 H 0.6819 0.8256 0.4392
N5 N 0.6092(4) 0.4230(7) 0.3853(3)
H79 H 0.5970 0.3552 0.3885
N6 N 0.7246(4) 0.4086(7) 0.5200(3)
N7 N 0.8640(4) 0.5758(7) 0.4796(3)
N8 N 0.9069(4) 0.7515(7) 0.6065(3)
H80 H 0.9471 0.7486 0.6097
C52 C 0.4257(10) 0.562(2) 0.3288(13)
H81 H 0.4153 0.5573 0.2876
H82 H 0.4060 0.6272 0.3401
H83 H 0.4106 0.4959 0.3440
C53 C 0.4987(8) 0.5741(17) 0.3562(8)
H84 H 0.5108 0.5250 0.3900
C54 C 0.5162(11) 0.699(3) 0.3759(9)
H85 H 0.5118 0.7098 0.4143
H86 H 0.4881 0.7499 0.3502
H87 H 0.5593 0.7146 0.3752
C55 C 0.5380(6) 0.5423(11) 0.3142(6)
C56 C 0.5213(6) 0.5843(11) 0.2602(5)
H88 H 0.4852 0.6290 0.2488
C57 C 0.5568(5) 0.5622(10) 0.2215(5)
H89 H 0.5439 0.5909 0.1844
C58 C 0.6099(5) 0.4994(11) 0.2373(4)
H90 H 0.6343 0.4879 0.2113
C59 C 0.6295(5) 0.4501(9) 0.2932(4)
C60 C 0.5924(5) 0.4741(8) 0.3309(4)
C61 C 0.6900(6) 0.3833(11) 0.3093(4)
H91 H 0.6936 0.3549 0.3482
C62 C 0.6875(8) 0.2784(14) 0.2706(7)
H92 H 0.6538 0.2296 0.2747
H93 H 0.7273 0.2391 0.2819
H94 H 0.6798 0.3014 0.2311
C63 C 0.7474(5) 0.4523(12) 0.3130(6)
H95 H 0.7469 0.4802 0.2754
H96 H 0.7846 0.4071 0.3273
H97 H 0.7478 0.5143 0.3386
C64 C 0.6438(5) 0.4758(7) 0.4330(4)
C65 C 0.6567(5) 0.4038(9) 0.4878(5)
H98 H 0.6467 0.3257 0.4761
C66 C 0.6137(6) 0.4385(10) 0.5249(5)
H99 H 0.5698 0.4346 0.5025
H100 H 0.6229 0.5156 0.5374
C67 C 0.6236(6) 0.3607(11) 0.5781(5)
H101 H 0.5980 0.3867 0.6031
H102 H 0.6108 0.2846 0.5661
C68 C 0.6939(7) 0.3634(10) 0.6102(5)
H103 H 0.7054 0.4387 0.6244
H104 H 0.7013 0.3132 0.6430
C69 C 0.7353(6) 0.3281(9) 0.5713(4)
H105 H 0.7247 0.2521 0.5576
H106 H 0.7797 0.3295 0.5926
C70 C 0.7653(5) 0.3736(8) 0.4793(4)
H107 H 0.7531 0.2979 0.4661
H108 H 0.7542 0.4223 0.4459
C71 C 0.8377(5) 0.3761(8) 0.5030(4)
H109 H 0.8488 0.3229 0.5345
H110 H 0.8562 0.3488 0.4731
C72 C 0.8695(5) 0.4872(9) 0.5245(4)
H111 H 0.8511 0.5157 0.5543
H112 H 0.9142 0.4733 0.5419
C73 C 0.8975(6) 0.5390(9) 0.4349(4)
H113 H 0.8768 0.4726 0.4153
H114 H 0.9412 0.5197 0.4537
C74 C 0.8962(5) 0.6315(9) 0.3916(4)
H115 H 0.8525 0.6466 0.3709
H116 H 0.9189 0.6068 0.3640
C75 C 0.9268(6) 0.7400(10) 0.4208(5)
H117 H 0.9716 0.7272 0.4386
H118 H 0.9233 0.7988 0.3923
C76 C 0.8939(5) 0.7762(9) 0.4661(4)
H119 H 0.8497 0.7931 0.4479
H120 H 0.9138 0.8438 0.4850
C77 C 0.8978(5) 0.6838(8) 0.5104(4)
H121 H 0.9426 0.6666 0.5283
C78 C 0.8655(5) 0.7190(8) 0.5574(3)
C79 C 0.8836(5) 0.7906(9) 0.6530(4)
C80 C 0.8604(6) 0.8994(9) 0.6525(4)
C81 C 0.8358(6) 0.9327(10) 0.6968(4)
H122 H 0.8209 1.0058 0.6971
C82 C 0.8325(7) 0.8610(11) 0.7408(4)
H123 H 0.8156 0.8860 0.7704
C83 C 0.8540(6) 0.7532(10) 0.7412(4)
H124 H 0.8505 0.7048 0.7705
C84 C 0.8813(6) 0.7144(10) 0.6980(4)
C85 C 0.8615(6) 0.9808(10) 0.6030(5)
H125 H 0.8807 0.9394 0.5766
C86 C 0.7965(9) 1.0153(15) 0.5687(6)
H126 H 0.7669 0.9558 0.5692
H127 H 0.7974 1.0303 0.5297
H128 H 0.7836 1.0818 0.5852
C87 C 0.9048(13) 1.082(2) 0.6240(8)
H129 H 0.8839 1.1332 0.6439
H130 H 0.9137 1.1192 0.5916
H131 H 0.9438 1.0568 0.6496
C88 C 0.9059(6) 0.5961(10) 0.7001(4)
H132 H 0.9303 0.5892 0.6713
C89 C 0.9500(8) 0.5659(13) 0.7591(7)
H133 H 0.9867 0.6137 0.7669
H134 H 0.9630 0.4890 0.7589
H135 H 0.9277 0.5763 0.7883
C90 C 0.8504(8) 0.5123(11) 0.6846(5)
H136 H 0.8257 0.5176 0.7123
H137 H 0.8668 0.4374 0.6848
H138 H 0.8239 0.5294 0.6470
C91 C 0.6955(7) 0.7264(12) 0.6028(5)
H139 H 0.7403 0.7437 0.6174
H140 H 0.6875 0.6530 0.6170
C92 C 0.6568(14) 0.811(2) 0.6210(7)
H141 H 0.6833 0.8738 0.6390
H142 H 0.6363 0.7799 0.6487
C93 C 0.6091(8) 0.8502(18) 0.5701(9)
H143 H 0.5667 0.8399 0.5752
H144 H 0.6152 0.9292 0.5633
C94 C 0.6174(7) 0.7830(14) 0.5219(6)
H145 H 0.5835 0.7281 0.5108
H146 H 0.6165 0.8308 0.4891
O25 O 0.8849(4) 0.4266(9) 1.1780(4)
C95 C 0.9454(6) 0.4641(11) 1.1727(5)
H147 H 0.9469 0.5455 1.1718
H148 H 0.9538 0.4351 1.1377
C96 C 0.8958(10) 0.4099(15) 1.2419(8)
H149 H 0.8876 0.4793 1.2598
H150 H 0.8673 0.3526 1.2494
C97 C 0.9593(9) 0.377(2) 1.2643(8)
H151 H 0.9627 0.2956 1.2668
H152 H 0.9765 0.4086 1.3022
C98 C 0.9922(8) 0.4203(16) 1.2236(7)
H153 H 1.0170 0.3610 1.2123
H154 H 1.0210 0.4798 1.2415
loop_
_geom_bond_atom_site_label_1
_geom_bond_atom_site_label_2
_geom_bond_site_symmetry_1
_geom_bond_site_symmetry_2
S1 O1 1_555 1_555
F1 C1 1_555 1_555
F2 C1 1_555 1_555
F3 C1 1_555 1_555
O2 S1 1_555 1_555
O3 S1 1_555 1_555
C1 S1 1_555 1_555
S2 O4 1_555 1_555
F4 C2 1_555 1_555
F5 C2 1_555 1_555
F6 C2 1_555 1_555
O5 S2 1_555 1_555
O6 S2 1_555 1_555
C2 S2 1_555 1_555
S3 O7 1_555 1_555
F7 C3 1_555 1_555
F8 C3 1_555 1_555
F9 C3 1_555 1_555
O8 S3 1_555 1_555
O9 S3 1_555 1_555
C3 S3 1_555 1_555
S4 O10 1_555 1_555
F10 C4 1_555 1_555
F11 C4 1_555 1_555
F12 C4 1_555 1_555
O11 S4 1_555 1_555
O12 S4 1_555 1_555
C4 S4 1_555 1_555
Mg1 O13 1_555 1_555
O13 C17 1_555 1_555
O14 Mg1 1_555 1_555
O15 Mg1 1_555 1_555
O16 Mg1 1_555 1_555
O17 Mg1 1_555 1_555
O18 Mg1 1_555 1_555
N1 H1 1_555 1_555
N2 O14 1_555 1_555
N3 O16 1_555 1_555
N4 H2 1_555 1_555
C5 H3 1_555 1_555
H4 C5 1_555 1_555
H5 C5 1_555 1_555
C6 H6 1_555 1_555
H7 C6 1_555 1_555
H8 C6 1_555 1_555
C7 C5 1_555 1_555
H9 C7 1_555 1_555
C8 C7 1_555 1_555
C9 C8 1_555 1_555
H10 C9 1_555 1_555
C10 C9 1_555 1_555
H11 C10 1_555 1_555
C11 C10 1_555 1_555
H12 C11 1_555 1_555
C12 C11 1_555 1_555
C13 N1 1_555 1_555
C14 C12 1_555 1_555
H13 C14 1_555 1_555
C15 C14 1_555 1_555
H14 C15 1_555 1_555
H15 C15 1_555 1_555
H16 C15 1_555 1_555
C16 C14 1_555 1_555
H17 C16 1_555 1_555
H18 C16 1_555 1_555
H19 C16 1_555 1_555
C17 N1 1_555 1_555
C18 N2 1_555 1_555
H20 C18 1_555 1_555
C19 C18 1_555 1_555
H21 C19 1_555 1_555
H22 C19 1_555 1_555
C20 C19 1_555 1_555
H23 C20 1_555 1_555
H24 C20 1_555 1_555
C21 C20 1_555 1_555
H25 C21 1_555 1_555
H26 C21 1_555 1_555
C22 N2 1_555 1_555
H27 C22 1_555 1_555
H28 C22 1_555 1_555
C23 N2 1_555 1_555
H29 C23 1_555 1_555
H30 C23 1_555 1_555
C24 C23 1_555 1_555
H31 C24 1_555 1_555
H32 C24 1_555 1_555
C25 N3 1_555 1_555
H33 C25 1_555 1_555
H34 C25 1_555 1_555
C26 N3 1_555 1_555
H35 C26 1_555 1_555
H36 C26 1_555 1_555
C27 C26 1_555 1_555
H37 C27 1_555 1_555
H38 C27 1_555 1_555
C28 C27 1_555 1_555
H39 C28 1_555 1_555
H40 C28 1_555 1_555
C29 C28 1_555 1_555
H41 C29 1_555 1_555
H42 C29 1_555 1_555
C30 N3 1_555 1_555
H43 C30 1_555 1_555
C31 O15 1_555 1_555
C32 N4 1_555 1_555
C33 C32 1_555 1_555
C34 C33 1_555 1_555
H44 C34 1_555 1_555
C35 C34 1_555 1_555
H45 C35 1_555 1_555
C36 C35 1_555 1_555
H46 C36 1_555 1_555
C37 C32 1_555 1_555
C38 C33 1_555 1_555
H47 C38 1_555 1_555
C39 C38 1_555 1_555
H48 C39 1_555 1_555
H49 C39 1_555 1_555
H50 C39 1_555 1_555
C40 C38 1_555 1_555
H51 C40 1_555 1_555
H52 C40 1_555 1_555
H53 C40 1_555 1_555
C41 C37 1_555 1_555
H54 C41 1_555 1_555
C42 C41 1_555 1_555
H55 C42 1_555 1_555
H56 C42 1_555 1_555
H57 C42 1_555 1_555
C43 C41 1_555 1_555
H58 C43 1_555 1_555
H59 C43 1_555 1_555
H60 C43 1_555 1_555
C44 O17 1_555 1_555
H61 C44 1_555 1_555
H62 C44 1_555 1_555
C45 C44 1_555 1_555
H63 C45 1_555 1_555
H64 C45 1_555 1_555
C46 O17 1_555 1_555
H65 C46 1_555 1_555
H66 C46 1_555 1_555
C47 O18 1_555 1_555
H67 C47 1_555 1_555
H68 C47 1_555 1_555
C48 C47 1_555 1_555
H69 C48 1_555 1_555
H70 C48 1_555 1_555
C49 C48 1_555 1_555
H71 C49 1_555 1_555
H72 C49 1_555 1_555
C50 O18 1_555 1_555
H73 C50 1_555 1_555
H74 C50 1_555 1_555
C51 C45 1_555 1_555
H75 C51 1_555 1_555
H76 C51 1_555 1_555
Mg2 O19 1_555 1_555
O19 C64 1_555 1_555
O20 Mg2 1_555 1_555
O21 Mg2 1_555 1_555
O22 Mg2 1_555 1_555
O23 Mg2 1_555 1_555
O24 Mg2 1_555 1_555
H77 O24 1_555 1_555
H78 O24 1_555 1_555
N5 H79 1_555 1_555
N6 O20 1_555 1_555
N7 O21 1_555 1_555
N8 H80 1_555 1_555
C52 H81 1_555 1_555
H82 C52 1_555 1_555
H83 C52 1_555 1_555
C53 C52 1_555 1_555
H84 C53 1_555 1_555
C54 C53 1_555 1_555
H85 C54 1_555 1_555
H86 C54 1_555 1_555
H87 C54 1_555 1_555
C55 C53 1_555 1_555
C56 C55 1_555 1_555
H88 C56 1_555 1_555
C57 C56 1_555 1_555
H89 C57 1_555 1_555
C58 C57 1_555 1_555
H90 C58 1_555 1_555
C59 C58 1_555 1_555
C60 N5 1_555 1_555
C61 C59 1_555 1_555
H91 C61 1_555 1_555
C62 C61 1_555 1_555
H92 C62 1_555 1_555
H93 C62 1_555 1_555
H94 C62 1_555 1_555
C63 C61 1_555 1_555
H95 C63 1_555 1_555
H96 C63 1_555 1_555
H97 C63 1_555 1_555
C64 N5 1_555 1_555
C65 N6 1_555 1_555
H98 C65 1_555 1_555
C66 C65 1_555 1_555
H99 C66 1_555 1_555
H100 C66 1_555 1_555
C67 C66 1_555 1_555
H101 C67 1_555 1_555
H102 C67 1_555 1_555
C68 C67 1_555 1_555
H103 C68 1_555 1_555
H104 C68 1_555 1_555
C69 N6 1_555 1_555
H105 C69 1_555 1_555
H106 C69 1_555 1_555
C70 N6 1_555 1_555
H107 C70 1_555 1_555
H108 C70 1_555 1_555
C71 C70 1_555 1_555
H109 C71 1_555 1_555
H110 C71 1_555 1_555
C72 N7 1_555 1_555
H111 C72 1_555 1_555
H112 C72 1_555 1_555
C73 N7 1_555 1_555
H113 C73 1_555 1_555
H114 C73 1_555 1_555
C74 C73 1_555 1_555
H115 C74 1_555 1_555
H116 C74 1_555 1_555
C75 C74 1_555 1_555
H117 C75 1_555 1_555
H118 C75 1_555 1_555
C76 C75 1_555 1_555
H119 C76 1_555 1_555
H120 C76 1_555 1_555
C77 N7 1_555 1_555
H121 C77 1_555 1_555
C78 O22 1_555 1_555
C79 N8 1_555 1_555
C80 C79 1_555 1_555
C81 C80 1_555 1_555
H122 C81 1_555 1_555
C82 C81 1_555 1_555
H123 C82 1_555 1_555
C83 C82 1_555 1_555
H124 C83 1_555 1_555
C84 C79 1_555 1_555
C85 C80 1_555 1_555
H125 C85 1_555 1_555
C86 C85 1_555 1_555
H126 C86 1_555 1_555
H127 C86 1_555 1_555
H128 C86 1_555 1_555
C87 C85 1_555 1_555
H129 C87 1_555 1_555
H130 C87 1_555 1_555
H131 C87 1_555 1_555
C88 C84 1_555 1_555
H132 C88 1_555 1_555
C89 C88 1_555 1_555
H133 C89 1_555 1_555
H134 C89 1_555 1_555
H135 C89 1_555 1_555
C90 C88 1_555 1_555
H136 C90 1_555 1_555
H137 C90 1_555 1_555
H138 C90 1_555 1_555
C91 O23 1_555 1_555
H139 C91 1_555 1_555
H140 C91 1_555 1_555
C92 C91 1_555 1_555
H141 C92 1_555 1_555
H142 C92 1_555 1_555
C93 C92 1_555 1_555
H143 C93 1_555 1_555
H144 C93 1_555 1_555
C94 O23 1_555 1_555
H145 C94 1_555 1_555
H146 C94 1_555 1_555
O25 C95 1_555 1_555
C95 H147 1_555 1_555
H148 C95 1_555 1_555
C96 O25 1_555 1_555
H149 C96 1_555 1_555
H150 C96 1_555 1_555
C97 C96 1_555 1_555
H151 C97 1_555 1_555
H152 C97 1_555 1_555
C98 C95 1_555 1_555
H153 C98 1_555 1_555
H154 C98 1_555 1_555
N4 C31 1_555 1_555
C6 C7 1_555 1_555
C8 C13 1_555 1_555
C12 C13 1_555 1_555
C17 C18 1_555 1_555
C21 C22 1_555 1_555
C24 C25 1_555 1_555
C29 C30 1_555 1_555
C30 C31 1_555 1_555
C36 C37 1_555 1_555
C46 C51 1_555 1_555
C49 C50 1_555 1_555
N8 C78 1_555 1_555
C55 C60 1_555 1_555
C59 C60 1_555 1_555
C64 C65 1_555 1_555
C68 C69 1_555 1_555
C71 C72 1_555 1_555
C76 C77 1_555 1_555
C77 C78 1_555 1_555
C83 C84 1_555 1_555
C93 C94 1_555 1_555
C97 C98 1_555 1_555

#END
