
#######################################################################
#
#                 Cambridge Crystallographic Data Centre
#                                CCDC 
#
#######################################################################
#
# If this CIF has been generated from an entry in the Cambridge 
# Structural Database, then it will include bibliographic, chemical, 
# crystal, experimental, refinement or atomic coordinate data resulting 
# from the CCDC's data processing and validation procedures.
#
#######################################################################

data_HIMQIG
_chemical_formula_moiety         'C13 H13 Br1 F3 N1 O2'
_chemical_name_systematic        
4-bromo-N-t-butyl-N-(trifluoroacetyl)benzamide
_symmetry_cell_setting           triclinic
_symmetry_space_group_name_H-M   'P -1'
_symmetry_Int_Tables_number      2
_space_group_name_Hall           '-P 1'
loop_
_symmetry_equiv_pos_site_id
_symmetry_equiv_pos_as_xyz
1 x,y,z
2 -x,-y,-z
_cell_length_a                   6.3573(9)
_cell_length_b                   10.2627(14)
_cell_length_c                   11.7312(16)
_cell_angle_alpha                106.995(2)
_cell_angle_beta                 100.562(2)
_cell_angle_gamma                92.033(2)
_cell_volume                     716.319
_exptl_crystal_colour            colorless
_exptl_crystal_description       Needle
_cell_formula_units_Z            2
loop_
_atom_site_label
_atom_site_type_symbol
_atom_site_fract_x
_atom_site_fract_y
_atom_site_fract_z
Br1 Br 0.26180(8) 0.81922(5) 0.39699(4)
N1 N -0.2347(5) 1.3176(3) 0.1820(3)
O1 O -0.5221(4) 1.1850(3) 0.1944(4)
C1 C 0.0351(6) 1.1562(4) 0.3084(3)
H1 H 0.0926 1.2419 0.3113
C2 C -0.3304(6) 1.2035(3) 0.2122(3)
C3 C 0.0806(6) 0.9415(4) 0.3456(3)
C4 C 0.1653(6) 1.0703(4) 0.3518(3)
H2 H 0.3099 1.0984 0.3852
C5 C -0.1805(5) 1.1163(3) 0.2607(3)
C6 C -0.1753(7) 1.2863(4) 0.0566(3)
C7 C -0.1631(13) 1.1337(6) 0.0053(5)
H3 H -0.0468 1.1059 0.0550
H4 H -0.1391 1.1130 -0.0763
H5 H -0.2958 1.0855 0.0047
C8 C -0.2659(6) 0.9876(4) 0.2593(4)
H6 H -0.4122 0.9615 0.2303
C9 C -0.1362(7) 0.9004(4) 0.3000(4)
H7 H -0.1927 0.8144 0.2972
C10 C -0.3513(7) 1.3292(5) -0.0287(4)
H8 H -0.4889 1.2909 -0.0250
H9 H -0.3283 1.2965 -0.1105
H10 H -0.3473 1.4272 -0.0042
C11 C 0.0456(8) 1.3591(7) 0.0712(6)
H11 H 0.0435 1.4555 0.1089
H12 H 0.0817 1.3438 -0.0073
H13 H 0.1509 1.3238 0.1213
F1 F -0.2790(7) 1.3927(4) 0.4240(3)
O2 O -0.2344(6) 1.5467(3) 0.2078(3)
F2 F -0.5484(6) 1.4758(5) 0.3471(4)
C12 C -0.2641(6) 1.4485(3) 0.2403(3)
C13 C -0.3373(9) 1.4752(4) 0.3629(4)
F3 F -0.2622(8) 1.6011(4) 0.4327(3)
loop_
_geom_bond_atom_site_label_1
_geom_bond_atom_site_label_2
_geom_bond_site_symmetry_1
_geom_bond_site_symmetry_2
Br1 C3 1_555 1_555
N1 C2 1_555 1_555
O1 C2 1_555 1_555
C1 H1 1_555 1_555
C2 C5 1_555 1_555
C3 C4 1_555 1_555
C4 C1 1_555 1_555
H2 C4 1_555 1_555
C5 C1 1_555 1_555
C6 N1 1_555 1_555
C7 C6 1_555 1_555
H3 C7 1_555 1_555
H4 C7 1_555 1_555
H5 C7 1_555 1_555
C8 C5 1_555 1_555
H6 C8 1_555 1_555
C9 C3 1_555 1_555
H7 C9 1_555 1_555
C10 C6 1_555 1_555
H8 C10 1_555 1_555
H9 C10 1_555 1_555
H10 C10 1_555 1_555
C11 C6 1_555 1_555
H11 C11 1_555 1_555
H12 C11 1_555 1_555
H13 C11 1_555 1_555
F1 C13 1_555 1_555
O2 C12 1_555 1_555
F2 C13 1_555 1_555
C12 N1 1_555 1_555
C13 C12 1_555 1_555
F3 C13 1_555 1_555
C8 C9 1_555 1_555

#END
