
#######################################################################
#
#                 Cambridge Crystallographic Data Centre
#                                CCDC 
#
#######################################################################
#
# If this CIF has been generated from an entry in the Cambridge 
# Structural Database, then it will include bibliographic, chemical, 
# crystal, experimental, refinement or atomic coordinate data resulting 
# from the CCDC's data processing and validation procedures.
#
#######################################################################

data_HIMQOM
_chemical_formula_moiety         'C13 H14 F3 N1 O2'
_chemical_name_systematic        N-t-butyl-N-(trifluoroacetyl)benzamide
_symmetry_cell_setting           monoclinic
_symmetry_space_group_name_H-M   'P 21/n'
_symmetry_Int_Tables_number      14
_space_group_name_Hall           '-P 2yn'
loop_
_symmetry_equiv_pos_site_id
_symmetry_equiv_pos_as_xyz
1 x,y,z
2 1/2-x,1/2+y,1/2-z
3 -x,-y,-z
4 1/2+x,1/2-y,1/2+z
_cell_length_a                   10.372(2)
_cell_length_b                   10.2377(19)
_cell_length_c                   12.340(3)
_cell_angle_alpha                90
_cell_angle_beta                 90.813(3)
_cell_angle_gamma                90
_cell_volume                     1310.2
_cell_formula_units_Z            4
loop_
_atom_site_label
_atom_site_type_symbol
_atom_site_fract_x
_atom_site_fract_y
_atom_site_fract_z
H1 H 1.2539 0.3294 0.8063
H2 H 1.0525 0.4249 0.7921
H3 H 0.8903 0.0689 0.8075
H4 H 1.0938 -0.0241 0.8186
H5 H 1.2739 0.1068 0.8192
H6 H 0.5546 0.0911 0.9326
H7 H 0.6106 0.1136 1.0498
H8 H 0.6969 0.0505 0.9606
H9 H 0.6064 0.4347 0.9316
H10 H 0.5581 0.3605 1.0345
H11 H 0.4973 0.3294 0.9204
H12 H 0.8608 0.2160 0.9979
H13 H 0.7747 0.2874 1.0828
H14 H 0.8293 0.3649 0.9840
C1 C 1.18039(16) 0.2774(2) 0.80613(15)
C2 C 0.61716(14) 0.21726(16) 0.74647(13)
C3 C 1.06028(15) 0.33463(18) 0.79802(13)
C4 C 0.95064(13) 0.25590(15) 0.79881(11)
C5 C 0.82287(14) 0.31953(15) 0.78812(11)
C6 C 0.96327(15) 0.12165(16) 0.80683(13)
C7 C 0.65341(16) 0.21748(17) 0.62595(14)
C8 C 1.08497(16) 0.06616(19) 0.81389(15)
C9 C 1.19243(16) 0.1443(2) 0.81388(15)
C10 C 0.6305(2) 0.1135(2) 0.97404(17)
C11 C 0.5752(2) 0.3527(2) 0.95853(18)
C12 C 0.79639(19) 0.2822(2) 1.00760(15)
C13 C 0.67648(15) 0.24753(16) 0.94118(12)
N1 N 0.71026(11) 0.24493(12) 0.82084(10)
O1 O 0.50663(11) 0.18801(15) 0.76457(11)
O2 O 0.80735(11) 0.42819(11) 0.75397(11)
F1 F 0.59024(12) 0.12329(11) 0.57414(9)
F2 F 0.61795(12) 0.32930(11) 0.57984(9)
F3 F 0.77780(10) 0.19937(13) 0.60655(8)
loop_
_geom_bond_atom_site_label_1
_geom_bond_atom_site_label_2
_geom_bond_site_symmetry_1
_geom_bond_site_symmetry_2
H1 C1 1_555 1_555
H2 C3 1_555 1_555
H3 C6 1_555 1_555
H4 C8 1_555 1_555
H5 C9 1_555 1_555
H6 C10 1_555 1_555
H7 C10 1_555 1_555
H8 C10 1_555 1_555
H9 C11 1_555 1_555
H10 C11 1_555 1_555
H11 C11 1_555 1_555
H12 C12 1_555 1_555
H13 C12 1_555 1_555
H14 C12 1_555 1_555
C1 C3 1_555 1_555
C2 C7 1_555 1_555
C3 C4 1_555 1_555
C4 C5 1_555 1_555
C5 N1 1_555 1_555
C6 C4 1_555 1_555
C7 F1 1_555 1_555
C8 C6 1_555 1_555
C9 C1 1_555 1_555
C10 C13 1_555 1_555
C11 C13 1_555 1_555
C12 C13 1_555 1_555
C13 N1 1_555 1_555
N1 C2 1_555 1_555
O1 C2 1_555 1_555
O2 C5 1_555 1_555
F2 C7 1_555 1_555
F3 C7 1_555 1_555
C8 C9 1_555 1_555

#END
