
#######################################################################
#
#                 Cambridge Crystallographic Data Centre
#                                CCDC 
#
#######################################################################
#
# If this CIF has been generated from an entry in the Cambridge 
# Structural Database, then it will include bibliographic, chemical, 
# crystal, experimental, refinement or atomic coordinate data resulting 
# from the CCDC's data processing and validation procedures.
#
#######################################################################

data_HIMRAZ
_chemical_formula_moiety         'C17 H20 O6 S1'
_chemical_name_systematic        
'3,3-diethyl 7-methyl 2H-1-benzothiopyran-3,3,7(4H)-tricarboxylate'
_symmetry_cell_setting           monoclinic
_symmetry_space_group_name_H-M   'I 2/a'
_symmetry_Int_Tables_number      15
_space_group_name_Hall           '-I 2ya'
loop_
_symmetry_equiv_pos_site_id
_symmetry_equiv_pos_as_xyz
1 x,y,z
2 1/2-x,y,-z
3 1/2+x,1/2+y,1/2+z
4 -x,1/2+y,1/2-z
5 -x,-y,-z
6 1/2+x,-y,z
7 1/2-x,1/2-y,1/2-z
8 x,1/2-y,1/2+z
_cell_length_a                   22.4173(5)
_cell_length_b                   7.32780(10)
_cell_length_c                   24.1334(5)
_cell_angle_alpha                90
_cell_angle_beta                 116.515(3)
_cell_angle_gamma                90
_cell_volume                     3547.4
_exptl_crystal_colour            colorless
_exptl_crystal_description       block
_cell_formula_units_Z            8
loop_
_atom_site_label
_atom_site_type_symbol
_atom_site_fract_x
_atom_site_fract_y
_atom_site_fract_z
S1 S 0.69971(3) 0.56712(13) 0.39876(3)
O1 O 0.78746(12) 0.4906(3) 0.23468(12)
O2 O 0.70425(17) 0.4107(7) 0.14404(14)
O3 O 0.58257(11) 0.1976(3) 0.36521(10)
O4 O 0.60969(13) 0.3136(4) 0.45923(10)
O5 O 0.46676(16) 0.4602(5) 0.3778(2)
O6 O 0.51383(17) 0.7254(5) 0.41757(16)
C1 C 0.66164(13) 0.5365(4) 0.31795(13)
C2 C 0.70442(13) 0.5173(4) 0.29041(14)
H1 H 0.750236 0.525512 0.314773
C3 C 0.67993(14) 0.4865(4) 0.22794(13)
C4 C 0.61103(15) 0.4762(4) 0.19115(14)
H2 H 0.593734 0.455881 0.148761
C5 C 0.56900(15) 0.4966(4) 0.21868(14)
H3 H 0.523183 0.491976 0.193936
C6 C 0.59263(13) 0.5237(4) 0.28184(13)
C7 C 0.54181(15) 0.5387(5) 0.30684(15)
H4 H 0.508509 0.444418 0.287668
H5 H 0.519449 0.655577 0.294172
C8 C 0.56893(15) 0.5223(4) 0.37674(15)
C9 C 0.62971(17) 0.6461(5) 0.40966(15)
H6 H 0.641804 0.649220 0.453583
H7 H 0.618408 0.769262 0.393668
C10 C 0.58734(14) 0.3249(4) 0.39854(14)
C11 C 0.6286(3) 0.1349(8) 0.4886(3)
H8 H 0.598024 0.044214 0.461360
H9 H 0.623844 0.135937 0.526616
C12 C 0.6986(3) 0.0795(9) 0.5033(3)
H10 H 0.702288 0.063103 0.465501
H11 H 0.709214 -0.032932 0.526133
H12 H 0.729008 0.172876 0.527722
C13 C 0.51445(18) 0.5837(6) 0.39453(18)
C14 C 0.4110(4) 0.5052(11) 0.3902(5)
H13 H 0.422125 0.611572 0.416879
H14 H 0.372638 0.535390 0.351626
C15 C 0.3945(3) 0.3578(9) 0.4191(3)
H15 H 0.353435 0.303341 0.390137
H16 H 0.389594 0.402272 0.454264
H17 H 0.429412 0.268166 0.432485
C16 C 0.72348(17) 0.4595(5) 0.19643(17)
C17 C 0.8331(2) 0.4711(6) 0.2078(2)
H18 H 0.815868 0.535066 0.168990
H19 H 0.838065 0.344104 0.200937
H20 H 0.875637 0.521072 0.235412
loop_
_geom_bond_atom_site_label_1
_geom_bond_atom_site_label_2
_geom_bond_site_symmetry_1
_geom_bond_site_symmetry_2
S1 C1 1_555 1_555
O1 C16 1_555 1_555
O2 C16 1_555 1_555
O3 C10 1_555 1_555
O4 C10 1_555 1_555
O5 C13 1_555 1_555
O6 C13 1_555 1_555
C1 C2 1_555 1_555
C2 H1 1_555 1_555
C3 C2 1_555 1_555
C4 C3 1_555 1_555
H2 C4 1_555 1_555
C5 C4 1_555 1_555
H3 C5 1_555 1_555
C6 C1 1_555 1_555
C7 C6 1_555 1_555
H4 C7 1_555 1_555
H5 C7 1_555 1_555
C8 C7 1_555 1_555
C9 S1 1_555 1_555
H6 C9 1_555 1_555
H7 C9 1_555 1_555
C10 C8 1_555 1_555
C11 O4 1_555 1_555
H8 C11 1_555 1_555
H9 C11 1_555 1_555
C12 C11 1_555 1_555
H10 C12 1_555 1_555
H11 C12 1_555 1_555
H12 C12 1_555 1_555
C13 C8 1_555 1_555
C14 O5 1_555 1_555
H13 C14 1_555 1_555
H14 C14 1_555 1_555
C15 C14 1_555 1_555
H15 C15 1_555 1_555
H16 C15 1_555 1_555
H17 C15 1_555 1_555
C16 C3 1_555 1_555
C17 O1 1_555 1_555
H18 C17 1_555 1_555
H19 C17 1_555 1_555
H20 C17 1_555 1_555
C5 C6 1_555 1_555
C8 C9 1_555 1_555

#END
