
#######################################################################
#
#                 Cambridge Crystallographic Data Centre
#                                CCDC 
#
#######################################################################
#
# If this CIF has been generated from an entry in the Cambridge 
# Structural Database, then it will include bibliographic, chemical, 
# crystal, experimental, refinement or atomic coordinate data resulting 
# from the CCDC's data processing and validation procedures.
#
#######################################################################

data_HIMRED
_chemical_formula_moiety         'C14 H16 N2 O2'
_chemical_name_systematic        6-methoxy-2-(morpholin-4-yl)quinoline
_symmetry_cell_setting           monoclinic
_symmetry_space_group_name_H-M   'P 21/c'
_symmetry_Int_Tables_number      14
_space_group_name_Hall           '-P 2ybc'
loop_
_symmetry_equiv_pos_site_id
_symmetry_equiv_pos_as_xyz
1 x,y,z
2 -x,1/2+y,1/2-z
3 -x,-y,-z
4 x,1/2-y,1/2+z
_cell_length_a                   19.502(3)
_cell_length_b                   6.0882(8)
_cell_length_c                   10.5771(15)
_cell_angle_alpha                90
_cell_angle_beta                 97.867(5)
_cell_angle_gamma                90
_cell_volume                     1244.02
_exptl_crystal_colour            colorless
_exptl_crystal_description       block
_cell_formula_units_Z            4
loop_
_atom_site_label
_atom_site_type_symbol
_atom_site_fract_x
_atom_site_fract_y
_atom_site_fract_z
N1 N 0.15453(5) 0.52095(17) 0.55715(10)
C1 C 0.24537(7) 0.7609(2) 0.49967(12)
H1 H 0.2341 0.8686 0.5557
O1 O 0.04202(5) 0.44126(17) 0.69415(11)
O2 O 0.43749(5) 0.49292(19) 0.11907(10)
C2 C 0.09041(8) 0.6102(3) 0.73171(15)
H2 H 0.1265 0.5535 0.7956
H3 H 0.0673 0.7290 0.7701
C3 C 0.12265(8) 0.6980(2) 0.62097(15)
H4 H 0.0875 0.7689 0.5610
H5 H 0.1574 0.8068 0.6511
C4 C 0.07630(7) 0.2645(2) 0.64037(16)
H6 H 0.0434 0.1472 0.6167
H7 H 0.1125 0.2075 0.7040
C5 C 0.10767(7) 0.3357(2) 0.52457(14)
H8 H 0.1330 0.2143 0.4937
H9 H 0.0713 0.3785 0.4572
C6 C 0.20608(6) 0.5619(2) 0.48292(11)
N2 N 0.21923(5) 0.40891(17) 0.40096(9)
C7 C 0.27386(6) 0.4388(2) 0.33433(11)
C8 C 0.31640(6) 0.6272(2) 0.34811(11)
C9 C 0.29899(7) 0.7901(2) 0.43311(12)
H10 H 0.3247 0.9190 0.4434
C10 C 0.37265(7) 0.6482(2) 0.27763(12)
H11 H 0.4009 0.7717 0.2881
C11 C 0.38548(6) 0.4877(2) 0.19442(12)
C12 C 0.34276(7) 0.3001(2) 0.17849(12)
H12 H 0.3516 0.1913 0.1211
C13 C 0.28857(6) 0.2766(2) 0.24635(12)
H13 H 0.2609 0.1519 0.2345
C14 C 0.47936(9) 0.6849(4) 0.12710(19)
H14 H 0.4509 0.8107 0.1030
H15 H 0.5137 0.6709 0.0706
H16 H 0.5018 0.7028 0.2131
loop_
_geom_bond_atom_site_label_1
_geom_bond_atom_site_label_2
_geom_bond_site_symmetry_1
_geom_bond_site_symmetry_2
N1 C3 1_555 1_555
C1 H1 1_555 1_555
O1 C2 1_555 1_555
O2 C11 1_555 1_555
C2 H2 1_555 1_555
H3 C2 1_555 1_555
C3 C2 1_555 1_555
H4 C3 1_555 1_555
H5 C3 1_555 1_555
C4 O1 1_555 1_555
H6 C4 1_555 1_555
H7 C4 1_555 1_555
C5 N1 1_555 1_555
H8 C5 1_555 1_555
H9 C5 1_555 1_555
C6 N1 1_555 1_555
N2 C6 1_555 1_555
C7 N2 1_555 1_555
C8 C7 1_555 1_555
C9 C1 1_555 1_555
H10 C9 1_555 1_555
C10 C8 1_555 1_555
H11 C10 1_555 1_555
C11 C10 1_555 1_555
C12 C11 1_555 1_555
H12 C12 1_555 1_555
C13 C7 1_555 1_555
H13 C13 1_555 1_555
C14 O2 1_555 1_555
H14 C14 1_555 1_555
H15 C14 1_555 1_555
H16 C14 1_555 1_555
C1 C6 1_555 1_555
C4 C5 1_555 1_555
C8 C9 1_555 1_555
C12 C13 1_555 1_555

#END
