
#######################################################################
#
#                 Cambridge Crystallographic Data Centre
#                                CCDC 
#
#######################################################################
#
# If this CIF has been generated from an entry in the Cambridge 
# Structural Database, then it will include bibliographic, chemical, 
# crystal, experimental, refinement or atomic coordinate data resulting 
# from the CCDC's data processing and validation procedures.
#
#######################################################################

data_HIMSIH
_chemical_formula_moiety         'C12 H9 N1 O2'
_chemical_name_systematic        'Methyl 2-(2-cyanophenyl)buta-2,3-dienoate'
_symmetry_cell_setting           monoclinic
_symmetry_space_group_name_H-M   'P 21/n'
_symmetry_Int_Tables_number      14
_space_group_name_Hall           '-P 2yn'
loop_
_symmetry_equiv_pos_site_id
_symmetry_equiv_pos_as_xyz
1 x,y,z
2 1/2-x,1/2+y,1/2-z
3 -x,-y,-z
4 1/2+x,1/2-y,1/2+z
_cell_length_a                   8.1053(9)
_cell_length_b                   14.1123(16)
_cell_length_c                   9.2252(11)
_cell_angle_alpha                90
_cell_angle_beta                 97.664(2)
_cell_angle_gamma                90
_cell_volume                     1045.79
_exptl_crystal_colour            colorless
_exptl_crystal_description       prismatic
_cell_formula_units_Z            4
loop_
_atom_site_label
_atom_site_type_symbol
_atom_site_fract_x
_atom_site_fract_y
_atom_site_fract_z
N1 N 0.0067(2) 0.02734(10) 0.77292(18)
O1 O 0.12837(18) 0.39961(8) 0.86778(13)
O2 O 0.17670(14) 0.33127(7) 1.08720(11)
C1 C 0.15798(18) 0.15796(10) 0.64642(16)
C2 C 0.1583(2) 0.15066(13) 0.49574(18)
H1 H 0.1074 0.0992 0.4450
C3 C 0.2336(3) 0.21920(15) 0.42237(18)
H2 H 0.2342 0.2144 0.3219
C4 C 0.3082(2) 0.29507(14) 0.4980(2)
H3 H 0.3595 0.3414 0.4480
C5 C 0.3082(2) 0.30351(12) 0.64680(18)
H4 H 0.3585 0.3558 0.6958
C6 C 0.23395(17) 0.23487(10) 0.72442(15)
C7 C 0.23504(17) 0.24288(9) 0.88535(15)
C8 C 0.28409(19) 0.17262(10) 0.97395(16)
C9 C 0.3306(3) 0.10271(14) 1.0594(2)
C10 C 0.07512(19) 0.08534(11) 0.71933(18)
C11 C 0.17529(18) 0.33312(10) 0.94329(15)
C12 C 0.1054(2) 0.41270(12) 1.15030(19)
H5 H 0.1744 0.4671 1.1415
H6 H 0.0983 0.4008 1.2517
H7 H -0.0041 0.4243 1.0996
H8 H 0.448(3) 0.0968(16) 1.102(3)
H9 H 0.252(3) 0.0559(17) 1.078(3)
loop_
_geom_bond_atom_site_label_1
_geom_bond_atom_site_label_2
_geom_bond_site_symmetry_1
_geom_bond_site_symmetry_2
N1 C10 1_555 1_555
O1 C11 1_555 1_555
O2 C11 1_555 1_555
C1 C2 1_555 1_555
C2 H1 1_555 1_555
C3 C2 1_555 1_555
H2 C3 1_555 1_555
C4 C3 1_555 1_555
H3 C4 1_555 1_555
C5 C4 1_555 1_555
H4 C5 1_555 1_555
C6 C1 1_555 1_555
C7 C6 1_555 1_555
C8 C7 1_555 1_555
C9 C8 1_555 1_555
C10 C1 1_555 1_555
C11 C7 1_555 1_555
C12 O2 1_555 1_555
H5 C12 1_555 1_555
H6 C12 1_555 1_555
H7 C12 1_555 1_555
H8 C9 1_555 1_555
H9 C9 1_555 1_555
C5 C6 1_555 1_555

#END
