
#######################################################################
#
#                 Cambridge Crystallographic Data Centre
#                                CCDC 
#
#######################################################################
#
# If this CIF has been generated from an entry in the Cambridge 
# Structural Database, then it will include bibliographic, chemical, 
# crystal, experimental, refinement or atomic coordinate data resulting 
# from the CCDC's data processing and validation procedures.
#
#######################################################################

data_HIMTIH
_chemical_formula_moiety         'C23 H26 Br2 O2'
_chemical_name_systematic        
(5S*,2'S*,3'R*)-3-Methyl-4-(3'-methyl-1',2'-dibromohept-2'-yl)-5-(1-naphthyl)furan-2(5H)-one
_symmetry_cell_setting           triclinic
_symmetry_space_group_name_H-M   'P -1'
_symmetry_Int_Tables_number      2
_space_group_name_Hall           '-P 1'
loop_
_symmetry_equiv_pos_site_id
_symmetry_equiv_pos_as_xyz
1 x,y,z
2 -x,-y,-z
_cell_length_a                   7.8406(10)
_cell_length_b                   11.7468(15)
_cell_length_c                   12.4428(16)
_cell_angle_alpha                76.331(2)
_cell_angle_beta                 75.280(2)
_cell_angle_gamma                89.708(2)
_cell_volume                     1075.16
_exptl_crystal_colour            colorless
_exptl_crystal_description       prismatic
_chemical_melting_point          107-109deg.C
_cell_formula_units_Z            2
_exptl_crystal_recrystallization_method 'ethyl acetate/petroleum ether'
loop_
_atom_site_label
_atom_site_type_symbol
_atom_site_fract_x
_atom_site_fract_y
_atom_site_fract_z
Br1 Br 0.12912(9) 0.75423(6) 0.77762(6)
Br2 Br 0.64122(9) 0.64755(5) 0.88878(6)
O1 O 0.2294(6) 1.1028(3) 1.0059(4)
O2 O 0.3174(5) 0.9225(3) 1.0633(3)
C1 C 0.2658(7) 1.0089(5) 0.9866(5)
C2 C 0.3478(7) 0.8192(4) 1.0170(4)
C3 C 0.3223(6) 0.8590(4) 0.8977(4)
C4 C 0.2686(6) 0.9690(4) 0.8837(4)
C5 C 0.2146(9) 1.0512(5) 0.7876(5)
H1 H 0.3165 1.0972 0.7361
H2 H 0.1298 1.1022 0.8182
H3 H 0.1629 1.0068 0.7471
C6 C 0.3630(7) 0.7864(4) 0.8103(4)
C7 C 0.4884(8) 0.8555(5) 0.6939(4)
C8 C 0.5388(9) 0.7817(5) 0.6020(5)
H4 H 0.6039 0.8314 0.5304
H5 H 0.4332 0.7491 0.5924
H6 H 0.6102 0.7194 0.6269
C9 C 0.6538(8) 0.9139(5) 0.7064(4)
H7 H 0.6291 0.9301 0.7816
H8 H 0.7479 0.8599 0.7012
C10 C 0.7161(8) 1.0274(5) 0.6159(5)
H9 H 0.7394 1.0112 0.5407
H10 H 0.6223 1.0815 0.6217
C11 C 0.8793(8) 1.0846(6) 0.6267(5)
H11 H 0.8569 1.0970 0.7033
H12 H 0.9736 1.0310 0.6183
C12 C 0.9415(11) 1.1989(6) 0.5425(6)
H13 H 0.9529 1.1898 0.4664
H14 H 1.0541 1.2241 0.5489
H15 H 0.8576 1.2566 0.5580
C13 C 0.4138(9) 0.6605(5) 0.8545(5)
H16 H 0.4128 0.6170 0.7974
H17 H 0.3239 0.6234 0.9233
C14 C 0.2224(7) 0.7214(4) 1.0998(4)
C15 C 0.0609(7) 0.7008(5) 1.0841(5)
H18 H 0.0289 0.7462 1.0210
C16 C -0.0587(8) 0.6115(6) 1.1622(7)
H19 H -0.1668 0.5965 1.1488
C17 C -0.0164(10) 0.5475(5) 1.2567(6)
H20 H -0.0965 0.4892 1.3080
C18 C 0.1465(9) 0.5680(4) 1.2786(5)
C19 C 0.2707(7) 0.6558(4) 1.1991(4)
C20 C 0.4320(8) 0.6758(5) 1.2249(5)
H21 H 0.5152 0.7323 1.1738
C21 C 0.4673(10) 0.6141(7) 1.3226(6)
H22 H 0.5720 0.6305 1.3396
C22 C 0.3460(13) 0.5253(7) 1.3982(6)
H23 H 0.3733 0.4809 1.4634
C23 C 0.1921(11) 0.5040(5) 1.3774(6)
H24 H 0.1130 0.4456 1.4293
H25 H 0.470(3) 0.802(4) 1.008(4)
H26 H 0.425(6) 0.918(3) 0.665(4)
loop_
_geom_bond_atom_site_label_1
_geom_bond_atom_site_label_2
_geom_bond_site_symmetry_1
_geom_bond_site_symmetry_2
Br1 C6 1_555 1_555
Br2 C13 1_555 1_555
O1 C1 1_555 1_555
O2 C1 1_555 1_555
C1 C4 1_555 1_555
C2 O2 1_555 1_555
C3 C2 1_555 1_555
C4 C3 1_555 1_555
C5 C4 1_555 1_555
H1 C5 1_555 1_555
H2 C5 1_555 1_555
H3 C5 1_555 1_555
C6 C3 1_555 1_555
C7 C6 1_555 1_555
C8 C7 1_555 1_555
H4 C8 1_555 1_555
H5 C8 1_555 1_555
H6 C8 1_555 1_555
C9 C7 1_555 1_555
H7 C9 1_555 1_555
H8 C9 1_555 1_555
C10 C9 1_555 1_555
H9 C10 1_555 1_555
H10 C10 1_555 1_555
C11 C10 1_555 1_555
H11 C11 1_555 1_555
H12 C11 1_555 1_555
C12 C11 1_555 1_555
H13 C12 1_555 1_555
H14 C12 1_555 1_555
H15 C12 1_555 1_555
C13 C6 1_555 1_555
H16 C13 1_555 1_555
H17 C13 1_555 1_555
C14 C2 1_555 1_555
C15 C14 1_555 1_555
H18 C15 1_555 1_555
C16 C15 1_555 1_555
H19 C16 1_555 1_555
C17 C16 1_555 1_555
H20 C17 1_555 1_555
C18 C17 1_555 1_555
C19 C14 1_555 1_555
C20 C19 1_555 1_555
H21 C20 1_555 1_555
C21 C20 1_555 1_555
H22 C21 1_555 1_555
C22 C21 1_555 1_555
H23 C22 1_555 1_555
C23 C18 1_555 1_555
H24 C23 1_555 1_555
H25 C2 1_555 1_555
H26 C7 1_555 1_555
C18 C19 1_555 1_555
C22 C23 1_555 1_555

#END
