
#######################################################################
#
#                 Cambridge Crystallographic Data Centre
#                                CCDC 
#
#######################################################################
#
# If this CIF has been generated from an entry in the Cambridge 
# Structural Database, then it will include bibliographic, chemical, 
# crystal, experimental, refinement or atomic coordinate data resulting 
# from the CCDC's data processing and validation procedures.
#
#######################################################################

data_HIMVAD
_chemical_formula_moiety         'C18 H18 O7 S1'
_chemical_name_systematic        
'4-ethyl 3-methyl 2,8-dimethyl-5,5-dioxo-2,5-dihydro-5\l^6^-[1]benzothieno[3,2-b]pyran-3,4-dicarboxylate'
_symmetry_cell_setting           monoclinic
_symmetry_space_group_name_H-M   'P 21/n'
_symmetry_Int_Tables_number      14
_space_group_name_Hall           '-P 2yn'
loop_
_symmetry_equiv_pos_site_id
_symmetry_equiv_pos_as_xyz
1 x,y,z
2 1/2-x,1/2+y,1/2-z
3 -x,-y,-z
4 1/2+x,1/2-y,1/2+z
_cell_length_a                   9.9450(17)
_cell_length_b                   9.9498(15)
_cell_length_c                   18.210(3)
_cell_angle_alpha                90
_cell_angle_beta                 103.549(18)
_cell_angle_gamma                90
_cell_volume                     1751.75
_exptl_crystal_description       block
_cell_formula_units_Z            4
loop_
_atom_site_label
_atom_site_type_symbol
_atom_site_fract_x
_atom_site_fract_y
_atom_site_fract_z
S1 S 0.63181(8) 0.37195(8) 0.33854(4)
O1 O 0.6437(2) 0.4233(2) 0.54825(12)
O2 O 0.3745(2) 0.1567(2) 0.60513(12)
O3 O 0.2630(2) 0.2348(2) 0.36301(12)
O4 O 0.3133(3) 0.0617(2) 0.49183(14)
O5 O 0.7039(3) 0.2649(2) 0.31288(14)
O6 O 0.4244(2) 0.1007(3) 0.33796(14)
O7 O 0.5151(3) 0.4248(3) 0.28656(14)
C1 C 0.5909(3) 0.3361(3) 0.42481(16)
C2 C 0.7541(3) 0.5127(3) 0.45461(17)
C3 C 0.3880(3) 0.1844(3) 0.37484(17)
C4 C 0.5845(3) 0.3023(3) 0.57468(17)
H1 H 0.5379 0.3297 0.6141
C5 C 0.4843(3) 0.2515(3) 0.44040(17)
C6 C 0.6606(3) 0.4185(3) 0.47805(16)
C7 C 0.8413(3) 0.6052(3) 0.49747(18)
H2 H 0.8452 0.6142 0.5488
C8 C 0.7493(3) 0.4985(3) 0.37812(17)
C9 C 0.9234(3) 0.6852(3) 0.46310(19)
C10 C 0.4792(3) 0.2370(3) 0.51255(17)
C11 C 0.9177(3) 0.6683(3) 0.3877(2)
H3 H 0.9738 0.7212 0.3651
C12 C 0.3793(3) 0.1426(3) 0.53336(18)
C13 C 0.8315(3) 0.5751(3) 0.34441(19)
H4 H 0.8294 0.5647 0.2934
C14 C 0.6996(3) 0.2095(3) 0.60959(19)
H5 H 0.7450 0.1788 0.5716
H6 H 0.6629 0.1338 0.6312
H7 H 0.7648 0.2561 0.6484
C15 C 1.0145(3) 0.7904(3) 0.5087(2)
H8 H 0.9591 0.8505 0.5306
H9 H 1.0605 0.8400 0.4766
H10 H 1.0821 0.7478 0.5482
C16 C 0.2909(3) 0.0615(4) 0.6335(2)
H11 H 0.2037 0.0513 0.5978
H12 H 0.2755 0.0931 0.6807
H13 H 0.3375 -0.0236 0.6411
C17 C 0.1600(4) 0.1709(4) 0.3046(2)
H14 H 0.1311 0.0868 0.3231
H15 H 0.1980 0.1517 0.2613
C18 C 0.0420(4) 0.2616(5) 0.2829(2)
H16 H -0.0274 0.2209 0.2435
H17 H 0.0716 0.3446 0.2649
H18 H 0.0042 0.2789 0.3258
loop_
_geom_bond_atom_site_label_1
_geom_bond_atom_site_label_2
_geom_bond_site_symmetry_1
_geom_bond_site_symmetry_2
S1 O5 1_555 1_555
O1 C4 1_555 1_555
O2 C12 1_555 1_555
O3 C3 1_555 1_555
O4 C12 1_555 1_555
O6 C3 1_555 1_555
O7 S1 1_555 1_555
C1 S1 1_555 1_555
C2 C6 1_555 1_555
C3 C5 1_555 1_555
C4 H1 1_555 1_555
C5 C1 1_555 1_555
C6 O1 1_555 1_555
C7 C2 1_555 1_555
H2 C7 1_555 1_555
C8 S1 1_555 1_555
C9 C7 1_555 1_555
C10 C4 1_555 1_555
C11 C9 1_555 1_555
H3 C11 1_555 1_555
C12 C10 1_555 1_555
C13 C8 1_555 1_555
H4 C13 1_555 1_555
C14 C4 1_555 1_555
H5 C14 1_555 1_555
H6 C14 1_555 1_555
H7 C14 1_555 1_555
C15 C9 1_555 1_555
H8 C15 1_555 1_555
H9 C15 1_555 1_555
H10 C15 1_555 1_555
C16 O2 1_555 1_555
H11 C16 1_555 1_555
H12 C16 1_555 1_555
H13 C16 1_555 1_555
C17 O3 1_555 1_555
H14 C17 1_555 1_555
H15 C17 1_555 1_555
C18 C17 1_555 1_555
H16 C18 1_555 1_555
H17 C18 1_555 1_555
H18 C18 1_555 1_555
C1 C6 1_555 1_555
C2 C8 1_555 1_555
C5 C10 1_555 1_555
C11 C13 1_555 1_555

#END
