
#######################################################################
#
#                 Cambridge Crystallographic Data Centre
#                                CCDC 
#
#######################################################################
#
# If this CIF has been generated from an entry in the Cambridge 
# Structural Database, then it will include bibliographic, chemical, 
# crystal, experimental, refinement or atomic coordinate data resulting 
# from the CCDC's data processing and validation procedures.
#
#######################################################################

data_HIMVEH
_chemical_formula_moiety         'C18 H18 O5 S1'
_chemical_name_systematic        
'4-ethyl 3-methyl 2,8-dimethyl-2H-[1]benzothieno[3,2-b]pyran-3,4-dicarboxylate'
_symmetry_cell_setting           triclinic
_symmetry_space_group_name_H-M   'P -1'
_symmetry_Int_Tables_number      2
_space_group_name_Hall           '-P 1'
loop_
_symmetry_equiv_pos_site_id
_symmetry_equiv_pos_as_xyz
1 x,y,z
2 -x,-y,-z
_cell_length_a                   9.8988(7)
_cell_length_b                   10.1507(7)
_cell_length_c                   10.2605(8)
_cell_angle_alpha                111.653(2)
_cell_angle_beta                 95.303(2)
_cell_angle_gamma                114.760(2)
_cell_volume                     832.049
_exptl_crystal_colour            colorless
_exptl_crystal_description       block
_cell_formula_units_Z            2
loop_
_atom_site_label
_atom_site_type_symbol
_atom_site_fract_x
_atom_site_fract_y
_atom_site_fract_z
S1 S 0.34858(5) 0.80653(5) 0.95125(6)
O1 O 0.04044(14) 0.37503(14) 0.88140(13)
O2 O -0.32742(15) 0.23027(16) 0.54706(14)
O3 O -0.06209(17) 0.76895(16) 0.79629(16)
C1 C 0.16930(19) 0.5200(2) 0.92302(19)
O4 O -0.23246(18) 0.46887(18) 0.53910(16)
C2 C 0.3082(2) 0.5789(2) 1.03229(19)
O5 O 0.12773(18) 0.79230(19) 0.69000(19)
C3 C 0.1728(2) 0.6263(2) 0.8710(2)
C4 C 0.4173(2) 0.7364(2) 1.0592(2)
C5 C 0.3461(2) 0.5046(2) 1.10891(19)
H1 H 0.2741 0.4004 1.0918
C6 C -0.0818(2) 0.4351(2) 0.7056(2)
C7 C -0.2192(2) 0.3846(2) 0.5906(2)
C8 C 0.0359(2) 0.5887(2) 0.77009(19)
C9 C 0.0376(2) 0.7251(2) 0.7435(2)
C10 C -0.0647(2) 0.3067(2) 0.7371(2)
H2 H -0.1675 0.2293 0.7341
C11 C 0.4902(2) 0.5852(2) 1.2100(2)
C12 C 0.5637(2) 0.8181(2) 1.1597(2)
H3 H 0.6370 0.9216 1.1765
C13 C 0.5967(2) 0.7419(3) 1.2331(2)
H4 H 0.6939 0.7961 1.3012
C14 C 0.5330(3) 0.5078(3) 1.2941(2)
H5 H 0.4531 0.4684 1.3379
H6 H 0.6299 0.5867 1.3695
H7 H 0.5435 0.4188 1.2287
C15 C -0.4620(2) 0.1655(3) 0.4279(2)
H8 H -0.4292 0.1835 0.3480
H9 H -0.5215 0.2188 0.4604
H10 H -0.5249 0.0509 0.3960
C16 C -0.0723(4) 0.8942(3) 0.7664(3)
H11 H -0.1080 0.8556 0.6614
H12 H 0.0294 0.9903 0.8049
C17 C -0.1820(3) 0.9345(3) 0.8363(3)
H13 H -0.2817 0.8383 0.7996
H14 H -0.1922 1.0146 0.8145
H15 H -0.1439 0.9767 0.9406
C18 C -0.0117(3) 0.2138(3) 0.6228(2)
H16 H 0.0854 0.2880 0.6182
H17 H -0.0884 0.1571 0.5291
H18 H 0.0017 0.1370 0.6480
loop_
_geom_bond_atom_site_label_1
_geom_bond_atom_site_label_2
_geom_bond_site_symmetry_1
_geom_bond_site_symmetry_2
S1 C3 1_555 1_555
O1 C1 1_555 1_555
O2 C7 1_555 1_555
O3 C9 1_555 1_555
C1 C2 1_555 1_555
O4 C7 1_555 1_555
C2 C4 1_555 1_555
O5 C9 1_555 1_555
C3 C1 1_555 1_555
C4 S1 1_555 1_555
C5 C2 1_555 1_555
H1 C5 1_555 1_555
C6 C7 1_555 1_555
C8 C3 1_555 1_555
C9 C8 1_555 1_555
C10 O1 1_555 1_555
H2 C10 1_555 1_555
C11 C5 1_555 1_555
C12 C4 1_555 1_555
H3 C12 1_555 1_555
C13 C11 1_555 1_555
H4 C13 1_555 1_555
C14 C11 1_555 1_555
H5 C14 1_555 1_555
H6 C14 1_555 1_555
H7 C14 1_555 1_555
C15 O2 1_555 1_555
H8 C15 1_555 1_555
H9 C15 1_555 1_555
H10 C15 1_555 1_555
C16 O3 1_555 1_555
H11 C16 1_555 1_555
H12 C16 1_555 1_555
C17 C16 1_555 1_555
H13 C17 1_555 1_555
H14 C17 1_555 1_555
H15 C17 1_555 1_555
C18 C10 1_555 1_555
H16 C18 1_555 1_555
H17 C18 1_555 1_555
H18 C18 1_555 1_555
C6 C8 1_555 1_555
C6 C10 1_555 1_555
C12 C13 1_555 1_555

#END
