
#######################################################################
#
#                 Cambridge Crystallographic Data Centre
#                                CCDC 
#
#######################################################################
#
# If this CIF has been generated from an entry in the Cambridge 
# Structural Database, then it will include bibliographic, chemical, 
# crystal, experimental, refinement or atomic coordinate data resulting 
# from the CCDC's data processing and validation procedures.
#
#######################################################################

data_HIMWEF
_chemical_formula_moiety         'C8 H23 N4 3+,3(Cl1 O4 1-),H2 O1'
_chemical_name_systematic        
'1,4,7-Triazonia-10-azacyclododecane triperchlorate monohydrate'
_symmetry_cell_setting           triclinic
_symmetry_space_group_name_H-M   'P -1'
_symmetry_Int_Tables_number      2
_space_group_name_Hall           '-P 1'
loop_
_symmetry_equiv_pos_site_id
_symmetry_equiv_pos_as_xyz
1 x,y,z
2 -x,-y,-z
_cell_length_a                   8.386(2)
_cell_length_b                   10.558(2)
_cell_length_c                   11.865(3)
_cell_angle_alpha                77.75(2)
_cell_angle_beta                 72.65(2)
_cell_angle_gamma                74.77(2)
_cell_volume                     957.235
_cell_formula_units_Z            2
loop_
_atom_site_label
_atom_site_type_symbol
_atom_site_fract_x
_atom_site_fract_y
_atom_site_fract_z
Cl1 Cl 0.23662(19) 0.13205(14) 0.27424(14)
O1 O 0.1689(7) 0.2417(5) 0.2004(5)
O2 O 0.1092(7) 0.0725(6) 0.3614(5)
O3 O 0.3515(7) 0.0386(5) 0.2045(4)
O4 O 0.3250(7) 0.1751(5) 0.3400(4)
Cl2 Cl 0.58948(18) 0.25403(14) 0.51083(13)
O5 O 0.6223(7) 0.2823(6) 0.6118(5)
O6 O 0.5430(7) 0.1299(5) 0.5349(4)
O7 O 0.4971(16) 0.3593(10) 0.4568(12)
O9 O 0.7619(11) 0.2155(10) 0.4416(9)
Cl3 Cl 0.7645(2) 0.29932(16) 0.00169(14)
O11 O 0.8096(9) 0.4229(5) -0.0477(5)
O12 O 0.7864(6) 0.2303(5) -0.0904(4)
O13 O 0.9042(9) 0.2287(7) 0.0607(6)
O15 O 0.6154(11) 0.2966(13) 0.0812(9)
O17 O 0.3539(6) 0.4629(4) 0.2576(4)
N1 N 0.3229(6) 0.1505(4) 0.7963(4)
N2 N 0.3549(6) 0.4311(5) 0.7812(5)
N3 N 0.0882(6) 0.3499(4) 0.7059(4)
N4 N 0.1900(6) 0.0821(4) 0.6108(4)
C1 C 0.3102(10) 0.2121(6) 0.9013(6)
C2 C 0.3965(10) 0.3247(8) 0.8735(7)
C3 C 0.1799(8) 0.5104(6) 0.7845(5)
C4 C 0.1174(8) 0.4865(5) 0.6857(6)
C5 C 0.0388(7) 0.3199(5) 0.6060(5)
C6 C 0.0215(7) 0.1790(5) 0.6259(5)
C7 C 0.2318(8) -0.0111(5) 0.7178(5)
C8 C 0.2148(7) 0.0545(5) 0.8241(5)
O8? O 0.4064(13) 0.3264(12) 0.5282(10)
O10? O 0.6706(18) 0.2908(13) 0.3895(11)
O14? O 0.714(5) 0.273(5) 0.1134(7)
O16? O 0.581(4) 0.402(3) 0.000(2)
loop_
_geom_bond_atom_site_label_1
_geom_bond_atom_site_label_2
_geom_bond_site_symmetry_1
_geom_bond_site_symmetry_2
Cl1 O1 1_555 1_555
Cl2 O5 1_555 1_555
Cl3 O11 1_555 1_555
O2 Cl1 1_555 1_555
O3 Cl1 1_555 1_555
O4 Cl1 1_555 1_555
O6 Cl2 1_555 1_555
O7 Cl2 1_555 1_555
O9 Cl2 1_555 1_555
O12 Cl3 1_555 1_555
O13 Cl3 1_555 1_555
O15 Cl3 1_555 1_555
N1 C1 1_555 1_555
N2 C2 1_555 1_555
N3 C4 1_555 1_555
N4 C6 1_555 1_555
C1 C2 1_555 1_555
C3 N2 1_555 1_555
C4 C3 1_555 1_555
C5 N3 1_555 1_555
C6 C5 1_555 1_555
C7 N4 1_555 1_555
C8 N1 1_555 1_555
C7 C8 1_555 1_555

#END
