
#######################################################################
#
#                 Cambridge Crystallographic Data Centre
#                                CCDC 
#
#######################################################################
#
# If this CIF has been generated from an entry in the Cambridge 
# Structural Database, then it will include bibliographic, chemical, 
# crystal, experimental, refinement or atomic coordinate data resulting 
# from the CCDC's data processing and validation procedures.
#
#######################################################################

data_HIMXUX
_chemical_formula_moiety         'C36 H36 N24 O12,C18 H22 N4 O2'
_chemical_name_systematic        
"(2)-(N,N'-(Hexane-1,6-yl)-bis(4-pyridinecarboxamide))-cucurbit(6)uril-pseudorotaxane unknown solvate"
_symmetry_cell_setting           monoclinic
_symmetry_space_group_name_H-M   'P 21/n'
_symmetry_Int_Tables_number      14
_space_group_name_Hall           '-P 2yn'
loop_
_symmetry_equiv_pos_site_id
_symmetry_equiv_pos_as_xyz
1 x,y,z
2 1/2-x,1/2+y,1/2-z
3 -x,-y,-z
4 1/2+x,1/2-y,1/2+z
_cell_length_a                   14.0014(9)
_cell_length_b                   15.9367(10)
_cell_length_c                   15.7331(10)
_cell_angle_alpha                90
_cell_angle_beta                 97.4590(10)
_cell_angle_gamma                90
_cell_volume                     3480.92
_exptl_crystal_colour            colorless
_exptl_crystal_description       prism
_cell_formula_units_Z            2
loop_
_atom_site_label
_atom_site_type_symbol
_atom_site_fract_x
_atom_site_fract_y
_atom_site_fract_z
C1 C 0.5236(2) -0.12003(16) 0.30531(16)
H1 H 0.5126 -0.1489 0.3582
C2 C 0.6215(2) -0.07451(16) 0.31553(16)
H2 H 0.6539 -0.0792 0.3744
C3 C 0.4974(2) 0.02308(16) 0.28454(16)
C4 C 0.6228(2) -0.17936(16) 0.21207(17)
C5 C 0.6619(2) 0.08241(16) 0.31086(17)
H3 H 0.6262 0.1313 0.3254
H4 H 0.7089 0.0692 0.3599
C6 C 0.7721(2) -0.09743(17) 0.24421(19)
H5 H 0.8004 -0.1456 0.2192
H6 H 0.8090 -0.0871 0.2998
C7 C 0.79675(19) 0.05889(15) 0.22027(17)
H7 H 0.8484 0.0614 0.2686
C8 C 0.8244(2) 0.10714(15) 0.14213(17)
H8 H 0.8901 0.1292 0.1531
C9 C 0.69051(19) 0.17180(15) 0.18818(17)
C10 C 0.79641(19) -0.03445(16) 0.10603(18)
C11 C 0.7521(2) 0.23749(16) 0.06371(18)
H9 H 0.8173 0.2568 0.0609
H10 H 0.7152 0.2849 0.0803
C12 C 0.8569(2) 0.05350(17) -0.00364(18)
H11 H 0.9122 0.0906 0.0064
H12 H 0.8797 -0.0007 -0.0206
C13 C 0.7694(2) 0.17500(16) -0.08305(18)
H13 H 0.8279 0.2082 -0.0857
C14 C 0.7019(2) 0.17758(15) -0.16842(17)
H14 H 0.7297 0.2112 -0.2113
C15 C 0.6256(2) 0.24030(15) -0.06200(18)
C16 C 0.7479(2) 0.03881(16) -0.13911(18)
C17 C 0.4621(2) -0.24405(16) 0.20843(18)
H15 H 0.4351 -0.2648 0.2581
H16 H 0.4949 -0.2905 0.1848
C18 C 0.3522(2) -0.06449(17) 0.27826(17)
H17 H 0.3234 -0.0121 0.2932
H18 H 0.3388 -0.1062 0.3200
N1 N 0.45462(17) -0.05332(13) 0.28399(13)
N2 N 0.53260(17) -0.17917(13) 0.23620(14)
N3 N 0.59524(17) 0.01173(13) 0.29475(14)
N4 N 0.67451(17) -0.11780(13) 0.25645(15)
N5 N 0.71197(16) 0.10277(13) 0.23946(14)
N6 N 0.78100(16) -0.02533(12) 0.19008(14)
N7 N 0.75471(17) 0.17373(13) 0.12959(14)
N8 N 0.81568(16) 0.04384(13) 0.07512(14)
N9 N 0.71043(17) 0.20981(13) -0.02182(14)
N10 N 0.79075(17) 0.08654(13) -0.07217(14)
N11 N 0.38443(17) -0.21626(13) 0.14523(13)
N12 N 0.30695(17) -0.09065(13) 0.19391(14)
O1 O 0.45678(14) 0.09130(12) 0.27744(13)
O2 O 0.65238(15) -0.22843(12) 0.16207(13)
O3 O 0.62641(14) 0.22250(11) 0.19479(12)
O4 O 0.79469(15) -0.09888(11) 0.06587(13)
O5 O 0.56885(16) 0.28342(12) -0.02802(12)
O6 O 0.75903(15) -0.03612(11) -0.14750(13)
C1B C 0.4764(2) 0.12003(16) -0.30531(16)
H1B H 0.4874 0.1489 -0.3582
C2B C 0.3785(2) 0.07451(16) -0.31553(16)
H2B H 0.3461 0.0792 -0.3744
C3B C 0.5026(2) -0.02308(16) -0.28454(16)
C4B C 0.3772(2) 0.17936(16) -0.21207(17)
C5B C 0.3381(2) -0.08241(16) -0.31086(17)
H3B H 0.3738 -0.1313 -0.3254
H4B H 0.2911 -0.0692 -0.3599
C6B C 0.2279(2) 0.09743(17) -0.24421(19)
H5B H 0.1996 0.1456 -0.2192
H6B H 0.1910 0.0871 -0.2998
C7B C 0.20325(19) -0.05889(15) -0.22027(17)
H7B H 0.1516 -0.0614 -0.2686
C8B C 0.1756(2) -0.10714(15) -0.14213(17)
H8B H 0.1099 -0.1292 -0.1531
C9B C 0.30949(19) -0.17180(15) -0.18818(17)
C10B C 0.20359(19) 0.03445(16) -0.10603(18)
C11B C 0.2479(2) -0.23749(16) -0.06371(18)
H9B H 0.1827 -0.2568 -0.0609
H10B H 0.2848 -0.2849 -0.0803
C12B C 0.1431(2) -0.05350(17) 0.00364(18)
H11B H 0.0878 -0.0906 -0.0064
H12B H 0.1203 0.0007 0.0206
C13B C 0.2306(2) -0.17500(16) 0.08305(18)
H13B H 0.1721 -0.2082 0.0857
C14B C 0.2981(2) -0.17758(15) 0.16842(17)
H14B H 0.2703 -0.2112 0.2113
C15B C 0.3744(2) -0.24030(15) 0.06200(18)
C16B C 0.2521(2) -0.03881(16) 0.13911(18)
C17B C 0.5379(2) 0.24405(16) -0.20843(18)
H15B H 0.5649 0.2648 -0.2581
H16B H 0.5051 0.2905 -0.1848
C18B C 0.6478(2) 0.06449(17) -0.27826(17)
H17B H 0.6766 0.0121 -0.2932
H18B H 0.6612 0.1062 -0.3200
N1B N 0.54538(17) 0.05332(13) -0.28399(13)
N2B N 0.46740(17) 0.17917(13) -0.23620(14)
N3B N 0.40476(17) -0.01173(13) -0.29475(14)
N4B N 0.32549(17) 0.11780(13) -0.25645(15)
N5B N 0.28803(16) -0.10277(13) -0.23946(14)
N6B N 0.21900(16) 0.02533(12) -0.19008(14)
N7B N 0.24529(17) -0.17373(13) -0.12959(14)
N8B N 0.18432(16) -0.04384(13) -0.07512(14)
N9B N 0.28957(17) -0.20981(13) 0.02182(14)
N10B N 0.20925(17) -0.08654(13) 0.07217(14)
N11B N 0.61557(17) 0.21626(13) -0.14523(13)
N12B N 0.69305(17) 0.09065(13) -0.19391(14)
O1B O 0.54322(14) -0.09130(12) -0.27744(13)
O2B O 0.34762(15) 0.22843(12) -0.16207(13)
O3B O 0.37359(14) -0.22250(11) -0.19479(12)
O4B O 0.20531(15) 0.09888(11) -0.06587(13)
O5B O 0.43115(16) -0.28342(12) 0.02802(12)
O6B O 0.24097(15) 0.03612(11) 0.14750(13)
C19 C 0.4388(3) 0.4976(2) 0.2474(4)
H19 H 0.4325 0.5548 0.2362
C20 C 0.4008(3) 0.4421(2) 0.1842(3)
H20 H 0.3688 0.4619 0.1326
C21 C 0.4109(2) 0.35836(17) 0.19871(19)
C22 C 0.4588(2) 0.3327(2) 0.27698(19)
H21 H 0.4687 0.2761 0.2891
C23 C 0.4914(2) 0.3930(3) 0.3364(2)
H22 H 0.5210 0.3748 0.3896
C24 C 0.3701(2) 0.29652(19) 0.13399(19)
C25 C 0.3974(2) 0.16569(17) 0.05675(19)
H23 H 0.3843 0.1889 -0.0006
H24 H 0.3392 0.1386 0.0703
C26 C 0.4776(2) 0.10225(16) 0.05998(18)
H25 H 0.5359 0.1310 0.0491
H26 H 0.4891 0.0792 0.1175
C27 C 0.4591(2) 0.03087(16) -0.00261(19)
H27 H 0.4477 0.0535 -0.0603
H28 H 0.4011 0.0016 0.0083
N13 N 0.4840(2) 0.4736(3) 0.3236(3)
N14 N 0.42469(17) 0.23247(13) 0.11784(14)
H29 H 0.4815 0.2301 0.1460
O7 O 0.2886(2) 0.3065(2) 0.0968(2)
C19B C 0.5612(3) -0.4976(2) -0.2474(4)
H19B H 0.5675 -0.5548 -0.2362
C20B C 0.5992(3) -0.4421(2) -0.1842(3)
H20B H 0.6312 -0.4619 -0.1326
C21B C 0.5891(2) -0.35836(17) -0.19871(19)
C22B C 0.5412(2) -0.3327(2) -0.27698(19)
H21B H 0.5313 -0.2761 -0.2891
C23B C 0.5086(2) -0.3930(3) -0.3364(2)
H22B H 0.4790 -0.3748 -0.3896
C24B C 0.6299(2) -0.29652(19) -0.13399(19)
C25B C 0.6026(2) -0.16569(17) -0.05675(19)
H23B H 0.6157 -0.1889 0.0006
H24B H 0.6608 -0.1386 -0.0703
C26B C 0.5224(2) -0.10225(16) -0.05998(18)
H25B H 0.4641 -0.1310 -0.0491
H26B H 0.5109 -0.0792 -0.1175
C27B C 0.5409(2) -0.03087(16) 0.00261(19)
H27B H 0.5523 -0.0535 0.0603
H28B H 0.5989 -0.0016 -0.0083
N13B N 0.5160(2) -0.4736(3) -0.3236(3)
N14B N 0.57531(17) -0.23247(13) -0.11784(14)
H29B H 0.5185 -0.2301 -0.1460
O7B O 0.7114(2) -0.3065(2) -0.0968(2)
loop_
_geom_bond_atom_site_label_1
_geom_bond_atom_site_label_2
_geom_bond_site_symmetry_1
_geom_bond_site_symmetry_2
C1 H1 1_555 1_555
C2 C1 1_555 1_555
H2 C2 1_555 1_555
C3 N1 1_555 1_555
C4 N2 1_555 1_555
C5 H3 1_555 1_555
H4 C5 1_555 1_555
C6 H5 1_555 1_555
H6 C6 1_555 1_555
C7 H7 1_555 1_555
C8 C7 1_555 1_555
H8 C8 1_555 1_555
C9 N5 1_555 1_555
C10 N6 1_555 1_555
C11 H9 1_555 1_555
H10 C11 1_555 1_555
C12 H11 1_555 1_555
H12 C12 1_555 1_555
C13 H13 1_555 1_555
C14 C13 1_555 1_555
H14 C14 1_555 1_555
C15 N9 1_555 1_555
C16 N10 1_555 1_555
C17 H15 1_555 1_555
H16 C17 1_555 1_555
C18 H17 1_555 1_555
H18 C18 1_555 1_555
C19 H19 1_555 1_555
C20 C19 1_555 1_555
H20 C20 1_555 1_555
C21 C20 1_555 1_555
C22 C21 1_555 1_555
H21 C22 1_555 1_555
C23 C22 1_555 1_555
H22 C23 1_555 1_555
C24 C21 1_555 1_555
C25 H23 1_555 1_555
H24 C25 1_555 1_555
C26 C25 1_555 1_555
H25 C26 1_555 1_555
H26 C26 1_555 1_555
C27 C26 1_555 1_555
H27 C27 1_555 1_555
H28 C27 1_555 1_555
N1 C1 1_555 1_555
N2 C1 1_555 1_555
N3 C2 1_555 1_555
N4 C2 1_555 1_555
N5 C5 1_555 1_555
N6 C6 1_555 1_555
N7 C8 1_555 1_555
N8 C8 1_555 1_555
N9 C11 1_555 1_555
N10 C12 1_555 1_555
N11 C17 1_555 1_555
N12 C18 1_555 1_555
N13 C19 1_555 1_555
N14 C24 1_555 1_555
H29 N14 1_555 1_555
O1 C3 1_555 1_555
O2 C4 1_555 1_555
O3 C9 1_555 1_555
O4 C10 1_555 1_555
O5 C15 1_555 1_555
O6 C16 1_555 1_555
O7 C24 1_555 1_555
C1B H1B 1_555 1_555
C2B C1B 1_555 1_555
H2B C2B 1_555 1_555
C3B N1B 1_555 1_555
C4B N2B 1_555 1_555
C5B H3B 1_555 1_555
H4B C5B 1_555 1_555
C6B H5B 1_555 1_555
H6B C6B 1_555 1_555
C7B H7B 1_555 1_555
C8B C7B 1_555 1_555
H8B C8B 1_555 1_555
C9B N5B 1_555 1_555
C10B N6B 1_555 1_555
C11B H9B 1_555 1_555
H10B C11B 1_555 1_555
C12B H11B 1_555 1_555
H12B C12B 1_555 1_555
C13B H13B 1_555 1_555
C14B N11 1_555 1_555
H14B C14B 1_555 1_555
C15B N11 1_555 1_555
C16B N12 1_555 1_555
C17B H15B 1_555 1_555
H16B C17B 1_555 1_555
C18B H17B 1_555 1_555
H18B C18B 1_555 1_555
C19B H19B 1_555 1_555
C20B C19B 1_555 1_555
H20B C20B 1_555 1_555
C21B C20B 1_555 1_555
C22B C21B 1_555 1_555
H21B C22B 1_555 1_555
C23B C22B 1_555 1_555
H22B C23B 1_555 1_555
C24B C21B 1_555 1_555
C25B H23B 1_555 1_555
H24B C25B 1_555 1_555
C26B C25B 1_555 1_555
H25B C26B 1_555 1_555
H26B C26B 1_555 1_555
C27B C27 1_555 1_555
H27B C27B 1_555 1_555
H28B C27B 1_555 1_555
N1B C1B 1_555 1_555
N2B C1B 1_555 1_555
N3B C2B 1_555 1_555
N4B C2B 1_555 1_555
N5B C5B 1_555 1_555
N6B C6B 1_555 1_555
N7B C8B 1_555 1_555
N8B C8B 1_555 1_555
N9B C11B 1_555 1_555
N10B C12B 1_555 1_555
N11B C14 1_555 1_555
N12B C14 1_555 1_555
N13B C19B 1_555 1_555
N14B C24B 1_555 1_555
H29B N14B 1_555 1_555
O1B C3B 1_555 1_555
O2B C4B 1_555 1_555
O3B C9B 1_555 1_555
O4B C10B 1_555 1_555
O5B C15B 1_555 1_555
O6B C16B 1_555 1_555
O7B C24B 1_555 1_555
C3 N3 1_555 1_555
C4 N4 1_555 1_555
C5 N3 1_555 1_555
C6 N4 1_555 1_555
C7 N5 1_555 1_555
C7 N6 1_555 1_555
C9 N7 1_555 1_555
C10 N8 1_555 1_555
C11 N7 1_555 1_555
C12 N8 1_555 1_555
C13 N9 1_555 1_555
C13 N10 1_555 1_555
C15 N11B 1_555 1_555
C16 N12B 1_555 1_555
C17 N2 1_555 1_555
C18 N1 1_555 1_555
C23 N13 1_555 1_555
C25 N14 1_555 1_555
N12 C14B 1_555 1_555
C3B N3B 1_555 1_555
C4B N4B 1_555 1_555
C5B N3B 1_555 1_555
C6B N4B 1_555 1_555
C7B N5B 1_555 1_555
C7B N6B 1_555 1_555
C9B N7B 1_555 1_555
C10B N8B 1_555 1_555
C11B N7B 1_555 1_555
C12B N8B 1_555 1_555
C13B C14B 1_555 1_555
C13B N9B 1_555 1_555
C13B N10B 1_555 1_555
C15B N9B 1_555 1_555
C16B N10B 1_555 1_555
C17B N2B 1_555 1_555
C17B N11B 1_555 1_555
C18B N1B 1_555 1_555
C18B N12B 1_555 1_555
C23B N13B 1_555 1_555
C25B N14B 1_555 1_555
C26B C27B 1_555 1_555

#END
