
#######################################################################
#
#                 Cambridge Crystallographic Data Centre
#                                CCDC 
#
#######################################################################
#
# If this CIF has been generated from an entry in the Cambridge 
# Structural Database, then it will include bibliographic, chemical, 
# crystal, experimental, refinement or atomic coordinate data resulting 
# from the CCDC's data processing and validation procedures.
#
#######################################################################

data_HINBOX
_chemical_formula_moiety         'C61 H59 N2 1+,Cl1 O4 1-,C2 H3 N1'
_chemical_name_systematic        
'9-(bis(4-(2-phenylpropan-2-yl)phenyl)amino)-2,7-bis(2-phenylpropan-2-yl)acridinium perchlorate acetonitrile solvate'
_symmetry_cell_setting           triclinic
_symmetry_space_group_name_H-M   'P -1'
_symmetry_Int_Tables_number      2
_space_group_name_Hall           '-P 1'
loop_
_symmetry_equiv_pos_site_id
_symmetry_equiv_pos_as_xyz
1 x,y,z
2 -x,-y,-z
_cell_length_a                   8.546(3)
_cell_length_b                   15.161(5)
_cell_length_c                   20.127(7)
_cell_angle_alpha                88.836(7)
_cell_angle_beta                 88.900(7)
_cell_angle_gamma                84.880(7)
_cell_volume                     2596.44
_exptl_crystal_colour            purple
_exptl_crystal_description       needle
_cell_formula_units_Z            2
loop_
_atom_site_label
_atom_site_type_symbol
_atom_site_fract_x
_atom_site_fract_y
_atom_site_fract_z
Cl1 Cl 0.17546(10) 0.47245(6) 0.35277(4)
O1 O 0.0996(3) 0.53890(15) 0.31009(11)
O2 O 0.0635(3) 0.43625(15) 0.39759(11)
O3 O 0.2540(3) 0.40406(14) 0.31325(11)
O4 O 0.2914(3) 0.51222(17) 0.39160(11)
N1 N 0.7084(3) 0.48746(17) 0.46804(13)
N2 N 0.6797(3) 0.45409(16) 0.26350(12)
C1 C 0.7349(4) 0.5567(2) 0.42735(15)
C2 C 0.7761(4) 0.6350(2) 0.45530(16)
C3 C 0.8051(4) 0.7046(2) 0.41569(17)
C4 C 0.8019(4) 0.6994(2) 0.34524(15)
C5 C 0.7639(4) 0.6227(2) 0.31858(16)
C6 C 0.7238(3) 0.54943(19) 0.35767(14)
C7 C 0.6840(3) 0.46714(19) 0.33178(14)
C8 C 0.6479(3) 0.39817(19) 0.37694(14)
C9 C 0.5859(4) 0.3185(2) 0.35798(16)
C10 C 0.5523(4) 0.2546(2) 0.40247(16)
C11 C 0.5767(4) 0.2679(2) 0.47013(16)
C12 C 0.6317(4) 0.3433(2) 0.49197(17)
C13 C 0.6655(3) 0.4097(2) 0.44564(15)
C14 C 0.6083(4) 0.5216(2) 0.22018(15)
C15 C 0.6767(4) 0.5420(2) 0.15987(16)
C16 C 0.6088(4) 0.6094(2) 0.12038(16)
C17 C 0.4731(4) 0.6590(2) 0.13961(16)
C18 C 0.4044(4) 0.6354(3) 0.19977(17)
C19 C 0.4698(4) 0.5678(2) 0.23936(17)
C20 C 0.8363(4) 0.7807(2) 0.30306(15)
C21 C 0.8568(6) 0.7604(3) 0.22972(18)
C22 C 0.6918(5) 0.8485(3) 0.3112(2)
C23 C 0.9859(4) 0.8175(2) 0.32680(15)
C24 C 0.9969(4) 0.9062(2) 0.33753(17)
C25 C 1.1375(5) 0.9374(3) 0.35579(18)
C26 C 1.2685(5) 0.8804(3) 0.36269(19)
C27 C 1.2611(4) 0.7915(3) 0.35175(19)
C28 C 1.1208(4) 0.7606(2) 0.33357(17)
C29 C 0.4899(4) 0.1667(2) 0.38191(16)
C30 C 0.4686(6) 0.1627(3) 0.30700(19)
C31 C 0.6159(5) 0.0928(3) 0.4012(2)
C32 C 0.3326(4) 0.1570(2) 0.41708(15)
C33 C 0.2041(4) 0.2161(2) 0.40174(18)
C34 C 0.0586(5) 0.2073(2) 0.43050(19)
C35 C 0.0365(5) 0.1406(2) 0.47626(18)
C36 C 0.1628(5) 0.0829(2) 0.49238(19)
C37 C 0.3087(4) 0.0905(2) 0.46354(18)
C38 C 0.3971(4) 0.7364(2) 0.09778(17)
C39 C 0.5023(5) 0.7617(3) 0.0391(2)
C40 C 0.3690(6) 0.8177(3) 0.1423(3)
C41 C 0.2463(4) 0.7071(3) 0.06928(16)
C42 C 0.2547(5) 0.6357(3) 0.02686(19)
C43 C 0.1209(6) 0.6074(4) 0.0004(2)
C44 C -0.0241(6) 0.6493(4) 0.0160(2)
C45 C -0.0333(5) 0.7181(4) 0.0576(3)
C46 C 0.0996(5) 0.7486(3) 0.0841(2)
C47 C 0.7519(4) 0.3745(2) 0.23560(15)
C48 C 0.8861(5) 0.3329(2) 0.26239(17)
H1 H 0.713(3) 0.4954(19) 0.5108(15)
H2 H 0.783(3) 0.6404(18) 0.5011(15)
H3 H 0.828(3) 0.7585(17) 0.4333(13)
H4 H 0.769(3) 0.6167(16) 0.2731(12)
H5 H 0.569(3) 0.3127(16) 0.3115(13)
H6 H 0.551(4) 0.2254(19) 0.5036(15)
H7 H 0.644(4) 0.352(2) 0.5396(16)
H8 H 0.767(4) 0.511(2) 0.1471(15)
H9 H 0.665(3) 0.6212(17) 0.0797(13)
H10 H 0.306(4) 0.669(2) 0.2132(15)
H11 H 0.417(3) 0.5505(18) 0.2816(14)
H12 H 0.942(4) 0.717(2) 0.2208(15)
H13 H 0.878(4) 0.816(2) 0.2037(18)
H14 H 0.757(4) 0.740(2) 0.2092(17)
H15 H 0.672(3) 0.867(2) 0.3581(16)
H16 H 0.600(4) 0.820(2) 0.2947(17)
H17 H 0.696(4) 0.903(2) 0.2821(16)
H18 H 0.906(3) 0.9476(17) 0.3377(13)
H19 H 1.141(4) 0.999(2) 0.3653(15)
H20 H 1.367(4) 0.900(2) 0.3756(16)
H21 H 1.350(3) 0.7481(16) 0.3561(12)
H22 H 1.117(4) 0.698(2) 0.3255(14)
H23 H 0.422(4) 0.104(2) 0.2948(15)
H24 H 0.574(4) 0.165(2) 0.2818(17)
H25 H 0.395(4) 0.208(2) 0.2901(18)
H26 H 0.642(4) 0.087(2) 0.453(2)
H27 H 0.709(4) 0.100(2) 0.3748(17)
H28 H 0.580(4) 0.036(2) 0.3903(15)
H29 H 0.221(4) 0.263(2) 0.3721(16)
H30 H -0.025(3) 0.2484(18) 0.4211(14)
H31 H -0.066(4) 0.136(2) 0.4983(16)
H32 H 0.147(4) 0.038(2) 0.5210(15)
H33 H 0.390(3) 0.0532(17) 0.4751(13)
H34 H 0.452(4) 0.812(2) 0.0121(16)
H35 H 0.540(5) 0.713(3) 0.004(2)
H36 H 0.593(5) 0.791(3) 0.058(2)
H37 H 0.298(4) 0.808(2) 0.1791(17)
H38 H 0.331(5) 0.863(3) 0.117(2)
H39 H 0.484(5) 0.831(2) 0.1590(19)
H40 H 0.360(5) 0.606(3) 0.019(2)
H41 H 0.132(5) 0.559(3) -0.031(2)
H42 H -0.119(6) 0.627(3) -0.011(2)
H43 H -0.125(5) 0.760(3) 0.067(2)
H44 H 0.103(4) 0.802(2) 0.1072(17)
H45 H 0.931(3) 0.3585(19) 0.3013(15)
C49 C 0.9777(14) 0.2557(11) 0.2385(9)
H46 H 1.0699 0.2315 0.2603
C50 C 0.9241(10) 0.2183(7) 0.1821(6)
C51 C 0.7879(11) 0.2605(10) 0.1545(7)
H47 H 0.7466 0.2350 0.1166
C52 C 0.7103(15) 0.3362(16) 0.1786(10)
H48 H 0.6236 0.3633 0.1546
C53 C 1.0139(11) 0.1357(5) 0.1521(4)
C54 C 1.1443(13) 0.1689(8) 0.1070(7)
H49 H 1.2185 0.1976 0.1341
H50 H 1.0978 0.2116 0.0742
H51 H 1.1998 0.1187 0.0840
C55 C 1.0982(12) 0.0787(5) 0.2070(5)
H52 H 1.1775 0.1122 0.2271
H53 H 1.1493 0.0245 0.1877
H54 H 1.0214 0.0633 0.2411
C56 C 0.8799(14) 0.0848(8) 0.1169(7)
C57 C 0.8959(14) 0.0663(10) 0.0496(7)
H55 H 0.9823 0.0855 0.0246
C58 C 0.7854(16) 0.0196(10) 0.0189(5)
H56 H 0.7964 0.0070 -0.0270
C59 C 0.6590(13) -0.0086(8) 0.0555(6)
H57 H 0.5835 -0.0405 0.0346
C60 C 0.6430(12) 0.0099(7) 0.1228(6)
H58 H 0.5566 -0.0093 0.1478
C61 C 0.7535(15) 0.0566(7) 0.1535(5)
H59 H 0.7425 0.0692 0.1995
N3 N 0.3733(5) 0.4101(3) 0.0777(2)
C62 C 0.2727(5) 0.4345(3) 0.1114(2)
C63 C 0.1413(5) 0.4662(3) 0.15322(19)
H60 H 0.1170 0.4195 0.1851
H61 H 0.0496 0.4825 0.1256
H62 H 0.1681 0.5182 0.1773
C64? C 0.9215(16) 0.2514(15) 0.2341(11)
H63? H 1.0060 0.2152 0.2532
C65? C 0.8483(13) 0.2156(7) 0.1809(7)
C66? C 0.7183(13) 0.2619(12) 0.1563(8)
H64? H 0.6673 0.2395 0.1196
C67? C 0.659(2) 0.341(2) 0.1836(13)
H65? H 0.5628 0.3709 0.1694
C68? C 0.9092(11) 0.1233(6) 0.1554(5)
C69? C 0.8403(14) 0.0547(6) 0.2023(5)
H66? H 0.8756 0.0626 0.2476
H67? H 0.8760 -0.0052 0.1877
H68? H 0.7253 0.0629 0.2014
C70? C 0.8488(14) 0.1073(7) 0.0851(5)
H69? H 0.8895 0.0482 0.0706
H70? H 0.8851 0.1521 0.0540
H71? H 0.7337 0.1116 0.0861
C71? C 1.0891(6) 0.1151(5) 0.1526(4)
C72? C 1.1642(9) 0.1815(4) 0.1199(4)
H72? H 1.1041 0.2315 0.1014
C73? C 1.3272(9) 0.1749(5) 0.1142(3)
H73? H 1.3785 0.2203 0.0919
C74? C 1.4151(6) 0.1017(5) 0.1413(3)
H74? H 1.5264 0.0972 0.1374
C75? C 1.3400(9) 0.0353(4) 0.1740(3)
H75? H 1.4000 -0.0147 0.1925
C76? C 1.1770(9) 0.0419(4) 0.1796(3)
H76? H 1.1257 -0.0035 0.2020
C77? C 0.9310(13) 0.0771(7) 0.1124(6)
C78? C 0.9137(16) 0.0901(8) 0.0443(6)
C79? C 0.8182(17) 0.0383(9) 0.0094(4)
C80? C 0.7400(13) -0.0264(7) 0.0427(5)
C81? C 0.7572(12) -0.0394(6) 0.1108(5)
C82? C 0.8527(12) 0.0124(7) 0.1457(4)
H77? H 0.9672 0.1343 0.0215
H78? H 0.8065 0.0472 -0.0372
H79? H 0.6747 -0.0618 0.0189
H80? H 0.7037 -0.0836 0.1336
H81? H 0.8645 0.0035 0.1922
loop_
_geom_bond_atom_site_label_1
_geom_bond_atom_site_label_2
_geom_bond_site_symmetry_1
_geom_bond_site_symmetry_2
Cl1 O1 1_555 1_555
O2 Cl1 1_555 1_555
O3 Cl1 1_555 1_555
O4 Cl1 1_555 1_555
N1 C1 1_555 1_555
N2 C7 1_555 1_555
C1 C2 1_555 1_555
C2 C3 1_555 1_555
C3 C4 1_555 1_555
C4 C5 1_555 1_555
C5 C6 1_555 1_555
C6 C1 1_555 1_555
C7 C6 1_555 1_555
C8 C7 1_555 1_555
C9 C8 1_555 1_555
C10 C9 1_555 1_555
C11 C10 1_555 1_555
C12 C11 1_555 1_555
C13 N1 1_555 1_555
C14 N2 1_555 1_555
C15 C14 1_555 1_555
C16 C15 1_555 1_555
C17 C16 1_555 1_555
C18 C17 1_555 1_555
C19 C14 1_555 1_555
C20 C4 1_555 1_555
C21 C20 1_555 1_555
C22 C20 1_555 1_555
C23 C20 1_555 1_555
C24 C23 1_555 1_555
C25 C24 1_555 1_555
C26 C25 1_555 1_555
C27 C26 1_555 1_555
C28 C23 1_555 1_555
C29 C10 1_555 1_555
C30 C29 1_555 1_555
C31 C29 1_555 1_555
C32 C29 1_555 1_555
C33 C32 1_555 1_555
C34 C33 1_555 1_555
C35 C34 1_555 1_555
C36 C35 1_555 1_555
C37 C32 1_555 1_555
C38 C17 1_555 1_555
C39 C38 1_555 1_555
C40 C38 1_555 1_555
C41 C38 1_555 1_555
C42 C41 1_555 1_555
C43 C42 1_555 1_555
C44 C43 1_555 1_555
C45 C44 1_555 1_555
C46 C41 1_555 1_555
C47 N2 1_555 1_555
C48 C47 1_555 1_555
H1 N1 1_555 1_555
H2 C2 1_555 1_555
H3 C3 1_555 1_555
H4 C5 1_555 1_555
H5 C9 1_555 1_555
H6 C11 1_555 1_555
H7 C12 1_555 1_555
H8 C15 1_555 1_555
H9 C16 1_555 1_555
H10 C18 1_555 1_555
H11 C19 1_555 1_555
H12 C21 1_555 1_555
H13 C21 1_555 1_555
H14 C21 1_555 1_555
H15 C22 1_555 1_555
H16 C22 1_555 1_555
H17 C22 1_555 1_555
H18 C24 1_555 1_555
H19 C25 1_555 1_555
H20 C26 1_555 1_555
H21 C27 1_555 1_555
H22 C28 1_555 1_555
H23 C30 1_555 1_555
H24 C30 1_555 1_555
H25 C30 1_555 1_555
H26 C31 1_555 1_555
H27 C31 1_555 1_555
H28 C31 1_555 1_555
H29 C33 1_555 1_555
H30 C34 1_555 1_555
H31 C35 1_555 1_555
H32 C36 1_555 1_555
H33 C37 1_555 1_555
H34 C39 1_555 1_555
H35 C39 1_555 1_555
H36 C39 1_555 1_555
H37 C40 1_555 1_555
H38 C40 1_555 1_555
H39 C40 1_555 1_555
H40 C42 1_555 1_555
H41 C43 1_555 1_555
H42 C44 1_555 1_555
H43 C45 1_555 1_555
H44 C46 1_555 1_555
H45 C48 1_555 1_555
C49 C48 1_555 1_555
H46 C49 1_555 1_555
C50 C49 1_555 1_555
C51 C50 1_555 1_555
H47 C51 1_555 1_555
C52 C47 1_555 1_555
H48 C52 1_555 1_555
C53 C50 1_555 1_555
C54 C53 1_555 1_555
H49 C54 1_555 1_555
H50 C54 1_555 1_555
H51 C54 1_555 1_555
C55 C53 1_555 1_555
H52 C55 1_555 1_555
H53 C55 1_555 1_555
H54 C55 1_555 1_555
C56 C53 1_555 1_555
C57 C56 1_555 1_555
H55 C57 1_555 1_555
C58 C57 1_555 1_555
H56 C58 1_555 1_555
C59 C58 1_555 1_555
H57 C59 1_555 1_555
C60 C59 1_555 1_555
H58 C60 1_555 1_555
C61 C56 1_555 1_555
H59 C61 1_555 1_555
N3 C62 1_555 1_555
C62 C63 1_555 1_555
C63 H60 1_555 1_555
H61 C63 1_555 1_555
H62 C63 1_555 1_555
C8 C13 1_555 1_555
C12 C13 1_555 1_555
C18 C19 1_555 1_555
C27 C28 1_555 1_555
C36 C37 1_555 1_555
C45 C46 1_555 1_555
C51 C52 1_555 1_555
C60 C61 1_555 1_555

#END
