
#######################################################################
#
#                 Cambridge Crystallographic Data Centre
#                                CCDC 
#
#######################################################################
#
# If this CIF has been generated from an entry in the Cambridge 
# Structural Database, then it will include bibliographic, chemical, 
# crystal, experimental, refinement or atomic coordinate data resulting 
# from the CCDC's data processing and validation procedures.
#
#######################################################################

data_HINCOZ
_chemical_formula_moiety         'C29 H24 Cl1 N1 O5'
_chemical_name_systematic        
"t-butyl 2,3-bis(benzoyl)-5'-chloro-2'-oxospiro[cyclopropane-1,3'-indole]-1'(2'H)-carboxylate"
_symmetry_cell_setting           orthorhombic
_symmetry_space_group_name_H-M   'P 21 21 21'
_symmetry_Int_Tables_number      19
_space_group_name_Hall           'P 2ac 2ab'
loop_
_symmetry_equiv_pos_site_id
_symmetry_equiv_pos_as_xyz
1 x,y,z
2 1/2-x,-y,1/2+z
3 -x,1/2+y,1/2-z
4 1/2+x,1/2-y,-z
_cell_length_a                   6.83826(11)
_cell_length_b                   15.8773(2)
_cell_length_c                   22.9462(3)
_cell_angle_alpha                90
_cell_angle_beta                 90
_cell_angle_gamma                90
_cell_volume                     2491.34
_exptl_crystal_colour            colorless
_exptl_crystal_description       block
_cell_formula_units_Z            4
loop_
_atom_site_label
_atom_site_type_symbol
_atom_site_fract_x
_atom_site_fract_y
_atom_site_fract_z
Cl1 Cl -0.24578(14) 0.55060(6) 0.80471(4)
O1 O 0.5445(4) 0.34137(13) 0.72321(9)
O2 O 0.5176(3) 0.48070(14) 0.57367(9)
O3 O 0.7448(3) 0.38817(14) 0.65169(10)
N1 N 0.4556(3) 0.45467(13) 0.67206(9)
O4 O -0.1303(4) 0.65223(15) 0.60552(13)
O5 O 0.1664(5) 0.47372(16) 0.47127(9)
C1 C 0.4137(4) 0.48538(15) 0.61578(11)
C2 C 0.6000(4) 0.39244(16) 0.68082(12)
C3 C 0.2988(4) 0.47433(15) 0.71071(11)
C4 C 0.1508(4) 0.51583(15) 0.68050(11)
C5 C 0.1391(4) 0.35190(17) 0.52957(12)
C6 C 0.2106(4) 0.52089(15) 0.61851(11)
C7 C 0.0727(4) 0.50092(16) 0.56843(12)
H1 H -0.0657 0.4974 0.5792
C8 C 0.1333(4) 0.44389(19) 0.51871(11)
C9 C 0.1587(4) 0.58651(16) 0.57205(12)
H2 H 0.2627 0.5977 0.5437
C10 C 0.1134(5) 0.74662(17) 0.57365(11)
C11 C 0.3106(5) 0.76223(19) 0.56647(13)
H3 H 0.3995 0.7180 0.5683
C12 C 0.0329(5) 0.66111(18) 0.58601(12)
C13 C 0.1276(4) 0.31762(18) 0.58509(13)
H4 H 0.1140 0.3528 0.6172
C14 C 0.2847(5) 0.46035(18) 0.76986(12)
H5 H 0.3858 0.4343 0.7901
C15 C 0.1169(5) 0.48590(19) 0.79858(13)
H6 H 0.1046 0.4774 0.8385
C16 C -0.0181(4) 0.54023(16) 0.70899(12)
H7 H -0.1194 0.5667 0.6891
C17 C 0.6586(5) 0.26500(19) 0.73826(14)
C18 C 0.1537(5) 0.2979(2) 0.48160(14)
H8 H 0.1614 0.3202 0.4442
C19 C -0.0163(6) 0.81384(19) 0.56984(13)
H9 H -0.1494 0.8045 0.5750
C20 C 0.6704(6) 0.2087(2) 0.68514(16)
H10 H 0.5423 0.2020 0.6687
H11 H 0.7209 0.1547 0.6963
H12 H 0.7556 0.2338 0.6568
C21 C -0.0312(5) 0.52384(17) 0.76800(12)
C22 C 0.0505(7) 0.8942(2) 0.55854(15)
H13 H -0.0380 0.9384 0.5553
C23 C 0.2467(8) 0.9090(2) 0.55212(17)
H14 H 0.2913 0.9633 0.5448
C24 C 0.1364(5) 0.2314(2) 0.59282(17)
H15 H 0.1343 0.2085 0.6301
C25 C 0.3772(7) 0.8440(2) 0.55644(17)
H16 H 0.5105 0.8543 0.5527
C26 C 0.1569(5) 0.2119(2) 0.4896(2)
H17 H 0.1648 0.1761 0.4576
C27 C 0.5292(9) 0.2252(2) 0.78479(17)
H18 H 0.5160 0.2633 0.8170
H19 H 0.5876 0.1736 0.7980
H20 H 0.4025 0.2136 0.7687
C28 C 0.1483(6) 0.1794(2) 0.5448(2)
H21 H 0.1505 0.1213 0.5499
C29 C 0.8559(8) 0.2900(3) 0.7620(2)
H22 H 0.9349 0.3124 0.7311
H23 H 0.9191 0.2415 0.7784
H24 H 0.8393 0.3320 0.7917
loop_
_geom_bond_atom_site_label_1
_geom_bond_atom_site_label_2
_geom_bond_site_symmetry_1
_geom_bond_site_symmetry_2
Cl1 C21 1_555 1_555
O1 C2 1_555 1_555
O2 C1 1_555 1_555
O3 C2 1_555 1_555
N1 C1 1_555 1_555
O4 C12 1_555 1_555
O5 C8 1_555 1_555
C1 C6 1_555 1_555
C2 N1 1_555 1_555
C3 N1 1_555 1_555
C4 C3 1_555 1_555
C5 C8 1_555 1_555
C6 C4 1_555 1_555
C7 C6 1_555 1_555
H1 C7 1_555 1_555
C8 C7 1_555 1_555
C9 C6 1_555 1_555
H2 C9 1_555 1_555
C10 C11 1_555 1_555
C11 H3 1_555 1_555
C12 C9 1_555 1_555
C13 C5 1_555 1_555
H4 C13 1_555 1_555
C14 C3 1_555 1_555
H5 C14 1_555 1_555
C15 C14 1_555 1_555
H6 C15 1_555 1_555
C16 C4 1_555 1_555
H7 C16 1_555 1_555
C17 O1 1_555 1_555
C18 C5 1_555 1_555
H8 C18 1_555 1_555
C19 C10 1_555 1_555
H9 C19 1_555 1_555
C20 C17 1_555 1_555
H10 C20 1_555 1_555
H11 C20 1_555 1_555
H12 C20 1_555 1_555
C21 C15 1_555 1_555
C22 C19 1_555 1_555
H13 C22 1_555 1_555
C23 C22 1_555 1_555
H14 C23 1_555 1_555
C24 C13 1_555 1_555
H15 C24 1_555 1_555
C25 C11 1_555 1_555
H16 C25 1_555 1_555
C26 C18 1_555 1_555
H17 C26 1_555 1_555
C27 C17 1_555 1_555
H18 C27 1_555 1_555
H19 C27 1_555 1_555
H20 C27 1_555 1_555
C28 C24 1_555 1_555
H21 C28 1_555 1_555
C29 C17 1_555 1_555
H22 C29 1_555 1_555
H23 C29 1_555 1_555
H24 C29 1_555 1_555
C7 C9 1_555 1_555
C10 C12 1_555 1_555
C16 C21 1_555 1_555
C23 C25 1_555 1_555
C26 C28 1_555 1_555

#END
