
#######################################################################
#
#                 Cambridge Crystallographic Data Centre
#                                CCDC 
#
#######################################################################
#
# If this CIF has been generated from an entry in the Cambridge 
# Structural Database, then it will include bibliographic, chemical, 
# crystal, experimental, refinement or atomic coordinate data resulting 
# from the CCDC's data processing and validation procedures.
#
#######################################################################

data_HINGOD
_chemical_formula_moiety         'C36 H37 O4 P1 S1'
_chemical_name_systematic        
'(E)-(1-(2-cyclopropyl-3-p-tosylprop-1-en-1-yl)-2-(4-methoxyphenyl)-2-methylcyclopropyl)diphenylphosphine oxide'
_symmetry_cell_setting           monoclinic
_symmetry_space_group_name_H-M   'P 21/c'
_symmetry_Int_Tables_number      14
_space_group_name_Hall           '-P 2ybc'
loop_
_symmetry_equiv_pos_site_id
_symmetry_equiv_pos_as_xyz
1 x,y,z
2 -x,1/2+y,1/2-z
3 -x,-y,-z
4 x,1/2-y,1/2+z
_cell_length_a                   8.7333(10)
_cell_length_b                   32.515(5)
_cell_length_c                   11.3552(17)
_cell_angle_alpha                90
_cell_angle_beta                 92.555(4)
_cell_angle_gamma                90
_cell_volume                     3221.25
_exptl_crystal_colour            colorless
_exptl_crystal_description       needle
_cell_formula_units_Z            4
loop_
_atom_site_label
_atom_site_type_symbol
_atom_site_fract_x
_atom_site_fract_y
_atom_site_fract_z
C1 C 0.5025(3) 0.29118(7) 0.4052(2)
C2 C 0.5121(2) 0.32665(7) 0.31341(18)
C3 C 0.4644(3) 0.28309(7) 0.2785(2)
H1 H 0.3576 0.2785 0.2552
H2 H 0.5364 0.2668 0.2355
C4 C 0.3870(2) 0.35818(6) 0.31511(19)
H3 H 0.3715 0.3709 0.3869
C5 C 0.2964(2) 0.36965(7) 0.2244(2)
C6 C 0.1704(3) 0.40057(7) 0.2442(2)
H4 H 0.1224 0.3937 0.3171
H5 H 0.0930 0.3980 0.1807
C7 C 0.6471(3) 0.27123(9) 0.4604(3)
H6 H 0.6222 0.2446 0.4907
H7 H 0.6879 0.2882 0.5234
H8 H 0.7221 0.2683 0.4016
C8 C 0.3801(3) 0.29487(7) 0.4931(2)
C9 C 0.2442(3) 0.27371(7) 0.4850(2)
H9 H 0.2220 0.2577 0.4185
C10 C 0.1386(3) 0.27540(8) 0.5729(2)
H10 H 0.0472 0.2608 0.5650
C11 C 0.1702(3) 0.29880(7) 0.6712(2)
C12 C 0.3061(3) 0.32047(8) 0.6805(2)
H11 H 0.3284 0.3364 0.7472
C13 C 0.4079(3) 0.31881(7) 0.5933(2)
H12 H 0.4980 0.3340 0.6009
C14 C -0.0651(4) 0.28227(12) 0.7606(3)
H13 H -0.1269 0.2918 0.6941
H14 H -0.1167 0.2878 0.8318
H15 H -0.0484 0.2532 0.7534
C15 C 0.7641(2) 0.37367(7) 0.4077(2)
C16 C 0.6783(3) 0.40459(8) 0.4593(2)
H16 H 0.5846 0.4124 0.4241
C17 C 0.7309(3) 0.42384(9) 0.5621(2)
H17 H 0.6721 0.4442 0.5957
C18 C 0.8686(4) 0.41299(10) 0.6144(3)
H18 H 0.9032 0.4259 0.6836
C19 C 0.9559(3) 0.38322(10) 0.5653(3)
H19 H 1.0501 0.3761 0.6010
C20 C 0.9051(3) 0.36348(8) 0.4625(3)
H20 H 0.9656 0.3433 0.4299
C21 C 0.6918(3) 0.37789(8) 0.1528(2)
C22 C 0.6435(3) 0.41833(8) 0.1526(2)
H21 H 0.6100 0.4300 0.2216
C23 C 0.6446(3) 0.44176(9) 0.0498(3)
H22 H 0.6121 0.4690 0.0503
C24 C 0.6937(3) 0.42455(13) -0.0517(3)
H23 H 0.6938 0.4401 -0.1205
C25 C 0.7423(4) 0.38489(13) -0.0526(3)
H24 H 0.7763 0.3735 -0.1218
C26 C 0.7417(3) 0.36145(10) 0.0485(3)
H25 H 0.7750 0.3343 0.0467
C27 C 0.315(3) 0.3537(8) 0.106(2)
H26 H 0.3951 0.3326 0.1057
C28 C 0.3100(9) 0.37720(17) -0.0061(4)
H27 H 0.3880 0.3714 -0.0619
H28 H 0.2781 0.4057 -0.0034
C29 C 0.1920(8) 0.3452(3) 0.0116(6)
H29 H 0.1987 0.3199 -0.0328
H30 H 0.0886 0.3543 0.0258
C30 C 0.0596(2) 0.48015(7) 0.25854(19)
C31 C -0.0263(3) 0.47833(7) 0.3580(2)
H31 H 0.0064 0.4623 0.4221
C32 C -0.1603(3) 0.50045(8) 0.3613(2)
H32 H -0.2171 0.4995 0.4286
C33 C -0.2121(3) 0.52401(8) 0.2670(3)
C34 C -0.1260(3) 0.52496(9) 0.1692(2)
H33 H -0.1601 0.5406 0.1046
C35 C 0.0095(3) 0.50353(8) 0.1636(2)
H34 H 0.0664 0.5049 0.0964
C36 C -0.3603(3) 0.54750(12) 0.2734(3)
H35 H -0.3791 0.5626 0.2016
H36 H -0.3532 0.5663 0.3387
H37 H -0.4429 0.5286 0.2840
O1 O 0.0762(2) 0.30273(6) 0.76415(16)
O2 O 0.8096(2) 0.31033(5) 0.25623(16)
O3 O 0.3204(2) 0.45813(6) 0.35998(18)
O4 O 0.3018(2) 0.46378(5) 0.14440(18)
P1 P 0.70237(7) 0.34420(2) 0.27928(6)
S1 S 0.23234(7) 0.45266(2) 0.25196(6)
C37? C 0.297(4) 0.3508(13) 0.102(4)
H38? H 0.3890 0.3359 0.0797
C38? C 0.2008(15) 0.3727(3) 0.0044(7)
H39? H 0.2435 0.3715 -0.0618
H40? H 0.1549 0.3952 0.0200
C39? C 0.1475(13) 0.3353(3) 0.0589(9)
H41? H 0.1462 0.3104 0.0117
H42? H 0.0630 0.3376 0.1111
loop_
_geom_bond_atom_site_label_1
_geom_bond_atom_site_label_2
_geom_bond_site_symmetry_1
_geom_bond_site_symmetry_2
C1 C2 1_555 1_555
C2 C3 1_555 1_555
C3 C1 1_555 1_555
H1 C3 1_555 1_555
H2 C3 1_555 1_555
C4 C2 1_555 1_555
H3 C4 1_555 1_555
C5 C4 1_555 1_555
C6 C5 1_555 1_555
H4 C6 1_555 1_555
H5 C6 1_555 1_555
C7 C1 1_555 1_555
H6 C7 1_555 1_555
H7 C7 1_555 1_555
H8 C7 1_555 1_555
C8 C1 1_555 1_555
C9 C8 1_555 1_555
H9 C9 1_555 1_555
C10 C9 1_555 1_555
H10 C10 1_555 1_555
C11 C10 1_555 1_555
C12 C11 1_555 1_555
H11 C12 1_555 1_555
C13 C8 1_555 1_555
H12 C13 1_555 1_555
C14 H13 1_555 1_555
H14 C14 1_555 1_555
H15 C14 1_555 1_555
C15 C16 1_555 1_555
C16 H16 1_555 1_555
C17 C16 1_555 1_555
H17 C17 1_555 1_555
C18 C17 1_555 1_555
H18 C18 1_555 1_555
C19 C18 1_555 1_555
H19 C19 1_555 1_555
C20 C15 1_555 1_555
H20 C20 1_555 1_555
C21 C22 1_555 1_555
C22 H21 1_555 1_555
C23 C22 1_555 1_555
H22 C23 1_555 1_555
C24 C23 1_555 1_555
H23 C24 1_555 1_555
C25 C24 1_555 1_555
H24 C25 1_555 1_555
C26 C21 1_555 1_555
H25 C26 1_555 1_555
C27 C5 1_555 1_555
H26 C27 1_555 1_555
C28 C27 1_555 1_555
H27 C28 1_555 1_555
H28 C28 1_555 1_555
C29 C27 1_555 1_555
H29 C29 1_555 1_555
H30 C29 1_555 1_555
C30 C31 1_555 1_555
C31 H31 1_555 1_555
C32 C31 1_555 1_555
H32 C32 1_555 1_555
C33 C32 1_555 1_555
C34 C33 1_555 1_555
H33 C34 1_555 1_555
C35 C30 1_555 1_555
H34 C35 1_555 1_555
C36 C33 1_555 1_555
H35 C36 1_555 1_555
H36 C36 1_555 1_555
H37 C36 1_555 1_555
O1 C11 1_555 1_555
O2 P1 1_555 1_555
O3 S1 1_555 1_555
O4 S1 1_555 1_555
P1 C2 1_555 1_555
S1 C6 1_555 1_555
C12 C13 1_555 1_555
C14 O1 1_555 1_555
C15 P1 1_555 1_555
C19 C20 1_555 1_555
C21 P1 1_555 1_555
C25 C26 1_555 1_555
C28 C29 1_555 1_555
C30 S1 1_555 1_555
C34 C35 1_555 1_555

#END
