
#######################################################################
#
#                 Cambridge Crystallographic Data Centre
#                                CCDC 
#
#######################################################################
#
# If this CIF has been generated from an entry in the Cambridge 
# Structural Database, then it will include bibliographic, chemical, 
# crystal, experimental, refinement or atomic coordinate data resulting 
# from the CCDC's data processing and validation procedures.
#
#######################################################################

data_HINHEU
_chemical_formula_moiety         'C40 H39 O3 P1 S1'
_chemical_name_systematic        
'(E)-(2,2-dibenzyl-1-(2-methyl-3-p-tosylprop-1-en-1-yl)cyclopropyl)diphenylphosphine oxide'
_symmetry_cell_setting           monoclinic
_symmetry_space_group_name_H-M   'P 21/c'
_symmetry_Int_Tables_number      14
_space_group_name_Hall           '-P 2ybc'
loop_
_symmetry_equiv_pos_site_id
_symmetry_equiv_pos_as_xyz
1 x,y,z
2 -x,1/2+y,1/2-z
3 -x,-y,-z
4 x,1/2-y,1/2+z
_cell_length_a                   10.9576(5)
_cell_length_b                   24.0001(11)
_cell_length_c                   13.0509(6)
_cell_angle_alpha                90
_cell_angle_beta                 94.036(2)
_cell_angle_gamma                90
_cell_volume                     3423.66
_exptl_crystal_colour            colorless
_exptl_crystal_description       needle
_cell_formula_units_Z            4
loop_
_atom_site_label
_atom_site_type_symbol
_atom_site_fract_x
_atom_site_fract_y
_atom_site_fract_z
C1 C 0.77768(17) 0.61866(7) 0.38234(13)
C2 C 0.66107(16) 0.65272(7) 0.40042(13)
C3 C 0.65591(17) 0.59941(8) 0.33706(14)
H1 H 0.6205 0.5667 0.3669
H2 H 0.6395 0.6029 0.2633
C4 C 0.61760(17) 0.65148(7) 0.50670(13)
H3 H 0.6706 0.6663 0.5584
C5 C 0.51230(17) 0.63168(7) 0.53556(13)
C6 C 0.49138(17) 0.63168(8) 0.64831(13)
H4 H 0.4048 0.6363 0.6573
H5 H 0.5348 0.6627 0.6817
C7 C 0.41086(19) 0.60788(10) 0.46589(16)
H6 H 0.4298 0.6125 0.3957
H7 H 0.3359 0.6269 0.4770
H8 H 0.4019 0.5689 0.4804
C8 C 0.83189(17) 0.58399(7) 0.47208(14)
H9 H 0.7667 0.5754 0.5162
H10 H 0.8596 0.5489 0.4449
C9 C 0.93620(16) 0.60896(8) 0.53767(14)
C10 C 0.95187(19) 0.66545(9) 0.55124(15)
H11 H 0.8953 0.6899 0.5193
C11 C 1.0497(2) 0.68660(11) 0.61129(18)
H12 H 1.0586 0.7249 0.6192
C12 C 1.1337(2) 0.65146(14) 0.6592(2)
H13 H 1.1998 0.6657 0.6995
C13 C 1.1196(2) 0.59529(14) 0.6474(2)
H14 H 1.1762 0.5711 0.6799
C14 C 1.0218(2) 0.57427(10) 0.58741(17)
H15 H 1.0133 0.5359 0.5802
C15 C 0.86966(18) 0.64001(8) 0.30900(14)
H16 H 0.8261 0.6593 0.2523
H17 H 0.9240 0.6666 0.3449
C16 C 0.94472(18) 0.59360(8) 0.26724(15)
C17 C 0.8987(2) 0.56014(9) 0.18808(17)
H18 H 0.8205 0.5668 0.1580
C18 C 0.9680(2) 0.51643(10) 0.1526(2)
H19 H 0.9363 0.4943 0.0986
C19 C 1.0830(2) 0.50596(11) 0.1972(2)
H20 H 1.1287 0.4765 0.1741
C20 C 1.1297(2) 0.53867(11) 0.2749(2)
H21 H 1.2075 0.5316 0.3053
C21 C 1.06189(19) 0.58243(10) 0.30915(16)
H22 H 1.0956 0.6050 0.3617
C22 C 0.73307(17) 0.76854(7) 0.37732(14)
C23 C 0.75487(19) 0.78112(8) 0.48162(14)
H23 H 0.7108 0.7630 0.5300
C24 C 0.8411(2) 0.82013(9) 0.51261(17)
H24 H 0.8558 0.8279 0.5822
C25 C 0.9061(2) 0.84794(10) 0.4418(2)
H25 H 0.9642 0.8744 0.4637
C26 C 0.8849(2) 0.83656(10) 0.3394(2)
H26 H 0.9281 0.8556 0.2916
C27 C 0.80004(19) 0.79707(8) 0.30687(16)
H27 H 0.7871 0.7893 0.2371
C28 C 0.47380(18) 0.73573(8) 0.35530(15)
C29 C 0.3824(2) 0.72171(11) 0.28192(19)
H28 H 0.4026 0.7066 0.2197
C30 C 0.2604(3) 0.72993(14) 0.2999(3)
H29 H 0.1992 0.7190 0.2509
C31 C 0.2299(3) 0.75397(14) 0.3894(3)
H30 H 0.1482 0.7597 0.4013
C32 C 0.3200(3) 0.76957(12) 0.4614(2)
H31 H 0.2993 0.7866 0.5218
C33 C 0.4410(2) 0.76026(10) 0.44529(19)
H32 H 0.5014 0.7705 0.4954
C34 C 0.49747(19) 0.57101(8) 0.83210(14)
C35 C 0.3882(2) 0.54734(11) 0.85519(18)
H33 H 0.3388 0.5295 0.8045
C36 C 0.3532(2) 0.55046(12) 0.95377(18)
H34 H 0.2795 0.5344 0.9691
C37 C 0.42360(19) 0.57661(9) 1.03085(16)
C38 C 0.5328(2) 0.59953(9) 1.00629(16)
H35 H 0.5822 0.6174 1.0571
C39 C 0.57024(19) 0.59661(9) 0.90820(15)
H36 H 0.6449 0.6120 0.8933
C40 C 0.3821(3) 0.57970(13) 1.13805(18)
H37 H 0.4365 0.6034 1.1791
H38 H 0.3828 0.5430 1.1675
H39 H 0.3007 0.5946 1.1360
O1 O 0.63483(14) 0.70892(6) 0.21478(9)
O2 O 0.67498(16) 0.56871(8) 0.70983(12)
O3 O 0.4791(2) 0.52400(7) 0.65388(13)
P1 P 0.62761(5) 0.71613(2) 0.32712(3)
S1 S 0.54369(6) 0.56806(2) 0.70572(4)
loop_
_geom_bond_atom_site_label_1
_geom_bond_atom_site_label_2
_geom_bond_site_symmetry_1
_geom_bond_site_symmetry_2
C1 C2 1_555 1_555
C2 C3 1_555 1_555
C3 C1 1_555 1_555
H1 C3 1_555 1_555
H2 C3 1_555 1_555
C4 C2 1_555 1_555
H3 C4 1_555 1_555
C5 C4 1_555 1_555
C6 C5 1_555 1_555
H4 C6 1_555 1_555
H5 C6 1_555 1_555
C7 C5 1_555 1_555
H6 C7 1_555 1_555
H7 C7 1_555 1_555
H8 C7 1_555 1_555
C8 C1 1_555 1_555
H9 C8 1_555 1_555
H10 C8 1_555 1_555
C9 C8 1_555 1_555
C10 C9 1_555 1_555
H11 C10 1_555 1_555
C11 C10 1_555 1_555
H12 C11 1_555 1_555
C12 C11 1_555 1_555
H13 C12 1_555 1_555
C13 C12 1_555 1_555
H14 C13 1_555 1_555
C14 C9 1_555 1_555
H15 C14 1_555 1_555
C15 C1 1_555 1_555
H16 C15 1_555 1_555
H17 C15 1_555 1_555
C16 C15 1_555 1_555
C17 C16 1_555 1_555
H18 C17 1_555 1_555
C18 C17 1_555 1_555
H19 C18 1_555 1_555
C19 C18 1_555 1_555
H20 C19 1_555 1_555
C20 C19 1_555 1_555
H21 C20 1_555 1_555
C21 C16 1_555 1_555
H22 C21 1_555 1_555
C22 C23 1_555 1_555
C23 H23 1_555 1_555
C24 C23 1_555 1_555
H24 C24 1_555 1_555
C25 C24 1_555 1_555
H25 C25 1_555 1_555
C26 C25 1_555 1_555
H26 C26 1_555 1_555
C27 C22 1_555 1_555
H27 C27 1_555 1_555
C28 C29 1_555 1_555
C29 H28 1_555 1_555
C30 C29 1_555 1_555
H29 C30 1_555 1_555
C31 C30 1_555 1_555
H30 C31 1_555 1_555
C32 C31 1_555 1_555
H31 C32 1_555 1_555
C33 C28 1_555 1_555
H32 C33 1_555 1_555
C34 C35 1_555 1_555
C35 H33 1_555 1_555
C36 C35 1_555 1_555
H34 C36 1_555 1_555
C37 C36 1_555 1_555
C38 C37 1_555 1_555
H35 C38 1_555 1_555
C39 C34 1_555 1_555
H36 C39 1_555 1_555
C40 C37 1_555 1_555
H37 C40 1_555 1_555
H38 C40 1_555 1_555
H39 C40 1_555 1_555
O1 P1 1_555 1_555
O2 S1 1_555 1_555
O3 S1 1_555 1_555
P1 C2 1_555 1_555
S1 C6 1_555 1_555
C13 C14 1_555 1_555
C20 C21 1_555 1_555
C22 P1 1_555 1_555
C26 C27 1_555 1_555
C28 P1 1_555 1_555
C32 C33 1_555 1_555
C34 S1 1_555 1_555
C38 C39 1_555 1_555

#END
