
#######################################################################
#
#                 Cambridge Crystallographic Data Centre
#                                CCDC 
#
#######################################################################
#
# If this CIF has been generated from an entry in the Cambridge 
# Structural Database, then it will include bibliographic, chemical, 
# crystal, experimental, refinement or atomic coordinate data resulting 
# from the CCDC's data processing and validation procedures.
#
#######################################################################

data_HINHAQ
_chemical_formula_moiety         'C37 H35 O3 P1 S1'
_chemical_name_systematic        
'(E)-(2-methyl-1-(2-methyl-3-p-tosylprop-1-en-1-yl)-2-(naphthalen-2-yl)cyclopropyl)diphenylphosphine oxide'
_symmetry_cell_setting           monoclinic
_symmetry_space_group_name_H-M   'P 21/c'
_symmetry_Int_Tables_number      14
_space_group_name_Hall           '-P 2ybc'
loop_
_symmetry_equiv_pos_site_id
_symmetry_equiv_pos_as_xyz
1 x,y,z
2 -x,1/2+y,1/2-z
3 -x,-y,-z
4 x,1/2-y,1/2+z
_cell_length_a                   12.3705(6)
_cell_length_b                   13.8788(8)
_cell_length_c                   19.1238(10)
_cell_angle_alpha                90
_cell_angle_beta                 106.7020(10)
_cell_angle_gamma                90
_cell_volume                     3144.81
_exptl_crystal_colour            colorless
_exptl_crystal_description       Block
_cell_formula_units_Z            4
loop_
_atom_site_label
_atom_site_type_symbol
_atom_site_fract_x
_atom_site_fract_y
_atom_site_fract_z
C1 C 0.49775(14) 0.23544(12) 0.63762(9)
C2 C 0.43792(15) 0.15364(13) 0.58594(10)
C3 C 0.39265(16) 0.18552(14) 0.64672(10)
H1 H 0.4023 0.1424 0.6879
H2 H 0.3226 0.2218 0.6339
C4 C 0.37468(16) 0.18200(13) 0.50935(10)
C5 C 0.25966(17) 0.18030(14) 0.48559(11)
H3 H 0.2198 0.1629 0.5181
C6 C 0.19922(18) 0.20420(15) 0.41305(12)
C7 C 0.0794(2) 0.20350(18) 0.38782(16)
H4 H 0.0381 0.1862 0.4195
C8 C 0.0246(3) 0.2279(2) 0.3177(2)
H5 H -0.0539 0.2269 0.3018
C9 C 0.0846(3) 0.2543(2) 0.26959(18)
H6 H 0.0459 0.2713 0.2219
C10 C 0.1988(3) 0.25571(19) 0.29114(14)
H7 H 0.2376 0.2733 0.2581
C11 C 0.2602(2) 0.23048(16) 0.36385(12)
C12 C 0.3787(2) 0.23076(17) 0.38885(12)
H8 H 0.4199 0.2474 0.3569
C13 C 0.43409(18) 0.20705(15) 0.45925(11)
H9 H 0.5126 0.2074 0.4745
C14 C 0.49115(19) 0.05458(14) 0.59070(12)
H10 H 0.5287 0.0396 0.6408
H11 H 0.5449 0.0539 0.5631
H12 H 0.4336 0.0075 0.5712
C15 C 0.48761(13) 0.33642(12) 0.60980(8)
H13 H 0.5071 0.3482 0.5671
C16 C 0.45296(13) 0.41068(12) 0.64131(8)
C17 C 0.41649(17) 0.40428(14) 0.70971(10)
H14 H 0.3396 0.4253 0.6995
H15 H 0.4640 0.4446 0.7467
H16 H 0.4225 0.3388 0.7265
C18 C 0.45443(14) 0.51096(12) 0.61116(9)
H17 H 0.5237 0.5192 0.5977
H18 H 0.4556 0.5570 0.6495
C19 C 0.21786(14) 0.50511(13) 0.55924(9)
C20 C 0.16822(16) 0.57048(15) 0.59449(11)
H19 H 0.1971 0.6325 0.6042
C21 C 0.07504(17) 0.54248(17) 0.61519(11)
H20 H 0.0404 0.5869 0.6382
C22 C 0.03236(16) 0.45160(17) 0.60291(11)
C23 C 0.08287(18) 0.38742(17) 0.56745(13)
H21 H 0.0543 0.3252 0.5585
C24 C 0.17520(17) 0.41340(15) 0.54486(12)
H22 H 0.2080 0.3696 0.5203
C25 C -0.06873(19) 0.4235(2) 0.62743(15)
H23 H -0.1020 0.3661 0.6023
H24 H -0.1231 0.4748 0.6165
H25 H -0.0454 0.4118 0.6791
C26 C 0.68610(10) 0.31706(8) 0.75418(6)
C27 C 0.72498(11) 0.39157(9) 0.71924(6)
H26 H 0.7196 0.3867 0.6699
C28 C 0.77192(12) 0.47342(8) 0.75811(10)
H27 H 0.7979 0.5233 0.7347
C29 C 0.77998(13) 0.48075(10) 0.83193(9)
H28 H 0.8114 0.5355 0.8579
C30 C 0.74109(14) 0.40623(12) 0.86687(6)
H29 H 0.7465 0.4111 0.9163
C31 C 0.69415(12) 0.32439(10) 0.82799(6)
H30 H 0.6681 0.2745 0.8514
C32 C 0.72764(15) 0.16177(13) 0.66465(9)
C33 C 0.7907(2) 0.08097(15) 0.69398(12)
H31 H 0.7814 0.0522 0.7358
C34 C 0.8671(2) 0.04344(19) 0.66126(16)
H32 H 0.9090 -0.0109 0.6808
C35 C 0.8816(2) 0.0860(2) 0.59983(17)
H33 H 0.9334 0.0605 0.5780
C36 C 0.8203(2) 0.16562(19) 0.57045(13)
H34 H 0.8307 0.1943 0.5289
C37 C 0.74295(17) 0.20339(15) 0.60240(11)
H35 H 0.7008 0.2572 0.5820
O1 O 0.34435(12) 0.47859(14) 0.47429(7)
O2 O 0.33734(12) 0.64093(11) 0.52506(9)
O3 O 0.60832(13) 0.13634(10) 0.76285(7)
P1 P 0.62687(4) 0.20608(3) 0.70901(2)
S1 S 0.33871(4) 0.53831(4) 0.53429(3)
loop_
_geom_bond_atom_site_label_1
_geom_bond_atom_site_label_2
_geom_bond_site_symmetry_1
_geom_bond_site_symmetry_2
C1 C2 1_555 1_555
C2 C3 1_555 1_555
C3 C1 1_555 1_555
H1 C3 1_555 1_555
H2 C3 1_555 1_555
C4 C2 1_555 1_555
C5 C4 1_555 1_555
H3 C5 1_555 1_555
C6 C5 1_555 1_555
C7 C6 1_555 1_555
H4 C7 1_555 1_555
C8 C7 1_555 1_555
H5 C8 1_555 1_555
C9 C8 1_555 1_555
H6 C9 1_555 1_555
C10 C9 1_555 1_555
H7 C10 1_555 1_555
C11 C6 1_555 1_555
C12 C11 1_555 1_555
H8 C12 1_555 1_555
C13 C4 1_555 1_555
H9 C13 1_555 1_555
C14 C2 1_555 1_555
H10 C14 1_555 1_555
H11 C14 1_555 1_555
H12 C14 1_555 1_555
C15 C1 1_555 1_555
H13 C15 1_555 1_555
C16 C15 1_555 1_555
C17 C16 1_555 1_555
H14 C17 1_555 1_555
H15 C17 1_555 1_555
H16 C17 1_555 1_555
C18 C16 1_555 1_555
H17 C18 1_555 1_555
H18 C18 1_555 1_555
C19 C20 1_555 1_555
C20 H19 1_555 1_555
C21 C20 1_555 1_555
H20 C21 1_555 1_555
C22 C21 1_555 1_555
C23 C22 1_555 1_555
H21 C23 1_555 1_555
C24 C19 1_555 1_555
H22 C24 1_555 1_555
C25 C22 1_555 1_555
H23 C25 1_555 1_555
H24 C25 1_555 1_555
H25 C25 1_555 1_555
C26 C27 1_555 1_555
C27 H26 1_555 1_555
C28 C27 1_555 1_555
H27 C28 1_555 1_555
C29 C28 1_555 1_555
H28 C29 1_555 1_555
C30 C29 1_555 1_555
H29 C30 1_555 1_555
C31 C26 1_555 1_555
H30 C31 1_555 1_555
C32 C33 1_555 1_555
C33 H31 1_555 1_555
C34 C33 1_555 1_555
H32 C34 1_555 1_555
C35 C34 1_555 1_555
H33 C35 1_555 1_555
C36 C35 1_555 1_555
H34 C36 1_555 1_555
C37 C32 1_555 1_555
H35 C37 1_555 1_555
O1 S1 1_555 1_555
O2 S1 1_555 1_555
O3 P1 1_555 1_555
P1 C1 1_555 1_555
S1 C18 1_555 1_555
C10 C11 1_555 1_555
C12 C13 1_555 1_555
C19 S1 1_555 1_555
C23 C24 1_555 1_555
C26 P1 1_555 1_555
C30 C31 1_555 1_555
C32 P1 1_555 1_555
C36 C37 1_555 1_555

#END
