
#######################################################################
#
#                 Cambridge Crystallographic Data Centre
#                                CCDC 
#
#######################################################################
#
# If this CIF has been generated from an entry in the Cambridge 
# Structural Database, then it will include bibliographic, chemical, 
# crystal, experimental, refinement or atomic coordinate data resulting 
# from the CCDC's data processing and validation procedures.
#
#######################################################################

data_HINKIA
_chemical_formula_moiety         'C12 H8 F1 I1 S1'
_chemical_name_systematic        '4-Fluorophenyl 2-iodophenyl sulfide'
_symmetry_cell_setting           monoclinic
_symmetry_space_group_name_H-M   'P 21/c'
_symmetry_Int_Tables_number      14
_space_group_name_Hall           '-P 2ybc'
loop_
_symmetry_equiv_pos_site_id
_symmetry_equiv_pos_as_xyz
1 x,y,z
2 -x,1/2+y,1/2-z
3 -x,-y,-z
4 x,1/2-y,1/2+z
_cell_length_a                   8.1312(16)
_cell_length_b                   7.7076(15)
_cell_length_c                   18.995(4)
_cell_angle_alpha                90
_cell_angle_beta                 98.11(3)
_cell_angle_gamma                90
_cell_volume                     1178.55
_exptl_crystal_colour            colorless
_exptl_crystal_description       plate
_cell_formula_units_Z            4
loop_
_atom_site_label
_atom_site_type_symbol
_atom_site_fract_x
_atom_site_fract_y
_atom_site_fract_z
I1 I 0.11737(5) -0.19562(5) 0.24431(2)
S1 S 0.12679(16) 0.11149(19) 0.12058(8)
F1 F 0.2852(6) 0.6839(5) -0.0614(2)
C1 C 0.4702(7) -0.2229(8) 0.2152(3)
H1 H 0.4731 -0.3097 0.2494
C2 C 0.6100(7) -0.1865(8) 0.1849(4)
H2 H 0.7086 -0.2454 0.1997
C3 C 0.6032(7) -0.0625(8) 0.1324(4)
H3 H 0.6971 -0.0393 0.1112
C4 C 0.4572(7) 0.0282(7) 0.1109(3)
H4 H 0.4535 0.1105 0.0749
C5 C 0.3162(6) -0.0031(6) 0.1429(2)
C6 C 0.3247(6) -0.1303(6) 0.1951(2)
C7 C 0.1617(8) 0.4139(8) -0.0501(3)
H5 H 0.1239 0.4131 -0.0987
C8 C 0.1266(7) 0.2774(7) -0.0070(3)
H6 H 0.0654 0.1830 -0.0267
C9 C 0.1826(7) 0.2815(7) 0.0654(3)
C10 C 0.2731(8) 0.4225(7) 0.0941(3)
H7 H 0.3094 0.4262 0.1428
C11 C 0.3105(8) 0.5577(7) 0.0516(3)
H8 H 0.3730 0.6520 0.0707
C12 C 0.2527(8) 0.5487(8) -0.0196(3)
loop_
_geom_bond_atom_site_label_1
_geom_bond_atom_site_label_2
_geom_bond_site_symmetry_1
_geom_bond_site_symmetry_2
I1 C6 1_555 1_555
S1 C5 1_555 1_555
F1 C12 1_555 1_555
C1 H1 1_555 1_555
C2 C1 1_555 1_555
H2 C2 1_555 1_555
C3 C2 1_555 1_555
H3 C3 1_555 1_555
C4 C3 1_555 1_555
H4 C4 1_555 1_555
C5 C4 1_555 1_555
C6 C1 1_555 1_555
C7 H5 1_555 1_555
C8 C7 1_555 1_555
H6 C8 1_555 1_555
C9 S1 1_555 1_555
C10 C9 1_555 1_555
H7 C10 1_555 1_555
C11 C10 1_555 1_555
H8 C11 1_555 1_555
C12 C7 1_555 1_555
C5 C6 1_555 1_555
C8 C9 1_555 1_555
C11 C12 1_555 1_555

#END
