
#######################################################################
#
#                 Cambridge Crystallographic Data Centre
#                                CCDC 
#
#######################################################################
#
# If this CIF has been generated from an entry in the Cambridge 
# Structural Database, then it will include bibliographic, chemical, 
# crystal, experimental, refinement or atomic coordinate data resulting 
# from the CCDC's data processing and validation procedures.
#
#######################################################################

data_HINTOQ
_chemical_formula_moiety         'C7 H8 N4 O2,C4 H5 N1 O4 S1'
_chemical_name_systematic        
'1,3-dimethyl-3,7-dihydro-1H-purine-2,6-dione 4-hydroxy-6-methyl-2H-1,2,3-oxathiazine-2,2-dione'
_symmetry_cell_setting           triclinic
_symmetry_space_group_name_H-M   'P -1'
_symmetry_Int_Tables_number      2
_space_group_name_Hall           '-P 1'
loop_
_symmetry_equiv_pos_site_id
_symmetry_equiv_pos_as_xyz
1 x,y,z
2 -x,-y,-z
_cell_length_a                   8.9149(4)
_cell_length_b                   11.5812(6)
_cell_length_c                   14.4631(7)
_cell_angle_alpha                95.257(4)
_cell_angle_beta                 97.047(4)
_cell_angle_gamma                94.241(4)
_cell_volume                     1470.24
_exptl_crystal_colour            colorless
_exptl_crystal_description       plate
_cell_formula_units_Z            4
loop_
_atom_site_label
_atom_site_type_symbol
_atom_site_fract_x
_atom_site_fract_y
_atom_site_fract_z
S1 S 0.20853(14) -0.01953(8) 0.12732(6)
O1 O 0.2214(5) -0.0132(3) 0.0188(2)
O2 O 0.3524(4) -0.0281(4) 0.1748(2)
O3 O 0.0981(5) -0.1155(3) 0.1244(3)
O4 O 0.1170(3) 0.2866(2) 0.15616(18)
H1 H 0.080(5) 0.286(5) 0.208(2)
N1 N 0.1371(4) 0.0962(3) 0.1628(2)
C1 C 0.1592(3) 0.1874(3) 0.1202(2)
C2 C 0.2187(5) 0.1878(3) 0.0339(3)
H2 H 0.238178 0.259594 0.010345
C3 C 0.2479(4) 0.0926(3) -0.0148(2)
C4 C 0.2918(6) 0.0752(4) -0.1112(3)
H3 H 0.401400 0.076980 -0.107376
H4 H 0.256165 0.136719 -0.147180
H5 H 0.246493 0.000447 -0.141673
S2 S 0.67679(8) 0.54745(6) 0.11385(5)
O5 O 0.7065(3) 0.51184(18) 0.00728(14)
O6 O 0.8215(3) 0.5835(2) 0.16484(16)
O7 O 0.5692(3) 0.63101(19) 0.10596(16)
O8 O 0.6182(3) 0.23917(19) 0.15801(16)
H6 H 0.567(6) 0.256(6) 0.203(3)
N2 N 0.6058(3) 0.4317(2) 0.14891(16)
C5 C 0.6535(3) 0.3323(3) 0.1185(2)
C6 C 0.7388(3) 0.3180(3) 0.0405(2)
H7 H 0.781183 0.247291 0.027466
C7 C 0.7584(3) 0.4041(3) -0.0135(2)
C8 C 0.8258(4) 0.4015(4) -0.1027(2)
H8 H 0.882140 0.475717 -0.105796
H9 H 0.745645 0.387240 -0.155185
H10 H 0.893742 0.339945 -0.105314
O9 O 0.3226(2) 0.39418(17) 0.59452(14)
O10 O 0.6247(2) 0.09324(18) 0.56691(14)
N3 N 0.4921(2) 0.3033(2) 0.31028(16)
N4 N 0.3605(2) 0.4241(2) 0.39042(16)
H11 H 0.306(4) 0.482(3) 0.399(3)
N5 N 0.4759(2) 0.2449(2) 0.57995(15)
N6 N 0.5674(2) 0.18588(19) 0.43685(16)
C9 C 0.4093(3) 0.3950(3) 0.3090(2)
H12 H 0.387800 0.434790 0.255784
C10 C 0.4965(3) 0.2753(2) 0.39936(18)
C11 C 0.4169(3) 0.3483(2) 0.45084(19)
C12 C 0.3981(3) 0.3349(2) 0.54535(19)
C13 C 0.5610(3) 0.1690(2) 0.52976(19)
C14 C 0.4714(4) 0.2281(3) 0.6792(2)
H13 H 0.372533 0.192141 0.686899
H14 H 0.489599 0.302870 0.716559
H15 H 0.549065 0.178135 0.699447
C15 C 0.6431(3) 0.1045(3) 0.3777(2)
H16 H 0.567318 0.053777 0.336017
H17 H 0.705019 0.057991 0.417000
H18 H 0.706994 0.147986 0.340935
O11 O 0.8115(2) 0.39201(17) 0.59861(14)
O12 O 1.1210(2) 0.09617(18) 0.57661(14)
N7 N 1.0036(2) 0.3104(2) 0.31990(16)
N8 N 0.8629(2) 0.4270(2) 0.39685(16)
H19 H 0.804(3) 0.482(2) 0.405(2)
N9 N 0.9686(2) 0.24596(19) 0.58689(15)
N10 N 1.0709(2) 0.19063(19) 0.44677(15)
C16 C 0.9186(3) 0.4008(2) 0.31681(19)
H20 H 0.900182 0.441582 0.263830
C17 C 1.0009(3) 0.2793(2) 0.40789(18)
C18 C 0.9149(3) 0.3494(2) 0.45755(18)
C19 C 0.8913(3) 0.3347(2) 0.55122(19)
C20 C 1.0585(3) 0.1719(2) 0.53869(18)
C21 C 0.9556(3) 0.2246(3) 0.68448(19)
H21 H 0.859792 0.180406 0.687183
H22 H 0.960082 0.298410 0.722730
H23 H 1.038508 0.180965 0.707854
C22 C 1.1504(3) 0.1089(3) 0.3908(2)
H24 H 1.077202 0.050766 0.354432
H25 H 1.220853 0.070878 0.432027
H26 H 1.205783 0.150900 0.348799
loop_
_geom_bond_atom_site_label_1
_geom_bond_atom_site_label_2
_geom_bond_site_symmetry_1
_geom_bond_site_symmetry_2
S1 O1 1_555 1_555
O1 C3 1_555 1_555
O2 S1 1_555 1_555
O3 S1 1_555 1_555
O4 H1 1_555 1_555
N1 S1 1_555 1_555
C1 O4 1_555 1_555
C2 C1 1_555 1_555
H2 C2 1_555 1_555
C3 C2 1_555 1_555
C4 C3 1_555 1_555
H3 C4 1_555 1_555
H4 C4 1_555 1_555
H5 C4 1_555 1_555
S2 O5 1_555 1_555
O5 C7 1_555 1_555
O6 S2 1_555 1_555
O7 S2 1_555 1_555
O8 H6 1_555 1_555
N2 S2 1_555 1_555
C5 O8 1_555 1_555
C6 C5 1_555 1_555
H7 C6 1_555 1_555
C7 C6 1_555 1_555
C8 C7 1_555 1_555
H8 C8 1_555 1_555
H9 C8 1_555 1_555
H10 C8 1_555 1_555
O9 C12 1_555 1_555
O10 C13 1_555 1_555
N3 C9 1_555 1_555
N4 H11 1_555 1_555
N5 C12 1_555 1_555
N6 C10 1_555 1_555
C9 N4 1_555 1_555
H12 C9 1_555 1_555
C10 N3 1_555 1_555
C11 N4 1_555 1_555
C12 C11 1_555 1_555
C13 N5 1_555 1_555
C14 N5 1_555 1_555
H13 C14 1_555 1_555
H14 C14 1_555 1_555
H15 C14 1_555 1_555
C15 N6 1_555 1_555
H16 C15 1_555 1_555
H17 C15 1_555 1_555
H18 C15 1_555 1_555
O11 C19 1_555 1_555
O12 C20 1_555 1_555
N7 C16 1_555 1_555
N8 H19 1_555 1_555
N9 C19 1_555 1_555
N10 C17 1_555 1_555
C16 N8 1_555 1_555
H20 C16 1_555 1_555
C17 N7 1_555 1_555
C18 N8 1_555 1_555
C19 C18 1_555 1_555
C20 N9 1_555 1_555
C21 N9 1_555 1_555
H21 C21 1_555 1_555
H22 C21 1_555 1_555
H23 C21 1_555 1_555
C22 N10 1_555 1_555
H24 C22 1_555 1_555
H25 C22 1_555 1_555
H26 C22 1_555 1_555
N1 C1 1_555 1_555
N2 C5 1_555 1_555
N6 C13 1_555 1_555
C10 C11 1_555 1_555
N10 C20 1_555 1_555
C17 C18 1_555 1_555

#END
