
#######################################################################
#
#                 Cambridge Crystallographic Data Centre
#                                CCDC 
#
#######################################################################
#
# If this CIF has been generated from an entry in the Cambridge 
# Structural Database, then it will include bibliographic, chemical, 
# crystal, experimental, refinement or atomic coordinate data resulting 
# from the CCDC's data processing and validation procedures.
#
#######################################################################

data_HINXOT
_chemical_formula_moiety         'C30 H52 O4'
_chemical_name_systematic        
(3\b,12\b,20S,24S)-20,24-Epoxydammarane-3,12,25-triol
_symmetry_cell_setting           orthorhombic
_symmetry_space_group_name_H-M   'P 21 21 21'
_symmetry_Int_Tables_number      19
_space_group_name_Hall           'P 2ac 2ab'
loop_
_symmetry_equiv_pos_site_id
_symmetry_equiv_pos_as_xyz
1 x,y,z
2 1/2-x,-y,1/2+z
3 -x,1/2+y,1/2-z
4 1/2+x,1/2-y,-z
_cell_length_a                   7.3882(14)
_cell_length_b                   13.919(3)
_cell_length_c                   27.256(5)
_cell_angle_alpha                90
_cell_angle_beta                 90
_cell_angle_gamma                90
_cell_volume                     2802.91
_exptl_crystal_colour            colorless
_exptl_crystal_description       block
_cell_formula_units_Z            4
loop_
_atom_site_label
_atom_site_type_symbol
_atom_site_fract_x
_atom_site_fract_y
_atom_site_fract_z
C1 C 0.5507(4) 0.3326(2) -0.00817(8)
H1 H 0.5494 0.3693 -0.0380
H2 H 0.4326 0.3059 -0.0025
H3 H 0.6374 0.2815 -0.0110
C2 C 0.4604(5) 0.4747(2) 0.04211(10)
H4 H 0.5032 0.5198 0.0661
H5 H 0.3500 0.4459 0.0535
H6 H 0.4385 0.5075 0.0117
C3 C 0.6019(3) 0.39707(18) 0.03434(8)
C4 C 0.6338(3) 0.33808(17) 0.08073(8)
H7 H 0.7314 0.2922 0.0740
C5 C 0.6821(4) 0.3926(2) 0.12691(9)
H8 H 0.8115 0.4034 0.1292
H9 H 0.6197 0.4538 0.1284
C6 C 0.6170(4) 0.3253(2) 0.16658(9)
H10 H 0.5906 0.3603 0.1965
H11 H 0.7077 0.2768 0.1736
C7 C 0.4463(4) 0.27943(18) 0.14598(8)
C8 C 0.2755(5) 0.3368(2) 0.15629(10)
H12 H 0.2984 0.4037 0.1505
H13 H 0.2400 0.3276 0.1898
H14 H 0.1802 0.3152 0.1350
C9 C 0.4176(3) 0.17401(17) 0.16121(8)
H15 H 0.2952 0.1544 0.1517
C10 C 0.5543(3) 0.10173(16) 0.13965(7)
H16 H 0.6665 0.1375 0.1338
C11 C 0.5956(3) 0.02912(16) 0.18124(7)
C12 C 0.6016(3) 0.09690(18) 0.22549(8)
H17 H 0.5916 0.0614 0.2560
H18 H 0.7130 0.1338 0.2259
C13 C 0.4376(4) 0.16224(19) 0.21785(8)
H19 H 0.4570 0.2241 0.2333
H20 H 0.3296 0.1333 0.2317
C14 C 0.4315(3) -0.03789(18) 0.19045(9)
H21 H 0.4430 -0.0673 0.2222
H22 H 0.4282 -0.0869 0.1657
H23 H 0.3218 -0.0010 0.1892
C15 C 0.7711(3) -0.02828(15) 0.16785(7)
C16 C 0.7321(3) -0.08352(16) 0.11915(7)
H24 H 0.6238 -0.1216 0.1264
C17 C 0.6711(3) -0.01436(17) 0.07838(8)
H25 H 0.7723 0.0265 0.0695
H26 H 0.6386 -0.0517 0.0496
C18 C 0.5117(3) 0.04882(16) 0.09241(8)
H27 H 0.4056 0.0079 0.0978
C19 C 0.9332(3) 0.04014(16) 0.16381(8)
H28 H 0.9341 0.0828 0.1915
H29 H 0.9237 0.0769 0.1341
H30 H 1.0434 0.0036 0.1633
C20 C 0.8154(3) -0.10240(17) 0.20813(8)
H31 H 0.8575 -0.0685 0.2370
H32 H 0.7051 -0.1360 0.2170
C21 C 0.9572(3) -0.17572(16) 0.19343(8)
H33 H 0.9744 -0.2212 0.2200
H34 H 1.0715 -0.1434 0.1877
C22 C 0.9007(3) -0.22976(16) 0.14707(8)
H35 H 0.7774 -0.2517 0.1543
C23 C 0.8763(3) -0.15988(16) 0.10299(8)
C24 C 1.0553(3) -0.11264(18) 0.08557(9)
H36 H 1.1136 -0.1538 0.0621
H37 H 1.1338 -0.1031 0.1132
H38 H 1.0292 -0.0518 0.0706
C25 C 0.8000(4) -0.21794(17) 0.05950(8)
H39 H 0.6765 -0.2366 0.0668
H40 H 0.7975 -0.1773 0.0306
C26 C 0.9096(4) -0.30724(17) 0.04829(9)
H41 H 0.8530 -0.3419 0.0215
H42 H 1.0301 -0.2885 0.0378
C27 C 0.9244(3) -0.37271(17) 0.09243(9)
H43 H 0.8016 -0.3930 0.1012
C28 C 1.0073(3) -0.32415(18) 0.13751(9)
C29 C 0.9784(4) -0.39280(18) 0.18111(10)
H44 H 1.0374 -0.3673 0.2097
H45 H 1.0286 -0.4546 0.1734
H46 H 0.8512 -0.3993 0.1875
C30 C 1.2126(3) -0.3108(2) 0.13091(10)
H47 H 1.2358 -0.2787 0.1004
H48 H 1.2707 -0.3725 0.1308
H49 H 1.2595 -0.2730 0.1575
O1 O 0.7705(3) 0.44480(13) 0.02457(6)
H50 H 0.8220 0.4180 0.0017
O2 O 0.4734(2) 0.28418(11) 0.09291(5)
O3 O 0.4760(3) 0.11161(12) 0.05201(5)
H51 H 0.4618 0.1665 0.0622
O4 O 1.0256(3) -0.45703(13) 0.08128(7)
H52 H 0.9679 -0.4907 0.0622
loop_
_geom_bond_atom_site_label_1
_geom_bond_atom_site_label_2
_geom_bond_site_symmetry_1
_geom_bond_site_symmetry_2
C1 H1 1_555 1_555
H2 C1 1_555 1_555
H3 C1 1_555 1_555
C2 H4 1_555 1_555
H5 C2 1_555 1_555
H6 C2 1_555 1_555
C3 C1 1_555 1_555
C4 C3 1_555 1_555
H7 C4 1_555 1_555
C5 C4 1_555 1_555
H8 C5 1_555 1_555
H9 C5 1_555 1_555
C6 C5 1_555 1_555
H10 C6 1_555 1_555
H11 C6 1_555 1_555
C7 C6 1_555 1_555
C8 C7 1_555 1_555
H12 C8 1_555 1_555
H13 C8 1_555 1_555
H14 C8 1_555 1_555
C9 C7 1_555 1_555
H15 C9 1_555 1_555
C10 C9 1_555 1_555
H16 C10 1_555 1_555
C11 C10 1_555 1_555
C12 C11 1_555 1_555
H17 C12 1_555 1_555
H18 C12 1_555 1_555
C13 C9 1_555 1_555
H19 C13 1_555 1_555
H20 C13 1_555 1_555
C14 C11 1_555 1_555
H21 C14 1_555 1_555
H22 C14 1_555 1_555
H23 C14 1_555 1_555
C15 C11 1_555 1_555
C16 C15 1_555 1_555
H24 C16 1_555 1_555
C17 C16 1_555 1_555
H25 C17 1_555 1_555
H26 C17 1_555 1_555
C18 C10 1_555 1_555
H27 C18 1_555 1_555
C19 C15 1_555 1_555
H28 C19 1_555 1_555
H29 C19 1_555 1_555
H30 C19 1_555 1_555
C20 C15 1_555 1_555
H31 C20 1_555 1_555
H32 C20 1_555 1_555
C21 C20 1_555 1_555
H33 C21 1_555 1_555
H34 C21 1_555 1_555
C22 C21 1_555 1_555
H35 C22 1_555 1_555
C23 C16 1_555 1_555
C24 C23 1_555 1_555
H36 C24 1_555 1_555
H37 C24 1_555 1_555
H38 C24 1_555 1_555
C25 C23 1_555 1_555
H39 C25 1_555 1_555
H40 C25 1_555 1_555
C26 C25 1_555 1_555
H41 C26 1_555 1_555
H42 C26 1_555 1_555
C27 C26 1_555 1_555
H43 C27 1_555 1_555
C28 C22 1_555 1_555
C29 C28 1_555 1_555
H44 C29 1_555 1_555
H45 C29 1_555 1_555
H46 C29 1_555 1_555
C30 C28 1_555 1_555
H47 C30 1_555 1_555
H48 C30 1_555 1_555
H49 C30 1_555 1_555
O1 C3 1_555 1_555
H50 O1 1_555 1_555
O2 C4 1_555 1_555
O3 C18 1_555 1_555
H51 O3 1_555 1_555
O4 C27 1_555 1_555
H52 O4 1_555 1_555
C2 C3 1_555 1_555
C7 O2 1_555 1_555
C12 C13 1_555 1_555
C17 C18 1_555 1_555
C22 C23 1_555 1_555
C27 C28 1_555 1_555

#END
