
#######################################################################
#
#                 Cambridge Crystallographic Data Centre
#                                CCDC 
#
#######################################################################
#
# If this CIF has been generated from an entry in the Cambridge 
# Structural Database, then it will include bibliographic, chemical, 
# crystal, experimental, refinement or atomic coordinate data resulting 
# from the CCDC's data processing and validation procedures.
#
#######################################################################

data_HIPBOA
_chemical_formula_moiety         'C174 H198 O12'
_chemical_name_systematic        
"2,11:3,6:7,10-tris(9,9',10,10'-tetrakis(hexyloxy)-3,3'-biphenanthrene-6,6'-diyl)triphenylene unknown solvate"
_symmetry_cell_setting           trigonal
_symmetry_space_group_name_H-M   'P -3'
_symmetry_Int_Tables_number      147
_space_group_name_Hall           '-P 3'
loop_
_symmetry_equiv_pos_site_id
_symmetry_equiv_pos_as_xyz
1 x,y,z
2 -y,x-y,z
3 -x+y,-x,z
4 -x,-y,-z
5 y,-x+y,-z
6 x-y,x,-z
_cell_length_a                   29.0519(13)
_cell_length_b                   29.0519(13)
_cell_length_c                   11.8362(6)
_cell_angle_alpha                90
_cell_angle_beta                 90
_cell_angle_gamma                120
_cell_volume                     8651.51
_exptl_crystal_colour            yellow
_exptl_crystal_description       block
_cell_formula_units_Z            2
loop_
_atom_site_label
_atom_site_type_symbol
_atom_site_fract_x
_atom_site_fract_y
_atom_site_fract_z
C1 C 0.2346(2) 0.29946(18) -0.0706(5)
C2 C 0.1975(2) 0.31389(19) -0.0715(5)
C3 C 0.20851(19) 0.36384(18) -0.0239(5)
C4 C 0.17154(18) 0.38242(18) -0.0355(4)
H1 H 0.1390 0.3613 -0.0710
C5 C 0.18403(16) 0.43061(18) 0.0051(5)
H2 H 0.1602 0.4428 -0.0059
C6 C 0.23041(16) 0.46242(15) 0.0622(4)
C7 C 0.24575(15) 0.51837(15) 0.1014(4)
C8 C 0.20803(15) 0.53386(15) 0.1275(4)
C9 C 0.15153(17) 0.49629(15) 0.1607(4)
C10 C 0.13921(19) 0.45130(18) 0.2263(4)
H3 H 0.1656 0.4433 0.2443
C11 C 0.11244(15) 0.50750(15) 0.1378(4)
H4 H 0.1203 0.5366 0.0924
C12 C 0.22492(15) 0.58693(15) 0.1299(4)
H5 H 0.1996 0.5972 0.1405
C13 C 0.27867(14) 0.62730(14) 0.1173(4)
C14 C 0.31690(14) 0.61147(14) 0.1118(4)
C15 C 0.29871(16) 0.55696(15) 0.0989(4)
H6 H 0.3237 0.5463 0.0881
C16 C 0.26548(16) 0.44406(15) 0.0766(4)
H7 H 0.2964 0.4646 0.1178
C17 C 0.25638(16) 0.39601(15) 0.0319(4)
C18 C 0.29628(18) 0.37933(16) 0.0342(4)
C19 C 0.34668(19) 0.41122(17) 0.0796(4)
H8 H 0.3535 0.4420 0.1175
C20 C 0.38712(19) 0.39952(17) 0.0712(4)
C21 C 0.3742(2) 0.3510(2) 0.0192(5)
H9 H 0.4004 0.3416 0.0136
C22 C 0.3258(2) 0.3177(2) -0.0227(5)
H10 H 0.3188 0.2854 -0.0536
C23 C 0.2849(2) 0.33118(18) -0.0207(5)
C24 C 0.43996(18) 0.43631(18) 0.1117(4)
C25 C 0.4771(2) 0.4209(2) 0.1519(5)
H11 H 0.4676 0.3852 0.1485
C26 C 0.5254(2) 0.4563(2) 0.1946(5)
H12 H 0.5484 0.4445 0.2166
C27 C 0.54121(19) 0.50928(19) 0.2063(4)
C28 C 0.5907(2) 0.5468(2) 0.2599(5)
C29 C 0.6019(2) 0.5966(2) 0.2819(5)
C30 C 0.56889(17) 0.61662(19) 0.2437(4)
C31 C 0.58101(18) 0.6689(2) 0.2641(4)
H13 H 0.6117 0.6915 0.3042
C32 C 0.52340(17) 0.58356(17) 0.1803(4)
C33 C 0.50667(18) 0.52729(19) 0.1664(4)
C34 C 0.45783(17) 0.49026(17) 0.1198(4)
H14 H 0.4359 0.5025 0.0925
C35 C 0.2262(4) 0.2537(3) -0.2404(7)
H15 H 0.2595 0.2837 -0.2656
H16 H 0.1975 0.2587 -0.2671
C36 C 0.2205(5) 0.2034(4) -0.2908(11)
H17 H 0.2178 0.2045 -0.3723
H18 H 0.1881 0.1730 -0.2630
C37 C 0.2676(6) 0.1967(5) -0.2605(13)
H19 H 0.2718 0.1999 -0.1791
H20 H 0.2991 0.2265 -0.2930
C38 C 0.2673(7) 0.1454(7) -0.2961(17)
H21 H 0.2573 0.1376 -0.3749
H22 H 0.2418 0.1156 -0.2509
C39 C 0.3243(8) 0.1544(8) -0.2774(18)
H23 H 0.3499 0.1863 -0.3167
H24 H 0.3328 0.1592 -0.1975
C40 C 0.3276(10) 0.1066(10) -0.322(2)
H25 H 0.3628 0.1124 -0.3097
H26 H 0.3024 0.0751 -0.2818
H27 H 0.3195 0.1022 -0.4008
C41 C 0.1110(3) 0.2423(4) -0.0571(9)
H28 H 0.1090 0.2565 0.0158
H29 H 0.1218 0.2160 -0.0447
C42 C 0.0564(4) 0.2161(5) -0.1142(13)
H30 H 0.0295 0.1939 -0.0596
H31 H 0.0489 0.2435 -0.1387
C43 C 0.0533(8) 0.1824(9) -0.2153(17)
H32 H 0.0589 0.1543 -0.1863
H33 H 0.0839 0.2047 -0.2622
C44 C 0.0054(9) 0.1556(14) -0.295(2)
H34 H -0.0158 0.1728 -0.2879
H35 H -0.0167 0.1186 -0.2741
C45 C 0.0239(12) 0.1594(14) -0.419(2)
H36 H 0.0277 0.1911 -0.4553
H37 H 0.0576 0.1601 -0.4229
C46 C -0.0206(17) 0.1088(15) -0.476(3)
H38 H -0.0120 0.1082 -0.5538
H39 H -0.0240 0.0780 -0.4382
H40 H -0.0536 0.1087 -0.4704
C47 C 0.6685(3) 0.5436(4) 0.2193(8)
H41 H 0.6923 0.5816 0.2262
H42 H 0.6562 0.5360 0.1417
C48 C 0.6984(5) 0.5146(6) 0.2480(12)
H43 H 0.6879 0.4855 0.1951
H44 H 0.6879 0.4993 0.3230
C49 C 0.7590(6) 0.5497(8) 0.245(2)
H45 H 0.7704 0.5697 0.3148
H46 H 0.7682 0.5752 0.1838
C50 C 0.7909(9) 0.5207(9) 0.229(3)
H47 H 0.8238 0.5389 0.2713
H48 H 0.7999 0.5216 0.1495
C51 C 0.7586(11) 0.4618(11) 0.269(2)
H49 H 0.7630 0.4594 0.3493
H50 H 0.7211 0.4472 0.2529
C52 C 0.7805(9) 0.4313(9) 0.2027(19)
H51 H 0.7617 0.3946 0.2246
H52 H 0.7758 0.4341 0.1232
H53 H 0.8176 0.4462 0.2191
C53 C 0.6518(4) 0.6164(4) 0.4567(8)
H54 H 0.6703 0.5963 0.4561
H55 H 0.6168 0.5942 0.4887
C54 C 0.6828(7) 0.6669(7) 0.5262(19)
H56 H 0.7128 0.6938 0.4840
H57 H 0.6955 0.6598 0.5961
C55 C 0.6413(11) 0.6846(10) 0.550(2)
H58 H 0.6477 0.7109 0.4922
H59 H 0.6072 0.6539 0.5317
C56 C 0.6320(12) 0.7072(12) 0.659(2)
H60 H 0.6603 0.7154 0.7130
H61 H 0.5984 0.6817 0.6934
C57 C 0.6314(14) 0.7580(14) 0.625(3)
H62 H 0.6133 0.7531 0.5539
H63 H 0.6134 0.7672 0.6825
C58 C 0.6900(16) 0.8018(14) 0.616(3)
H64 H 0.6920 0.8346 0.5947
H65 H 0.7073 0.8060 0.6873
H66 H 0.7072 0.7920 0.5594
O1 O 0.22540(16) 0.25195(14) -0.1180(5)
O2 O 0.14935(17) 0.28421(16) -0.1269(5)
O3 O 0.62337(15) 0.52740(15) 0.2938(3)
O4 O 0.64760(15) 0.63250(16) 0.3419(4)
C1A C 0.70054(18) 0.93514(27) -0.0706(5)
C2A C 0.68611(19) 0.88361(28) -0.0715(5)
C3A C 0.63616(18) 0.84467(26) -0.0239(5)
C4A C 0.61758(18) 0.78912(25) -0.0355(4)
H1A H 0.6387 0.7777 -0.0710
C5A C 0.56939(18) 0.75342(24) 0.0051(5)
H2A H 0.5572 0.7174 -0.0059
C6A C 0.53758(15) 0.76799(22) 0.0622(4)
C7A C 0.48163(15) 0.72738(21) 0.1014(4)
C8A C 0.46614(15) 0.67417(21) 0.1275(4)
C9A C 0.50371(15) 0.65524(23) 0.1607(4)
C10A C 0.54870(18) 0.68791(26) 0.2263(4)
H3A H 0.5567 0.7223 0.2443
C11A C 0.49250(15) 0.60494(21) 0.1378(4)
H4A H 0.4634 0.5837 0.0924
C12A C 0.41307(15) 0.63799(21) 0.1299(4)
H5A H 0.4028 0.6024 0.1405
C13A C 0.37270(14) 0.65137(20) 0.1173(4)
C14A C 0.38853(14) 0.70543(20) 0.1118(4)
C15A C 0.44304(15) 0.74175(22) 0.0989(4)
H6A H 0.4537 0.7774 0.0881
C16A C 0.55594(15) 0.82142(22) 0.0766(4)
H7A H 0.5354 0.8318 0.1178
C17A C 0.60399(15) 0.86037(22) 0.0319(4)
C18A C 0.62067(16) 0.91695(24) 0.0342(4)
C19A C 0.58878(17) 0.93546(25) 0.0796(4)
H8A H 0.5580 0.9115 0.1175
C20A C 0.60048(17) 0.98760(25) 0.0712(4)
C21A C 0.6490(2) 1.0232(3) 0.0192(5)
H9A H 0.6584 1.0588 0.0136
C22A C 0.6823(2) 1.0081(3) -0.0227(5)
H10A H 0.7146 1.0334 -0.0536
C23A C 0.66882(18) 0.95372(27) -0.0207(5)
C24A C 0.56369(18) 1.00365(25) 0.1117(4)
C25A C 0.5791(2) 1.0562(3) 0.1519(5)
H11A H 0.6148 1.0824 0.1485
C26A C 0.5437(2) 1.0691(3) 0.1946(5)
H12A H 0.5555 1.1039 0.2166
C27A C 0.49072(19) 1.03193(27) 0.2063(4)
C28A C 0.4532(2) 1.0439(3) 0.2599(5)
C29A C 0.4034(2) 1.0053(3) 0.2819(5)
C30A C 0.38338(19) 0.95227(25) 0.2437(4)
C31A C 0.3311(2) 0.91211(27) 0.2641(4)
H13A H 0.3085 0.9202 0.3042
C32A C 0.41644(17) 0.93984(24) 0.1803(4)
C33A C 0.47271(19) 0.97938(26) 0.1664(4)
C34A C 0.50974(17) 0.96757(24) 0.1198(4)
H14A H 0.4975 0.9334 0.0925
C35A C 0.7463(3) 0.9725(5) -0.2404(7)
H15A H 0.7163 0.9758 -0.2656
H16A H 0.7413 0.9388 -0.2671
C36A C 0.7966(4) 1.0171(6) -0.2908(11)
H17A H 0.7955 1.0133 -0.3723
H18A H 0.8270 1.0151 -0.2630
C37A C 0.8033(5) 1.0709(8) -0.2605(13)
H19A H 0.8001 1.0719 -0.1791
H20A H 0.7735 1.0726 -0.2930
C38A C 0.8546(7) 1.1219(10) -0.2961(17)
H21A H 0.8624 1.1197 -0.3749
H22A H 0.8844 1.1262 -0.2509
C39A C 0.8456(8) 1.1699(11) -0.2774(18)
H23A H 0.8137 1.1636 -0.3167
H24A H 0.8408 1.1736 -0.1975
C40A C 0.8934(10) 1.2210(14) -0.322(2)
H25A H 0.8876 1.2504 -0.3097
H26A H 0.9249 1.2273 -0.2818
H27A H 0.8978 1.2173 -0.4008
C41A C 0.7577(4) 0.8687(5) -0.0571(9)
H28A H 0.7435 0.8525 0.0158
H29A H 0.7840 0.9058 -0.0447
C42A C 0.7839(5) 0.8403(6) -0.1142(13)
H30A H 0.8061 0.8356 -0.0596
H31A H 0.7565 0.8054 -0.1387
C43A C 0.8176(9) 0.8709(12) -0.2153(17)
H32A H 0.8457 0.9046 -0.1863
H33A H 0.7953 0.8792 -0.2622
C44A C 0.8444(14) 0.8498(17) -0.295(2)
H34A H 0.8272 0.8114 -0.2879
H35A H 0.8814 0.8647 -0.2741
C45A C 0.8406(14) 0.8645(18) -0.419(2)
H36A H 0.8089 0.8366 -0.4553
H37A H 0.8399 0.8975 -0.4229
C46A C 0.8912(15) 0.8706(23) -0.476(3)
H38A H 0.8918 0.8798 -0.5538
H39A H 0.9220 0.8980 -0.4382
H40A H 0.8913 0.8377 -0.4704
C47A C 0.4564(4) 1.1249(5) 0.2193(8)
H41A H 0.4184 1.1107 0.2262
H42A H 0.4640 1.1202 0.1417
C48A C 0.4854(6) 1.1838(8) 0.2480(12)
H43A H 0.5145 1.2024 0.1951
H44A H 0.5007 1.1886 0.3230
C49A C 0.4503(8) 1.2093(10) 0.245(2)
H45A H 0.4303 1.2007 0.3148
H46A H 0.4248 1.1930 0.1838
C50A C 0.4793(9) 1.2702(13) 0.229(3)
H47A H 0.4611 1.2849 0.2713
H48A H 0.4784 1.2783 0.1495
C51A C 0.5382(11) 1.2968(16) 0.269(2)
H49A H 0.5406 1.3036 0.3493
H50A H 0.5528 1.2739 0.2529
C52A C 0.5687(9) 1.3492(13) 0.2027(19)
H51A H 0.6054 1.3671 0.2246
H52A H 0.5659 1.3417 0.1232
H53A H 0.5538 1.3714 0.2191
C53A C 0.3836(4) 1.0354(6) 0.4567(8)
H54A H 0.4037 1.0740 0.4561
H55A H 0.4058 1.0226 0.4887
C54A C 0.3331(7) 1.0159(10) 0.5262(19)
H56A H 0.3062 1.0190 0.4840
H57A H 0.3402 1.0357 0.5961
C55A C 0.3154(10) 0.9567(15) 0.550(2)
H58A H 0.2891 0.9368 0.4922
H59A H 0.3461 0.9533 0.5317
C56A C 0.2928(12) 0.9248(17) 0.659(2)
H60A H 0.2846 0.9449 0.7130
H61A H 0.3183 0.9167 0.6934
C57A C 0.2420(14) 0.8734(20) 0.625(3)
H62A H 0.2469 0.8602 0.5539
H63A H 0.2328 0.8462 0.6825
C58A C 0.1982(14) 0.8882(21) 0.616(3)
H64A H 0.1654 0.8574 0.5947
H65A H 0.1940 0.9013 0.6873
H66A H 0.2080 0.9152 0.5594
O1A O 0.74805(14) 0.97345(21) -0.1180(5)
O2A O 0.71579(16) 0.86514(23) -0.1269(5)
O3A O 0.47260(15) 1.09597(21) 0.2938(3)
O4A O 0.36750(16) 1.01510(22) 0.3419(4)
C1B C 0.06486(27) 0.7654(2) -0.0706(5)
C2B C 0.11639(28) 0.8025(2) -0.0715(5)
C3B C 0.15533(26) 0.79149(19) -0.0239(5)
C4B C 0.21088(25) 0.82846(18) -0.0355(4)
H1B H 0.2223 0.8610 -0.0710
C5B C 0.24658(24) 0.81597(16) 0.0051(5)
H2B H 0.2826 0.8398 -0.0059
C6B C 0.23201(22) 0.76959(16) 0.0622(4)
C7B C 0.27262(21) 0.75425(15) 0.1014(4)
C8B C 0.32583(21) 0.79197(15) 0.1275(4)
C9B C 0.34476(23) 0.84847(17) 0.1607(4)
C10B C 0.31209(26) 0.86079(19) 0.2263(4)
H3B H 0.2777 0.8344 0.2443
C11B C 0.39506(21) 0.88756(15) 0.1378(4)
H4B H 0.4163 0.8797 0.0924
C12B C 0.36201(21) 0.77508(15) 0.1299(4)
H5B H 0.3976 0.8004 0.1405
C13B C 0.34863(20) 0.72133(14) 0.1173(4)
C14B C 0.29457(20) 0.68310(14) 0.1118(4)
C15B C 0.25825(22) 0.70129(16) 0.0989(4)
H6B H 0.2226 0.6763 0.0881
C16B C 0.17858(22) 0.73452(16) 0.0766(4)
H7B H 0.1682 0.7036 0.1178
C17B C 0.13963(22) 0.74362(16) 0.0319(4)
C18B C 0.08305(24) 0.70372(18) 0.0342(4)
C19B C 0.06454(25) 0.65332(19) 0.0796(4)
H8B H 0.0885 0.6465 0.1175
C20B C 0.01240(25) 0.61288(19) 0.0712(4)
C21B C -0.0232(3) 0.6258(2) 0.0192(5)
H9B H -0.0588 0.5996 0.0136
C22B C -0.0081(3) 0.6742(2) -0.0227(5)
H10B H -0.0334 0.6812 -0.0536
C23B C 0.04628(27) 0.7151(2) -0.0207(5)
C24B C -0.00365(25) 0.56004(18) 0.1117(4)
C25B C -0.0562(3) 0.5229(2) 0.1519(5)
H11B H -0.0824 0.5324 0.1485
C26B C -0.0691(3) 0.4746(2) 0.1946(5)
H12B H -0.1039 0.4516 0.2166
C27B C -0.03193(27) 0.45879(19) 0.2063(4)
C28B C -0.0439(3) 0.4093(2) 0.2599(5)
C29B C -0.0053(3) 0.3981(2) 0.2819(5)
C30B C 0.04773(25) 0.43111(17) 0.2437(4)
C31B C 0.08789(27) 0.41899(18) 0.2641(4)
H13B H 0.0798 0.3883 0.3042
C32B C 0.06016(24) 0.47660(17) 0.1803(4)
C33B C 0.02062(26) 0.49333(18) 0.1664(4)
C34B C 0.03243(24) 0.54217(17) 0.1198(4)
H14B H 0.0666 0.5641 0.0925
C35B C 0.0275(5) 0.7738(4) -0.2404(7)
H15B H 0.0242 0.7405 -0.2656
H16B H 0.0612 0.8025 -0.2671
C36B C -0.0171(6) 0.7795(5) -0.2908(11)
H17B H -0.0133 0.7822 -0.3723
H18B H -0.0151 0.8119 -0.2630
C37B C -0.0709(8) 0.7324(6) -0.2605(13)
H19B H -0.0719 0.7282 -0.1791
H20B H -0.0726 0.7009 -0.2930
C38B C -0.1219(10) 0.7327(7) -0.2961(17)
H21B H -0.1197 0.7427 -0.3749
H22B H -0.1262 0.7582 -0.2509
C39B C -0.1699(11) 0.6757(8) -0.2774(18)
H23B H -0.1636 0.6501 -0.3167
H24B H -0.1736 0.6672 -0.1975
C40B C -0.2210(14) 0.6724(10) -0.322(2)
H25B H -0.2504 0.6372 -0.3097
H26B H -0.2273 0.6976 -0.2818
H27B H -0.2173 0.6805 -0.4008
C41B C 0.1313(5) 0.8890(3) -0.0571(9)
H28B H 0.1475 0.8910 0.0158
H29B H 0.0942 0.8782 -0.0447
C42B C 0.1597(6) 0.9436(4) -0.1142(13)
H30B H 0.1644 0.9705 -0.0596
H31B H 0.1946 0.9511 -0.1387
C43B C 0.1291(12) 0.9467(8) -0.2153(17)
H32B H 0.0954 0.9411 -0.1863
H33B H 0.1208 0.9161 -0.2622
C44B C 0.1502(17) 0.9946(9) -0.295(2)
H34B H 0.1886 1.0158 -0.2879
H35B H 0.1353 1.0167 -0.2741
C45B C 0.1355(18) 0.9761(12) -0.419(2)
H36B H 0.1634 0.9723 -0.4553
H37B H 0.1025 0.9424 -0.4229
C46B C 0.1294(23) 1.0206(17) -0.476(3)
H38B H 0.1202 1.0120 -0.5538
H39B H 0.1020 1.0240 -0.4382
H40B H 0.1623 1.0536 -0.4704
C47B C -0.1249(5) 0.3315(3) 0.2193(8)
H41B H -0.1107 0.3077 0.2262
H42B H -0.1202 0.3438 0.1417
C48B C -0.1838(8) 0.3016(5) 0.2480(12)
H43B H -0.2024 0.3121 0.1951
H44B H -0.1886 0.3121 0.3230
C49B C -0.2093(10) 0.2410(6) 0.245(2)
H45B H -0.2007 0.2296 0.3148
H46B H -0.1930 0.2318 0.1838
C50B C -0.2702(13) 0.2091(9) 0.229(3)
H47B H -0.2849 0.1762 0.2713
H48B H -0.2783 0.2001 0.1495
C51B C -0.2968(16) 0.2414(11) 0.269(2)
H49B H -0.3036 0.2370 0.3493
H50B H -0.2739 0.2789 0.2529
C52B C -0.3492(13) 0.2195(9) 0.2027(19)
H51B H -0.3671 0.2383 0.2246
H52B H -0.3417 0.2242 0.1232
H53B H -0.3714 0.1824 0.2191
C53B C -0.0354(6) 0.3482(4) 0.4567(8)
H54B H -0.0740 0.3297 0.4561
H55B H -0.0226 0.3832 0.4887
C54B C -0.0159(10) 0.3172(7) 0.5262(19)
H56B H -0.0190 0.2872 0.4840
H57B H -0.0357 0.3045 0.5961
C55B C 0.0433(15) 0.3587(11) 0.550(2)
H58B H 0.0632 0.3523 0.4922
H59B H 0.0467 0.3928 0.5317
C56B C 0.0752(17) 0.3680(12) 0.659(2)
H60B H 0.0551 0.3397 0.7130
H61B H 0.0833 0.4016 0.6934
C57B C 0.1266(20) 0.3686(14) 0.625(3)
H62B H 0.1398 0.3867 0.5539
H63B H 0.1538 0.3866 0.6825
C58B C 0.1118(21) 0.3100(16) 0.616(3)
H64B H 0.1426 0.3080 0.5947
H65B H 0.0987 0.2927 0.6873
H66B H 0.0848 0.2928 0.5594
O1B O 0.02655(21) 0.77460(16) -0.1180(5)
O2B O 0.13486(23) 0.85065(17) -0.1269(5)
O3B O -0.09597(21) 0.37663(15) 0.2938(3)
O4B O -0.01510(22) 0.35240(15) 0.3419(4)
loop_
_geom_bond_atom_site_label_1
_geom_bond_atom_site_label_2
_geom_bond_site_symmetry_1
_geom_bond_site_symmetry_2
C1 C2 1_555 1_555
C2 C3 1_555 1_555
C3 C4 1_555 1_555
C4 H1 1_555 1_555
C5 C4 1_555 1_555
H2 C5 1_555 1_555
C6 C5 1_555 1_555
C7 C6 1_555 1_555
C8 C7 1_555 1_555
C9 C8 1_555 1_555
C10 C9 1_555 1_555
H3 C10 1_555 1_555
C11 C9 1_555 1_555
H4 C11 1_555 1_555
C12 C8 1_555 1_555
H5 C12 1_555 1_555
C13 C12 1_555 1_555
C14 C13 1_555 1_555
C15 C7 1_555 1_555
H6 C15 1_555 1_555
C16 C6 1_555 1_555
H7 C16 1_555 1_555
C17 C3 1_555 1_555
C18 C17 1_555 1_555
C19 C18 1_555 1_555
H8 C19 1_555 1_555
C20 C19 1_555 1_555
C21 C20 1_555 1_555
H9 C21 1_555 1_555
C22 C21 1_555 1_555
H10 C22 1_555 1_555
C23 C1 1_555 1_555
C24 C20 1_555 1_555
C25 C24 1_555 1_555
H11 C25 1_555 1_555
C26 C25 1_555 1_555
H12 C26 1_555 1_555
C27 C26 1_555 1_555
C28 C27 1_555 1_555
C29 C28 1_555 1_555
C30 C29 1_555 1_555
C31 C30 1_555 1_555
H13 C31 1_555 1_555
C32 C30 1_555 1_555
C33 C27 1_555 1_555
C34 C24 1_555 1_555
H14 C34 1_555 1_555
C35 H15 1_555 1_555
H16 C35 1_555 1_555
C36 C35 1_555 1_555
H17 C36 1_555 1_555
H18 C36 1_555 1_555
C37 C36 1_555 1_555
H19 C37 1_555 1_555
H20 C37 1_555 1_555
C38 C37 1_555 1_555
H21 C38 1_555 1_555
H22 C38 1_555 1_555
C39 C38 1_555 1_555
H23 C39 1_555 1_555
H24 C39 1_555 1_555
C40 C39 1_555 1_555
H25 C40 1_555 1_555
H26 C40 1_555 1_555
H27 C40 1_555 1_555
C41 H28 1_555 1_555
H29 C41 1_555 1_555
C42 C41 1_555 1_555
H30 C42 1_555 1_555
H31 C42 1_555 1_555
C43 C42 1_555 1_555
H32 C43 1_555 1_555
H33 C43 1_555 1_555
C44 C43 1_555 1_555
H34 C44 1_555 1_555
H35 C44 1_555 1_555
C45 C44 1_555 1_555
H36 C45 1_555 1_555
H37 C45 1_555 1_555
C46 C45 1_555 1_555
H38 C46 1_555 1_555
H39 C46 1_555 1_555
H40 C46 1_555 1_555
C47 H41 1_555 1_555
H42 C47 1_555 1_555
C48 C47 1_555 1_555
H43 C48 1_555 1_555
H44 C48 1_555 1_555
C49 C48 1_555 1_555
H45 C49 1_555 1_555
H46 C49 1_555 1_555
C50 C49 1_555 1_555
H47 C50 1_555 1_555
H48 C50 1_555 1_555
C51 C50 1_555 1_555
H49 C51 1_555 1_555
H50 C51 1_555 1_555
C52 C51 1_555 1_555
H51 C52 1_555 1_555
H52 C52 1_555 1_555
H53 C52 1_555 1_555
C53 H54 1_555 1_555
H55 C53 1_555 1_555
C54 C53 1_555 1_555
H56 C54 1_555 1_555
H57 C54 1_555 1_555
C55 C54 1_555 1_555
H58 C55 1_555 1_555
H59 C55 1_555 1_555
C56 C55 1_555 1_555
H60 C56 1_555 1_555
H61 C56 1_555 1_555
C57 C56 1_555 1_555
H62 C57 1_555 1_555
H63 C57 1_555 1_555
C58 C57 1_555 1_555
H64 C58 1_555 1_555
H65 C58 1_555 1_555
H66 C58 1_555 1_555
O1 C1 1_555 1_555
O2 C2 1_555 1_555
O3 C28 1_555 1_555
O4 C29 1_555 1_555
C1A C2A 1_555 1_555
C2A C3A 1_555 1_555
C3A C4A 1_555 1_555
C4A H1A 1_555 1_555
C5A C4A 1_555 1_555
H2A C5A 1_555 1_555
C6A C5A 1_555 1_555
C7A C6A 1_555 1_555
C8A C7A 1_555 1_555
C9A C8A 1_555 1_555
C10A C31 1_555 1_555
H3A C10A 1_555 1_555
C11A C32 1_555 1_555
H4A C11A 1_555 1_555
C12A C8A 1_555 1_555
H5A C12A 1_555 1_555
C13A C14 1_555 1_555
C14A C13A 1_555 1_555
C15A C7A 1_555 1_555
H6A C15A 1_555 1_555
C16A C6A 1_555 1_555
H7A C16A 1_555 1_555
C17A C3A 1_555 1_555
C18A C17A 1_555 1_555
C19A C18A 1_555 1_555
H8A C19A 1_555 1_555
C20A C19A 1_555 1_555
C21A C20A 1_555 1_555
H9A C21A 1_555 1_555
C22A C21A 1_555 1_555
H10A C22A 1_555 1_555
C23A C1A 1_555 1_555
C24A C20A 1_555 1_555
C25A C24A 1_555 1_555
H11A C25A 1_555 1_555
C26A C25A 1_555 1_555
H12A C26A 1_555 1_555
C27A C26A 1_555 1_555
C28A C27A 1_555 1_555
C29A C28A 1_555 1_555
C30A C29A 1_555 1_555
C31A C30A 1_555 1_555
H13A C31A 1_555 1_555
C32A C30A 1_555 1_555
C33A C27A 1_555 1_555
C34A C24A 1_555 1_555
H14A C34A 1_555 1_555
C35A H15A 1_555 1_555
H16A C35A 1_555 1_555
C36A C35A 1_555 1_555
H17A C36A 1_555 1_555
H18A C36A 1_555 1_555
C37A C36A 1_555 1_555
H19A C37A 1_555 1_555
H20A C37A 1_555 1_555
C38A C37A 1_555 1_555
H21A C38A 1_555 1_555
H22A C38A 1_555 1_555
C39A C38A 1_555 1_555
H23A C39A 1_555 1_555
H24A C39A 1_555 1_555
C40A C39A 1_555 1_555
H25A C40A 1_555 1_555
H26A C40A 1_555 1_555
H27A C40A 1_555 1_555
C41A H28A 1_555 1_555
H29A C41A 1_555 1_555
C42A C41A 1_555 1_555
H30A C42A 1_555 1_555
H31A C42A 1_555 1_555
C43A C42A 1_555 1_555
H32A C43A 1_555 1_555
H33A C43A 1_555 1_555
C44A C43A 1_555 1_555
H34A C44A 1_555 1_555
H35A C44A 1_555 1_555
C45A C44A 1_555 1_555
H36A C45A 1_555 1_555
H37A C45A 1_555 1_555
C46A C45A 1_555 1_555
H38A C46A 1_555 1_555
H39A C46A 1_555 1_555
H40A C46A 1_555 1_555
C47A H41A 1_555 1_555
H42A C47A 1_555 1_555
C48A C47A 1_555 1_555
H43A C48A 1_555 1_555
H44A C48A 1_555 1_555
C49A C48A 1_555 1_555
H45A C49A 1_555 1_555
H46A C49A 1_555 1_555
C50A C49A 1_555 1_555
H47A C50A 1_555 1_555
H48A C50A 1_555 1_555
C51A C50A 1_555 1_555
H49A C51A 1_555 1_555
H50A C51A 1_555 1_555
C52A C51A 1_555 1_555
H51A C52A 1_555 1_555
H52A C52A 1_555 1_555
H53A C52A 1_555 1_555
C53A H54A 1_555 1_555
H55A C53A 1_555 1_555
C54A C53A 1_555 1_555
H56A C54A 1_555 1_555
H57A C54A 1_555 1_555
C55A C54A 1_555 1_555
H58A C55A 1_555 1_555
H59A C55A 1_555 1_555
C56A C55A 1_555 1_555
H60A C56A 1_555 1_555
H61A C56A 1_555 1_555
C57A C56A 1_555 1_555
H62A C57A 1_555 1_555
H63A C57A 1_555 1_555
C58A C57A 1_555 1_555
H64A C58A 1_555 1_555
H65A C58A 1_555 1_555
H66A C58A 1_555 1_555
O1A C1A 1_555 1_555
O2A C2A 1_555 1_555
O3A C28A 1_555 1_555
O4A C29A 1_555 1_555
C1B C2B 1_555 1_555
C2B C3B 1_555 1_555
C3B C4B 1_555 1_555
C4B H1B 1_555 1_555
C5B C4B 1_555 1_555
H2B C5B 1_555 1_555
C6B C5B 1_555 1_555
C7B C6B 1_555 1_555
C8B C7B 1_555 1_555
C9B C8B 1_555 1_555
C10B C31A 1_555 1_555
H3B C10B 1_555 1_555
C11B C32A 1_555 1_555
H4B C11B 1_555 1_555
C12B C8B 1_555 1_555
H5B C12B 1_555 1_555
C13B C14A 1_555 1_555
C14B C13 1_555 1_555
C15B C7B 1_555 1_555
H6B C15B 1_555 1_555
C16B C6B 1_555 1_555
H7B C16B 1_555 1_555
C17B C3B 1_555 1_555
C18B C17B 1_555 1_555
C19B C18B 1_555 1_555
H8B C19B 1_555 1_555
C20B C19B 1_555 1_555
C21B C20B 1_555 1_555
H9B C21B 1_555 1_555
C22B C21B 1_555 1_555
H10B C22B 1_555 1_555
C23B C1B 1_555 1_555
C24B C20B 1_555 1_555
C25B C24B 1_555 1_555
H11B C25B 1_555 1_555
C26B C25B 1_555 1_555
H12B C26B 1_555 1_555
C27B C26B 1_555 1_555
C28B C27B 1_555 1_555
C29B C28B 1_555 1_555
C30B C29B 1_555 1_555
C31B C10 1_555 1_555
H13B C31B 1_555 1_555
C32B C11 1_555 1_555
C33B C27B 1_555 1_555
C34B C24B 1_555 1_555
H14B C34B 1_555 1_555
C35B H15B 1_555 1_555
H16B C35B 1_555 1_555
C36B C35B 1_555 1_555
H17B C36B 1_555 1_555
H18B C36B 1_555 1_555
C37B C36B 1_555 1_555
H19B C37B 1_555 1_555
H20B C37B 1_555 1_555
C38B C37B 1_555 1_555
H21B C38B 1_555 1_555
H22B C38B 1_555 1_555
C39B C38B 1_555 1_555
H23B C39B 1_555 1_555
H24B C39B 1_555 1_555
C40B C39B 1_555 1_555
H25B C40B 1_555 1_555
H26B C40B 1_555 1_555
H27B C40B 1_555 1_555
C41B H28B 1_555 1_555
H29B C41B 1_555 1_555
C42B C41B 1_555 1_555
H30B C42B 1_555 1_555
H31B C42B 1_555 1_555
C43B C42B 1_555 1_555
H32B C43B 1_555 1_555
H33B C43B 1_555 1_555
C44B C43B 1_555 1_555
H34B C44B 1_555 1_555
H35B C44B 1_555 1_555
C45B C44B 1_555 1_555
H36B C45B 1_555 1_555
H37B C45B 1_555 1_555
C46B C45B 1_555 1_555
H38B C46B 1_555 1_555
H39B C46B 1_555 1_555
H40B C46B 1_555 1_555
C47B H41B 1_555 1_555
H42B C47B 1_555 1_555
C48B C47B 1_555 1_555
H43B C48B 1_555 1_555
H44B C48B 1_555 1_555
C49B C48B 1_555 1_555
H45B C49B 1_555 1_555
H46B C49B 1_555 1_555
C50B C49B 1_555 1_555
H47B C50B 1_555 1_555
H48B C50B 1_555 1_555
C51B C50B 1_555 1_555
H49B C51B 1_555 1_555
H50B C51B 1_555 1_555
C52B C51B 1_555 1_555
H51B C52B 1_555 1_555
H52B C52B 1_555 1_555
H53B C52B 1_555 1_555
C53B H54B 1_555 1_555
H55B C53B 1_555 1_555
C54B C53B 1_555 1_555
H56B C54B 1_555 1_555
H57B C54B 1_555 1_555
C55B C54B 1_555 1_555
H58B C55B 1_555 1_555
H59B C55B 1_555 1_555
C56B C55B 1_555 1_555
H60B C56B 1_555 1_555
H61B C56B 1_555 1_555
C57B C56B 1_555 1_555
H62B C57B 1_555 1_555
H63B C57B 1_555 1_555
C58B C57B 1_555 1_555
H64B C58B 1_555 1_555
H65B C58B 1_555 1_555
H66B C58B 1_555 1_555
O1B C1B 1_555 1_555
O2B C2B 1_555 1_555
O3B C28B 1_555 1_555
O4B C29B 1_555 1_555
C14 C15 1_555 1_555
C16 C17 1_555 1_555
C18 C23 1_555 1_555
C22 C23 1_555 1_555
C32 C33 1_555 1_555
C33 C34 1_555 1_555
C35 O1 1_555 1_555
C41 O2 1_555 1_555
C47 O3 1_555 1_555
C53 O4 1_555 1_555
C9A C10A 1_555 1_555
C9A C11A 1_555 1_555
C12A C13A 1_555 1_555
C14A C15A 1_555 1_555
C16A C17A 1_555 1_555
C18A C23A 1_555 1_555
C22A C23A 1_555 1_555
C32A C33A 1_555 1_555
C33A C34A 1_555 1_555
C35A O1A 1_555 1_555
C41A O2A 1_555 1_555
C47A O3A 1_555 1_555
C53A O4A 1_555 1_555
C9B C10B 1_555 1_555
C9B C11B 1_555 1_555
C12B C13B 1_555 1_555
C13B C14B 1_555 1_555
C14B C15B 1_555 1_555
C16B C17B 1_555 1_555
C18B C23B 1_555 1_555
C22B C23B 1_555 1_555
C30B C31B 1_555 1_555
C30B C32B 1_555 1_555
C32B C33B 1_555 1_555
C33B C34B 1_555 1_555
C35B O1B 1_555 1_555
C41B O2B 1_555 1_555
C47B O3B 1_555 1_555
C53B O4B 1_555 1_555

#END
