
#######################################################################
#
#                 Cambridge Crystallographic Data Centre
#                                CCDC 
#
#######################################################################
#
# If this CIF has been generated from an entry in the Cambridge 
# Structural Database, then it will include bibliographic, chemical, 
# crystal, experimental, refinement or atomic coordinate data resulting 
# from the CCDC's data processing and validation procedures.
#
#######################################################################

data_HIPCIV
_chemical_formula_moiety         'C38 H42 N4 O4,C1 H1 Cl3'
_chemical_name_systematic        
'3,8-dibenzyl-5,6-bis(2-hydroxyphenyl)tetradecahydro-1,4,7,10-benzotetra-azacyclododecine-2,9-dione chloroform solvate'
_symmetry_cell_setting           orthorhombic
_symmetry_space_group_name_H-M   'P 21 21 21'
_symmetry_Int_Tables_number      19
_space_group_name_Hall           'P 2ac 2ab'
loop_
_symmetry_equiv_pos_site_id
_symmetry_equiv_pos_as_xyz
1 x,y,z
2 1/2-x,-y,1/2+z
3 -x,1/2+y,1/2-z
4 1/2+x,1/2-y,-z
_cell_length_a                   8.5148(9)
_cell_length_b                   20.027(2)
_cell_length_c                   21.654(2)
_cell_angle_alpha                90
_cell_angle_beta                 90
_cell_angle_gamma                90
_cell_volume                     3692.57
_cell_formula_units_Z            4
loop_
_atom_site_label
_atom_site_type_symbol
_atom_site_fract_x
_atom_site_fract_y
_atom_site_fract_z
C1 C 0.4259(2) 0.97021(10) 0.65628(8)
H1 H 0.3512 0.9529 0.6245
C2 C 0.5358(3) 1.02014(11) 0.62587(10)
H2 H 0.6083 1.0386 0.6573
H3 H 0.4736 1.0576 0.6088
C3 C 0.6310(3) 0.98793(12) 0.57428(9)
H4 H 0.5597 0.9760 0.5399
H5 H 0.7083 1.0206 0.5584
C4 C 0.7163(3) 0.92623(11) 0.59566(10)
H6 H 0.8012 0.9393 0.6245
H7 H 0.7652 0.9040 0.5596
C5 C 0.6063(2) 0.87729(10) 0.62785(10)
H8 H 0.5280 0.8602 0.5980
H9 H 0.6673 0.8389 0.6438
C6 C 0.5228(2) 0.91225(9) 0.68097(9)
H10 H 0.6048 0.9310 0.7092
C7 C 0.4646(2) 0.84731(9) 0.77367(8)
C8 C 0.3585(2) 0.79704(9) 0.80589(8)
H11 H 0.2655 0.7870 0.7793
C9 C 0.4537(3) 0.73299(10) 0.81688(9)
H12 H 0.5498 0.7443 0.8404
H13 H 0.3907 0.7019 0.8424
C10 C 0.5003(2) 0.69818(10) 0.75793(9)
C11 C 0.6299(3) 0.71822(11) 0.72401(11)
H14 H 0.6942 0.7536 0.7387
C12 C 0.6665(3) 0.68673(12) 0.66862(11)
H15 H 0.7545 0.7013 0.6453
C13 C 0.5767(3) 0.63483(12) 0.64745(10)
H16 H 0.6022 0.6136 0.6095
C14 C 0.4489(3) 0.61350(11) 0.68136(11)
H17 H 0.3872 0.5771 0.6671
C15 C 0.4107(3) 0.64526(10) 0.73635(10)
H18 H 0.3223 0.6306 0.7594
C16 C 0.1675(2) 0.86638(9) 0.86090(8)
H19 H 0.1060 0.8512 0.8242
C17 C 0.0629(2) 0.85805(8) 0.91667(8)
C18 C 0.1232(2) 0.84452(9) 0.97487(8)
H20 H 0.2337 0.8432 0.9808
C19 C 0.0243(3) 0.83295(10) 1.02421(9)
H21 H 0.0667 0.8230 1.0637
C20 C -0.1367(3) 0.83589(10) 1.01607(10)
H22 H -0.2047 0.8282 1.0501
C21 C -0.1989(2) 0.84995(10) 0.95891(11)
H23 H -0.3095 0.8517 0.9534
C22 C -0.0994(2) 0.86155(9) 0.90934(10)
C23 C 0.2148(2) 0.94001(9) 0.84898(8)
H24 H 0.2972 0.9398 0.8161
C24 C 0.2826(2) 0.97612(9) 0.90412(8)
C25 C 0.4429(2) 0.96994(10) 0.91654(10)
H25 H 0.5060 0.9425 0.8908
C26 C 0.5112(3) 1.00316(10) 0.96577(10)
H26 H 0.6203 0.9984 0.9738
C27 C 0.4197(3) 1.04324(11) 1.00307(9)
H27 H 0.4657 1.0658 1.0371
C28 C 0.2626(3) 1.05063(11) 0.99118(9)
H28 H 0.2008 1.0787 1.0169
C29 C 0.1926(2) 1.01760(10) 0.94206(8)
C30 C 0.1135(2) 1.02116(9) 0.77329(8)
H29 H 0.1858 1.0570 0.7882
C31 C -0.0391(2) 1.05250(10) 0.75036(9)
H30 H -0.1111 1.0167 0.7365
H31 H -0.0903 1.0764 0.7850
C32 C -0.0129(2) 1.10044(9) 0.69802(9)
C33 C 0.0114(3) 1.16761(10) 0.70970(9)
H32 H 0.0060 1.1837 0.7509
C34 C 0.0435(3) 1.21167(10) 0.66212(9)
H33 H 0.0603 1.2576 0.6708
C35 C 0.0511(3) 1.18894(10) 0.60178(9)
H34 H 0.0734 1.2191 0.5691
C36 C 0.0262(2) 1.12242(10) 0.58964(9)
H35 H 0.0306 1.1066 0.5483
C37 C -0.0051(2) 1.07824(10) 0.63733(9)
H36 H -0.0215 1.0323 0.6284
C38 C 0.1916(2) 0.98288(9) 0.72115(8)
N1 N 0.42653(19) 0.86565(8) 0.71672(7)
H37 H 0.338(3) 0.8538(12) 0.7074(10)
N2 N 0.30623(19) 0.82349(8) 0.86512(7)
H38 H 0.277(3) 0.7884(13) 0.8842(11)
N3 N 0.07720(19) 0.97586(8) 0.82399(7)
H39 H 0.019(3) 0.9509(12) 0.8125(10)
N4 N 0.33659(19) 1.00265(8) 0.70496(7)
H40 H 0.379(4) 1.0345(16) 0.7214(14)
O1 O 0.58228(17) 0.86866(9) 0.79981(7)
O2 O -0.15186(18) 0.87506(9) 0.85166(8)
H41 H -0.243(3) 0.8686(14) 0.8511(12)
O3 O 0.03858(18) 1.02744(8) 0.93250(7)
H42 H 0.016(4) 1.0071(16) 0.8910(14)
O4 O 0.12568(15) 0.93508(7) 0.69704(6)
C39 C 0.7628(3) 0.22806(12) 0.91262(14)
H43 H 0.6746 0.2161 0.8842
Cl1 Cl 0.86766(9) 0.29433(3) 0.87919(4)
Cl2 Cl 0.88182(8) 0.15765(3) 0.92153(3)
Cl3 Cl 0.68247(13) 0.25306(5) 0.98278(4)
loop_
_geom_bond_atom_site_label_1
_geom_bond_atom_site_label_2
_geom_bond_site_symmetry_1
_geom_bond_site_symmetry_2
C1 H1 1_555 1_555
C2 C1 1_555 1_555
H2 C2 1_555 1_555
H3 C2 1_555 1_555
C3 C2 1_555 1_555
H4 C3 1_555 1_555
H5 C3 1_555 1_555
C4 C3 1_555 1_555
H6 C4 1_555 1_555
H7 C4 1_555 1_555
C5 C4 1_555 1_555
H8 C5 1_555 1_555
H9 C5 1_555 1_555
C6 C1 1_555 1_555
H10 C6 1_555 1_555
C7 C8 1_555 1_555
C8 H11 1_555 1_555
C9 C8 1_555 1_555
H12 C9 1_555 1_555
H13 C9 1_555 1_555
C10 C9 1_555 1_555
C11 C10 1_555 1_555
H14 C11 1_555 1_555
C12 C11 1_555 1_555
H15 C12 1_555 1_555
C13 C12 1_555 1_555
H16 C13 1_555 1_555
C14 C13 1_555 1_555
H17 C14 1_555 1_555
C15 C10 1_555 1_555
H18 C15 1_555 1_555
C16 H19 1_555 1_555
C17 C16 1_555 1_555
C18 C17 1_555 1_555
H20 C18 1_555 1_555
C19 C18 1_555 1_555
H21 C19 1_555 1_555
C20 C19 1_555 1_555
H22 C20 1_555 1_555
C21 C20 1_555 1_555
H23 C21 1_555 1_555
C22 C17 1_555 1_555
C23 C16 1_555 1_555
H24 C23 1_555 1_555
C24 C23 1_555 1_555
C25 C24 1_555 1_555
H25 C25 1_555 1_555
C26 C25 1_555 1_555
H26 C26 1_555 1_555
C27 C26 1_555 1_555
H27 C27 1_555 1_555
C28 C27 1_555 1_555
H28 C28 1_555 1_555
C29 C24 1_555 1_555
C30 H29 1_555 1_555
C31 C30 1_555 1_555
H30 C31 1_555 1_555
H31 C31 1_555 1_555
C32 C31 1_555 1_555
C33 C32 1_555 1_555
H32 C33 1_555 1_555
C34 C33 1_555 1_555
H33 C34 1_555 1_555
C35 C34 1_555 1_555
H34 C35 1_555 1_555
C36 C35 1_555 1_555
H35 C36 1_555 1_555
C37 C32 1_555 1_555
H36 C37 1_555 1_555
C38 C30 1_555 1_555
N1 C6 1_555 1_555
H37 N1 1_555 1_555
N2 C8 1_555 1_555
H38 N2 1_555 1_555
N3 C23 1_555 1_555
H39 N3 1_555 1_555
N4 C1 1_555 1_555
H40 N4 1_555 1_555
O1 C7 1_555 1_555
O2 C22 1_555 1_555
H41 O2 1_555 1_555
O3 C29 1_555 1_555
H42 O3 1_555 1_555
O4 C38 1_555 1_555
C39 H43 1_555 1_555
Cl1 C39 1_555 1_555
Cl2 C39 1_555 1_555
Cl3 C39 1_555 1_555
C5 C6 1_555 1_555
C7 N1 1_555 1_555
C14 C15 1_555 1_555
C16 N2 1_555 1_555
C21 C22 1_555 1_555
C28 C29 1_555 1_555
C30 N3 1_555 1_555
C36 C37 1_555 1_555
C38 N4 1_555 1_555

#END
