
#######################################################################
#
#                 Cambridge Crystallographic Data Centre
#                                CCDC 
#
#######################################################################
#
# If this CIF has been generated from an entry in the Cambridge 
# Structural Database, then it will include bibliographic, chemical, 
# crystal, experimental, refinement or atomic coordinate data resulting 
# from the CCDC's data processing and validation procedures.
#
#######################################################################

data_HIPDAO
_chemical_formula_moiety         'C8 H9 Br1 O2'
_chemical_name_systematic        
7-bromo-3a,4,5,7a-tetrahydro-1-benzofuran-2(3H)-one
_symmetry_cell_setting           monoclinic
_symmetry_space_group_name_H-M   'P 21/c'
_symmetry_Int_Tables_number      14
_space_group_name_Hall           '-P 2ybc'
loop_
_symmetry_equiv_pos_site_id
_symmetry_equiv_pos_as_xyz
1 x,y,z
2 -x,1/2+y,1/2-z
3 -x,-y,-z
4 x,1/2-y,1/2+z
_cell_length_a                   8.6931(6)
_cell_length_b                   10.0516(7)
_cell_length_c                   9.0312(7)
_cell_angle_alpha                90
_cell_angle_beta                 97.883(2)
_cell_angle_gamma                90
_cell_volume                     781.685
_exptl_crystal_colour            colorless
_exptl_crystal_description       plate
_cell_formula_units_Z            4
loop_
_atom_site_label
_atom_site_type_symbol
_atom_site_fract_x
_atom_site_fract_y
_atom_site_fract_z
Br1 Br 0.63211(2) 0.09102(2) 0.21930(2)
O1 O 0.29905(12) -0.04421(11) 0.13287(12)
O2 O 0.09444(14) -0.13174(13) -0.00923(13)
C1 C 0.44944(18) 0.09816(14) 0.31444(18)
C2 C 0.4193(2) 0.20240(15) 0.39515(18)
H1 H 0.4940 0.2716 0.4124
C3 C 0.2695(2) 0.21393(17) 0.46021(19)
H2 H 0.2342 0.3077 0.4550
H3 H 0.2868 0.1870 0.5666
C4 C 0.1442(2) 0.12555(17) 0.37471(19)
H4 H 0.0503 0.1270 0.4256
H5 H 0.1154 0.1611 0.2724
C5 C 0.20101(17) -0.01738(15) 0.36562(17)
H6 H 0.2186 -0.0583 0.4675
C6 C 0.09056(19) -0.10356(15) 0.25943(19)
H7 H 0.0900 -0.1964 0.2961
H8 H -0.0166 -0.0680 0.2493
C7 C 0.15373(19) -0.09704(14) 0.11240(19)
C8 C 0.34982(17) -0.02374(15) 0.29240(16)
H9 H 0.4123 -0.1025 0.3328
loop_
_geom_bond_atom_site_label_1
_geom_bond_atom_site_label_2
_geom_bond_site_symmetry_1
_geom_bond_site_symmetry_2
Br1 C1 1_555 1_555
O1 C7 1_555 1_555
O2 C7 1_555 1_555
C1 C2 1_555 1_555
C2 H1 1_555 1_555
C3 C2 1_555 1_555
H2 C3 1_555 1_555
H3 C3 1_555 1_555
C4 C3 1_555 1_555
H4 C4 1_555 1_555
H5 C4 1_555 1_555
C5 C4 1_555 1_555
H6 C5 1_555 1_555
C6 C5 1_555 1_555
H7 C6 1_555 1_555
H8 C6 1_555 1_555
C7 C6 1_555 1_555
C8 O1 1_555 1_555
H9 C8 1_555 1_555
C1 C8 1_555 1_555
C5 C8 1_555 1_555

#END
