
#######################################################################
#
#                 Cambridge Crystallographic Data Centre
#                                CCDC 
#
#######################################################################
#
# If this CIF has been generated from an entry in the Cambridge 
# Structural Database, then it will include bibliographic, chemical, 
# crystal, experimental, refinement or atomic coordinate data resulting 
# from the CCDC's data processing and validation procedures.
#
#######################################################################

data_HIPGOE
_chemical_formula_moiety         'C14 H18 N2 O3 S1'
_chemical_name_systematic        
4-Methyl-N-(1-(morpholin-4-yl)prop-2-en-1-ylidene)benzenesulfonamide
_symmetry_cell_setting           monoclinic
_symmetry_space_group_name_H-M   'P 21/n'
_symmetry_Int_Tables_number      14
_space_group_name_Hall           '-P 2yn'
loop_
_symmetry_equiv_pos_site_id
_symmetry_equiv_pos_as_xyz
1 x,y,z
2 1/2-x,1/2+y,1/2-z
3 -x,-y,-z
4 1/2+x,1/2-y,1/2+z
_cell_length_a                   8.2660(12)
_cell_length_b                   25.831(4)
_cell_length_c                   13.5551(19)
_cell_angle_alpha                90
_cell_angle_beta                 97.899(4)
_cell_angle_gamma                90
_cell_volume                     2866.81
_exptl_crystal_colour            colorless
_exptl_crystal_description       block
_cell_formula_units_Z            8
loop_
_atom_site_label
_atom_site_type_symbol
_atom_site_fract_x
_atom_site_fract_y
_atom_site_fract_z
S1 S 0.79608(5) -0.000561(15) 0.76648(3)
O1 O 0.80196(17) -0.01925(5) 0.86720(10)
O2 O 0.94278(14) -0.00558(5) 0.72067(11)
N1 N 0.63751(15) -0.02225(5) 0.69542(10)
O3 O 0.15918(14) -0.11268(5) 0.54461(9)
C1 C 0.6583(3) 0.23017(7) 0.77278(16)
H1 H 0.7403 0.2481 0.7423
H2 H 0.6625 0.2413 0.8407
H3 H 0.5525 0.2377 0.7371
C2 C 0.6891(2) 0.17253(6) 0.77012(12)
C3 C 0.64342(19) 0.14019(7) 0.84376(12)
H4 H 0.5930 0.1544 0.8948
C4 C 0.67161(18) 0.08723(6) 0.84264(12)
H5 H 0.6399 0.0661 0.8921
C5 C 0.74776(17) 0.06618(6) 0.76663(11)
C6 C 0.62279(18) -0.07195(6) 0.67224(11)
N2 N 0.48918(16) -0.08648(5) 0.61081(10)
C7 C 0.3728(2) -0.04795(7) 0.56374(15)
H6 H 0.3787 -0.0466 0.4928
H7 H 0.4010 -0.0140 0.5915
C8 C 0.2012(2) -0.06180(7) 0.58074(15)
H8 H 0.1931 -0.0601 0.6514
H9 H 0.1249 -0.0370 0.5468
C9 C 0.4431(2) -0.14009(6) 0.58296(14)
H10 H 0.5135 -0.1640 0.6240
H11 H 0.4566 -0.1461 0.5139
C10 C 0.2667(2) -0.14931(7) 0.59731(14)
H12 H 0.2347 -0.1839 0.5745
H13 H 0.2571 -0.1473 0.6677
C11 C 0.74851(19) -0.11116(6) 0.70985(13)
H14 H 0.7719 -0.1159 0.7783
C12 C 0.8280(2) -0.13936(7) 0.65217(15)
H15 H 0.8072 -0.1355 0.5834
H16 H 0.9052 -0.1633 0.6800
C13 C 0.79517(19) 0.09767(6) 0.69257(12)
H17 H 0.8466 0.0834 0.6421
C14 C 0.7653(2) 0.15051(7) 0.69438(12)
H18 H 0.7964 0.1715 0.6446
S2 S 0.17164(5) 0.244657(14) 0.58360(3)
O4 O 0.01445(17) 0.23221(5) 0.52841(10)
O5 O 0.31298(17) 0.23160(5) 0.53696(10)
N3 N 0.18661(17) 0.22382(5) 0.69667(10)
C15 C 0.1806(2) 0.47866(6) 0.62551(14)
H19 H 0.2831 0.4902 0.6606
H20 H 0.0933 0.4903 0.6599
H21 H 0.1666 0.4926 0.5592
C16 C 0.17909(19) 0.42026(6) 0.62044(11)
C17 C 0.32360(19) 0.39252(6) 0.62236(12)
H22 H 0.4226 0.4102 0.6291
C18 C 0.32267(19) 0.33888(6) 0.61434(12)
H23 H 0.4203 0.3209 0.6152
C19 C 0.17537(18) 0.31229(6) 0.60506(11)
C20 C 0.19033(17) 0.17401(6) 0.71818(11)
N4 N 0.20520(17) 0.16147(5) 0.81496(10)
C21 C 0.2338(2) 0.20230(7) 0.89096(12)
H24 H 0.2110 0.2358 0.8599
H25 H 0.3475 0.2018 0.9205
C22 C 0.1267(2) 0.19461(7) 0.97110(13)
H26 H 0.1526 0.2206 1.0224
H27 H 0.0132 0.1989 0.9428
O6 O 0.14927(13) 0.14438(5) 1.01442(8)
C23 C 0.03215(19) 0.39297(6) 0.61271(11)
H28 H -0.0655 0.4109 0.6122
C24 C 0.02982(18) 0.33914(6) 0.60574(11)
H29 H -0.0686 0.3213 0.6016
C25 C 0.17941(19) 0.13295(6) 0.64028(12)
H30 H 0.0865 0.1321 0.5931
C26 C 0.2931(2) 0.09773(7) 0.63404(14)
H31 H 0.3874 0.0975 0.6801
H32 H 0.2789 0.0731 0.5836
C27 C 0.2054(2) 0.10863(6) 0.85561(12)
H33 H 0.3164 0.0984 0.8805
H34 H 0.1628 0.0847 0.8033
C28 C 0.10107(19) 0.10624(7) 0.93947(12)
H35 H -0.0125 0.1117 0.9124
H36 H 0.1104 0.0721 0.9695
loop_
_geom_bond_atom_site_label_1
_geom_bond_atom_site_label_2
_geom_bond_site_symmetry_1
_geom_bond_site_symmetry_2
S1 O1 1_555 1_555
O2 S1 1_555 1_555
N1 S1 1_555 1_555
O3 C8 1_555 1_555
C1 H1 1_555 1_555
H2 C1 1_555 1_555
H3 C1 1_555 1_555
C2 C1 1_555 1_555
C3 C2 1_555 1_555
H4 C3 1_555 1_555
C4 C3 1_555 1_555
H5 C4 1_555 1_555
C5 S1 1_555 1_555
C6 N1 1_555 1_555
N2 C6 1_555 1_555
C7 N2 1_555 1_555
H6 C7 1_555 1_555
H7 C7 1_555 1_555
C8 C7 1_555 1_555
H8 C8 1_555 1_555
H9 C8 1_555 1_555
C9 N2 1_555 1_555
H10 C9 1_555 1_555
H11 C9 1_555 1_555
C10 O3 1_555 1_555
H12 C10 1_555 1_555
H13 C10 1_555 1_555
C11 C6 1_555 1_555
H14 C11 1_555 1_555
C12 C11 1_555 1_555
H15 C12 1_555 1_555
H16 C12 1_555 1_555
C13 C5 1_555 1_555
H17 C13 1_555 1_555
C14 C2 1_555 1_555
H18 C14 1_555 1_555
S2 O4 1_555 1_555
O5 S2 1_555 1_555
N3 S2 1_555 1_555
C15 H19 1_555 1_555
H20 C15 1_555 1_555
H21 C15 1_555 1_555
C16 C15 1_555 1_555
C17 C16 1_555 1_555
H22 C17 1_555 1_555
C18 C17 1_555 1_555
H23 C18 1_555 1_555
C19 S2 1_555 1_555
C20 N3 1_555 1_555
N4 C20 1_555 1_555
C21 N4 1_555 1_555
H24 C21 1_555 1_555
H25 C21 1_555 1_555
C22 C21 1_555 1_555
H26 C22 1_555 1_555
H27 C22 1_555 1_555
O6 C22 1_555 1_555
C23 C16 1_555 1_555
H28 C23 1_555 1_555
C24 C19 1_555 1_555
H29 C24 1_555 1_555
C25 C20 1_555 1_555
H30 C25 1_555 1_555
C26 C25 1_555 1_555
H31 C26 1_555 1_555
H32 C26 1_555 1_555
C27 N4 1_555 1_555
H33 C27 1_555 1_555
H34 C27 1_555 1_555
C28 O6 1_555 1_555
H35 C28 1_555 1_555
H36 C28 1_555 1_555
C4 C5 1_555 1_555
C9 C10 1_555 1_555
C13 C14 1_555 1_555
C18 C19 1_555 1_555
C23 C24 1_555 1_555
C27 C28 1_555 1_555

#END
