
#######################################################################
#
#                 Cambridge Crystallographic Data Centre
#                                CCDC 
#
#######################################################################
#
# If this CIF has been generated from an entry in the Cambridge 
# Structural Database, then it will include bibliographic, chemical, 
# crystal, experimental, refinement or atomic coordinate data resulting 
# from the CCDC's data processing and validation procedures.
#
#######################################################################

data_HIPGIY
_chemical_formula_moiety         'C24 H24 N2 O2 S1'
_chemical_name_systematic        
N,N-Dibenzyl-N'-((4-methylphenyl)sulfonyl)prop-2-enimidamide
_symmetry_cell_setting           monoclinic
_symmetry_space_group_name_H-M   'C 2/c'
_symmetry_Int_Tables_number      15
_space_group_name_Hall           '-C 2yn'
loop_
_symmetry_equiv_pos_site_id
_symmetry_equiv_pos_as_xyz
1 x,y,z
2 -x,y,1/2-z
3 1/2+x,1/2+y,z
4 1/2-x,1/2+y,1/2-z
5 -x,-y,-z
6 x,-y,1/2+z
7 1/2-x,1/2-y,-z
8 1/2+x,1/2-y,1/2+z
_cell_length_a                   20.925(3)
_cell_length_b                   11.0264(14)
_cell_length_c                   18.650(2)
_cell_angle_alpha                90
_cell_angle_beta                 92.884(5)
_cell_angle_gamma                90
_cell_volume                     4297.62
_exptl_crystal_colour            colorless
_exptl_crystal_description       block
_cell_formula_units_Z            8
loop_
_atom_site_label
_atom_site_type_symbol
_atom_site_fract_x
_atom_site_fract_y
_atom_site_fract_z
S1 S 0.55599(2) 0.69372(4) 0.12311(2)
O1 O 0.49601(6) 0.64441(13) 0.14329(9)
O2 O 0.56242(8) 0.71611(15) 0.04764(7)
N1 N 0.68181(7) 0.45374(14) 0.16278(8)
N2 N 0.61523(7) 0.61670(15) 0.15882(9)
C1 C 0.87689(11) 0.3647(2) 0.02252(11)
H1 H 0.9145 0.3704 -0.0019
C2 C 0.83154(14) 0.4559(3) 0.01602(15)
H2 H 0.8384 0.5225 -0.0132
C3 C 0.77592(13) 0.4478(2) 0.05311(14)
H3 H 0.7457 0.5097 0.0489
C4 C 0.76485(9) 0.34916(18) 0.09621(10)
C5 C 0.70458(10) 0.33668(17) 0.13693(11)
H4 H 0.6714 0.3001 0.1058
H5 H 0.7128 0.2830 0.1776
C6 C 0.63034(8) 0.51036(16) 0.13332(9)
C7 C 0.56853(8) 0.83299(16) 0.16840(9)
C8 C 0.57828(8) 0.83533(17) 0.24268(9)
H6 H 0.5796 0.7637 0.2690
C9 C 0.58603(8) 0.94657(18) 0.27679(10)
H7 H 0.5930 0.9488 0.3264
C10 C 0.58361(9) 1.05463(18) 0.23856(11)
C11 C 0.59154(12) 1.1742(2) 0.27700(14)
H8 H 0.5642 1.1763 0.3168
H9 H 0.5802 1.2391 0.2444
H10 H 0.6353 1.1835 0.2942
C12 C 0.72033(8) 0.50796(18) 0.22250(10)
H11 H 0.7107 0.5938 0.2253
H12 H 0.7654 0.4996 0.2134
C13 C 0.70740(8) 0.44855(17) 0.29329(10)
C14 C 0.64939(9) 0.46754(18) 0.32535(11)
H13 H 0.6186 0.5179 0.3034
C15 C 0.63762(11) 0.4116(2) 0.38969(12)
H14 H 0.5989 0.4246 0.4108
C16 C 0.68302(13) 0.3363(2) 0.42290(12)
H15 H 0.6748 0.2989 0.4662
C17 C 0.74052(13) 0.3168(2) 0.39169(13)
H16 H 0.7710 0.2659 0.4137
C18 C 0.75282(10) 0.3735(2) 0.32730(11)
H17 H 0.7919 0.3610 0.3067
C19 C 0.86642(10) 0.2666(2) 0.06469(11)
H18 H 0.8968 0.2051 0.0690
C20 C 0.81052(9) 0.25815(18) 0.10125(10)
H19 H 0.8036 0.1904 0.1296
C21 C 0.59390(11) 0.44787(18) 0.07348(10)
H20 H 0.6100 0.4503 0.0279
C22 C 0.54072(11) 0.3901(2) 0.08172(14)
H21 H 0.5236 0.3864 0.1267
H22 H 0.5197 0.3525 0.0426
C23 C 0.56566(9) 0.93891(18) 0.12896(10)
H23 H 0.5589 0.9364 0.0793
C24 C 0.57306(10) 1.04967(18) 0.16442(11)
H24 H 0.5709 1.1213 0.1381
loop_
_geom_bond_atom_site_label_1
_geom_bond_atom_site_label_2
_geom_bond_site_symmetry_1
_geom_bond_site_symmetry_2
S1 O1 1_555 1_555
O2 S1 1_555 1_555
N1 C5 1_555 1_555
N2 S1 1_555 1_555
C1 H1 1_555 1_555
C2 C1 1_555 1_555
H2 C2 1_555 1_555
C3 C2 1_555 1_555
H3 C3 1_555 1_555
C4 C3 1_555 1_555
C5 C4 1_555 1_555
H4 C5 1_555 1_555
H5 C5 1_555 1_555
C6 N1 1_555 1_555
C7 S1 1_555 1_555
C8 C7 1_555 1_555
H6 C8 1_555 1_555
C9 C8 1_555 1_555
H7 C9 1_555 1_555
C10 C9 1_555 1_555
C11 C10 1_555 1_555
H8 C11 1_555 1_555
H9 C11 1_555 1_555
H10 C11 1_555 1_555
C12 N1 1_555 1_555
H11 C12 1_555 1_555
H12 C12 1_555 1_555
C13 C12 1_555 1_555
C14 C13 1_555 1_555
H13 C14 1_555 1_555
C15 C14 1_555 1_555
H14 C15 1_555 1_555
C16 C15 1_555 1_555
H15 C16 1_555 1_555
C17 C16 1_555 1_555
H16 C17 1_555 1_555
C18 C13 1_555 1_555
H17 C18 1_555 1_555
C19 C1 1_555 1_555
H18 C19 1_555 1_555
C20 C4 1_555 1_555
H19 C20 1_555 1_555
C21 C6 1_555 1_555
H20 C21 1_555 1_555
C22 C21 1_555 1_555
H21 C22 1_555 1_555
H22 C22 1_555 1_555
C23 C7 1_555 1_555
H23 C23 1_555 1_555
C24 C10 1_555 1_555
H24 C24 1_555 1_555
N2 C6 1_555 1_555
C17 C18 1_555 1_555
C19 C20 1_555 1_555
C23 C24 1_555 1_555

#END
