
#######################################################################
#
#                 Cambridge Crystallographic Data Centre
#                                CCDC 
#
#######################################################################
#
# If this CIF has been generated from an entry in the Cambridge 
# Structural Database, then it will include bibliographic, chemical, 
# crystal, experimental, refinement or atomic coordinate data resulting 
# from the CCDC's data processing and validation procedures.
#
#######################################################################

data_HIPGEV
_chemical_formula_moiety         'C28 H30 N2 O2 S1'
_chemical_name_systematic        
'octyl 3-amino-4,6-diphenylthieno[2,3-b]pyridine-2-carboxylate'
_symmetry_cell_setting           triclinic
_symmetry_space_group_name_H-M   'P -1'
_symmetry_Int_Tables_number      2
_space_group_name_Hall           '-P 1'
loop_
_symmetry_equiv_pos_site_id
_symmetry_equiv_pos_as_xyz
1 x,y,z
2 -x,-y,-z
_cell_length_a                   10.400(2)
_cell_length_b                   10.620(2)
_cell_length_c                   12.070(2)
_cell_angle_alpha                72.74(3)
_cell_angle_beta                 80.96(3)
_cell_angle_gamma                70.48(3)
_cell_volume                     1197.41
_exptl_crystal_colour            yellow
_exptl_crystal_description       prism
_cell_formula_units_Z            2
loop_
_atom_site_label
_atom_site_type_symbol
_atom_site_fract_x
_atom_site_fract_y
_atom_site_fract_z
S1 S 0.12481(5) 0.35306(4) 0.39248(3)
C1 C 0.17755(18) 0.37895(17) 0.51324(13)
C2 C 0.21615(18) 0.49704(17) 0.48931(13)
N1 N 0.26533(17) 0.53753(17) 0.56737(13)
H1 H 0.268(2) 0.489(2) 0.6363(19)
H2 H 0.283(2) 0.615(2) 0.5472(18)
C3 C 0.20168(17) 0.57386(16) 0.36742(13)
C4 C 0.22861(18) 0.69881(17) 0.30266(14)
C5 C 0.20768(18) 0.74189(17) 0.18458(13)
H3 H 0.2274 0.8237 0.1384
C6 C 0.15777(18) 0.66682(17) 0.13165(13)
N2 N 0.12946(15) 0.54946(14) 0.19259(11)
C7 C 0.15329(18) 0.50601(17) 0.30617(14)
C8 C 0.17178(18) 0.27467(17) 0.62223(13)
O1 O 0.13172(14) 0.17547(13) 0.63334(10)
O2 O 0.21892(13) 0.29641(12) 0.71191(9)
C9 C 0.21494(19) 0.19435(17) 0.82336(13)
H4 H 0.2714 0.1009 0.8167
H5 H 0.1199 0.1929 0.8476
C10 C 0.2704(2) 0.23524(18) 0.91184(14)
H6 H 0.2181 0.3318 0.9128
H7 H 0.3672 0.2309 0.8891
C11 C 0.2603(2) 0.13893(18) 1.03401(14)
H8 H 0.3167 0.0433 1.0334
H9 H 0.1643 0.1390 1.0541
C12 C 0.30782(19) 0.18139(19) 1.12802(14)
H10 H 0.2679 0.2827 1.1162
H11 H 0.2724 0.1361 1.2052
C13 C 0.4636(2) 0.1431(2) 1.12757(16)
H12 H 0.5003 0.1779 1.0476
H13 H 0.5025 0.0409 1.1496
C14 C 0.5107(2) 0.2016(2) 1.21046(17)
H14 H 0.4540 0.1898 1.2845
H15 H 0.6066 0.1472 1.2277
C15 C 0.5017(2) 0.3537(2) 1.1627(2)
H16 H 0.4062 0.4083 1.1442
H17 H 0.5599 0.3656 1.0895
C16 C 0.5466(3) 0.4104(3) 1.2479(3)
H18 H 0.5413 0.5076 1.2122
H19 H 0.6410 0.3565 1.2669
H20 H 0.4864 0.4033 1.3191
C17 C 0.27296(19) 0.78491(17) 0.35796(13)
C18 C 0.1757(2) 0.8718(2) 0.41831(16)
H21 H 0.0823 0.8763 0.4229
C19 C 0.2142(2) 0.95188(19) 0.47185(15)
H22 H 0.1469 1.0107 0.5125
C20 C 0.3491(2) 0.9462(2) 0.46616(16)
H23 H 0.3757 0.9990 0.5045
C21 C 0.4465(2) 0.8624(3) 0.4037(2)
H24 H 0.5393 0.8602 0.3975
C22 C 0.4088(2) 0.7819(2) 0.35034(19)
H25 H 0.4760 0.7246 0.3085
C23 C 0.12874(18) 0.71352(17) 0.00622(13)
C24 C 0.10259(18) 0.62199(18) -0.04436(14)
H26 H 0.1072 0.5308 0.0010
C25 C 0.0700(2) 0.66263(18) -0.16007(14)
H27 H 0.0520 0.5998 -0.1930
C26 C 0.0639(2) 0.79622(19) -0.22720(14)
H28 H 0.0416 0.8245 -0.3060
C27 C 0.0903(2) 0.88753(19) -0.17909(14)
H29 H 0.0864 0.9782 -0.2252
C28 C 0.1225(2) 0.84698(19) -0.06305(14)
H30 H 0.1403 0.9105 -0.0308
loop_
_geom_bond_atom_site_label_1
_geom_bond_atom_site_label_2
_geom_bond_site_symmetry_1
_geom_bond_site_symmetry_2
S1 C1 1_555 1_555
C1 C2 1_555 1_555
C2 N1 1_555 1_555
N1 H1 1_555 1_555
H2 N1 1_555 1_555
C3 C2 1_555 1_555
C4 C3 1_555 1_555
C5 C4 1_555 1_555
H3 C5 1_555 1_555
C6 C5 1_555 1_555
N2 C6 1_555 1_555
C7 S1 1_555 1_555
C8 C1 1_555 1_555
O1 C8 1_555 1_555
O2 C8 1_555 1_555
C9 O2 1_555 1_555
H4 C9 1_555 1_555
H5 C9 1_555 1_555
C10 C9 1_555 1_555
H6 C10 1_555 1_555
H7 C10 1_555 1_555
C11 C10 1_555 1_555
H8 C11 1_555 1_555
H9 C11 1_555 1_555
C12 C11 1_555 1_555
H10 C12 1_555 1_555
H11 C12 1_555 1_555
C13 C12 1_555 1_555
H12 C13 1_555 1_555
H13 C13 1_555 1_555
C14 C13 1_555 1_555
H14 C14 1_555 1_555
H15 C14 1_555 1_555
C15 C14 1_555 1_555
H16 C15 1_555 1_555
H17 C15 1_555 1_555
C16 C15 1_555 1_555
H18 C16 1_555 1_555
H19 C16 1_555 1_555
H20 C16 1_555 1_555
C17 C4 1_555 1_555
C18 C17 1_555 1_555
H21 C18 1_555 1_555
C19 C18 1_555 1_555
H22 C19 1_555 1_555
C20 C19 1_555 1_555
H23 C20 1_555 1_555
C21 C20 1_555 1_555
H24 C21 1_555 1_555
C22 C17 1_555 1_555
H25 C22 1_555 1_555
C23 C6 1_555 1_555
C24 C23 1_555 1_555
H26 C24 1_555 1_555
C25 C24 1_555 1_555
H27 C25 1_555 1_555
C26 C25 1_555 1_555
H28 C26 1_555 1_555
C27 C26 1_555 1_555
H29 C27 1_555 1_555
C28 C23 1_555 1_555
H30 C28 1_555 1_555
C3 C7 1_555 1_555
N2 C7 1_555 1_555
C21 C22 1_555 1_555
C27 C28 1_555 1_555

#END
