
#######################################################################
#
#                 Cambridge Crystallographic Data Centre
#                                CCDC 
#
#######################################################################
#
# If this CIF has been generated from an entry in the Cambridge 
# Structural Database, then it will include bibliographic, chemical, 
# crystal, experimental, refinement or atomic coordinate data resulting 
# from the CCDC's data processing and validation procedures.
#
#######################################################################

data_HIPTOS
_chemical_formula_moiety         'C1 H6 N3 1+,N5 1-'
_chemical_name_systematic        'diaminomethaniminium pentazolide'
_symmetry_cell_setting           tetragonal
_symmetry_space_group_name_H-M   'I -4 2 d'
_symmetry_Int_Tables_number      122
_space_group_name_Hall           'I -4 2bw'
loop_
_symmetry_equiv_pos_site_id
_symmetry_equiv_pos_as_xyz
1 x,y,z
2 -x,-y,z
3 y,-x,-z
4 -y,x,-z
5 1/2-x,y,3/4-z
6 1/2+x,-y,3/4-z
7 1/2-y,-x,3/4+z
8 1/2+y,x,3/4+z
9 1/2+x,1/2+y,1/2+z
10 1/2-x,1/2-y,1/2+z
11 1/2+y,1/2-x,1/2-z
12 1/2-y,1/2+x,1/2-z
13 -x,1/2+y,1/4-z
14 x,1/2-y,1/4-z
15 -y,1/2-x,1/4+z
16 y,1/2+x,1/4+z
_cell_length_a                   12.679(2)
_cell_length_b                   12.679(2)
_cell_length_c                   7.0988(11)
_cell_angle_alpha                90
_cell_angle_beta                 90
_cell_angle_gamma                90
_cell_volume                     1141.18
_exptl_crystal_colour            colorless
_exptl_crystal_description       block
_cell_formula_units_Z            8
loop_
_atom_site_label
_atom_site_type_symbol
_atom_site_fract_x
_atom_site_fract_y
_atom_site_fract_z
C1 C -1.7500 -1.06061(17) -0.6250
N1 N -1.83236(11) -1.00962(11) -0.6942(2)
H1 H -1.8332 -0.9402 -0.6949
H2 H -1.8863 -1.0451 -0.7396
N2 N -1.7500 -1.16617(14) -0.6250
H3 H -1.6956 -1.2009 -0.5793
H3D H -1.8044 -1.2009 -0.6707
N1D N -1.66764(11) -1.00962(11) -0.5558(2)
H1D H -1.6668 -0.9402 -0.5551
H2D H -1.6137 -1.0451 -0.5104
N3 N -1.90631(10) -0.79863(10) -0.8410(2)
N4 N -2.00517(11) -0.82839(11) -0.8204(2)
N5 N -2.06654(15) -0.7500 -0.8750
N3M N -1.90631(10) -0.70137(10) -0.9090(2)
N4M N -2.00517(11) -0.67161(11) -0.9296(2)
H4? H -1.6956 -1.2009 -0.5793
loop_
_geom_bond_atom_site_label_1
_geom_bond_atom_site_label_2
_geom_bond_site_symmetry_1
_geom_bond_site_symmetry_2
C1 N1 1_555 1_555
N1 H1 1_555 1_555
H2 N1 1_555 1_555
N2 C1 1_555 1_555
H3 N2 1_555 1_555
N3 N4 1_555 1_555
N4 N5 1_555 1_555
N5 N4M 1_555 1_555
H3D N2 1_555 1_555
N1D C1 1_555 1_555
H1D N1D 1_555 1_555
H2D N1D 1_555 1_555
N3M N3 1_555 1_555
N4M N3M 1_555 1_555

#END
