
#######################################################################
#
#                 Cambridge Crystallographic Data Centre
#                                CCDC 
#
#######################################################################
#
# If this CIF has been generated from an entry in the Cambridge 
# Structural Database, then it will include bibliographic, chemical, 
# crystal, experimental, refinement or atomic coordinate data resulting 
# from the CCDC's data processing and validation procedures.
#
#######################################################################

data_HIPTIM
_chemical_formula_moiety         'C1 H7 N4 1+,N3 1-'
_chemical_name_systematic        'amino(hydrazinyl)methaniminium azide'
_symmetry_cell_setting           monoclinic
_symmetry_space_group_name_H-M   'P 21/c'
_symmetry_Int_Tables_number      14
_space_group_name_Hall           '-P 2ybc'
loop_
_symmetry_equiv_pos_site_id
_symmetry_equiv_pos_as_xyz
1 x,y,z
2 -x,1/2+y,1/2-z
3 -x,-y,-z
4 x,1/2-y,1/2+z
_cell_length_a                   7.284(2)
_cell_length_b                   12.374(3)
_cell_length_c                   6.1660(17)
_cell_angle_alpha                90
_cell_angle_beta                 107.499(4)
_cell_angle_gamma                90
_cell_volume                     530.036
_exptl_crystal_colour            colorless
_exptl_crystal_description       block
_cell_formula_units_Z            4
loop_
_atom_site_label
_atom_site_type_symbol
_atom_site_fract_x
_atom_site_fract_y
_atom_site_fract_z
C1 C 0.42781(14) 0.61463(7) 0.59095(17)
N1 N 0.43355(14) 0.67341(8) 0.41241(17)
H1 H 0.5446 0.6969 0.4018
H2 H 0.3263 0.6888 0.3049
N2 N 0.58829(12) 0.59120(7) 0.75284(15)
H3 H 0.5836 0.5534 0.8719
H4 H 0.6998 0.6134 0.7416
N3 N 0.25768(12) 0.58192(7) 0.60433(15)
H5 H 0.1523 0.5970 0.4937
N4 N 0.24586(12) 0.52312(8) 0.79544(15)
H6 H 0.196(2) 0.4622(13) 0.749(3)
H7 H 0.168(2) 0.5573(12) 0.856(3)
N5 N 0.85533(12) 0.68273(7) 0.50903(15)
N6 N 0.94768(11) 0.76246(7) 0.54919(14)
N7 N 1.04054(13) 0.84192(8) 0.58844(16)
loop_
_geom_bond_atom_site_label_1
_geom_bond_atom_site_label_2
_geom_bond_site_symmetry_1
_geom_bond_site_symmetry_2
C1 N1 1_555 1_555
N1 H1 1_555 1_555
H2 N1 1_555 1_555
N2 C1 1_555 1_555
H3 N2 1_555 1_555
H4 N2 1_555 1_555
N3 C1 1_555 1_555
H5 N3 1_555 1_555
N4 N3 1_555 1_555
H6 N4 1_555 1_555
H7 N4 1_555 1_555
N5 N6 1_555 1_555
N6 N7 1_555 1_555

#END
