
#######################################################################
#
#                 Cambridge Crystallographic Data Centre
#                                CCDC 
#
#######################################################################
#
# If this CIF has been generated from an entry in the Cambridge 
# Structural Database, then it will include bibliographic, chemical, 
# crystal, experimental, refinement or atomic coordinate data resulting 
# from the CCDC's data processing and validation procedures.
#
#######################################################################

data_HIPVIO
_chemical_formula_moiety         'N5 1-,H5 N2 1+'
_chemical_name_systematic        'hydrazinium pentazolide'
_symmetry_cell_setting           monoclinic
_symmetry_space_group_name_H-M   'P 21/c'
_symmetry_Int_Tables_number      14
_space_group_name_Hall           '-P 2ybc'
loop_
_symmetry_equiv_pos_site_id
_symmetry_equiv_pos_as_xyz
1 x,y,z
2 -x,1/2+y,1/2-z
3 -x,-y,-z
4 x,1/2-y,1/2+z
_cell_length_a                   6.4517(5)
_cell_length_b                   12.2378(9)
_cell_length_c                   5.4024(4)
_cell_angle_alpha                90
_cell_angle_beta                 97.747(2)
_cell_angle_gamma                90
_cell_volume                     422.651
_exptl_crystal_colour            colorless
_exptl_crystal_description       block
_cell_formula_units_Z            4
loop_
_atom_site_label
_atom_site_type_symbol
_atom_site_fract_x
_atom_site_fract_y
_atom_site_fract_z
N1 N 0.46921(13) 0.65969(7) 0.45169(16)
N2 N 0.30260(14) 0.63926(7) 0.28775(16)
N3 N 0.17595(13) 0.57573(7) 0.39649(16)
N4 N 0.26405(13) 0.55725(7) 0.62842(15)
N5 N 0.44509(13) 0.60877(7) 0.66170(15)
N6 N 0.77194(13) 0.64614(7) 1.07763(15)
H1 H 0.796(2) 0.7023(12) 1.180(2)
H2 H 0.795(2) 0.5846(11) 1.169(2)
H3 H 0.639(2) 0.6463(10) 1.001(2)
N7 N 0.90546(13) 0.65956(7) 0.88439(15)
H4 H 0.888(2) 0.5970(12) 0.793(3)
H5 H 1.033(2) 0.6599(11) 0.960(3)
loop_
_geom_bond_atom_site_label_1
_geom_bond_atom_site_label_2
_geom_bond_site_symmetry_1
_geom_bond_site_symmetry_2
N1 N2 1_555 1_555
N2 N3 1_555 1_555
N3 N4 1_555 1_555
N4 N5 1_555 1_555
N5 N1 1_555 1_555
N6 H1 1_555 1_555
H2 N6 1_555 1_555
H3 N6 1_555 1_555
N7 N6 1_555 1_555
H4 N7 1_555 1_555
H5 N7 1_555 1_555

#END
