
#######################################################################
#
#                 Cambridge Crystallographic Data Centre
#                                CCDC 
#
#######################################################################
#
# If this CIF has been generated from an entry in the Cambridge 
# Structural Database, then it will include bibliographic, chemical, 
# crystal, experimental, refinement or atomic coordinate data resulting 
# from the CCDC's data processing and validation procedures.
#
#######################################################################

data_HIPVUA
_chemical_formula_moiety         'N5 1-,H4 N1 1+'
_chemical_name_systematic        'ammonium pentazolide'
_symmetry_cell_setting           orthorhombic
_symmetry_space_group_name_H-M   'P c c a'
_symmetry_Int_Tables_number      54
_space_group_name_Hall           '-P 2a 2ac'
loop_
_symmetry_equiv_pos_site_id
_symmetry_equiv_pos_as_xyz
1 x,y,z
2 1/2-x,-y,z
3 -x,y,1/2-z
4 1/2+x,-y,1/2-z
5 -x,-y,-z
6 1/2+x,y,-z
7 x,-y,1/2+z
8 1/2-x,y,1/2+z
_cell_length_a                   9.4905(17)
_cell_length_b                   3.9137(7)
_cell_length_c                   10.3616(17)
_cell_angle_alpha                90
_cell_angle_beta                 90
_cell_angle_gamma                90
_cell_volume                     384.861
_exptl_crystal_colour            colorless
_exptl_crystal_description       block
_cell_formula_units_Z            4
loop_
_atom_site_label
_atom_site_type_symbol
_atom_site_fract_x
_atom_site_fract_y
_atom_site_fract_z
N1 N 0.30865(11) 0.5898(3) 0.43203(10)
N2 N 0.34458(12) 0.6452(3) 0.55324(11)
N3 N 0.2500 0.5000 0.62766(14)
N1A N 0.19135(11) 0.4102(3) 0.43203(10)
N2A N 0.15542(12) 0.3548(3) 0.55324(11)
N4 N 0.5000 0.9444(4) 0.2500
H1 H 0.4340(17) 0.822(4) 0.2931(15)
H2 H 0.5432(17) 1.074(4) 0.3120(15)
H1B H 0.5660(17) 0.822(4) 0.2069(15)
H2B H 0.4568(17) 1.074(4) 0.1880(15)
loop_
_geom_bond_atom_site_label_1
_geom_bond_atom_site_label_2
_geom_bond_site_symmetry_1
_geom_bond_site_symmetry_2
N1 N2 1_555 1_555
N2 N3 1_555 1_555
N3 N2A 1_555 1_555
N4 H1 1_555 1_555
H2 N4 1_555 1_555
N1A N1 1_555 1_555
N2A N1A 1_555 1_555
H1B N4 1_555 1_555
H2B N4 1_555 1_555

#END
