
#######################################################################
#
#                 Cambridge Crystallographic Data Centre
#                                CCDC 
#
#######################################################################
#
# If this CIF has been generated from an entry in the Cambridge 
# Structural Database, then it will include bibliographic, chemical, 
# crystal, experimental, refinement or atomic coordinate data resulting 
# from the CCDC's data processing and validation procedures.
#
#######################################################################

data_HIQFAQ
_chemical_formula_moiety         'C17 H18 N2 O6'
_chemical_name_systematic        
'Methyl 5,8-dimethyl-4,6,10-trioxo-16-oxa-5,9-diazapentacyclo[11.2.1.0^1,11^.0^2,9^.0^3,7^]hexadec-14-ene-8-carboxylate'
_symmetry_cell_setting           monoclinic
_symmetry_space_group_name_H-M   'P 21/a'
_symmetry_Int_Tables_number      14
_space_group_name_Hall           '-P 2yab'
loop_
_symmetry_equiv_pos_site_id
_symmetry_equiv_pos_as_xyz
1 x,y,z
2 1/2-x,1/2+y,-z
3 -x,-y,-z
4 1/2+x,1/2-y,z
_cell_length_a                   19.6023(7)
_cell_length_b                   9.3326(3)
_cell_length_c                   20.4991(8)
_cell_angle_alpha                90
_cell_angle_beta                 116.287(5)
_cell_angle_gamma                90
_cell_volume                     3362.3
_exptl_crystal_colour            colorless
_exptl_crystal_description       rod
_cell_formula_units_Z            8
loop_
_atom_site_label
_atom_site_type_symbol
_atom_site_fract_x
_atom_site_fract_y
_atom_site_fract_z
O1 O 0.29168(7) 0.18742(13) 0.43297(6)
O2 O 0.17136(9) -0.05608(16) 0.40431(8)
O3 O 0.05284(9) 0.36514(17) 0.31455(9)
O4 O 0.14866(10) 0.56415(17) 0.23082(10)
O5 O 0.20131(8) 0.46884(14) 0.34243(7)
O6 O 0.32461(8) 0.43472(16) 0.30456(8)
N1 N 0.24434(8) 0.24400(15) 0.28303(7)
N2 N 0.11515(8) 0.16392(17) 0.37532(8)
C1 C 0.31185(10) 0.3125(2) 0.31733(10)
C2 C 0.36701(10) 0.2120(2) 0.37479(10)
H1 H 0.4018 0.1645 0.3591
C3 C 0.40830(11) 0.2766(3) 0.45139(11)
H2 H 0.4005 0.3793 0.4510
H3 H 0.4624 0.2563 0.4733
C4 C 0.36799(11) 0.1960(2) 0.49035(10)
H4 H 0.3726 0.2409 0.5353
C5 C 0.39194(13) 0.0408(3) 0.49758(12)
H5 H 0.4253 -0.0056 0.5399
C6 C 0.35635(13) -0.0160(2) 0.43236(12)
H6 H 0.3588 -0.1103 0.4189
C7 C 0.31064(10) 0.10517(19) 0.38413(9)
C8 C 0.24431(10) 0.09711(18) 0.30911(9)
H7 H 0.2564 0.0296 0.2791
C9 C 0.16210(10) 0.07179(18) 0.29736(9)
H8 H 0.1399 -0.0087 0.2639
C10 C 0.15243(11) 0.0480(2) 0.36573(10)
C11 C 0.09129(10) 0.2616(2) 0.31922(11)
C12 C 0.11739(10) 0.20919(19) 0.26368(9)
H9 H 0.0724 0.1840 0.2188
C13 C 0.16941(10) 0.30933(19) 0.24385(9)
C14 C 0.17157(11) 0.4635(2) 0.27070(11)
C15 C 0.20605(18) 0.6093(3) 0.37394(18)
H10 H 0.1569 0.6541 0.3520
H11 H 0.2418 0.6669 0.3653
H12 H 0.2226 0.6001 0.4254
C16 C 0.09384(17) 0.1725(3) 0.43452(15)
H13 H 0.0980 0.0793 0.4558
H14 H 0.0423 0.2058 0.4162
H15 H 0.1271 0.2380 0.4707
C17 C 0.14508(14) 0.3083(3) 0.16217(10)
H16 H 0.1800 0.3649 0.1518
H17 H 0.0948 0.3477 0.1371
H18 H 0.1451 0.2116 0.1462
O7 O 0.46939(6) 0.68997(12) 0.14846(6)
O8 O 0.47301(8) 0.46601(17) 0.25569(8)
O9 O 0.33051(10) 0.82845(19) 0.27468(8)
O10 O 0.22024(8) 0.98411(15) 0.11214(10)
O11 O 0.34421(7) 0.94169(15) 0.14914(8)
O12 O 0.30140(8) 0.88363(16) -0.00389(8)
N3 N 0.30736(7) 0.69573(15) 0.06993(7)
N4 N 0.41731(9) 0.66755(18) 0.27364(8)
C18 C 0.33008(9) 0.7719(2) 0.02691(9)
C19 C 0.39672(9) 0.69280(19) 0.02498(9)
H19 H 0.3818 0.6385 -0.0202
C20 C 0.46903(10) 0.7820(2) 0.04414(11)
H20 H 0.4604 0.8830 0.0487
H21 H 0.4886 0.7695 0.0086
C21 C 0.52250(9) 0.7145(2) 0.11859(10)
H22 H 0.5668 0.7730 0.1490
C22 C 0.54070(10) 0.5635(2) 0.10557(10)
H23 H 0.5865 0.5306 0.1078
C23 C 0.47890(9) 0.4874(2) 0.09043(9)
H24 H 0.4720 0.3898 0.0805
C24 C 0.42201(8) 0.59292(17) 0.09277(8)
C25 C 0.34841(8) 0.56106(17) 0.09698(8)
H25 H 0.3215 0.4839 0.0628
C26 C 0.34477(9) 0.53395(17) 0.16931(9)
H26 H 0.3221 0.4399 0.1683
C27 C 0.41989(10) 0.5471(2) 0.23645(9)
C28 C 0.34709(11) 0.7305(2) 0.24618(10)
C29 C 0.29455(9) 0.65283(18) 0.17714(9)
H27 H 0.2527 0.6092 0.1840
C30 C 0.26113(9) 0.74321(18) 0.10526(9)
C31 C 0.27163(10) 0.90426(19) 0.12136(10)
C32 C 0.36103(17) 1.0910(3) 0.16852(17)
H28 H 0.3397 1.1486 0.1253
H29 H 0.4152 1.1044 0.1927
H30 H 0.3394 1.1190 0.2004
C33 C 0.48076(16) 0.7141(4) 0.34069(14)
H31 H 0.4683 0.7010 0.3806
H32 H 0.4909 0.8136 0.3369
H33 H 0.5251 0.6586 0.3489
C34 C 0.17728(9) 0.7088(2) 0.05917(11)
H34 H 0.1587 0.7614 0.0144
H35 H 0.1488 0.7353 0.0852
H36 H 0.1715 0.6079 0.0489
loop_
_geom_bond_atom_site_label_1
_geom_bond_atom_site_label_2
_geom_bond_site_symmetry_1
_geom_bond_site_symmetry_2
O1 C4 1_555 1_555
O2 C10 1_555 1_555
O3 C11 1_555 1_555
O4 C14 1_555 1_555
O5 C14 1_555 1_555
O6 C1 1_555 1_555
N1 C1 1_555 1_555
N2 C10 1_555 1_555
C1 C2 1_555 1_555
C2 H1 1_555 1_555
C3 C2 1_555 1_555
H2 C3 1_555 1_555
H3 C3 1_555 1_555
C4 C3 1_555 1_555
H4 C4 1_555 1_555
C5 C4 1_555 1_555
H5 C5 1_555 1_555
C6 C5 1_555 1_555
H6 C6 1_555 1_555
C7 O1 1_555 1_555
C8 N1 1_555 1_555
H7 C8 1_555 1_555
C9 C8 1_555 1_555
H8 C9 1_555 1_555
C10 C9 1_555 1_555
C11 N2 1_555 1_555
C12 C9 1_555 1_555
H9 C12 1_555 1_555
C13 N1 1_555 1_555
C14 C13 1_555 1_555
C15 O5 1_555 1_555
H10 C15 1_555 1_555
H11 C15 1_555 1_555
H12 C15 1_555 1_555
C16 N2 1_555 1_555
H13 C16 1_555 1_555
H14 C16 1_555 1_555
H15 C16 1_555 1_555
C17 C13 1_555 1_555
H16 C17 1_555 1_555
H17 C17 1_555 1_555
H18 C17 1_555 1_555
O7 C21 1_555 1_555
O8 C27 1_555 1_555
O9 C28 1_555 1_555
O10 C31 1_555 1_555
O11 C31 1_555 1_555
O12 C18 1_555 1_555
N3 C18 1_555 1_555
N4 C27 1_555 1_555
C18 C19 1_555 1_555
C19 H19 1_555 1_555
C20 C19 1_555 1_555
H20 C20 1_555 1_555
H21 C20 1_555 1_555
C21 C20 1_555 1_555
H22 C21 1_555 1_555
C22 C21 1_555 1_555
H23 C22 1_555 1_555
C23 C22 1_555 1_555
H24 C23 1_555 1_555
C24 O7 1_555 1_555
C25 N3 1_555 1_555
H25 C25 1_555 1_555
C26 C25 1_555 1_555
H26 C26 1_555 1_555
C27 C26 1_555 1_555
C28 N4 1_555 1_555
C29 C26 1_555 1_555
H27 C29 1_555 1_555
C30 N3 1_555 1_555
C31 C30 1_555 1_555
C32 O11 1_555 1_555
H28 C32 1_555 1_555
H29 C32 1_555 1_555
H30 C32 1_555 1_555
C33 N4 1_555 1_555
H31 C33 1_555 1_555
H32 C33 1_555 1_555
H33 C33 1_555 1_555
C34 C30 1_555 1_555
H34 C34 1_555 1_555
H35 C34 1_555 1_555
H36 C34 1_555 1_555
C2 C7 1_555 1_555
C6 C7 1_555 1_555
C7 C8 1_555 1_555
C11 C12 1_555 1_555
C12 C13 1_555 1_555
C19 C24 1_555 1_555
C23 C24 1_555 1_555
C24 C25 1_555 1_555
C28 C29 1_555 1_555
C29 C30 1_555 1_555

#END
