
#######################################################################
#
#                 Cambridge Crystallographic Data Centre
#                                CCDC 
#
#######################################################################
#
# If this CIF has been generated from an entry in the Cambridge 
# Structural Database, then it will include bibliographic, chemical, 
# crystal, experimental, refinement or atomic coordinate data resulting 
# from the CCDC's data processing and validation procedures.
#
#######################################################################

data_HIQGOF
_chemical_formula_moiety         'C15 H19 N3 O3'
_chemical_name_systematic        
3,3-Dimethyl-8-(morpholin-4-yl)-6-oxo-3,4,6,7-tetrahydro-1H-pyrano[3,4-c]pyridine-5-carbonitrile
_symmetry_cell_setting           monoclinic
_symmetry_space_group_name_H-M   'P 21/c'
_symmetry_Int_Tables_number      14
_space_group_name_Hall           '-P 2ybc'
loop_
_symmetry_equiv_pos_site_id
_symmetry_equiv_pos_as_xyz
1 x,y,z
2 -x,1/2+y,1/2-z
3 -x,-y,-z
4 x,1/2-y,1/2+z
_cell_length_a                   6.7098(13)
_cell_length_b                   12.620(3)
_cell_length_c                   17.826(4)
_cell_angle_alpha                90
_cell_angle_beta                 99.05(3)
_cell_angle_gamma                90
_cell_volume                     1490.67
_exptl_crystal_colour            colorless
_exptl_crystal_description       prism
_cell_formula_units_Z            4
loop_
_atom_site_label
_atom_site_type_symbol
_atom_site_fract_x
_atom_site_fract_y
_atom_site_fract_z
C1 C 0.5837(3) 0.27561(18) 0.35785(9)
H1 H 0.593(3) 0.3263(16) 0.3210(12)
H2 H 0.523(3) 0.212(2) 0.3322(13)
O1 O 0.78517(17) 0.24943(10) 0.38963(6)
C2 C 0.7984(2) 0.18657(13) 0.45779(9)
C3 C 0.7395(2) 0.25948(14) 0.51865(9)
H3 H 0.846(3) 0.3176(17) 0.5316(12)
H4 H 0.730(3) 0.2196(17) 0.5625(12)
C4 C 0.5427(2) 0.31508(12) 0.49294(8)
C5 C 0.4447(2) 0.36435(12) 0.54684(8)
C6 C 0.2651(2) 0.42311(13) 0.52525(8)
H5 H 0.071(3) 0.4562(17) 0.4350(12)
N1 N 0.1940(2) 0.42480(10) 0.44818(7)
C7 C 0.2821(2) 0.37480(12) 0.39399(8)
C8 C 0.4641(2) 0.32053(12) 0.41593(8)
C9 C 1.0181(3) 0.15390(17) 0.47600(11)
H6 H 1.047(3) 0.1154(17) 0.5248(12)
H7 H 1.052(4) 0.1085(19) 0.4344(13)
H8 H 1.103(4) 0.215(2) 0.4794(13)
C10 C 0.6649(3) 0.08883(17) 0.44723(15)
H9 H 0.528(4) 0.1071(18) 0.4415(12)
H10 H 0.690(4) 0.043(2) 0.4956(16)
H11 H 0.694(4) 0.045(2) 0.4053(15)
C11 C 0.5181(3) 0.35757(14) 0.62638(9)
N2 N 0.5758(3) 0.35105(17) 0.68976(9)
N3 N 0.1902(2) 0.38445(11) 0.32000(6)
C12 C 0.0364(3) 0.46536(16) 0.29868(9)
H12 H 0.076(3) 0.5302(15) 0.3268(10)
H13 H -0.098(5) 0.440(2) 0.3034(17)
C13 C 0.0253(5) 0.48946(19) 0.21536(10)
H14 H -0.096(4) 0.538(2) 0.1993(13)
H15 H 0.163(4) 0.523(2) 0.2118(15)
O2 O -0.0170(3) 0.39859(14) 0.16899(7)
C14 C 0.1334(4) 0.3203(2) 0.19005(11)
H16 H 0.285(4) 0.352(2) 0.1843(15)
H17 H 0.088(4) 0.2542(19) 0.1573(14)
C15 C 0.1442(3) 0.28977(15) 0.27191(10)
H18 H 0.006(4) 0.2595(17) 0.2797(12)
H19 H 0.246(3) 0.2326(16) 0.2865(11)
O3 O 0.16889(19) 0.46859(12) 0.56993(6)
loop_
_geom_bond_atom_site_label_1
_geom_bond_atom_site_label_2
_geom_bond_site_symmetry_1
_geom_bond_site_symmetry_2
C1 H1 1_555 1_555
H2 C1 1_555 1_555
O1 C1 1_555 1_555
C2 O1 1_555 1_555
C3 C2 1_555 1_555
H3 C3 1_555 1_555
H4 C3 1_555 1_555
C4 C3 1_555 1_555
C5 C4 1_555 1_555
C6 C5 1_555 1_555
H5 N1 1_555 1_555
N1 C6 1_555 1_555
C7 N1 1_555 1_555
C8 C1 1_555 1_555
C9 C2 1_555 1_555
H6 C9 1_555 1_555
H7 C9 1_555 1_555
H8 C9 1_555 1_555
C10 C2 1_555 1_555
H9 C10 1_555 1_555
H10 C10 1_555 1_555
H11 C10 1_555 1_555
C11 C5 1_555 1_555
N2 C11 1_555 1_555
N3 C7 1_555 1_555
C12 N3 1_555 1_555
H12 C12 1_555 1_555
H13 C12 1_555 1_555
C13 C12 1_555 1_555
H14 C13 1_555 1_555
H15 C13 1_555 1_555
O2 C13 1_555 1_555
C14 O2 1_555 1_555
H16 C14 1_555 1_555
H17 C14 1_555 1_555
C15 N3 1_555 1_555
H18 C15 1_555 1_555
H19 C15 1_555 1_555
O3 C6 1_555 1_555
C4 C8 1_555 1_555
C7 C8 1_555 1_555
C14 C15 1_555 1_555

#END
