
#######################################################################
#
#                 Cambridge Crystallographic Data Centre
#                                CCDC 
#
#######################################################################
#
# If this CIF has been generated from an entry in the Cambridge 
# Structural Database, then it will include bibliographic, chemical, 
# crystal, experimental, refinement or atomic coordinate data resulting 
# from the CCDC's data processing and validation procedures.
#
#######################################################################

data_HIQKIB
_chemical_formula_moiety         'C8 H10 N2 O2,H2 O1'
_chemical_name_systematic        
'2-Acetylamino-6-methylpyridine N-oxide monohydrate'
_symmetry_cell_setting           triclinic
_symmetry_space_group_name_H-M   'P -1'
_symmetry_Int_Tables_number      2
_space_group_name_Hall           '-P 1'
loop_
_symmetry_equiv_pos_site_id
_symmetry_equiv_pos_as_xyz
1 x,y,z
2 -x,-y,-z
_cell_length_a                   7.1276(6)
_cell_length_b                   7.8860(6)
_cell_length_c                   8.9938(7)
_cell_angle_alpha                100.143(2)
_cell_angle_beta                 91.493(2)
_cell_angle_gamma                110.972(1)
_cell_volume                     462.473
_exptl_crystal_colour            colorless
_exptl_crystal_description       block
_cell_formula_units_Z            2
_exptl_crystal_recrystallization_method chloroform
loop_
_atom_site_label
_atom_site_type_symbol
_atom_site_fract_x
_atom_site_fract_y
_atom_site_fract_z
O1 O 0.38168(17) 0.78512(13) 0.38537(11)
O2 O 0.2021(2) 0.72978(17) 0.88469(12)
N1 N 0.31208(16) 0.62365(15) 0.42950(12)
N2 N 0.31271(19) 0.80037(17) 0.66086(13)
C1 C 0.2808(2) 0.4624(2) 0.32906(17)
C2 C 0.2099(2) 0.2980(2) 0.3793(2)
C3 C 0.1677(2) 0.2955(2) 0.5274(2)
C4 C 0.1975(2) 0.4583(2) 0.62801(18)
C5 C 0.27204(19) 0.62381(19) 0.57748(15)
C6 C 0.2702(2) 0.8452(2) 0.80674(15)
C7 C 0.3099(3) 1.0459(2) 0.8614(2)
C8 C 0.3251(4) 0.4764(3) 0.1700(2)
H1 H 0.364(3) 0.890(3) 0.608(2)
H2 H 0.190(3) 0.189(3) 0.305(3)
H3 H 0.117(4) 0.181(3) 0.562(3)
H4 H 0.166(3) 0.462(2) 0.730(2)
H5 H 0.196(6) 1.075(4) 0.847(4)
H6 H 0.362(5) 1.079(4) 0.965(4)
H7 H 0.403(5) 1.119(4) 0.809(4)
H8 H 0.285(3) 0.358(3) 0.114(3)
H9 H 0.461(4) 0.554(4) 0.164(3)
H10 H 0.248(4) 0.541(3) 0.129(3)
O3 O 0.1230(3) 0.8634(2) 0.18875(18)
H11 H 0.197(4) 0.839(3) 0.253(3)
H12 H 0.128(5) 0.810(4) 0.098(4)
loop_
_geom_bond_atom_site_label_1
_geom_bond_atom_site_label_2
_geom_bond_site_symmetry_1
_geom_bond_site_symmetry_2
O1 N1 1_555 1_555
O2 C6 1_555 1_555
N1 C1 1_555 1_555
N2 C5 1_555 1_555
C1 C2 1_555 1_555
C2 C3 1_555 1_555
C3 C4 1_555 1_555
C4 C5 1_555 1_555
C5 N1 1_555 1_555
C6 N2 1_555 1_555
C7 C6 1_555 1_555
C8 C1 1_555 1_555
H1 N2 1_555 1_555
H2 C2 1_555 1_555
H3 C3 1_555 1_555
H4 C4 1_555 1_555
H5 C7 1_555 1_555
H6 C7 1_555 1_555
H7 C7 1_555 1_555
H8 C8 1_555 1_555
H9 C8 1_555 1_555
H10 C8 1_555 1_555
O3 H11 1_555 1_555
H12 O3 1_555 1_555

#END
