
#######################################################################
#
#                 Cambridge Crystallographic Data Centre
#                                CCDC 
#
#######################################################################
#
# If this CIF has been generated from an entry in the Cambridge 
# Structural Database, then it will include bibliographic, chemical, 
# crystal, experimental, refinement or atomic coordinate data resulting 
# from the CCDC's data processing and validation procedures.
#
#######################################################################

data_HIQNEA
_chemical_formula_moiety         'C30 H24 N2 O9'
_chemical_name_systematic        N-Benzoyl-2',3'-di-O-benzoyluridine
_symmetry_cell_setting           monoclinic
_symmetry_space_group_name_H-M   'P 2'
_symmetry_Int_Tables_number      3
_space_group_name_Hall           'P 2y'
loop_
_symmetry_equiv_pos_site_id
_symmetry_equiv_pos_as_xyz
1 x,y,z
2 -x,y,-z
_cell_length_a                   14.202(2)
_cell_length_b                   5.737(3)
_cell_length_c                   33.319(5)
_cell_angle_alpha                90
_cell_angle_beta                 92.93(2)
_cell_angle_gamma                90
_cell_volume                     2711.18
_exptl_crystal_colour            colorless
_exptl_crystal_description       Plate
_cell_formula_units_Z            4
_exptl_crystal_recrystallization_method 'aqueous acetonitrile'
loop_
_atom_site_label
_atom_site_type_symbol
_atom_site_fract_x
_atom_site_fract_y
_atom_site_fract_z
N1 N 0.5198(2) 0.9501(7) 0.39547(7)
C1 C 0.4780(2) 1.1014(8) 0.36737(9)
O1 O 0.4957(2) 1.1024(7) 0.33264(7)
N2 N 0.4119(2) 1.2514(7) 0.38264(7)
C2 C 0.3936(2) 1.2761(9) 0.42345(9)
O2 O 0.3430(2) 1.4366(7) 0.43344(7)
C3 C 0.4363(2) 1.1029(9) 0.44894(9)
H1 H 0.4224(2) 1.0978(9) 0.47590(9)
C4 C 0.4962(2) 0.9476(8) 0.43467(9)
H2 H 0.5224(2) 0.8348(8) 0.45188(9)
C5 C 0.5869(2) 0.7764(8) 0.37952(9)
H3 H 0.5643(2) 0.7274(8) 0.35253(9)
C6 C 0.6866(2) 0.8735(7) 0.37788(9)
H4 H 0.6886(2) 1.0425(7) 0.37382(9)
O3 O 0.7275(2) 0.7422(6) 0.34626(6)
C7 C 0.7296(2) 0.7948(7) 0.41880(9)
H5 H 0.7101(2) 0.9001(7) 0.44001(9)
O4 O 0.82925(14) 0.7698(6) 0.42082(7)
C8 C 0.6860(2) 0.5555(8) 0.42385(9)
H6 H 0.7208(2) 0.4422(8) 0.40832(9)
O5 O 0.59137(14) 0.5821 0.40509(7)
C9 C 0.6818(2) 0.4689(8) 0.46603(10)
H7 H 0.6502(2) 0.3189(8) 0.46610(10)
H8 H 0.7452(2) 0.4486(8) 0.47776(10)
O6 O 0.6320(2) 0.6314(7) 0.48912(7)
H9 H 0.6296(25) 0.5833(34) 0.5122(3)
C10 C 0.3644(2) 1.4171(8) 0.35485(10)
O7 O 0.4084(2) 1.5732(8) 0.34150(10)
C11 C 0.2635(2) 1.3772(8) 0.34510(9)
C12 C 0.2146(3) 1.5481(10) 0.32360(13)
H10 H 0.2460(3) 1.6807(10) 0.31537(13)
C13 C 0.1193(3) 1.5229(12) 0.3143(2)
H11 H 0.0866(3) 1.6397(12) 0.3001(2)
C14 C 0.0726(3) 1.3280(12) 0.3258(2)
H12 H 0.0084(3) 1.3118(12) 0.3193(2)
C15 C 0.1207(3) 1.1548(11) 0.34703(15)
H13 H 0.0888(3) 1.0223(11) 0.35494(15)
C16 C 0.2166(2) 1.1774(9) 0.35667(11)
H14 H 0.2492(2) 1.0599(9) 0.37074(11)
C17 C 0.8027(2) 0.8377(9) 0.32885(10)
O8 O 0.8385(2) 1.0168(7) 0.34009(9)
C18 C 0.8329(2) 0.6909(9) 0.29509(9)
C19 C 0.9042(3) 0.7761(11) 0.27184(11)
H15 H 0.9322(3) 0.9189(11) 0.27814(11)
C20 C 0.9334(3) 0.6499(13) 0.23966(12)
H16 H 0.9811(3) 0.7068(13) 0.22427(12)
C21 C 0.8918(4) 0.4401(13) 0.23038(13)
H17 H 0.9123(4) 0.3538(13) 0.20887(13)
C22 C 0.8196(4) 0.3546(11) 0.25257(13)
H18 H 0.7910(4) 0.2135(11) 0.24563(13)
C23 C 0.7903(3) 0.4805(9) 0.28522(12)
H19 H 0.7422(3) 0.4236(9) 0.30040(12)
C24 C 0.8797(2) 0.9606(8) 0.43245(10)
O9 O 0.8440(2) 1.1438(7) 0.43950(9)
C25 C 0.9828(2) 0.9110(8) 0.43566(10)
C26 C 1.0415(3) 1.0801(9) 0.45265(11)
H20 H 1.0166(3) 1.2210(9) 0.46095(11)
C27 C 1.1374(3) 1.0393(10) 0.45728(13)
H21 H 1.1768(3) 1.1520(10) 0.46914(13)
C28 C 1.1746(3) 0.8336(10) 0.44446(14)
H22 H 1.2392(3) 0.8071(10) 0.44763(14)
C29 C 1.1162(3) 0.6652(10) 0.4268(2)
H23 H 1.1417(3) 0.5273(10) 0.4175(2)
C30 C 1.0196(3) 0.7025(9) 0.42297(13)
H24 H 0.9799(3) 0.5877(9) 0.41194(13)
N3 N 0.9628(2) 0.8273(7) 0.10175(7)
C31 C 0.9982(2) 0.9823(7) 0.13070(9)
O10 O 0.9706(2) 0.9901(7) 0.16432(7)
N4 N 1.0671(2) 1.1302(7) 0.11807(8)
C32 C 1.0957(2) 1.1548(9) 0.07895(10)
O11 O 1.1524(2) 1.3065(7) 0.07121(8)
C33 C 1.0561(2) 0.9828(9) 0.05144(10)
H25 H 1.0738(2) 0.9805(9) 0.02496(10)
C34 C 0.9944(2) 0.8273(9) 0.06379(9)
H26 H 0.9718(2) 0.7141(9) 0.04578(9)
C35 C 0.8899(2) 0.6629(8) 0.11536(9)
H27 H 0.9052(2) 0.6157(8) 0.14320(9)
C36 C 0.7924(2) 0.7722(8) 0.11210(10)
H28 H 0.7944(2) 0.9429(8) 0.11331(10)
O12 O 0.7365(2) 0.6724(7) 0.14216(8)
C37 C 0.7541(2) 0.6810(8) 0.07141(10)
H29 H 0.7750(2) 0.7794(8) 0.04953(10)
O13 O 0.6543(2) 0.6542(7) 0.06876(9)
C38 C 0.7974(2) 0.4408(8) 0.06956(10)
H30 H 0.7594(2) 0.3322(8) 0.08469(10)
O14 O 0.8886(2) 0.4663(6) 0.09019(7)
C39 C 0.8091(3) 0.3431(9) 0.02821(11)
H31 H 0.8415(3) 0.1944(9) 0.03016(11)
H32 H 0.7478(3) 0.3184(9) 0.01469(11)
O15 O 0.8620(2) 0.5025(7) 0.00610(8)
H33 H 0.8660(29) 0.4543(42) -0.0169(4)
C40 C 1.1092(2) 1.2834(8) 0.14981(10)
O16 O 1.0824(2) 1.4789(7) 0.15232(10)
C41 C 1.1813(3) 1.1727(9) 0.17662(11)
C42 C 1.2281(4) 0.9742(11) 0.1665(2)
H34 H 1.2125(4) 0.9013(11) 0.1421(2)
C43 C 1.2977(5) 0.8809(15) 0.1918(2)
H35 H 1.3321(5) 0.7522(15) 0.1839(2)
C44 C 1.3158(5) 0.9807(19) 0.2289(2)
H36 H 1.3595(5) 0.9130(19) 0.2470(2)
C45 C 1.2708(6) 1.1741(21) 0.2388(2)
H37 H 1.2844(6) 1.2418(21) 0.2638(2)
C46 C 1.2040(4) 1.2762(15) 0.21268(15)
H38 H 1.1748(4) 1.4145(15) 0.21966(15)
C47 C 0.7032(3) 0.8149(10) 0.17003(14)
O17 O 0.7266(4) 1.0111(10) 0.1728(2)
C48 C 0.6373(3) 0.6960(11) 0.19588(12)
C49 C 0.6137(4) 0.8112(16) 0.23090(14)
H39 H 0.6390(4) 0.9569(16) 0.23719(14)
C50 C 0.5516(4) 0.7052(20) 0.2563(2)
H40 H 0.5355(4) 0.7790(20) 0.2798(2)
C51 C 0.5157(6) 0.4988(20) 0.2466(2)
H41 H 0.4751(6) 0.4282(20) 0.2639(2)
C52 C 0.5365(6) 0.3863(18) 0.2122(3)
H42 H 0.5084(6) 0.2437(18) 0.2058(3)
C53 C 0.5994(4) 0.4841(11) 0.1866(2)
H43 H 0.6155(4) 0.4060(11) 0.1635(2)
C54 C 0.6020(3) 0.8453(8) 0.06224(12)
O18 O 0.6360(2) 1.0310(7) 0.05659(14)
C55 C 0.4997(3) 0.7988(9) 0.06314(13)
C56 C 0.4363(3) 0.9629(11) 0.0500(2)
H44 H 0.4572(3) 1.1042(11) 0.0401(2)
C57 C 0.3399(4) 0.9197(15) 0.0513(2)
H45 H 0.2969(4) 1.0283(15) 0.0407(2)
C58 C 0.3088(3) 0.7240(12) 0.0678(2)
H46 H 0.2443(3) 0.7013(12) 0.0695(2)
C59 C 0.3698(4) 0.5573(14) 0.0819(3)
H47 H 0.3475(4) 0.4216(14) 0.0934(3)
C60 C 0.4662(4) 0.5929(12) 0.0789(3)
H48 H 0.5085(4) 0.4776(12) 0.0876(3)
loop_
_geom_bond_atom_site_label_1
_geom_bond_atom_site_label_2
_geom_bond_site_symmetry_1
_geom_bond_site_symmetry_2
N1 C1 1_555 1_555
C1 O1 1_555 1_555
N2 C1 1_555 1_555
C2 N2 1_555 1_555
O2 C2 1_555 1_555
C3 C2 1_555 1_555
H1 C3 1_555 1_555
C4 N1 1_555 1_555
H2 C4 1_555 1_555
C5 N1 1_555 1_555
H3 C5 1_555 1_555
C6 C5 1_555 1_555
H4 C6 1_555 1_555
O3 C6 1_555 1_555
C7 C6 1_555 1_555
H5 C7 1_555 1_555
O4 C7 1_555 1_555
C8 C7 1_555 1_555
H6 C8 1_555 1_555
O5 C5 1_555 1_555
C9 C8 1_555 1_555
H7 C9 1_555 1_555
H8 C9 1_555 1_555
O6 C9 1_555 1_555
H9 O6 1_555 1_555
C10 N2 1_555 1_555
O7 C10 1_555 1_555
C11 C10 1_555 1_555
C12 C11 1_555 1_555
H10 C12 1_555 1_555
C13 C12 1_555 1_555
H11 C13 1_555 1_555
C14 C13 1_555 1_555
H12 C14 1_555 1_555
C15 C14 1_555 1_555
H13 C15 1_555 1_555
C16 C11 1_555 1_555
H14 C16 1_555 1_555
C17 O3 1_555 1_555
O8 C17 1_555 1_555
C18 C17 1_555 1_555
C19 C18 1_555 1_555
H15 C19 1_555 1_555
C20 C19 1_555 1_555
H16 C20 1_555 1_555
C21 C20 1_555 1_555
H17 C21 1_555 1_555
C22 C21 1_555 1_555
H18 C22 1_555 1_555
C23 C18 1_555 1_555
H19 C23 1_555 1_555
C24 O4 1_555 1_555
O9 C24 1_555 1_555
C25 C24 1_555 1_555
C26 C25 1_555 1_555
H20 C26 1_555 1_555
C27 C26 1_555 1_555
H21 C27 1_555 1_555
C28 C27 1_555 1_555
H22 C28 1_555 1_555
C29 C28 1_555 1_555
H23 C29 1_555 1_555
C30 C25 1_555 1_555
H24 C30 1_555 1_555
N3 C31 1_555 1_555
C31 O10 1_555 1_555
N4 C31 1_555 1_555
C32 N4 1_555 1_555
O11 C32 1_555 1_555
C33 C32 1_555 1_555
H25 C33 1_555 1_555
C34 N3 1_555 1_555
H26 C34 1_555 1_555
C35 N3 1_555 1_555
H27 C35 1_555 1_555
C36 C35 1_555 1_555
H28 C36 1_555 1_555
O12 C36 1_555 1_555
C37 C36 1_555 1_555
H29 C37 1_555 1_555
O13 C37 1_555 1_555
C38 C37 1_555 1_555
H30 C38 1_555 1_555
O14 C35 1_555 1_555
C39 C38 1_555 1_555
H31 C39 1_555 1_555
H32 C39 1_555 1_555
O15 C39 1_555 1_555
H33 O15 1_555 1_555
C40 N4 1_555 1_555
O16 C40 1_555 1_555
C41 C40 1_555 1_555
C42 C41 1_555 1_555
H34 C42 1_555 1_555
C43 C42 1_555 1_555
H35 C43 1_555 1_555
C44 C43 1_555 1_555
H36 C44 1_555 1_555
C45 C44 1_555 1_555
H37 C45 1_555 1_555
C46 C41 1_555 1_555
H38 C46 1_555 1_555
C47 O12 1_555 1_555
O17 C47 1_555 1_555
C48 C47 1_555 1_555
C49 C48 1_555 1_555
H39 C49 1_555 1_555
C50 C49 1_555 1_555
H40 C50 1_555 1_555
C51 C50 1_555 1_555
H41 C51 1_555 1_555
C52 C51 1_555 1_555
H42 C52 1_555 1_555
C53 C48 1_555 1_555
H43 C53 1_555 1_555
C54 O13 1_555 1_555
O18 C54 1_555 1_555
C55 C54 1_555 1_555
C56 C55 1_555 1_555
H44 C56 1_555 1_555
C57 C56 1_555 1_555
H45 C57 1_555 1_555
C58 C57 1_555 1_555
H46 C58 1_555 1_555
C59 C58 1_555 1_555
H47 C59 1_555 1_555
C60 C55 1_555 1_555
H48 C60 1_555 1_555
C3 C4 1_555 1_555
C8 O5 1_555 1_555
C15 C16 1_555 1_555
C22 C23 1_555 1_555
C29 C30 1_555 1_555
C33 C34 1_555 1_555
C38 O14 1_555 1_555
C45 C46 1_555 1_555
C52 C53 1_555 1_555
C59 C60 1_555 1_555

#END
