
#######################################################################
#
#                 Cambridge Crystallographic Data Centre
#                                CCDC 
#
#######################################################################
#
# If this CIF has been generated from an entry in the Cambridge 
# Structural Database, then it will include bibliographic, chemical, 
# crystal, experimental, refinement or atomic coordinate data resulting 
# from the CCDC's data processing and validation procedures.
#
#######################################################################

data_HIQRIL
_chemical_formula_moiety         'C15 H19 N3 O3 S2'
_chemical_name_systematic        
N-[2-methyl-1-(methylsulfanyl)propan-2-yl]-2-(4-nitrophenyl)-4,5-dihydro-1,3-thiazole-4-carboxamide
_symmetry_cell_setting           triclinic
_symmetry_space_group_name_H-M   'P -1'
_symmetry_Int_Tables_number      2
_space_group_name_Hall           '-P 1'
loop_
_symmetry_equiv_pos_site_id
_symmetry_equiv_pos_as_xyz
1 x,y,z
2 -x,-y,-z
_cell_length_a                   8.3113(17)
_cell_length_b                   10.479(2)
_cell_length_c                   10.670(2)
_cell_angle_alpha                108.77(3)
_cell_angle_beta                 93.45(3)
_cell_angle_gamma                106.29(3)
_cell_volume                     832.899
_exptl_crystal_colour            white
_exptl_crystal_description       block
_cell_formula_units_Z            2
loop_
_atom_site_label
_atom_site_type_symbol
_atom_site_fract_x
_atom_site_fract_y
_atom_site_fract_z
S1 S 0.25394(5) -0.14259(5) 0.21092(5)
S2 S 0.02000(6) 0.43947(5) 0.32335(4)
O1 O -0.40969(18) -0.29370(17) 0.59593(15)
O2 O -0.55266(16) -0.18261(14) 0.52236(13)
O3 O 0.42391(15) 0.21165(12) 0.03457(13)
N1 N -0.42830(18) -0.22290(15) 0.52852(13)
N2 N 0.08693(17) 0.01877(14) 0.16797(14)
N3 N 0.19355(16) 0.26230(13) 0.11895(13)
H1 H 0.1097(16) 0.2354(18) 0.1638(15)
C1 C -0.0295(2) -0.19139(17) 0.38368(16)
H2 H 0.0673 -0.2224 0.3856
C2 C -0.1558(2) -0.23023(17) 0.45607(16)
H3 H -0.1472 -0.2882 0.5071
C3 C -0.2937(2) -0.18268(16) 0.45218(15)
C4 C -0.3123(2) -0.09875(17) 0.37849(16)
H4 H -0.4092 -0.0677 0.3777
C5 C -0.1861(2) -0.06151(17) 0.30631(16)
H5 H -0.1963 -0.0043 0.2549
C6 C -0.04355(19) -0.10725(15) 0.30814(14)
C7 C 0.08859(19) -0.06666(14) 0.22908(14)
C8 C 0.2224(2) 0.03147(17) 0.08706(17)
H6 H 0.1712 -0.0353 -0.0065
C9 C 0.3606(2) -0.01887(17) 0.13453(18)
H7 H 0.4520 0.0618 0.2006
H8 H 0.4106 -0.0663 0.0581
C10 C 0.2921(2) 0.17974(16) 0.07959(15)
C11 C 0.22975(19) 0.41092(15) 0.12671(15)
C12 C 0.3862(2) 0.50716(17) 0.23225(16)
H9 H 0.3675 0.4984 0.3193
H10 H 0.4058 0.6060 0.2390
H11 H 0.4856 0.4789 0.2061
C13 C 0.2557(2) 0.42290(17) -0.01048(16)
H12 H 0.3508 0.3895 -0.0399
H13 H 0.2808 0.5223 -0.0034
H14 H 0.1521 0.3646 -0.0759
C14 C 0.0710(2) 0.45100(16) 0.16332(15)
H15 H -0.0268 0.3873 0.0919
H16 H 0.0880 0.5494 0.1663
C15 C -0.2062(3) 0.3837(3) 0.2881(3)
H17 H -0.2428 0.4557 0.2650
H18 H -0.2526 0.3717 0.3674
H19 H -0.2476 0.2931 0.2126
loop_
_geom_bond_atom_site_label_1
_geom_bond_atom_site_label_2
_geom_bond_site_symmetry_1
_geom_bond_site_symmetry_2
S1 C7 1_555 1_555
S2 C14 1_555 1_555
O1 N1 1_555 1_555
O2 N1 1_555 1_555
O3 C10 1_555 1_555
N1 C3 1_555 1_555
N2 C7 1_555 1_555
N3 H1 1_555 1_555
C1 H2 1_555 1_555
C2 C1 1_555 1_555
H3 C2 1_555 1_555
C3 C2 1_555 1_555
C4 C3 1_555 1_555
H4 C4 1_555 1_555
C5 C4 1_555 1_555
H5 C5 1_555 1_555
C6 C1 1_555 1_555
C7 C6 1_555 1_555
C8 N2 1_555 1_555
H6 C8 1_555 1_555
C9 S1 1_555 1_555
H7 C9 1_555 1_555
H8 C9 1_555 1_555
C10 N3 1_555 1_555
C11 N3 1_555 1_555
C12 C11 1_555 1_555
H9 C12 1_555 1_555
H10 C12 1_555 1_555
H11 C12 1_555 1_555
C13 C11 1_555 1_555
H12 C13 1_555 1_555
H13 C13 1_555 1_555
H14 C13 1_555 1_555
C14 C11 1_555 1_555
H15 C14 1_555 1_555
H16 C14 1_555 1_555
C15 S2 1_555 1_555
H17 C15 1_555 1_555
H18 C15 1_555 1_555
H19 C15 1_555 1_555
C5 C6 1_555 1_555
C8 C9 1_555 1_555
C8 C10 1_555 1_555

#END
