
#######################################################################
#
#                 Cambridge Crystallographic Data Centre
#                                CCDC 
#
#######################################################################
#
# If this CIF has been generated from an entry in the Cambridge 
# Structural Database, then it will include bibliographic, chemical, 
# crystal, experimental, refinement or atomic coordinate data resulting 
# from the CCDC's data processing and validation procedures.
#
#######################################################################

data_HIQTAC
_chemical_formula_moiety         'C24 H22 N2 O3'
_chemical_name_systematic        
'Methyl (2S)-2-((5R)-3,5-diphenyl-4,5-dihydro-1,2,4-oxadiazol-4-yl)-3-phenylpropanoate'
_chemical_properties_biological  
'possible antiviral, antifungal, nematocidal and insecticidal activity; possible antimalarial drug; potential activity as central nervous system depress ant and muscarinic agonist'
_symmetry_cell_setting           orthorhombic
_symmetry_space_group_name_H-M   'P 21 21 21'
_symmetry_Int_Tables_number      19
_space_group_name_Hall           'P 2ac 2ab'
loop_
_symmetry_equiv_pos_site_id
_symmetry_equiv_pos_as_xyz
1 x,y,z
2 1/2-x,-y,1/2+z
3 -x,1/2+y,1/2-z
4 1/2+x,1/2-y,-z
_cell_length_a                   14.671(4)
_cell_length_b                   15.135(2)
_cell_length_c                   9.328(2)
_cell_angle_alpha                90
_cell_angle_beta                 90
_cell_angle_gamma                90
_cell_volume                     2071.24
_exptl_crystal_colour            colorless
_exptl_crystal_description       prism
_chemical_melting_point          376-377K
_cell_formula_units_Z            4
_exptl_crystal_recrystallization_method 'diethyl ether'
loop_
_atom_site_label
_atom_site_type_symbol
_atom_site_fract_x
_atom_site_fract_y
_atom_site_fract_z
O1 O 0.54955(17) 0.31756(12) 0.5438(3)
O2 O 0.61771(15) 0.52926(16) 0.9470(3)
O3 O 0.66479(16) 0.45039(18) 0.7633(3)
N1 N 0.49001(16) 0.44068(12) 0.6493(2)
N2 N 0.54930(19) 0.38824(16) 0.4419(3)
C1 C 0.5050(2) 0.34561(16) 0.6736(4)
H1 H 0.5463 0.3375 0.7551
C2 C 0.4197(2) 0.29424(16) 0.6980(3)
C3 C 0.4093(2) 0.24624(17) 0.8229(4)
H2 H 0.4556 0.2462 0.8911
C4 C 0.3300(3) 0.1978(2) 0.8476(4)
H3 H 0.3230 0.1663 0.9325
C5 C 0.2623(3) 0.1969(2) 0.7460(4)
H4 H 0.2099 0.1636 0.7612
C6 C 0.2717(3) 0.2449(2) 0.6218(4)
H5 H 0.2254 0.2449 0.5537
C7 C 0.3501(2) 0.29305(19) 0.5990(4)
H6 H 0.3561 0.3255 0.5148
C8 C 0.5178(2) 0.45588(18) 0.5091(3)
C9 C 0.5038(2) 0.54075(17) 0.4356(3)
C10 C 0.4271(2) 0.59087(18) 0.4652(4)
H7 H 0.3859 0.5719 0.5344
C11 C 0.4117(3) 0.6689(2) 0.3926(4)
H8 H 0.3604 0.7025 0.4138
C12 C 0.4718(3) 0.6971(2) 0.2893(5)
H9 H 0.4610 0.7497 0.2405
C13 C 0.5469(3) 0.6481(2) 0.2583(4)
H10 H 0.5869 0.6671 0.1874
C14 C 0.5648(2) 0.5692(2) 0.3320(4)
H11 H 0.6168 0.5365 0.3116
C15 C 0.51024(18) 0.50266(16) 0.7642(3)
H12 H 0.5099 0.5615 0.7204
C16 C 0.4353(2) 0.50365(18) 0.8789(3)
H13 H 0.4224 0.4436 0.9089
H14 H 0.4566 0.5362 0.9620
C17 C 0.34902(19) 0.54556(18) 0.8235(3)
C18 C 0.3426(3) 0.63754(19) 0.8116(4)
H15 H 0.3900 0.6729 0.8448
C19 C 0.2673(3) 0.6759(2) 0.7513(4)
H16 H 0.2643 0.7371 0.7431
C20 C 0.1958(3) 0.6251(3) 0.7029(4)
H17 H 0.1453 0.6514 0.6604
C21 C 0.2005(2) 0.5365(3) 0.7180(4)
H18 H 0.1519 0.5018 0.6878
C22 C 0.2760(2) 0.4967(2) 0.7774(3)
H19 H 0.2774 0.4355 0.7864
C23 C 0.6054(2) 0.48922(18) 0.8226(4)
C24 C 0.7073(2) 0.5228(3) 1.0118(4)
H20 H 0.7077 0.5543 1.1011
H21 H 0.7518 0.5479 0.9484
H22 H 0.7217 0.4618 1.0289
loop_
_geom_bond_atom_site_label_1
_geom_bond_atom_site_label_2
_geom_bond_site_symmetry_1
_geom_bond_site_symmetry_2
O1 N2 1_555 1_555
O2 C23 1_555 1_555
O3 C23 1_555 1_555
N1 C1 1_555 1_555
N2 C8 1_555 1_555
C1 O1 1_555 1_555
H1 C1 1_555 1_555
C2 C1 1_555 1_555
C3 C2 1_555 1_555
H2 C3 1_555 1_555
C4 C3 1_555 1_555
H3 C4 1_555 1_555
C5 C4 1_555 1_555
H4 C5 1_555 1_555
C6 C5 1_555 1_555
H5 C6 1_555 1_555
C7 C2 1_555 1_555
H6 C7 1_555 1_555
C8 N1 1_555 1_555
C9 C8 1_555 1_555
C10 C9 1_555 1_555
H7 C10 1_555 1_555
C11 C10 1_555 1_555
H8 C11 1_555 1_555
C12 C11 1_555 1_555
H9 C12 1_555 1_555
C13 C12 1_555 1_555
H10 C13 1_555 1_555
C14 C9 1_555 1_555
H11 C14 1_555 1_555
C15 N1 1_555 1_555
H12 C15 1_555 1_555
C16 C15 1_555 1_555
H13 C16 1_555 1_555
H14 C16 1_555 1_555
C17 C16 1_555 1_555
C18 C17 1_555 1_555
H15 C18 1_555 1_555
C19 C18 1_555 1_555
H16 C19 1_555 1_555
C20 C19 1_555 1_555
H17 C20 1_555 1_555
C21 C20 1_555 1_555
H18 C21 1_555 1_555
C22 C17 1_555 1_555
H19 C22 1_555 1_555
C23 C15 1_555 1_555
C24 O2 1_555 1_555
H20 C24 1_555 1_555
H21 C24 1_555 1_555
H22 C24 1_555 1_555
C6 C7 1_555 1_555
C13 C14 1_555 1_555
C21 C22 1_555 1_555

#END
