
#######################################################################
#
#                 Cambridge Crystallographic Data Centre
#                                CCDC 
#
#######################################################################
#
# If this CIF has been generated from an entry in the Cambridge 
# Structural Database, then it will include bibliographic, chemical, 
# crystal, experimental, refinement or atomic coordinate data resulting 
# from the CCDC's data processing and validation procedures.
#
#######################################################################

data_HIQVUY
_chemical_name_common            
'1-(2-Aminoethyl)-2,3-diphenylpiperazine hydrochloride'
_chemical_formula_moiety         'C18 H24 N3 1+,Cl1 1-'
_chemical_name_systematic        
'2-(2,3-Diphenylpiperazin-1-yl)ethylammonium chloride'
_symmetry_cell_setting           orthorhombic
_symmetry_space_group_name_H-M   'P b c a'
_symmetry_Int_Tables_number      61
_space_group_name_Hall           '-P 2ac 2ab'
loop_
_symmetry_equiv_pos_site_id
_symmetry_equiv_pos_as_xyz
1 x,y,z
2 1/2+x,1/2-y,-z
3 -x,1/2+y,1/2-z
4 1/2-x,-y,1/2+z
5 -x,-y,-z
6 1/2-x,1/2+y,z
7 x,1/2-y,1/2+z
8 1/2+x,y,1/2-z
_cell_length_a                   13.585(2)
_cell_length_b                   35.391(7)
_cell_length_c                   7.067(2)
_cell_angle_alpha                90
_cell_angle_beta                 90
_cell_angle_gamma                90
_cell_volume                     3397.72
_exptl_crystal_colour            colorless
_exptl_crystal_description       Prism
_cell_formula_units_Z            8
_exptl_crystal_recrystallization_method dichloromethane/hexane
loop_
_atom_site_label
_atom_site_type_symbol
_atom_site_fract_x
_atom_site_fract_y
_atom_site_fract_z
Cl1 Cl 0.36663(7) 0.21005(2) 0.06956(14)
N1 N 0.2382(2) 0.32845(8) -0.0691(4)
N2 N 0.0923(2) 0.32753(7) 0.2226(4)
N3 N -0.0850(2) 0.29555(8) 0.3798(4)
C1 C 0.2074(3) 0.39631(10) -0.1286(5)
C2 C 0.1506(3) 0.41894(10) -0.2452(6)
C3 C 0.1821(3) 0.45455(11) -0.2978(6)
C4 C 0.2712(4) 0.46786(11) -0.2365(7)
C5 C 0.3291(3) 0.44580(13) -0.1251(7)
C6 C 0.2980(3) 0.41028(11) -0.0694(6)
C7 C 0.1665(2) 0.35932(9) -0.0564(5)
C8 C 0.1870(3) 0.29348(9) -0.0200(6)
C9 C 0.1580(2) 0.29540(9) 0.1845(5)
C10 C 0.0706(3) 0.33042(10) 0.4247(5)
C11 C 0.0068(3) 0.29817(11) 0.4932(6)
C12 C 0.1323(2) 0.36346(9) 0.1502(5)
C13 C 0.0550(2) 0.39408(9) 0.1596(5)
C14 C -0.0389(3) 0.38711(10) 0.0893(6)
C15 C -0.1072(3) 0.41573(11) 0.0802(6)
C16 C -0.0833(3) 0.45180(12) 0.1394(7)
C17 C 0.0085(4) 0.45856(11) 0.2121(7)
C18 C 0.0775(3) 0.42986(10) 0.2226(6)
H1 H 0.2584 0.3277 -0.1842
H2 H -0.1244 0.2749 0.4256
H3 H -0.0687 0.2913 0.2495
H4 H -0.1213 0.3187 0.3916
H5 H 0.0902 0.4101 -0.2889
H6 H 0.1427 0.4695 -0.3748
H7 H 0.2914 0.4920 -0.2708
H8 H 0.3905 0.4545 -0.0876
H9 H 0.3377 0.3957 0.0089
H10 H 0.1092 0.3528 -0.1339
H11 H 0.2300 0.2720 -0.0412
H12 H 0.1289 0.2904 -0.0984
H13 H 0.1251 0.2721 0.2201
H14 H 0.2168 0.2978 0.2619
H15 H 0.0375 0.3542 0.4492
H16 H 0.1321 0.3305 0.4951
H17 H 0.0430 0.2746 0.4830
H18 H -0.0097 0.3020 0.6253
H19 H 0.1885 0.3709 0.2287
H20 H -0.0557 0.3630 0.0475
H21 H -0.1701 0.4107 0.0344
H22 H -0.1292 0.4712 0.1301
H23 H 0.0245 0.4826 0.2552
H24 H 0.1396 0.4348 0.2728
loop_
_geom_bond_atom_site_label_1
_geom_bond_atom_site_label_2
_geom_bond_site_symmetry_1
_geom_bond_site_symmetry_2
N1 C7 1_555 1_555
N2 C9 1_555 1_555
N3 C11 1_555 1_555
C1 C2 1_555 1_555
C2 C3 1_555 1_555
C3 C4 1_555 1_555
C4 C5 1_555 1_555
C5 C6 1_555 1_555
C6 C1 1_555 1_555
C7 C1 1_555 1_555
C8 N1 1_555 1_555
C9 C8 1_555 1_555
C10 N2 1_555 1_555
C11 C10 1_555 1_555
C12 N2 1_555 1_555
C13 C12 1_555 1_555
C14 C13 1_555 1_555
C15 C14 1_555 1_555
C16 C15 1_555 1_555
C17 C16 1_555 1_555
C18 C13 1_555 1_555
H1 N1 1_555 1_555
H2 N3 1_555 1_555
H3 N3 1_555 1_555
H4 N3 1_555 1_555
H5 C2 1_555 1_555
H6 C3 1_555 1_555
H7 C4 1_555 1_555
H8 C5 1_555 1_555
H9 C6 1_555 1_555
H10 C7 1_555 1_555
H11 C8 1_555 1_555
H12 C8 1_555 1_555
H13 C9 1_555 1_555
H14 C9 1_555 1_555
H15 C10 1_555 1_555
H16 C10 1_555 1_555
H17 C11 1_555 1_555
H18 C11 1_555 1_555
H19 C12 1_555 1_555
H20 C14 1_555 1_555
H21 C15 1_555 1_555
H22 C16 1_555 1_555
H23 C17 1_555 1_555
H24 C18 1_555 1_555
C7 C12 1_555 1_555
C17 C18 1_555 1_555

#END
