
#######################################################################
#
#                 Cambridge Crystallographic Data Centre
#                                CCDC 
#
#######################################################################
#
# If this CIF has been generated from an entry in the Cambridge 
# Structural Database, then it will include bibliographic, chemical, 
# crystal, experimental, refinement or atomic coordinate data resulting 
# from the CCDC's data processing and validation procedures.
#
#######################################################################

data_HIQWIP
_chemical_formula_moiety         'C29 H28 N2 O3'
_chemical_name_systematic        
2-Benzyl-5-ethyl-7,9-dimethoxy-1-(4-methylphenyl)-1,5-dihydro-4H-pyrrolo[3,2-c]quinolin-4-one
_symmetry_cell_setting           triclinic
_symmetry_space_group_name_H-M   'P -1'
_symmetry_Int_Tables_number      2
_space_group_name_Hall           '-P 1'
loop_
_symmetry_equiv_pos_site_id
_symmetry_equiv_pos_as_xyz
1 x,y,z
2 -x,-y,-z
_cell_length_a                   9.986(2)
_cell_length_b                   10.556(2)
_cell_length_c                   11.660(2)
_cell_angle_alpha                100.92(3)
_cell_angle_beta                 98.60(3)
_cell_angle_gamma                93.57(3)
_cell_volume                     1188.07
_cell_formula_units_Z            2
loop_
_atom_site_label
_atom_site_type_symbol
_atom_site_fract_x
_atom_site_fract_y
_atom_site_fract_z
O1 O 0.13011(18) 0.73084(13) 0.21568(12)
O2 O 0.38335(18) 1.03258(12) -0.12773(12)
O3 O 0.15002(19) 1.35450(13) 0.07188(14)
N1 N 0.33895(18) 0.76391(14) -0.10191(12)
N2 N 0.12122(18) 0.92354(14) 0.15572(12)
C1 C 0.1353(3) 0.3773(3) -0.4760(2)
H1 H 0.0755 0.3462 -0.5463
C2 C 0.2633(3) 0.4281(2) -0.47842(19)
H2 H 0.2910 0.4309 -0.5507
C3 C 0.3526(3) 0.4757(2) -0.37390(19)
H3 H 0.4405 0.5085 -0.3764
C4 C 0.3118(2) 0.47472(17) -0.26592(16)
C5 C 0.1830(3) 0.4203(2) -0.26559(18)
H4 H 0.1549 0.4160 -0.1938
C6 C 0.0950(3) 0.3723(2) -0.3694(2)
H5 H 0.0082 0.3364 -0.3673
C7 C 0.4044(3) 0.53396(19) -0.15002(17)
H6 H 0.4231 0.4664 -0.1055
H7 H 0.4901 0.5675 -0.1673
C8 C 0.3466(2) 0.64034(17) -0.07505(15)
C9 C 0.2888(2) 0.63794(17) 0.02230(15)
H8 H 0.2820 0.5681 0.0598
C10 C 0.2408(2) 0.75961(17) 0.05691(15)
C11 C 0.2736(2) 0.83870(16) -0.01917(14)
C12 C 0.3609(2) 0.78413(17) -0.21665(14)
C13 C 0.4903(2) 0.79578(19) -0.24160(16)
H9 H 0.5645 0.7976 -0.1825
C14 C 0.5106(3) 0.8048(2) -0.35432(17)
H10 H 0.5988 0.8129 -0.3704
C15 C 0.4017(3) 0.8018(2) -0.44390(16)
C16 C 0.2735(3) 0.7905(2) -0.41698(17)
H11 H 0.1992 0.7889 -0.4759
C17 C 0.2511(2) 0.78119(19) -0.30412(15)
H12 H 0.1630 0.7731 -0.2878
C18 C 0.4260(3) 0.8100(3) -0.56744(19)
H13 H 0.3403 0.8076 -0.6180
H14 H 0.4735 0.7380 -0.5979
H15 H 0.4796 0.8896 -0.5647
C19 C 0.2455(2) 0.97236(15) 0.00155(13)
C20 C 0.2949(2) 1.07093(17) -0.05319(14)
C21 C 0.2602(2) 1.19399(17) -0.02961(15)
H16 H 0.2922 1.2552 -0.0692
C22 C 0.1767(2) 1.22816(17) 0.05408(16)
C23 C 0.1303(2) 1.13888(17) 0.11453(16)
H17 H 0.0758 1.1631 0.1716
C24 C 0.1654(2) 1.01183(16) 0.08980(14)
C25 C 0.4213(3) 1.1176(2) -0.2008(2)
H18 H 0.4842 1.0786 -0.2483
H19 H 0.4635 1.1979 -0.1520
H20 H 0.3418 1.1337 -0.2514
C26 C 0.0702(3) 1.4002(2) 0.1586(2)
H21 H 0.0606 1.4906 0.1613
H22 H 0.1138 1.3885 0.2345
H23 H -0.0180 1.3526 0.1389
C27 C 0.1632(2) 0.80000(17) 0.14832(15)
C28 C 0.0282(2) 0.96005(19) 0.24015(17)
H24 H -0.0246 0.8826 0.2475
H25 H -0.0346 1.0165 0.2089
C29 C 0.0996(3) 1.0277(2) 0.36085(18)
H26 H 0.0336 1.0493 0.4117
H27 H 0.1507 1.1055 0.3546
H28 H 0.1601 0.9716 0.3934
loop_
_geom_bond_atom_site_label_1
_geom_bond_atom_site_label_2
_geom_bond_site_symmetry_1
_geom_bond_site_symmetry_2
O1 C27 1_555 1_555
O2 C20 1_555 1_555
O3 C22 1_555 1_555
N1 C8 1_555 1_555
N2 C24 1_555 1_555
C1 H1 1_555 1_555
C2 C1 1_555 1_555
H2 C2 1_555 1_555
C3 C2 1_555 1_555
H3 C3 1_555 1_555
C4 C3 1_555 1_555
C5 C4 1_555 1_555
H4 C5 1_555 1_555
C6 C1 1_555 1_555
H5 C6 1_555 1_555
C7 C4 1_555 1_555
H6 C7 1_555 1_555
H7 C7 1_555 1_555
C8 C7 1_555 1_555
C9 C8 1_555 1_555
H8 C9 1_555 1_555
C10 C9 1_555 1_555
C11 N1 1_555 1_555
C12 N1 1_555 1_555
C13 C12 1_555 1_555
H9 C13 1_555 1_555
C14 C13 1_555 1_555
H10 C14 1_555 1_555
C15 C14 1_555 1_555
C16 C15 1_555 1_555
H11 C16 1_555 1_555
C17 C12 1_555 1_555
H12 C17 1_555 1_555
C18 C15 1_555 1_555
H13 C18 1_555 1_555
H14 C18 1_555 1_555
H15 C18 1_555 1_555
C19 C11 1_555 1_555
C20 C19 1_555 1_555
C21 C20 1_555 1_555
H16 C21 1_555 1_555
C22 C21 1_555 1_555
C23 C22 1_555 1_555
H17 C23 1_555 1_555
C24 C19 1_555 1_555
C25 O2 1_555 1_555
H18 C25 1_555 1_555
H19 C25 1_555 1_555
H20 C25 1_555 1_555
C26 O3 1_555 1_555
H21 C26 1_555 1_555
H22 C26 1_555 1_555
H23 C26 1_555 1_555
C27 N2 1_555 1_555
C28 N2 1_555 1_555
H24 C28 1_555 1_555
H25 C28 1_555 1_555
C29 C28 1_555 1_555
H26 C29 1_555 1_555
H27 C29 1_555 1_555
H28 C29 1_555 1_555
C5 C6 1_555 1_555
C10 C11 1_555 1_555
C10 C27 1_555 1_555
C16 C17 1_555 1_555
C23 C24 1_555 1_555

#END
