
#######################################################################
#
#                 Cambridge Crystallographic Data Centre
#                                CCDC 
#
#######################################################################
#
# If this CIF has been generated from an entry in the Cambridge 
# Structural Database, then it will include bibliographic, chemical, 
# crystal, experimental, refinement or atomic coordinate data resulting 
# from the CCDC's data processing and validation procedures.
#
#######################################################################

data_HIQYOY
_chemical_formula_moiety         'C14 H10 Br4 N2'
_chemical_name_systematic        (1E)-1,2-bis[3-(dibromomethyl)phenyl]-diazene
_symmetry_cell_setting           triclinic
_symmetry_space_group_name_H-M   'P -1'
_symmetry_Int_Tables_number      2
_space_group_name_Hall           '-P 1'
loop_
_symmetry_equiv_pos_site_id
_symmetry_equiv_pos_as_xyz
1 x,y,z
2 -x,-y,-z
_cell_length_a                   4.899(2)
_cell_length_b                   8.294(2)
_cell_length_c                   9.942(3)
_cell_angle_alpha                98.103(4)
_cell_angle_beta                 103.640(3)
_cell_angle_gamma                96.650(3)
_cell_volume                     383.962
_exptl_crystal_colour            red
_exptl_crystal_description       block
_chemical_melting_point          '403-405 K'
_cell_formula_units_Z            1
loop_
_atom_site_label
_atom_site_type_symbol
_atom_site_fract_x
_atom_site_fract_y
_atom_site_fract_z
Br1 Br 0.70209(6) 0.44619(3) 0.34815(3)
Br2 Br 0.20145(6) 0.33924(4) 0.06638(3)
N1 N 0.0313(5) -0.0658(3) 0.4728(3)
C1 C 0.4352(5) 0.1125(3) 0.2374(3)
C2 C 0.5243(6) -0.0295(4) 0.1812(3)
H1 H 0.638710 -0.023851 0.116479
C3 C 0.4455(6) -0.1808(4) 0.2198(3)
H2 H 0.505053 -0.277981 0.181129
C4 C 0.2802(6) -0.1874(3) 0.3148(3)
H3 H 0.225421 -0.289857 0.340843
C5 C 0.1935(5) -0.0453(3) 0.3726(3)
C6 C 0.2684(6) 0.1049(3) 0.3332(3)
H4 H 0.206496 0.201498 0.371228
C7 C 0.5238(6) 0.2695(4) 0.1914(3)
H5 H 0.667019 0.248602 0.136699
Br1A Br -0.70209(6) -0.44619(3) 0.65185(3)
Br2A Br -0.20145(6) -0.33924(4) 0.93362(3)
N1A N -0.0313(5) 0.0658(3) 0.5272(3)
C1A C -0.4352(5) -0.1125(3) 0.7626(3)
C2A C -0.5243(6) 0.0295(4) 0.8188(3)
H1A H -0.638710 0.023851 0.883521
C3A C -0.4455(6) 0.1808(4) 0.7802(3)
H2A H -0.505053 0.277981 0.818871
C4A C -0.2802(6) 0.1874(3) 0.6852(3)
H3A H -0.225421 0.289857 0.659157
C5A C -0.1935(5) 0.0453(3) 0.6274(3)
C6A C -0.2684(6) -0.1049(3) 0.6668(3)
H4A H -0.206496 -0.201498 0.628772
C7A C -0.5238(6) -0.2695(4) 0.8086(3)
H5A H -0.667019 -0.248602 0.863301
loop_
_geom_bond_atom_site_label_1
_geom_bond_atom_site_label_2
_geom_bond_site_symmetry_1
_geom_bond_site_symmetry_2
Br1 C7 1_555 1_555
Br2 C7 1_555 1_555
N1 C5 1_555 1_555
C1 C2 1_555 1_555
C2 H1 1_555 1_555
C3 C2 1_555 1_555
H2 C3 1_555 1_555
C4 C3 1_555 1_555
H3 C4 1_555 1_555
C5 C4 1_555 1_555
C6 C1 1_555 1_555
H4 C6 1_555 1_555
C7 C1 1_555 1_555
H5 C7 1_555 1_555
Br1A C7A 1_555 1_555
Br2A C7A 1_555 1_555
N1A N1 1_555 1_555
C1A C2A 1_555 1_555
C2A H1A 1_555 1_555
C3A C2A 1_555 1_555
H2A C3A 1_555 1_555
C4A C3A 1_555 1_555
H3A C4A 1_555 1_555
C5A N1A 1_555 1_555
C6A C1A 1_555 1_555
H4A C6A 1_555 1_555
C7A C1A 1_555 1_555
H5A C7A 1_555 1_555
C5 C6 1_555 1_555
C4A C5A 1_555 1_555
C5A C6A 1_555 1_555

#END
