
#######################################################################
#
#                 Cambridge Crystallographic Data Centre
#                                CCDC 
#
#######################################################################
#
# If this CIF has been generated from an entry in the Cambridge 
# Structural Database, then it will include bibliographic, chemical, 
# crystal, experimental, refinement or atomic coordinate data resulting 
# from the CCDC's data processing and validation procedures.
#
#######################################################################

data_HIRCIX
_chemical_formula_moiety         'C13 H21 I2 N1 O2 S1'
_chemical_name_systematic        
N-[2-(1,3-diiodotricyclo[3.3.1.1^3,7^]decan-2-yl)ethyl]methanesulfonamide
_symmetry_cell_setting           monoclinic
_symmetry_space_group_name_H-M   'P 21/c'
_symmetry_Int_Tables_number      14
_space_group_name_Hall           '-P 2ybc'
loop_
_symmetry_equiv_pos_site_id
_symmetry_equiv_pos_as_xyz
1 x,y,z
2 -x,1/2+y,1/2-z
3 -x,-y,-z
4 x,1/2-y,1/2+z
_cell_length_a                   11.58400(10)
_cell_length_b                   10.37410(10)
_cell_length_c                   13.69220(10)
_cell_angle_alpha                90
_cell_angle_beta                 103.0020(10)
_cell_angle_gamma                90
_cell_volume                     1603.26
_exptl_crystal_colour            colorless
_exptl_crystal_description       Block
_cell_formula_units_Z            4
loop_
_atom_site_label
_atom_site_type_symbol
_atom_site_fract_x
_atom_site_fract_y
_atom_site_fract_z
I1 I 0.70401(2) 1.02612(2) 0.50917(2)
I2 I 0.73537(2) 0.43816(2) 0.55731(2)
O1 O 0.46731(12) 0.74023(12) 0.10932(8)
N1 N 0.53864(12) 0.67866(13) 0.28546(10)
H1 H 0.5224 0.6038 0.2644
S1 S 0.47265(3) 0.78700(4) 0.20902(3)
C1 C 0.57105(13) 0.70409(16) 0.39448(11)
H2 H 0.5437 0.6336 0.4300
H3 H 0.5324 0.7824 0.4091
O2 O 0.53112(12) 0.90784(12) 0.23937(10)
C2 C 0.70499(13) 0.71843(15) 0.43071(11)
H4 H 0.7314 0.7929 0.3989
H5 H 0.7438 0.6428 0.4113
C3 C 0.74078(13) 0.73462(14) 0.54565(10)
H6 H 0.6680 0.7350 0.5708
C4 C 0.80863(13) 0.86170(14) 0.58052(11)
C5 C 0.82537(14) 0.87801(15) 0.69397(11)
H7 H 0.7489 0.8779 0.7118
H8 H 0.8641 0.9595 0.7149
C6 C 0.90159(14) 0.76600(15) 0.74669(11)
H9 H 0.9129 0.7757 0.8194
C7 C 0.83737(14) 0.63828(15) 0.71387(11)
H10 H 0.8837 0.5666 0.7475
H11 H 0.7609 0.6377 0.7316
C8 C 0.82102(13) 0.62506(14) 0.60022(11)
C9 C 0.94130(14) 0.62389(16) 0.57188(12)
H12 H 0.9304 0.6133 0.5000
H13 H 0.9886 0.5525 0.6047
C10 C 1.00478(14) 0.75189(16) 0.60489(12)
H14 H 1.0819 0.7524 0.5868
C11 C 1.02277(14) 0.76624(16) 0.71886(12)
H15 H 1.0639 0.8463 0.7405
H16 H 1.0706 0.6955 0.7523
C12 C 0.92915(14) 0.86417(16) 0.55242(12)
H17 H 0.9687 0.9453 0.5730
H18 H 0.9185 0.8562 0.4804
C13 C 0.32620(15) 0.8003(2) 0.22453(13)
H19 H 0.2851 0.8655 0.1803
H20 H 0.3274 0.8234 0.2926
H21 H 0.2863 0.7192 0.2091
I3? I 0.7369(9) 1.0663(7) 0.5550(7)
I4? I 0.7023(9) 0.4770(7) 0.5102(7)
O3? O 0.464(7) 0.770(5) 0.1065(15)
N2? N 0.553(3) 0.713(3) 0.2808(17)
H22? H 0.5365 0.6380 0.2598
S2? S 0.487(3) 0.823(3) 0.2060(15)
C14? C 0.577(2) 0.732(2) 0.3906(16)
H23? H 0.5680 0.6503 0.4230
H24? H 0.5197 0.7919 0.4067
O4? O 0.558(5) 0.938(4) 0.227(4)
C15? C 0.7019(19) 0.7836(14) 0.4301(8)
H25? H 0.7046 0.8738 0.4121
H26? H 0.7568 0.7369 0.3990
C16? C 0.7402(9) 0.7694(7) 0.5450(8)
H27? H 0.6682 0.7700 0.5713
C17? C 0.8216(10) 0.8796(7) 0.5979(11)
C18? C 0.840(2) 0.8673(10) 0.7118(10)
H28? H 0.7636 0.8696 0.7304
H29? H 0.8871 0.9386 0.7446
C19? C 0.902(3) 0.7389(10) 0.7452(14)
H30? H 0.9144 0.7303 0.8180
C20? C 0.825(2) 0.6273(9) 0.6939(10)
H31? H 0.8626 0.5455 0.7152
H32? H 0.7485 0.6290 0.7122
C21? C 0.8074(11) 0.6426(7) 0.5803(11)
C22? C 0.9270(10) 0.6379(10) 0.551(2)
H33? H 0.9154 0.6454 0.4786
H34? H 0.9659 0.5564 0.5713
C23? C 1.0041(9) 0.7497(11) 0.602(3)
H35? H 1.0809 0.7479 0.5836
C24? C 1.023(2) 0.7354(13) 0.716(3)
H36? H 1.0727 0.8049 0.7496
H37? H 1.0626 0.6544 0.7377
C25? C 0.9418(9) 0.8781(10) 0.569(2)
H38? H 0.9901 0.9492 0.6015
H39? H 0.9306 0.8882 0.4972
C26? C 0.350(4) 0.855(7) 0.236(5)
H40? H 0.2870 0.8300 0.1809
H41? H 0.3440 0.9455 0.2487
H42? H 0.3443 0.8070 0.2946
loop_
_geom_bond_atom_site_label_1
_geom_bond_atom_site_label_2
_geom_bond_site_symmetry_1
_geom_bond_site_symmetry_2
I1 C4 1_555 1_555
I2 C8 1_555 1_555
O1 S1 1_555 1_555
N1 H1 1_555 1_555
S1 N1 1_555 1_555
C1 N1 1_555 1_555
H2 C1 1_555 1_555
H3 C1 1_555 1_555
O2 S1 1_555 1_555
C2 C1 1_555 1_555
H4 C2 1_555 1_555
H5 C2 1_555 1_555
C3 C2 1_555 1_555
H6 C3 1_555 1_555
C4 C3 1_555 1_555
C5 C4 1_555 1_555
H7 C5 1_555 1_555
H8 C5 1_555 1_555
C6 C5 1_555 1_555
H9 C6 1_555 1_555
C7 C6 1_555 1_555
H10 C7 1_555 1_555
H11 C7 1_555 1_555
C8 C3 1_555 1_555
C9 C8 1_555 1_555
H12 C9 1_555 1_555
H13 C9 1_555 1_555
C10 C9 1_555 1_555
H14 C10 1_555 1_555
C11 C6 1_555 1_555
H15 C11 1_555 1_555
H16 C11 1_555 1_555
C12 C4 1_555 1_555
H17 C12 1_555 1_555
H18 C12 1_555 1_555
C13 S1 1_555 1_555
H19 C13 1_555 1_555
H20 C13 1_555 1_555
H21 C13 1_555 1_555
C7 C8 1_555 1_555
C10 C11 1_555 1_555
C10 C12 1_555 1_555

#END
