
#######################################################################
#
#                 Cambridge Crystallographic Data Centre
#                                CCDC 
#
#######################################################################
#
# If this CIF has been generated from an entry in the Cambridge 
# Structural Database, then it will include bibliographic, chemical, 
# crystal, experimental, refinement or atomic coordinate data resulting 
# from the CCDC's data processing and validation procedures.
#
#######################################################################

data_HIRDAQ
_chemical_formula_moiety         'C14 H22 Br3 N1 O2 S1'
_chemical_name_systematic        
N-[3-(1,2,3-tribromotricyclo[3.3.1.1^3,7^]decan-2-yl)propyl]methanesulfonamide
_symmetry_cell_setting           monoclinic
_symmetry_space_group_name_H-M   'P 21/c'
_symmetry_Int_Tables_number      14
_space_group_name_Hall           '-P 2ybc'
loop_
_symmetry_equiv_pos_site_id
_symmetry_equiv_pos_as_xyz
1 x,y,z
2 -x,1/2+y,1/2-z
3 -x,-y,-z
4 x,1/2-y,1/2+z
_cell_length_a                   15.0290(7)
_cell_length_b                   9.0726(4)
_cell_length_c                   12.5886(5)
_cell_angle_alpha                90
_cell_angle_beta                 94.6124(13)
_cell_angle_gamma                90
_cell_volume                     1710.92
_exptl_crystal_colour            colorless
_exptl_crystal_description       plate
_cell_formula_units_Z            4
loop_
_atom_site_label
_atom_site_type_symbol
_atom_site_fract_x
_atom_site_fract_y
_atom_site_fract_z
Br1 Br 0.14296(2) 0.46131(3) 0.57344(2)
Br2 Br 0.25194(2) 0.77146(3) 0.48601(2)
Br3 Br 0.16422(2) 0.14719(3) 0.41407(2)
C1 C 0.21021(14) 0.4607(3) 0.44334(17)
C2 C 0.20078(14) 0.6164(2) 0.38972(18)
C3 C 0.10293(14) 0.6587(3) 0.36129(19)
H1 H 0.0996 0.7590 0.3302
H2 H 0.0700 0.6587 0.4263
C4 C 0.06071(15) 0.5470(3) 0.28049(19)
H3 H -0.0032 0.5736 0.2620
C5 C 0.06593(14) 0.3928(3) 0.3303(2)
H4 H 0.0323 0.3909 0.3948
H5 H 0.0389 0.3197 0.2790
C6 C 0.16365(15) 0.3533(3) 0.36011(19)
C7 C 0.25114(14) 0.6198(3) 0.28862(18)
H6 H 0.2480 0.7198 0.2571
H7 H 0.3147 0.5948 0.3063
C8 C 0.20863(15) 0.5080(3) 0.20882(18)
H8 H 0.2416 0.5087 0.1429
C9 C 0.21384(16) 0.3530(3) 0.25872(18)
H9 H 0.1867 0.2800 0.2074
H10 H 0.2770 0.3253 0.2764
C10 C 0.11075(16) 0.5493(3) 0.17987(19)
H11 H 0.1072 0.6488 0.1476
H12 H 0.0833 0.4782 0.1273
C11 C 0.30589(14) 0.4082(3) 0.47775(18)
H13 H 0.3024 0.3011 0.4920
H14 H 0.3413 0.4197 0.4152
C12 C 0.36034(16) 0.4773(3) 0.5730(2)
H15 H 0.3847 0.5735 0.5524
H16 H 0.3217 0.4939 0.6320
C13 C 0.43667(15) 0.3727(3) 0.60941(19)
H17 H 0.4114 0.2823 0.6393
H18 H 0.4685 0.3435 0.5468
C14 C 0.40340(16) 0.5126(3) 0.8580(2)
H19 H 0.4017 0.5030 0.9354
H20 H 0.3479 0.4737 0.8224
H21 H 0.4097 0.6168 0.8394
N1 N 0.50104(13) 0.4392(2) 0.69023(16)
H22 H 0.5157(16) 0.525(3) 0.681(2)
O1 O 0.57407(11) 0.4752(2) 0.86925(14)
O2 O 0.47593(13) 0.2589(2) 0.83109(14)
S1 S 0.49474(4) 0.41245(7) 0.81638(5)
loop_
_geom_bond_atom_site_label_1
_geom_bond_atom_site_label_2
_geom_bond_site_symmetry_1
_geom_bond_site_symmetry_2
Br1 C1 1_555 1_555
Br2 C2 1_555 1_555
Br3 C6 1_555 1_555
C1 C2 1_555 1_555
C2 C3 1_555 1_555
C3 H1 1_555 1_555
H2 C3 1_555 1_555
C4 C3 1_555 1_555
H3 C4 1_555 1_555
C5 C4 1_555 1_555
H4 C5 1_555 1_555
H5 C5 1_555 1_555
C6 C1 1_555 1_555
C7 C2 1_555 1_555
H6 C7 1_555 1_555
H7 C7 1_555 1_555
C8 C7 1_555 1_555
H8 C8 1_555 1_555
C9 C6 1_555 1_555
H9 C9 1_555 1_555
H10 C9 1_555 1_555
C10 C4 1_555 1_555
H11 C10 1_555 1_555
H12 C10 1_555 1_555
C11 C1 1_555 1_555
H13 C11 1_555 1_555
H14 C11 1_555 1_555
C12 C11 1_555 1_555
H15 C12 1_555 1_555
H16 C12 1_555 1_555
C13 C12 1_555 1_555
H17 C13 1_555 1_555
H18 C13 1_555 1_555
C14 H19 1_555 1_555
H20 C14 1_555 1_555
H21 C14 1_555 1_555
N1 C13 1_555 1_555
H22 N1 1_555 1_555
O1 S1 1_555 1_555
O2 S1 1_555 1_555
S1 C14 1_555 1_555
C5 C6 1_555 1_555
C8 C9 1_555 1_555
C8 C10 1_555 1_555
N1 S1 1_555 1_555

#END
