
#######################################################################
#
#                 Cambridge Crystallographic Data Centre
#                                CCDC 
#
#######################################################################
#
# If this CIF has been generated from an entry in the Cambridge 
# Structural Database, then it will include bibliographic, chemical, 
# crystal, experimental, refinement or atomic coordinate data resulting 
# from the CCDC's data processing and validation procedures.
#
#######################################################################

data_HIRGOH
_chemical_formula_moiety         'C19 H16 N2 O6 S1'
_chemical_name_systematic        
N-benzyl-N-(4-methyl-2-oxo-2H-pyran-6-yl)-4-nitrobenzene-1-sulfonamide
_symmetry_cell_setting           monoclinic
_symmetry_space_group_name_H-M   'P 21/c'
_symmetry_Int_Tables_number      14
_space_group_name_Hall           '-P 2ybc'
loop_
_symmetry_equiv_pos_site_id
_symmetry_equiv_pos_as_xyz
1 x,y,z
2 -x,1/2+y,1/2-z
3 -x,-y,-z
4 x,1/2-y,1/2+z
_cell_length_a                   9.7218(8)
_cell_length_b                   7.7915(6)
_cell_length_c                   24.097(2)
_cell_angle_alpha                90
_cell_angle_beta                 99.734(8)
_cell_angle_gamma                90
_cell_volume                     1799.01
_exptl_crystal_colour            colorless
_exptl_crystal_description       block
_cell_formula_units_Z            4
loop_
_atom_site_label
_atom_site_type_symbol
_atom_site_fract_x
_atom_site_fract_y
_atom_site_fract_z
S1 S 0.14429(6) 0.67871(8) 0.23064(3)
O1 O 0.19584(19) 0.7482(2) 0.01195(8)
O2 O 0.10938(17) 0.6952(2) 0.08979(7)
O3 O 0.21855(17) 0.5203(2) 0.23703(8)
O4 O 0.07327(17) 0.7399(2) 0.27404(7)
O5 O 0.4803(2) 1.3782(3) 0.17601(10)
O6 O 0.6094(2) 1.1917(3) 0.14441(12)
N1 N 0.02291(19) 0.6623(3) 0.17310(9)
N2 N 0.5103(2) 1.2307(3) 0.16636(10)
C1 C 0.1607(2) 0.6392(3) 0.04174(10)
C2 C 0.1645(2) 0.4561(3) 0.03451(11)
H1 H 0.200218 0.411407 0.003131
C3 C 0.1190(2) 0.3448(3) 0.07077(10)
C4 C 0.0663(2) 0.4118(3) 0.11835(10)
H2 H 0.032269 0.336756 0.143985
C5 C 0.0656(2) 0.5808(3) 0.12612(10)
C6 C -0.0706(2) 0.8140(3) 0.16103(11)
H3 H -0.017608 0.909788 0.147757
H4 H -0.101406 0.851138 0.196264
C7 C -0.1967(2) 0.7768(3) 0.11740(11)
C8 C -0.2412(3) 0.9027(4) 0.07719(12)
H5 H -0.188972 1.005635 0.076775
C9 C -0.3607(3) 0.8786(4) 0.03802(13)
H6 H -0.389454 0.964677 0.010575
C10 C -0.4388(3) 0.7310(4) 0.03828(13)
H7 H -0.521796 0.715966 0.011608
C11 C -0.3951(3) 0.6048(4) 0.07780(12)
H8 H -0.448090 0.502457 0.078118
C12 C -0.2746(3) 0.6271(4) 0.11682(11)
H9 H -0.244772 0.539164 0.143469
C13 C 0.1208(3) 0.1542(3) 0.06228(12)
H10 H 0.024725 0.111267 0.054054
H11 H 0.169927 0.099175 0.096541
H12 H 0.168779 0.127576 0.030691
C14 C 0.2599(2) 0.8401(3) 0.21479(10)
C15 C 0.3693(3) 0.7957(3) 0.18740(11)
H13 H 0.386013 0.678963 0.179342
C16 C 0.4536(2) 0.9239(3) 0.17201(11)
H14 H 0.529576 0.897411 0.153356
C17 C 0.4245(2) 1.0914(3) 0.18444(11)
C18 C 0.3174(2) 1.1370(3) 0.21225(11)
H15 H 0.301818 1.253768 0.220669
C19 C 0.2333(2) 1.0088(3) 0.22759(11)
H16 H 0.158146 1.035897 0.246660
loop_
_geom_bond_atom_site_label_1
_geom_bond_atom_site_label_2
_geom_bond_site_symmetry_1
_geom_bond_site_symmetry_2
S1 O3 1_555 1_555
O1 C1 1_555 1_555
O2 C1 1_555 1_555
O4 S1 1_555 1_555
O5 N2 1_555 1_555
O6 N2 1_555 1_555
N1 S1 1_555 1_555
N2 C17 1_555 1_555
C1 C2 1_555 1_555
C2 H1 1_555 1_555
C3 C2 1_555 1_555
C4 C3 1_555 1_555
H2 C4 1_555 1_555
C5 O2 1_555 1_555
C6 N1 1_555 1_555
H3 C6 1_555 1_555
H4 C6 1_555 1_555
C7 C6 1_555 1_555
C8 C7 1_555 1_555
H5 C8 1_555 1_555
C9 C8 1_555 1_555
H6 C9 1_555 1_555
C10 C9 1_555 1_555
H7 C10 1_555 1_555
C11 C10 1_555 1_555
H8 C11 1_555 1_555
C12 C7 1_555 1_555
H9 C12 1_555 1_555
C13 C3 1_555 1_555
H10 C13 1_555 1_555
H11 C13 1_555 1_555
H12 C13 1_555 1_555
C14 S1 1_555 1_555
C15 C14 1_555 1_555
H13 C15 1_555 1_555
C16 C15 1_555 1_555
H14 C16 1_555 1_555
C17 C16 1_555 1_555
C18 C17 1_555 1_555
H15 C18 1_555 1_555
C19 C14 1_555 1_555
H16 C19 1_555 1_555
N1 C5 1_555 1_555
C4 C5 1_555 1_555
C11 C12 1_555 1_555
C18 C19 1_555 1_555

#END
