
#######################################################################
#
#                 Cambridge Crystallographic Data Centre
#                                CCDC 
#
#######################################################################
#
# If this CIF has been generated from an entry in the Cambridge 
# Structural Database, then it will include bibliographic, chemical, 
# crystal, experimental, refinement or atomic coordinate data resulting 
# from the CCDC's data processing and validation procedures.
#
#######################################################################

data_HIRGUN
_chemical_formula_moiety         'C20 H19 N1 O4 S1'
_chemical_name_systematic        
N,4-dimethyl-N-(4-methyl-2-oxo-5-phenyl-2H-pyran-6-yl)benzene-1-sulfonamide
_symmetry_cell_setting           triclinic
_symmetry_space_group_name_H-M   'P -1'
_symmetry_Int_Tables_number      2
_space_group_name_Hall           '-P 1'
loop_
_symmetry_equiv_pos_site_id
_symmetry_equiv_pos_as_xyz
1 x,y,z
2 -x,-y,-z
_cell_length_a                   6.4452(7)
_cell_length_b                   11.7323(11)
_cell_length_c                   12.5163(12)
_cell_angle_alpha                105.865(8)
_cell_angle_beta                 90.612(8)
_cell_angle_gamma                93.872(8)
_cell_volume                     907.897
_exptl_crystal_colour            colorless
_exptl_crystal_description       needle
_cell_formula_units_Z            2
loop_
_atom_site_label
_atom_site_type_symbol
_atom_site_fract_x
_atom_site_fract_y
_atom_site_fract_z
S1 S 0.22720(10) 0.27312(6) 0.83116(5)
O1 O 0.2504(3) 0.30327(18) 0.94931(15)
O2 O 0.0262(3) 0.25868(16) 0.77839(16)
O3 O 0.2979(2) 0.13298(13) 0.60095(13)
O4 O 0.2760(3) 0.14175(16) 0.42711(14)
N1 N 0.3300(3) 0.14409(17) 0.78669(16)
C1 C 0.5737(4) 0.4215(2) 0.8401(2)
H1 H 0.609821 0.402689 0.905040
C2 C 0.7074(4) 0.4945(2) 0.7979(2)
H2 H 0.834546 0.523477 0.834322
C3 C 0.6555(4) 0.5252(2) 0.7024(2)
C4 C 0.4632(4) 0.4837(2) 0.6522(2)
H3 H 0.422970 0.507085 0.590212
C5 C 0.3287(4) 0.4085(2) 0.6912(2)
H4 H 0.201526 0.379744 0.654697
C6 C 0.3860(4) 0.3767(2) 0.7852(2)
C7 C 0.8068(5) 0.5990(3) 0.6533(3)
H5 H 0.888899 0.547611 0.599815
H6 H 0.896431 0.649562 0.711272
H7 H 0.731474 0.646851 0.617487
C8 C 0.5171(5) 0.1234(3) 0.8449(2)
H8 H 0.633455 0.171863 0.830412
H9 H 0.545039 0.041149 0.819022
H10 H 0.494807 0.143509 0.923402
C9 C 0.2836(3) 0.0715(2) 0.67864(19)
C10 C 0.2429(3) -0.0472(2) 0.65296(19)
C11 C 0.2253(3) -0.1104(2) 0.53608(19)
C12 C 0.2349(3) -0.0487(2) 0.45954(19)
H11 H 0.219461 -0.090475 0.384843
C13 C 0.2676(3) 0.0773(2) 0.4878(2)
C14 C 0.2119(4) -0.1082(2) 0.74213(19)
C15 C 0.0392(4) -0.0879(2) 0.8081(2)
H12 H -0.056488 -0.036484 0.796078
C16 C 0.0080(4) -0.1434(3) 0.8912(2)
H13 H -0.108379 -0.129101 0.934880
C17 C 0.1478(5) -0.2194(3) 0.9099(2)
H14 H 0.125427 -0.257474 0.965314
C18 C 0.3205(5) -0.2391(3) 0.8466(2)
H15 H 0.417047 -0.289239 0.860268
C19 C 0.3522(4) -0.1848(2) 0.7623(2)
H16 H 0.468664 -0.199849 0.718772
C20 C 0.1945(4) -0.2434(2) 0.5004(2)
H17 H 0.315373 -0.276546 0.521656
H18 H 0.173537 -0.270364 0.421152
H19 H 0.074892 -0.268560 0.535496
loop_
_geom_bond_atom_site_label_1
_geom_bond_atom_site_label_2
_geom_bond_site_symmetry_1
_geom_bond_site_symmetry_2
S1 O1 1_555 1_555
O2 S1 1_555 1_555
O3 C9 1_555 1_555
O4 C13 1_555 1_555
N1 S1 1_555 1_555
C1 H1 1_555 1_555
C2 C1 1_555 1_555
H2 C2 1_555 1_555
C3 C2 1_555 1_555
C4 C3 1_555 1_555
H3 C4 1_555 1_555
C5 C4 1_555 1_555
H4 C5 1_555 1_555
C6 S1 1_555 1_555
C7 C3 1_555 1_555
H5 C7 1_555 1_555
H6 C7 1_555 1_555
H7 C7 1_555 1_555
C8 N1 1_555 1_555
H8 C8 1_555 1_555
H9 C8 1_555 1_555
H10 C8 1_555 1_555
C9 N1 1_555 1_555
C10 C9 1_555 1_555
C11 C10 1_555 1_555
C12 C11 1_555 1_555
H11 C12 1_555 1_555
C13 O3 1_555 1_555
C14 C10 1_555 1_555
C15 C14 1_555 1_555
H12 C15 1_555 1_555
C16 C15 1_555 1_555
H13 C16 1_555 1_555
C17 C16 1_555 1_555
H14 C17 1_555 1_555
C18 C17 1_555 1_555
H15 C18 1_555 1_555
C19 C14 1_555 1_555
H16 C19 1_555 1_555
C20 C11 1_555 1_555
H17 C20 1_555 1_555
H18 C20 1_555 1_555
H19 C20 1_555 1_555
C1 C6 1_555 1_555
C5 C6 1_555 1_555
C12 C13 1_555 1_555
C18 C19 1_555 1_555

#END
