
#######################################################################
#
#                 Cambridge Crystallographic Data Centre
#                                CCDC 
#
#######################################################################
#
# If this CIF has been generated from an entry in the Cambridge 
# Structural Database, then it will include bibliographic, chemical, 
# crystal, experimental, refinement or atomic coordinate data resulting 
# from the CCDC's data processing and validation procedures.
#
#######################################################################

data_HIRGUL
_chemical_compound_source        'Chinese yam Dioscorea opposita Thunb'
_chemical_formula_moiety         'C8 H12 O7,H2 O1'
_chemical_name_systematic        '1,5-Dimethyl citrate monohydrate'
_chemical_properties_biological  
'Dioscorea opposita Thunb. is widely used in traditional medicine for the treatment of anorexia, chronic diarrhoea, diabetes, seminal emission and excessive leucorrhea'
_symmetry_cell_setting           triclinic
_symmetry_space_group_name_H-M   'P -1'
_symmetry_Int_Tables_number      2
_space_group_name_Hall           '-P 1'
loop_
_symmetry_equiv_pos_site_id
_symmetry_equiv_pos_as_xyz
1 x,y,z
2 -x,-y,-z
_cell_length_a                   7.8872(5)
_cell_length_b                   8.1304(5)
_cell_length_c                   9.5891(6)
_cell_angle_alpha                94.5690(10)
_cell_angle_beta                 110.1220(10)
_cell_angle_gamma                106.9570(10)
_cell_volume                     541.072
_exptl_crystal_colour            colorless
_exptl_crystal_description       block
_cell_formula_units_Z            2
loop_
_atom_site_label
_atom_site_type_symbol
_atom_site_fract_x
_atom_site_fract_y
_atom_site_fract_z
O1 O 0.74007(15) 1.12766(14) 0.25191(13)
O2 O 0.66449(16) 0.93114(15) 0.39024(12)
O3 O 0.30961(15) 0.57067(13) 0.20264(11)
H1 H 0.3345 0.4988 0.2545
O4 O 0.29657(15) 0.70190(13) 0.41154(11)
O5 O 0.24343(15) 0.97566(12) 0.29313(11)
H2 H 0.2747 0.9576 0.3798
O6 O -0.22748(17) 0.79091(17) 0.04817(16)
O7 O -0.11049(14) 0.59972(14) 0.16700(13)
C1 C 0.9351(2) 1.1961(3) 0.3639(2)
H3 H 0.9336 1.2305 0.4615
H4 H 1.0076 1.2961 0.3368
H5 H 0.9932 1.1071 0.3678
C2 C 0.6206(2) 0.99264(18) 0.27822(16)
C3 C 0.4279(2) 0.92440(19) 0.15003(15)
H6 H 0.4295 0.8363 0.0765
H7 H 0.4062 1.0200 0.1003
C4 C 0.25973(19) 0.84363(16) 0.19763(14)
C5 C 0.0742(2) 0.77648(19) 0.05383(15)
H8 H 0.0722 0.8670 -0.0062
H9 H 0.0745 0.6749 -0.0063
C6 C -0.1043(2) 0.72700(18) 0.08723(16)
C7 C -0.2732(3) 0.5434(2) 0.2110(2)
H10 H -0.2883 0.6440 0.2578
H11 H -0.2518 0.4669 0.2814
H12 H -0.3872 0.4818 0.1228
C8 C 0.29059(18) 0.69683(17) 0.28355(15)
O8 O 0.4011(2) 0.34048(17) 0.34949(16)
H13 H 0.345(3) 0.234(3) 0.318(2)
H14 H 0.504(4) 0.354(3) 0.425(3)
loop_
_geom_bond_atom_site_label_1
_geom_bond_atom_site_label_2
_geom_bond_site_symmetry_1
_geom_bond_site_symmetry_2
O1 C1 1_555 1_555
O2 C2 1_555 1_555
O3 H1 1_555 1_555
O4 C8 1_555 1_555
O5 H2 1_555 1_555
O6 C6 1_555 1_555
O7 C6 1_555 1_555
C1 H3 1_555 1_555
H4 C1 1_555 1_555
H5 C1 1_555 1_555
C2 O1 1_555 1_555
C3 C2 1_555 1_555
H6 C3 1_555 1_555
H7 C3 1_555 1_555
C4 O5 1_555 1_555
C5 C4 1_555 1_555
H8 C5 1_555 1_555
H9 C5 1_555 1_555
C6 C5 1_555 1_555
C7 O7 1_555 1_555
H10 C7 1_555 1_555
H11 C7 1_555 1_555
H12 C7 1_555 1_555
C8 O3 1_555 1_555
O8 H13 1_555 1_555
H14 O8 1_555 1_555
C3 C4 1_555 1_555
C4 C8 1_555 1_555

#END
