
#######################################################################
#
#                 Cambridge Crystallographic Data Centre
#                                CCDC 
#
#######################################################################
#
# If this CIF has been generated from an entry in the Cambridge 
# Structural Database, then it will include bibliographic, chemical, 
# crystal, experimental, refinement or atomic coordinate data resulting 
# from the CCDC's data processing and validation procedures.
#
#######################################################################

data_HIRHAS
_chemical_formula_moiety         'C20 H15 Cl1 N4 O1'
_chemical_name_systematic        
5-(4-Chlorophenyl)-4-(4-methoxyphenyl)-3-(2-pyridyl)-4H-1,2,4-triazole
_symmetry_cell_setting           triclinic
_symmetry_space_group_name_H-M   'P -1'
_symmetry_Int_Tables_number      2
_space_group_name_Hall           '-P 1'
loop_
_symmetry_equiv_pos_site_id
_symmetry_equiv_pos_as_xyz
1 x,y,z
2 -x,-y,-z
_cell_length_a                   9.808(4)
_cell_length_b                   10.083(4)
_cell_length_c                   10.274(4)
_cell_angle_alpha                70.415(5)
_cell_angle_beta                 73.417(6)
_cell_angle_gamma                69.768(6)
_cell_volume                     881.531
_exptl_crystal_colour            colorless
_exptl_crystal_description       Block
_cell_formula_units_Z            2
loop_
_atom_site_label
_atom_site_type_symbol
_atom_site_fract_x
_atom_site_fract_y
_atom_site_fract_z
C1 C 0.3198(2) 0.0397(2) 0.83095(19)
C2 C 0.3227(2) -0.0760(2) 1.0498(2)
C3 C 0.2817(2) -0.1236(2) 1.2046(2)
C4 C 0.3906(3) -0.1979(3) 1.2842(3)
H1 H 0.4901 -0.2188 1.2412
C5 C 0.3496(4) -0.2400(3) 1.4270(3)
H2 H 0.4208 -0.2899 1.4832
C6 C 0.2020(4) -0.2079(3) 1.4866(3)
H3 H 0.1713 -0.2336 1.5839
C7 C 0.1004(3) -0.1368(3) 1.3999(2)
H4 H 0.0003 -0.1176 1.4409
C8 C 0.12017(19) 0.15735(19) 1.00964(17)
C9 C -0.0141(2) 0.18012(19) 0.97612(18)
H5 H -0.0206 0.1288 0.9189
C10 C -0.1389(2) 0.27883(19) 1.02726(19)
H6 H -0.2295 0.2946 1.0047
C11 C -0.1277(2) 0.35414(19) 1.11251(19)
C12 C 0.0091(2) 0.3351(2) 1.1402(2)
H7 H 0.0168 0.3893 1.1940
C13 C 0.1335(2) 0.2371(2) 1.08900(19)
H8 H 0.2252 0.2248 1.1076
C14 C -0.3877(3) 0.4630(3) 1.1557(3)
H9 H -0.3959 0.5108 1.0591
H10 H -0.4612 0.5204 1.2149
H11 H -0.4029 0.3678 1.1808
C15 C 0.2846(2) 0.1481(2) 0.69997(19)
C16 C 0.3221(2) 0.1024(2) 0.5780(2)
H12 H 0.3610 0.0030 0.5829
C17 C 0.3029(3) 0.2014(3) 0.4497(2)
H13 H 0.3294 0.1694 0.3686
C18 C 0.2441(2) 0.3477(3) 0.4434(2)
C19 C 0.2046(2) 0.3961(2) 0.5624(2)
H14 H 0.1638 0.4955 0.5571
C20 C 0.2259(2) 0.2966(2) 0.6897(2)
H15 H 0.2005 0.3296 0.7701
Cl1 Cl 0.22050(7) 0.47545(8) 0.28259(6)
N1 N 0.43195(19) -0.07819(18) 0.83541(18)
N2 N 0.43441(18) -0.15167(18) 0.97501(18)
N3 N 0.24694(16) 0.04656(16) 0.96486(15)
N4 N 0.13735(19) -0.0939(2) 1.26017(17)
O1 O -0.24465(16) 0.44833(16) 1.17406(16)
loop_
_geom_bond_atom_site_label_1
_geom_bond_atom_site_label_2
_geom_bond_site_symmetry_1
_geom_bond_site_symmetry_2
C1 C15 1_555 1_555
C2 C3 1_555 1_555
C3 C4 1_555 1_555
C4 H1 1_555 1_555
C5 C4 1_555 1_555
H2 C5 1_555 1_555
C6 C5 1_555 1_555
H3 C6 1_555 1_555
C7 C6 1_555 1_555
H4 C7 1_555 1_555
C8 C9 1_555 1_555
C9 H5 1_555 1_555
C10 C9 1_555 1_555
H6 C10 1_555 1_555
C11 C10 1_555 1_555
C12 C11 1_555 1_555
H7 C12 1_555 1_555
C13 C8 1_555 1_555
H8 C13 1_555 1_555
C14 H9 1_555 1_555
H10 C14 1_555 1_555
H11 C14 1_555 1_555
C15 C16 1_555 1_555
C16 H12 1_555 1_555
C17 C16 1_555 1_555
H13 C17 1_555 1_555
C18 C17 1_555 1_555
C19 C18 1_555 1_555
H14 C19 1_555 1_555
C20 C15 1_555 1_555
H15 C20 1_555 1_555
Cl1 C18 1_555 1_555
N1 C1 1_555 1_555
N2 C2 1_555 1_555
N3 C1 1_555 1_555
N4 C3 1_555 1_555
O1 C11 1_555 1_555
C2 N3 1_555 1_555
C7 N4 1_555 1_555
C8 N3 1_555 1_555
C12 C13 1_555 1_555
C14 O1 1_555 1_555
C19 C20 1_555 1_555
N1 N2 1_555 1_555

#END
