
#######################################################################
#
#                 Cambridge Crystallographic Data Centre
#                                CCDC 
#
#######################################################################
#
# If this CIF has been generated from an entry in the Cambridge 
# Structural Database, then it will include bibliographic, chemical, 
# crystal, experimental, refinement or atomic coordinate data resulting 
# from the CCDC's data processing and validation procedures.
#
#######################################################################

data_HIRJOI
_chemical_formula_moiety         'C16 H15 Cl1 N2 O1 S1'
_chemical_name_systematic        
N-(4-(3-Chlorobenzyloxy)phenyl)-4,5-dihydrothiazol-2-amine
_chemical_properties_biological  'potential herbicide'
_symmetry_cell_setting           monoclinic
_symmetry_space_group_name_H-M   'P 21/c'
_symmetry_Int_Tables_number      14
_space_group_name_Hall           '-P 2ybc'
loop_
_symmetry_equiv_pos_site_id
_symmetry_equiv_pos_as_xyz
1 x,y,z
2 -x,1/2+y,1/2-z
3 -x,-y,-z
4 x,1/2-y,1/2+z
_cell_length_a                   12.134(2)
_cell_length_b                   16.931(3)
_cell_length_c                   7.8643(15)
_cell_angle_alpha                90
_cell_angle_beta                 106.655(3)
_cell_angle_gamma                90
_cell_volume                     1547.87
_exptl_crystal_colour            'light yellow'
_exptl_crystal_description       stick
_chemical_melting_point          '121 deg.C'
_cell_formula_units_Z            4
_exptl_crystal_recrystallization_method 'dichloromethane/petroleum ether'
loop_
_atom_site_label
_atom_site_type_symbol
_atom_site_fract_x
_atom_site_fract_y
_atom_site_fract_z
Cl1 Cl -0.44037(7) 0.16311(7) -0.19685(14)
S1 S 0.28855(8) 0.14421(7) 1.12062(12)
N1 N 0.35478(19) 0.04645(14) 0.8894(3)
H1 H 0.4009 0.0103 0.8742
O1 O 0.00845(19) 0.12883(12) 0.2774(3)
C1 C 0.3745(2) 0.07591(17) 1.0451(4)
C2 C 0.2216(2) 0.14505(17) 0.7055(4)
H2 H 0.2510 0.1851 0.7868
C3 C 0.2640(2) 0.06825(17) 0.7411(4)
C4 C 0.0915(2) 0.10457(17) 0.4272(4)
N2 N 0.4668(2) 0.05489(16) 1.1801(3)
C5 C -0.1048(3) 0.11467(17) -0.0210(4)
C6 C 0.1365(3) 0.16218(17) 0.5513(4)
H3 H 0.1091 0.2136 0.5307
C7 C 0.2184(3) 0.01120(17) 0.6141(4)
H4 H 0.2460 -0.0402 0.6335
C8 C -0.2217(3) 0.11745(17) -0.0389(4)
H5 H -0.2514 0.0920 0.0431
C9 C 0.1330(3) 0.02835(18) 0.4595(4)
H6 H 0.1037 -0.0114 0.3773
C10 C -0.2938(3) 0.15819(18) -0.1791(4)
C11 C -0.0635(3) 0.15127(19) -0.1474(5)
H7 H 0.0147 0.1494 -0.1374
C12 C -0.1371(3) 0.1906(2) -0.2883(5)
H8 H -0.1081 0.2145 -0.3730
C13 C -0.2528(3) 0.1949(2) -0.3049(5)
H9 H -0.3023 0.2220 -0.3991
C14 C 0.3788(3) 0.1378(3) 1.3470(5)
H10 H 0.3954 0.1902 1.3981
H11 H 0.3408 0.1076 1.4186
C15 C 0.4866(3) 0.0981(3) 1.3413(5)
H12 H 0.5463 0.1371 1.3490
H13 H 0.5123 0.0625 1.4416
C16 C -0.0250(3) 0.07311(19) 0.1341(4)
H14 H -0.0634 0.0282 0.1686
H15 H 0.0422 0.0541 0.1032
loop_
_geom_bond_atom_site_label_1
_geom_bond_atom_site_label_2
_geom_bond_site_symmetry_1
_geom_bond_site_symmetry_2
Cl1 C10 1_555 1_555
S1 C1 1_555 1_555
N1 H1 1_555 1_555
O1 C4 1_555 1_555
C1 N1 1_555 1_555
C2 H2 1_555 1_555
C3 N1 1_555 1_555
C4 C6 1_555 1_555
N2 C1 1_555 1_555
C5 C8 1_555 1_555
C6 C2 1_555 1_555
H3 C6 1_555 1_555
C7 C3 1_555 1_555
H4 C7 1_555 1_555
C8 H5 1_555 1_555
C9 C4 1_555 1_555
H6 C9 1_555 1_555
C10 C8 1_555 1_555
C11 C5 1_555 1_555
H7 C11 1_555 1_555
C12 C11 1_555 1_555
H8 C12 1_555 1_555
C13 C10 1_555 1_555
H9 C13 1_555 1_555
C14 S1 1_555 1_555
H10 C14 1_555 1_555
H11 C14 1_555 1_555
C15 N2 1_555 1_555
H12 C15 1_555 1_555
H13 C15 1_555 1_555
C16 O1 1_555 1_555
H14 C16 1_555 1_555
H15 C16 1_555 1_555
C2 C3 1_555 1_555
C5 C16 1_555 1_555
C7 C9 1_555 1_555
C12 C13 1_555 1_555
C14 C15 1_555 1_555

#END
