
#######################################################################
#
#                 Cambridge Crystallographic Data Centre
#                                CCDC 
#
#######################################################################
#
# If this CIF has been generated from an entry in the Cambridge 
# Structural Database, then it will include bibliographic, chemical, 
# crystal, experimental, refinement or atomic coordinate data resulting 
# from the CCDC's data processing and validation procedures.
#
#######################################################################

data_HIRJUO01
_chemical_formula_moiety         'C38 H32 O3,0.5(C1 H2 Cl2)'
_chemical_name_systematic        
'(4-hydroxy-2,4,6-triphenylcyclohexane-1,3-diyl)bis(phenylmethanone) dichloromethane solvate'
_symmetry_cell_setting           triclinic
_symmetry_space_group_name_H-M   'P -1'
_symmetry_Int_Tables_number      2
_space_group_name_Hall           '-P 1'
loop_
_symmetry_equiv_pos_site_id
_symmetry_equiv_pos_as_xyz
1 x,y,z
2 -x,-y,-z
_cell_length_a                   12.3342(5)
_cell_length_b                   12.4220(5)
_cell_length_c                   20.4886(9)
_cell_angle_alpha                94.350(3)
_cell_angle_beta                 97.642(3)
_cell_angle_gamma                100.981(3)
_cell_volume                     3037.76
_exptl_crystal_colour            colorless
_exptl_crystal_description       block
_cell_formula_units_Z            4
loop_
_atom_site_label
_atom_site_type_symbol
_atom_site_fract_x
_atom_site_fract_y
_atom_site_fract_z
Cl1 Cl 0.33761(13) 0.73113(15) 0.14015(8)
C1 C 0.3910(9) 0.6937(9) 0.0691(5)
H1 H 0.4568 0.7482 0.0649
H2 H 0.413 0.6232 0.0726
Cl2 Cl 0.29345(18) 0.6845(3) 0.00056(11)
O1 O 0.6409(2) 0.0946(2) 0.13868(14)
H5 H 0.6903 0.1387 0.1261
O2 O 0.7418(2) 0.2530(2) 0.33501(13)
O3 O 0.8481(2) 0.1597(2) 0.10826(14)
C3 C 0.6822(3) -0.0020(3) 0.15464(17)
C4 C 0.7539(3) 0.0721(3) 0.29806(17)
H6 H 0.7802 0.0105 0.3179
C5 C 0.6155(3) -0.0495(3) 0.20702(17)
H7 H 0.6407 -0.115 0.2204
H8 H 0.5371 -0.071 0.1883
C6 C 0.8759(3) 0.0801(3) 0.13332(17)
C7 C 0.5601(3) -0.0079(3) 0.32033(18)
C8 C 0.8087(3) 0.0294(3) 0.18435(16)
H9 H 0.8345 -0.0373 0.1965
C9 C 0.8282(3) 0.1130(3) 0.24623(17)
H10 H 0.8076 0.181 0.2322
C10 C 0.7640(3) 0.1668(3) 0.35178(18)
C11 C 0.9502(3) 0.1413(3) 0.27788(16)
C12 C 0.6636(3) -0.0858(3) 0.09323(18)
C13 C 0.8000(3) 0.1563(3) 0.42279(18)
C14 C 0.9740(3) 0.0394(3) 0.11427(17)
C15 C 0.6289(3) 0.0345(3) 0.26790(17)
H11 H 0.6027 0.0994 0.2529
C16 C 0.5664(3) -0.1075(3) 0.34496(19)
H12 H 0.6108 -0.1517 0.3276
C17 C 1.0057(3) 0.0607(3) 0.30004(18)
H13 H 0.968 -0.0125 0.2952
C18 C 0.5909(3) -0.1422(4) -0.02196(19)
H14 H 0.5549 -0.1271 -0.062
C19 C 0.7947(3) 0.2414(3) 0.4693(2)
H15 H 0.7669 0.3018 0.4554
C20 C 0.4405(3) -0.0792(3) 0.4211(2)
H16 H 0.4015 -0.1024 0.4551
C21 C 0.6953(3) -0.1867(3) 0.0975(2)
H17 H 0.7306 -0.2022 0.1377
C22 C 1.0361(3) 0.0989(3) 0.07110(19)
H18 H 1.0154 0.1616 0.0556
C23 C 1.1171(3) 0.0883(3) 0.3294(2)
H19 H 1.1538 0.0335 0.3437
C24 C 0.4908(3) 0.0544(3) 0.34621(19)
H20 H 0.4841 0.1209 0.3298
C25 C 0.6128(3) -0.0638(3) 0.03280(18)
H21 H 0.5931 0.0043 0.0287
C26 C 0.6225(3) -0.2425(3) -0.0170(2)
H22 H 0.6083 -0.2948 -0.0536
C27 C 0.5073(3) -0.1425(3) 0.3953(2)
H23 H 0.5132 -0.2093 0.4117
C28 C 0.4315(3) 0.0193(3) 0.3961(2)
H24 H 0.3854 0.0622 0.4129
C29 C 1.1579(3) -0.0296(4) 0.0738(2)
H25 H 1.219 -0.0538 0.0601
C30 C 0.8405(4) 0.0672(4) 0.4453(2)
H26 H 0.8445 0.0085 0.4154
C31 C 1.1274(3) 0.0640(4) 0.0518(2)
H27 H 1.1688 0.1039 0.0236
C32 C 1.1189(4) 0.2762(3) 0.3164(2)
H28 H 1.1568 0.3493 0.322
C33 C 1.1728(3) 0.1960(4) 0.3373(2)
H29 H 1.2472 0.2144 0.3569
C34 C 0.6754(3) -0.2644(3) 0.0431(2)
H30 H 0.6976 -0.3315 0.0467
C35 C 1.0063(3) -0.0538(3) 0.1358(2)
H31 H 0.9657 -0.0946 0.164
C36 C 0.8700(4) 0.1499(4) 0.5567(2)
H32 H 0.8942 0.1477 0.6015
C37 C 0.8297(4) 0.2383(4) 0.5357(2)
H33 H 0.8259 0.2964 0.5662
C38 C 1.0976(4) -0.0866(4) 0.1160(2)
H34 H 1.1191 -0.1489 0.1315
C39 C 1.0083(3) 0.2496(3) 0.28682(19)
H35 H 0.9726 0.3052 0.2728
C40 C 0.8749(5) 0.0647(4) 0.5118(2)
H36 H 0.9018 0.0042 0.5263
O4 O 0.5199(2) 0.6252(2) 0.31448(15)
O5 O 0.8907(2) 0.7772(2) 0.25343(15)
O6 O 0.5628(3) 0.5913(3) 0.18592(16)
H37 H 0.5439 0.6278 0.2159
C41 C 0.6401(3) 0.5095(3) 0.28434(18)
H38 H 0.6611 0.4417 0.2984
C42 C 0.8314(3) 0.5844(3) 0.25362(18)
H39 H 0.8658 0.524 0.2688
C43 C 0.7955(3) 0.6207(3) 0.36997(18)
C44 C 0.5525(3) 0.5396(3) 0.32440(19)
C45 C 0.5896(3) 0.4901(3) 0.20987(19)
C46 C 0.5057(3) 0.4686(3) 0.37328(18)
C47 C 0.6790(3) 0.4635(3) 0.17023(19)
H40 H 0.7012 0.3969 0.1839
H41 H 0.6477 0.4495 0.1237
C48 C 0.7816(3) 0.5563(3) 0.17926(18)
H42 H 0.7581 0.6219 0.1633
C49 C 1.0426(3) 0.6870(3) 0.27050(18)
C50 C 0.8735(3) 0.5316(3) 0.14134(18)
C51 C 0.7439(3) 0.6044(3) 0.29798(18)
H43 H 0.7198 0.6724 0.287
C52 C 0.9211(3) 0.6895(3) 0.26004(18)
C53 C 0.8321(3) 0.5356(3) 0.40113(19)
H44 H 0.8235 0.467 0.3773
C54 C 0.4933(3) 0.2896(3) 0.20503(19)
H45 H 0.5634 0.2715 0.2121
C55 C 0.5446(3) 0.3755(3) 0.39173(19)
H46 H 0.6018 0.3539 0.3721
C56 C 0.4859(3) 0.3982(3) 0.20029(18)
C57 C 1.0838(3) 0.5928(3) 0.2802(2)
H47 H 1.0346 0.5263 0.2813
C58 C 0.8084(3) 0.7218(3) 0.4073(2)
H48 H 0.7838 0.7799 0.3878
C59 C 1.2704(3) 0.6945(3) 0.2874(2)
H49 H 1.347 0.6971 0.2933
C60 C 1.1186(3) 0.7847(3) 0.26931(19)
H50 H 1.0924 0.849 0.2626
C61 C 0.4991(3) 0.3153(3) 0.4387(2)
H51 H 0.5271 0.2544 0.4514
C62 C 1.1970(3) 0.5963(3) 0.2884(2)
H52 H 1.224 0.5322 0.2946
C63 C 0.3725(3) 0.4363(4) 0.4487(2)
H53 H 0.3139 0.4563 0.4677
C64 C 0.8573(4) 0.7370(4) 0.4729(2)
H54 H 0.8654 0.8053 0.4971
C65 C 0.2943(3) 0.2319(4) 0.1901(2)
H55 H 0.2307 0.1768 0.1874
C66 C 0.9069(3) 0.4317(3) 0.1418(2)
H56 H 0.8674 0.375 0.1617
C67 C 1.0236(4) 0.5969(4) 0.0810(2)
H57 H 1.0622 0.6524 0.0599
C68 C 0.4181(3) 0.4979(3) 0.4030(2)
H58 H 0.3908 0.5598 0.3916
C69 C 0.4123(3) 0.3450(4) 0.4669(2)
H59 H 0.3808 0.3035 0.4981
C70 C 0.8809(3) 0.5510(4) 0.4666(2)
H60 H 0.9051 0.4932 0.4865
C71 C 0.9327(3) 0.6140(3) 0.10956(19)
H61 H 0.9104 0.6813 0.1077
C72 C 0.3793(3) 0.4228(4) 0.1892(2)
H62 H 0.3716 0.4951 0.1849
C73 C 0.9987(3) 0.4149(4) 0.1129(2)
H63 H 1.0203 0.3471 0.1133
C74 C 1.2300(3) 0.7884(3) 0.2777(2)
H64 H 1.2793 0.8549 0.2769
C75 C 1.0575(4) 0.4984(4) 0.0836(2)
H65 H 1.1206 0.488 0.0656
C76 C 0.2848(3) 0.3393(4) 0.1848(2)
H66 H 0.2143 0.3566 0.1781
C77 C 0.8937(3) 0.6528(4) 0.5027(2)
H67 H 0.9269 0.6637 0.5468
C78 C 0.3985(3) 0.2068(4) 0.1995(2)
H68 H 0.4057 0.134 0.2022
Cl3? Cl 0.3300(11) 0.7828(12) 0.0733(7)
C2? C 0.402(4) 0.676(3) 0.079(3)
H3? H 0.4792 0.7033 0.0731
H4? H 0.4019 0.6505 0.1221
Cl4? Cl 0.3435(10) 0.5717(10) 0.0203(5)
loop_
_geom_bond_atom_site_label_1
_geom_bond_atom_site_label_2
_geom_bond_site_symmetry_1
_geom_bond_site_symmetry_2
Cl1 C1 1_555 1_555
C1 H1 1_555 1_555
H2 C1 1_555 1_555
Cl2 C1 1_555 1_555
O1 H5 1_555 1_555
O2 C10 1_555 1_555
O3 C6 1_555 1_555
C3 O1 1_555 1_555
C4 H6 1_555 1_555
C5 C3 1_555 1_555
H7 C5 1_555 1_555
H8 C5 1_555 1_555
C6 C8 1_555 1_555
C7 C15 1_555 1_555
C8 C3 1_555 1_555
H9 C8 1_555 1_555
C9 C4 1_555 1_555
H10 C9 1_555 1_555
C10 C4 1_555 1_555
C11 C9 1_555 1_555
C12 C3 1_555 1_555
C13 C10 1_555 1_555
C14 C6 1_555 1_555
C15 C4 1_555 1_555
H11 C15 1_555 1_555
C16 C7 1_555 1_555
H12 C16 1_555 1_555
C17 C11 1_555 1_555
H13 C17 1_555 1_555
C18 H14 1_555 1_555
C19 C13 1_555 1_555
H15 C19 1_555 1_555
C20 H16 1_555 1_555
C21 C12 1_555 1_555
H17 C21 1_555 1_555
C22 C14 1_555 1_555
H18 C22 1_555 1_555
C23 C17 1_555 1_555
H19 C23 1_555 1_555
C24 C7 1_555 1_555
H20 C24 1_555 1_555
C25 C12 1_555 1_555
H21 C25 1_555 1_555
C26 C18 1_555 1_555
H22 C26 1_555 1_555
C27 C16 1_555 1_555
H23 C27 1_555 1_555
C28 C20 1_555 1_555
H24 C28 1_555 1_555
C29 H25 1_555 1_555
C30 C13 1_555 1_555
H26 C30 1_555 1_555
C31 C22 1_555 1_555
H27 C31 1_555 1_555
C32 H28 1_555 1_555
C33 C23 1_555 1_555
H29 C33 1_555 1_555
C34 C21 1_555 1_555
H30 C34 1_555 1_555
C35 C14 1_555 1_555
H31 C35 1_555 1_555
C36 H32 1_555 1_555
C37 C19 1_555 1_555
H33 C37 1_555 1_555
C38 C29 1_555 1_555
H34 C38 1_555 1_555
C39 C11 1_555 1_555
H35 C39 1_555 1_555
C40 C30 1_555 1_555
H36 C40 1_555 1_555
O4 C44 1_555 1_555
O5 C52 1_555 1_555
O6 H37 1_555 1_555
C41 H38 1_555 1_555
C42 H39 1_555 1_555
C43 C51 1_555 1_555
C44 C41 1_555 1_555
C45 O6 1_555 1_555
C46 C44 1_555 1_555
C47 C45 1_555 1_555
H40 C47 1_555 1_555
H41 C47 1_555 1_555
C48 C42 1_555 1_555
H42 C48 1_555 1_555
C49 C52 1_555 1_555
C50 C48 1_555 1_555
C51 C41 1_555 1_555
H43 C51 1_555 1_555
C52 C42 1_555 1_555
C53 C43 1_555 1_555
H44 C53 1_555 1_555
C54 H45 1_555 1_555
C55 C46 1_555 1_555
H46 C55 1_555 1_555
C56 C45 1_555 1_555
C57 C49 1_555 1_555
H47 C57 1_555 1_555
C58 C43 1_555 1_555
H48 C58 1_555 1_555
C59 H49 1_555 1_555
C60 C49 1_555 1_555
H50 C60 1_555 1_555
C61 C55 1_555 1_555
H51 C61 1_555 1_555
C62 C57 1_555 1_555
H52 C62 1_555 1_555
C63 H53 1_555 1_555
C64 C58 1_555 1_555
H54 C64 1_555 1_555
C65 H55 1_555 1_555
C66 C50 1_555 1_555
H56 C66 1_555 1_555
C67 H57 1_555 1_555
C68 C46 1_555 1_555
H58 C68 1_555 1_555
C69 C61 1_555 1_555
H59 C69 1_555 1_555
C70 C53 1_555 1_555
H60 C70 1_555 1_555
C71 C50 1_555 1_555
H61 C71 1_555 1_555
C72 C56 1_555 1_555
H62 C72 1_555 1_555
C73 C66 1_555 1_555
H63 C73 1_555 1_555
C74 C59 1_555 1_555
H64 C74 1_555 1_555
C75 C67 1_555 1_555
H65 C75 1_555 1_555
C76 C65 1_555 1_555
H66 C76 1_555 1_555
C77 C64 1_555 1_555
H67 C77 1_555 1_555
C78 C54 1_555 1_555
H68 C78 1_555 1_555
C5 C15 1_555 1_555
C8 C9 1_555 1_555
C18 C25 1_555 1_555
C20 C27 1_555 1_555
C24 C28 1_555 1_555
C26 C34 1_555 1_555
C29 C31 1_555 1_555
C32 C33 1_555 1_555
C32 C39 1_555 1_555
C35 C38 1_555 1_555
C36 C37 1_555 1_555
C36 C40 1_555 1_555
C41 C45 1_555 1_555
C42 C51 1_555 1_555
C47 C48 1_555 1_555
C54 C56 1_555 1_555
C59 C62 1_555 1_555
C60 C74 1_555 1_555
C63 C68 1_555 1_555
C63 C69 1_555 1_555
C65 C78 1_555 1_555
C67 C71 1_555 1_555
C70 C77 1_555 1_555
C72 C76 1_555 1_555
C73 C75 1_555 1_555

#END
