
#######################################################################
#
#                 Cambridge Crystallographic Data Centre
#                                CCDC 
#
#######################################################################
#
# If this CIF has been generated from an entry in the Cambridge 
# Structural Database, then it will include bibliographic, chemical, 
# crystal, experimental, refinement or atomic coordinate data resulting 
# from the CCDC's data processing and validation procedures.
#
#######################################################################

data_HIRJUO
_chemical_formula_moiety         'C38 H32 O3,0.5(C1 H2 Cl2)'
_chemical_name_systematic        
'(1RS,2SR,3RS,4SR,5RS)-2,4-Dibenzoyl-1,3,5-triphenylcyclohexan-1-ol dichloromethane solvate'
_symmetry_cell_setting           triclinic
_symmetry_space_group_name_H-M   'P -1'
_symmetry_Int_Tables_number      2
_space_group_name_Hall           '-P 1'
loop_
_symmetry_equiv_pos_site_id
_symmetry_equiv_pos_as_xyz
1 x,y,z
2 -x,-y,-z
_cell_length_a                   12.452(11)
_cell_length_b                   12.527(11)
_cell_length_c                   20.631(18)
_cell_angle_alpha                94.152(15)
_cell_angle_beta                 97.683(14)
_cell_angle_gamma                100.908(14)
_cell_volume                     3115.82
_exptl_crystal_colour            colorless
_exptl_crystal_description       block
_cell_formula_units_Z            4
_exptl_crystal_recrystallization_method ethanol/dichloromethane
loop_
_atom_site_label
_atom_site_type_symbol
_atom_site_fract_x
_atom_site_fract_y
_atom_site_fract_z
Cl1 Cl 0.6656(2) 0.7680(2) 0.36319(11)
Cl2 Cl 0.7072(2) 0.8105(4) 0.49918(13)
C1 C 0.6124(5) 0.8111(7) 0.4318(3)
H1 H 0.5982 0.8842 0.4284
H2 H 0.5433 0.7624 0.4352
O1 O 0.36092(18) 0.40310(17) 0.36048(10)
H3 H 0.3285 0.3744 0.3888
O2 O 0.1561(2) 0.3367(2) 0.39103(12)
O3 O 0.2578(2) 0.24637(19) 0.16499(11)
C2 C 0.3194(2) 0.4986(2) 0.34476(14)
C3 C 0.1943(2) 0.4668(2) 0.31583(13)
H4 H 0.1683 0.5330 0.3041
C4 C 0.1743(2) 0.3851(2) 0.25358(14)
H5 H 0.1951 0.3176 0.2672
C5 C 0.2475(2) 0.4258(2) 0.20236(14)
H6 H 0.2213 0.4871 0.1830
C6 C 0.3712(2) 0.4628(2) 0.23160(14)
H7 H 0.3975 0.3983 0.2462
C7 C 0.3842(2) 0.5448(2) 0.29221(14)
H8 H 0.4619 0.5661 0.3106
H9 H 0.3591 0.6098 0.2790
C8 C 0.3379(2) 0.5823(3) 0.40493(14)
C9 C 0.3091(3) 0.6832(3) 0.40019(16)
H10 H 0.2759 0.6996 0.3600
C10 C 0.3289(3) 0.7599(3) 0.45408(17)
H11 H 0.3092 0.8274 0.4500
C11 C 0.3779(3) 0.7368(3) 0.51393(17)
H12 H 0.3919 0.7885 0.5503
C12 C 0.4055(3) 0.6376(3) 0.51921(16)
H13 H 0.4384 0.6218 0.5596
C13 C 0.3856(3) 0.5597(3) 0.46554(15)
H14 H 0.4043 0.4919 0.4703
C14 C 0.1275(3) 0.4156(3) 0.36602(15)
C15 C 0.0314(3) 0.4560(3) 0.38562(15)
C16 C -0.0007(3) 0.5486(3) 0.36472(17)
H15 H 0.0393 0.5895 0.3368
C17 C -0.0920(3) 0.5811(3) 0.3849(2)
H16 H -0.1133 0.6435 0.3702
C18 C -0.1508(3) 0.5225(4) 0.4259(2)
H17 H -0.2115 0.5454 0.4398
C19 C -0.1206(3) 0.4297(4) 0.44666(18)
H18 H -0.1620 0.3889 0.4740
C20 C -0.0299(3) 0.3961(3) 0.42748(16)
H19 H -0.0093 0.3335 0.4424
C21 C 0.0529(3) 0.3561(2) 0.22293(14)
C22 C -0.0046(3) 0.2497(3) 0.21561(17)
H20 H 0.0310 0.1948 0.2298
C23 C -0.1147(3) 0.2233(3) 0.1873(2)
H21 H -0.1523 0.1509 0.1828
C24 C -0.1684(3) 0.3017(4) 0.16631(18)
H22 H -0.2425 0.2834 0.1476
C25 C -0.1132(3) 0.4080(3) 0.17269(17)
H23 H -0.1496 0.4621 0.1581
C26 C -0.0029(3) 0.4352(3) 0.20089(16)
H24 H 0.0341 0.5077 0.2051
C27 C 0.2361(3) 0.3329(3) 0.14882(15)
C28 C 0.2015(3) 0.3452(3) 0.07848(16)
C29 C 0.1639(4) 0.4334(3) 0.05594(19)
H25 H 0.1616 0.4920 0.0857
C30 C 0.1288(5) 0.4374(4) -0.0105(2)
H26 H 0.1021 0.4976 -0.0246
C31 C 0.1335(4) 0.3542(4) -0.0546(2)
H27 H 0.1111 0.3573 -0.0991
C32 C 0.1707(4) 0.2667(4) -0.0337(2)
H28 H 0.1737 0.2092 -0.0641
C33 C 0.2046(3) 0.2609(3) 0.03230(19)
H29 H 0.2297 0.1995 0.0457
C34 C 0.4386(3) 0.5055(3) 0.17995(15)
C35 C 0.4320(3) 0.6037(3) 0.15533(17)
H30 H 0.3875 0.6469 0.1726
C36 C 0.4894(3) 0.6397(3) 0.10586(19)
H31 H 0.4827 0.7058 0.0896
C37 C 0.5563(3) 0.5777(4) 0.08089(19)
H32 H 0.5949 0.6013 0.0472
C38 C 0.5665(3) 0.4810(3) 0.10538(19)
H33 H 0.6128 0.4391 0.0888
C39 C 0.5081(3) 0.4456(3) 0.15460(16)
H34 H 0.5159 0.3798 0.1711
O4 O 0.43540(19) 0.90376(19) 0.31106(12)
H35 H 0.4821 0.8848 0.2908
O5 O 0.47955(19) 0.8726(2) 0.18429(12)
O6 O 0.10992(18) 0.72014(18) 0.24378(12)
C40 C 0.4095(3) 1.0040(3) 0.28854(15)
C41 C 0.3593(2) 0.9856(2) 0.21476(14)
H36 H 0.3385 1.0533 0.2013
C42 C 0.2570(2) 0.8929(2) 0.20069(15)
H37 H 0.2808 0.8252 0.2113
C43 C 0.1701(2) 0.9110(2) 0.24427(14)
H38 H 0.1362 0.9713 0.2295
C44 C 0.2189(2) 0.9378(3) 0.31802(15)
H39 H 0.2420 0.8724 0.3337
C45 C 0.3210(2) 1.0300(3) 0.32778(15)
H40 H 0.2992 1.0964 0.3145
H41 H 0.3516 1.0429 0.3741
C46 C 0.5130(3) 1.0956(3) 0.29897(15)
C47 C 0.6171(3) 1.0724(3) 0.31124(18)
H42 H 0.6252 1.0008 0.3156
C48 C 0.7105(3) 1.1560(4) 0.3171(2)
H43 H 0.7805 1.1395 0.3251
C49 C 0.7006(4) 1.2612(4) 0.31141(18)
H44 H 0.7633 1.3162 0.3147
C50 C 0.5980(3) 1.2851(3) 0.30080(17)
H45 H 0.5904 1.3571 0.2977
C51 C 0.5043(3) 1.2025(3) 0.29459(16)
H46 H 0.4347 1.2199 0.2873
C52 C 0.4469(3) 0.9577(3) 0.17487(16)
C53 C 0.4938(3) 1.0293(3) 0.12746(15)
C54 C 0.4558(3) 1.1216(3) 0.10951(17)
H47 H 0.3984 1.1423 0.1286
C55 C 0.5018(3) 1.1827(3) 0.06389(19)
H48 H 0.4747 1.2438 0.0519
C56 C 0.5872(3) 1.1544(4) 0.03611(19)
H49 H 0.6187 1.1965 0.0056
C57 C 0.6260(3) 1.0641(4) 0.0533(2)
H50 H 0.6843 1.0450 0.0345
C58 C 0.5800(3) 1.0009(3) 0.09827(17)
H51 H 0.6067 0.9390 0.1091
C59 C 0.2059(2) 0.8773(3) 0.12931(16)
C60 C 0.1685(3) 0.9616(3) 0.09842(16)
H52 H 0.1757 1.0289 0.1225
C61 C 0.1211(3) 0.9480(4) 0.03316(19)
H53 H 0.0984 1.0061 0.0134
C62 C 0.1077(3) 0.8484(5) -0.0023(2)
H54 H 0.0738 0.8378 -0.0459
C63 C 0.1442(4) 0.7648(4) 0.0267(2)
H55 H 0.1361 0.6975 0.0024
C64 C 0.1931(3) 0.7790(3) 0.0918(2)
H56 H 0.2179 0.7211 0.1106
C65 C 0.0804(3) 0.8076(3) 0.23779(15)
C66 C -0.0391(3) 0.8106(3) 0.22748(15)
C67 C -0.0807(3) 0.9029(3) 0.21618(19)
H57 H -0.0322 0.9683 0.2136
C68 C -0.1927(3) 0.9005(3) 0.2086(2)
H58 H -0.2191 0.9639 0.2016
C69 C -0.2644(3) 0.8055(4) 0.2114(2)
H59 H -0.3401 0.8037 0.2055
C70 C -0.2262(3) 0.7127(3) 0.22272(18)
H60 H -0.2755 0.6478 0.2252
C71 C -0.1142(3) 0.7154(3) 0.23058(16)
H61 H -0.0886 0.6516 0.2382
C72 C 0.1287(3) 0.9628(3) 0.35635(15)
C73 C 0.0953(3) 1.0615(3) 0.35598(17)
H62 H 0.1337 1.1175 0.3357
C74 C 0.0060(3) 1.0784(4) 0.3852(2)
H63 H -0.0158 1.1453 0.3841
C75 C -0.0505(3) 0.9978(4) 0.4156(2)
H64 H -0.1115 1.0092 0.4346
C76 C -0.0171(3) 0.8993(4) 0.41813(19)
H65 H -0.0545 0.8444 0.4396
C77 C 0.0716(3) 0.8826(3) 0.38880(17)
H66 H 0.0939 0.8159 0.3907
Cl3? Cl 0.6733(8) 0.7238(8) 0.4053(6)
Cl4? Cl 0.6652(5) 0.9270(4) 0.4809(2)
C78? C 0.6124(5) 0.8111(7) 0.4318(3)
H67? H 0.5560 0.7712 0.4541
H68? H 0.5730 0.8337 0.3930
loop_
_geom_bond_atom_site_label_1
_geom_bond_atom_site_label_2
_geom_bond_site_symmetry_1
_geom_bond_site_symmetry_2
Cl1 C1 1_555 1_555
Cl2 C1 1_555 1_555
C1 H1 1_555 1_555
H2 C1 1_555 1_555
O1 H3 1_555 1_555
O2 C14 1_555 1_555
O3 C27 1_555 1_555
C2 O1 1_555 1_555
C3 C2 1_555 1_555
H4 C3 1_555 1_555
C4 C3 1_555 1_555
H5 C4 1_555 1_555
C5 C4 1_555 1_555
H6 C5 1_555 1_555
C6 C5 1_555 1_555
H7 C6 1_555 1_555
C7 C2 1_555 1_555
H8 C7 1_555 1_555
H9 C7 1_555 1_555
C8 C2 1_555 1_555
C9 C8 1_555 1_555
H10 C9 1_555 1_555
C10 C9 1_555 1_555
H11 C10 1_555 1_555
C11 C10 1_555 1_555
H12 C11 1_555 1_555
C12 C11 1_555 1_555
H13 C12 1_555 1_555
C13 C8 1_555 1_555
H14 C13 1_555 1_555
C14 C3 1_555 1_555
C15 C14 1_555 1_555
C16 C15 1_555 1_555
H15 C16 1_555 1_555
C17 C16 1_555 1_555
H16 C17 1_555 1_555
C18 C17 1_555 1_555
H17 C18 1_555 1_555
C19 C18 1_555 1_555
H18 C19 1_555 1_555
C20 C15 1_555 1_555
H19 C20 1_555 1_555
C21 C4 1_555 1_555
C22 C21 1_555 1_555
H20 C22 1_555 1_555
C23 C22 1_555 1_555
H21 C23 1_555 1_555
C24 C23 1_555 1_555
H22 C24 1_555 1_555
C25 C24 1_555 1_555
H23 C25 1_555 1_555
C26 C21 1_555 1_555
H24 C26 1_555 1_555
C27 C5 1_555 1_555
C28 C27 1_555 1_555
C29 C28 1_555 1_555
H25 C29 1_555 1_555
C30 C29 1_555 1_555
H26 C30 1_555 1_555
C31 C30 1_555 1_555
H27 C31 1_555 1_555
C32 C31 1_555 1_555
H28 C32 1_555 1_555
C33 C28 1_555 1_555
H29 C33 1_555 1_555
C34 C6 1_555 1_555
C35 C34 1_555 1_555
H30 C35 1_555 1_555
C36 C35 1_555 1_555
H31 C36 1_555 1_555
C37 C36 1_555 1_555
H32 C37 1_555 1_555
C38 C37 1_555 1_555
H33 C38 1_555 1_555
C39 C34 1_555 1_555
H34 C39 1_555 1_555
O4 H35 1_555 1_555
O5 C52 1_555 1_555
O6 C65 1_555 1_555
C40 O4 1_555 1_555
C41 C40 1_555 1_555
H36 C41 1_555 1_555
C42 C41 1_555 1_555
H37 C42 1_555 1_555
C43 C42 1_555 1_555
H38 C43 1_555 1_555
C44 C43 1_555 1_555
H39 C44 1_555 1_555
C45 C40 1_555 1_555
H40 C45 1_555 1_555
H41 C45 1_555 1_555
C46 C40 1_555 1_555
C47 C46 1_555 1_555
H42 C47 1_555 1_555
C48 C47 1_555 1_555
H43 C48 1_555 1_555
C49 C48 1_555 1_555
H44 C49 1_555 1_555
C50 C49 1_555 1_555
H45 C50 1_555 1_555
C51 C46 1_555 1_555
H46 C51 1_555 1_555
C52 C41 1_555 1_555
C53 C52 1_555 1_555
C54 C53 1_555 1_555
H47 C54 1_555 1_555
C55 C54 1_555 1_555
H48 C55 1_555 1_555
C56 C55 1_555 1_555
H49 C56 1_555 1_555
C57 C56 1_555 1_555
H50 C57 1_555 1_555
C58 C53 1_555 1_555
H51 C58 1_555 1_555
C59 C42 1_555 1_555
C60 C59 1_555 1_555
H52 C60 1_555 1_555
C61 C60 1_555 1_555
H53 C61 1_555 1_555
C62 C61 1_555 1_555
H54 C62 1_555 1_555
C63 C62 1_555 1_555
H55 C63 1_555 1_555
C64 C59 1_555 1_555
H56 C64 1_555 1_555
C65 C43 1_555 1_555
C66 C65 1_555 1_555
C67 C66 1_555 1_555
H57 C67 1_555 1_555
C68 C67 1_555 1_555
H58 C68 1_555 1_555
C69 C68 1_555 1_555
H59 C69 1_555 1_555
C70 C69 1_555 1_555
H60 C70 1_555 1_555
C71 C66 1_555 1_555
H61 C71 1_555 1_555
C72 C44 1_555 1_555
C73 C72 1_555 1_555
H62 C73 1_555 1_555
C74 C73 1_555 1_555
H63 C74 1_555 1_555
C75 C74 1_555 1_555
H64 C75 1_555 1_555
C76 C75 1_555 1_555
H65 C76 1_555 1_555
C77 C72 1_555 1_555
H66 C77 1_555 1_555
C6 C7 1_555 1_555
C12 C13 1_555 1_555
C19 C20 1_555 1_555
C25 C26 1_555 1_555
C32 C33 1_555 1_555
C38 C39 1_555 1_555
C44 C45 1_555 1_555
C50 C51 1_555 1_555
C57 C58 1_555 1_555
C63 C64 1_555 1_555
C70 C71 1_555 1_555
C76 C77 1_555 1_555

#END
