
#######################################################################
#
#                 Cambridge Crystallographic Data Centre
#                                CCDC 
#
#######################################################################
#
# If this CIF has been generated from an entry in the Cambridge 
# Structural Database, then it will include bibliographic, chemical, 
# crystal, experimental, refinement or atomic coordinate data resulting 
# from the CCDC's data processing and validation procedures.
#
#######################################################################

data_HIRMAX
_chemical_formula_moiety         'C20 H17 N3 O4'
_chemical_name_systematic        
N-(2-(4,6-Dimethoxypyrimidin-2-ylcarbonyl)phenyl)benzamide
_symmetry_cell_setting           triclinic
_symmetry_space_group_name_H-M   'P -1'
_symmetry_Int_Tables_number      2
_space_group_name_Hall           '-P 1'
loop_
_symmetry_equiv_pos_site_id
_symmetry_equiv_pos_as_xyz
1 x,y,z
2 -x,-y,-z
_cell_length_a                   7.7723(10)
_cell_length_b                   9.9453(13)
_cell_length_c                   11.8667(16)
_cell_angle_alpha                95.774(2)
_cell_angle_beta                 91.581(2)
_cell_angle_gamma                98.657(2)
_cell_volume                     901.367
_exptl_crystal_colour            colorless
_exptl_crystal_description       block
_cell_formula_units_Z            2
_exptl_crystal_recrystallization_method dichloromethane
loop_
_atom_site_label
_atom_site_type_symbol
_atom_site_fract_x
_atom_site_fract_y
_atom_site_fract_z
O1 O 0.61486(19) 0.38351(18) 1.17647(12)
O2 O 0.21277(16) 0.18961(15) 0.85457(10)
O3 O 0.3427(2) 0.17339(15) 0.42123(10)
O4 O 0.08396(19) -0.23710(14) 0.53910(11)
N1 N 0.44601(19) 0.28284(14) 1.02392(11)
H1 H 0.343(2) 0.2783(17) 0.9827(14)
N2 N 0.33883(19) 0.14925(15) 0.61258(11)
N3 N 0.2033(2) -0.06098(16) 0.67381(12)
C1 C 0.3827(2) 0.56041(18) 1.23623(14)
H2 H 0.4963 0.5807 1.2667
C2 C 0.2605(3) 0.63962(19) 1.27421(15)
H3 H 0.2919 0.7125 1.3301
C3 C 0.0936(3) 0.6111(2) 1.22983(16)
H4 H 0.0112 0.6646 1.2551
C4 C 0.0476(3) 0.5030(2) 1.14772(16)
H5 H -0.0662 0.4832 1.1176
C5 C 0.1699(2) 0.42366(19) 1.10982(15)
H6 H 0.1378 0.3507 1.0542
C6 C 0.3393(2) 0.45170(16) 1.15385(13)
C7 C 0.4798(2) 0.37067(18) 1.11999(14)
C8 C 0.5518(2) 0.19496(16) 0.97185(13)
C9 C 0.7138(2) 0.18155(19) 1.01697(15)
H7 H 0.7550 0.2307 1.0857
C10 C 0.8143(2) 0.0960(2) 0.96084(17)
H8 H 0.9235 0.0896 0.9919
C11 C 0.7570(2) 0.0197(2) 0.85983(16)
H9 H 0.8260 -0.0382 0.8232
C12 C 0.5967(2) 0.03076(18) 0.81442(14)
H10 H 0.5568 -0.0210 0.7465
C13 C 0.4912(2) 0.11829(16) 0.86788(13)
C14 C 0.3246(2) 0.12940(18) 0.81204(14)
C15 C 0.2867(2) 0.06568(19) 0.69021(14)
C16 C 0.2977(2) 0.09688(19) 0.50574(14)
C17 C 0.2109(2) -0.03313(19) 0.47669(14)
H11 H 0.1835 -0.0681 0.4016
C18 C 0.1669(2) -0.10860(19) 0.56526(15)
C19 C 0.4327(4) 0.3102(2) 0.4506(2)
H12 H 0.3609 0.3618 0.4967
H13 H 0.4578 0.3531 0.3827
H14 H 0.5397 0.3070 0.4920
C20 C 0.0442(4) -0.3184(2) 0.6325(2)
H15 H 0.1505 -0.3274 0.6723
H16 H -0.0152 -0.4075 0.6036
H17 H -0.0289 -0.2743 0.6834
loop_
_geom_bond_atom_site_label_1
_geom_bond_atom_site_label_2
_geom_bond_site_symmetry_1
_geom_bond_site_symmetry_2
O1 C7 1_555 1_555
O2 C14 1_555 1_555
O3 C16 1_555 1_555
O4 C18 1_555 1_555
N1 H1 1_555 1_555
N2 C15 1_555 1_555
N3 C15 1_555 1_555
C1 H2 1_555 1_555
C2 C1 1_555 1_555
H3 C2 1_555 1_555
C3 C2 1_555 1_555
H4 C3 1_555 1_555
C4 C3 1_555 1_555
H5 C4 1_555 1_555
C5 C4 1_555 1_555
H6 C5 1_555 1_555
C6 C1 1_555 1_555
C7 N1 1_555 1_555
C8 N1 1_555 1_555
C9 C8 1_555 1_555
H7 C9 1_555 1_555
C10 C9 1_555 1_555
H8 C10 1_555 1_555
C11 C10 1_555 1_555
H9 C11 1_555 1_555
C12 C11 1_555 1_555
H10 C12 1_555 1_555
C13 C8 1_555 1_555
C14 C13 1_555 1_555
C15 C14 1_555 1_555
C16 N2 1_555 1_555
C17 C16 1_555 1_555
H11 C17 1_555 1_555
C18 N3 1_555 1_555
C19 O3 1_555 1_555
H12 C19 1_555 1_555
H13 C19 1_555 1_555
H14 C19 1_555 1_555
C20 O4 1_555 1_555
H15 C20 1_555 1_555
H16 C20 1_555 1_555
H17 C20 1_555 1_555
C5 C6 1_555 1_555
C6 C7 1_555 1_555
C12 C13 1_555 1_555
C17 C18 1_555 1_555

#END
