
#######################################################################
#
#                 Cambridge Crystallographic Data Centre
#                                CCDC 
#
#######################################################################
#
# If this CIF has been generated from an entry in the Cambridge 
# Structural Database, then it will include bibliographic, chemical, 
# crystal, experimental, refinement or atomic coordinate data resulting 
# from the CCDC's data processing and validation procedures.
#
#######################################################################

data_HIRMUR
_chemical_formula_moiety         'C27 H34 O8'
_chemical_name_systematic        
"Diethyl 4,4'-(3,3'-(1,3-dioxolane-2,2-diyl)bis(propyloxy))dibenzoate"
_symmetry_cell_setting           monoclinic
_symmetry_space_group_name_H-M   'P 21/c'
_symmetry_Int_Tables_number      14
_space_group_name_Hall           '-P 2ybc'
loop_
_symmetry_equiv_pos_site_id
_symmetry_equiv_pos_as_xyz
1 x,y,z
2 -x,1/2+y,1/2-z
3 -x,-y,-z
4 x,1/2-y,1/2+z
_cell_length_a                   20.445(3)
_cell_length_b                   7.1533(9)
_cell_length_c                   18.828(3)
_cell_angle_alpha                90
_cell_angle_beta                 111.178(2)
_cell_angle_gamma                90
_cell_volume                     2567.61
_exptl_crystal_colour            colorless
_exptl_crystal_description       block
_cell_formula_units_Z            4
_exptl_crystal_recrystallization_method methanol
loop_
_atom_site_label
_atom_site_type_symbol
_atom_site_fract_x
_atom_site_fract_y
_atom_site_fract_z
C1 C 0.02684(12) -0.3465(3) 0.84609(13)
H1 H 0.0708 -0.3324 0.8876
H2 H -0.0016 -0.4364 0.8596
H3 H 0.0030 -0.2284 0.8355
C2 C 0.03974(11) -0.4122(3) 0.77711(12)
H4 H 0.0619 -0.5343 0.7864
H5 H -0.0043 -0.4223 0.7343
C3 C 0.10844(9) -0.3230(2) 0.70460(10)
C4 C 0.15387(8) -0.1780(2) 0.69055(9)
C5 C 0.17838(9) -0.2043(2) 0.63103(10)
H6 H 0.1656 -0.3113 0.6012
C6 C 0.22105(9) -0.0743(2) 0.61594(9)
H7 H 0.2371 -0.0938 0.5762
C7 C 0.24012(8) 0.0860(2) 0.66001(8)
C8 C 0.21656(8) 0.1141(2) 0.72001(9)
H8 H 0.2297 0.2209 0.7501
C9 C 0.17343(8) -0.0179(2) 0.73460(9)
H9 H 0.1574 0.0011 0.7744
C10 C 0.30664(9) 0.3697(2) 0.68653(10)
H10 H 0.3370 0.3332 0.7374
H11 H 0.2674 0.4396 0.6905
C11 C 0.34663(8) 0.4888(2) 0.64991(9)
H12 H 0.3615 0.6027 0.6793
H13 H 0.3154 0.5238 0.5992
C12 C 0.41081(7) 0.3922(2) 0.64395(8)
H14 H 0.4380 0.3384 0.6931
H15 H 0.3954 0.2906 0.6076
C13 C 0.45780(7) 0.52163(19) 0.61951(7)
C14 C 0.42956(14) 0.8031(3) 0.55640(12)
H16 H 0.3858 0.8718 0.5365
H17 H 0.4590 0.8399 0.5283
C15 C 0.46497(11) 0.8422(2) 0.63740(10)
H18 H 0.5066 0.9171 0.6457
H19 H 0.4340 0.9098 0.6571
C16 C 0.51950(7) 0.4206(2) 0.60861(8)
H20 H 0.5020 0.3088 0.5786
H21 H 0.5389 0.5011 0.5797
C17 C 0.57797(8) 0.3653(2) 0.68199(8)
H22 H 0.5929 0.4749 0.7141
H23 H 0.5599 0.2753 0.7088
C18 C 0.64087(8) 0.2817(2) 0.66954(9)
H24 H 0.6545 0.3597 0.6350
H25 H 0.6802 0.2741 0.7176
C19 C 0.67059(7) 0.0015(2) 0.61767(8)
C20 C 0.65193(8) -0.1792(2) 0.59131(9)
H26 H 0.6090 -0.2270 0.5891
C21 C 0.69578(8) -0.2883(2) 0.56840(9)
H27 H 0.6823 -0.4090 0.5508
C22 C 0.76018(8) -0.2196(2) 0.57126(8)
C23 C 0.77802(8) -0.0381(2) 0.59612(10)
H28 H 0.8204 0.0107 0.5967
C24 C 0.73444(8) 0.0730(2) 0.62020(10)
H29 H 0.7478 0.1938 0.6378
C25 C 0.80624(9) -0.3425(3) 0.54606(10)
C26 C 0.90744(14) -0.3554(3) 0.51253(19)
H30 H 0.9328 -0.4491 0.5495
H31 H 0.8797 -0.4190 0.4659
C27 C 0.95507(16) -0.2345(4) 0.49826(19)
H32 H 0.9298 -0.1401 0.4626
H33 H 0.9840 -0.3041 0.4774
H34 H 0.9840 -0.1763 0.5450
O1 O 0.09351(9) -0.4681(2) 0.67015(9)
O2 O 0.08523(6) -0.27723(16) 0.76033(7)
O3 O 0.28179(6) 0.20775(16) 0.64019(6)
O4 O 0.41679(5) 0.61061(14) 0.54943(5)
O5 O 0.48317(5) 0.66843(14) 0.67395(5)
O6 O 0.62232(5) 0.09811(14) 0.63770(6)
O7 O 0.79521(8) -0.50437(19) 0.53014(10)
O8 O 0.86127(7) -0.25069(19) 0.54170(9)
loop_
_geom_bond_atom_site_label_1
_geom_bond_atom_site_label_2
_geom_bond_site_symmetry_1
_geom_bond_site_symmetry_2
C1 H1 1_555 1_555
H2 C1 1_555 1_555
H3 C1 1_555 1_555
C2 C1 1_555 1_555
H4 C2 1_555 1_555
H5 C2 1_555 1_555
C3 C4 1_555 1_555
C4 C5 1_555 1_555
C5 H6 1_555 1_555
C6 C5 1_555 1_555
H7 C6 1_555 1_555
C7 C6 1_555 1_555
C8 C7 1_555 1_555
H8 C8 1_555 1_555
C9 C4 1_555 1_555
H9 C9 1_555 1_555
C10 H10 1_555 1_555
H11 C10 1_555 1_555
C11 C10 1_555 1_555
H12 C11 1_555 1_555
H13 C11 1_555 1_555
C12 C11 1_555 1_555
H14 C12 1_555 1_555
H15 C12 1_555 1_555
C13 C12 1_555 1_555
C14 H16 1_555 1_555
H17 C14 1_555 1_555
C15 C14 1_555 1_555
H18 C15 1_555 1_555
H19 C15 1_555 1_555
C16 C13 1_555 1_555
H20 C16 1_555 1_555
H21 C16 1_555 1_555
C17 C16 1_555 1_555
H22 C17 1_555 1_555
H23 C17 1_555 1_555
C18 C17 1_555 1_555
H24 C18 1_555 1_555
H25 C18 1_555 1_555
C19 C20 1_555 1_555
C20 H26 1_555 1_555
C21 C20 1_555 1_555
H27 C21 1_555 1_555
C22 C21 1_555 1_555
C23 C22 1_555 1_555
H28 C23 1_555 1_555
C24 C19 1_555 1_555
H29 C24 1_555 1_555
C25 C22 1_555 1_555
C26 H30 1_555 1_555
H31 C26 1_555 1_555
C27 C26 1_555 1_555
H32 C27 1_555 1_555
H33 C27 1_555 1_555
H34 C27 1_555 1_555
O1 C3 1_555 1_555
O2 C2 1_555 1_555
O3 C7 1_555 1_555
O4 C13 1_555 1_555
O5 C13 1_555 1_555
O6 C18 1_555 1_555
O7 C25 1_555 1_555
O8 C25 1_555 1_555
C3 O2 1_555 1_555
C8 C9 1_555 1_555
C10 O3 1_555 1_555
C14 O4 1_555 1_555
C15 O5 1_555 1_555
C19 O6 1_555 1_555
C23 C24 1_555 1_555
C26 O8 1_555 1_555

#END
