
#######################################################################
#
#                 Cambridge Crystallographic Data Centre
#                                CCDC 
#
#######################################################################
#
# If this CIF has been generated from an entry in the Cambridge 
# Structural Database, then it will include bibliographic, chemical, 
# crystal, experimental, refinement or atomic coordinate data resulting 
# from the CCDC's data processing and validation procedures.
#
#######################################################################

data_HIRMIF
_chemical_formula_moiety         'C19 H13 Cl1 N4'
_chemical_name_systematic        
4-(4-Chlorophenyl)-3-phenyl-5-(4-pyridyl)-4H-1,2,4-triazole
_symmetry_cell_setting           monoclinic
_symmetry_space_group_name_H-M   'P 21/n'
_symmetry_Int_Tables_number      14
_space_group_name_Hall           '-P 2yn'
loop_
_symmetry_equiv_pos_site_id
_symmetry_equiv_pos_as_xyz
1 x,y,z
2 1/2-x,1/2+y,1/2-z
3 -x,-y,-z
4 1/2+x,1/2-y,1/2+z
_cell_length_a                   5.6436(8)
_cell_length_b                   16.730(2)
_cell_length_c                   16.239(2)
_cell_angle_alpha                90
_cell_angle_beta                 95.193(7)
_cell_angle_gamma                90
_cell_volume                     1526.95
_exptl_crystal_colour            colorless
_exptl_crystal_description       prism
_chemical_melting_point          '488-489 K'
_cell_formula_units_Z            4
_exptl_crystal_recrystallization_method ethanol
loop_
_atom_site_label
_atom_site_type_symbol
_atom_site_fract_x
_atom_site_fract_y
_atom_site_fract_z
Cl1 Cl 0.04399(10) 0.03869(2) -0.12216(3)
N1 N 0.0462(2) 0.27192(7) 0.15171(7)
N2 N 0.1492(2) 0.37831(8) 0.22700(8)
N3 N -0.0129(2) 0.33435(8) 0.26789(8)
N4 N 0.6710(3) 0.41964(8) -0.01248(9)
C1 C 0.0402(3) 0.21366(8) 0.08607(9)
C2 C -0.1579(3) 0.20819(9) 0.02902(9)
H1 H -0.2925 0.2413 0.0342
C3 C -0.1572(3) 0.15387(9) -0.03561(10)
H2 H -0.2911 0.1493 -0.0752
C4 C 0.0415(3) 0.10650(9) -0.04141(9)
C5 C 0.2388(3) 0.11159(9) 0.01555(10)
H3 H 0.3732 0.0784 0.0104
C6 C 0.2378(3) 0.16572(9) 0.08021(10)
H4 H 0.3713 0.1698 0.1200
C7 C 0.1828(3) 0.34010(8) 0.15814(9)
C8 C -0.0723(3) 0.27118(9) 0.22224(9)
C9 C 0.3466(3) 0.36720(9) 0.09792(9)
C10 C 0.2993(3) 0.35674(9) 0.01233(10)
H5 H 0.1561 0.3319 -0.0098
C11 C 0.4652(3) 0.38327(9) -0.03956(10)
H6 H 0.4319 0.3754 -0.0974
C12 C 0.7103(3) 0.43173(9) 0.07007(10)
H7 H 0.8514 0.4589 0.0905
C13 C 0.5552(3) 0.40652(9) 0.12651(10)
H8 H 0.5911 0.4160 0.1840
C14 C -0.2430(3) 0.21041(9) 0.24557(9)
C15 C -0.4253(3) 0.23521(9) 0.29282(9)
H9 H -0.4386 0.2899 0.3075
C16 C -0.5866(3) 0.17960(10) 0.31825(10)
H10 H -0.7085 0.1967 0.3509
C17 C -0.5729(3) 0.10054(10) 0.29707(10)
H11 H -0.6851 0.0633 0.3145
C18 C -0.3944(3) 0.07550(10) 0.25005(10)
H12 H -0.3855 0.0209 0.2347
C19 C -0.2272(3) 0.12954(9) 0.22487(9)
H13 H -0.1030 0.1115 0.1937
loop_
_geom_bond_atom_site_label_1
_geom_bond_atom_site_label_2
_geom_bond_site_symmetry_1
_geom_bond_site_symmetry_2
Cl1 C4 1_555 1_555
N1 C1 1_555 1_555
N2 N3 1_555 1_555
N3 C8 1_555 1_555
N4 C11 1_555 1_555
C1 C2 1_555 1_555
C2 H1 1_555 1_555
C3 C2 1_555 1_555
H2 C3 1_555 1_555
C4 C3 1_555 1_555
C5 C4 1_555 1_555
H3 C5 1_555 1_555
C6 C1 1_555 1_555
H4 C6 1_555 1_555
C7 N1 1_555 1_555
C8 N1 1_555 1_555
C9 C7 1_555 1_555
C10 C9 1_555 1_555
H5 C10 1_555 1_555
C11 C10 1_555 1_555
H6 C11 1_555 1_555
C12 N4 1_555 1_555
H7 C12 1_555 1_555
C13 C9 1_555 1_555
H8 C13 1_555 1_555
C14 C8 1_555 1_555
C15 C14 1_555 1_555
H9 C15 1_555 1_555
C16 C15 1_555 1_555
H10 C16 1_555 1_555
C17 C16 1_555 1_555
H11 C17 1_555 1_555
C18 C17 1_555 1_555
H12 C18 1_555 1_555
C19 C14 1_555 1_555
H13 C19 1_555 1_555
N2 C7 1_555 1_555
C5 C6 1_555 1_555
C12 C13 1_555 1_555
C18 C19 1_555 1_555

#END
