
#######################################################################
#
#                 Cambridge Crystallographic Data Centre
#                                CCDC 
#
#######################################################################
#
# If this CIF has been generated from an entry in the Cambridge 
# Structural Database, then it will include bibliographic, chemical, 
# crystal, experimental, refinement or atomic coordinate data resulting 
# from the CCDC's data processing and validation procedures.
#
#######################################################################

data_HIRSIL
_chemical_formula_moiety         'C34 H30 N4 O4,C1 H1 Cl3'
_chemical_name_systematic        
'1,4-Dimethoxy-13b,13c-diphenyl-6H,13H-5,7,12,13b,13c,14-hexahydro-5a,6a,12a,13a-tetraazabenz(5,6)azuleno(2,1,8-ija)benz(f)azulene-6,13-dione chloroform solvate'
_symmetry_cell_setting           triclinic
_symmetry_space_group_name_H-M   'P -1'
_symmetry_Int_Tables_number      2
_space_group_name_Hall           '-P 1'
loop_
_symmetry_equiv_pos_site_id
_symmetry_equiv_pos_as_xyz
1 x,y,z
2 -x,-y,-z
_cell_length_a                   11.0635(17)
_cell_length_b                   12.5197(19)
_cell_length_c                   14.174(2)
_cell_angle_alpha                64.652(3)
_cell_angle_beta                 87.539(3)
_cell_angle_gamma                68.087(3)
_cell_volume                     1630
_exptl_crystal_colour            colorless
_exptl_crystal_description       block
_cell_formula_units_Z            2
_exptl_crystal_recrystallization_method chloroform/methanol
loop_
_atom_site_label
_atom_site_type_symbol
_atom_site_fract_x
_atom_site_fract_y
_atom_site_fract_z
C1 C -0.1406(3) 0.6430(3) 0.2839(3)
C2 C -0.2244(4) 0.7493(4) 0.2984(3)
H1 H -0.1961 0.7707 0.3462
C3 C -0.3486(4) 0.8218(4) 0.2420(4)
H2 H -0.4044 0.8915 0.2523
C4 C -0.3906(4) 0.7918(4) 0.1707(4)
H3 H -0.4749 0.8409 0.1331
C5 C -0.3085(4) 0.6895(4) 0.1545(3)
H4 H -0.3374 0.6709 0.1049
C6 C -0.1831(4) 0.6132(3) 0.2109(3)
C7 C -0.0980(3) 0.4973(3) 0.1953(3)
H5 H -0.0833 0.4206 0.2606
H6 H -0.1456 0.4928 0.1420
C8 C -0.0070(4) 0.5620(3) 0.3503(3)
H7 H 0.0039 0.5998 0.3948
H8 H -0.0042 0.4770 0.3961
C9 C 0.0355(3) 0.5824(3) 0.0637(3)
C10 C 0.1732(3) 0.6231(3) 0.2662(3)
C11 C 0.1362(3) 0.4639(3) 0.2390(2)
C12 C 0.1906(3) 0.3242(3) 0.3196(3)
C13 C 0.1770(4) 0.2316(3) 0.2978(3)
H9 H 0.1294 0.2554 0.2345
C14 C 0.2344(4) 0.1027(4) 0.3703(4)
H10 H 0.2245 0.0404 0.3559
C15 C 0.3064(5) 0.0674(4) 0.4640(4)
H11 H 0.3451 -0.0189 0.5123
C16 C 0.3207(4) 0.1582(4) 0.4856(3)
H12 H 0.3696 0.1342 0.5483
C17 C 0.2622(4) 0.2863(4) 0.4142(3)
H13 H 0.2711 0.3482 0.4298
C18 C 0.2372(3) 0.5091(3) 0.1657(2)
C19 C 0.3615(3) 0.4004(3) 0.1684(2)
C20 C 0.3570(3) 0.3353(3) 0.1123(3)
H14 H 0.2804 0.3632 0.0685
C21 C 0.4653(4) 0.2286(3) 0.1202(3)
H15 H 0.4615 0.1854 0.0817
C22 C 0.5776(4) 0.1873(4) 0.1850(3)
H16 H 0.6502 0.1155 0.1907
C23 C 0.5843(4) 0.2507(4) 0.2414(3)
H17 H 0.6612 0.2225 0.2850
C24 C 0.4759(3) 0.3570(3) 0.2333(3)
H18 H 0.4802 0.3997 0.2722
C25 C 0.2006(3) 0.6642(3) -0.0291(3)
H19 H 0.1522 0.6795 -0.0922
H20 H 0.2931 0.6181 -0.0294
C26 C 0.3252(3) 0.6787(3) 0.1428(3)
H21 H 0.4006 0.6331 0.1177
H22 H 0.3578 0.7036 0.1893
C27 C 0.1817(3) 0.7925(3) -0.0334(3)
C28 C 0.1085(3) 0.9054(3) -0.1229(3)
C29 C 0.0892(4) 1.0230(3) -0.1281(3)
H23 H 0.0395 1.0979 -0.1871
C30 C 0.1428(4) 1.0303(3) -0.0468(3)
H24 H 0.1286 1.1105 -0.0512
C31 C 0.2175(3) 0.9207(3) 0.0415(3)
C32 C 0.2371(3) 0.7995(3) 0.0491(3)
C33 C 0.2590(4) 1.0407(4) 0.1199(4)
H25 H 0.2920 1.0864 0.0584
H26 H 0.3065 1.0272 0.1818
H27 H 0.1672 1.0900 0.1158
C34 C 0.0162(5) 0.9993(4) -0.3025(3)
H28 H -0.0609 1.0639 -0.2970
H29 H -0.0053 0.9755 -0.3536
H30 H 0.0832 1.0327 -0.3243
N1 N 0.0289(3) 0.4966(2) 0.1636(2)
N2 N 0.1022(3) 0.5492(2) 0.2900(2)
N3 N 0.1577(3) 0.5838(2) 0.0626(2)
N4 N 0.2639(3) 0.5902(2) 0.2043(2)
O1 O -0.0526(2) 0.6432(2) -0.01028(18)
O2 O 0.1596(2) 0.7038(2) 0.29762(19)
O3 O 0.2754(3) 0.9211(2) 0.1251(2)
O4 O 0.0629(3) 0.8893(2) -0.2027(2)
C35 C 0.2834(5) 0.6779(4) 0.4960(3)
H31 H 0.2463 0.6870 0.4302
Cl1 Cl 0.3533(2) 0.51797(14) 0.58193(17)
Cl2 Cl 0.40018(18) 0.74442(14) 0.46850(15)
Cl3 Cl 0.15721(19) 0.75913(16) 0.54826(12)
loop_
_geom_bond_atom_site_label_1
_geom_bond_atom_site_label_2
_geom_bond_site_symmetry_1
_geom_bond_site_symmetry_2
C1 C2 1_555 1_555
C2 H1 1_555 1_555
C3 C2 1_555 1_555
H2 C3 1_555 1_555
C4 C3 1_555 1_555
H3 C4 1_555 1_555
C5 C4 1_555 1_555
H4 C5 1_555 1_555
C6 C1 1_555 1_555
C7 C6 1_555 1_555
H5 C7 1_555 1_555
H6 C7 1_555 1_555
C8 C1 1_555 1_555
H7 C8 1_555 1_555
H8 C8 1_555 1_555
C9 N1 1_555 1_555
C10 N2 1_555 1_555
C11 C12 1_555 1_555
C12 C13 1_555 1_555
C13 H9 1_555 1_555
C14 C13 1_555 1_555
H10 C14 1_555 1_555
C15 C14 1_555 1_555
H11 C15 1_555 1_555
C16 C15 1_555 1_555
H12 C16 1_555 1_555
C17 C12 1_555 1_555
H13 C17 1_555 1_555
C18 C11 1_555 1_555
C19 C18 1_555 1_555
C20 C19 1_555 1_555
H14 C20 1_555 1_555
C21 C20 1_555 1_555
H15 C21 1_555 1_555
C22 C21 1_555 1_555
H16 C22 1_555 1_555
C23 C22 1_555 1_555
H17 C23 1_555 1_555
C24 C19 1_555 1_555
H18 C24 1_555 1_555
C25 H19 1_555 1_555
H20 C25 1_555 1_555
C26 H21 1_555 1_555
H22 C26 1_555 1_555
C27 C25 1_555 1_555
C28 C27 1_555 1_555
C29 C28 1_555 1_555
H23 C29 1_555 1_555
C30 C29 1_555 1_555
H24 C30 1_555 1_555
C31 C30 1_555 1_555
C32 C26 1_555 1_555
C33 H25 1_555 1_555
H26 C33 1_555 1_555
H27 C33 1_555 1_555
C34 H28 1_555 1_555
H29 C34 1_555 1_555
H30 C34 1_555 1_555
C35 H31 1_555 1_555
Cl1 C35 1_555 1_555
Cl2 C35 1_555 1_555
Cl3 C35 1_555 1_555
N1 C7 1_555 1_555
N2 C8 1_555 1_555
N3 C9 1_555 1_555
N4 C10 1_555 1_555
O1 C9 1_555 1_555
O2 C10 1_555 1_555
O3 C31 1_555 1_555
O4 C28 1_555 1_555
C5 C6 1_555 1_555
C11 N1 1_555 1_555
C11 N2 1_555 1_555
C16 C17 1_555 1_555
C18 N3 1_555 1_555
C18 N4 1_555 1_555
C23 C24 1_555 1_555
C25 N3 1_555 1_555
C26 N4 1_555 1_555
C27 C32 1_555 1_555
C31 C32 1_555 1_555
C33 O3 1_555 1_555
C34 O4 1_555 1_555

#END
