
#######################################################################
#
#                 Cambridge Crystallographic Data Centre
#                                CCDC 
#
#######################################################################
#
# If this CIF has been generated from an entry in the Cambridge 
# Structural Database, then it will include bibliographic, chemical, 
# crystal, experimental, refinement or atomic coordinate data resulting 
# from the CCDC's data processing and validation procedures.
#
#######################################################################

data_HIRSEJ
_chemical_formula_moiety         'C17 H11 F1 O3'
_chemical_name_systematic        
6-fluoro-2-(4-methoxyphenyl)-1-oxo-1H-indene-3-carbaldehyde
_symmetry_cell_setting           orthorhombic
_symmetry_space_group_name_H-M   'P b c a'
_symmetry_Int_Tables_number      61
_space_group_name_Hall           '-P 2ac 2ab'
loop_
_symmetry_equiv_pos_site_id
_symmetry_equiv_pos_as_xyz
1 x,y,z
2 1/2-x,-y,1/2+z
3 1/2+x,1/2-y,-z
4 -x,1/2+y,1/2-z
5 -x,-y,-z
6 1/2+x,y,1/2-z
7 1/2-x,1/2+y,z
8 x,1/2-y,1/2+z
_cell_length_a                   14.778(3)
_cell_length_b                   5.9149(9)
_cell_length_c                   29.159(5)
_cell_angle_alpha                90
_cell_angle_beta                 90
_cell_angle_gamma                90
_cell_volume                     2548.8
_cell_formula_units_Z            8
loop_
_atom_site_label
_atom_site_type_symbol
_atom_site_fract_x
_atom_site_fract_y
_atom_site_fract_z
C1 C 0.3438(3) 0.6886(7) 0.40524(16)
C2 C 0.3869(3) 0.5007(7) 0.37727(16)
C3 C 0.4196(3) 0.3474(7) 0.40684(16)
C4 C 0.3978(3) 0.4130(7) 0.45462(17)
C5 C 0.4152(3) 0.3080(8) 0.49643(18)
H1 H 0.4450 0.1658 0.4976
C6 C 0.3877(4) 0.4177(8) 0.5368(2)
H2 H 0.3988 0.3502 0.5659
C7 C 0.3449(4) 0.6216(8) 0.53414(17)
C8 C 0.3279(3) 0.7312(7) 0.49352(18)
H3 H 0.2991 0.8748 0.4928
C9 C 0.3545(3) 0.6234(7) 0.45368(17)
C10 C 0.4749(4) 0.1513(7) 0.39368(19)
H4 H 0.4892 0.1325 0.3621
C11 C 0.3845(3) 0.4958(7) 0.32710(17)
C12 C 0.4147(3) 0.6794(7) 0.30129(17)
H5 H 0.4379 0.8092 0.3165
C13 C 0.4112(3) 0.6750(7) 0.25436(17)
H6 H 0.4342 0.7992 0.2373
C14 C 0.3748(4) 0.4920(8) 0.23153(17)
C15 C 0.3439(3) 0.3078(7) 0.25635(18)
H7 H 0.3193 0.1803 0.2409
C16 C 0.3490(4) 0.3104(7) 0.30343(16)
H8 H 0.3281 0.1832 0.3202
C17 C 0.3306(4) 0.3263(8) 0.15951(19)
H9 H 0.3676 0.1895 0.1622
H10 H 0.3257 0.3693 0.1271
H11 H 0.2701 0.2968 0.1719
F1 F 0.3189(2) 0.7205(4) 0.57377(11)
O1 O 0.3094(2) 0.8584(5) 0.38978(11)
O2 O 0.3722(3) 0.5074(5) 0.18491(12)
O3 O 0.5035(2) 0.0116(5) 0.42065(13)
loop_
_geom_bond_atom_site_label_1
_geom_bond_atom_site_label_2
_geom_bond_site_symmetry_1
_geom_bond_site_symmetry_2
C1 C2 1_555 1_555
C2 C3 1_555 1_555
C3 C4 1_555 1_555
C4 C5 1_555 1_555
C5 H1 1_555 1_555
C6 C5 1_555 1_555
H2 C6 1_555 1_555
C7 C6 1_555 1_555
C8 C7 1_555 1_555
H3 C8 1_555 1_555
C9 C1 1_555 1_555
C10 C3 1_555 1_555
H4 C10 1_555 1_555
C11 C2 1_555 1_555
C12 C11 1_555 1_555
H5 C12 1_555 1_555
C13 C12 1_555 1_555
H6 C13 1_555 1_555
C14 C13 1_555 1_555
C15 C14 1_555 1_555
H7 C15 1_555 1_555
C16 C11 1_555 1_555
H8 C16 1_555 1_555
C17 H9 1_555 1_555
H10 C17 1_555 1_555
H11 C17 1_555 1_555
F1 C7 1_555 1_555
O1 C1 1_555 1_555
O2 C14 1_555 1_555
O3 C10 1_555 1_555
C4 C9 1_555 1_555
C8 C9 1_555 1_555
C15 C16 1_555 1_555
C17 O2 1_555 1_555

#END
