
#######################################################################
#
#                 Cambridge Crystallographic Data Centre
#                                CCDC 
#
#######################################################################
#
# If this CIF has been generated from an entry in the Cambridge 
# Structural Database, then it will include bibliographic, chemical, 
# crystal, experimental, refinement or atomic coordinate data resulting 
# from the CCDC's data processing and validation procedures.
#
#######################################################################

data_HIRVUA
_chemical_formula_moiety         'C22 H18 F2 N4 O3'
_chemical_name_systematic        
2-(3-(2-(2,6-Difluorobenzyloxy)phenyl)-1H-pyrazol-1-yl)-4,6-dimethoxypyrimidine
_symmetry_cell_setting           orthorhombic
_symmetry_space_group_name_H-M   'P c c n'
_symmetry_Int_Tables_number      56
_space_group_name_Hall           '-P 2ab 2ac'
loop_
_symmetry_equiv_pos_site_id
_symmetry_equiv_pos_as_xyz
1 x,y,z
2 1/2-x,1/2-y,z
3 -x,1/2+y,1/2-z
4 1/2+x,-y,1/2-z
5 -x,-y,-z
6 1/2+x,1/2+y,-z
7 x,1/2-y,1/2+z
8 1/2-x,y,1/2+z
_cell_length_a                   30.6872(17)
_cell_length_b                   7.4261(4)
_cell_length_c                   17.7703(10)
_cell_angle_alpha                90
_cell_angle_beta                 90
_cell_angle_gamma                90
_cell_volume                     4049.61
_exptl_crystal_colour            colorless
_exptl_crystal_description       plate
_cell_formula_units_Z            8
_exptl_crystal_recrystallization_method dichloromethane
loop_
_atom_site_label
_atom_site_type_symbol
_atom_site_fract_x
_atom_site_fract_y
_atom_site_fract_z
C1 C 0.21023(11) 1.0322(9) -0.24781(19)
H1 H 0.1929 0.9303 -0.2334
H2 H 0.2106 1.0421 -0.3017
H3 H 0.1979 1.1397 -0.2266
C2 C 0.35015(9) 0.9178(4) 0.06488(17)
H4 H 0.3425 1.0316 0.0868
H5 H 0.3799 0.8902 0.0766
H6 H 0.3316 0.8254 0.0848
C3 C 0.25983(9) 1.0031(5) -0.14530(16)
C4 C 0.30104(8) 0.9710(5) -0.11906(16)
H7 H 0.3246 0.9554 -0.1512
C5 C 0.30535(7) 0.9635(4) -0.04237(15)
C6 C 0.23425(7) 1.0204(3) -0.02895(14)
N1 N 0.22532(6) 1.0283(3) -0.10123(12)
C7 C 0.19998(7) 1.0348(4) 0.09684(13)
H8 H 0.2243 1.0116 0.1265
C8 C 0.15884(7) 1.0629(4) 0.12144(13)
H9 H 0.1491 1.0619 0.1710
C9 C 0.13382(7) 1.0942(3) 0.05642(12)
C10 C 0.08717(7) 1.1413(3) 0.04837(12)
C11 C 0.07378(7) 1.2571(3) -0.00832(12)
H10 H 0.0945 1.3054 -0.0408
C12 C 0.03068(8) 1.3026(3) -0.01790(14)
H11 H 0.0224 1.3790 -0.0568
C13 C -0.00004(7) 1.2338(3) 0.03074(14)
H12 H -0.0292 1.2646 0.0247
C14 C 0.01201(7) 1.1197(3) 0.08842(14)
H13 H -0.0088 1.0749 0.1215
C15 C 0.05535(7) 1.0726(3) 0.09667(12)
C16 C 0.03880(7) 0.8740(4) 0.19954(14)
H14 H 0.0156 0.8202 0.1702
H15 H 0.0262 0.9633 0.2330
C17 C 0.06215(6) 0.7331(3) 0.24380(12)
C18 C 0.06393(8) 0.5559(4) 0.22116(14)
C19 C 0.08517(9) 0.4232(4) 0.25980(17)
H16 H 0.0854 0.3052 0.2423
C20 C 0.10615(8) 0.4699(5) 0.32536(17)
H17 H 0.1209 0.3819 0.3526
C21 C 0.10569(8) 0.6437(5) 0.35129(15)
H18 H 0.1197 0.6747 0.3959
C22 C 0.08414(8) 0.7694(4) 0.30994(14)
F1 F 0.04302(6) 0.5126(2) 0.15660(9)
F2 F 0.08362(6) 0.9420(3) 0.33448(10)
N2 N 0.15827(5) 1.0841(3) -0.00498(10)
N3 N 0.19907(5) 1.0467(3) 0.02097(10)
N4 N 0.27208(6) 0.9881(3) 0.00467(11)
O1 O 0.25419(7) 1.0092(5) -0.22035(11)
O2 O 0.34493(5) 0.9270(3) -0.01474(11)
O3 O 0.07009(5) 0.9556(2) 0.15119(9)
loop_
_geom_bond_atom_site_label_1
_geom_bond_atom_site_label_2
_geom_bond_site_symmetry_1
_geom_bond_site_symmetry_2
C1 H1 1_555 1_555
H2 C1 1_555 1_555
H3 C1 1_555 1_555
C2 H4 1_555 1_555
H5 C2 1_555 1_555
H6 C2 1_555 1_555
C3 C4 1_555 1_555
C4 H7 1_555 1_555
C5 C4 1_555 1_555
C6 N1 1_555 1_555
N1 C3 1_555 1_555
C7 H8 1_555 1_555
C8 C7 1_555 1_555
H9 C8 1_555 1_555
C9 C8 1_555 1_555
C10 C9 1_555 1_555
C11 C10 1_555 1_555
H10 C11 1_555 1_555
C12 C11 1_555 1_555
H11 C12 1_555 1_555
C13 C12 1_555 1_555
H12 C13 1_555 1_555
C14 C13 1_555 1_555
H13 C14 1_555 1_555
C15 C10 1_555 1_555
C16 H14 1_555 1_555
H15 C16 1_555 1_555
C17 C16 1_555 1_555
C18 C17 1_555 1_555
C19 C18 1_555 1_555
H16 C19 1_555 1_555
C20 C19 1_555 1_555
H17 C20 1_555 1_555
C21 C20 1_555 1_555
H18 C21 1_555 1_555
C22 C17 1_555 1_555
F1 C18 1_555 1_555
F2 C22 1_555 1_555
N2 C9 1_555 1_555
N3 C6 1_555 1_555
N4 C5 1_555 1_555
O1 C1 1_555 1_555
O2 C2 1_555 1_555
O3 C15 1_555 1_555
C3 O1 1_555 1_555
C5 O2 1_555 1_555
C6 N4 1_555 1_555
C7 N3 1_555 1_555
C14 C15 1_555 1_555
C16 O3 1_555 1_555
C21 C22 1_555 1_555
N2 N3 1_555 1_555

#END
