
#######################################################################
#
#                 Cambridge Crystallographic Data Centre
#                                CCDC 
#
#######################################################################
#
# If this CIF has been generated from an entry in the Cambridge 
# Structural Database, then it will include bibliographic, chemical, 
# crystal, experimental, refinement or atomic coordinate data resulting 
# from the CCDC's data processing and validation procedures.
#
#######################################################################

data_HIRVOU
_chemical_formula_moiety         'C25 H21 F2 N3 O5'
_chemical_name_systematic        
'Ethyl 1-(2,6-difluorobenzyl)-4-(4,6-dimethoxypyrimidin-2-yl)-2-oxo-1,2-dihydroquinoline-3-carboxylate'
_symmetry_cell_setting           orthorhombic
_symmetry_space_group_name_H-M   'P b c a'
_symmetry_Int_Tables_number      61
_space_group_name_Hall           '-P 2ac 2ab'
loop_
_symmetry_equiv_pos_site_id
_symmetry_equiv_pos_as_xyz
1 x,y,z
2 1/2-x,-y,1/2+z
3 -x,1/2+y,1/2-z
4 1/2+x,1/2-y,-z
5 -x,-y,-z
6 1/2+x,y,1/2-z
7 x,1/2-y,1/2+z
8 1/2-x,1/2+y,z
_cell_length_a                   11.667(2)
_cell_length_b                   15.686(3)
_cell_length_c                   24.594(5)
_cell_angle_alpha                90
_cell_angle_beta                 90
_cell_angle_gamma                90
_cell_volume                     4500.91
_exptl_crystal_colour            colorless
_exptl_crystal_description       block
_cell_formula_units_Z            8
_exptl_crystal_recrystallization_method dichloromethane
loop_
_atom_site_label
_atom_site_type_symbol
_atom_site_fract_x
_atom_site_fract_y
_atom_site_fract_z
C1 C 0.73891(17) 0.17372(13) 0.16587(7)
H1 H 0.6826 0.1346 0.1796
H2 H 0.7616 0.1566 0.1300
H3 H 0.7069 0.2301 0.1645
C2 C 0.96976(18) 0.27238(15) 0.42359(8)
H4 H 0.9374 0.3286 0.4237
H5 H 1.0404 0.2726 0.4436
H6 H 0.9170 0.2333 0.4403
C3 C 0.82340(14) 0.20613(11) 0.25095(7)
C4 C 0.91887(15) 0.21000(13) 0.28369(7)
H7 H 0.9905 0.1916 0.2719
C5 C 0.90176(14) 0.24282(12) 0.33494(7)
C6 C 0.71497(13) 0.26394(10) 0.31678(6)
C7 C 0.60120(12) 0.29476(10) 0.33717(6)
C8 C 0.56031(13) 0.26459(9) 0.38473(6)
C9 C 0.45379(13) 0.29613(10) 0.40849(7)
C10 C 0.43375(13) 0.38819(10) 0.32902(6)
C11 C 0.37353(17) 0.45238(12) 0.30178(8)
H8 H 0.3036 0.4711 0.3154
C12 C 0.4169(2) 0.48787(14) 0.25515(8)
H9 H 0.3759 0.5304 0.2374
C13 C 0.5208(2) 0.46126(14) 0.23429(8)
H10 H 0.5498 0.4859 0.2028
C14 C 0.58106(17) 0.39824(12) 0.26040(7)
H11 H 0.6510 0.3805 0.2462
C15 C 0.53945(13) 0.36009(10) 0.30785(6)
C16 C 0.62206(14) 0.19825(11) 0.41763(7)
C17 C 0.7161(6) 0.0662(3) 0.41641(15)
H12 H 0.7833 0.0943 0.4311
H13 H 0.6744 0.0400 0.4462
C18 C 0.7505(7) 0.0008(4) 0.37631(18)
H14 H 0.6833 -0.0250 0.3609
H15 H 0.7957 -0.0422 0.3940
H16 H 0.7948 0.0270 0.3480
C19 C 0.28061(13) 0.37913(11) 0.39887(8)
H17 H 0.2558 0.3362 0.4247
H18 H 0.2259 0.3793 0.3692
C20 C 0.27564(14) 0.46494(10) 0.42655(6)
C21 C 0.16912(15) 0.50102(11) 0.43621(7)
C22 C 0.15155(17) 0.57584(12) 0.46330(8)
H19 H 0.0779 0.5968 0.4687
C23 C 0.24528(19) 0.61930(12) 0.48243(7)
H20 H 0.2354 0.6702 0.5013
C24 C 0.35306(18) 0.58806(12) 0.47389(8)
H21 H 0.4169 0.6176 0.4865
C25 C 0.36606(15) 0.51210(12) 0.44638(7)
F1 F 0.07698(9) 0.45818(8) 0.41673(6)
F2 F 0.47380(9) 0.48299(8) 0.43831(6)
N1 N 0.71969(11) 0.23260(9) 0.26652(5)
N2 N 0.80033(11) 0.27073(9) 0.35220(5)
N3 N 0.39250(11) 0.35336(8) 0.37715(6)
O1 O 0.83663(11) 0.17355(10) 0.20088(5)
O2 O 0.99134(10) 0.24637(11) 0.36873(5)
O3 O 0.64202(11) 0.12895(7) 0.38783(5)
O4 O 0.64791(13) 0.20567(9) 0.46424(5)
O5 O 0.41807(11) 0.27281(9) 0.45267(5)
C26? C 0.6721(18) 0.0438(12) 0.4027(10)
H22? H 0.6256 0.0023 0.3835
H23? H 0.6648 0.0348 0.4416
C27? C 0.7912(17) 0.0403(15) 0.3854(11)
H24? H 0.7949 0.0432 0.3465
H25? H 0.8249 -0.0121 0.3976
H26? H 0.8323 0.0875 0.4008
loop_
_geom_bond_atom_site_label_1
_geom_bond_atom_site_label_2
_geom_bond_site_symmetry_1
_geom_bond_site_symmetry_2
C1 H1 1_555 1_555
H2 C1 1_555 1_555
H3 C1 1_555 1_555
C2 H4 1_555 1_555
H5 C2 1_555 1_555
H6 C2 1_555 1_555
C3 C4 1_555 1_555
C4 H7 1_555 1_555
C5 C4 1_555 1_555
C6 C7 1_555 1_555
C7 C8 1_555 1_555
C8 C9 1_555 1_555
C9 N3 1_555 1_555
C10 C11 1_555 1_555
C11 H8 1_555 1_555
C12 C11 1_555 1_555
H9 C12 1_555 1_555
C13 C12 1_555 1_555
H10 C13 1_555 1_555
C14 C13 1_555 1_555
H11 C14 1_555 1_555
C15 C7 1_555 1_555
C16 C8 1_555 1_555
C17 H12 1_555 1_555
H13 C17 1_555 1_555
C18 C17 1_555 1_555
H14 C18 1_555 1_555
H15 C18 1_555 1_555
H16 C18 1_555 1_555
C19 H17 1_555 1_555
H18 C19 1_555 1_555
C20 C19 1_555 1_555
C21 C20 1_555 1_555
C22 C21 1_555 1_555
H19 C22 1_555 1_555
C23 C22 1_555 1_555
H20 C23 1_555 1_555
C24 C23 1_555 1_555
H21 C24 1_555 1_555
C25 C20 1_555 1_555
F1 C21 1_555 1_555
F2 C25 1_555 1_555
N1 C3 1_555 1_555
N2 C5 1_555 1_555
N3 C10 1_555 1_555
O1 C1 1_555 1_555
O2 C2 1_555 1_555
O3 C16 1_555 1_555
O4 C16 1_555 1_555
O5 C9 1_555 1_555
C3 O1 1_555 1_555
C5 O2 1_555 1_555
C6 N1 1_555 1_555
C6 N2 1_555 1_555
C10 C15 1_555 1_555
C14 C15 1_555 1_555
C17 O3 1_555 1_555
C19 N3 1_555 1_555
C24 C25 1_555 1_555

#END
