
#######################################################################
#
#                 Cambridge Crystallographic Data Centre
#                                CCDC 
#
#######################################################################
#
# If this CIF has been generated from an entry in the Cambridge 
# Structural Database, then it will include bibliographic, chemical, 
# crystal, experimental, refinement or atomic coordinate data resulting 
# from the CCDC's data processing and validation procedures.
#
#######################################################################

data_HIRWUB
_chemical_formula_moiety         'C12 H12 N4 2+,F6 Si1 2-'
_chemical_name_systematic        
"1,1'-(p-Phenylene)-bis(1H-imidazol-3-ium) hexafluorosilicate(iv)"
_symmetry_cell_setting           triclinic
_symmetry_space_group_name_H-M   'P -1'
_symmetry_Int_Tables_number      2
_space_group_name_Hall           '-P 1'
loop_
_symmetry_equiv_pos_site_id
_symmetry_equiv_pos_as_xyz
1 x,y,z
2 -x,-y,-z
_cell_length_a                   6.5608(13)
_cell_length_b                   6.8060(14)
_cell_length_c                   8.7799(18)
_cell_angle_alpha                85.88(3)
_cell_angle_beta                 70.38(3)
_cell_angle_gamma                61.59(3)
_cell_volume                     322.977
_exptl_crystal_colour            colorless
_exptl_crystal_description       block
_cell_formula_units_Z            1
loop_
_atom_site_label
_atom_site_type_symbol
_atom_site_fract_x
_atom_site_fract_y
_atom_site_fract_z
Si1 Si 0.5000 0.0000 0.5000
F1 F 0.50781(19) 0.24334(18) 0.52554(12)
F2 F 0.4698(2) -0.03743(19) 0.69557(12)
F3 F 0.19141(19) 0.14648(18) 0.55382(13)
F1A F 0.49219(19) -0.24334(18) 0.47446(12)
F2A F 0.5302(2) 0.03743(19) 0.30443(12)
F3A F 0.80859(19) -0.14648(18) 0.44618(13)
N1 N -0.0959(3) 0.2524(3) 0.30612(19)
N2 N 0.1761(3) 0.3241(3) 0.13441(18)
C1 C 0.4441(3) 0.4009(3) -0.1021(2)
H1 H 0.4065 0.3334 -0.1694
C2 C 0.3969(3) 0.5126(3) 0.1677(2)
H2 H 0.3280 0.5194 0.2799
C3 C 0.3405(3) 0.4160(3) 0.0661(2)
C4 C 0.0019(3) 0.3849(3) 0.2819(2)
H3 H -0.0423 0.5024 0.3552
C5 C 0.1846(3) 0.1430(3) 0.0630(2)
H4 H 0.2877 0.0672 -0.0399
C6 C 0.0149(3) 0.0993(3) 0.1719(2)
H5 H -0.0210 -0.0138 0.1587
H6 H -0.212(5) 0.239(5) 0.392(3)
N1A N 1.0959(3) 0.7476(3) -0.30612(19)
N2A N 0.8239(3) 0.6759(3) -0.13441(18)
C1A C 0.5559(3) 0.5991(3) 0.1021(2)
H1A H 0.5935 0.6666 0.1694
C2A C 0.6031(3) 0.4874(3) -0.1677(2)
H2A H 0.6720 0.4806 -0.2799
C3A C 0.6595(3) 0.5840(3) -0.0661(2)
C4A C 0.9981(3) 0.6151(3) -0.2819(2)
H3A H 1.0423 0.4976 -0.3552
C5A C 0.8154(3) 0.8570(3) -0.0630(2)
H4A H 0.7123 0.9328 0.0399
C6A C 0.9851(3) 0.9007(3) -0.1719(2)
H5A H 1.0210 1.0138 -0.1587
H6A H 1.212(5) 0.761(5) -0.392(3)
loop_
_geom_bond_atom_site_label_1
_geom_bond_atom_site_label_2
_geom_bond_site_symmetry_1
_geom_bond_site_symmetry_2
Si1 F1 1_555 1_555
F2 Si1 1_555 1_555
F3 Si1 1_555 1_555
N1 C4 1_555 1_555
N2 C3 1_555 1_555
C1 H1 1_555 1_555
C2 H2 1_555 1_555
C3 C1 1_555 1_555
C4 N2 1_555 1_555
H3 C4 1_555 1_555
C5 N2 1_555 1_555
H4 C5 1_555 1_555
C6 N1 1_555 1_555
H5 C6 1_555 1_555
H6 N1 1_555 1_555
F1A Si1 1_555 1_555
F2A Si1 1_555 1_555
F3A Si1 1_555 1_555
N1A C4A 1_555 1_555
N2A C3A 1_555 1_555
C1A C2 1_555 1_555
H1A C1A 1_555 1_555
C2A C1 1_555 1_555
H2A C2A 1_555 1_555
C3A C1A 1_555 1_555
C4A N2A 1_555 1_555
H3A C4A 1_555 1_555
C5A N2A 1_555 1_555
H4A C5A 1_555 1_555
C6A N1A 1_555 1_555
H5A C6A 1_555 1_555
H6A N1A 1_555 1_555
C2 C3 1_555 1_555
C5 C6 1_555 1_555
C2A C3A 1_555 1_555
C5A C6A 1_555 1_555

#END
