
#######################################################################
#
#                 Cambridge Crystallographic Data Centre
#                                CCDC 
#
#######################################################################
#
# If this CIF has been generated from an entry in the Cambridge 
# Structural Database, then it will include bibliographic, chemical, 
# crystal, experimental, refinement or atomic coordinate data resulting 
# from the CCDC's data processing and validation procedures.
#
#######################################################################

data_HIRWEN
_chemical_formula_moiety         'C88 H70 F6 O2'
_chemical_name_systematic        
1,1'-{6,8-bis[10-(3,5-di-t-butylphenyl)anthracen-9-yl]diazuleno[2,1-a:1',2'-h]-s-indacene-14,16-diyl}bis(trifluoroethan-1-one)
_symmetry_cell_setting           monoclinic
_symmetry_space_group_name_H-M   'P 21/m'
_symmetry_Int_Tables_number      11
_space_group_name_Hall           '-P 2yb'
loop_
_symmetry_equiv_pos_site_id
_symmetry_equiv_pos_as_xyz
1 x,y,z
2 -x,1/2+y,-z
3 -x,-y,-z
4 x,1/2-y,z
_cell_length_a                   9.0228(3)
_cell_length_b                   26.7772(8)
_cell_length_c                   16.8739(5)
_cell_angle_alpha                90
_cell_angle_beta                 102.643(2)
_cell_angle_gamma                90
_cell_volume                     3977.97
_exptl_crystal_colour            red
_exptl_crystal_description       block
_cell_formula_units_Z            2
loop_
_atom_site_label
_atom_site_type_symbol
_atom_site_fract_x
_atom_site_fract_y
_atom_site_fract_z
C1 C 0.3363(4) 0.2500 0.4424(2)
H1 H 0.3885 0.2500 0.3992
C2 C 0.2973(3) 0.29454(9) 0.47456(14)
C3 C 0.3241(3) 0.34434(9) 0.45037(15)
C4 C 0.2595(3) 0.37591(9) 0.49965(15)
C5 C 0.2413(3) 0.42815(10) 0.51179(17)
C6 C 0.3005(3) 0.46583(10) 0.47160(18)
H2 H 0.3553 0.4550 0.4326
C7 C 0.2909(3) 0.51740(11) 0.4805(2)
H3 H 0.3398 0.5370 0.4468
C8 C 0.2192(3) 0.54373(11) 0.5320(2)
H4 H 0.2239 0.5791 0.5283
C9 C 0.1416(3) 0.52548(10) 0.5881(2)
H5 H 0.1035 0.5502 0.6187
C10 C 0.1110(3) 0.47670(10) 0.60645(19)
H6 H 0.0536 0.4730 0.6471
C11 C 0.1520(3) 0.43200(10) 0.57397(17)
C12 C 0.1206(3) 0.38255(10) 0.59891(17)
C13 C 0.1898(3) 0.34745(9) 0.55449(15)
C14 C 0.2122(3) 0.29531(9) 0.53897(15)
C15 C 0.1695(4) 0.2500 0.5688(2)
H7 H 0.1113 0.2500 0.6095
C16 C 0.0299(4) 0.37571(11) 0.6588(2)
C17 C 0.0465(7) 0.32961(13) 0.7114(3)
C18 C 0.3998(3) 0.35778(9) 0.38419(15)
C19 C 0.5549(3) 0.34681(9) 0.39032(15)
C20 C 0.6463(3) 0.32464(9) 0.46153(15)
H8 H 0.6022 0.3176 0.5065
C21 C 0.7943(3) 0.31345(10) 0.46635(17)
H9 H 0.8524 0.2988 0.5145
C22 C 0.8638(3) 0.32352(10) 0.39974(18)
H10 H 0.9664 0.3142 0.4026
C23 C 0.7828(3) 0.34642(10) 0.33226(18)
H11 H 0.8311 0.3539 0.2889
C24 C 0.6269(3) 0.35958(9) 0.32473(16)
C25 C 0.5450(3) 0.38479(10) 0.25647(16)
C26 C 0.3887(3) 0.39382(11) 0.24867(17)
C27 C 0.2991(3) 0.41509(14) 0.1762(2)
H12 H 0.3464 0.4240 0.1331
C28 C 0.1481(4) 0.42282(18) 0.1677(2)
H13 H 0.0903 0.4361 0.1184
C29 C 0.0752(3) 0.41113(16) 0.2324(2)
H14 H -0.0300 0.4178 0.2268
C30 C 0.1562(3) 0.39045(12) 0.30204(19)
H15 H 0.1060 0.3822 0.3443
C31 C 0.3149(3) 0.38074(10) 0.31328(16)
C32 C 0.6198(3) 0.40330(11) 0.19077(17)
C33 C 0.6574(4) 0.37140(13) 0.1345(2)
H16 H 0.6395 0.3366 0.1384
C34 C 0.7219(4) 0.38920(13) 0.0714(2)
C35 C 0.7481(4) 0.44000(13) 0.06868(19)
H17 H 0.7932 0.4525 0.0268
C36 C 0.7116(3) 0.47384(12) 0.12465(17)
C37 C 0.6473(3) 0.45438(11) 0.18609(17)
H18 H 0.6217 0.4763 0.2254
C38 C 0.7615(7) 0.35266(17) 0.0101(3)
C39 C 0.6182(10) 0.3243(2) -0.0309(3)
H19 H 0.5835 0.3036 0.0094
H20 H 0.6408 0.3030 -0.0739
H21 H 0.5385 0.3482 -0.0545
C40 C 0.8826(9) 0.3167(2) 0.0542(4)
H22 H 0.8404 0.2961 0.0919
H23 H 0.9695 0.3357 0.0845
H24 H 0.9159 0.2952 0.0145
C41 C 0.8264(10) 0.3794(2) -0.0557(4)
H25 H 0.8194 0.3572 -0.1026
H26 H 0.9330 0.3881 -0.0337
H27 H 0.7680 0.4099 -0.0727
C42 C 0.7439(3) 0.52945(12) 0.11708(19)
C43 C 0.6860(6) 0.54735(16) 0.0301(2)
H28 H 0.7315 0.5270 -0.0067
H29 H 0.7142 0.5824 0.0258
H30 H 0.5752 0.5441 0.0153
C44 C 0.9173(4) 0.53637(17) 0.1399(2)
H31 H 0.9574 0.5220 0.1938
H32 H 0.9417 0.5721 0.1407
H33 H 0.9634 0.5194 0.0998
C45 C 0.6742(4) 0.56157(14) 0.1739(2)
H34 H 0.5637 0.5571 0.1612
H35 H 0.6984 0.5968 0.1669
H36 H 0.7157 0.5515 0.2303
F1 F 0.1840(4) 0.30857(7) 0.72278(12)
F2 F -0.0556(4) 0.29542(8) 0.6779(2)
F3 F 0.0237(6) 0.34022(9) 0.7843(2)
O1 O -0.0652(3) 0.40511(9) 0.67263(17)
C2C C 0.2973(3) 0.20546(9) 0.47456(14)
C3C C 0.3241(3) 0.15566(9) 0.45037(15)
C4C C 0.2595(3) 0.12409(9) 0.49965(15)
C5C C 0.2413(3) 0.07185(10) 0.51179(17)
C6C C 0.3005(3) 0.03417(10) 0.47160(18)
H2C H 0.3553 0.0450 0.4326
C7C C 0.2909(3) -0.01740(11) 0.4805(2)
H3C H 0.3398 -0.0370 0.4468
C8C C 0.2192(3) -0.04373(11) 0.5320(2)
H4C H 0.2239 -0.0791 0.5283
C9C C 0.1416(3) -0.02548(10) 0.5881(2)
H5C H 0.1035 -0.0502 0.6187
C10C C 0.1110(3) 0.02330(10) 0.60645(19)
H6C H 0.0536 0.0270 0.6471
C11C C 0.1520(3) 0.06800(10) 0.57397(17)
C12C C 0.1206(3) 0.11745(10) 0.59891(17)
C13C C 0.1898(3) 0.15255(9) 0.55449(15)
C14C C 0.2122(3) 0.20469(9) 0.53897(15)
C16C C 0.0299(4) 0.12429(11) 0.6588(2)
C17C C 0.0465(7) 0.17039(13) 0.7114(3)
C18C C 0.3998(3) 0.14222(9) 0.38419(15)
C19C C 0.5549(3) 0.15319(9) 0.39032(15)
C20C C 0.6463(3) 0.17536(9) 0.46153(15)
H8C H 0.6022 0.1824 0.5065
C21C C 0.7943(3) 0.18655(10) 0.46635(17)
H9C H 0.8524 0.2012 0.5145
C22C C 0.8638(3) 0.17648(10) 0.39974(18)
H10C H 0.9664 0.1858 0.4026
C23C C 0.7828(3) 0.15358(10) 0.33226(18)
H11C H 0.8311 0.1461 0.2889
C24C C 0.6269(3) 0.14042(9) 0.32473(16)
C25C C 0.5450(3) 0.11521(10) 0.25647(16)
C26C C 0.3887(3) 0.10618(11) 0.24867(17)
C27C C 0.2991(3) 0.08491(14) 0.1762(2)
H12C H 0.3464 0.0760 0.1331
C28C C 0.1481(4) 0.07718(18) 0.1677(2)
H13C H 0.0903 0.0639 0.1184
C29C C 0.0752(3) 0.08887(16) 0.2324(2)
H14C H -0.0300 0.0822 0.2268
C30C C 0.1562(3) 0.10955(12) 0.30204(19)
H15C H 0.1060 0.1178 0.3443
C31C C 0.3149(3) 0.11926(10) 0.31328(16)
C32C C 0.6198(3) 0.09670(11) 0.19077(17)
C33C C 0.6574(4) 0.12860(13) 0.1345(2)
H16C H 0.6395 0.1634 0.1384
C34C C 0.7219(4) 0.11080(13) 0.0714(2)
C35C C 0.7481(4) 0.06000(13) 0.06868(19)
H17C H 0.7932 0.0475 0.0268
C36C C 0.7116(3) 0.02616(12) 0.12465(17)
C37C C 0.6473(3) 0.04562(11) 0.18609(17)
H18C H 0.6217 0.0237 0.2254
C38C C 0.7615(7) 0.14734(17) 0.0101(3)
C39C C 0.6182(10) 0.1757(2) -0.0309(3)
H19C H 0.5835 0.1964 0.0094
H20C H 0.6408 0.1970 -0.0739
H21C H 0.5385 0.1518 -0.0545
C40C C 0.8826(9) 0.1833(2) 0.0542(4)
H22C H 0.8404 0.2039 0.0919
H23C H 0.9695 0.1643 0.0845
H24C H 0.9159 0.2048 0.0145
C41C C 0.8264(10) 0.1206(2) -0.0557(4)
H25C H 0.8194 0.1428 -0.1026
H26C H 0.9330 0.1119 -0.0337
H27C H 0.7680 0.0901 -0.0727
C42C C 0.7439(3) -0.02945(12) 0.11708(19)
C43C C 0.6860(6) -0.04735(16) 0.0301(2)
H28C H 0.7315 -0.0270 -0.0067
H29C H 0.7142 -0.0824 0.0258
H30C H 0.5752 -0.0441 0.0153
C44C C 0.9173(4) -0.03637(17) 0.1399(2)
H31C H 0.9574 -0.0220 0.1938
H32C H 0.9417 -0.0721 0.1407
H33C H 0.9634 -0.0194 0.0998
C45C C 0.6742(4) -0.06157(14) 0.1739(2)
H34C H 0.5637 -0.0571 0.1612
H35C H 0.6984 -0.0968 0.1669
H36C H 0.7157 -0.0515 0.2303
F1C F 0.1840(4) 0.19143(7) 0.72278(12)
F2C F -0.0556(4) 0.20458(8) 0.6779(2)
F3C F 0.0237(6) 0.15978(9) 0.7843(2)
O1C O -0.0652(3) 0.09489(9) 0.67263(17)
loop_
_geom_bond_atom_site_label_1
_geom_bond_atom_site_label_2
_geom_bond_site_symmetry_1
_geom_bond_site_symmetry_2
C1 H1 1_555 1_555
C2 C1 1_555 1_555
C3 C2 1_555 1_555
C4 C3 1_555 1_555
C5 C4 1_555 1_555
C6 C5 1_555 1_555
H2 C6 1_555 1_555
C7 C6 1_555 1_555
H3 C7 1_555 1_555
C8 C7 1_555 1_555
H4 C8 1_555 1_555
C9 C8 1_555 1_555
H5 C9 1_555 1_555
C10 C9 1_555 1_555
H6 C10 1_555 1_555
C11 C5 1_555 1_555
C12 C11 1_555 1_555
C13 C4 1_555 1_555
C14 C2 1_555 1_555
C15 C14 1_555 1_555
H7 C15 1_555 1_555
C16 C12 1_555 1_555
C17 C16 1_555 1_555
C18 C3 1_555 1_555
C19 C18 1_555 1_555
C20 C19 1_555 1_555
H8 C20 1_555 1_555
C21 C20 1_555 1_555
H9 C21 1_555 1_555
C22 C21 1_555 1_555
H10 C22 1_555 1_555
C23 C22 1_555 1_555
H11 C23 1_555 1_555
C24 C19 1_555 1_555
C25 C24 1_555 1_555
C26 C25 1_555 1_555
C27 C26 1_555 1_555
H12 C27 1_555 1_555
C28 C27 1_555 1_555
H13 C28 1_555 1_555
C29 C28 1_555 1_555
H14 C29 1_555 1_555
C30 C29 1_555 1_555
H15 C30 1_555 1_555
C31 C18 1_555 1_555
C32 C25 1_555 1_555
C33 C32 1_555 1_555
H16 C33 1_555 1_555
C34 C33 1_555 1_555
C35 C34 1_555 1_555
H17 C35 1_555 1_555
C36 C35 1_555 1_555
C37 C32 1_555 1_555
H18 C37 1_555 1_555
C38 C34 1_555 1_555
C39 C38 1_555 1_555
H19 C39 1_555 1_555
H20 C39 1_555 1_555
H21 C39 1_555 1_555
C40 C38 1_555 1_555
H22 C40 1_555 1_555
H23 C40 1_555 1_555
H24 C40 1_555 1_555
C41 C38 1_555 1_555
H25 C41 1_555 1_555
H26 C41 1_555 1_555
H27 C41 1_555 1_555
C42 C36 1_555 1_555
C43 C42 1_555 1_555
H28 C43 1_555 1_555
H29 C43 1_555 1_555
H30 C43 1_555 1_555
C44 C42 1_555 1_555
H31 C44 1_555 1_555
H32 C44 1_555 1_555
H33 C44 1_555 1_555
C45 C42 1_555 1_555
H34 C45 1_555 1_555
H35 C45 1_555 1_555
H36 C45 1_555 1_555
F1 C17 1_555 1_555
F2 C17 1_555 1_555
F3 C17 1_555 1_555
O1 C16 1_555 1_555
C2C C1 1_555 1_555
C3C C2C 1_555 1_555
C4C C3C 1_555 1_555
C5C C4C 1_555 1_555
C6C C5C 1_555 1_555
H2C C6C 1_555 1_555
C7C C6C 1_555 1_555
H3C C7C 1_555 1_555
C8C C7C 1_555 1_555
H4C C8C 1_555 1_555
C9C C8C 1_555 1_555
H5C C9C 1_555 1_555
C10C C9C 1_555 1_555
H6C C10C 1_555 1_555
C11C C5C 1_555 1_555
C12C C11C 1_555 1_555
C13C C4C 1_555 1_555
C14C C15 1_555 1_555
C16C C12C 1_555 1_555
C17C C16C 1_555 1_555
C18C C3C 1_555 1_555
C19C C18C 1_555 1_555
C20C C19C 1_555 1_555
H8C C20C 1_555 1_555
C21C C20C 1_555 1_555
H9C C21C 1_555 1_555
C22C C21C 1_555 1_555
H10C C22C 1_555 1_555
C23C C22C 1_555 1_555
H11C C23C 1_555 1_555
C24C C19C 1_555 1_555
C25C C24C 1_555 1_555
C26C C25C 1_555 1_555
C27C C26C 1_555 1_555
H12C C27C 1_555 1_555
C28C C27C 1_555 1_555
H13C C28C 1_555 1_555
C29C C28C 1_555 1_555
H14C C29C 1_555 1_555
C30C C29C 1_555 1_555
H15C C30C 1_555 1_555
C31C C18C 1_555 1_555
C32C C25C 1_555 1_555
C33C C32C 1_555 1_555
H16C C33C 1_555 1_555
C34C C33C 1_555 1_555
C35C C34C 1_555 1_555
H17C C35C 1_555 1_555
C36C C35C 1_555 1_555
C37C C32C 1_555 1_555
H18C C37C 1_555 1_555
C38C C34C 1_555 1_555
C39C C38C 1_555 1_555
H19C C39C 1_555 1_555
H20C C39C 1_555 1_555
H21C C39C 1_555 1_555
C40C C38C 1_555 1_555
H22C C40C 1_555 1_555
H23C C40C 1_555 1_555
H24C C40C 1_555 1_555
C41C C38C 1_555 1_555
H25C C41C 1_555 1_555
H26C C41C 1_555 1_555
H27C C41C 1_555 1_555
C42C C36C 1_555 1_555
C43C C42C 1_555 1_555
H28C C43C 1_555 1_555
H29C C43C 1_555 1_555
H30C C43C 1_555 1_555
C44C C42C 1_555 1_555
H31C C44C 1_555 1_555
H32C C44C 1_555 1_555
H33C C44C 1_555 1_555
C45C C42C 1_555 1_555
H34C C45C 1_555 1_555
H35C C45C 1_555 1_555
H36C C45C 1_555 1_555
F1C C17C 1_555 1_555
F2C C17C 1_555 1_555
F3C C17C 1_555 1_555
O1C C16C 1_555 1_555
C10 C11 1_555 1_555
C12 C13 1_555 1_555
C13 C14 1_555 1_555
C23 C24 1_555 1_555
C26 C31 1_555 1_555
C30 C31 1_555 1_555
C36 C37 1_555 1_555
C2C C14C 1_555 1_555
C10C C11C 1_555 1_555
C12C C13C 1_555 1_555
C13C C14C 1_555 1_555
C23C C24C 1_555 1_555
C26C C31C 1_555 1_555
C30C C31C 1_555 1_555
C36C C37C 1_555 1_555

#END
