
#######################################################################
#
#                 Cambridge Crystallographic Data Centre
#                                CCDC 
#
#######################################################################
#
# If this CIF has been generated from an entry in the Cambridge 
# Structural Database, then it will include bibliographic, chemical, 
# crystal, experimental, refinement or atomic coordinate data resulting 
# from the CCDC's data processing and validation procedures.
#
#######################################################################

data_HIRYIR02
_chemical_formula_moiety         'C22 H17 N3'
_chemical_name_systematic        
2^4^-(4-methylphenyl)-1^2^,2^2^:2^6^,3^2^-terpyridine
_symmetry_cell_setting           monoclinic
_symmetry_space_group_name_H-M   'P 21/c'
_symmetry_Int_Tables_number      14
_space_group_name_Hall           '-P 2ybc'
loop_
_symmetry_equiv_pos_site_id
_symmetry_equiv_pos_as_xyz
1 x,y,z
2 -x,1/2+y,1/2-z
3 -x,-y,-z
4 x,1/2-y,1/2+z
_cell_length_a                   9.3061(14)
_cell_length_b                   33.416(5)
_cell_length_c                   11.341(2)
_cell_angle_alpha                90
_cell_angle_beta                 112.459(2)
_cell_angle_gamma                90
_cell_volume                     3259.25
_exptl_crystal_colour            brown
_exptl_crystal_description       prism
_cell_formula_units_Z            8
loop_
_atom_site_label
_atom_site_type_symbol
_atom_site_fract_x
_atom_site_fract_y
_atom_site_fract_z
N1 N 0.28486(11) 0.10875(3) 0.87548(9)
C1 C 0.28061(14) 0.11240(4) 0.99177(11)
H1 H 0.2129 0.0953 1.0135
C2 C 0.36985(15) 0.13983(4) 1.08228(11)
H2 H 0.3611 0.1420 1.1628
C3 C 0.47175(15) 0.16389(4) 1.05179(11)
H3 H 0.5373 0.1823 1.1125
C4 C 0.47710(15) 0.16088(4) 0.93152(11)
H4 H 0.5455 0.1773 0.9083
C5 C 0.38007(12) 0.13329(3) 0.84534(10)
C6 C 0.37595(12) 0.13068(3) 0.71288(10)
C7 C 0.28771(12) 0.10140(3) 0.62829(10)
H5 H 0.2326 0.0820 0.6556
C8 C 0.28128(12) 0.10099(3) 0.50317(10)
C9 C 0.36447(12) 0.13061(3) 0.46901(10)
H6 H 0.3619 0.1317 0.3845
C10 C 0.45105(12) 0.15840(3) 0.55994(10)
N2 N 0.45773(10) 0.15862(3) 0.68017(9)
C11 C 0.54245(12) 0.19024(3) 0.52801(10)
C12 C 0.64483(13) 0.21419(3) 0.62441(11)
H7 H 0.6558 0.2106 0.7105
C13 C 0.73054(13) 0.24336(3) 0.59318(12)
H8 H 0.8008 0.2600 0.6574
C14 C 0.71170(14) 0.24777(3) 0.46684(12)
H9 H 0.7690 0.2673 0.4422
C15 C 0.60674(15) 0.22287(4) 0.37728(12)
H10 H 0.5937 0.2261 0.2906
N3 N 0.52224(12) 0.19448(3) 0.40474(10)
C16 C 0.19139(12) 0.07007(3) 0.41060(10)
C17 C 0.06206(12) 0.05153(3) 0.42159(10)
H11 H 0.0304 0.0591 0.4887
C18 C -0.02064(12) 0.02216(3) 0.33556(10)
H12 H -0.1086 0.0102 0.3443
C19 C 0.02372(12) 0.01003(3) 0.23636(10)
C20 C 0.15363(12) 0.02837(3) 0.22630(10)
H13 H 0.1861 0.0205 0.1599
C21 C 0.23600(12) 0.05789(3) 0.31131(10)
H14 H 0.3235 0.0700 0.3021
C22 C -0.06575(14) -0.02181(4) 0.14353(11)
H15 H -0.1019 -0.0421 0.1883
H16 H 0.0018 -0.0344 0.1059
H17 H -0.1554 -0.0097 0.0759
N4 N 0.81054(12) 0.09668(3) 0.91312(9)
C23 C 0.82276(15) 0.09516(4) 1.03462(11)
H18 H 0.7781 0.0729 1.0604
C24 C 0.89688(14) 0.12418(4) 1.12517(11)
H19 H 0.9047 0.1216 1.2108
C25 C 0.95904(14) 0.15701(4) 1.08681(11)
H20 H 1.0091 0.1777 1.1457
C26 C 0.94726(14) 0.15936(3) 0.96120(11)
H21 H 0.9885 0.1817 0.9328
C27 C 0.87379(12) 0.12833(3) 0.87742(10)
C28 C 0.86674(12) 0.12840(3) 0.74376(10)
C29 C 0.77860(12) 0.09994(3) 0.65542(10)
H22 H 0.7205 0.0804 0.6792
C30 C 0.77694(12) 0.10056(3) 0.53152(10)
C31 C 0.86423(12) 0.13033(3) 0.50294(10)
H23 H 0.8662 0.1319 0.4199
C32 C 0.94836(12) 0.15766(3) 0.59679(10)
N5 N 0.95024(10) 0.15692(3) 0.71569(9)
C33 C 1.04268(12) 0.18946(3) 0.56815(10)
C34 C 1.13433(13) 0.21540(3) 0.66377(11)
H24 H 1.1392 0.2127 0.7486
C35 C 1.21837(13) 0.24525(3) 0.63328(12)
H25 H 1.2804 0.2635 0.6966
C36 C 1.21000(14) 0.24797(3) 0.50878(12)
H26 H 1.2659 0.2680 0.4846
C37 C 1.11754(15) 0.22054(4) 0.42061(12)
H27 H 1.1130 0.2222 0.3356
N6 N 1.03406(12) 0.19176(3) 0.44742(9)
C38 C 0.69101(11) 0.07032(3) 0.43420(10)
C39 C 0.66400(12) 0.03170(3) 0.46942(10)
H28 H 0.6958 0.0251 0.5572
C40 C 0.59134(12) 0.00291(3) 0.37750(10)
H29 H 0.5731 -0.0230 0.4037
C41 C 0.54457(11) 0.01119(3) 0.24741(10)
C42 C 0.56868(12) 0.04990(3) 0.21229(10)
H30 H 0.5358 0.0565 0.1244
C43 C 0.63989(12) 0.07901(3) 0.30366(10)
H31 H 0.6541 0.1052 0.2772
C44 C 0.47294(13) -0.02097(3) 0.14928(11)
H32 H 0.5553 -0.0377 0.1412
H33 H 0.4129 -0.0086 0.0668
H34 H 0.4040 -0.0376 0.1760
loop_
_geom_bond_atom_site_label_1
_geom_bond_atom_site_label_2
_geom_bond_site_symmetry_1
_geom_bond_site_symmetry_2
N1 C1 1_555 1_555
C1 H1 1_555 1_555
C2 C1 1_555 1_555
H2 C2 1_555 1_555
C3 C2 1_555 1_555
H3 C3 1_555 1_555
C4 C3 1_555 1_555
H4 C4 1_555 1_555
C5 N1 1_555 1_555
C6 C5 1_555 1_555
C7 C6 1_555 1_555
H5 C7 1_555 1_555
C8 C7 1_555 1_555
C9 C8 1_555 1_555
H6 C9 1_555 1_555
C10 C9 1_555 1_555
N2 C6 1_555 1_555
C11 C10 1_555 1_555
C12 C11 1_555 1_555
H7 C12 1_555 1_555
C13 C12 1_555 1_555
H8 C13 1_555 1_555
C14 C13 1_555 1_555
H9 C14 1_555 1_555
C15 C14 1_555 1_555
H10 C15 1_555 1_555
N3 C11 1_555 1_555
C16 C8 1_555 1_555
C17 C16 1_555 1_555
H11 C17 1_555 1_555
C18 C17 1_555 1_555
H12 C18 1_555 1_555
C19 C18 1_555 1_555
C20 C19 1_555 1_555
H13 C20 1_555 1_555
C21 C16 1_555 1_555
H14 C21 1_555 1_555
C22 C19 1_555 1_555
H15 C22 1_555 1_555
H16 C22 1_555 1_555
H17 C22 1_555 1_555
N4 C23 1_555 1_555
C23 H18 1_555 1_555
C24 C23 1_555 1_555
H19 C24 1_555 1_555
C25 C24 1_555 1_555
H20 C25 1_555 1_555
C26 C25 1_555 1_555
H21 C26 1_555 1_555
C27 N4 1_555 1_555
C28 C27 1_555 1_555
C29 C28 1_555 1_555
H22 C29 1_555 1_555
C30 C29 1_555 1_555
C31 C30 1_555 1_555
H23 C31 1_555 1_555
C32 C31 1_555 1_555
N5 C28 1_555 1_555
C33 C32 1_555 1_555
C34 C33 1_555 1_555
H24 C34 1_555 1_555
C35 C34 1_555 1_555
H25 C35 1_555 1_555
C36 C35 1_555 1_555
H26 C36 1_555 1_555
C37 C36 1_555 1_555
H27 C37 1_555 1_555
N6 C33 1_555 1_555
C38 C30 1_555 1_555
C39 C38 1_555 1_555
H28 C39 1_555 1_555
C40 C39 1_555 1_555
H29 C40 1_555 1_555
C41 C40 1_555 1_555
C42 C41 1_555 1_555
H30 C42 1_555 1_555
C43 C38 1_555 1_555
H31 C43 1_555 1_555
C44 C41 1_555 1_555
H32 C44 1_555 1_555
H33 C44 1_555 1_555
H34 C44 1_555 1_555
C4 C5 1_555 1_555
C10 N2 1_555 1_555
C15 N3 1_555 1_555
C20 C21 1_555 1_555
C26 C27 1_555 1_555
C32 N5 1_555 1_555
C37 N6 1_555 1_555
C42 C43 1_555 1_555

#END
