
#######################################################################
#
#                 Cambridge Crystallographic Data Centre
#                                CCDC 
#
#######################################################################
#
# If this CIF has been generated from an entry in the Cambridge 
# Structural Database, then it will include bibliographic, chemical, 
# crystal, experimental, refinement or atomic coordinate data resulting 
# from the CCDC's data processing and validation procedures.
#
#######################################################################

data_HIRZOY
_chemical_formula_moiety         'C9 H6 Cl2 N2 O1'
_chemical_name_systematic        
5-(Chloromethyl)-3-(2-chlorophenyl)-1,2,4-oxadiazole
_symmetry_cell_setting           monoclinic
_symmetry_space_group_name_H-M   'P 21/c'
_symmetry_Int_Tables_number      14
_space_group_name_Hall           '-P 2ybc'
loop_
_symmetry_equiv_pos_site_id
_symmetry_equiv_pos_as_xyz
1 x,y,z
2 -x,1/2+y,1/2-z
3 -x,-y,-z
4 x,1/2-y,1/2+z
_cell_length_a                   10.396(2)
_cell_length_b                   10.302(2)
_cell_length_c                   9.2070(18)
_cell_angle_alpha                90
_cell_angle_beta                 98.30(3)
_cell_angle_gamma                90
_cell_volume                     975.738
_exptl_crystal_colour            colorless
_exptl_crystal_description       block
_cell_formula_units_Z            4
_exptl_crystal_recrystallization_method ethanol
loop_
_atom_site_label
_atom_site_type_symbol
_atom_site_fract_x
_atom_site_fract_y
_atom_site_fract_z
O1 O 0.4532(2) 0.4767(2) 0.3282(3)
Cl1 Cl 0.26187(11) 0.75669(10) 0.16907(14)
N1 N 0.4105(3) 0.3594(3) 0.3838(3)
C1 C 0.3883(4) 0.7009(3) 0.3021(4)
H1 H 0.4699 0.7047 0.2628
H2 H 0.3954 0.7568 0.3876
Cl2 Cl 0.34090(11) 0.08541(9) 0.42588(14)
N2 N 0.2688(2) 0.5213(2) 0.4048(3)
C2 C 0.3640(3) 0.5652(3) 0.3462(4)
C3 C 0.3010(3) 0.3917(3) 0.4273(3)
C4 C 0.2168(3) 0.3062(3) 0.4985(3)
C5 C 0.2250(3) 0.1701(3) 0.5042(4)
C6 C 0.1378(4) 0.0992(3) 0.5721(4)
H3 H 0.1437 0.0091 0.5747
C7 C 0.0428(4) 0.1597(4) 0.6353(4)
H4 H -0.0151 0.1109 0.6809
C8 C 0.0330(4) 0.2935(4) 0.6316(4)
H5 H -0.0314 0.3351 0.6744
C9 C 0.1189(3) 0.3641(4) 0.5643(4)
H6 H 0.1116 0.4541 0.5625
loop_
_geom_bond_atom_site_label_1
_geom_bond_atom_site_label_2
_geom_bond_site_symmetry_1
_geom_bond_site_symmetry_2
O1 N1 1_555 1_555
Cl1 C1 1_555 1_555
N1 C3 1_555 1_555
C1 H1 1_555 1_555
H2 C1 1_555 1_555
Cl2 C5 1_555 1_555
N2 C2 1_555 1_555
C2 O1 1_555 1_555
C3 N2 1_555 1_555
C4 C3 1_555 1_555
C5 C4 1_555 1_555
C6 C5 1_555 1_555
H3 C6 1_555 1_555
C7 C6 1_555 1_555
H4 C7 1_555 1_555
C8 C7 1_555 1_555
H5 C8 1_555 1_555
C9 C4 1_555 1_555
H6 C9 1_555 1_555
C1 C2 1_555 1_555
C8 C9 1_555 1_555

#END
