
#######################################################################
#
#                 Cambridge Crystallographic Data Centre
#                                CCDC 
#
#######################################################################
#
# If this CIF has been generated from an entry in the Cambridge 
# Structural Database, then it will include bibliographic, chemical, 
# crystal, experimental, refinement or atomic coordinate data resulting 
# from the CCDC's data processing and validation procedures.
#
#######################################################################

data_HIRZIS
_chemical_formula_moiety         'C26 H26 N4 O3'
_chemical_name_systematic        
2-(2-(3-(4-(Dimethylamino)phenyl)-1,2,4-oxadiazol-5-yl)phenoxy)-N-(2,6-dimethylphenyl)acetamide
_symmetry_cell_setting           triclinic
_symmetry_space_group_name_H-M   'P -1'
_symmetry_Int_Tables_number      2
_space_group_name_Hall           '-P 1'
loop_
_symmetry_equiv_pos_site_id
_symmetry_equiv_pos_as_xyz
1 x,y,z
2 -x,-y,-z
_cell_length_a                   8.9900(18)
_cell_length_b                   9.0330(18)
_cell_length_c                   15.445(3)
_cell_angle_alpha                83.01(3)
_cell_angle_beta                 79.76(3)
_cell_angle_gamma                66.54(3)
_cell_volume                     1130.43
_exptl_crystal_colour            colorless
_exptl_crystal_description       block
_cell_formula_units_Z            2
_exptl_crystal_recrystallization_method ethanol
loop_
_atom_site_label
_atom_site_type_symbol
_atom_site_fract_x
_atom_site_fract_y
_atom_site_fract_z
O1 O 1.1192(3) 0.2794(3) 0.45197(18)
O2 O 1.3415(3) 0.4254(4) 0.2256(2)
O3 O 1.2793(3) 0.6748(3) 0.03292(18)
N1 N 0.3072(4) 0.8914(5) 0.3050(3)
N2 N 0.9452(4) 0.3580(5) 0.4585(2)
N3 N 1.0722(4) 0.4657(4) 0.3431(2)
N4 N 1.1088(3) 0.6202(4) 0.1492(2)
H1 H 1.1046 0.5840 0.2033
C1 C 0.1610(5) 0.8702(7) 0.3466(4)
H2 H 0.1627 0.7702 0.3303
H3 H 0.0673 0.9582 0.3280
H4 H 0.1549 0.8678 0.4094
C2 C 0.2944(6) 1.0093(6) 0.2336(3)
H5 H 0.3948 1.0267 0.2196
H6 H 0.2057 1.1090 0.2500
H7 H 0.2740 0.9719 0.1831
C3 C 0.4591(5) 0.7886(5) 0.3270(3)
C4 C 0.5996(5) 0.8191(5) 0.2957(3)
H8 H 0.5927 0.9107 0.2592
C5 C 0.7495(5) 0.7138(5) 0.3185(3)
H9 H 0.8421 0.7366 0.2973
C6 C 0.7651(4) 0.5774(5) 0.3714(2)
C7 C 0.6260(5) 0.5489(5) 0.4033(3)
H10 H 0.6337 0.4577 0.4403
C8 C 0.4748(5) 0.6523(5) 0.3816(3)
H11 H 0.3826 0.6297 0.4042
C9 C 0.9276(5) 0.4658(5) 0.3923(2)
C10 C 1.1844(5) 0.3506(5) 0.3835(2)
C11 C 1.3619(5) 0.2919(5) 0.3645(3)
C12 C 1.4409(5) 0.3316(5) 0.2846(3)
C13 C 1.6095(5) 0.2761(6) 0.2669(3)
H12 H 1.6604 0.3045 0.2134
C14 C 1.7009(5) 0.1783(6) 0.3296(3)
H13 H 1.8146 0.1402 0.3183
C15 C 1.6277(5) 0.1367(6) 0.4075(3)
H14 H 1.6918 0.0700 0.4489
C16 C 1.4578(5) 0.1921(5) 0.4267(3)
H15 H 1.4087 0.1628 0.4806
C17 C 1.4010(4) 0.5052(5) 0.1516(3)
H16 H 1.4829 0.4271 0.1122
H17 H 1.4504 0.5719 0.1701
C18 C 1.2550(4) 0.6091(5) 0.1056(2)
C19 C 0.9582(4) 0.6882(4) 0.1122(2)
C20 C 0.8857(4) 0.5827(4) 0.1007(2)
C21 C 0.7401(5) 0.6480(5) 0.0645(3)
H18 H 0.6889 0.5809 0.0555
C22 C 0.6711(5) 0.8103(6) 0.0420(3)
H19 H 0.5747 0.8516 0.0171
C23 C 0.7425(5) 0.9115(5) 0.0558(3)
H20 H 0.6928 1.0213 0.0407
C24 C 0.8885(4) 0.8547(4) 0.0920(2)
C25 C 0.9578(5) 0.9673(5) 0.1131(3)
H21 H 0.8938 1.0752 0.0929
H22 H 1.0688 0.9365 0.0844
H23 H 0.9557 0.9632 0.1756
C26 C 0.9577(5) 0.4057(5) 0.1276(3)
H24 H 1.0581 0.3811 0.1503
H25 H 0.9792 0.3434 0.0774
H26 H 0.8817 0.3794 0.1723
loop_
_geom_bond_atom_site_label_1
_geom_bond_atom_site_label_2
_geom_bond_site_symmetry_1
_geom_bond_site_symmetry_2
O1 N2 1_555 1_555
O2 C12 1_555 1_555
O3 C18 1_555 1_555
N1 C1 1_555 1_555
N2 C9 1_555 1_555
N3 C9 1_555 1_555
N4 H1 1_555 1_555
C1 H2 1_555 1_555
H3 C1 1_555 1_555
H4 C1 1_555 1_555
C2 N1 1_555 1_555
H5 C2 1_555 1_555
H6 C2 1_555 1_555
H7 C2 1_555 1_555
C3 N1 1_555 1_555
C4 C3 1_555 1_555
H8 C4 1_555 1_555
C5 C4 1_555 1_555
H9 C5 1_555 1_555
C6 C5 1_555 1_555
C7 C6 1_555 1_555
H10 C7 1_555 1_555
C8 C3 1_555 1_555
H11 C8 1_555 1_555
C9 C6 1_555 1_555
C10 O1 1_555 1_555
C11 C10 1_555 1_555
C12 C11 1_555 1_555
C13 C12 1_555 1_555
H12 C13 1_555 1_555
C14 C13 1_555 1_555
H13 C14 1_555 1_555
C15 C14 1_555 1_555
H14 C15 1_555 1_555
C16 C11 1_555 1_555
H15 C16 1_555 1_555
C17 O2 1_555 1_555
H16 C17 1_555 1_555
H17 C17 1_555 1_555
C18 N4 1_555 1_555
C19 N4 1_555 1_555
C20 C19 1_555 1_555
C21 C20 1_555 1_555
H18 C21 1_555 1_555
C22 C21 1_555 1_555
H19 C22 1_555 1_555
C23 C22 1_555 1_555
H20 C23 1_555 1_555
C24 C19 1_555 1_555
C25 C24 1_555 1_555
H21 C25 1_555 1_555
H22 C25 1_555 1_555
H23 C25 1_555 1_555
C26 C20 1_555 1_555
H24 C26 1_555 1_555
H25 C26 1_555 1_555
H26 C26 1_555 1_555
N3 C10 1_555 1_555
C7 C8 1_555 1_555
C15 C16 1_555 1_555
C17 C18 1_555 1_555
C23 C24 1_555 1_555

#END
