
#######################################################################
#
#                 Cambridge Crystallographic Data Centre
#                                CCDC 
#
#######################################################################
#
# If this CIF has been generated from an entry in the Cambridge 
# Structural Database, then it will include bibliographic, chemical, 
# crystal, experimental, refinement or atomic coordinate data resulting 
# from the CCDC's data processing and validation procedures.
#
#######################################################################

data_HISCOC
_chemical_formula_moiety         'C16 H18 Cl1 N1 O1'
_chemical_name_systematic        
2-(8-Chloro-6,9-dimethyl-2,3,4,9-tetrahydro-1H-carbazol-4-yl)acetaldehyde
_symmetry_cell_setting           triclinic
_symmetry_space_group_name_H-M   'P -1'
_symmetry_Int_Tables_number      2
_space_group_name_Hall           '-P 1'
loop_
_symmetry_equiv_pos_site_id
_symmetry_equiv_pos_as_xyz
1 x,y,z
2 -x,-y,-z
_cell_length_a                   8.0456(5)
_cell_length_b                   9.5454(4)
_cell_length_c                   9.5698(4)
_cell_angle_alpha                90.094(2)
_cell_angle_beta                 104.405(2)
_cell_angle_gamma                93.273(2)
_cell_volume                     710.584
_exptl_crystal_colour            colorless
_exptl_crystal_description       block
_cell_formula_units_Z            2
_exptl_crystal_recrystallization_method chloroform
loop_
_atom_site_label
_atom_site_type_symbol
_atom_site_fract_x
_atom_site_fract_y
_atom_site_fract_z
C1 C 0.4323(3) 0.8348(2) 0.5724(3)
C2 C 0.4365(3) 0.8845(3) 0.7104(3)
C3 C 0.5824(4) 0.8723(3) 0.8196(3)
H1 H 0.5854 0.9077 0.9109
C4 C 0.7269(4) 0.8084(3) 0.7981(3)
C5 C 0.7235(3) 0.7596(3) 0.6618(3)
H2 H 0.8189 0.7183 0.6452
C6 C 0.5770(3) 0.7718(2) 0.5478(3)
C7 C 0.8822(4) 0.7952(5) 0.9222(4)
H3 H 0.9567 0.7302 0.8963
H4 H 0.8462 0.7616 1.0052
H5 H 0.9427 0.8853 0.9443
C8 C 0.5351(3) 0.7281(3) 0.4008(3)
C9 C 0.3708(3) 0.7620(3) 0.3424(3)
C10 C 0.1375(4) 0.8860(3) 0.4133(4)
H6 H 0.0629 0.8300 0.4581
H7 H 0.0898 0.8858 0.3109
H8 H 0.1489 0.9805 0.4505
C11 C 0.2720(4) 0.7353(3) 0.1905(3)
H9 H 0.2615 0.8226 0.1381
H10 H 0.1574 0.6960 0.1881
C12 C 0.3671(5) 0.6324(4) 0.1206(4)
H11 H 0.3464 0.5385 0.1535
H12 H 0.3214 0.6329 0.0168
C13 C 0.5577(5) 0.6675(4) 0.1554(3)
H13 H 0.5783 0.7616 0.1227
H14 H 0.6100 0.6031 0.1029
C14 C 0.6443(4) 0.6595(3) 0.3172(3)
H15 H 0.7543 0.7147 0.3351
C15 C 0.6830(4) 0.5107(3) 0.3646(4)
H16 H 0.6978 0.5067 0.4682
H17 H 0.5838 0.4491 0.3202
C16 C 0.8367(5) 0.4553(4) 0.3295(4)
H18 H 0.8492 0.3594 0.3404
Cl1 Cl 0.26043(11) 0.95592(9) 0.75368(10)
N1 N 0.3054(3) 0.8278(2) 0.4444(2)
O1 O 0.9436(4) 0.5193(3) 0.2898(4)
loop_
_geom_bond_atom_site_label_1
_geom_bond_atom_site_label_2
_geom_bond_site_symmetry_1
_geom_bond_site_symmetry_2
C1 C2 1_555 1_555
C2 C3 1_555 1_555
C3 H1 1_555 1_555
C4 C3 1_555 1_555
C5 C4 1_555 1_555
H2 C5 1_555 1_555
C6 C1 1_555 1_555
C7 C4 1_555 1_555
H3 C7 1_555 1_555
H4 C7 1_555 1_555
H5 C7 1_555 1_555
C8 C6 1_555 1_555
C9 C8 1_555 1_555
C10 H6 1_555 1_555
H7 C10 1_555 1_555
H8 C10 1_555 1_555
C11 C9 1_555 1_555
H9 C11 1_555 1_555
H10 C11 1_555 1_555
C12 C11 1_555 1_555
H11 C12 1_555 1_555
H12 C12 1_555 1_555
C13 C12 1_555 1_555
H13 C13 1_555 1_555
H14 C13 1_555 1_555
C14 C8 1_555 1_555
H15 C14 1_555 1_555
C15 C14 1_555 1_555
H16 C15 1_555 1_555
H17 C15 1_555 1_555
C16 C15 1_555 1_555
H18 C16 1_555 1_555
Cl1 C2 1_555 1_555
N1 C1 1_555 1_555
O1 C16 1_555 1_555
C5 C6 1_555 1_555
C9 N1 1_555 1_555
C10 N1 1_555 1_555
C13 C14 1_555 1_555

#END
