
#######################################################################
#
#                 Cambridge Crystallographic Data Centre
#                                CCDC 
#
#######################################################################
#
# If this CIF has been generated from an entry in the Cambridge 
# Structural Database, then it will include bibliographic, chemical, 
# crystal, experimental, refinement or atomic coordinate data resulting 
# from the CCDC's data processing and validation procedures.
#
#######################################################################

data_HISCIW
_chemical_formula_moiety         'C9 H8 N4 O1 S1'
_chemical_name_systematic        
2-Amino-5-(salicylideneamino)-1,3,4-thiadiazole
_symmetry_cell_setting           monoclinic
_symmetry_space_group_name_H-M   'P 21/n'
_symmetry_Int_Tables_number      14
_space_group_name_Hall           '-P 2yn'
loop_
_symmetry_equiv_pos_site_id
_symmetry_equiv_pos_as_xyz
1 x,y,z
2 1/2-x,1/2+y,1/2-z
3 -x,-y,-z
4 1/2+x,1/2-y,1/2+z
_cell_length_a                   5.841(2)
_cell_length_b                   30.421(10)
_cell_length_c                   10.915(4)
_cell_angle_alpha                90
_cell_angle_beta                 97.282(4)
_cell_angle_gamma                90
_cell_volume                     1923.83
_exptl_crystal_colour            orange
_exptl_crystal_description       block
_cell_formula_units_Z            8
_exptl_crystal_recrystallization_method ethanol
loop_
_atom_site_label
_atom_site_type_symbol
_atom_site_fract_x
_atom_site_fract_y
_atom_site_fract_z
N1 N 0.0020(5) 0.02475(9) 1.1793(3)
N2 N 0.1711(5) 0.00077(9) 1.2504(3)
N3 N -0.0552(5) 0.07223(9) 1.0065(3)
N4 N 0.5670(5) -0.01561(10) 1.2623(3)
H1 H 0.5632 -0.0329 1.3243
H2 H 0.6945 -0.0114 1.2324
O1 O -0.4115(5) 0.12430(9) 0.9319(3)
H5 H -0.3375 0.1058 0.9750
S1 S 0.37598(16) 0.03882(3) 1.08484(9)
C1 C 0.0808(6) 0.04590(11) 1.0896(3)
C2 C 0.3737(6) 0.00484(11) 1.2122(3)
C3 C 0.0284(6) 0.08513(11) 0.9074(3)
H7 H 0.1723 0.0745 0.8936
C4 C -0.0879(7) 0.11451(11) 0.8191(3)
C5 C -0.3019(7) 0.13374(12) 0.8338(4)
C6 C -0.3961(7) 0.16421(13) 0.7469(4)
H8 H -0.5356 0.1777 0.7564
C7 C -0.2859(8) 0.17457(13) 0.6474(4)
H9 H -0.3534 0.1947 0.5898
C8 C -0.0757(8) 0.15570(14) 0.6304(4)
H10 H -0.0019 0.1631 0.5626
C9 C 0.0205(7) 0.12576(12) 0.7163(3)
H11 H 0.1606 0.1127 0.7058
N5 N 0.2979(5) 0.09155(10) 0.4459(3)
N6 N 0.4661(5) 0.06510(10) 0.5069(3)
N7 N 0.2222(5) 0.14339(9) 0.2877(3)
N8 N 0.8524(5) 0.04549(10) 0.5046(3)
H3 H 0.8483 0.0271 0.5642
H4 H 0.9777 0.0490 0.4720
O2 O -0.1463(5) 0.19460(9) 0.2563(3)
H6 H -0.0528 0.1776 0.2931
S2 S 0.66006(17) 0.10490(3) 0.34039(9)
C10 C 0.3698(6) 0.11467(11) 0.3573(3)
C11 C 0.6628(6) 0.06866(11) 0.4623(3)
C12 C 0.2767(7) 0.15904(11) 0.1865(3)
H12 H 0.4159 0.1506 0.1607
C13 C 0.1291(7) 0.18946(11) 0.1108(3)
C14 C -0.0756(7) 0.20601(11) 0.1478(4)
C15 C -0.2124(7) 0.23435(12) 0.0721(4)
H13 H -0.3474 0.2454 0.0972
C16 C -0.1507(9) 0.24629(13) -0.0395(4)
H14 H -0.2458 0.2650 -0.0907
C17 C 0.0516(9) 0.23096(14) -0.0776(4)
H15 H 0.0936 0.2396 -0.1534
C18 C 0.1897(8) 0.20292(13) -0.0031(3)
H16 H 0.3260 0.1927 -0.0288
loop_
_geom_bond_atom_site_label_1
_geom_bond_atom_site_label_2
_geom_bond_site_symmetry_1
_geom_bond_site_symmetry_2
N1 N2 1_555 1_555
N2 C2 1_555 1_555
N3 C1 1_555 1_555
N4 H1 1_555 1_555
H2 N4 1_555 1_555
N5 N6 1_555 1_555
N6 C11 1_555 1_555
N7 C10 1_555 1_555
N8 H3 1_555 1_555
H4 N8 1_555 1_555
O1 H5 1_555 1_555
O2 H6 1_555 1_555
S1 C1 1_555 1_555
S2 C10 1_555 1_555
C1 N1 1_555 1_555
C2 N4 1_555 1_555
C3 N3 1_555 1_555
H7 C3 1_555 1_555
C4 C3 1_555 1_555
C5 O1 1_555 1_555
C6 C5 1_555 1_555
H8 C6 1_555 1_555
C7 C6 1_555 1_555
H9 C7 1_555 1_555
C8 C7 1_555 1_555
H10 C8 1_555 1_555
C9 C4 1_555 1_555
H11 C9 1_555 1_555
C10 N5 1_555 1_555
C11 N8 1_555 1_555
C12 N7 1_555 1_555
H12 C12 1_555 1_555
C13 C12 1_555 1_555
C14 O2 1_555 1_555
C15 C14 1_555 1_555
H13 C15 1_555 1_555
C16 C15 1_555 1_555
H14 C16 1_555 1_555
C17 C16 1_555 1_555
H15 C17 1_555 1_555
C18 C13 1_555 1_555
H16 C18 1_555 1_555
S1 C2 1_555 1_555
S2 C11 1_555 1_555
C4 C5 1_555 1_555
C8 C9 1_555 1_555
C13 C14 1_555 1_555
C17 C18 1_555 1_555

#END
