
#######################################################################
#
#                 Cambridge Crystallographic Data Centre
#                                CCDC 
#
#######################################################################
#
# If this CIF has been generated from an entry in the Cambridge 
# Structural Database, then it will include bibliographic, chemical, 
# crystal, experimental, refinement or atomic coordinate data resulting 
# from the CCDC's data processing and validation procedures.
#
#######################################################################

data_HISDAQ
_chemical_formula_moiety         'C16 H13 Cl2 N3 O2'
_chemical_name_systematic        
'Ethyl 8-(2,4-dichlorophenyl)-6-methyl[1,2,4]triazolo[1,5-a]pyridine-7-carboxylate'
_symmetry_cell_setting           orthorhombic
_symmetry_space_group_name_H-M   'P b c a'
_symmetry_Int_Tables_number      61
_space_group_name_Hall           '-P 2ac 2ab'
loop_
_symmetry_equiv_pos_site_id
_symmetry_equiv_pos_as_xyz
1 x,y,z
2 1/2-x,-y,1/2+z
3 -x,1/2+y,1/2-z
4 1/2+x,1/2-y,-z
5 -x,-y,-z
6 1/2+x,y,1/2-z
7 x,1/2-y,1/2+z
8 1/2-x,1/2+y,z
_cell_length_a                   14.693(2)
_cell_length_b                   13.531(2)
_cell_length_c                   16.347(2)
_cell_angle_alpha                90
_cell_angle_beta                 90
_cell_angle_gamma                90
_cell_volume                     3249.96
_exptl_crystal_colour            colorless
_exptl_crystal_description       block
_cell_formula_units_Z            8
loop_
_atom_site_label
_atom_site_type_symbol
_atom_site_fract_x
_atom_site_fract_y
_atom_site_fract_z
Cl1 Cl 0.05484(8) 0.40274(8) 0.16648(8)
Cl2 Cl 0.19892(9) 0.61061(7) -0.08078(8)
N1 N 0.26136(16) 0.13047(17) 0.22123(12)
N2 N 0.32941(18) 0.1240(2) 0.27788(15)
N3 N 0.33128(17) 0.27522(19) 0.21631(14)
O1 O -0.01914(15) 0.1842(2) 0.05658(15)
O2 O 0.09633(14) 0.21635(17) -0.02602(11)
C1 C 0.0817(4) 0.3050(5) -0.1491(3)
H1 H 0.1140 0.3576 -0.1224
H2 H 0.0391 0.3323 -0.1874
H3 H 0.1242 0.2634 -0.1775
C2 C 0.0347(3) 0.2488(4) -0.0903(2)
H4 H 0.0074 0.1916 -0.1164
H5 H -0.0137 0.2883 -0.0667
C3 C 0.06111(18) 0.19142(19) 0.04424(16)
C4 C 0.13260(17) 0.17205(19) 0.10725(15)
C5 C 0.13144(18) 0.07882(19) 0.14927(16)
C6 C 0.19780(19) 0.0596(2) 0.20462(17)
H6 H 0.2000 -0.0012 0.2310
C7 C 0.3669(2) 0.2128(3) 0.27135(19)
H7 H 0.4161 0.2311 0.3038
C8 C 0.26346(18) 0.22155(19) 0.18455(15)
C9 C 0.19725(16) 0.24312(18) 0.12376(15)
C10 C 0.20186(17) 0.33997(18) 0.08023(15)
C11 C 0.1376(2) 0.4141(2) 0.09152(19)
C12 C 0.1379(2) 0.4988(2) 0.0427(2)
H8 H 0.0942 0.5477 0.0500
C13 C 0.2031(2) 0.5087(2) -0.0156(2)
C14 C 0.2709(2) 0.4403(2) -0.02570(17)
H9 H 0.3167 0.4501 -0.0641
C15 C 0.26961(18) 0.3567(2) 0.02229(16)
H10 H 0.3154 0.3099 0.0158
C16 C 0.0598(2) 0.0018(2) 0.1339(2)
H11 H 0.0770 -0.0588 0.1604
H12 H 0.0542 -0.0093 0.0761
H13 H 0.0026 0.0241 0.1554
loop_
_geom_bond_atom_site_label_1
_geom_bond_atom_site_label_2
_geom_bond_site_symmetry_1
_geom_bond_site_symmetry_2
Cl1 C11 1_555 1_555
Cl2 C13 1_555 1_555
N1 N2 1_555 1_555
N2 C7 1_555 1_555
N3 C7 1_555 1_555
O1 C3 1_555 1_555
O2 C2 1_555 1_555
C1 H1 1_555 1_555
H2 C1 1_555 1_555
H3 C1 1_555 1_555
C2 C1 1_555 1_555
H4 C2 1_555 1_555
H5 C2 1_555 1_555
C3 O2 1_555 1_555
C4 C3 1_555 1_555
C5 C4 1_555 1_555
C6 N1 1_555 1_555
H6 C6 1_555 1_555
C7 H7 1_555 1_555
C8 N1 1_555 1_555
C9 C4 1_555 1_555
C10 C9 1_555 1_555
C11 C10 1_555 1_555
C12 C11 1_555 1_555
H8 C12 1_555 1_555
C13 C12 1_555 1_555
C14 C13 1_555 1_555
H9 C14 1_555 1_555
C15 C10 1_555 1_555
H10 C15 1_555 1_555
C16 C5 1_555 1_555
H11 C16 1_555 1_555
H12 C16 1_555 1_555
H13 C16 1_555 1_555
N3 C8 1_555 1_555
C5 C6 1_555 1_555
C8 C9 1_555 1_555
C14 C15 1_555 1_555

#END
