
#######################################################################
#
#                 Cambridge Crystallographic Data Centre
#                                CCDC 
#
#######################################################################
#
# If this CIF has been generated from an entry in the Cambridge 
# Structural Database, then it will include bibliographic, chemical, 
# crystal, experimental, refinement or atomic coordinate data resulting 
# from the CCDC's data processing and validation procedures.
#
#######################################################################

data_HISDOD
_chemical_formula_moiety         'C20 H17 N3 O2'
_chemical_name_systematic        1,3,5-tris(2-Pyridyl)pentane-1,5-dione
_symmetry_cell_setting           triclinic
_symmetry_space_group_name_H-M   'P -1'
_symmetry_Int_Tables_number      2
_space_group_name_Hall           '-P 1'
loop_
_symmetry_equiv_pos_site_id
_symmetry_equiv_pos_as_xyz
1 x,y,z
2 -x,-y,-z
_cell_length_a                   8.3830(17)
_cell_length_b                   10.750(2)
_cell_length_c                   10.950(2)
_cell_angle_alpha                101.92(3)
_cell_angle_beta                 104.71(3)
_cell_angle_gamma                111.51(3)
_cell_volume                     837.289
_exptl_crystal_colour            colorless
_exptl_crystal_description       block
_chemical_melting_point          '124 deg.C'
_cell_formula_units_Z            2
_exptl_crystal_recrystallization_method ethanol
loop_
_atom_site_label
_atom_site_type_symbol
_atom_site_fract_x
_atom_site_fract_y
_atom_site_fract_z
O1 O 0.57178(18) -0.27893(12) 0.07393(13)
O2 O 0.78779(19) 0.19726(12) 0.04347(12)
N1 N 0.41992(19) -0.30815(15) 0.34078(14)
N2 N 0.8417(2) 0.45083(15) 0.32752(14)
N3 N 0.97442(18) 0.09329(14) 0.36515(13)
C1 C 0.3457(3) -0.4064(2) 0.3933(2)
H1 H 0.3208 -0.3782 0.4697
C2 C 0.3047(3) -0.5456(2) 0.3409(3)
H2 H 0.2529 -0.6102 0.3810
C3 C 0.3399(3) -0.5888(2) 0.2301(3)
H3 H 0.3126 -0.6835 0.1927
C4 C 0.4162(3) -0.49125(19) 0.1741(2)
H4 H 0.4424 -0.5181 0.0980
C5 C 0.4536(2) -0.35289(16) 0.23193(16)
C6 C 0.5366(2) -0.24400(16) 0.17207(16)
C7 C 0.5694(2) -0.09482(16) 0.23362(16)
H5 H 0.6284 -0.0657 0.3300
H6 H 0.4520 -0.0912 0.2152
C8 C 0.6889(2) 0.00837(15) 0.18096(15)
H7 H 0.6417 -0.0323 0.0831
C9 C 0.8847(2) 0.02844(14) 0.23367(14)
C10 C 0.9652(2) -0.01886(17) 0.15183(16)
H8 H 0.8993 -0.0647 0.0605
C11 C 1.1434(2) 0.00199(19) 0.20588(19)
H9 H 1.2002 -0.0286 0.1516
C12 C 1.2357(2) 0.06803(18) 0.34003(19)
H10 H 1.3565 0.0834 0.3795
C13 C 1.1469(2) 0.11107(19) 0.41502(18)
H11 H 1.2104 0.1557 0.5068
C14 C 0.6836(2) 0.15105(16) 0.21789(16)
H12 H 0.5566 0.1351 0.1969
H13 H 0.7474 0.1990 0.3136
C15 C 0.7697(2) 0.24470(16) 0.14624(15)
C16 C 0.8333(2) 0.40088(16) 0.20360(15)
C17 C 0.8833(3) 0.48560(18) 0.12857(18)
H14 H 0.8748 0.4463 0.0418
C18 C 0.9460(3) 0.62891(19) 0.1835(2)
H15 H 0.9799 0.6887 0.1347
C19 C 0.9575(3) 0.68178(19) 0.3110(2)
H16 H 0.9998 0.7787 0.3511
C20 C 0.9062(3) 0.59109(19) 0.3790(2)
H17 H 0.9167 0.6290 0.4667
loop_
_geom_bond_atom_site_label_1
_geom_bond_atom_site_label_2
_geom_bond_site_symmetry_1
_geom_bond_site_symmetry_2
O1 C6 1_555 1_555
O2 C15 1_555 1_555
N1 C1 1_555 1_555
N2 C16 1_555 1_555
N3 C9 1_555 1_555
C1 H1 1_555 1_555
C2 C1 1_555 1_555
H2 C2 1_555 1_555
C3 C2 1_555 1_555
H3 C3 1_555 1_555
C4 C3 1_555 1_555
H4 C4 1_555 1_555
C5 N1 1_555 1_555
C6 C5 1_555 1_555
C7 C6 1_555 1_555
H5 C7 1_555 1_555
H6 C7 1_555 1_555
C8 C7 1_555 1_555
H7 C8 1_555 1_555
C9 C8 1_555 1_555
C10 C9 1_555 1_555
H8 C10 1_555 1_555
C11 C10 1_555 1_555
H9 C11 1_555 1_555
C12 C11 1_555 1_555
H10 C12 1_555 1_555
C13 N3 1_555 1_555
H11 C13 1_555 1_555
C14 C8 1_555 1_555
H12 C14 1_555 1_555
H13 C14 1_555 1_555
C15 C14 1_555 1_555
C16 C15 1_555 1_555
C17 C16 1_555 1_555
H14 C17 1_555 1_555
C18 C17 1_555 1_555
H15 C18 1_555 1_555
C19 C18 1_555 1_555
H16 C19 1_555 1_555
C20 N2 1_555 1_555
H17 C20 1_555 1_555
C4 C5 1_555 1_555
C12 C13 1_555 1_555
C19 C20 1_555 1_555

#END
