
#######################################################################
#
#                 Cambridge Crystallographic Data Centre
#                                CCDC 
#
#######################################################################
#
# If this CIF has been generated from an entry in the Cambridge 
# Structural Database, then it will include bibliographic, chemical, 
# crystal, experimental, refinement or atomic coordinate data resulting 
# from the CCDC's data processing and validation procedures.
#
#######################################################################

data_HISFOF
_chemical_formula_moiety         'C15 H16 N2 O2'
_chemical_name_systematic        
4-(2-(Methyl(2-pyridyl)amino)ethoxy)benzaldehyde
_symmetry_cell_setting           monoclinic
_symmetry_space_group_name_H-M   'P 21'
_symmetry_Int_Tables_number      4
_space_group_name_Hall           'P 2yb'
loop_
_symmetry_equiv_pos_site_id
_symmetry_equiv_pos_as_xyz
1 x,y,z
2 -x,1/2+y,-z
_cell_length_a                   6.1995(19)
_cell_length_b                   9.416(3)
_cell_length_c                   11.714(3)
_cell_angle_alpha                90
_cell_angle_beta                 98.328(5)
_cell_angle_gamma                90
_cell_volume                     676.588
_exptl_crystal_colour            colorless
_exptl_crystal_description       block
_chemical_melting_point          '338-339 K'
_cell_formula_units_Z            2
_exptl_crystal_recrystallization_method dichloromethane
loop_
_atom_site_label
_atom_site_type_symbol
_atom_site_fract_x
_atom_site_fract_y
_atom_site_fract_z
O1 O 0.4167(3) 0.5026(2) 0.66454(15)
O2 O 0.1555(4) 0.1192(3) 1.0759(2)
N1 N 0.6212(3) 0.4415(2) 0.33536(18)
N2 N 0.7653(3) 0.6252(2) 0.45508(18)
C1 C 0.6382(5) 0.3521(3) 0.2477(2)
H1 H 0.5234 0.2897 0.2258
C2 C 0.8123(6) 0.3465(4) 0.1885(3)
H2 H 0.8161 0.2825 0.1284
C3 C 0.9817(5) 0.4388(4) 0.2208(3)
H3 H 1.1034 0.4373 0.1829
C4 C 0.9714(4) 0.5337(3) 0.3093(2)
H4 H 1.0853 0.5968 0.3312
C5 C 0.7866(4) 0.5338(3) 0.36600(19)
C6 C 0.9392(5) 0.7225(4) 0.4982(3)
H5 H 1.0639 0.6696 0.5332
H6 H 0.8910 0.7843 0.5546
H7 H 0.9780 0.7780 0.4355
C7 C 0.5769(4) 0.6150(3) 0.5166(2)
H8 H 0.4488 0.5907 0.4624
H9 H 0.5512 0.7067 0.5499
C8 C 0.6100(4) 0.5051(3) 0.6109(2)
H10 H 0.6349 0.4125 0.5788
H11 H 0.7354 0.5293 0.6670
C9 C 0.4029(4) 0.4081(3) 0.7518(2)
C10 C 0.5581(4) 0.3040(3) 0.7876(2)
H12 H 0.6831 0.2961 0.7527
C11 C 0.5236(4) 0.2129(3) 0.8756(2)
H13 H 0.6271 0.1434 0.8992
C12 C 0.3387(4) 0.2219(3) 0.9301(2)
C13 C 0.1869(4) 0.3291(3) 0.8948(2)
H14 H 0.0641 0.3386 0.9312
C14 C 0.2173(4) 0.4204(3) 0.8069(2)
H15 H 0.1146 0.4906 0.7839
C15 C 0.3057(5) 0.1201(4) 1.0211(2)
H16 H 0.4108 0.0497 1.0380
loop_
_geom_bond_atom_site_label_1
_geom_bond_atom_site_label_2
_geom_bond_site_symmetry_1
_geom_bond_site_symmetry_2
O1 C8 1_555 1_555
O2 C15 1_555 1_555
N1 C1 1_555 1_555
N2 C5 1_555 1_555
C1 H1 1_555 1_555
C2 C1 1_555 1_555
H2 C2 1_555 1_555
C3 C2 1_555 1_555
H3 C3 1_555 1_555
C4 C3 1_555 1_555
H4 C4 1_555 1_555
C5 N1 1_555 1_555
C6 N2 1_555 1_555
H5 C6 1_555 1_555
H6 C6 1_555 1_555
H7 C6 1_555 1_555
C7 N2 1_555 1_555
H8 C7 1_555 1_555
H9 C7 1_555 1_555
C8 C7 1_555 1_555
H10 C8 1_555 1_555
H11 C8 1_555 1_555
C9 O1 1_555 1_555
C10 C9 1_555 1_555
H12 C10 1_555 1_555
C11 C10 1_555 1_555
H13 C11 1_555 1_555
C12 C11 1_555 1_555
C13 C12 1_555 1_555
H14 C13 1_555 1_555
C14 C9 1_555 1_555
H15 C14 1_555 1_555
C15 C12 1_555 1_555
H16 C15 1_555 1_555
C4 C5 1_555 1_555
C13 C14 1_555 1_555

#END
