
#######################################################################
#
#                 Cambridge Crystallographic Data Centre
#                                CCDC 
#
#######################################################################
#
# If this CIF has been generated from an entry in the Cambridge 
# Structural Database, then it will include bibliographic, chemical, 
# crystal, experimental, refinement or atomic coordinate data resulting 
# from the CCDC's data processing and validation procedures.
#
#######################################################################

data_HISFIZ
_chemical_formula_moiety         'C31 H33 N1 O6'
_chemical_name_systematic        
'Ethyl 3-phenyl-4-((Z)-3-phenylacryloyl)-5-(3,4,5-trimethoxyphenyl)pyrrolidine-2-carboxylate'
_symmetry_cell_setting           orthorhombic
_symmetry_space_group_name_H-M   'P 21 21 2'
_symmetry_Int_Tables_number      18
_space_group_name_Hall           'P 2 2ab'
loop_
_symmetry_equiv_pos_site_id
_symmetry_equiv_pos_as_xyz
1 x,y,z
2 -x,-y,z
3 1/2-x,1/2+y,-z
4 1/2+x,1/2-y,-z
_cell_length_a                   13.7016(5)
_cell_length_b                   23.1680(9)
_cell_length_c                   8.5695(2)
_cell_angle_alpha                90
_cell_angle_beta                 90
_cell_angle_gamma                90
_cell_volume                     2720.29
_exptl_crystal_colour            colorless
_exptl_crystal_description       block
_cell_formula_units_Z            4
_exptl_crystal_recrystallization_method ethanol
loop_
_atom_site_label
_atom_site_type_symbol
_atom_site_fract_x
_atom_site_fract_y
_atom_site_fract_z
O1 O 0.7792(2) 0.47852(9) 1.0428(2)
O2 O 0.68258(16) 0.54921(9) 0.9537(2)
O3 O 1.02935(12) 0.26874(7) 0.6449(2)
O4 O 1.08272(11) 0.26970(8) 0.3478(2)
O5 O 1.04771(14) 0.36179(8) 0.1643(2)
O6 O 0.69787(16) 0.38770(8) 0.7157(2)
N1 N 0.87654(17) 0.47263(11) 0.7542(3)
C1 C 0.87626(16) 0.46216(10) 0.5862(3)
H1 H 0.9017 0.4970 0.5356
C2 C 0.76499(16) 0.45786(9) 0.5451(3)
H2 H 0.7538 0.4671 0.4349
C3 C 0.71835(16) 0.50404(10) 0.6518(2)
H3 H 0.6607 0.4871 0.7015
C4 C 0.79778(17) 0.51404(10) 0.7806(3)
H4 H 0.8244 0.5530 0.7668
C5 C 0.7546(2) 0.51027(11) 0.9420(3)
C6 C 0.6255(3) 0.55091(17) 1.0957(4)
H5 H 0.6635 0.5672 1.1803
H6 H 0.6051 0.5123 1.1251
C7 C 0.5384(3) 0.5879(2) 1.0622(5)
H7 H 0.4983 0.5904 1.1538
H8 H 0.5014 0.5712 0.9784
H9 H 0.5596 0.6258 1.0327
C8 C 0.68751(16) 0.55851(10) 0.5691(3)
C9 C 0.75296(18) 0.59451(10) 0.4952(3)
H10 H 0.8189 0.5850 0.4963
C10 C 0.7239(2) 0.64415(11) 0.4199(3)
H11 H 0.7698 0.6675 0.3708
C11 C 0.6273(2) 0.65901(12) 0.4174(4)
H12 H 0.6073 0.6926 0.3674
C12 C 0.5600(2) 0.62392(13) 0.4894(4)
H13 H 0.4943 0.6338 0.4877
C13 C 0.58979(18) 0.57397(12) 0.5644(4)
H14 H 0.5436 0.5505 0.6122
C14 C 0.93748(15) 0.41216(9) 0.5320(3)
C15 C 0.95837(15) 0.36506(9) 0.6259(3)
H15 H 0.9406 0.3653 0.7307
C16 C 1.00602(15) 0.31734(10) 0.5633(3)
C17 C 1.03315(15) 0.31654(10) 0.4065(3)
C18 C 1.01529(16) 0.36484(11) 0.3146(3)
C19 C 0.96761(15) 0.41252(10) 0.3775(3)
H16 H 0.9559 0.4448 0.3156
C20 C 1.0141(2) 0.26865(12) 0.8091(3)
H17 H 1.0337 0.2321 0.8513
H18 H 0.9462 0.2750 0.8308
H19 H 1.0522 0.2988 0.8560
C21 C 1.0267(2) 0.23402(11) 0.2476(4)
H20 H 1.0663 0.2027 0.2107
H21 H 1.0040 0.2563 0.1604
H22 H 0.9717 0.2189 0.3039
C22 C 1.0310(3) 0.40979(14) 0.0675(3)
H23 H 1.0574 0.4024 -0.0343
H24 H 1.0621 0.4432 0.1114
H25 H 0.9621 0.4166 0.0593
C23 C 0.72643(16) 0.39775(10) 0.5840(3)
C24 C 0.72722(17) 0.35096(10) 0.4693(3)
H26 H 0.7119 0.3143 0.5061
C25 C 0.74747(17) 0.35534(10) 0.3189(3)
H27 H 0.7599 0.3920 0.2796
C26 C 0.75193(16) 0.30645(10) 0.2085(3)
C27 C 0.75992(19) 0.24969(11) 0.2593(3)
H28 H 0.7620 0.2419 0.3657
C28 C 0.7649(2) 0.20470(12) 0.1539(4)
H29 H 0.7715 0.1669 0.1893
C29 C 0.7601(2) 0.21589(12) -0.0037(4)
H30 H 0.7620 0.1856 -0.0748
C30 C 0.7524(2) 0.27172(14) -0.0558(3)
H31 H 0.7494 0.2793 -0.1622
C31 C 0.74900(19) 0.31668(12) 0.0500(3)
H32 H 0.7447 0.3544 0.0138
H33 H 0.862(3) 0.4483(17) 0.805(5)
loop_
_geom_bond_atom_site_label_1
_geom_bond_atom_site_label_2
_geom_bond_site_symmetry_1
_geom_bond_site_symmetry_2
O1 C5 1_555 1_555
O2 C5 1_555 1_555
O3 C16 1_555 1_555
O4 C17 1_555 1_555
O5 C18 1_555 1_555
O6 C23 1_555 1_555
N1 C1 1_555 1_555
C1 H1 1_555 1_555
C2 C1 1_555 1_555
H2 C2 1_555 1_555
C3 C2 1_555 1_555
H3 C3 1_555 1_555
C4 N1 1_555 1_555
H4 C4 1_555 1_555
C5 C4 1_555 1_555
C6 O2 1_555 1_555
H5 C6 1_555 1_555
H6 C6 1_555 1_555
C7 C6 1_555 1_555
H7 C7 1_555 1_555
H8 C7 1_555 1_555
H9 C7 1_555 1_555
C8 C3 1_555 1_555
C9 C8 1_555 1_555
H10 C9 1_555 1_555
C10 C9 1_555 1_555
H11 C10 1_555 1_555
C11 C10 1_555 1_555
H12 C11 1_555 1_555
C12 C11 1_555 1_555
H13 C12 1_555 1_555
C13 C8 1_555 1_555
H14 C13 1_555 1_555
C14 C1 1_555 1_555
C15 C14 1_555 1_555
H15 C15 1_555 1_555
C16 C15 1_555 1_555
C17 C16 1_555 1_555
C18 C17 1_555 1_555
C19 C14 1_555 1_555
H16 C19 1_555 1_555
C20 O3 1_555 1_555
H17 C20 1_555 1_555
H18 C20 1_555 1_555
H19 C20 1_555 1_555
C21 O4 1_555 1_555
H20 C21 1_555 1_555
H21 C21 1_555 1_555
H22 C21 1_555 1_555
C22 O5 1_555 1_555
H23 C22 1_555 1_555
H24 C22 1_555 1_555
H25 C22 1_555 1_555
C23 C2 1_555 1_555
C24 C23 1_555 1_555
H26 C24 1_555 1_555
C25 C24 1_555 1_555
H27 C25 1_555 1_555
C26 C25 1_555 1_555
C27 C26 1_555 1_555
H28 C27 1_555 1_555
C28 C27 1_555 1_555
H29 C28 1_555 1_555
C29 C28 1_555 1_555
H30 C29 1_555 1_555
C30 C29 1_555 1_555
H31 C30 1_555 1_555
C31 C26 1_555 1_555
H32 C31 1_555 1_555
H33 N1 1_555 1_555
C3 C4 1_555 1_555
C12 C13 1_555 1_555
C18 C19 1_555 1_555
C30 C31 1_555 1_555

#END
