
#######################################################################
#
#                 Cambridge Crystallographic Data Centre
#                                CCDC 
#
#######################################################################
#
# If this CIF has been generated from an entry in the Cambridge 
# Structural Database, then it will include bibliographic, chemical, 
# crystal, experimental, refinement or atomic coordinate data resulting 
# from the CCDC's data processing and validation procedures.
#
#######################################################################

data_HISHIB01
_chemical_formula_moiety         'C19 H18 N1 O2 1+,C7 H7 O3 S1 1-'
_chemical_name_systematic        
'2-(2-(4-Hydroxy-3-methoxyphenyl)vinyl)-1-methylquinolinium 4-methylbenzenesulfonate'
_symmetry_cell_setting           monoclinic
_symmetry_space_group_name_H-M   'P n'
_symmetry_Int_Tables_number      7
_space_group_name_Hall           'P -2yac'
loop_
_symmetry_equiv_pos_site_id
_symmetry_equiv_pos_as_xyz
1 x,y,z
2 1/2+x,-y,1/2+z
_cell_length_a                   6.9304(3)
_cell_length_b                   11.1154(5)
_cell_length_c                   14.7594(5)
_cell_angle_alpha                90
_cell_angle_beta                 100.3072(9)
_cell_angle_gamma                90
_cell_volume                     1118.63
_cell_formula_units_Z            2
loop_
_atom_site_label
_atom_site_type_symbol
_atom_site_fract_x
_atom_site_fract_y
_atom_site_fract_z
C1 C 0.0851(4) 0.5779(2) -0.51261(17)
H1 H 0.0537 0.6498 -0.4865
C2 C 0.0792(4) 0.4714(2) -0.66262(17)
H2 H 0.0589 0.3989 -0.6344
C3 C 0.1041(4) 0.4765(2) -0.36141(17)
C5 C 0.1191(4) 0.3567(2) -0.22394(17)
C6 C 0.0647(4) 0.5700(2) -0.21867(18)
H3 H 0.0438 0.6389 -0.1860
C7 C 0.1085(4) 0.5828(2) -0.79802(17)
C8 C 0.1354(4) 0.8007(2) -0.79157(19)
H4 H 0.1462 0.8722 -0.7583
C13 C 0.1711(5) 0.7930(2) -0.59528(18)
H11 H 0.1878 0.8595 -0.6346
H12 H 0.2892 0.7815 -0.5510
H13 H 0.0642 0.8094 -0.5638
C15 C 0.0997(4) 0.5780(2) -0.61027(17)
C16 C 0.1138(4) 0.4817(3) -0.45915(17)
H14 H 0.1431 0.4103 -0.4866
C17 C 0.1165(5) 0.6958(3) -0.93615(19)
H15 H 0.1143 0.6987 -0.9993
C18 C 0.1539(5) 0.1423(3) -0.2169(2)
H16 H 0.1663 0.0785 -0.1724
H17 H 0.2673 0.1433 -0.2459
H18 H 0.0385 0.1296 -0.2626
C19 C 0.1274(4) 0.3660(2) -0.31605(18)
H19 H 0.1491 0.2973 -0.3487
C21 C 0.1256(4) 0.6896(2) -0.74600(16)
C22 C 0.1289(5) 0.8028(3) -0.8848(2)
H21 H 0.1328 0.8762 -0.9147
C23 C 0.0875(4) 0.4601(2) -0.17386(16)
C24 C 0.1076(4) 0.5882(3) -0.89352(17)
H22 H 0.1009 0.5175 -0.9276
C25 C 0.0724(4) 0.5787(2) -0.31098(18)
H23 H 0.0564 0.6532 -0.3400
C26 C 0.0884(4) 0.4730(2) -0.75341(18)
H24 H 0.0815 0.4013 -0.7863
O1 O 0.1386(3) 0.25363(17) -0.17235(13)
O2 O 0.0746(3) 0.45529(17) -0.08410(12)
H25 H 0.0907 0.3858 -0.0658
N1 N 0.1281(3) 0.68273(18) -0.65146(13)
C4 C 0.1577(4) 0.1420(2) 0.18097(18)
C9 C -0.0580(5) 0.1366(3) 0.2910(2)
H5 H -0.1847 0.1411 0.3036
C10 C -0.0301(4) 0.1466(3) 0.2006(2)
H6 H -0.1373 0.1563 0.1534
C11 C 0.0684(8) 0.1102(4) 0.4619(3)
H7 H -0.0683 0.1179 0.4648
H8 H 0.1408 0.1729 0.4977
H9 H 0.1151 0.0333 0.4861
C12 C 0.2819(5) 0.1136(3) 0.3418(2)
H10 H 0.3888 0.1016 0.3889
C14 C 0.0961(6) 0.1203(3) 0.3626(2)
C20 C 0.3120(4) 0.1243(2) 0.25199(19)
H20 H 0.4388 0.1195 0.2396
O3 O 0.4053(3) 0.1542(2) 0.06934(15)
O4 O 0.0842(4) 0.06945(18) 0.01082(14)
O5 O 0.1185(4) 0.28187(19) 0.04168(14)
S1 S 0.19512(11) 0.16213(6) 0.06537(5)
loop_
_geom_bond_atom_site_label_1
_geom_bond_atom_site_label_2
_geom_bond_site_symmetry_1
_geom_bond_site_symmetry_2
C1 H1 1_555 1_555
C2 H2 1_555 1_555
C3 C16 1_555 1_555
C4 C10 1_555 1_555
C5 C19 1_555 1_555
C6 H3 1_555 1_555
C7 C21 1_555 1_555
C8 H4 1_555 1_555
C9 H5 1_555 1_555
C10 C9 1_555 1_555
H6 C10 1_555 1_555
C11 H7 1_555 1_555
H8 C11 1_555 1_555
H9 C11 1_555 1_555
C12 H10 1_555 1_555
C13 H11 1_555 1_555
H12 C13 1_555 1_555
H13 C13 1_555 1_555
C14 C9 1_555 1_555
C15 C1 1_555 1_555
C16 C1 1_555 1_555
H14 C16 1_555 1_555
C17 H15 1_555 1_555
C18 H16 1_555 1_555
H17 C18 1_555 1_555
H18 C18 1_555 1_555
C19 C3 1_555 1_555
H19 C19 1_555 1_555
C20 C4 1_555 1_555
H20 C20 1_555 1_555
C21 C8 1_555 1_555
C22 C8 1_555 1_555
H21 C22 1_555 1_555
C23 C5 1_555 1_555
C24 C7 1_555 1_555
H22 C24 1_555 1_555
C25 C3 1_555 1_555
H23 C25 1_555 1_555
C26 C2 1_555 1_555
H24 C26 1_555 1_555
O1 C5 1_555 1_555
O2 C23 1_555 1_555
H25 O2 1_555 1_555
O3 S1 1_555 1_555
O4 S1 1_555 1_555
O5 S1 1_555 1_555
N1 C13 1_555 1_555
S1 C4 1_555 1_555
C2 C15 1_555 1_555
C6 C23 1_555 1_555
C6 C25 1_555 1_555
C7 C26 1_555 1_555
C11 C14 1_555 1_555
C12 C14 1_555 1_555
C12 C20 1_555 1_555
C15 N1 1_555 1_555
C17 C22 1_555 1_555
C17 C24 1_555 1_555
C18 O1 1_555 1_555
C21 N1 1_555 1_555

#END
