
#######################################################################
#
#                 Cambridge Crystallographic Data Centre
#                                CCDC 
#
#######################################################################
#
# If this CIF has been generated from an entry in the Cambridge 
# Structural Database, then it will include bibliographic, chemical, 
# crystal, experimental, refinement or atomic coordinate data resulting 
# from the CCDC's data processing and validation procedures.
#
#######################################################################

data_HISKUR
_chemical_formula_moiety         'C16 H9 O8 1-,C5 H6 N1 1+,H2 O1'
_chemical_name_systematic        
"Pyridinium 2',6,6'-tricarboxybiphenyl-2-carboxylate monohydrate"
_symmetry_cell_setting           triclinic
_symmetry_space_group_name_H-M   'P -1'
_symmetry_Int_Tables_number      2
_space_group_name_Hall           '-P 1'
loop_
_symmetry_equiv_pos_site_id
_symmetry_equiv_pos_as_xyz
1 x,y,z
2 -x,-y,-z
_cell_length_a                   8.1122(4)
_cell_length_b                   11.1499(5)
_cell_length_c                   12.1660(5)
_cell_angle_alpha                66.7980(10)
_cell_angle_beta                 83.6510(10)
_cell_angle_gamma                74.3070(10)
_cell_volume                     973.707
_exptl_crystal_colour            colorless
_exptl_crystal_description       block
_cell_formula_units_Z            2
loop_
_atom_site_label
_atom_site_type_symbol
_atom_site_fract_x
_atom_site_fract_y
_atom_site_fract_z
O1 O 0.3056(3) 0.69435(19) 0.91228(14)
O2 O 0.2478(3) 0.49573(18) 0.99891(15)
H1 H 0.274(3) 0.502(2) 1.074(2)
O3 O 0.22302(19) 0.80308(14) 0.37232(12)
O4 O 0.48517(19) 0.70499(15) 0.44200(12)
H2 H 0.577(3) 0.612(2) 0.534(2)
C1 C 0.2897(2) 0.67141(18) 0.68049(16)
C2 C 0.2274(3) 0.59415(19) 0.79094(17)
C3 C 0.1266(3) 0.5094(2) 0.79454(18)
H3 H 0.0860 0.4580 0.8677
C4 C 0.0860(3) 0.5008(2) 0.69177(19)
H4 H 0.0179 0.4442 0.6957
C5 C 0.1461(3) 0.5757(2) 0.58287(18)
H5 H 0.1164 0.5713 0.5131
C6 C 0.2512(3) 0.65794(19) 0.57714(17)
C7 C 0.2645(3) 0.6024(2) 0.90466(17)
C8 C 0.3223(3) 0.7283(2) 0.45588(17)
O5 O 0.0412(2) 0.90159(17) 0.6589(2)
O6 O 0.1109(2) 1.09155(16) 0.62200(17)
H6 H -0.015(3) 1.129(2) 0.6158(19)
O7 O 0.64761(19) 0.52605(15) 0.61669(13)
O8 O 0.7128(2) 0.47980(14) 0.80180(12)
C9 C 0.4021(2) 0.76181(19) 0.67234(15)
C10 C 0.3369(2) 0.89915(19) 0.65232(15)
C11 C 0.4502(3) 0.9770(2) 0.64236(17)
H7 H 0.4078 1.0682 0.6276
C12 C 0.6247(3) 0.9211(2) 0.65403(17)
H8 H 0.6987 0.9746 0.6470
C13 C 0.6888(3) 0.7866(2) 0.67603(17)
H9 H 0.8060 0.7485 0.6852
C14 C 0.5780(3) 0.70727(19) 0.68454(16)
C15 C 0.1495(3) 0.9614(2) 0.64448(17)
C16 C 0.6506(2) 0.5614(2) 0.70379(17)
N1 N 0.5730(4) 0.8146(2) 0.0713(2)
H10 H 0.459(3) 0.786(2) 0.104(2)
C17 C 0.6405(4) 0.8143(3) -0.0336(2)
H11 H 0.5786 0.8002 -0.0853
C18 C 0.7998(4) 0.8348(3) -0.0649(2)
H12 H 0.8475 0.8342 -0.1378
C19 C 0.8896(5) 0.8562(3) 0.0117(3)
H13 H 0.9985 0.8704 -0.0088
C20 C 0.8171(6) 0.8563(3) 0.1187(3)
H14 H 0.8759 0.8722 0.1709
C21 C 0.6601(6) 0.8334(3) 0.1482(3)
H15 H 0.6122 0.8306 0.2219
O9 O 0.2642(3) 0.7876(2) 0.15099(16)
H16 H 0.259(3) 0.783(2) 0.239(2)
H17 H 0.269(3) 0.699(3) 0.169(2)
loop_
_geom_bond_atom_site_label_1
_geom_bond_atom_site_label_2
_geom_bond_site_symmetry_1
_geom_bond_site_symmetry_2
O1 C7 1_555 1_555
O2 H1 1_555 1_555
O3 C8 1_555 1_555
O4 C8 1_555 1_555
H2 O7 1_555 1_555
C1 C2 1_555 1_555
C2 C3 1_555 1_555
C3 H3 1_555 1_555
C4 C3 1_555 1_555
H4 C4 1_555 1_555
C5 C4 1_555 1_555
H5 C5 1_555 1_555
C6 C1 1_555 1_555
C7 O2 1_555 1_555
C8 C6 1_555 1_555
O5 C15 1_555 1_555
O6 H6 1_555 1_555
O7 C16 1_555 1_555
O8 C16 1_555 1_555
C9 C1 1_555 1_555
C10 C9 1_555 1_555
C11 C10 1_555 1_555
H7 C11 1_555 1_555
C12 C11 1_555 1_555
H8 C12 1_555 1_555
C13 C12 1_555 1_555
H9 C13 1_555 1_555
C14 C9 1_555 1_555
C15 O6 1_555 1_555
C16 C14 1_555 1_555
N1 H10 1_555 1_555
C17 N1 1_555 1_555
H11 C17 1_555 1_555
C18 C17 1_555 1_555
H12 C18 1_555 1_555
C19 C18 1_555 1_555
H13 C19 1_555 1_555
C20 C19 1_555 1_555
H14 C20 1_555 1_555
C21 N1 1_555 1_555
H15 C21 1_555 1_555
O9 H16 1_555 1_555
H17 O9 1_555 1_555
C2 C7 1_555 1_555
C5 C6 1_555 1_555
C10 C15 1_555 1_555
C13 C14 1_555 1_555
C20 C21 1_555 1_555

#END
