
#######################################################################
#
#                 Cambridge Crystallographic Data Centre
#                                CCDC 
#
#######################################################################
#
# If this CIF has been generated from an entry in the Cambridge 
# Structural Database, then it will include bibliographic, chemical, 
# crystal, experimental, refinement or atomic coordinate data resulting 
# from the CCDC's data processing and validation procedures.
#
#######################################################################

data_HISLAY
_chemical_formula_moiety         'C16 H8 O8 2-,2(C9 H8 N1 1+)'
_chemical_name_systematic        
"bis(quinolinium) 2',6'-dicarboxybiphenyl-2,6-dicarboxylate"
_symmetry_cell_setting           monoclinic
_symmetry_space_group_name_H-M   'C 2/c'
_symmetry_Int_Tables_number      15
_space_group_name_Hall           '-C 2yn'
loop_
_symmetry_equiv_pos_site_id
_symmetry_equiv_pos_as_xyz
1 x,y,z
2 -x,y,1/2-z
3 1/2+x,1/2+y,z
4 1/2-x,1/2+y,1/2-z
5 -x,-y,-z
6 x,-y,1/2+z
7 1/2-x,1/2-y,-z
8 1/2+x,1/2-y,1/2+z
_cell_length_a                   11.3125(17)
_cell_length_b                   11.7331(17)
_cell_length_c                   20.887(3)
_cell_angle_alpha                90
_cell_angle_beta                 90.959(5)
_cell_angle_gamma                90
_cell_volume                     2771.96
_exptl_crystal_colour            colorless
_exptl_crystal_description       block
_cell_formula_units_Z            4
loop_
_atom_site_label
_atom_site_type_symbol
_atom_site_fract_x
_atom_site_fract_y
_atom_site_fract_z
O1 O 0.2032(2) 0.8490(3) 0.37555(14)
O2 O 0.2594(2) 0.9306(2) 0.28699(14)
H1 H 0.239(3) 0.935(3) 0.2410(19)
C1 C 0.0000 0.8695(4) 0.2500
C2 C 0.0882(3) 0.8091(3) 0.28287(17)
C3 C 0.0859(3) 0.6900(3) 0.2836(2)
H2 H 0.1429 0.6500 0.3071
C4 C 0.0000 0.6316(5) 0.2500
H3 H 0.0000 0.5523 0.2500
C5 C 0.1878(3) 0.8654(3) 0.3190(2)
O3 O 0.1066(2) 1.0262(3) 0.09408(14)
O4 O 0.2107(2) 0.9356(2) 0.16890(13)
C6 C 0.0000 0.9990(4) 0.2500
C7 C 0.0585(3) 1.0596(3) 0.20220(17)
C8 C 0.0565(3) 1.1784(3) 0.20289(19)
H4 H 0.0943 1.2184 0.1707
C9 C 0.0000 1.2373(5) 0.2500
H5 H 0.0000 1.3165 0.2500
C10 C 0.1292(3) 1.0024(3) 0.1511(2)
O1A O -0.2032(2) 0.8490(3) 0.12445(14)
O2A O -0.2594(2) 0.9306(2) 0.21301(14)
H1A H -0.239(3) 0.935(3) 0.2590(19)
C2A C -0.0882(3) 0.8091(3) 0.21713(17)
C3A C -0.0859(3) 0.6900(3) 0.2164(2)
H2A H -0.1429 0.6500 0.1929
C5A C -0.1878(3) 0.8654(3) 0.1810(2)
O3A O -0.1066(2) 1.0262(3) 0.40592(14)
O4A O -0.2107(2) 0.9356(2) 0.33110(13)
C7A C -0.0585(3) 1.0596(3) 0.29780(17)
C8A C -0.0565(3) 1.1784(3) 0.29711(19)
H4A H -0.0943 1.2184 0.3293
C10A C -0.1292(3) 1.0024(3) 0.3489(2)
N1 N 0.2327(3) 0.9316(3) 0.00057(16)
H6 H 0.197(3) 0.977(3) 0.0330(18)
C11 C 0.1688(4) 0.9143(4) -0.0522(2)
H7 H 0.0924 0.9432 -0.0552
C12 C 0.2147(4) 0.8536(4) -0.1030(2)
H8 H 0.1697 0.8423 -0.1401
C13 C 0.3262(4) 0.8109(4) -0.0980(2)
H9 H 0.3574 0.7695 -0.1317
C14 C 0.5116(4) 0.7883(4) -0.0328(2)
H10 H 0.5464 0.7435 -0.0640
C15 C 0.5730(4) 0.8143(4) 0.0218(3)
H11 H 0.6496 0.7868 0.0274
C16 C 0.5241(3) 0.8804(4) 0.0687(2)
H12 H 0.5691 0.8988 0.1049
C17 C 0.4125(3) 0.9191(3) 0.06334(19)
H13 H 0.3796 0.9620 0.0960
C18 C 0.3461(3) 0.8936(3) 0.00730(18)
C19 C 0.3944(3) 0.8291(3) -0.04226(19)
loop_
_geom_bond_atom_site_label_1
_geom_bond_atom_site_label_2
_geom_bond_site_symmetry_1
_geom_bond_site_symmetry_2
O1 C5 1_555 1_555
O2 H1 1_555 1_555
C1 C2 1_555 1_555
C2 C3 1_555 1_555
C3 H2 1_555 1_555
C4 C3 1_555 1_555
H3 C4 1_555 1_555
C5 O2 1_555 1_555
O3 C10 1_555 1_555
O4 C10 1_555 1_555
C6 C1 1_555 1_555
C7 C6 1_555 1_555
C8 C7 1_555 1_555
H4 C8 1_555 1_555
C9 C8 1_555 1_555
H5 C9 1_555 1_555
C10 C7 1_555 1_555
N1 H6 1_555 1_555
C11 N1 1_555 1_555
H7 C11 1_555 1_555
C12 C11 1_555 1_555
H8 C12 1_555 1_555
C13 C12 1_555 1_555
H9 C13 1_555 1_555
C14 H10 1_555 1_555
C15 C14 1_555 1_555
H11 C15 1_555 1_555
C16 C15 1_555 1_555
H12 C16 1_555 1_555
C17 C16 1_555 1_555
H13 C17 1_555 1_555
C18 N1 1_555 1_555
C19 C13 1_555 1_555
O1A C5A 1_555 1_555
O2A H1A 1_555 1_555
C2A C1 1_555 1_555
C3A C4 1_555 1_555
H2A C3A 1_555 1_555
C5A O2A 1_555 1_555
O3A C10A 1_555 1_555
O4A C10A 1_555 1_555
C7A C6 1_555 1_555
C8A C9 1_555 1_555
H4A C8A 1_555 1_555
C10A C7A 1_555 1_555
C2 C5 1_555 1_555
C14 C19 1_555 1_555
C17 C18 1_555 1_555
C18 C19 1_555 1_555
C2A C3A 1_555 1_555
C2A C5A 1_555 1_555
C7A C8A 1_555 1_555

#END
