
#######################################################################
#
#                 Cambridge Crystallographic Data Centre
#                                CCDC 
#
#######################################################################
#
# If this CIF has been generated from an entry in the Cambridge 
# Structural Database, then it will include bibliographic, chemical, 
# crystal, experimental, refinement or atomic coordinate data resulting 
# from the CCDC's data processing and validation procedures.
#
#######################################################################

data_HISLED
_chemical_formula_moiety         'C11 H9 N5'
_chemical_name_systematic        
7-phenyl[1,2,4]triazolo[1,5-a]pyrimidin-2-amine
_symmetry_cell_setting           triclinic
_symmetry_space_group_name_H-M   'P -1'
_symmetry_Int_Tables_number      2
_space_group_name_Hall           '-P 1'
loop_
_symmetry_equiv_pos_site_id
_symmetry_equiv_pos_as_xyz
1 x,y,z
2 -x,-y,-z
_cell_length_a                   7.1190(4)
_cell_length_b                   7.8703(5)
_cell_length_c                   10.1861(6)
_cell_angle_alpha                100.798(2)
_cell_angle_beta                 108.552(2)
_cell_angle_gamma                105.055(2)
_cell_volume                     499.248
_exptl_crystal_colour            colorless
_exptl_crystal_description       plate
_cell_formula_units_Z            2
loop_
_atom_site_label
_atom_site_type_symbol
_atom_site_fract_x
_atom_site_fract_y
_atom_site_fract_z
N1 N 0.8945(2) 0.71375(18) 0.14749(14)
N2 N 0.61054(19) 0.83364(17) 0.08129(14)
N3 N 0.2789(2) 0.8652(2) 0.05675(16)
H1 H 0.168(3) 0.838(3) 0.080(2)
H2 H 0.307(3) 0.961(3) 0.020(2)
N4 N 0.39104(19) 0.64843(17) 0.16034(14)
N5 N 0.57317(19) 0.60852(17) 0.18464(13)
C1 C 0.6302(2) 0.4840(2) 0.25064(16)
C2 C 0.8272(2) 0.4775(2) 0.26363(17)
H3 H 0.8787 0.3945 0.3088
C3 C 0.9510(2) 0.5916(2) 0.21103(17)
H4 H 1.0847 0.5817 0.2212
C4 C 0.7045(2) 0.7225(2) 0.13608(16)
C5 C 0.4240(2) 0.7849(2) 0.09947(16)
C6 C 0.4892(2) 0.3665(2) 0.30230(16)
C7 C 0.5804(3) 0.3207(2) 0.42803(17)
H5 H 0.7291 0.3691 0.4792
C8 C 0.4560(3) 0.2057(2) 0.47853(18)
H6 H 0.5193 0.1759 0.5643
C9 C 0.2390(3) 0.1340(2) 0.40377(19)
H7 H 0.1534 0.0550 0.4383
C10 C 0.1471(3) 0.1778(2) 0.27862(18)
H8 H -0.0016 0.1279 0.2273
C11 C 0.2702(2) 0.2939(2) 0.22767(17)
H9 H 0.2059 0.3241 0.1423
loop_
_geom_bond_atom_site_label_1
_geom_bond_atom_site_label_2
_geom_bond_site_symmetry_1
_geom_bond_site_symmetry_2
N1 C3 1_555 1_555
N2 C4 1_555 1_555
N3 H1 1_555 1_555
H2 N3 1_555 1_555
N4 N5 1_555 1_555
N5 C1 1_555 1_555
C1 C2 1_555 1_555
C2 H3 1_555 1_555
C3 C2 1_555 1_555
H4 C3 1_555 1_555
C4 N1 1_555 1_555
C5 N2 1_555 1_555
C6 C1 1_555 1_555
C7 C6 1_555 1_555
H5 C7 1_555 1_555
C8 C7 1_555 1_555
H6 C8 1_555 1_555
C9 C8 1_555 1_555
H7 C9 1_555 1_555
C10 C9 1_555 1_555
H8 C10 1_555 1_555
C11 C6 1_555 1_555
H9 C11 1_555 1_555
N3 C5 1_555 1_555
N4 C5 1_555 1_555
N5 C4 1_555 1_555
C10 C11 1_555 1_555

#END
