
#######################################################################
#
#                 Cambridge Crystallographic Data Centre
#                                CCDC 
#
#######################################################################
#
# If this CIF has been generated from an entry in the Cambridge 
# Structural Database, then it will include bibliographic, chemical, 
# crystal, experimental, refinement or atomic coordinate data resulting 
# from the CCDC's data processing and validation procedures.
#
#######################################################################

data_HISNII
_chemical_formula_moiety         'C23 H21 N1 O4'
_chemical_name_systematic        
'Butyl 3-benzyl-2-oxo-2,3-dihydronaphtho[2,1-d][1,3]oxazole-5-carboxylate'
_symmetry_cell_setting           triclinic
_symmetry_space_group_name_H-M   'P -1'
_symmetry_Int_Tables_number      2
_space_group_name_Hall           '-P 1'
loop_
_symmetry_equiv_pos_site_id
_symmetry_equiv_pos_as_xyz
1 x,y,z
2 -x,-y,-z
_cell_length_a                   9.4027(6)
_cell_length_b                   10.4191(6)
_cell_length_c                   10.7784(6)
_cell_angle_alpha                76.963(4)
_cell_angle_beta                 80.402(4)
_cell_angle_gamma                68.227(4)
_cell_volume                     951.295
_exptl_crystal_colour            colorless
_exptl_crystal_description       block
_cell_formula_units_Z            2
loop_
_atom_site_label
_atom_site_type_symbol
_atom_site_fract_x
_atom_site_fract_y
_atom_site_fract_z
O1 O 0.07285(12) 0.67857(10) 0.34344(9)
C1 C 0.09843(16) 0.72615(13) 0.55233(12)
C2 C 0.20777(17) 0.93739(14) 0.39604(13)
H1 H 0.2428 1.0059 0.3441
C3 C 0.16486(17) 0.84905(14) 0.34311(12)
N1 N 0.15743(15) 0.84172(13) 0.21668(10)
O2 O 0.30470(14) 1.09688(11) 0.48888(10)
C4 C 0.14252(16) 0.81605(14) 0.60886(12)
C5 C 0.19723(16) 0.92124(14) 0.52785(12)
O3 O 0.22310(16) 1.03468(12) 0.69063(10)
C6 C 0.11260(17) 0.74931(14) 0.41860(13)
C7 C 0.24172(17) 1.02030(14) 0.58139(14)
C8 C 0.12758(18) 0.79355(16) 0.74499(13)
H2 H 0.1554 0.8490 0.7862
C9 C 0.04338(18) 0.62221(15) 0.62906(14)
H3 H 0.0157 0.5644 0.5908
C10 C 0.0307(2) 0.60639(18) 0.75825(14)
H4 H -0.0064 0.5383 0.8085
C11 C 0.0736(2) 0.69284(18) 0.81606(14)
H5 H 0.0649 0.6810 0.9048
C12 C 0.39151(19) 0.84282(15) 0.07542(12)
C13 C 0.3466(2) 1.20443(16) 0.52275(15)
H6 H 0.4315 1.1619 0.5762
H7 H 0.2600 1.2654 0.5692
O4 O 0.08117(16) 0.69615(14) 0.12832(10)
C14 C 0.2208(2) 0.91435(17) 0.10059(13)
H8 H 0.1998 1.0104 0.1096
H9 H 0.1703 0.9171 0.0281
C15 C 0.1024(2) 0.73770(18) 0.21686(14)
C16 C 0.3926(2) 1.28634(16) 0.39976(15)
H10 H 0.3065 1.3273 0.3476
H11 H 0.4766 1.2229 0.3534
C17 C 0.4420(2) 1.40189(16) 0.42022(15)
H12 H 0.5302 1.3606 0.4701
H13 H 0.3592 1.4637 0.4689
C18 C 0.4951(2) 0.87451(18) 0.12916(14)
H14 H 0.4587 0.9449 0.1784
C19 C 0.4485(2) 0.7393(2) 0.00048(16)
H15 H 0.3812 0.7168 -0.0376
C20 C 0.7056(3) 0.7017(2) 0.03762(18)
H16 H 0.8108 0.6538 0.0251
C21 C 0.6516(2) 0.8042(2) 0.11156(16)
H17 H 0.7196 0.8261 0.1494
C22 C 0.4837(2) 1.48750(19) 0.29552(18)
H18 H 0.5134 1.5598 0.3134
H19 H 0.3964 1.5296 0.2462
H20 H 0.5677 1.4273 0.2480
C23 C 0.6052(3) 0.6695(2) -0.01780(19)
H21 H 0.6427 0.6001 -0.0681
loop_
_geom_bond_atom_site_label_1
_geom_bond_atom_site_label_2
_geom_bond_site_symmetry_1
_geom_bond_site_symmetry_2
O1 C6 1_555 1_555
C1 C4 1_555 1_555
C2 H1 1_555 1_555
C3 C2 1_555 1_555
N1 C3 1_555 1_555
O2 C7 1_555 1_555
C4 C5 1_555 1_555
C5 C2 1_555 1_555
O3 C7 1_555 1_555
C6 C1 1_555 1_555
C7 C5 1_555 1_555
C8 C4 1_555 1_555
H2 C8 1_555 1_555
C9 C1 1_555 1_555
H3 C9 1_555 1_555
C10 C9 1_555 1_555
H4 C10 1_555 1_555
C11 C8 1_555 1_555
H5 C11 1_555 1_555
C12 C14 1_555 1_555
C13 O2 1_555 1_555
H6 C13 1_555 1_555
H7 C13 1_555 1_555
O4 C15 1_555 1_555
C14 N1 1_555 1_555
H8 C14 1_555 1_555
H9 C14 1_555 1_555
C15 O1 1_555 1_555
C16 C13 1_555 1_555
H10 C16 1_555 1_555
H11 C16 1_555 1_555
C17 C16 1_555 1_555
H12 C17 1_555 1_555
H13 C17 1_555 1_555
C18 C12 1_555 1_555
H14 C18 1_555 1_555
C19 C12 1_555 1_555
H15 C19 1_555 1_555
C20 H16 1_555 1_555
C21 C18 1_555 1_555
H17 C21 1_555 1_555
C22 C17 1_555 1_555
H18 C22 1_555 1_555
H19 C22 1_555 1_555
H20 C22 1_555 1_555
C23 C19 1_555 1_555
H21 C23 1_555 1_555
C3 C6 1_555 1_555
N1 C15 1_555 1_555
C10 C11 1_555 1_555
C20 C21 1_555 1_555
C20 C23 1_555 1_555

#END
