
#######################################################################
#
#                 Cambridge Crystallographic Data Centre
#                                CCDC 
#
#######################################################################
#
# If this CIF has been generated from an entry in the Cambridge 
# Structural Database, then it will include bibliographic, chemical, 
# crystal, experimental, refinement or atomic coordinate data resulting 
# from the CCDC's data processing and validation procedures.
#
#######################################################################

data_HISNEE
_chemical_formula_moiety         'C23 H23 N1 O4'
_chemical_name_systematic        
'Butyl 3-(3-benzyl-2-oxo-5-phenyl-2,3-dihydro-1,3-oxazol-4-yl)acrylate'
_symmetry_cell_setting           orthorhombic
_symmetry_space_group_name_H-M   'P 21 21 21'
_symmetry_Int_Tables_number      19
_space_group_name_Hall           'P 2ac 2ab'
loop_
_symmetry_equiv_pos_site_id
_symmetry_equiv_pos_as_xyz
1 x,y,z
2 1/2-x,-y,1/2+z
3 -x,1/2+y,1/2-z
4 1/2+x,1/2-y,-z
_cell_length_a                   5.9205(6)
_cell_length_b                   11.3365(13)
_cell_length_c                   29.609(3)
_cell_angle_alpha                90
_cell_angle_beta                 90
_cell_angle_gamma                90
_cell_volume                     1987.29
_exptl_crystal_colour            colorless
_exptl_crystal_description       block
_cell_formula_units_Z            4
loop_
_atom_site_label
_atom_site_type_symbol
_atom_site_fract_x
_atom_site_fract_y
_atom_site_fract_z
O1 O 0.4536(3) 0.75591(14) 0.04627(5)
O2 O -0.4638(3) 1.01769(17) 0.16143(5)
C1 C 0.3251(4) 0.7455(2) 0.08521(8)
O3 O 0.4486(3) 0.87625(17) -0.01500(6)
C2 C 0.0938(4) 1.1048(2) 0.04394(7)
N1 N 0.1871(3) 0.89003(16) 0.04327(6)
C3 C 0.1609(4) 0.82897(19) 0.08457(7)
C4 C 0.0504(4) 0.9842(2) 0.02406(8)
H1 H -0.1077 0.9648 0.0283
H2 H 0.0783 0.9876 -0.0082
C5 C -0.0001(4) 0.8542(2) 0.11936(8)
H3 H 0.0173 0.8076 0.1450
C6 C -0.3044(5) 0.9353(2) 0.16330(9)
C7 C 0.3346(5) 1.2446(2) 0.08116(9)
H4 H 0.4688 1.2610 0.0962
C8 C 0.3940(4) 0.6522(2) 0.11598(8)
C9 C -0.7652(4) 1.1294(2) 0.19448(9)
H5 H -0.8523 1.1182 0.1671
H6 H -0.6768 1.2008 0.1909
C10 C -0.1681(4) 0.9302(2) 0.12234(8)
H7 H -0.1995 0.9806 0.0983
C11 C 0.6687(5) 0.5075(2) 0.13850(9)
H8 H 0.8085 0.4718 0.1342
C12 C -0.0637(5) 1.1932(2) 0.03862(8)
H9 H -0.2007 1.1770 0.0246
C13 C -0.6098(5) 1.0279(3) 0.20032(9)
H10 H -0.5193 1.0391 0.2273
H11 H -0.6965 0.9559 0.2039
C14 C 0.6040(4) 0.5986(2) 0.11036(9)
H12 H 0.7007 0.6242 0.0876
C15 C 0.5316(5) 0.4686(2) 0.17263(9)
H13 H 0.5787 0.4086 0.1919
C16 C -0.0195(6) 1.3057(2) 0.05399(9)
H14 H -0.1263 1.3649 0.0500
C17 C 0.2949(5) 1.1327(2) 0.06525(8)
H15 H 0.4048 1.0748 0.0688
C18 C 0.3675(4) 0.8463(2) 0.02059(9)
C19 C 0.2541(5) 0.6090(2) 0.15002(9)
H16 H 0.1110 0.6413 0.1539
O4 O -0.2777(5) 0.8751(2) 0.19562(7)
C20 C 0.1802(6) 1.3310(2) 0.07512(9)
H17 H 0.2096 1.4071 0.0853
C21 C 0.3234(6) 0.5198(2) 0.17791(10)
H18 H 0.2281 0.4936 0.2008
C22 C -0.9233(6) 1.1448(3) 0.23316(10)
H19 H -0.8358 1.1619 0.2601
H20 H -1.0022 1.0710 0.2382
C23 C -1.0943(6) 1.2408(3) 0.22676(12)
H21 H -1.1896 1.2453 0.2529
H22 H -1.1847 1.2239 0.2006
H23 H -1.0182 1.3148 0.2226
loop_
_geom_bond_atom_site_label_1
_geom_bond_atom_site_label_2
_geom_bond_site_symmetry_1
_geom_bond_site_symmetry_2
O1 C1 1_555 1_555
O2 C6 1_555 1_555
C1 C3 1_555 1_555
O3 C18 1_555 1_555
C2 C4 1_555 1_555
N1 C3 1_555 1_555
C3 C5 1_555 1_555
C4 N1 1_555 1_555
H1 C4 1_555 1_555
H2 C4 1_555 1_555
C5 H3 1_555 1_555
C6 C10 1_555 1_555
C7 H4 1_555 1_555
C8 C1 1_555 1_555
C9 H5 1_555 1_555
H6 C9 1_555 1_555
C10 C5 1_555 1_555
H7 C10 1_555 1_555
C11 H8 1_555 1_555
C12 C2 1_555 1_555
H9 C12 1_555 1_555
C13 O2 1_555 1_555
H10 C13 1_555 1_555
H11 C13 1_555 1_555
C14 C8 1_555 1_555
H12 C14 1_555 1_555
C15 C11 1_555 1_555
H13 C15 1_555 1_555
C16 C12 1_555 1_555
H14 C16 1_555 1_555
C17 C2 1_555 1_555
H15 C17 1_555 1_555
C18 O1 1_555 1_555
C19 C8 1_555 1_555
H16 C19 1_555 1_555
O4 C6 1_555 1_555
C20 C7 1_555 1_555
H17 C20 1_555 1_555
C21 C15 1_555 1_555
H18 C21 1_555 1_555
C22 C9 1_555 1_555
H19 C22 1_555 1_555
H20 C22 1_555 1_555
C23 C22 1_555 1_555
H21 C23 1_555 1_555
H22 C23 1_555 1_555
H23 C23 1_555 1_555
N1 C18 1_555 1_555
C7 C17 1_555 1_555
C9 C13 1_555 1_555
C11 C14 1_555 1_555
C16 C20 1_555 1_555
C19 C21 1_555 1_555

#END
