
#######################################################################
#
#                 Cambridge Crystallographic Data Centre
#                                CCDC 
#
#######################################################################
#
# If this CIF has been generated from an entry in the Cambridge 
# Structural Database, then it will include bibliographic, chemical, 
# crystal, experimental, refinement or atomic coordinate data resulting 
# from the CCDC's data processing and validation procedures.
#
#######################################################################

data_HISPEF
_chemical_formula_moiety         'C9 H10 N4 S1'
_chemical_name_systematic        3-(p-Tolyl)-4-amino-1,2,4-triazole-5-thione
_symmetry_cell_setting           triclinic
_symmetry_space_group_name_H-M   'P -1'
_symmetry_Int_Tables_number      2
_space_group_name_Hall           '-P 1'
loop_
_symmetry_equiv_pos_site_id
_symmetry_equiv_pos_as_xyz
1 x,y,z
2 -x,-y,-z
_cell_length_a                   6.0200(12)
_cell_length_b                   7.6470(15)
_cell_length_c                   11.174(2)
_cell_angle_alpha                73.15(3)
_cell_angle_beta                 89.67(3)
_cell_angle_gamma                87.83(3)
_cell_volume                     491.95
_chemical_melting_point          '218-220 deg.C'
_cell_formula_units_Z            2
_exptl_crystal_recrystallization_method ethanol
loop_
_atom_site_label
_atom_site_type_symbol
_atom_site_fract_x
_atom_site_fract_y
_atom_site_fract_z
S1 S 0.19045(8) 0.17536(7) 0.41751(4)
N1 N 0.6854(3) 0.1204(2) 0.20131(14)
N2 N 0.5872(3) 0.1043(3) 0.31544(15)
N3 N 0.3427(2) 0.23626(19) 0.17957(13)
N4 N 0.1449(3) 0.3260(3) 0.12323(16)
C1 C 0.7222(5) 0.3276(4) -0.4088(2)
C2 C 0.6666(3) 0.2969(3) -0.27268(17)
C3 C 0.4677(4) 0.3610(3) -0.23468(19)
C4 C 0.4176(3) 0.3344(3) -0.10883(19)
C5 C 0.5681(3) 0.2394(2) -0.01663(16)
C6 C 0.7682(3) 0.1734(3) -0.05454(19)
C7 C 0.8159(4) 0.2025(3) -0.18009(19)
C8 C 0.5321(3) 0.2015(2) 0.11871(16)
C9 C 0.3781(3) 0.1710(3) 0.30646(17)
H1 H 0.033(4) 0.265(4) 0.164(3)
H2 H 0.281(4) 0.379(3) -0.088(2)
H3 H 0.871(4) 0.103(3) 0.010(2)
H4 H 0.949(4) 0.155(3) -0.201(3)
H5 H 0.657(4) 0.048(3) 0.383(3)
H6 H 0.375(4) 0.425(4) -0.292(3)
H7 H 0.581(7) 0.310(6) -0.464(4)
H8 H 0.134(5) 0.430(5) 0.149(3)
H9 H 0.816(6) 0.245(5) -0.419(4)
H10 H 0.765(7) 0.450(6) -0.445(4)
loop_
_geom_bond_atom_site_label_1
_geom_bond_atom_site_label_2
_geom_bond_site_symmetry_1
_geom_bond_site_symmetry_2
S1 C9 1_555 1_555
N1 N2 1_555 1_555
N2 C9 1_555 1_555
N3 N4 1_555 1_555
N4 H1 1_555 1_555
C1 C2 1_555 1_555
C2 C3 1_555 1_555
C3 C4 1_555 1_555
C4 C5 1_555 1_555
C5 C6 1_555 1_555
C6 C7 1_555 1_555
C7 C2 1_555 1_555
C8 N1 1_555 1_555
C9 N3 1_555 1_555
H2 C4 1_555 1_555
H3 C6 1_555 1_555
H4 C7 1_555 1_555
H5 N2 1_555 1_555
H6 C3 1_555 1_555
H7 C1 1_555 1_555
H8 N4 1_555 1_555
H9 C1 1_555 1_555
H10 C1 1_555 1_555
N3 C8 1_555 1_555
C5 C8 1_555 1_555

#END
