
#######################################################################
#
#                 Cambridge Crystallographic Data Centre
#                                CCDC 
#
#######################################################################
#
# If this CIF has been generated from an entry in the Cambridge 
# Structural Database, then it will include bibliographic, chemical, 
# crystal, experimental, refinement or atomic coordinate data resulting 
# from the CCDC's data processing and validation procedures.
#
#######################################################################

data_HISRIM
_chemical_formula_moiety         'C16 H10 O8,2(C12 H8 N2),2(H2 O1)'
_chemical_name_systematic        
"Biphenyl-2,2',6,6'-tetracarboxylic acid bis(phenazine) dihydrate"
_symmetry_cell_setting           monoclinic
_symmetry_space_group_name_H-M   'C 2/c'
_symmetry_Int_Tables_number      15
_space_group_name_Hall           '-C 2yn'
loop_
_symmetry_equiv_pos_site_id
_symmetry_equiv_pos_as_xyz
1 x,y,z
2 -x,y,1/2-z
3 1/2+x,1/2+y,z
4 1/2-x,1/2+y,1/2-z
5 -x,-y,-z
6 x,-y,1/2+z
7 1/2-x,1/2-y,-z
8 1/2+x,1/2-y,1/2+z
_cell_length_a                   10.4971(9)
_cell_length_b                   13.7812(11)
_cell_length_c                   23.5733(18)
_cell_angle_alpha                90
_cell_angle_beta                 95.480(2)
_cell_angle_gamma                90
_cell_volume                     3394.59
_exptl_crystal_colour            'light green'
_exptl_crystal_description       needle
_cell_formula_units_Z            4
loop_
_atom_site_label
_atom_site_type_symbol
_atom_site_fract_x
_atom_site_fract_y
_atom_site_fract_z
O1 O 0.50102(18) 0.07430(17) 0.67157(9)
H1 H 0.559(2) 0.0650(15) 0.6913(10)
H2 H 0.511(2) 0.0577(14) 0.6396(10)
O2 O 0.28408(14) 0.15534(11) 0.68330(6)
H3 H 0.360(2) 0.1282(15) 0.6822(8)
O3 O 0.27186(14) 0.05409(13) 0.75517(7)
C1 C 0.0000 0.12147(17) 0.7500
C2 C 0.10773(16) 0.17404(12) 0.73661(7)
C3 C 0.10585(19) 0.27447(14) 0.73552(7)
H4 H 0.1765 0.3083 0.7249
C4 C 0.0000 0.3248(2) 0.7500
H5 H 0.0000 0.3923 0.7500
C5 C 0.22835(17) 0.12134(14) 0.72626(8)
O4 O -0.08051(17) 0.09602(11) 0.63881(6)
H6 H -0.1202(19) 0.1151(15) 0.6052(9)
O5 O -0.1336(3) -0.04661(13) 0.60548(7)
C6 C 0.0000 0.01269(17) 0.7500
C7 C -0.04045(15) -0.03997(13) 0.70040(7)
C8 C -0.03934(18) -0.14104(14) 0.70128(8)
H7 H -0.0658 -0.1751 0.6682
C9 C 0.0000 -0.1912(2) 0.7500
H8 H 0.0000 -0.2586 0.7500
C10 C -0.09088(18) 0.00342(14) 0.64420(8)
O2A O -0.28408(14) 0.15534(11) 0.81670(6)
H3A H -0.360(2) 0.1282(15) 0.8178(8)
O3A O -0.27186(14) 0.05409(13) 0.74483(7)
C2A C -0.10773(16) 0.17404(12) 0.76339(7)
C3A C -0.10585(19) 0.27447(14) 0.76448(7)
H4A H -0.1765 0.3083 0.7751
C5A C -0.22835(17) 0.12134(14) 0.77374(8)
O4A O 0.08051(17) 0.09602(11) 0.86119(6)
H6A H 0.1202(19) 0.1151(15) 0.8948(9)
O5A O 0.1336(3) -0.04661(13) 0.89452(7)
C7A C 0.04045(15) -0.03997(13) 0.79960(7)
C8A C 0.03934(18) -0.14104(14) 0.79872(8)
H7A H 0.0658 -0.1751 0.8318
C10A C 0.09088(18) 0.00342(14) 0.85580(8)
N1 N 0.52071(15) 0.02384(13) 0.55801(7)
C11 C 0.47795(18) 0.09064(15) 0.51923(9)
C12 C 0.4527(2) 0.18665(17) 0.53620(11)
H9 H 0.4665 0.2037 0.5745
C13 C 0.54369(17) -0.06624(15) 0.53999(9)
C14 C 0.5890(2) -0.13912(18) 0.57916(10)
H10 H 0.6031 -0.1244 0.6178
C15 C 0.6117(2) -0.22959(19) 0.56096(13)
H11 H 0.6414 -0.2767 0.5872
C16 C 0.4088(2) 0.25382(19) 0.49742(13)
H12 H 0.3920 0.3165 0.5092
N1D N 0.47929(15) -0.02384(13) 0.44199(7)
C11D C 0.52205(18) -0.09064(15) 0.48077(9)
C12D C 0.5473(2) -0.18665(17) 0.46380(11)
H9D H 0.5335 -0.2037 0.4255
C13D C 0.45631(17) 0.06624(15) 0.46001(9)
C14D C 0.4110(2) 0.13912(18) 0.42084(10)
H10D H 0.3969 0.1244 0.3822
C15D C 0.3883(2) 0.22959(19) 0.43904(13)
H11D H 0.3586 0.2767 0.4128
C16D C 0.5912(2) -0.25382(19) 0.50258(13)
H12D H 0.6080 -0.3165 0.4908
N2 N -0.20384(14) 0.18691(11) 0.54429(6)
C17 C -0.23531(16) 0.27875(13) 0.55504(7)
C18 C -0.2231(2) 0.31391(15) 0.61210(8)
H13 H -0.1934 0.2729 0.6418
C19 C -0.2544(2) 0.40629(16) 0.62324(8)
H14 H -0.2457 0.4285 0.6607
C20 C -0.21775(16) 0.15653(13) 0.48974(7)
C21 C -0.1861(2) 0.05985(14) 0.47610(8)
H15 H -0.1559 0.0170 0.5048
C22 C -0.1999(2) 0.03016(16) 0.42102(9)
H16 H -0.1789 -0.0333 0.4123
N2F N -0.29616(14) 0.31309(11) 0.45571(6)
C17F C -0.26469(16) 0.22125(13) 0.44496(7)
C18F C -0.2769(2) 0.18609(15) 0.38790(8)
H13F H -0.3066 0.2271 0.3582
C19F C -0.2456(2) 0.09371(16) 0.37676(8)
H14F H -0.2543 0.0715 0.3393
C20F C -0.28225(16) 0.34347(13) 0.51026(7)
C21F C -0.3139(2) 0.44015(14) 0.52390(8)
H15F H -0.3441 0.4830 0.4952
C22F C -0.3001(2) 0.46984(16) 0.57898(9)
H16F H -0.3211 0.5333 0.5877
loop_
_geom_bond_atom_site_label_1
_geom_bond_atom_site_label_2
_geom_bond_site_symmetry_1
_geom_bond_site_symmetry_2
O1 H1 1_555 1_555
H2 O1 1_555 1_555
O2 H3 1_555 1_555
O3 C5 1_555 1_555
C1 C2 1_555 1_555
C2 C3 1_555 1_555
C3 H4 1_555 1_555
C4 C3 1_555 1_555
H5 C4 1_555 1_555
C5 O2 1_555 1_555
O4 H6 1_555 1_555
O5 C10 1_555 1_555
C6 C1 1_555 1_555
C7 C6 1_555 1_555
C8 C7 1_555 1_555
H7 C8 1_555 1_555
C9 C8 1_555 1_555
H8 C9 1_555 1_555
C10 O4 1_555 1_555
N1 C11 1_555 1_555
C11 C12 1_555 1_555
C12 H9 1_555 1_555
C13 N1 1_555 1_555
C14 C13 1_555 1_555
H10 C14 1_555 1_555
C15 C14 1_555 1_555
H11 C15 1_555 1_555
C16 C12 1_555 1_555
H12 C16 1_555 1_555
N2 C17 1_555 1_555
C17 C18 1_555 1_555
C18 H13 1_555 1_555
C19 C18 1_555 1_555
H14 C19 1_555 1_555
C20 N2 1_555 1_555
C21 C20 1_555 1_555
H15 C21 1_555 1_555
C22 C21 1_555 1_555
H16 C22 1_555 1_555
O2A H3A 1_555 1_555
O3A C5A 1_555 1_555
C2A C1 1_555 1_555
C3A C4 1_555 1_555
H4A C3A 1_555 1_555
C5A O2A 1_555 1_555
O4A H6A 1_555 1_555
O5A C10A 1_555 1_555
C7A C6 1_555 1_555
C8A C9 1_555 1_555
H7A C8A 1_555 1_555
C10A O4A 1_555 1_555
N1D C11D 1_555 1_555
C11D C13 1_555 1_555
C12D C11D 1_555 1_555
H9D C12D 1_555 1_555
C13D C11 1_555 1_555
C14D C13D 1_555 1_555
H10D C14D 1_555 1_555
C15D C16 1_555 1_555
H11D C15D 1_555 1_555
C16D C15 1_555 1_555
H12D C16D 1_555 1_555
N2F C17F 1_555 1_555
C17F C20 1_555 1_555
C18F C17F 1_555 1_555
H13F C18F 1_555 1_555
C19F C22 1_555 1_555
H14F C19F 1_555 1_555
C20F C17 1_555 1_555
C21F C20F 1_555 1_555
H15F C21F 1_555 1_555
C22F C19 1_555 1_555
H16F C22F 1_555 1_555
C2 C5 1_555 1_555
C7 C10 1_555 1_555
C2A C3A 1_555 1_555
C2A C5A 1_555 1_555
C7A C8A 1_555 1_555
C7A C10A 1_555 1_555
N1D C13D 1_555 1_555
C12D C16D 1_555 1_555
C14D C15D 1_555 1_555
N2F C20F 1_555 1_555
C18F C19F 1_555 1_555
C21F C22F 1_555 1_555

#END
