
#######################################################################
#
#                 Cambridge Crystallographic Data Centre
#                                CCDC 
#
#######################################################################
#
# If this CIF has been generated from an entry in the Cambridge 
# Structural Database, then it will include bibliographic, chemical, 
# crystal, experimental, refinement or atomic coordinate data resulting 
# from the CCDC's data processing and validation procedures.
#
#######################################################################

data_HISRAE
_chemical_formula_moiety         '2(C16 H9 O8 1-),C12 H14 N2 2+'
_chemical_name_systematic        
"4,4'-ethane-1,2-diyldipyridinium bis(2',6,6'-tricarboxybiphenyl-2-carboxylate)"
_symmetry_cell_setting           triclinic
_symmetry_space_group_name_H-M   'P -1'
_symmetry_Int_Tables_number      2
_space_group_name_Hall           '-P 1'
loop_
_symmetry_equiv_pos_site_id
_symmetry_equiv_pos_as_xyz
1 x,y,z
2 -x,-y,-z
_cell_length_a                   7.846(4)
_cell_length_b                   10.808(5)
_cell_length_c                   12.352(6)
_cell_angle_alpha                64.333(13)
_cell_angle_beta                 83.011(15)
_cell_angle_gamma                79.355(14)
_cell_volume                     926.815
_exptl_crystal_colour            colorless
_exptl_crystal_description       needle-like
_cell_formula_units_Z            1
loop_
_atom_site_label
_atom_site_type_symbol
_atom_site_fract_x
_atom_site_fract_y
_atom_site_fract_z
O1 O 0.9596(5) 0.0969(4) 0.3577(5)
O2 O 0.8706(4) -0.0896(3) 0.3729(3)
H1 H 0.983(6) -0.128(4) 0.390(4)
O3 O 0.3847(4) 0.4897(3) 0.3658(3)
O4 O 0.3478(4) 0.5395(3) 0.1748(3)
C1 C 0.6101(5) 0.2450(4) 0.3239(3)
C2 C 0.6578(6) 0.1034(4) 0.3488(3)
C3 C 0.5304(6) 0.0244(5) 0.3587(3)
H2 H 0.5622 -0.0689 0.3748
C4 C 0.3591(6) 0.0818(4) 0.3452(4)
H3 H 0.2754 0.0270 0.3540
C5 C 0.3105(6) 0.2217(4) 0.3183(4)
H4 H 0.1946 0.2614 0.3067
C6 C 0.4346(6) 0.3018(4) 0.3088(3)
C7 C 0.8440(6) 0.0403(5) 0.3599(4)
C8 C 0.3850(5) 0.4543(5) 0.2802(5)
O5 O 0.7909(4) 0.2078(3) 0.6165(3)
O6 O 0.5307(4) 0.3035(3) 0.5480(3)
H5 H 0.464(5) 0.382(4) 0.469(4)
O7 O 0.7488(6) 0.2939(4) 0.0889(3)
O8 O 0.7395(5) 0.5212(3) -0.0078(3)
H6 H 0.672(6) 0.510(5) -0.052(4)
C9 C 0.7365(5) 0.3395(4) 0.3110(4)
C10 C 0.7758(5) 0.3595(4) 0.4085(4)
C11 C 0.8832(6) 0.4533(5) 0.3938(4)
H7 H 0.9115 0.4630 0.4604
C12 C 0.9503(6) 0.5344(5) 0.2793(5)
H8 H 1.0233 0.5976 0.2694
C13 C 0.9067(6) 0.5192(5) 0.1822(4)
H9 H 0.9467 0.5758 0.1057
C14 C 0.8037(5) 0.4207(4) 0.1952(4)
C15 C 0.6991(6) 0.2826(4) 0.5337(4)
C16 C 0.7632(6) 0.4030(5) 0.0883(4)
N1 N 0.5397(5) 0.7589(4) 0.0845(4)
H10 H 0.459(6) 0.702(5) 0.095(4)
C17 C 0.5998(7) 0.8152(5) -0.0307(5)
H11 H 0.5599 0.7949 -0.0882
C18 C 0.7201(7) 0.9023(5) -0.0616(5)
H12 H 0.7639 0.9398 -0.1408
C19 C 0.7787(6) 0.9366(5) 0.0212(5)
C20 C 0.7112(7) 0.8741(6) 0.1386(5)
H13 H 0.7476 0.8930 0.1980
C21 C 0.5932(7) 0.7861(6) 0.1678(5)
H14 H 0.5499 0.7449 0.2468
C22 C 0.9077(7) 1.0360(5) -0.0134(5)
H15 H 0.8758 1.0943 0.0296
H16 H 0.9021 1.0957 -0.0988
N1A N 1.4603(5) 1.2411(4) -0.0845(4)
H10A H 1.541(6) 1.298(5) -0.095(4)
C17A C 1.4002(7) 1.1848(5) 0.0307(5)
H11A H 1.4401 1.2051 0.0882
C18A C 1.2799(7) 1.0977(5) 0.0616(5)
H12A H 1.2361 1.0602 0.1408
C19A C 1.2213(6) 1.0634(5) -0.0212(5)
C20A C 1.2888(7) 1.1259(6) -0.1386(5)
H13A H 1.2524 1.1070 -0.1980
C21A C 1.4068(7) 1.2139(6) -0.1678(5)
H14A H 1.4501 1.2551 -0.2468
C22A C 1.0923(7) 0.9640(5) 0.0134(5)
H15A H 1.1242 0.9057 -0.0296
H16A H 1.0979 0.9043 0.0988
loop_
_geom_bond_atom_site_label_1
_geom_bond_atom_site_label_2
_geom_bond_site_symmetry_1
_geom_bond_site_symmetry_2
O1 C7 1_555 1_555
O2 H1 1_555 1_555
O3 C8 1_555 1_555
O4 C8 1_555 1_555
C1 C2 1_555 1_555
C2 C3 1_555 1_555
C3 H2 1_555 1_555
C4 C3 1_555 1_555
H3 C4 1_555 1_555
C5 C4 1_555 1_555
H4 C5 1_555 1_555
C6 C1 1_555 1_555
C7 O2 1_555 1_555
C8 C6 1_555 1_555
O5 C15 1_555 1_555
O6 H5 1_555 1_555
O7 C16 1_555 1_555
O8 H6 1_555 1_555
C9 C1 1_555 1_555
C10 C9 1_555 1_555
C11 C10 1_555 1_555
H7 C11 1_555 1_555
C12 C11 1_555 1_555
H8 C12 1_555 1_555
C13 C12 1_555 1_555
H9 C13 1_555 1_555
C14 C9 1_555 1_555
C15 O6 1_555 1_555
C16 O8 1_555 1_555
N1 H10 1_555 1_555
C17 N1 1_555 1_555
H11 C17 1_555 1_555
C18 C17 1_555 1_555
H12 C18 1_555 1_555
C19 C18 1_555 1_555
C20 C19 1_555 1_555
H13 C20 1_555 1_555
C21 N1 1_555 1_555
H14 C21 1_555 1_555
C22 C19 1_555 1_555
H15 C22 1_555 1_555
H16 C22 1_555 1_555
N1A H10A 1_555 1_555
C17A N1A 1_555 1_555
H11A C17A 1_555 1_555
C18A C17A 1_555 1_555
H12A C18A 1_555 1_555
C19A C18A 1_555 1_555
C20A C19A 1_555 1_555
H13A C20A 1_555 1_555
C21A N1A 1_555 1_555
H14A C21A 1_555 1_555
C22A C22 1_555 1_555
H15A C22A 1_555 1_555
H16A C22A 1_555 1_555
C2 C7 1_555 1_555
C5 C6 1_555 1_555
C10 C15 1_555 1_555
C13 C14 1_555 1_555
C14 C16 1_555 1_555
C20 C21 1_555 1_555
C19A C22A 1_555 1_555
C20A C21A 1_555 1_555

#END
