
#######################################################################
#
#                 Cambridge Crystallographic Data Centre
#                                CCDC 
#
#######################################################################
#
# If this CIF has been generated from an entry in the Cambridge 
# Structural Database, then it will include bibliographic, chemical, 
# crystal, experimental, refinement or atomic coordinate data resulting 
# from the CCDC's data processing and validation procedures.
#
#######################################################################

data_HISSEH
_chemical_formula_moiety         'C47 H54 O5,C1 H1 Cl3,C1 H4 O1'
_chemical_name_systematic        
'2,17-Di-t-butyl-5,11,23,29-tetramethyl-31,32,33,34,35-pentahydroxycalix(5)arene chloroform clathrate methanol solvate'
_symmetry_cell_setting           triclinic
_symmetry_space_group_name_H-M   'P -1'
_symmetry_Int_Tables_number      2
_space_group_name_Hall           '-P 1'
loop_
_symmetry_equiv_pos_site_id
_symmetry_equiv_pos_as_xyz
1 x,y,z
2 -x,-y,-z
_cell_length_a                   11.408(1)
_cell_length_b                   14.994(1)
_cell_length_c                   15.054(1)
_cell_angle_alpha                83.57(1)
_cell_angle_beta                 79.46(1)
_cell_angle_gamma                67.94(1)
_cell_volume                     2343.58
_exptl_crystal_colour            colorless
_chemical_melting_point          240-242deg.C
_cell_formula_units_Z            2
loop_
_atom_site_label
_atom_site_type_symbol
_atom_site_fract_x
_atom_site_fract_y
_atom_site_fract_z
C48 C 0.5916(11) 0.2764(9) 0.3060(7)
H55 H 0.6743(11) 0.2650(9) 0.2673(7)
Cl1 Cl 0.5408(4) 0.1858(3) 0.2926(3)
Cl2 Cl 0.6133(4) 0.2759(3) 0.4166(3)
Cl3 Cl 0.4852(3) 0.3882(2) 0.2735(3)
O6 O 0.4052(37) 0.0757(19) 0.5611(23)
O7 O 0.3993(24) 0.0064(17) 0.4547(18)
C1 C 0.1588(7) 0.7610(5) 0.3897(5)
C2 C 0.1043(7) 0.7200(5) 0.3377(6)
H1 H 0.0211(7) 0.7227(5) 0.3578(6)
C3 C 0.1676(7) 0.6760(5) 0.2584(5)
C4 C 0.2973(7) 0.6694(4) 0.2320(5)
C5 C 0.3524(6) 0.7123(5) 0.2803(5)
C6 C 0.2824(7) 0.7572(5) 0.3579(6)
H2 H 0.3194(7) 0.7861(5) 0.3903(6)
C7 C 0.1105(6) 0.6319(4) 0.1988(5)
H3 H 0.1573(6) 0.6358(4) 0.1379(5)
C8 C 0.1460(6) 0.5255(5) 0.2212(6)
C9 C 0.1204(7) 0.4892(5) 0.3097(6)
H4 H 0.0844(7) 0.5327(5) 0.3555(6)
C10 C 0.1457(7) 0.3931(5) 0.3325(6)
C11 C 0.1903(7) 0.3296(5) 0.2626(6)
H5 H 0.2017(7) 0.2651(5) 0.2761(6)
C12 C 0.2186(6) 0.3600(5) 0.1728(6)
C13 C 0.2015(7) 0.4568(5) 0.1544(6)
C14 C 0.2566(7) 0.2912(5) 0.0966(5)
H6 H 0.2531(7) 0.3288(5) 0.0396(5)
H7 H 0.1932(7) 0.2615(5) 0.1022(5)
C15 C 0.3873(7) 0.2121(5) 0.0919(5)
C16 C 0.3993(7) 0.1175(5) 0.1160(5)
H8 H 0.3254(7) 0.1045(5) 0.1378(5)
C17 C 0.5156(8) 0.0415(5) 0.1092(6)
C18 C 0.6247(8) 0.0623(5) 0.0735(5)
H9 H 0.7042(8) 0.0126(5) 0.0651(5)
C19 C 0.6154(7) 0.1574(5) 0.0504(5)
C20 C 0.4985(7) 0.2309(5) 0.0606(5)
C21 C 0.7383(7) 0.1776(5) 0.0106(5)
H10 H 0.7985(7) 0.1220(5) -0.0217(5)
H11 H 0.7170(7) 0.2318(5) -0.0329(5)
C22 C 0.8032(7) 0.1993(5) 0.0806(5)
C23 C 0.8786(7) 0.1234(5) 0.1311(5)
H12 H 0.8833(7) 0.0614(5) 0.1235(5)
C24 C 0.9478(7) 0.1363(5) 0.1927(5)
C25 C 0.9414(7) 0.2295(5) 0.1982(5)
H13 H 0.9900(7) 0.2402(5) 0.2362(5)
C26 C 0.8657(7) 0.3081(5) 0.1496(5)
C27 C 0.7940(7) 0.2913(5) 0.0941(5)
C28 C 0.8688(6) 0.4074(4) 0.1577(5)
H14 H 0.9528(6) 0.3994(4) 0.1701(5)
H15 H 0.8581(6) 0.4425(4) 0.0998(5)
C29 C 0.7696(6) 0.4677(5) 0.2295(6)
C30 C 0.7827(7) 0.4462(5) 0.3194(7)
H16 H 0.8494(7) 0.3910(5) 0.3345(7)
C31 C 0.7016(8) 0.5027(6) 0.3880(6)
C32 C 0.6060(7) 0.5867(5) 0.3634(6)
H17 H 0.5518(7) 0.6272(5) 0.4083(6)
C33 C 0.5889(7) 0.6121(5) 0.2739(6)
C34 C 0.6673(7) 0.5479(5) 0.2075(6)
C35 C 0.4898(6) 0.7066(4) 0.2475(6)
H18 H 0.5023(6) 0.7159(4) 0.1821(6)
H19 H 0.5027(6) 0.7587(4) 0.2723(6)
C36 C 0.0870(8) 0.8077(5) 0.4788(5)
H20 H 0.1123(34) 0.7623(12) 0.5284(5)
H21 H -0.0034(8) 0.8268(30) 0.4795(14)
H22 H 0.1071(36) 0.8634(20) 0.4844(16)
C37 C 0.1203(9) 0.3556(6) 0.4299(6)
H23 H 0.1999(11) 0.3256(36) 0.4531(14)
H24 H 0.0802(49) 0.3094(31) 0.4314(8)
H25 H 0.0650(45) 0.4084(9) 0.4664(10)
C38 C 0.5259(9) -0.0617(5) 0.1369(7)
H26 H 0.5371(60) -0.0748(15) 0.1993(14)
H27 H 0.5979(38) -0.1053(5) 0.1001(29)
H28 H 0.4491(27) -0.0700(14) 0.1289(41)
C39 C 1.0225(8) 0.0496(5) 0.2508(6)
C40 C 0.9259(8) 0.0134(6) 0.3132(6)
H29 H 0.8662(33) 0.0646(13) 0.3498(27)
H30 H 0.9704(10) -0.0395(27) 0.3515(26)
H31 H 0.8806(37) -0.0076(37) 0.2773(6)
C41 C 1.1136(8) -0.0297(5) 0.1891(6)
H32 H 1.0650(8) -0.0523(27) 0.1574(27)
H33 H 1.1647(35) -0.0821(17) 0.2247(7)
H34 H 1.1683(35) -0.0047(11) 0.1462(24)
C42 C 1.1004(8) 0.0760(5) 0.3102(6)
H35 H 1.0434(9) 0.1245(27) 0.3507(24)
H36 H 1.1603(34) 0.1002(34) 0.2723(6)
H37 H 1.1459(39) 0.0197(10) 0.3446(26)
C43 C 0.7135(9) 0.4768(6) 0.4859(6)
H38 H 0.7186(55) 0.5297(16) 0.5134(11)
H39 H 0.7895(30) 0.4210(25) 0.4910(6)
H40 H 0.6401(27) 0.4630(40) 0.5161(10)
C44 C -0.0348(7) 0.6856(5) 0.1877(6)
C45 C -0.0579(7) 0.7938(5) 0.1637(7)
H41 H 0.0061(33) 0.7994(5) 0.1147(25)
H42 H -0.0530(52) 0.8234(10) 0.2156(13)
H43 H -0.1412(23) 0.8254(10) 0.1462(36)
C46 C -0.1311(7) 0.6764(6) 0.2671(6)
H44 H -0.1221(33) 0.7048(34) 0.3183(11)
H45 H -0.1171(33) 0.6095(6) 0.2814(23)
H46 H -0.2159(8) 0.7089(32) 0.2523(13)
C47 C -0.0579(7) 0.6452(5) 0.1073(6)
H47 H 0.0017(32) 0.6509(33) 0.0551(10)
H48 H -0.1437(17) 0.6806(24) 0.0956(22)
H49 H -0.0465(47) 0.5786(11) 0.1204(14)
H50 H 0.4597 0.5828 0.1706
H51 H 0.2527 0.5472 0.0443
H52 H 0.3773 0.3685 0.0430
H53 H 0.6397 0.3593 0.0565
H54 H 0.6849 0.5135 0.1035
O1 O 0.3619(4) 0.6210(3) 0.1543(3)
O2 O 0.2417(5) 0.4825(3) 0.0667(4)
O3 O 0.4952(5) 0.3241(3) 0.0386(4)
O4 O 0.7124(5) 0.3704(3) 0.0491(4)
O5 O 0.6411(5) 0.5702(4) 0.1209(4)
loop_
_geom_bond_atom_site_label_1
_geom_bond_atom_site_label_2
_geom_bond_site_symmetry_1
_geom_bond_site_symmetry_2
C1 C2 1_555 1_555
C2 H1 1_555 1_555
C3 C2 1_555 1_555
C4 C3 1_555 1_555
C5 C4 1_555 1_555
C6 C1 1_555 1_555
H2 C6 1_555 1_555
C7 C3 1_555 1_555
H3 C7 1_555 1_555
C8 C7 1_555 1_555
C9 C8 1_555 1_555
H4 C9 1_555 1_555
C10 C9 1_555 1_555
C11 C10 1_555 1_555
H5 C11 1_555 1_555
C12 C11 1_555 1_555
C13 C8 1_555 1_555
C14 C12 1_555 1_555
H6 C14 1_555 1_555
H7 C14 1_555 1_555
C15 C14 1_555 1_555
C16 C15 1_555 1_555
H8 C16 1_555 1_555
C17 C16 1_555 1_555
C18 C17 1_555 1_555
H9 C18 1_555 1_555
C19 C18 1_555 1_555
C20 C15 1_555 1_555
C21 C19 1_555 1_555
H10 C21 1_555 1_555
H11 C21 1_555 1_555
C22 C21 1_555 1_555
C23 C22 1_555 1_555
H12 C23 1_555 1_555
C24 C23 1_555 1_555
C25 C24 1_555 1_555
H13 C25 1_555 1_555
C26 C25 1_555 1_555
C27 C22 1_555 1_555
C28 C26 1_555 1_555
H14 C28 1_555 1_555
H15 C28 1_555 1_555
C29 C28 1_555 1_555
C30 C29 1_555 1_555
H16 C30 1_555 1_555
C31 C30 1_555 1_555
C32 C31 1_555 1_555
H17 C32 1_555 1_555
C33 C32 1_555 1_555
C34 C29 1_555 1_555
C35 C5 1_555 1_555
H18 C35 1_555 1_555
H19 C35 1_555 1_555
C36 C1 1_555 1_555
H20 C36 1_555 1_555
H21 C36 1_555 1_555
H22 C36 1_555 1_555
C37 C10 1_555 1_555
H23 C37 1_555 1_555
H24 C37 1_555 1_555
H25 C37 1_555 1_555
C38 C17 1_555 1_555
H26 C38 1_555 1_555
H27 C38 1_555 1_555
H28 C38 1_555 1_555
C39 C24 1_555 1_555
C40 C39 1_555 1_555
H29 C40 1_555 1_555
H30 C40 1_555 1_555
H31 C40 1_555 1_555
C41 C39 1_555 1_555
H32 C41 1_555 1_555
H33 C41 1_555 1_555
H34 C41 1_555 1_555
C42 C39 1_555 1_555
H35 C42 1_555 1_555
H36 C42 1_555 1_555
H37 C42 1_555 1_555
C43 C31 1_555 1_555
H38 C43 1_555 1_555
H39 C43 1_555 1_555
H40 C43 1_555 1_555
C44 C7 1_555 1_555
C45 C44 1_555 1_555
H41 C45 1_555 1_555
H42 C45 1_555 1_555
H43 C45 1_555 1_555
C46 C44 1_555 1_555
H44 C46 1_555 1_555
H45 C46 1_555 1_555
H46 C46 1_555 1_555
C47 C44 1_555 1_555
H47 C47 1_555 1_555
H48 C47 1_555 1_555
H49 C47 1_555 1_555
H50 O1 1_555 1_555
H51 O2 1_555 1_555
H52 O3 1_555 1_555
H53 O4 1_555 1_555
H54 O5 1_555 1_555
O1 C4 1_555 1_555
O2 C13 1_555 1_555
O3 C20 1_555 1_555
O4 C27 1_555 1_555
O5 C34 1_555 1_555
C48 H55 1_555 1_555
Cl1 C48 1_555 1_555
Cl2 C48 1_555 1_555
Cl3 C48 1_555 1_555
C5 C6 1_555 1_555
C12 C13 1_555 1_555
C19 C20 1_555 1_555
C26 C27 1_555 1_555
C33 C35 1_555 1_555
C33 C34 1_555 1_555

#END
