
#######################################################################
#
#                 Cambridge Crystallographic Data Centre
#                                CCDC 
#
#######################################################################
#
# If this CIF has been generated from an entry in the Cambridge 
# Structural Database, then it will include bibliographic, chemical, 
# crystal, experimental, refinement or atomic coordinate data resulting 
# from the CCDC's data processing and validation procedures.
#
#######################################################################

data_HITJAX
_chemical_formula_moiety         'C19 H16 N2 O1'
_chemical_name_systematic        
13b-Methyl-7,8,13,13b-tetrahydro-5H-benzo[1,2]indolizino[8,7-b]indol-5-one
_symmetry_cell_setting           monoclinic
_symmetry_space_group_name_H-M   'P 21/c'
_symmetry_Int_Tables_number      14
_space_group_name_Hall           '-P 2ybc'
loop_
_symmetry_equiv_pos_site_id
_symmetry_equiv_pos_as_xyz
1 x,y,z
2 -x,1/2+y,1/2-z
3 -x,-y,-z
4 x,1/2-y,1/2+z
_cell_length_a                   14.0247(6)
_cell_length_b                   7.4097(3)
_cell_length_c                   14.5049(7)
_cell_angle_alpha                90
_cell_angle_beta                 94.837(3)
_cell_angle_gamma                90
_cell_volume                     1501.96
_exptl_crystal_colour            colorless
_exptl_crystal_description       block
_cell_formula_units_Z            4
loop_
_atom_site_label
_atom_site_type_symbol
_atom_site_fract_x
_atom_site_fract_y
_atom_site_fract_z
O1 O 0.35982(10) 0.31126(19) 1.13157(9)
N1 N 0.25538(9) 0.03499(19) 0.77242(9)
H1 H 0.2932 0.0633 0.7311
N2 N 0.28685(10) 0.3196(2) 0.98378(10)
C1 C 0.04071(14) -0.3383(3) 0.78326(16)
H2 H -0.0085 -0.4208 0.7887
C2 C 0.06964(13) -0.2291(3) 0.85704(16)
H3 H 0.0407 -0.2382 0.9122
C3 C 0.14291(11) -0.1046(2) 0.84824(12)
C4 C 0.18535(12) 0.0356(2) 0.90575(12)
C5 C 0.25295(11) 0.1162(2) 0.85758(11)
C6 C 0.31048(12) 0.2798(2) 0.88799(12)
C7 C 0.41740(12) 0.2490(2) 0.90275(12)
C8 C 0.44678(12) 0.2624(2) 0.99650(12)
C9 C 0.54115(13) 0.2394(2) 1.02953(14)
H4 H 0.5597 0.2455 1.0925
C10 C 0.60698(14) 0.2071(3) 0.96618(15)
H5 H 0.6712 0.1918 0.9864
C11 C 0.08392(14) -0.3271(3) 0.70071(16)
H6 H 0.0622 -0.4009 0.6515
C12 C 0.15787(13) -0.2098(2) 0.69001(14)
H7 H 0.1873 -0.2048 0.6349
C13 C 0.18746(12) -0.0985(2) 0.76441(12)
C14 C 0.15824(13) 0.1044(3) 0.99723(13)
H8 H 0.1897 0.0333 1.0471
H9 H 0.0896 0.0945 1.0003
C15 C 0.18882(13) 0.3006(3) 1.00732(14)
H10 H 0.1470 0.3756 0.9667
H11 H 0.1838 0.3402 1.0705
C16 C 0.28581(14) 0.4401(2) 0.82329(13)
H12 H 0.2184 0.4641 0.8212
H13 H 0.3029 0.4117 0.7622
H14 H 0.3207 0.5447 0.8460
C17 C 0.48394(13) 0.2173(2) 0.83986(14)
H15 H 0.4655 0.2095 0.7769
C18 C 0.57840(15) 0.1973(3) 0.87280(15)
H16 H 0.6241 0.1766 0.8311
C19 C 0.36320(13) 0.3001(2) 1.04738(13)
loop_
_geom_bond_atom_site_label_1
_geom_bond_atom_site_label_2
_geom_bond_site_symmetry_1
_geom_bond_site_symmetry_2
O1 C19 1_555 1_555
N1 H1 1_555 1_555
N2 C6 1_555 1_555
C1 H2 1_555 1_555
C2 C1 1_555 1_555
H3 C2 1_555 1_555
C3 C2 1_555 1_555
C4 C3 1_555 1_555
C5 N1 1_555 1_555
C6 C5 1_555 1_555
C7 C6 1_555 1_555
C8 C7 1_555 1_555
C9 C8 1_555 1_555
H4 C9 1_555 1_555
C10 C9 1_555 1_555
H5 C10 1_555 1_555
C11 C1 1_555 1_555
H6 C11 1_555 1_555
C12 C11 1_555 1_555
H7 C12 1_555 1_555
C13 N1 1_555 1_555
C14 C4 1_555 1_555
H8 C14 1_555 1_555
H9 C14 1_555 1_555
C15 N2 1_555 1_555
H10 C15 1_555 1_555
H11 C15 1_555 1_555
C16 C6 1_555 1_555
H12 C16 1_555 1_555
H13 C16 1_555 1_555
H14 C16 1_555 1_555
C17 C7 1_555 1_555
H15 C17 1_555 1_555
C18 C10 1_555 1_555
H16 C18 1_555 1_555
C19 N2 1_555 1_555
C3 C13 1_555 1_555
C4 C5 1_555 1_555
C8 C19 1_555 1_555
C12 C13 1_555 1_555
C14 C15 1_555 1_555
C17 C18 1_555 1_555

#END
