
#######################################################################
#
#                 Cambridge Crystallographic Data Centre
#                                CCDC 
#
#######################################################################
#
# If this CIF has been generated from an entry in the Cambridge 
# Structural Database, then it will include bibliographic, chemical, 
# crystal, experimental, refinement or atomic coordinate data resulting 
# from the CCDC's data processing and validation procedures.
#
#######################################################################

data_HITTUA
_chemical_formula_moiety         'C26 H38 N2 S4'
_chemical_name_systematic        
bis(N-n-Octylpyrrolo(3,4-d))tetrathiafulvalene
_symmetry_cell_setting           monoclinic
_symmetry_space_group_name_H-M   'P 21/a'
_symmetry_Int_Tables_number      14
_space_group_name_Hall           '-P 2yab'
loop_
_symmetry_equiv_pos_site_id
_symmetry_equiv_pos_as_xyz
1 x,y,z
2 1/2-x,1/2+y,-z
3 -x,-y,-z
4 1/2+x,1/2-y,z
_cell_length_a                   9.929(4)
_cell_length_b                   10.846(5)
_cell_length_c                   12.603(3)
_cell_angle_alpha                90
_cell_angle_beta                 92.511(1)
_cell_angle_gamma                90
_cell_volume                     1355.91
_exptl_crystal_colour            yellow
_exptl_crystal_description       block
_chemical_melting_point          '165.5-166.5 deg.C'
_cell_formula_units_Z            2
_exptl_crystal_recrystallization_method hexane
loop_
_atom_site_label
_atom_site_type_symbol
_atom_site_fract_x
_atom_site_fract_y
_atom_site_fract_z
S1 S 0.15704(3) -0.13865(3) 0.03434(3)
S2 S 0.14658(3) 0.13711(3) 0.06115(3)
N1 N 0.50016(12) -0.00228(10) 0.15069(10)
C1 C 0.06356(14) -0.00052(11) 0.02053(11)
C2 C 0.29707(12) 0.06320(12) 0.09948(10)
C3 C 0.42171(13) 0.10114(13) 0.13884(11)
C4 C 0.42848(13) -0.10474(13) 0.11872(11)
C5 C 0.30156(12) -0.06578(12) 0.08694(10)
C6 C 0.64392(15) -0.00463(13) 0.18258(12)
C7 C 0.67481(16) -0.08558(16) 0.27817(13)
C8 C 0.82532(17) -0.11212(16) 0.29404(15)
C9 C 0.91394(17) -0.00122(14) 0.31858(13)
C10 C 1.06082(16) -0.03513(17) 0.34297(13)
C11 C 1.15097(16) 0.07344(17) 0.37247(13)
C12 C 1.29603(16) 0.03758(19) 0.40044(14)
C13 C 1.3860(2) 0.1471(2) 0.42753(17)
H1 H 0.4495 0.1844 0.1552
H2 H 0.4613 -0.1887 0.1188
H3 H 0.6942 -0.0320 0.1249
H4 H 0.6720 0.0786 0.2001
H5 H 0.6453 -0.0464 0.3408
H6 H 0.6279 -0.1619 0.2689
H7 H 0.8373 -0.1705 0.3498
H8 H 0.8541 -0.1486 0.2294
H9 H 0.9094 0.0547 0.2603
H10 H 0.8808 0.0406 0.3797
H11 H 1.0641 -0.0943 0.4001
H12 H 1.0939 -0.0758 0.2814
H13 H 1.1517 0.1298 0.3144
H14 H 1.1172 0.1147 0.4325
H15 H 1.2970 -0.0188 0.4591
H16 H 1.3309 -0.0060 0.3406
H17 H 1.4768 0.1214 0.4446
H18 H 1.3876 0.2032 0.3690
H19 H 1.3536 0.1905 0.4875
S1B S -0.15704(3) 0.13865(3) -0.03434(3)
S2B S -0.14658(3) -0.13711(3) -0.06115(3)
N1B N -0.50016(12) 0.00228(10) -0.15069(10)
C1B C -0.06356(14) 0.00052(11) -0.02053(11)
C2B C -0.29707(12) -0.06320(12) -0.09948(10)
C3B C -0.42171(13) -0.10114(13) -0.13884(11)
C4B C -0.42848(13) 0.10474(13) -0.11872(11)
C5B C -0.30156(12) 0.06578(12) -0.08694(10)
C6B C -0.64392(15) 0.00463(13) -0.18258(12)
C7B C -0.67481(16) 0.08558(16) -0.27817(13)
C8B C -0.82532(17) 0.11212(16) -0.29404(15)
C9B C -0.91394(17) 0.00122(14) -0.31858(13)
C10B C -1.06082(16) 0.03513(17) -0.34297(13)
C11B C -1.15097(16) -0.07344(17) -0.37247(13)
C12B C -1.29603(16) -0.03758(19) -0.40044(14)
C13B C -1.3860(2) -0.1471(2) -0.42753(17)
H1B H -0.4495 -0.1844 -0.1552
H2B H -0.4613 0.1887 -0.1188
H3B H -0.6942 0.0320 -0.1249
H4B H -0.6720 -0.0786 -0.2001
H5B H -0.6453 0.0464 -0.3408
H6B H -0.6279 0.1619 -0.2689
H7B H -0.8373 0.1705 -0.3498
H8B H -0.8541 0.1486 -0.2294
H9B H -0.9094 -0.0547 -0.2603
H10B H -0.8808 -0.0406 -0.3797
H11B H -1.0641 0.0943 -0.4001
H12B H -1.0939 0.0758 -0.2814
H13B H -1.1517 -0.1298 -0.3144
H14B H -1.1172 -0.1147 -0.4325
H15B H -1.2970 0.0188 -0.4591
H16B H -1.3309 0.0060 -0.3406
H17B H -1.4768 -0.1214 -0.4446
H18B H -1.3876 -0.2032 -0.3690
H19B H -1.3536 -0.1905 -0.4875
loop_
_geom_bond_atom_site_label_1
_geom_bond_atom_site_label_2
_geom_bond_site_symmetry_1
_geom_bond_site_symmetry_2
S1 C1 1_555 1_555
S2 C1 1_555 1_555
N1 C3 1_555 1_555
C1 C1B 1_555 1_555
C2 S2 1_555 1_555
C3 C2 1_555 1_555
C4 N1 1_555 1_555
C5 S1 1_555 1_555
C6 N1 1_555 1_555
C7 C6 1_555 1_555
C8 C7 1_555 1_555
C9 C8 1_555 1_555
C10 C9 1_555 1_555
C11 C10 1_555 1_555
C12 C11 1_555 1_555
C13 C12 1_555 1_555
H1 C3 1_555 1_555
H2 C4 1_555 1_555
H3 C6 1_555 1_555
H4 C6 1_555 1_555
H5 C7 1_555 1_555
H6 C7 1_555 1_555
H7 C8 1_555 1_555
H8 C8 1_555 1_555
H9 C9 1_555 1_555
H10 C9 1_555 1_555
H11 C10 1_555 1_555
H12 C10 1_555 1_555
H13 C11 1_555 1_555
H14 C11 1_555 1_555
H15 C12 1_555 1_555
H16 C12 1_555 1_555
H17 C13 1_555 1_555
H18 C13 1_555 1_555
H19 C13 1_555 1_555
S1B C1B 1_555 1_555
S2B C1B 1_555 1_555
N1B C3B 1_555 1_555
C2B S2B 1_555 1_555
C3B C2B 1_555 1_555
C4B N1B 1_555 1_555
C5B S1B 1_555 1_555
C6B N1B 1_555 1_555
C7B C6B 1_555 1_555
C8B C7B 1_555 1_555
C9B C8B 1_555 1_555
C10B C9B 1_555 1_555
C11B C10B 1_555 1_555
C12B C11B 1_555 1_555
C13B C12B 1_555 1_555
H1B C3B 1_555 1_555
H2B C4B 1_555 1_555
H3B C6B 1_555 1_555
H4B C6B 1_555 1_555
H5B C7B 1_555 1_555
H6B C7B 1_555 1_555
H7B C8B 1_555 1_555
H8B C8B 1_555 1_555
H9B C9B 1_555 1_555
H10B C9B 1_555 1_555
H11B C10B 1_555 1_555
H12B C10B 1_555 1_555
H13B C11B 1_555 1_555
H14B C11B 1_555 1_555
H15B C12B 1_555 1_555
H16B C12B 1_555 1_555
H17B C13B 1_555 1_555
H18B C13B 1_555 1_555
H19B C13B 1_555 1_555
C2 C5 1_555 1_555
C4 C5 1_555 1_555
C2B C5B 1_555 1_555
C4B C5B 1_555 1_555

#END
