
#######################################################################
#
#                 Cambridge Crystallographic Data Centre
#                                CCDC 
#
#######################################################################
#
# If this CIF has been generated from an entry in the Cambridge 
# Structural Database, then it will include bibliographic, chemical, 
# crystal, experimental, refinement or atomic coordinate data resulting 
# from the CCDC's data processing and validation procedures.
#
#######################################################################

data_HITVAI
_chemical_formula_moiety         'C34 H54 N2 S4'
_chemical_name_systematic        
bis(N-n-Dodecylpyrrolo(3,4-d))tetrathiafulvalene
_symmetry_cell_setting           triclinic
_symmetry_space_group_name_H-M   'P -1'
_symmetry_Int_Tables_number      2
_space_group_name_Hall           '-P 1'
loop_
_symmetry_equiv_pos_site_id
_symmetry_equiv_pos_as_xyz
1 x,y,z
2 -x,-y,-z
_cell_length_a                   4.659(4)
_cell_length_b                   7.680(8)
_cell_length_c                   23.82(2)
_cell_angle_alpha                80.75(3)
_cell_angle_beta                 83.92(3)
_cell_angle_gamma                85.96(3)
_cell_volume                     835.251
_exptl_crystal_colour            yellow
_exptl_crystal_description       block
_chemical_melting_point          '126.5-127.5 deg.C'
_cell_formula_units_Z            1
_exptl_crystal_recrystallization_method hexane
loop_
_atom_site_label
_atom_site_type_symbol
_atom_site_fract_x
_atom_site_fract_y
_atom_site_fract_z
S1 S 0.0749(2) 0.27710(15) 0.00202(5)
S2 S 0.2431(3) -0.06298(15) 0.07542(5)
N1 N 0.5743(8) 0.3482(5) 0.11906(15)
C1 C 0.0651(9) 0.0450(6) 0.01601(17)
C2 C 0.3739(10) 0.1290(6) 0.09081(19)
C3 C 0.5479(10) 0.1693(6) 0.1294(2)
C4 C 0.4182(10) 0.4239(6) 0.0743(2)
C5 C 0.2930(9) 0.2889(6) 0.05635(18)
C6 C 0.7320(10) 0.4495(7) 0.1520(2)
C7 C 0.5308(10) 0.5531(6) 0.19005(19)
C8 C 0.6852(10) 0.6762(7) 0.21851(18)
C9 C 0.4800(10) 0.7998(6) 0.24909(19)
C10 C 0.6286(11) 0.9242(7) 0.27818(19)
C11 C 0.4193(11) 1.0596(7) 0.3036(2)
C12 C 0.5622(11) 1.1869(7) 0.3323(2)
C13 C 0.3488(11) 1.3196(7) 0.3577(2)
C14 C 0.4912(11) 1.4479(7) 0.3864(2)
C15 C 0.2802(11) 1.5778(7) 0.41337(19)
C16 C 0.4204(11) 1.7112(7) 0.4398(2)
C17 C 0.2080(13) 1.8386(8) 0.4663(2)
H1 H 0.6320 0.0845 0.1541
H2 H 0.4011 0.5477 0.0653
H3 H 0.8732 0.5294 0.1309
H4 H 0.8680 0.3672 0.1790
H5 H 0.3890 0.6119 0.1706
H6 H 0.4441 0.4715 0.2235
H7 H 0.8219 0.6186 0.2419
H8 H 0.8006 0.7504 0.1857
H9 H 0.3498 0.7326 0.2761
H10 H 0.3609 0.8759 0.2221
H11 H 0.7344 0.8534 0.3103
H12 H 0.7827 0.9845 0.2538
H13 H 0.2921 0.9989 0.3338
H14 H 0.3153 1.1213 0.2752
H15 H 0.6807 1.1274 0.3588
H16 H 0.6919 1.2535 0.3008
H17 H 0.2079 1.2562 0.3851
H18 H 0.2310 1.3868 0.3281
H19 H 0.6064 1.3839 0.4143
H20 H 0.6218 1.5169 0.3578
H21 H 0.1601 1.5109 0.4437
H22 H 0.1624 1.6391 0.3863
H23 H 0.5413 1.6472 0.4679
H24 H 0.5479 1.7741 0.4101
H25 H 0.0850 1.7709 0.4959
H26 H 0.0942 1.8989 0.4383
H27 H 0.3069 1.9170 0.4827
S1A S -0.0749(2) -0.27710(15) -0.00202(5)
S2A S -0.2431(3) 0.06298(15) -0.07542(5)
N1A N -0.5743(8) -0.3482(5) -0.11906(15)
C1A C -0.0651(9) -0.0450(6) -0.01601(17)
C2A C -0.3739(10) -0.1290(6) -0.09081(19)
C3A C -0.5479(10) -0.1693(6) -0.1294(2)
C4A C -0.4182(10) -0.4239(6) -0.0743(2)
C5A C -0.2930(9) -0.2889(6) -0.05635(18)
C6A C -0.7320(10) -0.4495(7) -0.1520(2)
C7A C -0.5308(10) -0.5531(6) -0.19005(19)
C8A C -0.6852(10) -0.6762(7) -0.21851(18)
C9A C -0.4800(10) -0.7998(6) -0.24909(19)
C10A C -0.6286(11) -0.9242(7) -0.27818(19)
C11A C -0.4193(11) -1.0596(7) -0.3036(2)
C12A C -0.5622(11) -1.1869(7) -0.3323(2)
C13A C -0.3488(11) -1.3196(7) -0.3577(2)
C14A C -0.4912(11) -1.4479(7) -0.3864(2)
C15A C -0.2802(11) -1.5778(7) -0.41337(19)
C16A C -0.4204(11) -1.7112(7) -0.4398(2)
C17A C -0.2080(13) -1.8386(8) -0.4663(2)
H1A H -0.6320 -0.0845 -0.1541
H2A H -0.4011 -0.5477 -0.0653
H3A H -0.8732 -0.5294 -0.1309
H4A H -0.8680 -0.3672 -0.1790
H5A H -0.3890 -0.6119 -0.1706
H6A H -0.4441 -0.4715 -0.2235
H7A H -0.8219 -0.6186 -0.2419
H8A H -0.8006 -0.7504 -0.1857
H9A H -0.3498 -0.7326 -0.2761
H10A H -0.3609 -0.8759 -0.2221
H11A H -0.7344 -0.8534 -0.3103
H12A H -0.7827 -0.9845 -0.2538
H13A H -0.2921 -0.9989 -0.3338
H14A H -0.3153 -1.1213 -0.2752
H15A H -0.6807 -1.1274 -0.3588
H16A H -0.6919 -1.2535 -0.3008
H17A H -0.2079 -1.2562 -0.3851
H18A H -0.2310 -1.3868 -0.3281
H19A H -0.6064 -1.3839 -0.4143
H20A H -0.6218 -1.5169 -0.3578
H21A H -0.1601 -1.5109 -0.4437
H22A H -0.1624 -1.6391 -0.3863
H23A H -0.5413 -1.6472 -0.4679
H24A H -0.5479 -1.7741 -0.4101
H25A H -0.0850 -1.7709 -0.4959
H26A H -0.0942 -1.8989 -0.4383
H27A H -0.3069 -1.9170 -0.4827
loop_
_geom_bond_atom_site_label_1
_geom_bond_atom_site_label_2
_geom_bond_site_symmetry_1
_geom_bond_site_symmetry_2
S1 C1 1_555 1_555
S2 C1 1_555 1_555
N1 C3 1_555 1_555
C1 C1A 1_555 1_555
C2 S2 1_555 1_555
C3 C2 1_555 1_555
C4 N1 1_555 1_555
C5 S1 1_555 1_555
C6 N1 1_555 1_555
C7 C6 1_555 1_555
C8 C7 1_555 1_555
C9 C8 1_555 1_555
C10 C9 1_555 1_555
C11 C10 1_555 1_555
C12 C11 1_555 1_555
C13 C12 1_555 1_555
C14 C13 1_555 1_555
C15 C14 1_555 1_555
C16 C15 1_555 1_555
C17 C16 1_555 1_555
H1 C3 1_555 1_555
H2 C4 1_555 1_555
H3 C6 1_555 1_555
H4 C6 1_555 1_555
H5 C7 1_555 1_555
H6 C7 1_555 1_555
H7 C8 1_555 1_555
H8 C8 1_555 1_555
H9 C9 1_555 1_555
H10 C9 1_555 1_555
H11 C10 1_555 1_555
H12 C10 1_555 1_555
H13 C11 1_555 1_555
H14 C11 1_555 1_555
H15 C12 1_555 1_555
H16 C12 1_555 1_555
H17 C13 1_555 1_555
H18 C13 1_555 1_555
H19 C14 1_555 1_555
H20 C14 1_555 1_555
H21 C15 1_555 1_555
H22 C15 1_555 1_555
H23 C16 1_555 1_555
H24 C16 1_555 1_555
H25 C17 1_555 1_555
H26 C17 1_555 1_555
H27 C17 1_555 1_555
S1A C1A 1_555 1_555
S2A C1A 1_555 1_555
N1A C3A 1_555 1_555
C2A S2A 1_555 1_555
C3A C2A 1_555 1_555
C4A N1A 1_555 1_555
C5A S1A 1_555 1_555
C6A N1A 1_555 1_555
C7A C6A 1_555 1_555
C8A C7A 1_555 1_555
C9A C8A 1_555 1_555
C10A C9A 1_555 1_555
C11A C10A 1_555 1_555
C12A C11A 1_555 1_555
C13A C12A 1_555 1_555
C14A C13A 1_555 1_555
C15A C14A 1_555 1_555
C16A C15A 1_555 1_555
C17A C16A 1_555 1_555
H1A C3A 1_555 1_555
H2A C4A 1_555 1_555
H3A C6A 1_555 1_555
H4A C6A 1_555 1_555
H5A C7A 1_555 1_555
H6A C7A 1_555 1_555
H7A C8A 1_555 1_555
H8A C8A 1_555 1_555
H9A C9A 1_555 1_555
H10A C9A 1_555 1_555
H11A C10A 1_555 1_555
H12A C10A 1_555 1_555
H13A C11A 1_555 1_555
H14A C11A 1_555 1_555
H15A C12A 1_555 1_555
H16A C12A 1_555 1_555
H17A C13A 1_555 1_555
H18A C13A 1_555 1_555
H19A C14A 1_555 1_555
H20A C14A 1_555 1_555
H21A C15A 1_555 1_555
H22A C15A 1_555 1_555
H23A C16A 1_555 1_555
H24A C16A 1_555 1_555
H25A C17A 1_555 1_555
H26A C17A 1_555 1_555
H27A C17A 1_555 1_555
C2 C5 1_555 1_555
C4 C5 1_555 1_555
C2A C5A 1_555 1_555
C4A C5A 1_555 1_555

#END
