
#######################################################################
#
#                 Cambridge Crystallographic Data Centre
#                                CCDC 
#
#######################################################################
#
# If this CIF has been generated from an entry in the Cambridge 
# Structural Database, then it will include bibliographic, chemical, 
# crystal, experimental, refinement or atomic coordinate data resulting 
# from the CCDC's data processing and validation procedures.
#
#######################################################################

data_HITWOY
_chemical_formula_moiety         'C8 H8 I1 N1 O2'
_chemical_name_systematic        N-Hydroxy-2-iodo-N-methylbenzamide
_symmetry_cell_setting           orthorhombic
_symmetry_space_group_name_H-M   'P b c a'
_symmetry_Int_Tables_number      61
_space_group_name_Hall           '-P 2ac 2ab'
loop_
_symmetry_equiv_pos_site_id
_symmetry_equiv_pos_as_xyz
1 x,y,z
2 1/2+x,1/2-y,-z
3 -x,1/2+y,1/2-z
4 1/2-x,-y,1/2+z
5 -x,-y,-z
6 1/2-x,1/2+y,z
7 x,1/2-y,1/2+z
8 1/2+x,y,1/2-z
_cell_length_a                   8.3319(14)
_cell_length_b                   13.945(2)
_cell_length_c                   15.245(3)
_cell_angle_alpha                90
_cell_angle_beta                 90
_cell_angle_gamma                90
_cell_volume                     1771.29
_exptl_crystal_colour            colorless
_exptl_crystal_description       Block
_chemical_melting_point          '134-135 deg.C'
_cell_formula_units_Z            8
loop_
_atom_site_label
_atom_site_type_symbol
_atom_site_fract_x
_atom_site_fract_y
_atom_site_fract_z
I1 I 0.72935(3) 0.349916(19) 0.680814(17)
N1 N 0.4307(4) 0.3462(3) 0.5066(2)
O1 O 0.6094(3) 0.2553(2) 0.43707(18)
O2 O 0.3428(3) 0.3664(2) 0.58235(18)
H1 H 0.2588 0.3331 0.5828
C1 C 0.5280(5) 0.2031(3) 0.5802(3)
C2 C 0.6042(5) 0.2208(3) 0.6596(3)
C3 C 0.6067(5) 0.1527(3) 0.7261(3)
H2 H 0.6588 0.1663 0.7802
C4 C 0.5331(5) 0.0652(3) 0.7131(3)
H3 H 0.5354 0.0181 0.7581
C5 C 0.4557(5) 0.0460(3) 0.6345(3)
H4 H 0.4037 -0.0139 0.6260
C6 C 0.4545(5) 0.1142(3) 0.5684(3)
H5 H 0.4028 0.1002 0.5144
C7 C 0.5272(5) 0.2711(3) 0.5040(3)
C8 C 0.4141(5) 0.4137(3) 0.4338(3)
H6 H 0.5127 0.4515 0.4282
H7 H 0.3234 0.4567 0.4452
H8 H 0.3951 0.3782 0.3794
loop_
_geom_bond_atom_site_label_1
_geom_bond_atom_site_label_2
_geom_bond_site_symmetry_1
_geom_bond_site_symmetry_2
I1 C2 1_555 1_555
N1 O2 1_555 1_555
O1 C7 1_555 1_555
O2 H1 1_555 1_555
C1 C2 1_555 1_555
C2 C3 1_555 1_555
C3 H2 1_555 1_555
C4 C3 1_555 1_555
H3 C4 1_555 1_555
C5 C4 1_555 1_555
H4 C5 1_555 1_555
C6 C1 1_555 1_555
H5 C6 1_555 1_555
C7 N1 1_555 1_555
C8 N1 1_555 1_555
H6 C8 1_555 1_555
H7 C8 1_555 1_555
H8 C8 1_555 1_555
C1 C7 1_555 1_555
C5 C6 1_555 1_555

#END
