
#######################################################################
#
#                 Cambridge Crystallographic Data Centre
#                                CCDC 
#
#######################################################################
#
# If this CIF has been generated from an entry in the Cambridge 
# Structural Database, then it will include bibliographic, chemical, 
# crystal, experimental, refinement or atomic coordinate data resulting 
# from the CCDC's data processing and validation procedures.
#
#######################################################################

data_HITWEN
_chemical_formula_moiety         'C18 H14 N4 O2'
_chemical_name_systematic        1,3-bis(4-Pyridylcarbonylamino)benzene
_symmetry_cell_setting           triclinic
_symmetry_space_group_name_H-M   'P -1'
_symmetry_Int_Tables_number      2
_space_group_name_Hall           '-P 1'
loop_
_symmetry_equiv_pos_site_id
_symmetry_equiv_pos_as_xyz
1 x,y,z
2 -x,-y,-z
_cell_length_a                   7.6293(9)
_cell_length_b                   8.9099(11)
_cell_length_c                   12.3769(15)
_cell_angle_alpha                72.542(2)
_cell_angle_beta                 72.226(2)
_cell_angle_gamma                77.396(2)
_cell_volume                     756.811
_exptl_crystal_colour            colorless
_exptl_crystal_description       plate
_cell_formula_units_Z            2
loop_
_atom_site_label
_atom_site_type_symbol
_atom_site_fract_x
_atom_site_fract_y
_atom_site_fract_z
O1 O 0.4214(3) 0.7194(3) 0.90742(17)
O2 O 0.5751(3) 0.7933(3) 0.56931(17)
N1 N 0.2045(3) 0.7204(3) 1.3343(2)
N2 N 0.1039(3) 0.7489(3) 0.94821(19)
H1 H 0.0032 0.7579 1.0056
N3 N 0.3063(3) 0.7889(3) 0.52431(19)
H2 H 0.2645 0.7947 0.4641
N4 N 0.7740(3) 0.7426(3) 0.1519(2)
C1 C 0.1367(4) 0.8529(4) 1.1496(2)
H3 H 0.0738 0.9417 1.1043
C2 C 0.1216(4) 0.8426(4) 1.2654(2)
H4 H 0.0482 0.9271 1.2979
C3 C 0.3099(4) 0.6049(4) 1.2849(3)
H5 H 0.3695 0.5166 1.3326
C4 C 0.3374(4) 0.6060(3) 1.1695(2)
H6 H 0.4173 0.5230 1.1379
C5 C 0.2454(4) 0.7315(3) 1.1004(2)
C6 C 0.2681(4) 0.7324(3) 0.9751(2)
C7 C 0.0737(4) 0.7534(3) 0.8401(2)
C8 C -0.1071(4) 0.7435(3) 0.8410(2)
H7 H -0.2019 0.7300 0.9124
C9 C -0.1470(4) 0.7537(3) 0.7369(2)
H8 H -0.2700 0.7479 0.7372
C10 C -0.0095(4) 0.7722(3) 0.6325(2)
H9 H -0.0380 0.7797 0.5614
C11 C 0.1706(4) 0.7795(3) 0.6327(2)
C12 C 0.2140(4) 0.7721(3) 0.7361(2)
H10 H 0.3366 0.7797 0.7354
C13 C 0.4917(4) 0.7902(3) 0.5001(2)
C14 C 0.5928(4) 0.7785(3) 0.3769(2)
C15 C 0.7242(4) 0.6478(4) 0.3597(3)
H11 H 0.7548 0.5684 0.4247
C16 C 0.8098(4) 0.6344(4) 0.2472(3)
H12 H 0.8990 0.5437 0.2365
C17 C 0.6491(4) 0.8689(4) 0.1696(3)
H13 H 0.6230 0.9475 0.1030
C18 C 0.5549(4) 0.8920(3) 0.2800(2)
H14 H 0.4666 0.9838 0.2885
loop_
_geom_bond_atom_site_label_1
_geom_bond_atom_site_label_2
_geom_bond_site_symmetry_1
_geom_bond_site_symmetry_2
O1 C6 1_555 1_555
O2 C13 1_555 1_555
N1 C2 1_555 1_555
N2 H1 1_555 1_555
N3 H2 1_555 1_555
N4 C16 1_555 1_555
C1 H3 1_555 1_555
C2 C1 1_555 1_555
H4 C2 1_555 1_555
C3 N1 1_555 1_555
H5 C3 1_555 1_555
C4 C3 1_555 1_555
H6 C4 1_555 1_555
C5 C1 1_555 1_555
C6 N2 1_555 1_555
C7 N2 1_555 1_555
C8 C7 1_555 1_555
H7 C8 1_555 1_555
C9 C8 1_555 1_555
H8 C9 1_555 1_555
C10 C9 1_555 1_555
H9 C10 1_555 1_555
C11 N3 1_555 1_555
C12 C7 1_555 1_555
H10 C12 1_555 1_555
C13 N3 1_555 1_555
C14 C13 1_555 1_555
C15 C14 1_555 1_555
H11 C15 1_555 1_555
C16 C15 1_555 1_555
H12 C16 1_555 1_555
C17 N4 1_555 1_555
H13 C17 1_555 1_555
C18 C14 1_555 1_555
H14 C18 1_555 1_555
C4 C5 1_555 1_555
C5 C6 1_555 1_555
C10 C11 1_555 1_555
C11 C12 1_555 1_555
C17 C18 1_555 1_555

#END
