
#######################################################################
#
#                 Cambridge Crystallographic Data Centre
#                                CCDC 
#
#######################################################################
#
# If this CIF has been generated from an entry in the Cambridge 
# Structural Database, then it will include bibliographic, chemical, 
# crystal, experimental, refinement or atomic coordinate data resulting 
# from the CCDC's data processing and validation procedures.
#
#######################################################################

data_HIVFAV
_chemical_formula_moiety         'C17 H18 F1 N1 O2 S1'
_chemical_name_systematic        
4-Fluoro-1-((4-methylphenyl)sulfonyl)-2-phenylpyrrolidine
_symmetry_cell_setting           monoclinic
_symmetry_space_group_name_H-M   'P c'
_symmetry_Int_Tables_number      7
_space_group_name_Hall           'P -2yc'
loop_
_symmetry_equiv_pos_site_id
_symmetry_equiv_pos_as_xyz
1 x,y,z
2 x,-y,1/2+z
_cell_length_a                   6.1325(10)
_cell_length_b                   7.0271(12)
_cell_length_c                   34.947(4)
_cell_angle_alpha                90
_cell_angle_beta                 90.605(4)
_cell_angle_gamma                90
_cell_volume                     1505.91
_exptl_crystal_colour            colorless
_exptl_crystal_description       prism
_cell_formula_units_Z            4
loop_
_atom_site_label
_atom_site_type_symbol
_atom_site_fract_x
_atom_site_fract_y
_atom_site_fract_z
S1 S 0.23156(12) 0.14044(12) 0.38913(2)
F1 F 0.2095(6) -0.2336(4) 0.48859(8)
N1 N 0.1411(5) -0.0010(4) 0.42186(9)
O1 O 0.4653(5) 0.1163(4) 0.38803(9)
O2 O 0.1422(5) 0.3261(3) 0.39636(8)
C1 C 0.2111(8) -0.2014(5) 0.42196(12)
H1 H 0.3704 -0.2124 0.4262
H2 H 0.1713 -0.2652 0.3976
C2 C 0.0882(9) -0.2823(6) 0.45454(12)
H3 H 0.0674 -0.4228 0.4519
C3 C -0.1224(8) -0.1790(6) 0.45479(13)
H4 H -0.1824 -0.1759 0.4810
H5 H -0.2295 -0.2423 0.4376
C4 C -0.0742(7) 0.0270(6) 0.44047(12)
H6 H -0.1848 0.0622 0.4205
C5 C -0.0733(7) 0.1785(5) 0.47158(11)
C6 C 0.0989(7) 0.2083(6) 0.49591(12)
H7 H 0.2299 0.1382 0.4926
C7 C 0.0848(9) 0.3385(6) 0.52498(13)
H8 H 0.2055 0.3585 0.5418
C8 C -0.1069(9) 0.4413(5) 0.52988(12)
H9 H -0.1165 0.5303 0.5502
C9 C -0.2804(8) 0.4161(5) 0.50598(12)
H10 H -0.4106 0.4870 0.5095
C10 C -0.2651(8) 0.2832(5) 0.47582(12)
H11 H -0.3841 0.2651 0.4586
C11 C 0.1319(6) 0.0583(5) 0.34425(10)
C12 C 0.2713(5) 0.0646(4) 0.31322(10)
H12 H 0.4171 0.1079 0.3164
C13 C 0.1946(6) 0.0065(5) 0.27741(10)
H13 H 0.2896 0.0101 0.2561
C14 C -0.0183(6) -0.0566(5) 0.27230(10)
C15 C -0.1539(5) -0.0645(4) 0.30398(9)
H14 H -0.2985 -0.1111 0.3011
C16 C -0.0806(5) -0.0054(4) 0.33965(9)
H15 H -0.1757 -0.0085 0.3609
C17 C -0.1020(7) -0.1157(5) 0.23332(10)
H16 H -0.1068 -0.2549 0.2318
H17 H -0.0047 -0.0664 0.2136
H18 H -0.2490 -0.0643 0.2292
S2 S 0.35223(12) 0.34759(12) 0.20193(2)
F2 F 0.3660(5) 0.7346(3) 0.10358(7)
N2 N 0.4357(5) 0.4922(4) 0.16930(8)
O3 O 0.4462(5) 0.1656(3) 0.19377(8)
O4 O 0.1214(5) 0.3679(4) 0.20377(8)
C18 C 0.3616(7) 0.6930(5) 0.17066(11)
H19 H 0.4046 0.7545 0.1951
H20 H 0.2015 0.7026 0.1672
C19 C 0.4804(7) 0.7797(5) 0.13724(11)
H21 H 0.4981 0.9204 0.1403
C20 C 0.6980(7) 0.6791(5) 0.13735(11)
H22 H 0.8037 0.7469 0.1540
H23 H 0.7573 0.6736 0.1111
C21 C 0.6561(6) 0.4757(5) 0.15274(10)
H24 H 0.7639 0.4469 0.1736
C22 C 0.6708(7) 0.3239(5) 0.12205(10)
C23 C 0.5008(7) 0.2915(5) 0.09608(11)
H25 H 0.3681 0.3604 0.0981
C24 C 0.5267(8) 0.1576(5) 0.06717(11)
H26 H 0.4109 0.1359 0.0494
C25 C 0.7171(8) 0.0562(5) 0.06388(12)
H27 H 0.7318 -0.0351 0.0440
C26 C 0.8879(7) 0.0867(5) 0.08949(12)
H28 H 1.0199 0.0170 0.0872
C27 C 0.8642(7) 0.2201(5) 0.11849(12)
H29 H 0.9807 0.2410 0.1361
C28 C 0.4553(6) 0.4214(5) 0.24675(11)
C29 C 0.6660(5) 0.3719(4) 0.25831(10)
H30 H 0.7608 0.3079 0.2413
C30 C 0.7355(5) 0.4179(5) 0.29525(9)
H31 H 0.8800 0.3871 0.3031
C31 C 0.5966(7) 0.5087(5) 0.32103(11)
C32 C 0.3892(6) 0.5584(5) 0.30833(10)
H32 H 0.2942 0.6229 0.3253
C33 C 0.3175(6) 0.5167(4) 0.27190(10)
H33 H 0.1748 0.5525 0.2639
C34 C 0.6727(8) 0.5489(6) 0.36160(11)
H34 H 0.6152 0.6722 0.3699
H35 H 0.8324 0.5520 0.3625
H36 H 0.6197 0.4487 0.3786
loop_
_geom_bond_atom_site_label_1
_geom_bond_atom_site_label_2
_geom_bond_site_symmetry_1
_geom_bond_site_symmetry_2
S1 N1 1_555 1_555
F1 C2 1_555 1_555
N1 C1 1_555 1_555
O1 S1 1_555 1_555
O2 S1 1_555 1_555
C1 H1 1_555 1_555
H2 C1 1_555 1_555
C2 C1 1_555 1_555
H3 C2 1_555 1_555
C3 C2 1_555 1_555
H4 C3 1_555 1_555
H5 C3 1_555 1_555
C4 N1 1_555 1_555
H6 C4 1_555 1_555
C5 C4 1_555 1_555
C6 C5 1_555 1_555
H7 C6 1_555 1_555
C7 C6 1_555 1_555
H8 C7 1_555 1_555
C8 C7 1_555 1_555
H9 C8 1_555 1_555
C9 C8 1_555 1_555
H10 C9 1_555 1_555
C10 C5 1_555 1_555
H11 C10 1_555 1_555
C11 S1 1_555 1_555
C12 C11 1_555 1_555
H12 C12 1_555 1_555
C13 C12 1_555 1_555
H13 C13 1_555 1_555
C14 C13 1_555 1_555
C15 C14 1_555 1_555
H14 C15 1_555 1_555
C16 C11 1_555 1_555
H15 C16 1_555 1_555
C17 C14 1_555 1_555
H16 C17 1_555 1_555
H17 C17 1_555 1_555
H18 C17 1_555 1_555
S2 N2 1_555 1_555
F2 C19 1_555 1_555
N2 C18 1_555 1_555
O3 S2 1_555 1_555
O4 S2 1_555 1_555
C18 H19 1_555 1_555
H20 C18 1_555 1_555
C19 C18 1_555 1_555
H21 C19 1_555 1_555
C20 C19 1_555 1_555
H22 C20 1_555 1_555
H23 C20 1_555 1_555
C21 N2 1_555 1_555
H24 C21 1_555 1_555
C22 C21 1_555 1_555
C23 C22 1_555 1_555
H25 C23 1_555 1_555
C24 C23 1_555 1_555
H26 C24 1_555 1_555
C25 C24 1_555 1_555
H27 C25 1_555 1_555
C26 C25 1_555 1_555
H28 C26 1_555 1_555
C27 C22 1_555 1_555
H29 C27 1_555 1_555
C28 S2 1_555 1_555
C29 C28 1_555 1_555
H30 C29 1_555 1_555
C30 C29 1_555 1_555
H31 C30 1_555 1_555
C31 C30 1_555 1_555
C32 C31 1_555 1_555
H32 C32 1_555 1_555
C33 C28 1_555 1_555
H33 C33 1_555 1_555
C34 C31 1_555 1_555
H34 C34 1_555 1_555
H35 C34 1_555 1_555
H36 C34 1_555 1_555
C3 C4 1_555 1_555
C9 C10 1_555 1_555
C15 C16 1_555 1_555
C20 C21 1_555 1_555
C26 C27 1_555 1_555
C32 C33 1_555 1_555

#END
