
#######################################################################
#
#                 Cambridge Crystallographic Data Centre
#                                CCDC 
#
#######################################################################
#
# If this CIF has been generated from an entry in the Cambridge 
# Structural Database, then it will include bibliographic, chemical, 
# crystal, experimental, refinement or atomic coordinate data resulting 
# from the CCDC's data processing and validation procedures.
#
#######################################################################

data_HIVFID
_chemical_formula_moiety         'C15 H22 F1 N1 O2 S1'
_chemical_name_systematic        
cis-2-t-Butyl-4-fluoro-1-((4-methylphenyl)sulfonyl)pyrrolidine
_symmetry_cell_setting           monoclinic
_symmetry_space_group_name_H-M   'P 21/n'
_symmetry_Int_Tables_number      14
_space_group_name_Hall           '-P 2yn'
loop_
_symmetry_equiv_pos_site_id
_symmetry_equiv_pos_as_xyz
1 x,y,z
2 1/2-x,1/2+y,1/2-z
3 -x,-y,-z
4 1/2+x,1/2-y,1/2+z
_cell_length_a                   6.1890(10)
_cell_length_b                   12.1340(14)
_cell_length_c                   19.640(7)
_cell_angle_alpha                90
_cell_angle_beta                 94.544(5)
_cell_angle_gamma                90
_cell_volume                     1470.28
_exptl_crystal_colour            colorless
_exptl_crystal_description       prism
_cell_formula_units_Z            4
loop_
_atom_site_label
_atom_site_type_symbol
_atom_site_fract_x
_atom_site_fract_y
_atom_site_fract_z
S1 S 0.33693(7) 0.51337(3) 0.21054(2)
F1 F 0.60132(18) 0.21958(10) 0.36347(6)
O1 O 0.42273(19) 0.62317(9) 0.21335(6)
O2 O 0.10747(18) 0.49600(10) 0.20913(6)
N1 N 0.4426(2) 0.44879(11) 0.27826(7)
C1 C 0.6794(3) 0.46340(14) 0.29817(9)
H1 H 0.7415 0.5121 0.2636
C2 C 0.7683(3) 0.34588(14) 0.28971(9)
H2 H 0.8268 0.3382 0.2445
H3 H 0.8867 0.3310 0.3254
C3 C 0.5873(3) 0.26638(15) 0.29589(9)
H4 H 0.5911 0.2070 0.2607
C4 C 0.3781(3) 0.33180(14) 0.28563(9)
H5 H 0.2910 0.3065 0.2441
H6 H 0.2909 0.3228 0.3254
C5 C 0.7230(3) 0.51755(15) 0.36920(9)
C6 C 0.6064(3) 0.62951(15) 0.36978(10)
H7 H 0.6377 0.6648 0.4143
H8 H 0.4498 0.6182 0.3614
H9 H 0.6576 0.6768 0.3339
C7 C 0.9678(3) 0.53774(17) 0.38123(10)
H10 H 1.0161 0.5841 0.3445
H11 H 1.0445 0.4671 0.3817
H12 H 0.9991 0.5750 0.4252
C8 C 0.6459(3) 0.44640(17) 0.42709(9)
H13 H 0.7188 0.3747 0.4273
H14 H 0.4888 0.4356 0.4200
H15 H 0.6809 0.4834 0.4709
C9 C 0.4281(3) 0.44796(14) 0.13746(8)
C10 C 0.6291(3) 0.47562(15) 0.11492(9)
H16 H 0.7172 0.5299 0.1382
C11 C 0.6985(3) 0.42267(15) 0.05790(9)
H17 H 0.8354 0.4415 0.0425
C12 C 0.5729(3) 0.34284(15) 0.02279(9)
C13 C 0.3730(3) 0.31718(16) 0.04595(9)
H18 H 0.2846 0.2631 0.0224
C14 C 0.2994(3) 0.36879(15) 0.10278(9)
H19 H 0.1620 0.3502 0.1179
C15 C 0.6514(3) 0.28627(17) -0.03899(9)
H20 H 0.6604 0.2067 -0.0307
H21 H 0.7951 0.3146 -0.0476
H22 H 0.5499 0.3008 -0.0788
loop_
_geom_bond_atom_site_label_1
_geom_bond_atom_site_label_2
_geom_bond_site_symmetry_1
_geom_bond_site_symmetry_2
S1 O1 1_555 1_555
F1 C3 1_555 1_555
O2 S1 1_555 1_555
N1 S1 1_555 1_555
C1 N1 1_555 1_555
H1 C1 1_555 1_555
C2 C1 1_555 1_555
H2 C2 1_555 1_555
H3 C2 1_555 1_555
C3 C2 1_555 1_555
H4 C3 1_555 1_555
C4 N1 1_555 1_555
H5 C4 1_555 1_555
H6 C4 1_555 1_555
C5 C1 1_555 1_555
C6 C5 1_555 1_555
H7 C6 1_555 1_555
H8 C6 1_555 1_555
H9 C6 1_555 1_555
C7 C5 1_555 1_555
H10 C7 1_555 1_555
H11 C7 1_555 1_555
H12 C7 1_555 1_555
C8 C5 1_555 1_555
H13 C8 1_555 1_555
H14 C8 1_555 1_555
H15 C8 1_555 1_555
C9 S1 1_555 1_555
C10 C9 1_555 1_555
H16 C10 1_555 1_555
C11 C10 1_555 1_555
H17 C11 1_555 1_555
C12 C11 1_555 1_555
C13 C12 1_555 1_555
H18 C13 1_555 1_555
C14 C9 1_555 1_555
H19 C14 1_555 1_555
C15 C12 1_555 1_555
H20 C15 1_555 1_555
H21 C15 1_555 1_555
H22 C15 1_555 1_555
C3 C4 1_555 1_555
C13 C14 1_555 1_555

#END
