
#######################################################################
#
#                 Cambridge Crystallographic Data Centre
#                                CCDC 
#
#######################################################################
#
# If this CIF has been generated from an entry in the Cambridge 
# Structural Database, then it will include bibliographic, chemical, 
# crystal, experimental, refinement or atomic coordinate data resulting 
# from the CCDC's data processing and validation procedures.
#
#######################################################################

data_HIVLED
_chemical_formula_moiety         'C8 H20 N4 P2 S2'
_chemical_name_systematic        
'Butane-2,3-dione bis((dimethylthiophosphoryl)hydrazone)'
_symmetry_cell_setting           monoclinic
_symmetry_space_group_name_H-M   'P 21/n'
_symmetry_Int_Tables_number      14
_space_group_name_Hall           '-P 2yn'
loop_
_symmetry_equiv_pos_site_id
_symmetry_equiv_pos_as_xyz
1 x,y,z
2 1/2+x,1/2-y,1/2+z
3 -x,-y,-z
4 1/2-x,1/2+y,1/2-z
_cell_length_a                   6.2200(1)
_cell_length_b                   12.1463(2)
_cell_length_c                   10.1414(1)
_cell_angle_alpha                90
_cell_angle_beta                 97.937(1)
_cell_angle_gamma                90
_cell_volume                     758.843
_exptl_crystal_colour            orange
_exptl_crystal_description       block
_chemical_melting_point          'above 250deg.C'
_cell_formula_units_Z            2
loop_
_atom_site_label
_atom_site_type_symbol
_atom_site_fract_x
_atom_site_fract_y
_atom_site_fract_z
P1 P 0.19688(5) 0.17399(3) 0.87116(3)
S1 S 0.09806(5) 0.17851(3) 1.04591(3)
N1 N 0.0508(2) 0.08016(10) 0.77636(10)
N2 N 0.0957(2) 0.06921(8) 0.64735(10)
C1 C -0.0291(2) 0.00536(9) 0.56792(11)
C2 C -0.2217(2) -0.05479(11) 0.60656(13)
C3 C 0.4789(2) 0.13885(14) 0.8730(2)
C4 C 0.1602(2) 0.29928(11) 0.77624(13)
H1 H -0.0339(31) 0.0373(16) 0.8072(18)
H2 H -0.3258(32) -0.0021(17) 0.6316(18)
H3 H -0.1817(30) -0.1004(16) 0.6782(19)
H4 H -0.2903(29) -0.0988(15) 0.5375(18)
H5 H 0.5033(31) 0.0647(17) 0.9133(19)
H6 H 0.5653(33) 0.1910(16) 0.9304(20)
H7 H 0.5133(30) 0.1388(16) 0.7866(19)
H8 H 0.0037(32) 0.3146(14) 0.7519(18)
H9 H 0.2251(32) 0.3547(17) 0.8310(20)
H10 H 0.2245(29) 0.2920(15) 0.6986(18)
C1B C 0.0291(2) -0.00536(9) 0.43208(11)
N2B N -0.0957(2) -0.06921(8) 0.35265(10)
N1B N -0.0508(2) -0.08016(10) 0.22364(10)
P1B P -0.19688(5) -0.17399(3) 0.12884(3)
S1B S -0.09806(5) -0.17851(3) -0.04591(3)
C3B C -0.4789(2) -0.13885(14) 0.1270(2)
H5B H -0.5033(31) -0.0647(17) 0.0867(19)
H6B H -0.5653(33) -0.1910(16) 0.0696(20)
H7B H -0.5133(30) -0.1388(16) 0.2134(19)
C4B C -0.1602(2) -0.29928(11) 0.22376(13)
H8B H -0.0037(32) -0.3146(14) 0.2481(18)
H9B H -0.2251(32) -0.3547(17) 0.1690(20)
H10B H -0.2245(29) -0.2920(15) 0.3014(18)
H1B H 0.0339(31) -0.0373(16) 0.1928(18)
C2B C 0.2217(2) 0.05479(11) 0.39344(13)
H2B H 0.3258(32) 0.0021(17) 0.3684(18)
H3B H 0.1817(30) 0.1004(16) 0.3218(19)
H4B H 0.2903(29) 0.0988(15) 0.4625(18)
loop_
_geom_bond_atom_site_label_1
_geom_bond_atom_site_label_2
_geom_bond_site_symmetry_1
_geom_bond_site_symmetry_2
P1 S1 1_555 1_555
N1 P1 1_555 1_555
N2 N1 1_555 1_555
C1 N2 1_555 1_555
C2 C1 1_555 1_555
C3 P1 1_555 1_555
C4 P1 1_555 1_555
H1 N1 1_555 1_555
H2 C2 1_555 1_555
H3 C2 1_555 1_555
H4 C2 1_555 1_555
H5 C3 1_555 1_555
H6 C3 1_555 1_555
H7 C3 1_555 1_555
H8 C4 1_555 1_555
H9 C4 1_555 1_555
H10 C4 1_555 1_555
C1B C1 1_555 1_555
N2B C1B 1_555 1_555
N1B N2B 1_555 1_555
P1B N1B 1_555 1_555
S1B P1B 1_555 1_555
C3B P1B 1_555 1_555
H5B C3B 1_555 1_555
H6B C3B 1_555 1_555
H7B C3B 1_555 1_555
C4B P1B 1_555 1_555
H8B C4B 1_555 1_555
H9B C4B 1_555 1_555
H10B C4B 1_555 1_555
H1B N1B 1_555 1_555
C2B C1B 1_555 1_555
H2B C2B 1_555 1_555
H3B C2B 1_555 1_555
H4B C2B 1_555 1_555

#END
