
#######################################################################
#
#                 Cambridge Crystallographic Data Centre
#                                CCDC 
#
#######################################################################
#
# If this CIF has been generated from an entry in the Cambridge 
# Structural Database, then it will include bibliographic, chemical, 
# crystal, experimental, refinement or atomic coordinate data resulting 
# from the CCDC's data processing and validation procedures.
#
#######################################################################

data_HIVMIJ
_chemical_formula_moiety         'C32 H24 O6'
_chemical_name_systematic        
3,3'-bis(p-Methoxyphenyl)-3,3'-dihydroxy-(2,2'-bi-1H-indenylidene)-1,1'-dione
_symmetry_cell_setting           triclinic
_symmetry_space_group_name_H-M   'P -1'
_symmetry_Int_Tables_number      2
_space_group_name_Hall           '-P 1'
loop_
_symmetry_equiv_pos_site_id
_symmetry_equiv_pos_as_xyz
1 x,y,z
2 -x,-y,-z
_cell_length_a                   6.4035(15)
_cell_length_b                   8.778(2)
_cell_length_c                   11.894(3)
_cell_angle_alpha                91.998(4)
_cell_angle_beta                 102.691(4)
_cell_angle_gamma                104.670(4)
_cell_volume                     628.057
_cell_formula_units_Z            1
_chemical_properties_physical    light-sensitive
_exptl_crystal_recrystallization_method dichloromethane/acetone
_exptl_crystal_preparation       photochromic
loop_
_atom_site_label
_atom_site_type_symbol
_atom_site_fract_x
_atom_site_fract_y
_atom_site_fract_z
O1 O -0.3559(2) 0.25533(16) 0.45001(12)
O2 O 0.4054(2) 0.45287(17) 0.59539(12)
H1 H 0.4424 0.5443 0.5792
O3 O 0.3025(3) 0.7900(3) 1.05321(15)
C1 C 0.0061(3) 0.4383(2) 0.53162(14)
C2 C -0.1711(3) 0.2842(2) 0.51398(16)
C3 C -0.0780(3) 0.1750(2) 0.58751(16)
C4 C -0.1728(4) 0.0153(2) 0.59518(19)
H2 H -0.3167 -0.0351 0.5539
C5 C -0.0470(4) -0.0653(3) 0.6656(2)
H3 H -0.1065 -0.1717 0.6728
C6 C 0.1667(5) 0.0100(3) 0.7256(2)
H4 H 0.2500 -0.0477 0.7712
C7 C 0.2609(4) 0.1692(3) 0.71986(18)
H5 H 0.4043 0.2191 0.7619
C8 C 0.1346(3) 0.2517(2) 0.64954(15)
C9 C 0.2017(3) 0.4260(2) 0.62959(15)
C10 C 0.2222(3) 0.5282(2) 0.74067(15)
C11 C 0.0405(3) 0.5483(2) 0.77593(17)
H6 H -0.1003 0.5027 0.7290
C12 C 0.0596(3) 0.6347(3) 0.87971(17)
H7 H -0.0671 0.6462 0.9012
C13 C 0.2632(4) 0.7022(3) 0.94944(17)
C14 C 0.4463(4) 0.6847(4) 0.9152(2)
H8 H 0.5869 0.7318 0.9617
C15 C 0.4259(4) 0.5980(4) 0.8124(2)
H9 H 0.5532 0.5867 0.7915
C16 C 0.1248(5) 0.8277(4) 1.0872(2)
H10 H 0.0564 0.8860 1.0301
H11 H 0.1782 0.8909 1.1604
H12 H 0.0177 0.7321 1.0945
O1A O 0.3559(2) 0.74467(16) 0.54999(12)
O2A O -0.4054(2) 0.54713(17) 0.40461(12)
H1A H -0.4424 0.4557 0.4208
O3A O -0.3025(3) 0.2100(3) -0.05321(15)
C1A C -0.0061(3) 0.5617(2) 0.46838(14)
C2A C 0.1711(3) 0.7158(2) 0.48602(16)
C3A C 0.0780(3) 0.8250(2) 0.41249(16)
C4A C 0.1728(4) 0.9847(2) 0.40482(19)
H2A H 0.3167 1.0351 0.4461
C5A C 0.0470(4) 1.0653(3) 0.3344(2)
H3A H 0.1065 1.1717 0.3272
C6A C -0.1667(5) 0.9900(3) 0.2744(2)
H4A H -0.2500 1.0477 0.2288
C7A C -0.2609(4) 0.8308(3) 0.28014(18)
H5A H -0.4043 0.7809 0.2381
C8A C -0.1346(3) 0.7483(2) 0.35046(15)
C9A C -0.2017(3) 0.5740(2) 0.37041(15)
C10A C -0.2222(3) 0.4718(2) 0.25933(15)
C11A C -0.0405(3) 0.4517(2) 0.22407(17)
H6A H 0.1003 0.4973 0.2710
C12A C -0.0596(3) 0.3653(3) 0.12029(17)
H7A H 0.0671 0.3538 0.0988
C13A C -0.2632(4) 0.2978(3) 0.05056(17)
C14A C -0.4463(4) 0.3153(4) 0.0848(2)
H8A H -0.5869 0.2682 0.0383
C15A C -0.4259(4) 0.4020(4) 0.1876(2)
H9A H -0.5532 0.4133 0.2085
C16A C -0.1248(5) 0.1723(4) -0.0872(2)
H10A H -0.0564 0.1140 -0.0301
H11A H -0.1782 0.1091 -0.1604
H12A H -0.0177 0.2679 -0.0945
loop_
_geom_bond_atom_site_label_1
_geom_bond_atom_site_label_2
_geom_bond_site_symmetry_1
_geom_bond_site_symmetry_2
O1 C2 1_555 1_555
O2 H1 1_555 1_555
O3 C13 1_555 1_555
C1 C2 1_555 1_555
C2 C3 1_555 1_555
C3 C4 1_555 1_555
C4 H2 1_555 1_555
C5 C4 1_555 1_555
H3 C5 1_555 1_555
C6 C5 1_555 1_555
H4 C6 1_555 1_555
C7 C6 1_555 1_555
H5 C7 1_555 1_555
C8 C3 1_555 1_555
C9 O2 1_555 1_555
C10 C9 1_555 1_555
C11 C10 1_555 1_555
H6 C11 1_555 1_555
C12 C11 1_555 1_555
H7 C12 1_555 1_555
C13 C12 1_555 1_555
C14 C13 1_555 1_555
H8 C14 1_555 1_555
C15 C10 1_555 1_555
H9 C15 1_555 1_555
C16 O3 1_555 1_555
H10 C16 1_555 1_555
H11 C16 1_555 1_555
H12 C16 1_555 1_555
O1A C2A 1_555 1_555
O2A H1A 1_555 1_555
O3A C13A 1_555 1_555
C1A C1 1_555 1_555
C2A C1A 1_555 1_555
C3A C2A 1_555 1_555
C4A C3A 1_555 1_555
H2A C4A 1_555 1_555
C5A C4A 1_555 1_555
H3A C5A 1_555 1_555
C6A C5A 1_555 1_555
H4A C6A 1_555 1_555
C7A C6A 1_555 1_555
H5A C7A 1_555 1_555
C8A C3A 1_555 1_555
C9A O2A 1_555 1_555
C10A C9A 1_555 1_555
C11A C10A 1_555 1_555
H6A C11A 1_555 1_555
C12A C11A 1_555 1_555
H7A C12A 1_555 1_555
C13A C12A 1_555 1_555
C14A C13A 1_555 1_555
H8A C14A 1_555 1_555
C15A C10A 1_555 1_555
H9A C15A 1_555 1_555
C16A O3A 1_555 1_555
H10A C16A 1_555 1_555
H11A C16A 1_555 1_555
H12A C16A 1_555 1_555
C1 C9 1_555 1_555
C7 C8 1_555 1_555
C8 C9 1_555 1_555
C14 C15 1_555 1_555
C1A C9A 1_555 1_555
C7A C8A 1_555 1_555
C8A C9A 1_555 1_555
C14A C15A 1_555 1_555

#END
