
#######################################################################
#
#                 Cambridge Crystallographic Data Centre
#                                CCDC 
#
#######################################################################
#
# If this CIF has been generated from an entry in the Cambridge 
# Structural Database, then it will include bibliographic, chemical, 
# crystal, experimental, refinement or atomic coordinate data resulting 
# from the CCDC's data processing and validation procedures.
#
#######################################################################

data_HIVMEF
_chemical_formula_moiety         'C30 H18 F2 O4'
_chemical_name_systematic        
3,3'-bis(m-Fluorophenyl)-3,3'-dihydroxy-(2,2'-bi-1H-indenylidene)-1,1'-dione
_symmetry_cell_setting           triclinic
_symmetry_space_group_name_H-M   'P -1'
_symmetry_Int_Tables_number      2
_space_group_name_Hall           '-P 1'
loop_
_symmetry_equiv_pos_site_id
_symmetry_equiv_pos_as_xyz
1 x,y,z
2 -x,-y,-z
_cell_length_a                   7.2313(16)
_cell_length_b                   8.1830(18)
_cell_length_c                   10.528(2)
_cell_angle_alpha                72.060(4)
_cell_angle_beta                 89.694(4)
_cell_angle_gamma                80.385(4)
_cell_volume                     583.659
_exptl_crystal_colour            yellow
_exptl_crystal_description       block
_cell_formula_units_Z            1
_chemical_properties_physical    light-sensitive
_exptl_crystal_recrystallization_method dichloromethane/acetone
_exptl_crystal_preparation       photochromic
loop_
_atom_site_label
_atom_site_type_symbol
_atom_site_fract_x
_atom_site_fract_y
_atom_site_fract_z
F1 F -0.19569(18) 1.0738(2) 0.28933(18)
O1 O 0.84983(16) 0.47338(17) 0.42879(12)
O2 O 0.22452(17) 0.51990(16) 0.31403(13)
H1 H 0.159(3) 0.512(3) 0.3796(16)
C1 C 0.0706(3) 0.8603(3) 0.3060(2)
H2 H -0.0041 0.7892 0.2850
C2 C -0.0068(3) 1.0224(3) 0.3123(2)
C3 C 0.0945(3) 1.1337(3) 0.3416(2)
H3 H 0.0372 1.2425 0.3454
C4 C 0.2852(3) 1.0782(3) 0.3652(2)
H4 H 0.3588 1.1510 0.3849
C5 C 0.3686(3) 0.9164(2) 0.35997(19)
H5 H 0.4978 0.8817 0.3756
C6 C 0.2621(2) 0.8049(2) 0.33164(16)
C7 C 0.3564(2) 0.6267(2) 0.32248(17)
C8 C 0.4671(2) 0.6517(2) 0.19689(18)
C9 C 0.3980(3) 0.7228(3) 0.0658(2)
H6 H 0.2701 0.7615 0.0454
C10 C 0.5244(3) 0.7346(4) -0.0338(2)
H7 H 0.4801 0.7817 -0.1226
C11 C 0.7165(3) 0.6781(4) -0.0052(2)
H8 H 0.7982 0.6888 -0.0747
C12 C 0.7863(3) 0.6068(3) 0.1246(2)
H9 H 0.9143 0.5681 0.1448
C13 C 0.6582(2) 0.5944(2) 0.22537(18)
C14 C 0.6960(2) 0.5254(2) 0.37019(17)
C15 C 0.5102(2) 0.5340(2) 0.43403(17)
F1A F 1.19569(18) -0.0738(2) 0.71067(18)
O1A O 0.15017(16) 0.52662(17) 0.57121(12)
O2A O 0.77548(17) 0.48010(16) 0.68597(13)
H1A H 0.841(3) 0.488(3) 0.6204(16)
C1A C 0.9294(3) 0.1397(3) 0.6940(2)
H2A H 1.0041 0.2108 0.7150
C2A C 1.0068(3) -0.0224(3) 0.6877(2)
C3A C 0.9055(3) -0.1337(3) 0.6584(2)
H3A H 0.9628 -0.2425 0.6546
C4A C 0.7148(3) -0.0782(3) 0.6348(2)
H4A H 0.6412 -0.1510 0.6151
C5A C 0.6314(3) 0.0836(2) 0.64003(19)
H5A H 0.5022 0.1183 0.6244
C6A C 0.7379(2) 0.1951(2) 0.66836(16)
C7A C 0.6436(2) 0.3733(2) 0.67752(17)
C8A C 0.5329(2) 0.3483(2) 0.80311(18)
C9A C 0.6020(3) 0.2772(3) 0.9342(2)
H6A H 0.7299 0.2385 0.9546
C10A C 0.4756(3) 0.2654(4) 1.0338(2)
H7A H 0.5199 0.2183 1.1226
C11A C 0.2835(3) 0.3219(4) 1.0052(2)
H8A H 0.2018 0.3112 1.0747
C12A C 0.2137(3) 0.3932(3) 0.8754(2)
H9A H 0.0857 0.4319 0.8552
C13A C 0.3418(2) 0.4056(2) 0.77463(18)
C14A C 0.3040(2) 0.4746(2) 0.62981(17)
C15A C 0.4898(2) 0.4660(2) 0.56597(17)
loop_
_geom_bond_atom_site_label_1
_geom_bond_atom_site_label_2
_geom_bond_site_symmetry_1
_geom_bond_site_symmetry_2
F1 C2 1_555 1_555
O1 C14 1_555 1_555
O2 H1 1_555 1_555
C1 H2 1_555 1_555
C2 C1 1_555 1_555
C3 C2 1_555 1_555
H3 C3 1_555 1_555
C4 C3 1_555 1_555
H4 C4 1_555 1_555
C5 C4 1_555 1_555
H5 C5 1_555 1_555
C6 C1 1_555 1_555
C7 O2 1_555 1_555
C8 C7 1_555 1_555
C9 C8 1_555 1_555
H6 C9 1_555 1_555
C10 C9 1_555 1_555
H7 C10 1_555 1_555
C11 C10 1_555 1_555
H8 C11 1_555 1_555
C12 C11 1_555 1_555
H9 C12 1_555 1_555
C13 C8 1_555 1_555
C14 C13 1_555 1_555
C15 C7 1_555 1_555
F1A C2A 1_555 1_555
O1A C14A 1_555 1_555
O2A H1A 1_555 1_555
C1A H2A 1_555 1_555
C2A C1A 1_555 1_555
C3A C2A 1_555 1_555
H3A C3A 1_555 1_555
C4A C3A 1_555 1_555
H4A C4A 1_555 1_555
C5A C4A 1_555 1_555
H5A C5A 1_555 1_555
C6A C1A 1_555 1_555
C7A O2A 1_555 1_555
C8A C7A 1_555 1_555
C9A C8A 1_555 1_555
H6A C9A 1_555 1_555
C10A C9A 1_555 1_555
H7A C10A 1_555 1_555
C11A C10A 1_555 1_555
H8A C11A 1_555 1_555
C12A C11A 1_555 1_555
H9A C12A 1_555 1_555
C13A C8A 1_555 1_555
C14A C13A 1_555 1_555
C15A C15 1_555 1_555
C5 C6 1_555 1_555
C6 C7 1_555 1_555
C12 C13 1_555 1_555
C14 C15 1_555 1_555
C5A C6A 1_555 1_555
C6A C7A 1_555 1_555
C7A C15A 1_555 1_555
C12A C13A 1_555 1_555
C14A C15A 1_555 1_555

#END
