
#######################################################################
#
#                 Cambridge Crystallographic Data Centre
#                                CCDC 
#
#######################################################################
#
# If this CIF has been generated from an entry in the Cambridge 
# Structural Database, then it will include bibliographic, chemical, 
# crystal, experimental, refinement or atomic coordinate data resulting 
# from the CCDC's data processing and validation procedures.
#
#######################################################################

data_HIVMAC
_chemical_formula_moiety         'C23 H17 Br1 N2 O1 S1'
_chemical_name_systematic        
3-(2-(1,3-benzoxazol-2-yl)vinyl)-7-bromo-10-ethyl-10H-phenothiazine
_symmetry_cell_setting           triclinic
_symmetry_space_group_name_H-M   'P -1'
_symmetry_Int_Tables_number      2
_space_group_name_Hall           '-P 1'
loop_
_symmetry_equiv_pos_site_id
_symmetry_equiv_pos_as_xyz
1 x,y,z
2 -x,-y,-z
_cell_length_a                   4.1159(8)
_cell_length_b                   11.407(2)
_cell_length_c                   20.162(4)
_cell_angle_alpha                93.04(3)
_cell_angle_beta                 91.76(3)
_cell_angle_gamma                99.00(3)
_cell_volume                     932.907
_exptl_crystal_colour            'yellow green'
_exptl_crystal_description       block
_cell_formula_units_Z            2
loop_
_atom_site_label
_atom_site_type_symbol
_atom_site_fract_x
_atom_site_fract_y
_atom_site_fract_z
Br1 Br 0.24000(12) 0.86891(4) 0.09043(2)
S1 S 0.0101(3) 0.88267(10) -0.18018(6)
N1 N -0.3436(9) 0.6264(3) -0.17519(18)
O1 O 0.6608(9) 0.8298(3) -0.52125(16)
C1 C -0.1231(11) 0.6791(4) 0.0061(2)
H1 H -0.1597 0.6394 0.0449
C2 C 0.1595(11) 0.7908(4) -0.3001(2)
H2 H 0.2920 0.8642 -0.3027
C3 C 0.0599(11) 0.7930(4) 0.0086(2)
C4 C 0.1302(11) 0.7091(4) -0.3548(2)
C5 C -0.2055(10) 0.6817(4) -0.1138(2)
C6 C -0.0229(11) 0.7977(4) -0.1097(2)
C7 C -0.0025(11) 0.7660(4) -0.2421(2)
N2 N 0.6195(10) 0.6465(3) -0.57329(19)
C8 C -0.0752(12) 0.5988(4) -0.3496(2)
H3 H -0.1045 0.5435 -0.3857
C9 C -0.2502(11) 0.6252(4) -0.0542(2)
H4 H -0.3694 0.5488 -0.0552
C10 C 0.7922(11) 0.7295(4) -0.6122(2)
C11 C -0.5830(11) 0.5191(4) -0.1741(2)
H5 H -0.8080 0.5212 -0.1768
C12 C 0.3102(11) 0.7397(4) -0.4143(2)
H6 H 0.4002 0.8194 -0.4165
C13 C 0.1136(11) 0.8513(4) -0.0497(2)
H7 H 0.2411 0.9263 -0.0485
C14 C -0.2328(11) 0.5721(4) -0.2916(2)
H8 H -0.3678 0.4991 -0.2892
C15 C -0.4484(12) 0.4013(4) -0.1683(2)
H9 H -0.6287 0.3368 -0.1682
H10 H -0.3179 0.4047 -0.1278
H11 H -0.3146 0.3891 -0.2055
C16 C 0.9284(12) 0.7161(4) -0.6742(2)
H12 H 0.9155 0.6420 -0.6966
C17 C -0.1921(11) 0.6547(4) -0.2352(2)
C18 C 0.3614(12) 0.6686(4) -0.4655(2)
H13 H 0.2737 0.5884 -0.4651
C19 C 0.8231(12) 0.8428(4) -0.5797(2)
C20 C 0.5456(12) 0.7087(4) -0.5216(2)
C21 C 0.9761(13) 0.9457(4) -0.6051(3)
H14 H 0.9906 1.0194 -0.5822
C22 C 1.1072(13) 0.9325(4) -0.6668(3)
H15 H 1.2124 0.9993 -0.6865
C23 C 1.0848(12) 0.8195(5) -0.7009(2)
H16 H 1.1771 0.8140 -0.7422
loop_
_geom_bond_atom_site_label_1
_geom_bond_atom_site_label_2
_geom_bond_site_symmetry_1
_geom_bond_site_symmetry_2
Br1 C3 1_555 1_555
S1 C6 1_555 1_555
N1 C5 1_555 1_555
O1 C19 1_555 1_555
C1 H1 1_555 1_555
C2 H2 1_555 1_555
C3 C1 1_555 1_555
C4 C2 1_555 1_555
C5 C6 1_555 1_555
C6 C13 1_555 1_555
C7 S1 1_555 1_555
N2 C10 1_555 1_555
C8 C4 1_555 1_555
H3 C8 1_555 1_555
C9 C1 1_555 1_555
H4 C9 1_555 1_555
C10 C16 1_555 1_555
C11 N1 1_555 1_555
H5 C11 1_555 1_555
C12 C4 1_555 1_555
H6 C12 1_555 1_555
C13 C3 1_555 1_555
H7 C13 1_555 1_555
C14 C8 1_555 1_555
H8 C14 1_555 1_555
C15 C11 1_555 1_555
H9 C15 1_555 1_555
H10 C15 1_555 1_555
H11 C15 1_555 1_555
C16 H12 1_555 1_555
C17 N1 1_555 1_555
C18 C12 1_555 1_555
H13 C18 1_555 1_555
C19 C10 1_555 1_555
C20 O1 1_555 1_555
C21 C19 1_555 1_555
H14 C21 1_555 1_555
C22 C21 1_555 1_555
H15 C22 1_555 1_555
C23 C16 1_555 1_555
H16 C23 1_555 1_555
C2 C7 1_555 1_555
C5 C9 1_555 1_555
C7 C17 1_555 1_555
N2 C20 1_555 1_555
C14 C17 1_555 1_555
C18 C20 1_555 1_555
C22 C23 1_555 1_555

#END
