
#######################################################################
#
#                 Cambridge Crystallographic Data Centre
#                                CCDC 
#
#######################################################################
#
# If this CIF has been generated from an entry in the Cambridge 
# Structural Database, then it will include bibliographic, chemical, 
# crystal, experimental, refinement or atomic coordinate data resulting 
# from the CCDC's data processing and validation procedures.
#
#######################################################################

data_HIVVIS
_chemical_formula_moiety         'C21 H18 N4 S1'
_chemical_name_systematic        
'N^2^-(Z-s-trans),N^3^-(Z-s-cis)-bis(1-methyl-3-phenyl-2-propynylidene)carbonothioic dihydrazide'
_symmetry_cell_setting           monoclinic
_symmetry_space_group_name_H-M   'P 21/n'
_symmetry_Int_Tables_number      14
_space_group_name_Hall           '-P 2yn'
loop_
_symmetry_equiv_pos_site_id
_symmetry_equiv_pos_as_xyz
1 x,y,z
2 1/2-x,1/2+y,1/2-z
3 -x,-y,-z
4 1/2+x,1/2-y,1/2+z
_cell_length_a                   7.465(1)
_cell_length_b                   24.001(5)
_cell_length_c                   11.465(2)
_cell_angle_alpha                90
_cell_angle_beta                 107.96(3)
_cell_angle_gamma                90
_cell_volume                     1954.06
_chemical_melting_point          '150-152 deg.C'
_cell_formula_units_Z            4
loop_
_atom_site_label
_atom_site_type_symbol
_atom_site_fract_x
_atom_site_fract_y
_atom_site_fract_z
S1 S 0.0902(2) 0.61840(6) 0.30964(17)
N1 N 0.0640(8) 0.50707(18) 0.3015(5)
N2 N -0.0525(7) 0.50672(18) 0.1833(5)
N3 N 0.2686(7) 0.49238(19) 0.5295(5)
N4 N 0.2354(7) 0.5456(2) 0.4812(5)
C1 C 0.1278(8) 0.5545(2) 0.3659(7)
C2 C -0.0952(8) 0.4576(3) 0.1344(6)
C3 C -0.0189(8) 0.4082(3) 0.2004(6)
C4 C 0.0530(8) 0.3688(3) 0.2593(6)
C5 C 0.1492(9) 0.3213(3) 0.3281(6)
C6 C 0.0872(10) 0.2676(3) 0.2951(6)
H1 H -0.022 0.2614 0.2304
C7 C 0.1904(14) 0.2231(3) 0.3599(9)
C8 C 0.3473(14) 0.2326(4) 0.4536(8)
H2 H 0.415 0.2025 0.4963
C9 C 0.4104(11) 0.2858(4) 0.4882(7)
C10 C 0.3104(12) 0.3294(3) 0.4242(7)
C11 C 0.3669(8) 0.4894(2) 0.6420(7)
C12 C 0.4383(8) 0.5373(3) 0.7168(6)
C13 C 0.4821(9) 0.5795(3) 0.7742(6)
C14 C 0.5301(8) 0.6302(3) 0.8425(6)
C15 C 0.6575(9) 0.6315(3) 0.9576(7)
C16 C 0.6991(10) 0.6813(4) 1.0198(7)
C17 C 0.6172(12) 0.7289(3) 0.9652(9)
C18 C 0.4905(10) 0.7286(3) 0.8509(8)
H3 H 0.4346 0.7616 0.8153
C19 C 0.4459(9) 0.6795(3) 0.7886(6)
C20 C -0.2187(11) 0.4541(3) 0.0078(8)
C21 C 0.4091(8) 0.4329(2) 0.7022(5)
H4 H 0.3541 0.4044 0.6431
H5 H 0.3571 0.4307 0.7689
H6 H 0.543 0.4276 0.7327
H7 H 0.099(7) 0.4791(19) 0.343(5)
H8 H 0.276(7) 0.5747(19) 0.531(4)
H9 H 0.123(6) 0.1843(19) 0.337(4)
H10 H 0.536(7) 0.2895(19) 0.550(4)
H11 H 0.342(8) 0.360(2) 0.450(5)
H12 H 0.719(6) 0.5992(19) 0.993(4)
H13 H 0.795(6) 0.6777(19) 1.100(4)
H14 H 0.643(7) 0.760(2) 1.007(5)
H15 H 0.345(6) 0.6746(18) 0.707(4)
H16 H -0.328(6) 0.4306(18) -0.008(4)
H17 H -0.163(7) 0.4326(19) -0.047(4)
H18 H -0.264(7) 0.483(2) -0.021(5)
loop_
_geom_bond_atom_site_label_1
_geom_bond_atom_site_label_2
_geom_bond_site_symmetry_1
_geom_bond_site_symmetry_2
S1 C1 1_555 1_555
N1 N2 1_555 1_555
N2 C2 1_555 1_555
N3 N4 1_555 1_555
N4 C1 1_555 1_555
C1 N1 1_555 1_555
C2 C3 1_555 1_555
C3 C4 1_555 1_555
C4 C5 1_555 1_555
C5 C6 1_555 1_555
C6 H1 1_555 1_555
C7 C6 1_555 1_555
C8 C7 1_555 1_555
H2 C8 1_555 1_555
C9 C8 1_555 1_555
C10 C5 1_555 1_555
C11 N3 1_555 1_555
C12 C11 1_555 1_555
C13 C12 1_555 1_555
C14 C13 1_555 1_555
C15 C14 1_555 1_555
C16 C15 1_555 1_555
C17 C16 1_555 1_555
C18 C17 1_555 1_555
H3 C18 1_555 1_555
C19 C14 1_555 1_555
C20 C2 1_555 1_555
C21 C11 1_555 1_555
H4 C21 1_555 1_555
H5 C21 1_555 1_555
H6 C21 1_555 1_555
H7 N1 1_555 1_555
H8 N4 1_555 1_555
H9 C7 1_555 1_555
H10 C9 1_555 1_555
H11 C10 1_555 1_555
H12 C15 1_555 1_555
H13 C16 1_555 1_555
H14 C17 1_555 1_555
H15 C19 1_555 1_555
H16 C20 1_555 1_555
H17 C20 1_555 1_555
H18 C20 1_555 1_555
C9 C10 1_555 1_555
C18 C19 1_555 1_555

#END
