
#######################################################################
#
#                 Cambridge Crystallographic Data Centre
#                                CCDC 
#
#######################################################################
#
# If this CIF has been generated from an entry in the Cambridge 
# Structural Database, then it will include bibliographic, chemical, 
# crystal, experimental, refinement or atomic coordinate data resulting 
# from the CCDC's data processing and validation procedures.
#
#######################################################################

data_HIVVEO
_chemical_name_common            
'3-methyl-1-phenyl-4-(2,3,4-trihydroxyphenyl)imidazolidin-2-one monohydrate'
_chemical_formula_moiety         'C16 H16 N2 O4,H2 O1'
_chemical_name_systematic        
'5-(2,3,4-trihydroxyphenyl)-1-methyl-3-phenylimidazolidin-2-one monohydrate'
_symmetry_cell_setting           triclinic
_symmetry_space_group_name_H-M   'P -1'
_symmetry_Int_Tables_number      2
_space_group_name_Hall           '-P 1'
loop_
_symmetry_equiv_pos_site_id
_symmetry_equiv_pos_as_xyz
1 x,y,z
2 -x,-y,-z
_cell_length_a                   10.663(3)
_cell_length_b                   11.0674(18)
_cell_length_c                   14.8613(13)
_cell_angle_alpha                81.876(12)
_cell_angle_beta                 75.281(16)
_cell_angle_gamma                65.644(16)
_cell_volume                     1543.96
_exptl_crystal_colour            colorless
_exptl_crystal_description       prism
_chemical_melting_point          '150-151 deg.C'
_cell_formula_units_Z            4
loop_
_atom_site_label
_atom_site_type_symbol
_atom_site_fract_x
_atom_site_fract_y
_atom_site_fract_z
C1 C -0.1020(3) 0.6524(2) 1.1212(2)
H1 H -0.1604 0.7105 1.1721
H2 H -0.1177 0.7011 1.0627
C2 C 0.0556(3) 0.5981(2) 1.12508(18)
H3 H 0.1109 0.6136 1.0644
C3 C -0.0179(2) 0.4227(2) 1.14343(15)
C4 C 0.2343(3) 0.3617(3) 1.1349(2)
H4 H 0.2395 0.2741 1.1300
H5 H 0.2662 0.3642 1.1892
H6 H 0.2931 0.3842 1.0805
C5 C -0.2680(2) 0.5433(2) 1.12650(15)
C6 C -0.2965(3) 0.4325(3) 1.12424(19)
H7 H -0.2261 0.3479 1.1266
C7 C -0.4288(3) 0.4477(3) 1.1184(2)
H8 H -0.4472 0.3728 1.1175
C8 C -0.5346(3) 0.5716(3) 1.1140(2)
H9 H -0.6234 0.5809 1.1092
C9 C -0.5068(3) 0.6812(3) 1.1168(2)
H10 H -0.5778 0.7653 1.1145
C10 C -0.3747(3) 0.6685(3) 1.1230(2)
H11 H -0.3574 0.7437 1.1249
C11 C 0.0808(2) 0.6594(2) 1.19972(16)
C12 C 0.0901(3) 0.6019(3) 1.28861(18)
H12 H 0.0847 0.5193 1.3031
C13 C 0.1071(3) 0.6654(3) 1.35603(18)
H13 H 0.1132 0.6255 1.4151
C14 C 0.1151(3) 0.7874(3) 1.33525(17)
C15 C 0.1077(3) 0.8458(2) 1.24680(16)
C16 C 0.0910(2) 0.7814(2) 1.18029(15)
N1 N 0.0898(2) 0.45626(19) 1.14231(16)
N2 N -0.1326(2) 0.53419(17) 1.12957(14)
O1 O -0.01275(19) 0.30760(15) 1.15656(13)
O2 O 0.1285(2) 0.86095(19) 1.39614(13)
H14 H 0.1447 0.8160 1.4439
O3 O 0.1178(3) 0.96454(19) 1.22003(13)
H15 H 0.1287 0.9942 1.2637
O4 O 0.0853(2) 0.84007(16) 1.09256(11)
H16 H 0.0845 0.9146 1.0919
C17 C -0.4994(3) 0.3552(3) 1.37620(19)
H17 H -0.5257 0.3907 1.3171
H18 H -0.5800 0.3943 1.4264
C18 C -0.4459(3) 0.2024(3) 1.38244(17)
H19 H -0.5144 0.1754 1.4286
C19 C -0.2802(2) 0.2670(2) 1.41557(15)
C20 C -0.2399(3) 0.0298(3) 1.4459(2)
H20 H -0.1528 0.0231 1.4578
H21 H -0.2202 -0.0285 1.3975
H22 H -0.2944 0.0049 1.5016
C21 C -0.3816(3) 0.5098(2) 1.37888(16)
C22 C -0.5046(3) 0.6173(3) 1.36739(19)
H23 H -0.5835 0.6028 1.3648
C23 C -0.5109(3) 0.7454(3) 1.3598(2)
H24 H -0.5936 0.8160 1.3512
C24 C -0.3977(4) 0.7697(3) 1.3647(2)
H25 H -0.4032 0.8563 1.3605
C25 C -0.2750(3) 0.6645(3) 1.3759(2)
H26 H -0.1971 0.6805 1.3787
C26 C -0.2659(3) 0.5356(3) 1.3830(2)
H27 H -0.1821 0.4657 1.3906
C27 C -0.4174(3) 0.1421(2) 1.29048(17)
C28 C -0.2899(3) 0.1152(3) 1.22673(18)
H28 H -0.2183 0.1299 1.2423
C29 C -0.2670(3) 0.0671(3) 1.14054(19)
H29 H -0.1822 0.0526 1.0977
C30 C -0.3716(3) 0.0407(2) 1.11868(17)
C31 C -0.4985(2) 0.0647(2) 1.18098(17)
C32 C -0.5221(2) 0.1167(2) 1.26707(17)
N3 N -0.3185(2) 0.1649(2) 1.41724(15)
N4 N -0.3782(2) 0.3806(2) 1.38461(14)
O5 O -0.17287(18) 0.25830(18) 1.43977(12)
O6 O -0.35714(19) -0.0095(2) 1.03476(13)
H30 H -0.2742 -0.0360 1.0071
O7 O -0.60432(19) 0.0377(2) 1.16302(14)
H31 H -0.5856 0.0205 1.1081
O8 O -0.64500(19) 0.1418(2) 1.33134(13)
H32 H -0.7025 0.1326 1.3083
O9 O -0.0739(2) 0.90205(17) 0.95692(12)
H33 H -0.021(3) 0.864(3) 0.9965(19)
H34 H -0.044(4) 0.844(3) 0.915(2)
O10 O 0.0937(2) 0.1686(2) 1.31298(15)
H35 H 0.057(4) 0.212(4) 1.265(2)
H36 H 0.022(4) 0.184(5) 1.360(2)
loop_
_geom_bond_atom_site_label_1
_geom_bond_atom_site_label_2
_geom_bond_site_symmetry_1
_geom_bond_site_symmetry_2
C1 H1 1_555 1_555
H2 C1 1_555 1_555
C2 C1 1_555 1_555
H3 C2 1_555 1_555
C3 N1 1_555 1_555
C4 H4 1_555 1_555
H5 C4 1_555 1_555
H6 C4 1_555 1_555
C5 C6 1_555 1_555
C6 H7 1_555 1_555
C7 C6 1_555 1_555
H8 C7 1_555 1_555
C8 C7 1_555 1_555
H9 C8 1_555 1_555
C9 C8 1_555 1_555
H10 C9 1_555 1_555
C10 C5 1_555 1_555
H11 C10 1_555 1_555
C11 C2 1_555 1_555
C12 C11 1_555 1_555
H12 C12 1_555 1_555
C13 C12 1_555 1_555
H13 C13 1_555 1_555
C14 C13 1_555 1_555
C15 C14 1_555 1_555
C16 C11 1_555 1_555
N1 C2 1_555 1_555
N2 C1 1_555 1_555
O1 C3 1_555 1_555
O2 C14 1_555 1_555
H14 O2 1_555 1_555
O3 C15 1_555 1_555
H15 O3 1_555 1_555
O4 C16 1_555 1_555
H16 O4 1_555 1_555
C17 H17 1_555 1_555
H18 C17 1_555 1_555
C18 C17 1_555 1_555
H19 C18 1_555 1_555
C19 N3 1_555 1_555
C20 H20 1_555 1_555
H21 C20 1_555 1_555
H22 C20 1_555 1_555
C21 C22 1_555 1_555
C22 H23 1_555 1_555
C23 C22 1_555 1_555
H24 C23 1_555 1_555
C24 C23 1_555 1_555
H25 C24 1_555 1_555
C25 C24 1_555 1_555
H26 C25 1_555 1_555
C26 C21 1_555 1_555
H27 C26 1_555 1_555
C27 C18 1_555 1_555
C28 C27 1_555 1_555
H28 C28 1_555 1_555
C29 C28 1_555 1_555
H29 C29 1_555 1_555
C30 C29 1_555 1_555
C31 C30 1_555 1_555
C32 C27 1_555 1_555
N3 C18 1_555 1_555
N4 C17 1_555 1_555
O5 C19 1_555 1_555
O6 C30 1_555 1_555
H30 O6 1_555 1_555
O7 C31 1_555 1_555
H31 O7 1_555 1_555
O8 C32 1_555 1_555
H32 O8 1_555 1_555
O9 H33 1_555 1_555
H34 O9 1_555 1_555
O10 H35 1_555 1_555
H36 O10 1_555 1_555
C3 N2 1_555 1_555
C4 N1 1_555 1_555
C5 N2 1_555 1_555
C9 C10 1_555 1_555
C15 C16 1_555 1_555
C19 N4 1_555 1_555
C20 N3 1_555 1_555
C21 N4 1_555 1_555
C25 C26 1_555 1_555
C31 C32 1_555 1_555

#END
