
#######################################################################
#
#                 Cambridge Crystallographic Data Centre
#                                CCDC 
#
#######################################################################
#
# If this CIF has been generated from an entry in the Cambridge 
# Structural Database, then it will include bibliographic, chemical, 
# crystal, experimental, refinement or atomic coordinate data resulting 
# from the CCDC's data processing and validation procedures.
#
#######################################################################

data_HIVXEQ
_chemical_name_common            
(S,S)-alpha-Methylbenzyl-3-(1-adamantyl)-lactamide
_chemical_formula_moiety         'C21 H29 N1 O2'
_chemical_name_systematic        
'(S)-1-phenylethyl (S)-3-(1-adamantyl)-lactamide'
_symmetry_cell_setting           orthorhombic
_symmetry_space_group_name_H-M   'P 21 21 21'
_symmetry_Int_Tables_number      19
_space_group_name_Hall           'P 2ac 2ab'
loop_
_symmetry_equiv_pos_site_id
_symmetry_equiv_pos_as_xyz
1 x,y,z
2 1/2-x,-y,1/2+z
3 -x,1/2+y,1/2-z
4 1/2+x,1/2-y,-z
_cell_length_a                   10.386(2)
_cell_length_b                   18.795(4)
_cell_length_c                   28.311(6)
_cell_angle_alpha                90
_cell_angle_beta                 90
_cell_angle_gamma                90
_cell_volume                     5526.45
_exptl_crystal_colour            'light yellow'
_exptl_crystal_description       needle
_cell_formula_units_Z            12
loop_
_atom_site_label
_atom_site_type_symbol
_atom_site_fract_x
_atom_site_fract_y
_atom_site_fract_z
O1 O 0.28650(14) 0.33531(8) 0.30317(5)
H1 H 0.3185 0.3663 0.2865
O2 O 0.45087(15) 0.16910(8) 0.29060(5)
N1 N 0.28424(18) 0.21713(11) 0.25092(7)
C1 C 0.3826(2) 0.28418(12) 0.31527(7)
H2 H 0.4677 0.3060 0.3117
C2 C 0.3751(2) 0.21836(12) 0.28391(7)
C3 C 0.3654(2) 0.26104(12) 0.36646(7)
H3 H 0.4036 0.2142 0.3698
H4 H 0.2738 0.2558 0.3722
C4 C 0.3695(2) 0.15151(13) 0.18225(8)
C5 C 0.4242(2) 0.08689(13) 0.17040(8)
H5 H 0.3974 0.0458 0.1859
C6 C 0.4097(2) 0.21207(13) 0.15791(8)
H6 H 0.3730 0.2559 0.1650
C7 C 0.5683(2) 0.31373(14) 0.40233(8)
H7 H 0.6056 0.2664 0.4024
H8 H 0.5919 0.3367 0.3729
C8 C 0.3659(2) 0.38356(12) 0.40592(8)
H9 H 0.2727 0.3814 0.4078
H10 H 0.3886 0.4072 0.3766
C9 C 0.4204(2) 0.30819(12) 0.40571(8)
C10 C 0.4177(2) 0.42678(13) 0.44768(8)
H11 H 0.3808 0.4748 0.4472
C11 C 0.2670(2) 0.15581(13) 0.22021(8)
H12 H 0.2731 0.1128 0.2397
C12 C 0.3866(2) 0.27325(12) 0.45296(8)
H13 H 0.4212 0.2253 0.4536
H14 H 0.2938 0.2700 0.4559
C13 C 0.5644(2) 0.43108(14) 0.44334(9)
H15 H 0.5873 0.4549 0.4141
H16 H 0.5991 0.4585 0.4694
C14 C 0.5577(2) 0.14339(14) 0.11239(8)
H17 H 0.6210 0.1407 0.0892
C15 C 0.5876(3) 0.31950(15) 0.48993(9)
H18 H 0.6235 0.3457 0.5163
H19 H 0.6237 0.2719 0.4902
C16 C 0.6217(2) 0.35648(14) 0.44387(9)
H20 H 0.7156 0.3597 0.4410
C17 C 0.1325(2) 0.15829(13) 0.19846(8)
H21 H 0.0696 0.1636 0.2231
H22 H 0.1165 0.1149 0.1815
H23 H 0.1268 0.1979 0.1771
C18 C 0.5033(2) 0.20766(14) 0.12338(8)
H24 H 0.5295 0.2485 0.1075
C19 C 0.5185(2) 0.08237(14) 0.13577(8)
H25 H 0.5550 0.0386 0.1283
C20 C 0.4407(3) 0.31545(15) 0.49481(8)
H26 H 0.4180 0.2918 0.5245
C21 C 0.3837(3) 0.39009(14) 0.49385(8)
H27 H 0.2908 0.3874 0.4971
H28 H 0.4171 0.4175 0.5202
H85 H 0.2361(19) 0.2524(11) 0.2468(7)
O3 O 1.13715(13) 0.34976(8) 0.20773(5)
H29 H 1.1873 0.3821 0.2141
O4 O 0.82730(14) 0.42036(10) 0.23976(6)
C22 C 0.9397(2) 0.32733(12) 0.16624(7)
H30 H 0.8483 0.3359 0.1706
H31 H 0.9571 0.2796 0.1776
N2 N 0.98930(18) 0.37340(11) 0.28300(7)
C23 C 0.9345(2) 0.39294(12) 0.24235(8)
C24 C 0.9112(2) 0.26662(14) 0.03654(8)
H32 H 0.8622 0.2271 0.0229
C25 C 1.1115(2) 0.31758(12) 0.10122(8)
H33 H 1.1622 0.3554 0.1153
H34 H 1.1406 0.2727 0.1143
C26 C 1.0123(2) 0.37900(12) 0.19760(7)
H35 H 1.0234 0.4240 0.1806
C27 C 0.9675(2) 0.32874(13) 0.11294(7)
C28 C 1.0825(2) 0.47757(14) 0.35329(8)
H36 H 1.1458 0.4567 0.3346
C29 C 1.1309(2) 0.31755(13) 0.04767(8)
H37 H 1.2227 0.3113 0.0407
C30 C 0.9417(2) 0.39779(14) 0.03722(8)
H38 H 0.9120 0.4430 0.0239
C31 C 1.1123(3) 0.53629(14) 0.38033(8)
H39 H 1.1954 0.5547 0.3796
C32 C 0.8913(2) 0.26843(13) 0.09009(8)
H40 H 0.8005 0.2746 0.0969
H41 H 0.9184 0.2234 0.1036
C33 C 0.9592(2) 0.44934(13) 0.35363(7)
C34 C 0.8671(3) 0.48278(14) 0.38108(8)
H42 H 0.7832 0.4656 0.3811
C35 C 0.9246(2) 0.39876(13) 0.09096(8)
H43 H 0.9747 0.4374 0.1043
H44 H 0.8347 0.4071 0.0985
C36 C 1.0852(2) 0.38827(14) 0.02705(8)
H45 H 1.0999 0.3889 -0.0068
H46 H 1.1334 0.4271 0.0410
C37 C 0.8654(2) 0.33659(15) 0.01559(8)
H47 H 0.7744 0.3429 0.0220
H48 H 0.8774 0.3361 -0.0184
C38 C 0.8974(3) 0.54123(14) 0.40851(9)
H49 H 0.8344 0.5625 0.4271
C39 C 1.0210(3) 0.56797(14) 0.40834(8)
H50 H 1.0423 0.6070 0.4270
C40 C 0.9261(2) 0.38110(13) 0.32861(8)
H51 H 0.8328 0.3803 0.3234
C41 C 0.9615(3) 0.31707(13) 0.35938(8)
H52 H 0.9337 0.2741 0.3441
H53 H 0.9199 0.3213 0.3895
H54 H 1.0531 0.3157 0.3638
C42 C 1.0557(2) 0.25685(14) 0.02581(8)
H55 H 1.0853 0.2119 0.0387
H56 H 1.0693 0.2561 -0.0081
H86 H 1.071(2) 0.3558(12) 0.2808(7)
O5 O 0.56214(14) 0.42471(9) 0.26160(5)
H57 H 0.6362 0.4108 0.2576
O6 O 0.30153(14) 0.45032(8) 0.24399(5)
N3 N 0.37139(17) 0.56346(10) 0.23775(7)
C43 C 0.5114(2) 0.46292(12) 0.12941(7)
C44 C 0.3887(2) 0.49355(12) 0.23550(7)
C45 C 0.5239(2) 0.46768(12) 0.22250(7)
H58 H 0.5820 0.5086 0.2198
C46 C 0.1543(2) 0.59631(12) 0.20975(8)
C47 C 0.0342(2) 0.56589(13) 0.21432(9)
H59 H 0.0123 0.5430 0.2423
C48 C 0.2474(2) 0.59509(13) 0.25102(8)
H60 H 0.2095 0.5662 0.2762
C49 C 0.3967(2) 0.47150(13) 0.03322(8)
H61 H 0.3893 0.4946 0.0027
H62 H 0.3378 0.4315 0.0339
C50 C 0.4520(2) 0.58736(12) 0.06982(8)
H63 H 0.4298 0.6215 0.0942
H64 H 0.4432 0.6105 0.0394
C51 C 0.3621(2) 0.52408(12) 0.07245(8)
H65 H 0.2733 0.5404 0.0679
C52 C 0.5276(2) 0.42469(12) 0.17703(7)
H66 H 0.4607 0.3888 0.1791
H67 H 0.6093 0.3997 0.1762
C53 C 0.6032(2) 0.52648(12) 0.12508(7)
H68 H 0.5835 0.5609 0.1496
H69 H 0.6910 0.5104 0.1297
C54 C 0.3736(2) 0.48860(12) 0.12111(8)
H70 H 0.3499 0.5224 0.1455
H71 H 0.3150 0.4485 0.1229
C55 C 0.6258(2) 0.50888(13) 0.03811(8)
H72 H 0.7139 0.4929 0.0422
H73 H 0.6188 0.5314 0.0074
C56 C 0.2710(2) 0.66972(13) 0.27032(8)
H74 H 0.3301 0.6673 0.2963
H75 H 0.1910 0.6898 0.2809
H76 H 0.3068 0.6991 0.2459
C57 C 0.5423(2) 0.41021(12) 0.08936(8)
H77 H 0.6281 0.3911 0.0940
H78 H 0.4819 0.3709 0.0906
C58 C 0.5915(2) 0.56217(13) 0.07664(8)
H79 H 0.6500 0.6030 0.0750
C59 C 0.1864(2) 0.62951(13) 0.16784(8)
H80 H 0.2670 0.6505 0.1645
C60 C 0.0988(3) 0.63180(15) 0.13060(9)
H81 H 0.1214 0.6534 0.1023
C61 C 0.5348(2) 0.44541(13) 0.04066(8)
H82 H 0.5573 0.4108 0.0161
C62 C -0.0545(3) 0.56901(15) 0.17765(11)
H83 H -0.1358 0.5490 0.1813
C63 C -0.0218(3) 0.60176(16) 0.13595(11)
H84 H -0.0809 0.6037 0.1113
H87 H 0.436(2) 0.5934(11) 0.2328(7)
loop_
_geom_bond_atom_site_label_1
_geom_bond_atom_site_label_2
_geom_bond_site_symmetry_1
_geom_bond_site_symmetry_2
O1 H1 1_555 1_555
O2 C2 1_555 1_555
N1 C2 1_555 1_555
C1 O1 1_555 1_555
H2 C1 1_555 1_555
C2 C1 1_555 1_555
C3 C1 1_555 1_555
H3 C3 1_555 1_555
H4 C3 1_555 1_555
C4 C5 1_555 1_555
C5 H5 1_555 1_555
C6 C4 1_555 1_555
H6 C6 1_555 1_555
C7 H7 1_555 1_555
H8 C7 1_555 1_555
C8 H9 1_555 1_555
H10 C8 1_555 1_555
C9 C3 1_555 1_555
C10 C8 1_555 1_555
H11 C10 1_555 1_555
C11 N1 1_555 1_555
H12 C11 1_555 1_555
C12 C9 1_555 1_555
H13 C12 1_555 1_555
H14 C12 1_555 1_555
C13 C10 1_555 1_555
H15 C13 1_555 1_555
H16 C13 1_555 1_555
C14 H17 1_555 1_555
C15 H18 1_555 1_555
H19 C15 1_555 1_555
C16 C7 1_555 1_555
H20 C16 1_555 1_555
C17 C11 1_555 1_555
H21 C17 1_555 1_555
H22 C17 1_555 1_555
H23 C17 1_555 1_555
C18 C6 1_555 1_555
H24 C18 1_555 1_555
C19 C5 1_555 1_555
H25 C19 1_555 1_555
C20 C12 1_555 1_555
H26 C20 1_555 1_555
C21 C10 1_555 1_555
H27 C21 1_555 1_555
H28 C21 1_555 1_555
O3 H29 1_555 1_555
O4 C23 1_555 1_555
C22 H30 1_555 1_555
H31 C22 1_555 1_555
N2 C23 1_555 1_555
C23 C26 1_555 1_555
C24 H32 1_555 1_555
C25 H33 1_555 1_555
H34 C25 1_555 1_555
C26 O3 1_555 1_555
H35 C26 1_555 1_555
C27 C22 1_555 1_555
C28 H36 1_555 1_555
C29 C25 1_555 1_555
H37 C29 1_555 1_555
C30 H38 1_555 1_555
C31 C28 1_555 1_555
H39 C31 1_555 1_555
C32 C24 1_555 1_555
H40 C32 1_555 1_555
H41 C32 1_555 1_555
C33 C28 1_555 1_555
C34 C33 1_555 1_555
H42 C34 1_555 1_555
C35 C27 1_555 1_555
H43 C35 1_555 1_555
H44 C35 1_555 1_555
C36 C29 1_555 1_555
H45 C36 1_555 1_555
H46 C36 1_555 1_555
C37 C24 1_555 1_555
H47 C37 1_555 1_555
H48 C37 1_555 1_555
C38 C34 1_555 1_555
H49 C38 1_555 1_555
C39 C31 1_555 1_555
H50 C39 1_555 1_555
C40 N2 1_555 1_555
H51 C40 1_555 1_555
C41 C40 1_555 1_555
H52 C41 1_555 1_555
H53 C41 1_555 1_555
H54 C41 1_555 1_555
C42 C24 1_555 1_555
H55 C42 1_555 1_555
H56 C42 1_555 1_555
O5 H57 1_555 1_555
O6 C44 1_555 1_555
N3 C44 1_555 1_555
C43 C52 1_555 1_555
C44 C45 1_555 1_555
C45 O5 1_555 1_555
H58 C45 1_555 1_555
C46 C47 1_555 1_555
C47 H59 1_555 1_555
C48 N3 1_555 1_555
H60 C48 1_555 1_555
C49 H61 1_555 1_555
H62 C49 1_555 1_555
C50 H63 1_555 1_555
H64 C50 1_555 1_555
C51 C49 1_555 1_555
H65 C51 1_555 1_555
C52 C45 1_555 1_555
H66 C52 1_555 1_555
H67 C52 1_555 1_555
C53 C43 1_555 1_555
H68 C53 1_555 1_555
H69 C53 1_555 1_555
C54 C43 1_555 1_555
H70 C54 1_555 1_555
H71 C54 1_555 1_555
C55 H72 1_555 1_555
H73 C55 1_555 1_555
C56 C48 1_555 1_555
H74 C56 1_555 1_555
H75 C56 1_555 1_555
H76 C56 1_555 1_555
C57 C43 1_555 1_555
H77 C57 1_555 1_555
H78 C57 1_555 1_555
C58 C50 1_555 1_555
H79 C58 1_555 1_555
C59 C46 1_555 1_555
H80 C59 1_555 1_555
C60 C59 1_555 1_555
H81 C60 1_555 1_555
C61 C49 1_555 1_555
H82 C61 1_555 1_555
C62 C47 1_555 1_555
H83 C62 1_555 1_555
C63 C60 1_555 1_555
H84 C63 1_555 1_555
H85 N1 1_555 1_555
H86 N2 1_555 1_555
H87 N3 1_555 1_555
C4 C11 1_555 1_555
C7 C9 1_555 1_555
C8 C9 1_555 1_555
C13 C16 1_555 1_555
C14 C18 1_555 1_555
C14 C19 1_555 1_555
C15 C16 1_555 1_555
C15 C20 1_555 1_555
C20 C21 1_555 1_555
C22 C26 1_555 1_555
C25 C27 1_555 1_555
C27 C32 1_555 1_555
C29 C42 1_555 1_555
C30 C35 1_555 1_555
C30 C36 1_555 1_555
C30 C37 1_555 1_555
C33 C40 1_555 1_555
C38 C39 1_555 1_555
C46 C48 1_555 1_555
C50 C51 1_555 1_555
C51 C54 1_555 1_555
C53 C58 1_555 1_555
C55 C58 1_555 1_555
C55 C61 1_555 1_555
C57 C61 1_555 1_555
C62 C63 1_555 1_555

#END
