
#######################################################################
#
#                 Cambridge Crystallographic Data Centre
#                                CCDC 
#
#######################################################################
#
# If this CIF has been generated from an entry in the Cambridge 
# Structural Database, then it will include bibliographic, chemical, 
# crystal, experimental, refinement or atomic coordinate data resulting 
# from the CCDC's data processing and validation procedures.
#
#######################################################################

data_HIVZUI
_chemical_formula_moiety         'C16 H23 N3 O5,H2 O1'
_chemical_name_systematic        
'Tyrosyl-\a-aminoisobutyryl-alanine monohydrate'
_symmetry_cell_setting           monoclinic
_symmetry_space_group_name_H-M   'P 21'
_symmetry_Int_Tables_number      4
_space_group_name_Hall           'P 2yb'
loop_
_symmetry_equiv_pos_site_id
_symmetry_equiv_pos_as_xyz
1 x,y,z
2 -x,1/2+y,-z
_cell_length_a                   6.196(4)
_cell_length_b                   15.428(11)
_cell_length_c                   9.697(7)
_cell_angle_alpha                90
_cell_angle_beta                 94.494(12)
_cell_angle_gamma                90
_cell_volume                     924.105
_cell_formula_units_Z            2
_exptl_crystal_recrystallization_method water/methanol
loop_
_atom_site_label
_atom_site_type_symbol
_atom_site_fract_x
_atom_site_fract_y
_atom_site_fract_z
N1 N 1.0285(9) 0.1527(5) 0.9495(6)
H1 H 1.1461 0.1195 0.9603
H2 H 0.9111 0.1203 0.9564
H3 H 1.0347 0.1934 1.0148
C1 C 1.0181(12) 0.1948(5) 0.8098(8)
H4 H 1.1482 0.2300 0.8015
C2 C 0.8203(15) 0.2518(5) 0.7935(8)
O1 O 0.6363(9) 0.2213(4) 0.7945(6)
C3 C 1.0046(15) 0.1246(6) 0.6997(8)
H5 H 1.1322 0.0882 0.7126
H6 H 0.8792 0.0886 0.7118
C4 C 0.9885(15) 0.1592(6) 0.5562(9)
C5 C 1.1253(18) 0.2441(9) 0.3766(10)
H7 H 1.2342 0.2792 0.3463
C6 C 1.1513(15) 0.2085(8) 0.5088(11)
H8 H 1.2781 0.2181 0.5646
C7 C 0.8172(16) 0.1428(7) 0.4690(10)
H9 H 0.7095 0.1066 0.4979
C8 C 0.7920(16) 0.1778(7) 0.3350(10)
H10 H 0.6696 0.1657 0.2764
C9 C 0.9512(16) 0.2296(6) 0.2935(9)
O2 O 0.9240(10) 0.2630(5) 0.1590(6)
H11 H 0.995(11) 0.334(6) 0.146(7)
N2 N 0.8520(10) 0.3354(4) 0.7748(6)
H12 H 0.9833 0.3537 0.7862
C10 C 0.6863(11) 0.3997(5) 0.7368(7)
C11 C 0.4982(11) 0.3901(5) 0.8431(7)
O3 O 0.3166(8) 0.3778(4) 0.7978(5)
C12 C 0.5899(14) 0.3853(7) 0.5899(8)
H13 H 0.5300 0.3280 0.5817
H14 H 0.7009 0.3917 0.5269
H15 H 0.4777 0.4272 0.5681
C13 C 0.7802(13) 0.4886(5) 0.7529(9)
H16 H 0.8403 0.4965 0.8464
H17 H 0.6687 0.5308 0.7319
H18 H 0.8921 0.4957 0.6907
N3 N 0.5707(8) 0.3991(4) 0.9710(6)
H19 H 0.7044 0.4117 0.9918
C14 C 0.4190(11) 0.3873(6) 1.0824(7)
H20 H 0.3764 0.3262 1.0867
C15 C 0.2183(16) 0.4432(6) 1.0569(8)
O4 O 0.2332(8) 0.5186(4) 1.0110(6)
C16 C 0.5316(14) 0.4137(8) 1.2181(8)
H21 H 0.6571 0.3780 1.2378
H22 H 0.4348 0.4068 1.2900
H23 H 0.5750 0.4733 1.2135
O5 O 0.0364(8) 0.4134(4) 1.0922(6)
O6 O 0.5425(8) 0.6348(4) 0.9880(7)
loop_
_geom_bond_atom_site_label_1
_geom_bond_atom_site_label_2
_geom_bond_site_symmetry_1
_geom_bond_site_symmetry_2
N1 H1 1_555 1_555
H2 N1 1_555 1_555
H3 N1 1_555 1_555
C1 N1 1_555 1_555
H4 C1 1_555 1_555
C2 C1 1_555 1_555
O1 C2 1_555 1_555
C3 C1 1_555 1_555
H5 C3 1_555 1_555
H6 C3 1_555 1_555
C4 C3 1_555 1_555
C5 H7 1_555 1_555
C6 C4 1_555 1_555
H8 C6 1_555 1_555
C7 C4 1_555 1_555
H9 C7 1_555 1_555
C8 C7 1_555 1_555
H10 C8 1_555 1_555
C9 C5 1_555 1_555
O2 C9 1_555 1_555
H11 O2 1_555 1_555
N2 C2 1_555 1_555
H12 N2 1_555 1_555
C10 N2 1_555 1_555
C11 C10 1_555 1_555
O3 C11 1_555 1_555
C12 C10 1_555 1_555
H13 C12 1_555 1_555
H14 C12 1_555 1_555
H15 C12 1_555 1_555
C13 C10 1_555 1_555
H16 C13 1_555 1_555
H17 C13 1_555 1_555
H18 C13 1_555 1_555
N3 C11 1_555 1_555
H19 N3 1_555 1_555
C14 N3 1_555 1_555
H20 C14 1_555 1_555
C15 C14 1_555 1_555
O4 C15 1_555 1_555
C16 C14 1_555 1_555
H21 C16 1_555 1_555
H22 C16 1_555 1_555
H23 C16 1_555 1_555
O5 C15 1_555 1_555
C5 C6 1_555 1_555
C8 C9 1_555 1_555

#END
