
#######################################################################
#
#                 Cambridge Crystallographic Data Centre
#                                CCDC 
#
#######################################################################
#
# If this CIF has been generated from an entry in the Cambridge 
# Structural Database, then it will include bibliographic, chemical, 
# crystal, experimental, refinement or atomic coordinate data resulting 
# from the CCDC's data processing and validation procedures.
#
#######################################################################

data_HIWBAR
_chemical_formula_moiety         'C7 H16 N1 O3 1+,Cl1 1-'
_chemical_name_systematic        
'(3R,4R,5S,6S)-4,5,6-trihydroxy-3-methylazepanium chloride'
_chemical_properties_biological  
'inhibits both yeast alpha-glucosidase and snail beta-mannosidase'
_symmetry_cell_setting           orthorhombic
_symmetry_space_group_name_H-M   'P 21 21 21'
_symmetry_Int_Tables_number      19
_space_group_name_Hall           'P 2ac 2ab'
loop_
_symmetry_equiv_pos_site_id
_symmetry_equiv_pos_as_xyz
1 x,y,z
2 1/2-x,-y,1/2+z
3 -x,1/2+y,1/2-z
4 1/2+x,1/2-y,-z
_cell_length_a                   8.4674(3)
_cell_length_b                   8.5384(3)
_cell_length_c                   13.2813(4)
_cell_angle_alpha                90
_cell_angle_beta                 90
_cell_angle_gamma                90
_cell_volume                     960.212
_exptl_crystal_colour            colorless
_exptl_crystal_description       platelet
_cell_formula_units_Z            4
loop_
_atom_site_label
_atom_site_type_symbol
_atom_site_fract_x
_atom_site_fract_y
_atom_site_fract_z
Cl1 Cl 1.07807(3) 0.95005(3) 0.822516(19)
N1 N 1.17827(11) 0.86614(11) 0.46009(8)
H1 H 1.2644 0.8919 0.4240
H2 H 1.2021 0.7783 0.4944
C1 C 1.15242(13) 0.99308(14) 0.53543(10)
H3 H 1.1821 1.0919 0.5048
H4 H 1.2231 0.9754 0.5918
C2 C 0.98583(13) 1.00878(12) 0.57606(8)
H5 H 0.9938 1.0715 0.6377
C3 C 0.87256(13) 1.09640(12) 0.50632(8)
H6 H 0.7750 1.1170 0.5437
C4 C 0.82804(12) 1.02348(12) 0.40587(7)
H7 H 0.7730 1.1042 0.3669
C5 C 0.96509(13) 0.96560(12) 0.34121(7)
H8 H 1.0409 1.0513 0.3329
C6 C 1.05033(14) 0.82604(13) 0.38740(9)
H9 H 0.9732 0.7611 0.4217
H10 H 1.0956 0.7640 0.3334
O1 O 0.92284(11) 0.86092(9) 0.60536(6)
H11 H 0.9526 0.8397 0.6625
O2 O 0.94299(12) 1.24331(9) 0.48192(6)
H12 H 0.9502 1.2968 0.5330
O3 O 0.71800(10) 0.89820(10) 0.42167(7)
H13 H 0.6320 0.9223 0.3978
C7 C 0.9041(2) 0.91711(17) 0.23672(10)
H14 H 0.9921 0.8990 0.1926
H15 H 0.8393 0.9992 0.2097
H16 H 0.8429 0.8229 0.2426
loop_
_geom_bond_atom_site_label_1
_geom_bond_atom_site_label_2
_geom_bond_site_symmetry_1
_geom_bond_site_symmetry_2
N1 H1 1_555 1_555
H2 N1 1_555 1_555
C1 N1 1_555 1_555
H3 C1 1_555 1_555
H4 C1 1_555 1_555
C2 C1 1_555 1_555
H5 C2 1_555 1_555
C3 C2 1_555 1_555
H6 C3 1_555 1_555
C4 C3 1_555 1_555
H7 C4 1_555 1_555
C5 C4 1_555 1_555
H8 C5 1_555 1_555
C6 N1 1_555 1_555
H9 C6 1_555 1_555
H10 C6 1_555 1_555
O1 C2 1_555 1_555
H11 O1 1_555 1_555
O2 C3 1_555 1_555
H12 O2 1_555 1_555
O3 C4 1_555 1_555
H13 O3 1_555 1_555
C7 C5 1_555 1_555
H14 C7 1_555 1_555
H15 C7 1_555 1_555
H16 C7 1_555 1_555
C5 C6 1_555 1_555

#END
