
#######################################################################
#
#                 Cambridge Crystallographic Data Centre
#                                CCDC 
#
#######################################################################
#
# If this CIF has been generated from an entry in the Cambridge 
# Structural Database, then it will include bibliographic, chemical, 
# crystal, experimental, refinement or atomic coordinate data resulting 
# from the CCDC's data processing and validation procedures.
#
#######################################################################

data_HIWGOL
_chemical_formula_moiety         'C28 H26 N4 S4'
_chemical_name_systematic        
2,2'-(3,7-dihexylthieno[3,2-b]thieno[2',3':4,5]thieno[2,3-d]thiene-2,6-diylidene)dimalononitrile
_symmetry_cell_setting           triclinic
_symmetry_space_group_name_H-M   'P -1'
_symmetry_Int_Tables_number      2
_space_group_name_Hall           '-P 1'
loop_
_symmetry_equiv_pos_site_id
_symmetry_equiv_pos_as_xyz
1 x,y,z
2 -x,-y,-z
_cell_length_a                   5.2700(8)
_cell_length_b                   7.2800(11)
_cell_length_c                   18.461(3)
_cell_angle_alpha                92.723(2)
_cell_angle_beta                 96.980(3)
_cell_angle_gamma                110.788(3)
_cell_volume                     654.109
_exptl_crystal_colour            blue
_exptl_crystal_description       plate
_cell_formula_units_Z            1
loop_
_atom_site_label
_atom_site_type_symbol
_atom_site_fract_x
_atom_site_fract_y
_atom_site_fract_z
S1 S 0.33795(5) 0.66208(4) 0.952524(14)
S2 S 1.07198(5) 1.05062(4) 0.890219(14)
N1 N -0.3500(2) 0.34582(16) 0.88649(6)
N2 N -0.0811(3) 0.4850(2) 0.67652(7)
C1 C -0.1740(2) 0.42925(17) 0.85537(6)
C2 C 0.0457(2) 0.53523(17) 0.81720(6)
C3 C -0.0179(3) 0.50914(18) 0.73891(7)
C4 C 0.2971(2) 0.65549(16) 0.85628(6)
C5 C 0.5382(2) 0.78258(16) 0.82930(6)
C6 C 0.7394(2) 0.87849(16) 0.88757(6)
C7 C 0.6701(2) 0.83287(16) 0.95911(6)
C8 C 0.8809(2) 0.93591(15) 1.01406(6)
C9 C 0.5627(2) 0.81883(17) 0.75045(6)
H1 H 0.4833 0.6911 0.7196
H2 H 0.7592 0.8785 0.7451
C10 C 0.4149(2) 0.95640(17) 0.72322(6)
H3 H 0.2181 0.8956 0.7281
H4 H 0.4926 1.0830 0.7548
C11 C 0.4402(3) 0.99772(18) 0.64377(6)
H5 H 0.3674 0.8711 0.6122
H6 H 0.6365 1.0628 0.6390
C12 C 0.2847(3) 1.12931(19) 0.61742(7)
H7 H 0.0859 1.0568 0.6166
H8 H 0.3410 1.2479 0.6529
C13 C 0.3333(3) 1.1949(2) 0.54140(7)
H9 H 0.5326 1.2636 0.5415
H10 H 0.2703 1.0769 0.5054
C14 C 0.1843(3) 1.3321(2) 0.51741(8)
H11 H -0.0131 1.2653 0.5175
H12 H 0.2177 1.3668 0.4679
H13 H 0.2526 1.4524 0.5514
S1A S 1.66205(5) 1.33792(4) 1.047476(14)
S2A S 0.92802(5) 0.94938(4) 1.109781(14)
N1A N 2.3500(2) 1.65418(16) 1.11351(6)
N2A N 2.0811(3) 1.5150(2) 1.32348(7)
C1A C 2.1740(2) 1.57075(17) 1.14463(6)
C2A C 1.9543(2) 1.46477(17) 1.18280(6)
C3A C 2.0179(3) 1.49086(18) 1.26109(7)
C4A C 1.7029(2) 1.34451(16) 1.14372(6)
C5A C 1.4618(2) 1.21742(16) 1.17070(6)
C6A C 1.2606(2) 1.12151(16) 1.11243(6)
C7A C 1.3299(2) 1.16713(16) 1.04089(6)
C8A C 1.1191(2) 1.06409(15) 0.98594(6)
C9A C 1.4373(2) 1.18117(17) 1.24955(6)
H1A H 1.5167 1.3089 1.2804
H2A H 1.2408 1.1215 1.2549
C10A C 1.5851(2) 1.04360(17) 1.27678(6)
H3A H 1.7819 1.1044 1.2719
H4A H 1.5074 0.9170 1.2452
C11A C 1.5598(3) 1.00228(18) 1.35623(6)
H5A H 1.6326 1.1289 1.3878
H6A H 1.3635 0.9372 1.3610
C12A C 1.7153(3) 0.87069(19) 1.38258(7)
H7A H 1.9141 0.9432 1.3834
H8A H 1.6590 0.7521 1.3471
C13A C 1.6667(3) 0.8051(2) 1.45860(7)
H9A H 1.4674 0.7364 1.4585
H10A H 1.7297 0.9231 1.4946
C14A C 1.8157(3) 0.6679(2) 1.48259(8)
H11A H 2.0131 0.7347 1.4825
H12A H 1.7823 0.6332 1.5321
H13A H 1.7474 0.5476 1.4486
loop_
_geom_bond_atom_site_label_1
_geom_bond_atom_site_label_2
_geom_bond_site_symmetry_1
_geom_bond_site_symmetry_2
S1 C4 1_555 1_555
S2 C6 1_555 1_555
N1 C1 1_555 1_555
N2 C3 1_555 1_555
C1 C2 1_555 1_555
C2 C3 1_555 1_555
C4 C2 1_555 1_555
C5 C4 1_555 1_555
C6 C5 1_555 1_555
C7 S1 1_555 1_555
C8 C7 1_555 1_555
C9 C5 1_555 1_555
H1 C9 1_555 1_555
H2 C9 1_555 1_555
C10 C9 1_555 1_555
H3 C10 1_555 1_555
H4 C10 1_555 1_555
C11 C10 1_555 1_555
H5 C11 1_555 1_555
H6 C11 1_555 1_555
C12 C11 1_555 1_555
H7 C12 1_555 1_555
H8 C12 1_555 1_555
C13 C12 1_555 1_555
H9 C13 1_555 1_555
H10 C13 1_555 1_555
C14 C13 1_555 1_555
H11 C14 1_555 1_555
H12 C14 1_555 1_555
H13 C14 1_555 1_555
S1A C4A 1_555 1_555
S2A C8 1_555 1_555
N1A C1A 1_555 1_555
N2A C3A 1_555 1_555
C1A C2A 1_555 1_555
C2A C3A 1_555 1_555
C4A C2A 1_555 1_555
C5A C4A 1_555 1_555
C6A S2A 1_555 1_555
C7A S1A 1_555 1_555
C8A S2 1_555 1_555
C9A C5A 1_555 1_555
H1A C9A 1_555 1_555
H2A C9A 1_555 1_555
C10A C9A 1_555 1_555
H3A C10A 1_555 1_555
H4A C10A 1_555 1_555
C11A C10A 1_555 1_555
H5A C11A 1_555 1_555
H6A C11A 1_555 1_555
C12A C11A 1_555 1_555
H7A C12A 1_555 1_555
H8A C12A 1_555 1_555
C13A C12A 1_555 1_555
H9A C13A 1_555 1_555
H10A C13A 1_555 1_555
C14A C13A 1_555 1_555
H11A C14A 1_555 1_555
H12A C14A 1_555 1_555
H13A C14A 1_555 1_555
C6 C7 1_555 1_555
C8 C8A 1_555 1_555
C5A C6A 1_555 1_555
C6A C7A 1_555 1_555
C7A C8A 1_555 1_555

#END
