
#######################################################################
#
#                 Cambridge Crystallographic Data Centre
#                                CCDC 
#
#######################################################################
#
# If this CIF has been generated from an entry in the Cambridge 
# Structural Database, then it will include bibliographic, chemical, 
# crystal, experimental, refinement or atomic coordinate data resulting 
# from the CCDC's data processing and validation procedures.
#
#######################################################################

data_HIWRUC
_chemical_formula_moiety         
'C24 H48 Cl3 Mg2 O6 1+,C8 H30 B20 Cl1 Mg1 O1 1-'
_chemical_name_systematic        
'tris(\m~2~-Chloro)-hexakis(tetrahydrofuran)-di-magnesium bis(1,7-dicarba-closo-dodecaboran-1-yl)-chloro-tetrahydrofuran-magnesium'
_symmetry_cell_setting           triclinic
_symmetry_space_group_name_H-M   'P -1'
_symmetry_Int_Tables_number      2
_space_group_name_Hall           '-P 1'
loop_
_symmetry_equiv_pos_site_id
_symmetry_equiv_pos_as_xyz
1 x,y,z
2 -x,-y,-z
_cell_length_a                   11.5952(2)
_cell_length_b                   14.5838(3)
_cell_length_c                   17.4588(12)
_cell_angle_alpha                70.819(5)
_cell_angle_beta                 79.147(6)
_cell_angle_gamma                81.400(6)
_cell_volume                     2726.29
_exptl_crystal_colour            colorless
_exptl_crystal_description       plate
_cell_formula_units_Z            2
_chemical_properties_physical    'Air-sensitive, Moisture-sensitive'
_exptl_crystal_recrystallization_method THF/Pentane
loop_
_atom_site_label
_atom_site_type_symbol
_atom_site_fract_x
_atom_site_fract_y
_atom_site_fract_z
Mg1 Mg 0.22329(6) 0.13072(5) 0.14166(4)
Cl1 Cl 0.25766(6) 0.25695(4) 0.02091(3)
O1 O 0.04730(12) 0.15681(12) 0.17682(8)
C1 C 0.31903(17) 0.14476(14) 0.23224(12)
C2 C 0.5183(2) 0.19898(18) 0.25298(16)
H1 H 0.589(2) 0.2267(9) 0.2281(8)
C3 C 0.24023(16) -0.01249(15) 0.12359(11)
C4 C 0.37736(18) -0.14291(16) 0.06154(13)
H2 H 0.453(2) -0.1606(5) 0.0348(8)
C5 C -0.01586(19) 0.12808(19) 0.26003(13)
H3 H -0.0141 0.1778 0.2870
H4 H 0.0199 0.0648 0.2929
C6 C -0.1410(2) 0.11967(19) 0.25169(17)
H5 H -0.1983 0.1355 0.2964
H6 H -0.1508 0.0535 0.2513
C7 C -0.1546(2) 0.1955(2) 0.16902(15)
H7 H -0.2185 0.1821 0.1448
H8 H -0.1714 0.2621 0.1741
C8 C -0.0368(2) 0.1838(2) 0.11883(15)
H9 H -0.0346 0.1321 0.0932
H10 H -0.0193 0.2456 0.0751
B1 B 0.3975(2) 0.24349(19) 0.20458(15)
H11 H 0.3959(2) 0.3022(13) 0.1464(13)
B2 B 0.2778(2) 0.23008(18) 0.28332(14)
H12 H 0.1963(18) 0.2798(11) 0.2766(2)
B3 B 0.2753(2) 0.10507(18) 0.33697(14)
H13 H 0.1910(19) 0.0726(7) 0.3657(6)
B4 B 0.3927(2) 0.04158(19) 0.29027(17)
H14 H 0.3860(3) -0.0327(18) 0.28808(18)
B5 B 0.4681(2) 0.1271(2) 0.20887(18)
H15 H 0.5118(11) 0.1103(5) 0.1542(14)
B6 B 0.4108(2) 0.26661(19) 0.29565(15)
H16 H 0.4180(3) 0.3396(17) 0.29647(15)
B7 B 0.3336(2) 0.18062(19) 0.37918(15)
H17 H 0.2893(11) 0.1980(5) 0.4341(13)
B8 B 0.4057(3) 0.0626(2) 0.38359(17)
H18 H 0.4079(3) 0.0031(15) 0.4423(14)
B9 B 0.5261(2) 0.0774(2) 0.3026(2)
H19 H 0.605(2) 0.0306(13) 0.3075(2)
B10 B 0.4899(2) 0.16330(19) 0.35715(17)
H20 H 0.5461(14) 0.1698(3) 0.3963(10)
B11 B 0.37129(19) -0.08299(17) 0.13107(14)
H21 H 0.4465(16) -0.0631(5) 0.1472(4)
B12 B 0.32470(19) -0.02293(18) 0.03523(13)
H22 H 0.3707(10) 0.0359(13) -0.0097(10)
B13 B 0.17105(19) -0.02281(17) 0.04745(13)
H23 H 0.1176(12) 0.0354(13) 0.0117(8)
B14 B 0.12320(19) -0.08280(17) 0.15134(14)
H24 H 0.0370(19) -0.0615(5) 0.1819(7)
B15 B 0.2463(2) -0.11967(18) 0.20331(14)
H25 H 0.2400(2) -0.12256(19) 0.2675(14)
B16 B 0.3389(2) -0.20540(18) 0.16258(16)
H26 H 0.3934(13) -0.2631(14) 0.1987(9)
B17 B 0.1838(2) -0.20643(18) 0.17522(16)
H27 H 0.1360(11) -0.2679(13) 0.2224(10)
B18 B 0.2717(2) -0.2219(2) 0.08486(17)
H28 H 0.2839(4) -0.2899(18) 0.0719(4)
B19 B 0.2636(2) -0.10769(19) 0.00503(16)
H29 H 0.2703(3) -0.1039(2) -0.0548(15)
B20 B 0.1371(2) -0.14606(18) 0.07789(15)
H30 H 0.0585(17) -0.1672(5) 0.0602(4)
Cl2 Cl 0.05849(4) 0.51217(3) 0.63803(3)
Cl3 Cl 0.21665(4) 0.65518(3) 0.68522(2)
Cl4 Cl 0.35514(4) 0.46394(3) 0.62446(2)
Mg2 Mg 0.19762(5) 0.47371(4) 0.74006(3)
Mg3 Mg 0.22493(5) 0.61076(4) 0.55690(3)
O2 O 0.20108(11) 0.32204(10) 0.77368(8)
O3 O 0.05502(11) 0.47876(9) 0.83026(7)
O4 O 0.30948(11) 0.46378(9) 0.82332(7)
O5 O 0.23244(11) 0.55921(10) 0.45802(7)
O6 O 0.10743(11) 0.72738(10) 0.50237(8)
O7 O 0.36396(11) 0.69314(9) 0.49655(7)
C9 C 0.14962(19) 0.27347(16) 0.72882(15)
H31 H 0.1640 0.3079 0.6692
H32 H 0.0634 0.2729 0.7468
C10 C 0.20850(19) 0.17046(15) 0.74741(13)
H33 H 0.2693 0.1631 0.7011
H34 H 0.1500 0.1229 0.7587
C11 C 0.2640(2) 0.15632(17) 0.82326(14)
H35 H 0.2068 0.1350 0.8740
H36 H 0.3341 0.1080 0.8264
C12 C 0.29800(19) 0.25674(15) 0.80997(12)
H37 H 0.3058 0.2655 0.8626
H38 H 0.3735 0.2685 0.7724
C13 C -0.03033(17) 0.56389(16) 0.82626(13)
H39 H -0.0424 0.5989 0.7689
H40 H -0.0029 0.6093 0.8490
C14 C -0.14371(18) 0.52420(18) 0.87741(13)
H41 H -0.1931 0.5086 0.8437
H42 H -0.1900 0.5709 0.9043
C15 C -0.09768(18) 0.43225(16) 0.94013(12)
H43 H -0.0705 0.4479 0.9845
H44 H -0.1587 0.3858 0.9644
C16 C 0.00398(17) 0.39221(15) 0.88852(11)
H45 H 0.0625 0.3503 0.9228
H46 H -0.0242 0.3537 0.8596
C17 C 0.27112(17) 0.50291(15) 0.89175(11)
H47 H 0.2256 0.4561 0.9379
H48 H 0.2207 0.5650 0.8747
C18 C 0.3823(2) 0.5196(2) 0.91696(16)
H49 H 0.3965 0.5894 0.8953
H50 H 0.3770 0.4979 0.9774
C19 C 0.47870(19) 0.4586(2) 0.87949(14)
H51 H 0.5557 0.4857 0.8682
H52 H 0.4860 0.3902 0.9156
C20 C 0.43596(16) 0.46574(16) 0.80119(12)
H53 H 0.4561 0.5272 0.7579
H54 H 0.4713 0.4100 0.7814
C21 C 0.18781(17) 0.46728(14) 0.46703(11)
H55 H 0.1008 0.4754 0.4708
H56 H 0.2098 0.4163 0.5170
C22 C 0.24458(18) 0.43982(16) 0.39112(13)
H57 H 0.3214 0.4008 0.3991
H58 H 0.1926 0.4027 0.3758
C23 C 0.26011(18) 0.53849(17) 0.32734(12)
H59 H 0.1853 0.5686 0.3063
H60 H 0.3217 0.5335 0.2808
C24 C 0.2977(2) 0.59558(18) 0.37565(12)
H61 H 0.3838 0.5836 0.3767
H62 H 0.2769 0.6664 0.3515
C25 C 0.0289(3) 0.72472(19) 0.4488(2)
H63 H -0.0253 0.6735 0.4778
H64 H 0.0749 0.7086 0.4003
C26 C -0.0387(3) 0.8186(2) 0.42262(18)
H65 H -0.1244 0.8117 0.4379
H66 H -0.0211 0.8486 0.3625
C27 C -0.0006(3) 0.8805(2) 0.46718(17)
H67 H 0.0552 0.9267 0.4300
H68 H -0.0695 0.9176 0.4899
C28 C 0.0588(2) 0.80586(18) 0.53527(14)
H69 H 0.1218 0.8340 0.5490
H70 H 0.0008 0.7828 0.5852
C29 C 0.36410(18) 0.78730(15) 0.43373(12)
H71 H 0.3462 0.8410 0.4584
H72 H 0.3057 0.7942 0.3970
C30 C 0.48807(18) 0.78715(16) 0.38785(12)
H73 H 0.5085 0.8542 0.3565
H74 H 0.4992 0.7477 0.3500
C31 C 0.55969(18) 0.74101(16) 0.45716(13)
H75 H 0.5732 0.7898 0.4820
H76 H 0.6368 0.7103 0.4378
C32 C 0.48314(16) 0.66485(15) 0.51793(11)
H77 H 0.5122 0.5992 0.5134
H78 H 0.4840 0.6640 0.5748
loop_
_geom_bond_atom_site_label_1
_geom_bond_atom_site_label_2
_geom_bond_site_symmetry_1
_geom_bond_site_symmetry_2
Mg1 Cl1 1_555 1_555
O1 Mg1 1_555 1_555
C1 Mg1 1_555 1_555
C2 H1 1_555 1_555
C3 Mg1 1_555 1_555
C4 H2 1_555 1_555
C5 O1 1_555 1_555
H3 C5 1_555 1_555
H4 C5 1_555 1_555
C6 C5 1_555 1_555
H5 C6 1_555 1_555
H6 C6 1_555 1_555
C7 C6 1_555 1_555
H7 C7 1_555 1_555
H8 C7 1_555 1_555
C8 O1 1_555 1_555
H9 C8 1_555 1_555
H10 C8 1_555 1_555
B1 C1 1_555 1_555
H11 B1 1_555 1_555
B2 C1 1_555 1_555
H12 B2 1_555 1_555
B3 C1 1_555 1_555
H13 B3 1_555 1_555
B4 C1 1_555 1_555
H14 B4 1_555 1_555
B5 C1 1_555 1_555
H15 B5 1_555 1_555
B6 C2 1_555 1_555
H16 B6 1_555 1_555
B7 B2 1_555 1_555
H17 B7 1_555 1_555
B8 B3 1_555 1_555
H18 B8 1_555 1_555
B9 C2 1_555 1_555
H19 B9 1_555 1_555
B10 C2 1_555 1_555
H20 B10 1_555 1_555
B11 C3 1_555 1_555
H21 B11 1_555 1_555
B12 C3 1_555 1_555
H22 B12 1_555 1_555
B13 C3 1_555 1_555
H23 B13 1_555 1_555
B14 C3 1_555 1_555
H24 B14 1_555 1_555
B15 C3 1_555 1_555
H25 B15 1_555 1_555
B16 C4 1_555 1_555
H26 B16 1_555 1_555
B17 B14 1_555 1_555
H27 B17 1_555 1_555
B18 C4 1_555 1_555
H28 B18 1_555 1_555
B19 C4 1_555 1_555
H29 B19 1_555 1_555
B20 B13 1_555 1_555
H30 B20 1_555 1_555
Cl2 Mg2 1_555 1_555
Cl3 Mg2 1_555 1_555
Cl4 Mg2 1_555 1_555
Mg2 O2 1_555 1_555
Mg3 Cl2 1_555 1_555
O2 C9 1_555 1_555
O3 Mg2 1_555 1_555
O4 Mg2 1_555 1_555
O5 Mg3 1_555 1_555
O6 Mg3 1_555 1_555
O7 Mg3 1_555 1_555
C9 H31 1_555 1_555
H32 C9 1_555 1_555
C10 C9 1_555 1_555
H33 C10 1_555 1_555
H34 C10 1_555 1_555
C11 C10 1_555 1_555
H35 C11 1_555 1_555
H36 C11 1_555 1_555
C12 O2 1_555 1_555
H37 C12 1_555 1_555
H38 C12 1_555 1_555
C13 O3 1_555 1_555
H39 C13 1_555 1_555
H40 C13 1_555 1_555
C14 C13 1_555 1_555
H41 C14 1_555 1_555
H42 C14 1_555 1_555
C15 C14 1_555 1_555
H43 C15 1_555 1_555
H44 C15 1_555 1_555
C16 O3 1_555 1_555
H45 C16 1_555 1_555
H46 C16 1_555 1_555
C17 O4 1_555 1_555
H47 C17 1_555 1_555
H48 C17 1_555 1_555
C18 C17 1_555 1_555
H49 C18 1_555 1_555
H50 C18 1_555 1_555
C19 C18 1_555 1_555
H51 C19 1_555 1_555
H52 C19 1_555 1_555
C20 O4 1_555 1_555
H53 C20 1_555 1_555
H54 C20 1_555 1_555
C21 O5 1_555 1_555
H55 C21 1_555 1_555
H56 C21 1_555 1_555
C22 C21 1_555 1_555
H57 C22 1_555 1_555
H58 C22 1_555 1_555
C23 C22 1_555 1_555
H59 C23 1_555 1_555
H60 C23 1_555 1_555
C24 O5 1_555 1_555
H61 C24 1_555 1_555
H62 C24 1_555 1_555
C25 O6 1_555 1_555
H63 C25 1_555 1_555
H64 C25 1_555 1_555
C26 C25 1_555 1_555
H65 C26 1_555 1_555
H66 C26 1_555 1_555
C27 C26 1_555 1_555
H67 C27 1_555 1_555
H68 C27 1_555 1_555
C28 O6 1_555 1_555
H69 C28 1_555 1_555
H70 C28 1_555 1_555
C29 O7 1_555 1_555
H71 C29 1_555 1_555
H72 C29 1_555 1_555
C30 C29 1_555 1_555
H73 C30 1_555 1_555
H74 C30 1_555 1_555
C31 C30 1_555 1_555
H75 C31 1_555 1_555
H76 C31 1_555 1_555
C32 O7 1_555 1_555
H77 C32 1_555 1_555
H78 C32 1_555 1_555
C2 B1 1_555 1_555
C2 B5 1_555 1_555
C4 B11 1_555 1_555
C4 B12 1_555 1_555
C7 C8 1_555 1_555
B1 B2 1_555 1_555
B1 B5 1_555 1_555
B1 B6 1_555 1_555
B2 B3 1_555 1_555
B2 B6 1_555 1_555
B3 B4 1_555 1_555
B3 B7 1_555 1_555
B4 B5 1_555 1_555
B4 B8 1_555 1_555
B4 B9 1_555 1_555
B5 B9 1_555 1_555
B6 B7 1_555 1_555
B6 B10 1_555 1_555
B7 B8 1_555 1_555
B7 B10 1_555 1_555
B8 B9 1_555 1_555
B8 B10 1_555 1_555
B9 B10 1_555 1_555
B11 B12 1_555 1_555
B11 B15 1_555 1_555
B11 B16 1_555 1_555
B12 B13 1_555 1_555
B12 B19 1_555 1_555
B13 B14 1_555 1_555
B13 B19 1_555 1_555
B14 B15 1_555 1_555
B14 B20 1_555 1_555
B15 B16 1_555 1_555
B15 B17 1_555 1_555
B16 B17 1_555 1_555
B16 B18 1_555 1_555
B17 B18 1_555 1_555
B17 B20 1_555 1_555
B18 B19 1_555 1_555
B18 B20 1_555 1_555
B19 B20 1_555 1_555
Cl3 Mg3 1_555 1_555
Cl4 Mg3 1_555 1_555
C11 C12 1_555 1_555
C15 C16 1_555 1_555
C19 C20 1_555 1_555
C23 C24 1_555 1_555
C27 C28 1_555 1_555
C31 C32 1_555 1_555

#END
