
#######################################################################
#
#                 Cambridge Crystallographic Data Centre
#                                CCDC 
#
#######################################################################
#
# If this CIF has been generated from an entry in the Cambridge 
# Structural Database, then it will include bibliographic, chemical, 
# crystal, experimental, refinement or atomic coordinate data resulting 
# from the CCDC's data processing and validation procedures.
#
#######################################################################

data_HIWSAJ
_chemical_formula_moiety         'C20 H22 N2 O2 S1'
_chemical_name_systematic        
4-Methyl-N'-(1-methyltricyclo[6.3.1.0^2,7^]dodeca-2,4,6-trien-10-ylidene)benzenesulfonohydrazide
_symmetry_cell_setting           monoclinic
_symmetry_space_group_name_H-M   'P 21'
_symmetry_Int_Tables_number      4
_space_group_name_Hall           'P 2yb'
loop_
_symmetry_equiv_pos_site_id
_symmetry_equiv_pos_as_xyz
1 x,y,z
2 -x,1/2+y,-z
_cell_length_a                   8.34640(12)
_cell_length_b                   21.4899(3)
_cell_length_c                   10.34385(16)
_cell_angle_alpha                90
_cell_angle_beta                 102.6088(15)
_cell_angle_gamma                90
_cell_volume                     1810.56
_exptl_crystal_colour            colorless
_exptl_crystal_description       prism
_cell_formula_units_Z            4
loop_
_atom_site_label
_atom_site_type_symbol
_atom_site_fract_x
_atom_site_fract_y
_atom_site_fract_z
S1 S 0.13409(5) 0.410985(18) 0.16863(4)
O1 O 0.14490(16) 0.35513(6) 0.09557(13)
O2 O 0.05731(15) 0.40989(7) 0.27989(12)
N1 N 0.02854(17) 0.45998(7) 0.06021(14)
H1 H 0.043(3) 0.4540(11) -0.021(2)
N2 N 0.02409(17) 0.52016(8) 0.11324(14)
C1 C 0.3310(2) 0.44284(8) 0.22480(16)
C2 C 0.4552(2) 0.43017(9) 0.15843(18)
H2 H 0.4352 0.4041 0.0825
C3 C 0.6094(2) 0.45640(10) 0.20531(18)
H3 H 0.6956 0.4475 0.1614
C4 C 0.6394(2) 0.49522(10) 0.31493(18)
C5 C 0.5117(2) 0.50737(10) 0.37838(17)
H4 H 0.5306 0.5343 0.4530
C6 C 0.3576(2) 0.48107(10) 0.33496(17)
H5 H 0.2721 0.4892 0.3800
C7 C 0.8047(2) 0.52493(11) 0.3651(2)
H6 H 0.8759 0.5161 0.3035
H7 H 0.8546 0.5080 0.4526
H8 H 0.7913 0.5700 0.3718
C8 C -0.0301(2) 0.56465(9) 0.03363(17)
C9 C -0.0301(2) 0.62779(9) 0.09805(18)
H9 H 0.0759 0.6487 0.0996
H10 H -0.0407 0.6223 0.1908
C10 C -0.1716(2) 0.66947(9) 0.02413(19)
H11 H -0.1713 0.7116 0.0651
C11 C -0.3333(2) 0.63579(9) 0.01297(19)
C12 C -0.4408(3) 0.63511(11) 0.0980(2)
H12 H -0.4207 0.6600 0.1758
C13 C -0.5795(3) 0.59691(13) 0.0664(3)
H13 H -0.6549 0.5960 0.1231
C14 C -0.6080(3) 0.56048(12) -0.0466(3)
H14 H -0.7029 0.5348 -0.0667
C15 C -0.4995(3) 0.56099(10) -0.1308(2)
H15 H -0.5185 0.5355 -0.2078
C16 C -0.3635(2) 0.59909(9) -0.10094(18)
C17 C -0.2224(2) 0.60726(10) -0.17113(17)
C18 C -0.0887(2) 0.55885(9) -0.11376(17)
H16 H -0.1334 0.5165 -0.1352
H17 H 0.0057 0.5643 -0.1563
C19 C -0.2695(3) 0.60115(12) -0.32058(19)
H18 H -0.3096 0.5589 -0.3442
H19 H -0.1732 0.6094 -0.3578
H20 H -0.3561 0.6312 -0.3563
C20 C -0.1604(2) 0.67241(10) -0.1216(2)
H21 H -0.0460 0.6793 -0.1306
H22 H -0.2316 0.7056 -0.1698
S2 S 0.13179(5) 0.423152(18) -0.31889(4)
O3 O 0.04676(16) 0.42329(7) -0.21256(12)
O4 O 0.15925(19) 0.48041(7) -0.38083(14)
N3 N 0.01971(19) 0.38146(7) -0.43895(15)
H23 H 0.042(3) 0.3890(11) -0.515(2)
N4 N 0.00557(17) 0.31913(7) -0.40096(15)
C21 C 0.3209(2) 0.38518(9) -0.26089(18)
C22 C 0.3339(2) 0.34086(9) -0.16160(17)
H24 H 0.2416 0.3304 -0.1261
C23 C 0.4848(2) 0.31208(10) -0.11502(19)
H25 H 0.4954 0.2817 -0.0470
C24 C 0.6213(3) 0.32734(10) -0.1671(2)
C25 C 0.6040(2) 0.37186(12) -0.2662(2)
H26 H 0.6962 0.3829 -0.3014
C26 C 0.4543(2) 0.40054(10) -0.3147(2)
H27 H 0.4430 0.4303 -0.3839
C27 C 0.7843(3) 0.29526(14) -0.1154(3)
H28 H 0.8415 0.2899 -0.1879
H29 H 0.7652 0.2545 -0.0792
H30 H 0.8518 0.3207 -0.0455
C28 C -0.0653(2) 0.28139(8) -0.49158(17)
C29 C -0.1389(2) 0.29827(10) -0.63409(18)
H31 H -0.0518 0.2974 -0.6855
H32 H -0.1832 0.3411 -0.6378
C30 C -0.2778(2) 0.25297(10) -0.69780(17)
H33 H -0.3223 0.2620 -0.7938
C31 C -0.4104(2) 0.25300(9) -0.61841(17)
C32 C -0.5503(2) 0.28896(10) -0.6326(2)
H34 H -0.5776 0.3185 -0.7023
C33 C -0.6495(2) 0.28101(11) -0.5431(3)
H35 H -0.7476 0.3047 -0.5528
C34 C -0.6086(2) 0.23921(12) -0.4397(2)
H36 H -0.6770 0.2353 -0.3778
C35 C -0.4678(2) 0.20276(10) -0.42560(18)
H37 H -0.4395 0.1738 -0.3550
C36 C -0.36990(19) 0.20978(8) -0.51682(16)
C37 C -0.2123(2) 0.17668(8) -0.52628(18)
C38 C -0.0660(2) 0.21425(9) -0.44746(19)
H38 H -0.0691 0.2132 -0.3523
H39 H 0.0374 0.1941 -0.4573
C39 C -0.2031(2) 0.10938(10) -0.4818(2)
H40 H -0.2016 0.1075 -0.3869
H41 H -0.1027 0.0904 -0.4983
H42 H -0.2989 0.0868 -0.5313
C40 C -0.2146(2) 0.18569(10) -0.67402(19)
H43 H -0.2899 0.1558 -0.7296
H44 H -0.1034 0.1812 -0.6919
loop_
_geom_bond_atom_site_label_1
_geom_bond_atom_site_label_2
_geom_bond_site_symmetry_1
_geom_bond_site_symmetry_2
S1 O1 1_555 1_555
O2 S1 1_555 1_555
N1 S1 1_555 1_555
H1 N1 1_555 1_555
N2 N1 1_555 1_555
C1 S1 1_555 1_555
C2 C1 1_555 1_555
H2 C2 1_555 1_555
C3 C2 1_555 1_555
H3 C3 1_555 1_555
C4 C3 1_555 1_555
C5 C4 1_555 1_555
H4 C5 1_555 1_555
C6 C1 1_555 1_555
H5 C6 1_555 1_555
C7 C4 1_555 1_555
H6 C7 1_555 1_555
H7 C7 1_555 1_555
H8 C7 1_555 1_555
C8 N2 1_555 1_555
C9 C8 1_555 1_555
H9 C9 1_555 1_555
H10 C9 1_555 1_555
C10 C9 1_555 1_555
H11 C10 1_555 1_555
C11 C10 1_555 1_555
C12 C11 1_555 1_555
H12 C12 1_555 1_555
C13 C12 1_555 1_555
H13 C13 1_555 1_555
C14 C13 1_555 1_555
H14 C14 1_555 1_555
C15 C14 1_555 1_555
H15 C15 1_555 1_555
C16 C11 1_555 1_555
C17 C16 1_555 1_555
C18 C8 1_555 1_555
H16 C18 1_555 1_555
H17 C18 1_555 1_555
C19 C17 1_555 1_555
H18 C19 1_555 1_555
H19 C19 1_555 1_555
H20 C19 1_555 1_555
C20 C10 1_555 1_555
H21 C20 1_555 1_555
H22 C20 1_555 1_555
S2 O3 1_555 1_555
O4 S2 1_555 1_555
N3 S2 1_555 1_555
H23 N3 1_555 1_555
N4 N3 1_555 1_555
C21 S2 1_555 1_555
C22 C21 1_555 1_555
H24 C22 1_555 1_555
C23 C22 1_555 1_555
H25 C23 1_555 1_555
C24 C23 1_555 1_555
C25 C24 1_555 1_555
H26 C25 1_555 1_555
C26 C21 1_555 1_555
H27 C26 1_555 1_555
C27 C24 1_555 1_555
H28 C27 1_555 1_555
H29 C27 1_555 1_555
H30 C27 1_555 1_555
C28 N4 1_555 1_555
C29 C28 1_555 1_555
H31 C29 1_555 1_555
H32 C29 1_555 1_555
C30 C29 1_555 1_555
H33 C30 1_555 1_555
C31 C30 1_555 1_555
C32 C31 1_555 1_555
H34 C32 1_555 1_555
C33 C32 1_555 1_555
H35 C33 1_555 1_555
C34 C33 1_555 1_555
H36 C34 1_555 1_555
C35 C34 1_555 1_555
H37 C35 1_555 1_555
C36 C31 1_555 1_555
C37 C36 1_555 1_555
C38 C28 1_555 1_555
H38 C38 1_555 1_555
H39 C38 1_555 1_555
C39 C37 1_555 1_555
H40 C39 1_555 1_555
H41 C39 1_555 1_555
H42 C39 1_555 1_555
C40 C30 1_555 1_555
H43 C40 1_555 1_555
H44 C40 1_555 1_555
C5 C6 1_555 1_555
C15 C16 1_555 1_555
C17 C18 1_555 1_555
C17 C20 1_555 1_555
C25 C26 1_555 1_555
C35 C36 1_555 1_555
C37 C38 1_555 1_555
C37 C40 1_555 1_555

#END
