
#######################################################################
#
#                 Cambridge Crystallographic Data Centre
#                                CCDC 
#
#######################################################################
#
# If this CIF has been generated from an entry in the Cambridge 
# Structural Database, then it will include bibliographic, chemical, 
# crystal, experimental, refinement or atomic coordinate data resulting 
# from the CCDC's data processing and validation procedures.
#
#######################################################################

data_HIWVAL
_chemical_formula_moiety         'C19 H23 N1 O7 S1,C1 H2 Cl2'
_chemical_name_systematic        
'trans-5-Methoxy-1,1-dimethyl-3-oxo-8-(p-toluenesulfonyl)-1,5,6,7-tetrahydro-oxazolo(3,4-a)pyridine-6-carboxylic acid methyl ester dichloromethane solvate'
_symmetry_cell_setting           monoclinic
_symmetry_space_group_name_H-M   'P 21'
_symmetry_Int_Tables_number      4
_space_group_name_Hall           'P 2yb'
loop_
_symmetry_equiv_pos_site_id
_symmetry_equiv_pos_as_xyz
1 x,y,z
2 -x,1/2+y,-z
_cell_length_a                   7.901(8)
_cell_length_b                   11.39(1)
_cell_length_c                   13.33(1)
_cell_angle_alpha                90
_cell_angle_beta                 105.06(8)
_cell_angle_gamma                90
_cell_volume                     1158.4
_exptl_crystal_colour            colorless
_exptl_crystal_description       prismatic
_cell_formula_units_Z            2
loop_
_atom_site_label
_atom_site_type_symbol
_atom_site_fract_x
_atom_site_fract_y
_atom_site_fract_z
Cl1 Cl 0.1625(8) -0.404(3) 0.6028(5)
Cl2 Cl 0.0574(9) -0.643(3) 0.6166(7)
C20 C 0.225(3) -0.550(4) 0.622(2)
H24 H 0.3048 -0.5484 0.6887
H25 H 0.2812 -0.5635 0.5703
S1 S 0.3377(4) 0.178(3) 0.9001(3)
O1 O -0.062(1) -0.070(3) 0.6471(9)
O2 O -0.348(1) -0.027(3) 0.6070(8)
O3 O -0.294(1) 0.272(3) 0.6928(8)
O4 O -0.163(1) 0.008(3) 0.9266(9)
O5 O -0.186(1) 0.155(3) 1.0297(7)
O6 O 0.382(1) 0.301(3) 0.8825(9)
O7 O 0.4299(10) 0.077(3) 0.8695(9)
N1 N -0.145(1) 0.086(3) 0.7190(9)
C1 C 0.105(2) -0.031(3) 0.724(1)
C2 C 0.040(2) 0.086(3) 0.767(1)
C3 C 0.110(1) 0.162(3) 0.8347(9)
C4 C 0.000(2) 0.260(3) 0.870(1)
C5 C -0.190(1) 0.207(3) 0.8605(10)
C6 C -0.261(2) 0.175(3) 0.752(1)
C7 C -0.203(2) -0.003(3) 0.653(1)
C8 C 0.169(2) -0.124(4) 0.799(1)
C9 C 0.221(2) 0.004(3) 0.648(1)
C10 C -0.391(2) 0.256(3) 0.589(2)
C11 C -0.178(2) 0.110(3) 0.939(1)
C12 C -0.177(2) 0.073(4) 1.113(1)
C13 C 0.343(1) 0.165(3) 1.0305(9)
C14 C 0.362(2) 0.261(3) 1.097(1)
C15 C 0.357(2) 0.248(3) 1.197(1)
C16 C 0.340(2) 0.139(3) 1.234(1)
C17 C 0.333(2) 0.042(3) 1.175(1)
C18 C 0.335(2) 0.053(3) 1.073(1)
C19 C 0.336(2) 0.130(4) 1.348(2)
H1 H -0.0082 0.3345 0.8257
H2 H 0.0535 0.2898 0.9393
H3 H -0.2606 0.2755 0.8768
H4 H -0.3702 0.1453 0.7474
H5 H 0.2744 -0.0907 0.8464
H6 H 0.0838 -0.1334 0.8349
H7 H 0.1920 -0.1838 0.7630
H8 H 0.3341 0.0359 0.6877
H9 H 0.1670 0.0754 0.6049
H10 H 0.2321 -0.0532 0.6062
H11 H -0.4015 0.3377 0.5553
H12 H -0.5029 0.2351 0.5895
H13 H -0.3313 0.2103 0.5573
H14 H -0.0718 0.0378 1.1246
H15 H -0.1796 0.1235 1.1742
H16 H -0.2747 0.0300 1.0947
H17 H 0.3771 0.3452 1.0718
H18 H 0.3664 0.3228 1.2405
H19 H 0.3264 -0.0261 1.2038
H20 H 0.3320 -0.0074 1.0313
H21 H 0.4402 0.1703 1.3897
H22 H 0.2374 0.1796 1.3564
H23 H 0.3270 0.0575 1.3639
loop_
_geom_bond_atom_site_label_1
_geom_bond_atom_site_label_2
_geom_bond_site_symmetry_1
_geom_bond_site_symmetry_2
Cl1 C20 1_555 1_555
Cl2 C20 1_555 1_555
S1 O6 1_555 1_555
O1 C1 1_555 1_555
O2 C7 1_555 1_555
O3 C6 1_555 1_555
O4 C11 1_555 1_555
O5 C11 1_555 1_555
O7 S1 1_555 1_555
N1 C2 1_555 1_555
C1 C2 1_555 1_555
C2 C3 1_555 1_555
C3 S1 1_555 1_555
C4 C3 1_555 1_555
C5 C4 1_555 1_555
C6 N1 1_555 1_555
C7 O1 1_555 1_555
C8 C1 1_555 1_555
C9 C1 1_555 1_555
C10 O3 1_555 1_555
C11 C5 1_555 1_555
C12 O5 1_555 1_555
C13 S1 1_555 1_555
C14 C13 1_555 1_555
C15 C14 1_555 1_555
C16 C15 1_555 1_555
C17 C16 1_555 1_555
C18 C13 1_555 1_555
C19 C16 1_555 1_555
C20 H24 1_555 1_555
H1 C4 1_555 1_555
H2 C4 1_555 1_555
H3 C5 1_555 1_555
H4 C6 1_555 1_555
H5 C8 1_555 1_555
H6 C8 1_555 1_555
H7 C8 1_555 1_555
H8 C9 1_555 1_555
H9 C9 1_555 1_555
H10 C9 1_555 1_555
H11 C10 1_555 1_555
H12 C10 1_555 1_555
H13 C10 1_555 1_555
H14 C12 1_555 1_555
H15 C12 1_555 1_555
H16 C12 1_555 1_555
H17 C14 1_555 1_555
H18 C15 1_555 1_555
H19 C17 1_555 1_555
H20 C18 1_555 1_555
H21 C19 1_555 1_555
H22 C19 1_555 1_555
H23 C19 1_555 1_555
H25 C20 1_555 1_555
N1 C7 1_555 1_555
C5 C6 1_555 1_555
C17 C18 1_555 1_555

#END
