
#######################################################################
#
#                 Cambridge Crystallographic Data Centre
#                                CCDC 
#
#######################################################################
#
# If this CIF has been generated from an entry in the Cambridge 
# Structural Database, then it will include bibliographic, chemical, 
# crystal, experimental, refinement or atomic coordinate data resulting 
# from the CCDC's data processing and validation procedures.
#
#######################################################################

data_HIWVOZ
_chemical_formula_moiety         'C23 H33 N1 O5 S1 Si1'
_chemical_name_systematic        
3,3-Dimethyl-4-(p-toluenesulfonyl)-9a-(trimethylsiloxy)-3,5,5a,6,7,8,9,9a-octahydrooxazolo(3,4-a)quinolin-1-one
_symmetry_cell_setting           orthorhombic
_symmetry_space_group_name_H-M   'P b c a'
_symmetry_Int_Tables_number      61
_space_group_name_Hall           '-P 2ac 2ab'
loop_
_symmetry_equiv_pos_site_id
_symmetry_equiv_pos_as_xyz
1 x,y,z
2 1/2+x,1/2-y,-z
3 -x,1/2+y,1/2-z
4 1/2-x,-y,1/2+z
5 -x,-y,-z
6 1/2-x,1/2+y,z
7 x,1/2-y,1/2+z
8 1/2+x,y,1/2-z
_cell_length_a                   16.3224(4)
_cell_length_b                   9.6486(9)
_cell_length_c                   31.2183(8)
_cell_angle_alpha                90
_cell_angle_beta                 90
_cell_angle_gamma                90
_cell_volume                     4916.52
_exptl_crystal_description       block
_chemical_melting_point          '117.0-118.0 deg.C'
_cell_formula_units_Z            8
loop_
_atom_site_label
_atom_site_type_symbol
_atom_site_fract_x
_atom_site_fract_y
_atom_site_fract_z
S1 S 0.59862(3) 0.10571(5) 0.08185(2)
Si1 Si 0.47325(5) -0.44184(7) 0.12286(4)
O1 O 0.62303(10) -0.1550(2) 0.21112(5)
O2 O 0.5216(1) -0.2912(2) 0.23317(6)
O3 O 0.4303(1) -0.2892(2) 0.12834(6)
O4 O 0.6579(1) 0.1797(2) 0.10674(6)
O5 O 0.5443(1) 0.1840(2) 0.05491(6)
N1 N 0.5070(1) -0.1452(2) 0.17452(5)
C1 C 0.5473(1) -0.2058(2) 0.20891(8)
C2 C 0.4243(1) -0.1824(2) 0.15885(7)
C3 C 0.3915(1) -0.0550(2) 0.13506(7)
C4 C 0.4489(1) -0.0156(2) 0.09904(8)
C5 C 0.5355(1) 0.0022(2) 0.11474(7)
C6 C 0.5599(1) -0.0578(2) 0.15155(6)
C7 C 0.6373(1) -0.0495(2) 0.17842(7)
C8 C 0.7163(1) -0.0895(3) 0.15645(8)
C9 C 0.6426(2) 0.0889(3) 0.20175(8)
C10 C 0.3744(1) 0.0640(2) 0.16604(9)
C11 C 0.3177(2) 0.0224(3) 0.20225(10)
C12 C 0.3500(2) -0.1040(4) 0.2254(1)
C13 C 0.3660(2) -0.2210(3) 0.19476(10)
C14 C 0.5832(3) -0.4316(5) 0.1259(2)
C15 C 0.4420(7) -0.4989(9) 0.0719(4)
C16 C 0.4422(6) -0.5617(5) 0.1655(4)
C17 C 0.6519(1) -0.0104(2) 0.04817(7)
C18 C 0.7365(1) -0.0093(3) 0.04752(7)
C19 C 0.7775(2) -0.0959(3) 0.01926(8)
C20 C 0.7354(2) -0.1826(2) -0.00842(8)
C21 C 0.6504(2) -0.1820(3) -0.00710(9)
C22 C 0.6083(1) -0.0965(2) 0.02075(8)
C23 C 0.7811(2) -0.2717(3) -0.0398(1)
H1 H 0.3404 -0.0806 0.1222
H2 H 0.4311 0.0694 0.0868
H3 H 0.4481 -0.0861 0.0779
H4 H 0.7097 -0.1790 0.1440
H5 H 0.7590 -0.0919 0.1769
H6 H 0.7283 -0.0241 0.1348
H7 H 0.6863 0.0860 0.2218
H8 H 0.6519 0.1609 0.1817
H9 H 0.5925 0.1053 0.2165
H10 H 0.4251 0.0937 0.1780
H11 H 0.3502 0.1386 0.1508
H12 H 0.3133 0.0974 0.2220
H13 H 0.2651 0.0022 0.1909
H14 H 0.3108 -0.1324 0.2461
H15 H 0.3997 -0.0799 0.2395
H16 H 0.3152 -0.2489 0.1825
H17 H 0.3888 -0.2964 0.2103
H18 H 0.6032 -0.3725 0.1032
H19 H 0.5995 -0.3925 0.1524
H20 H 0.6068 -0.5204 0.1226
H21 H 0.4625 -0.5907 0.0676
H22 H 0.4604 -0.4391 0.0511
H23 H 0.3829 -0.5039 0.0718
H24 H 0.3844 -0.5718 0.1645
H25 H 0.4581 -0.5235 0.1922
H26 H 0.4679 -0.6475 0.1610
H27 H 0.7662 0.0508 0.0661
H28 H 0.8359 -0.0956 0.0189
H29 H 0.6207 -0.2414 -0.0258
H30 H 0.5501 -0.0969 0.0212
H31 H 0.8128 -0.2145 -0.0583
H32 H 0.7433 -0.3240 -0.0563
H33 H 0.8165 -0.3331 -0.0248
loop_
_geom_bond_atom_site_label_1
_geom_bond_atom_site_label_2
_geom_bond_site_symmetry_1
_geom_bond_site_symmetry_2
S1 O4 1_555 1_555
Si1 O3 1_555 1_555
O1 C1 1_555 1_555
O2 C1 1_555 1_555
O3 C2 1_555 1_555
O5 S1 1_555 1_555
N1 C1 1_555 1_555
C2 N1 1_555 1_555
C3 C2 1_555 1_555
C4 C3 1_555 1_555
C5 S1 1_555 1_555
C6 N1 1_555 1_555
C7 O1 1_555 1_555
C8 C7 1_555 1_555
C9 C7 1_555 1_555
C10 C3 1_555 1_555
C11 C10 1_555 1_555
C12 C11 1_555 1_555
C13 C2 1_555 1_555
C14 Si1 1_555 1_555
C15 Si1 1_555 1_555
C16 Si1 1_555 1_555
C17 S1 1_555 1_555
C18 C17 1_555 1_555
C19 C18 1_555 1_555
C20 C19 1_555 1_555
C21 C20 1_555 1_555
C22 C17 1_555 1_555
C23 C20 1_555 1_555
H1 C3 1_555 1_555
H2 C4 1_555 1_555
H3 C4 1_555 1_555
H4 C8 1_555 1_555
H5 C8 1_555 1_555
H6 C8 1_555 1_555
H7 C9 1_555 1_555
H8 C9 1_555 1_555
H9 C9 1_555 1_555
H10 C10 1_555 1_555
H11 C10 1_555 1_555
H12 C11 1_555 1_555
H13 C11 1_555 1_555
H14 C12 1_555 1_555
H15 C12 1_555 1_555
H16 C13 1_555 1_555
H17 C13 1_555 1_555
H18 C14 1_555 1_555
H19 C14 1_555 1_555
H20 C14 1_555 1_555
H21 C15 1_555 1_555
H22 C15 1_555 1_555
H23 C15 1_555 1_555
H24 C16 1_555 1_555
H25 C16 1_555 1_555
H26 C16 1_555 1_555
H27 C18 1_555 1_555
H28 C19 1_555 1_555
H29 C21 1_555 1_555
H30 C22 1_555 1_555
H31 C23 1_555 1_555
H32 C23 1_555 1_555
H33 C23 1_555 1_555
C4 C5 1_555 1_555
C5 C6 1_555 1_555
C6 C7 1_555 1_555
C12 C13 1_555 1_555
C21 C22 1_555 1_555

#END
