
#######################################################################
#
#                 Cambridge Crystallographic Data Centre
#                                CCDC 
#
#######################################################################
#
# If this CIF has been generated from an entry in the Cambridge 
# Structural Database, then it will include bibliographic, chemical, 
# crystal, experimental, refinement or atomic coordinate data resulting 
# from the CCDC's data processing and validation procedures.
#
#######################################################################

data_HIWWEQ
_chemical_formula_moiety         'C16 H19 N1 O5 S1'
_chemical_name_systematic        
5-Ethoxy-8-(p-toluenesulfonyl)-1,5,6,7-tetrahydrooxazolo(3,4-a)pyridin-3-one
_symmetry_cell_setting           monoclinic
_symmetry_space_group_name_H-M   'P 21/n'
_symmetry_Int_Tables_number      14
_space_group_name_Hall           '-P 2yn'
loop_
_symmetry_equiv_pos_site_id
_symmetry_equiv_pos_as_xyz
1 x,y,z
2 1/2-x,1/2+y,1/2-z
3 -x,-y,-z
4 1/2+x,1/2-y,1/2+z
_cell_length_a                   10.845(3)
_cell_length_b                   7.947(1)
_cell_length_c                   20.112(2)
_cell_angle_alpha                90
_cell_angle_beta                 104.18(1)
_cell_angle_gamma                90
_cell_volume                     1680.54
_exptl_crystal_colour            colorless
_exptl_crystal_description       prismatic
_chemical_melting_point          '133.7-134.1 deg.C'
_cell_formula_units_Z            4
loop_
_atom_site_label
_atom_site_type_symbol
_atom_site_fract_x
_atom_site_fract_y
_atom_site_fract_z
S1 S 0.32963(6) 0.22104(7) 0.18568(3)
O1 O -0.1459(2) 0.1854(2) 0.17733(9)
O2 O 0.0401(2) -0.1694(3) 0.06585(10)
O3 O -0.1701(2) -0.1164(3) 0.0415(1)
O4 O 0.3677(2) 0.2602(2) 0.25774(8)
O5 O 0.3804(2) 0.0720(2) 0.16180(9)
N1 N -0.0239(2) 0.0650(3) 0.10620(10)
C1 C -0.2888(3) 0.0807(5) 0.2396(2)
C2 C -0.2410(3) 0.0642(5) 0.1772(2)
C3 C -0.1087(3) 0.2024(4) 0.1157(1)
C4 C -0.0626(3) -0.0783(4) 0.0686(1)
C5 C 0.1548(3) -0.0867(3) 0.1036(2)
C6 C 0.1078(2) 0.0757(3) 0.1271(1)
C7 C 0.1651(2) 0.2111(3) 0.1600(1)
C8 C 0.0884(3) 0.3602(3) 0.1730(2)
C9 C -0.0362(3) 0.3664(4) 0.1184(2)
C10 C 0.3673(2) 0.3968(3) 0.1410(1)
C11 C 0.4300(2) 0.5324(3) 0.1768(1)
C12 C 0.4606(3) 0.6667(3) 0.1411(2)
C13 C 0.4307(2) 0.6700(3) 0.0706(1)
C14 C 0.3664(3) 0.5335(4) 0.0356(1)
C15 C 0.3338(3) 0.3971(3) 0.0702(1)
C16 C 0.4668(3) 0.8177(4) 0.0325(2)
H1 H -0.2210 0.0696 0.2793
H2 H -0.3250 0.1916 0.2397
H3 H -0.3523 0.0000 0.2400
H4 H -0.3082 0.0745 0.1373
H5 H -0.2042 -0.0475 0.1769
H6 H -0.178(3) 0.199(3) 0.075(1)
H7 H 0.191(2) -0.156(3) 0.143(1)
H8 H 0.210(2) -0.066(3) 0.072(1)
H9 H 0.071(3) 0.351(3) 0.220(1)
H10 H 0.135(2) 0.464(3) 0.171(1)
H11 H -0.019(2) 0.381(3) 0.074(1)
H12 H -0.095(3) 0.461(3) 0.120(1)
H13 H 0.454(3) 0.523(3) 0.224(1)
H14 H 0.506(3) 0.755(3) 0.164(1)
H15 H 0.342(2) 0.529(3) -0.013(1)
H16 H 0.293(2) 0.304(3) 0.045(1)
H17 H 0.5560 0.8327 0.0451
H18 H 0.4386 0.7996 -0.0152
H19 H 0.4266 0.9170 0.0445
loop_
_geom_bond_atom_site_label_1
_geom_bond_atom_site_label_2
_geom_bond_site_symmetry_1
_geom_bond_site_symmetry_2
S1 O4 1_555 1_555
O1 C2 1_555 1_555
O2 C4 1_555 1_555
O3 C4 1_555 1_555
O5 S1 1_555 1_555
N1 C3 1_555 1_555
C1 C2 1_555 1_555
C2 H4 1_555 1_555
C3 O1 1_555 1_555
C4 N1 1_555 1_555
C5 O2 1_555 1_555
C6 N1 1_555 1_555
C7 S1 1_555 1_555
C8 C7 1_555 1_555
C9 C3 1_555 1_555
C10 S1 1_555 1_555
C11 C10 1_555 1_555
C12 C11 1_555 1_555
C13 C12 1_555 1_555
C14 C13 1_555 1_555
C15 C10 1_555 1_555
C16 C13 1_555 1_555
H1 C1 1_555 1_555
H2 C1 1_555 1_555
H3 C1 1_555 1_555
H5 C2 1_555 1_555
H6 C3 1_555 1_555
H7 C5 1_555 1_555
H8 C5 1_555 1_555
H9 C8 1_555 1_555
H10 C8 1_555 1_555
H11 C9 1_555 1_555
H12 C9 1_555 1_555
H13 C11 1_555 1_555
H14 C12 1_555 1_555
H15 C14 1_555 1_555
H16 C15 1_555 1_555
H17 C16 1_555 1_555
H18 C16 1_555 1_555
H19 C16 1_555 1_555
C5 C6 1_555 1_555
C6 C7 1_555 1_555
C8 C9 1_555 1_555
C14 C15 1_555 1_555

#END
