
#######################################################################
#
#                 Cambridge Crystallographic Data Centre
#                                CCDC 
#
#######################################################################
#
# If this CIF has been generated from an entry in the Cambridge 
# Structural Database, then it will include bibliographic, chemical, 
# crystal, experimental, refinement or atomic coordinate data resulting 
# from the CCDC's data processing and validation procedures.
#
#######################################################################

data_HIWWIU
_chemical_formula_moiety         'C21 H23 N1 O5 S1'
_chemical_name_systematic        
(Z)-4-(2-(Benzyloxy)-1-(p-toluenesulfonyl)ethylidene)-5,5-dimethyloxazolidin-2-one
_symmetry_cell_setting           triclinic
_symmetry_space_group_name_H-M   'P -1'
_symmetry_Int_Tables_number      2
_space_group_name_Hall           '-P 1'
loop_
_symmetry_equiv_pos_site_id
_symmetry_equiv_pos_as_xyz
1 x,y,z
2 -x,-y,-z
_cell_length_a                   8.0172(6)
_cell_length_b                   10.930(1)
_cell_length_c                   12.653(1)
_cell_angle_alpha                102.979(3)
_cell_angle_beta                 107.0001(7)
_cell_angle_gamma                95.089(1)
_cell_volume                     1018.95
_exptl_crystal_description       prism
_chemical_melting_point          '139.9-140.6 deg.C'
_cell_formula_units_Z            2
loop_
_atom_site_label
_atom_site_type_symbol
_atom_site_fract_x
_atom_site_fract_y
_atom_site_fract_z
S1 S 0.54291(5) 0.31183(4) 0.78799(3)
O1 O 0.2300(2) 0.6354(1) 0.63128(9)
O2 O 0.3875(2) 0.6145(1) 0.5105(1)
O3 O 0.1574(2) 0.3000(1) 0.8403(1)
O4 O 0.6088(2) 0.2783(1) 0.89446(10)
O5 O 0.6679(1) 0.3691(1) 0.7443(1)
N1 N 0.4197(2) 0.5016(1) 0.6465(1)
C1 C 0.3506(2) 0.4916(1) 0.7319(1)
C2 C 0.2154(2) 0.5828(1) 0.7260(1)
C3 C 0.3507(2) 0.5865(1) 0.5881(1)
C4 C 0.3890(2) 0.4153(1) 0.8028(1)
C5 C 0.0269(2) 0.5146(2) 0.6894(2)
C6 C 0.2640(3) 0.6956(2) 0.8306(2)
C7 C 0.3014(2) 0.4031(2) 0.8903(1)
C8 C 0.0617(3) 0.2832(3) 0.9164(2)
C9 C 0.1515(2) 0.2200(2) 1.0060(2)
C10 C 0.4207(2) 0.1732(1) 0.6830(1)
C11 C 0.3478(3) 0.0741(2) 0.7155(2)
C12 C 0.2488(3) -0.0332(2) 0.6323(2)
C13 C 0.2206(2) -0.0443(2) 0.5175(2)
C14 C 0.2940(3) 0.0555(2) 0.4872(2)
C15 C 0.3958(3) 0.1642(2) 0.5686(1)
C16 C 0.1118(3) -0.1624(2) 0.4283(2)
C17 C 0.1968(3) 0.2787(2) 1.1210(2)
C18 C 0.2690(3) 0.2141(3) 1.2016(2)
C19 C 0.3001(4) 0.0930(3) 1.1676(3)
C20 C 0.2589(4) 0.0344(3) 1.0546(3)
C21 C 0.1849(4) 0.0964(2) 0.9740(2)
H1 H 0.492(2) 0.463(2) 0.630(2)
H2 H 0.010(3) 0.472(2) 0.750(2)
H3 H -0.052(3) 0.577(2) 0.676(2)
H4 H -0.001(3) 0.444(2) 0.618(2)
H5 H 0.248(3) 0.668(2) 0.895(2)
H6 H 0.181(4) 0.753(3) 0.811(2)
H7 H 0.390(4) 0.742(3) 0.857(2)
H8 H 0.382(2) 0.390(2) 0.960(1)
H9 H 0.258(3) 0.483(2) 0.912(2)
H10 H 0.045(4) 0.377(3) 0.952(2)
H11 H -0.054(4) 0.237(3) 0.868(2)
H12 H 0.364(3) 0.081(2) 0.790(2)
H13 H 0.204(4) -0.098(3) 0.653(2)
H14 H 0.282(3) 0.058(2) 0.412(2)
H15 H 0.447(3) 0.232(2) 0.540(2)
H16 H -0.0044 -0.1735 0.4334
H17 H 0.1059 -0.1539 0.3543
H18 H 0.1651 -0.2342 0.4412
H19 H 0.176(3) 0.366(2) 1.143(2)
H20 H 0.298(4) 0.249(3) 1.282(3)
H21 H 0.350(4) 0.049(4) 1.232(3)
H22 H 0.296(4) -0.035(3) 1.039(2)
H23 H 0.152(5) 0.058(3) 0.903(3)
loop_
_geom_bond_atom_site_label_1
_geom_bond_atom_site_label_2
_geom_bond_site_symmetry_1
_geom_bond_site_symmetry_2
S1 O4 1_555 1_555
O1 C2 1_555 1_555
O2 C3 1_555 1_555
O3 C7 1_555 1_555
O5 S1 1_555 1_555
N1 C1 1_555 1_555
C1 C2 1_555 1_555
C2 C5 1_555 1_555
C3 O1 1_555 1_555
C4 S1 1_555 1_555
C5 H2 1_555 1_555
C6 C2 1_555 1_555
C7 C4 1_555 1_555
C8 O3 1_555 1_555
C9 C8 1_555 1_555
C10 S1 1_555 1_555
C11 C10 1_555 1_555
C12 C11 1_555 1_555
C13 C12 1_555 1_555
C14 C13 1_555 1_555
C15 C10 1_555 1_555
C16 C13 1_555 1_555
C17 C9 1_555 1_555
C18 C17 1_555 1_555
C19 C18 1_555 1_555
C20 C19 1_555 1_555
C21 C9 1_555 1_555
H1 N1 1_555 1_555
H3 C5 1_555 1_555
H4 C5 1_555 1_555
H5 C6 1_555 1_555
H6 C6 1_555 1_555
H7 C6 1_555 1_555
H8 C7 1_555 1_555
H9 C7 1_555 1_555
H10 C8 1_555 1_555
H11 C8 1_555 1_555
H12 C11 1_555 1_555
H13 C12 1_555 1_555
H14 C14 1_555 1_555
H15 C15 1_555 1_555
H16 C16 1_555 1_555
H17 C16 1_555 1_555
H18 C16 1_555 1_555
H19 C17 1_555 1_555
H20 C18 1_555 1_555
H21 C19 1_555 1_555
H22 C20 1_555 1_555
H23 C21 1_555 1_555
N1 C3 1_555 1_555
C1 C4 1_555 1_555
C14 C15 1_555 1_555
C20 C21 1_555 1_555

#END
