
#######################################################################
#
#                 Cambridge Crystallographic Data Centre
#                                CCDC 
#
#######################################################################
#
# If this CIF has been generated from an entry in the Cambridge 
# Structural Database, then it will include bibliographic, chemical, 
# crystal, experimental, refinement or atomic coordinate data resulting 
# from the CCDC's data processing and validation procedures.
#
#######################################################################

data_HIWXES
_chemical_formula_moiety         'C19 H15 N3 O4 S1'
_chemical_name_systematic        
1'-methyl-3a-nitro-3-thioxo-2,3,3a,9b-tetrahydro-4H-spiro[chromeno[3,4-c]pyrrole-1,3'-indol]-2'(1'H)-one
_symmetry_cell_setting           monoclinic
_symmetry_space_group_name_H-M   'P 21'
_symmetry_Int_Tables_number      4
_space_group_name_Hall           'P 2yb'
loop_
_symmetry_equiv_pos_site_id
_symmetry_equiv_pos_as_xyz
1 x,y,z
2 -x,1/2+y,-z
_cell_length_a                   9.6326(18)
_cell_length_b                   7.9203(15)
_cell_length_c                   11.984(2)
_cell_angle_alpha                90
_cell_angle_beta                 98.987(3)
_cell_angle_gamma                90
_cell_volume                     903.072
_cell_formula_units_Z            2
loop_
_atom_site_label
_atom_site_type_symbol
_atom_site_fract_x
_atom_site_fract_y
_atom_site_fract_z
C1 C 0.07334(16) 0.4825(2) 0.66772(13)
C2 C 0.15985(17) 0.3258(2) 0.69944(14)
C3 C 0.1534(2) 0.2035(2) 0.77989(17)
H1 H 0.0864 0.2099 0.8279
C4 C 0.2487(3) 0.0697(3) 0.7886(2)
H2 H 0.2461 -0.0136 0.8429
C5 C 0.3471(3) 0.0611(3) 0.7161(3)
H3 H 0.4109 -0.0279 0.7235
C6 C 0.3534(3) 0.1809(4) 0.6331(2)
H4 H 0.4188 0.1733 0.5839
C7 C 0.25848(19) 0.3121(3) 0.62653(16)
C8 C 0.1361(2) 0.5508(3) 0.56476(14)
C9 C 0.3378(2) 0.4763(6) 0.46738(19)
H5 H 0.3136 0.5804 0.4280
H6 H 0.3292 0.3848 0.4143
H7 H 0.4329 0.4824 0.5059
C10 C -0.16052(18) 0.5170(2) 0.70354(14)
C11 C -0.06731(18) 0.6209(2) 0.79409(15)
C12 C 0.07575(17) 0.6290(2) 0.75544(13)
H8 H 0.0789 0.7351 0.7139
C13 C 0.19645(17) 0.6326(2) 0.85216(14)
C14 C 0.1716(2) 0.6453(2) 0.96275(15)
C15 C -0.0580(2) 0.5421(3) 0.91060(16)
H9 H -0.1501 0.5422 0.9337
H10 H -0.0265 0.4260 0.9083
C16 C 0.2813(3) 0.6776(3) 1.05114(18)
H11 H 0.2631 0.6888 1.1248
C17 C 0.4161(3) 0.6928(4) 1.0283(2)
H12 H 0.4888 0.7171 1.0867
C18 C 0.4452(2) 0.6726(3) 0.9198(2)
H13 H 0.5372 0.6795 0.9056
C19 C 0.33569(19) 0.6418(3) 0.83229(18)
H14 H 0.3551 0.6270 0.7593
N1 N 0.24360(18) 0.4483(3) 0.54913(13)
N2 N -0.07670(16) 0.4487(2) 0.63859(13)
H15 H -0.1093 0.3868 0.5815
N3 N -0.1330(2) 0.7967(3) 0.7981(2)
O1 O 0.0971(2) 0.6772(3) 0.51285(14)
O2 O 0.03801(16) 0.6353(2) 0.98990(12)
O3 O -0.0992(2) 0.9057(3) 0.7375(2)
O4 O -0.2191(3) 0.8154(3) 0.8597(3)
S1 S -0.33092(5) 0.48903(10) 0.69459(5)
loop_
_geom_bond_atom_site_label_1
_geom_bond_atom_site_label_2
_geom_bond_site_symmetry_1
_geom_bond_site_symmetry_2
C1 C2 1_555 1_555
C2 C3 1_555 1_555
C3 H1 1_555 1_555
C4 C3 1_555 1_555
H2 C4 1_555 1_555
C5 C4 1_555 1_555
H3 C5 1_555 1_555
C6 C5 1_555 1_555
H4 C6 1_555 1_555
C7 C2 1_555 1_555
C8 C1 1_555 1_555
C9 H5 1_555 1_555
H6 C9 1_555 1_555
H7 C9 1_555 1_555
C10 C11 1_555 1_555
C11 C12 1_555 1_555
C12 C1 1_555 1_555
H8 C12 1_555 1_555
C13 C12 1_555 1_555
C14 C13 1_555 1_555
C15 C11 1_555 1_555
H9 C15 1_555 1_555
H10 C15 1_555 1_555
C16 C14 1_555 1_555
H11 C16 1_555 1_555
C17 C16 1_555 1_555
H12 C17 1_555 1_555
C18 C17 1_555 1_555
H13 C18 1_555 1_555
C19 C13 1_555 1_555
H14 C19 1_555 1_555
N1 C7 1_555 1_555
N2 C1 1_555 1_555
H15 N2 1_555 1_555
N3 C11 1_555 1_555
O1 C8 1_555 1_555
O2 C14 1_555 1_555
O3 N3 1_555 1_555
O4 N3 1_555 1_555
S1 C10 1_555 1_555
C6 C7 1_555 1_555
C8 N1 1_555 1_555
C9 N1 1_555 1_555
C10 N2 1_555 1_555
C15 O2 1_555 1_555
C18 C19 1_555 1_555

#END
