
#######################################################################
#
#                 Cambridge Crystallographic Data Centre
#                                CCDC 
#
#######################################################################
#
# If this CIF has been generated from an entry in the Cambridge 
# Structural Database, then it will include bibliographic, chemical, 
# crystal, experimental, refinement or atomic coordinate data resulting 
# from the CCDC's data processing and validation procedures.
#
#######################################################################

data_HIXBAT
_chemical_formula_moiety         'C27 H53 B1 N2 P2'
_chemical_name_systematic        
3,6-bis(di-tert-butylphosphino)-3,6-diaza-2-boratricyclo[6.3.3.0^2,7^]tetradec-4-ene
_symmetry_cell_setting           orthorhombic
_symmetry_space_group_name_H-M   'C 2 2 21'
_symmetry_Int_Tables_number      20
_space_group_name_Hall           'C 2n 2'
loop_
_symmetry_equiv_pos_site_id
_symmetry_equiv_pos_as_xyz
1 x,y,z
2 x,-y,-z
3 -x,y,1/2-z
4 -x,-y,1/2+z
5 1/2+x,1/2+y,z
6 1/2+x,1/2-y,-z
7 1/2-x,1/2+y,1/2-z
8 1/2-x,1/2-y,1/2+z
_cell_length_a                   9.5064(8)
_cell_length_b                   20.8460(15)
_cell_length_c                   29.535(2)
_cell_angle_alpha                90
_cell_angle_beta                 90
_cell_angle_gamma                90
_cell_volume                     5852.96
_cell_formula_units_Z            8
loop_
_atom_site_label
_atom_site_type_symbol
_atom_site_fract_x
_atom_site_fract_y
_atom_site_fract_z
P1 P 0.80507(14) -0.06126(5) 0.12385(4)
P2 P 0.80624(14) 0.24176(5) 0.12573(4)
N1 N 0.8162(5) 0.02071(17) 0.11523(13)
B1 B 0.9477(7) 0.0533(3) 0.1040(3)
C1 C 0.7452(10) -0.0268(5) 0.2103(2)
H1 H 0.7013 -0.0366 0.2395
H2 H 0.7275 0.0182 0.2026
H3 H 0.8468 -0.0342 0.2123
C2 C 0.6829(7) -0.0699(2) 0.17384(17)
C3 C 0.6968(7) 0.0585(2) 0.10903(18)
H4 H 0.6105 0.0368 0.1037
C4 C 0.6930(7) 0.1222(2) 0.10986(18)
H5 H 0.6051 0.1432 0.1062
N2 N 0.8176(4) 0.16033(17) 0.11610(13)
C5 C 0.6817(7) 0.2493(3) 0.17569(17)
C6 C 0.6921(11) 0.3180(4) 0.1913(2)
H6 H 0.6437 0.3228 0.2204
H7 H 0.6482 0.3462 0.1688
H8 H 0.7913 0.3298 0.1949
C7 C 0.5857(7) 0.2460(4) 0.0548(2)
H9 H 0.5094 0.2552 0.0761
H10 H 0.5959 0.1995 0.0513
H11 H 0.5637 0.2653 0.0253
C8 C 0.7224(5) 0.2742(3) 0.07269(16)
C9 C 0.7188(5) -0.0923(3) 0.07096(14)
C10 C 0.8328(7) -0.0826(3) 0.03450(17)
H12 H 0.7964 -0.0965 0.0050
H13 H 0.9161 -0.1081 0.0423
H14 H 0.8584 -0.0371 0.0330
C11 C 0.7009(10) -0.1655(3) 0.0771(2)
H15 H 0.6204 -0.1739 0.0970
H16 H 0.7863 -0.1835 0.0907
H17 H 0.6846 -0.1855 0.0476
C12 C 0.5858(8) -0.0640(4) 0.0528(2)
H18 H 0.6024 -0.0193 0.0441
H19 H 0.5126 -0.0657 0.0761
H20 H 0.5551 -0.0885 0.0262
C13 C 0.6939(12) -0.1388(3) 0.1901(2)
H21 H 0.7933 -0.1509 0.1926
H22 H 0.6468 -0.1672 0.1685
H23 H 0.6488 -0.1427 0.2198
C14 C 0.5262(8) -0.0564(5) 0.1689(3)
H24 H 0.4883 -0.0818 0.1437
H25 H 0.5118 -0.0107 0.1628
H26 H 0.4776 -0.0682 0.1969
C15 C 1.0863(7) 0.0174(3) 0.1144(3)
H27 H 1.0627 -0.0291 0.1105
C16 C 1.0875(7) 0.0850(5) 0.1868(2)
H28 H 1.1198 0.0824 0.2186
H29 H 0.9834 0.0860 0.1874
C17 C 1.1393(9) 0.1497(4) 0.1670(2)
H30 H 1.1066 0.1847 0.1871
H31 H 1.2434 0.1499 0.1676
C18 C 1.0912(5) 0.1645(2) 0.1187(2)
H32 H 1.0683 0.2113 0.1178
C19 C 0.9487(6) 0.1271(3) 0.1072(3)
H33 H 0.9505 0.1353 0.0739
C20 C 1.2056(7) 0.1532(3) 0.0829(2)
H34 H 1.2733 0.1892 0.0846
H35 H 1.1606 0.1551 0.0527
C21 C 1.2897(6) 0.0897(3) 0.0858(2)
H36 H 1.3643 0.0903 0.0624
H37 H 1.3364 0.0876 0.1158
C22 C 1.2021(8) 0.0302(3) 0.0796(3)
H38 H 1.2663 -0.0072 0.0795
H39 H 1.1577 0.0324 0.0493
C23 C 0.7450(10) 0.2074(5) 0.2119(2)
H40 H 0.8436 0.2195 0.2166
H41 H 0.7398 0.1624 0.2025
H42 H 0.6928 0.2131 0.2403
C24 C 0.5235(8) 0.2351(5) 0.1697(3)
H43 H 0.5110 0.1902 0.1607
H44 H 0.4845 0.2632 0.1463
H45 H 0.4745 0.2427 0.1984
C25 C 0.7092(9) 0.3464(3) 0.0783(2)
H46 H 0.6854 0.3658 0.0491
H47 H 0.7987 0.3639 0.0891
H48 H 0.6349 0.3559 0.1003
C26 C 0.8366(8) 0.2616(3) 0.03614(18)
H49 H 0.8093 0.2826 0.0078
H50 H 0.8456 0.2153 0.0311
H51 H 0.9269 0.2789 0.0465
C27 C 1.1330(9) 0.0233(5) 0.1627(3)
H52 H 1.1870 -0.0089 0.1773
loop_
_geom_bond_atom_site_label_1
_geom_bond_atom_site_label_2
_geom_bond_site_symmetry_1
_geom_bond_site_symmetry_2
P1 N1 1_555 1_555
P2 N2 1_555 1_555
N1 B1 1_555 1_555
B1 C15 1_555 1_555
C1 H1 1_555 1_555
H2 C1 1_555 1_555
H3 C1 1_555 1_555
C2 P1 1_555 1_555
C3 N1 1_555 1_555
H4 C3 1_555 1_555
C4 C3 1_555 1_555
H5 C4 1_555 1_555
N2 C4 1_555 1_555
C5 P2 1_555 1_555
C6 C5 1_555 1_555
H6 C6 1_555 1_555
H7 C6 1_555 1_555
H8 C6 1_555 1_555
C7 H9 1_555 1_555
H10 C7 1_555 1_555
H11 C7 1_555 1_555
C8 P2 1_555 1_555
C9 P1 1_555 1_555
C10 C9 1_555 1_555
H12 C10 1_555 1_555
H13 C10 1_555 1_555
H14 C10 1_555 1_555
C11 C9 1_555 1_555
H15 C11 1_555 1_555
H16 C11 1_555 1_555
H17 C11 1_555 1_555
C12 C9 1_555 1_555
H18 C12 1_555 1_555
H19 C12 1_555 1_555
H20 C12 1_555 1_555
C13 C2 1_555 1_555
H21 C13 1_555 1_555
H22 C13 1_555 1_555
H23 C13 1_555 1_555
C14 C2 1_555 1_555
H24 C14 1_555 1_555
H25 C14 1_555 1_555
H26 C14 1_555 1_555
C15 H27 1_555 1_555
C16 H28 1_555 1_555
H29 C16 1_555 1_555
C17 C16 1_555 1_555
H30 C17 1_555 1_555
H31 C17 1_555 1_555
C18 C17 1_555 1_555
H32 C18 1_555 1_555
C19 B1 1_555 1_555
H33 C19 1_555 1_555
C20 C18 1_555 1_555
H34 C20 1_555 1_555
H35 C20 1_555 1_555
C21 C20 1_555 1_555
H36 C21 1_555 1_555
H37 C21 1_555 1_555
C22 C15 1_555 1_555
H38 C22 1_555 1_555
H39 C22 1_555 1_555
C23 C5 1_555 1_555
H40 C23 1_555 1_555
H41 C23 1_555 1_555
H42 C23 1_555 1_555
C24 C5 1_555 1_555
H43 C24 1_555 1_555
H44 C24 1_555 1_555
H45 C24 1_555 1_555
C25 C8 1_555 1_555
H46 C25 1_555 1_555
H47 C25 1_555 1_555
H48 C25 1_555 1_555
C26 C8 1_555 1_555
H49 C26 1_555 1_555
H50 C26 1_555 1_555
H51 C26 1_555 1_555
C27 C15 1_555 1_555
H52 C27 1_555 1_555
C1 C2 1_555 1_555
N2 C19 1_555 1_555
C7 C8 1_555 1_555
C16 C27 1_555 1_555
C18 C19 1_555 1_555
C21 C22 1_555 1_555

#END
