
#######################################################################
#
#                 Cambridge Crystallographic Data Centre
#                                CCDC 
#
#######################################################################
#
# If this CIF has been generated from an entry in the Cambridge 
# Structural Database, then it will include bibliographic, chemical, 
# crystal, experimental, refinement or atomic coordinate data resulting 
# from the CCDC's data processing and validation procedures.
#
#######################################################################

data_HIXLUX
_chemical_formula_moiety         'C16 H18 N4 O2'
_chemical_name_systematic        
1,1,3-trimethyl-2-(4-nitrophenyl)-3-phenylguanidine
_symmetry_cell_setting           monoclinic
_symmetry_space_group_name_H-M   'C 2/c'
_symmetry_Int_Tables_number      15
_space_group_name_Hall           '-C 2yn'
loop_
_symmetry_equiv_pos_site_id
_symmetry_equiv_pos_as_xyz
1 x,y,z
2 -x,y,1/2-z
3 1/2+x,1/2+y,z
4 1/2-x,1/2+y,1/2-z
5 -x,-y,-z
6 x,-y,1/2+z
7 1/2-x,1/2-y,-z
8 1/2+x,1/2-y,1/2+z
_cell_length_a                   18.409(2)
_cell_length_b                   7.7140(8)
_cell_length_c                   22.493(3)
_cell_angle_alpha                90
_cell_angle_beta                 109.503(7)
_cell_angle_gamma                90
_cell_volume                     3010.9
_exptl_crystal_colour            colorless
_exptl_crystal_description       plate
_cell_formula_units_Z            8
_exptl_crystal_recrystallization_method acetonitrile
loop_
_atom_site_label
_atom_site_type_symbol
_atom_site_fract_x
_atom_site_fract_y
_atom_site_fract_z
C1 C 0.11956(11) 0.3349(3) 0.21285(9)
N1 N 0.09025(10) 0.2129(2) 0.16803(8)
N2 N 0.16570(9) 0.4615(2) 0.19854(7)
N3 N 0.10725(10) 0.3212(2) 0.26620(7)
C2 C 0.12086(14) 0.1763(3) 0.11771(10)
H1 H 0.0856 0.2179 0.0784
H2 H 0.1276 0.0534 0.1150
H3 H 0.1697 0.2333 0.1264
C3 C 0.03122(15) 0.0957(3) 0.17362(11)
H4 H 0.0551 -0.0061 0.1964
H5 H -0.0021 0.0632 0.1323
H6 H 0.0016 0.1525 0.1958
C4 C 0.24120(12) 0.4984(3) 0.24453(11)
H7 H 0.2483 0.4306 0.2818
H8 H 0.2445 0.6194 0.2552
H9 H 0.2805 0.4697 0.2269
C5 C 0.13871(12) 0.5590(3) 0.14236(9)
C6 C 0.05972(12) 0.5794(3) 0.11112(10)
H10 H 0.0246 0.5297 0.1277
C7 C 0.03365(14) 0.6734(3) 0.05569(10)
H11 H -0.0191 0.6847 0.0349
C8 C 0.08444(15) 0.7502(3) 0.03083(10)
H12 H 0.0665 0.8125 -0.0067
C9 C 0.16233(15) 0.7334(3) 0.06238(11)
H13 H 0.1971 0.7867 0.0462
C10 C 0.18983(13) 0.6391(3) 0.11746(10)
H14 H 0.2426 0.6291 0.1380
C11 C 0.11811(11) 0.4595(3) 0.30767(9)
C12 C 0.14071(12) 0.4207(3) 0.37217(9)
H15 H 0.1473 0.3054 0.3849
C13 C 0.15342(12) 0.5484(3) 0.41700(9)
H16 H 0.1689 0.5200 0.4596
C14 C 0.14288(11) 0.7195(3) 0.39797(9)
C15 C 0.11713(12) 0.7640(3) 0.33462(9)
H17 H 0.1088 0.8795 0.3224
C16 C 0.10416(12) 0.6349(3) 0.29011(9)
H18 H 0.0858 0.6639 0.2476
N4 N 0.15796(10) 0.8552(2) 0.44528(8)
O1 O 0.17013(11) 0.8141(2) 0.50039(7)
O2 O 0.15764(12) 1.0061(2) 0.42853(9)
loop_
_geom_bond_atom_site_label_1
_geom_bond_atom_site_label_2
_geom_bond_site_symmetry_1
_geom_bond_site_symmetry_2
C1 N1 1_555 1_555
N1 C2 1_555 1_555
N2 C1 1_555 1_555
N3 C1 1_555 1_555
C2 H1 1_555 1_555
H2 C2 1_555 1_555
H3 C2 1_555 1_555
C3 N1 1_555 1_555
H4 C3 1_555 1_555
H5 C3 1_555 1_555
H6 C3 1_555 1_555
C4 N2 1_555 1_555
H7 C4 1_555 1_555
H8 C4 1_555 1_555
H9 C4 1_555 1_555
C5 N2 1_555 1_555
C6 C5 1_555 1_555
H10 C6 1_555 1_555
C7 C6 1_555 1_555
H11 C7 1_555 1_555
C8 C7 1_555 1_555
H12 C8 1_555 1_555
C9 C8 1_555 1_555
H13 C9 1_555 1_555
C10 C5 1_555 1_555
H14 C10 1_555 1_555
C11 N3 1_555 1_555
C12 C11 1_555 1_555
H15 C12 1_555 1_555
C13 C12 1_555 1_555
H16 C13 1_555 1_555
C14 C13 1_555 1_555
C15 C14 1_555 1_555
H17 C15 1_555 1_555
C16 C11 1_555 1_555
H18 C16 1_555 1_555
N4 C14 1_555 1_555
O1 N4 1_555 1_555
O2 N4 1_555 1_555
C9 C10 1_555 1_555
C15 C16 1_555 1_555

#END
