
#######################################################################
#
#                 Cambridge Crystallographic Data Centre
#                                CCDC 
#
#######################################################################
#
# If this CIF has been generated from an entry in the Cambridge 
# Structural Database, then it will include bibliographic, chemical, 
# crystal, experimental, refinement or atomic coordinate data resulting 
# from the CCDC's data processing and validation procedures.
#
#######################################################################

data_HIXMEH
_chemical_formula_moiety         'C13 H14 N2 O3'
_chemical_name_systematic        
6-Methoxy-9b-methyl-3,3a,5,9b-tetrahydro-1H-pyrrolo[3,2-c]quinoline-2,4-dione
_symmetry_cell_setting           monoclinic
_symmetry_space_group_name_H-M   'P 21/c'
_symmetry_Int_Tables_number      14
_space_group_name_Hall           '-P 2ybc'
loop_
_symmetry_equiv_pos_site_id
_symmetry_equiv_pos_as_xyz
1 x,y,z
2 -x,1/2+y,1/2-z
3 -x,-y,-z
4 x,1/2-y,1/2+z
_cell_length_a                   5.5129(5)
_cell_length_b                   18.7316(16)
_cell_length_c                   11.8760(10)
_cell_angle_alpha                90.00
_cell_angle_beta                 98.6330(10)
_cell_angle_gamma                90.00
_cell_volume                     1212.49
_exptl_crystal_colour            white
_cell_formula_units_Z            4
loop_
_atom_site_label
_atom_site_type_symbol
_atom_site_fract_x
_atom_site_fract_y
_atom_site_fract_z
O1 O 0.22827(17) 0.45337(5) 0.44667(7)
O2 O 0.06839(17) 0.41325(4) 0.07365(7)
N1 N 0.1463(2) 0.56833(5) 0.40225(9)
O3 O -0.05583(19) 0.68511(5) 0.46515(8)
C1 C 0.1751(2) 0.63094(6) 0.34070(10)
N2 N 0.20728(18) 0.52536(5) 0.12627(9)
C2 C 0.2993(2) 0.63093(6) 0.24731(10)
C3 C 0.3974(2) 0.56078(6) 0.20830(10)
C4 C 0.0645(2) 0.69349(7) 0.37371(11)
C5 C 0.2031(2) 0.45434(6) 0.13584(10)
C6 C 0.4383(2) 0.50299(7) 0.30268(10)
C7 C 0.0826(3) 0.75660(7) 0.31463(12)
C8 C 0.3929(3) 0.43298(7) 0.23610(11)
C9 C 0.2616(2) 0.50625(6) 0.38948(10)
C10 C 0.3143(3) 0.69489(7) 0.18846(12)
C11 C 0.2084(3) 0.75653(7) 0.22196(12)
C12 C 0.6282(3) 0.57107(9) 0.15340(13)
C13 C -0.2368(3) 0.73673(9) 0.48197(16)
H1 H 0.338(3) 0.3939(8) 0.2811(12)
H2 H -0.363(3) 0.7436(10) 0.4085(16)
H3 H 0.603(3) 0.5062(7) 0.3464(11)
H4 H 0.130(3) 0.5477(7) 0.0652(12)
H5 H 0.040(3) 0.5704(7) 0.4541(13)
H6 H 0.691(3) 0.5236(9) 0.1376(12)
H7 H 0.589(3) 0.5983(8) 0.0787(14)
H8 H 0.747(3) 0.5981(9) 0.2042(14)
H9 H 0.542(3) 0.4159(8) 0.2069(13)
H10 H 0.398(3) 0.6952(8) 0.1228(14)
H11 H 0.015(3) 0.7996(7) 0.3398(12)
H12 H 0.216(3) 0.7997(8) 0.1790(14)
H13 H -0.157(3) 0.7827(10) 0.5063(15)
H14 H -0.323(3) 0.7179(9) 0.5430(15)
loop_
_geom_bond_atom_site_label_1
_geom_bond_atom_site_label_2
_geom_bond_site_symmetry_1
_geom_bond_site_symmetry_2
O1 C9 1_555 1_555
O2 C5 1_555 1_555
N1 C1 1_555 1_555
O3 C4 1_555 1_555
C1 C2 1_555 1_555
N2 C3 1_555 1_555
C2 C3 1_555 1_555
C3 C6 1_555 1_555
C4 C1 1_555 1_555
C5 N2 1_555 1_555
C6 C8 1_555 1_555
C7 C4 1_555 1_555
C8 C5 1_555 1_555
C9 N1 1_555 1_555
C10 C2 1_555 1_555
C11 C7 1_555 1_555
C12 C3 1_555 1_555
C13 O3 1_555 1_555
H1 C8 1_555 1_555
H2 C13 1_555 1_555
H3 C6 1_555 1_555
H4 N2 1_555 1_555
H5 N1 1_555 1_555
H6 C12 1_555 1_555
H7 C12 1_555 1_555
H8 C12 1_555 1_555
H9 C8 1_555 1_555
H10 C10 1_555 1_555
H11 C7 1_555 1_555
H12 C11 1_555 1_555
H13 C13 1_555 1_555
H14 C13 1_555 1_555
C6 C9 1_555 1_555
C10 C11 1_555 1_555

#END
