
#######################################################################
#
#                 Cambridge Crystallographic Data Centre
#                                CCDC 
#
#######################################################################
#
# If this CIF has been generated from an entry in the Cambridge 
# Structural Database, then it will include bibliographic, chemical, 
# crystal, experimental, refinement or atomic coordinate data resulting 
# from the CCDC's data processing and validation procedures.
#
#######################################################################

data_HIXNUZ01
_chemical_formula_moiety         'C22 H21 F1 I1 1+,C1 F3 O3 S1 1-'
_chemical_name_systematic        
"(5-fluoro-4'-methylbiphenyl-2-yl)(mesityl)iodonium trifluoromethanesulfonate"
_symmetry_cell_setting           monoclinic
_symmetry_space_group_name_H-M   'P 21/n'
_symmetry_Int_Tables_number      14
_space_group_name_Hall           '-P 2yn'
loop_
_symmetry_equiv_pos_site_id
_symmetry_equiv_pos_as_xyz
1 x,y,z
2 1/2-x,1/2+y,1/2-z
3 -x,-y,-z
4 1/2+x,1/2-y,1/2+z
_cell_length_a                   9.8987(8)
_cell_length_b                   24.374(2)
_cell_length_c                   10.0794(9)
_cell_angle_alpha                90
_cell_angle_beta                 105.820(2)
_cell_angle_gamma                90
_cell_volume                     2339.75
_exptl_crystal_colour            yellow
_exptl_crystal_description       block
_cell_formula_units_Z            4
loop_
_atom_site_label
_atom_site_type_symbol
_atom_site_fract_x
_atom_site_fract_y
_atom_site_fract_z
O1 O 0.3026(6) 0.06955(18) 0.8802(5)
C1 C 0.0696(7) 0.0300(3) 0.7314(8)
F1 F 0.0066(6) -0.0156(2) 0.6819(6)
F2 F 0.0720(5) 0.0605(2) 0.6257(5)
F3 F -0.0073(6) 0.0542(4) 0.7991(7)
O2 O 0.2225(6) -0.0155(2) 0.9503(5)
O3 O 0.3103(5) -0.01180(19) 0.7496(5)
S1 S 0.24551(15) 0.01636(6) 0.84096(15)
C2 C 0.6362(7) 0.1152(2) 0.6650(6)
C3 C 0.7058(6) 0.1336(2) 0.5718(7)
H1 H 0.7900 0.1524 0.6045
C4 C 0.6542(5) 0.1249(2) 0.4321(6)
C5 C 0.5286(5) 0.0968(2) 0.3865(6)
C6 C 0.4560(6) 0.0757(2) 0.4748(6)
C7 C 0.5089(7) 0.0871(2) 0.6182(6)
H2 H 0.4595 0.0760 0.6799
C8 C 0.2621(5) 0.1271(2) 0.1450(5)
C9 C 0.2661(6) 0.1846(2) 0.1484(6)
C10 C 0.1403(6) 0.2116(2) 0.1369(7)
H3 H 0.1372 0.2497 0.1361
C11 C 0.0189(6) 0.1814(3) 0.1265(7)
C12 C 0.0135(6) 0.1253(2) 0.1185(6)
H4 H -0.0707 0.1064 0.1055
C13 C 0.1373(6) 0.0983(2) 0.1305(6)
H5 H 0.1382 0.0601 0.1289
C14 C 0.7364(8) 0.3215(3) 0.1208(12)
H6 H 0.8164 0.2994 0.1202
H7 H 0.7599 0.3457 0.1990
H8 H 0.7092 0.3428 0.0377
C15 C 0.3908(6) 0.2173(2) 0.1483(6)
C16 C 0.4525(6) 0.2532(2) 0.2526(7)
H9 H 0.4197 0.2554 0.3305
C17 C 0.5641(7) 0.2863(3) 0.2419(8)
H10 H 0.6043 0.3101 0.3140
C18 C 0.6170(6) 0.2852(3) 0.1295(8)
C19 C 0.5565(7) 0.2485(3) 0.0272(7)
H11 H 0.5904 0.2461 -0.0500
C20 C 0.4453(7) 0.2149(3) 0.0362(7)
H12 H 0.4070 0.1905 -0.0349
C21 C 0.7369(6) 0.1458(3) 0.3363(7)
H13 H 0.7797 0.1154 0.3026
H14 H 0.8086 0.1706 0.3855
H15 H 0.6750 0.1647 0.2600
C22 C 0.6930(8) 0.1254(3) 0.8169(7)
H16 H 0.7348 0.0924 0.8617
H17 H 0.6179 0.1366 0.8544
H18 H 0.7625 0.1539 0.8318
C23 C 0.3196(6) 0.0431(3) 0.4328(7)
H19 H 0.2414 0.0679 0.4109
H20 H 0.3133 0.0197 0.5076
H21 H 0.3182 0.0210 0.3535
F4 F -0.1015(4) 0.20869(18) 0.1145(6)
I1 I 0.44677(3) 0.080765(13) 0.17435(3)
loop_
_geom_bond_atom_site_label_1
_geom_bond_atom_site_label_2
_geom_bond_site_symmetry_1
_geom_bond_site_symmetry_2
O1 S1 1_555 1_555
C1 F1 1_555 1_555
F2 C1 1_555 1_555
F3 C1 1_555 1_555
O2 S1 1_555 1_555
O3 S1 1_555 1_555
S1 C1 1_555 1_555
C2 C3 1_555 1_555
C3 H1 1_555 1_555
C4 C3 1_555 1_555
C5 C4 1_555 1_555
C6 C5 1_555 1_555
C7 C2 1_555 1_555
H2 C7 1_555 1_555
C8 C9 1_555 1_555
C9 C10 1_555 1_555
C10 H3 1_555 1_555
C11 C10 1_555 1_555
C12 C11 1_555 1_555
H4 C12 1_555 1_555
C13 C8 1_555 1_555
H5 C13 1_555 1_555
C14 H6 1_555 1_555
H7 C14 1_555 1_555
H8 C14 1_555 1_555
C15 C9 1_555 1_555
C16 C15 1_555 1_555
H9 C16 1_555 1_555
C17 C16 1_555 1_555
H10 C17 1_555 1_555
C18 C14 1_555 1_555
C19 C18 1_555 1_555
H11 C19 1_555 1_555
C20 C15 1_555 1_555
H12 C20 1_555 1_555
C21 C4 1_555 1_555
H13 C21 1_555 1_555
H14 C21 1_555 1_555
H15 C21 1_555 1_555
C22 C2 1_555 1_555
H16 C22 1_555 1_555
H17 C22 1_555 1_555
H18 C22 1_555 1_555
C23 C6 1_555 1_555
H19 C23 1_555 1_555
H20 C23 1_555 1_555
H21 C23 1_555 1_555
F4 C11 1_555 1_555
I1 C5 1_555 1_555
C6 C7 1_555 1_555
C8 I1 1_555 1_555
C12 C13 1_555 1_555
C17 C18 1_555 1_555
C19 C20 1_555 1_555

#END
