
#######################################################################
#
#                 Cambridge Crystallographic Data Centre
#                                CCDC 
#
#######################################################################
#
# If this CIF has been generated from an entry in the Cambridge 
# Structural Database, then it will include bibliographic, chemical, 
# crystal, experimental, refinement or atomic coordinate data resulting 
# from the CCDC's data processing and validation procedures.
#
#######################################################################

data_HIXPEJ
_chemical_formula_moiety         'C6 H14 N4 O4 S1'
_chemical_name_systematic        N,N'-bis(2-Aminocarbonylethyl)sulfamide
_symmetry_cell_setting           monoclinic
_symmetry_space_group_name_H-M   'C 2/c'
_symmetry_Int_Tables_number      15
_space_group_name_Hall           '-C 2yn'
loop_
_symmetry_equiv_pos_site_id
_symmetry_equiv_pos_as_xyz
1 x,y,z
2 1/2+x,1/2+y,z
3 x,-y,1/2+z
4 1/2+x,1/2-y,1/2+z
5 -x,-y,-z
6 1/2-x,1/2-y,-z
7 -x,y,1/2-z
8 1/2-x,1/2+y,1/2-z
_cell_length_a                   8.6530(5)
_cell_length_b                   5.5969(3)
_cell_length_c                   21.4247(12)
_cell_angle_alpha                90.00
_cell_angle_beta                 99.6440(10)
_cell_angle_gamma                90.00
_cell_volume                     1022.93
_exptl_crystal_colour            colorless
_cell_formula_units_Z            4
loop_
_atom_site_label
_atom_site_type_symbol
_atom_site_fract_x
_atom_site_fract_y
_atom_site_fract_z
N1 N 0.0501(2) 1.2583(3) 0.45161(9)
H1 H 0.1108(2) 1.3438(3) 0.47870(9)
H2 H -0.0463(2) 1.2989(3) 0.44007(9)
C1 C 0.1054(2) 1.0634(3) 0.42755(9)
O1 O 0.2430(2) 0.9999(3) 0.44301(8)
C2 C -0.0102(2) 0.9229(3) 0.38137(9)
H3 H -0.0789(2) 0.8346(3) 0.40447(9)
H4 H -0.0744(2) 1.0328(3) 0.35310(9)
C3 C 0.0685(2) 0.7510(3) 0.34275(9)
H5 H 0.1249(2) 0.8388(3) 0.31463(9)
H6 H 0.1432(2) 0.6535(3) 0.37054(9)
N2 N -0.0508(2) 0.5973(3) 0.30548(7)
H7 H -0.1452(2) 0.5938(3) 0.31311(7)
S1 S 0.0000 0.43584(9) 0.2500
O2 O -0.13826(15) 0.3072(2) 0.22280(7)
N2F N 0.0508(2) 0.5973(3) 0.19452(7)
C3F C -0.0685(2) 0.7510(3) 0.15725(9)
C2F C 0.0102(2) 0.9229(3) 0.11863(9)
C1F C -0.1054(2) 1.0634(3) 0.07245(9)
N1F N -0.0501(2) 1.2583(3) 0.04839(9)
H1F H -0.1108(2) 1.3438(3) 0.02130(9)
H2F H 0.0463(2) 1.2989(3) 0.05993(9)
O1F O -0.2430(2) 0.9999(3) 0.05699(8)
H3F H 0.0789(2) 0.8346(3) 0.09553(9)
H4F H 0.0744(2) 1.0328(3) 0.14690(9)
H5F H -0.1249(2) 0.8388(3) 0.18537(9)
H6F H -0.1432(2) 0.6535(3) 0.12946(9)
H7F H 0.1452(2) 0.5938(3) 0.18689(7)
O2F O 0.13826(15) 0.3072(2) 0.27720(7)
loop_
_geom_bond_atom_site_label_1
_geom_bond_atom_site_label_2
_geom_bond_site_symmetry_1
_geom_bond_site_symmetry_2
N1 H1 1_555 1_555
H2 N1 1_555 1_555
C1 N1 1_555 1_555
O1 C1 1_555 1_555
C2 C1 1_555 1_555
H3 C2 1_555 1_555
H4 C2 1_555 1_555
C3 C2 1_555 1_555
H5 C3 1_555 1_555
H6 C3 1_555 1_555
N2 C3 1_555 1_555
H7 N2 1_555 1_555
S1 N2 1_555 1_555
O2 S1 1_555 1_555
N2F S1 1_555 1_555
C3F N2F 1_555 1_555
C2F C3F 1_555 1_555
C1F C2F 1_555 1_555
N1F C1F 1_555 1_555
H1F N1F 1_555 1_555
H2F N1F 1_555 1_555
O1F C1F 1_555 1_555
H3F C2F 1_555 1_555
H4F C2F 1_555 1_555
H5F C3F 1_555 1_555
H6F C3F 1_555 1_555
H7F N2F 1_555 1_555
O2F S1 1_555 1_555

#END
