
#######################################################################
#
#                 Cambridge Crystallographic Data Centre
#                                CCDC 
#
#######################################################################
#
# If this CIF has been generated from an entry in the Cambridge 
# Structural Database, then it will include bibliographic, chemical, 
# crystal, experimental, refinement or atomic coordinate data resulting 
# from the CCDC's data processing and validation procedures.
#
#######################################################################

data_HIXQOV
_chemical_formula_moiety         'C22 H18 O2'
_chemical_name_systematic        2-Methoxy-9-(4-methoxyphenyl)anthracene
_symmetry_cell_setting           triclinic
_symmetry_space_group_name_H-M   'P -1'
_symmetry_Int_Tables_number      2
_space_group_name_Hall           '-P 1'
loop_
_symmetry_equiv_pos_site_id
_symmetry_equiv_pos_as_xyz
1 x,y,z
2 -x,-y,-z
_cell_length_a                   7.547(2)
_cell_length_b                   14.366(4)
_cell_length_c                   15.884(5)
_cell_angle_alpha                96.597(6)
_cell_angle_beta                 93.047(6)
_cell_angle_gamma                90.073(6)
_cell_volume                     1708.28
_exptl_crystal_colour            colorless
_exptl_crystal_description       prismatic
_cell_formula_units_Z            4
loop_
_atom_site_label
_atom_site_type_symbol
_atom_site_fract_x
_atom_site_fract_y
_atom_site_fract_z
O1 O 0.6671(5) 1.0709(2) 0.4007(3)
O2 O 1.0954(5) 0.6945(3) 0.6568(2)
C1 C 0.6007(7) 0.9078(3) 0.4149(3)
H1 H 0.7009 0.9028 0.4508
C2 C 0.5635(8) 0.9909(4) 0.3848(3)
C3 C 0.4139(8) 1.0016(4) 0.3303(4)
H2 H 0.3915 1.0588 0.3100
C4 C 0.3030(8) 0.9284(4) 0.3078(3)
H3 H 0.2022 0.9362 0.2732
C5 C 0.3375(7) 0.8389(4) 0.3363(3)
C6 C 0.4865(6) 0.8272(3) 0.3919(3)
C7 C 0.5228(6) 0.7401(3) 0.4193(3)
C8 C 0.4117(7) 0.6627(3) 0.3908(3)
C9 C 0.2602(7) 0.6740(4) 0.3347(3)
C10 C 0.2226(7) 0.7619(4) 0.3098(3)
H4 H 0.1213 0.7701 0.2756
C11 C 0.1490(7) 0.5957(4) 0.3046(4)
H5 H 0.0523 0.6033 0.2673
C12 C 0.1827(8) 0.5104(4) 0.3298(4)
H6 H 0.1082 0.4599 0.3107
C13 C 0.3312(8) 0.4983(4) 0.3850(4)
H7 H 0.3533 0.4394 0.4022
C14 C 0.4424(8) 0.5706(4) 0.4137(3)
H8 H 0.5408 0.5600 0.4490
C15 C 0.6780(6) 0.7279(3) 0.4801(3)
C16 C 0.8274(7) 0.6814(4) 0.4559(3)
H9 H 0.8338 0.6578 0.3991
C17 C 0.9705(7) 0.6673(4) 0.5114(4)
H10 H 1.0696 0.6344 0.4925
C18 C 0.9614(7) 0.7039(3) 0.5964(3)
C19 C 0.8132(7) 0.7517(4) 0.6222(3)
H11 H 0.8068 0.7759 0.6788
C20 C 0.6734(7) 0.7643(3) 0.5652(3)
H12 H 0.5747 0.7977 0.5838
C21 C 0.8291(9) 1.0659(4) 0.4507(5)
H13 H 0.8033 1.0519 0.5065
H14 H 0.8906 1.1249 0.4549
H15 H 0.9021 1.0174 0.4245
C22 C 1.2472(9) 0.6429(7) 0.6339(5)
H16 H 1.2123 0.5813 0.6085
H17 H 1.3233 0.6381 0.6835
H18 H 1.3096 0.6741 0.5939
O3 O 0.1943(6) 1.0959(3) 0.1085(3)
O4 O 0.5492(6) 0.6616(3) -0.1501(3)
C23 C 0.1120(8) 0.9316(4) 0.0911(3)
H19 H 0.2030 0.9166 0.0548
C24 C 0.0888(8) 1.0220(4) 0.1229(3)
C25 C -0.0510(9) 1.0466(4) 0.1777(4)
H20 H -0.0669 1.1090 0.1987
C26 C -0.1595(8) 0.9809(4) 0.1992(4)
H21 H -0.2513 0.9985 0.2344
C27 C -0.1381(7) 0.8841(4) 0.1695(3)
C28 C -0.0029(6) 0.8572(3) 0.1126(3)
C29 C 0.0245(7) 0.7630(4) 0.0848(3)
C30 C -0.0838(7) 0.6933(4) 0.1130(3)
C31 C -0.2182(7) 0.7205(4) 0.1711(3)
C32 C -0.2464(8) 0.8147(4) 0.1956(3)
H22 H -0.3392 0.8323 0.2301
C33 C -0.3239(8) 0.6484(5) 0.1998(4)
H23 H -0.4129 0.6650 0.2368
C34 C -0.2969(9) 0.5574(5) 0.1744(4)
H24 H -0.3659 0.5119 0.1944
C35 C -0.1620(8) 0.5301(4) 0.1163(4)
H25 H -0.1438 0.4669 0.0990
C36 C -0.0621(7) 0.5953(4) 0.0869(3)
H26 H 0.0233 0.5764 0.0485
C37 C 0.1667(7) 0.7345(3) 0.0248(3)
C38 C 0.1473(8) 0.7519(4) -0.0604(3)
H27 H 0.0451 0.7811 -0.0793
C39 C 0.2768(8) 0.7266(4) -0.1168(3)
H28 H 0.2609 0.7385 -0.1730
C40 C 0.4280(7) 0.6843(4) -0.0901(3)
C41 C 0.4507(7) 0.6673(4) -0.0069(4)
H29 H 0.5538 0.6389 0.0119
C42 C 0.3206(7) 0.6925(4) 0.0488(3)
H30 H 0.3381 0.6804 0.1049
C43 C 0.3375(10) 1.0754(5) 0.0566(6)
H31 H 0.4131 1.0304 0.0806
H32 H 0.4038 1.1317 0.0530
H33 H 0.2934 1.0500 0.0009
C44 C 0.7120(9) 0.6228(7) -0.1249(5)
H34 H 0.7660 0.6621 -0.0775
H35 H 0.7893 0.6183 -0.1713
H36 H 0.6916 0.5614 -0.1088
loop_
_geom_bond_atom_site_label_1
_geom_bond_atom_site_label_2
_geom_bond_site_symmetry_1
_geom_bond_site_symmetry_2
O1 C2 1_555 1_555
O2 C18 1_555 1_555
O3 C24 1_555 1_555
O4 C40 1_555 1_555
C1 H1 1_555 1_555
C2 C1 1_555 1_555
C3 C2 1_555 1_555
H2 C3 1_555 1_555
C4 C3 1_555 1_555
H3 C4 1_555 1_555
C5 C4 1_555 1_555
C6 C1 1_555 1_555
C7 C6 1_555 1_555
C8 C7 1_555 1_555
C9 C8 1_555 1_555
C10 C5 1_555 1_555
H4 C10 1_555 1_555
C11 C9 1_555 1_555
H5 C11 1_555 1_555
C12 C11 1_555 1_555
H6 C12 1_555 1_555
C13 C12 1_555 1_555
H7 C13 1_555 1_555
C14 C8 1_555 1_555
H8 C14 1_555 1_555
C15 C7 1_555 1_555
C16 C15 1_555 1_555
H9 C16 1_555 1_555
C17 C16 1_555 1_555
H10 C17 1_555 1_555
C18 C17 1_555 1_555
C19 C18 1_555 1_555
H11 C19 1_555 1_555
C20 C15 1_555 1_555
H12 C20 1_555 1_555
C21 O1 1_555 1_555
H13 C21 1_555 1_555
H14 C21 1_555 1_555
H15 C21 1_555 1_555
C22 O2 1_555 1_555
H16 C22 1_555 1_555
H17 C22 1_555 1_555
H18 C22 1_555 1_555
C23 H19 1_555 1_555
C24 C23 1_555 1_555
C25 C24 1_555 1_555
H20 C25 1_555 1_555
C26 C25 1_555 1_555
H21 C26 1_555 1_555
C27 C26 1_555 1_555
C28 C23 1_555 1_555
C29 C28 1_555 1_555
C30 C29 1_555 1_555
C31 C30 1_555 1_555
C32 C27 1_555 1_555
H22 C32 1_555 1_555
C33 C31 1_555 1_555
H23 C33 1_555 1_555
C34 C33 1_555 1_555
H24 C34 1_555 1_555
C35 C34 1_555 1_555
H25 C35 1_555 1_555
C36 C30 1_555 1_555
H26 C36 1_555 1_555
C37 C29 1_555 1_555
C38 C37 1_555 1_555
H27 C38 1_555 1_555
C39 C38 1_555 1_555
H28 C39 1_555 1_555
C40 C39 1_555 1_555
C41 C40 1_555 1_555
H29 C41 1_555 1_555
C42 C37 1_555 1_555
H30 C42 1_555 1_555
C43 O3 1_555 1_555
H31 C43 1_555 1_555
H32 C43 1_555 1_555
H33 C43 1_555 1_555
C44 O4 1_555 1_555
H34 C44 1_555 1_555
H35 C44 1_555 1_555
H36 C44 1_555 1_555
C5 C6 1_555 1_555
C9 C10 1_555 1_555
C13 C14 1_555 1_555
C19 C20 1_555 1_555
C27 C28 1_555 1_555
C31 C32 1_555 1_555
C35 C36 1_555 1_555
C41 C42 1_555 1_555

#END
