
#######################################################################
#
#                 Cambridge Crystallographic Data Centre
#                                CCDC 
#
#######################################################################
#
# If this CIF has been generated from an entry in the Cambridge 
# Structural Database, then it will include bibliographic, chemical, 
# crystal, experimental, refinement or atomic coordinate data resulting 
# from the CCDC's data processing and validation procedures.
#
#######################################################################

data_HIXQIQ
_chemical_formula_moiety         'C19 H17 Cl1 N2 O5'
_chemical_name_systematic        
'benzyl 2-(5-chloro-2-hydroxy-2-(methoxycarbonyl)-2,3-dihydro-1H-inden-1-ylidene)hydrazinecarboxylate'
_symmetry_cell_setting           triclinic
_symmetry_space_group_name_H-M   'P -1'
_symmetry_Int_Tables_number      2
_space_group_name_Hall           '-P 1'
loop_
_symmetry_equiv_pos_site_id
_symmetry_equiv_pos_as_xyz
1 x,y,z
2 -x,-y,-z
_cell_length_a                   8.362(3)
_cell_length_b                   10.627(3)
_cell_length_c                   11.470(4)
_cell_angle_alpha                108.575(6)
_cell_angle_beta                 99.377(7)
_cell_angle_gamma                100.886(6)
_cell_volume                     921.126
_exptl_crystal_colour            colorless
_exptl_crystal_description       prismatic
_cell_formula_units_Z            2
loop_
_atom_site_label
_atom_site_type_symbol
_atom_site_fract_x
_atom_site_fract_y
_atom_site_fract_z
Cl1 Cl 1.28901(7) 0.44224(8) 0.95091(6)
N1 N 0.63739(19) 0.07412(16) 0.44508(14)
N2 N 0.5019(2) 0.05154(17) 0.34896(14)
O1 O 0.41582(16) 0.25433(16) 0.54793(13)
H1 H 0.4022 0.2091 0.5933
O2 O 0.52986(18) -0.16042(15) 0.24204(13)
O3 O 0.35071(19) -0.06312(15) 0.15431(13)
O4 O 0.4938(2) 0.35295(19) 0.37465(16)
O5 O 0.76048(19) 0.43718(19) 0.48013(16)
C1 C 0.8288(2) 0.23034(19) 0.63817(17)
C2 C 0.9552(2) 0.1639(2) 0.65007(18)
H2 H 0.9448 0.0765 0.5928
C3 C 1.0959(2) 0.2294(2) 0.74786(19)
H3 H 1.1822 0.1870 0.7577
C4 C 1.1070(2) 0.3591(2) 0.83115(19)
C5 C 0.9811(2) 0.4255(2) 0.82290(18)
H4 H 0.9912 0.5124 0.8812
C6 C 0.8395(2) 0.3583(2) 0.72483(17)
C7 C 0.6855(2) 0.4073(2) 0.69572(18)
H5 H 0.7159 0.5003 0.6964
H6 H 0.6186 0.4049 0.7569
C8 C 0.5888(2) 0.3050(2) 0.56156(17)
C9 C 0.6780(2) 0.18852(19) 0.53719(16)
C10 C 0.4663(2) -0.0664(2) 0.24796(18)
C11 C 0.3026(4) -0.1873(3) 0.0421(2)
H7 H 0.2559 -0.2656 0.0632
H8 H 0.4004 -0.2028 0.0101
C12 C 0.1753(3) -0.1721(2) -0.05686(19)
C13 C 0.0110(4) -0.1859(3) -0.0493(2)
H9 H -0.0200 -0.1974 0.0216
C14 C -0.1088(3) -0.1830(3) -0.1462(3)
H10 H -0.2196 -0.1921 -0.1400
C15 C -0.0656(4) -0.1668(3) -0.2496(3)
H11 H -0.1470 -0.1677 -0.3158
C16 C 0.0958(4) -0.1493(4) -0.2567(3)
H12 H 0.1262 -0.1346 -0.3268
C17 C 0.2163(3) -0.1528(3) -0.1612(3)
H13 H 0.3270 -0.1420 -0.1681
C18 C 0.6054(2) 0.3681(2) 0.46057(19)
C19 C 0.7984(4) 0.5012(3) 0.3910(3)
H14 H 0.7713 0.4323 0.3077
H15 H 0.9157 0.5471 0.4146
H16 H 0.7335 0.5668 0.3914
H17 H 0.450(3) 0.114(3) 0.351(2)
loop_
_geom_bond_atom_site_label_1
_geom_bond_atom_site_label_2
_geom_bond_site_symmetry_1
_geom_bond_site_symmetry_2
Cl1 C4 1_555 1_555
N1 N2 1_555 1_555
N2 C10 1_555 1_555
O1 H1 1_555 1_555
O2 C10 1_555 1_555
O3 C10 1_555 1_555
O4 C18 1_555 1_555
O5 C18 1_555 1_555
C1 C2 1_555 1_555
C2 H2 1_555 1_555
C3 C2 1_555 1_555
H3 C3 1_555 1_555
C4 C3 1_555 1_555
C5 C4 1_555 1_555
H4 C5 1_555 1_555
C6 C1 1_555 1_555
C7 C6 1_555 1_555
H5 C7 1_555 1_555
H6 C7 1_555 1_555
C8 O1 1_555 1_555
C9 N1 1_555 1_555
C11 O3 1_555 1_555
H7 C11 1_555 1_555
H8 C11 1_555 1_555
C12 C11 1_555 1_555
C13 C12 1_555 1_555
H9 C13 1_555 1_555
C14 C13 1_555 1_555
H10 C14 1_555 1_555
C15 C14 1_555 1_555
H11 C15 1_555 1_555
C16 C15 1_555 1_555
H12 C16 1_555 1_555
C17 C12 1_555 1_555
H13 C17 1_555 1_555
C18 C8 1_555 1_555
C19 O5 1_555 1_555
H14 C19 1_555 1_555
H15 C19 1_555 1_555
H16 C19 1_555 1_555
H17 N2 1_555 1_555
C1 C9 1_555 1_555
C5 C6 1_555 1_555
C7 C8 1_555 1_555
C8 C9 1_555 1_555
C16 C17 1_555 1_555

#END
