
#######################################################################
#
#                 Cambridge Crystallographic Data Centre
#                                CCDC 
#
#######################################################################
#
# If this CIF has been generated from an entry in the Cambridge 
# Structural Database, then it will include bibliographic, chemical, 
# crystal, experimental, refinement or atomic coordinate data resulting 
# from the CCDC's data processing and validation procedures.
#
#######################################################################

data_HIXQUB
_chemical_formula_moiety         'C24 H14 S2'
_chemical_name_systematic        
6-(1-Benzothiophen-3-yl)benzo[b]naphtho[2,3-d]thiophene
_symmetry_cell_setting           monoclinic
_symmetry_space_group_name_H-M   'P 21'
_symmetry_Int_Tables_number      4
_space_group_name_Hall           'P 2yb'
loop_
_symmetry_equiv_pos_site_id
_symmetry_equiv_pos_as_xyz
1 x,y,z
2 -x,1/2+y,-z
_cell_length_a                   9.5009(15)
_cell_length_b                   9.2869(15)
_cell_length_c                   10.3122(17)
_cell_angle_alpha                90
_cell_angle_beta                 102.262(3)
_cell_angle_gamma                90
_cell_volume                     889.128
_exptl_crystal_colour            colorless
_exptl_crystal_description       prismatic
_cell_formula_units_Z            2
loop_
_atom_site_label
_atom_site_type_symbol
_atom_site_fract_x
_atom_site_fract_y
_atom_site_fract_z
S1 S 0.19151(15) 0.69357(14) 0.37045(12)
S2 S 0.57161(14) 0.74374(18) 0.72713(14)
C1 C 0.1912(5) 0.5137(5) 0.4223(4)
C2 C 0.2772(5) 0.4581(6) 0.5387(4)
C3 C 0.2661(5) 0.3107(5) 0.5646(4)
C4 C 0.3540(6) 0.2434(6) 0.6766(5)
H1 H 0.4190 0.2989 0.7364
C5 C 0.3453(7) 0.0979(7) 0.6990(6)
H2 H 0.4033 0.0566 0.7738
C6 C 0.2488(6) 0.0110(7) 0.6089(5)
H3 H 0.2441 -0.0876 0.6230
C7 C 0.1625(6) 0.0738(6) 0.5008(6)
H4 H 0.0976 0.0163 0.4429
C8 C 0.1678(5) 0.2202(6) 0.4737(4)
C9 C 0.0808(5) 0.2827(6) 0.3597(5)
H5 H 0.0145 0.2262 0.3022
C10 C 0.0934(5) 0.4264(5) 0.3333(5)
C11 C 0.0145(5) 0.5113(5) 0.2223(4)
C12 C -0.0928(6) 0.4675(7) 0.1183(5)
H6 H -0.1235 0.3722 0.1127
C13 C -0.1548(6) 0.5652(7) 0.0225(5)
H7 H -0.2279 0.5357 -0.0475
C14 C -0.1090(6) 0.7066(8) 0.0299(5)
H8 H -0.1501 0.7704 -0.0369
C15 C -0.0034(6) 0.7557(7) 0.1343(5)
H9 H 0.0266 0.8513 0.1402
C16 C 0.0555(5) 0.6546(6) 0.2298(5)
C17 C 0.3735(5) 0.5586(6) 0.6314(4)
C18 C 0.4828(6) 0.6303(6) 0.6036(5)
H10 H 0.5105 0.6206 0.5228
C19 C 0.4549(5) 0.6915(6) 0.8265(4)
C20 C 0.3529(5) 0.5923(5) 0.7630(4)
C21 C 0.2504(6) 0.5397(6) 0.8283(5)
H11 H 0.1810 0.4743 0.7870
C22 C 0.2532(6) 0.5866(6) 0.9569(6)
H12 H 0.1872 0.5494 1.0030
C23 C 0.3531(6) 0.6882(8) 1.0177(5)
H13 H 0.3504 0.7192 1.1029
C24 C 0.4557(6) 0.7444(7) 0.9564(5)
H14 H 0.5218 0.8130 0.9972
loop_
_geom_bond_atom_site_label_1
_geom_bond_atom_site_label_2
_geom_bond_site_symmetry_1
_geom_bond_site_symmetry_2
S1 C1 1_555 1_555
S2 C18 1_555 1_555
C1 C2 1_555 1_555
C2 C3 1_555 1_555
C3 C4 1_555 1_555
C4 H1 1_555 1_555
C5 C4 1_555 1_555
H2 C5 1_555 1_555
C6 C5 1_555 1_555
H3 C6 1_555 1_555
C7 C6 1_555 1_555
H4 C7 1_555 1_555
C8 C3 1_555 1_555
C9 C8 1_555 1_555
H5 C9 1_555 1_555
C10 C1 1_555 1_555
C11 C10 1_555 1_555
C12 C11 1_555 1_555
H6 C12 1_555 1_555
C13 C12 1_555 1_555
H7 C13 1_555 1_555
C14 C13 1_555 1_555
H8 C14 1_555 1_555
C15 C14 1_555 1_555
H9 C15 1_555 1_555
C16 S1 1_555 1_555
C17 C2 1_555 1_555
C18 C17 1_555 1_555
H10 C18 1_555 1_555
C19 S2 1_555 1_555
C20 C17 1_555 1_555
C21 C20 1_555 1_555
H11 C21 1_555 1_555
C22 C21 1_555 1_555
H12 C22 1_555 1_555
C23 C22 1_555 1_555
H13 C23 1_555 1_555
C24 C19 1_555 1_555
H14 C24 1_555 1_555
C7 C8 1_555 1_555
C9 C10 1_555 1_555
C11 C16 1_555 1_555
C15 C16 1_555 1_555
C19 C20 1_555 1_555
C23 C24 1_555 1_555

#END
