
#######################################################################
#
#                 Cambridge Crystallographic Data Centre
#                                CCDC 
#
#######################################################################
#
# If this CIF has been generated from an entry in the Cambridge 
# Structural Database, then it will include bibliographic, chemical, 
# crystal, experimental, refinement or atomic coordinate data resulting 
# from the CCDC's data processing and validation procedures.
#
#######################################################################

data_HIXRUC
_chemical_formula_moiety         'C50 H34 N2 S1'
_chemical_name_systematic        
4,9-bis(4-(2,2-Diphenylethenyl)phenyl)-naphtho[2,3-c][1,2,5]thiadiazole
_symmetry_cell_setting           triclinic
_symmetry_space_group_name_H-M   'P -1'
_symmetry_Int_Tables_number      2
_space_group_name_Hall           '-P 1'
loop_
_symmetry_equiv_pos_site_id
_symmetry_equiv_pos_as_xyz
1 x,y,z
2 -x,-y,-z
_cell_length_a                   6.0191(11)
_cell_length_b                   9.059(2)
_cell_length_c                   17.191(6)
_cell_angle_alpha                100.69(2)
_cell_angle_beta                 95.305(19)
_cell_angle_gamma                91.741(15)
_cell_volume                     916.078
_exptl_crystal_colour            orange
_exptl_crystal_description       prism
_cell_formula_units_Z            1
_exptl_crystal_preparation       fluorescent
loop_
_atom_site_label
_atom_site_type_symbol
_atom_site_fract_x
_atom_site_fract_y
_atom_site_fract_z
S1 S 1.0047(5) 0.6501(3) 0.60819(17)
N1 N 0.8362(9) 0.5124(6) 0.6211(3)
N2 N 0.8661(9) 0.6956(7) 0.5293(3)
C2 C 0.6646(6) 0.4976(4) 0.5617(2)
C3 C 0.4885(7) 0.3840(4) 0.5486(2)
C4 C 0.6725(6) 0.6094(4) 0.5128(2)
C10 C 0.4881(6) 0.2680(4) 0.5976(2)
C11 C 0.6596(11) 0.1684(6) 0.5984(4)
H5 H 0.7896 0.1838 0.5719
C12 C 0.6387(10) 0.0490(6) 0.6371(4)
H6 H 0.7486 -0.0258 0.6315
C13 C 0.4670(6) 0.0318(4) 0.6845(2)
C14 C 0.3053(12) 0.1370(6) 0.6855(5)
H7 H 0.1857 0.1298 0.7181
C15 C 0.3165(11) 0.2549(7) 0.6449(4)
H8 H 0.2113 0.3329 0.6505
C22 C 0.4664(7) -0.0995(4) 0.7245(2)
H13 H 0.5317 -0.1834 0.6978
C23 C 0.3883(6) -0.1174(4) 0.7922(2)
C24 C 0.4311(7) -0.2636(4) 0.8220(2)
C25 C 0.6213(8) -0.3389(5) 0.8091(3)
H14 H 0.7304 -0.2987 0.7831
C26 C 0.6557(8) -0.4758(5) 0.8344(3)
H15 H 0.7793 -0.5306 0.8212
C27 C 0.5064(9) -0.5263(5) 0.8783(3)
H16 H 0.5328 -0.6129 0.8988
C28 C 0.3169(8) -0.4515(5) 0.8928(3)
H17 H 0.2131 -0.4904 0.9215
C29 C 0.2754(8) -0.3199(4) 0.8662(3)
H18 H 0.1466 -0.2693 0.8774
C30 C 0.2527(7) -0.0118(4) 0.8415(2)
C31 C 0.3386(7) 0.0615(4) 0.9154(3)
H19 H 0.4834 0.0431 0.9339
C32 C 0.2181(8) 0.1622(5) 0.9639(3)
H20 H 0.2799 0.2095 1.0143
C33 C 0.0055(9) 0.1905(5) 0.9359(3)
H21 H -0.0775 0.2584 0.9673
C34 C -0.0861(8) 0.1181(6) 0.8608(3)
H22 H -0.2299 0.1382 0.8422
C35 C 0.0346(7) 0.0167(5) 0.8137(3)
H23 H -0.0282 -0.0325 0.7639
S1A S -0.0047(5) 0.3499(3) 0.39181(17)
N1A N 0.1638(9) 0.4876(6) 0.3789(3)
N2A N 0.1339(9) 0.3044(7) 0.4707(3)
C2A C 0.3354(6) 0.5024(4) 0.4383(2)
C3A C 0.5115(7) 0.6160(4) 0.4514(2)
C4A C 0.3275(6) 0.3906(4) 0.4872(2)
C10A C 0.5119(6) 0.7320(4) 0.4024(2)
C11A C 0.3404(11) 0.8316(6) 0.4016(4)
H5A H 0.2104 0.8162 0.4281
C12A C 0.3613(10) 0.9510(6) 0.3629(4)
H6A H 0.2514 1.0258 0.3685
C13A C 0.5330(6) 0.9682(4) 0.3155(2)
C14A C 0.6947(12) 0.8630(6) 0.3145(5)
H7A H 0.8143 0.8702 0.2819
C15A C 0.6835(11) 0.7451(7) 0.3551(4)
H8A H 0.7887 0.6671 0.3495
C22A C 0.5336(7) 1.0995(4) 0.2755(2)
H13A H 0.4683 1.1834 0.3022
C23A C 0.6117(6) 1.1174(4) 0.2078(2)
C24A C 0.5689(7) 1.2636(4) 0.1780(2)
C25A C 0.3787(8) 1.3389(5) 0.1909(3)
H14A H 0.2696 1.2987 0.2169
C26A C 0.3443(8) 1.4758(5) 0.1656(3)
H15A H 0.2207 1.5306 0.1788
C27A C 0.4936(9) 1.5263(5) 0.1217(3)
H16A H 0.4672 1.6129 0.1012
C28A C 0.6831(8) 1.4515(5) 0.1072(3)
H17A H 0.7869 1.4904 0.0785
C29A C 0.7246(8) 1.3199(4) 0.1338(3)
H18A H 0.8534 1.2693 0.1226
C30A C 0.7473(7) 1.0118(4) 0.1585(2)
C31A C 0.6614(7) 0.9385(4) 0.0846(3)
H19A H 0.5166 0.9569 0.0661
C32A C 0.7819(8) 0.8378(5) 0.0361(3)
H20A H 0.7201 0.7905 -0.0143
C33A C 0.9945(9) 0.8095(5) 0.0641(3)
H21A H 1.0775 0.7416 0.0327
C34A C 1.0861(8) 0.8819(6) 0.1392(3)
H22A H 1.2299 0.8618 0.1578
C35A C 0.9654(7) 0.9833(5) 0.1863(3)
H23A H 1.0282 1.0325 0.2361
C1? C 0.6725(6) 0.6094(4) 0.5128(2)
C5? C 0.6646(6) 0.4976(4) 0.5617(2)
C6? C 0.8493(10) 0.5002(8) 0.6183(5)
H1? H 0.8741 0.4082 0.6372
C7? C 1.0111(15) 0.6163(7) 0.6399(4)
H2? H 1.0915 0.6305 0.6918
C8? C 1.0273(13) 0.7176(9) 0.5888(4)
H3? H 1.1487 0.7920 0.6005
C9? C 0.8512(9) 0.7176(7) 0.5308(5)
H4? H 0.8733 0.7842 0.4945
C16? C 0.5119(6) 0.7320(4) 0.4024(2)
C17? C 0.4609(17) 0.8789(5) 0.4349(4)
H9? H 0.4039 0.8965 0.4860
C18? C 0.4784(18) 0.9961(8) 0.3941(3)
H10? H 0.4641 1.0986 0.4195
C19? C 0.5330(6) 0.9682(4) 0.3155(2)
C20? C 0.6091(14) 0.8273(5) 0.2884(4)
H11? H 0.6711 0.8085 0.2382
C21? C 0.5945(13) 0.7096(6) 0.3287(3)
H12? H 0.6429 0.6128 0.3053
loop_
_geom_bond_atom_site_label_1
_geom_bond_atom_site_label_2
_geom_bond_site_symmetry_1
_geom_bond_site_symmetry_2
S1 N1 1_555 1_555
N1 C2 1_555 1_555
N2 S1 1_555 1_555
C2 C3 1_555 1_555
C3 C10 1_555 1_555
C4 N2 1_555 1_555
C10 C11 1_555 1_555
C11 H5 1_555 1_555
C12 C11 1_555 1_555
H6 C12 1_555 1_555
C13 C12 1_555 1_555
C14 C13 1_555 1_555
H7 C14 1_555 1_555
C15 C10 1_555 1_555
H8 C15 1_555 1_555
C22 C13 1_555 1_555
H13 C22 1_555 1_555
C23 C22 1_555 1_555
C24 C23 1_555 1_555
C25 C24 1_555 1_555
H14 C25 1_555 1_555
C26 C25 1_555 1_555
H15 C26 1_555 1_555
C27 C26 1_555 1_555
H16 C27 1_555 1_555
C28 C27 1_555 1_555
H17 C28 1_555 1_555
C29 C24 1_555 1_555
H18 C29 1_555 1_555
C30 C23 1_555 1_555
C31 C30 1_555 1_555
H19 C31 1_555 1_555
C32 C31 1_555 1_555
H20 C32 1_555 1_555
C33 C32 1_555 1_555
H21 C33 1_555 1_555
C34 C33 1_555 1_555
H22 C34 1_555 1_555
C35 C30 1_555 1_555
H23 C35 1_555 1_555
S1A N1A 1_555 1_555
N1A C2A 1_555 1_555
N2A S1A 1_555 1_555
C2A C3A 1_555 1_555
C3A C4 1_555 1_555
C4A C3 1_555 1_555
C10A C3A 1_555 1_555
C11A C10A 1_555 1_555
H5A C11A 1_555 1_555
C12A C11A 1_555 1_555
H6A C12A 1_555 1_555
C13A C12A 1_555 1_555
C14A C13A 1_555 1_555
H7A C14A 1_555 1_555
C15A C10A 1_555 1_555
H8A C15A 1_555 1_555
C22A C13A 1_555 1_555
H13A C22A 1_555 1_555
C23A C22A 1_555 1_555
C24A C23A 1_555 1_555
C25A C24A 1_555 1_555
H14A C25A 1_555 1_555
C26A C25A 1_555 1_555
H15A C26A 1_555 1_555
C27A C26A 1_555 1_555
H16A C27A 1_555 1_555
C28A C27A 1_555 1_555
H17A C28A 1_555 1_555
C29A C24A 1_555 1_555
H18A C29A 1_555 1_555
C30A C23A 1_555 1_555
C31A C30A 1_555 1_555
H19A C31A 1_555 1_555
C32A C31A 1_555 1_555
H20A C32A 1_555 1_555
C33A C32A 1_555 1_555
H21A C33A 1_555 1_555
C34A C33A 1_555 1_555
H22A C34A 1_555 1_555
C35A C30A 1_555 1_555
H23A C35A 1_555 1_555
C2 C4 1_555 1_555
C14 C15 1_555 1_555
C28 C29 1_555 1_555
C34 C35 1_555 1_555
N2A C4A 1_555 1_555
C2A C4A 1_555 1_555
C14A C15A 1_555 1_555
C28A C29A 1_555 1_555
C34A C35A 1_555 1_555

#END
