
#######################################################################
#
#                 Cambridge Crystallographic Data Centre
#                                CCDC 
#
#######################################################################
#
# If this CIF has been generated from an entry in the Cambridge 
# Structural Database, then it will include bibliographic, chemical, 
# crystal, experimental, refinement or atomic coordinate data resulting 
# from the CCDC's data processing and validation procedures.
#
#######################################################################

data_HIXRIR
_chemical_formula_moiety         'C21 H14 F1 N1'
_chemical_name_systematic        6-(4-fluorophenyl)-2-phenylquinoline
_symmetry_cell_setting           monoclinic
_symmetry_space_group_name_H-M   'P 21/c'
_symmetry_Int_Tables_number      14
_space_group_name_Hall           '-P 2ybc'
loop_
_symmetry_equiv_pos_site_id
_symmetry_equiv_pos_as_xyz
1 x,y,z
2 -x,1/2+y,1/2-z
3 -x,-y,-z
4 x,1/2-y,1/2+z
_cell_length_a                   15.95(2)
_cell_length_b                   7.413(10)
_cell_length_c                   6.299(9)
_cell_angle_alpha                90
_cell_angle_beta                 94.011(18)
_cell_angle_gamma                90
_cell_volume                     742.953
_exptl_crystal_colour            colorless
_exptl_crystal_description       block
_cell_formula_units_Z            2
loop_
_atom_site_label
_atom_site_type_symbol
_atom_site_fract_x
_atom_site_fract_y
_atom_site_fract_z
C1 C 0.4206(10) 0.543(2) 0.686(3)
H1 H 0.4157 0.5836 0.8243
C2 C 0.1008(3) 0.5088(6) 0.7635(8)
F1 F 0.0222(3) 0.4960(8) 0.8229(9)
C3 C 0.1645(3) 0.5945(6) 0.8723(7)
H2 H 0.1548 0.6574 0.9959
C4 C 0.2449(3) 0.5891(5) 0.8003(6)
H3 H 0.2886 0.6486 0.8766
C5 C 0.2608(2) 0.4968(5) 0.6174(6)
C6 C 0.1938(3) 0.4077(5) 0.5116(6)
H4 H 0.2029 0.3426 0.3891
C7 C 0.1143(3) 0.4130(6) 0.5829(7)
H5 H 0.0702 0.3523 0.5095
C8 C 0.3456(2) 0.4898(5) 0.5387(6)
C9 C 0.4921(3) 0.5285(5) 0.6028(6)
C10 C 0.5626(3) 0.5737(5) 0.7399(6)
H6 H 0.5554 0.6104 0.8787
C11 C 0.3594(3) 0.4361(5) 0.3298(6)
H7 H 0.3135 0.4065 0.2371
C1B C 0.5794(10) 0.457(2) 0.314(3)
H1B H 0.5843 0.4164 0.1757
C2B C 0.8992(3) 0.4912(6) 0.2365(8)
F1B F 0.9778(3) 0.5040(8) 0.1771(9)
C3B C 0.8355(3) 0.4055(6) 0.1277(7)
H2B H 0.8452 0.3426 0.0041
C4B C 0.7551(3) 0.4109(5) 0.1997(6)
H3B H 0.7114 0.3514 0.1234
C5B C 0.7392(2) 0.5032(5) 0.3826(6)
C6B C 0.8062(3) 0.5923(5) 0.4884(6)
H4B H 0.7971 0.6574 0.6109
C7B C 0.8857(3) 0.5870(6) 0.4171(7)
H5B H 0.9298 0.6477 0.4905
C8B C 0.6544(2) 0.5102(5) 0.4613(6)
C9B C 0.5079(3) 0.4715(5) 0.3972(6)
C10B C 0.4374(3) 0.4263(5) 0.2601(6)
H6B H 0.4446 0.3896 0.1213
C11B C 0.6406(3) 0.5639(5) 0.6702(6)
H7B H 0.6865 0.5935 0.7629
N1? N 0.4037(8) 0.5321(19) 0.657(2)
H8? H 0.0470 0.5147 0.8113
loop_
_geom_bond_atom_site_label_1
_geom_bond_atom_site_label_2
_geom_bond_site_symmetry_1
_geom_bond_site_symmetry_2
C1 H1 1_555 1_555
C2 F1 1_555 1_555
C3 C2 1_555 1_555
H2 C3 1_555 1_555
C4 C3 1_555 1_555
H3 C4 1_555 1_555
C5 C4 1_555 1_555
C6 C5 1_555 1_555
H4 C6 1_555 1_555
C7 C2 1_555 1_555
H5 C7 1_555 1_555
C8 C1 1_555 1_555
C9 C1 1_555 1_555
C10 C9 1_555 1_555
H6 C10 1_555 1_555
C11 C8 1_555 1_555
H7 C11 1_555 1_555
C1B H1B 1_555 1_555
C2B F1B 1_555 1_555
C3B C2B 1_555 1_555
H2B C3B 1_555 1_555
C4B C3B 1_555 1_555
H3B C4B 1_555 1_555
C5B C4B 1_555 1_555
C6B C5B 1_555 1_555
H4B C6B 1_555 1_555
C7B C2B 1_555 1_555
H5B C7B 1_555 1_555
C8B C1B 1_555 1_555
C9B C9 1_555 1_555
C10B C11 1_555 1_555
H6B C10B 1_555 1_555
C11B C10 1_555 1_555
H7B C11B 1_555 1_555
C5 C8 1_555 1_555
C6 C7 1_555 1_555
C1B C9B 1_555 1_555
C5B C8B 1_555 1_555
C6B C7B 1_555 1_555
C8B C11B 1_555 1_555
C9B C10B 1_555 1_555

#END
