
#######################################################################
#
#                 Cambridge Crystallographic Data Centre
#                                CCDC 
#
#######################################################################
#
# If this CIF has been generated from an entry in the Cambridge 
# Structural Database, then it will include bibliographic, chemical, 
# crystal, experimental, refinement or atomic coordinate data resulting 
# from the CCDC's data processing and validation procedures.
#
#######################################################################

data_HIXSAJ
_chemical_formula_moiety         'C34 H22 N2 S1'
_chemical_name_systematic        
4,9-bis(Biphenyl-4-yl)-naphtho[2,3-c][1,2,5]thiadiazole
_symmetry_cell_setting           monoclinic
_symmetry_space_group_name_H-M   'C 2/c'
_symmetry_Int_Tables_number      15
_space_group_name_Hall           '-C 2yn'
loop_
_symmetry_equiv_pos_site_id
_symmetry_equiv_pos_as_xyz
1 x,y,z
2 1/2+x,1/2+y,z
3 -x,y,1/2-z
4 1/2-x,1/2+y,1/2-z
5 -x,-y,-z
6 1/2-x,1/2-y,-z
7 x,-y,1/2+z
8 1/2+x,1/2-y,1/2+z
_cell_length_a                   9.3698(10)
_cell_length_b                   28.450(3)
_cell_length_c                   9.4857(11)
_cell_angle_alpha                90
_cell_angle_beta                 107.178(3)
_cell_angle_gamma                90
_cell_volume                     2415.81
_exptl_crystal_colour            red
_exptl_crystal_description       sheet
_cell_formula_units_Z            4
_exptl_crystal_preparation       fluorescent
loop_
_atom_site_label
_atom_site_type_symbol
_atom_site_fract_x
_atom_site_fract_y
_atom_site_fract_z
S1 S 0.21148(13) 0.51529(5) 0.89514(15)
N1 N 0.2912(4) 0.56086(12) 0.8409(4)
N2 N 0.3064(3) 0.47088(12) 0.8565(4)
C1 C 0.5000 0.56580(10) 0.7500
C2 C 0.3984(2) 0.48902(7) 0.8030(2)
C3 C 0.3962(2) 0.53998(7) 0.7992(2)
C8 C 0.5000 0.46287(10) 0.7500
C9 C 0.5000 0.61817(10) 0.7500
C10 C 0.4685(2) 0.64351(7) 0.6197(2)
H5 H 0.4470 0.6275 0.5304
C11 C 0.4681(2) 0.69203(7) 0.6192(2)
H6 H 0.4460 0.7079 0.5296
C12 C 0.5000 0.71783(10) 0.7500
C13 C 0.5000 0.77025(10) 0.7500
C14 C 0.4321(2) 0.79569(8) 0.6226(3)
H7 H 0.3857 0.7798 0.5354
C15 C 0.4326(3) 0.84438(8) 0.6239(3)
H8 H 0.3864 0.8607 0.5376
C16 C 0.5000 0.86879(11) 0.7500
H9 H 0.5000 0.9025 0.7500
C17 C 0.5000 0.41087(10) 0.7500
C18 C 0.6315(2) 0.38572(7) 0.8055(2)
H10 H 0.7212 0.4017 0.8436
C19 C 0.6305(2) 0.33697(7) 0.8049(2)
H11 H 0.7203 0.3210 0.8426
C20 C 0.5000 0.31114(10) 0.7500
C21 C 0.5000 0.25869(10) 0.7500
C22 C 0.6309(3) 0.23363(8) 0.7970(3)
H12 H 0.7212 0.2497 0.8293
C23 C 0.6310(3) 0.18492(8) 0.7970(3)
H13 H 0.7211 0.1688 0.8294
C24 C 0.5000 0.16037(12) 0.7500
H14 H 0.5000 0.1266 0.7500
S1B S 0.78852(13) 0.51529(5) 0.60486(15)
N1B N 0.7088(4) 0.56086(12) 0.6591(4)
N2B N 0.6936(3) 0.47088(12) 0.6435(4)
C2B C 0.6016(2) 0.48902(7) 0.6970(2)
C3B C 0.6038(2) 0.53998(7) 0.7008(2)
C10B C 0.5315(2) 0.64351(7) 0.8803(2)
H5B H 0.5530 0.6275 0.9696
C11B C 0.5319(2) 0.69203(7) 0.8808(2)
H6B H 0.5540 0.7079 0.9704
C14B C 0.5679(2) 0.79569(8) 0.8774(3)
H7B H 0.6143 0.7798 0.9646
C15B C 0.5674(3) 0.84438(8) 0.8761(3)
H8B H 0.6136 0.8607 0.9624
C18B C 0.3685(2) 0.38572(7) 0.6945(2)
H10B H 0.2788 0.4017 0.6564
C19B C 0.3695(2) 0.33697(7) 0.6951(2)
H11B H 0.2797 0.3210 0.6574
C22B C 0.3691(3) 0.23363(8) 0.7030(3)
H12B H 0.2788 0.2497 0.6707
C23B C 0.3690(3) 0.18492(8) 0.7030(3)
H13B H 0.2789 0.1688 0.6706
C4? C 0.2772(6) 0.56078(19) 0.8525(6)
H1? H 0.2752 0.5935 0.8500
C5? C 0.1730(5) 0.53937(17) 0.8987(5)
H2? H 0.1029 0.5556 0.9317
C6? C 0.1865(5) 0.48861(16) 0.9175(5)
H3? H 0.1183 0.4722 0.9529
C7? C 0.2820(5) 0.46631(18) 0.8710(6)
H4? H 0.2840 0.4336 0.8735
loop_
_geom_bond_atom_site_label_1
_geom_bond_atom_site_label_2
_geom_bond_site_symmetry_1
_geom_bond_site_symmetry_2
S1 N1 1_555 1_555
N1 C3 1_555 1_555
N2 S1 1_555 1_555
C1 C3 1_555 1_555
C2 N2 1_555 1_555
C3 C2 1_555 1_555
C8 C2 1_555 1_555
C9 C1 1_555 1_555
C10 C9 1_555 1_555
H5 C10 1_555 1_555
C11 C10 1_555 1_555
H6 C11 1_555 1_555
C12 C11 1_555 1_555
C13 C12 1_555 1_555
C14 C13 1_555 1_555
H7 C14 1_555 1_555
C15 C14 1_555 1_555
H8 C15 1_555 1_555
C16 C15 1_555 1_555
H9 C16 1_555 1_555
C17 C8 1_555 1_555
C18 C17 1_555 1_555
H10 C18 1_555 1_555
C19 C18 1_555 1_555
H11 C19 1_555 1_555
C20 C19 1_555 1_555
C21 C20 1_555 1_555
C22 C21 1_555 1_555
H12 C22 1_555 1_555
C23 C22 1_555 1_555
H13 C23 1_555 1_555
C24 C23 1_555 1_555
H14 C24 1_555 1_555
S1B N1B 1_555 1_555
N1B C3B 1_555 1_555
N2B S1B 1_555 1_555
C2B C8 1_555 1_555
C3B C1 1_555 1_555
C10B C9 1_555 1_555
H5B C10B 1_555 1_555
C11B C12 1_555 1_555
H6B C11B 1_555 1_555
C14B C13 1_555 1_555
H7B C14B 1_555 1_555
C15B C16 1_555 1_555
H8B C15B 1_555 1_555
C18B C17 1_555 1_555
H10B C18B 1_555 1_555
C19B C20 1_555 1_555
H11B C19B 1_555 1_555
C22B C21 1_555 1_555
H12B C22B 1_555 1_555
C23B C24 1_555 1_555
H13B C23B 1_555 1_555
N2B C2B 1_555 1_555
C2B C3B 1_555 1_555
C10B C11B 1_555 1_555
C14B C15B 1_555 1_555
C18B C19B 1_555 1_555
C22B C23B 1_555 1_555

#END
