
#######################################################################
#
#                 Cambridge Crystallographic Data Centre
#                                CCDC 
#
#######################################################################
#
# If this CIF has been generated from an entry in the Cambridge 
# Structural Database, then it will include bibliographic, chemical, 
# crystal, experimental, refinement or atomic coordinate data resulting 
# from the CCDC's data processing and validation procedures.
#
#######################################################################

data_HIXSIS
_chemical_formula_moiety         'C63 H42 Si1,C1 H2 Cl2'
_chemical_name_systematic        
'bis(7,10-Diphenylfluoranthen-8-yl)(methyl)phenylsilane dichloromethane solvate'
_symmetry_cell_setting           monoclinic
_symmetry_space_group_name_H-M   'P 21/c'
_symmetry_Int_Tables_number      14
_space_group_name_Hall           '-P 2ybc'
loop_
_symmetry_equiv_pos_site_id
_symmetry_equiv_pos_as_xyz
1 x,y,z
2 -x,1/2+y,1/2-z
3 -x,-y,-z
4 x,1/2-y,1/2+z
_cell_length_a                   19.087(3)
_cell_length_b                   11.7074(16)
_cell_length_c                   26.646(3)
_cell_angle_alpha                90
_cell_angle_beta                 124.459(7)
_cell_angle_gamma                90
_cell_volume                     4909.5
_cell_formula_units_Z            4
loop_
_atom_site_label
_atom_site_type_symbol
_atom_site_fract_x
_atom_site_fract_y
_atom_site_fract_z
Si1 Si 0.18134(6) 0.62968(8) 0.24203(4)
C1 C 0.0720(2) 0.5945(3) 0.17541(17)
H1 H 0.0721 0.5886 0.1395
H2 H 0.0335 0.6537 0.1699
H3 H 0.0543 0.5231 0.1825
C2 C 0.2697(2) 0.5291(3) 0.25995(15)
C3 C 0.3444(2) 0.5398(3) 0.31798(15)
H4 H 0.3464 0.5964 0.3433
C4 C 0.4166(2) 0.4715(3) 0.34092(15)
C5 C 0.4132(2) 0.3886(3) 0.30261(15)
C6 C 0.3387(2) 0.3748(3) 0.24286(15)
C7 C 0.2672(2) 0.4434(3) 0.22133(14)
C8 C 0.1915(2) 0.4228(3) 0.15829(15)
C9 C 0.1291(2) 0.3456(3) 0.14794(17)
H5 H 0.1331 0.3097 0.1806
C10 C 0.0610(3) 0.3224(4) 0.0889(2)
H6 H 0.0192 0.2716 0.0823
C11 C 0.0547(3) 0.3721(4) 0.0411(2)
H7 H 0.0087 0.3551 0.0019
C12 C 0.1154(3) 0.4478(4) 0.04964(18)
H8 H 0.1109 0.4816 0.0164
C13 C 0.1836(2) 0.4735(3) 0.10837(17)
H9 H 0.2244 0.5255 0.1142
C14 C 0.3534(2) 0.2813(3) 0.21217(15)
C15 C 0.4377(2) 0.2430(3) 0.25511(16)
C16 C 0.4775(2) 0.3056(3) 0.30997(16)
C17 C 0.3071(2) 0.2302(3) 0.15549(17)
H10 H 0.2524 0.2548 0.1257
C18 C 0.3450(3) 0.1397(3) 0.1441(2)
H11 H 0.3140 0.1041 0.1063
C19 C 0.4259(3) 0.1024(3) 0.1865(2)
H12 H 0.4479 0.0412 0.1773
C20 C 0.4756(2) 0.1547(3) 0.24331(18)
C21 C 0.5618(3) 0.1311(4) 0.2909(2)
H13 H 0.5909 0.0727 0.2864
C22 C 0.6015(3) 0.1940(4) 0.3430(2)
H14 H 0.6583 0.1784 0.3729
C23 C 0.5613(2) 0.2815(3) 0.35398(18)
H15 H 0.5908 0.3222 0.3903
C24 C 0.4917(2) 0.4890(3) 0.40441(16)
C25 C 0.5311(3) 0.5945(4) 0.4226(2)
H16 H 0.5106 0.6552 0.3953
C26 C 0.6013(4) 0.6094(7) 0.4817(3)
H17 H 0.6287 0.6797 0.4942
C27 C 0.6304(4) 0.5178(10) 0.5222(3)
H18 H 0.6780 0.5277 0.5617
C28 C 0.5915(4) 0.4157(7) 0.5057(2)
H19 H 0.6109 0.3559 0.5335
C29 C 0.5220(3) 0.4014(4) 0.4466(2)
H20 H 0.4948 0.3309 0.4348
C30 C 0.2070(3) 0.7760(3) 0.22757(17)
C31 C 0.1474(4) 0.8634(4) 0.2074(2)
H21 H 0.0942 0.8469 0.1991
C32 C 0.1644(6) 0.9731(5) 0.1993(3)
H22 H 0.1231 1.0292 0.1865
C33 C 0.2387(8) 1.0003(6) 0.2095(4)
H23 H 0.2498 1.0750 0.2040
C34 C 0.2992(5) 0.9171(7) 0.2280(3)
H24 H 0.3513 0.9357 0.2350
C35 C 0.2834(4) 0.8037(4) 0.2368(2)
H25 H 0.3246 0.7478 0.2487
C36 C 0.18207(19) 0.6415(3) 0.31316(14)
C37 C 0.2054(2) 0.7449(3) 0.34518(15)
H26 H 0.2234 0.8039 0.3316
C38 C 0.2036(2) 0.7655(3) 0.39612(15)
C39 C 0.1758(2) 0.6772(3) 0.41559(15)
C40 C 0.1530(2) 0.5700(3) 0.38524(15)
C41 C 0.15642(19) 0.5507(2) 0.33496(14)
C42 C 0.1327(2) 0.4350(3) 0.30604(15)
C43 C 0.1947(2) 0.3537(3) 0.32010(17)
H27 H 0.2518 0.3738 0.3451
C44 C 0.1727(3) 0.2441(3) 0.2975(2)
H28 H 0.2150 0.1910 0.3076
C45 C 0.0892(3) 0.2130(3) 0.2603(2)
H29 H 0.0746 0.1386 0.2458
C46 C 0.0271(3) 0.2918(4) 0.24475(19)
H30 H -0.0298 0.2715 0.2188
C47 C 0.0488(2) 0.4014(3) 0.26748(18)
H31 H 0.0060 0.4541 0.2566
C48 C 0.1638(2) 0.6713(3) 0.46613(15)
C49 C 0.1726(2) 0.7455(3) 0.50902(16)
H32 H 0.1900 0.8205 0.5108
C50 C 0.1544(3) 0.7057(4) 0.55026(18)
H33 H 0.1597 0.7559 0.5793
C51 C 0.1294(3) 0.5963(4) 0.54942(19)
H34 H 0.1187 0.5735 0.5779
C52 C 0.1195(3) 0.5176(3) 0.50617(18)
C53 C 0.1374(2) 0.5584(3) 0.46524(16)
C54 C 0.1303(2) 0.4927(3) 0.41781(16)
C55 C 0.1064(3) 0.3800(3) 0.41323(19)
H35 H 0.1014 0.3332 0.3832
C56 C 0.0896(3) 0.3367(4) 0.4548(2)
H36 H 0.0740 0.2605 0.4517
C57 C 0.0952(3) 0.4019(4) 0.4992(2)
H37 H 0.0829 0.3697 0.5253
C58 C 0.2282(2) 0.8792(3) 0.42717(16)
C59 C 0.3017(3) 0.8915(4) 0.4852(2)
H38 H 0.3381 0.8296 0.5040
C60 C 0.3211(4) 0.9948(5) 0.5151(3)
H39 H 0.3700 1.0023 0.5542
C61 C 0.1773(4) 0.9707(4) 0.4016(2)
H40 H 0.1274 0.9634 0.3629
C62 C 0.1963(5) 1.0746(4) 0.4305(3)
H41 H 0.1599 1.1363 0.4112
C63 C 0.2677(5) 1.0869(4) 0.4868(3)
H42 H 0.2808 1.1571 0.5065
Cl1 Cl 0.44182(19) 0.6229(2) 0.91899(16)
Cl2 Cl 0.4201(2) 0.3951(2) 0.87985(15)
C64 C 0.3836(6) 0.5003(7) 0.8942(5)
H43 H 0.3739 0.4768 0.9247
H44 H 0.3285 0.5183 0.8576
loop_
_geom_bond_atom_site_label_1
_geom_bond_atom_site_label_2
_geom_bond_site_symmetry_1
_geom_bond_site_symmetry_2
Si1 C1 1_555 1_555
C1 H1 1_555 1_555
H2 C1 1_555 1_555
H3 C1 1_555 1_555
C2 Si1 1_555 1_555
C3 C2 1_555 1_555
H4 C3 1_555 1_555
C4 C3 1_555 1_555
C5 C4 1_555 1_555
C6 C5 1_555 1_555
C7 C2 1_555 1_555
C8 C7 1_555 1_555
C9 C8 1_555 1_555
H5 C9 1_555 1_555
C10 C9 1_555 1_555
H6 C10 1_555 1_555
C11 C10 1_555 1_555
H7 C11 1_555 1_555
C12 C11 1_555 1_555
H8 C12 1_555 1_555
C13 C8 1_555 1_555
H9 C13 1_555 1_555
C14 C6 1_555 1_555
C15 C14 1_555 1_555
C16 C5 1_555 1_555
C17 C14 1_555 1_555
H10 C17 1_555 1_555
C18 C17 1_555 1_555
H11 C18 1_555 1_555
C19 C18 1_555 1_555
H12 C19 1_555 1_555
C20 C15 1_555 1_555
C21 C20 1_555 1_555
H13 C21 1_555 1_555
C22 C21 1_555 1_555
H14 C22 1_555 1_555
C23 C16 1_555 1_555
H15 C23 1_555 1_555
C24 C4 1_555 1_555
C25 C24 1_555 1_555
H16 C25 1_555 1_555
C26 C25 1_555 1_555
H17 C26 1_555 1_555
C27 C26 1_555 1_555
H18 C27 1_555 1_555
C28 C27 1_555 1_555
H19 C28 1_555 1_555
C29 C24 1_555 1_555
H20 C29 1_555 1_555
C30 Si1 1_555 1_555
C31 C30 1_555 1_555
H21 C31 1_555 1_555
C32 C31 1_555 1_555
H22 C32 1_555 1_555
C33 C32 1_555 1_555
H23 C33 1_555 1_555
C34 C33 1_555 1_555
H24 C34 1_555 1_555
C35 C30 1_555 1_555
H25 C35 1_555 1_555
C36 Si1 1_555 1_555
C37 C36 1_555 1_555
H26 C37 1_555 1_555
C38 C37 1_555 1_555
C39 C38 1_555 1_555
C40 C39 1_555 1_555
C41 C36 1_555 1_555
C42 C41 1_555 1_555
C43 C42 1_555 1_555
H27 C43 1_555 1_555
C44 C43 1_555 1_555
H28 C44 1_555 1_555
C45 C44 1_555 1_555
H29 C45 1_555 1_555
C46 C45 1_555 1_555
H30 C46 1_555 1_555
C47 C42 1_555 1_555
H31 C47 1_555 1_555
C48 C39 1_555 1_555
C49 C48 1_555 1_555
H32 C49 1_555 1_555
C50 C49 1_555 1_555
H33 C50 1_555 1_555
C51 C50 1_555 1_555
H34 C51 1_555 1_555
C52 C51 1_555 1_555
C53 C48 1_555 1_555
C54 C40 1_555 1_555
C55 C54 1_555 1_555
H35 C55 1_555 1_555
C56 C55 1_555 1_555
H36 C56 1_555 1_555
C57 C52 1_555 1_555
H37 C57 1_555 1_555
C58 C38 1_555 1_555
C59 C58 1_555 1_555
H38 C59 1_555 1_555
C60 C59 1_555 1_555
H39 C60 1_555 1_555
C61 C58 1_555 1_555
H40 C61 1_555 1_555
C62 C61 1_555 1_555
H41 C62 1_555 1_555
C63 C60 1_555 1_555
H42 C63 1_555 1_555
Cl1 C64 1_555 1_555
Cl2 C64 1_555 1_555
C64 H43 1_555 1_555
H44 C64 1_555 1_555
C6 C7 1_555 1_555
C12 C13 1_555 1_555
C15 C16 1_555 1_555
C19 C20 1_555 1_555
C22 C23 1_555 1_555
C28 C29 1_555 1_555
C34 C35 1_555 1_555
C40 C41 1_555 1_555
C46 C47 1_555 1_555
C52 C53 1_555 1_555
C53 C54 1_555 1_555
C56 C57 1_555 1_555
C62 C63 1_555 1_555

#END
