
#######################################################################
#
#                 Cambridge Crystallographic Data Centre
#                                CCDC 
#
#######################################################################
#
# If this CIF has been generated from an entry in the Cambridge 
# Structural Database, then it will include bibliographic, chemical, 
# crystal, experimental, refinement or atomic coordinate data resulting 
# from the CCDC's data processing and validation procedures.
#
#######################################################################

data_HIXSEO
_chemical_formula_moiety         'C58 H40 Si1'
_chemical_name_systematic        
bis(7,10-Diphenylfluoranthen-8-yl)(dimethyl)silane
_symmetry_cell_setting           monoclinic
_symmetry_space_group_name_H-M   'P 21/c'
_symmetry_Int_Tables_number      14
_space_group_name_Hall           '-P 2ybc'
loop_
_symmetry_equiv_pos_site_id
_symmetry_equiv_pos_as_xyz
1 x,y,z
2 -x,1/2+y,1/2-z
3 -x,-y,-z
4 x,1/2-y,1/2+z
_cell_length_a                   14.380(5)
_cell_length_b                   24.740(9)
_cell_length_c                   11.665(5)
_cell_angle_alpha                90
_cell_angle_beta                 98.271(7)
_cell_angle_gamma                90
_cell_volume                     4106.79
_cell_formula_units_Z            4
loop_
_atom_site_label
_atom_site_type_symbol
_atom_site_fract_x
_atom_site_fract_y
_atom_site_fract_z
Si1 Si 0.33432(8) 0.38092(4) 0.42925(9)
C1 C 0.2268(3) 0.28800(16) 0.5017(3)
C2 C 0.1561(3) 0.26840(15) 0.5598(3)
C3 C 0.2927(3) 0.24864(14) 0.4591(3)
C4 C 0.5306(3) 0.42988(16) 0.7162(3)
C5 C 0.1038(3) 0.35900(16) 0.5978(3)
C6 C 0.1715(3) 0.37723(16) 0.5324(3)
H1 H 0.1736 0.4141 0.5179
C7 C 0.1636(3) 0.16195(17) 0.5657(4)
H2 H 0.2099 0.1572 0.5186
C8 C 0.2366(2) 0.34454(15) 0.4869(3)
C9 C 0.3726(3) 0.23150(15) 0.5300(3)
H3 H 0.3865 0.2454 0.6046
C10 C 0.4342(3) 0.38889(15) 0.5522(3)
C11 C 0.5001(3) 0.34699(16) 0.5631(3)
H4 H 0.4906 0.3191 0.5093
C12 C 0.4500(3) 0.43096(15) 0.6341(3)
C13 C 0.3823(3) 0.47621(16) 0.6346(3)
C14 C 0.0619(3) 0.21658(19) 0.6598(4)
C15 C 0.0465(3) 0.39837(16) 0.6537(4)
C16 C 0.3021(3) 0.47082(17) 0.6853(3)
H5 H 0.2901 0.4381 0.7196
C17 C 0.5667(4) 0.46826(17) 0.8093(4)
C18 C 0.0969(3) 0.30359(16) 0.6116(3)
C19 C 0.5948(3) 0.38657(17) 0.7229(3)
C20 C 0.2723(3) 0.22624(17) 0.3514(4)
H6 H 0.2182 0.2367 0.3030
C21 C 0.6519(4) 0.4471(2) 0.8636(4)
C22 C 0.6735(3) 0.3979(2) 0.8156(4)
C23 C 0.5785(3) 0.34355(17) 0.6475(3)
C24 C 0.0373(3) 0.27063(19) 0.6765(4)
C25 C 0.1319(3) 0.21276(16) 0.5888(3)
C26 C 0.4106(4) 0.17259(18) 0.3831(5)
H7 H 0.4506 0.1472 0.3572
C27 C 0.4312(3) 0.19435(17) 0.4913(4)
H8 H 0.4855 0.1838 0.5391
C28 C 0.3811(3) 0.34594(17) 0.3096(3)
H9 H 0.4109 0.3129 0.3378
H10 H 0.4261 0.3688 0.2800
H11 H 0.3305 0.3380 0.2488
C29 C 0.3313(4) 0.18835(18) 0.3138(4)
H12 H 0.3166 0.1734 0.2403
C30 C 0.3989(4) 0.52606(18) 0.5877(4)
H13 H 0.4536 0.5313 0.5551
C31 C 0.5356(4) 0.5165(2) 0.8492(4)
H14 H 0.4783 0.5314 0.8170
C32 C 0.6324(3) 0.2916(2) 0.6550(4)
C33 C -0.0615(5) 0.4712(2) 0.7529(7)
H15 H -0.1007 0.4945 0.7863
C34 C 0.7100(5) 0.4717(3) 0.9541(4)
C35 C 0.5941(5) 0.5429(2) 0.9416(5)
H16 H 0.5744 0.5757 0.9687
C36 C 0.2392(3) 0.5126(2) 0.6864(4)
H17 H 0.1849 0.5081 0.7203
C37 C 0.0076(4) 0.4446(2) 0.8203(5)
H18 H 0.0189 0.4506 0.8998
C38 C 0.3367(4) 0.56758(19) 0.5885(5)
H19 H 0.3489 0.6006 0.5555
C39 C 0.7556(3) 0.3726(2) 0.8585(4)
H20 H 0.7719 0.3397 0.8280
C40 C 0.1232(4) 0.11694(19) 0.6160(4)
H21 H 0.1440 0.0825 0.6004
C41 C 0.7933(5) 0.4451(3) 0.9973(5)
H22 H 0.8340 0.4600 1.0583
C42 C 0.0232(3) 0.1732(2) 0.7125(5)
C43 C 0.0619(3) 0.4075(2) 0.7679(5)
H23 H 0.1099 0.3889 0.8136
C44 C 0.6839(6) 0.2775(3) 0.5768(6)
H24 H 0.6923 0.3023 0.5193
C45 C -0.0274(3) 0.2811(2) 0.7508(5)
H25 H -0.0448 0.3164 0.7643
C46 C 0.0556(4) 0.1217(2) 0.6858(5)
H26 H 0.0308 0.0910 0.7158
C47 C 0.6779(5) 0.5220(3) 0.9920(5)
H27 H 0.7142 0.5408 1.0514
C48 C 0.6205(4) 0.2548(2) 0.7376(6)
H28 H 0.5847 0.2638 0.7951
C49 C 0.2577(4) 0.5611(2) 0.6367(5)
H29 H 0.2155 0.5896 0.6364
C50 C -0.0191(4) 0.4282(2) 0.5875(5)
H30 H -0.0273 0.4244 0.5074
C51 C -0.0738(6) 0.4643(3) 0.6379(7)
H31 H -0.1198 0.4840 0.5916
C52 C 0.8147(4) 0.3974(3) 0.9496(5)
H32 H 0.8709 0.3804 0.9787
C53 C 0.7265(8) 0.2277(4) 0.5751(8)
H33 H 0.7639 0.2197 0.5186
C54 C 0.6615(5) 0.2033(3) 0.7374(8)
H34 H 0.6529 0.1777 0.7934
C55 C -0.0418(4) 0.1862(3) 0.7887(6)
H35 H -0.0681 0.1586 0.8278
C56 C 0.7142(6) 0.1921(3) 0.6527(8)
H36 H 0.7419 0.1582 0.6504
C57 C -0.0664(4) 0.2380(3) 0.8055(7)
H37 H -0.1104 0.2452 0.8546
C58 C 0.2899(3) 0.44691(15) 0.3676(4)
H38 H 0.2418 0.4408 0.3029
H39 H 0.3407 0.4667 0.3423
H40 H 0.2644 0.4673 0.4258
loop_
_geom_bond_atom_site_label_1
_geom_bond_atom_site_label_2
_geom_bond_site_symmetry_1
_geom_bond_site_symmetry_2
Si1 C8 1_555 1_555
C1 C2 1_555 1_555
C2 C18 1_555 1_555
C3 C1 1_555 1_555
C4 C12 1_555 1_555
C5 C6 1_555 1_555
C6 H1 1_555 1_555
C7 H2 1_555 1_555
C8 C1 1_555 1_555
C9 C3 1_555 1_555
H3 C9 1_555 1_555
C10 Si1 1_555 1_555
C11 C10 1_555 1_555
H4 C11 1_555 1_555
C12 C10 1_555 1_555
C13 C12 1_555 1_555
C14 C24 1_555 1_555
C15 C5 1_555 1_555
C16 C13 1_555 1_555
H5 C16 1_555 1_555
C17 C4 1_555 1_555
C18 C5 1_555 1_555
C19 C4 1_555 1_555
C20 C3 1_555 1_555
H6 C20 1_555 1_555
C21 C17 1_555 1_555
C22 C19 1_555 1_555
C23 C11 1_555 1_555
C24 C18 1_555 1_555
C25 C2 1_555 1_555
C26 H7 1_555 1_555
C27 C9 1_555 1_555
H8 C27 1_555 1_555
C28 Si1 1_555 1_555
H9 C28 1_555 1_555
H10 C28 1_555 1_555
H11 C28 1_555 1_555
C29 C20 1_555 1_555
H12 C29 1_555 1_555
C30 C13 1_555 1_555
H13 C30 1_555 1_555
C31 C17 1_555 1_555
H14 C31 1_555 1_555
C32 C23 1_555 1_555
C33 H15 1_555 1_555
C34 C21 1_555 1_555
C35 C31 1_555 1_555
H16 C35 1_555 1_555
C36 C16 1_555 1_555
H17 C36 1_555 1_555
C37 C33 1_555 1_555
H18 C37 1_555 1_555
C38 C30 1_555 1_555
H19 C38 1_555 1_555
C39 C22 1_555 1_555
H20 C39 1_555 1_555
C40 C7 1_555 1_555
H21 C40 1_555 1_555
C41 C34 1_555 1_555
H22 C41 1_555 1_555
C42 C14 1_555 1_555
C43 C15 1_555 1_555
H23 C43 1_555 1_555
C44 C32 1_555 1_555
H24 C44 1_555 1_555
C45 C24 1_555 1_555
H25 C45 1_555 1_555
C46 C40 1_555 1_555
H26 C46 1_555 1_555
C47 C34 1_555 1_555
H27 C47 1_555 1_555
C48 C32 1_555 1_555
H28 C48 1_555 1_555
C49 C36 1_555 1_555
H29 C49 1_555 1_555
C50 C15 1_555 1_555
H30 C50 1_555 1_555
C51 C33 1_555 1_555
H31 C51 1_555 1_555
C52 C39 1_555 1_555
H32 C52 1_555 1_555
C53 C44 1_555 1_555
H33 C53 1_555 1_555
C54 C48 1_555 1_555
H34 C54 1_555 1_555
C55 C42 1_555 1_555
H35 C55 1_555 1_555
C56 C53 1_555 1_555
H36 C56 1_555 1_555
C57 C45 1_555 1_555
H37 C57 1_555 1_555
C58 Si1 1_555 1_555
H38 C58 1_555 1_555
H39 C58 1_555 1_555
H40 C58 1_555 1_555
C6 C8 1_555 1_555
C7 C25 1_555 1_555
C14 C25 1_555 1_555
C19 C23 1_555 1_555
C21 C22 1_555 1_555
C26 C27 1_555 1_555
C26 C29 1_555 1_555
C35 C47 1_555 1_555
C37 C43 1_555 1_555
C38 C49 1_555 1_555
C41 C52 1_555 1_555
C42 C46 1_555 1_555
C50 C51 1_555 1_555
C54 C56 1_555 1_555
C55 C57 1_555 1_555

#END
