
#######################################################################
#
#                 Cambridge Crystallographic Data Centre
#                                CCDC 
#
#######################################################################
#
# If this CIF has been generated from an entry in the Cambridge 
# Structural Database, then it will include bibliographic, chemical, 
# crystal, experimental, refinement or atomic coordinate data resulting 
# from the CCDC's data processing and validation procedures.
#
#######################################################################

data_HIXVUH
_chemical_formula_moiety         'C2 H7 N5 2+,2(N1 O3 1-)'
_chemical_name_systematic        '1,2,4-triazolidine-3,5-diiminium dinitrate'
_symmetry_cell_setting           monoclinic
_symmetry_space_group_name_H-M   'P 21/c'
_symmetry_Int_Tables_number      14
_space_group_name_Hall           '-P 2ybc'
loop_
_symmetry_equiv_pos_site_id
_symmetry_equiv_pos_as_xyz
1 x,y,z
2 -x,1/2+y,1/2-z
3 -x,-y,-z
4 x,1/2-y,1/2+z
_cell_length_a                   13.559(3)
_cell_length_b                   8.9163(17)
_cell_length_c                   6.7232(13)
_cell_angle_alpha                90
_cell_angle_beta                 93.051(4)
_cell_angle_gamma                90
_cell_volume                     811.657
_exptl_crystal_colour            colorless
_exptl_crystal_description       bulk
_cell_formula_units_Z            4
loop_
_atom_site_label
_atom_site_type_symbol
_atom_site_fract_x
_atom_site_fract_y
_atom_site_fract_z
O1 O 0.46489(12) 1.00656(17) 0.7176(3)
O2 O 0.32927(11) 0.95625(19) 0.5520(3)
O3 O 0.42200(11) 0.77767(17) 0.6727(2)
N1 N 0.40600(12) 0.91311(19) 0.6458(3)
O4 O 0.02644(12) -0.04432(17) 0.2819(3)
O5 O 0.03362(12) 0.19355(17) 0.2648(3)
O6 O 0.15582(11) 0.07088(17) 0.3978(3)
N2 N 0.07062(12) 0.07520(18) 0.3149(3)
N3 N 0.21894(13) 0.3511(2) 0.4456(3)
H1 H 0.1967(16) 0.264(3) 0.433(3)
N4 N 0.15954(13) 0.47367(19) 0.3958(3)
H2 H 0.0968(18) 0.458(3) 0.339(3)
N5 N 0.29656(13) 0.5532(2) 0.5361(3)
H3 H 0.338(2) 0.614(3) 0.584(4)
N6 N 0.37453(14) 0.3206(3) 0.6126(3)
H4 H 0.3734(17) 0.230(3) 0.598(3)
H5 H 0.431(2) 0.364(3) 0.672(4)
N7 N 0.17820(16) 0.7348(2) 0.4245(3)
H6 H 0.1112(18) 0.756(3) 0.365(3)
H7 H 0.2168(19) 0.805(3) 0.461(4)
C1 C 0.30132(14) 0.4015(2) 0.5353(3)
C2 C 0.20821(15) 0.5959(2) 0.4496(3)
loop_
_geom_bond_atom_site_label_1
_geom_bond_atom_site_label_2
_geom_bond_site_symmetry_1
_geom_bond_site_symmetry_2
O1 N1 1_555 1_555
O2 N1 1_555 1_555
O3 N1 1_555 1_555
O4 N2 1_555 1_555
O5 N2 1_555 1_555
O6 N2 1_555 1_555
N3 H1 1_555 1_555
N4 N3 1_555 1_555
H2 N4 1_555 1_555
N5 H3 1_555 1_555
N6 H4 1_555 1_555
H5 N6 1_555 1_555
N7 H6 1_555 1_555
H7 N7 1_555 1_555
C1 N3 1_555 1_555
C2 N4 1_555 1_555
N5 C1 1_555 1_555
N5 C2 1_555 1_555
N6 C1 1_555 1_555
N7 C2 1_555 1_555

#END
