
#######################################################################
#
#                 Cambridge Crystallographic Data Centre
#                                CCDC 
#
#######################################################################
#
# If this CIF has been generated from an entry in the Cambridge 
# Structural Database, then it will include bibliographic, chemical, 
# crystal, experimental, refinement or atomic coordinate data resulting 
# from the CCDC's data processing and validation procedures.
#
#######################################################################

data_HIYFEC
_chemical_formula_moiety         'C25 H17 N1'
_chemical_name_systematic        6-(1-Naphthyl)-2-phenylquinoline
_symmetry_cell_setting           orthorhombic
_symmetry_space_group_name_H-M   'P b c a'
_symmetry_Int_Tables_number      61
_space_group_name_Hall           '-P 2ac 2ab'
loop_
_symmetry_equiv_pos_site_id
_symmetry_equiv_pos_as_xyz
1 x,y,z
2 1/2-x,-y,1/2+z
3 -x,1/2+y,1/2-z
4 1/2+x,1/2-y,-z
5 -x,-y,-z
6 1/2+x,y,1/2-z
7 x,1/2-y,1/2+z
8 1/2-x,1/2+y,z
_cell_length_a                   14.2395(19)
_cell_length_b                   7.5461(10)
_cell_length_c                   32.144(4)
_cell_angle_alpha                90
_cell_angle_beta                 90
_cell_angle_gamma                90
_cell_volume                     3453.96
_exptl_crystal_colour            colorless
_exptl_crystal_description       block
_cell_formula_units_Z            8
loop_
_atom_site_label
_atom_site_type_symbol
_atom_site_fract_x
_atom_site_fract_y
_atom_site_fract_z
N1 N 0.59697(14) 0.0914(2) 0.32073(5)
C1 C 0.56306(16) 0.0861(3) 0.14452(7)
C2 C 0.59723(16) -0.0679(3) 0.12363(7)
C3 C 0.59800(18) -0.0718(4) 0.07947(7)
C4 C 0.5626(2) 0.0749(4) 0.05761(8)
H1 H 0.5628 0.0735 0.0287
C5 C 0.5291(2) 0.2243(4) 0.12174(8)
H2 H 0.5061 0.3242 0.1353
C6 C 0.6672(2) -0.3644(4) 0.08127(10)
H3 H 0.6913 -0.4624 0.0674
C7 C 0.5282(2) 0.2183(4) 0.07784(9)
H4 H 0.5040 0.3130 0.0628
C8 C 0.66459(19) -0.3623(4) 0.12457(9)
H5 H 0.6861 -0.4598 0.1395
C9 C 0.63083(17) -0.2184(3) 0.14507(8)
H6 H 0.6298 -0.2189 0.1740
C10 C 0.6346(2) -0.2241(4) 0.05939(9)
H7 H 0.6362 -0.2277 0.0305
C11 C 0.58959(17) 0.0986(3) 0.27812(7)
C12 C 0.66249(16) 0.1630(3) 0.25243(7)
C13 C 0.50655(17) 0.0373(3) 0.25933(7)
H8 H 0.4571 -0.0019 0.2758
C14 C 0.57027(17) 0.0962(3) 0.19089(7)
C15 C 0.65008(17) 0.1603(3) 0.20894(7)
H9 H 0.6978 0.2035 0.1920
C16 C 0.49783(17) 0.0348(3) 0.21694(7)
H10 H 0.4428 -0.0084 0.2051
C17 C 0.74512(18) 0.2227(3) 0.27230(7)
H11 H 0.7945 0.2681 0.2566
C18 C 0.67649(18) 0.1464(3) 0.33797(7)
C19 C 0.75229(19) 0.2138(3) 0.31420(7)
H12 H 0.8068 0.2517 0.3274
C20 C 0.68351(18) 0.1326(3) 0.38395(7)
C21 C 0.60405(19) 0.1456(3) 0.40862(7)
H13 H 0.5457 0.1616 0.3962
C22 C 0.6104(2) 0.1353(4) 0.45131(8)
H14 H 0.5566 0.1460 0.4675
C23 C 0.7693(2) 0.1048(3) 0.40334(8)
H15 H 0.8234 0.0940 0.3874
C24 C 0.6956(2) 0.1094(4) 0.46999(9)
H16 H 0.6997 0.1030 0.4988
C25 C 0.7750(2) 0.0929(4) 0.44614(8)
H17 H 0.8329 0.0737 0.4588
loop_
_geom_bond_atom_site_label_1
_geom_bond_atom_site_label_2
_geom_bond_site_symmetry_1
_geom_bond_site_symmetry_2
N1 C11 1_555 1_555
C1 C2 1_555 1_555
C2 C3 1_555 1_555
C3 C4 1_555 1_555
C4 H1 1_555 1_555
C5 C1 1_555 1_555
H2 C5 1_555 1_555
C6 H3 1_555 1_555
C7 C4 1_555 1_555
H4 C7 1_555 1_555
C8 C6 1_555 1_555
H5 C8 1_555 1_555
C9 C2 1_555 1_555
H6 C9 1_555 1_555
C10 C3 1_555 1_555
H7 C10 1_555 1_555
C11 C12 1_555 1_555
C12 C15 1_555 1_555
C13 C11 1_555 1_555
H8 C13 1_555 1_555
C14 C1 1_555 1_555
C15 C14 1_555 1_555
H9 C15 1_555 1_555
C16 C13 1_555 1_555
H10 C16 1_555 1_555
C17 C12 1_555 1_555
H11 C17 1_555 1_555
C18 N1 1_555 1_555
C19 C17 1_555 1_555
H12 C19 1_555 1_555
C20 C18 1_555 1_555
C21 C20 1_555 1_555
H13 C21 1_555 1_555
C22 C21 1_555 1_555
H14 C22 1_555 1_555
C23 C20 1_555 1_555
H15 C23 1_555 1_555
C24 C22 1_555 1_555
H16 C24 1_555 1_555
C25 C23 1_555 1_555
H17 C25 1_555 1_555
C5 C7 1_555 1_555
C6 C10 1_555 1_555
C8 C9 1_555 1_555
C14 C16 1_555 1_555
C18 C19 1_555 1_555
C24 C25 1_555 1_555

#END
