
#######################################################################
#
#                 Cambridge Crystallographic Data Centre
#                                CCDC 
#
#######################################################################
#
# If this CIF has been generated from an entry in the Cambridge 
# Structural Database, then it will include bibliographic, chemical, 
# crystal, experimental, refinement or atomic coordinate data resulting 
# from the CCDC's data processing and validation procedures.
#
#######################################################################

data_HIYKEF
_chemical_formula_moiety         'C22 H29 N1 O4,C1 H4 O1'
_chemical_name_systematic        
'cis,cis-N-(4-n-Butylphenyl)-5-carboxy-1,3,5-trimethylcyclohexane-1,3-dicarboximide methanol solvate'
_symmetry_cell_setting           monoclinic
_symmetry_space_group_name_H-M   'P 21/n'
_symmetry_Int_Tables_number      14
_space_group_name_Hall           '-P 2yn'
loop_
_symmetry_equiv_pos_site_id
_symmetry_equiv_pos_as_xyz
1 x,y,z
2 1/2-x,1/2+y,1/2-z
3 -x,-y,-z
4 1/2+x,1/2-y,1/2+z
_cell_length_a                   9.1757(4)
_cell_length_b                   13.1247(6)
_cell_length_c                   18.6567(9)
_cell_angle_alpha                90
_cell_angle_beta                 97.412(3)
_cell_angle_gamma                90
_cell_volume                     2228.02
_exptl_crystal_colour            colorless
_exptl_crystal_description       platelet
_cell_formula_units_Z            4
loop_
_atom_site_label
_atom_site_type_symbol
_atom_site_fract_x
_atom_site_fract_y
_atom_site_fract_z
O1 O 0.1434(2) 0.49383(13) 0.28538(9)
O2 O -0.0790(2) 0.31733(13) 0.09361(10)
O3 O 0.3751(2) 0.46995(13) 0.15908(9)
O4 O 0.2651(2) 0.38138(13) 0.06483(9)
N1 N 0.0303(2) 0.40389(14) 0.19098(10)
C1 C 0.0825(3) 0.2191(2) 0.17867(13)
C2 C 0.1130(3) 0.2246(2) 0.26075(13)
H1 H 0.0209 0.2296 0.28077
H2 H 0.1623 0.1628 0.27919
C3 C 0.2084(2) 0.3160(2) 0.28423(12)
C4 C 0.3571(2) 0.3052(2) 0.25448(13)
H3 H 0.4142 0.3663 0.26679
H4 H 0.4102 0.2485 0.27896
C5 C 0.3483(2) 0.2881(2) 0.17288(12)
C6 C 0.2292(3) 0.2088(2) 0.14686(14)
H5 H 0.2688 0.1415 0.15851
H6 H 0.2085 0.2133 0.09464
C7 C -0.0147(3) 0.1275(2) 0.1551(2)
H7 H 0.0315 0.0664 0.1751
H8 H -0.0282 0.1230 0.1033
H9 H -0.1084 0.1356 0.1720
C8 C 0.2386(3) 0.3243(2) 0.36683(13)
H10 H 0.3013 0.3818 0.37976
H11 H 0.2859 0.2633 0.38623
H12 H 0.1474 0.3332 0.38617
C9 C 0.3297(2) 0.3902(2) 0.13297(13)
C10 C 0.4979(3) 0.2459(2) 0.1559(2)
H13 H 0.4924 0.2324 0.1051
H14 H 0.5203 0.1840 0.1824
H15 H 0.5735 0.2953 0.1697
C11 C 0.1288(2) 0.4123(2) 0.25552(12)
C12 C 0.0046(2) 0.3153(2) 0.15014(13)
C13 C -0.0513(2) 0.4946(2) 0.16521(12)
C14 C -0.1912(2) 0.5094(2) 0.18343(13)
H16 H -0.2313 0.4629 0.21303
C15 C -0.2711(3) 0.5942(2) 0.15714(13)
H17 H -0.3650 0.6040 0.16960
C16 C -0.2142(2) 0.6647(2) 0.11263(12)
C17 C -0.0734(2) 0.6471(2) 0.09458(13)
H18 H -0.0337 0.6926 0.06412
C18 C 0.0086(2) 0.5634(2) 0.12105(13)
H19 H 0.1030 0.5536 0.10925
C19 C -0.2974(3) 0.7589(2) 0.08579(13)
H20 H -0.4014 0.7479 0.08764
H21 H -0.2839 0.7703 0.03570
C20 C -0.2485(3) 0.8535(2) 0.12957(14)
H22 H -0.1439 0.8632 0.12854
H23 H -0.2635 0.8420 0.17945
C21 C -0.3283(3) 0.9509(2) 0.10309(14)
H24 H -0.4332 0.9406 0.10214
H25 H -0.2992 1.0052 0.13727
C22 C -0.2980(3) 0.9845(2) 0.0284(2)
H26 H -0.3414 1.0502 0.0175
H27 H -0.3397 0.9360 -0.0070
H28 H -0.1938 0.9886 0.0274
H32 H 0.2647 0.4609 0.0415
O5 O 0.2493(2) 0.56019(13) 0.00235(9)
C23 C 0.3806(3) 0.6143(2) 0.0010(2)
H29 H 0.4246 0.5948 -0.0409
H30 H 0.4469 0.5991 0.0437
H31 H 0.3602 0.6860 -0.0009
H33 H 0.1818 0.5991 -0.0350
loop_
_geom_bond_atom_site_label_1
_geom_bond_atom_site_label_2
_geom_bond_site_symmetry_1
_geom_bond_site_symmetry_2
O1 C11 1_555 1_555
O2 C12 1_555 1_555
O3 C9 1_555 1_555
O4 C9 1_555 1_555
N1 C11 1_555 1_555
C1 C2 1_555 1_555
C2 H1 1_555 1_555
H2 C2 1_555 1_555
C3 C2 1_555 1_555
C4 C3 1_555 1_555
H3 C4 1_555 1_555
H4 C4 1_555 1_555
C5 C4 1_555 1_555
C6 C1 1_555 1_555
H5 C6 1_555 1_555
H6 C6 1_555 1_555
C7 C1 1_555 1_555
H7 C7 1_555 1_555
H8 C7 1_555 1_555
H9 C7 1_555 1_555
C8 C3 1_555 1_555
H10 C8 1_555 1_555
H11 C8 1_555 1_555
H12 C8 1_555 1_555
C9 C5 1_555 1_555
C10 C5 1_555 1_555
H13 C10 1_555 1_555
H14 C10 1_555 1_555
H15 C10 1_555 1_555
C11 C3 1_555 1_555
C12 N1 1_555 1_555
C13 N1 1_555 1_555
C14 C13 1_555 1_555
H16 C14 1_555 1_555
C15 C14 1_555 1_555
H17 C15 1_555 1_555
C16 C15 1_555 1_555
C17 C16 1_555 1_555
H18 C17 1_555 1_555
C18 C13 1_555 1_555
H19 C18 1_555 1_555
C19 C16 1_555 1_555
H20 C19 1_555 1_555
H21 C19 1_555 1_555
C20 C19 1_555 1_555
H22 C20 1_555 1_555
H23 C20 1_555 1_555
C21 C20 1_555 1_555
H24 C21 1_555 1_555
H25 C21 1_555 1_555
C22 C21 1_555 1_555
H26 C22 1_555 1_555
H27 C22 1_555 1_555
H28 C22 1_555 1_555
O5 C23 1_555 1_555
C23 H29 1_555 1_555
H30 C23 1_555 1_555
H31 C23 1_555 1_555
H32 O4 1_555 1_555
H33 O5 1_555 1_555
C1 C12 1_555 1_555
C5 C6 1_555 1_555
C17 C18 1_555 1_555

#END
