
#######################################################################
#
#                 Cambridge Crystallographic Data Centre
#                                CCDC 
#
#######################################################################
#
# If this CIF has been generated from an entry in the Cambridge 
# Structural Database, then it will include bibliographic, chemical, 
# crystal, experimental, refinement or atomic coordinate data resulting 
# from the CCDC's data processing and validation procedures.
#
#######################################################################

data_HIYWUH
_chemical_formula_moiety         'C16 H44 B8 Si4'
_chemical_name_systematic        
nido-2,4,6,12-tetrakis(Trimethylsilyl)-2,4,6,12-tetracarbadodecaborane
_symmetry_cell_setting           triclinic
_symmetry_space_group_name_H-M   'P -1'
_symmetry_Int_Tables_number      2
_space_group_name_Hall           '-P 1'
loop_
_symmetry_equiv_pos_site_id
_symmetry_equiv_pos_as_xyz
1 x,y,z
2 -x,-y,-z
_cell_length_a                   19.345(5)
_cell_length_b                   19.577(4)
_cell_length_c                   24.439(5)
_cell_angle_alpha                79.04(2)
_cell_angle_beta                 80.29(2)
_cell_angle_gamma                89.63(2)
_cell_volume                     8953.34
_exptl_crystal_colour            colorless
_exptl_crystal_description       rectangular
_chemical_melting_point          68deg.C
_cell_formula_units_Z            12
loop_
_atom_site_label
_atom_site_type_symbol
_atom_site_fract_x
_atom_site_fract_y
_atom_site_fract_z
Si5 Si 0.3699(2) 0.8114(3) 0.6098(2)
Si6 Si 0.4134(2) 0.6335(2) 0.4578(2)
Si7 Si 0.6126(2) 0.6374(2) 0.6128(2)
Si8 Si 0.6072(3) 0.8708(2) 0.4263(2)
C17 C 0.4413(7) 0.7736(7) 0.5666(6)
C18 C 0.4644(8) 0.6881(7) 0.4922(6)
C19 C 0.5604(8) 0.6918(8) 0.5646(6)
C20 C 0.5564(7) 0.7997(7) 0.4785(6)
B9 B 0.4488(20) 0.6897(15) 0.5622(13)
B10 B 0.4424(16) 0.7642(16) 0.5033(12)
B11 B 0.5331(11) 0.7294(11) 0.4573(8)
B12 B 0.5403(11) 0.6589(11) 0.5115(9)
B13 B 0.5125(14) 0.7506(17) 0.5909(10)
B14 B 0.5085(14) 0.8199(13) 0.5350(11)
B15 B 0.5864(15) 0.7786(13) 0.5418(12)
B16 B 0.5975(11) 0.7270(10) 0.4981(8)
C21 C 0.4039(10) 0.8650(12) 0.6528(9)
C22 C 0.3205(11) 0.8698(11) 0.5622(9)
C23 C 0.3107(11) 0.7440(11) 0.6544(10)
C24 C 0.3551(10) 0.6902(9) 0.4184(9)
C25 C 0.4708(9) 0.5899(9) 0.4098(7)
C26 C 0.3599(10) 0.5696(10) 0.5125(7)
C27 C 0.6804(9) 0.5938(9) 0.5713(7)
C28 C 0.6529(8) 0.6946(9) 0.6502(7)
C29 C 0.5542(8) 0.5730(7) 0.6640(6)
C30 C 0.6723(11) 0.8357(10) 0.3774(8)
C31 C 0.6497(11) 0.9281(10) 0.4626(8)
C32 C 0.5494(12) 0.9209(10) 0.3845(9)
H45 H 0.4188(20) 0.6482(15) 0.5938(13)
H46 H 0.4046(16) 0.7931(16) 0.4794(12)
H47 H 0.5459(11) 0.7330(11) 0.4112(8)
H48 H 0.5587(11) 0.6060(11) 0.5093(9)
H49 H 0.5149(14) 0.7490(17) 0.6358(10)
H50 H 0.5078(14) 0.8766(13) 0.5324(11)
H51 H 0.6318(15) 0.8035(13) 0.5525(12)
H52 H 0.6527(11) 0.7199(10) 0.4808(8)
H53 H 0.4351(10) 0.9005(12) 0.6288(9)
H54 H 0.4289(10) 0.8365(12) 0.6790(9)
H55 H 0.3656(10) 0.8863(12) 0.6733(9)
H56 H 0.3517(11) 0.9054(11) 0.5383(9)
H57 H 0.2838(11) 0.8910(11) 0.5844(9)
H58 H 0.3004(11) 0.8434(11) 0.5392(9)
H59 H 0.2931(11) 0.7159(11) 0.6313(10)
H60 H 0.2722(11) 0.7651(11) 0.6748(10)
H61 H 0.3354(11) 0.7153(11) 0.6808(10)
H62 H 0.3247(10) 0.7135(9) 0.4438(9)
H63 H 0.3274(10) 0.6627(9) 0.4011(9)
H64 H 0.3827(10) 0.7241(9) 0.3895(9)
H65 H 0.4986(9) 0.6239(9) 0.3812(7)
H66 H 0.4432(9) 0.5626(9) 0.3923(7)
H67 H 0.5010(9) 0.5600(9) 0.4304(7)
H68 H 0.3297(10) 0.5932(10) 0.5378(7)
H69 H 0.3899(10) 0.5395(10) 0.5332(7)
H70 H 0.3320(10) 0.5424(10) 0.4951(7)
H71 H 0.6587(9) 0.5640(9) 0.5517(7)
H72 H 0.7081(9) 0.5665(9) 0.5960(7)
H73 H 0.7100(9) 0.6280(9) 0.5443(7)
H74 H 0.6169(8) 0.7172(9) 0.6719(7)
H75 H 0.6823(8) 0.7291(9) 0.6233(7)
H76 H 0.6807(8) 0.6676(9) 0.6751(7)
H77 H 0.5191(8) 0.5966(7) 0.6856(6)
H78 H 0.5811(8) 0.5449(7) 0.6890(6)
H79 H 0.5320(8) 0.5439(7) 0.6442(6)
H80 H 0.7045(11) 0.8085(10) 0.3979(8)
H81 H 0.6974(11) 0.8732(10) 0.3505(8)
H82 H 0.6494(11) 0.8067(10) 0.3579(8)
H83 H 0.6807(11) 0.9016(10) 0.4848(8)
H84 H 0.6146(11) 0.9483(10) 0.4870(8)
H85 H 0.6760(11) 0.9643(10) 0.4352(8)
H86 H 0.5139(12) 0.9407(10) 0.4088(9)
H87 H 0.5277(12) 0.8912(10) 0.3649(9)
H88 H 0.5759(12) 0.9576(10) 0.3575(9)
Si9 Si 0.2153(2) 0.5494(3) 0.2902(2)
Si10 Si 0.3292(2) 0.6289(3) 0.0557(2)
Si11 Si 0.1642(3) 0.8250(3) 0.1645(2)
Si12 Si 0.0332(3) 0.5752(3) 0.1227(2)
C33 C 0.1951(8) 0.6010(8) 0.2232(6)
C34 C 0.2532(7) 0.6382(8) 0.1097(7)
C35 C 0.1707(8) 0.7314(8) 0.1620(6)
C36 C 0.1106(7) 0.6137(8) 0.1431(7)
B17 B 0.2583(19) 0.6290(17) 0.1779(14)
B18 B 0.2003(19) 0.5751(21) 0.1507(15)
B19 B 0.1722(18) 0.6369(17) 0.0958(14)
B20 B 0.2527(19) 0.7005(20) 0.1521(16)
B21 B 0.1523(12) 0.6742(12) 0.2224(10)
B22 B 0.1163(12) 0.6007(11) 0.2109(9)
B23 B 0.0986(13) 0.6821(12) 0.1735(9)
B24 B 0.2061(18) 0.7086(18) 0.1022(14)
C37 C 0.1512(10) 0.5635(11) 0.3516(8)
C38 C 0.3001(11) 0.5749(11) 0.3056(9)
C39 C 0.2117(10) 0.4568(9) 0.2881(8)
C40 C 0.3077(9) 0.6582(11) -0.0140(7)
C41 C 0.4027(10) 0.6830(14) 0.0638(8)
C42 C 0.3528(14) 0.5378(12) 0.0643(9)
C43 C 0.1578(12) 0.8731(10) 0.0932(7)
C44 C 0.0845(10) 0.8386(10) 0.2143(8)
C45 C 0.2424(10) 0.8575(10) 0.1866(8)
C46 C -0.0408(9) 0.5673(11) 0.1805(8)
C47 C 0.0078(10) 0.6322(12) 0.0601(8)
C48 C 0.0570(12) 0.4912(10) 0.1026(13)
H89 H 0.3106(19) 0.6178(17) 0.1888(14)
H90 H 0.1980(19) 0.5230(21) 0.1402(15)
H91 H 0.1603 0.6090 0.0600
H92 H 0.2726 0.7589 0.1334
H93 H 0.1410(12) 0.7012(12) 0.2583(10)
H94 H 0.0775(12) 0.5660(11) 0.2417(9)
H95 H 0.0453(13) 0.7025(12) 0.1751(9)
H96 H 0.1719 0.7214 0.0630
H97 H 0.1049(10) 0.5513(11) 0.3468(8)
H98 H 0.1529(10) 0.6116(11) 0.3547(8)
H99 H 0.1623(10) 0.5350(11) 0.3854(8)
H100 H 0.3007(11) 0.6237(11) 0.3063(9)
H101 H 0.3371(11) 0.5653(11) 0.2768(9)
H102 H 0.3069(11) 0.5489(11) 0.3417(9)
H103 H 0.1670(10) 0.4449(9) 0.2799(8)
H104 H 0.2181(10) 0.4301(9) 0.3240(8)
H105 H 0.2483(10) 0.4468(9) 0.2591(8)
H106 H 0.2949(9) 0.7062(11) -0.0182(7)
H107 H 0.2690(9) 0.6306(11) -0.0187(7)
H108 H 0.3476(9) 0.6535(11) -0.0421(7)
H109 H 0.4146(10) 0.6681(14) 0.1007(8)
H110 H 0.3893(10) 0.7308(14) 0.0593(8)
H111 H 0.4426(10) 0.6785(14) 0.0355(8)
H112 H 0.3641(14) 0.5224(12) 0.1014(9)
H113 H 0.3927(14) 0.5326(12) 0.0363(9)
H114 H 0.3140(14) 0.5103(12) 0.0597(9)
H115 H 0.1541(12) 0.9219(10) 0.0938(7)
H116 H 0.1170(12) 0.8569(10) 0.0814(7)
H117 H 0.1989(12) 0.8656(10) 0.0672(7)
H118 H 0.0807(10) 0.8873(10) 0.2154(8)
H119 H 0.0876(10) 0.8130(10) 0.2514(8)
H120 H 0.0440(10) 0.8227(10) 0.2020(8)
H121 H 0.2379(10) 0.9062(10) 0.1873(8)
H122 H 0.2835(10) 0.8508(10) 0.1603(8)
H123 H 0.2465(10) 0.8326(10) 0.2236(8)
H124 H -0.0515(9) 0.6124(11) 0.1892(8)
H125 H -0.0291(9) 0.5371(11) 0.2133(8)
H126 H -0.0809(9) 0.5483(11) 0.1696(8)
H127 H 0.0462(10) 0.6372(12) 0.0291(8)
H128 H -0.0041(10) 0.6770(12) 0.0689(8)
H129 H -0.0321(10) 0.6118(12) 0.0500(8)
H130 H 0.0963(12) 0.4981(10) 0.0721(13)
H131 H 0.0179(12) 0.4719(10) 0.0906(13)
H132 H 0.0694(12) 0.4598(10) 0.1345(13)
Si13 Si 0.9137(3) 0.6896(3) 0.3902(2)
Si14 Si 0.8921(3) 0.8624(3) 0.5471(2)
Si15 Si 1.1588(2) 0.8558(2) 0.3928(2)
Si16 Si 1.0699(3) 0.6241(3) 0.5763(2)
C49 C 0.9661(8) 0.7269(9) 0.4358(7)
C50 C 0.9577(8) 0.8097(8) 0.5112(6)
C51 C 1.0836(8) 0.8048(8) 0.4371(7)
C52 C 1.0415(8) 0.6957(8) 0.5236(7)
B25 B 0.9586(24) 0.8036(14) 0.4437(13)
B26 B 0.9457(16) 0.7274(20) 0.5005(12)
B27 B 1.0111(12) 0.7653(11) 0.5462(10)
B28 B 1.0359(13) 0.8394(12) 0.4861(13)
B29 B 1.0469(18) 0.7471(18) 0.4091(12)
B30 B 1.0206(14) 0.6752(14) 0.4653(11)
B31 B 1.0981(15) 0.7198(15) 0.4598(11)
B32 B 1.0918(14) 0.7689(13) 0.5051(12)
C53 C 0.8401(9) 0.6395(11) 0.4375(7)
C54 C 0.9676(10) 0.6340(11) 0.3486(9)
C55 C 0.8831(10) 0.7589(11) 0.3396(9)
C56 C 0.8650(13) 0.9332(12) 0.4943(10)
C57 C 0.8151(11) 0.8078(12) 0.5816(11)
C58 C 0.9280(10) 0.9021(10) 0.5987(8)
C59 C 1.2160(8) 0.7987(8) 0.3537(6)
C60 C 1.2093(8) 0.8956(9) 0.4378(7)
C61 C 1.1247(9) 0.9238(8) 0.3421(7)
C62 C 1.1168(14) 0.5624(11) 0.5411(10)
C63 C 1.1231(17) 0.6584(12) 0.6198(11)
C64 C 0.9954(15) 0.5821(13) 0.6240(12)
H133 H 0.9301(24) 0.8409(14) 0.4166(13)
H134 H 0.9040 0.6937 0.5280
H135 H 1.0055(12) 0.7617(11) 0.5922(10)
H136 H 1.0511(13) 0.8944(12) 0.4825(13)
H137 H 1.0687(18) 0.7503(18) 0.3641(12)
H138 H 1.0205(14) 0.6190(14) 0.4652(11)
H139 H 1.1488(15) 0.6956(15) 0.4490(11)
H140 H 1.1386(14) 0.7758(13) 0.5238(12)
H141 H 0.8578(9) 0.6033(11) 0.4635(7)
H142 H 0.8122(9) 0.6190(11) 0.4155(7)
H143 H 0.8118(9) 0.6697(11) 0.4581(7)
H144 H 0.9850(10) 0.5965(11) 0.3736(9)
H145 H 1.0063(10) 0.6609(11) 0.3247(9)
H146 H 0.9396(10) 0.6153(11) 0.3257(9)
H147 H 0.8544(10) 0.7895(11) 0.3596(9)
H148 H 0.8561(10) 0.7391(11) 0.3167(9)
H149 H 0.9227(10) 0.7847(11) 0.3159(9)
H150 H 0.9050(13) 0.9624(12) 0.4757(10)
H151 H 0.8303(13) 0.9603(12) 0.5128(10)
H152 H 0.8456(13) 0.9137(12) 0.4669(10)
H153 H 0.7969(11) 0.7874(12) 0.5541(11)
H154 H 0.7799(11) 0.8357(12) 0.5987(11)
H155 H 0.8281(11) 0.7716(12) 0.6102(11)
H156 H 0.9683(10) 0.9308(10) 0.5799(8)
H157 H 0.9415(10) 0.8662(10) 0.6272(8)
H158 H 0.8930(10) 0.9300(10) 0.6160(8)
H159 H 1.2553(8) 0.8255(8) 0.3305(6)
H160 H 1.1899(8) 0.7790(8) 0.3301(6)
H161 H 1.2324(8) 0.7621(8) 0.3800(6)
H162 H 1.2485(8) 0.9222(9) 0.4143(7)
H163 H 1.2258(8) 0.8595(9) 0.4646(7)
H164 H 1.1794(8) 0.9255(9) 0.4576(7)
H165 H 1.1630(9) 0.9514(8) 0.3183(7)
H166 H 1.0942(9) 0.9529(8) 0.3623(7)
H167 H 1.0989(9) 0.9024(8) 0.3192(7)
H168 H 1.1572(14) 0.5848(11) 0.5159(10)
H169 H 1.0870(14) 0.5430(11) 0.5200(10)
H170 H 1.1317(14) 0.5259(11) 0.5685(10)
H171 H 1.0969(17) 0.6918(12) 0.6384(11)
H172 H 1.1648(17) 0.6806(12) 0.5963(11)
H173 H 1.1358(17) 0.6211(12) 0.6476(11)
H174 H 0.9700(15) 0.6155(13) 0.6431(12)
H175 H 1.0108(15) 0.5458(13) 0.6513(12)
H176 H 0.9654(15) 0.5624(13) 0.6032(12)
Si17 Si 1.0374(3) 0.9008(3) 0.9283(2)
Si18 Si 0.8899(2) 0.7498(3) 0.8064(2)
Si19 Si 1.1711(2) 0.6704(2) 0.8377(2)
Si20 Si 1.1209(2) 0.9322(2) 0.6876(2)
C65 C 1.0500(8) 0.8538(8) 0.8682(6)
C66 C 0.9791(7) 0.7813(8) 0.8123(6)
C67 C 1.1131(7) 0.7463(7) 0.8229(6)
C68 C 1.0913(7) 0.8685(7) 0.7519(6)
B33 B 1.0131(21) 0.7748(24) 0.8684(11)
B34 B 1.0005(18) 0.8587(19) 0.8234(17)
B35 B 1.0259(10) 0.8124(13) 0.7544(11)
B36 B 1.0420(13) 0.7338(14) 0.7991(15)
B37 B 1.1149(17) 0.8030(14) 0.8629(11)
B38 B 1.1044(12) 0.8886(11) 0.8147(9)
B39 B 1.1521(13) 0.8222(12) 0.7867(10)
B40 B 1.1107(16) 0.7828(14) 0.7558(11)
C69 C 1.1237(11) 0.9285(10) 0.9390(8)
C70 C 0.9878(16) 0.9789(12) 0.9104(10)
C71 C 0.9978(11) 0.8432(12) 0.9922(7)
C72 C 0.8383(9) 0.8242(12) 0.7839(9)
C73 C 0.8954(12) 0.6942(13) 0.7543(10)
C74 C 0.8499(9) 0.6995(11) 0.8752(8)
C75 C 1.1370(9) 0.6199(9) 0.9080(6)
C76 C 1.2603(7) 0.7013(8) 0.8357(7)
C77 C 1.1727(9) 0.6150(8) 0.7845(7)
C78 C 1.2073(7) 0.9671(8) 0.6891(6)
C79 C 1.0579(10) 1.0033(9) 0.6838(7)
C80 C 1.1266(8) 0.8910(8) 0.6259(5)
H177 H 0.9897(21) 0.7388(24) 0.9073(11)
H178 H 0.9638(18) 0.9018(19) 0.8197(17)
H179 H 1.0035(10) 0.8228(13) 0.7152(11)
H180 H 1.0338(13) 0.6792(14) 0.7961(15)
H181 H 1.1458(17) 0.7876(14) 0.8970(11)
H182 H 1.1281(12) 0.9407(11) 0.8102(9)
H183 H 1.2088(13) 0.8295(12) 0.7708(10)
H184 H 1.1415(16) 0.7641(14) 0.7197(11)
H185 H 1.1463(11) 0.9594(10) 0.9054(8)
H186 H 1.1519(11) 0.8885(10) 0.9467(8)
H187 H 1.1180(11) 0.9523(10) 0.9703(8)
H188 H 1.0117(16) 1.0071(12) 0.8760(10)
H189 H 0.9836(16) 1.0047(12) 0.9404(10)
H190 H 0.9418(16) 0.9659(12) 0.9053(10)
H191 H 1.0266(11) 0.8035(12) 0.9992(7)
H192 H 0.9521(11) 0.8281(12) 0.9881(7)
H193 H 0.9935(11) 0.8673(12) 1.0233(7)
H194 H 0.8346(9) 0.8543(12) 0.8109(9)
H195 H 0.7923(9) 0.8085(12) 0.7812(9)
H196 H 0.8607(9) 0.8491(12) 0.7476(9)
H197 H 0.9225(12) 0.6543(13) 0.7654(10)
H198 H 0.9175(12) 0.7196(13) 0.7181(10)
H199 H 0.8490(12) 0.6792(13) 0.7518(10)
H200 H 0.8785(9) 0.6604(11) 0.8856(8)
H201 H 0.8040(9) 0.6831(11) 0.8730(8)
H202 H 0.8463(9) 0.7284(11) 0.9031(8)
H203 H 1.0900(9) 0.6037(9) 0.9089(6)
H204 H 1.1368(9) 0.6488(9) 0.9356(6)
H205 H 1.1662(9) 0.5808(9) 0.9163(6)
H206 H 1.2781(7) 0.7278(8) 0.7988(7)
H207 H 1.2896(7) 0.6622(8) 0.8440(7)
H208 H 1.2602(7) 0.7302(8) 0.8634(7)
H209 H 1.1259(9) 0.5984(8) 0.7850(7)
H210 H 1.2021(9) 0.5762(8) 0.7930(7)
H211 H 1.1907(9) 0.6416(8) 0.7476(7)
H212 H 1.2226(7) 1.0005(8) 0.6550(6)
H213 H 1.2399(7) 0.9300(8) 0.6920(6)
H214 H 1.2051(7) 0.9893(8) 0.7212(6)
H215 H 1.0728(10) 1.0374(9) 0.6501(7)
H216 H 1.0560(10) 1.0246(9) 0.7163(7)
H217 H 1.0123(10) 0.9849(9) 0.6831(7)
H218 H 1.1424(8) 0.9248(8) 0.5921(5)
H219 H 1.0812(8) 0.8727(8) 0.6243(5)
H220 H 1.1592(8) 0.8538(8) 0.6288(5)
Si21 Si 0.5139(2) 0.7513(3) 1.2130(2)
Si22 Si 0.7065(2) 0.5666(2) 1.3075(2)
Si23 Si 0.8097(2) 0.8267(2) 1.1542(2)
Si24 Si 0.6955(3) 0.5969(3) 1.0713(2)
C81 C 0.6030(6) 0.7187(7) 1.1973(6)
C82 C 0.6955(7) 0.6303(7) 1.2428(6)
C83 C 0.7450(7) 0.7543(7) 1.1698(6)
C84 C 0.6887(8) 0.6440(7) 1.1308(6)
B41 B 0.6658(19) 0.7137(20) 1.2381(16)
B42 B 0.6279(16) 0.6336(16) 1.2095(13)
B43 B 0.7297(10) 0.6122(11) 1.1820(8)
B44 B 0.766(15) 0.6786(13) 1.2081(10)
B45 B 0.6635(15) 0.7716(14) 1.1625(11)
B46 B 0.6300(12) 0.6989(12) 1.1368(10)
B47 B 0.7143(18) 0.7313(18) 1.1113(16)
B48 B 0.7660(14) 0.6863(13) 1.1369(11)
C85 C 0.4903(8) 0.8098(9) 1.1514(7)
C86 C 0.4532(8) 0.6751(10) 1.2317(8)
C87 C 0.5083(11) 0.7992(11) 1.2715(8)
C88 C 0.7969(7) 0.5399(7) 1.3037(6)
C89 C 0.6818(8) 0.6082(9) 1.3711(6)
C90 C 0.6500(9) 0.4898(8) 1.3127(7)
C91 C 0.8988(7) 0.7922(9) 1.1532(7)
C92 C 0.8027(8) 0.8780(8) 1.0844(6)
C93 C 0.7936(10) 0.8810(8) 1.2079(7)
C94 C 0.7854(12) 0.5678(12) 1.0520(9)
C95 C 0.6348(19) 0.5212(13) 1.0959(11)
C96 C 0.6733(12) 0.6520(11) 1.0095(8)
H221 H 0.6628(19) 0.7425(20) 1.2729(16)
H222 H 0.5906 0.5915 1.2186
H223 H 0.7524(10) 0.5612(11) 1.1787(8)
H224 H 0.8146(14) 0.6788(13) 1.2256(10)
H225 H 0.6570 0.8278 1.1898
H226 H 0.5957 0.6994 1.1049
H227 H 0.7311(18) 0.7579(18) 1.0672(16)
H228 H 0.8160(14) 0.6867(13) 1.1077(11)
H229 H 0.4436(8) 0.8260(9) 1.1610(7)
H230 H 0.4920(8) 0.7853(9) 1.1208(7)
H231 H 0.5227(8) 0.8488(9) 1.1402(7)
H232 H 0.4059(8) 0.6902(10) 1.2402(8)
H233 H 0.4647(8) 0.6442(10) 1.2642(8)
H234 H 0.4573(8) 0.6513(10) 1.2004(8)
H235 H 0.4618(11) 0.8163(11) 1.2796(8)
H236 H 0.5415(11) 0.8377(11) 1.2610(8)
H237 H 0.5188(11) 0.7686(11) 1.3046(8)
H238 H 0.8268(7) 0.5798(7) 1.3009(6)
H239 H 0.8103(7) 0.5192(7) 1.2710(6)
H240 H 0.8015(7) 0.5065(7) 1.3371(6)
H241 H 0.6340(8) 0.6226(9) 1.3734(6)
H242 H 0.7120(8) 0.6480(9) 1.3676(6)
H243 H 0.6866(8) 0.5752(9) 1.4046(6)
H244 H 0.6020(9) 0.5035(8) 1.3147(7)
H245 H 0.6548(9) 0.4566(8) 1.3462(7)
H246 H 0.6636(9) 0.4692(8) 1.2800(7)
H247 H 0.9081(7) 0.7634(9) 1.1252(7)
H248 H 0.9022(7) 0.7650(9) 1.1897(7)
H249 H 0.9325(7) 0.8301(9) 1.1442(7)
H250 H 0.8111(8) 0.8488(8) 1.0567(6)
H251 H 0.8368(8) 0.9156(8) 1.0748(6)
H252 H 0.7565(8) 0.8963(8) 1.0853(6)
H253 H 0.8279(10) 0.9184(8) 1.1989(7)
H254 H 0.7968(10) 0.8534(8) 1.2442(7)
H255 H 0.7475(10) 0.8998(8) 1.2087(7)
H256 H 0.7991(12) 0.5382(12) 1.0843(9)
H257 H 0.8169(12) 0.6075(12) 1.0399(9)
H258 H 0.7872(12) 0.5424(12) 1.0219(9)
H259 H 0.6480(19) 0.4928(13) 1.1289(11)
H260 H 0.6369(19) 0.4944(13) 1.0666(11)
H261 H 0.5879(19) 0.5368(13) 1.1051(11)
H262 H 0.6266(12) 0.6683(11) 1.0181(8)
H263 H 0.6759(12) 0.6262(11) 0.9796(8)
H264 H 0.7057(12) 0.6911(11) 0.9978(8)
Si1 Si 0.6326(2) 0.9537(2) 0.7026(2)
Si2 Si 0.3785(2) 0.9244(2) 0.8636(2)
Si3 Si 0.6370(3) 0.9178(3) 0.9384(2)
Si4 Si 0.5517(2) 0.6807(2) 0.8457(2)
C1 C 0.5895(6) 0.9044(6) 0.7720(5)
C2 C 0.4676(6) 0.8933(6) 0.8470(6)
C3 C 0.5952(7) 0.8866(7) 0.8860(5)
C4 C 0.5522(7) 0.7761(7) 0.8397(6)
B1 B 0.5467(6) 0.9402(10) 0.8278(6)
B2 B 0.5122(7) 0.8548(10) 0.7934(7)
B3 B 0.4807(12) 0.8102(16) 0.8738(7)
B4 B 0.5082(10) 0.8794(9) 0.9014(7)
B5 B 0.6385(7) 0.8938(8) 0.8233(7)
B6 B 0.6105(8) 0.8254(13) 0.7941(8)
B7 B 0.6189(13) 0.8136(10) 0.8629(8)
B8 B 0.5509(16) 0.8036(14) 0.9070(16)
C5 C 0.6260(9) 1.0475(8) 0.7040(8)
C6 C 0.5927(10) 0.9329(10) 0.6442(7)
C7 C 0.7249(8) 0.9295(9) 0.6888(7)
C8 C 0.3308(10) 0.8750(12) 0.9321(8)
C9 C 0.3845(10) 1.0141(9) 0.8679(12)
C10 C 0.3288(9) 0.9141(11) 0.8100(7)
C11 C 0.7334(9) 0.9042(13) 0.9237(9)
C12 C 0.6202(12) 1.0110(10) 0.9352(9)
C13 C 0.5990(11) 0.8709(10) 1.0105(6)
C14 C 0.4952(9) 0.6573(9) 0.7991(7)
C15 C 0.5175(9) 0.6360(9) 0.9184(7)
C16 C 0.6427(9) 0.6512(9) 0.8260(7)
H1 H 0.5507(6) 0.9960(10) 0.8288(6)
H2 H 0.4852(7) 0.8340(10) 0.7636(7)
H3 H 0.4359(12) 0.7737(16) 0.8909(7)
H4 H 0.4844(10) 0.8969(9) 0.9403(7)
H5 H 0.6910(7) 0.9184(8) 0.8161(7)
H6 H 0.6431(8) 0.7979(13) 0.7642(8)
H7 H 0.6606(13) 0.7814(10) 0.8791(8)
H8 H 0.5497(16) 0.7682(14) 0.9479(16)
H9 H 0.6477(9) 1.0740(8) 0.6681(8)
H10 H 0.6494(9) 1.0581(8) 0.7332(8)
H11 H 0.5775(9) 1.0592(8) 0.7116(8)
H12 H 0.6161(10) 0.9597(10) 0.6090(7)
H13 H 0.5439(10) 0.9439(10) 0.6497(7)
H14 H 0.5974(10) 0.8842(10) 0.6435(7)
H15 H 0.7471(8) 0.9551(9) 0.6527(7)
H16 H 0.7274(8) 0.8805(9) 0.6887(7)
H17 H 0.7485(8) 0.9402(9) 0.7178(7)
H18 H 0.3275(10) 0.8267(12) 0.9302(8)
H19 H 0.2845(10) 0.8928(12) 0.9396(8)
H20 H 0.3557(10) 0.8802(12) 0.9620(8)
H21 H 0.4112(10) 1.0191(9) 0.8967(12)
H22 H 0.3383(10) 1.0313(9) 0.8771(12)
H23 H 0.4073(10) 1.0402(9) 0.8321(12)
H24 H 0.3259(9) 0.8657(11) 0.8081(7)
H25 H 0.3515(9) 0.9399(11) 0.7741(7)
H26 H 0.2825(9) 0.9311(11) 0.8191(7)
H27 H 0.7554(9) 0.9210(13) 0.9511(9)
H28 H 0.7525(9) 0.9293(13) 0.8865(9)
H29 H 0.7418(9) 0.8555(13) 0.9257(9)
H30 H 0.6421(12) 1.0276(10) 0.9628(9)
H31 H 0.5705(12) 1.0177(10) 0.9429(9)
H32 H 0.6391(12) 1.0365(10) 0.8981(9)
H33 H 0.6210(11) 0.8878(10) 1.0379(6)
H34 H 0.6068(11) 0.8220(10) 1.0132(6)
H35 H 0.5495(11) 0.8786(10) 1.0177(6)
H36 H 0.5122(9) 0.6803(9) 0.7609(7)
H37 H 0.4482(9) 0.6714(9) 0.8107(7)
H38 H 0.4954(9) 0.6078(9) 0.8013(7)
H39 H 0.5466(9) 0.6477(9) 0.9435(7)
H40 H 0.5174(9) 0.5866(9) 0.9201(7)
H41 H 0.4704(9) 0.6503(9) 0.9295(7)
H42 H 0.6718(9) 0.6641(9) 0.8507(7)
H43 H 0.6611(9) 0.6728(9) 0.7876(7)
H44 H 0.6421(9) 0.6016(9) 0.8293(7)
loop_
_geom_bond_atom_site_label_1
_geom_bond_atom_site_label_2
_geom_bond_site_symmetry_1
_geom_bond_site_symmetry_2
Si1 C1 1_555 1_555
Si2 C2 1_555 1_555
Si3 C3 1_555 1_555
Si4 C4 1_555 1_555
C1 B1 1_555 1_555
C2 B1 1_555 1_555
C3 B4 1_555 1_555
C4 B3 1_555 1_555
B1 B4 1_555 1_555
B2 C1 1_555 1_555
B3 C2 1_555 1_555
B4 C2 1_555 1_555
B5 C1 1_555 1_555
B6 C1 1_555 1_555
B7 C3 1_555 1_555
B8 C3 1_555 1_555
C5 Si1 1_555 1_555
C6 Si1 1_555 1_555
C7 Si1 1_555 1_555
C8 Si2 1_555 1_555
C9 Si2 1_555 1_555
C10 Si2 1_555 1_555
C11 Si3 1_555 1_555
C12 Si3 1_555 1_555
C13 Si3 1_555 1_555
C14 Si4 1_555 1_555
C15 Si4 1_555 1_555
C16 Si4 1_555 1_555
Si5 C17 1_555 1_555
Si6 C18 1_555 1_555
Si7 C19 1_555 1_555
Si8 C20 1_555 1_555
C17 B9 1_555 1_555
C18 B9 1_555 1_555
C19 B12 1_555 1_555
C20 B11 1_555 1_555
B9 B10 1_555 1_555
B10 C17 1_555 1_555
B11 C18 1_555 1_555
B12 C18 1_555 1_555
B13 C17 1_555 1_555
B14 C17 1_555 1_555
B15 C19 1_555 1_555
B16 C19 1_555 1_555
C21 Si5 1_555 1_555
C22 Si5 1_555 1_555
C23 Si5 1_555 1_555
C24 Si6 1_555 1_555
C25 Si6 1_555 1_555
C26 Si6 1_555 1_555
C27 Si7 1_555 1_555
C28 Si7 1_555 1_555
C29 Si7 1_555 1_555
C30 Si8 1_555 1_555
C31 Si8 1_555 1_555
C32 Si8 1_555 1_555
Si9 C33 1_555 1_555
Si10 C34 1_555 1_555
Si11 C35 1_555 1_555
Si12 C36 1_555 1_555
C33 B17 1_555 1_555
C34 B17 1_555 1_555
C35 B20 1_555 1_555
C36 B19 1_555 1_555
B17 B18 1_555 1_555
B18 C34 1_555 1_555
B19 C34 1_555 1_555
B20 C34 1_555 1_555
B21 C33 1_555 1_555
B22 C33 1_555 1_555
B23 C35 1_555 1_555
B24 C34 1_555 1_555
C37 Si9 1_555 1_555
C38 Si9 1_555 1_555
C39 Si9 1_555 1_555
C40 Si10 1_555 1_555
C41 Si10 1_555 1_555
C42 Si10 1_555 1_555
C43 Si11 1_555 1_555
C44 Si11 1_555 1_555
C45 Si11 1_555 1_555
C46 Si12 1_555 1_555
C47 Si12 1_555 1_555
C48 Si12 1_555 1_555
Si13 C49 1_555 1_555
Si14 C50 1_555 1_555
Si15 C51 1_555 1_555
Si16 C52 1_555 1_555
C49 B25 1_555 1_555
C50 B25 1_555 1_555
C51 B28 1_555 1_555
C52 B27 1_555 1_555
B25 B26 1_555 1_555
B26 C49 1_555 1_555
B27 C50 1_555 1_555
B28 C50 1_555 1_555
B29 C49 1_555 1_555
B30 C49 1_555 1_555
B31 C51 1_555 1_555
B32 C51 1_555 1_555
C53 Si13 1_555 1_555
C54 Si13 1_555 1_555
C55 Si13 1_555 1_555
C56 Si14 1_555 1_555
C57 Si14 1_555 1_555
C58 Si14 1_555 1_555
C59 Si15 1_555 1_555
C60 Si15 1_555 1_555
C61 Si15 1_555 1_555
C62 Si16 1_555 1_555
C63 Si16 1_555 1_555
C64 Si16 1_555 1_555
Si17 C65 1_555 1_555
Si18 C66 1_555 1_555
Si19 C67 1_555 1_555
Si20 C68 1_555 1_555
C65 B33 1_555 1_555
C66 B33 1_555 1_555
C67 B36 1_555 1_555
C68 B35 1_555 1_555
B33 B34 1_555 1_555
B34 C65 1_555 1_555
B35 C66 1_555 1_555
B36 C66 1_555 1_555
B37 C65 1_555 1_555
B38 C65 1_555 1_555
B39 C67 1_555 1_555
B40 C67 1_555 1_555
C69 Si17 1_555 1_555
C70 Si17 1_555 1_555
C71 Si17 1_555 1_555
C72 Si18 1_555 1_555
C73 Si18 1_555 1_555
C74 Si18 1_555 1_555
C75 Si19 1_555 1_555
C76 Si19 1_555 1_555
C77 Si19 1_555 1_555
C78 Si20 1_555 1_555
C79 Si20 1_555 1_555
C80 Si20 1_555 1_555
Si21 C81 1_555 1_555
Si22 C82 1_555 1_555
Si23 C83 1_555 1_555
Si24 C84 1_555 1_555
C81 B41 1_555 1_555
C82 B41 1_555 1_555
C83 B44 1_555 1_555
C84 B43 1_555 1_555
B41 B42 1_555 1_555
B42 C81 1_555 1_555
B43 C82 1_555 1_555
B44 C82 1_555 1_555
B45 C81 1_555 1_555
B46 C81 1_555 1_555
B47 C83 1_555 1_555
B48 C83 1_555 1_555
C85 Si21 1_555 1_555
C86 Si21 1_555 1_555
C87 Si21 1_555 1_555
C88 Si22 1_555 1_555
C89 Si22 1_555 1_555
C90 Si22 1_555 1_555
C91 Si23 1_555 1_555
C92 Si23 1_555 1_555
C93 Si23 1_555 1_555
C94 Si24 1_555 1_555
C95 Si24 1_555 1_555
C96 Si24 1_555 1_555
H1 B1 1_555 1_555
H2 B2 1_555 1_555
H3 B3 1_555 1_555
H4 B4 1_555 1_555
H5 B5 1_555 1_555
H6 B6 1_555 1_555
H7 B7 1_555 1_555
H8 B8 1_555 1_555
H9 C5 1_555 1_555
H10 C5 1_555 1_555
H11 C5 1_555 1_555
H12 C6 1_555 1_555
H13 C6 1_555 1_555
H14 C6 1_555 1_555
H15 C7 1_555 1_555
H16 C7 1_555 1_555
H17 C7 1_555 1_555
H18 C8 1_555 1_555
H19 C8 1_555 1_555
H20 C8 1_555 1_555
H21 C9 1_555 1_555
H22 C9 1_555 1_555
H23 C9 1_555 1_555
H24 C10 1_555 1_555
H25 C10 1_555 1_555
H26 C10 1_555 1_555
H27 C11 1_555 1_555
H28 C11 1_555 1_555
H29 C11 1_555 1_555
H30 C12 1_555 1_555
H31 C12 1_555 1_555
H32 C12 1_555 1_555
H33 C13 1_555 1_555
H34 C13 1_555 1_555
H35 C13 1_555 1_555
H36 C14 1_555 1_555
H37 C14 1_555 1_555
H38 C14 1_555 1_555
H39 C15 1_555 1_555
H40 C15 1_555 1_555
H41 C15 1_555 1_555
H42 C16 1_555 1_555
H43 C16 1_555 1_555
H44 C16 1_555 1_555
H45 B9 1_555 1_555
H46 B10 1_555 1_555
H47 B11 1_555 1_555
H48 B12 1_555 1_555
H49 B13 1_555 1_555
H50 B14 1_555 1_555
H51 B15 1_555 1_555
H52 B16 1_555 1_555
H53 C21 1_555 1_555
H54 C21 1_555 1_555
H55 C21 1_555 1_555
H56 C22 1_555 1_555
H57 C22 1_555 1_555
H58 C22 1_555 1_555
H59 C23 1_555 1_555
H60 C23 1_555 1_555
H61 C23 1_555 1_555
H62 C24 1_555 1_555
H63 C24 1_555 1_555
H64 C24 1_555 1_555
H65 C25 1_555 1_555
H66 C25 1_555 1_555
H67 C25 1_555 1_555
H68 C26 1_555 1_555
H69 C26 1_555 1_555
H70 C26 1_555 1_555
H71 C27 1_555 1_555
H72 C27 1_555 1_555
H73 C27 1_555 1_555
H74 C28 1_555 1_555
H75 C28 1_555 1_555
H76 C28 1_555 1_555
H77 C29 1_555 1_555
H78 C29 1_555 1_555
H79 C29 1_555 1_555
H80 C30 1_555 1_555
H81 C30 1_555 1_555
H82 C30 1_555 1_555
H83 C31 1_555 1_555
H84 C31 1_555 1_555
H85 C31 1_555 1_555
H86 C32 1_555 1_555
H87 C32 1_555 1_555
H88 C32 1_555 1_555
H89 B17 1_555 1_555
H90 B18 1_555 1_555
H91 B19 1_555 1_555
H92 B20 1_555 1_555
H93 B21 1_555 1_555
H94 B22 1_555 1_555
H95 B23 1_555 1_555
H96 B24 1_555 1_555
H97 C37 1_555 1_555
H98 C37 1_555 1_555
H99 C37 1_555 1_555
H100 C38 1_555 1_555
H101 C38 1_555 1_555
H102 C38 1_555 1_555
H103 C39 1_555 1_555
H104 C39 1_555 1_555
H105 C39 1_555 1_555
H106 C40 1_555 1_555
H107 C40 1_555 1_555
H108 C40 1_555 1_555
H109 C41 1_555 1_555
H110 C41 1_555 1_555
H111 C41 1_555 1_555
H112 C42 1_555 1_555
H113 C42 1_555 1_555
H114 C42 1_555 1_555
H115 C43 1_555 1_555
H116 C43 1_555 1_555
H117 C43 1_555 1_555
H118 C44 1_555 1_555
H119 C44 1_555 1_555
H120 C44 1_555 1_555
H121 C45 1_555 1_555
H122 C45 1_555 1_555
H123 C45 1_555 1_555
H124 C46 1_555 1_555
H125 C46 1_555 1_555
H126 C46 1_555 1_555
H127 C47 1_555 1_555
H128 C47 1_555 1_555
H129 C47 1_555 1_555
H130 C48 1_555 1_555
H131 C48 1_555 1_555
H132 C48 1_555 1_555
H133 B25 1_555 1_555
H134 B26 1_555 1_555
H135 B27 1_555 1_555
H136 B28 1_555 1_555
H137 B29 1_555 1_555
H138 B30 1_555 1_555
H139 B31 1_555 1_555
H140 B32 1_555 1_555
H141 C53 1_555 1_555
H142 C53 1_555 1_555
H143 C53 1_555 1_555
H144 C54 1_555 1_555
H145 C54 1_555 1_555
H146 C54 1_555 1_555
H147 C55 1_555 1_555
H148 C55 1_555 1_555
H149 C55 1_555 1_555
H150 C56 1_555 1_555
H151 C56 1_555 1_555
H152 C56 1_555 1_555
H153 C57 1_555 1_555
H154 C57 1_555 1_555
H155 C57 1_555 1_555
H156 C58 1_555 1_555
H157 C58 1_555 1_555
H158 C58 1_555 1_555
H159 C59 1_555 1_555
H160 C59 1_555 1_555
H161 C59 1_555 1_555
H162 C60 1_555 1_555
H163 C60 1_555 1_555
H164 C60 1_555 1_555
H165 C61 1_555 1_555
H166 C61 1_555 1_555
H167 C61 1_555 1_555
H168 C62 1_555 1_555
H169 C62 1_555 1_555
H170 C62 1_555 1_555
H171 C63 1_555 1_555
H172 C63 1_555 1_555
H173 C63 1_555 1_555
H174 C64 1_555 1_555
H175 C64 1_555 1_555
H176 C64 1_555 1_555
H177 B33 1_555 1_555
H178 B34 1_555 1_555
H179 B35 1_555 1_555
H180 B36 1_555 1_555
H181 B37 1_555 1_555
H182 B38 1_555 1_555
H183 B39 1_555 1_555
H184 B40 1_555 1_555
H185 C69 1_555 1_555
H186 C69 1_555 1_555
H187 C69 1_555 1_555
H188 C70 1_555 1_555
H189 C70 1_555 1_555
H190 C70 1_555 1_555
H191 C71 1_555 1_555
H192 C71 1_555 1_555
H193 C71 1_555 1_555
H194 C72 1_555 1_555
H195 C72 1_555 1_555
H196 C72 1_555 1_555
H197 C73 1_555 1_555
H198 C73 1_555 1_555
H199 C73 1_555 1_555
H200 C74 1_555 1_555
H201 C74 1_555 1_555
H202 C74 1_555 1_555
H203 C75 1_555 1_555
H204 C75 1_555 1_555
H205 C75 1_555 1_555
H206 C76 1_555 1_555
H207 C76 1_555 1_555
H208 C76 1_555 1_555
H209 C77 1_555 1_555
H210 C77 1_555 1_555
H211 C77 1_555 1_555
H212 C78 1_555 1_555
H213 C78 1_555 1_555
H214 C78 1_555 1_555
H215 C79 1_555 1_555
H216 C79 1_555 1_555
H217 C79 1_555 1_555
H218 C80 1_555 1_555
H219 C80 1_555 1_555
H220 C80 1_555 1_555
H221 B41 1_555 1_555
H222 B42 1_555 1_555
H223 B43 1_555 1_555
H224 B44 1_555 1_555
H225 B45 1_555 1_555
H226 B46 1_555 1_555
H227 B47 1_555 1_555
H228 B48 1_555 1_555
H229 C85 1_555 1_555
H230 C85 1_555 1_555
H231 C85 1_555 1_555
H232 C86 1_555 1_555
H233 C86 1_555 1_555
H234 C86 1_555 1_555
H235 C87 1_555 1_555
H236 C87 1_555 1_555
H237 C87 1_555 1_555
H238 C88 1_555 1_555
H239 C88 1_555 1_555
H240 C88 1_555 1_555
H241 C89 1_555 1_555
H242 C89 1_555 1_555
H243 C89 1_555 1_555
H244 C90 1_555 1_555
H245 C90 1_555 1_555
H246 C90 1_555 1_555
H247 C91 1_555 1_555
H248 C91 1_555 1_555
H249 C91 1_555 1_555
H250 C92 1_555 1_555
H251 C92 1_555 1_555
H252 C92 1_555 1_555
H253 C93 1_555 1_555
H254 C93 1_555 1_555
H255 C93 1_555 1_555
H256 C94 1_555 1_555
H257 C94 1_555 1_555
H258 C94 1_555 1_555
H259 C95 1_555 1_555
H260 C95 1_555 1_555
H261 C95 1_555 1_555
H262 C96 1_555 1_555
H263 C96 1_555 1_555
H264 C96 1_555 1_555
C2 B2 1_555 1_555
C3 B5 1_555 1_555
C4 B6 1_555 1_555
C4 B8 1_555 1_555
C4 B7 1_555 1_555
B1 B5 1_555 1_555
B2 B6 1_555 1_555
B2 B3 1_555 1_555
B3 B4 1_555 1_555
B3 B8 1_555 1_555
B4 B8 1_555 1_555
B5 B6 1_555 1_555
B5 B7 1_555 1_555
B6 B7 1_555 1_555
B7 B8 1_555 1_555
C18 B10 1_555 1_555
C19 B13 1_555 1_555
C20 B14 1_555 1_555
C20 B16 1_555 1_555
C20 B15 1_555 1_555
B9 B13 1_555 1_555
B10 B14 1_555 1_555
B11 B16 1_555 1_555
B11 B12 1_555 1_555
B12 B16 1_555 1_555
B13 B14 1_555 1_555
B13 B15 1_555 1_555
B14 B15 1_555 1_555
B15 B16 1_555 1_555
C35 B21 1_555 1_555
C35 B24 1_555 1_555
C36 B22 1_555 1_555
C36 B23 1_555 1_555
B17 B20 1_555 1_555
B18 B19 1_555 1_555
B19 B24 1_555 1_555
B20 B24 1_555 1_555
B21 B23 1_555 1_555
B21 B22 1_555 1_555
B22 B23 1_555 1_555
C50 B26 1_555 1_555
C51 B29 1_555 1_555
C52 B30 1_555 1_555
C52 B31 1_555 1_555
C52 B32 1_555 1_555
B26 B30 1_555 1_555
B26 B27 1_555 1_555
B27 B28 1_555 1_555
B27 B32 1_555 1_555
B28 B32 1_555 1_555
B29 B31 1_555 1_555
B29 B30 1_555 1_555
B30 B31 1_555 1_555
B31 B32 1_555 1_555
C66 B34 1_555 1_555
C67 B37 1_555 1_555
C68 B38 1_555 1_555
C68 B39 1_555 1_555
C68 B40 1_555 1_555
B33 B37 1_555 1_555
B33 B36 1_555 1_555
B34 B35 1_555 1_555
B35 B36 1_555 1_555
B35 B40 1_555 1_555
B36 B40 1_555 1_555
B37 B38 1_555 1_555
B37 B39 1_555 1_555
B38 B39 1_555 1_555
B39 B40 1_555 1_555
C82 B42 1_555 1_555
C83 B45 1_555 1_555
C84 B46 1_555 1_555
C84 B48 1_555 1_555
C84 B47 1_555 1_555
B41 B45 1_555 1_555
B42 B46 1_555 1_555
B42 B43 1_555 1_555
B43 B48 1_555 1_555
B43 B44 1_555 1_555
B44 B48 1_555 1_555
B45 B46 1_555 1_555
B45 B47 1_555 1_555
B46 B47 1_555 1_555
B47 B48 1_555 1_555

#END
