
#######################################################################
#
#                 Cambridge Crystallographic Data Centre
#                                CCDC 
#
#######################################################################
#
# If this CIF has been generated from an entry in the Cambridge 
# Structural Database, then it will include bibliographic, chemical, 
# crystal, experimental, refinement or atomic coordinate data resulting 
# from the CCDC's data processing and validation procedures.
#
#######################################################################

data_HIZBEZ
_chemical_formula_moiety         'C24 H18 F3 N1 O4 S1 Si1'
_chemical_name_systematic        
10,10-Dimethyl-5-((2-(trifluoromethyl)phenyl)sulfonyl)-5,10-dihydro[1]benzosilolo[3,2-b][1,3]dioxolo[4,5-f]indole
_symmetry_cell_setting           tetragonal
_symmetry_space_group_name_H-M   'P 42/n'
_symmetry_Int_Tables_number      86
_space_group_name_Hall           '-P 4bc'
loop_
_symmetry_equiv_pos_site_id
_symmetry_equiv_pos_as_xyz
1 x,y,z
2 -y,1/2+x,1/2+z
3 1/2-x,1/2-y,z
4 1/2+y,-x,1/2+z
5 -x,-y,-z
6 y,1/2-x,1/2-z
7 1/2+x,1/2+y,-z
8 1/2-y,x,1/2-z
_cell_length_a                   23.3156(3)
_cell_length_b                   23.3156(3)
_cell_length_c                   8.6573(2)
_cell_angle_alpha                90
_cell_angle_beta                 90
_cell_angle_gamma                90
_cell_volume                     4706.26
_cell_formula_units_Z            8
loop_
_atom_site_label
_atom_site_type_symbol
_atom_site_fract_x
_atom_site_fract_y
_atom_site_fract_z
S1 S 0.95237(6) 0.36622(6) 0.22403(15)
Si1 Si 1.11353(6) 0.37075(6) -0.22484(16)
O1 O 0.91214(16) 0.53399(17) -0.3957(5)
O2 O 0.85632(16) 0.53525(17) -0.1720(5)
F1 F 0.97575(16) 0.25561(15) 0.4969(4)
N1 N 0.98766(17) 0.39415(17) 0.0750(5)
O3 O 0.90025(16) 0.39706(18) 0.2399(4)
C1 C 0.9621(2) 0.4328(2) -0.0355(6)
O4 O 0.99063(17) 0.36382(16) 0.3512(4)
F2 F 0.89693(16) 0.30398(15) 0.4831(4)
C2 C 1.1717(2) 0.2507(2) 0.1070(6)
H1 H 1.2010 0.2243 0.1224
C3 C 1.0822(2) 0.3294(2) 0.0598(6)
C4 C 1.1283(2) 0.2565(2) 0.2147(6)
H2 H 1.1290 0.2343 0.3039
F3 F 0.89431(18) 0.21234(16) 0.5018(5)
C5 C 1.0395(2) 0.3713(2) 0.0064(6)
C6 C 0.9354(2) 0.2856(3) 0.0008(6)
H3 H 0.9420 0.3158 -0.0669
C7 C 0.9368(2) 0.2952(2) 0.1592(6)
C8 C 1.1711(2) 0.2853(2) -0.0261(6)
H4 H 1.2005 0.2819 -0.0980
C9 C 1.1272(2) 0.3245(2) -0.0519(6)
C10 C 1.0461(2) 0.3961(2) -0.1368(6)
C11 C 0.9358(2) 0.4988(2) -0.2837(6)
C12 C 1.1674(2) 0.4286(2) -0.2537(7)
H5 H 1.1766 0.4457 -0.1559
H6 H 1.1520 0.4573 -0.3214
H7 H 1.2015 0.4127 -0.2987
C13 C 0.9242(2) 0.2498(3) 0.2615(7)
C14 C 0.9135(2) 0.4673(2) -0.0239(6)
H8 H 0.8904 0.4685 0.0638
C15 C 1.0833(2) 0.2951(2) 0.1915(6)
H9 H 1.0541 0.2979 0.2641
C16 C 0.9027(2) 0.4989(2) -0.1516(7)
C17 C 1.1026(2) 0.3277(2) -0.4019(6)
H10 H 1.1390 0.3148 -0.4401
H11 H 1.0841 0.3508 -0.4790
H12 H 1.0790 0.2951 -0.3785
C18 C 0.9978(2) 0.4330(2) -0.1653(6)
C19 C 0.9850(2) 0.4671(2) -0.2968(6)
H13 H 1.0081 0.4678 -0.3845
C20 C 0.8628(2) 0.5589(2) -0.3239(6)
H14 H 0.8289 0.5509 -0.3851
H15 H 0.8674 0.6002 -0.3174
C21 C 0.9230(3) 0.2554(3) 0.4342(7)
C22 C 0.9118(2) 0.1965(3) 0.1996(7)
H16 H 0.9029 0.1665 0.2661
C23 C 0.9242(2) 0.2315(3) -0.0572(7)
H17 H 0.9248 0.2251 -0.1632
C24 C 0.9122(3) 0.1866(3) 0.0434(8)
H18 H 0.9044 0.1502 0.0051
loop_
_geom_bond_atom_site_label_1
_geom_bond_atom_site_label_2
_geom_bond_site_symmetry_1
_geom_bond_site_symmetry_2
S1 N1 1_555 1_555
Si1 C9 1_555 1_555
O1 C11 1_555 1_555
O2 C16 1_555 1_555
F1 C21 1_555 1_555
N1 C1 1_555 1_555
O3 S1 1_555 1_555
C1 C14 1_555 1_555
O4 S1 1_555 1_555
F2 C21 1_555 1_555
C2 H1 1_555 1_555
C3 C5 1_555 1_555
C4 C2 1_555 1_555
H2 C4 1_555 1_555
F3 C21 1_555 1_555
C5 N1 1_555 1_555
C6 H3 1_555 1_555
C7 S1 1_555 1_555
C8 C2 1_555 1_555
H4 C8 1_555 1_555
C9 C3 1_555 1_555
C10 Si1 1_555 1_555
C11 C16 1_555 1_555
C12 Si1 1_555 1_555
H5 C12 1_555 1_555
H6 C12 1_555 1_555
H7 C12 1_555 1_555
C13 C7 1_555 1_555
C14 H8 1_555 1_555
C15 C3 1_555 1_555
H9 C15 1_555 1_555
C16 C14 1_555 1_555
C17 Si1 1_555 1_555
H10 C17 1_555 1_555
H11 C17 1_555 1_555
H12 C17 1_555 1_555
C18 C1 1_555 1_555
C19 C11 1_555 1_555
H13 C19 1_555 1_555
C20 O1 1_555 1_555
H14 C20 1_555 1_555
H15 C20 1_555 1_555
C21 C13 1_555 1_555
C22 C13 1_555 1_555
H16 C22 1_555 1_555
C23 C6 1_555 1_555
H17 C23 1_555 1_555
C24 C22 1_555 1_555
H18 C24 1_555 1_555
O2 C20 1_555 1_555
C4 C15 1_555 1_555
C5 C10 1_555 1_555
C6 C7 1_555 1_555
C8 C9 1_555 1_555
C10 C18 1_555 1_555
C18 C19 1_555 1_555
C23 C24 1_555 1_555

#END
