
#######################################################################
#
#                 Cambridge Crystallographic Data Centre
#                                CCDC 
#
#######################################################################
#
# If this CIF has been generated from an entry in the Cambridge 
# Structural Database, then it will include bibliographic, chemical, 
# crystal, experimental, refinement or atomic coordinate data resulting 
# from the CCDC's data processing and validation procedures.
#
#######################################################################

data_HIZFIG
_chemical_formula_moiety         'C16 H11 N1 O1'
_chemical_name_systematic        
6-(6-(Buta-1,3-diynyl)pyridin-3-yl)-2-methylhexa-3,5-diyn-2-ol
_symmetry_cell_setting           triclinic
_symmetry_space_group_name_H-M   'P -1'
_symmetry_Int_Tables_number      2
_space_group_name_Hall           '-P 1'
loop_
_symmetry_equiv_pos_site_id
_symmetry_equiv_pos_as_xyz
1 x,y,z
2 -x,-y,-z
_cell_length_a                   5.7609(7)
_cell_length_b                   9.0756(10)
_cell_length_c                   12.6163(14)
_cell_angle_alpha                87.79(1)
_cell_angle_beta                 77.87(1)
_cell_angle_gamma                77.99(1)
_cell_volume                     630.773
_exptl_crystal_colour            off-white
_exptl_crystal_description       blade
_cell_formula_units_Z            2
_exptl_crystal_recrystallization_method deuterochloroform
loop_
_atom_site_label
_atom_site_type_symbol
_atom_site_fract_x
_atom_site_fract_y
_atom_site_fract_z
O1 O 0.40890(16) 0.33716(9) 0.25495(7)
H1 H 0.542(3) 0.271(2) 0.2769(14)
N1 N 1.18119(18) 0.84130(11) 0.67156(8)
C1 C 1.0411(2) 0.96719(13) 0.72327(9)
C2 C 0.8176(2) 1.03413(13) 0.69904(10)
H2 H 0.719(3) 1.1287(17) 0.7379(12)
C3 C 0.7332(2) 0.96912(13) 0.62171(10)
H3 H 0.581(3) 1.0131(17) 0.6040(12)
C4 C 0.8736(2) 0.83775(12) 0.56937(9)
C5 C 1.0976(2) 0.77951(13) 0.59696(9)
H4 H 1.199(3) 0.6867(16) 0.5615(11)
C6 C 1.1290(2) 1.02854(13) 0.80664(10)
C7 C 1.1874(2) 1.08108(13) 0.88073(10)
C8 C 1.2497(2) 1.13794(13) 0.96813(10)
C9 C 1.3011(2) 1.18397(14) 1.04575(11)
H5 H 1.338(3) 1.2192(18) 1.1076(13)
C10 C 0.7895(2) 0.76129(13) 0.49287(9)
C11 C 0.7139(2) 0.69436(13) 0.43106(9)
C12 C 0.6278(2) 0.61860(13) 0.36029(9)
C13 C 0.5565(2) 0.55154(13) 0.29743(9)
C14 C 0.4828(2) 0.47274(13) 0.21312(9)
C15 C 0.6975(2) 0.43614(15) 0.11757(10)
H6 H 0.750(3) 0.5292(17) 0.0862(12)
H7 H 0.649(3) 0.3812(18) 0.0612(13)
H8 H 0.832(3) 0.3711(18) 0.1413(12)
C16 C 0.2622(2) 0.57140(15) 0.17963(11)
H9 H 0.206(3) 0.5153(17) 0.1250(12)
H10 H 0.301(3) 0.6641(17) 0.1455(12)
H11 H 0.128(3) 0.5960(17) 0.2430(13)
loop_
_geom_bond_atom_site_label_1
_geom_bond_atom_site_label_2
_geom_bond_site_symmetry_1
_geom_bond_site_symmetry_2
O1 H1 1_555 1_555
N1 C1 1_555 1_555
C1 C2 1_555 1_555
C2 H2 1_555 1_555
C3 C2 1_555 1_555
H3 C3 1_555 1_555
C4 C3 1_555 1_555
C5 N1 1_555 1_555
H4 C5 1_555 1_555
C6 C1 1_555 1_555
C7 C6 1_555 1_555
C8 C7 1_555 1_555
C9 C8 1_555 1_555
H5 C9 1_555 1_555
C10 C4 1_555 1_555
C11 C10 1_555 1_555
C12 C11 1_555 1_555
C13 C12 1_555 1_555
C14 O1 1_555 1_555
C15 C14 1_555 1_555
H6 C15 1_555 1_555
H7 C15 1_555 1_555
H8 C15 1_555 1_555
C16 C14 1_555 1_555
H9 C16 1_555 1_555
H10 C16 1_555 1_555
H11 C16 1_555 1_555
C4 C5 1_555 1_555
C13 C14 1_555 1_555

#END
