
#######################################################################
#
#                 Cambridge Crystallographic Data Centre
#                                CCDC 
#
#######################################################################
#
# If this CIF has been generated from an entry in the Cambridge 
# Structural Database, then it will include bibliographic, chemical, 
# crystal, experimental, refinement or atomic coordinate data resulting 
# from the CCDC's data processing and validation procedures.
#
#######################################################################

data_HIZZAR
_chemical_formula_moiety         'C2 H14 B12 O4,4(H2 O1)'
_chemical_name_systematic        
'1,12-bis(Dihydroxycarbene)dodecaborane tetrahydrate'
_symmetry_cell_setting           monoclinic
_symmetry_space_group_name_H-M   'C 2/c'
_symmetry_Int_Tables_number      15
_space_group_name_Hall           '-C 2yn'
loop_
_symmetry_equiv_pos_site_id
_symmetry_equiv_pos_as_xyz
1 x,y,z
2 -x,y,1/2-z
3 1/2+x,1/2+y,z
4 1/2-x,1/2+y,1/2-z
5 -x,-y,-z
6 x,-y,1/2+z
7 1/2-x,1/2-y,-z
8 1/2+x,1/2-y,1/2+z
_cell_length_a                   13.6298(7)
_cell_length_b                   7.3018(4)
_cell_length_c                   15.9244(10)
_cell_angle_alpha                90
_cell_angle_beta                 105.720(2)
_cell_angle_gamma                90
_cell_volume                     1525.55
_exptl_crystal_colour            colorless
_exptl_crystal_description       block
_cell_formula_units_Z            4
loop_
_atom_site_label
_atom_site_type_symbol
_atom_site_fract_x
_atom_site_fract_y
_atom_site_fract_z
O1 O 0.84476(6) 0.28322(10) 0.66633(5)
O2 O 0.94518(6) 0.07134(10) 0.64220(5)
C1 C 0.91274(7) 0.23695(13) 0.62769(6)
B1 B 0.95628(8) 0.36615(15) 0.56598(7)
B2 B 0.87372(8) 0.52520(15) 0.49578(7)
B3 B 0.97319(8) 0.60452(15) 0.58705(7)
B4 B 1.08224(8) 0.45575(15) 0.59971(7)
B5 B 1.04969(8) 0.28393(15) 0.51580(7)
B6 B 0.92141(8) 0.32603(15) 0.45188(7)
H1 H 0.821(1) 0.394(3) 0.657(1)
H2 H 0.914(1) 0.017(3) 0.674(1)
H3 H 0.793(1) 0.538(2) 0.493(1)
H4 H 0.956(1) 0.670(2) 0.643(1)
H5 H 1.132(1) 0.429(2) 0.663(1)
H6 H 1.079(1) 0.143(2) 0.525(1)
H7 H 0.871(1) 0.213(2) 0.423(1)
B2D B 1.12628(8) 0.47480(15) 0.50422(7)
B1D B 1.04372(8) 0.63385(15) 0.43402(7)
C1D C 1.08726(7) 0.76305(13) 0.37231(6)
O1D O 1.15524(6) 0.71678(10) 0.33367(5)
H1D H 1.179(1) 0.606(3) 0.343(1)
O2D O 1.05482(6) 0.92866(10) 0.35780(5)
H2D H 1.086(1) 0.983(3) 0.326(1)
B3D B 1.02681(8) 0.39548(15) 0.41295(7)
B4D B 0.91776(8) 0.54425(15) 0.40029(7)
B5D B 0.95031(8) 0.71607(15) 0.48420(7)
B6D B 1.07859(8) 0.67397(15) 0.54812(7)
H3D H 1.207(1) 0.462(2) 0.507(1)
H7D H 1.129(1) 0.787(2) 0.577(1)
H6D H 0.921(1) 0.857(2) 0.475(1)
H4D H 1.044(1) 0.330(2) 0.357(1)
H5D H 0.868(1) 0.571(2) 0.337(1)
O3 O 0.86227(6) -0.11503(10) 0.74701(5)
H8 H 0.904(1) -0.163(2) 0.790(1)
H9 H 0.826(1) -0.046(2) 0.771(1)
O4 O 0.75003(6) 0.58664(10) 0.66401(5)
H10 H 0.709(1) 0.619(2) 0.617(1)
H11 H 0.781(1) 0.677(3) 0.688(1)
loop_
_geom_bond_atom_site_label_1
_geom_bond_atom_site_label_2
_geom_bond_site_symmetry_1
_geom_bond_site_symmetry_2
O1 C1 1_555 1_555
O2 C1 1_555 1_555
C1 B1 1_555 1_555
B1 B2 1_555 1_555
B2 B3 1_555 1_555
B3 B1 1_555 1_555
B4 B1 1_555 1_555
B5 B1 1_555 1_555
B6 B1 1_555 1_555
O3 H8 1_555 1_555
O4 H10 1_555 1_555
H1 O1 1_555 1_555
H2 O2 1_555 1_555
H3 B2 1_555 1_555
H4 B3 1_555 1_555
H5 B4 1_555 1_555
H6 B5 1_555 1_555
H7 B6 1_555 1_555
H9 O3 1_555 1_555
H11 O4 1_555 1_555
B2D B4 1_555 1_555
B1D B2D 1_555 1_555
C1D B1D 1_555 1_555
O1D C1D 1_555 1_555
H1D O1D 1_555 1_555
O2D C1D 1_555 1_555
H2D O2D 1_555 1_555
B3D B5 1_555 1_555
B4D B2 1_555 1_555
B5D B2 1_555 1_555
B6D B3 1_555 1_555
H3D B2D 1_555 1_555
H7D B6D 1_555 1_555
H6D B5D 1_555 1_555
H4D B3D 1_555 1_555
H5D B4D 1_555 1_555
B2 B6 1_555 1_555
B3 B5D 1_555 1_555
B3 B4 1_555 1_555
B4 B5 1_555 1_555
B4 B6D 1_555 1_555
B5 B2D 1_555 1_555
B5 B6 1_555 1_555
B6 B4D 1_555 1_555
B6 B3D 1_555 1_555
B2D B3D 1_555 1_555
B2D B6D 1_555 1_555
B1D B3D 1_555 1_555
B1D B5D 1_555 1_555
B1D B4D 1_555 1_555
B1D B6D 1_555 1_555
B3D B4D 1_555 1_555
B4D B5D 1_555 1_555
B5D B6D 1_555 1_555

#END
