
#######################################################################
#
#                 Cambridge Crystallographic Data Centre
#                                CCDC 
#
#######################################################################
#
# If this CIF has been generated from an entry in the Cambridge 
# Structural Database, then it will include bibliographic, chemical, 
# crystal, experimental, refinement or atomic coordinate data resulting 
# from the CCDC's data processing and validation procedures.
#
#######################################################################

data_HMDNOB
_chemical_formula_moiety         'C13 H18 O3'
_chemical_name_systematic        
exo-1,3,5,6,7,9-Hexamethyl-4,8-dioxatetracyclo(4.3.0.0^3,5^.0^7,9^)nonan-2-one
_symmetry_cell_setting           orthorhombic
_symmetry_space_group_name_H-M   'P 21 21 21'
_symmetry_Int_Tables_number      19
_space_group_name_Hall           'P 2ac 2ab'
loop_
_symmetry_equiv_pos_site_id
_symmetry_equiv_pos_as_xyz
1 x,y,z
2 1/2+x,1/2-y,-z
3 -x,1/2+y,1/2-z
4 1/2-x,-y,1/2+z
_cell_length_a                   13.125(6)
_cell_length_b                   11.571(9)
_cell_length_c                   8.206(4)
_cell_angle_alpha                90
_cell_angle_beta                 90
_cell_angle_gamma                90
_cell_volume                     1246.24
_chemical_melting_point          73deg.C
_cell_formula_units_Z            4
loop_
_atom_site_label
_atom_site_type_symbol
_atom_site_fract_x
_atom_site_fract_y
_atom_site_fract_z
C1 C 0.31790 0.19890 0.76090
C2 C 0.24090 0.29290 0.79250
C3 C 0.27960 0.37080 0.92260
O1 O 0.28960 0.30090 1.07070
C4 C 0.37930 0.32790 0.97510
C5 C 0.41000 0.22250 0.87650
C6 C 0.47470 0.25220 0.72610
O2 O 0.42340 0.34830 0.64780
C7 C 0.38830 0.23090 0.61700
C8 C 0.27270 0.07930 0.75000
O3 O 0.16040 0.30410 0.72330
C9 C 0.23860 0.48980 0.93950
C10 C 0.45780 0.40180 1.05500
C11 C 0.44800 0.12330 0.97970
C12 C 0.58660 0.24250 0.70500
C13 C 0.38190 0.19320 0.44360
H1 H 0.22000 0.07600 0.67000
H2 H 0.24500 0.05700 0.85100
H3 H 0.31900 0.02100 0.72200
H4 H 0.16400 0.48700 0.96100
H5 H 0.23700 0.52800 0.84100
H6 H 0.27300 0.53100 1.01400
H7 H 0.42600 0.46300 1.12800
H8 H 0.50000 0.43600 0.97800
H9 H 0.50300 0.35900 1.12500
H10 H 0.47100 0.05600 0.91400
H11 H 0.39400 0.09600 1.06300
H12 H 0.51000 0.14400 1.02600
H13 H 0.60300 0.16900 0.73900
H14 H 0.62000 0.29100 0.77600
H15 H 0.60700 0.24500 0.59500
H16 H 0.33100 0.22800 0.39700
H17 H 0.38000 0.10300 0.43400
H18 H 0.44200 0.21200 0.38500
loop_
_geom_bond_atom_site_label_1
_geom_bond_atom_site_label_2
_geom_bond_site_symmetry_1
_geom_bond_site_symmetry_2
C1 C2 1_555 1_555
C2 C3 1_555 1_555
C3 O1 1_555 1_555
O1 C4 1_555 1_555
C4 C3 1_555 1_555
C5 C1 1_555 1_555
C6 C5 1_555 1_555
O2 C6 1_555 1_555
C7 C1 1_555 1_555
C8 C1 1_555 1_555
O3 C2 1_555 1_555
C9 C3 1_555 1_555
C10 C4 1_555 1_555
C11 C5 1_555 1_555
C12 C6 1_555 1_555
C13 C7 1_555 1_555
H1 C8 1_555 1_555
H2 C8 1_555 1_555
H3 C8 1_555 1_555
H4 C9 1_555 1_555
H5 C9 1_555 1_555
H6 C9 1_555 1_555
H7 C10 1_555 1_555
H8 C10 1_555 1_555
H9 C10 1_555 1_555
H10 C11 1_555 1_555
H11 C11 1_555 1_555
H12 C11 1_555 1_555
H13 C12 1_555 1_555
H14 C12 1_555 1_555
H15 C12 1_555 1_555
H16 C13 1_555 1_555
H17 C13 1_555 1_555
H18 C13 1_555 1_555
C4 C5 1_555 1_555
C6 C7 1_555 1_555
O2 C7 1_555 1_555

#END
