
#######################################################################
#
#                 Cambridge Crystallographic Data Centre
#                                CCDC 
#
#######################################################################
#
# If this CIF has been generated from an entry in the Cambridge 
# Structural Database, then it will include bibliographic, chemical, 
# crystal, experimental, refinement or atomic coordinate data resulting 
# from the CCDC's data processing and validation procedures.
#
#######################################################################

data_HMENAM
_chemical_formula_moiety         'C12 H30 N2 2+,2(H2 O1),2(Br1 1-)'
_chemical_name_systematic        
'Hexamethylene di(trimethylammonium) dibromide dihydrate'
_symmetry_cell_setting           monoclinic
_symmetry_space_group_name_H-M   'P 21/c'
_symmetry_Int_Tables_number      14
_space_group_name_Hall           '-P 2ybc'
loop_
_symmetry_equiv_pos_site_id
_symmetry_equiv_pos_as_xyz
1 x,y,z
2 -x,1/2+y,1/2-z
3 -x,-y,-z
4 x,1/2-y,1/2+z
_cell_length_a                   7.410
_cell_length_b                   18.400
_cell_length_c                   7.200
_cell_angle_alpha                90
_cell_angle_beta                 109.0
_cell_angle_gamma                90
_cell_volume                     928.194
_cell_formula_units_Z            2
loop_
_atom_site_label
_atom_site_type_symbol
_atom_site_fract_x
_atom_site_fract_y
_atom_site_fract_z
Br1 Br 0.31820 0.36770 0.16570
C1 C -0.05520 0.03630 -0.00420
C2 C -0.11670 0.04960 0.16910
C3 C -0.22930 0.11730 0.14640
C4 C -0.42320 0.20120 0.27050
C5 C -0.51050 0.07190 0.23480
C6 C -0.22850 0.11180 0.49190
N1 N -0.35000 0.12330 0.28080
C1B C 0.05520 -0.03630 0.00420
C2B C 0.11670 -0.04960 -0.16910
C3B C 0.22930 -0.11730 -0.14640
N1B N 0.35000 -0.12330 -0.28080
C4B C 0.42320 -0.20120 -0.27050
C5B C 0.51050 -0.07190 -0.23480
C6B C 0.22850 -0.11180 -0.49190
O1 O 0.05450 0.27230 0.40100
loop_
_geom_bond_atom_site_label_1
_geom_bond_atom_site_label_2
_geom_bond_site_symmetry_1
_geom_bond_site_symmetry_2
C1 C2 1_555 1_555
C2 C3 1_555 1_555
C3 N1 1_555 1_555
C4 N1 1_555 1_555
C5 N1 1_555 1_555
C6 N1 1_555 1_555
C1B C1 1_555 1_555
C2B C1B 1_555 1_555
C3B C2B 1_555 1_555
N1B C3B 1_555 1_555
C4B N1B 1_555 1_555
C5B N1B 1_555 1_555
C6B N1B 1_555 1_555

#END
