
#######################################################################
#
#                 Cambridge Crystallographic Data Centre
#                                CCDC 
#
#######################################################################
#
# If this CIF has been generated from an entry in the Cambridge 
# Structural Database, then it will include bibliographic, chemical, 
# crystal, experimental, refinement or atomic coordinate data resulting 
# from the CCDC's data processing and validation procedures.
#
#######################################################################

data_HMNCXC
_chemical_formula_moiety         'C14 H16 O3'
_chemical_name_systematic        
'1,2,3,4,4a,5,6,7,8,8a-Decahydro-1,4:5,8-exo,exo-dimethano-naphthalene-4a,8a-dicarboxylic anhydride'
_symmetry_cell_setting           orthorhombic
_symmetry_space_group_name_H-M   'P 21 21 21'
_symmetry_Int_Tables_number      19
_space_group_name_Hall           'P 2ac 2ab'
loop_
_symmetry_equiv_pos_site_id
_symmetry_equiv_pos_as_xyz
1 x,y,z
2 1/2+x,1/2-y,-z
3 -x,1/2+y,1/2-z
4 1/2-x,-y,1/2+z
_cell_length_a                   11.870(5)
_cell_length_b                   12.779(6)
_cell_length_c                   7.409(3)
_cell_angle_alpha                90
_cell_angle_beta                 90
_cell_angle_gamma                90
_cell_volume                     1123.85
_chemical_melting_point          185-6deg.C
_cell_formula_units_Z            4
loop_
_atom_site_label
_atom_site_type_symbol
_atom_site_fract_x
_atom_site_fract_y
_atom_site_fract_z
C1 C 0.09050 0.00140 0.62320
C2 C 0.17540 0.04950 0.48930
C3 C 0.10090 0.08750 0.33060
C4 C -0.01970 0.05840 0.39220
C5 C -0.05220 0.13150 0.55110
C6 C -0.17510 0.12680 0.62990
C7 C -0.18680 0.21130 0.78020
C8 C -0.11470 0.16900 0.93550
C9 C -0.06540 0.06650 0.86020
C10 C 0.02070 0.09160 0.70920
C11 C -0.17090 0.02890 0.75190
C12 C 0.00770 -0.04560 0.48620
C13 C 0.09580 0.18510 0.75840
C14 C -0.01630 0.24450 0.52140
O1 O 0.06960 0.26770 0.64570
O2 O 0.16410 0.19330 0.87130
O3 O -0.04830 0.30640 0.41990
loop_
_geom_bond_atom_site_label_1
_geom_bond_atom_site_label_2
_geom_bond_site_symmetry_1
_geom_bond_site_symmetry_2
C1 C2 1_555 1_555
C2 C3 1_555 1_555
C3 C4 1_555 1_555
C4 C5 1_555 1_555
C5 C6 1_555 1_555
C6 C7 1_555 1_555
C7 C8 1_555 1_555
C8 C9 1_555 1_555
C9 C10 1_555 1_555
C10 C1 1_555 1_555
C11 C6 1_555 1_555
C12 C1 1_555 1_555
C13 C10 1_555 1_555
C14 C5 1_555 1_555
O1 C13 1_555 1_555
O2 C13 1_555 1_555
O3 C14 1_555 1_555
C4 C12 1_555 1_555
C5 C10 1_555 1_555
C9 C11 1_555 1_555
C14 O1 1_555 1_555

#END
