
#######################################################################
#
#                 Cambridge Crystallographic Data Centre
#                                CCDC 
#
#######################################################################
#
# If this CIF has been generated from an entry in the Cambridge 
# Structural Database, then it will include bibliographic, chemical, 
# crystal, experimental, refinement or atomic coordinate data resulting 
# from the CCDC's data processing and validation procedures.
#
#######################################################################

data_HMPBZC
_chemical_formula_moiety         'C19 H28 N1 1+,Cl1 1-,H2 O1'
_chemical_name_systematic        
'DL-1,2,3,4,5,6-Hexahydro-6,11,12,12-tetramethyl-2,6-methano-3,11-propano-3-benzazocine hydrochloride monohydrate'
_symmetry_cell_setting           monoclinic
_symmetry_space_group_name_H-M   'P 21/c'
_symmetry_Int_Tables_number      14
_space_group_name_Hall           '-P 2ybc'
loop_
_symmetry_equiv_pos_site_id
_symmetry_equiv_pos_as_xyz
1 x,y,z
2 -x,1/2+y,1/2-z
3 -x,-y,-z
4 x,1/2-y,1/2+z
_cell_length_a                   14.30(8)
_cell_length_b                   15.74(9)
_cell_length_c                   7.79(6)
_cell_angle_alpha                90
_cell_angle_beta                 98.97(75)
_cell_angle_gamma                90
_cell_volume                     1731.95
_cell_formula_units_Z            4
loop_
_atom_site_label
_atom_site_type_symbol
_atom_site_fract_x
_atom_site_fract_y
_atom_site_fract_z
Cl1 Cl -0.46080 -0.12980 0.29590
C1 C 0.15570 -0.08600 0.42890
C2 C 0.15030 -0.02480 0.27580
C3 C 0.17530 -0.07570 0.12180
C4 C 0.27950 -0.10510 0.14600
C5 C 0.37170 0.02290 0.07420
C6 C 0.04540 0.00570 0.23440
C7 C 0.28570 0.07780 0.02160
C8 C 0.23830 0.11430 0.17540
C9 C 0.19970 0.09300 0.48160
C10 C 0.14470 0.15810 0.09100
C11 C 0.30560 0.18440 0.25340
C12 C 0.07540 -0.13320 0.45570
C13 C 0.07950 -0.19020 0.59110
C14 C 0.16530 -0.20100 0.70000
C15 C 0.24760 -0.15640 0.67220
C16 C 0.24170 -0.09890 0.53700
C17 C 0.33190 -0.05090 0.52020
C18 C 0.32510 0.00680 0.36620
C19 C 0.22480 0.04740 0.31920
N1 N 0.35120 -0.03870 0.20870
O1 O 0.45570 -0.30560 0.42380
loop_
_geom_bond_atom_site_label_1
_geom_bond_atom_site_label_2
_geom_bond_site_symmetry_1
_geom_bond_site_symmetry_2
C1 C2 1_555 1_555
C2 C3 1_555 1_555
C3 C4 1_555 1_555
C4 N1 1_555 1_555
C5 C7 1_555 1_555
C6 C2 1_555 1_555
C7 C8 1_555 1_555
C8 C10 1_555 1_555
C9 C19 1_555 1_555
C11 C8 1_555 1_555
C12 C1 1_555 1_555
C13 C12 1_555 1_555
C14 C13 1_555 1_555
C15 C14 1_555 1_555
C16 C1 1_555 1_555
C17 C16 1_555 1_555
C18 C17 1_555 1_555
C19 C2 1_555 1_555
N1 C5 1_555 1_555
C8 C19 1_555 1_555
C15 C16 1_555 1_555
C18 C19 1_555 1_555
C18 N1 1_555 1_555

#END
