
#######################################################################
#
#                 Cambridge Crystallographic Data Centre
#                                CCDC 
#
#######################################################################
#
# If this CIF has been generated from an entry in the Cambridge 
# Structural Database, then it will include bibliographic, chemical, 
# crystal, experimental, refinement or atomic coordinate data resulting 
# from the CCDC's data processing and validation procedures.
#
#######################################################################

data_HMPCLA
_chemical_formula_moiety         'C19 H30 O2'
_chemical_name_systematic        
'8\b-Hydroxymethyl-podocarpane-13\b-carboxylic acid lactone'
_symmetry_cell_setting           orthorhombic
_symmetry_space_group_name_H-M   'P 21 21 21'
_symmetry_Int_Tables_number      19
_space_group_name_Hall           'P 2ac 2ab'
loop_
_symmetry_equiv_pos_site_id
_symmetry_equiv_pos_as_xyz
1 x,y,z
2 1/2+x,1/2-y,-z
3 -x,1/2+y,1/2-z
4 1/2-x,-y,1/2+z
_cell_length_a                   7.313(1)
_cell_length_b                   9.093(1)
_cell_length_c                   24.514(2)
_cell_angle_alpha                90
_cell_angle_beta                 90
_cell_angle_gamma                90
_cell_volume                     1630.11
_cell_formula_units_Z            4
loop_
_atom_site_label
_atom_site_type_symbol
_atom_site_fract_x
_atom_site_fract_y
_atom_site_fract_z
C1 C -0.12050 0.85170 0.35350
C2 C -0.08430 1.00190 0.32460
C3 C 0.05110 0.98380 0.27840
C4 C 0.23420 0.91800 0.29500
C5 C 0.19810 0.77280 0.32650
C6 C 0.37030 0.68790 0.34340
C7 C 0.31970 0.52920 0.35750
C8 C 0.17910 0.51740 0.40340
C9 C 0.01310 0.61800 0.39060
C10 C 0.05910 0.78120 0.37480
C11 C -0.13730 0.60240 0.43470
C12 C -0.19180 0.44110 0.44320
C13 C -0.02370 0.34310 0.45380
C14 C 0.11050 0.35800 0.40680
C15 C 0.27960 0.54450 0.45790
C16 C 0.05720 0.38940 0.50770
C17 C 0.33770 0.88200 0.24130
C18 C 0.34980 1.03250 0.32640
C19 C 0.12570 0.87200 0.42420
O1 O 0.18350 0.49810 0.50690
O2 O 0.01140 0.34190 0.55100
loop_
_geom_bond_atom_site_label_1
_geom_bond_atom_site_label_2
_geom_bond_site_symmetry_1
_geom_bond_site_symmetry_2
C1 C2 1_555 1_555
C2 C3 1_555 1_555
C3 C4 1_555 1_555
C4 C5 1_555 1_555
C5 C6 1_555 1_555
C6 C7 1_555 1_555
C7 C8 1_555 1_555
C8 C9 1_555 1_555
C9 C10 1_555 1_555
C10 C1 1_555 1_555
C11 C9 1_555 1_555
C12 C11 1_555 1_555
C13 C12 1_555 1_555
C14 C8 1_555 1_555
C15 C8 1_555 1_555
C16 C13 1_555 1_555
C17 C4 1_555 1_555
C18 C4 1_555 1_555
C19 C10 1_555 1_555
O1 C15 1_555 1_555
O2 C16 1_555 1_555
C5 C10 1_555 1_555
C13 C14 1_555 1_555
C16 O1 1_555 1_555

#END
