
#######################################################################
#
#                 Cambridge Crystallographic Data Centre
#                                CCDC 
#
#######################################################################
#
# If this CIF has been generated from an entry in the Cambridge 
# Structural Database, then it will include bibliographic, chemical, 
# crystal, experimental, refinement or atomic coordinate data resulting 
# from the CCDC's data processing and validation procedures.
#
#######################################################################

data_HMSPTZ
_chemical_formula_moiety         'C10 H9 N1 O3 S2'
_chemical_name_systematic        
3-Hydroxy-5-(methylsulfonyl)-4-phenylthiothiazole
_symmetry_cell_setting           monoclinic
_symmetry_space_group_name_H-M   'P 21/c'
_symmetry_Int_Tables_number      14
_space_group_name_Hall           '-P 2ybc'
loop_
_symmetry_equiv_pos_site_id
_symmetry_equiv_pos_as_xyz
1 x,y,z
2 -x,1/2+y,1/2-z
3 -x,-y,-z
4 x,1/2-y,1/2+z
_cell_length_a                   14.863(4)
_cell_length_b                   5.272(1)
_cell_length_c                   15.377(5)
_cell_angle_alpha                90
_cell_angle_beta                 110.49(2)
_cell_angle_gamma                90
_cell_volume                     1128.68
_chemical_melting_point          229-230deg.C
_cell_formula_units_Z            4
loop_
_atom_site_label
_atom_site_type_symbol
_atom_site_fract_x
_atom_site_fract_y
_atom_site_fract_z
S1 S 0.04540 0.13790 0.18460
S2 S 0.22740 -0.09750 0.30770
O1 O 0.15720 -0.22090 0.33830
O2 O 0.30170 -0.24350 0.29450
O3 O 0.12590 0.41930 0.00050
N1 N 0.03460 0.29990 0.08880
C1 C 0.11670 0.29270 0.07420
C2 C 0.19370 0.16030 0.13680
C3 C 0.16250 0.05670 0.20370
C4 C 0.29060 0.13230 0.12900
C5 C 0.36240 0.30220 0.16820
C6 C 0.45150 0.27840 0.15940
C7 C 0.46700 0.07570 0.10620
C8 C 0.39430 -0.08960 0.06540
C9 C 0.30560 -0.07440 0.07530
C10 C 0.27720 0.15640 0.38460
H1 H 0.33900 0.46600 0.19700
H2 H 0.51200 0.41200 0.19800
H3 H 0.54000 0.06300 0.10000
H4 H 0.40400 -0.21000 0.01200
H5 H 0.23200 -0.15300 0.03200
loop_
_geom_bond_atom_site_label_1
_geom_bond_atom_site_label_2
_geom_bond_site_symmetry_1
_geom_bond_site_symmetry_2
S1 N1 1_555 1_555
S2 O1 1_555 1_555
O2 S2 1_555 1_555
O3 C1 1_555 1_555
N1 C1 1_555 1_555
C1 C2 1_555 1_555
C2 C3 1_555 1_555
C3 S1 1_555 1_555
C4 C2 1_555 1_555
C5 C4 1_555 1_555
C6 C5 1_555 1_555
C7 C6 1_555 1_555
C8 C7 1_555 1_555
C9 C4 1_555 1_555
C10 S2 1_555 1_555
H1 C5 1_555 1_555
H2 C6 1_555 1_555
H3 C7 1_555 1_555
H4 C8 1_555 1_555
H5 C9 1_555 1_555
S2 C3 1_555 1_555
C8 C9 1_555 1_555

#END
