
#######################################################################
#
#                 Cambridge Crystallographic Data Centre
#                                CCDC 
#
#######################################################################
#
# If this CIF has been generated from an entry in the Cambridge 
# Structural Database, then it will include bibliographic, chemical, 
# crystal, experimental, refinement or atomic coordinate data resulting 
# from the CCDC's data processing and validation procedures.
#
#######################################################################

data_HOBCIL
_chemical_formula_moiety         'C35 H36 N4 O3'
_chemical_name_systematic        
N-[3',6'-bis(diethylamino)-3-oxospiro[isoindole-1,9'-xanthen]-2(3H)-yl]benzamide
_symmetry_cell_setting           triclinic
_symmetry_space_group_name_H-M   'P -1'
_symmetry_Int_Tables_number      2
_space_group_name_Hall           '-P 1'
loop_
_symmetry_equiv_pos_site_id
_symmetry_equiv_pos_as_xyz
1 x,y,z
2 -x,-y,-z
_cell_length_a                   10.066(2)
_cell_length_b                   12.494(3)
_cell_length_c                   14.084(3)
_cell_angle_alpha                67.71(3)
_cell_angle_beta                 84.16(3)
_cell_angle_gamma                67.70(3)
_cell_volume                     1514.5
_exptl_crystal_colour            colorless
_exptl_crystal_description       Prism
_cell_formula_units_Z            2
_exptl_crystal_preparation       fluorescent
loop_
_atom_site_label
_atom_site_type_symbol
_atom_site_fract_x
_atom_site_fract_y
_atom_site_fract_z
O1 O 1.1724(5) 0.9510(3) 0.4250(3)
O2 O 0.8870(3) 0.9065(2) 0.06097(19)
O3 O 1.1966(4) 0.6815(3) 0.1729(3)
C1 C 1.1658(5) 0.8385(4) 0.4378(3)
C2 C 1.2383(6) 0.7413(4) 0.5261(4)
H1 H 1.2837 0.7568 0.5710
C3 C 1.2443(6) 0.6219(4) 0.5486(4)
C4 C 1.1750(6) 0.6051(4) 0.4782(4)
H2 H 1.1778 0.5259 0.4897
C5 C 1.1020(6) 0.7038(4) 0.3913(3)
H3 H 1.0562 0.6889 0.3462
C6 C 1.0943(4) 0.8236(3) 0.3688(3)
C7 C 1.0053(4) 0.9342(3) 0.2780(3)
C8 C 1.0418(4) 1.0469(3) 0.2613(3)
C9 C 0.9973(5) 1.1554(4) 0.1736(3)
H4 H 0.9485 1.1566 0.1204
C10 C 1.0217(5) 1.2599(4) 0.1621(3)
H5 H 0.9862 1.3308 0.1030
C11 C 1.0994(5) 1.2615(4) 0.2379(4)
C12 C 1.1477(6) 1.1542(4) 0.3235(4)
H6 H 1.2012 1.1511 0.3752
C13 C 1.1184(5) 1.0501(4) 0.3346(3)
C14 C 0.8457(4) 0.9611(3) 0.2912(3)
C15 C 0.7615(5) 0.9951(4) 0.3661(3)
H7 H 0.8008 1.0033 0.4187
C16 C 0.6175(6) 1.0167(5) 0.3607(4)
H8 H 0.5593 1.0390 0.4110
C17 C 0.5576(6) 1.0061(5) 0.2834(5)
H9 H 0.4598 1.0212 0.2820
C18 C 0.6406(5) 0.9733(5) 0.2079(4)
H10 H 0.6004 0.9663 0.1550
C19 C 0.7857(4) 0.9510(3) 0.2130(3)
C20 C 0.8980(4) 0.9183(3) 0.1412(3)
C21 C 1.2288(4) 0.7723(3) 0.1302(3)
C22 C 1.3610(4) 0.7676(4) 0.0710(3)
C23 C 1.4474(5) 0.8276(4) 0.0776(3)
H11 H 1.4205 0.8767 0.1173
C24 C 1.5738(5) 0.8162(5) 0.0260(4)
H12 H 1.6326 0.8554 0.0326
C25 C 1.6112(6) 0.7471(6) -0.0342(4)
H13 H 1.6947 0.7407 -0.0703
C26 C 1.5265(7) 0.6875(6) -0.0416(5)
H14 H 1.5533 0.6405 -0.0831
C27 C 1.4019(5) 0.6951(5) 0.0109(4)
H15 H 1.3462 0.6525 0.0061
C28 C 1.2395(14) 1.3507(9) 0.3059(8)
H16 H 1.3149 1.2686 0.3302
H17 H 1.2818 1.4137 0.2786
C29 C 1.1485(13) 1.3695(10) 0.3779(11)
H18 H 1.1987 1.3656 0.4342
H19 H 1.1074 1.3065 0.4017
H20 H 1.0734 1.4500 0.3500
C30 C 1.0894(6) 1.4770(4) 0.1354(4)
H21 H 1.0855 1.4562 0.0763
H22 H 1.1632 1.5122 0.1246
C31 C 0.9513(7) 1.5719(6) 0.1400(6)
H23 H 0.9312 1.6433 0.0772
H24 H 0.9549 1.5959 0.1966
H25 H 0.8769 1.5389 0.1494
C32 C 1.3269(8) 0.3965(5) 0.6589(5)
H26 H 1.3385 0.3511 0.7327
H27 H 1.2391 0.3979 0.6348
C33 C 1.4484(10) 0.3341(8) 0.6094(7)
H28 H 1.4541 0.2507 0.6248
H29 H 1.5354 0.3316 0.6342
H30 H 1.4362 0.3787 0.5364
C34 C 1.4254(10) 0.5432(7) 0.6948(6)
H31 H 1.5035 0.4644 0.7274
H32 H 1.4655 0.6019 0.6478
C35 C 1.3490(13) 0.5880(11) 0.7678(7)
H33 H 1.4116 0.6009 0.8057
H34 H 1.3106 0.5287 0.8139
H35 H 1.2716 0.6654 0.7343
N1 N 1.3160(7) 0.5256(4) 0.6358(4)
N2 N 1.1317(6) 1.3632(4) 0.2260(4)
N3 N 1.0219(3) 0.9061(3) 0.1831(2)
N4 N 1.1495(3) 0.8866(3) 0.1340(2)
H36 H 1.1796 0.9469 0.1056
loop_
_geom_bond_atom_site_label_1
_geom_bond_atom_site_label_2
_geom_bond_site_symmetry_1
_geom_bond_site_symmetry_2
O1 C1 1_555 1_555
O2 C20 1_555 1_555
O3 C21 1_555 1_555
C1 C2 1_555 1_555
C2 H1 1_555 1_555
C3 C2 1_555 1_555
C4 C3 1_555 1_555
H2 C4 1_555 1_555
C5 C4 1_555 1_555
H3 C5 1_555 1_555
C6 C1 1_555 1_555
C7 C6 1_555 1_555
C8 C7 1_555 1_555
C9 C8 1_555 1_555
H4 C9 1_555 1_555
C10 C9 1_555 1_555
H5 C10 1_555 1_555
C11 C10 1_555 1_555
C12 C11 1_555 1_555
H6 C12 1_555 1_555
C13 O1 1_555 1_555
C14 C7 1_555 1_555
C15 C14 1_555 1_555
H7 C15 1_555 1_555
C16 C15 1_555 1_555
H8 C16 1_555 1_555
C17 C16 1_555 1_555
H9 C17 1_555 1_555
C18 C17 1_555 1_555
H10 C18 1_555 1_555
C19 C14 1_555 1_555
C20 C19 1_555 1_555
C21 C22 1_555 1_555
C22 C23 1_555 1_555
C23 H11 1_555 1_555
C24 C23 1_555 1_555
H12 C24 1_555 1_555
C25 C24 1_555 1_555
H13 C25 1_555 1_555
C26 C25 1_555 1_555
H14 C26 1_555 1_555
C27 C22 1_555 1_555
H15 C27 1_555 1_555
C28 H16 1_555 1_555
H17 C28 1_555 1_555
C29 C28 1_555 1_555
H18 C29 1_555 1_555
H19 C29 1_555 1_555
H20 C29 1_555 1_555
C30 H21 1_555 1_555
H22 C30 1_555 1_555
C31 C30 1_555 1_555
H23 C31 1_555 1_555
H24 C31 1_555 1_555
H25 C31 1_555 1_555
C32 H26 1_555 1_555
H27 C32 1_555 1_555
C33 C32 1_555 1_555
H28 C33 1_555 1_555
H29 C33 1_555 1_555
H30 C33 1_555 1_555
C34 H31 1_555 1_555
H32 C34 1_555 1_555
C35 C34 1_555 1_555
H33 C35 1_555 1_555
H34 C35 1_555 1_555
H35 C35 1_555 1_555
N1 C3 1_555 1_555
N2 C11 1_555 1_555
N3 C7 1_555 1_555
N4 C21 1_555 1_555
H36 N4 1_555 1_555
C5 C6 1_555 1_555
C8 C13 1_555 1_555
C12 C13 1_555 1_555
C18 C19 1_555 1_555
C20 N3 1_555 1_555
C26 C27 1_555 1_555
C28 N2 1_555 1_555
C30 N2 1_555 1_555
C32 N1 1_555 1_555
C34 N1 1_555 1_555
N3 N4 1_555 1_555

#END
