
#######################################################################
#
#                 Cambridge Crystallographic Data Centre
#                                CCDC 
#
#######################################################################
#
# If this CIF has been generated from an entry in the Cambridge 
# Structural Database, then it will include bibliographic, chemical, 
# crystal, experimental, refinement or atomic coordinate data resulting 
# from the CCDC's data processing and validation procedures.
#
#######################################################################

data_HOBJEP
_chemical_formula_moiety         'C16 H16 Br1 N3 O2'
_chemical_name_systematic        
N-(5-bromo-2-(morpholin-4-yl)phenyl)pyridine-2-carboxamide
_symmetry_cell_setting           monoclinic
_symmetry_space_group_name_H-M   'C 2/c'
_symmetry_Int_Tables_number      15
_space_group_name_Hall           '-C 2yn'
loop_
_symmetry_equiv_pos_site_id
_symmetry_equiv_pos_as_xyz
1 x,y,z
2 -x,y,1/2-z
3 1/2+x,1/2+y,z
4 1/2-x,1/2+y,1/2-z
5 -x,-y,-z
6 x,-y,1/2+z
7 1/2-x,1/2-y,-z
8 1/2+x,1/2-y,1/2+z
_cell_length_a                   22.866(6)
_cell_length_b                   7.402(2)
_cell_length_c                   19.103(5)
_cell_angle_alpha                90
_cell_angle_beta                 101.646(4)
_cell_angle_gamma                90
_cell_volume                     3166.7
_exptl_crystal_colour            colorless
_exptl_crystal_description       block
_cell_formula_units_Z            8
loop_
_atom_site_label
_atom_site_type_symbol
_atom_site_fract_x
_atom_site_fract_y
_atom_site_fract_z
Br1 Br -0.193503(11) 0.22212(5) -0.067558(16)
C1 C 0.08671(11) 0.1236(4) -0.14225(12)
H1 H 0.0764 0.2063 -0.1822
H2 H 0.0650 0.0118 -0.1547
C2 C 0.15297(11) 0.0872(4) -0.12697(14)
H3 H 0.1626 0.0007 -0.0882
H4 H 0.1639 0.0343 -0.1690
C3 C 0.17023(11) 0.3258(4) -0.04752(15)
H5 H 0.1932 0.4354 -0.0350
H6 H 0.1797 0.2432 -0.0074
C4 C 0.10504(9) 0.3701(3) -0.06108(12)
H7 H 0.0951 0.4250 -0.0189
H8 H 0.0953 0.4552 -0.1003
C5 C 0.00863(10) 0.2136(3) -0.07905(11)
C6 C -0.03533(12) 0.2103(3) -0.14045(12)
H9 H -0.0242 0.2059 -0.1846
C7 C -0.09529(12) 0.2134(3) -0.13826(13)
H10 H -0.1241 0.2113 -0.1802
C8 C -0.11147(10) 0.2198(3) -0.07324(13)
C9 C -0.06945(9) 0.2222(3) -0.00994(11)
H11 H -0.0814 0.2246 0.0338
C10 C -0.00949(9) 0.2210(2) -0.01272(10)
C11 C 0.03277(9) 0.2664(3) 0.11679(11)
C12 C 0.09306(9) 0.2806(3) 0.16480(10)
C13 C 0.09834(10) 0.3266(4) 0.23550(11)
H12 H 0.0647 0.3430 0.2553
C14 C 0.15496(11) 0.3479(4) 0.27624(12)
H13 H 0.1602 0.3808 0.3241
C15 C 0.20328(12) 0.3202(5) 0.24586(14)
H14 H 0.2418 0.3343 0.2724
C16 C 0.19372(12) 0.2710(4) 0.17497(15)
H15 H 0.2268 0.2505 0.1546
H16 H 0.0688(12) 0.202(3) 0.0436(14)
N1 N 0.07058(8) 0.2021(2) -0.07892(9)
N2 N 0.03545(8) 0.2217(2) 0.04886(9)
N3 N 0.13989(9) 0.2512(3) 0.13423(10)
O1 O 0.18652(11) 0.2464(3) -0.10819(14)
O2 O -0.01311(7) 0.2970(2) 0.13804(8)
loop_
_geom_bond_atom_site_label_1
_geom_bond_atom_site_label_2
_geom_bond_site_symmetry_1
_geom_bond_site_symmetry_2
Br1 C8 1_555 1_555
C1 H1 1_555 1_555
H2 C1 1_555 1_555
C2 C1 1_555 1_555
H3 C2 1_555 1_555
H4 C2 1_555 1_555
C3 H5 1_555 1_555
H6 C3 1_555 1_555
C4 C3 1_555 1_555
H7 C4 1_555 1_555
H8 C4 1_555 1_555
C5 C6 1_555 1_555
C6 H9 1_555 1_555
C7 C6 1_555 1_555
H10 C7 1_555 1_555
C8 C7 1_555 1_555
C9 C8 1_555 1_555
H11 C9 1_555 1_555
C10 C5 1_555 1_555
C11 C12 1_555 1_555
C12 C13 1_555 1_555
C13 H12 1_555 1_555
C14 C13 1_555 1_555
H13 C14 1_555 1_555
C15 C14 1_555 1_555
H14 C15 1_555 1_555
C16 C15 1_555 1_555
H15 C16 1_555 1_555
H16 N2 1_555 1_555
N1 C1 1_555 1_555
N2 C10 1_555 1_555
N3 C12 1_555 1_555
O1 C2 1_555 1_555
O2 C11 1_555 1_555
C3 O1 1_555 1_555
C4 N1 1_555 1_555
C5 N1 1_555 1_555
C9 C10 1_555 1_555
C11 N2 1_555 1_555
C16 N3 1_555 1_555

#END
