
#######################################################################
#
#                 Cambridge Crystallographic Data Centre
#                                CCDC 
#
#######################################################################
#
# If this CIF has been generated from an entry in the Cambridge 
# Structural Database, then it will include bibliographic, chemical, 
# crystal, experimental, refinement or atomic coordinate data resulting 
# from the CCDC's data processing and validation procedures.
#
#######################################################################

data_HOBMOA
_chemical_formula_moiety         'C10 H8 S4 Se2 1+,C10 H8 S4 Se2,As1 F6 1-'
_chemical_name_systematic        
"bis(5,5',6,6'-Tetrahydro-\D^2,2'^-bithiole[2,3-d]-1,3-selenole) hexafluoroarsenate"
_symmetry_cell_setting           triclinic
_symmetry_space_group_name_H-M   'P -1'
_symmetry_Int_Tables_number      2
_space_group_name_Hall           '-P 1'
loop_
_symmetry_equiv_pos_site_id
_symmetry_equiv_pos_as_xyz
1 x,y,z
2 -x,-y,-z
_cell_length_a                   6.413(2)
_cell_length_b                   7.293(2)
_cell_length_c                   15.929(4)
_cell_angle_alpha                80.26(2)
_cell_angle_beta                 82.05(2)
_cell_angle_gamma                81.52(2)
_cell_volume                     721.306
_cell_formula_units_Z            1
loop_
_atom_site_label
_atom_site_type_symbol
_atom_site_fract_x
_atom_site_fract_y
_atom_site_fract_z
As1 As 0.5000 0.0000 0.0000
F1 F 0.558(4) 0.220(3) -0.027(1)
F2 F 0.243(2) 0.103(3) 0.000(1)
F3 F 0.493(2) 0.021(3) 0.104(1)
F1A F 0.442(4) -0.220(3) 0.027(1)
F2A F 0.757(2) -0.103(3) 0.000(1)
F3A F 0.507(2) -0.021(3) -0.104(1)
Se1 Se 0.096(1) 0.391(1) 0.1331(5)
C1 C -0.3903(4) 0.4630(5) 0.1837(2)
C2 C 0.3484(4) 0.0829(4) 0.7187(2)
Se2 Se -0.134(1) 0.152(1) 0.7642(7)
S1 S 0.1668(7) 0.3055(8) 0.3245(3)
S2 S -0.2950(7) 0.3614(8) 0.3785(4)
S3 S 0.2540(7) 0.1970(8) 0.5228(4)
S4 S -0.2074(7) 0.2541(8) 0.5773(3)
C3 C 0.002(3) 0.366(3) 0.241(1)
C4 C -0.216(3) 0.394(3) 0.272(1)
C5 C -0.039(3) 0.303(3) 0.411(1)
C6 C -0.005(3) 0.259(3) 0.492(1)
C7 C 0.173(2) 0.162(3) 0.628(1)
C8 C -0.042(3) 0.189(3) 0.658(1)
C9 C -0.157(4) 0.427(4) 0.102(2)
C10 C 0.098(3) 0.111(4) 0.801(1)
loop_
_geom_bond_atom_site_label_1
_geom_bond_atom_site_label_2
_geom_bond_site_symmetry_1
_geom_bond_site_symmetry_2
Se1 C3 1_555 1_555
C1 C4 1_555 1_555
C2 C7 1_555 1_555
Se2 C8 1_555 1_555
As1 F1 1_555 1_555
S1 C3 1_555 1_555
S2 C4 1_555 1_555
S3 C6 1_555 1_555
S4 C6 1_555 1_555
F2 As1 1_555 1_555
F3 As1 1_555 1_555
C3 C4 1_555 1_555
C5 S1 1_555 1_555
C6 C5 1_555 1_555
C7 S3 1_555 1_555
C8 S4 1_555 1_555
C9 Se1 1_555 1_555
C10 C2 1_555 1_555
F1A As1 1_555 1_555
F2A As1 1_555 1_555
F3A As1 1_555 1_555
C1 C9 1_555 1_555
Se2 C10 1_555 1_555
S2 C5 1_555 1_555
C7 C8 1_555 1_555

#END
