
#######################################################################
#
#                 Cambridge Crystallographic Data Centre
#                                CCDC 
#
#######################################################################
#
# If this CIF has been generated from an entry in the Cambridge 
# Structural Database, then it will include bibliographic, chemical, 
# crystal, experimental, refinement or atomic coordinate data resulting 
# from the CCDC's data processing and validation procedures.
#
#######################################################################

data_HOBMUI
_chemical_formula_moiety         'C26 H42 Li2 N8'
_chemical_name_systematic        
(\m~2~-1H-Pyrrolo[2,3-b]pyridinato-N,N')-(\m~2~-1H-pyrrolo[2,3-b]pyridinato-N,N)-bis(N,N,N',N'-tetramethylethane-1,2-diamine)-di-lithium
_symmetry_cell_setting           triclinic
_symmetry_space_group_name_H-M   'P -1'
_symmetry_Int_Tables_number      2
_space_group_name_Hall           '-P 1'
loop_
_symmetry_equiv_pos_site_id
_symmetry_equiv_pos_as_xyz
1 x,y,z
2 -x,-y,-z
_cell_length_a                   10.1764(7)
_cell_length_b                   10.9495(8)
_cell_length_c                   14.2803(9)
_cell_angle_alpha                106.262(5)
_cell_angle_beta                 90.812(5)
_cell_angle_gamma                109.592(5)
_cell_volume                     1428.79
_exptl_crystal_colour            colorless
_exptl_crystal_description       prism
_cell_formula_units_Z            2
_chemical_properties_physical    'Air-sensitive, Oxygen-sensitive'
_exptl_crystal_recrystallization_method toluene
loop_
_atom_site_label
_atom_site_type_symbol
_atom_site_fract_x
_atom_site_fract_y
_atom_site_fract_z
C1 C 0.82021(17) 0.63618(17) 0.32626(12)
C2 C 0.98549(17) 0.82444(17) 0.39643(13)
H1 H 1.0399 0.9188 0.4168
C3 C 1.02424(18) 0.73198(18) 0.42624(13)
H2 H 1.1055 0.7493 0.4686
C4 C 0.91680(17) 0.60415(17) 0.38016(13)
C5 C 0.88522(18) 0.46949(18) 0.37483(14)
H3 H 0.9464 0.4423 0.4084
C6 C 0.76247(18) 0.37528(18) 0.31945(14)
H4 H 0.7389 0.2817 0.3138
C7 C 0.67308(18) 0.41712(18) 0.27181(14)
H5 H 0.5889 0.3493 0.2350
C8 C 0.52722(17) 0.84860(17) 0.17857(13)
C9 C 0.55525(17) 0.66749(17) 0.08747(14)
H6 H 0.5820 0.5897 0.0674
C10 C 0.48205(18) 0.70277(18) 0.02506(14)
H7 H 0.4511 0.6571 -0.0428
C11 C 0.46212(17) 0.82137(17) 0.08264(14)
C12 C 0.40130(17) 0.91123(19) 0.06731(15)
H8 H 0.3579 0.8986 0.0043
C13 C 0.40602(18) 1.01953(18) 0.14663(16)
H9 H 0.3663 1.0836 0.1387
C14 C 0.46875(19) 1.03482(18) 0.23805(16)
H10 H 0.4683 1.1096 0.2913
C15 C 1.03957(18) 1.00355(17) 0.17674(14)
H11 H 1.0978 0.9942 0.2286
H12 H 1.0932 1.0880 0.1614
C16 C 1.01256(18) 0.88374(17) 0.08591(14)
H13 H 0.9564 0.8940 0.0334
H14 H 1.1033 0.8822 0.0625
C17 C 0.83519(18) 1.05985(17) 0.14906(13)
H15 H 0.7515 1.0719 0.1774
H16 H 0.8069 0.9913 0.0843
H17 H 0.8975 1.1465 0.1423
C18 C 0.93865(19) 1.11208(16) 0.31278(13)
H18 H 0.9948 1.2030 0.3100
H19 H 0.9908 1.0849 0.3565
H20 H 0.8499 1.1134 0.3379
C19 C 0.87055(19) 0.64973(19) 0.01162(14)
H21 H 0.9425 0.6401 -0.0318
H22 H 0.8026 0.6763 -0.0196
H23 H 0.8220 0.5628 0.0238
C20 C 1.03729(19) 0.71064(19) 0.15056(14)
H24 H 0.9864 0.6250 0.1639
H25 H 1.0853 0.7805 0.2123
H26 H 1.1067 0.6972 0.1057
C21 C 0.42021(17) 0.73771(17) 0.45029(13)
H27 H 0.3881 0.7970 0.4218
H28 H 0.4049 0.7585 0.5204
C22 C 0.33390(18) 0.58989(17) 0.39716(14)
H29 H 0.3612 0.5306 0.4286
H30 H 0.2331 0.5743 0.4028
C23 C 0.31150(18) 0.40575(16) 0.25100(14)
H31 H 0.2104 0.3642 0.2531
H32 H 0.3630 0.3707 0.2890
H33 H 0.3318 0.3835 0.1827
C24 C 0.27164(17) 0.60271(17) 0.23770(14)
H34 H 0.2898 0.5812 0.1689
H35 H 0.2978 0.7014 0.2659
H36 H 0.1716 0.5582 0.2414
C25 C 0.63034(18) 0.70661(17) 0.50444(13)
H37 H 0.7326 0.7368 0.5045
H38 H 0.5901 0.6072 0.4782
H39 H 0.6079 0.7355 0.5717
C26 C 0.64574(17) 0.91523(15) 0.47478(13)
H40 H 0.6354 0.9528 0.5440
H41 H 0.6061 0.9568 0.4347
H42 H 0.7456 0.9348 0.4671
Li1 Li 0.8035(3) 0.8162(3) 0.2173(2)
Li2 Li 0.5724(3) 0.6663(3) 0.2912(2)
N1 N 0.86236(13) 0.77074(13) 0.33501(10)
N2 N 0.69691(14) 0.54566(13) 0.27399(10)
N3 N 0.58700(13) 0.75460(13) 0.18219(10)
N4 N 0.53008(14) 0.95159(14) 0.25682(11)
N5 N 0.90950(14) 1.01470(13) 0.21387(11)
N6 N 0.93725(14) 0.75451(14) 0.10522(10)
N7 N 0.35524(13) 0.55373(13) 0.29319(11)
N8 N 0.57095(13) 0.76722(13) 0.44263(10)
loop_
_geom_bond_atom_site_label_1
_geom_bond_atom_site_label_2
_geom_bond_site_symmetry_1
_geom_bond_site_symmetry_2
C1 C4 1_555 1_555
C2 H1 1_555 1_555
C3 C2 1_555 1_555
H2 C3 1_555 1_555
C4 C3 1_555 1_555
C5 C4 1_555 1_555
H3 C5 1_555 1_555
C6 C5 1_555 1_555
H4 C6 1_555 1_555
C7 C6 1_555 1_555
H5 C7 1_555 1_555
C8 C11 1_555 1_555
C9 H6 1_555 1_555
C10 C9 1_555 1_555
H7 C10 1_555 1_555
C11 C10 1_555 1_555
C12 C11 1_555 1_555
H8 C12 1_555 1_555
C13 C12 1_555 1_555
H9 C13 1_555 1_555
C14 C13 1_555 1_555
H10 C14 1_555 1_555
C15 H11 1_555 1_555
H12 C15 1_555 1_555
C16 C15 1_555 1_555
H13 C16 1_555 1_555
H14 C16 1_555 1_555
C17 H15 1_555 1_555
H16 C17 1_555 1_555
H17 C17 1_555 1_555
C18 H18 1_555 1_555
H19 C18 1_555 1_555
H20 C18 1_555 1_555
C19 H21 1_555 1_555
H22 C19 1_555 1_555
H23 C19 1_555 1_555
C20 H24 1_555 1_555
H25 C20 1_555 1_555
H26 C20 1_555 1_555
C21 H27 1_555 1_555
H28 C21 1_555 1_555
C22 C21 1_555 1_555
H29 C22 1_555 1_555
H30 C22 1_555 1_555
C23 H31 1_555 1_555
H32 C23 1_555 1_555
H33 C23 1_555 1_555
C24 H34 1_555 1_555
H35 C24 1_555 1_555
H36 C24 1_555 1_555
C25 H37 1_555 1_555
H38 C25 1_555 1_555
H39 C25 1_555 1_555
C26 H40 1_555 1_555
H41 C26 1_555 1_555
H42 C26 1_555 1_555
Li1 N1 1_555 1_555
Li2 N2 1_555 1_555
N1 C1 1_555 1_555
N2 C1 1_555 1_555
N3 C8 1_555 1_555
N4 C8 1_555 1_555
N5 C15 1_555 1_555
N6 C16 1_555 1_555
N7 C22 1_555 1_555
N8 C21 1_555 1_555
C2 N1 1_555 1_555
C7 N2 1_555 1_555
C9 N3 1_555 1_555
C14 N4 1_555 1_555
C17 N5 1_555 1_555
C18 N5 1_555 1_555
C19 N6 1_555 1_555
C20 N6 1_555 1_555
C23 N7 1_555 1_555
C24 N7 1_555 1_555
C25 N8 1_555 1_555
C26 N8 1_555 1_555
Li1 N3 1_555 1_555
Li1 N5 1_555 1_555
Li1 N6 1_555 1_555
Li2 N3 1_555 1_555
Li2 N7 1_555 1_555
Li2 N8 1_555 1_555

#END
