
#######################################################################
#
#                 Cambridge Crystallographic Data Centre
#                                CCDC 
#
#######################################################################
#
# If this CIF has been generated from an entry in the Cambridge 
# Structural Database, then it will include bibliographic, chemical, 
# crystal, experimental, refinement or atomic coordinate data resulting 
# from the CCDC's data processing and validation procedures.
#
#######################################################################

data_HOBNAN
_chemical_formula_moiety         'C10 H8 Se6 1+,C12 H4 N4 1-'
_chemical_name_systematic        
"5,5',6,6'-Tetrahydro-\D^2,2'^-biselenolo[2,3-d]-1,3-selenole tetracyanoquinodimethanide"
_symmetry_cell_setting           triclinic
_symmetry_space_group_name_H-M   'P -1'
_symmetry_Int_Tables_number      2
_space_group_name_Hall           '-P 1'
loop_
_symmetry_equiv_pos_site_id
_symmetry_equiv_pos_as_xyz
1 x,y,z
2 -x,-y,-z
_cell_length_a                   7.722(3)
_cell_length_b                   18.662(6)
_cell_length_c                   3.888(1)
_cell_angle_alpha                93.18(2)
_cell_angle_beta                 95.58(2)
_cell_angle_gamma                82.07(3)
_cell_volume                     551.801
_cell_formula_units_Z            1
loop_
_atom_site_label
_atom_site_type_symbol
_atom_site_fract_x
_atom_site_fract_y
_atom_site_fract_z
Se1 Se 0.7921(2) 0.48003(9) 0.7200(5)
Se2 Se 0.4826(2) 0.38115(8) 0.6304(5)
Se3 Se 1.0650(7) 0.3437(3) 1.026(2)
C2 C 0.766(6) 0.264(2) 0.91(1)
C3 C 0.839(2) 0.3819(9) 0.851(4)
C4 C 0.712(2) 0.3433(8) 0.807(4)
C5 C 0.970(3) 0.260(1) 1.085(6)
C6 C 0.559(2) 0.4734(8) 0.569(5)
H1 H 0.9792 0.2551 1.3274
H2 H 1.0450 0.2223 0.9807
C6A C 0.441(2) 0.5266(8) 0.431(5)
Se1A Se 0.2079(2) 0.51997(9) 0.2800(5)
C3A C 0.161(2) 0.6181(9) 0.149(4)
Se3A Se -0.0650(7) 0.6563(3) -0.026(2)
C5A C 0.030(3) 0.740(1) -0.085(6)
C2A C 0.234(6) 0.736(2) 0.09(1)
C4A C 0.288(2) 0.6567(8) 0.193(4)
Se2A Se 0.5174(2) 0.61885(8) 0.3696(5)
H1A H 0.0208 0.7449 -0.3274
H2A H -0.0450 0.7777 0.0193
N1 N -0.610(2) 1.2244(8) 0.620(5)
N2 N -1.025(2) 1.0931(9) 0.516(5)
C7 C -0.652(2) 1.1709(9) 0.509(5)
C8 C -0.884(2) 1.0967(8) 0.450(5)
C9 C -0.430(2) 1.0627(8) 0.125(5)
C10 C -0.670(2) 0.9876(8) 0.057(4)
C11 C -0.709(2) 1.1041(8) 0.380(5)
C12 C -0.608(2) 1.0532(8) 0.191(4)
H3 H -0.40(2) 1.11(1) 0.24(5)
H4 H -0.80(2) 0.982(10) 0.13(5)
C10A C -0.330(2) 1.0124(8) -0.057(4)
C12A C -0.392(2) 0.9468(8) -0.191(4)
C9A C -0.570(2) 0.9373(8) -0.125(5)
H3A H -0.60(2) 0.89(1) -0.24(5)
C11A C -0.291(2) 0.8959(8) -0.380(5)
C7A C -0.348(2) 0.8291(9) -0.509(5)
N1A N -0.390(2) 0.7756(8) -0.620(5)
C8A C -0.116(2) 0.9033(8) -0.450(5)
N2A N 0.025(2) 0.9069(9) -0.516(5)
H4A H -0.20(2) 1.018(10) -0.13(5)
Se4? Se 0.7546(8) 0.2433(4) 0.939(2)
C1? C 1.032(8) 0.343(4) 0.93(2)
loop_
_geom_bond_atom_site_label_1
_geom_bond_atom_site_label_2
_geom_bond_site_symmetry_1
_geom_bond_site_symmetry_2
Se1 C3 1_555 1_555
Se2 C4 1_555 1_555
Se3 C3 1_555 1_555
C2 C4 1_555 1_555
C3 C4 1_555 1_555
C5 Se3 1_555 1_555
C6 Se1 1_555 1_555
H1 C5 1_555 1_555
H2 C5 1_555 1_555
N1 C7 1_555 1_555
N2 C8 1_555 1_555
C7 C11 1_555 1_555
C8 C11 1_555 1_555
C9 C12 1_555 1_555
C10 C12 1_555 1_555
C11 C12 1_555 1_555
H3 C9 1_555 1_555
H4 C10 1_555 1_555
C6A C6 1_555 1_555
Se1A C6A 1_555 1_555
C3A Se1A 1_555 1_555
Se3A C3A 1_555 1_555
C5A Se3A 1_555 1_555
C2A C5A 1_555 1_555
C4A C3A 1_555 1_555
Se2A C6A 1_555 1_555
H1A C5A 1_555 1_555
H2A C5A 1_555 1_555
C10A C9 1_555 1_555
C12A C10A 1_555 1_555
C9A C10 1_555 1_555
H3A C9A 1_555 1_555
C11A C12A 1_555 1_555
C7A C11A 1_555 1_555
N1A C7A 1_555 1_555
C8A C11A 1_555 1_555
N2A C8A 1_555 1_555
H4A C10A 1_555 1_555
Se2 C6 1_555 1_555
C2 C5 1_555 1_555
C2A C4A 1_555 1_555
C4A Se2A 1_555 1_555
C12A C9A 1_555 1_555

#END
