
#######################################################################
#
#                 Cambridge Crystallographic Data Centre
#                                CCDC 
#
#######################################################################
#
# If this CIF has been generated from an entry in the Cambridge 
# Structural Database, then it will include bibliographic, chemical, 
# crystal, experimental, refinement or atomic coordinate data resulting 
# from the CCDC's data processing and validation procedures.
#
#######################################################################

data_HOBNAP
_chemical_formula_moiety         'C17 H29 Li1 N4'
_chemical_name_systematic        
(2-t-Butyl-1H-pyrrolo[2,3-b]pyridinato)-(N,N,N',N'-tetramethylethane-1,2-diamine)-lithium
_symmetry_cell_setting           monoclinic
_symmetry_space_group_name_H-M   'P 21/n'
_symmetry_Int_Tables_number      14
_space_group_name_Hall           '-P 2yn'
loop_
_symmetry_equiv_pos_site_id
_symmetry_equiv_pos_as_xyz
1 x,y,z
2 1/2-x,1/2+y,1/2-z
3 -x,-y,-z
4 1/2+x,1/2-y,1/2+z
_cell_length_a                   10.0911(2)
_cell_length_b                   11.6290(2)
_cell_length_c                   15.4981(2)
_cell_angle_alpha                90
_cell_angle_beta                 96.821(1)
_cell_angle_gamma                90
_cell_volume                     1805.82
_exptl_crystal_colour            colorless
_exptl_crystal_description       prism
_cell_formula_units_Z            4
loop_
_atom_site_label
_atom_site_type_symbol
_atom_site_fract_x
_atom_site_fract_y
_atom_site_fract_z
C1 C 1.02809(13) 0.39448(11) 0.19047(8)
C2 C 1.01126(13) 0.39389(11) 0.10030(8)
H1 H 1.0796 0.3936 0.0631
C3 C 0.87162(13) 0.39386(11) 0.07490(8)
C4 C 0.81512(13) 0.39426(11) 0.15511(8)
C5 C 0.78271(14) 0.39360(11) -0.00094(9)
H2 H 0.8138 0.3927 -0.0564
C6 C 0.64753(14) 0.39468(12) 0.00697(9)
H3 H 0.5846 0.3951 -0.0438
C7 C 0.60283(14) 0.39515(12) 0.08870(9)
H4 H 0.5092 0.3957 0.0913
C8 C 1.15822(14) 0.39861(13) 0.25024(9)
C9 C 1.15773(16) 0.30687(17) 0.32064(11)
H5 H 1.0835 0.3212 0.3547
H6 H 1.2422 0.3097 0.3590
H7 H 1.1471 0.2308 0.2935
C10 C 1.17184(16) 0.51761(16) 0.29244(12)
H8 H 1.1713 0.5765 0.2472
H9 H 1.2559 0.5218 0.3311
H10 H 1.0970 0.5308 0.3261
C11 C 1.27662(14) 0.37848(15) 0.19936(11)
H11 H 1.2687 0.3024 0.1720
H12 H 1.3597 0.3824 0.2390
H13 H 1.2775 0.4377 0.1544
C12 C 0.8245(2) 0.59795(16) 0.41198(13)
H14 H 0.8504 0.6421 0.3628
H15 H 0.9005 0.5519 0.4376
H16 H 0.7971 0.6508 0.4558
C13 C 0.6030(2) 0.59118(17) 0.34139(17)
H17 H 0.5738 0.6442 0.3845
H18 H 0.5287 0.5409 0.3193
H19 H 0.6323 0.6352 0.2932
C14 C 0.80344(18) 0.20823(16) 0.42455(12)
H20 H 0.7719 0.1600 0.4698
H21 H 0.8721 0.2612 0.4510
H22 H 0.8412 0.1593 0.3821
C15 C 0.59254(17) 0.19343(15) 0.34015(13)
H23 H 0.6342 0.1424 0.3009
H24 H 0.5199 0.2364 0.3071
H25 H 0.5567 0.1476 0.3851
Li1 Li 0.7566(2) 0.3942(2) 0.29639(15)
N1 N 0.90920(11) 0.39444(9) 0.22538(7)
N2 N 0.68358(11) 0.39489(10) 0.16356(7)
N3 N 0.71316(15) 0.52180(11) 0.38170(9)
N4 N 0.69197(13) 0.27385(10) 0.38095(8)
C16 C 0.6940(3) 0.45420(18) 0.46190(12)
H26 H 0.6466 0.5017 0.5015
H27 H 0.7818 0.4323 0.4929
C17 C 0.6135(3) 0.3474(2) 0.4360(2)
H28 H 0.5953 0.3045 0.4885
H29 H 0.5271 0.3689 0.4029
C18? C 0.6129(5) 0.4590(4) 0.4287(4)
H30? H 0.5304 0.4436 0.3892
H31? H 0.5898 0.5047 0.4787
C19? C 0.6800(7) 0.3476(4) 0.4593(2)
H32? H 0.7696 0.3633 0.4905
H33? H 0.6263 0.3075 0.4996
loop_
_geom_bond_atom_site_label_1
_geom_bond_atom_site_label_2
_geom_bond_site_symmetry_1
_geom_bond_site_symmetry_2
C1 C2 1_555 1_555
C2 H1 1_555 1_555
C3 C2 1_555 1_555
C4 C3 1_555 1_555
C5 C3 1_555 1_555
H2 C5 1_555 1_555
C6 C5 1_555 1_555
H3 C6 1_555 1_555
C7 C6 1_555 1_555
H4 C7 1_555 1_555
C8 C1 1_555 1_555
C9 C8 1_555 1_555
H5 C9 1_555 1_555
H6 C9 1_555 1_555
H7 C9 1_555 1_555
C10 C8 1_555 1_555
H8 C10 1_555 1_555
H9 C10 1_555 1_555
H10 C10 1_555 1_555
C11 C8 1_555 1_555
H11 C11 1_555 1_555
H12 C11 1_555 1_555
H13 C11 1_555 1_555
C12 H14 1_555 1_555
H15 C12 1_555 1_555
H16 C12 1_555 1_555
C13 H17 1_555 1_555
H18 C13 1_555 1_555
H19 C13 1_555 1_555
C14 H20 1_555 1_555
H21 C14 1_555 1_555
H22 C14 1_555 1_555
C15 H23 1_555 1_555
H24 C15 1_555 1_555
H25 C15 1_555 1_555
Li1 N1 1_555 1_555
N1 C1 1_555 1_555
N2 C4 1_555 1_555
N3 C12 1_555 1_555
N4 C14 1_555 1_555
C16 N3 1_555 1_555
H26 C16 1_555 1_555
H27 C16 1_555 1_555
C17 N4 1_555 1_555
H28 C17 1_555 1_555
H29 C17 1_555 1_555
C4 N1 1_555 1_555
C7 N2 1_555 1_555
C13 N3 1_555 1_555
C15 N4 1_555 1_555
Li1 N2 1_555 1_555
Li1 N3 1_555 1_555
Li1 N4 1_555 1_555
C16 C17 1_555 1_555

#END
