
#######################################################################
#
#                 Cambridge Crystallographic Data Centre
#                                CCDC 
#
#######################################################################
#
# If this CIF has been generated from an entry in the Cambridge 
# Structural Database, then it will include bibliographic, chemical, 
# crystal, experimental, refinement or atomic coordinate data resulting 
# from the CCDC's data processing and validation procedures.
#
#######################################################################

data_HOBNER
_chemical_formula_moiety         'C6 H14 N4,4(H2 O1)'
_chemical_name_systematic        'trans-1,3,5,7-Tetra-azadecalin tetrahydrate'
_symmetry_cell_setting           monoclinic
_symmetry_space_group_name_H-M   'P 21/c'
_symmetry_Int_Tables_number      14
_space_group_name_Hall           '-P 2ybc'
loop_
_symmetry_equiv_pos_site_id
_symmetry_equiv_pos_as_xyz
1 x,y,z
2 -x,1/2+y,1/2-z
3 -x,-y,-z
4 x,1/2-y,1/2+z
_cell_length_a                   6.020(3)
_cell_length_b                   8.730(1)
_cell_length_c                   11.667(2)
_cell_angle_alpha                90
_cell_angle_beta                 102.58(2)
_cell_angle_gamma                90
_cell_volume                     598.434
_exptl_crystal_colour            colorless
_chemical_melting_point          35-37deg.C
_cell_formula_units_Z            2
_exptl_crystal_recrystallization_method isopropanol/benzene
loop_
_atom_site_label
_atom_site_type_symbol
_atom_site_fract_x
_atom_site_fract_y
_atom_site_fract_z
N1 N 0.4669(1) 0.1615(1) 0.6030(1)
C1 C 0.5291(2) 0.2867(1) 0.5311(1)
N2 N 0.7085(1) 0.2498(1) 0.4686(1)
C2 C 0.6550(2) 0.1099(1) 0.3979(1)
C3 C 0.4048(1) 0.0236(1) 0.5306(1)
H1 H 0.5878 0.1415 0.6655
H2 H 0.3940 0.3173 0.4740
H3 H 0.5781 0.3739 0.5818
H4 H 0.8400 0.2396 0.5274
H5 H 0.5280 0.1300 0.3327
H6 H 0.7851 0.0821 0.3657
H7 H 0.2698 0.0480 0.4696
C3B C 0.5952(1) -0.0236(1) 0.4694(1)
N1B N 0.5331(1) -0.1615(1) 0.3970(1)
C1B C 0.4709(2) -0.2867(1) 0.4689(1)
N2B N 0.2915(1) -0.2498(1) 0.5314(1)
C2B C 0.3450(2) -0.1099(1) 0.6021(1)
H7B H 0.7302 -0.0480 0.5304
H5B H 0.4720 -0.1300 0.6673
H6B H 0.2149 -0.0821 0.6343
H4B H 0.1600 -0.2396 0.4726
H2B H 0.6060 -0.3173 0.5260
H3B H 0.4219 -0.3739 0.4182
H1B H 0.4122 -0.1415 0.3345
O1 O 0.8724(1) 0.0766(1) 0.8040(1)
H8 H 0.8805 -0.0310 0.8123
H9 H 0.8144 0.1104 0.8679
O2 O 0.9067(1) -0.2341(1) 0.8191(1)
H10 H 0.7786 -0.2644 0.8460
H11 H 0.9448 -0.3068 0.7670
loop_
_geom_bond_atom_site_label_1
_geom_bond_atom_site_label_2
_geom_bond_site_symmetry_1
_geom_bond_site_symmetry_2
N1 C1 1_555 1_555
C1 N2 1_555 1_555
N2 C2 1_555 1_555
C2 H5 1_555 1_555
C3 N1 1_555 1_555
O1 H8 1_555 1_555
O2 H10 1_555 1_555
H1 N1 1_555 1_555
H2 C1 1_555 1_555
H3 C1 1_555 1_555
H4 N2 1_555 1_555
H6 C2 1_555 1_555
H7 C3 1_555 1_555
H9 O1 1_555 1_555
H11 O2 1_555 1_555
C3B C2 1_555 1_555
N1B C3B 1_555 1_555
C1B N1B 1_555 1_555
N2B C1B 1_555 1_555
C2B C3 1_555 1_555
H7B C3B 1_555 1_555
H5B C2B 1_555 1_555
H6B C2B 1_555 1_555
H4B N2B 1_555 1_555
H2B C1B 1_555 1_555
H3B C1B 1_555 1_555
H1B N1B 1_555 1_555
C3 C3B 1_555 1_555
N2B C2B 1_555 1_555

#END
