
#######################################################################
#
#                 Cambridge Crystallographic Data Centre
#                                CCDC 
#
#######################################################################
#
# If this CIF has been generated from an entry in the Cambridge 
# Structural Database, then it will include bibliographic, chemical, 
# crystal, experimental, refinement or atomic coordinate data resulting 
# from the CCDC's data processing and validation procedures.
#
#######################################################################

data_HOBNIV
_chemical_formula_moiety         'C14 H22 N4 O4'
_chemical_name_systematic        
1,3,5,7-Tetra-acetyl-trans-1,3,5,7-tetra-azadecalin
_symmetry_cell_setting           monoclinic
_symmetry_space_group_name_H-M   'C 2/c'
_symmetry_Int_Tables_number      15
_space_group_name_Hall           '-C 2yn'
loop_
_symmetry_equiv_pos_site_id
_symmetry_equiv_pos_as_xyz
1 x,y,z
2 -x,y,1/2-z
3 1/2+x,1/2+y,z
4 1/2-x,1/2+y,1/2-z
5 -x,-y,-z
6 x,-y,1/2+z
7 1/2-x,1/2-y,-z
8 1/2+x,1/2-y,1/2+z
_cell_length_a                   15.595(2)
_cell_length_b                   5.489(1)
_cell_length_c                   17.876(2)
_cell_angle_alpha                90
_cell_angle_beta                 92.49(1)
_cell_angle_gamma                90
_cell_volume                     1528.76
_exptl_crystal_colour            colorless
_chemical_melting_point          223-225deg.C(dec.)
_cell_formula_units_Z            4
_exptl_crystal_recrystallization_method 'dichloromethane/petroleum ether'
loop_
_atom_site_label
_atom_site_type_symbol
_atom_site_fract_x
_atom_site_fract_y
_atom_site_fract_z
N1 N 0.6880(1) 0.3653(2) 0.4152(1)
C1 C 0.7091(1) 0.3279(2) 0.4956(1)
C2 C 0.6347(1) 0.2070(3) 0.5341(1)
N2 N 0.6636(1) 0.1378(2) 0.6107(1)
C3 C 0.7519(1) 0.2746(2) 0.3644(1)
C4 C 0.6331(1) 0.5522(2) 0.3966(1)
C5 C 0.6165(1) 0.6122(3) 0.3151(1)
O1 O 0.5973(1) 0.6634(2) 0.4453(1)
C6 C 0.6263(1) -0.0433(3) 0.6493(1)
C7 C 0.5416(1) -0.1381(3) 0.6187(1)
O2 O 0.6596(1) -0.1226(3) 0.7075(1)
H1 H 0.7203 0.4868 0.5190
H2 H 0.5867 0.3191 0.5357
H3 H 0.6159 0.0635 0.5062
H4 H 0.7382 0.3311 0.3139
H5 H 0.7515 0.0979 0.3641
H6 H 0.6130 0.4642 0.2866
H7 H 0.6626 0.7108 0.2980
H8 H 0.5634 0.6998 0.3089
H9 H 0.5507 -0.2419 0.5766
H10 H 0.5056 -0.0038 0.6032
H11 H 0.5143 -0.2291 0.6569
C1F C 0.7909(1) 0.1721(2) 0.5044(1)
N1F N 0.8120(1) 0.1347(2) 0.5848(1)
C3F C 0.7481(1) 0.2254(2) 0.6356(1)
H4F H 0.7618 0.1689 0.6861
H5F H 0.7485 0.4021 0.6359
C4F C 0.8669(1) -0.0522(2) 0.6034(1)
C5F C 0.8835(1) -0.1122(3) 0.6849(1)
H6F H 0.8870 0.0358 0.7134
H7F H 0.8374 -0.2108 0.7020
H8F H 0.9366 -0.1998 0.6911
O1F O 0.9027(1) -0.1634(2) 0.5547(1)
C2F C 0.8653(1) 0.2930(3) 0.4659(1)
N2F N 0.8364(1) 0.3622(2) 0.3893(1)
C6F C 0.8737(1) 0.5433(3) 0.3507(1)
C7F C 0.9584(1) 0.6381(3) 0.3813(1)
H9F H 0.9493 0.7419 0.4234
H10F H 0.9944 0.5038 0.3968
H11F H 0.9857 0.7291 0.3431
O2F O 0.8404(1) 0.6226(3) 0.2925(1)
H2F H 0.9133 0.1809 0.4643
H3F H 0.8841 0.4365 0.4938
H1F H 0.7797 0.0132 0.4810
loop_
_geom_bond_atom_site_label_1
_geom_bond_atom_site_label_2
_geom_bond_site_symmetry_1
_geom_bond_site_symmetry_2
N1 C1 1_555 1_555
C1 C2 1_555 1_555
C2 N2 1_555 1_555
N2 C6 1_555 1_555
C3 N1 1_555 1_555
C4 N1 1_555 1_555
C5 C4 1_555 1_555
O1 C4 1_555 1_555
C6 C7 1_555 1_555
C7 H9 1_555 1_555
O2 C6 1_555 1_555
H1 C1 1_555 1_555
H2 C2 1_555 1_555
H3 C2 1_555 1_555
H4 C3 1_555 1_555
H5 C3 1_555 1_555
H6 C5 1_555 1_555
H7 C5 1_555 1_555
H8 C5 1_555 1_555
H10 C7 1_555 1_555
H11 C7 1_555 1_555
C1F C1 1_555 1_555
N1F C1F 1_555 1_555
C3F N2 1_555 1_555
H4F C3F 1_555 1_555
H5F C3F 1_555 1_555
C4F N1F 1_555 1_555
C5F C4F 1_555 1_555
H6F C5F 1_555 1_555
H7F C5F 1_555 1_555
H8F C5F 1_555 1_555
O1F C4F 1_555 1_555
C2F C1F 1_555 1_555
N2F C3 1_555 1_555
C6F N2F 1_555 1_555
C7F C6F 1_555 1_555
H9F C7F 1_555 1_555
H10F C7F 1_555 1_555
H11F C7F 1_555 1_555
O2F C6F 1_555 1_555
H2F C2F 1_555 1_555
H3F C2F 1_555 1_555
H1F C1F 1_555 1_555
N1F C3F 1_555 1_555
C2F N2F 1_555 1_555

#END
