
#######################################################################
#
#                 Cambridge Crystallographic Data Centre
#                                CCDC 
#
#######################################################################
#
# If this CIF has been generated from an entry in the Cambridge 
# Structural Database, then it will include bibliographic, chemical, 
# crystal, experimental, refinement or atomic coordinate data resulting 
# from the CCDC's data processing and validation procedures.
#
#######################################################################

data_HOBQAS
_chemical_formula_moiety         'C15 H16 N4 O2'
_chemical_name_systematic        
N-(2-(Morpholin-4-yl)phenyl)pyrimidine-4-carboxamide
_symmetry_cell_setting           monoclinic
_symmetry_space_group_name_H-M   'P 21/c'
_symmetry_Int_Tables_number      14
_space_group_name_Hall           '-P 2ybc'
loop_
_symmetry_equiv_pos_site_id
_symmetry_equiv_pos_as_xyz
1 x,y,z
2 -x,1/2+y,1/2-z
3 -x,-y,-z
4 x,1/2-y,1/2+z
_cell_length_a                   9.522(3)
_cell_length_b                   15.626(4)
_cell_length_c                   19.401(5)
_cell_angle_alpha                90
_cell_angle_beta                 92.289(5)
_cell_angle_gamma                90
_cell_volume                     2884.39
_exptl_crystal_colour            colorless
_exptl_crystal_description       block
_cell_formula_units_Z            8
loop_
_atom_site_label
_atom_site_type_symbol
_atom_site_fract_x
_atom_site_fract_y
_atom_site_fract_z
N1 N 0.3634(3) 0.3605(2) 0.13268(15)
N2 N 0.2979(3) 0.3879(3) 0.26354(16)
N3 N 0.5525(3) 0.3964(3) 0.32374(17)
N4 N 0.7084(4) 0.3933(3) 0.4227(2)
O1 O 0.6118(3) 0.3853(2) 0.05955(19)
O2 O 0.1948(3) 0.4116(2) 0.36510(14)
C1 C 0.3997(4) 0.4442(3) 0.1066(3)
H1 H 0.3682 0.4882 0.1377
H2 H 0.3534 0.4534 0.0618
C2 C 0.5573(5) 0.4499(3) 0.1006(3)
H3 H 0.5806 0.5051 0.0812
H4 H 0.6018 0.4465 0.1464
C3 C 0.5744(5) 0.3052(3) 0.0840(3)
H5 H 0.6167 0.2969 0.1298
H6 H 0.6108 0.2613 0.0542
C4 C 0.4167(4) 0.2956(3) 0.0868(3)
H7 H 0.3736 0.3023 0.0410
H8 H 0.3936 0.2391 0.1036
C5 C 0.2183(3) 0.3546(3) 0.14824(17)
C6 C 0.1114(4) 0.3341(3) 0.1011(2)
H9 H 0.1329 0.3212 0.0559
C7 C -0.0280(4) 0.3324(3) 0.1197(2)
H10 H -0.0992 0.3192 0.0872
C8 C -0.0597(4) 0.3504(3) 0.1869(2)
H11 H -0.1527 0.3486 0.1997
C9 C 0.0441(4) 0.3709(3) 0.2349(2)
H12 H 0.0209 0.3844 0.2798
C10 C 0.1839(4) 0.3715(3) 0.21693(18)
C11 C 0.2989(4) 0.4028(3) 0.33119(18)
C12 C 0.4440(4) 0.4033(3) 0.36470(18)
C13 C 0.4623(5) 0.4070(3) 0.4360(2)
H13 H 0.3871 0.4129 0.4648
C14 C 0.5992(5) 0.4014(3) 0.4612(2)
H14 H 0.6153 0.4034 0.5088
C15 C 0.6792(5) 0.3922(4) 0.3550(2)
H15 H 0.7553 0.3880 0.3266
H16 H 0.379(5) 0.388(3) 0.248(2)
N5 N 0.9191(3) 0.1471(2) 0.35938(15)
N6 N 0.8310(3) 0.1245(3) 0.22818(16)
N7 N 1.0757(3) 0.1058(2) 0.16899(16)
N8 N 1.2172(4) 0.0982(3) 0.0702(2)
O3 O 1.1825(3) 0.1319(2) 0.42957(17)
O4 O 0.7125(3) 0.1138(3) 0.12475(15)
C16 C 0.9609(4) 0.0682(3) 0.3929(3)
H17 H 0.9206 0.0200 0.3676
H18 H 0.9265 0.0670 0.4393
C17 C 1.1193(5) 0.0616(3) 0.3957(3)
H19 H 1.1472 0.0094 0.4195
H20 H 1.1522 0.0583 0.3491
C18 C 1.1407(4) 0.2086(3) 0.3984(3)
H21 H 1.1727 0.2101 0.3516
H22 H 1.1839 0.2561 0.4235
C19 C 0.9826(4) 0.2186(3) 0.3971(3)
H23 H 0.9501 0.2195 0.4438
H24 H 0.9557 0.2720 0.3748
C20 C 0.7704(3) 0.1531(3) 0.34385(18)
C21 C 0.6727(4) 0.1693(3) 0.3925(2)
H25 H 0.7023 0.1779 0.4382
C22 C 0.5307(4) 0.1729(3) 0.3742(2)
H26 H 0.4651 0.1837 0.4074
C23 C 0.4880(4) 0.1605(3) 0.3066(3)
H27 H 0.3928 0.1633 0.2941
C24 C 0.5829(4) 0.1441(3) 0.2570(2)
H28 H 0.5518 0.1353 0.2115
C25 C 0.7258(4) 0.1404(3) 0.27476(19)
C26 C 0.8214(4) 0.1149(3) 0.15971(19)
C27 C 0.9610(4) 0.1066(3) 0.12687(18)
C28 C 0.9689(5) 0.1014(3) 0.0564(2)
H29 H 0.8886 0.1007 0.0274
C29 C 1.1011(5) 0.0974(3) 0.0310(2)
H30 H 1.1092 0.0939 -0.0166
C30 C 1.1975(5) 0.1020(3) 0.1379(2)
H31 H 1.2781 0.1018 0.1666
H32 H 0.911(5) 0.126(3) 0.244(2)
loop_
_geom_bond_atom_site_label_1
_geom_bond_atom_site_label_2
_geom_bond_site_symmetry_1
_geom_bond_site_symmetry_2
N1 C1 1_555 1_555
N2 C10 1_555 1_555
N3 C12 1_555 1_555
N4 C14 1_555 1_555
O1 C2 1_555 1_555
O2 C11 1_555 1_555
C1 H1 1_555 1_555
H2 C1 1_555 1_555
C2 C1 1_555 1_555
H3 C2 1_555 1_555
H4 C2 1_555 1_555
C3 O1 1_555 1_555
H5 C3 1_555 1_555
H6 C3 1_555 1_555
C4 N1 1_555 1_555
H7 C4 1_555 1_555
H8 C4 1_555 1_555
C5 N1 1_555 1_555
C6 C5 1_555 1_555
H9 C6 1_555 1_555
C7 C6 1_555 1_555
H10 C7 1_555 1_555
C8 C7 1_555 1_555
H11 C8 1_555 1_555
C9 C8 1_555 1_555
H12 C9 1_555 1_555
C10 C5 1_555 1_555
C11 N2 1_555 1_555
C12 C11 1_555 1_555
C13 C12 1_555 1_555
H13 C13 1_555 1_555
C14 C13 1_555 1_555
H14 C14 1_555 1_555
C15 N3 1_555 1_555
H15 C15 1_555 1_555
H16 N2 1_555 1_555
N5 C16 1_555 1_555
N6 C25 1_555 1_555
N7 C27 1_555 1_555
N8 C29 1_555 1_555
O3 C17 1_555 1_555
O4 C26 1_555 1_555
C16 H17 1_555 1_555
H18 C16 1_555 1_555
C17 C16 1_555 1_555
H19 C17 1_555 1_555
H20 C17 1_555 1_555
C18 O3 1_555 1_555
H21 C18 1_555 1_555
H22 C18 1_555 1_555
C19 N5 1_555 1_555
H23 C19 1_555 1_555
H24 C19 1_555 1_555
C20 N5 1_555 1_555
C21 C20 1_555 1_555
H25 C21 1_555 1_555
C22 C21 1_555 1_555
H26 C22 1_555 1_555
C23 C22 1_555 1_555
H27 C23 1_555 1_555
C24 C23 1_555 1_555
H28 C24 1_555 1_555
C25 C20 1_555 1_555
C26 N6 1_555 1_555
C27 C26 1_555 1_555
C28 C27 1_555 1_555
H29 C28 1_555 1_555
C29 C28 1_555 1_555
H30 C29 1_555 1_555
C30 N7 1_555 1_555
H31 C30 1_555 1_555
H32 N6 1_555 1_555
N4 C15 1_555 1_555
C3 C4 1_555 1_555
C9 C10 1_555 1_555
N8 C30 1_555 1_555
C18 C19 1_555 1_555
C24 C25 1_555 1_555

#END
