
#######################################################################
#
#                 Cambridge Crystallographic Data Centre
#                                CCDC 
#
#######################################################################
#
# If this CIF has been generated from an entry in the Cambridge 
# Structural Database, then it will include bibliographic, chemical, 
# crystal, experimental, refinement or atomic coordinate data resulting 
# from the CCDC's data processing and validation procedures.
#
#######################################################################

data_HOBQEW
_chemical_formula_moiety         'C16 H17 N3 O2'
_chemical_name_systematic        
N-(2-(Morpholin-4-yl)phenyl)pyridine-2-carboxamide
_symmetry_cell_setting           orthorhombic
_symmetry_space_group_name_H-M   'P 21 21 21'
_symmetry_Int_Tables_number      19
_space_group_name_Hall           'P 2ac 2ab'
loop_
_symmetry_equiv_pos_site_id
_symmetry_equiv_pos_as_xyz
1 x,y,z
2 1/2-x,-y,1/2+z
3 -x,1/2+y,1/2-z
4 1/2+x,1/2-y,-z
_cell_length_a                   7.407(2)
_cell_length_b                   11.200(3)
_cell_length_c                   17.505(5)
_cell_angle_alpha                90
_cell_angle_beta                 90
_cell_angle_gamma                90
_cell_volume                     1452.19
_exptl_crystal_colour            colorless
_exptl_crystal_description       block
_cell_formula_units_Z            4
loop_
_atom_site_label
_atom_site_type_symbol
_atom_site_fract_x
_atom_site_fract_y
_atom_site_fract_z
C1 C 0.1637(2) 0.69616(17) 0.60395(12)
H1 H 0.1950 0.7510 0.5632
H2 H 0.1132 0.7420 0.6459
C2 C 0.0267(3) 0.6071(2) 0.57570(13)
H3 H -0.0091 0.5556 0.6176
H4 H -0.0797 0.6493 0.5580
C3 C 0.2520(3) 0.47463(18) 0.54123(12)
H5 H 0.2985 0.4257 0.5000
H6 H 0.2195 0.4222 0.5831
C4 C 0.3960(3) 0.55990(17) 0.56721(11)
H7 H 0.5012 0.5158 0.5843
H8 H 0.4320 0.6109 0.5251
C5 C 0.4532(2) 0.70809(13) 0.66718(9)
C6 C 0.6035(2) 0.75601(16) 0.63188(11)
H9 H 0.6248 0.7388 0.5807
C7 C 0.7229(3) 0.82872(17) 0.67061(12)
H10 H 0.8226 0.8605 0.6455
C8 C 0.6937(2) 0.85395(15) 0.74656(12)
H11 H 0.7741 0.9026 0.7729
C9 C 0.5453(2) 0.80710(15) 0.78369(10)
H12 H 0.5266 0.8241 0.8351
C10 C 0.4239(2) 0.73485(13) 0.74488(9)
C11 C 0.1828(2) 0.71562(16) 0.84293(10)
C12 C 0.0073(2) 0.64973(14) 0.85377(9)
C13 C -0.0912(3) 0.66468(17) 0.92053(10)
H13 H -0.0507 0.7153 0.9590
C14 C -0.2504(3) 0.60257(18) 0.92816(12)
H14 H -0.3188 0.6093 0.9725
C15 C -0.3066(3) 0.53102(19) 0.86985(15)
H15 H -0.4142 0.4887 0.8737
C16 C -0.2013(3) 0.52214(18) 0.80478(14)
H16 H -0.2420 0.4744 0.7649
H17 H 0.213(3) 0.6313(18) 0.7523(13)
N1 N 0.2695(2) 0.68455(13) 0.77847(8)
N2 N 0.32544(17) 0.63251(11) 0.62976(7)
N3 N -0.0444(2) 0.57883(13) 0.79665(9)
O1 O 0.2342(2) 0.79121(16) 0.88826(9)
O2 O 0.0959(2) 0.53685(14) 0.51575(7)
loop_
_geom_bond_atom_site_label_1
_geom_bond_atom_site_label_2
_geom_bond_site_symmetry_1
_geom_bond_site_symmetry_2
C1 H1 1_555 1_555
H2 C1 1_555 1_555
C2 C1 1_555 1_555
H3 C2 1_555 1_555
H4 C2 1_555 1_555
C3 H5 1_555 1_555
H6 C3 1_555 1_555
C4 C3 1_555 1_555
H7 C4 1_555 1_555
H8 C4 1_555 1_555
C5 C6 1_555 1_555
C6 H9 1_555 1_555
C7 C6 1_555 1_555
H10 C7 1_555 1_555
C8 C7 1_555 1_555
H11 C8 1_555 1_555
C9 C8 1_555 1_555
H12 C9 1_555 1_555
C10 C5 1_555 1_555
C11 C12 1_555 1_555
C12 C13 1_555 1_555
C13 H13 1_555 1_555
C14 C13 1_555 1_555
H14 C14 1_555 1_555
C15 C14 1_555 1_555
H15 C15 1_555 1_555
C16 C15 1_555 1_555
H16 C16 1_555 1_555
H17 N1 1_555 1_555
N1 C10 1_555 1_555
N2 C1 1_555 1_555
N3 C12 1_555 1_555
O1 C11 1_555 1_555
O2 C2 1_555 1_555
C3 O2 1_555 1_555
C4 N2 1_555 1_555
C5 N2 1_555 1_555
C9 C10 1_555 1_555
C11 N1 1_555 1_555
C16 N3 1_555 1_555

#END
