
#######################################################################
#
#                 Cambridge Crystallographic Data Centre
#                                CCDC 
#
#######################################################################
#
# If this CIF has been generated from an entry in the Cambridge 
# Structural Database, then it will include bibliographic, chemical, 
# crystal, experimental, refinement or atomic coordinate data resulting 
# from the CCDC's data processing and validation procedures.
#
#######################################################################

data_HOBTOJ
_chemical_formula_moiety         'C68 H84 N4 S24,C18 H14 N4 O12,3(C1 H2 Cl2)'
_chemical_name_systematic        
'6,14,22,30-tetrakis(4,5-bis(propylsulfanyl)-1,3-dithiol-2-ylidene)-2,2,10,10,18,18,26,26-octamethyl-5,7,13,15,21,23,29,31-octathia-33,34,35,36-tetraazanonacyclo[25.5.1.1^3,9^.1^11,17^.1^19,25^.0^4,8^.0^12,16^.0^20,24^.0^28,32^]hexatriaconta-1(32),3,8,11,16,19,24,27-octaene butane-1,4-diyl bis(3,5-dinitrobenzoate) dichloromethane solvate'
_symmetry_cell_setting           triclinic
_symmetry_space_group_name_H-M   'P -1'
_symmetry_Int_Tables_number      2
_space_group_name_Hall           '-P 1'
loop_
_symmetry_equiv_pos_site_id
_symmetry_equiv_pos_as_xyz
1 x,y,z
2 -x,-y,-z
_cell_length_a                   17.3624(12)
_cell_length_b                   17.5374(13)
_cell_length_c                   21.322(2)
_cell_angle_alpha                103.499(8)
_cell_angle_beta                 108.269(9)
_cell_angle_gamma                107.023(8)
_cell_volume                     5503.95
_exptl_crystal_colour            black
_exptl_crystal_description       prism
_cell_formula_units_Z            2
_chemical_properties_physical    Light-sensitive
loop_
_atom_site_label
_atom_site_type_symbol
_atom_site_fract_x
_atom_site_fract_y
_atom_site_fract_z
S1 S 0.42989(17) -0.08385(16) 0.23136(13)
S2 S 0.48734(16) -0.04723(15) 0.11928(13)
S3 S 0.55650(19) -0.17659(18) 0.26729(14)
S4 S 0.62833(17) -0.13965(17) 0.16417(13)
S5 S 0.6875(2) -0.2513(2) 0.32511(16)
S6 S 0.77331(18) -0.20049(18) 0.21563(15)
S7 S 0.31274(16) 0.27097(16) 0.04286(13)
S8 S 0.46071(16) 0.43700(16) 0.14646(13)
S9 S 0.19141(17) 0.38459(18) 0.00571(14)
S10 S 0.34547(18) 0.53831(17) 0.11289(15)
S11 S 0.0873(2) 0.4885(2) -0.03992(17)
S12 S 0.2649(2) 0.6595(2) 0.08025(17)
S13 S 0.80066(16) 0.32007(16) 0.34533(13)
S14 S 0.74960(16) 0.29103(16) 0.46291(13)
S15 S 0.94852(16) 0.25085(16) 0.38887(13)
S16 S 0.90283(16) 0.21491(17) 0.50439(13)
S17 S 1.07849(16) 0.17020(16) 0.40582(13)
S18 S 1.03550(17) 0.13337(18) 0.53900(14)
S19 S 0.34119(15) 0.36155(15) 0.39933(13)
S20 S 0.19944(16) 0.19208(16) 0.29969(13)
S21 S 0.19988(17) 0.44893(17) 0.36471(14)
S22 S 0.06053(16) 0.28166(17) 0.26730(14)
S23 S 0.0966(2) 0.5474(2) 0.3133(2)
S24 S -0.0679(2) 0.3579(2) 0.21022(17)
N1 N 0.3502(5) 0.0832(5) 0.1680(4)
H1 H 0.3222 0.1176 0.1652
N2 N 0.5203(5) 0.2407(5) 0.1585(4)
H2 H 0.5532 0.2134 0.1735
N3 N 0.5863(5) 0.3599(5) 0.3370(4)
H3 H 0.5410 0.3736 0.3209
N4 N 0.4367(5) 0.1898(5) 0.3497(4)
H4 H 0.4766 0.1680 0.3511
C1 C 0.3551(6) 0.0408(6) 0.2144(5)
C2 C 0.4023(7) -0.0072(6) 0.2016(5)
C3 C 0.4278(6) 0.0096(6) 0.1468(5)
C4 C 0.3940(6) 0.0660(6) 0.1261(5)
C5 C 0.3939(7) 0.1055(6) 0.0704(5)
C6 C 0.4355(6) 0.2006(6) 0.1064(5)
C7 C 0.4086(6) 0.2661(6) 0.0991(5)
C8 C 0.4772(7) 0.3439(6) 0.1479(5)
C9 C 0.5481(6) 0.3286(6) 0.1845(5)
C10 C 0.6382(6) 0.3840(6) 0.2421(5)
C11 C 0.6468(6) 0.3593(6) 0.3068(5)
C12 C 0.7053(6) 0.3335(6) 0.3461(5)
C13 C 0.6803(6) 0.3192(6) 0.4017(4)
C14 C 0.6066(6) 0.3366(6) 0.3946(5)
C15 C 0.5496(7) 0.3332(6) 0.4364(5)
C16 C 0.4561(6) 0.2731(6) 0.3873(5)
C17 C 0.3743(6) 0.2788(6) 0.3701(5)
C18 C 0.3085(6) 0.2007(6) 0.3228(5)
C19 C 0.3470(6) 0.1439(5) 0.3097(5)
C20 C 0.3121(6) 0.0511(6) 0.2654(5)
C21 C 0.3001(7) 0.0783(7) 0.0175(5)
H5 H 0.2675 0.1016 0.0411
H6 H 0.2711 0.0158 -0.0021
H7 H 0.3011 0.0998 -0.0209
C22 C 0.4473(7) 0.0762(7) 0.0311(5)
H8 H 0.4508 0.1053 -0.0026
H9 H 0.4179 0.0143 0.0056
H10 H 0.5070 0.0904 0.0654
C23 C 0.7085(7) 0.3707(7) 0.2157(5)
H11 H 0.7062 0.3130 0.2105
H12 H 0.7673 0.4127 0.2500
H13 H 0.6965 0.3780 0.1699
C24 C 0.6514(6) 0.4782(6) 0.2603(5)
H14 H 0.6413 0.4924 0.2174
H15 H 0.7118 0.5144 0.2954
H16 H 0.6094 0.4879 0.2797
C25 C 0.5856(7) 0.3033(7) 0.4968(5)
H17 H 0.5839 0.2461 0.4774
H18 H 0.5492 0.3015 0.5239
H19 H 0.6466 0.3431 0.5278
C26 C 0.5536(6) 0.4234(6) 0.4689(5)
H20 H 0.6149 0.4620 0.5006
H21 H 0.5169 0.4210 0.4958
H22 H 0.5317 0.4444 0.4311
C27 C 0.3300(7) -0.0002(6) 0.3125(6)
H23 H 0.3007 -0.0613 0.2837
H24 H 0.3071 0.0118 0.3486
H25 H 0.3938 0.0156 0.3355
C28 C 0.2108(6) 0.0171(6) 0.2219(5)
H26 H 0.1982 0.0531 0.1945
H27 H 0.1811 0.0184 0.2541
H28 H 0.1893 -0.0418 0.1896
C29 C 0.5004(7) -0.0883(6) 0.1883(5)
C30 C 0.5554(6) -0.1278(6) 0.2037(5)
C31 C 0.6484(8) -0.1992(7) 0.2691(6)
C32 C 0.6826(7) -0.1816(7) 0.2236(6)
C33 C 0.6332(7) -0.2428(7) 0.3837(6)
H29 H 0.5704 -0.2564 0.3554
H30 H 0.6351 -0.2865 0.4057
C34 C 0.6723(7) -0.1547(7) 0.4433(5)
H31 H 0.7374 -0.1346 0.4658
H32 H 0.6580 -0.1128 0.4228
C35 C 0.6360(10) -0.1595(10) 0.4984(7)
H33 H 0.5722 -0.1746 0.4771
H34 H 0.6648 -0.1040 0.5371
H35 H 0.6473 -0.2032 0.5169
C36 C 0.7189(7) -0.2926(7) 0.1338(6)
H36 H 0.6840 -0.2774 0.0958
H37 H 0.7646 -0.3059 0.1207
C37 C 0.6589(8) -0.3711(7) 0.1372(6)
H38 H 0.6114 -0.3593 0.1484
H39 H 0.6928 -0.3865 0.1756
C38 C 0.6187(9) -0.4445(8) 0.0684(7)
H40 H 0.5808 -0.4313 0.0312
H41 H 0.5832 -0.4961 0.0730
H42 H 0.6657 -0.4540 0.0559
C39 C 0.3511(7) 0.3820(6) 0.0824(5)
C40 C 0.3004(7) 0.4267(7) 0.0669(5)
C41 C 0.1849(7) 0.4847(7) 0.0119(6)
C42 C 0.2555(7) 0.5542(7) 0.0611(6)
C43 C 0.0608(9) 0.4156(10) -0.1275(7)
H43 H 0.0562 0.3589 -0.1248
H44 H 0.0023 0.4086 -0.1604
C44 C 0.1275(10) 0.4446(10) -0.1575(7)
H45 H 0.1868 0.4551 -0.1235
H46 H 0.1292 0.4992 -0.1638
C45 C 0.1056(13) 0.3787(13) -0.2287(8)
H47 H 0.1550 0.3956 -0.2425
H48 H 0.0522 0.3758 -0.2647
H49 H 0.0957 0.3226 -0.2243
C46 C 0.3643(8) 0.7053(7) 0.0681(6)
H50 H 0.3767 0.7663 0.0754
H51 H 0.4142 0.7029 0.1050
C47 C 0.3611(8) 0.6624(8) -0.0034(6)
H52 H 0.3465 0.6009 -0.0119
H53 H 0.3135 0.6672 -0.0405
C48 C 0.4457(11) 0.7000(12) -0.0094(8)
H54 H 0.4581 0.7597 -0.0048
H55 H 0.4414 0.6679 -0.0555
H56 H 0.4935 0.6972 0.0283
C49 C 0.8163(6) 0.2826(6) 0.4162(5)
C50 C 0.8783(7) 0.2509(6) 0.4331(5)
C51 C 0.9991(6) 0.1928(6) 0.4319(5)
C52 C 0.9790(6) 0.1778(6) 0.4856(5)
C53 C 1.1786(7) 0.2491(7) 0.4790(5)
H57 H 1.1855 0.2319 0.5208
H58 H 1.2292 0.2489 0.4671
C54 C 1.1829(7) 0.3392(7) 0.4990(6)
H59 H 1.1355 0.3411 0.5149
H60 H 1.1720 0.3556 0.4566
C55 C 1.2710(7) 0.4034(7) 0.5569(6)
H61 H 1.2791 0.3917 0.6008
H62 H 1.2724 0.4612 0.5646
H63 H 1.3187 0.3989 0.5430
C56 C 0.9546(7) 0.0762(7) 0.5679(6)
H64 H 0.8946 0.0594 0.5315
H65 H 0.9623 0.0230 0.5701
C57 C 0.9594(8) 0.1234(8) 0.6361(6)
H66 H 0.9487 0.1754 0.6339
H67 H 1.0195 0.1417 0.6730
C58 C 0.8928(10) 0.0702(10) 0.6562(8)
H68 H 0.8331 0.0558 0.6218
H69 H 0.9002 0.1025 0.7034
H70 H 0.9017 0.0176 0.6565
C59 C 0.2305(6) 0.3026(6) 0.3367(5)
C60 C 0.1730(6) 0.3402(6) 0.3247(5)
C61 C 0.1012(7) 0.4488(7) 0.3076(6)
C62 C 0.0386(6) 0.3731(7) 0.2634(6)
C63 C 0.0503(13) 0.5687(13) 0.3711(9)
H71 H 0.0547 0.6263 0.3791
H72 H 0.0864 0.5677 0.4152
C64 C -0.0357(14) 0.5196(13) 0.3555(11)
H73 H -0.0390 0.4638 0.3597
H74 H -0.0723 0.5085 0.3056
C65 C -0.0770(15) 0.5604(16) 0.4040(14)
H75 H -0.0622 0.5467 0.4471
H76 H -0.1414 0.5371 0.3782
H77 H -0.0530 0.6225 0.4166
C66 C -0.1040(8) 0.2625(8) 0.1364(6)
H78 H -0.0587 0.2665 0.1171
H79 H -0.1135 0.2125 0.1515
C67 C -0.1880(8) 0.2525(8) 0.0816(7)
H80 H -0.1753 0.2991 0.0628
H81 H -0.2286 0.2591 0.1042
C68 C -0.2336(9) 0.1691(9) 0.0211(8)
H82 H -0.1931 0.1605 -0.0004
H83 H -0.2856 0.1693 -0.0143
H84 H -0.2522 0.1227 0.0383
O1 O 0.1064(6) 0.1755(5) 0.0973(5)
O2 O 0.2410(6) 0.1794(5) 0.1514(4)
O3 O 0.4702(5) 0.4628(6) 0.3174(4)
O4 O 0.4343(6) 0.5713(6) 0.3356(5)
O5 O 0.0509(5) 0.4268(5) 0.1135(4)
O6 O 0.1543(6) 0.5510(5) 0.1778(5)
N5 N 0.4171(6) 0.4971(7) 0.3048(5)
N6 N 0.1259(6) 0.4740(6) 0.1559(5)
C71 C 0.3026(7) 0.3584(7) 0.2222(6)
H92 H 0.3433 0.3328 0.2358
C72 C 0.3277(7) 0.4446(7) 0.2522(6)
C73 C 0.2698(7) 0.4841(7) 0.2321(6)
H93 H 0.2873 0.5440 0.2529
C74 C 0.1866(7) 0.4326(7) 0.1808(6)
C75 C 0.1587(7) 0.3466(7) 0.1516(5)
H94 H 0.0997 0.3125 0.1179
C76 C 0.2182(7) 0.3094(7) 0.1721(5)
C77 C 0.1913(9) 0.2150(7) 0.1392(6)
C78 C 0.0835(12) 0.0954(9) 0.0795(8)
H95 H 0.0853 0.0801 0.1202
H96 H 0.1269 0.0819 0.0656
C79 C -0.0058(8) 0.0392(9) 0.0196(12)
H97 H -0.0218 0.0700 -0.0107
H98 H -0.0500 0.0234 0.0376
O1A O -0.1064(6) -0.1755(5) -0.0973(5)
O2A O -0.2410(6) -0.1794(5) -0.1514(4)
O3A O -0.4702(5) -0.4628(6) -0.3174(4)
O4A O -0.4343(6) -0.5713(6) -0.3356(5)
O5A O -0.0509(5) -0.4268(5) -0.1135(4)
O6A O -0.1543(6) -0.5510(5) -0.1778(5)
N5A N -0.4171(6) -0.4971(7) -0.3048(5)
N6A N -0.1259(6) -0.4740(6) -0.1559(5)
C71A C -0.3026(7) -0.3584(7) -0.2222(6)
H92A H -0.3433 -0.3328 -0.2358
C72A C -0.3277(7) -0.4446(7) -0.2522(6)
C73A C -0.2698(7) -0.4841(7) -0.2321(6)
H93A H -0.2873 -0.5440 -0.2529
C74A C -0.1866(7) -0.4326(7) -0.1808(6)
C75A C -0.1587(7) -0.3466(7) -0.1516(5)
H94A H -0.0997 -0.3125 -0.1179
C76A C -0.2182(7) -0.3094(7) -0.1721(5)
C77A C -0.1913(9) -0.2150(7) -0.1392(6)
C78A C -0.0835(12) -0.0954(9) -0.0795(8)
H95A H -0.0853 -0.0801 -0.1202
H96A H -0.1269 -0.0819 -0.0656
C79A C 0.0058(8) -0.0392(9) -0.0196(12)
H97A H 0.0218 -0.0700 0.0107
H98A H 0.0500 -0.0234 -0.0376
O7 O 0.6468(5) 0.1542(5) 0.1852(4)
O8 O 0.7419(6) 0.1097(6) 0.1633(4)
O9 O 0.5629(5) 0.1060(4) 0.3808(4)
O10 O 0.6503(5) 0.0609(5) 0.4521(4)
O11 O 0.8563(5) -0.0358(5) 0.3963(4)
O12 O 0.9005(5) -0.0038(5) 0.3184(4)
N7 N 0.6999(6) 0.1205(6) 0.1980(5)
N8 N 0.8520(5) -0.0059(5) 0.3499(4)
C81 C 0.6611(6) 0.0984(6) 0.2959(5)
H103 H 0.6185 0.1223 0.2837
C82 C 0.7121(6) 0.0910(6) 0.2580(5)
C83 C 0.7764(7) 0.0584(6) 0.2746(5)
H104 H 0.8118 0.0556 0.2488
C84 C 0.7861(6) 0.0303(6) 0.3307(5)
C85 C 0.7375(6) 0.0361(6) 0.3699(5)
H105 H 0.7467 0.0171 0.4089
C86 C 0.6742(6) 0.0701(6) 0.3517(5)
C87 C 0.6223(6) 0.0820(6) 0.3951(5)
C88 C 0.6060(8) 0.0699(8) 0.4993(6)
H106 H 0.5933 0.1218 0.5027
H107 H 0.6459 0.0772 0.5472
C89 C 0.5230(7) -0.0047(8) 0.4747(6)
H108 H 0.5349 -0.0553 0.4705
H109 H 0.4840 -0.0110 0.4287
O7A O 0.3532(5) -0.1542(5) 0.8148(4)
O8A O 0.2581(6) -0.1097(6) 0.8367(4)
O9A O 0.4371(5) -0.1060(4) 0.6192(4)
O10A O 0.3497(5) -0.0609(5) 0.5479(4)
O11A O 0.1437(5) 0.0358(5) 0.6037(4)
O12A O 0.0995(5) 0.0038(5) 0.6816(4)
N7A N 0.3001(6) -0.1205(6) 0.8020(5)
N8A N 0.1480(5) 0.0059(5) 0.6501(4)
C81A C 0.3389(6) -0.0984(6) 0.7041(5)
H103A H 0.3815 -0.1223 0.7163
C82A C 0.2879(6) -0.0910(6) 0.7420(5)
C83A C 0.2236(7) -0.0584(6) 0.7254(5)
H104A H 0.1882 -0.0556 0.7512
C84A C 0.2139(6) -0.0303(6) 0.6693(5)
C85A C 0.2625(6) -0.0361(6) 0.6301(5)
H105A H 0.2533 -0.0171 0.5911
C86A C 0.3258(6) -0.0701(6) 0.6483(5)
C87A C 0.3777(6) -0.0820(6) 0.6049(5)
C88A C 0.3940(8) -0.0699(8) 0.5007(6)
H106A H 0.4067 -0.1218 0.4973
H107A H 0.3541 -0.0772 0.4528
C89A C 0.4770(7) 0.0047(8) 0.5253(6)
H108A H 0.4651 0.0553 0.5295
H109A H 0.5160 0.0110 0.5713
Cl1 Cl -0.1087(4) 0.0151(6) 0.1538(3)
Cl2 Cl -0.0427(5) -0.1205(5) 0.1379(4)
C90 C -0.0471(13) -0.0342(13) 0.1925(10)
H110 H -0.0701 -0.0531 0.2256
H111 H 0.0141 0.0088 0.2210
Cl3 Cl 0.0308(3) -0.2209(3) 0.0221(2)
Cl4 Cl 0.1306(3) -0.2404(3) 0.1498(3)
C91 C 0.0840(12) -0.2813(11) 0.0569(9)
H112 H 0.1311 -0.2814 0.0401
H113 H 0.0411 -0.3411 0.0397
Cl5 Cl 0.2102(3) -0.2242(3) 0.3271(3)
Cl6 Cl 0.3766(3) -0.2351(5) 0.3416(3)
C92 C 0.2728(15) -0.2680(15) 0.2933(13)
H114 H 0.2460 -0.3306 0.2811
H115 H 0.2668 -0.2580 0.2485
H85? H -0.0044 0.5719 0.3457
H86? H 0.0892 0.6249 0.4049
C69? C 0.034(3) 0.519(2) 0.4103(19)
H87? H 0.0916 0.5283 0.4468
H88? H 0.0071 0.4581 0.3787
C70? C -0.028(3) 0.534(2) 0.448(2)
H89? H -0.0148 0.5957 0.4659
H90? H -0.0169 0.5144 0.4883
H91? H -0.0896 0.5032 0.4148
H99? H 0.0502 0.0743 0.1047
H100? H 0.1370 0.0859 0.0947
C80? C 0.0349(19) 0.0407(10) 0.0025(8)
H101? H 0.0732 0.0289 -0.0189
H102? H 0.0053 0.0711 -0.0210
loop_
_geom_bond_atom_site_label_1
_geom_bond_atom_site_label_2
_geom_bond_site_symmetry_1
_geom_bond_site_symmetry_2
S1 C2 1_555 1_555
S2 C3 1_555 1_555
S3 C30 1_555 1_555
S4 C30 1_555 1_555
S5 C31 1_555 1_555
S6 C32 1_555 1_555
S7 C7 1_555 1_555
S8 C8 1_555 1_555
S9 C40 1_555 1_555
S10 C40 1_555 1_555
S11 C41 1_555 1_555
S12 C42 1_555 1_555
S13 C12 1_555 1_555
S14 C13 1_555 1_555
S15 C50 1_555 1_555
S16 C50 1_555 1_555
S17 C51 1_555 1_555
S18 C52 1_555 1_555
S19 C17 1_555 1_555
S20 C18 1_555 1_555
S21 C60 1_555 1_555
S22 C60 1_555 1_555
S23 C61 1_555 1_555
S24 C62 1_555 1_555
N1 H1 1_555 1_555
N2 H2 1_555 1_555
N3 H3 1_555 1_555
N4 H4 1_555 1_555
C1 N1 1_555 1_555
C2 C1 1_555 1_555
C3 C2 1_555 1_555
C4 N1 1_555 1_555
C5 C4 1_555 1_555
C6 N2 1_555 1_555
C7 C6 1_555 1_555
C8 C7 1_555 1_555
C9 N2 1_555 1_555
C10 C9 1_555 1_555
C11 N3 1_555 1_555
C12 C11 1_555 1_555
C13 C12 1_555 1_555
C14 N3 1_555 1_555
C15 C14 1_555 1_555
C16 N4 1_555 1_555
C17 C16 1_555 1_555
C18 C17 1_555 1_555
C19 N4 1_555 1_555
C20 C1 1_555 1_555
C21 C5 1_555 1_555
H5 C21 1_555 1_555
H6 C21 1_555 1_555
H7 C21 1_555 1_555
C22 C5 1_555 1_555
H8 C22 1_555 1_555
H9 C22 1_555 1_555
H10 C22 1_555 1_555
C23 C10 1_555 1_555
H11 C23 1_555 1_555
H12 C23 1_555 1_555
H13 C23 1_555 1_555
C24 C10 1_555 1_555
H14 C24 1_555 1_555
H15 C24 1_555 1_555
H16 C24 1_555 1_555
C25 C15 1_555 1_555
H17 C25 1_555 1_555
H18 C25 1_555 1_555
H19 C25 1_555 1_555
C26 C15 1_555 1_555
H20 C26 1_555 1_555
H21 C26 1_555 1_555
H22 C26 1_555 1_555
C27 C20 1_555 1_555
H23 C27 1_555 1_555
H24 C27 1_555 1_555
H25 C27 1_555 1_555
C28 C20 1_555 1_555
H26 C28 1_555 1_555
H27 C28 1_555 1_555
H28 C28 1_555 1_555
C29 S1 1_555 1_555
C30 C29 1_555 1_555
C31 S3 1_555 1_555
C32 S4 1_555 1_555
C33 S5 1_555 1_555
H29 C33 1_555 1_555
H30 C33 1_555 1_555
C34 C33 1_555 1_555
H31 C34 1_555 1_555
H32 C34 1_555 1_555
C35 C34 1_555 1_555
H33 C35 1_555 1_555
H34 C35 1_555 1_555
H35 C35 1_555 1_555
C36 S6 1_555 1_555
H36 C36 1_555 1_555
H37 C36 1_555 1_555
C37 C36 1_555 1_555
H38 C37 1_555 1_555
H39 C37 1_555 1_555
C38 C37 1_555 1_555
H40 C38 1_555 1_555
H41 C38 1_555 1_555
H42 C38 1_555 1_555
C39 S7 1_555 1_555
C40 C39 1_555 1_555
C41 S9 1_555 1_555
C42 S10 1_555 1_555
C43 S11 1_555 1_555
H43 C43 1_555 1_555
H44 C43 1_555 1_555
C44 C43 1_555 1_555
H45 C44 1_555 1_555
H46 C44 1_555 1_555
C45 C44 1_555 1_555
H47 C45 1_555 1_555
H48 C45 1_555 1_555
H49 C45 1_555 1_555
C46 S12 1_555 1_555
H50 C46 1_555 1_555
H51 C46 1_555 1_555
C47 C46 1_555 1_555
H52 C47 1_555 1_555
H53 C47 1_555 1_555
C48 C47 1_555 1_555
H54 C48 1_555 1_555
H55 C48 1_555 1_555
H56 C48 1_555 1_555
C49 S13 1_555 1_555
C50 C49 1_555 1_555
C51 S15 1_555 1_555
C52 S16 1_555 1_555
C53 S17 1_555 1_555
H57 C53 1_555 1_555
H58 C53 1_555 1_555
C54 C53 1_555 1_555
H59 C54 1_555 1_555
H60 C54 1_555 1_555
C55 C54 1_555 1_555
H61 C55 1_555 1_555
H62 C55 1_555 1_555
H63 C55 1_555 1_555
C56 S18 1_555 1_555
H64 C56 1_555 1_555
H65 C56 1_555 1_555
C57 C56 1_555 1_555
H66 C57 1_555 1_555
H67 C57 1_555 1_555
C58 C57 1_555 1_555
H68 C58 1_555 1_555
H69 C58 1_555 1_555
H70 C58 1_555 1_555
C59 S19 1_555 1_555
C60 C59 1_555 1_555
C61 S21 1_555 1_555
C62 S22 1_555 1_555
C63 S23 1_555 1_555
H71 C63 1_555 1_555
H72 C63 1_555 1_555
C64 C63 1_555 1_555
H73 C64 1_555 1_555
H74 C64 1_555 1_555
C65 C64 1_555 1_555
H75 C65 1_555 1_555
H76 C65 1_555 1_555
H77 C65 1_555 1_555
C66 S24 1_555 1_555
H78 C66 1_555 1_555
H79 C66 1_555 1_555
C67 C66 1_555 1_555
H80 C67 1_555 1_555
H81 C67 1_555 1_555
C68 C67 1_555 1_555
H82 C68 1_555 1_555
H83 C68 1_555 1_555
H84 C68 1_555 1_555
O1 C77 1_555 1_555
O2 C77 1_555 1_555
O3 N5 1_555 1_555
O4 N5 1_555 1_555
O5 N6 1_555 1_555
O6 N6 1_555 1_555
N5 C72 1_555 1_555
N6 C74 1_555 1_555
C71 H92 1_555 1_555
C72 C71 1_555 1_555
C73 C72 1_555 1_555
H93 C73 1_555 1_555
C74 C73 1_555 1_555
C75 C74 1_555 1_555
H94 C75 1_555 1_555
C76 C71 1_555 1_555
C77 C76 1_555 1_555
C78 O1 1_555 1_555
H95 C78 1_555 1_555
H96 C78 1_555 1_555
C79 C78 1_555 1_555
H97 C79 1_555 1_555
H98 C79 1_555 1_555
O7 N7 1_555 1_555
O8 N7 1_555 1_555
O9 C87 1_555 1_555
O10 C87 1_555 1_555
O11 N8 1_555 1_555
O12 N8 1_555 1_555
N7 C82 1_555 1_555
N8 C84 1_555 1_555
C81 H103 1_555 1_555
C82 C81 1_555 1_555
C83 C82 1_555 1_555
H104 C83 1_555 1_555
C84 C83 1_555 1_555
C85 C84 1_555 1_555
H105 C85 1_555 1_555
C86 C81 1_555 1_555
C87 C86 1_555 1_555
C88 O10 1_555 1_555
H106 C88 1_555 1_555
H107 C88 1_555 1_555
C89 C88 1_555 1_555
H108 C89 1_555 1_555
H109 C89 1_555 1_555
Cl1 C90 1_555 1_555
Cl2 C90 1_555 1_555
C90 H110 1_555 1_555
H111 C90 1_555 1_555
Cl3 C91 1_555 1_555
Cl4 C91 1_555 1_555
C91 H112 1_555 1_555
H113 C91 1_555 1_555
Cl5 C92 1_555 1_555
Cl6 C92 1_555 1_555
C92 H114 1_555 1_555
H115 C92 1_555 1_555
O1A C77A 1_555 1_555
O2A C77A 1_555 1_555
O3A N5A 1_555 1_555
O4A N5A 1_555 1_555
O5A N6A 1_555 1_555
O6A N6A 1_555 1_555
N5A C72A 1_555 1_555
N6A C74A 1_555 1_555
C71A H92A 1_555 1_555
C72A C71A 1_555 1_555
C73A C72A 1_555 1_555
H93A C73A 1_555 1_555
C74A C73A 1_555 1_555
C75A C74A 1_555 1_555
H94A C75A 1_555 1_555
C76A C71A 1_555 1_555
C77A C76A 1_555 1_555
C78A O1A 1_555 1_555
H95A C78A 1_555 1_555
H96A C78A 1_555 1_555
C79A C79 1_555 1_555
H97A C79A 1_555 1_555
H98A C79A 1_555 1_555
O7A N7A 1_555 1_555
O8A N7A 1_555 1_555
O9A C87A 1_555 1_555
O10A C87A 1_555 1_555
O11A N8A 1_555 1_555
O12A N8A 1_555 1_555
N7A C82A 1_555 1_555
N8A C84A 1_555 1_555
C81A H103A 1_555 1_555
C82A C81A 1_555 1_555
C83A C82A 1_555 1_555
H104A C83A 1_555 1_555
C84A C83A 1_555 1_555
C85A C84A 1_555 1_555
H105A C85A 1_555 1_555
C86A C81A 1_555 1_555
C87A C86A 1_555 1_555
C88A O10A 1_555 1_555
H106A C88A 1_555 1_555
H107A C88A 1_555 1_555
C89A C89 1_555 1_555
H108A C89A 1_555 1_555
H109A C89A 1_555 1_555
S2 C29 1_555 1_555
S8 C39 1_555 1_555
S14 C49 1_555 1_555
S20 C59 1_555 1_555
C3 C4 1_555 1_555
C5 C6 1_555 1_555
C8 C9 1_555 1_555
C10 C11 1_555 1_555
C13 C14 1_555 1_555
C15 C16 1_555 1_555
C18 C19 1_555 1_555
C19 C20 1_555 1_555
C31 C32 1_555 1_555
C41 C42 1_555 1_555
C51 C52 1_555 1_555
C61 C62 1_555 1_555
C75 C76 1_555 1_555
C85 C86 1_555 1_555
C75A C76A 1_555 1_555
C78A C79A 1_555 1_555
C85A C86A 1_555 1_555
C88A C89A 1_555 1_555

#END
