
#######################################################################
#
#                 Cambridge Crystallographic Data Centre
#                                CCDC 
#
#######################################################################
#
# If this CIF has been generated from an entry in the Cambridge 
# Structural Database, then it will include bibliographic, chemical, 
# crystal, experimental, refinement or atomic coordinate data resulting 
# from the CCDC's data processing and validation procedures.
#
#######################################################################

data_HOBTEZ
_chemical_formula_moiety         'C68 H84 N4 S24,C16 H10 N4 O12,1.5(C1 H1 Cl3)'
_chemical_name_systematic        
'ethane-1,2-diyl bis(3,5-dinitrobenzoate) 6,14,22,30-tetrakis(4,5-bis(propylsulfanyl)-1,3-dithiol-2-ylidene)-2,2,10,10,18,18,26,26-octamethyl-5,7,13,15,21,23,29,31-octathia-33,34,35,36-tetraazanonacyclo[25.5.1.1^3,9^.1^11,17^.1^19,25^.0^4,8^.0^12,16^.0^20,24^.0^28,32^]hexatriaconta-1(32),3,8,11,16,19,24,27-octaene chloroform solvate'
_symmetry_cell_setting           triclinic
_symmetry_space_group_name_H-M   'P -1'
_symmetry_Int_Tables_number      2
_space_group_name_Hall           '-P 1'
loop_
_symmetry_equiv_pos_site_id
_symmetry_equiv_pos_as_xyz
1 x,y,z
2 -x,-y,-z
_cell_length_a                   21.397(6)
_cell_length_b                   22.344(6)
_cell_length_c                   22.907(6)
_cell_angle_alpha                78.315(7)
_cell_angle_beta                 84.749(6)
_cell_angle_gamma                79.607(6)
_cell_volume                     10531.6
_exptl_crystal_description       prism
_cell_formula_units_Z            4
_chemical_properties_physical    Light-sensitive
loop_
_atom_site_label
_atom_site_type_symbol
_atom_site_fract_x
_atom_site_fract_y
_atom_site_fract_z
C1 C 0.2218(7) 1.4207(7) 0.0744(7)
H1 H 0.2122 1.4644 0.0714
C2 C 0.2558(7) 1.3937(7) 0.0314(7)
C3 C 0.2746(6) 1.3303(6) 0.0323(6)
H2 H 0.3014 1.3148 0.0015
C4 C 0.2511(6) 1.2914(6) 0.0821(6)
C5 C 0.2150(6) 1.3152(5) 0.1279(6)
H3 H 0.1992 1.2887 0.1617
C6 C 0.2022(7) 1.3801(7) 0.1226(7)
C7 C 0.2700(7) 1.2228(7) 0.0833(6)
C8 C 0.2630(7) 1.1229(6) 0.1416(6)
H4 H 0.2671 1.1023 0.1839
H5 H 0.3035 1.1110 0.1190
C9 C 0.2092(6) 1.1034(5) 0.1164(6)
H6 H 0.1695 1.1100 0.1417
H7 H 0.2018 1.1268 0.0754
C10 C 0.1844(7) 1.0076(7) 0.1057(6)
C11 C 0.2535(7) 0.8161(6) 0.0969(6)
H8 H 0.2676 0.7740 0.0936
C12 C 0.2929(7) 0.8468(6) 0.1175(6)
C13 C 0.2723(7) 0.9109(6) 0.1189(6)
H9 H 0.3009 0.9337 0.1306
C14 C 0.2129(7) 0.9403(6) 0.1041(6)
C15 C 0.1714(6) 0.9059(5) 0.0826(5)
H10 H 0.1301 0.9248 0.0703
C16 C 0.1949(6) 0.8438(6) 0.0808(6)
N1 N 0.2817(7) 1.4338(7) -0.0235(7)
N2 N 0.1649(7) 1.4054(7) 0.1725(7)
N3 N 0.3561(6) 0.8151(6) 0.1354(6)
N4 N 0.1508(6) 0.8080(6) 0.0608(5)
O1 O 0.3121(6) 1.4111(5) -0.0643(5)
O2 O 0.2687(6) 1.4922(5) -0.0239(5)
O3 O 0.1663(6) 1.4597(5) 0.1749(5)
O4 O 0.1323(6) 1.3730(5) 0.2080(5)
O5 O 0.2984(5) 1.2002(4) 0.0451(4)
O6 O 0.2489(5) 1.1900(4) 0.1368(4)
O7 O 0.2315(4) 1.0366(4) 0.1167(4)
O8 O 0.1301(5) 1.0288(4) 0.0964(4)
O9 O 0.3907(5) 0.8458(5) 0.1552(5)
O10 O 0.3742(6) 0.7621(5) 0.1285(5)
O11 O 0.1735 0.7504 0.0657
O12 O 0.0998 0.8336 0.0460
C17 C 0.5995(7) 0.6525(6) 0.3451(6)
C18 C 0.5901(7) 0.8299(7) 0.5071(6)
H11 H 0.5500 0.8199 0.4974
H12 H 0.5849 0.8418 0.5463
H13 H 0.6236 0.7935 0.5077
C19 C 0.5522(6) 0.9407(7) 0.4571(6)
H14 H 0.5128 0.9267 0.4511
H15 H 0.5599 0.9749 0.4246
H16 H 0.5480 0.9550 0.4953
C20 C 0.5676(9) 1.2792(9) 0.7284(8)
H17 H 0.6011 1.2908 0.7482
H18 H 0.5549 1.2411 0.7518
H19 H 0.5307 1.3126 0.7252
C21 C 0.5921(13) 1.2689(12) 0.6671(12)
H20 H 0.6381 1.2535 0.6718
H21 H 0.5740 1.2324 0.6629
C22 C 0.5907(13) 1.3009(12) 0.6159(11)
H22 H 0.6139 1.3341 0.6203
H23 H 0.5455 1.3208 0.6149
C23 C 0.9540(8) 1.1910(8) 0.5664(8)
H24 H 0.9548 1.1753 0.5293
H25 H 0.9796 1.1603 0.5954
H26 H 0.9715 1.2297 0.5581
C24 C 0.8857(9) 1.2032(8) 0.5918(8)
H27 H 0.8706 1.1634 0.6076
H28 H 0.8836 1.2258 0.6251
C25 C 0.8454(8) 1.2398(8) 0.5453(7)
H29 H 0.8438 1.2146 0.5146
H30 H 0.8647 1.2764 0.5258
C26 C 0.6625(7) 1.2229(6) 0.5483(6)
C27 C 0.7206(6) 1.2110(6) 0.5597(6)
C28 C 0.6935(6) 1.1058(6) 0.5445(6)
C29 C 0.6995(6) 1.0475(5) 0.5369(5)
C30 C 0.6792(6) 0.9518(6) 0.4989(5)
C31 C 0.6679(7) 0.9026(6) 0.4762(6)
C32 C 0.7741(6) 0.8860(6) 0.4945(6)
C33 C 0.7453(6) 0.9415(6) 0.5098(6)
C34 C 0.8417(6) 0.8476(6) 0.5012(6)
C35 C 0.8375(7) 0.7949(6) 0.5541(6)
H31 H 0.8268 0.8118 0.5907
H32 H 0.8786 0.7671 0.5574
H33 H 0.8045 0.7718 0.5482
C36 C 0.8882(6) 0.8878(6) 0.5123(7)
H34 H 0.8794 0.8970 0.5526
H35 H 0.8831 0.9266 0.4829
H36 H 0.9318 0.8657 0.5086
C37 C 0.8912(11) 0.4134(11) 0.6539(10)
H37 H 0.9343 0.4069 0.6351
H38 H 0.8920 0.3939 0.6962
H39 H 0.8756 0.4580 0.6501
C38 C 0.8490(11) 0.3859(10) 0.6243(9)
H40 H 0.8067 0.3885 0.6460
H41 H 0.8666 0.3416 0.6254
C39 C 0.8415(10) 0.4185(10) 0.5601(9)
H42 H 0.8312 0.4637 0.5587
H43 H 0.8051 0.4057 0.5447
C40 C 1.1257(10) 0.3910(10) 0.3483(9)
H44 H 1.1345 0.3555 0.3280
H45 H 1.1514 0.3824 0.3832
H46 H 1.1365 0.4279 0.3207
C41 C 1.0574(13) 0.4021(13) 0.3676(12)
H47 H 1.0469 0.3625 0.3909
H48 H 1.0520 0.4316 0.3954
C42 C 1.0137(10) 0.4238(10) 0.3270(10)
H49 H 1.0219 0.3990 0.2950
H50 H 1.0171 0.4673 0.3087
C43 C 0.9135(7) 0.4731(6) 0.4620(6)
C44 C 0.9267(7) 0.4789(7) 0.4035(7)
C45 C 0.9242(6) 0.5892(6) 0.4250(6)
C46 C 0.9199(6) 0.6522(6) 0.4187(5)
C47 C 0.8869(6) 0.7641(6) 0.4356(6)
C48 C 0.8627(6) 0.8218(6) 0.4451(6)
C49 C 0.8881(7) 0.8282(6) 0.3456(6)
C50 C 0.9023(7) 0.7665(6) 0.3736(6)
C51 C 0.8991(8) 0.8641(7) 0.2818(6)
C52 C 0.9544(7) 0.8996(7) 0.2787(7)
H51 H 0.9528 0.9315 0.2423
H52 H 0.9948 0.8709 0.2781
H53 H 0.9510 0.9193 0.3136
C53 C 0.9161(7) 0.8143(6) 0.2398(6)
H54 H 0.9164 0.8355 0.1979
H55 H 0.8842 0.7868 0.2471
H56 H 0.9582 0.7898 0.2484
C54 C 1.0033(12) 1.2342(12) 0.2852(10)
H57 H 0.9974 1.1924 0.2809
H58 H 1.0451 1.2416 0.2655
C55 C 0.9463(8) 1.2866(8) 0.2503(8)
H59 H 0.9412 1.2748 0.2118
H60 H 0.9616 1.3270 0.2408
C56 C 0.5530(6) 1.3194(8) 0.1841(7)
H61 H 0.5140 1.3488 0.1895
H62 H 0.5428 1.2774 0.1900
H63 H 0.5720 1.3306 0.1437
C57 C 0.6001(6) 1.3214(10) 0.2297(7)
H64 H 0.5796 1.3491 0.2571
H65 H 0.6120 1.2793 0.2538
C58 C 0.6580(6) 1.3437(9) 0.2000(6)
H66 H 0.6464 1.3871 0.1789
H67 H 0.6760 1.3183 0.1698
C59 C 0.8251(7) 1.2498(6) 0.2636(6)
C60 C 0.7642(7) 1.2648(6) 0.2495(6)
C61 C 0.7945(7) 1.1487(7) 0.2424(6)
C62 C 0.7931(7) 1.0903(6) 0.2359(6)
C63 C 0.8203(6) 0.9707(6) 0.2515(6)
C64 C 0.8346(6) 0.9096(6) 0.2641(6)
C65 C 0.7327(7) 0.9321(6) 0.2442(6)
C66 C 0.7541(7) 0.9866(6) 0.2392(6)
C67 C 0.4962(8) 0.5159(8) 0.1716(8)
H68 H 0.5091 0.4985 0.1355
H69 H 0.4511 0.5345 0.1708
H70 H 0.5029 0.4829 0.2069
C68 C 0.5358(8) 0.5652(8) 0.1741(8)
H71 H 0.5363 0.5932 0.1346
H72 H 0.5151 0.5901 0.2038
C69 C 0.6019(9) 0.5401(8) 0.1898(7)
H73 H 0.6254 0.5751 0.1859
H74 H 0.6221 0.5144 0.1604
C70 C 0.3581(9) 0.5398(9) 0.4167(8)
H75 H 0.3425 0.5020 0.4375
H76 H 0.3287 0.5623 0.3862
H77 H 0.3608 0.5661 0.4455
C71 C 0.4260(8) 0.5220(8) 0.3860(8)
H78 H 0.4249 0.4899 0.3621
H79 H 0.4383 0.5589 0.3587
C72 C 0.4741(7) 0.4979(7) 0.4319(7)
H80 H 0.4589 0.4634 0.4608
H81 H 0.4758 0.5312 0.4540
C73 C 0.5972(8) 0.5490(7) 0.3106(7)
C74 C 0.5777(7) 0.5394(7) 0.3672(7)
C75 C 0.5970(7) 0.7134(6) 0.3449(6)
C76 C 0.6256(7) 0.8249(6) 0.3146(6)
C77 C 0.6421(6) 0.8815(6) 0.2982(5)
C78 C 0.6171(6) 0.8658(6) 0.3978(6)
C79 C 0.6051(6) 0.8161(6) 0.3773(6)
C80 C 0.6661(7) 0.9180(6) 0.2388(6)
C81 C 0.6703(7) 0.8769(6) 0.1910(5)
H82 H 0.6959 0.8364 0.2053
H83 H 0.6903 0.8969 0.1538
H84 H 0.6274 0.8714 0.1839
C82 C 0.6179(7) 0.9779(6) 0.2206(6)
H85 H 0.6164 1.0048 0.2498
H86 H 0.5756 0.9673 0.2194
H87 H 0.6309 0.9997 0.1810
N5 N 0.7259(5) 0.8633(5) 0.4727(5)
H88 H 0.7316 0.8287 0.4587
N6 N 0.8635(5) 0.8615(5) 0.3912(5)
H89 H 0.8506 0.9018 0.3858
C83 C 0.6094(7) 0.8857(6) 0.4580(6)
N7 N 0.7810(5) 0.8851(5) 0.2606(5)
H90 H 0.7784 0.8454 0.2678
N8 N 0.6381(5) 0.9062(5) 0.3500(4)
H91 H 0.6477 0.9425 0.3517
S1 S 0.6089 1.2968 0.5417
S2 S 0.7621 1.2667 0.5733
S3 S 0.6221 1.1604 0.5415
S4 S 0.7592 1.1320 0.5675
S5 S 0.6325 1.0185 0.5197
S6 S 0.7706 0.9945 0.5450
S7 S 0.9115 0.4023 0.5118
S8 S 0.9327 0.4199 0.3613
S9 S 0.9124 0.5392 0.4931
S10 S 0.9378 0.5530 0.3627
S11 S 0.9058 0.6894 0.4804
S12 S 0.9385 0.6981 0.3499
S13 S 0.8666 1.2985 0.2892
S14 S 0.7184 1.3400 0.2524
S15 S 0.8629 1.1722 0.2600
S16 S 0.7265 1.2075 0.2325
S17 S 0.8615 1.0326 0.2462
S18 S 0.7229 1.0669 0.2206
S19 S 0.6109 0.4927 0.2656
S20 S 0.5538 0.4706 0.4054
S21 S 0.6224 0.6224 0.2798
S22 S 0.5781 0.5999 0.4073
S23 S 0.6134 0.7669 0.2784
S24 S 0.5811 0.7460 0.4104
C84 C 1.0042 1.2352 0.3447
H92 H 1.0232 1.2706 0.3495
H93 H 1.0295 1.1967 0.3647
H94 H 0.9606 1.2390 0.3625
C85 C 0.4387(8) 0.9675(8) 0.0670(7)
H95 H 0.4731 0.9690 0.0351
H96 H 0.4200 0.9300 0.0674
C86 C 0.3873(8) 1.0243(7) 0.0506(7)
H97 H 0.4017 1.0597 0.0621
H98 H 0.3486 1.0166 0.0761
C87 C 0.0292(8) 1.0707(8) -0.0847(8)
H99 H 0.0160 1.1156 -0.0967
H100 H -0.0047 1.0529 -0.0591
H101 H 0.0376 1.0519 -0.1204
C88 C 0.0903(8) 1.0577(8) -0.0501(7)
H102 H 0.0812 1.0752 -0.0133
H103 H 0.1037 1.0124 -0.0383
C89 C 0.1438(7) 1.0857(7) -0.0874(7)
H104 H 0.1274 1.1294 -0.1047
H105 H 0.1568 1.0634 -0.1209
C90 C 0.3190(7) 0.9946(6) -0.0347(6)
C91 C 0.2568(6) 1.0101(6) -0.0483(6)
C92 C 0.2902(7) 0.8931(6) -0.0559(6)
C93 C 0.2882(6) 0.8322(6) -0.0567(6)
C94 C 0.3098(7) 0.7121(6) -0.0320(6)
C95 C 0.3236(6) 0.6487(6) -0.0140(6)
C96 C 0.2211(6) 0.6772(6) -0.0475(6)
C97 C 0.2469(7) 0.7323(6) -0.0526(6)
C98 C 0.1581(7) 0.6655(6) -0.0625(6)
C99 C 0.1704(6) 0.6266(6) -0.1108(5)
H106 H 0.1297 0.6229 -0.1251
H107 H 0.1930 0.5853 -0.0944
H108 H 0.1963 0.6465 -0.1440
C100 C 0.1135(7) 0.7279(6) -0.0839(6)
H109 H 0.1068 0.7524 -0.0523
H110 H 0.0724 0.7195 -0.0931
H111 H 0.1330 0.7510 -0.1198
C101 C 0.2647(8) 0.2910(8) -0.1584(8)
H112 H 0.2706 0.3288 -0.1456
H113 H 0.2623 0.2992 -0.2019
H114 H 0.3008 0.2581 -0.1468
C102 C 0.2043(8) 0.2710(8) -0.1292(7)
H115 H 0.1681 0.3046 -0.1409
H116 H 0.1976 0.2341 -0.1439
C103 C 0.2051(7) 0.2565(7) -0.0649(6)
H117 H 0.2129 0.2936 -0.0511
H118 H 0.2418 0.2232 -0.0541
C104 C -0.0346(8) 0.0919(7) 0.0967(8)
H119 H -0.0640 0.1179 0.0677
H120 H -0.0581 0.0652 0.1267
H121 H -0.0015 0.0661 0.0760
C105 C -0.0042(7) 0.1327(6) 0.1269(6)
H122 H 0.0226 0.1064 0.1585
H123 H -0.0378 0.1602 0.1461
C106 C 0.0373(7) 0.1726(6) 0.0816(6)
H124 H 0.0111 0.1982 0.0492
H125 H 0.0722 0.1454 0.0636
C107 C 0.1002(6) 0.2944(6) 0.0099(6)
C108 C 0.0721(6) 0.2898(6) 0.0652(6)
C109 C 0.0656(7) 0.4063(6) 0.0288(6)
C110 C 0.0718(7) 0.4647(6) 0.0296(6)
C111 C 0.1059(7) 0.5727(6) 0.0085(6)
C112 C 0.1271(6) 0.6302(6) -0.0066(6)
C113 C 0.0827(6) 0.6176(6) 0.0889(6)
C114 C 0.0794(7) 0.5673(6) 0.0664(6)
C115 C 0.0641(6) 0.6360(6) 0.1488(6)
C116 C 0.0305(7) 0.5890(6) 0.1900(6)
H126 H -0.0067 0.5833 0.1710
H127 H 0.0166 0.6036 0.2274
H128 H 0.0596 0.5494 0.1984
C117 C 0.0176(7) 0.6992(7) 0.1380(7)
H129 H -0.0212 0.6939 0.1213
H130 H 0.0382 0.7300 0.1099
H131 H 0.0065 0.7134 0.1759
C118 C 0.0494(7) 0.9894(7) 0.4284(7)
H132 H 0.0904 0.9808 0.4469
H133 H 0.0248 0.9564 0.4454
H134 H 0.0257 1.0292 0.4360
C119 C 0.0609(8) 0.9925(8) 0.3607(7)
H135 H 0.0753 0.9498 0.3534
H136 H 0.0198 1.0083 0.3419
C120 C 0.1077(7) 1.0314(7) 0.3305(6)
H137 H 0.1484 1.0166 0.3502
H138 H 0.0925 1.0745 0.3364
C121 C 0.4655(7) 0.9169(8) 0.3084(7)
H139 H 0.4652 0.8855 0.3450
H140 H 0.4973 0.9430 0.3103
H141 H 0.4763 0.8965 0.2739
C122 C 0.3987(6) 0.9579(6) 0.3020(6)
H142 H 0.3862 0.9748 0.3388
H143 H 0.4010 0.9933 0.2684
C123 C 0.1614(7) 0.9540(6) 0.2515(6)
C124 C 0.2235(6) 0.9322(5) 0.2658(5)
C125 C 0.1778(6) 0.8366(6) 0.2464(5)
C126 C 0.1745(6) 0.7802(6) 0.2358(5)
C127 C 0.1406(7) 0.6908(6) 0.1993(6)
C128 C 0.1221(7) 0.6445(6) 0.1757(6)
C129 C 0.2240(6) 0.6088(6) 0.2103(6)
C130 C 0.2042(7) 0.6698(6) 0.2153(6)
C131 C 0.2831(7) 0.5623(6) 0.2205(6)
C132 C 0.3341(7) 0.5917(6) 0.2452(6)
H144 H 0.3729 0.5610 0.2523
H145 H 0.3173 0.6047 0.2828
H146 H 0.3439 0.6278 0.2160
C133 C 0.2706(7) 0.5053(6) 0.2665(6)
H147 H 0.3112 0.4786 0.2770
H148 H 0.2441 0.4823 0.2497
H149 H 0.2486 0.5184 0.3024
C134 C 0.4679(10) 0.1028(9) 0.3204(8)
H150 H 0.4234 0.1234 0.3190
H151 H 0.4866 0.1105 0.3551
H152 H 0.4698 0.0581 0.3237
C135 C 0.5079(9) 0.1302(8) 0.2590(8)
H153 H 0.4960 0.1758 0.2492
H154 H 0.5541 0.1200 0.2651
C136 C 0.4927(9) 0.1014(9) 0.2073(9)
H155 H 0.5026 0.0557 0.2188
H156 H 0.5209 0.1142 0.1719
C137 C 0.4492(9) 0.2505(8) -0.1244(5)
H157 H 0.4568 0.2920 -0.1224
H158 H 0.4135 0.2542 -0.1496
H159 H 0.4874 0.2275 -0.1415
C138 C 0.4332(8) 0.2163(11) -0.0619(6)
H160 H 0.3999 0.2432 -0.0418
H161 H 0.4161 0.1787 -0.0647
C139 C 0.4898(8) 0.1984(10) -0.0262(5)
H162 H 0.5063 0.2363 -0.0235
H163 H 0.5232 0.1724 -0.0473
C140 C 0.4144(6) 0.1972(6) 0.1452(6)
C141 C 0.4388(7) 0.2120(6) 0.0893(6)
C142 C 0.4015(7) 0.3184(6) 0.1219(6)
C143 C 0.3853(6) 0.3804(6) 0.1212(6)
C144 C 0.3387(6) 0.4877(6) 0.1476(6)
C145 C 0.3139(6) 0.5435(5) 0.1634(6)
C146 C 0.3589(6) 0.5620(6) 0.0673(6)
C147 C 0.3670(7) 0.4994(6) 0.0880(6)
C148 C 0.3801(6) 0.6019(6) 0.0095(6)
C149 C 0.4088(7) 0.5626(7) -0.0352(6)
H164 H 0.4493 0.5380 -0.0215
H165 H 0.4161 0.5893 -0.0739
H166 H 0.3796 0.5347 -0.0394
C150 C 0.4291(7) 0.6376(6) 0.0271(6)
H167 H 0.4110 0.6575 0.0606
H168 H 0.4394 0.6692 -0.0070
H169 H 0.4679 0.6085 0.0389
C151 C 0.4689(10) 0.9601(9) 0.1277(8)
H170 H 0.4845 0.9982 0.1295
H171 H 0.5044 0.9253 0.1314
H172 H 0.4368 0.9520 0.1603
C152 C 0.3492(6) 0.9233(6) 0.2912(6)
H173 H 0.3446 0.8891 0.3255
H174 H 0.3614 0.9053 0.2549
N9 N 0.2693(5) 0.6293(5) -0.0225(4)
H175 H 0.2645 0.5902 -0.0133
N10 N 0.1113(5) 0.6553(5) 0.0436(4)
H176 H 0.1187 0.6920 0.0465
N11 N 0.1747(5) 0.5967(5) 0.1832(5)
H177 H 0.1759 0.5614 0.1712
N12 N 0.3265(5) 0.5882(4) 0.1145(4)
H178 H 0.3154 0.6283 0.1131
S25 S 0.3648 1.0479 -0.0230
S26 S 0.2138 1.0835 -0.0472
S27 S 0.3587 0.9170 -0.0385
S28 S 0.2239 0.9518 -0.0701
S29 S 0.3558 0.7734 -0.0405
S30 S 0.2210 0.8105 -0.0789
S31 S 0.1344 0.2320 -0.0236
S32 S 0.0697 0.2218 0.1202
S33 S 0.0916 0.3712 -0.0340
S34 S 0.0342 0.3582 0.0887
S35 S 0.1025 0.5148 -0.0327
S36 S 0.0416 0.5009 0.0912
S37 S 0.1230 1.0325 0.2504
S38 S 0.2738 0.9778 0.2818
S39 S 0.1153 0.9016 0.2375
S40 S 0.2481 0.8516 0.2710
S41 S 0.1043 0.7644 0.2108
S42 S 0.2381 0.7186 0.2508
S43 S 0.4111 0.1230 0.1868
S44 S 0.4751 0.1560 0.0489
S45 S 0.3871 0.2604 0.1838
S46 S 0.4394 0.2909 0.0599
S47 S 0.3469 0.4095 0.1842
S48 S 0.4058 0.4345 0.0592
C153 C 0.7468(7) 1.6744(7) 0.4502(7)
H179 H 0.7439 1.7128 0.4629
C154 C 0.7567(7) 1.6701(7) 0.3910(7)
C155 C 0.7619(7) 1.6148(7) 0.3692(7)
H180 H 0.7699 1.6139 0.3279
C156 C 0.7547(7) 1.5626(7) 0.4101(7)
C157 C 0.7449(7) 1.5663(7) 0.4708(8)
H181 H 0.7408 1.5299 0.4994
C158 C 0.7412(7) 1.6213(7) 0.4897(7)
C159 C 0.7579(7) 1.5033(7) 0.3889(6)
C160 C 0.7700(7) 1.3944(6) 0.4203(7)
H182 H 0.7927 1.3647 0.4528
H183 H 0.7983 1.3962 0.3834
C161 C 0.7100(8) 1.3734(7) 0.4105(7)
H184 H 0.6919 1.3956 0.3723
H185 H 0.6777 1.3782 0.4437
C162 C 0.6878(7) 1.2741(6) 0.3982(6)
C163 C 0.7689(7) 1.0840(7) 0.3942(6)
H186 H 0.7855 1.0416 0.3939
C164 C 0.7076(8) 1.1074(7) 0.3851(6)
C165 C 0.6789(7) 1.1693(7) 0.3864(6)
H187 H 0.6351 1.1840 0.3795
C166 C 0.7210(8) 1.2091(7) 0.3989(6)
C167 C 0.7839(7) 1.1836(6) 0.4080(6)
H188 H 0.8119 1.2083 0.4173
C168 C 0.8061(7) 1.1237(7) 0.4039(6)
N13 N 0.7302(7) 1.6232(6) 0.5523(6)
N14 N 0.7667(7) 1.7281(6) 0.3470(7)
N15 N 0.6639(6) 1.0666(6) 0.3694(5)
N16 N 0.8745(6) 1.0979(6) 0.4172(6)
O13 O 0.7317 1.5733 0.5879
O14 O 0.7264 1.6743 0.5671
O15 O 0.7579 1.7783 0.3664
O16 O 0.7804 1.7260 0.2954
O17 O 0.7648 1.5010 0.3368
O18 O 0.7544 1.4550 0.4359
O19 O 0.7361 1.3046 0.4093
O20 O 0.6345 1.2959 0.3956
O21 O 0.6084 1.0884 0.3617
O22 O 0.6938 1.0135 0.3665
O23 O 0.8933 1.0429 0.4136
O24 O 0.9077 1.1318 0.4303
C169 C 0.4853(8) 0.3268(7) 0.3706(7)
H189 H 0.5277 0.3405 0.3673
Cl1 Cl 0.4407 0.3724 0.3132
Cl2 Cl 0.4982 0.2478 0.3625
Cl3 Cl 0.4496 0.3341 0.4411
C170 C 0.2674(9) 0.1892(8) 0.2922(8)
H190 H 0.2940 0.1875 0.2541
Cl4 Cl 0.1844 0.2086 0.2755
Cl5 Cl 0.2781 0.1218 0.3343
Cl6 Cl 0.2811 0.2502 0.3209
C171 C 0.8405(8) 0.5078(7) 0.2194(7)
H191 H 0.8274 0.4848 0.2595
Cl7 Cl 0.8553 0.5811 0.2276
Cl8 Cl 0.9137 0.4652 0.1929
Cl9 Cl 0.7806 0.5159 0.1728
loop_
_geom_bond_atom_site_label_1
_geom_bond_atom_site_label_2
_geom_bond_site_symmetry_1
_geom_bond_site_symmetry_2
C1 H1 1_555 1_555
C2 C1 1_555 1_555
C3 C2 1_555 1_555
H2 C3 1_555 1_555
C4 C3 1_555 1_555
C5 C4 1_555 1_555
H3 C5 1_555 1_555
C6 C1 1_555 1_555
C7 C4 1_555 1_555
C8 H4 1_555 1_555
H5 C8 1_555 1_555
C9 C8 1_555 1_555
H6 C9 1_555 1_555
H7 C9 1_555 1_555
C10 C14 1_555 1_555
C11 H8 1_555 1_555
C12 C11 1_555 1_555
C13 C12 1_555 1_555
H9 C13 1_555 1_555
C14 C13 1_555 1_555
C15 C14 1_555 1_555
H10 C15 1_555 1_555
C16 C11 1_555 1_555
N1 C2 1_555 1_555
N2 C6 1_555 1_555
N3 C12 1_555 1_555
N4 C16 1_555 1_555
O1 N1 1_555 1_555
O2 N1 1_555 1_555
O3 N2 1_555 1_555
O4 N2 1_555 1_555
O5 C7 1_555 1_555
O6 C7 1_555 1_555
O7 C9 1_555 1_555
O8 C10 1_555 1_555
O9 N3 1_555 1_555
O10 N3 1_555 1_555
O11 N4 1_555 1_555
O12 N4 1_555 1_555
C17 C75 1_555 1_555
C18 H11 1_555 1_555
H12 C18 1_555 1_555
H13 C18 1_555 1_555
C19 H14 1_555 1_555
H15 C19 1_555 1_555
H16 C19 1_555 1_555
C20 H17 1_555 1_555
H18 C20 1_555 1_555
H19 C20 1_555 1_555
C21 C20 1_555 1_555
H20 C21 1_555 1_555
H21 C21 1_555 1_555
C22 C21 1_555 1_555
H22 C22 1_555 1_555
H23 C22 1_555 1_555
C23 H24 1_555 1_555
H25 C23 1_555 1_555
H26 C23 1_555 1_555
C24 C23 1_555 1_555
H27 C24 1_555 1_555
H28 C24 1_555 1_555
C25 C24 1_555 1_555
H29 C25 1_555 1_555
H30 C25 1_555 1_555
C26 C27 1_555 1_555
C27 S2 1_555 1_555
C28 C29 1_555 1_555
C29 S5 1_555 1_555
C30 C31 1_555 1_555
C31 N5 1_555 1_555
C32 C33 1_555 1_555
C33 C30 1_555 1_555
C34 C32 1_555 1_555
C35 C34 1_555 1_555
H31 C35 1_555 1_555
H32 C35 1_555 1_555
H33 C35 1_555 1_555
C36 C34 1_555 1_555
H34 C36 1_555 1_555
H35 C36 1_555 1_555
H36 C36 1_555 1_555
C37 H37 1_555 1_555
H38 C37 1_555 1_555
H39 C37 1_555 1_555
C38 C37 1_555 1_555
H40 C38 1_555 1_555
H41 C38 1_555 1_555
C39 C38 1_555 1_555
H42 C39 1_555 1_555
H43 C39 1_555 1_555
C40 H44 1_555 1_555
H45 C40 1_555 1_555
H46 C40 1_555 1_555
C41 C40 1_555 1_555
H47 C41 1_555 1_555
H48 C41 1_555 1_555
C42 C41 1_555 1_555
H49 C42 1_555 1_555
H50 C42 1_555 1_555
C43 C44 1_555 1_555
C44 S8 1_555 1_555
C45 C46 1_555 1_555
C46 S11 1_555 1_555
C47 C48 1_555 1_555
C48 C34 1_555 1_555
C49 C50 1_555 1_555
C50 C47 1_555 1_555
C51 C49 1_555 1_555
C52 C51 1_555 1_555
H51 C52 1_555 1_555
H52 C52 1_555 1_555
H53 C52 1_555 1_555
C53 C51 1_555 1_555
H54 C53 1_555 1_555
H55 C53 1_555 1_555
H56 C53 1_555 1_555
C54 H57 1_555 1_555
H58 C54 1_555 1_555
C55 C54 1_555 1_555
H59 C55 1_555 1_555
H60 C55 1_555 1_555
C56 H61 1_555 1_555
H62 C56 1_555 1_555
H63 C56 1_555 1_555
C57 C56 1_555 1_555
H64 C57 1_555 1_555
H65 C57 1_555 1_555
C58 C57 1_555 1_555
H66 C58 1_555 1_555
H67 C58 1_555 1_555
C59 C60 1_555 1_555
C60 S14 1_555 1_555
C61 C62 1_555 1_555
C62 S17 1_555 1_555
C63 C64 1_555 1_555
C64 C51 1_555 1_555
C65 C66 1_555 1_555
C66 C63 1_555 1_555
C67 H68 1_555 1_555
H69 C67 1_555 1_555
H70 C67 1_555 1_555
C68 C67 1_555 1_555
H71 C68 1_555 1_555
H72 C68 1_555 1_555
C69 C68 1_555 1_555
H73 C69 1_555 1_555
H74 C69 1_555 1_555
C70 H75 1_555 1_555
H76 C70 1_555 1_555
H77 C70 1_555 1_555
C71 C70 1_555 1_555
H78 C71 1_555 1_555
H79 C71 1_555 1_555
C72 C71 1_555 1_555
H80 C72 1_555 1_555
H81 C72 1_555 1_555
C73 C74 1_555 1_555
C74 S20 1_555 1_555
C75 S23 1_555 1_555
C76 C77 1_555 1_555
C77 C80 1_555 1_555
C78 C79 1_555 1_555
C79 C76 1_555 1_555
C80 C65 1_555 1_555
C81 C80 1_555 1_555
H82 C81 1_555 1_555
H83 C81 1_555 1_555
H84 C81 1_555 1_555
C82 C80 1_555 1_555
H85 C82 1_555 1_555
H86 C82 1_555 1_555
H87 C82 1_555 1_555
N5 C32 1_555 1_555
H88 N5 1_555 1_555
N6 C48 1_555 1_555
H89 N6 1_555 1_555
C83 C18 1_555 1_555
N7 C64 1_555 1_555
H90 N7 1_555 1_555
N8 C77 1_555 1_555
H91 N8 1_555 1_555
S1 C22 1_555 1_555
S2 C25 1_555 1_555
S3 C26 1_555 1_555
S4 C27 1_555 1_555
S5 C30 1_555 1_555
S6 C29 1_555 1_555
S7 C39 1_555 1_555
S8 C42 1_555 1_555
S9 C43 1_555 1_555
S10 C44 1_555 1_555
S11 C47 1_555 1_555
S12 C46 1_555 1_555
S13 C55 1_555 1_555
S14 C58 1_555 1_555
S15 C59 1_555 1_555
S16 C60 1_555 1_555
S17 C63 1_555 1_555
S18 C62 1_555 1_555
S19 C69 1_555 1_555
S20 C72 1_555 1_555
S21 C17 1_555 1_555
S22 C17 1_555 1_555
S23 C76 1_555 1_555
S24 C75 1_555 1_555
C84 C54 1_555 1_555
H92 C84 1_555 1_555
H93 C84 1_555 1_555
H94 C84 1_555 1_555
C85 H95 1_555 1_555
H96 C85 1_555 1_555
C86 C85 1_555 1_555
H97 C86 1_555 1_555
H98 C86 1_555 1_555
C87 H99 1_555 1_555
H100 C87 1_555 1_555
H101 C87 1_555 1_555
C88 C87 1_555 1_555
H102 C88 1_555 1_555
H103 C88 1_555 1_555
C89 C88 1_555 1_555
H104 C89 1_555 1_555
H105 C89 1_555 1_555
C90 C91 1_555 1_555
C91 S26 1_555 1_555
C92 C93 1_555 1_555
C93 S29 1_555 1_555
C94 C95 1_555 1_555
C95 C148 1_555 1_555
C96 C97 1_555 1_555
C97 C94 1_555 1_555
C98 C96 1_555 1_555
C99 C98 1_555 1_555
H106 C99 1_555 1_555
H107 C99 1_555 1_555
H108 C99 1_555 1_555
C100 C98 1_555 1_555
H109 C100 1_555 1_555
H110 C100 1_555 1_555
H111 C100 1_555 1_555
C101 H112 1_555 1_555
H113 C101 1_555 1_555
H114 C101 1_555 1_555
C102 C101 1_555 1_555
H115 C102 1_555 1_555
H116 C102 1_555 1_555
C103 C102 1_555 1_555
H117 C103 1_555 1_555
H118 C103 1_555 1_555
C104 H119 1_555 1_555
H120 C104 1_555 1_555
H121 C104 1_555 1_555
C105 C104 1_555 1_555
H122 C105 1_555 1_555
H123 C105 1_555 1_555
C106 C105 1_555 1_555
H124 C106 1_555 1_555
H125 C106 1_555 1_555
C107 C108 1_555 1_555
C108 S32 1_555 1_555
C109 C110 1_555 1_555
C110 S35 1_555 1_555
C111 C112 1_555 1_555
C112 C98 1_555 1_555
C113 C114 1_555 1_555
C114 C111 1_555 1_555
C115 C113 1_555 1_555
C116 C115 1_555 1_555
H126 C116 1_555 1_555
H127 C116 1_555 1_555
H128 C116 1_555 1_555
C117 C115 1_555 1_555
H129 C117 1_555 1_555
H130 C117 1_555 1_555
H131 C117 1_555 1_555
C118 H132 1_555 1_555
H133 C118 1_555 1_555
H134 C118 1_555 1_555
C119 C118 1_555 1_555
H135 C119 1_555 1_555
H136 C119 1_555 1_555
C120 C119 1_555 1_555
H137 C120 1_555 1_555
H138 C120 1_555 1_555
C121 H139 1_555 1_555
H140 C121 1_555 1_555
H141 C121 1_555 1_555
C122 C121 1_555 1_555
H142 C122 1_555 1_555
H143 C122 1_555 1_555
C123 C124 1_555 1_555
C124 S38 1_555 1_555
C125 C126 1_555 1_555
C126 S41 1_555 1_555
C127 C128 1_555 1_555
C128 C115 1_555 1_555
C129 C130 1_555 1_555
C130 C127 1_555 1_555
C131 C129 1_555 1_555
C132 C131 1_555 1_555
H144 C132 1_555 1_555
H145 C132 1_555 1_555
H146 C132 1_555 1_555
C133 C131 1_555 1_555
H147 C133 1_555 1_555
H148 C133 1_555 1_555
H149 C133 1_555 1_555
C134 H150 1_555 1_555
H151 C134 1_555 1_555
H152 C134 1_555 1_555
C135 C134 1_555 1_555
H153 C135 1_555 1_555
H154 C135 1_555 1_555
C136 C135 1_555 1_555
H155 C136 1_555 1_555
H156 C136 1_555 1_555
C137 H157 1_555 1_555
H158 C137 1_555 1_555
H159 C137 1_555 1_555
C138 C137 1_555 1_555
H160 C138 1_555 1_555
H161 C138 1_555 1_555
C139 C138 1_555 1_555
H162 C139 1_555 1_555
H163 C139 1_555 1_555
C140 C141 1_555 1_555
C141 S44 1_555 1_555
C142 C143 1_555 1_555
C143 S47 1_555 1_555
C144 C145 1_555 1_555
C145 C131 1_555 1_555
C146 C147 1_555 1_555
C147 C144 1_555 1_555
C148 C146 1_555 1_555
C149 C148 1_555 1_555
H164 C149 1_555 1_555
H165 C149 1_555 1_555
H166 C149 1_555 1_555
C150 C148 1_555 1_555
H167 C150 1_555 1_555
H168 C150 1_555 1_555
H169 C150 1_555 1_555
C151 C85 1_555 1_555
H170 C151 1_555 1_555
H171 C151 1_555 1_555
H172 C151 1_555 1_555
C152 C122 1_555 1_555
H173 C152 1_555 1_555
H174 C152 1_555 1_555
N9 C95 1_555 1_555
H175 N9 1_555 1_555
N10 C112 1_555 1_555
H176 N10 1_555 1_555
N11 C128 1_555 1_555
H177 N11 1_555 1_555
N12 C145 1_555 1_555
H178 N12 1_555 1_555
S25 C86 1_555 1_555
S26 C89 1_555 1_555
S27 C90 1_555 1_555
S28 C91 1_555 1_555
S29 C94 1_555 1_555
S30 C93 1_555 1_555
S31 C103 1_555 1_555
S32 C106 1_555 1_555
S33 C107 1_555 1_555
S34 C108 1_555 1_555
S35 C111 1_555 1_555
S36 C110 1_555 1_555
S37 C120 1_555 1_555
S38 C152 1_555 1_555
S39 C123 1_555 1_555
S40 C124 1_555 1_555
S41 C127 1_555 1_555
S42 C126 1_555 1_555
S43 C136 1_555 1_555
S44 C139 1_555 1_555
S45 C140 1_555 1_555
S46 C141 1_555 1_555
S47 C144 1_555 1_555
S48 C143 1_555 1_555
C153 H179 1_555 1_555
C154 C153 1_555 1_555
C155 C154 1_555 1_555
H180 C155 1_555 1_555
C156 C155 1_555 1_555
C157 C156 1_555 1_555
H181 C157 1_555 1_555
C158 C153 1_555 1_555
C159 C156 1_555 1_555
C160 H182 1_555 1_555
H183 C160 1_555 1_555
C161 C160 1_555 1_555
H184 C161 1_555 1_555
H185 C161 1_555 1_555
C162 C166 1_555 1_555
C163 H186 1_555 1_555
C164 C163 1_555 1_555
C165 C164 1_555 1_555
H187 C165 1_555 1_555
C166 C165 1_555 1_555
C167 C166 1_555 1_555
H188 C167 1_555 1_555
C168 C163 1_555 1_555
N13 C158 1_555 1_555
N14 C154 1_555 1_555
N15 C164 1_555 1_555
N16 C168 1_555 1_555
O13 N13 1_555 1_555
O14 N13 1_555 1_555
O15 N14 1_555 1_555
O16 N14 1_555 1_555
O17 C159 1_555 1_555
O18 C159 1_555 1_555
O19 C161 1_555 1_555
O20 C162 1_555 1_555
O21 N15 1_555 1_555
O22 N15 1_555 1_555
O23 N16 1_555 1_555
O24 N16 1_555 1_555
C169 H189 1_555 1_555
Cl1 C169 1_555 1_555
Cl2 C169 1_555 1_555
Cl3 C169 1_555 1_555
C170 H190 1_555 1_555
Cl4 C170 1_555 1_555
Cl5 C170 1_555 1_555
Cl6 C170 1_555 1_555
C171 H191 1_555 1_555
Cl7 C171 1_555 1_555
Cl8 C171 1_555 1_555
Cl9 C171 1_555 1_555
C5 C6 1_555 1_555
C8 O6 1_555 1_555
C10 O7 1_555 1_555
C15 C16 1_555 1_555
C19 C83 1_555 1_555
C26 S1 1_555 1_555
C28 S3 1_555 1_555
C28 S4 1_555 1_555
C31 C83 1_555 1_555
C33 S6 1_555 1_555
C43 S7 1_555 1_555
C45 S9 1_555 1_555
C45 S10 1_555 1_555
C49 N6 1_555 1_555
C50 S12 1_555 1_555
C59 S13 1_555 1_555
C61 S15 1_555 1_555
C61 S16 1_555 1_555
C65 N7 1_555 1_555
C66 S18 1_555 1_555
C73 S19 1_555 1_555
C73 S21 1_555 1_555
C74 S22 1_555 1_555
C78 C83 1_555 1_555
C78 N8 1_555 1_555
C79 S24 1_555 1_555
C90 S25 1_555 1_555
C92 S27 1_555 1_555
C92 S28 1_555 1_555
C96 N9 1_555 1_555
C97 S30 1_555 1_555
C107 S31 1_555 1_555
C109 S33 1_555 1_555
C109 S34 1_555 1_555
C113 N10 1_555 1_555
C114 S36 1_555 1_555
C123 S37 1_555 1_555
C125 S39 1_555 1_555
C125 S40 1_555 1_555
C129 N11 1_555 1_555
C130 S42 1_555 1_555
C140 S43 1_555 1_555
C142 S45 1_555 1_555
C142 S46 1_555 1_555
C146 N12 1_555 1_555
C147 S48 1_555 1_555
C157 C158 1_555 1_555
C160 O18 1_555 1_555
C162 O19 1_555 1_555
C167 C168 1_555 1_555

#END
