
#######################################################################
#
#                 Cambridge Crystallographic Data Centre
#                                CCDC 
#
#######################################################################
#
# If this CIF has been generated from an entry in the Cambridge 
# Structural Database, then it will include bibliographic, chemical, 
# crystal, experimental, refinement or atomic coordinate data resulting 
# from the CCDC's data processing and validation procedures.
#
#######################################################################

data_HOBYAZ
_chemical_formula_moiety         'C15 H9 F2 N5 O2 S1'
_chemical_name_systematic        
1-(2,6-Difluorobenzoyl)-3-(5-(4-pyridyl)-1,3,4-thiadiazol-2-yl)urea
_chemical_properties_biological  
'excellent fungicidal activities against Rhizoctonia solani, Botrytis cinerea and Dothiorella gregaria; good fungicidal activities against Fusarium oxysporium, Gibberella zeae and Colletotrichum gossypii; does not display auxin activity towards wheat coleoptile and cytokinin activity towards cucumber cotyledon'
_symmetry_cell_setting           triclinic
_symmetry_space_group_name_H-M   'P -1'
_symmetry_Int_Tables_number      2
_space_group_name_Hall           '-P 1'
loop_
_symmetry_equiv_pos_site_id
_symmetry_equiv_pos_as_xyz
1 x,y,z
2 -x,-y,-z
_cell_length_a                   7.0821(9)
_cell_length_b                   9.4896(13)
_cell_length_c                   11.6594(15)
_cell_angle_alpha                82.311(2)
_cell_angle_beta                 82.328(2)
_cell_angle_gamma                87.641(2)
_cell_volume                     769.372
_exptl_crystal_colour            colorless
_exptl_crystal_description       block
_chemical_melting_point          'above 300 deg.C'
_cell_formula_units_Z            2
loop_
_atom_site_label
_atom_site_type_symbol
_atom_site_fract_x
_atom_site_fract_y
_atom_site_fract_z
C1 C 0.2959(5) 0.6743(4) 0.3866(3)
C2 C 0.4072(5) 0.7438(4) 0.4472(3)
H1 H 0.3537 0.8149 0.4899
C3 C 0.5964(5) 0.7093(4) 0.4450(3)
H2 H 0.6712 0.7570 0.4865
C4 C 0.6778(5) 0.6043(4) 0.3820(3)
H3 H 0.8062 0.5790 0.3811
C5 C 0.5630(4) 0.5382(4) 0.3203(3)
C6 C 0.3731(4) 0.5697(3) 0.3182(2)
C7 C 0.2453(5) 0.4953(3) 0.2542(3)
C8 C 0.2472(4) 0.4048(3) 0.0630(3)
C9 C -0.0239(4) 0.2731(3) 0.0344(3)
C10 C -0.1385(4) 0.1298(3) -0.0897(3)
C11 C -0.1773(4) 0.0418(3) -0.1775(3)
C12 C -0.0380(5) 0.0025(4) -0.2630(3)
H4 H 0.0865 0.0325 -0.2676
C13 C -0.0872(6) -0.0825(4) -0.3419(3)
H5 H 0.0077 -0.1089 -0.3987
C14 C -0.3883(6) -0.0947(4) -0.2561(4)
H6 H -0.5098 -0.1306 -0.2509
C15 C -0.3571(5) -0.0106(4) -0.1735(3)
H7 H -0.4550 0.0105 -0.1164
F1 F 0.1102(3) 0.7068(2) 0.39085(18)
F2 F 0.6427(2) 0.4314(2) 0.26149(16)
N1 N 0.3226(3) 0.4768(3) 0.1415(2)
H8 H 0.4312 0.5148 0.1172
N2 N 0.0674(3) 0.3551(3) 0.0991(2)
H9 H 0.0088 0.3755 0.1645
N3 N -0.1906(4) 0.2261(3) 0.0753(2)
N4 N -0.2558(4) 0.1424(3) 0.0023(2)
N5 N -0.2634(6) -0.1287(4) -0.3408(3)
O1 O 0.0897(3) 0.4549(2) 0.29726(18)
O2 O 0.3312(3) 0.3909(3) -0.03115(19)
S1 S 0.07156(11) 0.22068(9) -0.09620(7)
loop_
_geom_bond_atom_site_label_1
_geom_bond_atom_site_label_2
_geom_bond_site_symmetry_1
_geom_bond_site_symmetry_2
C1 C2 1_555 1_555
C2 H1 1_555 1_555
C3 C2 1_555 1_555
H2 C3 1_555 1_555
C4 C3 1_555 1_555
H3 C4 1_555 1_555
C5 C4 1_555 1_555
C6 C1 1_555 1_555
C7 C6 1_555 1_555
C8 N1 1_555 1_555
C9 N2 1_555 1_555
C10 C11 1_555 1_555
C11 C12 1_555 1_555
C12 H4 1_555 1_555
C13 C12 1_555 1_555
H5 C13 1_555 1_555
C14 H6 1_555 1_555
C15 C11 1_555 1_555
H7 C15 1_555 1_555
F1 C1 1_555 1_555
F2 C5 1_555 1_555
N1 C7 1_555 1_555
H8 N1 1_555 1_555
N2 C8 1_555 1_555
H9 N2 1_555 1_555
N3 C9 1_555 1_555
N4 C10 1_555 1_555
N5 C13 1_555 1_555
O1 C7 1_555 1_555
O2 C8 1_555 1_555
S1 C9 1_555 1_555
C5 C6 1_555 1_555
C10 S1 1_555 1_555
C14 C15 1_555 1_555
C14 N5 1_555 1_555
N3 N4 1_555 1_555

#END
