
#######################################################################
#
#                 Cambridge Crystallographic Data Centre
#                                CCDC 
#
#######################################################################
#
# If this CIF has been generated from an entry in the Cambridge 
# Structural Database, then it will include bibliographic, chemical, 
# crystal, experimental, refinement or atomic coordinate data resulting 
# from the CCDC's data processing and validation procedures.
#
#######################################################################

data_HOBZAB
_chemical_formula_moiety         'C35 H48 N4 O12 Si2'
_chemical_name_systematic        
'3-(1-((3,5-Dinitrobenzoyl)oxy)-3,3-bis(triethylsilyl)prop-2-en-1-yl)cyclohexyl 3,5-dinitrobenzoate unknown solvate'
_symmetry_cell_setting           triclinic
_symmetry_space_group_name_H-M   'P -1'
_symmetry_Int_Tables_number      2
_space_group_name_Hall           '-P 1'
loop_
_symmetry_equiv_pos_site_id
_symmetry_equiv_pos_as_xyz
1 x,y,z
2 -x,-y,-z
_cell_length_a                   8.2957(8)
_cell_length_b                   9.7941(10)
_cell_length_c                   27.385(3)
_cell_angle_alpha                81.100(8)
_cell_angle_beta                 84.633(8)
_cell_angle_gamma                87.844(8)
_cell_volume                     2187.97
_exptl_crystal_colour            colorless
_cell_formula_units_Z            2
_exptl_crystal_recrystallization_method 'n-hexane/ethyl acetate'
loop_
_atom_site_label
_atom_site_type_symbol
_atom_site_fract_x
_atom_site_fract_y
_atom_site_fract_z
Si1 Si 0.95635(12) 0.54862(10) 0.37286(3)
Si2 Si 0.78727(14) 0.81680(11) 0.41778(4)
O1 O 1.0589(6) 0.8992(4) -0.12632(11)
O2 O 1.2594(5) 0.7593(5) -0.14193(12)
O3 O 1.3966(4) 0.3845(4) -0.01716(16)
O4 O 1.3017(6) 0.3842(5) 0.05830(17)
O5 O 1.0527(4) 1.3832(3) 0.15492(13)
O6 O 1.2460(4) 1.5165(3) 0.15777(14)
O7 O 1.7195(3) 1.3478(3) 0.23792(11)
O8 O 1.7433(3) 1.1340(3) 0.26724(12)
O9 O 0.8274(4) 0.8932(3) 0.04604(10)
O10 O 0.8959(3) 0.7138(2) 0.10083(8)
O11 O 1.2688(3) 0.8347(3) 0.28577(11)
O12 O 1.0496(2) 0.9243(2) 0.24932(8)
N1 N 1.1516(5) 0.8044(5) -0.11400(12)
N2 N 1.3120(4) 0.4317(4) 0.01519(19)
N3 N 1.1834(4) 1.4055(3) 0.16773(12)
N4 N 1.6688(3) 1.2321(3) 0.24778(10)
C1 C 1.0301(4) 0.7920(4) -0.02853(12)
H1 H 0.9689 0.8712 -0.0385
C2 C 1.1382(5) 0.7346(4) -0.06194(12)
C3 C 1.2311(4) 0.6195(5) -0.04921(14)
H2 H 1.3031 0.5840 -0.0725
C4 C 1.2140(4) 0.5585(4) -0.00098(14)
C5 C 1.1101(4) 0.6087(4) 0.03450(12)
H3 H 1.1024 0.5649 0.0673
C6 C 1.0168(4) 0.7267(3) 0.02027(11)
C7 C 0.9028(4) 0.7887(4) 0.05686(11)
C8 C 0.8011(4) 0.7624(4) 0.14303(11)
H4 H 0.7562 0.8553 0.1328
C9 C 0.9164(4) 0.7660(4) 0.18203(11)
H5 H 0.9981 0.8342 0.1697
H6 H 0.9709 0.6765 0.1886
C10 C 0.8294(4) 0.8016(3) 0.23032(11)
H7 H 0.7826 0.8952 0.2235
C11 C 0.6928(4) 0.7029(4) 0.24805(12)
H8 H 0.6336 0.7302 0.2774
H9 H 0.7374 0.6104 0.2571
C12 C 0.5774(4) 0.7017(5) 0.20815(14)
H10 H 0.5262 0.7924 0.2010
H11 H 0.4932 0.6357 0.2202
C13 C 0.6664(5) 0.6632(4) 0.16045(14)
H12 H 0.7103 0.5696 0.1667
H13 H 0.5915 0.6675 0.1351
C14 C 0.9526(4) 0.8013(3) 0.26845(11)
H14 H 1.0211 0.7172 0.2701
C15 C 1.2005(4) 0.9270(3) 0.26154(11)
C16 C 1.2746(4) 1.0639(3) 0.24200(11)
C17 C 1.1908(4) 1.1704(3) 0.21412(11)
H15 H 1.0853 1.1590 0.2069
C18 C 1.2688(4) 1.2928(3) 0.19768(12)
C19 C 1.4238(4) 1.3158(3) 0.20772(12)
H16 H 1.4736 1.3996 0.1962
C20 C 1.5015(4) 1.2095(3) 0.23552(11)
C21 C 1.4319(4) 1.0838(3) 0.25236(12)
H17 H 1.4894 1.0131 0.2704
C22 C 0.8801(4) 0.8207(3) 0.31950(10)
H18 H 0.8295 0.9062 0.3216
C23 C 0.8774(4) 0.7329(3) 0.36263(11)
C24 C 1.0775(5) 0.4849(4) 0.31900(14)
H19 H 1.0088 0.4858 0.2922
H20 H 1.1656 0.5473 0.3072
C25 C 1.1470(8) 0.3390(5) 0.33277(19)
H21 H 1.2325 0.3213 0.3082
H22 H 1.0632 0.2732 0.3341
H23 H 1.1892 0.3307 0.3646
C26 C 0.7853(6) 0.4257(5) 0.39364(17)
H24 H 0.8322 0.3338 0.4020
H25 H 0.7305 0.4510 0.4239
C27 C 0.6626(7) 0.4175(7) 0.3592(2)
H26 H 0.7127 0.3860 0.3298
H27 H 0.6136 0.5073 0.3505
H28 H 0.5812 0.3539 0.3747
C28 C 1.0870(5) 0.5306(4) 0.42549(15)
H29 H 1.0272 0.5668 0.4531
H30 H 1.1083 0.4330 0.4361
C29 C 1.2480(6) 0.6029(7) 0.4142(2)
H31 H 1.3086 0.5683 0.3869
H32 H 1.3082 0.5856 0.4429
H33 H 1.2288 0.7006 0.4056
C30 C 0.6742(5) 0.6919(5) 0.46690(14)
H34 H 0.5906 0.6502 0.4520
H35 H 0.7485 0.6187 0.4793
C31 C 0.5959(8) 0.7586(7) 0.51054(19)
H36 H 0.5078 0.8187 0.4998
H37 H 0.6749 0.8110 0.5226
H38 H 0.5557 0.6877 0.5366
C32 C 0.9625(7) 0.8835(6) 0.4479(2)
H39 H 0.9192 0.9202 0.4775
H40 H 1.0351 0.8065 0.4580
C33 C 1.0565(8) 0.9929(7) 0.4143(3)
H41 H 1.0901 0.9608 0.3835
H42 H 1.1502 1.0135 0.4297
H43 H 0.9897 1.0749 0.4082
C34 C 0.6639(7) 0.9737(6) 0.4003(2)
H44 H 0.6419 1.0217 0.4287
H45 H 0.7240 1.0350 0.3742
C35 C 0.5110(8) 0.9405(8) 0.3829(2)
H46 H 0.5324 0.8895 0.3557
H47 H 0.4523 1.0245 0.3722
H48 H 0.4476 0.8858 0.4095
loop_
_geom_bond_atom_site_label_1
_geom_bond_atom_site_label_2
_geom_bond_site_symmetry_1
_geom_bond_site_symmetry_2
Si1 C23 1_555 1_555
Si2 C23 1_555 1_555
O1 N1 1_555 1_555
O2 N1 1_555 1_555
O3 N2 1_555 1_555
O4 N2 1_555 1_555
O5 N3 1_555 1_555
O6 N3 1_555 1_555
O7 N4 1_555 1_555
O8 N4 1_555 1_555
O9 C7 1_555 1_555
O10 C7 1_555 1_555
O11 C15 1_555 1_555
O12 C14 1_555 1_555
N1 C2 1_555 1_555
N2 C4 1_555 1_555
N3 C18 1_555 1_555
N4 C20 1_555 1_555
C1 H1 1_555 1_555
C2 C1 1_555 1_555
C3 C2 1_555 1_555
H2 C3 1_555 1_555
C4 C3 1_555 1_555
C5 C4 1_555 1_555
H3 C5 1_555 1_555
C6 C1 1_555 1_555
C7 C6 1_555 1_555
C8 O10 1_555 1_555
H4 C8 1_555 1_555
C9 C8 1_555 1_555
H5 C9 1_555 1_555
H6 C9 1_555 1_555
C10 C9 1_555 1_555
H7 C10 1_555 1_555
C11 C10 1_555 1_555
H8 C11 1_555 1_555
H9 C11 1_555 1_555
C12 C11 1_555 1_555
H10 C12 1_555 1_555
H11 C12 1_555 1_555
C13 C8 1_555 1_555
H12 C13 1_555 1_555
H13 C13 1_555 1_555
C14 C10 1_555 1_555
H14 C14 1_555 1_555
C15 O12 1_555 1_555
C16 C15 1_555 1_555
C17 C16 1_555 1_555
H15 C17 1_555 1_555
C18 C17 1_555 1_555
C19 C18 1_555 1_555
H16 C19 1_555 1_555
C20 C19 1_555 1_555
C21 C16 1_555 1_555
H17 C21 1_555 1_555
C22 C14 1_555 1_555
H18 C22 1_555 1_555
C23 C22 1_555 1_555
C24 Si1 1_555 1_555
H19 C24 1_555 1_555
H20 C24 1_555 1_555
C25 C24 1_555 1_555
H21 C25 1_555 1_555
H22 C25 1_555 1_555
H23 C25 1_555 1_555
C26 Si1 1_555 1_555
H24 C26 1_555 1_555
H25 C26 1_555 1_555
C27 C26 1_555 1_555
H26 C27 1_555 1_555
H27 C27 1_555 1_555
H28 C27 1_555 1_555
C28 Si1 1_555 1_555
H29 C28 1_555 1_555
H30 C28 1_555 1_555
C29 C28 1_555 1_555
H31 C29 1_555 1_555
H32 C29 1_555 1_555
H33 C29 1_555 1_555
C30 Si2 1_555 1_555
H34 C30 1_555 1_555
H35 C30 1_555 1_555
C31 C30 1_555 1_555
H36 C31 1_555 1_555
H37 C31 1_555 1_555
H38 C31 1_555 1_555
C32 Si2 1_555 1_555
H39 C32 1_555 1_555
H40 C32 1_555 1_555
C33 C32 1_555 1_555
H41 C33 1_555 1_555
H42 C33 1_555 1_555
H43 C33 1_555 1_555
C34 Si2 1_555 1_555
H44 C34 1_555 1_555
H45 C34 1_555 1_555
C35 C34 1_555 1_555
H46 C35 1_555 1_555
H47 C35 1_555 1_555
H48 C35 1_555 1_555
C5 C6 1_555 1_555
C12 C13 1_555 1_555
C20 C21 1_555 1_555

#END
