
#######################################################################
#
#                 Cambridge Crystallographic Data Centre
#                                CCDC 
#
#######################################################################
#
# If this CIF has been generated from an entry in the Cambridge 
# Structural Database, then it will include bibliographic, chemical, 
# crystal, experimental, refinement or atomic coordinate data resulting 
# from the CCDC's data processing and validation procedures.
#
#######################################################################

data_HOBZII
_chemical_formula_moiety         '2(C46 H46 N2 O10 Rb1 1+),I3 1-,I5 1-'
_chemical_name_systematic        
'bis(bis(Dibenzopyridino-18-crown-6)-rubidium) triiodide pentaiodide'
_symmetry_cell_setting           triclinic
_symmetry_space_group_name_H-M   'P -1'
_symmetry_Int_Tables_number      2
_space_group_name_Hall           '-P 1'
loop_
_symmetry_equiv_pos_site_id
_symmetry_equiv_pos_as_xyz
1 x,y,z
2 -x,-y,-z
_cell_length_a                   14.9434(13)
_cell_length_b                   15.3407(14)
_cell_length_c                   24.1287(19)
_cell_angle_alpha                76.954(7)
_cell_angle_beta                 83.581(7)
_cell_angle_gamma                68.669(6)
_cell_volume                     5016.72
_exptl_crystal_colour            red
_exptl_crystal_description       plate
_cell_formula_units_Z            2
_exptl_crystal_recrystallization_method dichloromethane/ethanol
loop_
_atom_site_label
_atom_site_type_symbol
_atom_site_fract_x
_atom_site_fract_y
_atom_site_fract_z
I1 I 0.66017(6) 0.52789(7) -0.57150(3)
I4 I 0.59577(8) 0.35355(8) -0.52435(4)
I5 I 0.72237(8) 0.68241(8) -0.61484(4)
I6 I 0.67744(7) 0.25245(7) -0.62596(5)
I8 I 0.72259(8) 0.19172(9) -0.73062(6)
I2 I 0.21802(6) 0.85774(9) -0.10672(3)
I3 I 0.21919(6) 1.05063(9) -0.11186(4)
I7 I 0.22099(8) 0.66054(11) -0.09066(5)
Rb1 Rb 0.65775(6) 1.03973(6) -0.18378(3)
O4 O 0.6108(4) 1.1326(4) -0.0668(2)
O6 O 0.6431(5) 1.1873(5) -0.2931(2)
O9 O 0.5084(4) 0.9685(4) -0.1264(2)
O10 O 0.8158(5) 1.1138(4) -0.2466(2)
O11 O 0.5387(5) 0.9425(5) -0.2407(3)
O12 O 0.8360(4) 0.8899(4) -0.1044(2)
O14 O 0.4706(5) 1.1817(4) -0.2306(2)
O15 O 0.6924(5) 0.9627(4) -0.3034(3)
O16 O 0.6776(5) 0.8736(4) -0.0598(2)
O20 O 0.4538(5) 1.2218(4) -0.1184(3)
N3 N 0.7708(5) 1.1406(5) -0.1324(3)
N4 N 0.8409(5) 0.8747(5) -0.2153(3)
C1 C 0.7835(6) 1.1060(6) -0.0762(3)
C2 C 0.9221(7) 0.8746(6) -0.1960(3)
C4 C 0.4576(7) 0.9331(7) -0.2072(4)
H1 H 0.4354 0.8886 -0.2194
H2 H 0.4057 0.9944 -0.2109
C10 C 0.7563(7) 0.7937(6) -0.0466(3)
C11 C 0.5683(7) 1.2280(7) -0.0629(3)
C12 C 0.8422(7) 0.8017(6) -0.0726(3)
C13 C 0.9163(7) 0.9000(7) -0.1385(4)
H9 H 0.9744 0.8594 -0.1185
H10 H 0.9134 0.9656 -0.1439
C15 C 0.7018(6) 1.0820(6) -0.0419(3)
H12 H 0.7151 1.0140 -0.0372
H13 H 0.6991 1.0959 -0.0043
C17 C 0.5084(7) 0.9570(7) -0.0665(4)
H15 H 0.4466 0.9547 -0.0506
H16 H 0.5163 1.0122 -0.0575
C20 C 0.8465(8) 1.1543(6) -0.1643(4)
C22 C 0.8440(7) 0.8606(7) -0.2687(4)
C25 C 0.4306(8) 1.3686(7) -0.0858(4)
H19 H 0.3710 1.4002 -0.1024
C30 C 0.5495(7) 1.2302(7) -0.3162(4)
H25 H 0.5339 1.1842 -0.3314
H26 H 0.5474 1.2841 -0.3469
C33 C 0.4820(7) 1.2752(6) -0.0903(3)
C34 C 0.3783(7) 1.2676(7) -0.1562(4)
H29 H 0.3834 1.3271 -0.1779
H30 H 0.3171 1.2818 -0.1352
C36 C 1.0058(8) 0.8612(8) -0.2280(4)
H32 H 1.0608 0.8612 -0.2133
C37 C 0.7194(7) 1.1659(6) -0.3301(3)
C39 C 0.4887(7) 0.8968(7) -0.1466(4)
H35 H 0.4383 0.8798 -0.1229
H36 H 0.5459 0.8399 -0.1443
C40 C 0.8686(7) 1.0870(7) -0.0509(4)
H37 H 0.8748 1.0636 -0.0119
C41 C 0.7165(8) 1.1766(7) -0.3882(4)
H38 H 0.6573 1.2008 -0.4054
C44 C 0.9242(9) 0.6389(8) -0.0288(5)
H40 H 0.9807 0.5862 -0.0237
C46 C 0.9443(7) 1.1033(7) -0.0842(5)
H42 H 1.0023 1.0915 -0.0681
C48 C 0.9327(8) 1.1370(7) -0.1413(4)
H44 H 0.9830 1.1483 -0.1645
C49 C 0.8090(8) 1.1306(7) -0.3064(4)
C54 C 0.6093(7) 0.9795(6) -0.3309(4)
C55 C 0.4791(8) 1.2628(7) -0.2696(4)
H49 H 0.5009 1.3000 -0.2502
H50 H 0.4170 1.3029 -0.2853
C57 C 0.5275(7) 0.9728(7) -0.2982(4)
C58 C 0.4674(9) 1.4145(7) -0.0569(4)
H51 H 0.4329 1.4779 -0.0550
C59 C 0.8919(8) 1.1067(7) -0.3397(4)
H52 H 0.9513 1.0849 -0.3230
C62 C 0.7584(9) 0.7113(7) -0.0096(4)
H56 H 0.7021 0.7090 0.0104
C63 C 0.6047(8) 1.2774(7) -0.0339(4)
H57 H 0.6638 1.2469 -0.0167
C65 C 0.3840(7) 1.2018(7) -0.1962(4)
H60 H 0.3798 1.1422 -0.1739
H61 H 0.3294 1.2311 -0.2208
C66 C 0.9251(9) 0.8483(9) -0.3044(4)
H62 H 0.9241 0.8408 -0.3415
C68 C 0.4431(9) 0.9956(8) -0.3255(5)
H64 H 0.3873 0.9935 -0.3048
C69 C 0.9269(8) 0.7224(7) -0.0643(4)
H65 H 0.9842 0.7257 -0.0824
C71 C 0.5863(7) 0.8684(7) -0.0390(4)
H68 H 0.5812 0.8628 0.0020
H69 H 0.5792 0.8125 -0.0476
C73 C 0.8877(10) 1.1148(8) -0.3967(4)
H71 H 0.9439 1.0952 -0.4186
C74 C 0.8413(10) 0.6306(8) -0.0007(5)
H72 H 0.8408 0.5738 0.0230
C75 C 0.6057(9) 1.0072(7) -0.3885(4)
H73 H 0.6608 1.0104 -0.4097
C76 C 0.5530(9) 1.3701(8) -0.0312(4)
H74 H 0.5763 1.4028 -0.0117
C81 C 1.0067(8) 0.8475(9) -0.2831(5)
H79 H 1.0629 0.8377 -0.3056
C82 C 0.8288(9) 1.1878(7) -0.2275(4)
H80 H 0.7720 1.2450 -0.2343
H81 H 0.8833 1.2022 -0.2475
C84 C 0.7520(8) 0.8640(8) -0.2887(5)
H83 H 0.7638 0.8344 -0.3216
H84 H 0.7208 0.8301 -0.2588
C85 C 0.8004(9) 1.1518(8) -0.4218(4)
H85 H 0.7971 1.1604 -0.4610
C89 C 0.5215(11) 1.0306(9) -0.4161(5)
H89 H 0.5189 1.0521 -0.4553
C92 C 0.4433(10) 1.0220(9) -0.3855(6)
H92 H 0.3878 1.0337 -0.4043
Rb2 Rb 0.82651(7) 0.52728(7) -0.31664(3)
O1 O 0.6894(4) 0.4329(4) -0.3337(2)
O2 O 0.7101(4) 0.4248(4) -0.2267(2)
O3 O 0.8039(4) 0.6354(4) -0.2171(2)
O5 O 0.6503(5) 0.6737(4) -0.3897(2)
O7 O 1.0043(5) 0.3548(4) -0.3832(2)
O8 O 0.8220(4) 0.4677(4) -0.4234(2)
O13 O 0.8143(5) 0.7168(5) -0.4397(3)
N1 N 0.8913(6) 0.3797(5) -0.1944(3)
O17 O 0.9761(5) 0.6126(5) -0.3984(3)
O18 O 1.0324(5) 0.3503(5) -0.2796(2)
O19 O 0.6493(4) 0.6807(4) -0.2730(2)
N2 N 0.9756(5) 0.5927(5) -0.2777(3)
C3 C 0.8244(7) 0.3805(6) -0.1528(3)
C5 C 0.7229(7) 0.4055(6) -0.1672(3)
H3 H 0.7012 0.3530 -0.1492
H4 H 0.6832 0.4612 -0.1520
C6 C 0.7782(7) 0.3971(6) -0.4183(3)
H5 H 0.8165 0.3377 -0.3947
H6 H 0.7742 0.3850 -0.4555
C7 C 0.9055(7) 0.4540(7) -0.4592(3)
H7 H 0.9299 0.5048 -0.4599
H8 H 0.8883 0.4586 -0.4976
C8 C 0.9833(7) 0.3534(6) -0.1798(4)
C9 C 0.9750(7) 0.6110(7) -0.2254(4)
C14 C 0.4465(7) 0.5000(7) -0.2290(5)
H11 H 0.3925 0.5152 -0.2049
C16 C 0.5365(7) 0.4690(7) -0.2077(4)
H14 H 0.5432 0.4610 -0.1688
C18 C 0.6065(6) 0.4557(6) -0.3013(3)
C19 C 0.6172(6) 0.4496(6) -0.2431(3)
C21 C 0.9829(8) 0.3604(7) -0.4411(3)
H17 H 0.9618 0.3085 -0.4431
H18 H 1.0397 0.3560 -0.4657
C23 C 0.7208(7) 0.6410(6) -0.1851(3)
C24 C 1.0706(7) 0.2638(7) -0.2962(4)
C26 C 0.6384(7) 0.6632(6) -0.2140(4)
C27 C 1.1382(7) 0.5851(9) -0.2897(5)
H20 H 1.1932 0.5779 -0.3131
C28 C 0.5637(7) 0.7141(7) -0.3042(4)
H21 H 0.5148 0.7652 -0.2888
H22 H 0.5394 0.6626 -0.3014
C29 C 0.6811(7) 0.4326(7) -0.3923(3)
H23 H 0.6464 0.4968 -0.4123
H24 H 0.6458 0.3918 -0.3950
C31 C 1.0580(7) 0.5798(7) -0.3088(4)
C32 C 1.0600(7) 0.5547(8) -0.3655(4)
H27 H 1.1166 0.5614 -0.3872
H28 H 1.0657 0.4882 -0.3596
C35 C 0.5156(7) 0.4865(6) -0.3212(4)
H31 H 0.5078 0.4926 -0.3598
C38 C 1.0590(7) 0.3566(7) -0.2264(4)
H33 H 1.0712 0.4157 -0.2307
H34 H 1.1183 0.3042 -0.2152
C42 C 0.5527(7) 0.6664(6) -0.1850(4)
H39 H 0.4979 0.6810 -0.2051
C43 C 0.8782(9) 0.7611(7) -0.4439(4)
C45 C 0.9328(12) 0.8949(9) -0.4718(5)
H41 H 0.9212 0.9589 -0.4881
C47 C 0.6284(9) 0.6252(7) -0.0972(4)
H43 H 0.6260 0.6101 -0.0577
C50 C 1.1190(7) 0.1776(8) -0.2619(4)
H45 H 1.1255 0.1749 -0.2235
C51 C 0.8868(7) 0.6187(7) -0.1872(3)
H46 H 0.8988 0.5601 -0.1589
H47 H 0.8746 0.6705 -0.1674
C52 C 1.0568(6) 0.2665(7) -0.3539(4)
C53 C 0.8453(8) 0.3598(8) -0.0953(3)
H48 H 0.7965 0.3632 -0.0675
C56 C 0.9674(8) 0.7044(7) -0.4215(4)
C60 C 0.7163(8) 0.6237(7) -0.1259(4)
H53 H 0.7704 0.6113 -0.1056
C61 C 0.7218(9) 0.7662(8) -0.4638(4)
H54 H 0.7284 0.7851 -0.5048
H55 H 0.6887 0.8232 -0.4483
C64 C 0.6662(8) 0.6998(8) -0.4493(4)
H58 H 0.6047 0.7302 -0.4674
H59 H 0.7011 0.6425 -0.4642
C67 C 0.8622(10) 0.8568(8) -0.4698(4)
H63 H 0.8032 0.8948 -0.4857
C70 C 0.5875(7) 0.7501(7) -0.3655(4)
H66 H 0.5290 0.7805 -0.3867
H67 H 0.6175 0.7972 -0.3675
C72 C 1.0973(8) 0.1838(7) -0.3746(4)
H70 H 1.0903 0.1850 -0.4126
C77 C 1.0398(9) 0.7417(9) -0.4251(4)
H75 H 1.1005 0.7038 -0.4116
C78 C 1.1373(9) 0.6012(9) -0.2356(5)
H76 H 1.1918 0.6028 -0.2213
C79 C 1.0083(8) 0.3288(8) -0.1218(4)
H77 H 1.0722 0.3089 -0.1121
C80 C 0.5476(8) 0.6480(7) -0.1258(4)
H78 H 0.4895 0.6514 -0.1062
C83 C 0.4361(7) 0.5085(7) -0.2858(4)
H82 H 0.3750 0.5291 -0.3003
C86 C 1.0538(8) 0.6146(8) -0.2039(4)
H86 H 1.0505 0.6263 -0.1674
C87 C 1.1577(9) 0.0959(9) -0.2835(6)
H87 H 1.1903 0.0382 -0.2599
C88 C 1.0184(13) 0.8397(10) -0.4502(5)
H88 H 1.0656 0.8664 -0.4516
C90 C 0.9375(9) 0.3348(8) -0.0807(4)
H90 H 0.9523 0.3218 -0.0426
C91 C 1.1483(10) 0.0991(9) -0.3400(6)
H91 H 1.1764 0.0440 -0.3550
loop_
_geom_bond_atom_site_label_1
_geom_bond_atom_site_label_2
_geom_bond_site_symmetry_1
_geom_bond_site_symmetry_2
I1 I4 1_555 1_555
I2 I3 1_555 1_555
Rb1 O4 1_555 1_555
Rb2 O1 1_555 1_555
I4 I6 1_555 1_555
I5 I1 1_555 1_555
I6 I8 1_555 1_555
I7 I2 1_555 1_555
O1 C18 1_555 1_555
O2 Rb2 1_555 1_555
O3 Rb2 1_555 1_555
O4 C11 1_555 1_555
O5 Rb2 1_555 1_555
O6 Rb1 1_555 1_555
O7 Rb2 1_555 1_555
O8 Rb2 1_555 1_555
O9 Rb1 1_555 1_555
O10 Rb1 1_555 1_555
O11 Rb1 1_555 1_555
O12 Rb1 1_555 1_555
O13 Rb2 1_555 1_555
O14 Rb1 1_555 1_555
O15 Rb1 1_555 1_555
N1 Rb2 1_555 1_555
O16 Rb1 1_555 1_555
O17 Rb2 1_555 1_555
O18 Rb2 1_555 1_555
O19 Rb2 1_555 1_555
O20 Rb1 1_555 1_555
N2 Rb2 1_555 1_555
N3 Rb1 1_555 1_555
N4 Rb1 1_555 1_555
C1 N3 1_555 1_555
C2 N4 1_555 1_555
C3 N1 1_555 1_555
C4 O11 1_555 1_555
H1 C4 1_555 1_555
H2 C4 1_555 1_555
C5 O2 1_555 1_555
H3 C5 1_555 1_555
H4 C5 1_555 1_555
C6 O8 1_555 1_555
H5 C6 1_555 1_555
H6 C6 1_555 1_555
C7 O8 1_555 1_555
H7 C7 1_555 1_555
H8 C7 1_555 1_555
C8 N1 1_555 1_555
C9 N2 1_555 1_555
C10 O16 1_555 1_555
C11 C33 1_555 1_555
C12 O12 1_555 1_555
C13 O12 1_555 1_555
H9 C13 1_555 1_555
H10 C13 1_555 1_555
C14 H11 1_555 1_555
C15 O4 1_555 1_555
H12 C15 1_555 1_555
H13 C15 1_555 1_555
C16 C14 1_555 1_555
H14 C16 1_555 1_555
C17 O9 1_555 1_555
H15 C17 1_555 1_555
H16 C17 1_555 1_555
C18 C19 1_555 1_555
C19 O2 1_555 1_555
C20 N3 1_555 1_555
C21 O7 1_555 1_555
H17 C21 1_555 1_555
H18 C21 1_555 1_555
C22 N4 1_555 1_555
C23 O3 1_555 1_555
C24 O18 1_555 1_555
C25 H19 1_555 1_555
C26 O19 1_555 1_555
C27 H20 1_555 1_555
C28 O19 1_555 1_555
H21 C28 1_555 1_555
H22 C28 1_555 1_555
C29 O1 1_555 1_555
H23 C29 1_555 1_555
H24 C29 1_555 1_555
C30 O6 1_555 1_555
H25 C30 1_555 1_555
H26 C30 1_555 1_555
C31 N2 1_555 1_555
C32 O17 1_555 1_555
H27 C32 1_555 1_555
H28 C32 1_555 1_555
C33 O20 1_555 1_555
C34 O20 1_555 1_555
H29 C34 1_555 1_555
H30 C34 1_555 1_555
C35 C18 1_555 1_555
H31 C35 1_555 1_555
C36 C2 1_555 1_555
H32 C36 1_555 1_555
C37 O6 1_555 1_555
C38 O18 1_555 1_555
H33 C38 1_555 1_555
H34 C38 1_555 1_555
C39 O9 1_555 1_555
H35 C39 1_555 1_555
H36 C39 1_555 1_555
C40 C1 1_555 1_555
H37 C40 1_555 1_555
C41 C37 1_555 1_555
H38 C41 1_555 1_555
C42 C26 1_555 1_555
H39 C42 1_555 1_555
C43 O13 1_555 1_555
C44 H40 1_555 1_555
C45 H41 1_555 1_555
C46 C40 1_555 1_555
H42 C46 1_555 1_555
C47 H43 1_555 1_555
C48 C20 1_555 1_555
H44 C48 1_555 1_555
C49 O10 1_555 1_555
C50 C24 1_555 1_555
H45 C50 1_555 1_555
C51 O3 1_555 1_555
H46 C51 1_555 1_555
H47 C51 1_555 1_555
C52 O7 1_555 1_555
C53 C3 1_555 1_555
H48 C53 1_555 1_555
C54 O15 1_555 1_555
C55 O14 1_555 1_555
H49 C55 1_555 1_555
H50 C55 1_555 1_555
C56 O17 1_555 1_555
C57 O11 1_555 1_555
C58 C25 1_555 1_555
H51 C58 1_555 1_555
C59 C49 1_555 1_555
H52 C59 1_555 1_555
C60 C23 1_555 1_555
H53 C60 1_555 1_555
C61 O13 1_555 1_555
H54 C61 1_555 1_555
H55 C61 1_555 1_555
C62 C10 1_555 1_555
H56 C62 1_555 1_555
C63 C11 1_555 1_555
H57 C63 1_555 1_555
C64 O5 1_555 1_555
H58 C64 1_555 1_555
H59 C64 1_555 1_555
C65 O14 1_555 1_555
H60 C65 1_555 1_555
H61 C65 1_555 1_555
C66 C22 1_555 1_555
H62 C66 1_555 1_555
C67 C43 1_555 1_555
H63 C67 1_555 1_555
C68 C57 1_555 1_555
H64 C68 1_555 1_555
C69 C12 1_555 1_555
H65 C69 1_555 1_555
C70 O5 1_555 1_555
H66 C70 1_555 1_555
H67 C70 1_555 1_555
C71 O16 1_555 1_555
H68 C71 1_555 1_555
H69 C71 1_555 1_555
C72 C52 1_555 1_555
H70 C72 1_555 1_555
C73 C59 1_555 1_555
H71 C73 1_555 1_555
C74 C44 1_555 1_555
H72 C74 1_555 1_555
C75 C54 1_555 1_555
H73 C75 1_555 1_555
C76 C58 1_555 1_555
H74 C76 1_555 1_555
C77 C56 1_555 1_555
H75 C77 1_555 1_555
C78 C27 1_555 1_555
H76 C78 1_555 1_555
C79 C8 1_555 1_555
H77 C79 1_555 1_555
C80 C42 1_555 1_555
H78 C80 1_555 1_555
C81 C36 1_555 1_555
H79 C81 1_555 1_555
C82 O10 1_555 1_555
H80 C82 1_555 1_555
H81 C82 1_555 1_555
C83 C14 1_555 1_555
H82 C83 1_555 1_555
C84 O15 1_555 1_555
H83 C84 1_555 1_555
H84 C84 1_555 1_555
C85 C41 1_555 1_555
H85 C85 1_555 1_555
C86 C9 1_555 1_555
H86 C86 1_555 1_555
C87 C50 1_555 1_555
H87 C87 1_555 1_555
C88 C45 1_555 1_555
H88 C88 1_555 1_555
C89 C75 1_555 1_555
H89 C89 1_555 1_555
C90 C53 1_555 1_555
H90 C90 1_555 1_555
C91 C72 1_555 1_555
H91 C91 1_555 1_555
C92 C68 1_555 1_555
H92 C92 1_555 1_555
C1 C15 1_555 1_555
C2 C13 1_555 1_555
C3 C5 1_555 1_555
C4 C39 1_555 1_555
C6 C29 1_555 1_555
C7 C21 1_555 1_555
C8 C38 1_555 1_555
C9 C51 1_555 1_555
C10 C12 1_555 1_555
C16 C19 1_555 1_555
C17 C71 1_555 1_555
C20 C82 1_555 1_555
C22 C84 1_555 1_555
C23 C26 1_555 1_555
C24 C52 1_555 1_555
C25 C33 1_555 1_555
C27 C31 1_555 1_555
C28 C70 1_555 1_555
C30 C55 1_555 1_555
C31 C32 1_555 1_555
C34 C65 1_555 1_555
C35 C83 1_555 1_555
C37 C49 1_555 1_555
C43 C56 1_555 1_555
C44 C69 1_555 1_555
C45 C67 1_555 1_555
C46 C48 1_555 1_555
C47 C60 1_555 1_555
C47 C80 1_555 1_555
C54 C57 1_555 1_555
C61 C64 1_555 1_555
C62 C74 1_555 1_555
C63 C76 1_555 1_555
C66 C81 1_555 1_555
C73 C85 1_555 1_555
C77 C88 1_555 1_555
C78 C86 1_555 1_555
C79 C90 1_555 1_555
C87 C91 1_555 1_555
C89 C92 1_555 1_555

#END
