
#######################################################################
#
#                 Cambridge Crystallographic Data Centre
#                                CCDC 
#
#######################################################################
#
# If this CIF has been generated from an entry in the Cambridge 
# Structural Database, then it will include bibliographic, chemical, 
# crystal, experimental, refinement or atomic coordinate data resulting 
# from the CCDC's data processing and validation procedures.
#
#######################################################################

data_HOCDUY
_chemical_formula_moiety         'C11 H12 I1 N1 O1 Se1'
_chemical_name_systematic        
'(2-(4,4-Dimethyl-2-oxazolinyl)phenyl)selanyl iodide'
_symmetry_cell_setting           monoclinic
_symmetry_space_group_name_H-M   'P 21/n'
_symmetry_Int_Tables_number      14
_space_group_name_Hall           '-P 2yn'
loop_
_symmetry_equiv_pos_site_id
_symmetry_equiv_pos_as_xyz
1 x,y,z
2 1/2+x,1/2-y,1/2+z
3 -x,-y,-z
4 1/2-x,1/2+y,1/2-z
_cell_length_a                   11.7210(10)
_cell_length_b                   9.6820(10)
_cell_length_c                   12.5000(10)
_cell_angle_alpha                90
_cell_angle_beta                 115.160(10)
_cell_angle_gamma                90
_cell_volume                     1283.95
_exptl_crystal_colour            brick-red
_chemical_melting_point          '122-124 deg.C'
_cell_formula_units_Z            4
_exptl_crystal_recrystallization_method chloroform/hexane
loop_
_atom_site_label
_atom_site_type_symbol
_atom_site_fract_x
_atom_site_fract_y
_atom_site_fract_z
I1 I 0.95841(4) 0.67059(4) 0.09941(3)
Se1 Se 0.81505(5) 0.43178(5) 0.02368(4)
O1 O 0.5272(4) 0.1534(4) -0.0355(4)
N1 N 0.6983(4) 0.2531(4) -0.0356(3)
C1 C 0.7066(5) 0.4629(5) 0.1036(4)
C2 C 0.7156(5) 0.5730(6) 0.1775(4)
H1 H 0.7759(55) 0.6496(59) 0.1966(50)
C3 C 0.6302(6) 0.5810(6) 0.2276(5)
H2 H 0.6288(51) 0.6502(56) 0.2778(50)
C4 C 0.5363(6) 0.4837(6) 0.2042(4)
H3 H 0.4765(52) 0.4863(57) 0.2367(49)
C5 C 0.5270(6) 0.3737(6) 0.1305(5)
H4 H 0.4694(43) 0.3049(49) 0.1141(38)
C6 C 0.6120(5) 0.3637(5) 0.0806(4)
C7 C 0.6110(5) 0.2544(5) 0.0007(4)
C8 C 0.5562(9) 0.0739(8) -0.1211(7)
H5 H 0.4811(78) 0.0690(85) -0.2027(78)
H6 H 0.5767(68) -0.0158(86) -0.0937(64)
C9 C 0.6815(6) 0.1340(5) -0.1159(4)
C10 C 0.7922(11) 0.0382(8) -0.0615(8)
H7 H 0.8821(88) 0.0913(97) -0.0353(79)
H8 H 0.832(13) 0.007(16) 0.022(13)
H9 H 0.7741(85) -0.0322(96) -0.1044(87)
C11 C 0.6643(7) 0.1851(7) -0.2364(5)
H10 H 0.7372(70) 0.2312(73) -0.2347(60)
H11 H 0.6473(63) 0.0999(74) -0.2899(63)
H12 H 0.5790(61) 0.2491(67) -0.2802(56)
loop_
_geom_bond_atom_site_label_1
_geom_bond_atom_site_label_2
_geom_bond_site_symmetry_1
_geom_bond_site_symmetry_2
I1 Se1 1_555 1_555
Se1 N1 1_555 1_555
O1 C7 1_555 1_555
N1 C7 1_555 1_555
C1 Se1 1_555 1_555
C2 C1 1_555 1_555
H1 C2 1_555 1_555
C3 C2 1_555 1_555
H2 C3 1_555 1_555
C4 C3 1_555 1_555
H3 C4 1_555 1_555
C5 C4 1_555 1_555
H4 C5 1_555 1_555
C6 C1 1_555 1_555
C7 C6 1_555 1_555
C8 O1 1_555 1_555
H5 C8 1_555 1_555
H6 C8 1_555 1_555
C9 N1 1_555 1_555
C10 C9 1_555 1_555
H7 C10 1_555 1_555
H8 C10 1_555 1_555
H9 C10 1_555 1_555
C11 C9 1_555 1_555
H10 C11 1_555 1_555
H11 C11 1_555 1_555
H12 C11 1_555 1_555
C5 C6 1_555 1_555
C8 C9 1_555 1_555

#END
