
#######################################################################
#
#                 Cambridge Crystallographic Data Centre
#                                CCDC 
#
#######################################################################
#
# If this CIF has been generated from an entry in the Cambridge 
# Structural Database, then it will include bibliographic, chemical, 
# crystal, experimental, refinement or atomic coordinate data resulting 
# from the CCDC's data processing and validation procedures.
#
#######################################################################

data_HOCJAM
_chemical_formula_moiety         'C9 H8 F3 N1 O2'
_chemical_name_systematic        'methyl 4-amino-3-(trifluoromethyl)benzoate'
_symmetry_cell_setting           monoclinic
_symmetry_space_group_name_H-M   'C 2/c'
_symmetry_Int_Tables_number      15
_space_group_name_Hall           '-C 2yn'
loop_
_symmetry_equiv_pos_site_id
_symmetry_equiv_pos_as_xyz
1 x,y,z
2 -x,y,1/2-z
3 1/2+x,1/2+y,z
4 1/2-x,1/2+y,1/2-z
5 -x,-y,-z
6 x,-y,1/2+z
7 1/2-x,1/2-y,-z
8 1/2+x,1/2-y,1/2+z
_cell_length_a                   15.293(3)
_cell_length_b                   8.606(2)
_cell_length_c                   14.701(3)
_cell_angle_alpha                90
_cell_angle_beta                 106.010(4)
_cell_angle_gamma                90
_cell_volume                     1859.78
_cell_formula_units_Z            8
loop_
_atom_site_label
_atom_site_type_symbol
_atom_site_fract_x
_atom_site_fract_y
_atom_site_fract_z
C1 C 0.76848(10) 0.45681(18) 0.87805(11)
C2 C 0.80820(11) 0.44062(19) 0.80338(11)
C3 C 0.89013(11) 0.5204(2) 0.81086(12)
H1 H 0.9180 0.5115 0.7623
C4 C 0.92999(11) 0.6108(2) 0.88781(12)
H2 H 0.9842 0.6620 0.8906
C5 C 0.89011(10) 0.62694(19) 0.96202(11)
C6 C 0.80930(11) 0.54847(19) 0.95596(12)
H3 H 0.7820 0.5575 1.0050
C7 C 0.93101(11) 0.72018(19) 1.04780(12)
C8 C 1.05135(13) 0.8884(2) 1.12288(13)
H4 H 1.0214 0.9872 1.1190
H5 H 1.1135 0.9038 1.1227
H6 H 1.0497 0.8368 1.1803
C9 C 0.68378(12) 0.3703(2) 0.87681(12)
F1 F 0.61550(7) 0.39613(15) 0.79859(8)
F2 F 0.69669(8) 0.21522(13) 0.87872(9)
F3 F 0.65171(7) 0.40348(16) 0.95012(8)
N1 N 0.77091(11) 0.3534(2) 0.72409(11)
H7 H 0.8041 0.3260 0.6811
H8 H 0.7219 0.2863 0.7210
O1 O 1.00570(8) 0.79446(15) 1.04301(8)
O2 O 0.90085(9) 0.72864(17) 1.11516(9)
loop_
_geom_bond_atom_site_label_1
_geom_bond_atom_site_label_2
_geom_bond_site_symmetry_1
_geom_bond_site_symmetry_2
C1 C2 1_555 1_555
C2 C3 1_555 1_555
C3 H1 1_555 1_555
C4 C3 1_555 1_555
H2 C4 1_555 1_555
C5 C4 1_555 1_555
C6 C1 1_555 1_555
H3 C6 1_555 1_555
C7 C5 1_555 1_555
C8 H4 1_555 1_555
H5 C8 1_555 1_555
H6 C8 1_555 1_555
C9 C1 1_555 1_555
F1 C9 1_555 1_555
F2 C9 1_555 1_555
F3 C9 1_555 1_555
N1 C2 1_555 1_555
H7 N1 1_555 1_555
H8 N1 1_555 1_555
O1 C7 1_555 1_555
O2 C7 1_555 1_555
C5 C6 1_555 1_555
C8 O1 1_555 1_555

#END
