
#######################################################################
#
#                 Cambridge Crystallographic Data Centre
#                                CCDC 
#
#######################################################################
#
# If this CIF has been generated from an entry in the Cambridge 
# Structural Database, then it will include bibliographic, chemical, 
# crystal, experimental, refinement or atomic coordinate data resulting 
# from the CCDC's data processing and validation procedures.
#
#######################################################################

data_HOCMOC
_chemical_formula_moiety         'C17 H14 F3 N3 O1'
_chemical_name_systematic        
1-Benzyl-4-(\a-hydroxybenzyl)-5-trifluoromethyl-1H-1,2,3-triazole
_symmetry_cell_setting           monoclinic
_symmetry_space_group_name_H-M   'P 21/n'
_symmetry_Int_Tables_number      14
_space_group_name_Hall           '-P 2yn'
loop_
_symmetry_equiv_pos_site_id
_symmetry_equiv_pos_as_xyz
1 x,y,z
2 1/2-x,1/2+y,1/2-z
3 -x,-y,-z
4 1/2+x,1/2-y,1/2+z
_cell_length_a                   11.5665(16)
_cell_length_b                   8.2320(12)
_cell_length_c                   16.700(2)
_cell_angle_alpha                90
_cell_angle_beta                 95.005(3)
_cell_angle_gamma                90
_cell_volume                     1584.03
_exptl_crystal_colour            colorless
_exptl_crystal_description       prismatic
_cell_formula_units_Z            4
loop_
_atom_site_label
_atom_site_type_symbol
_atom_site_fract_x
_atom_site_fract_y
_atom_site_fract_z
O1 O 0.80937(13) -0.04209(16) -0.03365(9)
H1 H 0.8783 -0.0670 -0.0283
N1 N 0.96938(15) 0.22552(19) 0.01664(9)
N2 N 0.99844(14) 0.3440(2) 0.06756(9)
N3 N 0.90472(15) 0.43343(18) 0.07648(8)
F1 F 0.6203(4) 0.3764(8) -0.0250(4)
F2 F 0.7001(4) 0.6007(3) 0.0028(3)
F3 F 0.6521(5) 0.4531(8) 0.0959(3)
C1 C 0.81190(17) 0.3711(2) 0.03007(10)
C2 C 0.85406(16) 0.2391(2) -0.00776(10)
C3 C 0.6961(2) 0.4478(3) 0.02605(14)
C4 C 0.79750(17) 0.1162(2) -0.06557(11)
H2 H 0.7143 0.1408 -0.0709
C5 C 0.83990(16) 0.1352(2) -0.14895(10)
C6 C 0.7814(2) 0.2364(3) -0.20444(13)
H3 H 0.7161 0.2925 -0.1908
C7 C 0.8192(3) 0.2552(3) -0.28052(15)
H4 H 0.7787 0.3233 -0.3176
C8 C 0.9146(2) 0.1751(3) -0.30131(12)
H5 H 0.9395 0.1880 -0.3524
C9 C 0.9741(2) 0.0755(3) -0.24669(12)
H6 H 1.0402 0.0214 -0.2604
C10 C 0.9359(2) 0.0550(3) -0.17094(12)
H7 H 0.9762 -0.0144 -0.1344
C11 C 0.9126(2) 0.5670(2) 0.13455(11)
H8 H 0.8566 0.6500 0.1168
H9 H 0.9893 0.6150 0.1359
C12 C 0.89052(18) 0.5140(2) 0.21827(10)
C13 C 0.96037(19) 0.3993(3) 0.25774(12)
H10 H 1.0191 0.3500 0.2318
C14 C 0.9433(2) 0.3570(3) 0.33630(13)
H11 H 0.9907 0.2793 0.3629
C15 C 0.8573(3) 0.4289(3) 0.37490(13)
H12 H 0.8464 0.4008 0.4276
C16 C 0.7883(3) 0.5408(3) 0.33600(14)
H13 H 0.7294 0.5890 0.3621
C17 C 0.8040(2) 0.5853(3) 0.25740(13)
H14 H 0.7561 0.6631 0.2314
F4? F 0.6754(18) 0.562(4) -0.0228(13)
F5? F 0.6638(14) 0.483(2) 0.0950(8)
F6? F 0.6177(12) 0.322(2) 0.0095(19)
loop_
_geom_bond_atom_site_label_1
_geom_bond_atom_site_label_2
_geom_bond_site_symmetry_1
_geom_bond_site_symmetry_2
O1 H1 1_555 1_555
N1 N2 1_555 1_555
N2 N3 1_555 1_555
N3 C1 1_555 1_555
F1 C3 1_555 1_555
F2 C3 1_555 1_555
F3 C3 1_555 1_555
C1 C2 1_555 1_555
C2 N1 1_555 1_555
C3 C1 1_555 1_555
C4 O1 1_555 1_555
H2 C4 1_555 1_555
C5 C4 1_555 1_555
C6 C5 1_555 1_555
H3 C6 1_555 1_555
C7 C6 1_555 1_555
H4 C7 1_555 1_555
C8 C7 1_555 1_555
H5 C8 1_555 1_555
C9 C8 1_555 1_555
H6 C9 1_555 1_555
C10 C5 1_555 1_555
H7 C10 1_555 1_555
C11 N3 1_555 1_555
H8 C11 1_555 1_555
H9 C11 1_555 1_555
C12 C11 1_555 1_555
C13 C12 1_555 1_555
H10 C13 1_555 1_555
C14 C13 1_555 1_555
H11 C14 1_555 1_555
C15 C14 1_555 1_555
H12 C15 1_555 1_555
C16 C15 1_555 1_555
H13 C16 1_555 1_555
C17 C12 1_555 1_555
H14 C17 1_555 1_555
C2 C4 1_555 1_555
C9 C10 1_555 1_555
C16 C17 1_555 1_555

#END
