
#######################################################################
#
#                 Cambridge Crystallographic Data Centre
#                                CCDC 
#
#######################################################################
#
# If this CIF has been generated from an entry in the Cambridge 
# Structural Database, then it will include bibliographic, chemical, 
# crystal, experimental, refinement or atomic coordinate data resulting 
# from the CCDC's data processing and validation procedures.
#
#######################################################################

data_HOCNEU
_chemical_formula_moiety         'C9 H14 Cl2 N2 O2'
_chemical_name_systematic        
2,2-Dichloro-1,3-diisopropylimidazolidine-4,5-dione
_symmetry_cell_setting           monoclinic
_symmetry_space_group_name_H-M   'P 21/n'
_symmetry_Int_Tables_number      14
_space_group_name_Hall           '-P 2yn'
loop_
_symmetry_equiv_pos_site_id
_symmetry_equiv_pos_as_xyz
1 x,y,z
2 1/2-x,1/2+y,1/2-z
3 -x,-y,-z
4 1/2+x,1/2-y,1/2+z
_cell_length_a                   5.8444(12)
_cell_length_b                   19.476(4)
_cell_length_c                   10.909(2)
_cell_angle_alpha                90
_cell_angle_beta                 95.18(3)
_cell_angle_gamma                90
_cell_volume                     1236.65
_cell_formula_units_Z            4
loop_
_atom_site_label
_atom_site_type_symbol
_atom_site_fract_x
_atom_site_fract_y
_atom_site_fract_z
C1 C 0.0588(3) 0.14285(11) 0.38662(17)
C2 C 0.2410(4) 0.13262(11) 0.21066(19)
C3 C 0.2426(4) 0.20762(11) 0.24991(18)
C4 C 0.0769(4) 0.02317(12) 0.2953(2)
H1 H -0.0077 0.0136 0.3669
C5 C -0.0777(6) 0.00391(16) 0.1806(3)
H2 H -0.2113 0.0328 0.1743
H3 H -0.1238 -0.0432 0.1861
H4 H 0.0046 0.0100 0.1091
C6 C 0.3002(5) -0.01779(14) 0.3102(3)
H5 H 0.3843 -0.0107 0.2396
H6 H 0.2657 -0.0657 0.3175
H7 H 0.3912 -0.0028 0.3829
C7 C 0.0791(4) 0.27193(11) 0.42613(18)
H8 H -0.0080 0.2573 0.4943
C8 C 0.3018(4) 0.30457(14) 0.4814(2)
H9 H 0.3908 0.2710 0.5293
H10 H 0.2670 0.3423 0.5332
H11 H 0.3880 0.3209 0.4165
C9 C -0.0721(5) 0.32087(13) 0.3457(2)
H12 H 0.0118 0.3376 0.2801
H13 H -0.1163 0.3588 0.3945
H14 H -0.2070 0.2970 0.3117
Cl1 Cl 0.19259(10) 0.11909(3) 0.53722(5)
Cl2 Cl -0.24792(9) 0.13876(3) 0.40006(6)
N1 N 0.1272(3) 0.09782(9) 0.29498(15)
N2 N 0.1291(3) 0.20948(8) 0.35373(14)
O1 O 0.3250(3) 0.10918(9) 0.12207(14)
O2 O 0.3267(3) 0.25535(8) 0.19895(14)
loop_
_geom_bond_atom_site_label_1
_geom_bond_atom_site_label_2
_geom_bond_site_symmetry_1
_geom_bond_site_symmetry_2
C1 Cl1 1_555 1_555
C2 C3 1_555 1_555
C3 N2 1_555 1_555
C4 H1 1_555 1_555
C5 C4 1_555 1_555
H2 C5 1_555 1_555
H3 C5 1_555 1_555
H4 C5 1_555 1_555
C6 C4 1_555 1_555
H5 C6 1_555 1_555
H6 C6 1_555 1_555
H7 C6 1_555 1_555
C7 H8 1_555 1_555
C8 C7 1_555 1_555
H9 C8 1_555 1_555
H10 C8 1_555 1_555
H11 C8 1_555 1_555
C9 C7 1_555 1_555
H12 C9 1_555 1_555
H13 C9 1_555 1_555
H14 C9 1_555 1_555
Cl2 C1 1_555 1_555
N1 C1 1_555 1_555
N2 C1 1_555 1_555
O1 C2 1_555 1_555
O2 C3 1_555 1_555
C2 N1 1_555 1_555
C4 N1 1_555 1_555
C7 N2 1_555 1_555

#END
