
#######################################################################
#
#                 Cambridge Crystallographic Data Centre
#                                CCDC 
#
#######################################################################
#
# If this CIF has been generated from an entry in the Cambridge 
# Structural Database, then it will include bibliographic, chemical, 
# crystal, experimental, refinement or atomic coordinate data resulting 
# from the CCDC's data processing and validation procedures.
#
#######################################################################

data_HOCRIA
_chemical_formula_moiety         'C33 H45 N2 O4 1+,Cl1 O4 1-'
_chemical_name_systematic        
'trans,trans-N-(4-(4-(1,3,3,4,6-Pentamethylindolium-2-yl)buta-1,3-dienyl)phenyl)-aza-15-crown-5 perchlorate'
_symmetry_cell_setting           triclinic
_symmetry_space_group_name_H-M   'P -1'
_symmetry_Int_Tables_number      2
_space_group_name_Hall           '-P 1'
loop_
_symmetry_equiv_pos_site_id
_symmetry_equiv_pos_as_xyz
1 x,y,z
2 -x,-y,-z
_cell_length_a                   9.6338(1)
_cell_length_b                   17.8750(2)
_cell_length_c                   19.2270(1)
_cell_angle_alpha                100.087(1)
_cell_angle_beta                 91.908(1)
_cell_angle_gamma                90.604(1)
_cell_volume                     3257.53
_exptl_crystal_colour            black
_chemical_melting_point          '197-198 deg.C'
_cell_formula_units_Z            4
loop_
_atom_site_label
_atom_site_type_symbol
_atom_site_fract_x
_atom_site_fract_y
_atom_site_fract_z
O1 O 0.1390(4) 0.7940(2) -0.0207(2)
O2 O 0.1989(6) 0.9442(3) 0.0801(3)
O3 O 0.2692(5) 1.0670(3) 0.0034(2)
O4 O 0.3794(4) 1.0170(2) -0.1358(2)
N1 N 0.3017(5) 0.8542(3) -0.1708(2)
N2 N 1.3754(4) 0.7614(2) -0.3854(2)
C1 C 0.2071(5) 0.8163(3) -0.1314(3)
H1 H 0.2073(5) 0.7610(3) -0.1498(3)
H2 H 0.1119(5) 0.8346(3) -0.1385(3)
C2 C 0.2455(5) 0.8303(3) -0.0531(3)
H3 H 0.3371(5) 0.8083(3) -0.0444(3)
H4 H 0.2497(5) 0.8855(3) -0.0340(3)
C3 C 0.1466(6) 0.8095(4) 0.0564(3)
H5 H 0.2439(6) 0.8038(4) 0.0728(3)
H6 H 0.0890(6) 0.7712(4) 0.0743(3)
C4 C 0.0987(7) 0.8872(4) 0.0875(3)
H7 H 0.0101(7) 0.8975(4) 0.0637(3)
H8 H 0.0815(7) 0.8893(4) 0.1383(3)
C5 C 0.1537(10) 1.0224(4) 0.0960(4)
H9 H 0.1366(10) 1.0367(4) 0.1471(4)
H10 H 0.0664(10) 1.0285(4) 0.0691(4)
C6 C 0.2658(11) 1.0719(5) 0.0757(4)
H11 H 0.2503(11) 1.1253(5) 0.0979(4)
H12 H 0.3567(11) 1.0565(5) 0.0938(4)
C7 C 0.3925(7) 1.0927(3) -0.0185(4)
H13 H 0.4689(7) 1.0606(3) -0.0054(4)
H14 H 0.4111(7) 1.1454(3) 0.0063(4)
C8 C 0.3907(8) 1.0911(4) -0.0961(5)
H15 H 0.3114(8) 1.1212(4) -0.1093(5)
H16 H 0.4770(8) 1.1155(4) -0.1084(5)
C9 C 0.2410(6) 0.9905(4) -0.1492(4)
H17 H 0.1855(6) 1.0279(4) -0.1701(4)
H18 H 0.1986(6) 0.9831(4) -0.1047(4)
C10 C 0.2441(7) 0.9176(4) -0.1989(3)
H19 H 0.1479(7) 0.9038(4) -0.2166(3)
H20 H 0.2985(7) 0.9253(4) -0.2400(3)
C11 C 0.4292(5) 0.8246(3) -0.1893(2)
C12 C 0.4685(5) 0.7531(3) -0.1757(3)
H21 H 0.4097(5) 0.7265(3) -0.1493(3)
C13 C 0.5920(5) 0.7205(3) -0.2000(3)
H22 H 0.6132(5) 0.6710(3) -0.1916(3)
C14 C 0.6859(5) 0.7580(3) -0.2365(2)
C15 C 0.6496(5) 0.8319(3) -0.2468(2)
H23 H 0.7115(5) 0.8599(3) -0.2704(2)
C16 C 0.5272(5) 0.8643(3) -0.2235(2)
H24 H 0.5075(5) 0.9145(3) -0.2304(2)
C17 C 0.8125(5) 0.7210(3) -0.2616(2)
H25 H 0.8199(5) 0.6683(3) -0.2601(2)
C18 C 0.9213(5) 0.7556(3) -0.2870(2)
H26 H 0.9168(5) 0.8085(3) -0.2874(2)
C19 C 1.0412(5) 0.7162(3) -0.3129(2)
H27 H 1.0450(5) 0.6628(3) -0.3145(2)
C20 C 1.1516(5) 0.7529(3) -0.3358(2)
H28 H 1.1435(5) 0.8062(3) -0.3332(2)
C21 C 1.2758(4) 0.7207(2) -0.3628(2)
C22 C 1.3179(4) 0.6368(2) -0.3750(2)
C23 C 1.4654(4) 0.6428(2) -0.3988(2)
C24 C 1.5697(5) 0.5893(2) -0.4143(2)
C25 C 1.6959(4) 0.6145(3) -0.4379(2)
H29 H 1.7680(4) 0.5789(3) -0.4484(2)
C26 C 1.7198(5) 0.6897(3) -0.4465(2)
C27 C 1.6159(5) 0.7433(3) -0.4297(2)
H30 H 1.6294(5) 0.7950(3) -0.4340(2)
C28 C 1.4927(5) 0.7176(2) -0.4066(2)
C29 C 1.3745(5) 0.8429(2) -0.3893(3)
H31 H 1.2811(10) 0.8627(5) -0.3801(17)
H32 H 1.4009(33) 0.8501(3) -0.4365(6)
H33 H 1.4408(25) 0.8703(4) -0.3538(12)
C30 C 1.8557(5) 0.7131(3) -0.4733(3)
H34 H 1.8808(18) 0.7649(8) -0.4498(13)
H35 H 1.8465(11) 0.7115(19) -0.5245(4)
H36 H 1.9283(9) 0.6782(12) -0.4631(16)
C31 C 1.5557(5) 0.5076(3) -0.4040(3)
H37 H 1.4684(18) 0.4856(7) -0.4267(16)
H38 H 1.5558(36) 0.5058(3) -0.3534(3)
H39 H 1.6339(20) 0.4785(5) -0.4253(16)
C32 C 1.2227(5) 0.5943(2) -0.4362(2)
H40 H 1.2527(21) 0.5416(5) -0.4488(11)
H41 H 1.2285(25) 0.6196(11) -0.4773(6)
H42 H 1.1265(7) 0.5949(16) -0.4210(6)
C33 C 1.3093(5) 0.6002(3) -0.3084(2)
H43 H 1.3771(24) 0.6250(13) -0.2724(7)
H44 H 1.3297(34) 0.5459(5) -0.3205(4)
H45 H 1.2156(11) 0.6064(17) -0.2901(10)
Cl1 Cl 0.02212(11) 0.54479(6) 0.34706(6)
O5 O -0.0915(5) 0.5646(2) 0.3924(3)
O6 O -0.0200(5) 0.5564(2) 0.2774(2)
O7 O 0.0570(4) 0.4670(2) 0.3455(2)
O8 O 0.1392(4) 0.5937(2) 0.3721(2)
O9 O 0.8383(4) 0.7126(2) 0.0404(2)
O10 O 0.7903(4) 0.6173(2) -0.1122(2)
O11 O 0.7737(4) 0.4741(2) -0.0782(2)
O12 O 0.7232(4) 0.4646(2) 0.0644(2)
N3 N 0.6595(4) 0.6110(3) 0.1616(2)
N4 N -0.3944(4) 0.7376(2) 0.3722(2)
C34 C 0.7719(5) 0.6490(3) 0.1319(3)
H46 H 0.8583(5) 0.6202(3) 0.1355(3)
H47 H 0.7869(5) 0.7004(3) 0.1603(3)
C35 C 0.7437(5) 0.6562(3) 0.0547(3)
H48 H 0.7589(5) 0.6071(3) 0.0232(3)
H49 H 0.6467(5) 0.6717(3) 0.0473(3)
C36 C 0.8249(6) 0.7311(3) -0.0280(3)
H50 H 0.8682(6) 0.7818(3) -0.0271(3)
H51 H 0.7250(6) 0.7347(3) -0.0404(3)
C37 C 0.8895(6) 0.6753(3) -0.0842(3)
H52 H 0.9209(6) 0.7014(3) -0.1223(3)
H53 H 0.9714(6) 0.6525(3) -0.0640(3)
C38 C 0.8462(6) 0.5536(3) -0.1564(3)
H54 H 0.9277(6) 0.5703(3) -0.1802(3)
H55 H 0.7758(6) 0.5323(3) -0.1934(3)
C39 C 0.8898(6) 0.4924(3) -0.1150(3)
H56 H 0.9206(6) 0.4469(3) -0.1475(3)
H57 H 0.9676(6) 0.5112(3) -0.0814(3)
C40 C 0.7916(8) 0.4078(3) -0.0489(3)
H58 H 0.8865(8) 0.4075(3) -0.0276(3)
H59 H 0.7796(8) 0.3624(3) -0.0863(3)
C41 C 0.6864(8) 0.4060(3) 0.0065(3)
H60 H 0.5923(8) 0.4145(3) -0.0126(3)
H61 H 0.6865(8) 0.3560(3) 0.0219(3)
C42 C 0.6289(6) 0.4701(3) 0.1207(3)
H62 H 0.6255(6) 0.4219(3) 0.1393(3)
H63 H 0.5343(6) 0.4810(3) 0.1038(3)
C43 C 0.6822(6) 0.5344(3) 0.1776(3)
H64 H 0.6363(6) 0.5305(3) 0.2222(3)
H65 H 0.7831(6) 0.5280(3) 0.1857(3)
C44 C 0.5403(5) 0.6500(3) 0.1816(2)
C45 C 0.5243(5) 0.7277(3) 0.1769(3)
H66 H 0.5956(5) 0.7537(3) 0.1573(3)
C46 C 0.4059(5) 0.7662(3) 0.2007(3)
H67 H 0.3984(5) 0.8183(3) 0.1969(3)
C47 C 0.2977(5) 0.7312(3) 0.2299(2)
C48 C 0.3119(5) 0.6531(3) 0.2323(3)
H68 H 0.2392(5) 0.6271(3) 0.2509(3)
C49 C 0.4277(5) 0.6135(3) 0.2085(3)
H69 H 0.4323(5) 0.5608(3) 0.2101(3)
C50 C 0.1759(5) 0.7726(3) 0.2550(2)
H70 H 0.1785(5) 0.8263(3) 0.2587(2)
C51 C 0.0577(5) 0.7399(3) 0.2736(2)
H71 H 0.0524(5) 0.6860(3) 0.2674(2)
C52 C -0.0582(5) 0.7818(3) 0.3016(2)
H72 H -0.0573(5) 0.8356(3) 0.3064(2)
C53 C -0.1721(5) 0.7446(3) 0.3219(2)
H73 H -0.1681(5) 0.6907(3) 0.3159(2)
C54 C -0.2930(5) 0.7782(3) 0.3506(2)
C55 C -0.3315(5) 0.8618(3) 0.3652(2)
C56 C -0.4786(5) 0.8578(2) 0.3911(2)
C57 C -0.5780(5) 0.9125(3) 0.4100(2)
C58 C -0.7044(5) 0.8882(3) 0.4332(2)
H74 H -0.7734(5) 0.9250(3) 0.4466(2)
C59 C -0.7340(5) 0.8127(3) 0.4375(2)
C60 C -0.6337(5) 0.7579(3) 0.4182(2)
H75 H -0.6501(5) 0.7059(3) 0.4206(2)
C61 C -0.5094(5) 0.7825(3) 0.3956(2)
C62 C -0.3943(5) 0.6552(3) 0.3741(3)
H76 H -0.2991(7) 0.6366(5) 0.3703(18)
H77 H -0.4520(29) 0.6281(3) 0.3345(11)
H78 H -0.4319(33) 0.6463(3) 0.4187(8)
C63 C -0.8713(5) 0.7900(3) 0.4645(3)
H79 H -0.8733(5) 0.7350(3) 0.4640(3)
H80 H -0.9475(5) 0.8032(3) 0.4341(3)
H81 H -0.8819(5) 0.8169(3) 0.5130(3)
C64 C -0.5558(5) 0.9956(3) 0.4058(3)
H82 H -0.4625(14) 1.0120(6) 0.4245(17)
H83 H -0.6251(23) 1.0261(3) 0.4337(15)
H84 H -0.5654(35) 1.0024(4) 0.3564(3)
C65 C -0.2333(5) 0.9033(3) 0.4266(2)
H85 H -0.2385(26) 0.8774(11) 0.4674(7)
H86 H -0.2621(21) 0.9561(6) 0.4401(12)
H87 H -0.1376(7) 0.9024(16) 0.4107(6)
C66 C -0.3236(5) 0.9002(3) 0.2998(3)
H88 H -0.3884(26) 0.8745(12) 0.2626(7)
H89 H -0.2289(10) 0.8967(17) 0.2825(11)
H90 H -0.3486(34) 0.9537(5) 0.3125(5)
Cl2 Cl 0.95883(12) 0.96355(6) -0.34281(7)
O13 O 1.0990(4) 0.9431(3) -0.3548(3)
O14 O 0.9314(6) 0.9529(3) -0.2706(3)
O15 O 0.9371(5) 1.0413(2) -0.3438(3)
O16 O 0.8625(6) 0.9138(3) -0.3852(3)
loop_
_geom_bond_atom_site_label_1
_geom_bond_atom_site_label_2
_geom_bond_site_symmetry_1
_geom_bond_site_symmetry_2
O1 C2 1_555 1_555
O2 C4 1_555 1_555
O3 C6 1_555 1_555
O4 C8 1_555 1_555
N1 C1 1_555 1_555
N2 C21 1_555 1_555
C1 H1 1_555 1_555
H2 C1 1_555 1_555
C2 C1 1_555 1_555
H3 C2 1_555 1_555
H4 C2 1_555 1_555
C3 O1 1_555 1_555
H5 C3 1_555 1_555
H6 C3 1_555 1_555
C4 C3 1_555 1_555
H7 C4 1_555 1_555
H8 C4 1_555 1_555
C5 O2 1_555 1_555
H9 C5 1_555 1_555
H10 C5 1_555 1_555
C6 C5 1_555 1_555
H11 C6 1_555 1_555
H12 C6 1_555 1_555
C7 O3 1_555 1_555
H13 C7 1_555 1_555
H14 C7 1_555 1_555
C8 C7 1_555 1_555
H15 C8 1_555 1_555
H16 C8 1_555 1_555
C9 O4 1_555 1_555
H17 C9 1_555 1_555
H18 C9 1_555 1_555
C10 N1 1_555 1_555
H19 C10 1_555 1_555
H20 C10 1_555 1_555
C11 N1 1_555 1_555
C12 C11 1_555 1_555
H21 C12 1_555 1_555
C13 C12 1_555 1_555
H22 C13 1_555 1_555
C14 C13 1_555 1_555
C15 C14 1_555 1_555
H23 C15 1_555 1_555
C16 C11 1_555 1_555
H24 C16 1_555 1_555
C17 C14 1_555 1_555
H25 C17 1_555 1_555
C18 C17 1_555 1_555
H26 C18 1_555 1_555
C19 C18 1_555 1_555
H27 C19 1_555 1_555
C20 C19 1_555 1_555
H28 C20 1_555 1_555
C21 C20 1_555 1_555
C22 C21 1_555 1_555
C23 C22 1_555 1_555
C24 C23 1_555 1_555
C25 C24 1_555 1_555
H29 C25 1_555 1_555
C26 C25 1_555 1_555
C27 C26 1_555 1_555
H30 C27 1_555 1_555
C28 N2 1_555 1_555
C29 N2 1_555 1_555
H31 C29 1_555 1_555
H32 C29 1_555 1_555
H33 C29 1_555 1_555
C30 C26 1_555 1_555
H34 C30 1_555 1_555
H35 C30 1_555 1_555
H36 C30 1_555 1_555
C31 C24 1_555 1_555
H37 C31 1_555 1_555
H38 C31 1_555 1_555
H39 C31 1_555 1_555
C32 C22 1_555 1_555
H40 C32 1_555 1_555
H41 C32 1_555 1_555
H42 C32 1_555 1_555
C33 C22 1_555 1_555
H43 C33 1_555 1_555
H44 C33 1_555 1_555
H45 C33 1_555 1_555
Cl1 O5 1_555 1_555
O6 Cl1 1_555 1_555
O7 Cl1 1_555 1_555
O8 Cl1 1_555 1_555
O9 C35 1_555 1_555
O10 C37 1_555 1_555
O11 C39 1_555 1_555
O12 C41 1_555 1_555
N3 C34 1_555 1_555
N4 C54 1_555 1_555
C34 H46 1_555 1_555
H47 C34 1_555 1_555
C35 C34 1_555 1_555
H48 C35 1_555 1_555
H49 C35 1_555 1_555
C36 O9 1_555 1_555
H50 C36 1_555 1_555
H51 C36 1_555 1_555
C37 C36 1_555 1_555
H52 C37 1_555 1_555
H53 C37 1_555 1_555
C38 O10 1_555 1_555
H54 C38 1_555 1_555
H55 C38 1_555 1_555
C39 C38 1_555 1_555
H56 C39 1_555 1_555
H57 C39 1_555 1_555
C40 O11 1_555 1_555
H58 C40 1_555 1_555
H59 C40 1_555 1_555
C41 C40 1_555 1_555
H60 C41 1_555 1_555
H61 C41 1_555 1_555
C42 O12 1_555 1_555
H62 C42 1_555 1_555
H63 C42 1_555 1_555
C43 N3 1_555 1_555
H64 C43 1_555 1_555
H65 C43 1_555 1_555
C44 N3 1_555 1_555
C45 C44 1_555 1_555
H66 C45 1_555 1_555
C46 C45 1_555 1_555
H67 C46 1_555 1_555
C47 C46 1_555 1_555
C48 C47 1_555 1_555
H68 C48 1_555 1_555
C49 C44 1_555 1_555
H69 C49 1_555 1_555
C50 C47 1_555 1_555
H70 C50 1_555 1_555
C51 C50 1_555 1_555
H71 C51 1_555 1_555
C52 C51 1_555 1_555
H72 C52 1_555 1_555
C53 C52 1_555 1_555
H73 C53 1_555 1_555
C54 C53 1_555 1_555
C55 C54 1_555 1_555
C56 C55 1_555 1_555
C57 C56 1_555 1_555
C58 C57 1_555 1_555
H74 C58 1_555 1_555
C59 C58 1_555 1_555
C60 C59 1_555 1_555
H75 C60 1_555 1_555
C61 N4 1_555 1_555
C62 N4 1_555 1_555
H76 C62 1_555 1_555
H77 C62 1_555 1_555
H78 C62 1_555 1_555
C63 C59 1_555 1_555
H79 C63 1_555 1_555
H80 C63 1_555 1_555
H81 C63 1_555 1_555
C64 C57 1_555 1_555
H82 C64 1_555 1_555
H83 C64 1_555 1_555
H84 C64 1_555 1_555
C65 C55 1_555 1_555
H85 C65 1_555 1_555
H86 C65 1_555 1_555
H87 C65 1_555 1_555
C66 C55 1_555 1_555
H88 C66 1_555 1_555
H89 C66 1_555 1_555
H90 C66 1_555 1_555
Cl2 O13 1_555 1_555
O14 Cl2 1_555 1_555
O15 Cl2 1_555 1_555
O16 Cl2 1_555 1_555
C9 C10 1_555 1_555
C15 C16 1_555 1_555
C23 C28 1_555 1_555
C27 C28 1_555 1_555
C42 C43 1_555 1_555
C48 C49 1_555 1_555
C56 C61 1_555 1_555
C60 C61 1_555 1_555

#END
