
#######################################################################
#
#                 Cambridge Crystallographic Data Centre
#                                CCDC 
#
#######################################################################
#
# If this CIF has been generated from an entry in the Cambridge 
# Structural Database, then it will include bibliographic, chemical, 
# crystal, experimental, refinement or atomic coordinate data resulting 
# from the CCDC's data processing and validation procedures.
#
#######################################################################

data_HOCSAV
_chemical_formula_moiety         'C29 H24 Br1 N1 O5'
_chemical_name_systematic        
3'-(2-(4-bromophenyl)-2-oxoethyl)-1-methyl-5'-(2-oxo-2-phenylethyl)-5',6'-dihydrospiro[indole-3,4'-pyran]-2,2'(1H,3'H)-dione
_symmetry_cell_setting           orthorhombic
_symmetry_space_group_name_H-M   'P 21 21 21'
_symmetry_Int_Tables_number      19
_space_group_name_Hall           'P 2ac 2ab'
loop_
_symmetry_equiv_pos_site_id
_symmetry_equiv_pos_as_xyz
1 x,y,z
2 1/2-x,-y,1/2+z
3 1/2+x,1/2-y,-z
4 -x,1/2+y,1/2-z
_cell_length_a                   8.9150(5)
_cell_length_b                   11.1839(5)
_cell_length_c                   25.1030(11)
_cell_angle_alpha                90
_cell_angle_beta                 90
_cell_angle_gamma                90
_cell_volume                     2502.88
_exptl_crystal_colour            'light colorless'
_exptl_crystal_description       block
_cell_formula_units_Z            4
loop_
_atom_site_label
_atom_site_type_symbol
_atom_site_fract_x
_atom_site_fract_y
_atom_site_fract_z
Br1 Br 1.21598(8) 0.41798(6) 0.21286(2)
O1 O 0.5569(4) 0.3532(3) 0.54144(15)
O2 O 0.5088(4) 0.6847(3) 0.52227(15)
O3 O 0.4870(4) 0.5815(4) 0.44855(14)
O4 O 0.7738(4) 0.6787(3) 0.39936(13)
O5 O 0.7096(5) 0.4007(3) 0.66240(13)
N1 N 0.8065(5) 0.3090(3) 0.55418(15)
C1 C 0.9390(6) 0.3733(4) 0.56413(18)
C2 C 1.0802(7) 0.3299(5) 0.5729(2)
H1 H 1.0986 0.2481 0.5741
C3 C 1.1956(6) 0.4127(6) 0.5800(2)
H2 H 1.2925 0.3854 0.5863
C4 C 1.1691(7) 0.5335(5) 0.5778(2)
H3 H 1.2483 0.5868 0.5820
C5 C 1.0253(6) 0.5766(5) 0.56947(18)
H4 H 1.0071 0.6585 0.5684
C6 C 0.9087(5) 0.4955(4) 0.56263(17)
C7 C 0.6869(6) 0.3839(4) 0.54861(17)
C8 C 0.7937(7) 0.1798(4) 0.5562(2)
H5 H 0.7978 0.1537 0.5926
H6 H 0.8748 0.1444 0.5367
H7 H 0.6999 0.1558 0.5408
C9 C 0.7443(5) 0.5133(4) 0.55102(16)
C10 C 0.6503(5) 0.5863(4) 0.59231(17)
H8 H 0.5586 0.5406 0.5991
C11 C 0.6024(7) 0.7055(5) 0.5689(2)
H9 H 0.5467 0.7508 0.5953
H10 H 0.6902 0.7515 0.5589
C12 C 0.5640(6) 0.6096(5) 0.4853(2)
C13 C 0.7257(5) 0.5727(4) 0.49470(16)
H11 H 0.7844 0.6467 0.4956
C14 C 0.7879(6) 0.4989(4) 0.44872(16)
H12 H 0.8796 0.4596 0.4599
H13 H 0.7160 0.4375 0.4390
C15 C 0.8200(5) 0.5768(4) 0.40076(17)
C16 C 0.9150(6) 0.5296(4) 0.35637(18)
C17 C 0.9761(6) 0.4157(5) 0.35444(19)
H14 H 0.9568 0.3620 0.3819
C18 C 1.0659(7) 0.3808(5) 0.3119(2)
H15 H 1.1054 0.3039 0.3103
C19 C 1.0953(6) 0.4617(5) 0.2723(2)
C20 C 1.0345(6) 0.5735(5) 0.27245(18)
H16 H 1.0529 0.6260 0.2445
C21 C 0.9456(6) 0.6073(4) 0.3146(2)
H17 H 0.9051 0.6839 0.3151
C22 C 0.7240(6) 0.6085(4) 0.64616(17)
H18 H 0.8183 0.6499 0.6405
H19 H 0.6599 0.6608 0.6669
C23 C 0.7540(6) 0.4968(5) 0.67795(17)
C24 C 0.8377(6) 0.5068(5) 0.72906(18)
C25 C 0.8937(6) 0.4039(6) 0.7523(2)
H20 H 0.8810 0.3307 0.7354
C26 C 0.9680(7) 0.4089(8) 0.8004(2)
H21 H 1.0051 0.3393 0.8159
C27 C 0.9870(8) 0.5167(8) 0.8254(3)
H22 H 1.0382 0.5202 0.8576
C28 C 0.9313(9) 0.6196(7) 0.8032(2)
H23 H 0.9432 0.6922 0.8207
C29 C 0.8574(7) 0.6150(6) 0.7548(2)
H24 H 0.8208 0.6849 0.7395
loop_
_geom_bond_atom_site_label_1
_geom_bond_atom_site_label_2
_geom_bond_site_symmetry_1
_geom_bond_site_symmetry_2
Br1 C19 1_555 1_555
O1 C7 1_555 1_555
O2 C11 1_555 1_555
O3 C12 1_555 1_555
O4 C15 1_555 1_555
O5 C23 1_555 1_555
N1 C1 1_555 1_555
C1 C2 1_555 1_555
C2 H1 1_555 1_555
C3 C2 1_555 1_555
H2 C3 1_555 1_555
C4 C3 1_555 1_555
H3 C4 1_555 1_555
C5 C4 1_555 1_555
H4 C5 1_555 1_555
C6 C1 1_555 1_555
C7 N1 1_555 1_555
C8 N1 1_555 1_555
H5 C8 1_555 1_555
H6 C8 1_555 1_555
H7 C8 1_555 1_555
C9 C6 1_555 1_555
C10 C9 1_555 1_555
H8 C10 1_555 1_555
C11 C10 1_555 1_555
H9 C11 1_555 1_555
H10 C11 1_555 1_555
C12 O2 1_555 1_555
C13 C9 1_555 1_555
H11 C13 1_555 1_555
C14 C13 1_555 1_555
H12 C14 1_555 1_555
H13 C14 1_555 1_555
C15 C14 1_555 1_555
C16 C15 1_555 1_555
C17 C16 1_555 1_555
H14 C17 1_555 1_555
C18 C17 1_555 1_555
H15 C18 1_555 1_555
C19 C18 1_555 1_555
C20 C19 1_555 1_555
H16 C20 1_555 1_555
C21 C16 1_555 1_555
H17 C21 1_555 1_555
C22 C10 1_555 1_555
H18 C22 1_555 1_555
H19 C22 1_555 1_555
C23 C22 1_555 1_555
C24 C23 1_555 1_555
C25 C24 1_555 1_555
H20 C25 1_555 1_555
C26 C25 1_555 1_555
H21 C26 1_555 1_555
C27 C26 1_555 1_555
H22 C27 1_555 1_555
C28 C27 1_555 1_555
H23 C28 1_555 1_555
C29 C24 1_555 1_555
H24 C29 1_555 1_555
C5 C6 1_555 1_555
C7 C9 1_555 1_555
C12 C13 1_555 1_555
C20 C21 1_555 1_555
C28 C29 1_555 1_555

#END
