
#######################################################################
#
#                 Cambridge Crystallographic Data Centre
#                                CCDC 
#
#######################################################################
#
# If this CIF has been generated from an entry in the Cambridge 
# Structural Database, then it will include bibliographic, chemical, 
# crystal, experimental, refinement or atomic coordinate data resulting 
# from the CCDC's data processing and validation procedures.
#
#######################################################################

data_HOCTID
_chemical_formula_moiety         'C68 H66 N8 O12'
_chemical_name_systematic        
5,15-bis(2,6-Dimethoxyphenyl)-10,20-bis(2,6-bis(2-furoylamino)phenyl)porphyrin
_symmetry_cell_setting           orthorhombic
_symmetry_space_group_name_H-M   'C 2 2 21'
_symmetry_Int_Tables_number      20
_space_group_name_Hall           'C 2n 2'
loop_
_symmetry_equiv_pos_site_id
_symmetry_equiv_pos_as_xyz
1 x,y,z
2 -x,-y,1/2+z
3 -x,y,1/2-z
4 x,-y,-z
5 1/2+x,1/2+y,z
6 1/2-x,1/2-y,1/2+z
7 1/2-x,1/2+y,1/2-z
8 1/2+x,1/2-y,-z
_cell_length_a                   10.3608(19)
_cell_length_b                   25.392(5)
_cell_length_c                   22.380(4)
_cell_angle_alpha                90
_cell_angle_beta                 90
_cell_angle_gamma                90
_cell_volume                     5887.76
_exptl_crystal_colour            red
_exptl_crystal_description       polyhedra
_cell_formula_units_Z            4
loop_
_atom_site_label
_atom_site_type_symbol
_atom_site_fract_x
_atom_site_fract_y
_atom_site_fract_z
C1 C 0.0000 0.46149(11) 0.7500
C2 C 0.0977(2) 0.48652(7) 0.78249(9)
C3 C 0.1959(2) 0.46013(8) 0.81647(10)
H1 H 0.2080 0.4231 0.8196
C4 C 0.2681(2) 0.49790(8) 0.84324(10)
H2 H 0.3408 0.4923 0.8683
C5 C 0.2144(2) 0.54808(8) 0.82675(9)
C6 C 0.2568(2) 0.59654(9) 0.84777(8)
C7 C 0.2061(2) 0.64533(8) 0.83126(9)
C8 C 0.2506(2) 0.69567(8) 0.85275(10)
H3 H 0.3169 0.7014 0.8814
C9 C 0.1813(2) 0.73313(8) 0.82488(10)
H4 H 0.1899 0.7701 0.8299
C10 C 0.0916(2) 0.70661(8) 0.78613(9)
C11 C 0.0000 0.73143(11) 0.7500
C12 C 0.3568(2) 0.59854(8) 0.89598(9)
C13 C 0.3190(2) 0.58905(8) 0.95501(10)
C14 C 0.4041(2) 0.59819(9) 1.00202(10)
H5 H 0.3793 0.5909 1.0420
C15 C 0.5253(2) 0.61808(9) 0.98937(10)
H6 H 0.5825 0.6255 1.0215
C16 C 0.5665(2) 0.62761(9) 0.93126(10)
H7 H 0.6505 0.6410 0.9236
C17 C 0.4812(2) 0.61706(8) 0.88447(9)
C18 C 0.0000 0.40202(12) 0.7500
C19 C -0.0452(2) 0.37423(8) 0.79968(10)
C20 C -0.0453(2) 0.31939(9) 0.79969(11)
H8 H -0.0761 0.3005 0.8334
C21 C 0.0000 0.29283(12) 0.7500
H9 H 0.0000 0.2554 0.7500
C22 C 0.0000 0.79029(12) 0.7500
C23 C -0.0558(2) 0.81778(9) 0.79735(10)
C24 C -0.0537(2) 0.87271(9) 0.79798(11)
H10 H -0.0886 0.8917 0.8308
C25 C 0.0000 0.89916(12) 0.7500
H11 H 0.0000 0.9366 0.7500
C26 C -0.1810(2) 0.39431(9) 0.88908(10)
C27 C -0.2202(2) 0.44369(10) 0.92499(11)
H12 H -0.2265 0.4347 0.9684
C28 C -0.3505(3) 0.46488(10) 0.90271(12)
H13 H -0.4040 0.4365 0.8853
H14 H -0.3992 0.4822 0.9353
C29 C -0.3090(3) 0.50447(10) 0.85532(11)
H15 H -0.2878 0.4869 0.8171
H16 H -0.3765 0.5314 0.8483
C30 C -0.1903(3) 0.52818(9) 0.88411(12)
H17 H -0.1310 0.5423 0.8533
H18 H -0.2146 0.5571 0.9116
C31 C -0.2026(2) 0.79969(9) 0.88322(10)
C32 C -0.2418(2) 0.75361(9) 0.92377(10)
H19 H -0.3361 0.7467 0.9184
C33 C -0.2153(3) 0.76406(11) 0.98967(11)
H20 H -0.2796 0.7463 1.0155
H21 H -0.2155 0.8023 0.9985
C34 C -0.0813(3) 0.74045(11) 0.99787(14)
H22 H -0.0131 0.7651 0.9845
H23 H -0.0655 0.7306 1.0400
C35 C -0.0885(3) 0.69228(11) 0.95796(12)
H24 H -0.0015 0.6826 0.9433
H25 H -0.1250 0.6620 0.9801
C36 C 0.1452(3) 0.56471(10) 1.02039(11)
H26 H 0.1477 0.5979 1.0427
H27 H 0.1983 0.5384 1.0409
H28 H 0.0560 0.5521 1.0180
C37 C 0.6298(2) 0.64835(10) 0.81034(11)
H29 H 0.7001 0.6256 0.8241
H30 H 0.6368 0.6829 0.8296
H31 H 0.6354 0.6526 0.7669
N1 N 0.10902(17) 0.65326(7) 0.79093(8)
N2 N 0.11254(18) 0.53990(7) 0.78884(8)
N3 N -0.08808(19) 0.40455(8) 0.84861(8)
N4 N -0.1076(2) 0.78748(8) 0.84444(9)
O1 O -0.2347(2) 0.35235(7) 0.89685(9)
O2 O -0.12968(17) 0.48542(6) 0.91670(7)
O3 O -0.25706(19) 0.84195(7) 0.88686(8)
O4 O -0.17146(17) 0.70679(6) 0.90875(8)
O5 O 0.19471(17) 0.57305(7) 0.96114(7)
O6 O 0.50863(16) 0.62495(6) 0.82553(7)
H34 H -0.087(3) 0.7526(11) 0.8462(12)
H35 H -0.055(3) 0.4384(11) 0.8526(12)
C2B C -0.0977(2) 0.48652(7) 0.71751(9)
C3B C -0.1959(2) 0.46013(8) 0.68353(10)
H1B H -0.2080 0.4231 0.6804
C4B C -0.2681(2) 0.49790(8) 0.65676(10)
H2B H -0.3408 0.4923 0.6317
C5B C -0.2144(2) 0.54808(8) 0.67325(9)
C6B C -0.2568(2) 0.59654(9) 0.65223(8)
C7B C -0.2061(2) 0.64533(8) 0.66874(9)
C8B C -0.2506(2) 0.69567(8) 0.64725(10)
H3B H -0.3169 0.7014 0.6186
C9B C -0.1813(2) 0.73313(8) 0.67512(10)
H4B H -0.1899 0.7701 0.6701
C10B C -0.0916(2) 0.70661(8) 0.71387(9)
C12B C -0.3568(2) 0.59854(8) 0.60402(9)
C13B C -0.3190(2) 0.58905(8) 0.54499(10)
C14B C -0.4041(2) 0.59819(9) 0.49798(10)
H5B H -0.3793 0.5909 0.4580
C15B C -0.5253(2) 0.61808(9) 0.51063(10)
H6B H -0.5825 0.6255 0.4785
C16B C -0.5665(2) 0.62761(9) 0.56874(10)
H7B H -0.6505 0.6410 0.5764
C17B C -0.4812(2) 0.61706(8) 0.61553(9)
C19B C 0.0452(2) 0.37423(8) 0.70032(10)
C20B C 0.0453(2) 0.31939(9) 0.70031(11)
H8B H 0.0761 0.3005 0.6666
C23B C 0.0558(2) 0.81778(9) 0.70265(10)
C24B C 0.0537(2) 0.87271(9) 0.70202(11)
H10B H 0.0886 0.8917 0.6692
C26B C 0.1810(2) 0.39431(9) 0.61092(10)
C27B C 0.2202(2) 0.44369(10) 0.57501(11)
H12B H 0.2265 0.4347 0.5316
C28B C 0.3505(3) 0.46488(10) 0.59729(12)
H13B H 0.4040 0.4365 0.6147
H14B H 0.3992 0.4822 0.5647
C29B C 0.3090(3) 0.50447(10) 0.64468(11)
H15B H 0.2878 0.4869 0.6829
H16B H 0.3765 0.5314 0.6517
C30B C 0.1903(3) 0.52818(9) 0.61589(12)
H17B H 0.1310 0.5423 0.6467
H18B H 0.2146 0.5571 0.5884
C31B C 0.2026(2) 0.79969(9) 0.61678(10)
C32B C 0.2418(2) 0.75361(9) 0.57623(10)
H19B H 0.3361 0.7467 0.5816
C33B C 0.2153(3) 0.76406(11) 0.51033(11)
H20B H 0.2796 0.7463 0.4845
H21B H 0.2155 0.8023 0.5015
C34B C 0.0813(3) 0.74045(11) 0.50213(14)
H22B H 0.0131 0.7651 0.5155
H23B H 0.0655 0.7306 0.4600
C35B C 0.0885(3) 0.69228(11) 0.54204(12)
H24B H 0.0015 0.6826 0.5567
H25B H 0.1250 0.6620 0.5199
C36B C -0.1452(3) 0.56471(10) 0.47961(11)
H26B H -0.1477 0.5979 0.4573
H27B H -0.1983 0.5384 0.4591
H28B H -0.0560 0.5521 0.4820
C37B C -0.6298(2) 0.64835(10) 0.68966(11)
H29B H -0.7001 0.6256 0.6759
H30B H -0.6368 0.6829 0.6704
H31B H -0.6354 0.6526 0.7331
N1B N -0.10902(17) 0.65326(7) 0.70907(8)
N2B N -0.11254(18) 0.53990(7) 0.71116(8)
N3B N 0.08808(19) 0.40455(8) 0.65139(8)
N4B N 0.1076(2) 0.78748(8) 0.65556(9)
O1B O 0.2347(2) 0.35235(7) 0.60315(9)
O2B O 0.12968(17) 0.48542(6) 0.58330(7)
O3B O 0.25706(19) 0.84195(7) 0.61314(8)
O4B O 0.17146(17) 0.70679(6) 0.59125(8)
O5B O -0.19471(17) 0.57305(7) 0.53886(7)
O6B O -0.50863(16) 0.62495(6) 0.67447(7)
H34B H 0.087(3) 0.7526(11) 0.6538(12)
H35B H 0.055(3) 0.4384(11) 0.6474(12)
H32? H 0.058(5) 0.624(2) 0.769(2)
H33? H 0.060(6) 0.565(2) 0.776(2)
loop_
_geom_bond_atom_site_label_1
_geom_bond_atom_site_label_2
_geom_bond_site_symmetry_1
_geom_bond_site_symmetry_2
C1 C2 1_555 1_555
C2 C3 1_555 1_555
C3 H1 1_555 1_555
C4 C3 1_555 1_555
H2 C4 1_555 1_555
C5 C4 1_555 1_555
C6 C5 1_555 1_555
C7 C6 1_555 1_555
C8 C7 1_555 1_555
H3 C8 1_555 1_555
C9 C8 1_555 1_555
H4 C9 1_555 1_555
C10 C9 1_555 1_555
C11 C10 1_555 1_555
C12 C6 1_555 1_555
C13 C12 1_555 1_555
C14 C13 1_555 1_555
H5 C14 1_555 1_555
C15 C14 1_555 1_555
H6 C15 1_555 1_555
C16 C15 1_555 1_555
H7 C16 1_555 1_555
C17 C12 1_555 1_555
C18 C1 1_555 1_555
C19 C18 1_555 1_555
C20 C19 1_555 1_555
H8 C20 1_555 1_555
C21 C20 1_555 1_555
H9 C21 1_555 1_555
C22 C11 1_555 1_555
C23 C22 1_555 1_555
C24 C23 1_555 1_555
H10 C24 1_555 1_555
C25 C24 1_555 1_555
H11 C25 1_555 1_555
C26 C27 1_555 1_555
C27 H12 1_555 1_555
C28 C27 1_555 1_555
H13 C28 1_555 1_555
H14 C28 1_555 1_555
C29 C28 1_555 1_555
H15 C29 1_555 1_555
H16 C29 1_555 1_555
C30 C29 1_555 1_555
H17 C30 1_555 1_555
H18 C30 1_555 1_555
C31 C32 1_555 1_555
C32 H19 1_555 1_555
C33 C32 1_555 1_555
H20 C33 1_555 1_555
H21 C33 1_555 1_555
C34 C33 1_555 1_555
H22 C34 1_555 1_555
H23 C34 1_555 1_555
C35 C34 1_555 1_555
H24 C35 1_555 1_555
H25 C35 1_555 1_555
C36 H26 1_555 1_555
H27 C36 1_555 1_555
H28 C36 1_555 1_555
C37 H29 1_555 1_555
H30 C37 1_555 1_555
H31 C37 1_555 1_555
N1 C7 1_555 1_555
N2 C2 1_555 1_555
N3 C19 1_555 1_555
N4 C23 1_555 1_555
O1 C26 1_555 1_555
O2 C27 1_555 1_555
O3 C31 1_555 1_555
O4 C32 1_555 1_555
O5 C13 1_555 1_555
O6 C17 1_555 1_555
H34 N4 1_555 1_555
H35 N3 1_555 1_555
C2B C1 1_555 1_555
C3B C2B 1_555 1_555
H1B C3B 1_555 1_555
C4B C3B 1_555 1_555
H2B C4B 1_555 1_555
C5B C4B 1_555 1_555
C6B C5B 1_555 1_555
C7B C6B 1_555 1_555
C8B C7B 1_555 1_555
H3B C8B 1_555 1_555
C9B C8B 1_555 1_555
H4B C9B 1_555 1_555
C10B C11 1_555 1_555
C12B C6B 1_555 1_555
C13B C12B 1_555 1_555
C14B C13B 1_555 1_555
H5B C14B 1_555 1_555
C15B C14B 1_555 1_555
H6B C15B 1_555 1_555
C16B C15B 1_555 1_555
H7B C16B 1_555 1_555
C17B C12B 1_555 1_555
C19B C18 1_555 1_555
C20B C21 1_555 1_555
H8B C20B 1_555 1_555
C23B C22 1_555 1_555
C24B C25 1_555 1_555
H10B C24B 1_555 1_555
C26B C27B 1_555 1_555
C27B H12B 1_555 1_555
C28B C27B 1_555 1_555
H13B C28B 1_555 1_555
H14B C28B 1_555 1_555
C29B C28B 1_555 1_555
H15B C29B 1_555 1_555
H16B C29B 1_555 1_555
C30B C29B 1_555 1_555
H17B C30B 1_555 1_555
H18B C30B 1_555 1_555
C31B C32B 1_555 1_555
C32B H19B 1_555 1_555
C33B C32B 1_555 1_555
H20B C33B 1_555 1_555
H21B C33B 1_555 1_555
C34B C33B 1_555 1_555
H22B C34B 1_555 1_555
H23B C34B 1_555 1_555
C35B C34B 1_555 1_555
H24B C35B 1_555 1_555
H25B C35B 1_555 1_555
C36B H26B 1_555 1_555
H27B C36B 1_555 1_555
H28B C36B 1_555 1_555
C37B H29B 1_555 1_555
H30B C37B 1_555 1_555
H31B C37B 1_555 1_555
N1B C7B 1_555 1_555
N2B C2B 1_555 1_555
N3B C19B 1_555 1_555
N4B C23B 1_555 1_555
O1B C26B 1_555 1_555
O2B C27B 1_555 1_555
O3B C31B 1_555 1_555
O4B C32B 1_555 1_555
O5B C13B 1_555 1_555
O6B C17B 1_555 1_555
H34B N4B 1_555 1_555
H35B N3B 1_555 1_555
C5 N2 1_555 1_555
C10 N1 1_555 1_555
C16 C17 1_555 1_555
C26 N3 1_555 1_555
C30 O2 1_555 1_555
C31 N4 1_555 1_555
C35 O4 1_555 1_555
C36 O5 1_555 1_555
C37 O6 1_555 1_555
C5B N2B 1_555 1_555
C9B C10B 1_555 1_555
C10B N1B 1_555 1_555
C16B C17B 1_555 1_555
C19B C20B 1_555 1_555
C23B C24B 1_555 1_555
C26B N3B 1_555 1_555
C30B O2B 1_555 1_555
C31B N4B 1_555 1_555
C35B O4B 1_555 1_555
C36B O5B 1_555 1_555
C37B O6B 1_555 1_555

#END
