
#######################################################################
#
#                 Cambridge Crystallographic Data Centre
#                                CCDC 
#
#######################################################################
#
# If this CIF has been generated from an entry in the Cambridge 
# Structural Database, then it will include bibliographic, chemical, 
# crystal, experimental, refinement or atomic coordinate data resulting 
# from the CCDC's data processing and validation procedures.
#
#######################################################################

data_HODGUD
_chemical_formula_moiety         'C6 H4 N2 S4'
_chemical_name_systematic        1,2-bis(1,3-Dithiol-2-ylidene)hydrazine
_symmetry_cell_setting           monoclinic
_symmetry_space_group_name_H-M   'P 21/n'
_symmetry_Int_Tables_number      14
_space_group_name_Hall           '-P 2yn'
loop_
_symmetry_equiv_pos_site_id
_symmetry_equiv_pos_as_xyz
1 x,y,z
2 1/2-x,1/2+y,1/2-z
3 -x,-y,-z
4 1/2+x,1/2-y,1/2+z
_cell_length_a                   3.9664(3)
_cell_length_b                   10.122(6)
_cell_length_c                   11.301(8)
_cell_angle_alpha                90
_cell_angle_beta                 97.39(3)
_cell_angle_gamma                90
_cell_volume                     449.943
_exptl_crystal_colour            yellow
_exptl_crystal_description       block
_chemical_melting_point          481-483K
_cell_formula_units_Z            2
_exptl_crystal_recrystallization_method acetone
loop_
_atom_site_label
_atom_site_type_symbol
_atom_site_fract_x
_atom_site_fract_y
_atom_site_fract_z
C1 C 1.0199(3) 0.62381(14) 0.40299(12)
C2 C 0.9210(4) 0.87204(16) 0.36541(15)
H1 H 0.8668 0.9607 0.3732
C3 C 1.0268(5) 0.82730(15) 0.26661(14)
H2 H 1.0495 0.8832 0.2028
N1 N 1.0475(3) 0.50484(12) 0.44228(10)
S1 S 1.12148(10) 0.66082(4) 0.26068(3)
S2 S 0.88557(10) 0.76025(4) 0.48070(3)
C1B C 0.9801(3) 0.37619(14) 0.59701(12)
C2B C 1.0790(4) 0.12796(16) 0.63459(15)
H1B H 1.1332 0.0393 0.6268
C3B C 0.9732(5) 0.17270(15) 0.73339(14)
H2B H 0.9505 0.1168 0.7972
N1B N 0.9525(3) 0.49516(12) 0.55772(10)
S1B S 0.87852(10) 0.33918(4) 0.73932(3)
S2B S 1.11443(10) 0.23975(4) 0.51930(3)
loop_
_geom_bond_atom_site_label_1
_geom_bond_atom_site_label_2
_geom_bond_site_symmetry_1
_geom_bond_site_symmetry_2
C1 N1 1_555 1_555
C2 H1 1_555 1_555
C3 C2 1_555 1_555
H2 C3 1_555 1_555
N1 N1B 1_555 1_555
S1 C1 1_555 1_555
S2 C1 1_555 1_555
C1B N1B 1_555 1_555
C2B H1B 1_555 1_555
C3B C2B 1_555 1_555
H2B C3B 1_555 1_555
S1B C1B 1_555 1_555
S2B C1B 1_555 1_555
C2 S2 1_555 1_555
C3 S1 1_555 1_555
C2B S2B 1_555 1_555
C3B S1B 1_555 1_555

#END
