
#######################################################################
#
#                 Cambridge Crystallographic Data Centre
#                                CCDC 
#
#######################################################################
#
# If this CIF has been generated from an entry in the Cambridge 
# Structural Database, then it will include bibliographic, chemical, 
# crystal, experimental, refinement or atomic coordinate data resulting 
# from the CCDC's data processing and validation procedures.
#
#######################################################################

data_HODHEO
_chemical_formula_moiety         'C17 H19 N1 O3'
_chemical_name_systematic        
(E)-N-(2,3,4-Trimethoxy-6-methylbenzylidene)aniline
_symmetry_cell_setting           triclinic
_symmetry_space_group_name_H-M   'P -1'
_symmetry_Int_Tables_number      2
_space_group_name_Hall           '-P 1'
loop_
_symmetry_equiv_pos_site_id
_symmetry_equiv_pos_as_xyz
1 x,y,z
2 -x,-y,-z
_cell_length_a                   8.3126(13)
_cell_length_b                   9.9938(17)
_cell_length_c                   10.8661(19)
_cell_angle_alpha                110.102(2)
_cell_angle_beta                 111.995(2)
_cell_angle_gamma                92.7000(10)
_cell_volume                     769.814
_exptl_crystal_colour            yellow
_exptl_crystal_description       block
_cell_formula_units_Z            2
loop_
_atom_site_label
_atom_site_type_symbol
_atom_site_fract_x
_atom_site_fract_y
_atom_site_fract_z
N1 N 0.6434(3) 0.0882(2) 0.7849(2)
O1 O 0.1396(2) 0.11706(18) 0.64766(19)
O2 O 0.0101(2) 0.3729(2) 0.67375(19)
O3 O 0.2329(2) 0.62688(18) 0.78978(19)
C1 C 0.4895(3) 0.1089(3) 0.7390(3)
H1 H 0.3988 0.0268 0.6846
C2 C 0.4379(3) 0.2505(2) 0.7625(2)
C3 C 0.2546(3) 0.2493(2) 0.7129(2)
C4 C 0.1898(3) 0.3749(3) 0.7225(2)
C5 C 0.3079(3) 0.5078(3) 0.7853(2)
C6 C 0.4884(3) 0.5112(3) 0.8370(2)
H2 H 0.5664 0.6004 0.8804
C7 C 0.5564(3) 0.3853(3) 0.8261(2)
C8 C 0.0442(5) 0.0901(4) 0.7236(4)
H3 H 0.1254 0.0873 0.8125
H4 H -0.0376 -0.0015 0.6660
H5 H -0.0198 0.1663 0.7438
C9 C -0.0840(4) 0.3143(4) 0.5226(3)
H6 H -0.0245 0.3586 0.4815
H7 H -0.2018 0.3333 0.4977
H8 H -0.0900 0.2112 0.4858
C10 C 0.3479(4) 0.7643(3) 0.8476(3)
H9 H 0.4278 0.7854 0.9456
H10 H 0.2790 0.8385 0.8448
H11 H 0.4144 0.7616 0.7915
C11 C 0.7545(3) 0.4004(3) 0.8838(3)
H12 H 0.8096 0.5015 0.9259
H13 H 0.7866 0.3496 0.8066
H14 H 0.7936 0.3599 0.9558
C12 C 0.6728(3) -0.0566(3) 0.7476(3)
C13 C 0.7910(3) -0.0901(3) 0.8552(3)
H15 H 0.8417 -0.0205 0.9492
C14 C 0.8357(4) -0.2241(3) 0.8266(4)
H16 H 0.9156 -0.2451 0.9009
C15 C 0.7636(5) -0.3261(3) 0.6901(4)
H17 H 0.7945 -0.4169 0.6708
C16 C 0.6450(4) -0.2958(3) 0.5803(3)
H18 H 0.5953 -0.3660 0.4867
C17 C 0.5994(4) -0.1610(3) 0.6089(3)
H19 H 0.5190 -0.1404 0.5345
loop_
_geom_bond_atom_site_label_1
_geom_bond_atom_site_label_2
_geom_bond_site_symmetry_1
_geom_bond_site_symmetry_2
N1 C1 1_555 1_555
O1 C3 1_555 1_555
O2 C4 1_555 1_555
O3 C5 1_555 1_555
C1 H1 1_555 1_555
C2 C1 1_555 1_555
C3 C2 1_555 1_555
C4 C3 1_555 1_555
C5 C4 1_555 1_555
C6 C5 1_555 1_555
H2 C6 1_555 1_555
C7 C2 1_555 1_555
C8 O1 1_555 1_555
H3 C8 1_555 1_555
H4 C8 1_555 1_555
H5 C8 1_555 1_555
C9 O2 1_555 1_555
H6 C9 1_555 1_555
H7 C9 1_555 1_555
H8 C9 1_555 1_555
C10 O3 1_555 1_555
H9 C10 1_555 1_555
H10 C10 1_555 1_555
H11 C10 1_555 1_555
C11 C7 1_555 1_555
H12 C11 1_555 1_555
H13 C11 1_555 1_555
H14 C11 1_555 1_555
C12 N1 1_555 1_555
C13 C12 1_555 1_555
H15 C13 1_555 1_555
C14 C13 1_555 1_555
H16 C14 1_555 1_555
C15 C14 1_555 1_555
H17 C15 1_555 1_555
C16 C15 1_555 1_555
H18 C16 1_555 1_555
C17 C12 1_555 1_555
H19 C17 1_555 1_555
C6 C7 1_555 1_555
C16 C17 1_555 1_555

#END
