
#######################################################################
#
#                 Cambridge Crystallographic Data Centre
#                                CCDC 
#
#######################################################################
#
# If this CIF has been generated from an entry in the Cambridge 
# Structural Database, then it will include bibliographic, chemical, 
# crystal, experimental, refinement or atomic coordinate data resulting 
# from the CCDC's data processing and validation procedures.
#
#######################################################################

data_HODJAM
_chemical_formula_moiety         'C11 H9 Cl2 N3 O1'
_chemical_name_systematic        
(3,6-Dichloropyridin-2-yl)(3,5-dimethyl-1H-pyrazol-1-yl)methanone
_symmetry_cell_setting           triclinic
_symmetry_space_group_name_H-M   'P -1'
_symmetry_Int_Tables_number      2
_space_group_name_Hall           '-P 1'
loop_
_symmetry_equiv_pos_site_id
_symmetry_equiv_pos_as_xyz
1 x,y,z
2 -x,-y,-z
_cell_length_a                   7.3440(10)
_cell_length_b                   8.7981(12)
_cell_length_c                   9.6490(14)
_cell_angle_alpha                75.554(2)
_cell_angle_beta                 89.627(3)
_cell_angle_gamma                86.819(2)
_cell_volume                     602.794
_exptl_crystal_colour            colorless
_exptl_crystal_description       block
_cell_formula_units_Z            2
loop_
_atom_site_label
_atom_site_type_symbol
_atom_site_fract_x
_atom_site_fract_y
_atom_site_fract_z
Cl1 Cl 0.60627(11) 0.85128(9) 0.94981(8)
Cl2 Cl 0.90422(12) 0.19393(9) 0.92556(10)
N1 N 0.8160(3) 0.4899(3) 0.8173(2)
N2 N 0.6305(3) 0.7559(2) 0.5846(2)
N3 N 0.4844(3) 0.6627(2) 0.6266(2)
O1 O 0.8838(3) 0.8463(3) 0.6636(2)
C1 C 0.7630(4) 0.7572(3) 0.6853(3)
C2 C 0.7517(3) 0.6330(3) 0.8231(2)
C3 C 0.6925(3) 0.6653(3) 0.9493(3)
C4 C 0.6996(4) 0.5468(3) 1.0739(3)
H1 H 0.6596 0.5662 1.1598
C5 C 0.7666(4) 0.4004(3) 1.0686(3)
H2 H 0.7746 0.3181 1.1508
C6 C 0.8220(4) 0.3782(3) 0.9384(3)
C7 C 0.7566(5) 0.9440(4) 0.3653(3)
H3 H 0.7593 1.0332 0.4056
H4 H 0.7259 0.9789 0.2654
H5 H 0.8743 0.8890 0.3764
C8 C 0.6167(4) 0.8362(3) 0.4409(3)
C9 C 0.4615(4) 0.7924(3) 0.3939(3)
H6 H 0.4145 0.8254 0.3013
C10 C 0.3819(4) 0.6865(3) 0.5110(3)
C11 C 0.2080(4) 0.6066(4) 0.5140(3)
H7 H 0.1074 0.6782 0.5223
H8 H 0.2091 0.5166 0.5944
H9 H 0.1953 0.5733 0.4272
loop_
_geom_bond_atom_site_label_1
_geom_bond_atom_site_label_2
_geom_bond_site_symmetry_1
_geom_bond_site_symmetry_2
Cl1 C3 1_555 1_555
Cl2 C6 1_555 1_555
N1 C2 1_555 1_555
N2 N3 1_555 1_555
N3 C10 1_555 1_555
O1 C1 1_555 1_555
C1 N2 1_555 1_555
C2 C1 1_555 1_555
C3 C2 1_555 1_555
C4 C3 1_555 1_555
H1 C4 1_555 1_555
C5 C4 1_555 1_555
H2 C5 1_555 1_555
C6 N1 1_555 1_555
C7 H3 1_555 1_555
H4 C7 1_555 1_555
H5 C7 1_555 1_555
C8 N2 1_555 1_555
C9 C8 1_555 1_555
H6 C9 1_555 1_555
C10 C9 1_555 1_555
C11 C10 1_555 1_555
H7 C11 1_555 1_555
H8 C11 1_555 1_555
H9 C11 1_555 1_555
C5 C6 1_555 1_555
C7 C8 1_555 1_555

#END
