
#######################################################################
#
#                 Cambridge Crystallographic Data Centre
#                                CCDC 
#
#######################################################################
#
# If this CIF has been generated from an entry in the Cambridge 
# Structural Database, then it will include bibliographic, chemical, 
# crystal, experimental, refinement or atomic coordinate data resulting 
# from the CCDC's data processing and validation procedures.
#
#######################################################################

data_HODKAN
_chemical_formula_moiety         'C11 H14 N4 O4'
_chemical_name_systematic        '3-Pentanone 2,4-dinitrophenylhydrazone'
_symmetry_cell_setting           monoclinic
_symmetry_space_group_name_H-M   'P 21/c'
_symmetry_Int_Tables_number      14
_space_group_name_Hall           '-P 2ybc'
loop_
_symmetry_equiv_pos_site_id
_symmetry_equiv_pos_as_xyz
1 x,y,z
2 -x,1/2+y,1/2-z
3 -x,-y,-z
4 x,1/2-y,1/2+z
_cell_length_a                   12.5298(15)
_cell_length_b                   14.089(2)
_cell_length_c                   7.3983(8)
_cell_angle_alpha                90
_cell_angle_beta                 93.235(12)
_cell_angle_gamma                90
_cell_volume                     1303.96
_exptl_crystal_colour            red
_exptl_crystal_description       prism
_cell_formula_units_Z            4
_exptl_crystal_recrystallization_method 'absolute ethanol'
loop_
_atom_site_label
_atom_site_type_symbol
_atom_site_fract_x
_atom_site_fract_y
_atom_site_fract_z
N1 N 0.49005(19) 0.29067(16) 0.0607(3)
N2 N 0.79233(17) 0.4911(2) 0.2228(3)
N3 N 0.35067(15) 0.43228(17) 0.2123(3)
N4 N 0.28589(14) 0.50533(14) 0.2635(2)
O1 O 0.39384(16) 0.27125(13) 0.0591(3)
O2 O 0.55348(16) 0.23773(14) -0.0069(3)
O3 O 0.84951(15) 0.42733(18) 0.1731(3)
O4 O 0.82618(14) 0.56837(18) 0.2750(3)
C1 C 0.45801(16) 0.44522(16) 0.2116(2)
C2 C 0.52770(16) 0.37825(16) 0.1427(2)
C3 C 0.63704(17) 0.39319(17) 0.1474(3)
H1 H 0.6823 0.3478 0.1019
C4 C 0.67726(16) 0.47555(18) 0.2196(3)
C5 C 0.61123(17) 0.54410(17) 0.2870(3)
H2 H 0.6402 0.6000 0.3352
C6 C 0.50387(17) 0.52968(16) 0.2827(3)
H3 H 0.4599 0.5763 0.3275
C7 C 0.18529(19) 0.4892(2) 0.2520(3)
C8 C 0.11384(19) 0.5688(2) 0.3035(4)
H4 H 0.0615 0.5796 0.2040
H5 H 0.0752 0.5485 0.4068
C9 C 0.1670(2) 0.6608(2) 0.3497(4)
H6 H 0.2204 0.6513 0.4462
H7 H 0.1148 0.7054 0.3874
H8 H 0.2001 0.6851 0.2453
C10 C 0.1317(2) 0.3981(2) 0.1833(4)
H9 H 0.0593 0.4123 0.1380
H10 H 0.1703 0.3733 0.0836
C11 C 0.1285(3) 0.3250(3) 0.3265(4)
H11 H 0.2002 0.3082 0.3670
H12 H 0.0920 0.2697 0.2788
H13 H 0.0914 0.3496 0.4264
H14 H 0.3286(18) 0.3785(18) 0.167(3)
loop_
_geom_bond_atom_site_label_1
_geom_bond_atom_site_label_2
_geom_bond_site_symmetry_1
_geom_bond_site_symmetry_2
N1 O1 1_555 1_555
N2 O3 1_555 1_555
N3 N4 1_555 1_555
N4 C7 1_555 1_555
O2 N1 1_555 1_555
O4 N2 1_555 1_555
C1 N3 1_555 1_555
C2 N1 1_555 1_555
C3 C2 1_555 1_555
H1 C3 1_555 1_555
C4 N2 1_555 1_555
C5 C4 1_555 1_555
H2 C5 1_555 1_555
C6 C1 1_555 1_555
H3 C6 1_555 1_555
C7 C8 1_555 1_555
C8 H4 1_555 1_555
H5 C8 1_555 1_555
C9 C8 1_555 1_555
H6 C9 1_555 1_555
H7 C9 1_555 1_555
H8 C9 1_555 1_555
C10 C7 1_555 1_555
H9 C10 1_555 1_555
H10 C10 1_555 1_555
C11 C10 1_555 1_555
H11 C11 1_555 1_555
H12 C11 1_555 1_555
H13 C11 1_555 1_555
H14 N3 1_555 1_555
C1 C2 1_555 1_555
C3 C4 1_555 1_555
C5 C6 1_555 1_555

#END
