
#######################################################################
#
#                 Cambridge Crystallographic Data Centre
#                                CCDC 
#
#######################################################################
#
# If this CIF has been generated from an entry in the Cambridge 
# Structural Database, then it will include bibliographic, chemical, 
# crystal, experimental, refinement or atomic coordinate data resulting 
# from the CCDC's data processing and validation procedures.
#
#######################################################################

data_HODKOB01
_chemical_name_common            4'-Formylbenzo-15-crown-5
_chemical_formula_moiety         'C15 H20 O6'
_chemical_name_systematic        
2,3,5,6,8,9,11,12-octahydro-1,4,7,10,13-benzopentaoxacyclopentadecine-15-carbaldehyde
_symmetry_cell_setting           monoclinic
_symmetry_space_group_name_H-M   'P 21/c'
_symmetry_Int_Tables_number      14
_space_group_name_Hall           '-P 2ybc'
loop_
_symmetry_equiv_pos_site_id
_symmetry_equiv_pos_as_xyz
1 x,y,z
2 -x,1/2+y,1/2-z
3 -x,-y,-z
4 x,1/2-y,1/2+z
_cell_length_a                   18.0267(7)
_cell_length_b                   9.6720(4)
_cell_length_c                   8.1251(3)
_cell_angle_alpha                90
_cell_angle_beta                 91.156(2)
_cell_angle_gamma                90
_cell_volume                     1416.36
_exptl_crystal_colour            colorless
_exptl_crystal_description       block
_cell_formula_units_Z            4
_exptl_crystal_recrystallization_method dichloromethane/hexane
loop_
_atom_site_label
_atom_site_type_symbol
_atom_site_fract_x
_atom_site_fract_y
_atom_site_fract_z
O1 O 0.23591(5) 0.24430(9) 0.63751(11)
O2 O 0.08306(5) 0.27910(10) 0.65428(11)
O3 O 0.07940(5) 0.59806(10) 0.67420(12)
O4 O 0.24025(5) 0.70004(11) 0.44282(13)
O5 O 0.31187(5) 0.45054(9) 0.54581(11)
O6 O 0.53906(6) 0.23780(11) 0.25244(13)
C1 C 0.34082(7) 0.32510(13) 0.50577(15)
C2 C 0.40550(7) 0.30412(13) 0.42379(16)
C3 C 0.42864(7) 0.16911(14) 0.38673(16)
C4 C 0.38609(8) 0.05733(14) 0.43285(17)
C5 C 0.32054(8) 0.07700(14) 0.51813(17)
C6 C 0.29776(7) 0.21004(13) 0.55552(15)
C7 C 0.18870(7) 0.13576(13) 0.69516(16)
C8 C 0.12471(8) 0.20514(15) 0.77592(16)
C9 C 0.02707(8) 0.36588(15) 0.72187(18)
C10 C 0.05541(8) 0.50085(15) 0.79330(17)
C11 C 0.15297(7) 0.57855(14) 0.61817(17)
C12 C 0.17412(8) 0.71221(15) 0.53440(19)
C13 C 0.30699(8) 0.69379(14) 0.5405(2)
C14 C 0.35159(7) 0.56988(13) 0.49263(18)
C15 C 0.49746(8) 0.14738(16) 0.29796(18)
H1 H 0.4363(9) 0.3801(17) 0.3888(19)
H2 H 0.4018(8) -0.0342(17) 0.4072(19)
H3 H 0.2892(8) 0.0019(17) 0.5508(19)
H4 H 0.2173(8) 0.0772(14) 0.7736(18)
H5 H 0.1718(8) 0.0795(15) 0.5995(19)
H6 H 0.0936(8) 0.1331(16) 0.8269(19)
H7 H 0.1427(9) 0.2651(16) 0.864(2)
H8 H 0.0011(9) 0.3152(17) 0.808(2)
H9 H -0.0084(8) 0.3854(16) 0.6316(19)
H10 H 0.0143(9) 0.5477(17) 0.850(2)
H11 H 0.0947(8) 0.4866(15) 0.8736(18)
H12 H 0.1547(8) 0.5016(17) 0.543(2)
H13 H 0.1870(9) 0.5563(15) 0.709(2)
H14 H 0.1362(9) 0.7363(16) 0.450(2)
H15 H 0.1799(10) 0.7862(18) 0.618(2)
H16 H 0.2954(8) 0.6904(15) 0.659(2)
H17 H 0.3353(9) 0.7737(17) 0.520(2)
H18 H 0.3585(9) 0.5668(16) 0.372(2)
H19 H 0.4006(9) 0.5737(15) 0.5474(18)
H20 H 0.5101(9) 0.0463(17) 0.277(2)
loop_
_geom_bond_atom_site_label_1
_geom_bond_atom_site_label_2
_geom_bond_site_symmetry_1
_geom_bond_site_symmetry_2
O1 C6 1_555 1_555
O2 C8 1_555 1_555
O3 C10 1_555 1_555
O4 C12 1_555 1_555
O5 C1 1_555 1_555
O6 C15 1_555 1_555
C1 C2 1_555 1_555
C2 C3 1_555 1_555
C3 C4 1_555 1_555
C4 C5 1_555 1_555
C5 C6 1_555 1_555
C6 C1 1_555 1_555
C7 O1 1_555 1_555
C8 C7 1_555 1_555
C9 O2 1_555 1_555
C10 C9 1_555 1_555
C11 O3 1_555 1_555
C12 C11 1_555 1_555
C13 O4 1_555 1_555
C14 O5 1_555 1_555
C15 C3 1_555 1_555
H1 C2 1_555 1_555
H2 C4 1_555 1_555
H3 C5 1_555 1_555
H4 C7 1_555 1_555
H5 C7 1_555 1_555
H6 C8 1_555 1_555
H7 C8 1_555 1_555
H8 C9 1_555 1_555
H9 C9 1_555 1_555
H10 C10 1_555 1_555
H11 C10 1_555 1_555
H12 C11 1_555 1_555
H13 C11 1_555 1_555
H14 C12 1_555 1_555
H15 C12 1_555 1_555
H16 C13 1_555 1_555
H17 C13 1_555 1_555
H18 C14 1_555 1_555
H19 C14 1_555 1_555
H20 C15 1_555 1_555
C13 C14 1_555 1_555

#END
