
#######################################################################
#
#                 Cambridge Crystallographic Data Centre
#                                CCDC 
#
#######################################################################
#
# If this CIF has been generated from an entry in the Cambridge 
# Structural Database, then it will include bibliographic, chemical, 
# crystal, experimental, refinement or atomic coordinate data resulting 
# from the CCDC's data processing and validation procedures.
#
#######################################################################

data_HODQAT
_chemical_formula_moiety         'C20 H19 Cl2 N1 O1'
_chemical_name_systematic        
2,4-bis(2-Chlorophenyl)-3-azabicyclo(3.3.1)nonan-9-one
_symmetry_cell_setting           triclinic
_symmetry_space_group_name_H-M   'P -1'
_symmetry_Int_Tables_number      2
_space_group_name_Hall           '-P 1'
loop_
_symmetry_equiv_pos_site_id
_symmetry_equiv_pos_as_xyz
1 x,y,z
2 -x,-y,-z
_cell_length_a                   7.7070(15)
_cell_length_b                   10.680(2)
_cell_length_c                   11.000(2)
_cell_angle_alpha                101.78(3)
_cell_angle_beta                 92.82(3)
_cell_angle_gamma                98.13(3)
_cell_volume                     874.589
_exptl_crystal_colour            colorless
_exptl_crystal_description       rectangular
_cell_formula_units_Z            2
_exptl_crystal_recrystallization_method isopropanol
loop_
_atom_site_label
_atom_site_type_symbol
_atom_site_fract_x
_atom_site_fract_y
_atom_site_fract_z
C1 C 0.2417(9) 0.0189(6) 0.1674(6)
H1 H 0.3149 0.0273 0.0982
C2 C 0.3606(9) 0.0002(7) 0.2788(7)
H2 H 0.4171 -0.0762 0.2512
C3 C 0.2618(10) -0.0165(8) 0.3956(7)
H3 H 0.1619 -0.0848 0.3702
H4 H 0.3398 -0.0445 0.4531
C4 C 0.1957(11) 0.1052(8) 0.4652(7)
H5 H 0.1688 0.0940 0.5479
H6 H 0.0879 0.1153 0.4215
C5 C 0.3321(11) 0.2301(8) 0.4770(7)
H7 H 0.2734 0.3047 0.5019
H8 H 0.4222 0.2325 0.5425
C6 C 0.4220(9) 0.2412(7) 0.3553(7)
H9 H 0.5171 0.3153 0.3738
C7 C 0.2987(9) 0.2553(6) 0.2452(7)
H10 H 0.3703 0.2650 0.1756
C8 C 0.5010(9) 0.1176(7) 0.3144(7)
C9 C 0.0965(9) -0.0967(6) 0.1234(6)
C10 C -0.0743(10) -0.0946(8) 0.1630(7)
H11 H -0.0997 -0.0198 0.2142
C11 C -0.2061(10) -0.2016(8) 0.1276(8)
H12 H -0.3183 -0.1971 0.1539
C12 C -0.1697(11) -0.3152(8) 0.0528(8)
H13 H -0.2570 -0.3873 0.0312
C13 C -0.0067(11) -0.3211(7) 0.0112(7)
H14 H 0.0162 -0.3960 -0.0413
C14 C 0.1257(9) -0.2140(7) 0.0478(6)
C15 C 0.2078(9) 0.3750(7) 0.2778(7)
C16 C 0.2911(10) 0.4984(7) 0.2705(7)
C17 C 0.2106(12) 0.6063(8) 0.2961(8)
H15 H 0.2695 0.6865 0.2893
C18 C 0.0388(12) 0.5946(8) 0.3328(9)
H16 H -0.0172 0.6670 0.3512
C19 C -0.0466(11) 0.4748(8) 0.3413(8)
H17 H -0.1608 0.4666 0.3656
C20 C 0.0360(10) 0.3662(7) 0.3141(7)
H18 H -0.0241 0.2861 0.3202
Cl1 Cl 0.3337(3) -0.2278(2) -0.0080(2)
Cl2 Cl 0.5064(3) 0.5208(2) 0.2224(2)
N1 N 0.1657(8) 0.1389(5) 0.2038(6)
O1 O 0.6563(7) 0.1143(6) 0.3131(6)
H19 H 0.096(12) 0.146(8) 0.149(9)
loop_
_geom_bond_atom_site_label_1
_geom_bond_atom_site_label_2
_geom_bond_site_symmetry_1
_geom_bond_site_symmetry_2
C1 H1 1_555 1_555
C2 C1 1_555 1_555
H2 C2 1_555 1_555
C3 C2 1_555 1_555
H3 C3 1_555 1_555
H4 C3 1_555 1_555
C4 C3 1_555 1_555
H5 C4 1_555 1_555
H6 C4 1_555 1_555
C5 C4 1_555 1_555
H7 C5 1_555 1_555
H8 C5 1_555 1_555
C6 C5 1_555 1_555
H9 C6 1_555 1_555
C7 C6 1_555 1_555
H10 C7 1_555 1_555
C8 C2 1_555 1_555
C9 C1 1_555 1_555
C10 C9 1_555 1_555
H11 C10 1_555 1_555
C11 C10 1_555 1_555
H12 C11 1_555 1_555
C12 C11 1_555 1_555
H13 C12 1_555 1_555
C13 C12 1_555 1_555
H14 C13 1_555 1_555
C14 C9 1_555 1_555
C15 C7 1_555 1_555
C16 C15 1_555 1_555
C17 C16 1_555 1_555
H15 C17 1_555 1_555
C18 C17 1_555 1_555
H16 C18 1_555 1_555
C19 C18 1_555 1_555
H17 C19 1_555 1_555
C20 C15 1_555 1_555
H18 C20 1_555 1_555
Cl1 C14 1_555 1_555
Cl2 C16 1_555 1_555
N1 C1 1_555 1_555
O1 C8 1_555 1_555
H19 N1 1_555 1_555
C6 C8 1_555 1_555
C7 N1 1_555 1_555
C13 C14 1_555 1_555
C19 C20 1_555 1_555

#END
