
#######################################################################
#
#                 Cambridge Crystallographic Data Centre
#                                CCDC 
#
#######################################################################
#
# If this CIF has been generated from an entry in the Cambridge 
# Structural Database, then it will include bibliographic, chemical, 
# crystal, experimental, refinement or atomic coordinate data resulting 
# from the CCDC's data processing and validation procedures.
#
#######################################################################

data_HODTOK
_chemical_formula_moiety         'C24 H34 N4 O11'
_chemical_name_systematic        
3-Methyl-2,6-dinitro-N-(3-pentyl)-4-((2,3,4-tri-O-acetyl-\b-D-xylosyl)aminomethyl)aniline
_symmetry_cell_setting           orthorhombic
_symmetry_space_group_name_H-M   'P 21 21 21'
_symmetry_Int_Tables_number      19
_space_group_name_Hall           'P 2ac 2ab'
loop_
_symmetry_equiv_pos_site_id
_symmetry_equiv_pos_as_xyz
1 x,y,z
2 1/2-x,-y,1/2+z
3 -x,1/2+y,1/2-z
4 1/2+x,1/2-y,-z
_cell_length_a                   7.4100(15)
_cell_length_b                   11.044(2)
_cell_length_c                   34.106(7)
_cell_angle_alpha                90
_cell_angle_beta                 90
_cell_angle_gamma                90
_cell_volume                     2791.1
_exptl_crystal_colour            yellow
_exptl_crystal_description       block
_cell_formula_units_Z            4
_exptl_crystal_recrystallization_method 'acetonitrile/ethyl acetate'
loop_
_atom_site_label
_atom_site_type_symbol
_atom_site_fract_x
_atom_site_fract_y
_atom_site_fract_z
N1 N 0.8178(10) 0.2626(5) 0.1700(2)
H1 H 0.9024 0.2234 0.1583
C1 C 0.8949(13) 0.0842(12) 0.2352(3)
H2 H 0.9437 0.0066 0.2422
H3 H 0.8294 0.1169 0.2571
H4 H 0.9916 0.1381 0.2284
O1 O 0.6282(15) 0.4037(7) 0.2480(2)
C2 C 0.7702(12) 0.0702(7) 0.2009(2)
H5 H 0.6772 0.0123 0.2079
H6 H 0.8382 0.0362 0.1792
N2 N 0.5848(15) 0.4284(7) 0.2134(4)
O2 O 0.4388(11) 0.4255(7) 0.1997(4)
N3 N 1.1129(8) 0.3679(5) 0.12461(15)
O3 O 1.2320(8) 0.4167(5) 0.10820(17)
C3 C 0.3754(17) 0.0983(10) 0.1705(3)
H7 H 0.2938 0.0809 0.1494
H8 H 0.3169 0.1501 0.1892
H9 H 0.4102 0.0241 0.1831
N4 N 1.1134(7) 0.8095(4) 0.14687(15)
H10 H 1.2215 0.8042 0.1559
O4 O 1.0911(9) 0.2574(4) 0.12117(18)
C4 C 0.5383(12) 0.1598(8) 0.1548(3)
H11 H 0.5028 0.2358 0.1428
H12 H 0.5921 0.1095 0.1347
O5 O 1.0104(14) 1.2551(5) 0.0281(2)
C5 C 0.6794(10) 0.1850(6) 0.1869(2)
H13 H 0.6221 0.2262 0.2090
O6 O 1.0543(7) 1.0657(3) 0.00833(11)
C6 C 0.8401(10) 0.3854(5) 0.1690(2)
C7 C 0.7377(10) 0.4713(6) 0.1903(2)
O7 O 1.3806(6) 0.9512(4) 0.02752(12)
C8 C 0.7674(9) 0.5952(5) 0.18989(18)
O8 O 1.3595(8) 0.8031(5) -0.01708(16)
O9 O 1.3373(6) 0.7535(3) 0.08050(13)
C9 C 0.9162(9) 0.6406(5) 0.16961(17)
O10 O 1.5721(9) 0.8095(5) 0.1159(2)
C10 C 1.0208(9) 0.5642(5) 0.14899(18)
H14 H 1.1179 0.5954 0.1349
O11 O 0.9818(6) 0.9650(4) 0.10992(12)
C11 C 0.9889(8) 0.4396(5) 0.14790(19)
C12 C 0.6414(11) 0.6798(6) 0.2129(2)
H15 H 0.5486 0.6329 0.2253
H16 H 0.5873 0.7369 0.1952
H17 H 0.7095 0.7224 0.2324
C13 C 0.9561(11) 0.7768(5) 0.1707(2)
H18 H 0.8515 0.8207 0.1612
H19 H 0.9773 0.8013 0.1976
C14 C 1.0783(9) 0.8495(5) 0.1089(2)
H20 H 1.0031 0.7893 0.0955
C15 C 0.9289(9) 1.0028(6) 0.07198(19)
H21 H 0.8525 1.0738 0.0739
H22 H 0.8606 0.9390 0.0593
C16 C 1.0952(9) 1.0320(5) 0.04803(17)
H23 H 1.1638 1.0968 0.0608
C17 C 1.2120(8) 0.9170(5) 0.04514(17)
H24 H 1.1512 0.8556 0.0292
C18 C 1.2506(9) 0.8685(5) 0.08543(19)
H25 H 1.3310 0.9240 0.0995
C19 C 1.0118(14) 1.2105(7) -0.0406(3)
H26 H 0.9922 1.2957 -0.0442
H27 H 0.9113 1.1662 -0.0511
H28 H 1.1202 1.1867 -0.0539
C20 C 1.0292(12) 1.1850(6) 0.0003(3)
C21 C 1.6071(11) 0.9433(6) -0.0209(2)
H29 H 1.6419 0.8986 -0.0438
H30 H 1.7018 0.9391 -0.0017
H31 H 1.5860 1.0263 -0.0278
C22 C 1.4367(10) 0.8896(6) -0.00402(19)
C23 C 1.5679(9) 0.6105(6) 0.0884(2)
H32 H 1.6864 0.6008 0.0993
H33 H 1.5732 0.6002 0.0605
H34 H 1.4883 0.5510 0.0995
C24 C 1.4995(9) 0.7333(7) 0.0977(2)
loop_
_geom_bond_atom_site_label_1
_geom_bond_atom_site_label_2
_geom_bond_site_symmetry_1
_geom_bond_site_symmetry_2
N1 H1 1_555 1_555
C1 H2 1_555 1_555
H3 C1 1_555 1_555
H4 C1 1_555 1_555
O1 N2 1_555 1_555
C2 C1 1_555 1_555
H5 C2 1_555 1_555
H6 C2 1_555 1_555
N2 O2 1_555 1_555
N3 O3 1_555 1_555
C3 H7 1_555 1_555
H8 C3 1_555 1_555
H9 C3 1_555 1_555
N4 H10 1_555 1_555
O4 N3 1_555 1_555
C4 C3 1_555 1_555
H11 C4 1_555 1_555
H12 C4 1_555 1_555
O5 C20 1_555 1_555
C5 N1 1_555 1_555
H13 C5 1_555 1_555
O6 C16 1_555 1_555
C6 N1 1_555 1_555
C7 N2 1_555 1_555
O7 C17 1_555 1_555
C8 C7 1_555 1_555
O8 C22 1_555 1_555
O9 C18 1_555 1_555
C9 C8 1_555 1_555
O10 C24 1_555 1_555
C10 C9 1_555 1_555
H14 C10 1_555 1_555
O11 C14 1_555 1_555
C11 N3 1_555 1_555
C12 C8 1_555 1_555
H15 C12 1_555 1_555
H16 C12 1_555 1_555
H17 C12 1_555 1_555
C13 N4 1_555 1_555
H18 C13 1_555 1_555
H19 C13 1_555 1_555
C14 N4 1_555 1_555
H20 C14 1_555 1_555
C15 O11 1_555 1_555
H21 C15 1_555 1_555
H22 C15 1_555 1_555
C16 C15 1_555 1_555
H23 C16 1_555 1_555
C17 C16 1_555 1_555
H24 C17 1_555 1_555
C18 C14 1_555 1_555
H25 C18 1_555 1_555
C19 H26 1_555 1_555
H27 C19 1_555 1_555
H28 C19 1_555 1_555
C20 O6 1_555 1_555
C21 H29 1_555 1_555
H30 C21 1_555 1_555
H31 C21 1_555 1_555
C22 O7 1_555 1_555
C23 H32 1_555 1_555
H33 C23 1_555 1_555
H34 C23 1_555 1_555
C24 O9 1_555 1_555
C2 C5 1_555 1_555
C4 C5 1_555 1_555
C6 C7 1_555 1_555
C6 C11 1_555 1_555
C9 C13 1_555 1_555
C10 C11 1_555 1_555
C17 C18 1_555 1_555
C19 C20 1_555 1_555
C21 C22 1_555 1_555
C23 C24 1_555 1_555

#END
