
#######################################################################
#
#                 Cambridge Crystallographic Data Centre
#                                CCDC 
#
#######################################################################
#
# If this CIF has been generated from an entry in the Cambridge 
# Structural Database, then it will include bibliographic, chemical, 
# crystal, experimental, refinement or atomic coordinate data resulting 
# from the CCDC's data processing and validation procedures.
#
#######################################################################

data_HODVUS
_chemical_formula_moiety         'C26 H32 N8 O6 2+,2(B1 F4 1-)'
_chemical_name_systematic        
"4,4'-(8b,8c-bis(ethoxycarbonyl)-4,8-dioxo-2,3,5,6-tetrahydro-1H,4H-2,3a,4a,6,7a,8a-hexaazacyclopenta(def)fluorene-2,6-diyldimethyl)dipyridinium bis(tetrafluoroborate)"
_symmetry_cell_setting           monoclinic
_symmetry_space_group_name_H-M   'P 21/n'
_symmetry_Int_Tables_number      14
_space_group_name_Hall           '-P 2yn'
loop_
_symmetry_equiv_pos_site_id
_symmetry_equiv_pos_as_xyz
1 x,y,z
2 1/2-x,1/2+y,1/2-z
3 -x,-y,-z
4 1/2+x,1/2-y,1/2+z
_cell_length_a                   17.9399(17)
_cell_length_b                   7.9673(8)
_cell_length_c                   22.580(2)
_cell_angle_alpha                90
_cell_angle_beta                 93.089(2)
_cell_angle_gamma                90
_cell_volume                     3222.73
_exptl_crystal_colour            yellow
_exptl_crystal_description       block
_cell_formula_units_Z            4
loop_
_atom_site_label
_atom_site_type_symbol
_atom_site_fract_x
_atom_site_fract_y
_atom_site_fract_z
C1 C 0.5001(2) 0.2921(4) 1.03044(15)
H1 H 0.4825 0.3271 1.0664
C2 C 0.57382(18) 0.3098(4) 1.01969(14)
H2 H 0.6062 0.3596 1.0480
C3 C 0.60061(16) 0.2541(4) 0.96692(13)
C4 C 0.54954(19) 0.1868(5) 0.92583(15)
H3 H 0.5653 0.1498 0.8895
C5 C 0.4769(2) 0.1739(6) 0.93781(16)
H4 H 0.4430 0.1288 0.9095
C6 C 0.68192(16) 0.2666(5) 0.95544(13)
H5 H 0.7019 0.3691 0.9732
H6 H 0.7082 0.1728 0.9744
C7 C 0.67801(16) 0.4271(4) 0.86354(13)
H7 H 0.6740 0.4110 0.8209
H8 H 0.6299 0.4657 0.8758
C8 C 0.77071(17) 0.2133(4) 0.87916(14)
H9 H 0.7714 0.1844 0.8375
H10 H 0.7835 0.1132 0.9020
C9 C 0.86504(15) 0.3565(4) 0.94858(13)
C10 C 0.72970(16) 0.6712(4) 0.92212(12)
C11 C 0.81079(15) 0.5083(4) 0.86883(12)
C12 C 0.8258(2) 0.5248(5) 0.80193(15)
C15 C 0.8736(5) 0.3895(17) 0.7186(3)
H16 H 0.8497 0.4859 0.6994
H17 H 0.8545 0.2888 0.6989
C16 C 0.9554(5) 0.3997(17) 0.7141(4)
H18 H 0.9719 0.5121 0.7228
H19 H 0.9680 0.3701 0.6747
H20 H 0.9795 0.3235 0.7420
O2 O 0.8572(4) 0.3859(10) 0.7797(2)
C17 C 0.85621(15) 0.6300(4) 0.91047(12)
C18 C 0.9183(2) 0.7291(5) 0.88022(16)
C19 C 0.9536(4) 0.9832(7) 0.8373(3)
H21 H 0.9780 0.9152 0.8084
H22 H 0.9277 1.0744 0.8164
C20 C 1.0099(4) 1.0520(9) 0.8811(4)
H23 H 1.0478 0.9691 0.8899
H24 H 0.9862 1.0811 0.9168
H25 H 1.0324 1.1502 0.8651
C21 C 0.91213(16) 0.5955(5) 1.01245(13)
H26 H 0.9270 0.5080 1.0406
H27 H 0.9550 0.6675 1.0077
C22 C 0.82271(18) 0.8131(4) 0.99351(13)
H28 H 0.8600 0.8985 0.9873
H29 H 0.7798 0.8680 1.0093
C23 C 0.79600(17) 0.5878(5) 1.06348(12)
H30 H 0.7865 0.4890 1.0392
H31 H 0.7496 0.6499 1.0651
C24 C 0.82226(16) 0.5353(4) 1.12506(13)
C25 C 0.8290(2) 0.6502(5) 1.17015(14)
H32 H 0.8202 0.7633 1.1623
C26 C 0.8490(2) 0.5984(6) 1.22743(16)
H33 H 0.8535 0.6752 1.2584
C27 C 0.8385(2) 0.3710(5) 1.13763(16)
H34 H 0.8359 0.2917 1.1073
C28 C 0.8587(2) 0.3221(6) 1.19426(19)
H35 H 0.8702 0.2106 1.2028
N1 N 0.45360(15) 0.2244(4) 0.98903(13)
H36 H 0.4072 0.2135 0.9960
N2 N 0.69559(13) 0.2664(3) 0.89217(10)
N3 N 0.82774(12) 0.3438(3) 0.89293(10)
N4 N 0.73395(12) 0.5557(3) 0.87778(10)
N5 N 0.89045(13) 0.5179(3) 0.95504(10)
N6 N 0.79994(13) 0.7353(3) 0.93560(10)
N7 N 0.85262(13) 0.6938(3) 1.03643(10)
N8 N 0.86144(19) 0.4371(5) 1.23672(13)
H37 H 0.8720 0.4045 1.2725
O3 O 0.87551(12) 0.2428(3) 0.98316(10)
O4 O 0.67268(12) 0.7166(3) 0.94438(9)
O5 O 0.8013(2) 0.6342(5) 0.77298(12)
O6 O 0.97363(18) 0.6629(4) 0.86828(18)
O7 O 0.89909(15) 0.8793(4) 0.86841(14)
F1 F 0.4030(7) 0.5250(14) 0.7710(4)
F2 F 0.4475(4) 0.2852(6) 0.8070(3)
F3 F 0.3902(5) 0.4596(10) 0.8656(3)
F4 F 0.5018(5) 0.5213(11) 0.8372(6)
B1 B 0.4375(3) 0.4445(7) 0.8168(2)
F9 F 0.2541(3) 0.9974(8) 0.8457(3)
F10 F 0.2869(4) 0.8083(8) 0.9145(3)
F11 F 0.3729(2) 0.9319(5) 0.86238(15)
F12 F 0.3161(5) 1.0776(12) 0.9308(4)
B2 B 0.3046(2) 0.9579(6) 0.88888(19)
O1? O 0.8874(7) 0.4592(18) 0.7910(3)
C13? C 0.9117(10) 0.4813(18) 0.7335(5)
H11? H 0.9653 0.4988 0.7352
H12? H 0.8879 0.5794 0.7154
C14? C 0.8922(18) 0.329(2) 0.6973(6)
H13? H 0.8924 0.2319 0.7226
H14? H 0.9283 0.3136 0.6678
H15? H 0.8435 0.3424 0.6781
F5? F 0.4694(10) 0.5329(16) 0.8592(5)
F6? F 0.4928(11) 0.334(2) 0.7966(5)
F7? F 0.4150(6) 0.5340(13) 0.7668(4)
F8? F 0.3802(7) 0.348(3) 0.8322(9)
F13? F 0.3113(7) 0.7954(11) 0.8864(7)
F14? F 0.3243(5) 1.0241(10) 0.9440(2)
F15? F 0.3375(9) 1.047(3) 0.8487(3)
F16? F 0.2252(4) 0.9914(10) 0.8809(5)
loop_
_geom_bond_atom_site_label_1
_geom_bond_atom_site_label_2
_geom_bond_site_symmetry_1
_geom_bond_site_symmetry_2
C1 H1 1_555 1_555
C2 C1 1_555 1_555
H2 C2 1_555 1_555
C3 C2 1_555 1_555
C4 C3 1_555 1_555
H3 C4 1_555 1_555
C5 C4 1_555 1_555
H4 C5 1_555 1_555
C6 C3 1_555 1_555
H5 C6 1_555 1_555
H6 C6 1_555 1_555
C7 H7 1_555 1_555
H8 C7 1_555 1_555
C8 H9 1_555 1_555
H10 C8 1_555 1_555
C9 N3 1_555 1_555
C10 N4 1_555 1_555
C11 C12 1_555 1_555
C12 O2 1_555 1_555
C15 H16 1_555 1_555
H17 C15 1_555 1_555
C16 C15 1_555 1_555
H18 C16 1_555 1_555
H19 C16 1_555 1_555
H20 C16 1_555 1_555
O2 C15 1_555 1_555
C17 C11 1_555 1_555
C18 C17 1_555 1_555
C19 H21 1_555 1_555
H22 C19 1_555 1_555
C20 C19 1_555 1_555
H23 C20 1_555 1_555
H24 C20 1_555 1_555
H25 C20 1_555 1_555
C21 H26 1_555 1_555
H27 C21 1_555 1_555
C22 H28 1_555 1_555
H29 C22 1_555 1_555
C23 H30 1_555 1_555
H31 C23 1_555 1_555
C24 C23 1_555 1_555
C25 C24 1_555 1_555
H32 C25 1_555 1_555
C26 C25 1_555 1_555
H33 C26 1_555 1_555
C27 C24 1_555 1_555
H34 C27 1_555 1_555
C28 C27 1_555 1_555
H35 C28 1_555 1_555
F1 B1 1_555 1_555
F2 B1 1_555 1_555
F3 B1 1_555 1_555
F4 B1 1_555 1_555
F9 B2 1_555 1_555
F10 B2 1_555 1_555
F11 B2 1_555 1_555
F12 B2 1_555 1_555
N1 C1 1_555 1_555
H36 N1 1_555 1_555
N2 C6 1_555 1_555
N3 C8 1_555 1_555
N4 C7 1_555 1_555
N5 C9 1_555 1_555
N6 C10 1_555 1_555
N7 C21 1_555 1_555
N8 C26 1_555 1_555
H37 N8 1_555 1_555
O3 C9 1_555 1_555
O4 C10 1_555 1_555
O5 C12 1_555 1_555
O6 C18 1_555 1_555
O7 C18 1_555 1_555
C5 N1 1_555 1_555
C7 N2 1_555 1_555
C8 N2 1_555 1_555
C11 N3 1_555 1_555
C11 N4 1_555 1_555
C17 N5 1_555 1_555
C17 N6 1_555 1_555
C19 O7 1_555 1_555
C21 N5 1_555 1_555
C22 N6 1_555 1_555
C22 N7 1_555 1_555
C23 N7 1_555 1_555
C28 N8 1_555 1_555

#END
