
#######################################################################
#
#                 Cambridge Crystallographic Data Centre
#                                CCDC 
#
#######################################################################
#
# If this CIF has been generated from an entry in the Cambridge 
# Structural Database, then it will include bibliographic, chemical, 
# crystal, experimental, refinement or atomic coordinate data resulting 
# from the CCDC's data processing and validation procedures.
#
#######################################################################

data_HODVEC
_chemical_formula_moiety         'C16 H14 Br2 N2 O2'
_chemical_name_systematic        
3,3'-Dibromo-1,1'-(ethylenedioxybis(nitrilomethylidyne))dibenzene
_symmetry_cell_setting           monoclinic
_symmetry_space_group_name_H-M   'P 21/n'
_symmetry_Int_Tables_number      14
_space_group_name_Hall           '-P 2yn'
loop_
_symmetry_equiv_pos_site_id
_symmetry_equiv_pos_as_xyz
1 x,y,z
2 1/2-x,1/2+y,1/2-z
3 -x,-y,-z
4 1/2+x,1/2-y,1/2+z
_cell_length_a                   4.5072(7)
_cell_length_b                   7.615(2)
_cell_length_c                   23.180(3)
_cell_angle_alpha                90
_cell_angle_beta                 93.523(2)
_cell_angle_gamma                90
_cell_volume                     794.088
_exptl_crystal_colour            colorless
_exptl_crystal_description       needle
_chemical_melting_point          '363.5-365.5 K'
_cell_formula_units_Z            2
_exptl_crystal_recrystallization_method ethanol/hexane
loop_
_atom_site_label
_atom_site_type_symbol
_atom_site_fract_x
_atom_site_fract_y
_atom_site_fract_z
Br1 Br 0.56056(10) 0.86904(5) 0.160074(19)
N1 N -0.2668(6) 0.2442(4) 0.05861(13)
O1 O -0.4716(6) 0.2385(3) 0.00969(11)
C1 C -0.6114(8) 0.0710(5) 0.00676(17)
H1 H -0.7723 0.0722 -0.0230
H2 H -0.6952 0.0452 0.0434
C2 C -0.1591(8) 0.3960(4) 0.06447(16)
H3 H -0.2198 0.4837 0.0384
C3 C 0.0595(7) 0.4362(4) 0.11157(15)
C4 C 0.1868(8) 0.6001(4) 0.11401(15)
H4 H 0.1337 0.6827 0.0857
C5 C 0.3929(8) 0.6427(4) 0.15821(16)
C6 C 0.4796(9) 0.5227(5) 0.19990(16)
H5 H 0.6198 0.5523 0.2294
C7 C 0.3545(9) 0.3565(5) 0.19728(18)
H6 H 0.4098 0.2741 0.2256
C8 C 0.1504(9) 0.3121(5) 0.15356(16)
H7 H 0.0719 0.1992 0.1517
Br1B Br -1.56056(10) -0.86904(5) -0.160074(19)
N1B N -0.7332(6) -0.2442(4) -0.05861(13)
O1B O -0.5284(6) -0.2385(3) -0.00969(11)
C1B C -0.3886(8) -0.0710(5) -0.00676(17)
H1B H -0.2277 -0.0722 0.0230
H2B H -0.3048 -0.0452 -0.0434
C2B C -0.8409(8) -0.3960(4) -0.06447(16)
H3B H -0.7802 -0.4837 -0.0384
C3B C -1.0595(7) -0.4362(4) -0.11157(15)
C4B C -1.1868(8) -0.6001(4) -0.11401(15)
H4B H -1.1337 -0.6827 -0.0857
C5B C -1.3929(8) -0.6427(4) -0.15821(16)
C6B C -1.4796(9) -0.5227(5) -0.19990(16)
H5B H -1.6198 -0.5523 -0.2294
C7B C -1.3545(9) -0.3565(5) -0.19728(18)
H6B H -1.4098 -0.2741 -0.2256
C8B C -1.1504(9) -0.3121(5) -0.15356(16)
H7B H -1.0719 -0.1992 -0.1517
loop_
_geom_bond_atom_site_label_1
_geom_bond_atom_site_label_2
_geom_bond_site_symmetry_1
_geom_bond_site_symmetry_2
Br1 C5 1_555 1_555
N1 O1 1_555 1_555
O1 C1 1_555 1_555
C1 H1 1_555 1_555
H2 C1 1_555 1_555
C2 N1 1_555 1_555
H3 C2 1_555 1_555
C3 C2 1_555 1_555
C4 C3 1_555 1_555
H4 C4 1_555 1_555
C5 C4 1_555 1_555
C6 C5 1_555 1_555
H5 C6 1_555 1_555
C7 C6 1_555 1_555
H6 C7 1_555 1_555
C8 C3 1_555 1_555
H7 C8 1_555 1_555
Br1B C5B 1_555 1_555
N1B O1B 1_555 1_555
O1B C1B 1_555 1_555
C1B C1 1_555 1_555
H1B C1B 1_555 1_555
H2B C1B 1_555 1_555
C2B N1B 1_555 1_555
H3B C2B 1_555 1_555
C3B C2B 1_555 1_555
C4B C3B 1_555 1_555
H4B C4B 1_555 1_555
C5B C4B 1_555 1_555
C6B C5B 1_555 1_555
H5B C6B 1_555 1_555
C7B C6B 1_555 1_555
H6B C7B 1_555 1_555
C8B C3B 1_555 1_555
H7B C8B 1_555 1_555
C7 C8 1_555 1_555
C7B C8B 1_555 1_555

#END
