
#######################################################################
#
#                 Cambridge Crystallographic Data Centre
#                                CCDC 
#
#######################################################################
#
# If this CIF has been generated from an entry in the Cambridge 
# Structural Database, then it will include bibliographic, chemical, 
# crystal, experimental, refinement or atomic coordinate data resulting 
# from the CCDC's data processing and validation procedures.
#
#######################################################################

data_HODYIJ
_chemical_formula_moiety         '2(Cl1 O4 1-),C19 H20 N6 2+'
_chemical_name_systematic        
"2,2'-Dimethyl-7,7'-(methylenediimino)di-1,8-naphthyridin-1-ium bis(perchlorate)"
_symmetry_cell_setting           orthorhombic
_symmetry_space_group_name_H-M   'P b c a'
_symmetry_Int_Tables_number      61
_space_group_name_Hall           '-P 2ac 2ab'
loop_
_symmetry_equiv_pos_site_id
_symmetry_equiv_pos_as_xyz
1 x,y,z
2 1/2+x,1/2-y,-z
3 -x,1/2+y,1/2-z
4 1/2-x,-y,1/2+z
5 -x,-y,-z
6 1/2-x,1/2+y,z
7 x,1/2-y,1/2+z
8 1/2+x,y,1/2-z
_cell_length_a                   8.1910(5)
_cell_length_b                   19.3250(12)
_cell_length_c                   27.8850(19)
_cell_angle_alpha                90
_cell_angle_beta                 90
_cell_angle_gamma                90
_cell_volume                     4413.95
_exptl_crystal_colour            colorless
_exptl_crystal_description       prism
_cell_formula_units_Z            8
loop_
_atom_site_label
_atom_site_type_symbol
_atom_site_fract_x
_atom_site_fract_y
_atom_site_fract_z
Cl1 Cl 0.24246(10) 0.22574(4) 0.56855(3)
O1 O 0.1693(6) 0.1730(2) 0.59780(16)
O2 O 0.3894(5) 0.2014(2) 0.5483(2)
O3 O 0.1302(6) 0.2438(2) 0.53084(12)
O4 O 0.2651(6) 0.28664(19) 0.59698(15)
Cl2 Cl 1.00163(9) 0.01682(3) 0.69459(3)
O5 O 0.8509(4) 0.02894(17) 0.67091(14)
O6 O 0.9850(5) -0.03196(14) 0.73264(10)
O7 O 1.1129(3) -0.01123(15) 0.65972(10)
O8 O 1.0661(6) 0.0802(2) 0.7134(2)
N1 N 0.1466(3) 0.16498(13) 0.27420(9)
N2 N 0.1460(3) 0.16453(12) 0.35633(8)
N3 N 0.1396(3) 0.16601(15) 0.43819(10)
N4 N 0.3295(3) 0.04505(14) 0.58097(9)
N5 N 0.2041(3) 0.04253(13) 0.50731(9)
N6 N 0.0922(4) 0.04231(16) 0.43264(11)
C1 C 0.1739(4) 0.19127(16) 0.23034(10)
C2 C 0.2463(5) 0.25570(18) 0.22665(11)
H1 H 0.2634 0.2759 0.1960
C3 C 0.2935(4) 0.29061(16) 0.26746(11)
H2 H 0.3453 0.3344 0.2647
C4 C 0.2662(4) 0.26239(14) 0.31277(10)
C5 C 0.1858(4) 0.19774(14) 0.31595(10)
C6 C 0.1866(4) 0.19636(15) 0.39716(10)
C7 C 0.2786(4) 0.25928(15) 0.39855(10)
H3 H 0.3132 0.2779 0.4284
C8 C 0.3159(4) 0.29193(15) 0.35722(10)
H4 H 0.3748 0.3343 0.3578
C9 C 0.1243(6) 0.14783(18) 0.18868(12)
H5 H 0.2123 0.1154 0.1808
H6 H 0.1026 0.1776 0.1610
H7 H 0.0253 0.1219 0.1968
C10 C 0.4320(4) 0.02351(16) 0.61578(11)
C11 C 0.5112(4) -0.03943(17) 0.60916(12)
H8 H 0.5862 -0.0556 0.6326
C12 C 0.4812(4) -0.07835(17) 0.56878(12)
H9 H 0.5322 -0.1222 0.5653
C13 C 0.3773(4) -0.05443(15) 0.53293(12)
C14 C 0.3015(4) 0.01043(16) 0.53928(11)
C15 C 0.1802(4) 0.00934(17) 0.46592(11)
C16 C 0.2463(4) -0.05808(16) 0.45608(12)
H10 H 0.2221 -0.0808 0.4267
C17 C 0.3428(4) -0.08878(16) 0.48880(12)
H11 H 0.3878 -0.1332 0.4825
C18 C 0.4554(5) 0.06921(19) 0.65809(11)
H12 H 0.4863 0.1156 0.6473
H13 H 0.5418 0.0503 0.6785
H14 H 0.3533 0.0718 0.6763
C19 C 0.0224(4) 0.10976(18) 0.43970(12)
H15 H -0.0336 0.1106 0.4712
H16 H -0.0612 0.1178 0.4147
H17 H 0.163(4) 0.1865(17) 0.4619(12)
H18 H 0.101(5) 0.124(2) 0.2764(13)
H19 H 0.081(5) 0.0269(19) 0.4097(13)
H20 H 0.281(4) 0.0828(18) 0.5853(12)
O9? O 0.1358(14) 0.1676(5) 0.5766(4)
O10? O 0.3710(11) 0.2233(6) 0.6037(3)
O11? O 0.3135(14) 0.2178(6) 0.5220(3)
O12? O 0.1558(13) 0.2875(4) 0.5708(4)
O13? O 0.8301(12) 0.0031(10) 0.7058(7)
O14? O 1.0870(19) -0.0453(6) 0.7069(7)
O15? O 1.012(3) 0.0307(10) 0.6446(4)
O16? O 1.056(3) 0.0738(10) 0.7228(8)
loop_
_geom_bond_atom_site_label_1
_geom_bond_atom_site_label_2
_geom_bond_site_symmetry_1
_geom_bond_site_symmetry_2
Cl1 O1 1_555 1_555
Cl2 O5 1_555 1_555
O2 Cl1 1_555 1_555
O3 Cl1 1_555 1_555
O4 Cl1 1_555 1_555
O6 Cl2 1_555 1_555
O7 Cl2 1_555 1_555
O8 Cl2 1_555 1_555
N1 C1 1_555 1_555
N2 C5 1_555 1_555
N3 C6 1_555 1_555
N4 C10 1_555 1_555
N5 C14 1_555 1_555
N6 C15 1_555 1_555
C1 C2 1_555 1_555
C2 H1 1_555 1_555
C3 C2 1_555 1_555
H2 C3 1_555 1_555
C4 C3 1_555 1_555
C5 N1 1_555 1_555
C6 N2 1_555 1_555
C7 C6 1_555 1_555
H3 C7 1_555 1_555
C8 C4 1_555 1_555
H4 C8 1_555 1_555
C9 C1 1_555 1_555
H5 C9 1_555 1_555
H6 C9 1_555 1_555
H7 C9 1_555 1_555
C10 C11 1_555 1_555
C11 H8 1_555 1_555
C12 C11 1_555 1_555
H9 C12 1_555 1_555
C13 C12 1_555 1_555
C14 N4 1_555 1_555
C15 N5 1_555 1_555
C16 C15 1_555 1_555
H10 C16 1_555 1_555
C17 C13 1_555 1_555
H11 C17 1_555 1_555
C18 C10 1_555 1_555
H12 C18 1_555 1_555
H13 C18 1_555 1_555
H14 C18 1_555 1_555
C19 N3 1_555 1_555
H15 C19 1_555 1_555
H16 C19 1_555 1_555
H17 N3 1_555 1_555
H18 N1 1_555 1_555
H19 N6 1_555 1_555
H20 N4 1_555 1_555
N6 C19 1_555 1_555
C4 C5 1_555 1_555
C7 C8 1_555 1_555
C13 C14 1_555 1_555
C16 C17 1_555 1_555

#END
