
#######################################################################
#
#                 Cambridge Crystallographic Data Centre
#                                CCDC 
#
#######################################################################
#
# If this CIF has been generated from an entry in the Cambridge 
# Structural Database, then it will include bibliographic, chemical, 
# crystal, experimental, refinement or atomic coordinate data resulting 
# from the CCDC's data processing and validation procedures.
#
#######################################################################

data_HODYEG
_chemical_formula_moiety         'C27 H24 Cl1 N1 O4 S1'
_chemical_name_systematic        
N-((4-acetyl-2-(2-chlorophenyl)-5-methylfuran-3(2H)-ylidene)(phenyl)methyl)-4-methylbenzenesulfonamide
_symmetry_cell_setting           monoclinic
_symmetry_space_group_name_H-M   'P 21/c'
_symmetry_Int_Tables_number      14
_space_group_name_Hall           '-P 2ybc'
loop_
_symmetry_equiv_pos_site_id
_symmetry_equiv_pos_as_xyz
1 x,y,z
2 -x,1/2+y,1/2-z
3 -x,-y,-z
4 x,1/2-y,1/2+z
_cell_length_a                   12.3562(10)
_cell_length_b                   15.9105(13)
_cell_length_c                   12.5426(10)
_cell_angle_alpha                90
_cell_angle_beta                 94.078(5)
_cell_angle_gamma                90
_cell_volume                     2459.55
_exptl_crystal_colour            colorless
_exptl_crystal_description       block
_cell_formula_units_Z            4
loop_
_atom_site_label
_atom_site_type_symbol
_atom_site_fract_x
_atom_site_fract_y
_atom_site_fract_z
S1 S 0.03319(7) 0.21336(5) 0.84412(7)
Cl1 Cl 0.55902(10) 0.13414(10) 0.57365(9)
O1 O 0.04694(18) 0.29222(13) 0.79233(19)
C1 C 0.2820(2) 0.25056(18) 0.7724(2)
C2 C 0.3719(2) 0.09069(19) 0.7119(2)
H1 H 0.3588 0.1266 0.6489
C3 C 0.2359(2) 0.16972(18) 0.8087(2)
C4 C 0.4814(3) 0.11163(18) 0.7683(2)
C5 C 0.2763(2) 0.09524(19) 0.7798(2)
C6 C -0.0623(2) 0.0644(2) 0.7831(3)
H2 H -0.0567 0.0503 0.8553
C7 C -0.0246(2) 0.14218(18) 0.7496(2)
C8 C -0.1181(3) 0.0281(2) 0.6013(3)
C9 C 0.2456(3) 0.0070(2) 0.7986(3)
C10 C 0.4970(3) 0.1085(2) 0.8787(3)
H3 H 0.4389 0.0952 0.9189
C11 C 0.2699(3) 0.2753(2) 0.6661(3)
H4 H 0.2312 0.2416 0.6163
C12 C 0.3840(3) 0.3769(2) 0.8108(3)
H5 H 0.4227 0.4115 0.8597
C13 C -0.1076(3) 0.0091(2) 0.7092(3)
H6 H -0.1320 -0.0427 0.7320
C14 C 0.5705(3) 0.1312(2) 0.7125(3)
C15 C 0.3385(3) 0.3025(2) 0.8448(3)
H7 H 0.3462 0.2876 0.9167
C16 C 0.1761(3) -0.0247(2) 0.8796(3)
C17 C -0.0325(3) 0.1619(2) 0.6426(3)
H8 H -0.0063 0.2131 0.6197
C18 C 0.5976(3) 0.1249(2) 0.9303(3)
H9 H 0.6065 0.1229 1.0045
C19 C 0.6708(3) 0.1469(2) 0.7631(4)
H10 H 0.7294 0.1594 0.7233
C20 C -0.0796(3) 0.1056(2) 0.5692(3)
H11 H -0.0855 0.1197 0.4971
C21 C 0.6841(3) 0.1441(2) 0.8721(4)
H12 H 0.7516 0.1552 0.9068
C22 C 0.3146(3) 0.3492(2) 0.6340(3)
H13 H 0.3058 0.3653 0.5626
C23 C 0.3716(3) 0.3990(2) 0.7057(3)
H14 H 0.4025 0.4486 0.6829
C24 C 0.3058(3) -0.0412(2) 0.7348(3)
C25 C 0.1248(4) -0.1103(2) 0.8680(3)
H15 H 0.0824 -0.1209 0.9279
H16 H 0.1804 -0.1522 0.8657
H17 H 0.0787 -0.1124 0.8032
C26 C 0.3094(4) -0.1339(2) 0.7114(4)
H18 H 0.3623 -0.1446 0.6606
H19 H 0.2394 -0.1523 0.6825
H20 H 0.3289 -0.1640 0.7763
C27 C -0.1700(3) -0.0334(3) 0.5213(3)
H21 H -0.1701 -0.0101 0.4507
H22 H -0.2433 -0.0443 0.5381
H23 H -0.1296 -0.0850 0.5243
N1 N 0.15347(19) 0.17667(15) 0.88162(17)
H24 H 0.1672 0.1612 0.9469
O2 O 0.3763(2) 0.00228(15) 0.67881(19)
O3 O 0.1576(2) 0.01742(15) 0.95826(19)
O4 O -0.02783(18) 0.20937(15) 0.93660(18)
loop_
_geom_bond_atom_site_label_1
_geom_bond_atom_site_label_2
_geom_bond_site_symmetry_1
_geom_bond_site_symmetry_2
S1 O1 1_555 1_555
Cl1 C14 1_555 1_555
C1 C3 1_555 1_555
C2 H1 1_555 1_555
C3 C5 1_555 1_555
C4 C2 1_555 1_555
C5 C2 1_555 1_555
C6 H2 1_555 1_555
C7 S1 1_555 1_555
C8 C13 1_555 1_555
C9 C5 1_555 1_555
C10 C4 1_555 1_555
H3 C10 1_555 1_555
C11 C1 1_555 1_555
H4 C11 1_555 1_555
C12 H5 1_555 1_555
C13 C6 1_555 1_555
H6 C13 1_555 1_555
C14 C4 1_555 1_555
C15 C1 1_555 1_555
H7 C15 1_555 1_555
C16 C9 1_555 1_555
C17 C7 1_555 1_555
H8 C17 1_555 1_555
C18 C10 1_555 1_555
H9 C18 1_555 1_555
C19 C14 1_555 1_555
H10 C19 1_555 1_555
C20 C8 1_555 1_555
H11 C20 1_555 1_555
C21 C18 1_555 1_555
H12 C21 1_555 1_555
C22 C11 1_555 1_555
H13 C22 1_555 1_555
C23 C12 1_555 1_555
H14 C23 1_555 1_555
C24 C9 1_555 1_555
C25 C16 1_555 1_555
H15 C25 1_555 1_555
H16 C25 1_555 1_555
H17 C25 1_555 1_555
C26 C24 1_555 1_555
H18 C26 1_555 1_555
H19 C26 1_555 1_555
H20 C26 1_555 1_555
C27 C8 1_555 1_555
H21 C27 1_555 1_555
H22 C27 1_555 1_555
H23 C27 1_555 1_555
N1 S1 1_555 1_555
H24 N1 1_555 1_555
O2 C2 1_555 1_555
O3 C16 1_555 1_555
O4 S1 1_555 1_555
C3 N1 1_555 1_555
C6 C7 1_555 1_555
C12 C15 1_555 1_555
C17 C20 1_555 1_555
C19 C21 1_555 1_555
C22 C23 1_555 1_555
C24 O2 1_555 1_555

#END
