
#######################################################################
#
#                 Cambridge Crystallographic Data Centre
#                                CCDC 
#
#######################################################################
#
# If this CIF has been generated from an entry in the Cambridge 
# Structural Database, then it will include bibliographic, chemical, 
# crystal, experimental, refinement or atomic coordinate data resulting 
# from the CCDC's data processing and validation procedures.
#
#######################################################################

data_HODYOQ
_chemical_formula_moiety         'C27 H24 Br1 N1 O4 S1'
_chemical_name_systematic        
N-((2,2-diacetyl-3-(4-bromophenyl)cyclopropyl)(phenyl)methylene)-4-methylbenzenesulfonamide
_symmetry_cell_setting           monoclinic
_symmetry_space_group_name_H-M   'P 21/c'
_symmetry_Int_Tables_number      14
_space_group_name_Hall           '-P 2ybc'
loop_
_symmetry_equiv_pos_site_id
_symmetry_equiv_pos_as_xyz
1 x,y,z
2 -x,1/2+y,1/2-z
3 -x,-y,-z
4 x,1/2-y,1/2+z
_cell_length_a                   13.4626(15)
_cell_length_b                   18.211(2)
_cell_length_c                   20.886(3)
_cell_angle_alpha                90
_cell_angle_beta                 98.786(9)
_cell_angle_gamma                90
_cell_volume                     5060.48
_exptl_crystal_colour            colorless
_exptl_crystal_description       prism
_cell_formula_units_Z            8
loop_
_atom_site_label
_atom_site_type_symbol
_atom_site_fract_x
_atom_site_fract_y
_atom_site_fract_z
Br1 Br 0.23811(2) 0.306271(18) 0.377517(18)
N1 N 0.95040(14) 0.28544(11) 0.46221(10)
O1 O 0.92920(13) 0.33618(12) 0.57499(9)
O2 O 0.94465(14) 0.20280(11) 0.55643(10)
O3 O 0.65501(17) 0.45295(12) 0.55518(11)
O4 O 0.87199(15) 0.45538(10) 0.43694(11)
S1 S 0.97137(5) 0.27714(5) 0.54238(4)
C1 C 1.4227(2) 0.3109(2) 0.57850(16)
H1 H 1.4403 0.3611 0.5886
H2 H 1.4452 0.2974 0.5387
H3 H 1.4543 0.2797 0.6128
C2 C 1.3098(2) 0.3020(2) 0.57144(14)
C3 C 1.2650(2) 0.2351(2) 0.55713(15)
H4 H 1.3053 0.1945 0.5527
C4 C 1.1620(2) 0.22590(17) 0.54904(14)
H5 H 1.1335 0.1799 0.5394
C5 C 1.10257(18) 0.28582(16) 0.55551(12)
C6 C 1.1452(2) 0.35343(17) 0.57085(14)
H6 H 1.1050 0.3938 0.5763
C7 C 1.2484(2) 0.36050(19) 0.57809(15)
H7 H 1.2770 0.4064 0.5878
C8 C 0.86583(18) 0.30511(13) 0.42890(13)
C9 C 0.86283(19) 0.30379(14) 0.35781(13)
C10 C 0.9483(2) 0.32303(16) 0.33177(16)
H8 H 1.0047 0.3403 0.3588
C11 C 0.9502(2) 0.31667(18) 0.26626(17)
H9 H 1.0074 0.3304 0.2492
C12 C 0.8673(3) 0.28988(19) 0.22581(16)
H10 H 0.8692 0.2843 0.1818
C13 C 0.7822(2) 0.27158(17) 0.25097(17)
H11 H 0.7260 0.2541 0.2238
C14 C 0.7795(2) 0.27909(14) 0.31655(14)
H12 H 0.7211 0.2674 0.3330
C15 C 0.77092(16) 0.32072(13) 0.45582(12)
H13 H 0.7437 0.2781 0.4759
C16 C 0.69286(17) 0.37117(13) 0.42245(12)
H14 H 0.7134 0.3970 0.3854
C17 C 0.75274(18) 0.39385(13) 0.48811(13)
C18 C 0.8324(2) 0.45144(15) 0.48507(16)
C19 C 0.8619(2) 0.50155(16) 0.54253(15)
H15 H 0.9133 0.5348 0.5334
H16 H 0.8870 0.4727 0.5800
H17 H 0.8043 0.5289 0.5507
C20 C 0.6853(2) 0.33004(16) 0.58463(14)
H18 H 0.6455 0.3419 0.6176
H19 H 0.7508 0.3142 0.6045
H20 H 0.6532 0.2914 0.5578
C21 C 0.6951(2) 0.39541(17) 0.54457(15)
C22 C 0.58279(17) 0.35400(14) 0.41421(12)
C23 C 0.51339(19) 0.41046(14) 0.40601(14)
H21 H 0.5356 0.4589 0.4078
C24 C 0.4113(2) 0.39592(16) 0.39519(14)
H22 H 0.3655 0.4344 0.3896
C25 C 0.37800(18) 0.32490(16) 0.39264(13)
C26 C 0.44492(19) 0.26821(15) 0.40071(14)
H23 H 0.4222 0.2199 0.3990
C27 C 0.54659(18) 0.28313(14) 0.41138(13)
H24 H 0.5919 0.2443 0.4168
Br2 Br 2.26539(2) 0.41949(2) 0.92714(2)
N2 N 1.55099(14) 0.39918(12) 0.83963(11)
O5 O 1.57429(14) 0.46756(14) 0.73423(10)
O6 O 1.55557(15) 0.33247(14) 0.73691(11)
O7 O 1.85490(17) 0.57102(15) 0.76331(12)
O8 O 1.63052(15) 0.56097(11) 0.87881(12)
S2 S 1.53087(5) 0.40351(6) 0.75942(4)
C28 C 1.0810(2) 0.4464(3) 0.72438(19)
H25 H 1.0486 0.3999 0.7277
H26 H 1.0583 0.4676 0.6826
H27 H 1.0648 0.4788 0.7576
C29 C 1.1942(2) 0.4353(3) 0.73278(17)
C30 C 1.2574(3) 0.4934(2) 0.72989(17)
H28 H 1.2305 0.5403 0.7227
C31 C 1.3601(2) 0.4842(2) 0.73742(16)
H29 H 1.4021 0.5243 0.7351
C32 C 1.39973(19) 0.41502(19) 0.74834(13)
C33 C 1.3380(2) 0.35599(19) 0.75098(15)
H30 H 1.3645 0.3090 0.7578
C34 C 1.2350(2) 0.3674(2) 0.74335(16)
H31 H 1.1926 0.3275 0.7455
C35 C 1.63486(17) 0.41350(13) 0.87547(14)
C36 C 1.63539(18) 0.40292(13) 0.94557(13)
C37 C 1.54671(19) 0.41473(14) 0.97097(16)
H32 H 1.4901 0.4324 0.9443
C38 C 1.5424(2) 0.40048(16) 1.03493(17)
H33 H 1.4832 0.4091 1.0515
C39 C 1.6253(3) 0.37348(15) 1.07468(15)
H34 H 1.6218 0.3637 1.1180
C40 C 1.7131(2) 0.36089(14) 1.05055(16)
H35 H 1.7688 0.3421 1.0773
C41 C 1.71827(18) 0.37619(13) 0.98643(14)
H36 H 1.7782 0.3685 0.9704
C42 C 1.73098(16) 0.43183(14) 0.85087(12)
H37 H 1.7576 0.3914 0.8276
C43 C 1.81033(17) 0.47819(13) 0.88865(12)
H38 H 1.7899 0.5003 0.9274
C44 C 1.75189(19) 0.50755(15) 0.82485(13)
C45 C 1.6762(2) 0.56620(16) 0.83372(17)
C46 C 1.6597(3) 0.62975(17) 0.78712(17)
H39 H 1.6095 0.6619 0.7997
H40 H 1.6374 0.6116 0.7442
H41 H 1.7215 0.6562 0.7878
C47 C 1.8105(2) 0.5139(2) 0.76891(16)
C48 C 1.8156(2) 0.4517(2) 0.72391(16)
H42 H 1.8564 0.4652 0.6919
H43 H 1.7491 0.4396 0.7030
H44 H 1.8447 0.4098 0.7477
C49 C 1.92000(18) 0.46132(15) 0.89578(12)
C50 C 1.9878(2) 0.51848(16) 0.90873(15)
H45 H 1.9645 0.5663 0.9114
C51 C 2.0896(2) 0.50507(18) 0.91774(15)
H46 H 2.1346 0.5438 0.9267
C52 C 2.12496(18) 0.43561(18) 0.91359(14)
C53 C 2.0596(2) 0.37836(16) 0.89993(15)
H47 H 2.0835 0.3308 0.8966
C54 C 1.95697(19) 0.39211(16) 0.89105(14)
H48 H 1.9124 0.3532 0.8816
loop_
_geom_bond_atom_site_label_1
_geom_bond_atom_site_label_2
_geom_bond_site_symmetry_1
_geom_bond_site_symmetry_2
Br1 C25 1_555 1_555
N1 S1 1_555 1_555
O1 S1 1_555 1_555
O2 S1 1_555 1_555
O3 C21 1_555 1_555
O4 C18 1_555 1_555
S1 C5 1_555 1_555
C1 H1 1_555 1_555
H2 C1 1_555 1_555
H3 C1 1_555 1_555
C2 C1 1_555 1_555
C3 C2 1_555 1_555
H4 C3 1_555 1_555
C4 C3 1_555 1_555
H5 C4 1_555 1_555
C5 C4 1_555 1_555
C6 C5 1_555 1_555
H6 C6 1_555 1_555
C7 C2 1_555 1_555
H7 C7 1_555 1_555
C8 N1 1_555 1_555
C9 C8 1_555 1_555
C10 C9 1_555 1_555
H8 C10 1_555 1_555
C11 C10 1_555 1_555
H9 C11 1_555 1_555
C12 C11 1_555 1_555
H10 C12 1_555 1_555
C13 C12 1_555 1_555
H11 C13 1_555 1_555
C14 C9 1_555 1_555
H12 C14 1_555 1_555
C15 C8 1_555 1_555
H13 C15 1_555 1_555
C16 C15 1_555 1_555
H14 C16 1_555 1_555
C17 C15 1_555 1_555
C18 C17 1_555 1_555
C19 C18 1_555 1_555
H15 C19 1_555 1_555
H16 C19 1_555 1_555
H17 C19 1_555 1_555
C20 H18 1_555 1_555
H19 C20 1_555 1_555
H20 C20 1_555 1_555
C21 C17 1_555 1_555
C22 C16 1_555 1_555
C23 C22 1_555 1_555
H21 C23 1_555 1_555
C24 C23 1_555 1_555
H22 C24 1_555 1_555
C25 C24 1_555 1_555
C26 C25 1_555 1_555
H23 C26 1_555 1_555
C27 C22 1_555 1_555
H24 C27 1_555 1_555
Br2 C52 1_555 1_555
N2 S2 1_555 1_555
O5 S2 1_555 1_555
O6 S2 1_555 1_555
O7 C47 1_555 1_555
O8 C45 1_555 1_555
S2 C32 1_555 1_555
C28 H25 1_555 1_555
H26 C28 1_555 1_555
H27 C28 1_555 1_555
C29 C28 1_555 1_555
C30 C29 1_555 1_555
H28 C30 1_555 1_555
C31 C30 1_555 1_555
H29 C31 1_555 1_555
C32 C31 1_555 1_555
C33 C32 1_555 1_555
H30 C33 1_555 1_555
C34 C29 1_555 1_555
H31 C34 1_555 1_555
C35 N2 1_555 1_555
C36 C35 1_555 1_555
C37 C36 1_555 1_555
H32 C37 1_555 1_555
C38 C37 1_555 1_555
H33 C38 1_555 1_555
C39 C38 1_555 1_555
H34 C39 1_555 1_555
C40 C39 1_555 1_555
H35 C40 1_555 1_555
C41 C36 1_555 1_555
H36 C41 1_555 1_555
C42 C35 1_555 1_555
H37 C42 1_555 1_555
C43 C42 1_555 1_555
H38 C43 1_555 1_555
C44 C42 1_555 1_555
C45 C44 1_555 1_555
C46 C45 1_555 1_555
H39 C46 1_555 1_555
H40 C46 1_555 1_555
H41 C46 1_555 1_555
C47 C44 1_555 1_555
C48 C47 1_555 1_555
H42 C48 1_555 1_555
H43 C48 1_555 1_555
H44 C48 1_555 1_555
C49 C43 1_555 1_555
C50 C49 1_555 1_555
H45 C50 1_555 1_555
C51 C50 1_555 1_555
H46 C51 1_555 1_555
C52 C51 1_555 1_555
C53 C52 1_555 1_555
H47 C53 1_555 1_555
C54 C49 1_555 1_555
H48 C54 1_555 1_555
C6 C7 1_555 1_555
C13 C14 1_555 1_555
C16 C17 1_555 1_555
C20 C21 1_555 1_555
C26 C27 1_555 1_555
C33 C34 1_555 1_555
C40 C41 1_555 1_555
C43 C44 1_555 1_555
C53 C54 1_555 1_555

#END
