
#######################################################################
#
#                 Cambridge Crystallographic Data Centre
#                                CCDC 
#
#######################################################################
#
# If this CIF has been generated from an entry in the Cambridge 
# Structural Database, then it will include bibliographic, chemical, 
# crystal, experimental, refinement or atomic coordinate data resulting 
# from the CCDC's data processing and validation procedures.
#
#######################################################################

data_HOFHAM
_chemical_formula_moiety         'C9 H14 O3'
_chemical_name_systematic        
5,5-bis(hydroxymethyl)-3-methylcyclohex-2-enone
_symmetry_cell_setting           triclinic
_symmetry_space_group_name_H-M   'P -1'
_symmetry_Int_Tables_number      2
_space_group_name_Hall           '-P 1'
loop_
_symmetry_equiv_pos_site_id
_symmetry_equiv_pos_as_xyz
1 x,y,z
2 -x,-y,-z
_cell_length_a                   5.9791(3)
_cell_length_b                   6.22510(10)
_cell_length_c                   13.7493(8)
_cell_angle_alpha                90.8104(17)
_cell_angle_beta                 91.3285(12)
_cell_angle_gamma                117.0728(15)
_cell_volume                     455.384
_exptl_crystal_colour            colorless
_exptl_crystal_description       chunk
_cell_formula_units_Z            2
_exptl_crystal_recrystallization_method 'dichloromethane/petroleum ether'
loop_
_atom_site_label
_atom_site_type_symbol
_atom_site_fract_x
_atom_site_fract_y
_atom_site_fract_z
O1 O 1.1756(3) 1.1069(3) 0.16817(14)
O2 O 0.8610(2) 0.5583(3) 0.38179(12)
O3 O 0.3183(3) 0.5928(4) 0.43726(12)
C1 C 0.6300(3) 0.7646(4) 0.31049(14)
C2 C 0.4284(4) 0.7285(4) 0.23242(14)
C3 C 0.5141(4) 0.7644(4) 0.13114(16)
C4 C 0.7599(4) 0.8911(4) 0.11129(17)
C5 C 0.9546(4) 1.0036(4) 0.18614(18)
C6 C 0.8686(4) 0.9901(4) 0.29092(17)
C7 C 0.3125(5) 0.6558(5) 0.05324(18)
C8 C 0.6772(4) 0.5422(4) 0.31014(16)
C9 C 0.5370(4) 0.7935(5) 0.41112(17)
H1 H 0.8057 0.9066 0.0466
H2 H 0.2949 0.5649 0.2365
H3 H 0.3628 0.8418 0.2467
H4 H 1.0013 0.9953 0.3343
H5 H 0.8404 1.1291 0.3044
H6 H 0.3875 0.6827 -0.0093
H7 H 0.2024 0.7294 0.0564
H8 H 0.2183 0.4855 0.0626
H9 H 0.5204 0.4012 0.3225
H10 H 0.7344 0.5243 0.2465
H11 H 0.6684 0.8209 0.4596
H12 H 0.5042 0.9324 0.4103
H13 H 0.7736 0.4867 0.4357
H14 H 0.1888 0.6149 0.4049
loop_
_geom_bond_atom_site_label_1
_geom_bond_atom_site_label_2
_geom_bond_site_symmetry_1
_geom_bond_site_symmetry_2
O1 C5 1_555 1_555
O2 C8 1_555 1_555
O3 C9 1_555 1_555
C1 C2 1_555 1_555
C2 C3 1_555 1_555
C3 C4 1_555 1_555
C4 C5 1_555 1_555
C5 C6 1_555 1_555
C6 C1 1_555 1_555
C7 C3 1_555 1_555
C8 C1 1_555 1_555
C9 C1 1_555 1_555
H1 C4 1_555 1_555
H2 C2 1_555 1_555
H3 C2 1_555 1_555
H4 C6 1_555 1_555
H5 C6 1_555 1_555
H6 C7 1_555 1_555
H7 C7 1_555 1_555
H8 C7 1_555 1_555
H9 C8 1_555 1_555
H10 C8 1_555 1_555
H11 C9 1_555 1_555
H12 C9 1_555 1_555
H13 O2 1_555 1_555
H14 O3 1_555 1_555

#END
