
#######################################################################
#
#                 Cambridge Crystallographic Data Centre
#                                CCDC 
#
#######################################################################
#
# If this CIF has been generated from an entry in the Cambridge 
# Structural Database, then it will include bibliographic, chemical, 
# crystal, experimental, refinement or atomic coordinate data resulting 
# from the CCDC's data processing and validation procedures.
#
#######################################################################

data_HOFJUH
_chemical_name_common            "7-Deaza-2'-deoxyisoguanosine monohydrate"
_chemical_formula_moiety         'C11 H14 N4 O4,H2 O1'
_chemical_name_systematic        
'4-Amino-7-(2-deoxy-\b-D-erythro-pentofuranosyl)-3,7-dihydro-2H-pyrrolo(2,3-d)pyrimidin-2-one monohydrate'
_symmetry_cell_setting           orthorhombic
_symmetry_space_group_name_H-M   'P 21 21 21'
_symmetry_Int_Tables_number      19
_space_group_name_Hall           'P 2ac 2ab'
loop_
_symmetry_equiv_pos_site_id
_symmetry_equiv_pos_as_xyz
1 x,y,z
2 1/2-x,-y,1/2+z
3 -x,1/2+y,1/2-z
4 1/2+x,1/2-y,-z
_cell_length_a                   6.8040(8)
_cell_length_b                   10.0373(10)
_cell_length_c                   18.682(2)
_cell_angle_alpha                90
_cell_angle_beta                 90
_cell_angle_gamma                90
_cell_volume                     1275.86
_exptl_crystal_colour            colorless
_exptl_crystal_description       needle
_cell_formula_units_Z            4
_exptl_crystal_recrystallization_method water/isopropanol
loop_
_atom_site_label
_atom_site_type_symbol
_atom_site_fract_x
_atom_site_fract_y
_atom_site_fract_z
N1 N 0.1571(4) 0.7402(2) 0.62184(12)
H1 H 0.1585 0.6887 0.6586
C1 C 0.1465(4) 0.8774(3) 0.63418(14)
O1 O 0.1363(4) 0.9139(2) 0.69849(10)
N2 N 0.1472(4) 0.9617(2) 0.57884(11)
C2 C 0.1551(4) 0.9040(2) 0.51358(13)
C3 C 0.1615(4) 0.7676(2) 0.49790(14)
C4 C 0.1654(4) 0.6820(2) 0.55672(14)
N3 N 0.1750(4) 0.5496(2) 0.55312(13)
H2 H 0.1758 0.5030 0.5918
H3 H 0.1804 0.5107 0.5122
C5 C 0.1644(5) 0.7544(3) 0.42148(14)
H4 H 0.1677 0.6751 0.3957
C6 C 0.1613(5) 0.8788(3) 0.39405(14)
H5 H 0.1623 0.8998 0.3456
N4 N 0.1565(4) 0.9713(2) 0.45014(11)
C7 C 0.1564(4) 1.1148(2) 0.44234(13)
H6 H 0.1583 1.1563 0.4898
C8 C 0.3217(4) 1.1721(3) 0.39720(17)
H7 H 0.4411 1.1824 0.4251
H8 H 0.3488 1.1162 0.3560
C9 C 0.2399(4) 1.3062(3) 0.37462(15)
H9 H 0.2841 1.3295 0.3263
O2 O 0.2867(4) 1.4096(2) 0.42411(13)
H10 H 0.4057 1.4226 0.4240
C10 C 0.0170(4) 1.2857(3) 0.37629(15)
H11 H -0.0423 1.3523 0.4080
O3 O -0.0174(3) 1.1545(2) 0.40521(12)
C11 C -0.0791(5) 1.2940(3) 0.30336(17)
H12 H -0.0211 1.2286 0.2715
H13 H -0.2184 1.2750 0.3075
O4 O -0.0517(4) 1.4248(2) 0.27475(11)
H14 H -0.1484 1.4706 0.2837
O5 O 0.1743(4) 0.5144(2) 0.71494(11)
H15 H 0.279(4) 0.516(4) 0.7403(17)
H16 H 0.086(4) 0.483(4) 0.7425(17)
loop_
_geom_bond_atom_site_label_1
_geom_bond_atom_site_label_2
_geom_bond_site_symmetry_1
_geom_bond_site_symmetry_2
N1 H1 1_555 1_555
C1 N1 1_555 1_555
O1 C1 1_555 1_555
N2 C1 1_555 1_555
C2 N2 1_555 1_555
C3 C2 1_555 1_555
C4 N1 1_555 1_555
N3 C4 1_555 1_555
H2 N3 1_555 1_555
H3 N3 1_555 1_555
C5 C3 1_555 1_555
H4 C5 1_555 1_555
C6 C5 1_555 1_555
H5 C6 1_555 1_555
N4 C2 1_555 1_555
C7 N4 1_555 1_555
H6 C7 1_555 1_555
C8 C7 1_555 1_555
H7 C8 1_555 1_555
H8 C8 1_555 1_555
C9 C8 1_555 1_555
H9 C9 1_555 1_555
O2 C9 1_555 1_555
H10 O2 1_555 1_555
C10 C9 1_555 1_555
H11 C10 1_555 1_555
O3 C7 1_555 1_555
C11 C10 1_555 1_555
H12 C11 1_555 1_555
H13 C11 1_555 1_555
O4 C11 1_555 1_555
H14 O4 1_555 1_555
O5 H15 1_555 1_555
H16 O5 1_555 1_555
C3 C4 1_555 1_555
C6 N4 1_555 1_555
C10 O3 1_555 1_555

#END
