
#######################################################################
#
#                 Cambridge Crystallographic Data Centre
#                                CCDC 
#
#######################################################################
#
# If this CIF has been generated from an entry in the Cambridge 
# Structural Database, then it will include bibliographic, chemical, 
# crystal, experimental, refinement or atomic coordinate data resulting 
# from the CCDC's data processing and validation procedures.
#
#######################################################################

data_HOFJOC
_chemical_formula_moiety         'C10 H8 O2,C3 H4 N2'
_chemical_name_systematic        'Naphthalene-2,3-diol imidazole'
_symmetry_cell_setting           orthorhombic
_symmetry_space_group_name_H-M   'P b c a'
_symmetry_Int_Tables_number      61
_space_group_name_Hall           '-P 2ac 2ab'
loop_
_symmetry_equiv_pos_site_id
_symmetry_equiv_pos_as_xyz
1 x,y,z
2 1/2-x,-y,1/2+z
3 -x,1/2+y,1/2-z
4 1/2+x,1/2-y,-z
5 -x,-y,-z
6 1/2+x,y,1/2-z
7 x,1/2-y,1/2+z
8 1/2-x,1/2+y,z
_cell_length_a                   12.0003(17)
_cell_length_b                   7.7862(11)
_cell_length_c                   25.863(4)
_cell_angle_alpha                90
_cell_angle_beta                 90
_cell_angle_gamma                90
_cell_volume                     2416.55
_exptl_crystal_colour            yellow
_exptl_crystal_description       Column
_cell_formula_units_Z            8
_exptl_crystal_recrystallization_method methanol/water
loop_
_atom_site_label
_atom_site_type_symbol
_atom_site_fract_x
_atom_site_fract_y
_atom_site_fract_z
O1 O 0.75477(8) 0.63170(13) 0.59205(4)
H1 H 0.8003(12) 0.7228(17) 0.5918(7)
O2 O 0.60386(7) 0.39458(12) 0.57667(4)
H2 H 0.5427(12) 0.333(2) 0.5673(8)
C1 C 0.63552(11) 0.78573(16) 0.65109(5)
H3 H 0.6909 0.8665 0.6575
C2 C 0.65645(10) 0.65273(15) 0.61825(4)
C3 C 0.57423(10) 0.52524(15) 0.60887(4)
C4 C 0.47199(11) 0.54089(16) 0.63144(5)
H4 H 0.4176 0.4587 0.6247
C5 C 0.44700(11) 0.67966(17) 0.66483(5)
C6 C 0.34112(12) 0.6975(2) 0.68858(6)
H5 H 0.2849 0.6194 0.6809
C7 C 0.32087(14) 0.8271(2) 0.72241(6)
H6 H 0.2514 0.8359 0.7381
C8 C 0.40329(16) 0.9469(2) 0.73374(6)
H7 H 0.3886 1.0345 0.7572
C9 C 0.50538(14) 0.9372(2) 0.71078(5)
H8 H 0.5592 1.0195 0.7183
C10 C 0.53038(11) 0.80258(16) 0.67555(4)
C11 C 0.40496(13) 0.1697(2) 0.50288(5)
H9 H 0.4295 0.2319 0.4744
C12 C 0.31524(16) -0.0138(3) 0.54918(7)
H10 H 0.2671 -0.1007 0.5597
C13 C 0.38620(14) 0.0743(2) 0.57906(6)
H11 H 0.3955 0.0583 0.6144
N1 N 0.44264(9) 0.19072(14) 0.54994(4)
N2 N 0.32741(12) 0.0486(2) 0.50092(5)
H12 H 0.2928(17) 0.018(3) 0.4716(6)
loop_
_geom_bond_atom_site_label_1
_geom_bond_atom_site_label_2
_geom_bond_site_symmetry_1
_geom_bond_site_symmetry_2
O1 H1 1_555 1_555
O2 H2 1_555 1_555
C1 H3 1_555 1_555
C2 O1 1_555 1_555
C3 O2 1_555 1_555
C4 C3 1_555 1_555
H4 C4 1_555 1_555
C5 C4 1_555 1_555
C6 C5 1_555 1_555
H5 C6 1_555 1_555
C7 C6 1_555 1_555
H6 C7 1_555 1_555
C8 C7 1_555 1_555
H7 C8 1_555 1_555
C9 C8 1_555 1_555
H8 C9 1_555 1_555
C10 C1 1_555 1_555
C11 H9 1_555 1_555
C12 H10 1_555 1_555
C13 C12 1_555 1_555
H11 C13 1_555 1_555
N1 C11 1_555 1_555
N2 C11 1_555 1_555
H12 N2 1_555 1_555
C1 C2 1_555 1_555
C2 C3 1_555 1_555
C5 C10 1_555 1_555
C9 C10 1_555 1_555
C12 N2 1_555 1_555
C13 N1 1_555 1_555

#END
