
#######################################################################
#
#                 Cambridge Crystallographic Data Centre
#                                CCDC 
#
#######################################################################
#
# If this CIF has been generated from an entry in the Cambridge 
# Structural Database, then it will include bibliographic, chemical, 
# crystal, experimental, refinement or atomic coordinate data resulting 
# from the CCDC's data processing and validation procedures.
#
#######################################################################

data_HOFMAR
_chemical_formula_moiety         'C20 H32 N2 O1 S1'
_chemical_name_systematic        
6-Cyclohexylmethyl-2-cyclohexylsulfanyl-5-isopropylpyrimidin-4(3H)-one
_chemical_properties_biological  'anti-HIV-1 activity'
_symmetry_cell_setting           triclinic
_symmetry_space_group_name_H-M   'P -1'
_symmetry_Int_Tables_number      2
_space_group_name_Hall           '-P 1'
loop_
_symmetry_equiv_pos_site_id
_symmetry_equiv_pos_as_xyz
1 x,y,z
2 -x,-y,-z
_cell_length_a                   9.9549(16)
_cell_length_b                   10.9542(17)
_cell_length_c                   12.1054(19)
_cell_angle_alpha                63.250(2)
_cell_angle_beta                 69.195(2)
_cell_angle_gamma                63.033(2)
_cell_volume                     1031.52
_exptl_crystal_colour            colorless
_exptl_crystal_description       block
_cell_formula_units_Z            2
_exptl_crystal_recrystallization_method 'ethyl acetate/petroleum ether'
loop_
_atom_site_label
_atom_site_type_symbol
_atom_site_fract_x
_atom_site_fract_y
_atom_site_fract_z
S1 S 0.33860(11) 0.15552(12) 0.30395(9)
O1 O -0.1114(3) 0.0731(3) 0.6134(2)
N1 N 0.1985(3) 0.2729(3) 0.4863(2)
N2 N 0.0978(3) 0.1230(3) 0.4780(2)
H1 H 0.1069 0.0683 0.4405
C1 C -0.0217(4) 0.1378(4) 0.5792(3)
C2 C 0.2013(4) 0.1900(4) 0.4349(3)
C3 C 0.0816(3) 0.2939(3) 0.5876(3)
C4 C -0.0283(4) 0.2320(4) 0.6356(3)
C5 C -0.1620(4) 0.2617(4) 0.7421(4)
H2 H -0.1477 0.3255 0.7702
C6 C 0.0877(4) 0.3902(4) 0.6429(3)
H3 H -0.0149 0.4592 0.6585
H4 H 0.1521 0.4456 0.5817
C7 C 0.4652(4) 0.2481(4) 0.2780(3)
H5 H 0.4021 0.3453 0.2833
C8 C 0.1495(4) 0.3055(4) 0.7659(3)
H6 H 0.0998 0.2329 0.8188
C9 C 0.5566(5) 0.2656(5) 0.1449(4)
H7 H 0.4871 0.3252 0.0857
H8 H 0.6106 0.1706 0.1356
C10 C 0.5698(4) 0.1675(4) 0.3730(4)
H9 H 0.6276 0.0684 0.3734
H10 H 0.5087 0.1628 0.4566
C11 C 0.3203(4) 0.2241(4) 0.7442(4)
H11 H 0.3720 0.2930 0.6876
H12 H 0.3431 0.1559 0.7039
C12 C 0.1092(5) 0.4041(5) 0.8375(4)
H13 H 0.1537 0.4795 0.7857
H14 H -0.0014 0.4514 0.8545
C13 C 0.3361(5) 0.2395(5) 0.9399(4)
H15 H 0.3673 0.1805 1.0210
H16 H 0.3898 0.3084 0.8947
C14 C 0.6803(5) 0.2449(5) 0.3405(4)
H17 H 0.6225 0.3418 0.3455
H18 H 0.7477 0.1910 0.4013
C15 C 0.6718(6) 0.3368(6) 0.1148(4)
H19 H 0.7343 0.3389 0.0320
H20 H 0.6168 0.4369 0.1124
C16 C 0.1662(5) 0.3218(6) 0.9600(4)
H21 H 0.1430 0.3900 1.0003
H22 H 0.1131 0.2538 1.0158
C17 C 0.3812(5) 0.1413(5) 0.8657(4)
H23 H 0.4922 0.0985 0.8466
H24 H 0.3415 0.0624 0.9170
C18 C 0.7749(5) 0.2569(6) 0.2104(6)
H25 H 0.8383 0.1600 0.2068
H26 H 0.8420 0.3090 0.1908
C19 C -0.1652(6) 0.1229(6) 0.8561(4)
H27 H -0.1853 0.0600 0.8335
H28 H -0.2446 0.1483 0.9239
H29 H -0.0679 0.0732 0.8823
C20 C -0.3132(4) 0.3452(5) 0.6950(5)
H30 H -0.3070 0.4320 0.6245
H31 H -0.3949 0.3714 0.7613
H32 H -0.3330 0.2846 0.6694
loop_
_geom_bond_atom_site_label_1
_geom_bond_atom_site_label_2
_geom_bond_site_symmetry_1
_geom_bond_site_symmetry_2
S1 C2 1_555 1_555
O1 C1 1_555 1_555
N1 C2 1_555 1_555
N2 H1 1_555 1_555
C1 N2 1_555 1_555
C2 N2 1_555 1_555
C3 N1 1_555 1_555
C4 C1 1_555 1_555
C5 C4 1_555 1_555
H2 C5 1_555 1_555
C6 C3 1_555 1_555
H3 C6 1_555 1_555
H4 C6 1_555 1_555
C7 S1 1_555 1_555
H5 C7 1_555 1_555
C8 C6 1_555 1_555
H6 C8 1_555 1_555
C9 C7 1_555 1_555
H7 C9 1_555 1_555
H8 C9 1_555 1_555
C10 C7 1_555 1_555
H9 C10 1_555 1_555
H10 C10 1_555 1_555
C11 C8 1_555 1_555
H11 C11 1_555 1_555
H12 C11 1_555 1_555
C12 C8 1_555 1_555
H13 C12 1_555 1_555
H14 C12 1_555 1_555
C13 H15 1_555 1_555
H16 C13 1_555 1_555
C14 C10 1_555 1_555
H17 C14 1_555 1_555
H18 C14 1_555 1_555
C15 C9 1_555 1_555
H19 C15 1_555 1_555
H20 C15 1_555 1_555
C16 C12 1_555 1_555
H21 C16 1_555 1_555
H22 C16 1_555 1_555
C17 C11 1_555 1_555
H23 C17 1_555 1_555
H24 C17 1_555 1_555
C18 C14 1_555 1_555
H25 C18 1_555 1_555
H26 C18 1_555 1_555
C19 C5 1_555 1_555
H27 C19 1_555 1_555
H28 C19 1_555 1_555
H29 C19 1_555 1_555
C20 C5 1_555 1_555
H30 C20 1_555 1_555
H31 C20 1_555 1_555
H32 C20 1_555 1_555
C3 C4 1_555 1_555
C13 C16 1_555 1_555
C13 C17 1_555 1_555
C15 C18 1_555 1_555

#END
