
#######################################################################
#
#                 Cambridge Crystallographic Data Centre
#                                CCDC 
#
#######################################################################
#
# If this CIF has been generated from an entry in the Cambridge 
# Structural Database, then it will include bibliographic, chemical, 
# crystal, experimental, refinement or atomic coordinate data resulting 
# from the CCDC's data processing and validation procedures.
#
#######################################################################

data_HOFVED
_chemical_formula_moiety         'C12 H6 Se8'
_chemical_name_systematic        Bitetraselenafulvalene
_symmetry_cell_setting           triclinic
_symmetry_space_group_name_H-M   'P 1'
_symmetry_Int_Tables_number      1
_space_group_name_Hall           'P 1'
loop_
_symmetry_equiv_pos_site_id
_symmetry_equiv_pos_as_xyz
1 x,y,z
_cell_length_a                   10.249(1)
_cell_length_b                   15.559(2)
_cell_length_c                   8.759(1)
_cell_angle_alpha                100.46(1)
_cell_angle_beta                 105.07(1)
_cell_angle_gamma                72.550(9)
_cell_volume                     1278.48
_exptl_crystal_colour            orange
_exptl_crystal_description       needle
_cell_formula_units_Z            3
loop_
_atom_site_label
_atom_site_type_symbol
_atom_site_fract_x
_atom_site_fract_y
_atom_site_fract_z
Se1 Se 0.771(10) 0.436(6) 0.29(1)
Se2 Se 0.540(10) 0.565(6) 0.04(1)
Se3 Se 0.928(10) 0.608(6) 0.44(1)
Se4 Se 0.690(10) 0.737(6) 0.20(1)
Se5 Se 0.468(10) 0.261(6) 0.03(1)
Se6 Se 0.702(10) 0.131(6) 0.27(1)
Se7 Se 0.319(10) 0.082(6) -0.12(1)
Se8 Se 0.555(10) -0.041(6) 0.12(1)
C1 C 0.60(1) 0.401(6) 0.20(1)
C2 C 0.49(1) 0.463(6) 0.08(1)
C3 C 0.71(1) 0.551(6) 0.21(1)
C4 C 0.77(1) 0.626(6) 0.27(1)
C5 C 0.89(1) 0.734(6) 0.49(1)
C6 C 0.79(1) 0.780(6) 0.38(1)
C7 C 0.60(1) 0.321(6) 0.20(1)
C8 C 0.70(1) 0.250(6) 0.30(1)
C9 C 0.54(1) 0.140(6) 0.10(1)
C10 C 0.49(1) 0.083(6) 0.06(1)
C11 C 0.28(1) -0.007(6) -0.06(1)
C12 C 0.37(1) -0.057(6) 0.05(1)
H1 H 0.4255 0.4490 0.0393
H2 H 0.9628 0.7554 0.5897
H3 H 0.7934 0.8392 0.4154
H4 H 0.7888 0.2644 0.3871
H5 H 0.2165 -0.0272 -0.0922
H6 H 0.3731 -0.1072 0.0967
Se9 Se 0.055(10) 0.467(6) 0.07(1)
Se10 Se -0.182(10) 0.595(6) -0.17(1)
Se11 Se 0.200(10) 0.645(6) 0.23(1)
Se12 Se -0.039(10) 0.770(6) -0.01(1)
Se13 Se -0.252(10) 0.293(6) -0.17(1)
Se14 Se -0.014(10) 0.164(6) 0.06(1)
Se15 Se -0.408(10) 0.122(6) -0.32(1)
Se16 Se -0.173(10) -0.009(6) -0.09(1)
C13 C -0.08(1) 0.426(6) -0.07(1)
C14 C -0.17(1) 0.469(6) -0.19(1)
C15 C -0.02(1) 0.580(6) 0.00(1)
C16 C 0.04(1) 0.660(6) 0.09(1)
C17 C 0.24(1) 0.751(6) 0.17(1)
C18 C 0.14(1) 0.801(6) 0.07(1)
C19 C -0.08(1) 0.325(6) -0.05(1)
C20 C 0.00(1) 0.275(6) 0.02(1)
C21 C -0.18(1) 0.179(6) -0.10(1)
C22 C -0.23(1) 0.118(6) -0.16(1)
C23 C -0.39(1) -0.006(6) -0.35(1)
C24 C -0.29(1) -0.067(6) -0.26(1)
H7 H -0.2093 0.4368 -0.2633
H8 H 0.3535 0.7561 0.2144
H9 H 0.1704 0.8478 0.0491
H10 H 0.1106 0.2868 0.0760
H11 H -0.4357 -0.0340 -0.4299
H12 H -0.2629 -0.1342 -0.2663
Se17 Se 0.400(10) 0.451(6) 0.53(1)
Se18 Se 0.214(10) 0.581(6) 0.77(1)
Se19 Se 0.532(10) 0.626(6) 0.51(1)
Se20 Se 0.353(10) 0.752(6) 0.76(1)
Se21 Se 0.131(10) 0.273(6) 0.59(1)
Se22 Se 0.306(10) 0.147(6) 0.35(1)
Se23 Se -0.008(10) 0.103(6) 0.60(1)
Se24 Se 0.172(10) -0.026(6) 0.36(1)
C25 C 0.28(1) 0.406(6) 0.59(1)
C26 C 0.19(1) 0.464(6) 0.68(1)
C27 C 0.36(1) 0.565(6) 0.64(1)
C28 C 0.40(1) 0.639(6) 0.64(1)
C29 C 0.54(1) 0.750(6) 0.56(1)
C30 C 0.46(1) 0.806(6) 0.66(1)
C31 C 0.27(1) 0.315(6) 0.52(1)
C32 C 0.33(1) 0.263(6) 0.42(1)
C33 C 0.19(1) 0.155(6) 0.48(1)
C34 C 0.13(1) 0.092(6) 0.48(1)
C35 C -0.02(1) -0.014(6) 0.53(1)
C36 C 0.06(1) -0.065(6) 0.44(1)
H13 H 0.1388 0.4399 0.7127
H14 H 0.6126 0.7629 0.5144
H15 H 0.4859 0.8628 0.6940
H16 H 0.4058 0.2787 0.3833
H17 H -0.0583 -0.0458 0.5748
H18 H 0.0796 -0.1320 0.4175
loop_
_geom_bond_atom_site_label_1
_geom_bond_atom_site_label_2
_geom_bond_site_symmetry_1
_geom_bond_site_symmetry_2
Se1 C1 1_555 1_555
Se2 C2 1_555 1_555
Se3 C4 1_555 1_555
Se4 C4 1_555 1_555
Se5 C7 1_555 1_555
Se6 C8 1_555 1_555
Se7 C10 1_555 1_555
Se8 C10 1_555 1_555
Se9 C13 1_555 1_555
Se10 C14 1_555 1_555
Se11 C16 1_555 1_555
Se12 C16 1_555 1_555
Se13 C19 1_555 1_555
Se14 C20 1_555 1_555
Se15 C22 1_555 1_555
Se16 C22 1_555 1_555
Se17 C25 1_555 1_555
Se18 C26 1_555 1_555
Se19 C28 1_555 1_555
Se20 C28 1_555 1_555
Se21 C31 1_555 1_555
Se22 C32 1_555 1_555
Se23 C34 1_555 1_555
Se24 C34 1_555 1_555
C1 C2 1_555 1_555
C2 H1 1_555 1_555
C3 Se1 1_555 1_555
C4 C3 1_555 1_555
C5 Se3 1_555 1_555
C6 Se4 1_555 1_555
C7 C1 1_555 1_555
C8 C7 1_555 1_555
C9 Se5 1_555 1_555
C10 C9 1_555 1_555
C11 Se7 1_555 1_555
C12 Se8 1_555 1_555
C13 C14 1_555 1_555
C14 H7 1_555 1_555
C15 Se9 1_555 1_555
C16 C15 1_555 1_555
C17 Se11 1_555 1_555
C18 Se12 1_555 1_555
C19 C13 1_555 1_555
C20 C19 1_555 1_555
C21 Se13 1_555 1_555
C22 C21 1_555 1_555
C23 Se15 1_555 1_555
C24 Se16 1_555 1_555
C25 C26 1_555 1_555
C26 H13 1_555 1_555
C27 Se17 1_555 1_555
C28 C27 1_555 1_555
C29 Se19 1_555 1_555
C30 Se20 1_555 1_555
C31 C25 1_555 1_555
C32 C31 1_555 1_555
C33 Se21 1_555 1_555
C34 C33 1_555 1_555
C35 Se23 1_555 1_555
C36 Se24 1_555 1_555
H2 C5 1_555 1_555
H3 C6 1_555 1_555
H4 C8 1_555 1_555
H5 C11 1_555 1_555
H6 C12 1_555 1_555
H8 C17 1_555 1_555
H9 C18 1_555 1_555
H10 C20 1_555 1_555
H11 C23 1_555 1_555
H12 C24 1_555 1_555
H14 C29 1_555 1_555
H15 C30 1_555 1_555
H16 C32 1_555 1_555
H17 C35 1_555 1_555
H18 C36 1_555 1_555
Se2 C3 1_555 1_555
Se6 C9 1_555 1_555
Se10 C15 1_555 1_555
Se14 C21 1_555 1_555
Se18 C27 1_555 1_555
Se22 C33 1_555 1_555
C5 C6 1_555 1_555
C11 C12 1_555 1_555
C17 C18 1_555 1_555
C23 C24 1_555 1_555
C29 C30 1_555 1_555
C35 C36 1_555 1_555

#END
