
#######################################################################
#
#                 Cambridge Crystallographic Data Centre
#                                CCDC 
#
#######################################################################
#
# If this CIF has been generated from an entry in the Cambridge 
# Structural Database, then it will include bibliographic, chemical, 
# crystal, experimental, refinement or atomic coordinate data resulting 
# from the CCDC's data processing and validation procedures.
#
#######################################################################

data_HOFWAB01
_chemical_formula_moiety         'C16 H6 N6'
_chemical_name_systematic        
1,4,8,9-tetraazatriphenylene-2,3-dicarbonitrile
_symmetry_cell_setting           orthorhombic
_symmetry_space_group_name_H-M   'P n m a'
_symmetry_Int_Tables_number      62
_space_group_name_Hall           '-P 2ac 2n'
loop_
_symmetry_equiv_pos_site_id
_symmetry_equiv_pos_as_xyz
1 x,y,z
2 1/2-x,-y,1/2+z
3 -x,1/2+y,-z
4 1/2+x,1/2-y,1/2-z
5 -x,-y,-z
6 1/2+x,y,1/2-z
7 x,1/2-y,z
8 1/2-x,1/2+y,1/2+z
_cell_length_a                   14.1055(13)
_cell_length_b                   16.3331(14)
_cell_length_c                   5.2694(4)
_cell_angle_alpha                90
_cell_angle_beta                 90
_cell_angle_gamma                90
_cell_volume                     1214
_exptl_crystal_colour            yellow
_exptl_crystal_description       block
_cell_formula_units_Z            4
loop_
_atom_site_label
_atom_site_type_symbol
_atom_site_fract_x
_atom_site_fract_y
_atom_site_fract_z
N1 N 0.56932(11) 0.33317(10) -0.1078(3)
N2 N 0.77953(11) 0.33585(9) 0.6140(3)
N3 N 0.92249(13) 0.37680(13) 1.1146(4)
C1 C 0.61818(12) 0.29508(11) 0.0786(3)
C2 C 0.67134(12) 0.33802(11) 0.2603(3)
C3 C 0.67273(13) 0.42373(12) 0.2476(4)
H1 H 0.7060 0.4542 0.3673
C4 C 0.62440(14) 0.46176(13) 0.0564(4)
H2 H 0.6249 0.5185 0.0422
C5 C 0.57451(13) 0.41428(12) -0.1161(4)
H3 H 0.5426 0.4410 -0.2463
C6 C 0.72648(12) 0.29328(11) 0.4470(3)
C7 C 0.83106(12) 0.29288(12) 0.7773(4)
C8 C 0.88437(14) 0.33918(13) 0.9640(4)
N1F N 0.56932(11) 0.16683(10) -0.1078(3)
N2F N 0.77953(11) 0.16415(9) 0.6140(3)
N3F N 0.92249(13) 0.12320(13) 1.1146(4)
C1F C 0.61818(12) 0.20492(11) 0.0786(3)
C2F C 0.67134(12) 0.16198(11) 0.2603(3)
C3F C 0.67273(13) 0.07627(12) 0.2476(4)
H1F H 0.7060 0.0458 0.3673
C4F C 0.62440(14) 0.03824(13) 0.0564(4)
H2F H 0.6249 -0.0185 0.0422
C5F C 0.57451(13) 0.08572(12) -0.1161(4)
H3F H 0.5426 0.0590 -0.2463
C6F C 0.72648(12) 0.20672(11) 0.4470(3)
C7F C 0.83106(12) 0.20712(12) 0.7773(4)
C8F C 0.88437(14) 0.16082(13) 0.9640(4)
loop_
_geom_bond_atom_site_label_1
_geom_bond_atom_site_label_2
_geom_bond_site_symmetry_1
_geom_bond_site_symmetry_2
N1 C1 1_555 1_555
N2 C6 1_555 1_555
N3 C8 1_555 1_555
C1 C2 1_555 1_555
C2 C3 1_555 1_555
C3 H1 1_555 1_555
C4 C3 1_555 1_555
H2 C4 1_555 1_555
C5 N1 1_555 1_555
H3 C5 1_555 1_555
C6 C2 1_555 1_555
C7 N2 1_555 1_555
C8 C7 1_555 1_555
N1F C1F 1_555 1_555
N2F C6F 1_555 1_555
N3F C8F 1_555 1_555
C1F C1 1_555 1_555
C2F C1F 1_555 1_555
C3F C2F 1_555 1_555
H1F C3F 1_555 1_555
C4F C3F 1_555 1_555
H2F C4F 1_555 1_555
C5F N1F 1_555 1_555
H3F C5F 1_555 1_555
C6F C6 1_555 1_555
C7F C7 1_555 1_555
C8F C7F 1_555 1_555
C4 C5 1_555 1_555
N2F C7F 1_555 1_555
C2F C6F 1_555 1_555
C4F C5F 1_555 1_555

#END
