
#######################################################################
#
#                 Cambridge Crystallographic Data Centre
#                                CCDC 
#
#######################################################################
#
# If this CIF has been generated from an entry in the Cambridge 
# Structural Database, then it will include bibliographic, chemical, 
# crystal, experimental, refinement or atomic coordinate data resulting 
# from the CCDC's data processing and validation procedures.
#
#######################################################################

data_HOGDOX
_chemical_formula_moiety         'C20 H22 N4 O6'
_chemical_name_systematic        
"(R,R)-2-(3'-(1-Methoxycarbonyl-ethylcarbamoyl)-(4,4')-bipyridinyl-3-carbonyl)-amino-propionic acid methyl ester"
_symmetry_cell_setting           orthorhombic
_symmetry_space_group_name_H-M   'P 21 21 21'
_symmetry_Int_Tables_number      19
_space_group_name_Hall           'P 2ac 2ab'
loop_
_symmetry_equiv_pos_site_id
_symmetry_equiv_pos_as_xyz
1 x,y,z
2 1/2-x,-y,1/2+z
3 -x,1/2+y,1/2-z
4 1/2+x,1/2-y,-z
_cell_length_a                   8.732(1)
_cell_length_b                   11.123(1)
_cell_length_c                   21.076(2)
_cell_angle_alpha                90
_cell_angle_beta                 90
_cell_angle_gamma                90
_cell_volume                     2047.03
_exptl_crystal_colour            colorless
_exptl_crystal_description       rods
_cell_formula_units_Z            4
loop_
_atom_site_label
_atom_site_type_symbol
_atom_site_fract_x
_atom_site_fract_y
_atom_site_fract_z
C1 C 0.70645(18) 0.56321(15) 0.43140(8)
C2 C 0.81987(19) 0.59601(15) 0.38827(8)
C3 C 0.8971(2) 0.70439(16) 0.39774(9)
H1 H 0.9757 0.7258 0.3687
N1 N 0.86628(18) 0.77966(14) 0.44560(7)
C4 C 0.7567(2) 0.74706(16) 0.48584(8)
H2 H 0.7326 0.8002 0.5197
C5 C 0.6753(2) 0.64018(16) 0.48155(8)
H3 H 0.5999 0.6202 0.5123
C6 C 0.84535(19) 0.52488(15) 0.32912(8)
O1 O 0.73490(14) 0.49856(12) 0.29514(6)
N2 N 0.98917(17) 0.49382(14) 0.31547(7)
H4 H 1.063(2) 0.5143(19) 0.3413(9)
C7 C 1.0278(2) 0.44404(15) 0.25392(8)
H5 H 0.9494 0.3821 0.2427
C8 C 1.1847(2) 0.38391(16) 0.25508(9)
H6 H 1.1856 0.3207 0.2875
H7 H 1.2632 0.4440 0.2650
H8 H 1.2060 0.3484 0.2135
C9 C 1.0224(2) 0.54339(16) 0.20431(9)
O2 O 1.0000(2) 0.64753(13) 0.21527(7)
O3 O 1.04901(16) 0.49905(12) 0.14698(6)
C10 C 1.0289(3) 0.5801(2) 0.09496(10)
H9 H 1.0855 0.6545 0.1033
H10 H 0.9198 0.5984 0.0899
H11 H 1.0677 0.5428 0.0560
C11 C 0.6267(2) 0.44432(15) 0.42880(8)
C12 C 0.4765(2) 0.42951(15) 0.40802(8)
C13 C 0.4083(2) 0.31683(16) 0.41505(9)
H12 H 0.3056 0.3077 0.4011
N3 N 0.4774(2) 0.22130(14) 0.44001(8)
C14 C 0.6212(2) 0.23689(17) 0.45908(10)
H13 H 0.6733 0.1698 0.4768
C15 C 0.6997(2) 0.34478(16) 0.45479(9)
H14 H 0.8024 0.3507 0.4694
C16 C 0.3804(2) 0.52712(15) 0.37932(8)
O4 O 0.24714(14) 0.54217(11) 0.39794(6)
N4 N 0.44450(17) 0.58989(13) 0.33294(7)
H15 H 0.5379(19) 0.5732(18) 0.3193(9)
C17 C 0.3624(2) 0.68817(16) 0.30189(9)
H16 H 0.2536 0.6625 0.2960
C18 C 0.4303(2) 0.71250(18) 0.23672(9)
H17 H 0.4280 0.6385 0.2115
H18 H 0.5364 0.7398 0.2414
H19 H 0.3701 0.7748 0.2153
C19 C 0.3628(2) 0.80115(16) 0.34229(9)
O5 O 0.24988(18) 0.85744(13) 0.35491(7)
O6 O 0.50395(17) 0.82967(12) 0.36057(8)
C20 C 0.5160(3) 0.93975(19) 0.39724(12)
H20 H 0.4711 0.9273 0.4393
H21 H 0.4610 1.0044 0.3754
H22 H 0.6241 0.9619 0.4018
loop_
_geom_bond_atom_site_label_1
_geom_bond_atom_site_label_2
_geom_bond_site_symmetry_1
_geom_bond_site_symmetry_2
C1 C2 1_555 1_555
C2 C3 1_555 1_555
C3 H1 1_555 1_555
N1 C3 1_555 1_555
C4 N1 1_555 1_555
H2 C4 1_555 1_555
C5 C1 1_555 1_555
H3 C5 1_555 1_555
C6 C2 1_555 1_555
O1 C6 1_555 1_555
N2 C6 1_555 1_555
H4 N2 1_555 1_555
C7 N2 1_555 1_555
H5 C7 1_555 1_555
C8 C7 1_555 1_555
H6 C8 1_555 1_555
H7 C8 1_555 1_555
H8 C8 1_555 1_555
C9 C7 1_555 1_555
O2 C9 1_555 1_555
O3 C9 1_555 1_555
C10 O3 1_555 1_555
H9 C10 1_555 1_555
H10 C10 1_555 1_555
H11 C10 1_555 1_555
C11 C1 1_555 1_555
C12 C11 1_555 1_555
C13 C12 1_555 1_555
H12 C13 1_555 1_555
N3 C13 1_555 1_555
C14 N3 1_555 1_555
H13 C14 1_555 1_555
C15 C11 1_555 1_555
H14 C15 1_555 1_555
C16 C12 1_555 1_555
O4 C16 1_555 1_555
N4 C16 1_555 1_555
H15 N4 1_555 1_555
C17 N4 1_555 1_555
H16 C17 1_555 1_555
C18 C17 1_555 1_555
H17 C18 1_555 1_555
H18 C18 1_555 1_555
H19 C18 1_555 1_555
C19 C17 1_555 1_555
O5 C19 1_555 1_555
O6 C19 1_555 1_555
C20 O6 1_555 1_555
H20 C20 1_555 1_555
H21 C20 1_555 1_555
H22 C20 1_555 1_555
C4 C5 1_555 1_555
C14 C15 1_555 1_555

#END
