
#######################################################################
#
#                 Cambridge Crystallographic Data Centre
#                                CCDC 
#
#######################################################################
#
# If this CIF has been generated from an entry in the Cambridge 
# Structural Database, then it will include bibliographic, chemical, 
# crystal, experimental, refinement or atomic coordinate data resulting 
# from the CCDC's data processing and validation procedures.
#
#######################################################################

data_HOGGAN01
_chemical_formula_moiety         'C6 H10 O4,C6 H6 N2 O1'
_chemical_name_systematic        'pyridine-2-carboxamide adipic acid'
_symmetry_cell_setting           monoclinic
_symmetry_space_group_name_H-M   'P 21/c'
_symmetry_Int_Tables_number      14
_space_group_name_Hall           '-P 2ybc'
loop_
_symmetry_equiv_pos_site_id
_symmetry_equiv_pos_as_xyz
1 x,y,z
2 -x,1/2+y,1/2-z
3 -x,-y,-z
4 x,1/2-y,1/2+z
_cell_length_a                   7.0440(14)
_cell_length_b                   20.723(4)
_cell_length_c                   9.3027(19)
_cell_angle_alpha                90
_cell_angle_beta                 104.51(3)
_cell_angle_gamma                90
_cell_volume                     1314.63
_cell_formula_units_Z            4
loop_
_atom_site_label
_atom_site_type_symbol
_atom_site_fract_x
_atom_site_fract_y
_atom_site_fract_z
O1 O 0.6573(3) -0.10410(8) 0.5996(2)
O2 O 0.9134(3) -0.04290(8) 0.5981(2)
H1 H 0.9396 -0.0728 0.5485
O3 O 0.0311(3) 0.10207(9) 0.9863(3)
H2 H 0.0103 0.1357 1.0262
O4 O 0.2581(3) 0.16220(9) 0.9248(2)
C1 C 0.7460(4) -0.05420(11) 0.6295(3)
C2 C 0.6768(4) 0.00269(11) 0.7017(3)
H3 H 0.6629 0.0390 0.6342
H4 H 0.7779 0.0137 0.7899
C3 C 0.4858(4) -0.00567(11) 0.7458(3)
H5 H 0.5004 -0.0397 0.8194
H6 H 0.3841 -0.0186 0.6596
C4 C 0.4244(4) 0.05638(11) 0.8090(3)
H7 H 0.5290 0.0699 0.8928
H8 H 0.4073 0.0899 0.7340
C5 C 0.2371(4) 0.05008(11) 0.8591(3)
H9 H 0.1315 0.0380 0.7745
H10 H 0.2526 0.0156 0.9316
C6 C 0.1809(4) 0.11040(12) 0.9258(3)
O5 O 0.9618(3) 0.12795(8) 0.5624(2)
N1 N 0.8892(3) 0.29470(9) 0.6188(2)
N2 N 1.1313(3) 0.21230(9) 0.5088(2)
H11 H 1.2051 0.1879 0.4710
H12 H 1.1480 0.2534 0.5112
C7 C 0.9929(4) 0.18666(11) 0.5627(3)
C8 C 0.8653(3) 0.23057(11) 0.6266(3)
C9 C 0.7292(4) 0.20345(12) 0.6908(3)
H13 H 0.7174 0.1588 0.6944
C10 C 0.6095(4) 0.24263(13) 0.7503(3)
H14 H 0.5158 0.2249 0.7936
C11 C 0.6321(4) 0.30830(12) 0.7440(3)
H15 H 0.5550 0.3362 0.7836
C12 C 0.7717(4) 0.33175(12) 0.6775(3)
H16 H 0.7856 0.3763 0.6730
loop_
_geom_bond_atom_site_label_1
_geom_bond_atom_site_label_2
_geom_bond_site_symmetry_1
_geom_bond_site_symmetry_2
O1 C1 1_555 1_555
O2 H1 1_555 1_555
O3 H2 1_555 1_555
O4 C6 1_555 1_555
C1 O2 1_555 1_555
C2 C1 1_555 1_555
H3 C2 1_555 1_555
H4 C2 1_555 1_555
C3 C2 1_555 1_555
H5 C3 1_555 1_555
H6 C3 1_555 1_555
C4 C3 1_555 1_555
H7 C4 1_555 1_555
H8 C4 1_555 1_555
C5 C4 1_555 1_555
H9 C5 1_555 1_555
H10 C5 1_555 1_555
C6 O3 1_555 1_555
O5 C7 1_555 1_555
N1 C8 1_555 1_555
N2 H11 1_555 1_555
H12 N2 1_555 1_555
C7 N2 1_555 1_555
C8 C7 1_555 1_555
C9 C8 1_555 1_555
H13 C9 1_555 1_555
C10 C9 1_555 1_555
H14 C10 1_555 1_555
C11 C10 1_555 1_555
H15 C11 1_555 1_555
C12 N1 1_555 1_555
H16 C12 1_555 1_555
C5 C6 1_555 1_555
C11 C12 1_555 1_555

#END
