
#######################################################################
#
#                 Cambridge Crystallographic Data Centre
#                                CCDC 
#
#######################################################################
#
# If this CIF has been generated from an entry in the Cambridge 
# Structural Database, then it will include bibliographic, chemical, 
# crystal, experimental, refinement or atomic coordinate data resulting 
# from the CCDC's data processing and validation procedures.
#
#######################################################################

data_HOGROM
_chemical_formula_moiety         'C34 H22 S4,C26 H14 N2 O4,C6 H5 Cl1'
_chemical_name_systematic        
'2,13-Diphenyl-23,24,25,26-tetrathiapentacyclo[18.2.1.1^3,6^.1^9,12^.1^14,17^]hexacosa-1,3,5,7,9,11,13,15,17,19,21-undecaene 2,7-diphenylbenzo[lmn][3,8]phenanthroline-1,3,6,8(2H,7H)-tetrone chlorobenzene solvate'
_symmetry_cell_setting           monoclinic
_symmetry_space_group_name_H-M   'C 2/c'
_symmetry_Int_Tables_number      15
_space_group_name_Hall           '-C 2yn'
loop_
_symmetry_equiv_pos_site_id
_symmetry_equiv_pos_as_xyz
1 x,y,z
2 -x,y,1/2-z
3 1/2+x,1/2+y,z
4 1/2-x,1/2+y,1/2-z
5 -x,-y,-z
6 x,-y,1/2+z
7 1/2-x,1/2-y,-z
8 1/2+x,1/2-y,1/2+z
_cell_length_a                   18.570(4)
_cell_length_b                   8.6164(17)
_cell_length_c                   33.009(7)
_cell_angle_alpha                90
_cell_angle_beta                 102.42(3)
_cell_angle_gamma                90
_cell_volume                     5158.05
_exptl_crystal_colour            black
_exptl_crystal_description       plate
_cell_formula_units_Z            4
loop_
_atom_site_label
_atom_site_type_symbol
_atom_site_fract_x
_atom_site_fract_y
_atom_site_fract_z
Cl1 Cl 0.5000 -0.2016(14) 0.2500
C1 C 0.5000 0.3156(8) 0.2500
H1 H 0.5000 0.4259 0.2500
C2 C 0.4900(2) 0.2360(5) 0.28481(12)
H2 H 0.4832 0.2914 0.3086
C3 C 0.4900(2) 0.0774(5) 0.28488(11)
H3 H 0.4833 0.0213 0.3086
C4 C 0.5000 0.0007(7) 0.2500
C2A C 0.5100(2) 0.2360(5) 0.21519(12)
H2A H 0.5168 0.2914 0.1914
C3A C 0.5100(2) 0.0774(5) 0.21512(11)
H3A H 0.5167 0.0213 0.1914
S1 S 0.27785(5) 1.03528(11) 0.47431(3)
S2 S 0.28676(5) 1.16293(11) 0.56362(3)
C5 C 0.24162(18) 1.0870(4) 0.38797(12)
C6 C 0.27391(18) 0.9929(4) 0.42173(12)
C7 C 0.30807(19) 0.8473(4) 0.41946(13)
H4 H 0.3124 0.8015 0.3939
C8 C 0.33416(18) 0.7781(4) 0.45675(13)
H5 H 0.3582 0.6802 0.4592
C9 C 0.32297(17) 0.8616(4) 0.49127(12)
C10 C 0.34530(17) 0.8060(4) 0.53228(13)
H6 H 0.3651 0.7042 0.5329
C11 C 0.34617(18) 0.8596(4) 0.57178(13)
H7 H 0.3636 0.7831 0.5922
C12 C 0.32780(18) 0.9986(4) 0.58948(12)
C13 C 0.3420(2) 1.0252(5) 0.63224(13)
H8 H 0.3641 0.9497 0.6520
C14 C 0.32142(19) 1.1696(5) 0.64336(13)
H9 H 0.3289 1.2027 0.6714
C15 C 0.28832(18) 1.2641(4) 0.60976(12)
C16 C 0.24113(19) 1.0230(4) 0.34578(12)
C17 C 0.2944(2) 1.0646(5) 0.32404(13)
H10 H 0.3315 1.1372 0.3359
C18 C 0.2944(2) 1.0020(6) 0.28547(14)
H11 H 0.3309 1.0333 0.2709
C19 C 0.2422(2) 0.8956(6) 0.26814(14)
H12 H 0.2425 0.8526 0.2417
C20 C 0.1890(3) 0.8508(6) 0.28946(15)
H13 H 0.1530 0.7757 0.2778
C21 C 0.1882(2) 0.9155(6) 0.32779(15)
H14 H 0.1510 0.8858 0.3420
S1F S 0.22215(5) 1.46472(11) 0.52569(3)
S2F S 0.21324(5) 1.33707(11) 0.43638(3)
C5F C 0.25838(18) 1.4130(4) 0.61203(12)
C6F C 0.22609(18) 1.5071(4) 0.57827(12)
C7F C 0.19193(19) 1.6527(4) 0.58054(13)
H4F H 0.1876 1.6985 0.6061
C8F C 0.16584(18) 1.7219(4) 0.54325(13)
H5F H 0.1418 1.8198 0.5408
C9F C 0.17703(17) 1.6384(4) 0.50873(12)
C10F C 0.15470(17) 1.6940(4) 0.46772(13)
H6F H 0.1349 1.7958 0.4671
C11F C 0.15383(18) 1.6404(4) 0.42822(13)
H7F H 0.1364 1.7169 0.4078
C12F C 0.17220(18) 1.5014(4) 0.41052(12)
C13F C 0.1580(2) 1.4748(5) 0.36776(13)
H8F H 0.1359 1.5503 0.3480
C14F C 0.17858(19) 1.3304(5) 0.35664(13)
H9F H 0.1711 1.2973 0.3286
C15F C 0.21168(18) 1.2359(4) 0.39024(12)
C16F C 0.25887(19) 1.4770(4) 0.65422(12)
C17F C 0.2056(2) 1.4354(5) 0.67596(13)
H10F H 0.1685 1.3628 0.6641
C18F C 0.2056(2) 1.4980(6) 0.71453(14)
H11F H 0.1691 1.4667 0.7291
C19F C 0.2578(2) 1.6044(6) 0.73186(14)
H12F H 0.2575 1.6474 0.7583
C20F C 0.3110(3) 1.6492(6) 0.71054(15)
H13F H 0.3470 1.7243 0.7222
C21F C 0.3118(2) 1.5845(6) 0.67221(15)
H14F H 0.3490 1.6142 0.6580
O1 O 0.42629(13) 0.4562(3) 0.47265(7)
O2 O 0.47254(14) 0.1229(3) 0.37466(7)
N1 N 0.45513(14) 0.2926(3) 0.42439(8)
C22 C 0.44752(17) 0.3284(4) 0.46492(10)
C23 C 0.46812(16) 0.2054(4) 0.49643(10)
C24 C 0.48970(16) 0.0580(4) 0.48472(10)
C25 C 0.49058(16) 0.0234(4) 0.44297(10)
C26 C 0.47220(18) 0.1442(4) 0.41102(11)
C27 C 0.51171(18) -0.1216(4) 0.43237(10)
H15 H 0.5123 -0.1439 0.4043
C28 C 0.46770(17) 0.2366(4) 0.53735(10)
H16 H 0.4534 0.3364 0.5450
C29 C 0.44193(18) 0.4144(4) 0.39336(10)
C30 C 0.37072(19) 0.4574(4) 0.37549(11)
H17 H 0.3303 0.4108 0.3843
C31 C 0.3586(2) 0.5686(5) 0.34467(12)
H18 H 0.3096 0.5975 0.3319
C32 C 0.4174(2) 0.6382(5) 0.33226(11)
H19 H 0.4089 0.7149 0.3111
C33 C 0.4888(2) 0.5955(4) 0.35084(11)
H20 H 0.5294 0.6435 0.3425
C34 C 0.50099(19) 0.4838(4) 0.38134(10)
H21 H 0.5499 0.4544 0.3941
O1D O 0.57371(13) -0.4562(3) 0.52735(7)
O2D O 0.52746(14) -0.1229(3) 0.62534(7)
N1D N 0.54487(14) -0.2926(3) 0.57561(8)
C22D C 0.55248(17) -0.3284(4) 0.53508(10)
C23D C 0.53188(16) -0.2054(4) 0.50357(10)
C24D C 0.51030(16) -0.0580(4) 0.51528(10)
C25D C 0.50942(16) -0.0234(4) 0.55703(10)
C26D C 0.52780(18) -0.1442(4) 0.58898(11)
C27D C 0.48829(18) 0.1216(4) 0.56763(10)
H15D H 0.4877 0.1439 0.5957
C28D C 0.53230(17) -0.2366(4) 0.46265(10)
H16D H 0.5466 -0.3364 0.4550
C29D C 0.55807(18) -0.4144(4) 0.60664(10)
C30D C 0.62928(19) -0.4574(4) 0.62451(11)
H17D H 0.6697 -0.4108 0.6157
C31D C 0.6414(2) -0.5686(5) 0.65533(12)
H18D H 0.6904 -0.5975 0.6681
C32D C 0.5826(2) -0.6382(5) 0.66774(11)
H19D H 0.5911 -0.7149 0.6889
C33D C 0.5112(2) -0.5955(4) 0.64916(11)
H20D H 0.4706 -0.6435 0.6575
C34D C 0.49901(19) -0.4838(4) 0.61866(10)
H21D H 0.4501 -0.4544 0.6059
Cl2? Cl 0.471(2) -0.1997(12) 0.2425(8)
loop_
_geom_bond_atom_site_label_1
_geom_bond_atom_site_label_2
_geom_bond_site_symmetry_1
_geom_bond_site_symmetry_2
Cl1 C4 1_555 1_555
C1 H1 1_555 1_555
C2 C1 1_555 1_555
H2 C2 1_555 1_555
C3 C2 1_555 1_555
H3 C3 1_555 1_555
C4 C3 1_555 1_555
S1 C6 1_555 1_555
S2 C12 1_555 1_555
C5 C6 1_555 1_555
C6 C7 1_555 1_555
C7 H4 1_555 1_555
C8 C7 1_555 1_555
H5 C8 1_555 1_555
C9 S1 1_555 1_555
C10 C9 1_555 1_555
H6 C10 1_555 1_555
C11 C10 1_555 1_555
H7 C11 1_555 1_555
C12 C11 1_555 1_555
C13 C12 1_555 1_555
H8 C13 1_555 1_555
C14 C13 1_555 1_555
H9 C14 1_555 1_555
C15 S2 1_555 1_555
C16 C5 1_555 1_555
C17 C16 1_555 1_555
H10 C17 1_555 1_555
C18 C17 1_555 1_555
H11 C18 1_555 1_555
C19 C18 1_555 1_555
H12 C19 1_555 1_555
C20 C19 1_555 1_555
H13 C20 1_555 1_555
C21 C16 1_555 1_555
H14 C21 1_555 1_555
O1 C22 1_555 1_555
O2 C26 1_555 1_555
N1 C22 1_555 1_555
C22 C23 1_555 1_555
C23 C24 1_555 1_555
C24 C25 1_555 1_555
C25 C26 1_555 1_555
C26 N1 1_555 1_555
C27 C25 1_555 1_555
H15 C27 1_555 1_555
C28 C23 1_555 1_555
H16 C28 1_555 1_555
C29 N1 1_555 1_555
C30 C29 1_555 1_555
H17 C30 1_555 1_555
C31 C30 1_555 1_555
H18 C31 1_555 1_555
C32 C31 1_555 1_555
H19 C32 1_555 1_555
C33 C32 1_555 1_555
H20 C33 1_555 1_555
C34 C29 1_555 1_555
H21 C34 1_555 1_555
C2A C1 1_555 1_555
H2A C2A 1_555 1_555
C3A C4 1_555 1_555
H3A C3A 1_555 1_555
S1F C6F 1_555 1_555
S2F C12F 1_555 1_555
C5F C15 1_555 1_555
C6F C5F 1_555 1_555
C7F C6F 1_555 1_555
H4F C7F 1_555 1_555
C8F C7F 1_555 1_555
H5F C8F 1_555 1_555
C9F S1F 1_555 1_555
C10F C9F 1_555 1_555
H6F C10F 1_555 1_555
C11F C10F 1_555 1_555
H7F C11F 1_555 1_555
C12F C11F 1_555 1_555
C13F C12F 1_555 1_555
H8F C13F 1_555 1_555
C14F C13F 1_555 1_555
H9F C14F 1_555 1_555
C15F C5 1_555 1_555
C16F C5F 1_555 1_555
C17F C16F 1_555 1_555
H10F C17F 1_555 1_555
C18F C17F 1_555 1_555
H11F C18F 1_555 1_555
C19F C18F 1_555 1_555
H12F C19F 1_555 1_555
C20F C19F 1_555 1_555
H13F C20F 1_555 1_555
C21F C16F 1_555 1_555
H14F C21F 1_555 1_555
O1D C22D 1_555 1_555
O2D C26D 1_555 1_555
N1D C22D 1_555 1_555
C22D C23D 1_555 1_555
C23D C24D 1_555 1_555
C24D C24 1_555 1_555
C25D C24D 1_555 1_555
C26D N1D 1_555 1_555
C27D C28 1_555 1_555
H15D C27D 1_555 1_555
C28D C27 1_555 1_555
H16D C28D 1_555 1_555
C29D N1D 1_555 1_555
C30D C29D 1_555 1_555
H17D C30D 1_555 1_555
C31D C30D 1_555 1_555
H18D C31D 1_555 1_555
C32D C31D 1_555 1_555
H19D C32D 1_555 1_555
C33D C32D 1_555 1_555
H20D C33D 1_555 1_555
C34D C29D 1_555 1_555
H21D C34D 1_555 1_555
C8 C9 1_555 1_555
C14 C15 1_555 1_555
C20 C21 1_555 1_555
C33 C34 1_555 1_555
C2A C3A 1_555 1_555
S2F C15F 1_555 1_555
C8F C9F 1_555 1_555
C14F C15F 1_555 1_555
C20F C21F 1_555 1_555
C23D C28D 1_555 1_555
C25D C26D 1_555 1_555
C25D C27D 1_555 1_555
C33D C34D 1_555 1_555

#END
