
#######################################################################
#
#                 Cambridge Crystallographic Data Centre
#                                CCDC 
#
#######################################################################
#
# If this CIF has been generated from an entry in the Cambridge 
# Structural Database, then it will include bibliographic, chemical, 
# crystal, experimental, refinement or atomic coordinate data resulting 
# from the CCDC's data processing and validation procedures.
#
#######################################################################

data_HOGWUX
_chemical_formula_moiety         'C17 H12 F3 N2 O3 1-,C8 H12 N1 O1 1+,C3 H8 O1'
_chemical_name_systematic        
'2-Hydroxy-2-phenylethanaminium 1-oxo-3-(pyridin-3-yl)-2-(2,2,2-trifluoroethyl)-1,2,3,4-tetrahydroisoquinoline-4-carboxylate isopropanol solvate'
_symmetry_cell_setting           monoclinic
_symmetry_space_group_name_H-M   'P 21'
_symmetry_Int_Tables_number      4
_space_group_name_Hall           'P 2yb'
loop_
_symmetry_equiv_pos_site_id
_symmetry_equiv_pos_as_xyz
1 x,y,z
2 -x,1/2+y,-z
_cell_length_a                   12.6288(6)
_cell_length_b                   9.4968(5)
_cell_length_c                   13.1535(7)
_cell_angle_alpha                90
_cell_angle_beta                 118.149(2)
_cell_angle_gamma                90
_cell_volume                     1390.96
_exptl_crystal_colour            colorless
_exptl_crystal_description       rod
_cell_formula_units_Z            2
loop_
_atom_site_label
_atom_site_type_symbol
_atom_site_fract_x
_atom_site_fract_y
_atom_site_fract_z
F1 F 0.37044(12) 0.64309(19) 0.14776(13)
F2 F 0.29066(13) 0.6549(2) -0.03709(12)
F3 F 0.31906(13) 0.84310(18) 0.06239(14)
O1 O 0.56558(14) 0.62878(18) 0.44232(14)
O2 O 0.56277(15) 0.86148(18) 0.42275(15)
O3 O 0.54566(14) 1.00827(17) 0.12641(14)
N1 N 0.58140(16) 0.7796(2) 0.18061(15)
N2 N 0.85288(19) 0.3939(2) 0.23576(18)
C1 C 0.76931(18) 0.8631(2) 0.39782(18)
C2 C 0.70555(19) 0.7267(2) 0.38802(18)
H1 H 0.7652 0.6569 0.4413
C3 C 0.6523(2) 0.6694(2) 0.26386(19)
H2 H 0.5955 0.5920 0.2567
C4 C 0.60738(19) 0.9193(3) 0.19856(19)
C5 C 0.71754(19) 0.9587(2) 0.30674(19)
C6 C 0.7702(2) 1.0891(2) 0.3126(2)
H3 H 0.7340 1.1535 0.2503
C7 C 0.8760(2) 1.1246(3) 0.4104(2)
H4 H 0.9122 1.2137 0.4150
C8 C 0.9287(2) 1.0303(3) 0.5009(2)
H5 H 1.0018 1.0543 0.5670
C9 C 0.87534(19) 0.9010(3) 0.49561(19)
H6 H 0.9111 0.8377 0.5589
C10 C 0.60280(19) 0.7420(3) 0.42148(18)
C11 C 0.7477(2) 0.6058(3) 0.23742(19)
C12 C 0.7698(2) 0.4619(3) 0.2532(2)
H7 H 0.7229 0.4081 0.2781
C13 C 0.9173(2) 0.4721(3) 0.2007(2)
H8 H 0.9764 0.4263 0.1872
C14 C 0.9033(2) 0.6152(3) 0.1831(2)
H9 H 0.9524 0.6664 0.1592
C15 C 0.8159(2) 0.6838(3) 0.2008(2)
H10 H 0.8034 0.7823 0.1880
C16 C 0.49001(19) 0.7326(3) 0.06726(19)
H11 H 0.5142 0.6404 0.0497
H12 H 0.4852 0.8007 0.0083
C17 C 0.3676(2) 0.7186(3) 0.0603(2)
O4 O 0.29138(15) 0.90132(19) 0.50723(15)
H13 H 0.334(3) 0.976(3) 0.526(2)
N3 N 0.39335(18) 0.6396(2) 0.51492(18)
H14 H 0.451(2) 0.648(3) 0.499(2)
H15 H 0.388(2) 0.541(3) 0.531(2)
H16 H 0.410(2) 0.696(3) 0.580(2)
C18 C 0.2809(2) 0.6866(3) 0.4136(2)
H17 H 0.2107 0.6575 0.4230
H18 H 0.2741 0.6420 0.3427
C19 C 0.2821(2) 0.8454(3) 0.4029(2)
H19 H 0.3550 0.8734 0.3965
C20 C 0.1713(2) 0.8964(3) 0.2964(2)
C21 C 0.0857(2) 0.9835(3) 0.3025(2)
H20 H 0.0946 1.0099 0.3758
C22 C -0.0124(2) 1.0321(3) 0.2032(2)
H21 H -0.0692 1.0928 0.2089
C23 C -0.0276(3) 0.9925(4) 0.0957(3)
H22 H -0.0952 1.0247 0.0276
C24 C 0.0560(3) 0.9062(4) 0.0889(3)
H23 H 0.0461 0.8791 0.0154
C25 C 0.1544(3) 0.8582(4) 0.1873(2)
H24 H 0.2112 0.7986 0.1806
O6 O 0.4957(4) 0.242(2) 0.243(2)
H33 H 0.5055 0.2108 0.1886
C29 C 0.3712(4) 0.2126(6) 0.2208(4)
H34 H 0.3669 0.1195 0.2543
C30 C 0.3399(10) 0.3301(8) 0.2788(8)
H35 H 0.3952 0.3286 0.3618
H36 H 0.2574 0.3177 0.2657
H37 H 0.3467 0.4206 0.2465
C31 C 0.2928(5) 0.2124(7) 0.0920(4)
H38 H 0.3173 0.1354 0.0580
H39 H 0.3015 0.3024 0.0602
H40 H 0.2088 0.1993 0.0740
O5? O 0.4977(9) 0.228(6) 0.245(5)
H25? H 0.5054 0.1574 0.2110
C26? C 0.3718(8) 0.2801(11) 0.1828(9)
H26? H 0.3576 0.3380 0.1140
C27? C 0.355(2) 0.366(2) 0.2708(19)
H27? H 0.4303 0.4126 0.3225
H28? H 0.3308 0.3032 0.3157
H29? H 0.2922 0.4364 0.2312
C28? C 0.2933(10) 0.1504(11) 0.1488(12)
H30? H 0.3113 0.0918 0.0976
H31? H 0.2087 0.1787 0.1087
H32? H 0.3089 0.0967 0.2181
loop_
_geom_bond_atom_site_label_1
_geom_bond_atom_site_label_2
_geom_bond_site_symmetry_1
_geom_bond_site_symmetry_2
F1 C17 1_555 1_555
F2 C17 1_555 1_555
F3 C17 1_555 1_555
O1 C10 1_555 1_555
O2 C10 1_555 1_555
O3 C4 1_555 1_555
N1 C3 1_555 1_555
N2 C12 1_555 1_555
C1 C2 1_555 1_555
C2 H1 1_555 1_555
C3 C2 1_555 1_555
H2 C3 1_555 1_555
C4 N1 1_555 1_555
C5 C1 1_555 1_555
C6 C5 1_555 1_555
H3 C6 1_555 1_555
C7 C6 1_555 1_555
H4 C7 1_555 1_555
C8 C7 1_555 1_555
H5 C8 1_555 1_555
C9 C1 1_555 1_555
H6 C9 1_555 1_555
C10 C2 1_555 1_555
C11 C3 1_555 1_555
C12 C11 1_555 1_555
H7 C12 1_555 1_555
C13 N2 1_555 1_555
H8 C13 1_555 1_555
C14 C13 1_555 1_555
H9 C14 1_555 1_555
C15 C11 1_555 1_555
H10 C15 1_555 1_555
C16 N1 1_555 1_555
H11 C16 1_555 1_555
H12 C16 1_555 1_555
C17 C16 1_555 1_555
O4 H13 1_555 1_555
N3 H14 1_555 1_555
H15 N3 1_555 1_555
H16 N3 1_555 1_555
C18 N3 1_555 1_555
H17 C18 1_555 1_555
H18 C18 1_555 1_555
C19 O4 1_555 1_555
H19 C19 1_555 1_555
C20 C19 1_555 1_555
C21 C20 1_555 1_555
H20 C21 1_555 1_555
C22 C21 1_555 1_555
H21 C22 1_555 1_555
C23 C22 1_555 1_555
H22 C23 1_555 1_555
C24 C23 1_555 1_555
H23 C24 1_555 1_555
C25 C20 1_555 1_555
H24 C25 1_555 1_555
O6 H33 1_555 1_555
C29 O6 1_555 1_555
H34 C29 1_555 1_555
C30 C29 1_555 1_555
H35 C30 1_555 1_555
H36 C30 1_555 1_555
H37 C30 1_555 1_555
C31 C29 1_555 1_555
H38 C31 1_555 1_555
H39 C31 1_555 1_555
H40 C31 1_555 1_555
C4 C5 1_555 1_555
C8 C9 1_555 1_555
C14 C15 1_555 1_555
C18 C19 1_555 1_555
C24 C25 1_555 1_555

#END
