
#######################################################################
#
#                 Cambridge Crystallographic Data Centre
#                                CCDC 
#
#######################################################################
#
# If this CIF has been generated from an entry in the Cambridge 
# Structural Database, then it will include bibliographic, chemical, 
# crystal, experimental, refinement or atomic coordinate data resulting 
# from the CCDC's data processing and validation procedures.
#
#######################################################################

data_HOGYAF
_chemical_formula_moiety         'C26 H22 N4 O2'
_chemical_name_systematic        
't-Butyl 2-(2-phenyl-2-(2,4,5-tricyanophenyl)ethyl)-1H-pyrrole-1-carboxylate'
_symmetry_cell_setting           triclinic
_symmetry_space_group_name_H-M   'P -1'
_symmetry_Int_Tables_number      2
_space_group_name_Hall           '-P 1'
loop_
_symmetry_equiv_pos_site_id
_symmetry_equiv_pos_as_xyz
1 x,y,z
2 -x,-y,-z
_cell_length_a                   9.5546(12)
_cell_length_b                   10.2791(13)
_cell_length_c                   12.0432(15)
_cell_angle_alpha                98.980(2)
_cell_angle_beta                 98.018(2)
_cell_angle_gamma                92.406(2)
_cell_volume                     1154.42
_cell_formula_units_Z            2
loop_
_atom_site_label
_atom_site_type_symbol
_atom_site_fract_x
_atom_site_fract_y
_atom_site_fract_z
C1 C 0.23468(18) 0.62070(17) 0.27384(14)
H1 H 0.2030 0.5488 0.2105
C2 C 0.31784(19) 0.55984(17) 0.37040(14)
H2 H 0.3423 0.6278 0.4367
H3 H 0.2572 0.4920 0.3907
C3 C 0.47592(19) 0.92222(17) 0.26705(14)
C4 C 0.52117(18) 0.89358(18) 0.16059(15)
C5 C 0.47204(19) 0.77637(18) 0.09072(15)
H4 H 0.5011 0.7558 0.0198
C6 C 0.37910(19) 0.68890(17) 0.12617(14)
C7 C 0.33163(17) 0.71636(16) 0.23184(13)
C8 C 0.38256(19) 0.83501(17) 0.30073(14)
H5 H 0.3530 0.8563 0.3713
C9 C 0.5260(2) 1.0414(2) 0.34437(16)
C10 C 0.6205(2) 0.98268(19) 0.12610(16)
C11 C 0.3328(2) 0.5661(2) 0.05216(16)
C12 C 0.10340(19) 0.68731(17) 0.30666(15)
C13 C 0.0961(2) 0.7517(2) 0.41445(18)
H6 H 0.1712 0.7510 0.4724
C14 C -0.0237(3) 0.8179(2) 0.4371(2)
H7 H -0.0275 0.8624 0.5100
C15 C -0.1353(3) 0.8178(2) 0.3532(3)
H8 H -0.2149 0.8623 0.3686
C16 C -0.1298(2) 0.7526(2) 0.2471(2)
H9 H -0.2063 0.7515 0.1900
C17 C -0.0117(2) 0.6879(2) 0.22382(19)
H10 H -0.0093 0.6436 0.1507
C18 C 0.44964(19) 0.50105(18) 0.33969(15)
C19 C 0.5837(2) 0.5564(2) 0.37125(17)
H11 H 0.6096 0.6352 0.4209
C20 C 0.6779(2) 0.4745(2) 0.31610(19)
H12 H 0.7755 0.4901 0.3234
C21 C 0.6007(2) 0.3702(2) 0.25146(18)
H13 H 0.6359 0.3009 0.2064
C22 C 0.3565(2) 0.2850(2) 0.21040(16)
C23 C 0.1037(2) 0.21924(19) 0.19466(19)
C24 C 0.1255(3) 0.0854(2) 0.2285(2)
H14 H 0.1922 0.0413 0.1856
H15 H 0.0369 0.0338 0.2134
H16 H 0.1614 0.0960 0.3081
C25 C -0.0078(2) 0.2876(2) 0.2547(2)
H17 H 0.0213 0.2989 0.3354
H18 H -0.0958 0.2351 0.2350
H19 H -0.0198 0.3724 0.2320
C26 C 0.0712(3) 0.2130(3) 0.0677(2)
H20 H 0.0671 0.3009 0.0503
H21 H -0.0183 0.1649 0.0398
H22 H 0.1442 0.1693 0.0320
N1 N 0.5642(3) 1.1321(2) 0.40888(16)
N2 N 0.7008(2) 1.05215(19) 0.10000(17)
N3 N 0.2971(3) 0.4687(2) -0.00600(16)
N4 N 0.45903(15) 0.38410(15) 0.26380(13)
O1 O 0.38411(14) 0.19135(14) 0.14590(12)
O2 O 0.23163(13) 0.30959(12) 0.24107(11)
loop_
_geom_bond_atom_site_label_1
_geom_bond_atom_site_label_2
_geom_bond_site_symmetry_1
_geom_bond_site_symmetry_2
C1 H1 1_555 1_555
C2 C1 1_555 1_555
H2 C2 1_555 1_555
H3 C2 1_555 1_555
C3 C4 1_555 1_555
C4 C5 1_555 1_555
C5 H4 1_555 1_555
C6 C5 1_555 1_555
C7 C1 1_555 1_555
C8 C3 1_555 1_555
H5 C8 1_555 1_555
C9 C3 1_555 1_555
C10 C4 1_555 1_555
C11 C6 1_555 1_555
C12 C1 1_555 1_555
C13 C12 1_555 1_555
H6 C13 1_555 1_555
C14 C13 1_555 1_555
H7 C14 1_555 1_555
C15 C14 1_555 1_555
H8 C15 1_555 1_555
C16 C15 1_555 1_555
H9 C16 1_555 1_555
C17 C12 1_555 1_555
H10 C17 1_555 1_555
C18 C2 1_555 1_555
C19 C18 1_555 1_555
H11 C19 1_555 1_555
C20 C19 1_555 1_555
H12 C20 1_555 1_555
C21 C20 1_555 1_555
H13 C21 1_555 1_555
C22 N4 1_555 1_555
C23 C24 1_555 1_555
C24 H14 1_555 1_555
H15 C24 1_555 1_555
H16 C24 1_555 1_555
C25 C23 1_555 1_555
H17 C25 1_555 1_555
H18 C25 1_555 1_555
H19 C25 1_555 1_555
C26 C23 1_555 1_555
H20 C26 1_555 1_555
H21 C26 1_555 1_555
H22 C26 1_555 1_555
N1 C9 1_555 1_555
N2 C10 1_555 1_555
N3 C11 1_555 1_555
N4 C18 1_555 1_555
O1 C22 1_555 1_555
O2 C22 1_555 1_555
C6 C7 1_555 1_555
C7 C8 1_555 1_555
C16 C17 1_555 1_555
C21 N4 1_555 1_555
C23 O2 1_555 1_555

#END
