
#######################################################################
#
#                 Cambridge Crystallographic Data Centre
#                                CCDC 
#
#######################################################################
#
# If this CIF has been generated from an entry in the Cambridge 
# Structural Database, then it will include bibliographic, chemical, 
# crystal, experimental, refinement or atomic coordinate data resulting 
# from the CCDC's data processing and validation procedures.
#
#######################################################################

data_HOGZAE
_chemical_formula_moiety         'C17 H27 N1 O6'
_chemical_name_systematic        
(1S*,2S*,5R*,6S*,9R*)-N-(5-Acetoxymethyl-5-ethoxycarbonyl-2-hydroxybicyclo(4.3.0)nonan-9-yl)ethylideneamine-N-oxide
_symmetry_cell_setting           monoclinic
_symmetry_space_group_name_H-M   'P 21/c'
_symmetry_Int_Tables_number      14
_space_group_name_Hall           '-P 2ybc'
loop_
_symmetry_equiv_pos_site_id
_symmetry_equiv_pos_as_xyz
1 x,y,z
2 -x,1/2+y,1/2-z
3 -x,-y,-z
4 x,1/2-y,1/2+z
_cell_length_a                   10.878(2)
_cell_length_b                   9.579(2)
_cell_length_c                   16.477(3)
_cell_angle_alpha                90
_cell_angle_beta                 91.349(13)
_cell_angle_gamma                90
_cell_volume                     1716.43
_exptl_crystal_colour            colorless
_exptl_crystal_description       block
_chemical_melting_point          '143-145 deg.C'
_cell_formula_units_Z            4
_exptl_crystal_recrystallization_method 'ethyl acetate/methanol'
loop_
_atom_site_label
_atom_site_type_symbol
_atom_site_fract_x
_atom_site_fract_y
_atom_site_fract_z
O1 O 0.3009(1) 0.0880(1) 0.1391(1)
O2 O 0.3346(1) 0.2453(1) 0.0412(1)
O3 O 0.0243(1) 0.2257(1) 0.0575(1)
O4 O -0.0474(2) 0.3338(2) -0.0532(1)
O5 O 0.2329(1) 0.4230(1) 0.3489(1)
O6 O 0.3135(1) 0.6825(1) 0.3804(1)
N1 N 0.2997(1) 0.7407(2) 0.3089(1)
C1 C 0.2695(2) 0.4445(2) 0.1613(1)
C2 C 0.1939(2) 0.3108(2) 0.1418(1)
C3 C 0.1342(2) 0.2534(2) 0.2184(1)
C4 C 0.0624(2) 0.3641(2) 0.2637(1)
C5 C 0.1464(2) 0.4818(2) 0.2918(1)
C6 C 0.2067(2) 0.5494(2) 0.2181(1)
C7 C 0.3149(2) 0.6495(2) 0.2364(1)
C8 C 0.4318(2) 0.5587(2) 0.2427(1)
C9 C 0.3971(2) 0.4195(2) 0.2014(1)
C10 C 0.2807(2) 0.2008(2) 0.1087(1)
C11 C 0.4256(2) 0.1514(2) 0.0081(1)
C12 C 0.4819(2) 0.2231(2) -0.0630(1)
C13 C 0.0986(2) 0.3484(2) 0.0753(1)
C14 C -0.0478(2) 0.2343(2) -0.0099(1)
C15 C -0.1248(2) 0.1087(2) -0.0245(1)
C16 C 0.2740(2) 0.8718(2) 0.3012(1)
C17 C 0.2571(2) 0.9597(2) 0.3741(1)
H1 H 0.2730(2) 0.4970(2) 0.3706(14)
H2 H 0.2829 0.4934 0.1086
H3 H 0.0780 0.1761 0.2029
H4 H 0.1990 0.2148 0.2551
H5 H -0.0035 0.4020 0.2276
H6 H 0.0233 0.3212 0.3113
H7 H 0.0963 0.5538 0.3200
H8 H 0.1421 0.6012 0.1860
H9 H 0.3234 0.7119 0.1882
H10 H 0.5006 0.6040 0.2145
H11 H 0.4565 0.5434 0.3002
H12 H 0.3934 0.3434 0.2420
H13 H 0.4580 0.3943 0.1602
H14 H 0.3861 0.0630 -0.0095
H15 H 0.4897 0.1296 0.0498
H16 H 0.5237 0.3083 -0.0445
H17 H 0.4172 0.2472 -0.1030
H18 H 0.5414 0.1605 -0.0879
H19 H 0.0457 0.4256 0.0939
H20 H 0.1407 0.3794 0.0258
H21 H -0.2099 0.1373 -0.0363
H22 H -0.1222 0.0492 0.0239
H23 H -0.0934 0.0565 -0.0708
H24 H 0.2660 0.9120 0.2486
H25 H 0.1925 0.9194 0.4073
H26 H 0.2333 1.0543 0.3573
H27 H 0.3343 0.9635 0.4059
loop_
_geom_bond_atom_site_label_1
_geom_bond_atom_site_label_2
_geom_bond_site_symmetry_1
_geom_bond_site_symmetry_2
O1 C10 1_555 1_555
O2 C10 1_555 1_555
O3 C13 1_555 1_555
O4 C14 1_555 1_555
O5 C5 1_555 1_555
O6 N1 1_555 1_555
N1 C7 1_555 1_555
C1 C2 1_555 1_555
C2 C3 1_555 1_555
C3 C4 1_555 1_555
C4 C5 1_555 1_555
C5 C6 1_555 1_555
C6 C1 1_555 1_555
C7 C6 1_555 1_555
C8 C7 1_555 1_555
C9 C1 1_555 1_555
C10 C2 1_555 1_555
C11 O2 1_555 1_555
C12 C11 1_555 1_555
C13 C2 1_555 1_555
C14 O3 1_555 1_555
C15 C14 1_555 1_555
C16 N1 1_555 1_555
C17 C16 1_555 1_555
H1 O5 1_555 1_555
H2 C1 1_555 1_555
H3 C3 1_555 1_555
H4 C3 1_555 1_555
H5 C4 1_555 1_555
H6 C4 1_555 1_555
H7 C5 1_555 1_555
H8 C6 1_555 1_555
H9 C7 1_555 1_555
H10 C8 1_555 1_555
H11 C8 1_555 1_555
H12 C9 1_555 1_555
H13 C9 1_555 1_555
H14 C11 1_555 1_555
H15 C11 1_555 1_555
H16 C12 1_555 1_555
H17 C12 1_555 1_555
H18 C12 1_555 1_555
H19 C13 1_555 1_555
H20 C13 1_555 1_555
H21 C15 1_555 1_555
H22 C15 1_555 1_555
H23 C15 1_555 1_555
H24 C16 1_555 1_555
H25 C17 1_555 1_555
H26 C17 1_555 1_555
H27 C17 1_555 1_555
C8 C9 1_555 1_555

#END
