
#######################################################################
#
#                 Cambridge Crystallographic Data Centre
#                                CCDC 
#
#######################################################################
#
# If this CIF has been generated from an entry in the Cambridge 
# Structural Database, then it will include bibliographic, chemical, 
# crystal, experimental, refinement or atomic coordinate data resulting 
# from the CCDC's data processing and validation procedures.
#
#######################################################################

data_HOGZOU
_chemical_formula_moiety         'C14 H13 I1 O2'
_chemical_name_systematic        1-((4-Iodobenzyl)oxy)-2-methoxybenzene
_symmetry_cell_setting           orthorhombic
_symmetry_space_group_name_H-M   'P b c a'
_symmetry_Int_Tables_number      61
_space_group_name_Hall           '-P 2ac 2ab'
loop_
_symmetry_equiv_pos_site_id
_symmetry_equiv_pos_as_xyz
1 x,y,z
2 1/2-x,-y,1/2+z
3 -x,1/2+y,1/2-z
4 1/2+x,1/2-y,-z
5 -x,-y,-z
6 1/2+x,y,1/2-z
7 x,1/2-y,1/2+z
8 1/2-x,1/2+y,z
_cell_length_a                   7.8201(6)
_cell_length_b                   15.7081(11)
_cell_length_c                   21.1791(15)
_cell_angle_alpha                90
_cell_angle_beta                 90
_cell_angle_gamma                90
_cell_volume                     2601.62
_cell_formula_units_Z            8
loop_
_atom_site_label
_atom_site_type_symbol
_atom_site_fract_x
_atom_site_fract_y
_atom_site_fract_z
C1 C 0.1115(2) 0.20338(10) 1.04475(8)
C2 C 0.0405(2) 0.18873(10) 0.98532(8)
H1 H -0.0320 0.2300 0.9663
C3 C 0.0773(2) 0.11312(11) 0.95437(8)
H2 H 0.0287 0.1024 0.9140
C4 C 0.1845(2) 0.05270(10) 0.98164(8)
C5 C 0.2538(2) 0.06835(10) 1.04096(8)
H3 H 0.3268 0.0273 1.0598
C6 C 0.2174(2) 0.14355(11) 1.07299(8)
H4 H 0.2644 0.1538 1.1136
C7 C 0.2242(2) -0.02871(10) 0.94715(8)
H5 H 0.2786 -0.0701 0.9761
H6 H 0.1179 -0.0543 0.9303
C8 C 0.3905(2) -0.07490(10) 0.85942(8)
C9 C 0.3376(2) -0.15839(10) 0.86635(8)
H7 H 0.2597 -0.1730 0.8990
C10 C 0.3985(2) -0.22128(11) 0.82536(8)
H8 H 0.3616 -0.2785 0.8301
C11 C 0.5118(2) -0.20040(11) 0.77812(8)
H9 H 0.5525 -0.2433 0.7502
C12 C 0.5675(2) -0.11618(11) 0.77098(8)
H10 H 0.6460 -0.1020 0.7384
C13 C 0.5078(2) -0.05367(10) 0.81146(8)
C14 C 0.6851(3) 0.05349(12) 0.76575(10)
H11 H 0.7882 0.0204 0.7752
H12 H 0.7104 0.1143 0.7699
H13 H 0.6476 0.0413 0.7225
I1 I 0.055304(14) 0.317408(6) 1.092350(5)
O1 O 0.33855(15) -0.00804(7) 0.89637(5)
O2 O 0.55277(15) 0.03077(7) 0.80895(6)
loop_
_geom_bond_atom_site_label_1
_geom_bond_atom_site_label_2
_geom_bond_site_symmetry_1
_geom_bond_site_symmetry_2
C1 C2 1_555 1_555
C2 H1 1_555 1_555
C3 C2 1_555 1_555
H2 C3 1_555 1_555
C4 C3 1_555 1_555
C5 C4 1_555 1_555
H3 C5 1_555 1_555
C6 C1 1_555 1_555
H4 C6 1_555 1_555
C7 C4 1_555 1_555
H5 C7 1_555 1_555
H6 C7 1_555 1_555
C8 C9 1_555 1_555
C9 H7 1_555 1_555
C10 C9 1_555 1_555
H8 C10 1_555 1_555
C11 C10 1_555 1_555
H9 C11 1_555 1_555
C12 C11 1_555 1_555
H10 C12 1_555 1_555
C13 C8 1_555 1_555
C14 H11 1_555 1_555
H12 C14 1_555 1_555
H13 C14 1_555 1_555
I1 C1 1_555 1_555
O1 C7 1_555 1_555
O2 C13 1_555 1_555
C5 C6 1_555 1_555
C8 O1 1_555 1_555
C12 C13 1_555 1_555
C14 O2 1_555 1_555

#END
