
#######################################################################
#
#                 Cambridge Crystallographic Data Centre
#                                CCDC 
#
#######################################################################
#
# If this CIF has been generated from an entry in the Cambridge 
# Structural Database, then it will include bibliographic, chemical, 
# crystal, experimental, refinement or atomic coordinate data resulting 
# from the CCDC's data processing and validation procedures.
#
#######################################################################

data_HOHCEN
_chemical_formula_moiety         'C15 H13 Cl1 N2 O2'
_chemical_name_systematic        
(2R,4S)-4-phenyl-2-(4-chlorophenyl)-3-nitroso-1,3-oxazolidine
_symmetry_cell_setting           orthorhombic
_symmetry_space_group_name_H-M   'P 21 21 21'
_symmetry_Int_Tables_number      19
_space_group_name_Hall           'P 2ac 2ab'
loop_
_symmetry_equiv_pos_site_id
_symmetry_equiv_pos_as_xyz
1 x,y,z
2 1/2-x,-y,1/2+z
3 -x,1/2+y,1/2-z
4 1/2+x,1/2-y,-z
_cell_length_a                   7.5655(2)
_cell_length_b                   12.6030(3)
_cell_length_c                   14.4639(3)
_cell_angle_alpha                90
_cell_angle_beta                 90
_cell_angle_gamma                90
_cell_volume                     1379.1
_cell_formula_units_Z            4
loop_
_atom_site_label
_atom_site_type_symbol
_atom_site_fract_x
_atom_site_fract_y
_atom_site_fract_z
C1 C 0.0073(3) 0.93727(16) -0.11428(13)
C2 C 0.0409(3) 0.83968(18) -0.15331(15)
H1 H 0.0417 0.7791 -0.1166
C3 C 0.0735(3) 0.8320(2) -0.24704(16)
H2 H 0.0979 0.7661 -0.2730
C4 C 0.0702(3) 0.9205(2) -0.30240(16)
H3 H 0.0927 0.9147 -0.3654
C5 C 0.0336(3) 1.0169(2) -0.26419(16)
H4 H 0.0297 1.0770 -0.3014
C6 C 0.0024(3) 1.02581(19) -0.17033(15)
H5 H -0.0221 1.0919 -0.1448
C7 C -0.0295(3) 0.95088(15) -0.01204(13)
H6 H -0.0003 1.0235 0.0067
C8 C -0.2188(3) 0.92545(17) 0.01612(14)
H7 H -0.2914 0.9888 0.0144
H8 H -0.2696 0.8729 -0.0250
C9 C -0.0598(3) 0.81641(17) 0.10845(14)
H9 H -0.0916 0.7486 0.0798
C10 C 0.0077(3) 0.79801(16) 0.20471(14)
C11 C 0.0575(3) 0.69765(17) 0.23119(15)
H10 H 0.0460 0.6417 0.1897
C12 C 0.1245(3) 0.67875(19) 0.31842(15)
H11 H 0.1591 0.6108 0.3357
C13 C 0.1390(3) 0.7616(2) 0.37890(13)
C14 C 0.0861(4) 0.86170(19) 0.35545(15)
H12 H 0.0941 0.9170 0.3978
C15 C 0.0205(4) 0.87919(19) 0.26747(16)
H13 H -0.0155 0.9471 0.2506
Cl1 Cl 0.23073(10) 0.73951(6) 0.48805(4)
N1 N 0.2356(3) 0.86627(15) 0.05755(11)
N2 N 0.0643(2) 0.87518(13) 0.04786(10)
O1 O 0.3223(2) 0.92688(13) 0.00714(11)
O2 O -0.20707(19) 0.88493(12) 0.10849(9)
loop_
_geom_bond_atom_site_label_1
_geom_bond_atom_site_label_2
_geom_bond_site_symmetry_1
_geom_bond_site_symmetry_2
C1 C2 1_555 1_555
C2 H1 1_555 1_555
C3 C2 1_555 1_555
H2 C3 1_555 1_555
C4 C3 1_555 1_555
H3 C4 1_555 1_555
C5 C4 1_555 1_555
H4 C5 1_555 1_555
C6 C1 1_555 1_555
H5 C6 1_555 1_555
C7 C1 1_555 1_555
H6 C7 1_555 1_555
C8 C7 1_555 1_555
H7 C8 1_555 1_555
H8 C8 1_555 1_555
C9 H9 1_555 1_555
C10 C9 1_555 1_555
C11 C10 1_555 1_555
H10 C11 1_555 1_555
C12 C11 1_555 1_555
H11 C12 1_555 1_555
C13 C12 1_555 1_555
C14 C13 1_555 1_555
H12 C14 1_555 1_555
C15 C10 1_555 1_555
H13 C15 1_555 1_555
Cl1 C13 1_555 1_555
N1 N2 1_555 1_555
N2 C7 1_555 1_555
O1 N1 1_555 1_555
O2 C8 1_555 1_555
C5 C6 1_555 1_555
C9 N2 1_555 1_555
C9 O2 1_555 1_555
C14 C15 1_555 1_555

#END
