
#######################################################################
#
#                 Cambridge Crystallographic Data Centre
#                                CCDC 
#
#######################################################################
#
# If this CIF has been generated from an entry in the Cambridge 
# Structural Database, then it will include bibliographic, chemical, 
# crystal, experimental, refinement or atomic coordinate data resulting 
# from the CCDC's data processing and validation procedures.
#
#######################################################################

data_HOHDEO
_chemical_formula_moiety         'C28 H30 O6'
_chemical_name_systematic        
3-(2-(4-methoxyphenyl)-4-oxo-6-phenylhex-5-en-1-yl)-1,5-dioxaspiro[5.5]undecane-2,4-dione
_symmetry_cell_setting           triclinic
_symmetry_space_group_name_H-M   'P -1'
_symmetry_Int_Tables_number      2
_space_group_name_Hall           '-P 1'
loop_
_symmetry_equiv_pos_site_id
_symmetry_equiv_pos_as_xyz
1 x,y,z
2 -x,-y,-z
_cell_length_a                   10.568(2)
_cell_length_b                   14.856(4)
_cell_length_c                   16.083(4)
_cell_angle_alpha                84.517(4)
_cell_angle_beta                 82.473(4)
_cell_angle_gamma                85.420(5)
_cell_volume                     2485.98
_cell_formula_units_Z            4
loop_
_atom_site_label
_atom_site_type_symbol
_atom_site_fract_x
_atom_site_fract_y
_atom_site_fract_z
O1 O 0.6216(2) 0.81319(19) 0.39490(17)
O2 O 0.7588(2) 0.68261(15) 0.38258(15)
O3 O 0.9224(3) 0.67977(18) 0.28387(19)
O4 O 0.6546(3) 0.9340(2) 0.3109(2)
O5 O 1.2822(5) 0.9972(4) 0.4736(4)
O6 O 0.9365(3) 1.15364(19) 0.1890(2)
C1 C 0.6697(3) 0.7348(3) 0.4388(2)
C2 C 0.7306(4) 0.7568(3) 0.5127(2)
H1 H 0.8080 0.7873 0.4925
H2 H 0.6726 0.7982 0.5450
C3 C 0.7632(5) 0.6743(4) 0.5688(3)
H3 H 0.7984 0.6923 0.6169
H4 H 0.8280 0.6357 0.5383
C4 C 0.6479(6) 0.6217(4) 0.5990(3)
H5 H 0.6726 0.5674 0.6333
H6 H 0.5853 0.6582 0.6334
C5 C 0.5907(6) 0.5962(3) 0.5249(4)
H7 H 0.6508 0.5547 0.4942
H8 H 0.5138 0.5649 0.5447
C6 C 0.5581(4) 0.6762(3) 0.4670(3)
H9 H 0.4881 0.7127 0.4951
H10 H 0.5289 0.6556 0.4178
C7 C 0.6991(4) 0.8643(3) 0.3406(3)
C8 C 0.8349(3) 0.8268(2) 0.3180(2)
H11 H 0.8841 0.8448 0.3605
C9 C 0.8444(4) 0.7248(3) 0.3251(2)
C10 C 0.8963(4) 0.8683(2) 0.2334(2)
H12 H 0.8361 0.8694 0.1926
H13 H 0.9709 0.8298 0.2142
C11 C 0.9369(4) 0.9647(2) 0.2360(2)
H14 H 0.8610 1.0018 0.2575
C12 C 1.0360(4) 0.9685(3) 0.2945(2)
C13 C 1.1518(5) 0.9189(3) 0.2879(3)
H15 H 1.1736 0.8813 0.2444
C14 C 1.2407(5) 0.9252(4) 0.3492(5)
H16 H 1.3189 0.8916 0.3482
C15 C 1.1982(8) 0.9859(5) 0.4092(4)
C16 C 1.0934(7) 1.0370(5) 0.4128(4)
H17 H 1.0746 1.0799 0.4520
C17 C 1.0141(5) 1.0257(4) 0.3581(3)
H18 H 0.9361 1.0596 0.3631
C18 C 1.3719(5) 0.9348(4) 0.4799(6)
H19 H 1.3663 0.8910 0.4406
H20 H 1.3636 0.9058 0.5361
H21 H 1.4532 0.9610 0.4677
C19 C 0.9819(4) 1.0047(2) 0.1476(2)
H22 H 1.0617 0.9725 0.1272
H23 H 0.9193 0.9949 0.1109
C20 C 1.0018(4) 1.1041(3) 0.1416(2)
C21 C 1.0974(3) 1.1445(2) 0.0778(2)
H24 H 1.0977 1.2074 0.0727
C22 C 1.1834(3) 1.1001(2) 0.0267(2)
H25 H 1.1823 1.0373 0.0316
C23 C 1.2795(4) 1.1396(3) -0.0363(2)
C24 C 1.2747(4) 1.2313(3) -0.0633(3)
H26 H 1.2071 1.2699 -0.0421
C25 C 1.3711(6) 1.2646(4) -0.1219(4)
H27 H 1.3674 1.3260 -0.1400
C26 C 1.4711(7) 1.2093(5) -0.1535(4)
H28 H 1.5353 1.2332 -0.1926
C27 C 1.4776(6) 1.1186(4) -0.1278(4)
H29 H 1.5458 1.0805 -0.1491
C28 C 1.3808(5) 1.0848(3) -0.0696(3)
H30 H 1.3844 1.0231 -0.0525
O7 O 0.6575(2) 0.26453(16) 1.15800(13)
O8 O 0.6900(3) 0.14100(15) 1.07442(15)
O9 O 0.7653(2) 0.38481(18) 1.12057(15)
O10 O 0.8216(3) 0.14483(17) 0.95848(18)
O11 O 0.4658(2) 0.44473(18) 0.70501(15)
O12 O 0.8951(2) 0.61672(16) 0.91948(15)
C29 C 0.6019(4) 0.1876(2) 1.1347(2)
C30 C 0.5868(4) 0.1216(3) 1.2120(2)
H31 H 0.6665 0.1141 1.2364
H32 H 0.5691 0.0631 1.1957
C31 C 0.4797(5) 0.1526(3) 1.2780(3)
H33 H 0.4672 0.1047 1.3232
H34 H 0.5042 0.2053 1.3018
C32 C 0.3557(5) 0.1761(3) 1.2413(3)
H35 H 0.3264 0.1222 1.2223
H36 H 0.2908 0.1985 1.2842
C33 C 0.3744(4) 0.2472(3) 1.1684(3)
H37 H 0.3983 0.3023 1.1882
H38 H 0.2945 0.2608 1.1446
C34 C 0.4780(4) 0.2150(3) 1.1005(2)
H39 H 0.4496 0.1638 1.0765
H40 H 0.4913 0.2633 1.0559
C35 C 0.7277(3) 0.3177(2) 1.1001(2)
C36 C 0.7550(3) 0.2881(2) 1.01188(18)
H41 H 0.6815 0.3117 0.9831
C37 C 0.7605(4) 0.1867(2) 1.0112(2)
C38 C 0.8713(3) 0.3300(2) 0.96166(19)
H42 H 0.9021 0.2940 0.9150
H43 H 0.9388 0.3279 0.9974
C39 C 0.8437(3) 0.4286(2) 0.92706(19)
H44 H 0.8105 0.4636 0.9748
C40 C 0.7427(3) 0.4353(2) 0.86805(18)
C41 C 0.6276(3) 0.4854(2) 0.8849(2)
H45 H 0.6137 0.5165 0.9332
C42 C 0.5325(3) 0.4911(2) 0.8328(2)
H46 H 0.4562 0.5254 0.8461
C43 C 0.5518(3) 0.4458(2) 0.76113(19)
C44 C 0.6662(3) 0.3951(2) 0.7428(2)
H47 H 0.6799 0.3642 0.6945
C45 C 0.7594(3) 0.3901(2) 0.7952(2)
H48 H 0.8355 0.3558 0.7816
C46 C 0.3481(4) 0.4985(3) 0.7190(3)
H49 H 0.3030 0.4788 0.7726
H50 H 0.2967 0.4919 0.6753
H51 H 0.3655 0.5610 0.7186
C47 C 0.9673(3) 0.4692(2) 0.8844(2)
H52 H 1.0334 0.4567 0.9213
H53 H 0.9961 0.4407 0.8328
C48 C 0.9473(3) 0.5702(2) 0.8644(2)
C49 C 0.9920(3) 0.6147(2) 0.7819(2)
H54 H 0.9917 0.6776 0.7779
C50 C 1.0325(3) 0.5748(2) 0.7133(2)
H55 H 1.0352 0.5119 0.7178
C51 C 1.0743(3) 0.6197(3) 0.6298(2)
C52 C 1.0980(4) 0.5686(3) 0.5621(3)
H56 H 1.0905 0.5064 0.5705
C53 C 1.1329(5) 0.6076(3) 0.4813(3)
H57 H 1.1489 0.5716 0.4364
C54 C 1.1436(5) 0.6985(4) 0.4679(3)
H58 H 1.1654 0.7250 0.4137
C55 C 1.1224(5) 0.7505(3) 0.5343(3)
H59 H 1.1310 0.8126 0.5255
C56 C 1.0879(4) 0.7111(3) 0.6155(3)
H60 H 1.0741 0.7472 0.6605
loop_
_geom_bond_atom_site_label_1
_geom_bond_atom_site_label_2
_geom_bond_site_symmetry_1
_geom_bond_site_symmetry_2
O1 C1 1_555 1_555
O2 C1 1_555 1_555
O3 C9 1_555 1_555
O4 C7 1_555 1_555
O5 C15 1_555 1_555
O6 C20 1_555 1_555
O7 C29 1_555 1_555
O8 C29 1_555 1_555
O9 C35 1_555 1_555
O10 C37 1_555 1_555
O11 C43 1_555 1_555
O12 C48 1_555 1_555
C1 C2 1_555 1_555
C2 H1 1_555 1_555
H2 C2 1_555 1_555
C3 C2 1_555 1_555
H3 C3 1_555 1_555
H4 C3 1_555 1_555
C4 C3 1_555 1_555
H5 C4 1_555 1_555
H6 C4 1_555 1_555
C5 C4 1_555 1_555
H7 C5 1_555 1_555
H8 C5 1_555 1_555
C6 C1 1_555 1_555
H9 C6 1_555 1_555
H10 C6 1_555 1_555
C7 O1 1_555 1_555
C8 C7 1_555 1_555
H11 C8 1_555 1_555
C9 O2 1_555 1_555
C10 C8 1_555 1_555
H12 C10 1_555 1_555
H13 C10 1_555 1_555
C11 C10 1_555 1_555
H14 C11 1_555 1_555
C12 C11 1_555 1_555
C13 C12 1_555 1_555
H15 C13 1_555 1_555
C14 C13 1_555 1_555
H16 C14 1_555 1_555
C15 C14 1_555 1_555
C16 C15 1_555 1_555
H17 C16 1_555 1_555
C17 C12 1_555 1_555
H18 C17 1_555 1_555
C18 O5 1_555 1_555
H19 C18 1_555 1_555
H20 C18 1_555 1_555
H21 C18 1_555 1_555
C19 C11 1_555 1_555
H22 C19 1_555 1_555
H23 C19 1_555 1_555
C20 C19 1_555 1_555
C21 C20 1_555 1_555
H24 C21 1_555 1_555
C22 C21 1_555 1_555
H25 C22 1_555 1_555
C23 C22 1_555 1_555
C24 C23 1_555 1_555
H26 C24 1_555 1_555
C25 C24 1_555 1_555
H27 C25 1_555 1_555
C26 C25 1_555 1_555
H28 C26 1_555 1_555
C27 C26 1_555 1_555
H29 C27 1_555 1_555
C28 C23 1_555 1_555
H30 C28 1_555 1_555
C29 C30 1_555 1_555
C30 H31 1_555 1_555
H32 C30 1_555 1_555
C31 C30 1_555 1_555
H33 C31 1_555 1_555
H34 C31 1_555 1_555
C32 C31 1_555 1_555
H35 C32 1_555 1_555
H36 C32 1_555 1_555
C33 C32 1_555 1_555
H37 C33 1_555 1_555
H38 C33 1_555 1_555
C34 C29 1_555 1_555
H39 C34 1_555 1_555
H40 C34 1_555 1_555
C35 O7 1_555 1_555
C36 C35 1_555 1_555
H41 C36 1_555 1_555
C37 O8 1_555 1_555
C38 C36 1_555 1_555
H42 C38 1_555 1_555
H43 C38 1_555 1_555
C39 C38 1_555 1_555
H44 C39 1_555 1_555
C40 C39 1_555 1_555
C41 C40 1_555 1_555
H45 C41 1_555 1_555
C42 C41 1_555 1_555
H46 C42 1_555 1_555
C43 C42 1_555 1_555
C44 C43 1_555 1_555
H47 C44 1_555 1_555
C45 C40 1_555 1_555
H48 C45 1_555 1_555
C46 O11 1_555 1_555
H49 C46 1_555 1_555
H50 C46 1_555 1_555
H51 C46 1_555 1_555
C47 C39 1_555 1_555
H52 C47 1_555 1_555
H53 C47 1_555 1_555
C48 C47 1_555 1_555
C49 C48 1_555 1_555
H54 C49 1_555 1_555
C50 C49 1_555 1_555
H55 C50 1_555 1_555
C51 C50 1_555 1_555
C52 C51 1_555 1_555
H56 C52 1_555 1_555
C53 C52 1_555 1_555
H57 C53 1_555 1_555
C54 C53 1_555 1_555
H58 C54 1_555 1_555
C55 C54 1_555 1_555
H59 C55 1_555 1_555
C56 C51 1_555 1_555
H60 C56 1_555 1_555
C5 C6 1_555 1_555
C8 C9 1_555 1_555
C16 C17 1_555 1_555
C27 C28 1_555 1_555
C33 C34 1_555 1_555
C36 C37 1_555 1_555
C44 C45 1_555 1_555
C55 C56 1_555 1_555

#END
