
#######################################################################
#
#                 Cambridge Crystallographic Data Centre
#                                CCDC 
#
#######################################################################
#
# If this CIF has been generated from an entry in the Cambridge 
# Structural Database, then it will include bibliographic, chemical, 
# crystal, experimental, refinement or atomic coordinate data resulting 
# from the CCDC's data processing and validation procedures.
#
#######################################################################

data_HOHFEQ
_chemical_formula_moiety         'C19 H24 N1 O2 1+,C17 H27 N1 O6,F6 P1 1-'
_chemical_name_systematic        
'[2]-(N-benzyl-5-[(phenylcarbonyl)oxy]pentan-1-ammonium)-(pyrido-21-crown-7)-pseudorotaxane hexafluorophosphate'
_symmetry_cell_setting           monoclinic
_symmetry_space_group_name_H-M   'P 21/c'
_symmetry_Int_Tables_number      14
_space_group_name_Hall           '-P 2ybc'
loop_
_symmetry_equiv_pos_site_id
_symmetry_equiv_pos_as_xyz
1 x,y,z
2 -x,1/2+y,1/2-z
3 -x,-y,-z
4 x,1/2-y,1/2+z
_cell_length_a                   11.494(2)
_cell_length_b                   16.863(3)
_cell_length_c                   23.019(7)
_cell_angle_alpha                90
_cell_angle_beta                 114.94(2)
_cell_angle_gamma                90
_cell_volume                     4045.57
_exptl_crystal_colour            colorless
_exptl_crystal_description       prism
_cell_formula_units_Z            4
_exptl_crystal_recrystallization_method 'petroleum ether/ethyl acetate'
loop_
_atom_site_label
_atom_site_type_symbol
_atom_site_fract_x
_atom_site_fract_y
_atom_site_fract_z
C1 C 0.7059(4) 0.9560(2) 0.5772(2)
C2 C 0.6451(5) 1.0272(3) 0.5740(3)
H1 H 0.6139 1.0401 0.6041
C3 C 0.6313(6) 1.0793(3) 0.5249(3)
H2 H 0.5892 1.1275 0.5210
C4 C 0.6803(6) 1.0589(3) 0.4828(3)
H3 H 0.6722 1.0931 0.4496
C5 C 0.7425(4) 0.9870(2) 0.4894(2)
C6 C 0.7963(6) 0.9681(3) 0.4434(3)
H4 H 0.7265 0.9585 0.4017
H5 H 0.8445 1.0134 0.4395
C7 C 0.9328(7) 0.8867(4) 0.4177(3)
H6 H 0.9897 0.9300 0.4194
H7 H 0.8661 0.8834 0.3744
C8 C 1.0057(6) 0.8118(4) 0.4347(3)
H8 H 1.0515 0.8050 0.4080
H9 H 1.0684 0.8140 0.4790
C9 C 0.9813(6) 0.6723(4) 0.4236(3)
H10 H 1.0537 0.6623 0.4643
H11 H 1.0126 0.6743 0.3905
C10 C 0.8862(6) 0.6080(4) 0.4095(3)
H12 H 0.8066 0.6236 0.3742
H13 H 0.9177 0.5607 0.3968
C11 C 0.7882(6) 0.5195(4) 0.4542(4)
H14 H 0.8304 0.4761 0.4432
H15 H 0.7043 0.5269 0.4192
C12 C 0.7732(6) 0.4996(3) 0.5133(4)
H16 H 0.7472 0.4445 0.5114
H17 H 0.8552 0.5057 0.5500
C13 C 0.6635(7) 0.5275(3) 0.5753(3)
H18 H 0.7452 0.5275 0.6127
H19 H 0.6277 0.4746 0.5702
C14 C 0.5767(6) 0.5837(3) 0.5850(3)
H20 H 0.5012 0.5911 0.5450
H21 H 0.5491 0.5626 0.6163
C15 C 0.5670(4) 0.7103(3) 0.6267(2)
H22 H 0.5454 0.6847 0.6586
H23 H 0.4877 0.7244 0.5905
C16 C 0.6425(5) 0.7820(3) 0.6540(2)
H24 H 0.6044 0.8114 0.6778
H25 H 0.7291 0.7674 0.6833
C17 C 0.7237(4) 0.8991(2) 0.62976(19)
H26 H 0.8132 0.8838 0.6511
H27 H 0.6999 0.9243 0.6611
N1 N 0.7531(3) 0.93548(19) 0.53553(15)
O1 O 0.8766(3) 0.90166(19) 0.46137(14)
O2 O 0.9233(3) 0.7463(2) 0.42626(16)
O3 O 0.8628(3) 0.5909(2) 0.46321(18)
O4 O 0.6831(3) 0.54743(18) 0.52105(16)
O5 O 0.6381(3) 0.65735(17) 0.60645(14)
O6 O 0.6460(3) 0.83009(16) 0.60436(12)
C18 C 1.0545(3) 0.6772(2) 1.11696(16)
H28 H 0.9966 0.6369 1.1133
C19 C 1.1837(4) 0.6600(2) 1.14057(18)
H29 H 1.2126 0.6086 1.1532
C20 C 1.2689(4) 0.7189(3) 1.1453(2)
H30 H 1.3559 0.7074 1.1608
C21 C 1.2270(4) 0.7944(3) 1.1273(2)
H31 H 1.2852 0.8344 1.1307
C22 C 1.0973(4) 0.8115(2) 1.1040(2)
H32 H 1.0688 0.8630 1.0917
C23 C 0.8698(3) 0.7727(2) 1.07411(17)
H33 H 0.8370 0.7533 1.1040
H34 H 0.8591 0.8299 1.0712
C24 C 0.6591(3) 0.7637(2) 0.97973(18)
H35 H 0.6567 0.8212 0.9809
H36 H 0.6147 0.7435 1.0043
C25 C 0.5909(4) 0.7365(3) 0.9119(2)
H37 H 0.5918 0.6791 0.9103
H38 H 0.6342 0.7568 0.8868
C26 C 0.3756(4) 0.7423(3) 0.8165(2)
H39 H 0.3928 0.6868 0.8121
H40 H 0.4041 0.7728 0.7892
C27 C 0.2349(4) 0.7532(2) 0.7938(2)
H41 H 0.1900 0.7305 0.7514
H42 H 0.2056 0.7268 0.8227
C28 C 0.0889(3) 0.8595(2) 0.77747(17)
C29 C 0.0700(3) 0.9459(2) 0.76941(16)
C30 C 0.1599(4) 0.9944(2) 0.76117(19)
H43 H 0.2337 0.9727 0.7605
C31 C 0.1386(4) 1.0746(3) 0.7540(2)
H44 H 0.1978 1.1071 0.7479
C32 C 0.0303(5) 1.1075(3) 0.7558(2)
H45 H 0.0170 1.1620 0.7513
C33 C 1.0100(3) 0.75291(19) 1.09881(15)
C34 C -0.0590(5) 1.0587(3) 0.7644(2)
H46 H -0.1320 1.0806 0.7657
C35 C -0.0394(4) 0.9792(2) 0.7708(2)
H47 H -0.0996 0.9468 0.7762
N2 N 0.7954(3) 0.73687(17) 1.01002(14)
H48 H 0.7972 0.6837 1.0140
H49 H 0.8333 0.7494 0.9841
O7 O 0.2092(2) 0.83783(15) 0.79214(13)
C36 C 0.4508(4) 0.7666(3) 0.8836(2)
H50 H 0.4091 0.7466 0.9095
H51 H 0.4513 0.8241 0.8859
O8 O 0.0050(3) 0.81313(17) 0.77088(16)
F1 F 0.5635(6) 1.0423(3) 0.6993(3)
F2 F 0.6005(9) 1.0488(4) 0.8027(3)
F3 F 0.4097(7) 1.0482(5) 0.7262(3)
F4 F 0.4954(6) 0.9571(4) 0.7965(3)
F5 F 0.6445(4) 0.9441(3) 0.7662(2)
F6 F 0.4584(7) 0.9458(3) 0.6919(3)
P1 P 0.52883(10) 0.99959(6) 0.74734(5)
loop_
_geom_bond_atom_site_label_1
_geom_bond_atom_site_label_2
_geom_bond_site_symmetry_1
_geom_bond_site_symmetry_2
C1 C2 1_555 1_555
C2 H1 1_555 1_555
C3 C2 1_555 1_555
H2 C3 1_555 1_555
C4 C3 1_555 1_555
H3 C4 1_555 1_555
C5 C4 1_555 1_555
C6 C5 1_555 1_555
H4 C6 1_555 1_555
H5 C6 1_555 1_555
C7 H6 1_555 1_555
H7 C7 1_555 1_555
C8 C7 1_555 1_555
H8 C8 1_555 1_555
H9 C8 1_555 1_555
C9 H10 1_555 1_555
H11 C9 1_555 1_555
C10 C9 1_555 1_555
H12 C10 1_555 1_555
H13 C10 1_555 1_555
C11 H14 1_555 1_555
H15 C11 1_555 1_555
C12 C11 1_555 1_555
H16 C12 1_555 1_555
H17 C12 1_555 1_555
C13 H18 1_555 1_555
H19 C13 1_555 1_555
C14 C13 1_555 1_555
H20 C14 1_555 1_555
H21 C14 1_555 1_555
C15 H22 1_555 1_555
H23 C15 1_555 1_555
C16 C15 1_555 1_555
H24 C16 1_555 1_555
H25 C16 1_555 1_555
C17 C1 1_555 1_555
H26 C17 1_555 1_555
H27 C17 1_555 1_555
C18 H28 1_555 1_555
C19 C18 1_555 1_555
H29 C19 1_555 1_555
C20 C19 1_555 1_555
H30 C20 1_555 1_555
C21 C20 1_555 1_555
H31 C21 1_555 1_555
C22 C21 1_555 1_555
H32 C22 1_555 1_555
C23 H33 1_555 1_555
H34 C23 1_555 1_555
C24 H35 1_555 1_555
H36 C24 1_555 1_555
C25 C24 1_555 1_555
H37 C25 1_555 1_555
H38 C25 1_555 1_555
C26 H39 1_555 1_555
H40 C26 1_555 1_555
C27 C26 1_555 1_555
H41 C27 1_555 1_555
H42 C27 1_555 1_555
C28 C29 1_555 1_555
C29 C30 1_555 1_555
C30 H43 1_555 1_555
C31 C30 1_555 1_555
H44 C31 1_555 1_555
C32 C31 1_555 1_555
H45 C32 1_555 1_555
C33 C18 1_555 1_555
C34 C32 1_555 1_555
H46 C34 1_555 1_555
C35 C29 1_555 1_555
H47 C35 1_555 1_555
F1 P1 1_555 1_555
F2 P1 1_555 1_555
F3 P1 1_555 1_555
F4 P1 1_555 1_555
F5 P1 1_555 1_555
F6 P1 1_555 1_555
N1 C1 1_555 1_555
N2 C23 1_555 1_555
H48 N2 1_555 1_555
H49 N2 1_555 1_555
O1 C6 1_555 1_555
O2 C8 1_555 1_555
O3 C10 1_555 1_555
O4 C12 1_555 1_555
O5 C14 1_555 1_555
O6 C16 1_555 1_555
O7 C27 1_555 1_555
C36 C25 1_555 1_555
H50 C36 1_555 1_555
H51 C36 1_555 1_555
O8 C28 1_555 1_555
C5 N1 1_555 1_555
C7 O1 1_555 1_555
C9 O2 1_555 1_555
C11 O3 1_555 1_555
C13 O4 1_555 1_555
C15 O5 1_555 1_555
C17 O6 1_555 1_555
C22 C33 1_555 1_555
C23 C33 1_555 1_555
C24 N2 1_555 1_555
C26 C36 1_555 1_555
C28 O7 1_555 1_555
C34 C35 1_555 1_555

#END
