
#######################################################################
#
#                 Cambridge Crystallographic Data Centre
#                                CCDC 
#
#######################################################################
#
# If this CIF has been generated from an entry in the Cambridge 
# Structural Database, then it will include bibliographic, chemical, 
# crystal, experimental, refinement or atomic coordinate data resulting 
# from the CCDC's data processing and validation procedures.
#
#######################################################################

data_HOHGUI
_chemical_formula_moiety         'C23 H25 N1 O5 S1'
_chemical_name_systematic        
'methyl 1-((4-methylphenyl)sulfonyl)-9-phenyl-6-oxa-1-azaspiro[4.5]dec-7-ene-7-carboxylate'
_symmetry_cell_setting           monoclinic
_symmetry_space_group_name_H-M   'P 21/c'
_symmetry_Int_Tables_number      14
_space_group_name_Hall           '-P 2ybc'
loop_
_symmetry_equiv_pos_site_id
_symmetry_equiv_pos_as_xyz
1 x,y,z
2 -x,1/2+y,1/2-z
3 -x,-y,-z
4 x,1/2-y,1/2+z
_cell_length_a                   11.074(3)
_cell_length_b                   12.584(3)
_cell_length_c                   15.635(3)
_cell_angle_alpha                90
_cell_angle_beta                 98.076(4)
_cell_angle_gamma                90
_cell_volume                     2157.21
_cell_formula_units_Z            4
loop_
_atom_site_label
_atom_site_type_symbol
_atom_site_fract_x
_atom_site_fract_y
_atom_site_fract_z
S1 S 0.98863(11) 0.91327(10) 0.24559(7)
O1 O 0.8976(3) 0.9553(3) 0.18122(17)
O2 O 1.0903(3) 0.8581(2) 0.22000(17)
O3 O 1.1926(2) 0.9268(2) 0.39984(15)
O4 O 1.2361(3) 0.7720(3) 0.50211(18)
O5 O 1.4378(3) 0.7894(3) 0.5171(2)
N1 N 1.0398(3) 1.0111(2) 0.30747(19)
C1 C 0.7281(6) 0.6264(4) 0.4699(3)
H1 H 0.6749 0.6683 0.4998
H2 H 0.7870 0.5910 0.5111
H3 H 0.6810 0.5745 0.4346
C2 C 0.7932(6) 0.6979(5) 0.4133(3)
C3 C 0.7338(4) 0.7784(4) 0.3671(3)
H4 H 0.6517 0.7898 0.3704
C4 C 0.7927(4) 0.8433(4) 0.3154(3)
H5 H 0.7501 0.8977 0.2841
C5 C 0.9138(4) 0.8283(4) 0.3098(2)
C6 C 0.9756(4) 0.7460(4) 0.3559(3)
H6 H 1.0578 0.7343 0.3528
C7 C 0.9131(6) 0.6812(4) 0.4067(3)
H7 H 0.9541 0.6252 0.4369
C8 C 0.9546(4) 1.0805(3) 0.3451(3)
H8 H 0.9189 1.1325 0.3033
H9 H 0.8897 1.0393 0.3648
C9 C 1.0295(5) 1.1322(5) 0.4178(4)
H10 H 1.0125 1.2079 0.4169
H11 H 1.0102 1.1034 0.4718
C10 C 1.1539(5) 1.1150(4) 0.4115(3)
H12 H 1.1981 1.0989 0.4681
H13 H 1.1891 1.1785 0.3899
C11 C 1.1646(4) 1.0227(3) 0.3505(2)
C12 C 1.2541(3) 1.0407(3) 0.2889(2)
H14 H 1.2328 1.1052 0.2564
H15 H 1.2497 0.9820 0.2483
C13 C 1.3828(4) 1.0499(3) 0.3354(3)
H16 H 1.3897 1.1170 0.3675
C14 C 1.4043(4) 0.9613(4) 0.3985(2)
H17 H 1.4840 0.9427 0.4200
C15 C 1.3138(4) 0.9082(3) 0.4247(2)
C16 C 1.3373(5) 0.8174(4) 0.4861(3)
C17 C 1.2494(5) 0.6837(4) 0.5614(3)
H18 H 1.1804 0.6372 0.5489
H19 H 1.2538 0.7097 0.6195
H20 H 1.3227 0.6455 0.5552
C18 C 1.4734(4) 1.0517(4) 0.2719(3)
C19 C 1.5402(5) 1.1406(4) 0.2622(3)
H21 H 1.5320 1.1993 0.2971
C20 C 1.6204(5) 1.1456(6) 0.2016(5)
H22 H 1.6666 1.2065 0.1966
C21 C 1.6305(6) 1.0609(7) 0.1498(4)
H23 H 1.6826 1.0641 0.1082
C22 C 1.5654(5) 0.9718(6) 0.1582(4)
H24 H 1.5736 0.9136 0.1228
C23 C 1.4865(4) 0.9667(4) 0.2191(3)
H25 H 1.4419 0.9050 0.2244
loop_
_geom_bond_atom_site_label_1
_geom_bond_atom_site_label_2
_geom_bond_site_symmetry_1
_geom_bond_site_symmetry_2
S1 O1 1_555 1_555
O2 S1 1_555 1_555
O3 C11 1_555 1_555
O4 C16 1_555 1_555
O5 C16 1_555 1_555
N1 S1 1_555 1_555
C1 H1 1_555 1_555
H2 C1 1_555 1_555
H3 C1 1_555 1_555
C2 C1 1_555 1_555
C3 C2 1_555 1_555
H4 C3 1_555 1_555
C4 C3 1_555 1_555
H5 C4 1_555 1_555
C5 S1 1_555 1_555
C6 C5 1_555 1_555
H6 C6 1_555 1_555
C7 C2 1_555 1_555
H7 C7 1_555 1_555
C8 N1 1_555 1_555
H8 C8 1_555 1_555
H9 C8 1_555 1_555
C9 C8 1_555 1_555
H10 C9 1_555 1_555
H11 C9 1_555 1_555
C10 C9 1_555 1_555
H12 C10 1_555 1_555
H13 C10 1_555 1_555
C11 N1 1_555 1_555
C12 C11 1_555 1_555
H14 C12 1_555 1_555
H15 C12 1_555 1_555
C13 C12 1_555 1_555
H16 C13 1_555 1_555
C14 C13 1_555 1_555
H17 C14 1_555 1_555
C15 O3 1_555 1_555
C16 C15 1_555 1_555
C17 O4 1_555 1_555
H18 C17 1_555 1_555
H19 C17 1_555 1_555
H20 C17 1_555 1_555
C18 C13 1_555 1_555
C19 C18 1_555 1_555
H21 C19 1_555 1_555
C20 C19 1_555 1_555
H22 C20 1_555 1_555
C21 C20 1_555 1_555
H23 C21 1_555 1_555
C22 C21 1_555 1_555
H24 C22 1_555 1_555
C23 C18 1_555 1_555
H25 C23 1_555 1_555
C4 C5 1_555 1_555
C6 C7 1_555 1_555
C10 C11 1_555 1_555
C14 C15 1_555 1_555
C22 C23 1_555 1_555

#END
