
#######################################################################
#
#                 Cambridge Crystallographic Data Centre
#                                CCDC 
#
#######################################################################
#
# If this CIF has been generated from an entry in the Cambridge 
# Structural Database, then it will include bibliographic, chemical, 
# crystal, experimental, refinement or atomic coordinate data resulting 
# from the CCDC's data processing and validation procedures.
#
#######################################################################

data_HOHJAQ
_chemical_compound_source        
'seeds of Alpinia katsumadai Hayata (Zingiberaceae)'
_chemical_name_common            'Sumadain B'
_chemical_formula_moiety         'C30 H34 O4'
_chemical_name_systematic        
1-[3-hydroxy-6,9-dimethyl-6-(4-methylpent-3-en-1-yl)-6a,7,8,9,10,10a-hexahydro-6H-1,9-epoxybenzo[c]chromen-2-yl]-3-phenylprop-2-en-1-one
_chemical_properties_biological  
'The seeds of Alpinia katsumadai Hayata have been used in traditional Chinese medicine as an antiemetic agent and for the treatment of stomach disorders'
_symmetry_cell_setting           monoclinic
_symmetry_space_group_name_H-M   'P 21'
_symmetry_Int_Tables_number      4
_space_group_name_Hall           'P 2yb'
loop_
_symmetry_equiv_pos_site_id
_symmetry_equiv_pos_as_xyz
1 x,y,z
2 -x,1/2+y,-z
_cell_length_a                   8.9814(10)
_cell_length_b                   11.4454(18)
_cell_length_c                   11.977(2)
_cell_angle_alpha                90.00
_cell_angle_beta                 95.307(2)
_cell_angle_gamma                90.00
_cell_volume                     1225.91
_cell_formula_units_Z            2
loop_
_atom_site_label
_atom_site_type_symbol
_atom_site_fract_x
_atom_site_fract_y
_atom_site_fract_z
O1 O 0.0332(3) 0.9130(2) 0.5270(2)
O2 O 0.1986(3) 0.8947(2) 0.7045(2)
H1 H 0.1283 0.9186 0.6621
O3 O 0.2331(2) 0.61731(17) 0.41165(17)
O4 O 0.5517(3) 0.5924(2) 0.73835(18)
C1 C 0.1909(3) 0.7510(3) 0.5586(3)
C2 C 0.2513(4) 0.7950(3) 0.6634(3)
C3 C 0.3705(4) 0.7427(3) 0.7251(3)
H2 H 0.4130 0.7764 0.7912
C4 C 0.4253(3) 0.6389(3) 0.6861(2)
C5 C 0.3568(3) 0.5837(3) 0.5919(2)
C6 C 0.2581(3) 0.6474(3) 0.5214(2)
C7 C 0.0696(4) 0.8139(3) 0.4966(3)
C8 C -0.0163(3) 0.7624(3) 0.3976(3)
H3 H -0.0068 0.6829 0.3838
C9 C -0.1059(4) 0.8253(3) 0.3282(3)
H4 H -0.1131 0.9043 0.3450
C10 C -0.1955(4) 0.7844(3) 0.2274(3)
C11 C -0.2836(4) 0.8624(4) 0.1628(3)
H5 H -0.2862 0.9405 0.1839
C12 C -0.3681(5) 0.8251(5) 0.0671(4)
H6 H -0.4261 0.8784 0.0236
C13 C -0.3667(5) 0.7093(5) 0.0359(4)
H7 H -0.4236 0.6843 -0.0285
C14 C -0.2808(5) 0.6314(4) 0.1002(3)
H8 H -0.2807 0.5529 0.0802
C15 C -0.1957(4) 0.6684(3) 0.1933(3)
H9 H -0.1361 0.6148 0.2352
C16 C 0.4278(3) 0.4727(3) 0.5568(3)
H10 H 0.4209 0.4131 0.6148
C17 C 0.3511(4) 0.4297(3) 0.4475(3)
H11 H 0.2534 0.3985 0.4591
H12 H 0.4097 0.3681 0.4172
C18 C 0.3354(4) 0.5313(3) 0.3671(3)
C19 C 0.4903(4) 0.5832(3) 0.3555(3)
H13 H 0.4765 0.6572 0.3164
H14 H 0.5421 0.5316 0.3078
C20 C 0.5942(4) 0.6048(3) 0.4636(3)
H15 H 0.6959 0.6138 0.4439
H16 H 0.5654 0.6774 0.4973
C21 C 0.5904(3) 0.5062(3) 0.5505(3)
H17 H 0.6424 0.4384 0.5227
C22 C 0.6602(3) 0.5330(3) 0.6698(3)
C23 C 0.6988(4) 0.4191(3) 0.7327(3)
H18 H 0.6100 0.3703 0.7267
H19 H 0.7741 0.3788 0.6941
C24 C 0.7544(5) 0.4274(3) 0.8539(3)
H20 H 0.6888 0.4788 0.8912
H21 H 0.8532 0.4624 0.8602
C25 C 0.7626(5) 0.3123(3) 0.9127(3)
H22 H 0.6883 0.2590 0.8885
C26 C 0.8592(4) 0.2758(3) 0.9932(3)
C27 C 0.8509(5) 0.1558(3) 1.0425(3)
H23 H 0.7617 0.1175 1.0109
H24 H 0.8491 0.1616 1.1223
H25 H 0.9367 0.1113 1.0257
C28 C 0.9855(5) 0.3491(4) 1.0445(4)
H26 H 0.9915 0.4199 1.0022
H27 H 1.0776 0.3066 1.0439
H28 H 0.9686 0.3679 1.1204
C29 C 0.2553(4) 0.4991(3) 0.2545(3)
H29 H 0.1582 0.4683 0.2653
H30 H 0.3122 0.4411 0.2191
H31 H 0.2446 0.5673 0.2079
C30 C 0.7943(4) 0.6143(3) 0.6729(3)
H32 H 0.7635 0.6886 0.6417
H33 H 0.8687 0.5809 0.6299
H34 H 0.8354 0.6246 0.7491
loop_
_geom_bond_atom_site_label_1
_geom_bond_atom_site_label_2
_geom_bond_site_symmetry_1
_geom_bond_site_symmetry_2
O1 C7 1_555 1_555
O2 H1 1_555 1_555
O3 C6 1_555 1_555
O4 C4 1_555 1_555
C1 C2 1_555 1_555
C2 O2 1_555 1_555
C3 C2 1_555 1_555
H2 C3 1_555 1_555
C4 C3 1_555 1_555
C5 C4 1_555 1_555
C6 C1 1_555 1_555
C7 C1 1_555 1_555
C8 C7 1_555 1_555
H3 C8 1_555 1_555
C9 C8 1_555 1_555
H4 C9 1_555 1_555
C10 C9 1_555 1_555
C11 C10 1_555 1_555
H5 C11 1_555 1_555
C12 C11 1_555 1_555
H6 C12 1_555 1_555
C13 C12 1_555 1_555
H7 C13 1_555 1_555
C14 C13 1_555 1_555
H8 C14 1_555 1_555
C15 C10 1_555 1_555
H9 C15 1_555 1_555
C16 C5 1_555 1_555
H10 C16 1_555 1_555
C17 C16 1_555 1_555
H11 C17 1_555 1_555
H12 C17 1_555 1_555
C18 O3 1_555 1_555
C19 C18 1_555 1_555
H13 C19 1_555 1_555
H14 C19 1_555 1_555
C20 C19 1_555 1_555
H15 C20 1_555 1_555
H16 C20 1_555 1_555
C21 C16 1_555 1_555
H17 C21 1_555 1_555
C22 O4 1_555 1_555
C23 C22 1_555 1_555
H18 C23 1_555 1_555
H19 C23 1_555 1_555
C24 C23 1_555 1_555
H20 C24 1_555 1_555
H21 C24 1_555 1_555
C25 C24 1_555 1_555
H22 C25 1_555 1_555
C26 C25 1_555 1_555
C27 C26 1_555 1_555
H23 C27 1_555 1_555
H24 C27 1_555 1_555
H25 C27 1_555 1_555
C28 C26 1_555 1_555
H26 C28 1_555 1_555
H27 C28 1_555 1_555
H28 C28 1_555 1_555
C29 C18 1_555 1_555
H29 C29 1_555 1_555
H30 C29 1_555 1_555
H31 C29 1_555 1_555
C30 C22 1_555 1_555
H32 C30 1_555 1_555
H33 C30 1_555 1_555
H34 C30 1_555 1_555
C5 C6 1_555 1_555
C14 C15 1_555 1_555
C17 C18 1_555 1_555
C20 C21 1_555 1_555
C21 C22 1_555 1_555

#END
